drugbank_target|P34913 Bifunctional epoxide hydrolase 2 (DB02029; DB03677; DB04213; DB06345; DB08256; DB08257; DB08258; DB08259; DB12610)
 OpenBabel12092119443D

  0  0  0     0  0            999 V3000
M  V30 BEGIN CTAB
M  V30 COUNTS 8797 8904 0 0 0
M  V30 BEGIN ATOM
M  V30 1 H -0.908 1.98254 -0.117106 0
M  V30 2 N 0 1.576 0 0
M  V30 3 C 0.933 2.03868 1.02534 0
M  V30 4 C 1.911 0.928543 1.3348 0
M  V30 5 O 3.095 1.19667 1.45644 0
M  V30 6 C 0.222 2.43627 2.35294 0
M  V30 7 C -0.732 3.65373 2.2001 0
M  V30 8 S 0.101 5.13292 1.52614 0
M  V30 9 C 1.257 5.56322 2.86805 0
M  V30 10 H 1.49 2.90518 0.631377 0
M  V30 11 H -0.977 1.52953 0.210867 0
M  V30 12 H 0.981 2.67203 3.11629 0
M  V30 13 H -0.358 1.57376 2.7183 0
M  V30 14 H -1.165 3.90944 3.18086 0
M  V30 15 H -1.563 3.418 1.51819 0
M  V30 16 H 0.729 5.58782 3.83104 0
M  V30 17 H 1.672 6.56266 2.65933 0
M  V30 18 H 2.08 4.83886 2.90714 0
M  V30 19 N 1.4781 -0.272755 1.55222 0
M  V30 20 C 2.7061 -1.02255 1.79865 0
M  V30 21 C 3.1211 -1.79924 0.572088 0
M  V30 22 O 2.4781 -1.76638 -0.458842 0
M  V30 23 C 2.5291 -1.98094 3.02392 0
M  V30 24 O 2.2501 -1.23572 4.20311 0
M  V30 25 C 3.7511 -2.84884 3.39641 0
M  V30 26 H 0.9711 -0.302057 0.599168 0
M  V30 27 H 3.5151 -0.303465 2.02236 0
M  V30 28 H 1.6701 -2.65465 2.82147 0
M  V30 29 H 2.0841 -1.88172 4.89583 0
M  V30 30 H 3.5581 -3.47927 4.28545 0
M  V30 31 H 4.0351 -3.54665 2.59055 0
M  V30 32 H 4.6411 -2.23003 3.62146 0
M  V30 33 N 2.9562 -1.48159 -0.537278 0
M  V30 34 C 3.8862 -1.65029 -1.6519 0
M  V30 35 C 4.8672 -0.499281 -1.62607 0
M  V30 36 O 6.0522 -0.730972 -1.79918 0
M  V30 37 C 3.1822 -1.68303 -3.03795 0
M  V30 38 C 2.1362 -2.8283 -3.21234 0
M  V30 39 C 1.4622 -2.71189 -4.60826 0
M  V30 40 C 2.7622 -4.24211 -3.04701 0
M  V30 41 H 4.4562 -2.58341 -1.51328 0
M  V30 42 H 2.0022 -1.24325 -0.726585 0
M  V30 43 H 3.9552 -1.78693 -3.81637 0
M  V30 44 H 2.6792 -0.715635 -3.18663 0
M  V30 45 H 1.3382 -2.71983 -2.45807 0
M  V30 46 H 0.9862 -1.72435 -4.7252 0
M  V30 47 H 0.6862 -3.48035 -4.7344 0
M  V30 48 H 2.2102 -2.83537 -5.40777 0
M  V30 49 H 3.6242 -4.3593 -3.72341 0
M  V30 50 H 2.0212 -5.01998 -3.28813 0
M  V30 51 H 3.0912 -4.41184 -2.01209 0
M  V30 52 N 4.4343 0.785586 -1.36625 0
M  V30 53 C 5.8503 1.08419 -1.17122 0
M  V30 54 C 6.0503 2.015 0.00208491 0
M  V30 55 O 5.1063 2.43551 0.666278 0
M  V30 56 C 6.4193 1.69498 -2.48377 0
M  V30 57 C 7.9673 1.81821 -2.54775 0
M  V30 58 C 8.4423 2.46315 -3.86126 0
M  V30 59 N 9.9333 2.53779 -3.87492 0
M  V30 60 C 10.6683 3.045 -4.85868 0
M  V30 61 N 10.1643 3.55499 -5.94637 0
M  V30 62 N 11.9573 3.03247 -4.73284 0
M  V30 63 H 4.1083 0.167264 -2.1174 0
M  V30 64 H 6.3713 0.13682 -0.938075 0
M  V30 65 H 6.0773 1.08571 -3.34522 0
M  V30 66 H 5.9513 2.6896 -2.64462 0
M  V30 67 H 8.3383 2.41884 -1.69045 0
M  V30 68 H 8.4193 0.811532 -2.42586 0
M  V30 69 H 8.0633 1.86895 -4.72263 0
M  V30 70 H 7.9933 3.47561 -3.95612 0
M  V30 71 H 10.4843 2.17672 -3.08913 0
M  V30 72 H 10.7973 3.92562 -6.65669 0
M  V30 73 H 9.1423 3.5364 -5.98301 0
M  V30 74 H 12.3333 2.62696 -3.87438 0
M  V30 75 H 12.5063 3.42467 -5.50109 0
M  V30 76 N 5.9124 1.20967 1.01018 0
M  V30 77 C 6.8754 0.965918 2.07853 0
M  V30 78 C 7.8754 -0.0610545 1.60684 0
M  V30 79 O 9.0654 0.175681 1.73312 0
M  V30 80 C 6.1974 0.455513 3.37843 0
M  V30 81 H 7.3904 1.91365 2.3091 0
M  V30 82 H 4.9434 1.02594 1.17916 0
M  V30 83 H 5.6784 -0.497381 3.20463 0
M  V30 84 H 5.4634 1.19622 3.73407 0
M  V30 85 H 6.9534 0.304667 4.16487 0
M  V30 86 N 7.3905 -1.2043 1.01659 0
M  V30 87 C 8.3535 -2.21433 0.591616 0
M  V30 88 C 9.3535 -1.57203 -0.338226 0
M  V30 89 O 10.5435 -1.73737 -0.126918 0
M  V30 90 C 7.6755 -3.40628 -0.136058 0
M  V30 91 H 8.8685 -2.60545 1.48514 0
M  V30 92 H 6.4215 -1.33893 0.806379 0
M  V30 93 H 7.1565 -3.07019 -1.04449 0
M  V30 94 H 6.9415 -3.88475 0.531917 0
M  V30 95 H 8.4315 -4.15475 -0.420735 0
M  V30 96 N 8.8686 -0.792821 -1.36206 0
M  V30 97 C 10.1146 -0.36733 -1.99446 0
M  V30 98 C 10.4476 1.05917 -1.62774 0
M  V30 99 O 9.7226 1.7324 -0.88421 0
M  V30 100 C 10.0056 -0.535044 -3.56103 0
M  V30 101 C 9.8586 -2.00548 -4.02617 0
M  V30 102 C 11.1776 0.0478191 -4.40074 0
M  V30 103 H 8.2966 -0.134941 -0.724541 0
M  V30 104 H 10.9386 -0.999794 -1.61568 0
M  V30 105 H 9.0886 0.00336329 -3.885 0
M  V30 106 H 10.7606 -2.60521 -3.80692 0
M  V30 107 H 9.0036 -2.50686 -3.54032 0
M  V30 108 H 9.6746 -2.07377 -5.11565 0
M  V30 109 H 12.1506 -0.411822 -4.14057 0
M  V30 110 H 11.0266 -0.0995336 -5.4881 0
M  V30 111 H 11.2876 1.14025 -4.27142 0
M  V30 112 N 10.3467 1.47872 -0.545128 0
M  V30 113 C 11.5937 2.02493 -0.0165858 0
M  V30 114 C 11.9217 1.42073 1.32836 0
M  V30 115 O 11.1767 0.561459 1.87473 0
M  V30 116 C 11.4757 3.57131 0.13867 0
M  V30 117 C 11.1417 4.36411 -1.13384 0
M  V30 118 C 9.8037 4.57792 -1.48256 0
M  V30 119 C 12.1557 4.82223 -1.97764 0
M  V30 120 C 9.4837 5.22233 -2.67376 0
M  V30 121 C 11.8357 5.47977 -3.16076 0
M  V30 122 C 10.4997 5.67593 -3.51275 0
M  V30 123 H 9.7697 0.740975 -0.00606918 0
M  V30 124 H 12.4167 1.77683 -0.714207 0
M  V30 125 H 10.7217 3.80865 0.919172 0
M  V30 126 H 12.4187 3.97031 0.562782 0
M  V30 127 H 9.0087 4.2004 -0.852297 0
M  V30 128 H 13.1927 4.65493 -1.72132 0
M  V30 129 H 8.4487 5.35616 -2.94831 0
M  V30 130 H 12.6227 5.8244 -3.81755 0
M  V30 131 H 10.2497 6.17298 -4.43675 0
M  V30 132 N 11.8248 0.280983 1.55075 0
M  V30 133 C 13.1018 -0.386207 1.91749 0
M  V30 134 C 13.4818 -1.73264 1.20594 0
M  V30 135 O 12.8298 -2.26034 0.334784 0
M  V30 136 C 13.0398 -0.520687 3.45094 0
M  V30 137 C 14.3878 -0.800865 4.16979 0
M  V30 138 O 15.4118 -0.605271 3.5102 0
M  V30 139 O 14.2708 -1.1753 5.33712 0
M  V30 140 H 11.3648 -0.212408 0.799257 0
M  V30 141 H 13.9108 0.327568 1.66509 0
M  V30 142 H 12.6828 0.426633 3.88967 0
M  V30 143 H 12.3058 -1.2837 3.76307 0
M  V30 144 N 13.3029 -1.57598 0.00835791 0
M  V30 145 C 14.2329 -2.1198 -0.979113 0
M  V30 146 C 15.2139 -1.03091 -1.35301 0
M  V30 147 O 16.3989 -1.30818 -1.43528 0
M  V30 148 C 13.5289 -2.62995 -2.26828 0
M  V30 149 C 12.4829 -3.76485 -2.03576 0
M  V30 150 C 11.8089 -4.13846 -3.38579 0
M  V30 151 C 13.1089 -5.0342 -1.39161 0
M  V30 152 H 14.8029 -2.94738 -0.526281 0
M  V30 153 H 12.3489 -1.41783 -0.251704 0
M  V30 154 H 14.3019 -2.99669 -2.96271 0
M  V30 155 H 13.0259 -1.7737 -2.7424 0
M  V30 156 H 11.6849 -3.40217 -1.36557 0
M  V30 157 H 11.3329 -3.25232 -3.83709 0
M  V30 158 H 11.0329 -4.90312 -3.23834 0
M  V30 159 H 12.5569 -4.53086 -4.09323 0
M  V30 160 H 13.9709 -5.37812 -1.98573 0
M  V30 161 H 12.3679 -5.84746 -1.34878 0
M  V30 162 H 13.4379 -4.83548 -0.361868 0
M  V30 163 N 14.781 0.264519 -1.55364 0
M  V30 164 C 16.058 1.01677 -1.67096 0
M  V30 165 C 16.438 2.03996 -0.543015 0
M  V30 166 O 15.786 2.23907 0.45585 0
M  V30 167 C 15.996 1.66596 -3.0667 0
M  V30 168 C 17.344 2.17442 -3.64697 0
M  V30 169 O 18.368 1.76568 -3.09358 0
M  V30 170 O 17.227 2.92439 -4.61673 0
M  V30 171 H 14.321 0.472161 -0.678965 0
M  V30 172 H 16.867 0.259703 -1.67701 0
M  V30 173 H 15.639 0.924962 -3.80211 0
M  V30 174 H 15.262 2.48968 -3.10001 0
M  V30 175 N 16.2591 1.48442 0.529413 0
M  V30 176 C 17.5071 1.56179 1.28267 0
M  V30 177 C 17.8281 0.237721 1.93546 0
M  V30 178 O 17.0981 -0.740779 1.81354 0
M  V30 179 H 15.6781 0.575367 0.476405 0
M  V30 180 H 18.3401 1.84909 0.61602 0
M  V30 181 H 17.4361 2.34312 2.06165 0
M  V30 182 N 17.7372 -0.778329 1.37039 0
M  V30 183 C 18.9832 -1.53892 1.32079 0
M  V30 184 C 19.3162 -1.9396 -0.0965386 0
M  V30 185 O 18.5912 -1.63568 -1.05242 0
M  V30 186 C 18.8742 -2.80847 2.25382 0
M  V30 187 C 18.7272 -2.47076 3.75864 0
M  V30 188 C 20.0462 -3.82741 2.1725 0
M  V30 189 H 17.1652 -0.558303 0.48111 0
M  V30 190 H 19.8072 -0.893397 1.67685 0
M  V30 191 H 17.9572 -3.35931 1.95148 0
M  V30 192 H 19.6292 -1.97957 4.16666 0
M  V30 193 H 17.8722 -1.79863 3.94755 0
M  V30 194 H 18.5432 -3.37798 4.36574 0
M  V30 195 H 21.0192 -3.37133 2.43887 0
M  V30 196 H 19.8952 -4.69303 2.84686 0
M  V30 197 H 20.1562 -4.2652 1.16331 0
M  V30 198 N 19.2153 -1.21501 -1.00376 0
M  V30 199 C 20.1453 -0.999478 -2.11028 0
M  V30 200 C 21.1263 0.0759671 -1.6993 0
M  V30 201 O 22.3113 -0.0841106 -1.94018 0
M  V30 202 C 19.4413 -0.564709 -3.42678 0
M  V30 203 C 18.3953 -1.58486 -3.97576 0
M  V30 204 C 17.7213 -1.00628 -5.25146 0
M  V30 205 C 19.0213 -2.97204 -4.29496 0
M  V30 206 H 20.7153 -1.92495 -2.29317 0
M  V30 207 H 18.2613 -0.92693 -1.102 0
M  V30 208 H 20.2143 -0.401091 -4.19487 0
M  V30 209 H 18.9383 0.396411 -3.24185 0
M  V30 210 H 17.5973 -1.73606 -3.22888 0
M  V30 211 H 17.2453 -0.0368439 -5.02987 0
M  V30 212 H 16.9453 -1.68771 -5.62841 0
M  V30 213 H 18.4693 -0.854015 -6.04598 0
M  V30 214 H 19.8833 -2.8552 -4.97143 0
M  V30 215 H 18.2803 -3.62372 -4.78338 0
M  V30 216 H 19.3503 -3.47956 -3.3772 0
M  V30 217 N 20.6934 1.19889 -1.02296 0
M  V30 218 C 21.6564 2.21116 -0.603351 0
M  V30 219 C 22.6564 1.5738 0.329884 0
M  V30 220 O 23.8464 1.73802 0.117702 0
M  V30 221 C 20.9784 3.40696 0.117992 0
M  V30 222 H 22.1714 2.59754 -1.49893 0
M  V30 223 H 19.7244 1.33463 -0.813468 0
M  V30 224 H 20.4594 3.07569 1.0282 0
M  V30 225 H 20.2444 3.88188 -0.552511 0
M  V30 226 H 21.7344 4.15692 0.398696 0
M  V30 227 N 22.1715 0.800033 1.35784 0
M  V30 228 C 23.1015 0.220184 2.3246 0
M  V30 229 C 24.0825 -0.65073 1.57161 0
M  V30 230 O 25.2675 -0.582359 1.85263 0
M  V30 231 C 22.3975 -0.637353 3.41402 0
M  V30 232 C 21.3515 0.134531 4.27789 0
M  V30 233 C 20.6775 -0.844285 5.27992 0
M  V30 234 C 21.9775 1.32979 5.05088 0
M  V30 235 H 23.6715 1.02787 2.81203 0
M  V30 236 H 21.2175 0.495717 1.35199 0
M  V30 237 H 23.1705 -1.05302 4.08031 0
M  V30 238 H 21.8945 -1.47785 2.91251 0
M  V30 239 H 20.5535 0.531296 3.6273 0
M  V30 240 H 20.2015 -1.68011 4.74111 0
M  V30 241 H 19.9015 -0.332184 5.8666 0
M  V30 242 H 21.4255 -1.2583 5.97494 0
M  V30 243 H 22.8395 0.98934 5.64699 0
M  V30 244 H 21.2365 1.77593 5.7322 0
M  V30 245 H 22.3065 2.11978 4.36111 0
M  V30 246 N 23.6496 -1.47581 0.552962 0
M  V30 247 C 25.0606 -1.86324 0.118463 0
M  V30 248 C 25.4116 -1.46006 -1.3106 0
M  V30 249 O 24.5366 -0.861182 -1.98526 0
M  V30 250 C 25.1316 -3.3816 0.20821 0
M  V30 251 C 23.6906 -3.7601 -0.171226 0
M  V30 252 C 22.8376 -2.71634 0.557686 0
M  V30 253 H 25.7886 -1.39159 0.762928 0
M  V30 254 H 25.8096 -3.76141 -0.574278 0
M  V30 255 H 25.3216 -3.67473 1.24841 0
M  V30 256 H 23.4226 -3.52313 -1.21269 0
M  V30 257 H 23.5356 -4.78745 0.184379 0
M  V30 258 H 21.8996 -2.547 0.00125792 0
M  V30 259 H 22.6826 -3.0379 1.59896 0
M  V30 260 N 25.1277 -0.289203 -1.54924 0
M  V30 261 C 26.0907 0.579144 -2.21762 0
M  V30 262 C 27.0907 1.07047 -1.1999 0
M  V30 263 O 28.2807 0.968384 -1.44803 0
M  V30 264 C 25.4127 1.80055 -2.8947 0
M  V30 265 H 26.6057 -0.00464908 -2.999 0
M  V30 266 H 24.1587 -0.0399306 -1.56249 0
M  V30 267 H 24.8937 2.42449 -2.15381 0
M  V30 268 H 24.6787 1.45602 -3.64064 0
M  V30 269 H 26.1687 2.41773 -3.40493 0
M  V30 270 N 26.6058 1.57591 -0.0167156 0
M  V30 271 C 27.8518 1.91567 0.665582 0
M  V30 272 C 28.1848 0.892298 1.72487 0
M  V30 273 O 27.4598 -0.0867127 1.94307 0
M  V30 274 C 27.7428 3.36069 1.29342 0
M  V30 275 C 27.5958 4.49135 0.244541 0
M  V30 276 C 28.9148 3.803 2.21495 0
M  V30 277 H 26.0338 0.69666 0.240488 0
M  V30 278 H 28.6758 1.89866 -0.0714356 0
M  V30 279 H 26.8258 3.3765 1.92158 0
M  V30 280 H 28.4978 4.59689 -0.385228 0
M  V30 281 H 26.7408 4.3165 -0.431379 0
M  V30 282 H 27.4118 5.47242 0.723207 0
M  V30 283 H 29.8878 3.80377 1.68678 0
M  V30 284 H 28.7638 4.82127 2.62382 0
M  V30 285 H 29.0248 3.15104 3.101 0
M  V30 286 N 28.0839 -0.256276 1.55502 0
M  V30 287 C 29.3309 -0.985619 1.76895 0
M  V30 288 C 29.6589 -1.85671 0.579355 0
M  V30 289 O 28.9139 -1.90744 -0.437651 0
M  V30 290 C 29.2129 -1.88432 3.03691 0
M  V30 291 C 28.8789 -1.16936 4.35473 0
M  V30 292 C 27.5409 -0.97173 4.71286 0
M  V30 293 C 29.8929 -0.661889 5.1698 0
M  V30 294 C 27.2209 -0.254179 5.86149 0
M  V30 295 C 29.5729 0.042149 6.32586 0
M  V30 296 C 28.2369 0.25134 6.67027 0
M  V30 297 H 27.5069 -0.360663 0.647304 0
M  V30 298 H 30.1539 -0.256483 1.89775 0
M  V30 299 H 28.4589 -2.68021 2.85783 0
M  V30 300 H 30.1559 -2.45015 3.1744 0
M  V30 301 H 26.7459 -1.33332 4.07333 0
M  V30 302 H 30.9299 -0.802145 4.89775 0
M  V30 303 H 26.1859 -0.0815408 6.11346 0
M  V30 304 H 30.3599 0.443049 6.94989 0
M  V30 305 H 27.9869 0.809314 7.5588 0
M  V30 306 N 29.562 -1.4872 -0.521534 0
M  V30 307 C 30.81 -1.56857 -1.27437 0
M  V30 308 C 31.131 -0.247982 -1.93417 0
M  V30 309 O 30.401 0.731151 -1.81744 0
M  V30 310 H 28.981 -0.577885 -0.473347 0
M  V30 311 H 31.643 -1.85233 -0.606205 0
M  V30 312 H 30.739 -2.35402 -2.0492 0
M  V30 313 N 31.0401 0.771051 -1.3745 0
M  V30 314 C 32.2861 1.5319 -1.32894 0
M  V30 315 C 32.6191 1.94008 0.0862511 0
M  V30 316 O 31.8941 1.64124 1.04373 0
M  V30 317 C 32.1771 2.79648 -2.26868 0
M  V30 318 C 32.0301 2.45079 -3.77169 0
M  V30 319 C 33.3491 3.81583 -2.19277 0
M  V30 320 H 30.4681 0.555744 -0.484064 0
M  V30 321 H 33.1101 0.884492 -1.68157 0
M  V30 322 H 31.2601 3.34891 -1.96926 0
M  V30 323 H 32.9321 1.95745 -4.1771 0
M  V30 324 H 31.1751 1.77767 -3.95704 0
M  V30 325 H 31.8461 3.35478 -4.38359 0
M  V30 326 H 34.3221 3.35835 -2.45671 0
M  V30 327 H 33.1981 4.67787 -2.87171 0
M  V30 328 H 33.4591 4.25897 -1.18592 0
M  V30 329 N 32.5182 1.22032 0.997298 0
M  V30 330 C 33.4482 1.01065 2.10495 0
M  V30 331 C 34.4292 -0.0669542 1.69968 0
M  V30 332 O 35.6142 0.0943987 1.9397 0
M  V30 333 C 32.7442 0.582874 3.42374 0
M  V30 334 C 31.6982 1.60592 3.96729 0
M  V30 335 C 31.0242 1.03412 5.24605 0
M  V30 336 C 32.3242 2.99478 4.27914 0
M  V30 337 H 34.0182 1.93708 2.28292 0
M  V30 338 H 31.5642 0.932761 1.09707 0
M  V30 339 H 33.5172 0.423332 4.19268 0
M  V30 340 H 32.2412 -0.379213 3.24391 0
M  V30 341 H 30.9002 1.75316 3.21963 0
M  V30 342 H 30.5482 0.063518 5.0296 0
M  V30 343 H 30.2482 1.71754 5.61938 0
M  V30 344 H 31.7722 0.886066 6.04137 0
M  V30 345 H 33.1862 2.88153 4.95622 0
M  V30 346 H 31.5832 3.64903 4.76409 0
M  V30 347 H 32.6532 3.49742 3.3587 0
M  V30 348 N 33.9963 -1.19345 1.0293 0
M  V30 349 C 35.2443 -1.88665 0.724574 0
M  V30 350 C 35.5653 -1.80036 -0.749144 0
M  V30 351 O 34.8353 -1.2111 -1.53978 0
M  V30 352 H 33.4153 -0.698406 0.265025 0
M  V30 353 H 36.0773 -1.44885 1.30362 0
M  V30 354 H 35.1733 -2.94987 1.01926 0
M  V30 355 N 35.4744 -0.807222 -1.35358 0
M  V30 356 C 36.8904 -0.491038 -1.51858 0
M  V30 357 C 37.0904 0.987648 -1.75635 0
M  V30 358 O 36.1464 1.77265 -1.79815 0
M  V30 359 C 37.4594 -1.33695 -2.69344 0
M  V30 360 C 39.0074 -1.33246 -2.83222 0
M  V30 361 C 39.4824 -2.1625 -4.03733 0
M  V30 362 N 40.9734 -2.1379 -4.10911 0
M  V30 363 C 41.7084 -2.74772 -5.03277 0
M  V30 364 N 41.2044 -3.44684 -6.0097 0
M  V30 365 N 42.9974 -2.6441 -4.96028 0
M  V30 366 H 35.1484 -1.76485 -1.18181 0
M  V30 367 H 37.4114 -0.751199 -0.578276 0
M  V30 368 H 37.1174 -2.38634 -2.58354 0
M  V30 369 H 36.9914 -0.990618 -3.6396 0
M  V30 370 H 39.3784 -0.290911 -2.93663 0
M  V30 371 H 39.4594 -1.71866 -1.89461 0
M  V30 372 H 39.1034 -3.20445 -3.94052 0
M  V30 373 H 39.0334 -1.74989 -4.96675 0
M  V30 374 H 41.5244 -1.62923 -3.40976 0
M  V30 375 H 41.8374 -3.88501 -6.68047 0
M  V30 376 H 40.1824 -3.48788 -6.01142 0
M  V30 377 H 43.3734 -2.0938 -4.18662 0
M  V30 378 H 43.5464 -3.12225 -5.6782 0
M  V30 379 N 36.9525 1.47285 -0.560781 0
M  V30 380 C 38.1805 2.06855 -0.0430262 0
M  V30 381 C 38.5955 1.41291 1.25229 0
M  V30 382 O 37.9525 0.510648 1.7521 0
M  V30 383 C 38.0035 3.61178 0.152518 0
M  V30 384 O 37.7245 4.24285 -1.0915 0
M  V30 385 C 39.2255 4.37624 0.707145 0
M  V30 386 H 36.4455 0.669319 -0.0474652 0
M  V30 387 H 38.9895 1.89237 -0.77521 0
M  V30 388 H 37.1445 3.78298 0.834843 0
M  V30 389 H 37.5585 5.16868 -0.891482 0
M  V30 390 H 39.0325 5.46271 0.793244 0
M  V30 391 H 39.5095 4.04152 1.71923 0
M  V30 392 H 40.1155 4.25257 0.0604027 0
M  V30 393 N 38.4306 0.297415 1.54768 0
M  V30 394 C 39.3406 -0.58983 2.27064 0
M  V30 395 C 40.3566 -1.15144 1.30453 0
M  V30 396 O 41.5326 -1.17699 1.63428 0
M  V30 397 C 38.5976 -1.74714 2.9946 0
M  V30 398 C 37.6586 -1.21997 4.11601 0
M  V30 399 C 36.8916 -2.32212 4.80535 0
M  V30 400 O 37.1146 -3.52036 4.48806 0
M  V30 401 O 36.0486 -1.99106 5.68014 0
M  V30 402 H 39.8746 -0.00348199 3.037 0
M  V30 403 H 37.4596 0.0640035 1.49263 0
M  V30 404 H 39.3416 -2.42147 3.44881 0
M  V30 405 H 38.0166 -2.32016 2.25722 0
M  V30 406 H 36.9236 -0.511458 3.70587 0
M  V30 407 H 38.2566 -0.692419 4.87305 0
M  V30 408 N 39.9087 -1.5758 0.0250728 0
M  V30 409 C 40.8187 -2.1343 -0.973905 0
M  V30 410 C 41.8347 -1.08556 -1.35984 0
M  V30 411 O 43.0107 -1.40592 -1.44207 0
M  V30 412 C 40.0757 -2.64703 -2.23904 0
M  V30 413 C 39.1367 -3.84276 -1.91391 0
M  V30 414 C 38.3697 -4.33095 -3.11873 0
M  V30 415 O 38.5927 -3.81107 -4.24398 0
M  V30 416 O 37.5267 -5.24984 -2.94406 0
M  V30 417 H 41.3527 -2.99057 -0.529036 0
M  V30 418 H 38.9377 -1.48118 -0.195288 0
M  V30 419 H 40.8197 -2.97769 -2.98181 0
M  V30 420 H 39.4947 -1.82161 -2.6758 0
M  V30 421 H 38.4017 -3.56143 -1.14511 0
M  V30 422 H 39.7347 -4.67968 -1.52534 0
M  V30 423 N 41.3868 0.248026 -1.55636 0
M  V30 424 C 42.3498 1.29044 -1.89421 0
M  V30 425 C 43.3498 1.41134 -0.770581 0
M  V30 426 O 44.5398 1.39854 -1.03858 0
M  V30 427 C 41.6718 2.66831 -2.12165 0
M  V30 428 H 42.8648 1.00305 -2.82629 0
M  V30 429 H 40.4178 0.487265 -1.48511 0
M  V30 430 H 41.1528 3.00711 -1.21422 0
M  V30 431 H 40.9378 2.59438 -2.93997 0
M  V30 432 H 42.4278 3.42103 -2.3949 0
M  V30 433 N 42.8649 1.48995 0.513639 0
M  V30 434 C 43.7949 1.67636 1.62544 0
M  V30 435 C 44.7759 0.525087 1.61793 0
M  V30 436 O 45.9609 0.759502 1.78732 0
M  V30 437 C 43.0909 1.73114 3.01079 0
M  V30 438 C 42.0449 2.87905 3.16693 0
M  V30 439 C 41.3709 2.78486 4.56453 0
M  V30 440 C 42.6709 4.29005 2.97913 0
M  V30 441 H 44.3649 2.60716 1.47198 0
M  V30 442 H 41.9109 1.25465 0.706714 0
M  V30 443 H 43.8639 1.84742 3.78746 0
M  V30 444 H 42.5879 0.766241 3.17484 0
M  V30 445 H 41.2469 2.75859 2.41448 0
M  V30 446 H 40.8949 1.7993 4.69717 0
M  V30 447 H 40.5949 3.55523 4.67843 0
M  V30 448 H 42.1189 2.92104 5.36197 0
M  V30 449 H 43.5329 4.41798 3.65359 0
M  V30 450 H 41.9299 5.07166 3.20785 0
M  V30 451 H 42.9999 4.44329 1.94165 0
M  V30 452 N 44.343 -0.763751 1.37857 0
M  V30 453 C 45.306 -1.85889 1.34081 0
M  V30 454 C 46.306 -1.58949 0.243277 0
M  V30 455 O 47.496 -1.66882 0.499589 0
M  V30 456 C 44.628 -3.23176 1.08489 0
M  V30 457 H 45.821 -1.90648 2.31502 0
M  V30 458 H 43.374 -0.964367 1.23003 0
M  V30 459 H 44.109 -3.24091 0.116318 0
M  V30 460 H 43.894 -3.44124 1.8794 0
M  V30 461 H 45.384 -4.03254 1.08517 0
M  V30 462 N 45.8211 -1.22559 -0.990812 0
M  V30 463 C 46.7511 -1.0218 -2.09956 0
M  V30 464 C 47.7321 0.0579394 -1.70001 0
M  V30 465 O 48.9171 -0.104684 -1.93918 0
M  V30 466 C 46.0471 -0.601023 -3.4206 0
M  V30 467 C 45.0011 -1.62694 -3.95872 0
M  V30 468 C 44.3271 -1.06193 -5.24049 0
M  V30 469 C 45.6271 -3.01743 -4.2632 0
M  V30 470 H 47.3211 -1.94916 -2.27262 0
M  V30 471 H 44.8671 -0.938566 -1.09211 0
M  V30 472 H 46.8201 -0.445561 -4.19038 0
M  V30 473 H 45.5441 0.362005 -3.24588 0
M  V30 474 H 44.2031 -1.77021 -3.21028 0
M  V30 475 H 43.8511 -0.0901903 -5.02919 0
M  V30 476 H 43.5511 -1.74732 -5.61019 0
M  V30 477 H 45.0751 -0.918092 -6.03658 0
M  V30 478 H 46.4891 -2.90777 -4.94087 0
M  V30 479 H 44.8861 -3.67425 -4.74467 0
M  V30 480 H 45.9561 -3.51518 -3.34011 0
M  V30 481 N 47.2992 1.18797 -1.03562 0
M  V30 482 C 48.7102 1.70322 -0.764676 0
M  V30 483 C 49.0612 1.82708 0.714996 0
M  V30 484 O 48.1862 1.50299 1.55689 0
M  V30 485 C 48.7812 3.09356 -1.38145 0
M  V30 486 C 47.3402 3.58114 -1.15895 0
M  V30 487 C 46.4872 2.34798 -1.4753 0
M  V30 488 H 49.4382 1.03543 -1.20268 0
M  V30 489 H 49.4592 3.72378 -0.781977 0
M  V30 490 H 48.9712 3.00309 -2.45837 0
M  V30 491 H 47.0722 3.72464 -0.100544 0
M  V30 492 H 47.1852 4.4184 -1.8524 0
M  V30 493 H 45.5492 2.38464 -0.894829 0
M  V30 494 H 46.3322 2.28375 -2.56319 0
M  V30 495 N 48.7773 0.814389 1.34928 0
M  V30 496 C 50.1933 0.499084 1.51596 0
M  V30 497 C 50.3933 -0.978319 1.76157 0
M  V30 498 O 49.4493 -1.76309 1.80752 0
M  V30 499 C 50.7623 1.35121 2.68631 0
M  V30 500 C 52.3103 1.34746 2.82511 0
M  V30 501 C 52.7853 2.18388 4.0258 0
M  V30 502 N 54.2763 2.15966 4.09772 0
M  V30 503 C 55.0113 2.77437 5.01813 0
M  V30 504 N 54.5073 3.47866 5.99134 0
M  V30 505 N 56.3003 2.67037 4.94619 0
M  V30 506 H 48.4513 1.7711 1.17243 0
M  V30 507 H 50.7143 0.754256 0.574284 0
M  V30 508 H 50.4203 2.40001 2.57085 0
M  V30 509 H 50.2943 1.00991 3.63429 0
M  V30 510 H 52.6813 0.30648 2.93504 0
M  V30 511 H 52.7623 1.72869 1.88547 0
M  V30 512 H 52.4063 3.2253 3.92347 0
M  V30 513 H 52.3363 1.77621 4.9574 0
M  V30 514 H 54.8273 1.64729 3.40107 0
M  V30 515 H 55.1403 3.92038 6.65977 0
M  V30 516 H 53.4853 3.51972 5.99284 0
M  V30 517 H 56.6763 2.11597 4.17546 0
M  V30 518 H 56.8493 3.15232 5.66156 0
M  V30 519 N 50.2554 -1.46986 0.568584 0
M  V30 520 C 51.5034 -2.02041 0.0487022 0
M  V30 521 C 51.8244 -1.44408 -1.31039 0
M  V30 522 O 51.0944 -0.623477 -1.85714 0
M  V30 523 H 49.6744 -0.746849 0.015014 0
M  V30 524 H 52.3364 -1.80257 0.741168 0
M  V30 525 H 51.4324 -3.12085 -0.0308961 0
M  V30 526 N 51.7335 -0.305618 -1.54608 0
M  V30 527 C 52.6635 0.561482 -2.26649 0
M  V30 528 C 53.6445 1.13415 -1.26772 0
M  V30 529 O 54.8295 1.16262 -1.55553 0
M  V30 530 C 51.9595 1.73122 -3.01075 0
M  V30 531 C 50.9135 1.2887 -4.08138 0
M  V30 532 C 50.2395 2.54396 -4.70305 0
M  V30 533 C 51.5395 0.416578 -5.20636 0
M  V30 534 H 53.2335 -0.0393902 -2.99374 0
M  V30 535 H 50.7795 -0.020385 -1.43986 0
M  V30 536 H 52.7325 2.34396 -3.50195 0
M  V30 537 H 51.4565 2.3584 -2.25936 0
M  V30 538 H 50.1155 0.698991 -3.59875 0
M  V30 539 H 49.7635 3.15439 -3.918 0
M  V30 540 H 49.4635 2.25486 -5.42614 0
M  V30 541 H 50.9875 3.16464 -5.2219 0
M  V30 542 H 52.4015 0.935116 -5.65622 0
M  V30 543 H 50.7985 0.221046 -5.99693 0
M  V30 544 H 51.8685 -0.557162 -4.81688 0
M  V30 545 N 53.2116 1.57565 -0.0334293 0
M  V30 546 C 54.1416 2.13511 0.945265 0
M  V30 547 C 55.1226 1.05231 1.33643 0
M  V30 548 O 56.3076 1.33084 1.41429 0
M  V30 549 C 53.4376 2.6657 2.22616 0
M  V30 550 C 52.3916 3.79676 1.97561 0
M  V30 551 C 51.7176 4.1918 3.31952 0
M  V30 552 C 53.0176 5.0557 1.31135 0
M  V30 553 H 54.7116 2.95538 0.479325 0
M  V30 554 H 52.2576 1.42166 0.229115 0
M  V30 555 H 54.2106 3.04344 2.91466 0
M  V30 556 H 52.9346 1.8171 2.71384 0
M  V30 557 H 51.5936 3.42347 1.31127 0
M  V30 558 H 51.2416 3.31296 3.78487 0
M  V30 559 H 50.9416 4.95402 3.15992 0
M  V30 560 H 52.4656 4.59541 4.02063 0
M  V30 561 H 53.8796 5.40903 1.89992 0
M  V30 562 H 52.2766 5.86818 1.25559 0
M  V30 563 H 53.3466 4.84062 0.284894 0
M  V30 564 N 54.6897 -0.239769 1.55765 0
M  V30 565 C 55.6377 -1.31668 1.91745 0
M  V30 566 C 56.6317 -1.49462 0.797338 0
M  V30 567 O 57.8377 -1.50852 0.982021 0
M  V30 568 H 54.2127 -0.441048 0.609082 0
M  V30 569 H 56.1837 -0.985923 2.81642 0
M  V30 570 C 54.9327 -2.66368 2.2348 0
M  V30 571 H 54.2557 -2.53478 3.09175 0
M  V30 572 H 55.6957 -3.40578 2.52553 0
M  V30 573 C 54.1547 -3.20002 1.05359 0
M  V30 574 O 54.6847 -4.00538 0.305261 0
M  V30 575 N 52.8907 -2.78126 0.842292 0
M  V30 576 H 52.4377 -2.12742 1.45253 0
M  V30 577 H 52.3957 -3.14354 0.053652 0
M  V30 578 N 56.1678 -1.49265 -0.50573 0
M  V30 579 C 57.4448 -1.49012 -1.26707 0
M  V30 580 C 57.8248 -0.215205 -2.1 0
M  V30 581 O 57.1728 0.802547 -2.13943 0
M  V30 582 C 57.3828 -2.7663 -2.12783 0
M  V30 583 C 58.7308 -3.25932 -2.72127 0
M  V30 584 O 59.7548 -2.77715 -2.23054 0
M  V30 585 O 58.6138 -4.09897 -3.61451 0
M  V30 586 H 55.7078 -0.596197 -0.57313 0
M  V30 587 H 58.2538 -1.61524 -0.52039 0
M  V30 588 H 57.0258 -3.60916 -1.5118 0
M  V30 589 H 56.6488 -2.66956 -2.94653 0
M  V30 590 N 57.6459 0.756429 -1.3826 0
M  V30 591 C 58.6089 1.85176 -1.35065 0
M  V30 592 C 59.6089 1.58818 -0.251703 0
M  V30 593 O 60.7989 1.66615 -0.508433 0
M  V30 594 C 57.9309 3.22596 -1.10201 0
M  V30 595 H 59.1239 1.89417 -2.3251 0
M  V30 596 H 56.6769 0.95783 -1.23512 0
M  V30 597 H 57.4119 3.24025 -0.133504 0
M  V30 598 H 57.1969 3.43122 -1.89762 0
M  V30 599 H 58.6869 4.02673 -1.10654 0
M  V30 600 N 59.124 1.23083 0.984299 0
M  V30 601 C 60.371 1.06057 1.72505 0
M  V30 602 C 60.699 -0.403105 1.90277 0
M  V30 603 O 59.954 -1.3149 1.44944 0
M  V30 604 C 60.253 1.72673 3.1292 0
M  V30 605 C 59.919 3.22586 3.15038 0
M  V30 606 C 58.581 3.63489 3.15324 0
M  V30 607 C 60.933 4.185 3.10657 0
M  V30 608 C 58.261 4.98772 3.08939 0
M  V30 609 C 60.613 5.53769 3.05814 0
M  V30 610 C 59.277 5.94041 3.04419 0
M  V30 611 H 58.547 0.388091 0.631242 0
M  V30 612 H 61.194 1.52963 1.15215 0
M  V30 613 H 59.499 1.18116 3.73572 0
M  V30 614 H 61.196 1.56982 3.68996 0
M  V30 615 H 57.786 2.90022 3.15571 0
M  V30 616 H 61.97 3.87911 3.09579 0
M  V30 617 H 57.226 5.29193 3.0621 0
M  V30 618 H 61.4 6.27808 3.0138 0
M  V30 619 H 59.027 6.98833 2.99227 0
M  V30 620 N 60.6021 -1.18246 1.0419 0
M  V30 621 C 61.5341 -2.2142 0.592088 0
M  V30 622 C 62.5471 -1.59233 -0.338909 0
M  V30 623 O 63.7361 -1.78002 -0.133231 0
M  V30 624 C 60.8361 -3.38546 -0.154854 0
M  V30 625 C 60.0091 -4.3031 0.784328 0
M  V30 626 C 59.0681 -5.26138 0.0804583 0
M  V30 627 O 58.0941 -5.64738 0.711292 0
M  V30 628 N 59.2961 -5.68261 -1.18574 0
M  V30 629 H 62.0611 -2.60636 1.47949 0
M  V30 630 H 59.6221 -1.33044 0.922544 0
M  V30 631 H 61.6141 -3.99678 -0.635606 0
M  V30 632 H 60.1841 -2.98012 -0.943811 0
M  V30 633 H 59.4041 -3.66764 1.44491 0
M  V30 634 H 60.6921 -4.8852 1.42218 0
M  V30 635 H 60.0901 -5.38957 -1.71876 0
M  V30 636 H 58.6471 -6.31584 -1.61074 0
M  V30 637 N 62.0802 -0.821533 -1.34494 0
M  V30 638 C 63.0272 -0.240397 -2.29545 0
M  V30 639 C 63.9972 0.634031 -1.53523 0
M  V30 640 O 65.1822 0.575966 -1.81899 0
M  V30 641 C 62.3222 0.592869 -3.39969 0
M  V30 642 C 61.4352 -0.30365 -4.30932 0
M  V30 643 C 60.5702 0.539049 -5.28458 0
M  V30 644 C 59.6092 -0.356942 -6.11058 0
M  V30 645 N 58.7462 0.446603 -7.00678 0
M  V30 646 H 63.5862 -1.05632 -2.7865 0
M  V30 647 H 61.1232 -0.532413 -1.37127 0
M  V30 648 H 63.0812 1.09129 -4.02675 0
M  V30 649 H 61.7112 1.37392 -2.92102 0
M  V30 650 H 60.7632 -0.920276 -3.691 0
M  V30 651 H 62.0752 -0.992661 -4.88823 0
M  V30 652 H 61.2292 1.102 -5.96608 0
M  V30 653 H 59.9682 1.26157 -4.71101 0
M  V30 654 H 58.9732 -0.932047 -5.41842 0
M  V30 655 H 60.1982 -1.07755 -6.70497 0
M  V30 656 H 58.1442 1.15282 -6.45791 0
M  V30 657 H 58.0612 -0.184048 -7.55776 0
M  V30 658 H 59.3292 0.992352 -7.73158 0
M  V30 659 N 63.5583 1.46682 -0.576371 0
M  V30 660 C 64.8063 2.02013 -0.0594163 0
M  V30 661 C 65.1273 1.45101 1.30271 0
M  V30 662 O 64.3973 0.633317 1.8538 0
M  V30 663 H 62.9773 0.746759 -0.0189745 0
M  V30 664 H 65.6393 1.79862 -0.750717 0
M  V30 665 H 64.7353 3.12097 0.014345 0
M  V30 666 N 65.0364 0.313813 1.54444 0
M  V30 667 C 66.2844 -0.291099 1.99993 0
M  V30 668 C 66.6054 -1.53418 1.20366 0
M  V30 669 O 65.8754 -1.93544 0.302927 0
M  V30 670 H 64.4554 -0.110552 0.738774 0
M  V30 671 H 67.1174 0.428106 1.9014 0
M  V30 672 H 66.2134 -0.554268 3.07139 0
M  V30 673 N 66.5145 -1.57545 0.0417849 0
M  V30 674 C 67.9255 -1.80011 -0.495259 0
M  V30 675 C 68.2765 -0.953199 -1.71489 0
M  V30 676 O 67.4015 -0.167138 -2.15754 0
M  V30 677 C 67.9965 -3.26482 -0.905265 0
M  V30 678 C 66.5555 -3.499 -1.38734 0
M  V30 679 C 65.7025 -2.74979 -0.358056 0
M  V30 680 H 68.6535 -1.56425 0.267736 0
M  V30 681 H 68.6745 -3.36887 -1.76882 0
M  V30 682 H 68.1865 -3.88096 -0.017401 0
M  V30 683 H 66.2875 -2.93553 -2.29471 0
M  V30 684 H 66.4005 -4.58615 -1.38598 0
M  V30 685 H 64.7645 -2.40834 -0.828912 0
M  V30 686 H 65.5475 -3.39315 0.521561 0
M  V30 687 N 67.9926 0.231505 -1.5589 0
M  V30 688 C 68.9026 1.308 -1.94752 0
M  V30 689 C 69.9186 1.51826 -0.849989 0
M  V30 690 O 71.0946 1.6515 -1.15271 0
M  V30 691 C 68.1596 2.63968 -2.24771 0
M  V30 692 C 67.2206 2.51331 -3.48039 0
M  V30 693 C 66.4536 3.78148 -3.76616 0
M  V30 694 O 66.6766 4.80722 -3.07022 0
M  V30 695 O 65.6106 3.75857 -4.70123 0
M  V30 696 H 69.4366 1.0083 -2.86474 0
M  V30 697 H 67.0216 0.433547 -1.42971 0
M  V30 698 H 68.9036 3.42633 -2.45318 0
M  V30 699 H 67.5786 2.9364 -1.36225 0
M  V30 700 H 66.4856 1.709 -3.32782 0
M  V30 701 H 67.8186 2.26601 -4.36936 0
M  V30 702 N 69.4707 1.49531 0.497807 0
M  V30 703 C 70.7187 1.58865 1.24926 0
M  V30 704 C 71.0397 0.278721 1.92998 0
M  V30 705 O 70.3097 -0.702144 1.82885 0
M  V30 706 H 68.8897 0.585343 0.464094 0
M  V30 707 H 71.5517 1.86174 0.57666 0
M  V30 708 H 70.6477 2.38633 2.01149 0
M  V30 709 N 70.9488 -0.749086 1.3866 0
M  V30 710 C 71.9118 -1.84457 1.36045 0
M  V30 711 C 72.9118 -1.58682 0.260122 0
M  V30 712 O 74.1018 -1.66343 0.517261 0
M  V30 713 C 71.2338 -3.22008 1.11911 0
M  V30 714 H 72.4268 -1.88182 2.33512 0
M  V30 715 H 69.9798 -0.951266 1.24019 0
M  V30 716 H 70.7148 -3.2395 0.150686 0
M  V30 717 H 70.4998 -3.42111 1.91579 0
M  V30 718 H 71.9898 -4.0208 1.12788 0
M  V30 719 N 72.4269 -1.23603 -0.977757 0
M  V30 720 C 73.6549 -1.09646 -1.75458 0
M  V30 721 C 74.0699 0.351859 -1.85492 0
M  V30 722 O 73.4269 1.24327 -1.336 0
M  V30 723 C 73.4779 -1.71895 -3.18016 0
M  V30 724 O 73.1989 -3.11063 -3.08498 0
M  V30 725 C 74.6999 -1.63415 -4.12081 0
M  V30 726 H 71.9199 -0.38359 -0.550545 0
M  V30 727 H 74.4639 -1.63507 -1.22824 0
M  V30 728 H 72.6189 -1.22061 -3.67668 0
M  V30 729 H 73.0329 -3.41305 -3.9826 0
M  V30 730 H 74.5069 -2.11669 -5.09804 0
M  V30 731 H 74.9839 -0.593462 -4.35172 0
M  V30 732 H 75.5899 -2.12628 -3.68334 0
M  V30 733 N 73.905 1.17692 -1.04816 0
M  V30 734 C 75.133 1.91786 -0.776254 0
M  V30 735 C 75.548 1.76604 0.667577 0
M  V30 736 O 74.905 1.10067 1.45573 0
M  V30 737 C 74.956 3.42967 -1.14263 0
M  V30 738 O 74.677 3.57678 -2.52978 0
M  V30 739 C 76.178 4.34144 -0.896311 0
M  V30 740 H 73.398 0.608624 -0.282519 0
M  V30 741 H 75.942 1.49268 -1.39783 0
M  V30 742 H 74.097 3.83245 -0.565874 0
M  V30 743 H 74.511 4.51319 -2.67229 0
M  V30 744 H 75.985 5.38744 -1.20244 0
M  V30 745 H 76.462 4.38876 0.168636 0
M  V30 746 H 77.068 3.99574 -1.45672 0
M  V30 747 N 75.3831 0.828654 1.34056 0
M  V30 748 C 76.7991 0.515135 1.51058 0
M  V30 749 C 76.9991 -0.959581 1.77184 0
M  V30 750 O 76.0551 -1.74382 1.82612 0
M  V30 751 C 77.3681 1.37963 2.67183 0
M  V30 752 C 78.9161 1.37735 2.81066 0
M  V30 753 C 79.3911 2.22645 4.00241 0
M  V30 754 N 80.8821 2.203 4.07458 0
M  V30 755 C 81.6171 2.82744 4.98842 0
M  V30 756 N 81.1131 3.54201 5.9541 0
M  V30 757 N 82.9061 2.72268 4.91759 0
M  V30 758 H 75.0571 1.78343 1.15358 0
M  V30 759 H 77.3201 0.760304 0.566252 0
M  V30 760 H 77.0261 2.42714 2.54525 0
M  V30 761 H 76.9001 1.0484 3.62338 0
M  V30 762 H 79.2871 0.337593 2.93163 0
M  V30 763 H 79.3681 1.74859 1.86703 0
M  V30 764 H 79.0121 3.26674 3.88905 0
M  V30 765 H 78.9421 1.82869 4.93829 0
M  V30 766 H 81.4331 1.68327 3.38341 0
M  V30 767 H 81.7461 3.9908 6.61782 0
M  V30 768 H 80.0911 3.58308 5.95517 0
M  V30 769 H 83.2821 2.16014 4.15278 0
M  V30 770 H 83.4551 3.21219 5.62781 0
M  V30 771 N 76.8612 -1.46375 0.584142 0
M  V30 772 C 77.7912 -2.33103 -0.136037 0
M  V30 773 C 78.7722 -1.45431 -0.882255 0
M  V30 774 O 79.9572 -1.74246 -0.857434 0
M  V30 775 C 77.0872 -3.27731 -1.14933 0
M  V30 776 C 76.0412 -4.24855 -0.517862 0
M  V30 777 C 75.3672 -5.09001 -1.63773 0
M  V30 778 C 76.6672 -5.19439 0.545886 0
M  V30 779 H 78.3612 -2.93568 0.588086 0
M  V30 780 H 75.9072 -1.41166 0.284259 0
M  V30 781 H 77.8602 -3.87261 -1.66153 0
M  V30 782 H 76.5842 -2.65377 -1.90375 0
M  V30 783 H 75.2432 -3.6659 -0.0267361 0
M  V30 784 H 74.8912 -4.43031 -2.38185 0
M  V30 785 H 74.5912 -5.74777 -1.22085 0
M  V30 786 H 76.1152 -5.71396 -2.15266 0
M  V30 787 H 77.5292 -5.73177 0.118704 0
M  V30 788 H 75.9262 -5.93566 0.88317 0
M  V30 789 H 76.9962 -4.63285 1.43162 0
M  V30 790 N 78.3393 -0.321999 -1.54275 0
M  V30 791 C 79.2723 0.58718 -2.20516 0
M  V30 792 C 80.2503 1.11693 -1.18167 0
M  V30 793 O 81.4343 1.18122 -1.46899 0
M  V30 794 C 78.5613 1.80554 -2.86562 0
M  V30 795 C 77.6073 1.40718 -4.02617 0
M  V30 796 S 78.4403 0.445218 -5.33646 0
M  V30 797 C 79.5963 1.6709 -6.03185 0
M  V30 798 H 79.8293 0.0244875 -2.9729 0
M  V30 799 H 77.3623 -0.106087 -1.54035 0
M  V30 800 H 79.3203 2.50462 -3.25237 0
M  V30 801 H 77.9813 2.33942 -2.09595 0
M  V30 802 H 77.1743 2.31501 -4.47687 0
M  V30 803 H 76.7763 0.78782 -3.65608 0
M  V30 804 H 79.0683 2.60856 -6.25268 0
M  V30 805 H 80.0113 1.26239 -6.96756 0
M  V30 806 H 80.4193 1.85716 -5.33076 0
M  V30 807 N 79.8174 1.5752 -0.0501392 0
M  V30 808 C 80.7644 2.1147 0.924603 0
M  V30 809 C 81.7344 1.02182 1.30951 0
M  V30 810 O 82.9194 1.29723 1.39916 0
M  V30 811 C 80.0594 2.66337 2.19451 0
M  V30 812 C 79.1724 3.89708 1.86418 0
M  V30 813 C 78.3074 4.32893 3.07859 0
M  V30 814 C 77.3464 5.48967 2.70742 0
M  V30 815 N 76.4834 5.87211 3.84874 0
M  V30 816 H 81.3234 2.94465 0.457639 0
M  V30 817 H 78.8604 1.45531 0.214266 0
M  V30 818 H 80.8184 2.96247 2.93758 0
M  V30 819 H 79.4484 1.86141 2.63726 0
M  V30 820 H 78.5004 3.66396 1.02264 0
M  V30 821 H 79.8124 4.74074 1.55096 0
M  V30 822 H 78.9664 4.6435 3.90466 0
M  V30 823 H 77.7054 3.47336 3.42358 0
M  V30 824 H 76.7104 5.17183 1.86551 0
M  V30 825 H 77.9354 6.3624 2.37436 0
M  V30 826 H 75.8814 5.04607 4.19175 0
M  V30 827 H 75.7984 6.66266 3.57247 0
M  V30 828 H 77.0664 6.23282 4.68123 0
M  V30 829 N 81.2955 -0.223234 1.56011 0
M  V30 830 C 82.5435 -0.946003 1.78592 0
M  V30 831 C 82.8645 -1.84936 0.618349 0
M  V30 832 O 82.1345 -1.92473 -0.364833 0
M  V30 833 H 80.7145 -0.352298 0.658707 0
M  V30 834 H 83.3765 -0.235494 1.93472 0
M  V30 835 H 82.4725 -1.55381 2.70672 0
M  V30 836 N 82.7736 -1.49793 -0.48987 0
M  V30 837 C 83.6836 -1.70036 -1.61632 0
M  V30 838 C 84.6996 -0.583102 -1.63939 0
M  V30 839 O 85.8756 -0.859169 -1.82154 0
M  V30 840 C 82.9406 -1.77277 -2.97949 0
M  V30 841 C 82.0016 -3.00918 -3.06181 0
M  V30 842 C 81.2346 -3.07804 -4.35996 0
M  V30 843 O 81.4576 -2.21982 -5.25433 0
M  V30 844 O 80.3916 -4.00369 -4.49431 0
M  V30 845 H 84.2176 -2.65486 -1.47482 0
M  V30 846 H 81.8026 -1.33666 -0.667362 0
M  V30 847 H 83.6846 -1.84329 -3.78947 0
M  V30 848 H 82.3596 -0.850076 -3.12339 0
M  V30 849 H 81.2666 -2.99377 -2.2433 0
M  V30 850 H 82.5996 -3.92704 -2.96723 0
M  V30 851 N 84.2517 0.741722 -1.39055 0
M  V30 852 C 85.5007 1.49656 -1.35225 0
M  V30 853 C 85.8137 1.95533 0.0512708 0
M  V30 854 O 87.0197 2.7067 0.212138 0
M  V30 855 C 85.4757 2.70389 -2.37525 0
M  V30 856 C 85.0837 2.31489 -3.83558 0
M  V30 857 C 86.8277 3.48236 -2.42759 0
M  V30 858 C 84.7347 3.48903 -4.77515 0
M  V30 859 H 83.6647 0.56197 -0.502699 0
M  V30 860 H 86.3157 0.809727 -1.64668 0
M  V30 861 H 84.6977 3.41113 -2.01142 0
M  V30 862 H 85.8717 1.68354 -4.28945 0
M  V30 863 H 84.1867 1.66749 -3.81554 0
M  V30 864 H 86.7837 4.35558 -3.1015 0
M  V30 865 H 87.1267 3.90229 -1.45008 0
M  V30 866 H 87.6597 2.84535 -2.78002 0
M  V30 867 H 84.3987 3.11966 -5.76504 0
M  V30 868 H 83.9187 4.11041 -4.36813 0
M  V30 869 H 85.5977 4.15328 -4.96096 0
M  V30 870 N 85.7298 1.2412 0.971189 0
M  V30 871 C 86.9578 1.10575 1.74874 0
M  V30 872 C 87.3728 -0.342017 1.85676 0
M  V30 873 O 86.7298 -1.23617 1.34258 0
M  V30 874 C 86.7808 1.73579 3.171 0
M  V30 875 O 86.5018 3.12695 3.06844 0
M  V30 876 C 88.0028 1.65598 4.11208 0
M  V30 877 H 85.2228 0.386504 0.548503 0
M  V30 878 H 87.7668 1.64156 1.21955 0
M  V30 879 H 85.9218 1.24009 3.67016 0
M  V30 880 H 86.3358 3.43412 3.96445 0
M  V30 881 H 87.8098 2.1437 5.08674 0
M  V30 882 H 88.2868 0.616532 4.34851 0
M  V30 883 H 88.8928 2.14578 3.67201 0
M  V30 884 N 87.2079 -1.17134 1.05439 0
M  V30 885 C 88.1379 -2.2342 0.678649 0
M  V30 886 C 89.1189 -1.66971 -0.32476 0
M  V30 887 O 90.3039 -1.93149 -0.201802 0
M  V30 888 C 87.4339 -3.47256 0.0552099 0
M  V30 889 C 86.3879 -4.16543 0.98365 0
M  V30 890 C 85.7139 -5.34231 0.223961 0
M  V30 891 C 87.0139 -4.68495 2.3089 0
M  V30 892 H 88.7079 -2.55105 1.56722 0
M  V30 893 H 86.2539 -1.2262 0.754998 0
M  V30 894 H 88.2069 -4.20828 -0.21946 0
M  V30 895 H 86.9309 -3.14846 -0.868319 0
M  V30 896 H 85.5899 -3.44887 1.24293 0
M  V30 897 H 85.2379 -4.98071 -0.702412 0
M  V30 898 H 84.9379 -5.81527 0.842627 0
M  V30 899 H 86.4619 -6.10585 -0.0433671 0
M  V30 900 H 87.8759 -5.33691 2.09396 0
M  V30 901 H 86.2729 -5.26379 2.88176 0
M  V30 902 H 87.3429 -3.85169 2.94572 0
M  V30 903 N 88.686 -0.835752 -1.33615 0
M  V30 904 C 89.911 -0.442389 -2.02627 0
M  V30 905 C 90.336 0.947735 -1.62479 0
M  V30 906 O 89.694 1.61907 -0.815826 0
M  V30 907 C 89.742 -0.567216 -3.56111 0
M  V30 908 O 88.846 0.407799 -4.10379 0
M  V30 909 H 88.187 -0.180278 -0.639059 0
M  V30 910 H 90.717 -1.12972 -1.70583 0
M  V30 911 H 90.727 -0.447708 -4.05536 0
M  V30 912 H 89.402 -1.58103 -3.84677 0
M  V30 913 H 87.979 0.246107 -3.72087 0
M  V30 914 N 90.1641 1.46063 -0.591896 0
M  V30 915 C 91.0961 2.28539 0.174001 0
M  V30 916 C 92.1091 1.39047 0.846753 0
M  V30 917 O 93.2981 1.63564 0.714774 0
M  V30 918 C 90.3981 3.14347 1.26645 0
M  V30 919 C 89.5711 4.32021 0.683856 0
M  V30 920 C 88.6301 4.99157 1.66518 0
M  V30 921 O 87.6561 5.56458 1.19763 0
M  V30 922 N 88.8581 4.97005 2.99943 0
M  V30 923 H 91.6231 2.94911 -0.533633 0
M  V30 924 H 89.1841 1.56077 -0.430294 0
M  V30 925 H 91.1761 3.56125 1.92242 0
M  V30 926 H 89.7461 2.49988 1.87682 0
M  V30 927 H 88.9661 3.93915 -0.1498 0
M  V30 928 H 90.2541 5.08059 0.274567 0
M  V30 929 H 89.6521 4.51714 3.40545 0
M  V30 930 H 88.2091 5.42696 3.61004 0
M  V30 931 N 91.6422 0.330177 1.54103 0
M  V30 932 C 92.8882 -0.263542 2.01685 0
M  V30 933 C 93.2432 -1.49258 1.21408 0
M  V30 934 O 92.5362 -1.89395 0.289852 0
M  V30 935 C 92.7302 -0.643134 3.51566 0
M  V30 936 C 92.5592 0.547571 4.46354 0
M  V30 937 C 91.3292 1.04873 4.94297 0
M  V30 938 C 93.5272 1.40184 4.94826 0
M  V30 939 N 91.5092 2.20316 5.73005 0
M  V30 940 C 92.8802 2.40335 5.71524 0
M  V30 941 C 94.9352 1.42884 4.76958 0
M  V30 942 C 93.6382 3.42998 6.32254 0
M  V30 943 C 95.6642 2.44421 5.38528 0
M  V30 944 C 95.0262 3.43298 6.15082 0
M  V30 945 H 91.1252 -0.0601026 0.779687 0
M  V30 946 H 93.7092 0.466714 1.89023 0
M  V30 947 H 91.8802 -1.34251 3.6446 0
M  V30 948 H 93.6122 -1.21889 3.85908 0
M  V30 949 H 90.3672 0.618956 4.69538 0
M  V30 950 H 90.7912 2.78565 6.17034 0
M  V30 951 H 95.4332 0.678049 4.17328 0
M  V30 952 H 93.1512 4.1898 6.91 0
M  V30 953 H 96.7372 2.4732 5.26616 0
M  V30 954 H 95.6172 4.20579 6.61878 0
M  V30 955 N 93.1203 -1.57491 0.0584922 0
M  V30 956 C 94.3693 -1.92155 -0.613146 0
M  V30 957 C 94.6823 -0.939334 -1.71569 0
M  V30 958 O 95.8883 -1.17829 -2.44599 0
M  V30 959 C 94.3443 -3.41303 -1.14195 0
M  V30 960 C 93.9523 -4.47944 -0.0711265 0
M  V30 961 C 95.6963 -3.84988 -1.78841 0
M  V30 962 C 93.6033 -5.88212 -0.613225 0
M  V30 963 H 92.5333 -0.717162 -0.232796 0
M  V30 964 H 95.1843 -1.83049 0.12857 0
M  V30 965 H 93.5663 -3.45437 -1.93621 0
M  V30 966 H 94.7403 -4.55408 0.702836 0
M  V30 967 H 93.0553 -4.13644 0.478313 0
M  V30 968 H 95.6523 -4.87159 -2.20408 0
M  V30 969 H 95.9953 -3.21632 -2.64308 0
M  V30 970 H 96.5283 -3.83401 -1.06059 0
M  V30 971 H 93.2673 -6.55183 0.203978 0
M  V30 972 H 92.7873 -5.84294 -1.35501 0
M  V30 973 H 94.4663 -6.37687 -1.09383 0
M  V30 974 N 94.5984 0.214957 -1.56127 0
M  V30 975 C 96.0094 0.781386 -1.69562 0
M  V30 976 C 96.3604 1.84707 -0.66165 0
M  V30 977 O 95.4854 2.156 0.185927 0
M  V30 978 C 96.0804 1.42411 -3.07416 0
M  V30 979 C 94.6394 1.93786 -3.22683 0
M  V30 980 C 93.7864 0.800438 -2.65496 0
M  V30 981 H 96.7374 -0.00980633 -1.58697 0
M  V30 982 H 96.7584 2.29309 -3.0364 0
M  V30 983 H 96.2704 0.64826 -3.82648 0
M  V30 984 H 94.3714 2.74152 -2.52332 0
M  V30 985 H 94.4844 2.1133 -4.29973 0
M  V30 986 H 92.8484 1.2095 -2.2415 0
M  V30 987 H 93.6314 0.0371471 -3.4328 0
M  V30 988 N 96.0765 1.50051 0.48192 0
M  V30 989 C 97.0065 1.71046 1.58951 0
M  V30 990 C 97.9875 0.559288 1.60642 0
M  V30 991 O 99.1725 0.797243 1.77081 0
M  V30 992 C 96.3025 1.79462 2.97339 0
M  V30 993 C 95.2565 2.94558 3.10515 0
M  V30 994 C 94.5825 2.88105 4.50444 0
M  V30 995 C 95.8825 4.35227 2.88747 0
M  V30 996 H 97.5765 2.6378 1.41635 0
M  V30 997 H 95.1225 1.26936 0.679942 0
M  V30 998 H 97.0755 1.92734 3.74742 0
M  V30 999 H 95.7995 0.833412 3.15788 0
M  V30 1000 H 94.4585 2.80918 2.35543 0
M  V30 1001 H 94.1065 1.89853 4.65795 0
M  V30 1002 H 93.8065 3.65366 4.60197 0
M  V30 1003 H 95.3305 3.03412 5.29881 0
M  V30 1004 H 96.7445 4.49449 3.55905 0
M  V30 1005 H 95.1415 5.13856 3.09955 0
M  V30 1006 H 96.2115 4.48347 1.84696 0
M  V30 1007 N 97.5546 -0.734337 1.39446 0
M  V30 1008 C 98.4876 -1.85715 1.32609 0
M  V30 1009 C 99.4656 -1.6137 0.199636 0
M  V30 1010 O 100.65 -1.84626 0.380195 0
M  V30 1011 C 97.7766 -3.21709 1.05929 0
M  V30 1012 C 96.8226 -3.64913 2.20773 0
M  V30 1013 S 97.6556 -3.74203 3.83056 0
M  V30 1014 C 98.8116 -5.12986 3.58603 0
M  V30 1015 H 99.0446 -1.91232 2.27635 0
M  V30 1016 H 96.5776 -0.899263 1.25509 0
M  V30 1017 H 98.5356 -4.00236 0.912203 0
M  V30 1018 H 97.1966 -3.13848 0.125883 0
M  V30 1019 H 96.3896 -4.63606 1.97699 0
M  V30 1020 H 95.9916 -2.93593 2.31688 0
M  V30 1021 H 98.2836 -5.99339 3.15909 0
M  V30 1022 H 99.2266 -5.41088 4.5676 0
M  V30 1023 H 99.6346 -4.82694 2.9269 0
M  V30 1024 N 99.0327 -1.24633 -0.964593 0
M  V30 1025 C 99.9427 -1.05859 -2.09359 0
M  V30 1026 C 100.959 0.00148855 -1.74 0
M  V30 1027 O 102.135 -0.197346 -2.00431 0
M  V30 1028 C 99.1997 -0.668879 -3.40187 0
M  V30 1029 C 98.2607 -1.80578 -3.89474 0
M  V30 1030 C 97.4937 -1.43457 -5.14058 0
M  V30 1031 O 97.7167 -0.325775 -5.69469 0
M  V30 1032 O 96.6507 -2.2613 -5.57807 0
M  V30 1033 H 100.477 -2.00516 -2.28094 0
M  V30 1034 H 98.0617 -1.03481 -1.0776 0
M  V30 1035 H 99.9437 -0.463211 -4.18846 0
M  V30 1036 H 98.6187 0.248536 -3.22744 0
M  V30 1037 H 97.5257 -2.06623 -3.11862 0
M  V30 1038 H 98.8587 -2.70208 -4.11398 0
M  V30 1039 N 100.511 1.16574 -1.06058 0
M  V30 1040 C 101.421 2.2452 -0.680282 0
M  V30 1041 C 102.437 1.71348 0.302604 0
M  V30 1042 O 103.613 2.00822 0.152513 0
M  V30 1043 C 100.678 3.46629 -0.0700315 0
M  V30 1044 C 99.7388 4.14849 -1.10448 0
M  V30 1045 C 98.9718 5.31129 -0.523256 0
M  V30 1046 O 99.1948 5.66514 0.664709 0
M  V30 1047 O 98.1288 5.88526 -1.26179 0
M  V30 1048 H 101.955 2.59355 -1.58015 0
M  V30 1049 H 99.5398 1.24043 -0.832694 0
M  V30 1050 H 101.422 4.20543 0.268667 0
M  V30 1051 H 100.097 3.13573 0.803353 0
M  V30 1052 H 99.0038 3.42916 -1.49532 0
M  V30 1053 H 100.337 4.51954 -1.94931 0
M  V30 1054 N 101.989 0.842826 1.3317 0
M  V30 1055 C 102.937 0.267495 2.31057 0
M  V30 1056 C 103.931 -0.602682 1.58316 0
M  V30 1057 O 105.137 -0.491803 1.73151 0
M  V30 1058 H 101.512 0.0677813 0.748939 0
M  V30 1059 H 103.483 1.10754 2.77085 0
M  V30 1060 C 102.232 -0.539331 3.43492 0
M  V30 1061 H 101.555 0.12095 3.99617 0
M  V30 1062 H 102.995 -0.90767 4.14171 0
M  V30 1063 C 101.454 -1.71981 2.89697 0
M  V30 1064 O 101.984 -2.81862 2.86211 0
M  V30 1065 N 100.19 -1.54299 2.46252 0
M  V30 1066 H 99.7369 -0.649143 2.49287 0
M  V30 1067 H 99.6949 -2.33431 2.10612 0
M  V30 1068 N 103.467 -1.45747 0.599634 0
M  V30 1069 C 104.707 -2.04181 0.0946309 0
M  V30 1070 C 105.071 -1.45895 -1.24815 0
M  V30 1071 O 106.272 -1.95633 -1.8434 0
M  V30 1072 C 104.543 -3.57368 0.047581 0
M  V30 1073 S 106.102 -4.36997 -0.397387 0
M  V30 1074 H 102.92 -0.70953 0.0456954 0
M  V30 1075 H 105.522 -1.78564 0.795946 0
M  V30 1076 H 104.226 -3.97303 1.02852 0
M  V30 1077 H 103.757 -3.87549 -0.675977 0
M  V30 1078 H 105.772 -4.68012 -1.64862 0
M  V30 1079 N 104.945 -0.338344 -1.53925 0
M  V30 1080 C 106.361 0.0137736 -1.59594 0
M  V30 1081 C 106.561 1.49186 -1.35447 0
M  V30 1082 O 105.617 2.24987 -1.14616 0
M  V30 1083 C 106.93 -0.41773 -2.97784 0
M  V30 1084 C 108.478 -0.369633 -3.1081 0
M  V30 1085 C 108.953 -0.776524 -4.51369 0
M  V30 1086 N 110.444 -0.730506 -4.57403 0
M  V30 1087 C 111.179 -1.01736 -5.64303 0
M  V30 1088 N 110.675 -1.3721 -6.79077 0
M  V30 1089 N 112.468 -0.941942 -5.54151 0
M  V30 1090 H 104.619 -1.3012 -1.67876 0
M  V30 1091 H 106.882 -0.530082 -0.78595 0
M  V30 1092 H 106.588 -1.44811 -3.20504 0
M  V30 1093 H 106.462 0.209729 -3.76616 0
M  V30 1094 H 108.849 0.651568 -2.87817 0
M  V30 1095 H 108.93 -1.03223 -2.34049 0
M  V30 1096 H 108.574 -1.79571 -4.75096 0
M  V30 1097 H 108.504 -0.0914649 -5.26521 0
M  V30 1098 H 110.995 -0.468783 -3.74981 0
M  V30 1099 H 111.308 -1.57597 -7.5656 0
M  V30 1100 H 109.653 -1.4105 -6.80536 0
M  V30 1101 H 112.844 -0.664184 -4.63364 0
M  V30 1102 H 113.017 -1.16884 -6.37371 0
M  V30 1103 N 106.423 1.57458 -0.0668435 0
M  V30 1104 C 107.37 2.12439 0.902122 0
M  V30 1105 C 108.34 1.03565 1.2986 0
M  V30 1106 O 109.525 1.312 1.38532 0
M  V30 1107 C 106.665 2.6865 2.16614 0
M  V30 1108 C 105.778 3.91663 1.82274 0
M  V30 1109 C 104.913 4.36134 3.0325 0
M  V30 1110 C 103.952 5.51808 2.64904 0
M  V30 1111 N 103.089 5.9126 3.78624 0
M  V30 1112 H 107.929 2.94934 0.426382 0
M  V30 1113 H 105.466 1.4575 0.198819 0
M  V30 1114 H 107.424 2.99346 2.90599 0
M  V30 1115 H 106.054 1.88928 2.61737 0
M  V30 1116 H 105.106 3.6746 0.983719 0
M  V30 1117 H 106.418 4.75693 1.50059 0
M  V30 1118 H 105.572 4.68465 3.85519 0
M  V30 1119 H 104.311 3.50948 3.38655 0
M  V30 1120 H 103.316 5.19133 1.81055 0
M  V30 1121 H 104.541 6.38722 2.30675 0
M  V30 1122 H 102.487 5.09024 4.138 0
M  V30 1123 H 102.404 6.70018 3.5016 0
M  V30 1124 H 103.672 6.28212 4.61486 0
M  V30 1125 N 107.901 -0.206675 1.56239 0
M  V30 1126 C 109.141 -0.93574 1.81723 0
M  V30 1127 C 109.505 -1.80927 0.642609 0
M  V30 1128 O 110.706 -2.57323 0.777081 0
M  V30 1129 C 108.977 -1.74012 3.12177 0
M  V30 1130 S 110.536 -2.52279 3.59028 0
M  V30 1131 H 107.354 -0.314065 0.637875 0
M  V30 1132 H 109.956 -0.200071 1.94474 0
M  V30 1133 H 108.66 -1.0888 3.95693 0
M  V30 1134 H 108.191 -2.51782 3.02274 0
M  V30 1135 H 110.206 -3.76209 3.23545 0
M  V30 1136 N 109.379 -1.50304 -0.473955 0
M  V30 1137 C 110.604 -1.65175 -1.25427 0
M  V30 1138 C 111.029 -0.333673 -1.85117 0
M  V30 1139 O 110.387 0.702114 -1.67153 0
M  V30 1140 C 110.435 -2.74295 -2.34082 0
M  V30 1141 O 109.539 -2.35349 -3.38651 0
M  V30 1142 H 108.88 -0.551944 -0.369126 0
M  V30 1143 H 111.41 -1.96662 -0.564364 0
M  V30 1144 H 111.42 -2.97285 -2.79438 0
M  V30 1145 H 110.095 -3.69959 -1.90008 0
M  V30 1146 H 108.672 -2.22794 -2.99027 0
M  V30 1147 N 110.857 0.726932 -1.39834 0
M  V30 1148 C 111.767 1.87131 -1.41489 0
M  V30 1149 C 112.783 1.71239 -0.308757 0
M  V30 1150 O 113.959 1.93701 -0.551529 0
M  V30 1151 C 111.024 3.22811 -1.26468 0
M  V30 1152 C 110.085 3.51039 -2.47124 0
M  V30 1153 C 109.318 4.80245 -2.3281 0
M  V30 1154 O 109.541 5.54537 -1.33585 0
M  V30 1155 O 108.475 5.08554 -3.21957 0
M  V30 1156 H 112.301 1.8869 -2.3797 0
M  V30 1157 H 109.886 0.875837 -1.21035 0
M  V30 1158 H 111.768 4.03877 -1.20255 0
M  V30 1159 H 110.443 3.22005 -0.330862 0
M  V30 1160 H 109.35 2.70027 -2.58914 0
M  V30 1161 H 110.683 3.56632 -3.39227 0
M  V30 1162 N 112.336 1.25143 0.95797 0
M  V30 1163 C 113.564 1.12424 1.73691 0
M  V30 1164 C 113.979 -0.322304 1.86029 0
M  V30 1165 O 113.336 -1.22186 1.35561 0
M  V30 1166 C 113.387 1.76933 3.15241 0
M  V30 1167 O 113.108 3.15932 3.03511 0
M  V30 1168 C 114.609 1.6995 4.09429 0
M  V30 1169 H 111.829 0.3923 0.544373 0
M  V30 1170 H 114.373 1.6544 1.20207 0
M  V30 1171 H 112.528 1.27895 3.6568 0
M  V30 1172 H 112.942 3.47598 3.9278 0
M  V30 1173 H 114.416 2.19753 5.06372 0
M  V30 1174 H 114.893 0.662619 4.34173 0
M  V30 1175 H 115.499 2.18461 3.64904 0
M  V30 1176 N 113.814 -1.1601 1.06675 0
M  V30 1177 C 114.777 -2.18724 0.685001 0
M  V30 1178 C 115.777 -1.58496 -0.271246 0
M  V30 1179 O 116.967 -1.74119 -0.0531156 0
M  V30 1180 C 114.099 -3.40899 0.00853648 0
M  V30 1181 H 115.292 -2.54011 1.59431 0
M  V30 1182 H 112.845 -1.30352 0.862441 0
M  V30 1183 H 113.58 -3.11173 -0.913337 0
M  V30 1184 H 113.365 -3.8587 0.696204 0
M  V30 1185 H 114.855 -4.16886 -0.24414 0
M  V30 1186 N 115.292 -0.849877 -1.32721 0
M  V30 1187 C 116.239 -0.289033 -2.28983 0
M  V30 1188 C 117.209 0.601324 -1.54833 0
M  V30 1189 O 118.394 0.537253 -1.8308 0
M  V30 1190 C 115.534 0.520623 -3.4115 0
M  V30 1191 C 114.647 -0.394989 -4.3019 0
M  V30 1192 C 113.782 0.426834 -5.29482 0
M  V30 1193 C 112.821 -0.486476 -6.10164 0
M  V30 1194 N 111.958 0.297879 -7.01468 0
M  V30 1195 H 116.798 -1.11519 -2.76347 0
M  V30 1196 H 114.335 -0.56138 -1.35967 0
M  V30 1197 H 116.293 1.00563 -4.04899 0
M  V30 1198 H 114.923 1.31165 -2.9495 0
M  V30 1199 H 113.975 -0.99836 -3.67065 0
M  V30 1200 H 115.287 -1.09612 -4.86607 0
M  V30 1201 H 114.441 0.975205 -5.98811 0
M  V30 1202 H 113.18 1.16136 -4.73671 0
M  V30 1203 H 112.185 -1.04677 -5.39743 0
M  V30 1204 H 113.41 -1.21953 -6.6806 0
M  V30 1205 H 111.356 1.01558 -6.48091 0
M  V30 1206 H 111.273 -0.344318 -7.55216 0
M  V30 1207 H 112.541 0.828131 -7.75089 0
M  V30 1208 N 116.77 1.45427 -0.607355 0
M  V30 1209 C 118.016 2.0254 -0.102607 0
M  V30 1210 C 118.349 1.47478 1.26348 0
M  V30 1211 O 117.624 0.64939 1.83339 0
M  V30 1212 C 117.907 3.60044 -0.0634347 0
M  V30 1213 C 117.76 4.2544 -1.46017 0
M  V30 1214 C 119.079 4.35646 0.624514 0
M  V30 1215 H 116.198 0.73598 -0.0387607 0
M  V30 1216 H 118.84 1.73284 -0.779282 0
M  V30 1217 H 116.99 3.85101 0.512808 0
M  V30 1218 H 118.662 4.11569 -2.08347 0
M  V30 1219 H 116.905 3.83849 -2.02094 0
M  V30 1220 H 117.576 5.34342 -1.385 0
M  V30 1221 H 120.052 4.15882 0.134723 0
M  V30 1222 H 118.928 5.45376 0.621028 0
M  V30 1223 H 119.189 4.08501 1.69055 0
M  V30 1224 N 118.248 0.346503 1.53744 0
M  V30 1225 C 119.488 -0.249413 2.02873 0
M  V30 1226 C 119.852 -1.47532 1.22876 0
M  V30 1227 O 121.053 -2.1456 1.61918 0
M  V30 1228 C 119.324 -0.552909 3.53097 0
M  V30 1229 S 120.883 -1.12521 4.24128 0
M  V30 1230 H 117.701 -0.074042 0.707134 0
M  V30 1231 H 120.303 0.48495 1.8939 0
M  V30 1232 H 119.007 0.347083 4.0893 0
M  V30 1233 H 118.538 -1.31686 3.70705 0
M  V30 1234 H 120.553 -2.41075 4.33702 0
M  V30 1235 N 119.726 -1.57421 0.075193 0
M  V30 1236 C 120.656 -2.15942 -0.888324 0
M  V30 1237 C 121.637 -1.08737 -1.30806 0
M  V30 1238 O 122.822 -1.36787 -1.37851 0
M  V30 1239 C 119.952 -2.72379 -2.1547 0
M  V30 1240 C 118.906 -3.8478 -1.87425 0
M  V30 1241 C 118.232 -4.27834 -3.20721 0
M  V30 1242 C 119.532 -5.08869 -1.17684 0
M  V30 1243 H 121.226 -2.96705 -0.400799 0
M  V30 1244 H 118.772 -1.42723 -0.191342 0
M  V30 1245 H 120.725 -3.11965 -2.83295 0
M  V30 1246 H 119.449 -1.88841 -2.6647 0
M  V30 1247 H 118.108 -3.45703 -1.22004 0
M  V30 1248 H 117.756 -3.41214 -3.6957 0
M  V30 1249 H 117.456 -5.03605 -3.02746 0
M  V30 1250 H 118.98 -4.70039 -3.89738 0
M  V30 1251 H 120.394 -5.4575 -1.75584 0
M  V30 1252 H 118.791 -5.8994 -1.09956 0
M  V30 1253 H 119.861 -4.84648 -0.156453 0
M  V30 1254 N 121.204 0.198386 -1.56346 0
M  V30 1255 C 122.615 0.763358 -1.70381 0
M  V30 1256 C 122.966 1.83995 -0.681203 0
M  V30 1257 O 122.091 2.15785 0.16305 0
M  V30 1258 C 122.686 1.39143 -3.08909 0
M  V30 1259 C 121.245 1.90352 -3.2472 0
M  V30 1260 C 120.392 0.772233 -2.6633 0
M  V30 1261 H 123.343 -0.0266377 -1.58678 0
M  V30 1262 H 123.364 2.26076 -3.06055 0
M  V30 1263 H 122.876 0.607638 -3.83314 0
M  V30 1264 H 120.977 2.71461 -2.55225 0
M  V30 1265 H 121.09 2.06757 -4.3219 0
M  V30 1266 H 119.454 1.18566 -2.2542 0
M  V30 1267 H 120.237 0.00073556 -3.433 0
M  V30 1268 N 122.682 1.50554 0.465978 0
M  V30 1269 C 123.629 1.6979 1.56333 0
M  V30 1270 C 124.599 0.539239 1.57103 0
M  V30 1271 O 125.784 0.770401 1.74555 0
M  V30 1272 C 122.924 1.80273 2.94271 0
M  V30 1273 C 122.037 3.07674 3.0325 0
M  V30 1274 C 121.172 3.08922 4.32135 0
M  V30 1275 C 120.211 4.30755 4.34875 0
M  V30 1276 N 119.348 4.29714 5.55239 0
M  V30 1277 H 124.188 2.63472 1.39235 0
M  V30 1278 H 121.725 1.30602 0.676873 0
M  V30 1279 H 123.683 1.84332 3.74269 0
M  V30 1280 H 122.313 0.900258 3.09992 0
M  V30 1281 H 121.365 3.13062 2.16094 0
M  V30 1282 H 122.677 3.97642 3.01135 0
M  V30 1283 H 121.831 3.11738 5.20485 0
M  V30 1284 H 120.57 2.16792 4.36866 0
M  V30 1285 H 119.575 4.28146 3.44922 0
M  V30 1286 H 120.8 5.24117 4.31831 0
M  V30 1287 H 118.746 3.4044 5.60746 0
M  V30 1288 H 118.663 5.13456 5.54886 0
M  V30 1289 H 119.931 4.36683 6.457 0
M  V30 1290 N 124.16 -0.719506 1.40217 0
M  V30 1291 C 125.108 -1.85493 1.40339 0
M  V30 1292 C 126.102 -1.66995 0.284415 0
M  V30 1293 O 127.308 -1.74148 0.455252 0
M  V30 1294 H 123.683 -0.610857 0.438586 0
M  V30 1295 H 125.654 -1.82506 2.36081 0
M  V30 1296 C 124.403 -3.23321 1.27901 0
M  V30 1297 H 123.726 -3.38159 2.1328 0
M  V30 1298 H 125.166 -4.02914 1.32045 0
M  V30 1299 C 123.625 -3.36898 -0.0111355 0
M  V30 1300 O 124.155 -3.89674 -0.975538 0
M  V30 1301 N 122.361 -2.90492 -0.0793393 0
M  V30 1302 H 121.908 -2.47731 0.706183 0
M  V30 1303 H 121.866 -2.99955 -0.942038 0
M  V30 1304 N 125.638 -1.25649 -0.95132 0
M  V30 1305 C 126.885 -1.10594 -1.69633 0
M  V30 1306 C 127.213 0.352515 -1.91279 0
M  V30 1307 O 126.468 1.27601 -1.4838 0
M  V30 1308 C 126.767 -1.80909 -3.08231 0
M  V30 1309 C 126.433 -3.30825 -3.06375 0
M  V30 1310 C 125.095 -3.71722 -3.05576 0
M  V30 1311 C 127.447 -4.26589 -2.99452 0
M  V30 1312 C 124.775 -5.06788 -2.95606 0
M  V30 1313 C 127.127 -5.61683 -2.91024 0
M  V30 1314 C 125.791 -6.01904 -2.88562 0
M  V30 1315 H 125.061 -0.404691 -0.620731 0
M  V30 1316 H 127.708 -1.55964 -1.11119 0
M  V30 1317 H 126.013 -1.27979 -3.70309 0
M  V30 1318 H 127.71 -1.6671 -3.64704 0
M  V30 1319 H 124.3 -2.98287 -3.07771 0
M  V30 1320 H 128.484 -3.95982 -2.99185 0
M  V30 1321 H 123.74 -5.37126 -2.92071 0
M  V30 1322 H 127.914 -6.35578 -2.84629 0
M  V30 1323 H 125.541 -7.06521 -2.80593 0
M  V30 1324 N 127.117 1.15442 -1.07289 0
M  V30 1325 C 128.342 1.90638 -0.816828 0
M  V30 1326 C 128.767 1.77445 0.624083 0
M  V30 1327 O 128.125 1.10671 1.43602 0
M  V30 1328 C 128.173 3.39008 -1.22906 0
M  V30 1329 O 127.277 4.10701 -0.373975 0
M  V30 1330 H 126.618 0.593555 -0.297638 0
M  V30 1331 H 129.148 1.46198 -1.43134 0
M  V30 1332 H 129.158 3.89801 -1.20497 0
M  V30 1333 H 127.833 3.47929 -2.27856 0
M  V30 1334 H 126.41 3.70046 -0.460499 0
M  V30 1335 N 128.595 0.856903 1.32268 0
M  V30 1336 C 129.844 0.457599 1.96441 0
M  V30 1337 C 130.157 -0.992426 1.68553 0
M  V30 1338 O 131.363 -1.49727 2.26482 0
M  V30 1339 C 129.819 0.767358 3.51624 0
M  V30 1340 C 129.427 2.23326 3.88367 0
M  V30 1341 C 131.171 0.435887 4.22256 0
M  V30 1342 C 129.078 2.48613 5.36606 0
M  V30 1343 H 128.008 0.167387 0.735185 0
M  V30 1344 H 130.659 1.048 1.5063 0
M  V30 1345 H 129.041 0.106367 3.95857 0
M  V30 1346 H 130.215 2.93623 3.55137 0
M  V30 1347 H 128.53 2.52948 3.30766 0
M  V30 1348 H 131.127 0.602202 5.31298 0
M  V30 1349 H 131.47 -0.622672 4.11617 0
M  V30 1350 H 132.003 1.05286 3.83614 0
M  V30 1351 H 128.742 3.53101 5.52268 0
M  V30 1352 H 128.262 1.82896 5.71235 0
M  V30 1353 H 129.941 2.32676 6.03714 0
M  V30 1354 N 130.073 -1.45103 0.615059 0
M  V30 1355 C 131.02 -2.30586 -0.0993978 0
M  V30 1356 C 131.99 -1.42544 -0.852669 0
M  V30 1357 O 133.175 -1.71465 -0.836917 0
M  V30 1358 C 130.315 -3.27572 -1.08583 0
M  V30 1359 C 129.428 -4.30717 -0.332656 0
M  V30 1360 C 128.563 -5.14807 -1.30947 0
M  V30 1361 C 127.602 -6.09673 -0.544538 0
M  V30 1362 N 126.739 -6.86517 -1.47101 0
M  V30 1363 H 131.579 -2.91144 0.635542 0
M  V30 1364 H 129.116 -1.4346 0.325206 0
M  V30 1365 H 131.074 -3.82276 -1.67095 0
M  V30 1366 H 129.704 -2.68751 -1.78809 0
M  V30 1367 H 128.756 -3.78615 0.368107 0
M  V30 1368 H 130.068 -4.98102 0.263842 0
M  V30 1369 H 129.222 -5.73948 -1.96643 0
M  V30 1370 H 127.961 -4.47458 -1.9399 0
M  V30 1371 H 126.966 -5.49656 0.126003 0
M  V30 1372 H 128.191 -6.79052 0.080947 0
M  V30 1373 H 126.137 -6.21851 -2.08895 0
M  V30 1374 H 126.054 -7.50281 -0.928137 0
M  V30 1375 H 127.322 -7.50194 -2.11731 0
M  V30 1376 N 131.551 -0.354651 -1.53558 0
M  V30 1377 C 132.461 0.50515 -2.29097 0
M  V30 1378 C 133.477 1.10223 -1.34636 0
M  V30 1379 O 134.653 1.11553 -1.67684 0
M  V30 1380 C 131.718 1.63479 -3.05738 0
M  V30 1381 C 130.779 1.06636 -4.15845 0
M  V30 1382 C 130.012 2.14217 -4.88822 0
M  V30 1383 O 130.235 3.35137 -4.61562 0
M  V30 1384 O 129.169 1.77887 -5.75013 0
M  V30 1385 H 132.995 -0.109237 -3.03503 0
M  V30 1386 H 130.58 -0.119357 -1.48922 0
M  V30 1387 H 132.462 2.2918 -3.5363 0
M  V30 1388 H 131.137 2.23478 -2.34178 0
M  V30 1389 H 130.044 0.373565 -3.7223 0
M  V30 1390 H 131.377 0.511081 -4.89539 0
M  V30 1391 N 133.029 1.57378 -0.0835403 0
M  V30 1392 C 134.278 1.93106 0.582498 0
M  V30 1393 C 134.591 0.96651 1.70053 0
M  V30 1394 O 135.797 1.21705 2.42693 0
M  V30 1395 C 134.253 3.43076 1.08751 0
M  V30 1396 C 133.861 4.48 -0.000146404 0
M  V30 1397 C 135.605 3.87785 1.72694 0
M  V30 1398 C 133.512 5.89113 0.519568 0
M  V30 1399 H 132.442 0.720775 0.221358 0
M  V30 1400 H 135.093 1.82821 -0.157675 0
M  V30 1401 H 133.475 3.48474 1.88101 0
M  V30 1402 H 134.649 4.54233 -0.775199 0
M  V30 1403 H 132.964 4.1283 -0.54406 0
M  V30 1404 H 135.561 4.90604 2.1263 0
M  V30 1405 H 135.904 3.25796 2.59158 0
M  V30 1406 H 136.437 3.8504 0.999457 0
M  V30 1407 H 133.176 6.54775 -0.308186 0
M  V30 1408 H 132.696 5.86376 1.26188 0
M  V30 1409 H 134.375 6.39346 0.992237 0
M  V30 1410 N 134.507 -0.190092 1.56449 0
M  V30 1411 C 135.754 -0.909705 1.80916 0
M  V30 1412 C 136.082 -1.83047 0.657583 0
M  V30 1413 O 135.337 -1.92428 -0.356356 0
M  V30 1414 C 135.636 -1.75382 3.1141 0
M  V30 1415 C 135.302 -0.983606 4.40041 0
M  V30 1416 C 133.964 -0.770967 4.74984 0
M  V30 1417 C 136.316 -0.442024 5.19322 0
M  V30 1418 C 133.644 -0.0053448 5.867 0
M  V30 1419 C 135.996 0.310412 6.31838 0
M  V30 1420 C 134.66 0.534023 6.6536 0
M  V30 1421 H 133.93 -0.332885 0.662019 0
M  V30 1422 H 136.577 -0.175762 1.90692 0
M  V30 1423 H 134.882 -2.55659 2.96893 0
M  V30 1424 H 136.579 -2.31331 3.27547 0
M  V30 1425 H 133.169 -1.15936 4.12622 0
M  V30 1426 H 137.353 -0.593693 4.92736 0
M  V30 1427 H 132.609 0.177825 6.11141 0
M  V30 1428 H 136.783 0.737419 6.92485 0
M  V30 1429 H 134.41 1.12918 7.51767 0
M  V30 1430 N 135.985 -1.50799 -0.457987 0
M  V30 1431 C 137.262 -1.52968 -1.21902 0
M  V30 1432 C 137.642 -0.281906 -2.09209 0
M  V30 1433 O 136.99 0.734076 -2.16388 0
M  V30 1434 C 137.2 -2.8326 -2.03875 0
M  V30 1435 C 138.548 -3.34425 -2.6162 0
M  V30 1436 O 139.572 -2.8467 -2.14106 0
M  V30 1437 O 138.431 -4.21188 -3.48228 0
M  V30 1438 H 135.525 -0.614129 -0.553873 0
M  V30 1439 H 138.071 -1.63098 -0.468739 0
M  V30 1440 H 136.843 -3.65543 -1.39621 0
M  V30 1441 H 136.466 -2.76195 -2.8601 0
M  V30 1442 N 137.463 0.71206 -1.40597 0
M  V30 1443 C 138.41 1.82613 -1.41142 0
M  V30 1444 C 139.38 1.63925 -0.267903 0
M  V30 1445 O 140.565 1.85009 -0.466495 0
M  V30 1446 C 137.705 3.20354 -1.28324 0
M  V30 1447 C 136.818 3.50589 -2.52411 0
M  V30 1448 C 135.953 4.77855 -2.32009 0
M  V30 1449 C 134.992 5.01005 -3.51654 0
M  V30 1450 N 134.129 6.19487 -3.30425 0
M  V30 1451 H 138.969 1.81482 -2.36365 0
M  V30 1452 H 136.506 0.886475 -1.17388 0
M  V30 1453 H 138.464 3.99899 -1.18899 0
M  V30 1454 H 137.094 3.20705 -0.367189 0
M  V30 1455 H 136.146 2.65573 -2.72351 0
M  V30 1456 H 137.458 3.63604 -3.41458 0
M  V30 1457 H 136.612 5.65424 -2.19956 0
M  V30 1458 H 135.351 4.67056 -1.40392 0
M  V30 1459 H 134.356 4.1189 -3.64179 0
M  V30 1460 H 135.581 5.13674 -4.44202 0
M  V30 1461 H 133.527 6.09932 -2.41494 0
M  V30 1462 H 133.444 6.33194 -4.13039 0
M  V30 1463 H 134.712 7.09834 -3.22113 0
M  V30 1464 N 138.941 1.26152 0.944643 0
M  V30 1465 C 139.904 1.07474 2.0244 0
M  V30 1466 C 140.904 0.0242064 1.60782 0
M  V30 1467 O 142.094 0.267302 1.72137 0
M  V30 1468 C 139.226 0.633956 3.34953 0
M  V30 1469 H 140.419 2.03336 2.20442 0
M  V30 1470 H 137.972 1.087 1.12312 0
M  V30 1471 H 138.707 -0.326811 3.22649 0
M  V30 1472 H 138.492 1.39247 3.66542 0
M  V30 1473 H 139.982 0.52501 4.14287 0
M  V30 1474 N 140.419 -1.14872 1.07899 0
M  V30 1475 C 141.668 -1.85135 0.800499 0
M  V30 1476 C 141.981 -1.83547 -0.676014 0
M  V30 1477 O 143.187 -2.49548 -1.06948 0
M  V30 1478 C 141.643 -3.3231 1.38197 0
M  V30 1479 C 141.251 -3.42329 2.8899 0
M  V30 1480 C 142.995 -4.0772 1.18174 0
M  V30 1481 C 140.902 -4.83684 3.403 0
M  V30 1482 H 139.832 -0.693563 0.29578 0
M  V30 1483 H 142.483 -1.29532 1.29976 0
M  V30 1484 H 140.865 -3.87618 0.810431 0
M  V30 1485 H 142.039 -2.97097 3.52236 0
M  V30 1486 H 140.354 -2.80369 3.07867 0
M  V30 1487 H 142.951 -5.12049 1.5398 0
M  V30 1488 H 143.294 -4.16124 0.12117 0
M  V30 1489 H 143.827 -3.58696 1.71994 0
M  V30 1490 H 140.566 -4.80465 4.45907 0
M  V30 1491 H 140.086 -5.29474 2.81811 0
M  V30 1492 H 141.765 -5.52558 3.36584 0
M  V30 1493 N 141.898 -0.863906 -1.31812 0
M  V30 1494 C 143.123 -0.48527 -2.01643 0
M  V30 1495 C 143.548 0.913058 -1.64453 0
M  V30 1496 O 142.906 1.6014 -0.849985 0
M  V30 1497 C 142.954 -0.642625 -3.54828 0
M  V30 1498 O 142.058 0.320659 -4.11151 0
M  V30 1499 H 141.399 -0.193793 -0.635091 0
M  V30 1500 H 143.929 -1.16565 -1.68148 0
M  V30 1501 H 143.939 -0.533628 -4.04495 0
M  V30 1502 H 142.614 -1.66227 -3.81237 0
M  V30 1503 H 141.191 0.167126 -3.72525 0
M  V30 1504 N 143.376 1.44774 -0.622745 0
M  V30 1505 C 144.339 2.29069 0.0774015 0
M  V30 1506 C 145.339 1.4059 0.780461 0
M  V30 1507 O 146.529 1.62551 0.626322 0
M  V30 1508 C 143.661 3.21974 1.12006 0
M  V30 1509 H 144.854 2.92459 -0.663901 0
M  V30 1510 H 142.407 1.51548 -0.382486 0
M  V30 1511 H 143.142 2.63417 1.89162 0
M  V30 1512 H 142.927 3.87168 0.619951 0
M  V30 1513 H 144.417 3.85318 1.60995 0
M  V30 1514 N 144.854 0.36279 1.53368 0
M  V30 1515 C 146.27 0.0116182 1.59596 0
M  V30 1516 C 146.47 -1.47012 1.37803 0
M  V30 1517 O 145.526 -2.23136 1.18181 0
M  V30 1518 C 146.839 0.465052 2.97082 0
M  V30 1519 C 148.387 0.419033 3.10182 0
M  V30 1520 C 148.862 0.848235 4.50077 0
M  V30 1521 N 150.353 0.803183 4.56183 0
M  V30 1522 C 151.088 1.107 5.62613 0
M  V30 1523 N 150.584 1.47996 6.76808 0
M  V30 1524 N 152.377 1.02998 5.52583 0
M  V30 1525 H 144.528 1.32775 1.65785 0
M  V30 1526 H 146.791 0.542518 0.777417 0
M  V30 1527 H 146.497 1.49892 3.18159 0
M  V30 1528 H 146.371 -0.149786 3.76902 0
M  V30 1529 H 148.758 -0.605696 2.88817 0
M  V30 1530 H 148.839 1.06933 2.32377 0
M  V30 1531 H 148.483 1.87107 4.7218 0
M  V30 1532 H 148.413 0.175218 5.26308 0
M  V30 1533 H 150.904 0.52838 3.74188 0
M  V30 1534 H 151.217 1.69613 7.53957 0
M  V30 1535 H 149.562 1.51859 6.78206 0
M  V30 1536 H 152.753 0.737817 4.62249 0
M  V30 1537 H 152.926 1.2701 6.35431 0
M  V30 1538 N 146.332 -1.57332 0.0918853 0
M  V30 1539 C 147.279 -2.13847 -0.868211 0
M  V30 1540 C 148.249 -1.05618 -1.28196 0
M  V30 1541 O 149.434 -1.33387 -1.36427 0
M  V30 1542 C 146.574 -2.72062 -2.12312 0
M  V30 1543 C 145.687 -3.94514 -1.7602 0
M  V30 1544 C 144.822 -4.40903 -2.96273 0
M  V30 1545 C 143.861 -5.55953 -2.56092 0
M  V30 1546 N 142.998 -5.97209 -3.69169 0
M  V30 1547 H 147.838 -2.95575 -0.379406 0
M  V30 1548 H 145.375 -1.46048 -0.175606 0
M  V30 1549 H 147.333 -3.03931 -2.858 0
M  V30 1550 H 145.963 -1.93068 -2.58698 0
M  V30 1551 H 145.015 -3.68979 -0.925135 0
M  V30 1552 H 146.327 -4.7802 -1.42472 0
M  V30 1553 H 145.481 -4.74539 -3.78018 0
M  V30 1554 H 144.22 -3.56291 -3.33029 0
M  V30 1555 H 143.225 -5.21948 -1.72773 0
M  V30 1556 H 144.45 -6.42311 -2.20484 0
M  V30 1557 H 142.396 -5.15543 -4.05649 0
M  V30 1558 H 142.313 -6.75504 -3.39456 0
M  V30 1559 H 143.581 -6.35475 -4.51434 0
M  V30 1560 N 147.81 0.181792 -1.56548 0
M  V30 1561 C 149.059 0.898348 -1.8059 0
M  V30 1562 C 149.372 1.83862 -0.667379 0
M  V30 1563 O 150.578 2.59678 -0.792446 0
M  V30 1564 C 149.034 1.64791 -3.19956 0
M  V30 1565 C 148.642 0.751789 -4.41647 0
M  V30 1566 C 150.386 2.35331 -3.53298 0
M  V30 1567 C 148.293 1.50098 -5.72035 0
M  V30 1568 H 147.223 0.339194 -0.673397 0
M  V30 1569 H 149.874 0.151413 -1.82874 0
M  V30 1570 H 148.256 2.43921 -3.11959 0
M  V30 1571 H 149.43 -0.0018076 -4.608 0
M  V30 1572 H 147.745 0.156562 -4.16106 0
M  V30 1573 H 150.342 2.91958 -4.47956 0
M  V30 1574 H 150.685 3.10164 -2.77676 0
M  V30 1575 H 151.218 1.63154 -3.62803 0
M  V30 1576 H 147.957 0.795175 -6.50659 0
M  V30 1577 H 147.477 2.22817 -5.56878 0
M  V30 1578 H 149.156 2.05125 -6.13622 0
M  V30 1579 N 149.288 1.51039 0.449983 0
M  V30 1580 C 150.236 1.71995 1.5659 0
M  V30 1581 C 151.23 0.586029 1.5894 0
M  V30 1582 O 152.436 0.76709 1.62837 0
M  V30 1583 H 148.811 0.543233 0.520001 0
M  V30 1584 H 150.782 2.65562 1.36085 0
M  V30 1585 C 149.531 1.8506 2.9436 0
M  V30 1586 H 148.854 2.71712 2.93279 0
M  V30 1587 H 150.294 2.0374 3.71842 0
M  V30 1588 C 148.753 0.607277 3.31382 0
M  V30 1589 O 149.283 -0.243903 4.00959 0
M  V30 1590 N 147.489 0.455073 2.87015 0
M  V30 1591 H 147.036 1.14879 2.30566 0
M  V30 1592 H 146.994 -0.375611 3.12148 0
M  V30 1593 N 150.766 -0.704594 1.40972 0
M  V30 1594 C 152.182 -1.01406 1.23244 0
M  V30 1595 C 152.382 -2.01169 0.115399 0
M  V30 1596 O 151.438 -2.47021 -0.523147 0
M  V30 1597 C 152.751 -1.54728 2.57836 0
M  V30 1598 C 154.299 -1.66658 2.64942 0
M  V30 1599 C 154.774 -2.23383 3.9983 0
M  V30 1600 N 156.265 -2.30756 4.01629 0
M  V30 1601 C 157 -2.75655 5.02794 0
M  V30 1602 N 156.496 -3.20225 6.14352 0
M  V30 1603 N 158.289 -2.75138 4.90159 0
M  V30 1604 H 150.44 -0.0435285 2.12355 0
M  V30 1605 H 152.703 -0.0818951 0.944456 0
M  V30 1606 H 152.409 -0.888832 3.40283 0
M  V30 1607 H 152.283 -2.53084 2.79693 0
M  V30 1608 H 154.67 -2.31617 1.8286 0
M  V30 1609 H 154.751 -0.668717 2.46904 0
M  V30 1610 H 154.395 -1.59043 4.82357 0
M  V30 1611 H 154.325 -3.23904 4.15203 0
M  V30 1612 H 156.816 -1.99291 3.21079 0
M  V30 1613 H 157.129 -3.53084 6.87424 0
M  V30 1614 H 155.474 -3.18156 6.17901 0
M  V30 1615 H 158.665 -2.39661 4.02095 0
M  V30 1616 H 158.838 -3.09812 5.6914 0
M  V30 1617 N 152.244 -1.26651 -0.937939 0
M  V30 1618 C 153.655 -1.1125 -1.49934 0
M  V30 1619 C 154.006 0.306077 -1.93798 0
M  V30 1620 O 153.131 1.19792 -1.80219 0
M  V30 1621 C 153.726 -2.01339 -2.72485 0
M  V30 1622 C 152.285 -1.90074 -3.24883 0
M  V30 1623 C 151.432 -1.94498 -1.97651 0
M  V30 1624 H 154.383 -1.39693 -0.753091 0
M  V30 1625 H 154.404 -1.56319 -3.46907 0
M  V30 1626 H 153.916 -3.04577 -2.40529 0
M  V30 1627 H 152.017 -0.897827 -3.61621 0
M  V30 1628 H 152.13 -2.75778 -3.9177 0
M  V30 1629 H 150.494 -1.38591 -2.13693 0
M  V30 1630 H 151.277 -2.99372 -1.68022 0
M  V30 1631 N 153.722 1.14298 -1.08507 0
M  V30 1632 C 154.655 2.18447 -0.660004 0
M  V30 1633 C 155.633 1.59242 0.328749 0
M  V30 1634 O 156.817 1.87062 0.232367 0
M  V30 1635 C 153.944 3.38688 0.0290807 0
M  V30 1636 C 152.99 4.1646 -0.919982 0
M  V30 1637 S 153.823 4.77334 -2.42718 0
M  V30 1638 C 154.979 6.00931 -1.75024 0
M  V30 1639 H 155.212 2.54166 -1.54231 0
M  V30 1640 H 152.745 1.25446 -0.900149 0
M  V30 1641 H 154.703 4.08342 0.420378 0
M  V30 1642 H 153.364 3.01289 0.887895 0
M  V30 1643 H 152.557 5.02529 -0.384751 0
M  V30 1644 H 152.159 3.52414 -1.25223 0
M  V30 1645 H 154.451 6.69017 -1.06877 0
M  V30 1646 H 155.394 6.59044 -2.58971 0
M  V30 1647 H 155.802 5.51089 -1.22317 0
M  V30 1648 N 155.201 0.870884 1.31352 0
M  V30 1649 C 156.131 0.343096 2.30966 0
M  V30 1650 C 157.112 -0.566507 1.60389 0
M  V30 1651 O 158.297 -0.483336 1.88089 0
M  V30 1652 C 155.427 -0.455487 3.443 0
M  V30 1653 C 154.381 0.361103 4.26474 0
M  V30 1654 C 153.707 -0.563221 5.31725 0
M  V30 1655 C 155.007 1.59566 4.97329 0
M  V30 1656 H 156.701 1.17548 2.75359 0
M  V30 1657 H 154.247 0.566686 1.32381 0
M  V30 1658 H 156.2 -0.83525 4.13039 0
M  V30 1659 H 154.924 -1.32139 2.98675 0
M  V30 1660 H 153.583 0.722825 3.59403 0
M  V30 1661 H 153.231 -1.42643 4.82351 0
M  V30 1662 H 152.931 -0.0207409 5.87596 0
M  V30 1663 H 154.455 -0.939808 6.03324 0
M  V30 1664 H 155.869 1.28728 5.58661 0
M  V30 1665 H 154.266 2.07728 5.63 0
M  V30 1666 H 155.336 2.34798 4.24262 0
M  V30 1667 N 156.679 -1.44442 0.630414 0
M  V30 1668 C 157.611 -2.2892 -0.113347 0
M  V30 1669 C 158.624 -1.41243 -0.80959 0
M  V30 1670 O 159.813 -1.65402 -0.671156 0
M  V30 1671 C 156.913 -3.17594 -1.18266 0
M  V30 1672 C 156.086 -4.33682 -0.569073 0
M  V30 1673 C 155.145 -5.03397 -1.53226 0
M  V30 1674 O 154.171 -5.59438 -1.04967 0
M  V30 1675 N 155.373 -5.04783 -2.86661 0
M  V30 1676 H 158.138 -2.93392 0.611636 0
M  V30 1677 H 155.699 -1.54881 0.471523 0
M  V30 1678 H 157.691 -3.61097 -1.82732 0
M  V30 1679 H 156.261 -2.54876 -1.80988 0
M  V30 1680 H 155.481 -3.9338 0.254187 0
M  V30 1681 H 156.769 -5.08608 -0.139767 0
M  V30 1682 H 156.167 -4.60584 -3.28449 0
M  V30 1683 H 154.724 -5.52077 -3.46489 0
M  V30 1684 N 158.157 -0.370918 -1.53173 0
M  V30 1685 C 159.12 0.460778 -2.24521 0
M  V30 1686 C 160.12 1.00536 -1.25496 0
M  V30 1687 O 161.31 0.890266 -1.49733 0
M  V30 1688 C 158.442 1.64457 -2.98608 0
M  V30 1689 H 159.635 -0.163613 -2.99453 0
M  V30 1690 H 157.188 -0.122699 -1.55818 0
M  V30 1691 H 157.923 2.30691 -2.2793 0
M  V30 1692 H 157.708 1.26099 -3.7127 0
M  V30 1693 H 159.198 2.23384 -3.5283 0
M  V30 1694 N 159.635 1.57281 -0.100228 0
M  V30 1695 C 160.598 2.13158 0.842398 0
M  V30 1696 C 161.598 1.06202 1.20738 0
M  V30 1697 O 162.788 1.32066 1.13597 0
M  V30 1698 C 159.92 2.65639 2.13655 0
M  V30 1699 H 161.113 2.97766 0.357114 0
M  V30 1700 H 158.666 1.5559 0.148823 0
M  V30 1701 H 159.401 1.84566 2.66657 0
M  V30 1702 H 159.186 3.43844 1.88451 0
M  V30 1703 H 160.676 3.08846 2.81077 0
M  V30 1704 N 161.113 -0.173488 1.56642 0
M  V30 1705 C 162.043 -1.2171 1.99271 0
M  V30 1706 C 163.024 -1.46289 0.867959 0
M  V30 1707 O 164.209 -1.5766 1.13388 0
M  V30 1708 C 161.339 -2.55651 2.35074 0
M  V30 1709 C 160.293 -2.45645 3.50489 0
M  V30 1710 C 159.619 -3.84056 3.72028 0
M  V30 1711 C 160.919 -1.96302 4.84007 0
M  V30 1712 H 162.613 -0.86275 2.867 0
M  V30 1713 H 160.159 -0.413571 1.37933 0
M  V30 1714 H 162.112 -3.2886 2.63494 0
M  V30 1715 H 160.836 -2.92869 1.44552 0
M  V30 1716 H 159.495 -1.7489 3.22194 0
M  V30 1717 H 159.143 -4.18664 2.788 0
M  V30 1718 H 158.843 -3.7823 4.49684 0
M  V30 1719 H 160.367 -4.58854 4.02846 0
M  V30 1720 H 161.781 -2.59284 5.11317 0
M  V30 1721 H 160.178 -2.01429 5.65284 0
M  V30 1722 H 161.248 -0.917226 4.76146 0
M  V30 1723 N 162.591 -1.51276 -0.441967 0
M  V30 1724 C 163.524 -1.66933 -1.55591 0
M  V30 1725 C 164.502 -0.516958 -1.54163 0
M  V30 1726 O 165.686 -0.740209 -1.73358 0
M  V30 1727 C 162.813 -1.67866 -2.94174 0
M  V30 1728 C 161.859 -2.89013 -3.13646 0
M  V30 1729 S 162.692 -4.49897 -2.90436 0
M  V30 1730 C 163.848 -4.53568 -4.31308 0
M  V30 1731 H 164.081 -2.61155 -1.42076 0
M  V30 1732 H 161.614 -1.40902 -0.631341 0
M  V30 1733 H 163.572 -1.69089 -3.74058 0
M  V30 1734 H 162.233 -0.748296 -3.05056 0
M  V30 1735 H 161.426 -2.86054 -4.14957 0
M  V30 1736 H 161.028 -2.85509 -2.4158 0
M  V30 1737 H 163.32 -4.28924 -5.24434 0
M  V30 1738 H 164.263 -5.55355 -4.39303 0
M  V30 1739 H 164.671 -3.82943 -4.14747 0
M  V30 1740 N 164.069 0.697108 -1.41344 0
M  V30 1741 C 164.999 1.82353 -1.45841 0
M  V30 1742 C 165.98 1.67115 -0.317247 0
M  V30 1743 O 167.165 1.86871 -0.528474 0
M  V30 1744 C 164.295 3.20476 -1.33838 0
M  V30 1745 C 163.249 3.50415 -2.4575 0
M  V30 1746 C 162.575 4.87878 -2.18813 0
M  V30 1747 C 163.875 3.49546 -3.88091 0
M  V30 1748 H 165.569 1.78846 -2.40113 0
M  V30 1749 H 163.115 0.859028 -1.15571 0
M  V30 1750 H 165.068 3.98988 -1.35596 0
M  V30 1751 H 163.792 3.24604 -0.360498 0
M  V30 1752 H 162.451 2.74253 -2.43271 0
M  V30 1753 H 162.099 4.8863 -1.19371 0
M  V30 1754 H 161.799 5.08875 -2.93803 0
M  V30 1755 H 163.323 5.68702 -2.22284 0
M  V30 1756 H 164.737 4.18066 -3.92293 0
M  V30 1757 H 163.134 3.82075 -4.62751 0
M  V30 1758 H 164.204 2.48552 -4.16353 0
M  V30 1759 N 165.547 1.27147 0.931209 0
M  V30 1760 C 166.963 1.04475 1.20653 0
M  V30 1761 C 167.163 -0.223885 2.00252 0
M  V30 1762 O 166.219 -0.930332 2.34736 0
M  V30 1763 C 167.532 2.28209 1.95809 0
M  V30 1764 C 169.08 2.33211 2.08762 0
M  V30 1765 C 169.555 3.56665 2.87323 0
M  V30 1766 N 171.046 3.57201 2.94892 0
M  V30 1767 C 171.781 4.49395 3.56134 0
M  V30 1768 N 171.277 5.51889 4.18796 0
M  V30 1769 N 173.07 4.37026 3.53504 0
M  V30 1770 H 165.221 2.08612 0.399333 0
M  V30 1771 H 167.484 0.917312 0.239253 0
M  V30 1772 H 167.19 3.20538 1.44736 0
M  V30 1773 H 167.064 2.33247 2.96438 0
M  V30 1774 H 169.451 1.41391 2.59023 0
M  V30 1775 H 169.532 2.32178 1.07364 0
M  V30 1776 H 169.176 4.4882 2.37746 0
M  V30 1777 H 169.106 3.54948 3.88998 0
M  V30 1778 H 171.597 2.83074 2.50354 0
M  V30 1779 H 171.91 6.18409 4.63454 0
M  V30 1780 H 170.255 5.55735 4.17353 0
M  V30 1781 H 173.446 3.56166 3.03749 0
M  V30 1782 H 173.619 5.09067 4.00942 0
M  V30 1783 N 167.025 -1.13721 1.09112 0
M  V30 1784 C 167.972 -2.19031 0.727591 0
M  V30 1785 C 168.942 -1.63555 -0.289656 0
M  V30 1786 O 170.127 -1.90023 -0.172026 0
M  V30 1787 C 167.267 -3.4477 0.15082 0
M  V30 1788 C 166.38 -4.14365 1.22172 0
M  V30 1789 C 165.515 -5.27709 0.608042 0
M  V30 1790 C 164.554 -5.89147 1.66047 0
M  V30 1791 N 163.691 -6.93929 1.06806 0
M  V30 1792 H 168.531 -2.49475 1.62991 0
M  V30 1793 H 166.068 -1.22499 0.81439 0
M  V30 1794 H 168.026 -4.16714 -0.201358 0
M  V30 1795 H 166.656 -3.14787 -0.714783 0
M  V30 1796 H 165.708 -3.40737 1.69122 0
M  V30 1797 H 167.02 -4.56114 2.01895 0
M  V30 1798 H 166.174 -6.06355 0.204523 0
M  V30 1799 H 164.913 -4.872 -0.220769 0
M  V30 1800 H 163.918 -5.09198 2.07357 0
M  V30 1801 H 165.143 -6.31729 2.49189 0
M  V30 1802 H 163.089 -6.55483 0.260476 0
M  V30 1803 H 163.006 -7.34202 1.8023 0
M  V30 1804 H 164.274 -7.76434 0.690644 0
M  V30 1805 N 168.503 -0.877838 -1.30888 0
M  V30 1806 C 169.45 -0.337538 -2.28318 0
M  V30 1807 C 170.42 0.568346 -1.56074 0
M  V30 1808 O 171.605 0.498298 -1.84178 0
M  V30 1809 C 168.745 0.448142 -3.42178 0
M  V30 1810 C 167.858 -0.48615 -4.29256 0
M  V30 1811 C 166.993 0.314427 -5.30269 0
M  V30 1812 C 166.032 -0.615791 -6.08995 0
M  V30 1813 N 165.169 0.14902 -7.01942 0
M  V30 1814 H 170.009 -1.17356 -2.73919 0
M  V30 1815 H 167.546 -0.590094 -1.34745 0
M  V30 1816 H 169.504 0.919517 -4.06941 0
M  V30 1817 H 168.134 1.24879 -2.97666 0
M  V30 1818 H 167.186 -1.076 -3.64865 0
M  V30 1819 H 168.498 -1.19909 -4.84173 0
M  V30 1820 H 167.652 0.847969 -6.00745 0
M  V30 1821 H 166.391 1.06062 -4.76027 0
M  V30 1822 H 165.396 -1.16102 -5.37401 0
M  V30 1823 H 166.621 -1.36097 -6.65323 0
M  V30 1824 H 164.567 0.877884 -6.50099 0
M  V30 1825 H 164.484 -0.504433 -7.54315 0
M  V30 1826 H 165.752 0.663537 -7.76671 0
M  V30 1827 N 169.982 1.44106 -0.638065 0
M  V30 1828 C 171.23 2.01579 -0.145043 0
M  V30 1829 C 171.551 1.50496 1.24 0
M  V30 1830 O 170.821 0.711374 1.82527 0
M  V30 1831 H 169.401 0.745282 -0.05063 0
M  V30 1832 H 172.063 1.76516 -0.826327 0
M  V30 1833 H 171.159 3.11877 -0.118039 0
M  V30 1834 N 171.46 0.379036 1.52974 0
M  V30 1835 C 172.707 -0.206421 2.01445 0
M  V30 1836 C 173.035 -1.47668 1.26587 0
M  V30 1837 O 172.29 -1.92514 0.351675 0
M  V30 1838 C 172.589 -0.53096 3.53434 0
M  V30 1839 C 172.255 0.646546 4.46241 0
M  V30 1840 C 170.917 0.969604 4.7133 0
M  V30 1841 C 173.269 1.43479 5.01062 0
M  V30 1842 C 170.597 2.08263 5.48492 0
M  V30 1843 C 172.949 2.53834 5.7944 0
M  V30 1844 C 171.613 2.86659 6.02812 0
M  V30 1845 H 170.883 -0.0755349 0.73714 0
M  V30 1846 H 173.53 0.514271 1.84465 0
M  V30 1847 H 171.835 -1.33285 3.68432 0
M  V30 1848 H 173.532 -0.996417 3.88423 0
M  V30 1849 H 170.122 0.384734 4.2687 0
M  V30 1850 H 174.306 1.19844 4.81613 0
M  V30 1851 H 169.562 2.34078 5.64816 0
M  V30 1852 H 173.736 3.15319 6.20924 0
M  V30 1853 H 171.363 3.73026 6.62387 0
M  V30 1854 N 172.938 -1.57226 0.108567 0
M  V30 1855 C 174.166 -1.99179 -0.559954 0
M  V30 1856 C 174.581 -0.988022 -1.60884 0
M  V30 1857 O 173.938 0.0205512 -1.82488 0
M  V30 1858 C 173.989 -3.41159 -1.19552 0
M  V30 1859 O 173.71 -4.37694 -0.188577 0
M  V30 1860 C 175.211 -3.98188 -1.94837 0
M  V30 1861 H 172.431 -0.654228 -0.149088 0
M  V30 1862 H 174.975 -2.03598 0.19183 0
M  V30 1863 H 173.13 -3.37711 -1.89815 0
M  V30 1864 H 173.544 -5.20469 -0.649014 0
M  V30 1865 H 175.018 -4.99644 -2.34648 0
M  V30 1866 H 175.495 -3.3675 -2.81951 0
M  V30 1867 H 176.101 -4.0515 -1.2936 0
M  V30 1868 N 174.416 0.165178 -1.56732 0
M  V30 1869 C 175.644 0.896218 -1.86482 0
M  V30 1870 C 176.059 1.75555 -0.694675 0
M  V30 1871 O 175.416 1.79379 0.33607 0
M  V30 1872 C 175.467 1.76792 -3.1532 0
M  V30 1873 O 175.188 0.943239 -4.27825 0
M  V30 1874 C 176.689 2.6081 -3.58459 0
M  V30 1875 H 173.909 0.260064 -0.618553 0
M  V30 1876 H 176.453 0.163428 -2.03846 0
M  V30 1877 H 174.608 2.45398 -2.99764 0
M  V30 1878 H 175.022 1.53998 -5.01383 0
M  V30 1879 H 176.496 3.17579 -4.51495 0
M  V30 1880 H 176.973 3.35977 -2.82872 0
M  V30 1881 H 177.579 1.97526 -3.76648 0
M  V30 1882 N 175.894 1.51508 0.433938 0
M  V30 1883 C 176.857 1.72473 1.50949 0
M  V30 1884 C 177.857 0.594725 1.49398 0
M  V30 1885 O 179.047 0.862315 1.5136 0
M  V30 1886 C 176.179 1.78431 2.90474 0
M  V30 1887 H 177.372 2.68467 1.33662 0
M  V30 1888 H 174.925 1.41549 0.662836 0
M  V30 1889 H 175.66 0.842645 3.13161 0
M  V30 1890 H 175.445 2.60558 2.93005 0
M  V30 1891 H 176.935 1.96479 3.68491 0
M  V30 1892 N 177.372 -0.689602 1.41712 0
M  V30 1893 C 178.621 -1.44534 1.40686 0
M  V30 1894 C 178.934 -1.95588 0.0213352 0
M  V30 1895 O 180.14 -2.71271 -0.111534 0
M  V30 1896 C 178.596 -2.61387 2.47396 0
M  V30 1897 C 178.204 -2.17094 3.91885 0
M  V30 1898 C 179.948 -3.38986 2.55517 0
M  V30 1899 C 177.855 -3.3094 4.90135 0
M  V30 1900 H 176.785 -0.542925 0.52321 0
M  V30 1901 H 179.436 -0.748054 1.6756 0
M  V30 1902 H 177.818 -3.33412 2.13664 0
M  V30 1903 H 178.992 -1.52318 4.34897 0
M  V30 1904 H 177.307 -1.52473 3.8748 0
M  V30 1905 H 179.904 -4.23747 3.26102 0
M  V30 1906 H 180.247 -3.84578 1.59391 0
M  V30 1907 H 180.78 -2.74021 2.8837 0
M  V30 1908 H 177.519 -2.90355 5.87685 0
M  V30 1909 H 177.039 -3.94546 4.51767 0
M  V30 1910 H 178.718 -3.9663 5.11169 0
M  V30 1911 N 178.85 -1.27639 -0.924453 0
M  V30 1912 C 179.78 -1.13166 -2.04244 0
M  V30 1913 C 180.761 -0.032256 -1.70069 0
M  V30 1914 O 181.946 -0.207328 -1.9309 0
M  V30 1915 C 179.076 -0.781496 -3.38393 0
M  V30 1916 C 178.03 -1.83449 -3.86692 0
M  V30 1917 C 177.356 -1.33822 -5.17683 0
M  V30 1918 C 178.656 -3.23917 -4.09726 0
M  V30 1919 H 180.35 -2.06689 -2.1661 0
M  V30 1920 H 177.896 -0.995136 -1.04082 0
M  V30 1921 H 179.849 -0.667057 -4.16087 0
M  V30 1922 H 178.573 0.189439 -3.2605 0
M  V30 1923 H 177.232 -1.93789 -3.11193 0
M  V30 1924 H 176.88 -0.35665 -5.01734 0
M  V30 1925 H 176.58 -2.04224 -5.50968 0
M  V30 1926 H 178.104 -1.23679 -5.97943 0
M  V30 1927 H 179.518 -3.16559 -4.77978 0
M  V30 1928 H 177.915 -3.92059 -4.54324 0
M  V30 1929 H 178.985 -3.68729 -3.14908 0
M  V30 1930 N 180.328 1.1314 -1.09713 0
M  V30 1931 C 181.556 1.88321 -0.856898 0
M  V30 1932 C 181.971 1.79276 0.592073 0
M  V30 1933 O 181.328 1.16142 1.40774 0
M  V30 1934 C 181.379 3.37812 -1.28706 0
M  V30 1935 O 181.1 3.46627 -2.67921 0
M  V30 1936 C 182.601 4.29952 -1.07964 0
M  V30 1937 H 179.821 0.596094 -0.308079 0
M  V30 1938 H 182.365 1.43205 -1.45988 0
M  V30 1939 H 180.52 3.805 -0.727912 0
M  V30 1940 H 180.934 4.39579 -2.8613 0
M  V30 1941 H 182.408 5.33159 -1.42986 0
M  V30 1942 H 182.885 4.39196 -0.0176577 0
M  V30 1943 H 183.491 3.93036 -1.62489 0
M  V30 1944 N 181.806 0.884767 1.30421 0
M  V30 1945 C 182.754 0.340869 2.30089 0
M  V30 1946 C 183.748 -0.55201 1.60154 0
M  V30 1947 O 184.954 -0.436467 1.74628 0
M  V30 1948 H 181.329 0.0915739 0.746404 0
M  V30 1949 H 183.3 1.19513 2.73421 0
M  V30 1950 C 182.049 -0.429779 3.45034 0
M  V30 1951 H 181.372 0.248024 3.9903 0
M  V30 1952 H 182.812 -0.775445 4.16849 0
M  V30 1953 C 181.271 -1.62677 2.95022 0
M  V30 1954 O 181.801 -2.72614 2.95033 0
M  V30 1955 N 180.007 -1.46387 2.51036 0
M  V30 1956 H 179.554 -0.569506 2.51226 0
M  V30 1957 H 179.512 -2.26612 2.17932 0
M  V30 1958 N 183.284 -1.43765 0.645699 0
M  V30 1959 C 184.512 -2.06253 0.163556 0
M  V30 1960 C 184.927 -1.48352 -1.16778 0
M  V30 1961 O 184.284 -0.611932 -1.71935 0
M  V30 1962 C 184.335 -3.61453 0.0583186 0
M  V30 1963 O 184.056 -4.172 1.33702 0
M  V30 1964 C 185.557 -4.41002 -0.450795 0
M  V30 1965 H 182.777 -0.665413 0.0864077 0
M  V30 1966 H 185.321 -1.84396 0.884222 0
M  V30 1967 H 183.476 -3.82522 -0.612865 0
M  V30 1968 H 183.89 -5.10791 1.19131 0
M  V30 1969 H 185.364 -5.49966 -0.473403 0
M  V30 1970 H 185.841 -4.13488 -1.48068 0
M  V30 1971 H 186.447 -4.24886 0.187637 0
M  V30 1972 N 184.763 -0.387143 -1.52771 0
M  V30 1973 C 186.009 0.188506 -2.02525 0
M  V30 1974 C 186.364 1.44649 -1.26864 0
M  V30 1975 O 185.657 1.88189 -0.359945 0
M  V30 1976 C 185.851 0.512209 -3.53711 0
M  V30 1977 C 185.68 -0.712855 -4.44014 0
M  V30 1978 C 184.45 -1.23147 -4.90064 0
M  V30 1979 C 186.648 -1.58453 -4.89282 0
M  V30 1980 N 184.63 -2.41431 -5.64433 0
M  V30 1981 C 186.001 -2.61381 -5.6221 0
M  V30 1982 C 188.056 -1.60488 -4.71326 0
M  V30 1983 C 186.759 -3.66227 -6.19088 0
M  V30 1984 C 188.785 -2.6424 -5.29085 0
M  V30 1985 C 188.147 -3.6589 -6.01917 0
M  V30 1986 H 184.246 0.0311236 -0.78138 0
M  V30 1987 H 186.83 -0.536548 -1.87161 0
M  V30 1988 H 185.001 1.20632 -3.69192 0
M  V30 1989 H 186.733 1.07482 -3.90166 0
M  V30 1990 H 183.488 -0.792795 -4.66917 0
M  V30 1991 H 183.912 -3.01274 -6.0627 0
M  V30 1992 H 188.554 -0.83247 -4.14524 0
M  V30 1993 H 186.272 -4.44337 -6.74974 0
M  V30 1994 H 189.858 -2.66695 -5.17074 0
M  V30 1995 H 188.738 -4.44855 -6.45813 0
M  V30 1996 N 186.241 1.57166 -0.116904 0
M  V30 1997 C 187.171 2.18222 0.830759 0
M  V30 1998 C 188.152 1.12167 1.27877 0
M  V30 1999 O 189.337 1.40394 1.34176 0
M  V30 2000 C 186.467 2.77996 2.08172 0
M  V30 2001 C 185.421 3.89614 1.77157 0
M  V30 2002 C 184.747 4.36187 3.09265 0
M  V30 2003 C 186.047 5.1181 1.04151 0
M  V30 2004 H 187.741 2.97664 0.321992 0
M  V30 2005 H 185.287 1.4318 0.153434 0
M  V30 2006 H 187.24 3.19366 2.74924 0
M  V30 2007 H 185.964 1.9584 2.6137 0
M  V30 2008 H 184.623 3.48816 1.12796 0
M  V30 2009 H 184.271 3.50893 3.60393 0
M  V30 2010 H 183.971 5.11455 2.89288 0
M  V30 2011 H 185.495 4.80207 3.77139 0
M  V30 2012 H 186.909 5.50214 1.61052 0
M  V30 2013 H 185.306 5.92648 0.942762 0
M  V30 2014 H 186.376 4.84892 0.0279022 0
M  V30 2015 N 187.719 -0.156864 1.56817 0
M  V30 2016 C 188.996 -0.899244 1.73704 0
M  V30 2017 C 189.376 -1.99771 0.682254 0
M  V30 2018 O 188.724 -2.26515 -0.300522 0
M  V30 2019 C 188.934 -1.45075 3.17418 0
M  V30 2020 C 190.282 -1.91802 3.7881 0
M  V30 2021 O 191.306 -1.54838 3.20786 0
M  V30 2022 O 190.165 -2.5994 4.80722 0
M  V30 2023 H 187.259 -0.424267 0.709878 0
M  V30 2024 H 189.805 -0.143561 1.69092 0
M  V30 2025 H 188.577 -0.660846 3.85679 0
M  V30 2026 H 188.2 -2.27021 3.26416 0
M  V30 2027 N 189.197 -1.51736 -0.425897 0
M  V30 2028 C 190.474 -1.55519 -1.1863 0
M  V30 2029 C 190.854 -0.326219 -2.08564 0
M  V30 2030 O 190.202 0.688012 -2.17896 0
M  V30 2031 C 190.412 -2.87521 -1.9782 0
M  V30 2032 C 191.76 -3.39899 -2.54468 0
M  V30 2033 O 192.784 -2.89148 -2.08019 0
M  V30 2034 O 191.643 -4.2848 -3.39215 0
M  V30 2035 H 188.737 -0.625739 -0.540721 0
M  V30 2036 H 191.283 -1.64055 -0.434038 0
M  V30 2037 H 190.055 -3.68422 -1.31836 0
M  V30 2038 H 189.678 -2.822 -2.80088 0
M  V30 2039 N 190.675 0.682077 -1.42076 0
M  V30 2040 C 192.091 0.994324 -1.24841 0
M  V30 2041 C 192.291 2.0096 -0.147389 0
M  V30 2042 O 191.347 2.47822 0.483782 0
M  V30 2043 C 192.66 1.50607 -2.60265 0
M  V30 2044 C 194.208 1.62421 -2.6756 0
M  V30 2045 C 194.683 2.16994 -4.03333 0
M  V30 2046 N 196.174 2.24337 -4.0525 0
M  V30 2047 C 196.909 2.67621 -5.07116 0
M  V30 2048 N 196.405 3.1041 -6.19368 0
M  V30 2049 N 198.198 2.67305 -4.94474 0
M  V30 2050 H 190.349 0.00973908 -2.12398 0
M  V30 2051 H 192.612 0.0668593 -0.945639 0
M  V30 2052 H 192.318 0.834583 -3.41654 0
M  V30 2053 H 192.192 2.48602 -2.83684 0
M  V30 2054 H 194.579 2.28678 -1.86521 0
M  V30 2055 H 194.66 0.629352 -2.47937 0
M  V30 2056 H 194.304 1.51349 -4.84826 0
M  V30 2057 H 194.234 3.17258 -4.20304 0
M  V30 2058 H 196.725 1.94158 -3.24209 0
M  V30 2059 H 197.038 3.42103 -6.92954 0
M  V30 2060 H 195.383 3.08286 -6.22884 0
M  V30 2061 H 198.574 2.33233 -4.05857 0
M  V30 2062 H 198.747 3.00718 -5.73997 0
M  V30 2063 N 192.153 1.28127 0.917671 0
M  V30 2064 C 193.116 1.11744 2.00115 0
M  V30 2065 C 194.116 0.0583052 1.60694 0
M  V30 2066 O 195.306 0.303755 1.71531 0
M  V30 2067 C 192.438 0.704862 3.33533 0
M  V30 2068 H 193.631 2.07966 2.16079 0
M  V30 2069 H 191.184 1.11058 1.09981 0
M  V30 2070 H 191.919 -0.258299 3.2327 0
M  V30 2071 H 191.704 1.4699 3.63505 0
M  V30 2072 H 193.194 0.612768 4.1308 0
M  V30 2073 N 193.631 -1.12557 1.10312 0
M  V30 2074 C 194.541 -2.21841 0.763142 0
M  V30 2075 C 195.557 -1.72354 -0.238801 0
M  V30 2076 O 196.733 -2.01249 -0.0778746 0
M  V30 2077 C 193.798 -3.46131 0.198632 0
M  V30 2078 C 192.859 -4.10464 1.25769 0
M  V30 2079 C 192.092 -5.28821 0.72002 0
M  V30 2080 O 192.315 -5.6859 -0.453993 0
M  V30 2081 O 191.249 -5.83437 1.47935 0
M  V30 2082 H 195.075 -2.53312 1.67532 0
M  V30 2083 H 192.66 -1.20867 0.878157 0
M  V30 2084 H 194.542 -4.2125 -0.112401 0
M  V30 2085 H 193.217 -3.16338 -0.686419 0
M  V30 2086 H 192.124 -3.3713 1.62156 0
M  V30 2087 H 193.457 -4.44408 2.11571 0
M  V30 2088 N 195.109 -0.891671 -1.2995 0
M  V30 2089 C 196.525 -0.58662 -1.48428 0
M  V30 2090 C 196.725 0.873951 -1.81561 0
M  V30 2091 O 195.781 1.65471 -1.90724 0
M  V30 2092 C 197.094 -1.50553 -2.60296 0
M  V30 2093 C 198.642 -1.50988 -2.74175 0
M  V30 2094 C 199.117 -2.41488 -3.89163 0
M  V30 2095 N 200.608 -2.39489 -3.96483 0
M  V30 2096 C 201.343 -3.06223 -4.84784 0
M  V30 2097 N 200.839 -3.82206 -5.77833 0
M  V30 2098 N 202.632 -2.95421 -4.78208 0
M  V30 2099 H 194.783 -1.83644 -1.06718 0
M  V30 2100 H 197.046 -0.786455 -0.529332 0
M  V30 2101 H 196.752 -2.54581 -2.42654 0
M  V30 2102 H 196.626 -1.22008 -3.56923 0
M  V30 2103 H 199.013 -0.47708 -2.91218 0
M  V30 2104 H 199.094 -1.83567 -1.78148 0
M  V30 2105 H 198.738 -3.44857 -3.72876 0
M  V30 2106 H 198.668 -2.06222 -4.84541 0
M  V30 2107 H 201.159 -1.84278 -3.29924 0
M  V30 2108 H 201.472 -4.302 -6.41988 0
M  V30 2109 H 199.817 -3.86313 -5.77743 0
M  V30 2110 H 203.008 -2.35581 -4.04499 0
M  V30 2111 H 203.181 -3.47704 -5.46814 0
M  V30 2112 N 196.587 1.43421 -0.653314 0
M  V30 2113 C 197.864 1.95361 -0.0966581 0
M  V30 2114 C 198.244 1.59461 1.38331 0
M  V30 2115 O 197.592 0.879777 2.10884 0
M  V30 2116 C 197.802 3.47311 -0.342988 0
M  V30 2117 C 199.15 4.23875 -0.24798 0
M  V30 2118 O 200.174 3.55133 -0.275553 0
M  V30 2119 O 199.033 5.4623 -0.171771 0
M  V30 2120 H 196.127 0.826945 0.00956291 0
M  V30 2121 H 198.673 1.5336 -0.726558 0
M  V30 2122 H 197.445 3.66569 -1.36906 0
M  V30 2123 H 197.068 3.9631 0.319975 0
M  V30 2124 N 198.065 0.39524 1.52563 0
M  V30 2125 C 199.313 -0.184678 2.01254 0
M  V30 2126 C 199.634 -1.46822 1.28329 0
M  V30 2127 O 198.904 -1.91666 0.405094 0
M  V30 2128 H 197.484 -0.0712355 0.743596 0
M  V30 2129 H 200.146 0.528293 1.87603 0
M  V30 2130 H 199.242 -0.390681 3.09645 0
M  V30 2131 N 199.544 -1.57102 0.125237 0
M  V30 2132 C 200.474 -2.18659 -0.819174 0
M  V30 2133 C 201.455 -1.12843 -1.27281 0
M  V30 2134 O 202.64 -1.41104 -1.33429 0
M  V30 2135 C 199.77 -2.79096 -2.06695 0
M  V30 2136 C 198.724 -3.90548 -1.75088 0
M  V30 2137 C 198.05 -4.37821 -3.06948 0
M  V30 2138 C 199.35 -5.12356 -1.01435 0
M  V30 2139 H 201.044 -2.9783 -0.306202 0
M  V30 2140 H 198.59 -1.4326 -0.145839 0
M  V30 2141 H 200.543 -3.2082 -2.73226 0
M  V30 2142 H 199.267 -1.97223 -2.60328 0
M  V30 2143 H 197.926 -3.49409 -1.10944 0
M  V30 2144 H 197.574 -3.52799 -3.58527 0
M  V30 2145 H 197.274 -5.12982 -2.86571 0
M  V30 2146 H 198.798 -4.822 -3.74587 0
M  V30 2147 H 200.212 -5.5106 -1.58132 0
M  V30 2148 H 198.609 -5.9314 -0.911319 0
M  V30 2149 H 199.679 -4.849 -0.00218681 0
M  V30 2150 N 201.022 0.148545 -1.56898 0
M  V30 2151 C 201.985 1.16736 -1.97244 0
M  V30 2152 C 202.985 1.35947 -0.858777 0
M  V30 2153 O 204.175 1.32966 -1.12542 0
M  V30 2154 C 201.307 2.52798 -2.28705 0
M  V30 2155 H 202.5 0.821279 -2.88435 0
M  V30 2156 H 200.053 0.391831 -1.51309 0
M  V30 2157 H 200.788 2.92381 -1.403 0
M  V30 2158 H 200.573 2.40216 -3.09901 0
M  V30 2159 H 202.063 3.26179 -2.60762 0
M  V30 2160 N 202.5 1.5196 0.417844 0
M  V30 2161 C 203.432 1.70895 1.52733 0
M  V30 2162 C 204.445 0.589405 1.51756 0
M  V30 2163 O 205.634 0.864312 1.56179 0
M  V30 2164 C 202.734 1.72627 2.91639 0
M  V30 2165 C 201.907 3.01479 3.16905 0
M  V30 2166 C 200.966 2.95139 4.35637 0
M  V30 2167 O 199.992 3.69059 4.3334 0
M  V30 2168 N 201.194 2.12328 5.40275 0
M  V30 2169 H 203.959 2.66612 1.36888 0
M  V30 2170 H 201.52 1.50089 0.607037 0
M  V30 2171 H 203.512 1.65928 3.6912 0
M  V30 2172 H 202.082 0.844216 3.00985 0
M  V30 2173 H 201.302 3.21895 2.27546 0
M  V30 2174 H 202.59 3.86736 3.30625 0
M  V30 2175 H 201.988 1.51685 5.44985 0
M  V30 2176 H 200.545 2.11494 6.16534 0
M  V30 2177 N 203.978 -0.674533 1.42435 0
M  V30 2178 C 204.908 -1.80009 1.48724 0
M  V30 2179 C 205.889 -1.6659 0.343793 0
M  V30 2180 O 207.074 -1.86007 0.558137 0
M  V30 2181 C 204.204 -3.18306 1.38919 0
M  V30 2182 C 203.158 -3.46461 2.51294 0
M  V30 2183 C 202.484 -4.84335 2.26547 0
M  V30 2184 C 203.784 -3.43328 3.93603 0
M  V30 2185 H 205.478 -1.75004 2.42928 0
M  V30 2186 H 203.024 -0.840533 1.16923 0
M  V30 2187 H 204.977 -3.9678 1.41927 0
M  V30 2188 H 203.701 -3.2399 0.412094 0
M  V30 2189 H 202.36 -2.70348 2.47604 0
M  V30 2190 H 202.008 -4.86669 1.2713 0
M  V30 2191 H 201.708 -5.04136 3.01861 0
M  V30 2192 H 203.232 -5.65094 2.31304 0
M  V30 2193 H 204.646 -4.11772 3.98894 0
M  V30 2194 H 203.043 -3.74664 4.68771 0
M  V30 2195 H 204.113 -2.41897 4.20255 0
M  V30 2196 N 205.456 -1.28612 -0.910864 0
M  V30 2197 C 206.389 -1.07109 -2.01502 0
M  V30 2198 C 207.367 0.013706 -1.62594 0
M  V30 2199 O 208.551 -0.134796 -1.88017 0
M  V30 2200 C 205.678 -0.628255 -3.32822 0
M  V30 2201 C 204.724 -1.71012 -3.90714 0
M  V30 2202 S 205.557 -3.30676 -4.21205 0
M  V30 2203 C 206.713 -2.88234 -5.55583 0
M  V30 2204 H 206.946 -2.00591 -2.19432 0
M  V30 2205 H 204.479 -1.12633 -1.05609 0
M  V30 2206 H 206.437 -0.37946 -4.08742 0
M  V30 2207 H 205.098 0.28678 -3.12788 0
M  V30 2208 H 204.291 -1.35195 -4.85529 0
M  V30 2209 H 203.893 -1.91186 -3.21441 0
M  V30 2210 H 206.185 -2.34584 -6.35591 0
M  V30 2211 H 207.128 -3.81857 -5.96314 0
M  V30 2212 H 207.536 -2.26862 -5.16908 0
M  V30 2213 N 206.934 1.1197 -1.10907 0
M  V30 2214 C 208.174 1.85224 -0.864378 0
M  V30 2215 C 208.538 1.82411 0.599178 0
M  V30 2216 O 209.739 2.51057 0.960416 0
M  V30 2217 C 208.01 3.2868 -1.40371 0
M  V30 2218 S 209.569 4.1925 -1.29518 0
M  V30 2219 H 206.387 0.63878 -0.312219 0
M  V30 2220 H 208.989 1.3485 -1.41548 0
M  V30 2221 H 207.693 3.28289 -2.46281 0
M  V30 2222 H 207.224 3.84121 -0.849402 0
M  V30 2223 H 209.239 4.95539 -0.256059 0
M  V30 2224 N 208.412 0.89855 1.29475 0
M  V30 2225 C 209.322 0.379974 2.31502 0
M  V30 2226 C 210.338 -0.524695 1.659 0
M  V30 2227 O 211.514 -0.414551 1.97087 0
M  V30 2228 C 208.579 -0.385138 3.44554 0
M  V30 2229 C 207.64 0.550914 4.2575 0
M  V30 2230 C 206.873 -0.177778 5.33404 0
M  V30 2231 O 207.096 -1.40189 5.52904 0
M  V30 2232 O 206.03 0.479106 5.9999 0
M  V30 2233 H 209.856 1.22639 2.77837 0
M  V30 2234 H 207.441 0.662834 1.33891 0
M  V30 2235 H 209.323 -0.817841 4.13388 0
M  V30 2236 H 207.998 -1.20763 3.0033 0
M  V30 2237 H 206.905 1.03271 3.59564 0
M  V30 2238 H 208.238 1.33979 4.73614 0
M  V30 2239 N 209.89 -1.43072 0.660911 0
M  V30 2240 C 210.82 -2.33497 -0.0122829 0
M  V30 2241 C 211.801 -1.49903 -0.803925 0
M  V30 2242 O 212.986 -1.78546 -0.763864 0
M  V30 2243 C 210.116 -3.33363 -0.973994 0
M  V30 2244 C 209.07 -4.27003 -0.291928 0
M  V30 2245 C 208.396 -5.16967 -1.36562 0
M  V30 2246 C 209.696 -5.15816 0.820462 0
M  V30 2247 H 211.39 -2.90038 0.742873 0
M  V30 2248 H 208.936 -1.39461 0.358688 0
M  V30 2249 H 210.889 -3.95524 -1.45392 0
M  V30 2250 H 209.613 -2.75095 -1.7604 0
M  V30 2251 H 208.272 -3.66217 0.167623 0
M  V30 2252 H 207.92 -4.55034 -2.14366 0
M  V30 2253 H 207.62 -5.80441 -0.914454 0
M  V30 2254 H 209.144 -5.82003 -1.84675 0
M  V30 2255 H 210.558 -5.71742 0.422366 0
M  V30 2256 H 208.955 -5.8805 1.19656 0
M  V30 2257 H 210.025 -4.55045 1.67518 0
M  V30 2258 N 211.368 -0.403325 -1.52352 0
M  V30 2259 C 212.315 0.425011 -2.26853 0
M  V30 2260 C 213.285 1.04598 -1.29029 0
M  V30 2261 O 214.47 1.07135 -1.57882 0
M  V30 2262 C 211.61 1.53888 -3.08889 0
M  V30 2263 C 210.723 0.939396 -4.21663 0
M  V30 2264 C 209.858 2.02547 -4.91068 0
M  V30 2265 C 208.897 1.40263 -5.95813 0
M  V30 2266 N 208.034 2.4286 -6.58759 0
M  V30 2267 H 212.874 -0.21674 -2.97211 0
M  V30 2268 H 210.411 -0.118722 -1.4662 0
M  V30 2269 H 212.369 2.19558 -3.54753 0
M  V30 2270 H 210.999 2.15074 -2.40714 0
M  V30 2271 H 210.051 0.171898 -3.80011 0
M  V30 2272 H 211.363 0.44436 -4.96817 0
M  V30 2273 H 210.517 2.75958 -5.40308 0
M  V30 2274 H 209.256 2.55415 -4.15469 0
M  V30 2275 H 208.261 0.653833 -5.45898 0
M  V30 2276 H 209.486 0.881719 -6.73352 0
M  V30 2277 H 207.432 2.94871 -5.85992 0
M  V30 2278 H 207.349 1.98152 -7.2957 0
M  V30 2279 H 208.617 3.15858 -7.12639 0
M  V30 2280 N 212.846 1.57033 -0.133567 0
M  V30 2281 C 213.779 2.11824 0.848872 0
M  V30 2282 C 214.757 1.03833 1.2513 0
M  V30 2283 O 215.941 1.31579 1.34978 0
M  V30 2284 C 213.068 2.62692 2.138 0
M  V30 2285 C 212.114 3.82705 1.88253 0
M  V30 2286 S 212.947 5.2438 1.08563 0
M  V30 2287 C 214.103 5.78627 2.38624 0
M  V30 2288 H 214.336 2.94824 0.38289 0
M  V30 2289 H 211.869 1.5419 0.0804796 0
M  V30 2290 H 213.827 2.92652 2.87863 0
M  V30 2291 H 212.488 1.79847 2.57515 0
M  V30 2292 H 211.681 4.16496 2.83809 0
M  V30 2293 H 211.283 3.53437 1.22305 0
M  V30 2294 H 213.575 5.8924 3.34369 0
M  V30 2295 H 214.518 6.76443 2.09358 0
M  V30 2296 H 214.926 5.06783 2.48658 0
M  V30 2297 N 214.325 -0.140222 1.56975 0
M  V30 2298 C 215.275 -1.17827 1.95194 0
M  V30 2299 C 216.259 -1.38195 0.824075 0
M  V30 2300 O 217.451 -1.39643 1.0876 0
M  V30 2301 C 214.58 -2.51024 2.34184 0
M  V30 2302 C 213.666 -2.3422 3.53556 0
M  V30 2303 N 214.057 -1.87185 4.69889 0
M  V30 2304 C 212.355 -2.64949 3.58773 0
M  V30 2305 C 213.056 -1.83586 5.5197 0
M  V30 2306 N 212.032 -2.2715 4.93866 0
M  V30 2307 H 215.834 -0.806817 2.82609 0
M  V30 2308 H 213.348 -0.348208 1.58623 0
M  V30 2309 H 215.345 -3.26074 2.59772 0
M  V30 2310 H 214.005 -2.88945 1.48124 0
M  V30 2311 H 215.016 -1.57048 4.93514 0
M  V30 2312 H 211.693 -3.067 2.8327 0
M  V30 2313 H 213.083 -1.48655 6.55249 0
M  V30 2314 N 215.803 -1.52179 -0.40978 0
M  V30 2315 C 217.05 -1.66206 -1.15679 0
M  V30 2316 C 217.378 -0.391674 -1.90516 0
M  V30 2317 O 216.633 0.62533 -1.8544 0
M  V30 2318 C 216.932 -2.83428 -2.17723 0
M  V30 2319 C 216.598 -4.21672 -1.59699 0
M  V30 2320 C 215.26 -4.59274 -1.43599 0
M  V30 2321 C 217.612 -5.07825 -1.17317 0
M  V30 2322 C 214.94 -5.80709 -0.836328 0
M  V30 2323 C 217.292 -6.29864 -0.587691 0
M  V30 2324 C 215.956 -6.66216 -0.413818 0
M  V30 2325 H 215.226 -0.608192 -0.423301 0
M  V30 2326 H 217.873 -1.86279 -0.444097 0
M  V30 2327 H 216.178 -2.57687 -2.95135 0
M  V30 2328 H 217.875 -2.91477 -2.75394 0
M  V30 2329 H 214.465 -3.9204 -1.73213 0
M  V30 2330 H 218.649 -4.79359 -1.28565 0
M  V30 2331 H 213.905 -6.07498 -0.689626 0
M  V30 2332 H 218.079 -6.95948 -0.250894 0
M  V30 2333 H 215.706 -7.60182 0.0529471 0
M  V30 2334 N 217.281 0.66697 -1.42791 0
M  V30 2335 C 218.558 1.4234 -1.34159 0
M  V30 2336 C 218.938 2.11093 0.0172729 0
M  V30 2337 O 218.286 2.03808 1.03318 0
M  V30 2338 C 218.496 2.41942 -2.51526 0
M  V30 2339 C 219.844 3.06353 -2.93995 0
M  V30 2340 O 220.868 2.52269 -2.51473 0
M  V30 2341 O 219.727 4.04376 -3.67617 0
M  V30 2342 H 216.821 0.635277 -0.529483 0
M  V30 2343 H 219.367 0.695034 -1.54814 0
M  V30 2344 H 218.139 1.89991 -3.42081 0
M  V30 2345 H 217.762 3.22249 -2.32898 0
M  V30 2346 N 218.759 1.29093 0.90403 0
M  V30 2347 C 220.006 1.16813 1.65411 0
M  V30 2348 C 220.334 -0.28128 1.92455 0
M  V30 2349 O 219.589 -1.22006 1.53013 0
M  V30 2350 C 219.888 1.92224 3.01305 0
M  V30 2351 C 219.554 3.41968 2.93885 0
M  V30 2352 C 218.216 3.82807 2.91569 0
M  V30 2353 C 220.568 4.37409 2.83413 0
M  V30 2354 C 217.896 5.1741 2.76594 0
M  V30 2355 C 220.248 5.72097 2.69977 0
M  V30 2356 C 218.912 6.12199 2.66024 0
M  V30 2357 H 218.182 0.42745 0.605283 0
M  V30 2358 H 220.829 1.59981 1.05254 0
M  V30 2359 H 219.134 1.41635 3.65304 0
M  V30 2360 H 220.831 1.80131 3.58265 0
M  V30 2361 H 217.421 3.09504 2.96488 0
M  V30 2362 H 221.605 4.06813 2.84283 0
M  V30 2363 H 216.861 5.47596 2.71935 0
M  V30 2364 H 221.035 6.45704 2.60844 0
M  V30 2365 H 218.662 7.16448 2.54178 0
M  V30 2366 N 220.237 -1.11381 1.11499 0
M  V30 2367 C 221.167 -2.19509 0.796125 0
M  V30 2368 C 222.148 -1.68458 -0.235796 0
M  V30 2369 O 223.333 -1.93947 -0.0991344 0
M  V30 2370 C 220.463 -3.46475 0.239205 0
M  V30 2371 C 219.417 -4.10744 1.20307 0
M  V30 2372 C 218.743 -5.32293 0.50683 0
M  V30 2373 C 220.043 -4.55597 2.55399 0
M  V30 2374 H 221.737 -2.46439 1.70024 0
M  V30 2375 H 219.283 -1.18446 0.818935 0
M  V30 2376 H 221.236 -4.214 0.00392006 0
M  V30 2377 H 219.96 -3.19006 -0.700206 0
M  V30 2378 H 218.619 -3.37813 1.42399 0
M  V30 2379 H 218.267 -5.01095 -0.437408 0
M  V30 2380 H 217.967 -5.76243 1.1497 0
M  V30 2381 H 219.491 -6.09956 0.280351 0
M  V30 2382 H 220.905 -5.21841 2.37391 0
M  V30 2383 H 219.302 -5.10363 3.15673 0
M  V30 2384 H 220.372 -3.69013 3.14575 0
M  V30 2385 N 221.715 -0.905404 -1.28997 0
M  V30 2386 C 222.964 -0.530191 -1.94607 0
M  V30 2387 C 223.277 0.929185 -1.72121 0
M  V30 2388 O 224.483 1.41218 -2.31883 0
M  V30 2389 C 222.939 -0.897333 -3.48534 0
M  V30 2390 C 222.547 -2.37587 -3.79811 0
M  V30 2391 C 224.291 -0.592304 -4.20347 0
M  V30 2392 C 222.198 -2.68357 -5.27009 0
M  V30 2393 H 221.128 -0.194558 -0.728466 0
M  V30 2394 H 223.779 -1.10318 -1.46636 0
M  V30 2395 H 222.161 -0.253214 -3.9519 0
M  V30 2396 H 223.335 -3.06602 -3.43994 0
M  V30 2397 H 221.65 -2.6505 -3.2115 0
M  V30 2398 H 224.247 -0.798975 -5.28697 0
M  V30 2399 H 224.59 0.469474 -4.13644 0
M  V30 2400 H 225.123 -1.19452 -3.79442 0
M  V30 2401 H 221.862 -3.73355 -5.38782 0
M  V30 2402 H 221.382 -2.03971 -5.64053 0
M  V30 2403 H 223.061 -2.54922 -5.94663 0
M  V30 2404 N 223.193 1.4272 -0.668489 0
M  V30 2405 C 224.103 2.34596 0.0139753 0
M  V30 2406 C 225.119 1.5474 0.795703 0
M  V30 2407 O 226.295 1.87334 0.739466 0
M  V30 2408 C 223.36 3.33202 0.957982 0
M  V30 2409 C 222.421 4.28957 0.17149 0
M  V30 2410 C 221.654 5.22853 1.07053 0
M  V30 2411 O 221.877 5.21531 2.31001 0
M  V30 2412 O 220.811 5.9952 0.534727 0
M  V30 2413 H 224.637 2.9448 -0.742661 0
M  V30 2414 H 222.222 1.43117 -0.428705 0
M  V30 2415 H 224.104 3.93796 1.50008 0
M  V30 2416 H 222.779 2.758 1.69458 0
M  V30 2417 H 221.686 3.71796 -0.414558 0
M  V30 2418 H 223.019 4.89383 -0.52586 0
M  V30 2419 N 224.671 0.411399 1.52136 0
M  V30 2420 C 225.896 -0.165538 2.06738 0
M  V30 2421 C 226.321 -1.379 1.27926 0
M  V30 2422 O 225.679 -1.78628 0.310114 0
M  V30 2423 C 225.727 -0.492124 3.57226 0
M  V30 2424 O 224.831 -1.58276 3.80818 0
M  V30 2425 H 224.172 -0.0132132 0.663869 0
M  V30 2426 H 226.702 0.585253 1.96051 0
M  V30 2427 H 226.712 -0.750104 4.01045 0
M  V30 2428 H 225.387 0.394922 4.14021 0
M  V30 2429 H 223.964 -1.31677 3.48877 0
M  V30 2430 N 226.149 -1.5696 0.141893 0
M  V30 2431 C 227.389 -1.9785 -0.513304 0
M  V30 2432 C 227.753 -1.02467 -1.62371 0
M  V30 2433 O 228.954 -1.32382 -2.33941 0
M  V30 2434 C 227.225 -3.42797 -1.01118 0
M  V30 2435 S 228.784 -4.05709 -1.67169 0
M  V30 2436 H 225.602 -0.691318 -0.166135 0
M  V30 2437 H 228.204 -1.94114 0.232398 0
M  V30 2438 H 226.908 -4.0995 -0.192179 0
M  V30 2439 H 226.439 -3.50235 -1.79162 0
M  V30 2440 H 228.454 -3.98342 -2.95868 0
M  V30 2441 N 227.627 0.131896 -1.57047 0
M  V30 2442 C 228.559 1.1878 -1.9602 0
M  V30 2443 C 229.572 1.38363 -0.857875 0
M  V30 2444 O 230.761 1.37666 -1.13623 0
M  V30 2445 C 227.861 2.55008 -2.23213 0
M  V30 2446 C 227.034 2.56201 -3.54513 0
M  V30 2447 C 226.093 3.7408 -3.70069 0
M  V30 2448 O 225.119 3.58258 -4.42312 0
M  V30 2449 N 226.321 4.92137 -3.07866 0
M  V30 2450 H 229.086 0.85639 -2.87204 0
M  V30 2451 H 226.647 0.321309 -1.5868 0
M  V30 2452 H 228.639 3.32404 -2.30846 0
M  V30 2453 H 227.209 2.80382 -1.3822 0
M  V30 2454 H 226.429 1.64613 -3.58185 0
M  V30 2455 H 227.717 2.54043 -4.4084 0
M  V30 2456 H 227.115 5.07895 -2.49116 0
M  V30 2457 H 225.672 5.67254 -3.21039 0
M  V30 2458 N 229.106 1.52395 0.401703 0
M  V30 2459 C 230.352 1.67065 1.14966 0
M  V30 2460 C 230.685 0.403052 1.89971 0
M  V30 2461 O 229.96 -0.598774 1.85054 0
M  V30 2462 C 230.243 2.8975 2.13815 0
M  V30 2463 C 230.096 4.26578 1.42658 0
M  V30 2464 C 231.415 3.07965 3.14397 0
M  V30 2465 H 228.534 0.607968 0.416587 0
M  V30 2466 H 231.176 1.84965 0.434511 0
M  V30 2467 H 229.326 2.74619 2.74803 0
M  V30 2468 H 230.998 4.53451 0.847329 0
M  V30 2469 H 229.241 4.27639 0.72849 0
M  V30 2470 H 229.912 5.08483 2.14823 0
M  V30 2471 H 232.388 3.22043 2.63491 0
M  V30 2472 H 231.264 3.95308 3.80819 0
M  V30 2473 H 231.525 2.21611 3.82545 0
M  V30 2474 N 230.584 -0.659388 1.43143 0
M  V30 2475 C 231.832 -1.41654 1.44147 0
M  V30 2476 C 232.153 -1.94893 0.0645739 0
M  V30 2477 O 231.423 -1.74044 -0.899198 0
M  V30 2478 H 230.003 -0.525708 0.530697 0
M  V30 2479 H 232.665 -0.778097 1.78694 0
M  V30 2480 H 231.761 -2.26195 2.1504 0
M  V30 2481 N 232.062 -1.29571 -0.897171 0
M  V30 2482 C 232.995 -1.0924 -2.00354 0
M  V30 2483 C 233.973 -0.00354011 -1.626 0
M  V30 2484 O 235.157 -0.15473 -1.87864 0
M  V30 2485 C 232.284 -0.66352 -3.32137 0
M  V30 2486 C 231.33 -1.75146 -3.88878 0
M  V30 2487 S 232.163 -3.35124 -4.17674 0
M  V30 2488 C 233.319 -2.9411 -5.52494 0
M  V30 2489 H 233.552 -2.02907 -2.17292 0
M  V30 2490 H 231.085 -1.13746 -1.04408 0
M  V30 2491 H 233.043 -0.422791 -4.08317 0
M  V30 2492 H 231.704 0.253588 -3.13075 0
M  V30 2493 H 230.897 -1.40337 -4.84068 0
M  V30 2494 H 230.499 -1.94584 -3.19395 0
M  V30 2495 H 232.791 -2.41312 -6.33068 0
M  V30 2496 H 233.734 -3.88161 -5.9223 0
M  V30 2497 H 234.142 -2.32332 -5.14473 0
M  V30 2498 N 233.54 1.10788 -1.12088 0
M  V30 2499 C 234.786 1.82942 -0.875226 0
M  V30 2500 C 235.119 1.84779 0.597538 0
M  V30 2501 O 234.394 1.30578 1.44152 0
M  V30 2502 C 234.677 3.29789 -1.44606 0
M  V30 2503 C 234.53 3.36307 -2.98693 0
M  V30 2504 C 235.849 4.26064 -1.10261 0
M  V30 2505 H 232.968 0.664195 -0.319397 0
M  V30 2506 H 235.61 1.29867 -1.38689 0
M  V30 2507 H 233.76 3.75118 -1.01089 0
M  V30 2508 H 235.432 2.99487 -3.50864 0
M  V30 2509 H 233.675 2.76318 -3.34411 0
M  V30 2510 H 234.346 4.39694 -3.33726 0
M  V30 2511 H 236.822 3.88951 -1.4784 0
M  V30 2512 H 235.698 5.27183 -1.52869 0
M  V30 2513 H 235.959 4.42098 -0.0142953 0
M  V30 2514 N 235.018 0.912232 1.28515 0
M  V30 2515 C 235.965 0.397954 2.27343 0
M  V30 2516 C 236.935 -0.526766 1.57526 0
M  V30 2517 O 238.12 -0.449292 1.85435 0
M  V30 2518 C 235.26 -0.357263 3.43246 0
M  V30 2519 C 234.373 0.599788 4.27816 0
M  V30 2520 C 233.508 -0.173725 5.30916 0
M  V30 2521 C 232.547 0.777039 6.07148 0
M  V30 2522 N 231.684 0.0371398 7.0209 0
M  V30 2523 H 236.524 1.24577 2.70711 0
M  V30 2524 H 234.061 0.625612 1.33133 0
M  V30 2525 H 236.019 -0.8113 4.09236 0
M  V30 2526 H 234.649 -1.16943 3.00872 0
M  V30 2527 H 233.701 1.17235 3.61884 0
M  V30 2528 H 235.013 1.32704 4.80823 0
M  V30 2529 H 234.167 -0.688394 6.02782 0
M  V30 2530 H 232.906 -0.934041 4.78672 0
M  V30 2531 H 231.911 1.3031 5.34134 0
M  V30 2532 H 233.136 1.53689 6.61481 0
M  V30 2533 H 231.082 -0.705213 6.52198 0
M  V30 2534 H 230.999 0.704249 7.52713 0
M  V30 2535 H 232.267 -0.457383 7.78157 0
M  V30 2536 N 236.496 -1.42363 0.676048 0
M  V30 2537 C 237.907 -1.84649 0.275948 0
M  V30 2538 C 238.258 -1.56588 -1.18214 0
M  V30 2539 O 237.383 -1.02634 -1.90513 0
M  V30 2540 C 237.978 -3.35178 0.494053 0
M  V30 2541 C 236.537 -3.76109 0.148061 0
M  V30 2542 C 235.684 -2.65931 0.785891 0
M  V30 2543 H 238.635 -1.32192 0.878121 0
M  V30 2544 H 238.656 -3.79655 -0.25343 0
M  V30 2545 H 238.168 -3.55571 1.55535 0
M  V30 2546 H 236.269 -3.61323 -0.909742 0
M  V30 2547 H 236.382 -4.7546 0.589454 0
M  V30 2548 H 234.746 -2.53773 0.217113 0
M  V30 2549 H 235.529 -2.89146 1.85067 0
M  V30 2550 N 237.974 -0.419461 -1.51915 0
M  V30 2551 C 238.884 0.407528 -2.31033 0
M  V30 2552 C 239.9 1.04413 -1.3919 0
M  V30 2553 O 241.076 1.0434 -1.72265 0
M  V30 2554 C 238.141 1.50365 -3.12396 0
M  V30 2555 C 237.202 0.889029 -4.19994 0
M  V30 2556 C 236.435 1.93291 -4.97468 0
M  V30 2557 O 236.658 3.15259 -4.75361 0
M  V30 2558 O 235.592 1.53339 -5.8204 0
M  V30 2559 H 239.418 -0.237865 -3.02767 0
M  V30 2560 H 237.003 -0.182413 -1.48282 0
M  V30 2561 H 238.885 2.13975 -3.63032 0
M  V30 2562 H 237.56 2.13345 -2.43445 0
M  V30 2563 H 236.467 0.215353 -3.7348 0
M  V30 2564 H 237.8 0.302991 -4.91267 0
M  V30 2565 N 239.452 1.56882 -0.150215 0
M  V30 2566 C 240.863 1.82995 0.370076 0
M  V30 2567 C 241.214 1.06907 1.64515 0
M  V30 2568 O 240.339 0.315369 2.1409 0
M  V30 2569 C 240.934 3.31942 0.678208 0
M  V30 2570 C 239.493 3.58625 1.14301 0
M  V30 2571 C 238.64 2.76792 0.167778 0
M  V30 2572 H 241.591 1.54209 -0.374858 0
M  V30 2573 H 241.612 3.48272 1.53254 0
M  V30 2574 H 241.124 3.87294 -0.249991 0
M  V30 2575 H 239.225 3.08664 2.08704 0
M  V30 2576 H 239.338 4.67073 1.06676 0
M  V30 2577 H 237.702 2.45972 0.661037 0
M  V30 2578 H 238.485 3.34916 -0.754069 0
M  V30 2579 N 240.93 -0.123565 1.57115 0
M  V30 2580 C 241.862 -1.17739 1.96648 0
M  V30 2581 C 242.875 -1.37906 0.865201 0
M  V30 2582 O 244.064 -1.37062 1.14351 0
M  V30 2583 C 241.164 -2.53821 2.24562 0
M  V30 2584 C 240.337 -2.54317 3.55867 0
M  V30 2585 C 239.396 -3.72112 3.72047 0
M  V30 2586 O 238.422 -3.55907 4.44206 0
M  V30 2587 N 239.624 -4.90498 3.10471 0
M  V30 2588 H 242.389 -0.841147 2.87654 0
M  V30 2589 H 239.95 -0.31289 1.58848 0
M  V30 2590 H 241.942 -3.31175 2.32606 0
M  V30 2591 H 240.512 -2.79645 1.39705 0
M  V30 2592 H 239.732 -1.62711 3.59053 0
M  V30 2593 H 241.02 -2.51701 4.42181 0
M  V30 2594 H 240.418 -5.06567 2.51806 0
M  V30 2595 H 238.975 -5.65544 3.24043 0
M  V30 2596 N 242.408 -1.52605 -0.393616 0
M  V30 2597 C 243.657 -1.66649 -1.13627 0
M  V30 2598 C 243.97 -0.410364 -1.91247 0
M  V30 2599 O 245.176 -0.430854 -2.68059 0
M  V30 2600 C 243.632 -2.9449 -2.06891 0
M  V30 2601 C 243.24 -4.27266 -1.34714 0
M  V30 2602 C 244.984 -3.17899 -2.81319 0
M  V30 2603 C 242.891 -5.46217 -2.26717 0
M  V30 2604 H 241.821 -0.62084 -0.427871 0
M  V30 2605 H 244.472 -1.791 -0.399428 0
M  V30 2606 H 242.854 -2.75774 -2.84191 0
M  V30 2607 H 244.028 -4.56518 -0.626714 0
M  V30 2608 H 242.343 -4.10081 -0.722643 0
M  V30 2609 H 244.94 -4.03949 -3.50328 0
M  V30 2610 H 245.283 -2.32777 -3.45139 0
M  V30 2611 H 245.816 -3.37159 -2.11113 0
M  V30 2612 H 242.555 -6.33733 -1.67521 0
M  V30 2613 H 242.075 -5.21283 -2.96689 0
M  V30 2614 H 243.754 -5.7991 -2.86903 0
M  V30 2615 N 243.887 0.651787 -1.4349 0
M  V30 2616 C 245.117 1.43728 -1.48411 0
M  V30 2617 C 245.525 1.8893 -0.10103 0
M  V30 2618 O 244.868 1.60182 0.899307 0
M  V30 2619 C 244.93 2.70411 -2.36893 0
M  V30 2620 C 244.594 2.4714 -3.8441 0
M  V30 2621 C 245.591 2.10271 -4.75481 0
M  V30 2622 C 243.276 2.6142 -4.28912 0
M  V30 2623 C 245.27 1.87982 -6.0905 0
M  V30 2624 C 242.957 2.38746 -5.62533 0
M  V30 2625 C 243.955 2.02083 -6.5242 0
M  V30 2626 O 243.643 1.79647 -7.8357 0
M  V30 2627 H 243.375 0.447962 -0.506267 0
M  V30 2628 H 245.929 0.80624 -1.88915 0
M  V30 2629 H 244.159 3.36079 -1.91278 0
M  V30 2630 H 245.848 3.32364 -2.33 0
M  V30 2631 H 246.614 1.98814 -4.42378 0
M  V30 2632 H 242.493 2.88931 -3.59222 0
M  V30 2633 H 246.037 1.5929 -6.7917 0
M  V30 2634 H 241.934 2.49806 -5.95203 0
M  V30 2635 H 242.702 1.9406 -7.95162 0
M  V30 2636 N 245.365 1.30045 0.890287 0
M  V30 2637 C 246.312 1.15976 1.99545 0
M  V30 2638 C 247.282 0.0506202 1.66023 0
M  V30 2639 O 248.467 0.219847 1.89529 0
M  V30 2640 C 245.607 0.852054 3.34416 0
M  V30 2641 C 244.72 2.04255 3.80662 0
M  V30 2642 C 243.855 1.6734 5.04154 0
M  V30 2643 C 242.894 2.82916 5.42794 0
M  V30 2644 N 242.031 2.46333 6.57468 0
M  V30 2645 H 246.871 2.10524 2.10911 0
M  V30 2646 H 244.408 1.04749 1.03276 0
M  V30 2647 H 246.366 0.654296 4.12037 0
M  V30 2648 H 244.996 -0.0565502 3.2275 0
M  V30 2649 H 244.048 2.35172 2.98995 0
M  V30 2650 H 245.36 2.90826 4.05242 0
M  V30 2651 H 244.514 1.43908 5.89386 0
M  V30 2652 H 243.253 0.779308 4.81433 0
M  V30 2653 H 242.258 3.0702 4.56091 0
M  V30 2654 H 243.483 3.73004 5.6749 0
M  V30 2655 H 241.429 1.59423 6.36334 0
M  V30 2656 H 241.346 3.26436 6.81891 0
M  V30 2657 H 242.614 2.26244 7.45945 0
M  V30 2658 N 246.843 -1.10192 1.12674 0
M  V30 2659 C 248.09 -1.82205 0.883606 0
M  V30 2660 C 248.418 -1.8532 -0.590492 0
M  V30 2661 O 247.673 -1.31137 -1.45264 0
M  V30 2662 C 247.972 -3.28552 1.4067 0
M  V30 2663 C 247.638 -3.45582 2.89627 0
M  V30 2664 C 246.3 -3.49937 3.30299 0
M  V30 2665 C 248.652 -3.50768 3.85501 0
M  V30 2666 C 245.98 -3.57049 4.65546 0
M  V30 2667 C 248.332 -3.59414 5.20581 0
M  V30 2668 C 246.996 -3.62034 5.60792 0
M  V30 2669 H 246.266 -0.666735 0.323334 0
M  V30 2670 H 248.913 -1.29868 1.40736 0
M  V30 2671 H 247.218 -3.83473 0.80347 0
M  V30 2672 H 248.915 -3.82788 1.19475 0
M  V30 2673 H 245.505 -3.42871 2.57172 0
M  V30 2674 H 249.689 -3.46651 3.55171 0
M  V30 2675 H 244.945 -3.57361 4.96088 0
M  V30 2676 H 249.119 -3.62371 5.94693 0
M  V30 2677 H 246.746 -3.67298 6.6558 0
M  V30 2678 N 248.321 -0.919034 -1.28029 0
M  V30 2679 C 249.251 -0.428581 -2.29533 0
M  V30 2680 C 250.232 0.50659 -1.62381 0
M  V30 2681 O 251.417 0.413195 -1.89753 0
M  V30 2682 C 248.547 0.327388 -3.45753 0
M  V30 2683 C 247.501 -0.519137 -4.2484 0
M  V30 2684 C 246.827 0.365486 -5.33449 0
M  V30 2685 C 248.127 -1.77914 -4.91064 0
M  V30 2686 H 249.821 -1.27687 -2.70807 0
M  V30 2687 H 247.367 -0.615428 -1.30186 0
M  V30 2688 H 249.32 0.681378 -4.15855 0
M  V30 2689 H 248.044 1.20963 -3.03374 0
M  V30 2690 H 246.703 -0.855717 -3.56473 0
M  V30 2691 H 246.351 1.24642 -4.87312 0
M  V30 2692 H 246.051 -0.197356 -5.87268 0
M  V30 2693 H 247.575 0.715241 -6.06396 0
M  V30 2694 H 248.989 -1.49374 -5.53498 0
M  V30 2695 H 247.386 -2.2848 -5.54903 0
M  V30 2696 H 248.456 -2.50382 -4.15255 0
M  V30 2697 N 249.799 1.42003 -0.683588 0
M  V30 2698 C 250.729 2.33487 -0.024866 0
M  V30 2699 C 251.71 1.51163 0.779975 0
M  V30 2700 O 252.895 1.79739 0.735362 0
M  V30 2701 C 250.025 3.3487 0.920836 0
M  V30 2702 C 248.979 4.27414 0.223958 0
M  V30 2703 C 248.305 5.19074 1.2832 0
M  V30 2704 C 249.605 5.14445 -0.90242 0
M  V30 2705 H 251.299 2.88819 -0.788921 0
M  V30 2706 H 248.845 1.38873 -0.38083 0
M  V30 2707 H 250.798 3.97787 1.39081 0
M  V30 2708 H 249.522 2.77861 1.71642 0
M  V30 2709 H 248.181 3.65904 -0.225864 0
M  V30 2710 H 247.829 4.58387 2.071 0
M  V30 2711 H 247.529 5.81822 0.821995 0
M  V30 2712 H 249.053 5.84867 1.75392 0
M  V30 2713 H 250.467 5.70998 -0.513272 0
M  V30 2714 H 248.864 5.86072 -1.28997 0
M  V30 2715 H 249.934 4.52322 -1.74737 0
M  V30 2716 N 251.277 0.427512 1.51691 0
M  V30 2717 C 252.554 -0.201684 1.94557 0
M  V30 2718 C 252.934 -1.60981 1.36559 0
M  V30 2719 O 252.282 -2.21814 0.548702 0
M  V30 2720 C 252.492 -0.189394 3.48486 0
M  V30 2721 C 253.84 -0.39978 4.22714 0
M  V30 2722 O 254.864 -0.267945 3.55191 0
M  V30 2723 O 253.723 -0.661249 5.42485 0
M  V30 2724 H 250.817 -0.135261 0.815864 0
M  V30 2725 H 253.363 0.484782 1.62628 0
M  V30 2726 H 252.135 0.795431 3.8313 0
M  V30 2727 H 251.758 -0.919187 3.86829 0
M  V30 2728 N 252.755 -1.56801 0.158532 0
M  V30 2729 C 253.983 -2.00859 -0.496303 0
M  V30 2730 C 254.398 -1.03871 -1.57659 0
M  V30 2731 O 253.755 -0.0375165 -1.82461 0
M  V30 2732 C 253.806 -3.4479 -1.08638 0
M  V30 2733 O 253.527 -4.38072 -0.0492322 0
M  V30 2734 C 255.028 -4.04185 -1.8207 0
M  V30 2735 H 252.248 -0.65864 -0.128199 0
M  V30 2736 H 254.792 -2.02885 0.256506 0
M  V30 2737 H 252.947 -3.43579 -1.78975 0
M  V30 2738 H 253.361 -5.2227 -0.483102 0
M  V30 2739 H 254.835 -5.06857 -2.18633 0
M  V30 2740 H 255.312 -3.45549 -2.71095 0
M  V30 2741 H 255.918 -4.0906 -1.16405 0
M  V30 2742 N 254.233 0.115231 -1.57178 0
M  V30 2743 C 255.163 1.1423 -2.03651 0
M  V30 2744 C 256.144 1.42967 -0.921655 0
M  V30 2745 O 257.329 1.53343 -1.19162 0
M  V30 2746 C 254.459 2.4675 -2.44401 0
M  V30 2747 C 253.413 2.32467 -3.59365 0
M  V30 2748 C 252.739 3.69984 -3.86026 0
M  V30 2749 C 254.039 1.78203 -4.90959 0
M  V30 2750 H 255.733 0.755749 -2.89705 0
M  V30 2751 H 253.279 0.362093 -1.39373 0
M  V30 2752 H 255.232 3.18854 -2.75517 0
M  V30 2753 H 253.956 2.87302 -1.55322 0
M  V30 2754 H 252.615 1.62811 -3.28463 0
M  V30 2755 H 252.263 4.08028 -2.94147 0
M  V30 2756 H 251.963 3.61279 -4.63412 0
M  V30 2757 H 253.487 4.43587 -4.19599 0
M  V30 2758 H 254.901 2.40128 -5.20587 0
M  V30 2759 H 253.298 1.8031 -5.72371 0
M  V30 2760 H 254.368 0.739876 -4.79222 0
M  V30 2761 N 255.711 1.52812 0.385517 0
M  V30 2762 C 256.658 1.77838 1.47113 0
M  V30 2763 C 257.628 0.621757 1.54024 0
M  V30 2764 O 258.813 0.861846 1.70226 0
M  V30 2765 C 255.953 1.95618 2.84302 0
M  V30 2766 C 255.066 3.23316 2.86515 0
M  V30 2767 C 254.201 3.31394 4.15152 0
M  V30 2768 C 253.24 4.53201 4.1143 0
M  V30 2769 N 252.377 4.58542 5.3168 0
M  V30 2770 H 257.217 2.70482 1.25073 0
M  V30 2771 H 254.754 1.34006 0.606692 0
M  V30 2772 H 256.712 2.03912 3.63972 0
M  V30 2773 H 255.342 1.06331 3.04784 0
M  V30 2774 H 254.394 3.24076 1.99195 0
M  V30 2775 H 255.706 4.13045 2.79634 0
M  V30 2776 H 254.86 3.3889 5.03228 0
M  V30 2777 H 253.599 2.39645 4.24761 0
M  V30 2778 H 252.604 4.45827 3.21742 0
M  V30 2779 H 253.829 5.46271 4.03442 0
M  V30 2780 H 251.775 3.69686 5.41912 0
M  V30 2781 H 251.692 5.42148 5.26889 0
M  V30 2782 H 252.96 4.70296 6.21644 0
M  V30 2783 N 257.189 -0.644168 1.43834 0
M  V30 2784 C 258.152 -1.73857 1.49353 0
M  V30 2785 C 259.152 -1.56315 0.377112 0
M  V30 2786 O 260.342 -1.62048 0.639226 0
M  V30 2787 C 257.474 -3.12819 1.35488 0
M  V30 2788 H 258.667 -1.70342 2.46827 0
M  V30 2789 H 256.22 -0.856652 1.30733 0
M  V30 2790 H 256.955 -3.2194 0.390569 0
M  V30 2791 H 256.74 -3.26958 2.16428 0
M  V30 2792 H 258.23 -3.92606 1.42302 0
M  V30 2793 N 258.668 -1.30515 -0.883378 0
M  V30 2794 C 259.893 -1.22487 -1.67367 0
M  V30 2795 C 260.318 0.208767 -1.86938 0
M  V30 2796 O 259.676 1.15015 -1.40148 0
M  V30 2797 C 259.724 -1.96041 -3.02655 0
M  V30 2798 O 258.828 -1.28859 -3.91751 0
M  V30 2799 H 258.169 -0.423573 -0.511353 0
M  V30 2800 H 260.699 -1.72362 -1.10239 0
M  V30 2801 H 260.709 -2.05124 -3.52687 0
M  V30 2802 H 259.384 -3.00307 -2.8773 0
M  V30 2803 H 257.961 -1.28141 -3.50192 0
M  V30 2804 N 260.146 1.09593 -1.13257 0
M  V30 2805 C 261.557 1.63229 -0.906274 0
M  V30 2806 C 261.908 1.8811 0.557578 0
M  V30 2807 O 261.033 1.62953 1.42391 0
M  V30 2808 C 261.628 2.96535 -1.63867 0
M  V30 2809 C 260.187 3.47003 -1.45828 0
M  V30 2810 C 259.334 2.2145 -1.66898 0
M  V30 2811 H 262.285 0.92978 -1.28611 0
M  V30 2812 H 262.306 3.64411 -1.09476 0
M  V30 2813 H 261.818 2.78394 -2.70404 0
M  V30 2814 H 259.919 3.70272 -0.415848 0
M  V30 2815 H 260.032 4.24551 -2.2202 0
M  V30 2816 H 258.396 2.30022 -1.09371 0
M  V30 2817 H 259.179 2.0583 -2.74752 0
M  V30 2818 N 261.624 0.925811 1.2754 0
M  V30 2819 C 262.849 0.580924 1.99098 0
M  V30 2820 C 263.274 -0.833555 1.68622 0
M  V30 2821 O 262.632 -1.55903 0.925422 0
M  V30 2822 C 262.68 0.811186 3.51358 0
M  V30 2823 O 261.784 -0.124129 4.12213 0
M  V30 2824 H 261.125 0.223873 0.625122 0
M  V30 2825 H 263.655 1.24455 1.62395 0
M  V30 2826 H 263.665 0.72601 4.01489 0
M  V30 2827 H 262.34 1.84227 3.72872 0
M  V30 2828 H 260.917 0.0108006 3.72898 0
M  V30 2829 N 263.102 -1.41638 0.69111 0
M  V30 2830 C 264.012 -2.34588 0.0233487 0
M  V30 2831 C 265.028 -1.55987 -0.770984 0
M  V30 2832 O 266.204 -1.88486 -0.709569 0
M  V30 2833 C 263.269 -3.34684 -0.904851 0
M  V30 2834 C 262.33 -4.29176 -0.103225 0
M  V30 2835 C 261.563 -5.2449 -0.987216 0
M  V30 2836 O 261.786 -5.2514 -2.22674 0
M  V30 2837 O 260.72 -6.00295 -0.439281 0
M  V30 2838 H 264.546 -2.93261 0.789416 0
M  V30 2839 H 262.131 -1.42417 0.45142 0
M  V30 2840 H 264.013 -3.96133 -1.43724 0
M  V30 2841 H 262.688 -2.78461 -1.65049 0
M  V30 2842 H 261.595 -3.71089 0.473655 0
M  V30 2843 H 262.928 -4.88484 0.60365 0
M  V30 2844 N 264.58 -0.43555 -1.51462 0
M  V30 2845 C 265.826 0.131709 -2.02372 0
M  V30 2846 C 266.159 1.42516 -1.3192 0
M  V30 2847 O 265.434 1.89606 -0.433573 0
M  V30 2848 C 265.717 0.352301 -3.58373 0
M  V30 2849 C 265.57 -0.959676 -4.39443 0
M  V30 2850 C 266.889 1.12286 -4.25535 0
M  V30 2851 H 264.008 0.0463936 -0.735538 0
M  V30 2852 H 266.65 -0.574197 -1.81116 0
M  V30 2853 H 264.8 0.9536 -3.76615 0
M  V30 2854 H 266.472 -1.59482 -4.32855 0
M  V30 2855 H 264.715 -1.56468 -4.04599 0
M  V30 2856 H 265.386 -0.759394 -5.46752 0
M  V30 2857 H 267.862 0.613545 -4.11552 0
M  V30 2858 H 266.738 1.24598 -5.34571 0
M  V30 2859 H 266.999 2.15048 -3.86273 0
M  V30 2860 N 266.058 1.56714 -0.166846 0
M  V30 2861 C 267.304 1.97039 0.479962 0
M  V30 2862 C 267.637 1.05264 1.63197 0
M  V30 2863 O 266.912 0.0988833 1.94248 0
M  V30 2864 C 267.195 3.46867 0.967212 0
M  V30 2865 C 267.048 4.49421 -0.18466 0
M  V30 2866 C 268.367 3.9968 1.84238 0
M  V30 2867 H 265.486 0.71641 0.172992 0
M  V30 2868 H 268.128 1.8832 -0.252079 0
M  V30 2869 H 266.278 3.54428 1.59101 0
M  V30 2870 H 267.95 4.53924 -0.821621 0
M  V30 2871 H 266.193 4.25573 -0.840837 0
M  V30 2872 H 266.864 5.51644 0.198317 0
M  V30 2873 H 269.34 3.94723 1.31655 0
M  V30 2874 H 268.216 5.04941 2.15234 0
M  V30 2875 H 268.477 3.43226 2.78654 0
M  V30 2876 N 267.536 -0.106894 1.57237 0
M  V30 2877 C 268.783 -0.812526 1.85484 0
M  V30 2878 C 269.111 -1.79304 0.753687 0
M  V30 2879 O 268.366 -1.94047 -0.253853 0
M  V30 2880 C 268.665 -1.58628 3.20268 0
M  V30 2881 C 268.331 -0.748967 4.44636 0
M  V30 2882 C 266.993 -0.518104 4.78403 0
M  V30 2883 C 269.345 -0.166122 5.20935 0
M  V30 2884 C 266.673 0.305659 5.85903 0
M  V30 2885 C 269.025 0.644899 6.29304 0
M  V30 2886 C 267.689 0.885965 6.61594 0
M  V30 2887 H 266.959 -0.297324 0.678734 0
M  V30 2888 H 269.606 -0.0744332 1.91355 0
M  V30 2889 H 267.911 -2.39562 3.10028 0
M  V30 2890 H 269.608 -2.13643 3.39349 0
M  V30 2891 H 266.198 -0.939006 4.18187 0
M  V30 2892 H 270.382 -0.33167 4.95191 0
M  V30 2893 H 265.638 0.501528 6.0934 0
M  V30 2894 H 269.812 1.10345 6.87602 0
M  V30 2895 H 267.439 1.52609 7.44725 0
M  V30 2896 N 269.014 -1.53014 -0.377408 0
M  V30 2897 C 269.944 -1.81589 -1.46791 0
M  V30 2898 C 270.925 -0.668622 -1.56408 0
M  V30 2899 O 272.11 -0.917337 -1.71168 0
M  V30 2900 C 269.24 -1.99519 -2.8427 0
M  V30 2901 C 268.194 -3.15249 -2.89486 0
M  V30 2902 C 267.52 -3.18451 -4.29527 0
M  V30 2903 C 268.82 -4.54084 -2.58079 0
M  V30 2904 H 270.514 -2.7291 -1.23127 0
M  V30 2905 H 268.06 -1.31319 -0.590883 0
M  V30 2906 H 270.013 -2.18092 -3.60575 0
M  V30 2907 H 268.737 -1.04897 -3.09296 0
M  V30 2908 H 267.396 -2.96477 -2.15631 0
M  V30 2909 H 267.044 -2.2149 -4.5161 0
M  V30 2910 H 266.744 -3.962 -4.33934 0
M  V30 2911 H 268.268 -3.39193 -5.07721 0
M  V30 2912 H 269.682 -4.72899 -3.24098 0
M  V30 2913 H 268.079 -5.33987 -2.7382 0
M  V30 2914 H 269.149 -4.60006 -1.53372 0
M  V30 2915 N 270.492 0.636531 -1.44174 0
M  V30 2916 C 271.769 1.39463 -1.37148 0
M  V30 2917 C 272.149 2.11082 -0.027507 0
M  V30 2918 O 271.497 2.05954 0.989716 0
M  V30 2919 C 271.707 2.36552 -2.56601 0
M  V30 2920 C 273.055 3.00048 -3.00427 0
M  V30 2921 O 274.079 2.46878 -2.56767 0
M  V30 2922 O 272.938 3.96488 -3.76111 0
M  V30 2923 H 270.032 0.623903 -0.542839 0
M  V30 2924 H 272.578 0.662039 -1.56253 0
M  V30 2925 H 271.35 1.82692 -3.46034 0
M  V30 2926 H 270.973 3.17236 -2.39681 0
M  V30 2927 N 271.97 1.30982 0.876444 0
M  V30 2928 C 273.247 1.10942 1.61094 0
M  V30 2929 C 273.627 -0.338223 2.08373 0
M  V30 2930 O 272.975 -1.33122 1.85717 0
M  V30 2931 C 273.185 2.11789 2.77392 0
M  V30 2932 C 274.533 2.43965 3.47514 0
M  V30 2933 O 275.557 2.10166 2.87591 0
M  V30 2934 O 274.416 3.01817 4.55597 0
M  V30 2935 H 271.51 0.42667 0.708436 0
M  V30 2936 H 274.056 1.42438 0.922474 0
M  V30 2937 H 272.828 3.09194 2.39823 0
M  V30 2938 H 272.451 1.81161 3.5393 0
M  V30 2939 N 273.449 -1.08991 1.13837 0
M  V30 2940 C 274.698 -1.80631 0.897509 0
M  V30 2941 C 275.011 -1.86872 -0.57777 0
M  V30 2942 O 276.217 -2.54866 -0.935701 0
M  V30 2943 C 274.673 -3.24517 1.55618 0
M  V30 2944 C 274.281 -3.26529 3.0673 0
M  V30 2945 C 276.025 -4.00882 1.3962 0
M  V30 2946 C 273.932 -4.64965 3.65461 0
M  V30 2947 H 272.862 -0.67691 0.332129 0
M  V30 2948 H 275.513 -1.2246 1.3666 0
M  V30 2949 H 273.895 -3.82778 1.01476 0
M  V30 2950 H 275.069 -2.78008 3.67489 0
M  V30 2951 H 273.384 -2.63656 3.22296 0
M  V30 2952 H 275.981 -5.03167 1.80906 0
M  V30 2953 H 276.324 -4.14896 0.341578 0
M  V30 2954 H 276.857 -3.49075 1.90766 0
M  V30 2955 H 273.596 -4.56153 4.70749 0
M  V30 2956 H 273.116 -5.13792 3.09481 0
M  V30 2957 H 274.795 -5.3394 3.654 0
M  V30 2958 N 274.927 -0.932562 -1.27047 0
M  V30 2959 C 276.175 -0.574422 -1.93765 0
M  V30 2960 C 276.496 0.887993 -1.73608 0
M  V30 2961 O 275.766 1.62999 -1.08665 0
M  V30 2962 H 274.346 -0.209451 -0.717035 0
M  V30 2963 H 277.008 -1.18601 -1.5466 0
M  V30 2964 H 276.104 -0.784841 -3.02071 0
M  V30 2965 N 276.405 1.4127 -0.698611 0
M  V30 2966 C 277.368 2.29158 -0.044132 0
M  V30 2967 C 278.368 1.44529 0.704841 0
M  V30 2968 O 279.558 1.65643 0.539276 0
M  V30 2969 C 276.69 3.27459 0.947809 0
M  V30 2970 H 277.883 2.88529 -0.817994 0
M  V30 2971 H 275.436 1.49307 -0.46228 0
M  V30 2972 H 276.171 2.73073 1.74933 0
M  V30 2973 H 275.956 3.8991 0.41385 0
M  V30 2974 H 277.446 3.93311 1.40344 0
M  V30 2975 N 277.883 0.443576 1.51229 0
M  V30 2976 C 278.831 -0.37904 2.29491 0
M  V30 2977 C 279.825 -1.0153 1.35603 0
M  V30 2978 O 281.031 -0.94955 1.52917 0
M  V30 2979 H 277.406 -0.141053 0.738653 0
M  V30 2980 H 279.377 0.301799 2.9687 0
M  V30 2981 C 278.126 -1.46426 3.15364 0
M  V30 2982 H 277.449 -0.984037 3.87501 0
M  V30 2983 H 278.889 -2.01297 3.7317 0
M  V30 2984 C 277.348 -2.45099 2.31146 0
M  V30 2985 O 277.878 -3.49773 1.9754 0
M  V30 2986 N 276.084 -2.16139 1.94249 0
M  V30 2987 H 275.631 -1.31044 2.21777 0
M  V30 2988 H 275.589 -2.82398 1.38198 0
M  V30 2989 N 279.361 -1.56624 0.175154 0
M  V30 2990 C 280.291 -2.21155 -0.749195 0
M  V30 2991 C 281.272 -1.16836 -1.23626 0
M  V30 2992 O 282.457 -1.45277 -1.28873 0
M  V30 2993 C 279.587 -2.8553 -1.97711 0
M  V30 2994 C 278.541 -3.95921 -1.62575 0
M  V30 2995 C 277.867 -4.47365 -2.92864 0
M  V30 2996 C 279.167 -5.15323 -0.850838 0
M  V30 2997 H 280.861 -2.98653 -0.211295 0
M  V30 2998 H 278.407 -1.43651 -0.100188 0
M  V30 2999 H 280.36 -3.2935 -2.62881 0
M  V30 3000 H 279.084 -2.05406 -2.53921 0
M  V30 3001 H 277.743 -3.52762 -0.997719 0
M  V30 3002 H 277.391 -3.64027 -3.47122 0
M  V30 3003 H 277.091 -5.21839 -2.70106 0
M  V30 3004 H 278.615 -4.93873 -3.59056 0
M  V30 3005 H 280.029 -5.55812 -1.40521 0
M  V30 3006 H 278.426 -5.95739 -0.722154 0
M  V30 3007 H 279.496 -4.84661 0.152082 0
M  V30 3008 N 280.839 0.0985539 -1.57292 0
M  V30 3009 C 281.786 1.11981 -2.01814 0
M  V30 3010 C 282.756 1.39999 -0.89384 0
M  V30 3011 O 283.941 1.5152 -1.15958 0
M  V30 3012 C 281.081 2.43577 -2.44467 0
M  V30 3013 C 280.194 2.2232 -3.70402 0
M  V30 3014 C 279.329 3.4729 -4.01949 0
M  V30 3015 C 278.368 3.2128 -5.21005 0
M  V30 3016 N 277.505 4.38507 -5.48321 0
M  V30 3017 H 282.345 0.733149 -2.88841 0
M  V30 3018 H 279.882 0.350482 -1.42864 0
M  V30 3019 H 281.84 3.20373 -2.6724 0
M  V30 3020 H 280.47 2.80097 -1.60455 0
M  V30 3021 H 279.522 1.36343 -3.55126 0
M  V30 3022 H 280.834 1.99089 -4.57345 0
M  V30 3023 H 279.988 4.32495 -4.25479 0
M  V30 3024 H 278.727 3.73572 -3.13521 0
M  V30 3025 H 277.732 2.34468 -4.97298 0
M  V30 3026 H 278.957 2.96348 -6.11028 0
M  V30 3027 H 276.903 4.64871 -4.62851 0
M  V30 3028 H 276.82 4.18455 -6.29628 0
M  V30 3029 H 278.088 5.24787 -5.76385 0
M  V30 3030 N 282.317 1.53212 0.369288 0
M  V30 3031 C 283.728 1.60943 0.946276 0
M  V30 3032 C 284.079 0.47452 1.90375 0
M  V30 3033 O 283.204 -0.399597 2.12679 0
M  V30 3034 C 283.799 2.91715 1.72302 0
M  V30 3035 C 282.358 3.01792 2.24941 0
M  V30 3036 C 281.505 2.56211 1.06072 0
M  V30 3037 H 284.456 1.58007 0.148198 0
M  V30 3038 H 284.477 2.79309 2.58393 0
M  V30 3039 H 283.989 3.74295 1.0259 0
M  V30 3040 H 282.09 2.23791 2.97906 0
M  V30 3041 H 282.203 4.06803 2.53077 0
M  V30 3042 H 280.567 2.10998 1.4266 0
M  V30 3043 H 281.35 3.41206 0.378639 0
M  V30 3044 N 283.795 -0.628877 1.44509 0
M  V30 3045 C 284.758 -1.72263 1.51188 0
M  V30 3046 C 285.758 -1.55907 0.39367 0
M  V30 3047 O 286.948 -1.61361 0.656377 0
M  V30 3048 C 284.08 -3.11365 1.38798 0
M  V30 3049 H 285.273 -1.67714 2.4862 0
M  V30 3050 H 282.826 -0.842737 1.31634 0
M  V30 3051 H 283.561 -3.21507 0.424693 0
M  V30 3052 H 283.346 -3.24644 2.19884 0
M  V30 3053 H 284.836 -3.91075 1.46458 0
M  V30 3054 N 285.273 -1.31445 -0.869486 0
M  V30 3055 C 286.689 -1.10113 -1.15531 0
M  V30 3056 C 286.889 0.128087 -2.01092 0
M  V30 3057 O 285.945 0.817276 -2.38908 0
M  V30 3058 C 287.258 -2.37291 -1.84698 0
M  V30 3059 C 288.806 -2.42906 -1.97397 0
M  V30 3060 C 289.281 -3.69967 -2.69979 0
M  V30 3061 N 290.772 -3.70864 -2.77514 0
M  V30 3062 C 291.507 -4.65875 -3.34287 0
M  V30 3063 N 291.003 -5.71242 -3.91988 0
M  V30 3064 N 292.796 -4.53394 -3.3225 0
M  V30 3065 H 284.947 -2.1028 -0.299347 0
M  V30 3066 H 287.21 -0.927683 -0.195214 0
M  V30 3067 H 286.916 -3.27078 -1.29278 0
M  V30 3068 H 286.79 -2.47125 -2.84972 0
M  V30 3069 H 289.177 -1.53588 -2.51982 0
M  V30 3070 H 289.258 -2.37036 -0.961643 0
M  V30 3071 H 288.902 -4.59652 -2.16062 0
M  V30 3072 H 288.832 -3.73103 -3.7162 0
M  V30 3073 H 291.323 -2.94697 -2.36563 0
M  V30 3074 H 291.636 -6.39817 -4.33421 0
M  V30 3075 H 289.981 -5.75015 -3.90362 0
M  V30 3076 H 293.172 -3.70252 -2.8641 0
M  V30 3077 H 293.345 -5.27617 -3.76197 0
M  V30 3078 N 286.751 1.08385 -1.14413 0
M  V30 3079 C 288.028 1.77429 -0.823297 0
M  V30 3080 C 288.408 1.9974 0.683163 0
M  V30 3081 O 287.756 1.60739 1.62405 0
M  V30 3082 C 287.966 3.09004 -1.62227 0
M  V30 3083 C 289.314 3.83532 -1.82177 0
M  V30 3084 O 290.338 3.18786 -1.58915 0
M  V30 3085 O 289.197 4.99792 -2.21067 0
M  V30 3086 H 286.291 0.769999 -0.301712 0
M  V30 3087 H 288.837 1.14846 -1.24934 0
M  V30 3088 H 287.609 2.88316 -2.64555 0
M  V30 3089 H 287.232 3.79316 -1.19187 0
M  V30 3090 N 288.23 0.939286 1.26551 0
M  V30 3091 C 289.16 0.465044 2.28822 0
M  V30 3092 C 290.141 -0.480692 1.63167 0
M  V30 3093 O 291.326 -0.382955 1.90387 0
M  V30 3094 C 288.456 -0.27234 3.46231 0
M  V30 3095 C 287.41 0.58666 4.2396 0
M  V30 3096 C 286.736 -0.280573 5.33963 0
M  V30 3097 C 288.036 1.85704 4.88171 0
M  V30 3098 H 289.73 1.31979 2.68741 0
M  V30 3099 H 287.276 0.636061 1.29191 0
M  V30 3100 H 289.229 -0.615133 4.16886 0
M  V30 3101 H 287.953 -1.16121 3.0526 0
M  V30 3102 H 286.612 0.91232 3.55067 0
M  V30 3103 H 286.26 -1.16874 4.89234 0
M  V30 3104 H 285.96 0.29076 5.8688 0
M  V30 3105 H 287.484 -0.618678 6.07458 0
M  V30 3106 H 288.898 1.58161 5.51052 0
M  V30 3107 H 287.295 2.37279 5.51197 0
M  V30 3108 H 288.365 2.56957 4.11219 0
M  V30 3109 N 289.708 -1.40897 0.706093 0
M  V30 3110 C 290.956 -2.00657 0.241054 0
M  V30 3111 C 291.277 -1.56241 -1.16678 0
M  V30 3112 O 290.547 -0.79765 -1.78926 0
M  V30 3113 H 289.127 -0.742018 0.0861308 0
M  V30 3114 H 291.789 -1.72372 0.909604 0
M  V30 3115 H 290.885 -3.10958 0.266705 0
M  V30 3116 N 291.186 -0.45159 -1.50991 0
M  V30 3117 C 292.119 0.398179 -2.24699 0
M  V30 3118 C 293.097 1.01276 -1.27208 0
M  V30 3119 O 294.281 1.05247 -1.56382 0
M  V30 3120 C 291.408 1.55618 -3.00833 0
M  V30 3121 C 290.454 1.0609 -4.13095 0
M  V30 3122 S 291.287 -0.00865136 -5.35499 0
M  V30 3123 C 292.443 1.15369 -6.15175 0
M  V30 3124 H 292.676 -0.227555 -2.96428 0
M  V30 3125 H 290.209 -0.236251 -1.52582 0
M  V30 3126 H 292.167 2.21997 -3.45293 0
M  V30 3127 H 290.828 2.15337 -2.28667 0
M  V30 3128 H 290.021 1.92726 -4.65696 0
M  V30 3129 H 289.623 0.47513 -3.7097 0
M  V30 3130 H 291.915 2.06925 -6.45126 0
M  V30 3131 H 292.858 0.667344 -7.04948 0
M  V30 3132 H 293.266 1.3987 -5.46897 0
M  V30 3133 N 292.664 1.56529 -0.183458 0
M  V30 3134 C 293.91 1.97537 0.459036 0
M  V30 3135 C 294.243 1.06989 1.62071 0
M  V30 3136 O 293.518 0.11948 1.94133 0
M  V30 3137 C 293.801 3.47874 0.930368 0
M  V30 3138 C 293.654 4.492 -0.232317 0
M  V30 3139 C 294.973 4.01612 1.79989 0
M  V30 3140 H 292.092 0.718204 0.165383 0
M  V30 3141 H 294.734 1.88042 -0.272038 0
M  V30 3142 H 292.884 3.56095 1.55333 0
M  V30 3143 H 294.556 4.53027 -0.86972 0
M  V30 3144 H 292.799 4.24657 -0.885928 0
M  V30 3145 H 293.47 5.51823 0.139796 0
M  V30 3146 H 295.946 3.96097 1.27461 0
M  V30 3147 H 294.822 5.07195 2.09867 0
M  V30 3148 H 295.083 3.46163 2.74998 0
M  V30 3149 N 294.142 -0.090211 1.57342 0
M  V30 3150 C 295.37 -0.806224 1.90546 0
M  V30 3151 C 295.785 -1.72041 0.777644 0
M  V30 3152 O 295.142 -1.80778 -0.250103 0
M  V30 3153 C 295.193 -1.61546 3.23396 0
M  V30 3154 O 294.914 -0.738043 4.31839 0
M  V30 3155 C 296.415 -2.4341 3.70495 0
M  V30 3156 H 293.635 -0.230256 0.630257 0
M  V30 3157 H 296.179 -0.0659843 2.04394 0
M  V30 3158 H 294.334 -2.30816 3.11131 0
M  V30 3159 H 294.748 -1.29901 5.08159 0
M  V30 3160 H 296.222 -2.95676 4.66133 0
M  V30 3161 H 296.699 -3.22098 2.98579 0
M  V30 3162 H 297.305 -1.79331 3.85643 0
M  V30 3163 N 295.62 -1.53406 -0.361157 0
M  V30 3164 C 296.869 -1.69022 -1.10066 0
M  V30 3165 C 297.182 -0.450838 -1.90333 0
M  V30 3166 O 298.388 -0.487617 -2.67085 0
M  V30 3167 C 296.844 -2.98812 -2.00598 0
M  V30 3168 C 296.452 -4.30027 -1.25621 0
M  V30 3169 C 298.196 -3.23795 -2.74513 0
M  V30 3170 C 296.103 -5.50903 -2.1508 0
M  V30 3171 H 295.033 -0.629776 -0.414606 0
M  V30 3172 H 297.684 -1.79907 -0.361348 0
M  V30 3173 H 296.066 -2.8174 -2.78278 0
M  V30 3174 H 297.24 -4.57745 -0.529739 0
M  V30 3175 H 295.555 -4.11522 -0.635496 0
M  V30 3176 H 298.152 -4.11289 -3.41681 0
M  V30 3177 H 298.495 -2.40045 -3.40123 0
M  V30 3178 H 299.028 -3.41561 -2.03914 0
M  V30 3179 H 295.767 -6.37143 -1.54041 0
M  V30 3180 H 295.287 -5.27459 -2.85565 0
M  V30 3181 H 296.966 -5.85865 -2.74538 0
M  V30 3182 N 297.098 0.621204 -1.44841 0
M  V30 3183 C 298.028 1.74366 -1.55303 0
M  V30 3184 C 299.009 1.65199 -0.405385 0
M  V30 3185 O 300.194 1.83807 -0.626787 0
M  V30 3186 C 297.324 3.12931 -1.50637 0
M  V30 3187 C 296.278 3.36896 -2.63979 0
M  V30 3188 C 295.604 4.75594 -2.44366 0
M  V30 3189 C 296.904 3.28483 -4.06074 0
M  V30 3190 H 298.598 1.65867 -2.49256 0
M  V30 3191 H 296.144 0.796558 -1.19962 0
M  V30 3192 H 298.097 3.9124 -1.56555 0
M  V30 3193 H 296.821 3.22237 -0.532057 0
M  V30 3194 H 295.48 2.60972 -2.57467 0
M  V30 3195 H 295.128 4.81616 -1.45105 0
M  V30 3196 H 294.828 4.92586 -3.20364 0
M  V30 3197 H 296.352 5.5612 -2.52117 0
M  V30 3198 H 297.766 3.96684 -4.13902 0
M  V30 3199 H 296.163 3.57008 -4.82354 0
M  V30 3200 H 297.233 2.26133 -4.28943 0
M  V30 3201 N 298.576 1.31904 0.862503 0
M  V30 3202 C 299.822 1.22197 1.61851 0
M  V30 3203 C 300.155 -0.217641 1.92977 0
M  V30 3204 O 299.43 -1.15264 1.56666 0
M  V30 3205 C 299.713 2.07378 2.94391 0
M  V30 3206 C 299.566 3.59678 2.70096 0
M  V30 3207 C 300.885 1.92891 3.95577 0
M  V30 3208 H 298.004 0.445255 0.587296 0
M  V30 3209 H 300.646 1.6177 0.99651 0
M  V30 3210 H 298.796 1.73758 3.47477 0
M  V30 3211 H 300.468 4.03472 2.23625 0
M  V30 3212 H 298.711 3.82735 2.04197 0
M  V30 3213 H 299.382 4.14595 3.64438 0
M  V30 3214 H 301.858 2.22327 3.51724 0
M  V30 3215 H 300.734 2.54781 4.86187 0
M  V30 3216 H 300.995 0.894315 4.3296 0
M  V30 3217 N 300.054 -1.07777 1.14986 0
M  V30 3218 C 300.986 -2.14769 0.800436 0
M  V30 3219 C 301.999 -1.61739 -0.185595 0
M  V30 3220 O 303.188 -1.78462 0.0370358 0
M  V30 3221 C 300.288 -3.38481 0.168533 0
M  V30 3222 C 299.461 -4.20876 1.1909 0
M  V30 3223 C 298.52 -5.22976 0.581575 0
M  V30 3224 O 297.546 -5.55388 1.24633 0
M  V30 3225 N 298.748 -5.76976 -0.638706 0
M  V30 3226 H 301.513 -2.45348 1.72118 0
M  V30 3227 H 299.074 -1.23645 1.04515 0
M  V30 3228 H 301.066 -4.03916 -0.251764 0
M  V30 3229 H 299.636 -3.05651 -0.655467 0
M  V30 3230 H 298.856 -3.51322 1.78791 0
M  V30 3231 H 300.144 -4.7274 1.88133 0
M  V30 3232 H 299.542 -5.52886 -1.19723 0
M  V30 3233 H 298.099 -6.44061 -1.00142 0
M  V30 3234 N 301.532 -0.945985 -1.26051 0
M  V30 3235 C 302.809 -0.513816 -1.88731 0
M  V30 3236 C 303.189 1.00872 -1.8544 0
M  V30 3237 O 302.537 1.8708 -1.312 0
M  V30 3238 C 302.747 -1.08062 -3.31849 0
M  V30 3239 C 304.095 -1.1522 -4.08668 0
M  V30 3240 O 305.119 -1.03155 -3.40936 0
M  V30 3241 O 303.978 -1.34044 -5.29806 0
M  V30 3242 H 301.072 -0.168193 -0.809716 0
M  V30 3243 H 303.618 -1.03886 -1.34186 0
M  V30 3244 H 302.39 -2.1241 -3.2863 0
M  V30 3245 H 302.013 -0.538307 -3.93939 0
M  V30 3246 N 303.011 1.40521 -0.713556 0
M  V30 3247 C 304.239 2.05237 -0.261775 0
M  V30 3248 C 304.654 1.53755 1.09567 0
M  V30 3249 O 304.011 0.693268 1.6882 0
M  V30 3250 C 304.062 3.60763 -0.230706 0
M  V30 3251 O 303.783 4.10345 -1.53455 0
M  V30 3252 C 305.284 4.42651 0.239874 0
M  V30 3253 H 302.504 0.660533 -0.118057 0
M  V30 3254 H 305.048 1.79967 -0.971192 0
M  V30 3255 H 303.203 3.8501 0.429661 0
M  V30 3256 H 303.617 5.04526 -1.43366 0
M  V30 3257 H 305.091 5.51599 0.210468 0
M  V30 3258 H 305.568 4.20082 1.28171 0
M  V30 3259 H 306.174 4.23507 -0.390142 0
M  V30 3260 N 304.489 0.459591 1.5075 0
M  V30 3261 C 305.766 -0.160371 1.94941 0
M  V30 3262 C 306.146 -1.58048 1.39943 0
M  V30 3263 O 305.494 -2.206 0.595629 0
M  V30 3264 C 305.704 -0.115432 3.48809 0
M  V30 3265 C 307.052 -0.310026 4.23467 0
M  V30 3266 O 308.076 -0.192543 3.55679 0
M  V30 3267 O 306.935 -0.546031 5.43765 0
M  V30 3268 H 304.029 -0.117925 0.818549 0
M  V30 3269 H 306.575 0.519169 1.61563 0
M  V30 3270 H 305.347 0.87652 3.81357 0
M  V30 3271 H 304.97 -0.836928 3.88692 0
M  V30 3272 N 305.967 -1.56429 0.191757 0
M  V30 3273 C 307.195 -2.01867 -0.453586 0
M  V30 3274 C 307.61 -1.07191 -1.5542 0
M  V30 3275 O 306.967 -0.0762108 -1.82341 0
M  V30 3276 C 307.018 -3.47017 -1.013 0
M  V30 3277 O 306.739 -4.38078 0.0437005 0
M  V30 3278 C 308.24 -4.07956 -1.73456 0
M  V30 3279 H 305.46 -0.661211 -0.114199 0
M  V30 3280 H 308.004 -2.02295 0.299483 0
M  V30 3281 H 306.159 -3.47298 -1.71647 0
M  V30 3282 H 306.573 -5.23178 -0.372212 0
M  V30 3283 H 308.047 -5.1138 -2.07833 0
M  V30 3284 H 308.524 -3.51222 -2.63704 0
M  V30 3285 H 309.13 -4.11437 -1.07702 0
M  V30 3286 N 307.445 0.0818655 -1.57387 0
M  V30 3287 C 308.408 1.08265 -2.02018 0
M  V30 3288 C 309.408 1.32183 -0.915664 0
M  V30 3289 O 310.598 1.28073 -1.18081 0
M  V30 3290 C 307.73 2.42871 -2.39221 0
M  V30 3291 H 308.923 0.698204 -2.91659 0
M  V30 3292 H 306.476 0.327303 -1.52835 0
M  V30 3293 H 307.211 2.86167 -1.52575 0
M  V30 3294 H 306.996 2.26855 -3.19811 0
M  V30 3295 H 308.486 3.14826 -2.74362 0
M  V30 3296 N 308.923 1.53595 0.353017 0
M  V30 3297 C 309.853 1.83902 1.43883 0
M  V30 3298 C 310.834 0.693421 1.55324 0
M  V30 3299 O 312.019 0.944452 1.69687 0
M  V30 3300 C 309.149 2.04016 2.8106 0
M  V30 3301 C 308.103 3.19814 2.84434 0
M  V30 3302 C 307.429 3.25244 4.24406 0
M  V30 3303 C 308.729 4.58133 2.50822 0
M  V30 3304 H 310.423 2.74835 1.1877 0
M  V30 3305 H 307.969 1.32242 0.569917 0
M  V30 3306 H 309.922 2.238 3.57059 0
M  V30 3307 H 308.646 1.09804 3.07588 0
M  V30 3308 H 307.305 2.9987 2.10887 0
M  V30 3309 H 306.953 2.28646 4.48029 0
M  V30 3310 H 306.653 4.03054 4.27576 0
M  V30 3311 H 308.177 3.47228 5.0226 0
M  V30 3312 H 309.591 4.77995 3.16534 0
M  V30 3313 H 307.988 5.38276 2.6529 0
M  V30 3314 H 309.058 4.62387 1.46034 0
M  V30 3315 N 310.401 -0.613514 1.45168 0
M  V30 3316 C 311.348 -1.72456 1.53387 0
M  V30 3317 C 312.318 -1.6169 0.380191 0
M  V30 3318 O 313.503 -1.81356 0.592836 0
M  V30 3319 C 310.643 -3.10753 1.50088 0
M  V30 3320 C 309.756 -3.32368 2.75963 0
M  V30 3321 C 308.891 -4.60737 2.64376 0
M  V30 3322 C 307.93 -4.7559 3.85332 0
M  V30 3323 N 307.067 -5.95253 3.72315 0
M  V30 3324 H 311.907 -1.64768 2.48305 0
M  V30 3325 H 309.444 -0.803503 1.23216 0
M  V30 3326 H 311.402 -3.90758 1.46164 0
M  V30 3327 H 310.032 -3.17413 0.587243 0
M  V30 3328 H 309.084 -2.4618 2.89999 0
M  V30 3329 H 310.396 -3.39218 3.65695 0
M  V30 3330 H 309.55 -5.48928 2.58385 0
M  V30 3331 H 308.289 -4.56275 1.72233 0
M  V30 3332 H 307.294 -3.85824 3.91688 0
M  V30 3333 H 308.519 -4.81854 4.78533 0
M  V30 3334 H 306.465 -5.91847 2.82937 0
M  V30 3335 H 306.382 -6.03236 4.55677 0
M  V30 3336 H 307.65 -6.85958 3.70246 0
M  V30 3337 N 311.879 -1.3236 -0.855495 0
M  V30 3338 C 312.789 -1.23221 -1.99634 0
M  V30 3339 C 313.805 -0.145983 -1.73387 0
M  V30 3340 O 314.981 -0.366502 -1.98037 0
M  V30 3341 C 312.046 -0.954782 -3.33294 0
M  V30 3342 C 311.107 -2.12937 -3.72769 0
M  V30 3343 C 310.34 -1.86508 -5.00051 0
M  V30 3344 O 310.563 -0.807231 -5.64659 0
M  V30 3345 O 309.497 -2.72591 -5.36636 0
M  V30 3346 H 313.323 -2.19126 -2.1028 0
M  V30 3347 H 310.908 -1.12241 -0.986018 0
M  V30 3348 H 312.79 -0.816519 -4.13414 0
M  V30 3349 H 311.465 -0.0258854 -3.2369 0
M  V30 3350 H 310.372 -2.3231 -2.93228 0
M  V30 3351 H 311.705 -3.04102 -3.87018 0
M  V30 3352 N 313.357 1.07166 -1.15556 0
M  V30 3353 C 314.287 2.16403 -0.877046 0
M  V30 3354 C 315.268 1.69217 0.173111 0
M  V30 3355 O 316.453 1.94181 0.027084 0
M  V30 3356 C 313.583 3.45349 -0.367632 0
M  V30 3357 C 312.537 4.05995 -1.35468 0
M  V30 3358 C 311.863 5.30045 -0.704038 0
M  V30 3359 C 313.163 4.45804 -2.72132 0
M  V30 3360 H 314.857 2.39959 -1.79053 0
M  V30 3361 H 312.403 1.15325 -0.862331 0
M  V30 3362 H 314.356 4.21095 -0.160317 0
M  V30 3363 H 313.08 3.21385 0.581326 0
M  V30 3364 H 311.739 3.32296 -1.54839 0
M  V30 3365 H 311.387 5.02373 0.251128 0
M  V30 3366 H 311.087 5.71579 -1.36277 0
M  V30 3367 H 312.611 6.08495 -0.50654 0
M  V30 3368 H 314.025 5.12671 -2.56595 0
M  V30 3369 H 312.422 4.98296 -3.34397 0
M  V30 3370 H 313.492 3.57083 -3.28054 0
M  V30 3371 N 314.835 0.952656 1.25548 0
M  V30 3372 C 315.745 0.47782 2.29682 0
M  V30 3373 C 316.761 -0.453859 1.67977 0
M  V30 3374 O 317.937 -0.330587 1.98668 0
M  V30 3375 C 315.002 -0.238655 3.45878 0
M  V30 3376 C 314.063 0.730994 4.23031 0
M  V30 3377 C 313.296 0.0486165 5.33678 0
M  V30 3378 O 313.519 -1.16612 5.58353 0
M  V30 3379 O 312.453 0.733152 5.97418 0
M  V30 3380 H 316.279 1.34312 2.72386 0
M  V30 3381 H 313.864 0.719026 1.30959 0
M  V30 3382 H 315.746 -0.641774 4.16484 0
M  V30 3383 H 314.421 -1.07916 3.05181 0
M  V30 3384 H 313.328 1.18428 3.5486 0
M  V30 3385 H 314.661 1.53946 4.67506 0
M  V30 3386 N 316.313 -1.40141 0.720998 0
M  V30 3387 C 317.26 -2.30688 0.071919 0
M  V30 3388 C 318.23 -1.48476 -0.744584 0
M  V30 3389 O 319.415 -1.77201 -0.707423 0
M  V30 3390 C 316.555 -3.34724 -0.839855 0
M  V30 3391 C 315.668 -4.31998 -0.0122438 0
M  V30 3392 C 314.803 -5.23102 -0.923995 0
M  V30 3393 C 313.842 -6.12033 -0.0907969 0
M  V30 3394 N 312.979 -6.95537 -0.957718 0
M  V30 3395 H 317.819 -2.85628 0.849755 0
M  V30 3396 H 315.356 -1.40653 0.430726 0
M  V30 3397 H 317.314 -3.93618 -1.38279 0
M  V30 3398 H 315.944 -2.81274 -1.58381 0
M  V30 3399 H 314.996 -3.74841 0.64794 0
M  V30 3400 H 316.308 -4.94772 0.632595 0
M  V30 3401 H 315.462 -5.86953 -1.53527 0
M  V30 3402 H 314.201 -4.60615 -1.60264 0
M  V30 3403 H 313.206 -5.47207 0.533377 0
M  V30 3404 H 314.431 -6.76581 0.584428 0
M  V30 3405 H 312.377 -6.35633 -1.62192 0
M  V30 3406 H 312.294 -7.55099 -0.36904 0
M  V30 3407 H 313.562 -7.63832 -1.555 0
M  V30 3408 N 317.792 -0.46758 -1.50504 0
M  V30 3409 C 319.038 0.0887532 -2.02606 0
M  V30 3410 C 319.371 1.39686 -1.34913 0
M  V30 3411 O 318.646 1.88644 -0.473694 0
M  V30 3412 C 318.929 0.276206 -3.59039 0
M  V30 3413 C 318.782 -1.05267 -4.37309 0
M  V30 3414 C 320.101 1.03235 -4.27821 0
M  V30 3415 H 317.22 0.0307814 -0.736357 0
M  V30 3416 H 319.862 -0.612485 -1.79857 0
M  V30 3417 H 318.012 0.8735 -3.78553 0
M  V30 3418 H 319.684 -1.68628 -4.29374 0
M  V30 3419 H 317.927 -1.65015 -4.01189 0
M  V30 3420 H 318.598 -0.875197 -5.45018 0
M  V30 3421 H 321.074 0.526111 -4.12761 0
M  V30 3422 H 319.95 1.1323 -5.37094 0
M  V30 3423 H 320.211 2.06806 -3.90748 0
M  V30 3424 N 319.27 1.56325 -0.20005 0
M  V30 3425 C 320.498 2.02105 0.442874 0
M  V30 3426 C 320.913 1.08014 1.5485 0
M  V30 3427 O 320.27 0.0858797 1.82298 0
M  V30 3428 C 320.321 3.47549 0.994583 0
M  V30 3429 O 320.042 4.38049 -0.0669322 0
M  V30 3430 C 321.543 4.0887 1.7129 0
M  V30 3431 H 318.763 0.661807 0.110691 0
M  V30 3432 H 321.307 2.02134 -0.310207 0
M  V30 3433 H 319.462 3.48204 1.69803 0
M  V30 3434 H 319.876 5.23368 0.344462 0
M  V30 3435 H 321.35 5.12475 2.05118 0
M  V30 3436 H 321.827 3.52615 2.61838 0
M  V30 3437 H 322.433 4.12002 1.05518 0
M  V30 3438 N 320.748 -0.0735177 1.57428 0
M  V30 3439 C 321.996 -0.771472 1.86796 0
M  V30 3440 C 322.317 -1.78201 0.791804 0
M  V30 3441 O 321.587 -1.95074 -0.179718 0
M  V30 3442 H 320.167 -0.28791 0.689287 0
M  V30 3443 H 322.829 -0.0500161 1.94836 0
M  V30 3444 H 321.925 -1.28874 2.8425 0
M  V30 3445 N 322.226 -1.5378 -0.344866 0
M  V30 3446 C 323.475 -1.7018 -1.08267 0
M  V30 3447 C 323.788 -0.471 -1.89845 0
M  V30 3448 O 324.994 -0.515917 -2.66553 0
M  V30 3449 C 323.45 -3.00923 -1.97417 0
M  V30 3450 C 323.058 -4.31335 -1.21053 0
M  V30 3451 C 324.802 -3.26688 -2.71063 0
M  V30 3452 C 322.709 -5.53153 -2.09225 0
M  V30 3453 H 321.639 -0.634138 -0.407903 0
M  V30 3454 H 324.29 -1.8028 -0.342246 0
M  V30 3455 H 322.672 -2.84676 -2.75274 0
M  V30 3456 H 323.846 -4.58281 -0.481159 0
M  V30 3457 H 322.161 -4.12173 -0.591813 0
M  V30 3458 H 324.758 -4.1489 -3.37299 0
M  V30 3459 H 325.101 -2.43639 -3.37558 0
M  V30 3460 H 325.634 -3.43705 -2.0028 0
M  V30 3461 H 322.373 -6.38741 -1.47274 0
M  V30 3462 H 321.893 -5.30458 -2.79955 0
M  V30 3463 H 323.572 -5.88744 -2.68308 0
M  V30 3464 N 323.704 0.605807 -1.45491 0
M  V30 3465 C 324.636 1.73031 -1.5031 0
M  V30 3466 C 325.649 1.57968 -0.393687 0
M  V30 3467 O 326.838 1.65817 -0.660839 0
M  V30 3468 C 323.938 3.11049 -1.34543 0
M  V30 3469 C 323.111 3.52334 -2.59189 0
M  V30 3470 C 322.17 4.69323 -2.37954 0
M  V30 3471 O 321.196 4.7635 -3.11575 0
M  V30 3472 N 322.398 5.62705 -1.4263 0
M  V30 3473 H 325.163 1.6936 -2.4726 0
M  V30 3474 H 322.724 0.79114 -1.41254 0
M  V30 3475 H 324.716 3.87071 -1.18144 0
M  V30 3476 H 323.286 3.09217 -0.458623 0
M  V30 3477 H 322.506 2.66256 -2.90691 0
M  V30 3478 H 323.794 3.76677 -3.42041 0
M  V30 3479 H 323.192 5.59744 -0.818758 0
M  V30 3480 H 321.749 6.38252 -1.32202 0
M  V30 3481 N 325.182 1.32811 0.848464 0
M  V30 3482 C 326.112 1.24882 1.97299 0
M  V30 3483 C 327.093 0.131357 1.69592 0
M  V30 3484 O 328.278 0.319553 1.91553 0
M  V30 3485 C 325.408 0.97746 3.33261 0
M  V30 3486 C 324.362 2.05682 3.75338 0
M  V30 3487 C 323.688 1.63777 5.09 0
M  V30 3488 C 324.988 3.47254 3.90144 0
M  V30 3489 H 326.682 2.18966 2.04191 0
M  V30 3490 H 324.228 1.05413 0.981029 0
M  V30 3491 H 326.181 0.908513 4.1149 0
M  V30 3492 H 324.905 0.000980011 3.266 0
M  V30 3493 H 323.564 2.11603 2.99366 0
M  V30 3494 H 323.212 0.648569 4.98801 0
M  V30 3495 H 322.912 2.36 5.38124 0
M  V30 3496 H 324.436 1.5833 5.89715 0
M  V30 3497 H 325.85 3.43888 4.58709 0
M  V30 3498 H 324.247 4.1788 4.30693 0
M  V30 3499 H 325.317 3.86462 2.92874 0
M  V30 3500 N 326.66 -1.06551 1.16123 0
M  V30 3501 C 327.59 -2.15935 0.88851 0
M  V30 3502 C 328.571 -1.69306 -0.164135 0
M  V30 3503 O 329.756 -1.94193 -0.0167857 0
M  V30 3504 C 326.886 -3.45149 0.385942 0
M  V30 3505 C 325.84 -4.05271 1.3762 0
M  V30 3506 C 325.166 -5.29664 0.732137 0
M  V30 3507 C 326.466 -4.44355 2.74493 0
M  V30 3508 H 328.16 -2.39006 1.80323 0
M  V30 3509 H 325.706 -1.14866 0.868435 0
M  V30 3510 H 327.659 -4.21004 0.182647 0
M  V30 3511 H 326.383 -3.21689 -0.564274 0
M  V30 3512 H 325.042 -3.3147 1.56599 0
M  V30 3513 H 324.69 -5.02499 -0.224483 0
M  V30 3514 H 324.39 -5.70848 1.39307 0
M  V30 3515 H 325.914 -6.08218 0.538802 0
M  V30 3516 H 327.328 -5.11303 2.59311 0
M  V30 3517 H 325.725 -4.96515 3.37035 0
M  V30 3518 H 326.795 -3.55339 3.29943 0
M  V30 3519 N 328.138 -0.959301 -1.25041 0
M  V30 3520 C 329.086 -0.474437 -2.2771 0
M  V30 3521 C 330.08 0.457697 -1.631 0
M  V30 3522 O 331.286 0.333912 -1.76876 0
M  V30 3523 H 327.661 -0.134936 -0.739795 0
M  V30 3524 H 329.632 -1.35251 -2.65988 0
M  V30 3525 C 328.381 0.227884 -3.46952 0
M  V30 3526 H 327.704 -0.480248 -3.96905 0
M  V30 3527 H 329.144 0.531091 -4.20661 0
M  V30 3528 C 327.603 1.452 -3.04004 0
M  V30 3529 O 328.133 2.54949 -3.10426 0
M  V30 3530 N 326.339 1.31502 -2.59144 0
M  V30 3531 H 325.886 0.422065 -2.54119 0
M  V30 3532 H 325.844 2.13521 -2.30773 0
M  V30 3533 N 329.616 1.39756 -0.72842 0
M  V30 3534 C 330.844 2.04948 -0.283528 0
M  V30 3535 C 331.259 1.54908 1.0793 0
M  V30 3536 O 330.616 0.711135 1.68075 0
M  V30 3537 C 330.667 3.60498 -0.268957 0
M  V30 3538 O 330.388 4.08695 -1.57798 0
M  V30 3539 C 331.889 4.4288 0.192912 0
M  V30 3540 H 329.109 0.659243 -0.125056 0
M  V30 3541 H 331.653 1.78927 -0.990226 0
M  V30 3542 H 329.808 3.85444 0.388801 0
M  V30 3543 H 330.222 5.02977 -1.48709 0
M  V30 3544 H 331.696 5.51791 0.151952 0
M  V30 3545 H 332.173 4.21418 1.23708 0
M  V30 3546 H 332.779 4.23069 -0.435039 0
M  V30 3547 N 331.094 0.475555 1.50254 0
M  V30 3548 C 332.505 0.0215174 1.86688 0
M  V30 3549 C 332.856 -1.38467 1.39001 0
M  V30 3550 O 331.981 -2.02732 0.756894 0
M  V30 3551 C 332.576 0.0322715 3.38785 0
M  V30 3552 C 331.135 -0.366314 3.74613 0
M  V30 3553 C 330.282 0.415832 2.74164 0
M  V30 3554 H 333.233 0.689612 1.42934 0
M  V30 3555 H 333.254 -0.76889 3.7265 0
M  V30 3556 H 332.766 1.05584 3.73462 0
M  V30 3557 H 330.867 -1.39406 3.45538 0
M  V30 3558 H 330.98 -0.064555 4.79057 0
M  V30 3559 H 329.344 -0.131048 2.54363 0
M  V30 3560 H 330.127 1.43899 3.11686 0
M  V30 3561 N 332.573 -1.56217 0.208337 0
M  V30 3562 C 333.536 -2.18455 -0.693557 0
M  V30 3563 C 334.536 -1.14268 -1.13135 0
M  V30 3564 O 335.726 -1.39577 -1.0423 0
M  V30 3565 C 332.858 -2.79727 -1.94848 0
M  V30 3566 H 334.051 -2.99519 -0.15114 0
M  V30 3567 H 331.604 -1.56245 -0.041287 0
M  V30 3568 H 332.339 -2.02497 -2.53309 0
M  V30 3569 H 332.124 -3.56009 -1.64316 0
M  V30 3570 H 333.614 -3.27475 -2.59133 0
M  V30 3571 N 334.051 0.0651679 -1.57465 0
M  V30 3572 C 335.462 0.616213 -1.76238 0
M  V30 3573 C 335.813 1.7756 -0.834689 0
M  V30 3574 O 334.938 2.1639 -0.0204156 0
M  V30 3575 C 335.533 1.12462 -3.1959 0
M  V30 3576 C 334.092 1.62147 -3.39684 0
M  V30 3577 C 333.239 0.543739 -2.71917 0
M  V30 3578 H 336.19 -0.161022 -1.57881 0
M  V30 3579 H 336.211 1.99324 -3.24114 0
M  V30 3580 H 335.723 0.280592 -3.87084 0
M  V30 3581 H 333.824 2.48854 -2.77313 0
M  V30 3582 H 333.937 1.69385 -4.48158 0
M  V30 3583 H 332.301 0.990352 -2.34657 0
M  V30 3584 H 333.084 -0.290216 -3.42071 0
M  V30 3585 N 335.529 1.53961 0.336706 0
M  V30 3586 C 336.459 1.85417 1.41925 0
M  V30 3587 C 337.44 0.709856 1.5458 0
M  V30 3588 O 338.625 0.962396 1.68676 0
M  V30 3589 C 335.755 2.06985 2.78881 0
M  V30 3590 C 334.709 3.22813 2.81026 0
M  V30 3591 C 334.035 3.29727 4.20932 0
M  V30 3592 C 335.335 4.60767 2.45949 0
M  V30 3593 H 337.029 2.76079 1.15848 0
M  V30 3594 H 334.575 1.32839 0.555859 0
M  V30 3595 H 336.528 2.27575 3.54665 0
M  V30 3596 H 335.252 1.13061 3.06406 0
M  V30 3597 H 333.911 3.0209 2.07695 0
M  V30 3598 H 333.559 2.33385 4.45579 0
M  V30 3599 H 333.259 4.07566 4.23277 0
M  V30 3600 H 334.783 3.52536 4.98549 0
M  V30 3601 H 336.197 4.81325 3.11446 0
M  V30 3602 H 334.594 5.4106 2.59566 0
M  V30 3603 H 335.664 4.6391 1.41122 0
M  V30 3604 N 337.007 -0.598083 1.45811 0
M  V30 3605 C 338.418 -1.18011 1.44673 0
M  V30 3606 C 338.769 -1.95378 0.179364 0
M  V30 3607 O 337.894 -2.04124 -0.718509 0
M  V30 3608 C 338.489 -2.14677 2.62105 0
M  V30 3609 C 337.048 -2.68236 2.64057 0
M  V30 3610 C 336.195 -1.43816 2.37091 0
M  V30 3611 H 339.146 -0.38686 1.53913 0
M  V30 3612 H 339.167 -2.97878 2.36746 0
M  V30 3613 H 338.679 -1.5834 3.5433 0
M  V30 3614 H 336.78 -3.28486 1.75864 0
M  V30 3615 H 336.893 -3.12021 3.63566 0
M  V30 3616 H 335.257 -1.731 1.86838 0
M  V30 3617 H 336.04 -0.893333 3.31473 0
M  V30 3618 N 338.485 -1.33259 -0.841409 0
M  V30 3619 C 339.713 -1.27605 -1.62864 0
M  V30 3620 C 340.128 0.153507 -1.88175 0
M  V30 3621 O 339.485 1.09485 -1.46011 0
M  V30 3622 C 339.536 -2.04596 -2.98031 0
M  V30 3623 O 339.257 -3.41975 -2.73834 0
M  V30 3624 C 340.758 -2.06122 -3.92465 0
M  V30 3625 H 337.978 -0.439718 -0.506842 0
M  V30 3626 H 340.522 -1.75591 -1.04824 0
M  V30 3627 H 338.677 -1.60299 -3.5268 0
M  V30 3628 H 339.091 -3.81549 -3.59889 0
M  V30 3629 H 340.565 -2.64451 -4.84531 0
M  V30 3630 H 341.042 -1.05083 -4.26444 0
M  V30 3631 H 341.648 -2.50427 -3.43753 0
M  V30 3632 N 339.963 1.05934 -1.16686 0
M  V30 3633 C 341.188 1.83029 -0.975455 0
M  V30 3634 C 341.613 1.82096 0.471452 0
M  V30 3635 O 340.971 1.22443 1.33706 0
M  V30 3636 C 341.019 3.27372 -1.51195 0
M  V30 3637 O 340.123 4.06054 -0.720701 0
M  V30 3638 H 339.464 0.566194 -0.346872 0
M  V30 3639 H 341.994 1.33541 -1.55009 0
M  V30 3640 H 342.004 3.78186 -1.53099 0
M  V30 3641 H 340.679 3.27366 -2.56523 0
M  V30 3642 H 339.256 3.64812 -0.772458 0
M  V30 3643 N 341.441 0.965919 1.2453 0
M  V30 3644 C 342.681 0.634656 1.94297 0
M  V30 3645 C 343.045 -0.814822 1.73852 0
M  V30 3646 O 344.246 -1.25622 2.3764 0
M  V30 3647 C 342.517 0.99702 3.43212 0
M  V30 3648 S 344.076 0.780038 4.31811 0
M  V30 3649 H 340.894 0.232893 0.671775 0
M  V30 3650 H 343.496 1.24249 1.50938 0
M  V30 3651 H 342.2 2.04886 3.55598 0
M  V30 3652 H 341.731 0.379888 3.91562 0
M  V30 3653 H 343.746 -0.343512 4.9501 0
M  V30 3654 N 342.919 -1.39368 0.735821 0
M  V30 3655 C 343.867 -2.32443 0.0855131 0
M  V30 3656 C 344.861 -1.53104 -0.724954 0
M  V30 3657 O 346.067 -1.68762 -0.626047 0
M  V30 3658 H 342.442 -0.751948 0.00885257 0
M  V30 3659 H 344.413 -2.84916 0.886883 0
M  V30 3660 C 343.162 -3.38206 -0.806983 0
M  V30 3661 H 342.485 -3.99335 -0.19274 0
M  V30 3662 H 343.925 -4.05779 -1.2296 0
M  V30 3663 C 342.384 -2.75321 -1.94165 0
M  V30 3664 O 342.914 -2.63231 -3.03435 0
M  V30 3665 N 341.12 -2.33396 -1.73132 0
M  V30 3666 H 340.667 -2.4343 -0.842596 0
M  V30 3667 H 340.625 -1.91661 -2.49225 0
M  V30 3668 N 344.397 -0.483516 -1.5 0
M  V30 3669 C 345.808 -0.0314176 -1.86674 0
M  V30 3670 C 346.159 1.37728 -1.39733 0
M  V30 3671 O 345.284 2.02327 -0.767635 0
M  V30 3672 C 345.879 -0.0502376 -3.38763 0
M  V30 3673 C 344.438 0.346442 -3.74802 0
M  V30 3674 C 343.585 -0.430366 -2.7394 0
M  V30 3675 H 346.536 -0.697182 -1.42566 0
M  V30 3676 H 346.557 0.749116 -3.73053 0
M  V30 3677 H 346.069 -1.07563 -3.72897 0
M  V30 3678 H 344.17 1.37572 -3.46273 0
M  V30 3679 H 344.283 0.0391486 -4.79084 0
M  V30 3680 H 342.647 0.117557 -2.54429 0
M  V30 3681 H 343.43 -1.4555 -3.10918 0
M  V30 3682 N 345.875 1.56104 -0.216619 0
M  V30 3683 C 347.1 2.0301 0.424462 0
M  V30 3684 C 347.525 1.0955 1.52907 0
M  V30 3685 O 346.883 0.0827914 1.81111 0
M  V30 3686 C 346.931 3.4819 0.937883 0
M  V30 3687 O 346.035 3.57865 2.04955 0
M  V30 3688 H 345.376 0.656925 0.0966755 0
M  V30 3689 H 347.906 2.01859 -0.33381 0
M  V30 3690 H 347.916 3.88413 1.24897 0
M  V30 3691 H 346.591 4.15699 0.129387 0
M  V30 3692 H 345.168 3.29527 1.74546 0
M  V30 3693 N 347.353 -0.0568162 1.57498 0
M  V30 3694 C 348.63 -0.786954 1.79071 0
M  V30 3695 C 349.01 -1.95028 0.80792 0
M  V30 3696 O 348.358 -2.27968 -0.155858 0
M  V30 3697 C 348.568 -1.24594 3.26002 0
M  V30 3698 C 349.916 -1.67323 3.90241 0
M  V30 3699 O 350.94 -1.34124 3.29984 0
M  V30 3700 O 349.799 -2.28842 4.9628 0
M  V30 3701 H 346.893 -0.378262 0.735423 0
M  V30 3702 H 349.439 -0.035734 1.69662 0
M  V30 3703 H 348.211 -0.41423 3.89101 0
M  V30 3704 H 347.834 -2.05803 3.40192 0
M  V30 3705 N 348.832 -1.54138 -0.328536 0
M  V30 3706 C 349.765 -1.78014 -1.4278 0
M  V30 3707 C 350.743 -0.629889 -1.49904 0
M  V30 3708 O 351.927 -0.866763 -1.6739 0
M  V30 3709 C 349.054 -1.89225 -2.80912 0
M  V30 3710 C 348.1 -3.11483 -2.91343 0
M  V30 3711 S 348.933 -4.70201 -2.56263 0
M  V30 3712 C 350.089 -4.84312 -3.96476 0
M  V30 3713 H 350.322 -2.70974 -1.22313 0
M  V30 3714 H 347.855 -1.45197 -0.525084 0
M  V30 3715 H 349.813 -1.9637 -3.60485 0
M  V30 3716 H 348.474 -0.972518 -2.98665 0
M  V30 3717 H 347.667 -3.16046 -3.92595 0
M  V30 3718 H 347.269 -3.02642 -2.19736 0
M  V30 3719 H 349.561 -4.66643 -4.91173 0
M  V30 3720 H 350.504 -5.86411 -3.96898 0
M  V30 3721 H 350.912 -4.12652 -3.85199 0
M  V30 3722 N 350.31 0.590341 -1.46126 0
M  V30 3723 C 351.535 1.37991 -1.54833 0
M  V30 3724 C 351.96 1.87163 -0.187506 0
M  V30 3725 O 351.318 1.61133 0.831008 0
M  V30 3726 C 351.366 2.54867 -2.55098 0
M  V30 3727 O 350.47 3.56061 -2.08073 0
M  V30 3728 H 349.811 0.411265 -0.521303 0
M  V30 3729 H 352.341 0.716819 -1.91632 0
M  V30 3730 H 352.351 3.01886 -2.74461 0
M  V30 3731 H 351.026 2.18429 -3.53923 0
M  V30 3732 H 349.603 3.15574 -1.98664 0
M  V30 3733 N 351.788 1.33704 0.83433 0
M  V30 3734 C 352.738 1.20899 1.93306 0
M  V30 3735 C 353.722 0.110783 1.60518 0
M  V30 3736 O 354.914 0.339331 1.73717 0
M  V30 3737 C 352.043 0.955018 3.29749 0
M  V30 3738 C 351.129 2.09587 3.68692 0
M  V30 3739 N 351.52 3.34621 3.79292 0
M  V30 3740 C 349.818 2.00358 3.98463 0
M  V30 3741 C 350.519 4.09472 4.13167 0
M  V30 3742 N 349.495 3.37954 4.25779 0
M  V30 3743 H 353.297 2.15665 1.99664 0
M  V30 3744 H 350.811 1.25777 1.02732 0
M  V30 3745 H 352.808 0.844208 4.08263 0
M  V30 3746 H 351.468 0.0159317 3.24696 0
M  V30 3747 H 352.479 3.69313 3.63082 0
M  V30 3748 H 349.156 1.14137 4.01596 0
M  V30 3749 H 350.546 5.17391 4.28668 0
M  V30 3750 N 353.266 -1.05314 1.17247 0
M  V30 3751 C 354.514 -1.77941 0.958194 0
M  V30 3752 C 354.835 -1.88089 -0.514556 0
M  V30 3753 O 354.105 -1.39676 -1.37359 0
M  V30 3754 H 352.685 -0.659116 0.351533 0
M  V30 3755 H 355.347 -1.27166 1.47699 0
M  V30 3756 H 354.443 -2.79663 1.38546 0
M  V30 3757 N 354.744 -0.972509 -1.24016 0
M  V30 3758 C 355.974 -0.653853 -1.9598 0
M  V30 3759 C 356.382 0.781801 -1.72292 0
M  V30 3760 O 355.725 1.53677 -1.00644 0
M  V30 3761 C 355.787 -0.854608 -3.49194 0
M  V30 3762 C 355.451 -2.27082 -3.96589 0
M  V30 3763 C 356.448 -3.24892 -4.05883 0
M  V30 3764 C 354.133 -2.5998 -4.29786 0
M  V30 3765 C 356.127 -4.53684 -4.47716 0
M  V30 3766 C 353.814 -3.88997 -4.71301 0
M  V30 3767 C 354.812 -4.85661 -4.80232 0
M  V30 3768 O 354.5 -6.12376 -5.20818 0
M  V30 3769 H 354.232 -0.242572 -0.630979 0
M  V30 3770 H 356.786 -1.30431 -1.58673 0
M  V30 3771 H 355.016 -0.146985 -3.86421 0
M  V30 3772 H 356.705 -0.534311 -4.02368 0
M  V30 3773 H 357.471 -3.00805 -3.80449 0
M  V30 3774 H 353.35 -1.85457 -4.22051 0
M  V30 3775 H 356.894 -5.29135 -4.54601 0
M  V30 3776 H 352.791 -4.12882 -4.96184 0
M  V30 3777 H 353.559 -6.16013 -5.38953 0
M  V30 3778 N 356.222 1.38976 -0.743202 0
M  V30 3779 C 357.468 2.0064 -0.295189 0
M  V30 3780 C 357.801 1.5885 1.11716 0
M  V30 3781 O 357.076 0.821181 1.76315 0
M  V30 3782 C 357.359 3.578 -0.406318 0
M  V30 3783 C 357.212 4.09586 -1.85903 0
M  V30 3784 C 358.531 4.39616 0.206439 0
M  V30 3785 H 355.65 0.728935 -0.108733 0
M  V30 3786 H 358.292 1.65067 -0.940897 0
M  V30 3787 H 356.442 3.88235 0.143419 0
M  V30 3788 H 358.114 3.89837 -2.46627 0
M  V30 3789 H 356.357 3.6284 -2.3776 0
M  V30 3790 H 357.028 5.18708 -1.888 0
M  V30 3791 H 359.504 4.15273 -0.262283 0
M  V30 3792 H 358.38 5.48812 0.0983819 0
M  V30 3793 H 358.641 4.22754 1.2935 0
M  V30 3794 N 357.7 0.491464 1.49741 0
M  V30 3795 C 358.928 -0.0535151 2.06831 0
M  V30 3796 C 359.343 -1.31683 1.35296 0
M  V30 3797 O 358.7 -1.77402 0.42836 0
M  V30 3798 C 358.751 -0.320835 3.60073 0
M  V30 3799 O 358.472 0.892394 4.28915 0
M  V30 3800 C 359.973 -0.910519 4.33848 0
M  V30 3801 H 357.193 0.0161909 0.670805 0
M  V30 3802 H 359.737 0.68609 1.92647 0
M  V30 3803 H 357.892 -1.0104 3.73991 0
M  V30 3804 H 358.306 0.649401 5.20464 0
M  V30 3805 H 359.78 -1.04721 5.41976 0
M  V30 3806 H 360.257 -1.90589 3.95692 0
M  V30 3807 H 360.863 -0.258712 4.24512 0
M  V30 3808 N 359.178 -1.55987 0.224894 0
M  V30 3809 C 360.424 -1.98684 -0.406502 0
M  V30 3810 C 360.757 -1.11248 -1.59177 0
M  V30 3811 O 360.032 -0.170909 -1.93748 0
M  V30 3812 C 360.315 -3.50218 -0.837808 0
M  V30 3813 C 360.168 -4.48426 0.351332 0
M  V30 3814 C 361.487 -4.06243 -1.69278 0
M  V30 3815 H 358.606 -0.722337 -0.146283 0
M  V30 3816 H 361.248 -1.87255 0.321799 0
M  V30 3817 H 359.398 -3.60089 -1.45837 0
M  V30 3818 H 361.07 -4.50562 0.989526 0
M  V30 3819 H 359.313 -4.22159 0.998207 0
M  V30 3820 H 359.984 -5.52 0.00655905 0
M  V30 3821 H 362.46 -3.99337 -1.16914 0
M  V30 3822 H 361.336 -5.12581 -1.96346 0
M  V30 3823 H 361.597 -3.53332 -2.65723 0
M  V30 3824 N 360.656 0.0484629 -1.57525 0
M  V30 3825 C 361.603 1.05504 -2.05275 0
M  V30 3826 C 362.573 1.37084 -0.937927 0
M  V30 3827 O 363.758 1.47754 -1.2072 0
M  V30 3828 C 360.898 2.35676 -2.52093 0
M  V30 3829 C 360.011 2.10423 -3.77288 0
M  V30 3830 C 359.146 3.34327 -4.12794 0
M  V30 3831 C 358.185 3.04542 -5.30962 0
M  V30 3832 N 357.322 4.20841 -5.61994 0
M  V30 3833 H 362.162 0.640885 -2.91027 0
M  V30 3834 H 359.699 0.304854 -1.43906 0
M  V30 3835 H 361.657 3.11709 -2.77297 0
M  V30 3836 H 360.287 2.7485 -1.69285 0
M  V30 3837 H 359.339 1.24976 -3.59284 0
M  V30 3838 H 360.651 1.84438 -4.63448 0
M  V30 3839 H 359.805 4.1874 -4.39024 0
M  V30 3840 H 358.544 3.63408 -3.25247 0
M  V30 3841 H 357.549 2.18528 -5.04505 0
M  V30 3842 H 358.774 2.76758 -6.20146 0
M  V30 3843 H 356.72 4.4991 -4.77406 0
M  V30 3844 H 356.637 3.98212 -6.42622 0
M  V30 3845 H 357.905 5.06184 -5.92789 0
M  V30 3846 N 362.134 1.5431 0.320358 0
M  V30 3847 C 363.545 1.63872 0.894594 0
M  V30 3848 C 363.896 0.534847 1.88769 0
M  V30 3849 O 363.021 -0.331732 2.13842 0
M  V30 3850 C 363.616 2.97049 1.62934 0
M  V30 3851 C 362.175 3.08796 2.15226 0
M  V30 3852 C 361.322 2.59456 0.978671 0
M  V30 3853 H 364.273 1.58398 0.0978544 0
M  V30 3854 H 364.294 2.87388 2.49376 0
M  V30 3855 H 363.806 3.7737 0.906302 0
M  V30 3856 H 361.907 2.33156 2.90636 0
M  V30 3857 H 362.02 4.14649 2.40006 0
M  V30 3858 H 360.384 2.1543 1.35875 0
M  V30 3859 H 361.167 3.42237 0.269895 0
M  V30 3860 N 363.613 -0.582584 1.46437 0
M  V30 3861 C 365.029 -0.905962 1.31394 0
M  V30 3862 C 365.229 -1.99468 0.285476 0
M  V30 3863 O 364.285 -2.50566 -0.311914 0
M  V30 3864 C 365.598 -1.3232 2.70022 0
M  V30 3865 C 367.146 -1.43604 2.78113 0
M  V30 3866 C 367.621 -1.88694 4.17323 0
M  V30 3867 N 369.112 -1.95887 4.19741 0
M  V30 3868 C 369.847 -2.32051 5.24347 0
M  V30 3869 N 369.343 -2.67006 6.39281 0
M  V30 3870 N 371.136 -2.32606 5.11713 0
M  V30 3871 H 363.287 0.1366 2.1196 0
M  V30 3872 H 365.55 -0.00155736 0.947999 0
M  V30 3873 H 365.256 -0.597242 3.46592 0
M  V30 3874 H 365.13 -2.28469 3.00136 0
M  V30 3875 H 367.517 -2.15286 2.01832 0
M  V30 3876 H 367.598 -0.457059 2.51684 0
M  V30 3877 H 367.242 -1.1759 4.941 0
M  V30 3878 H 367.172 -2.8755 4.4116 0
M  V30 3879 H 369.663 -1.71362 3.36814 0
M  V30 3880 H 369.976 -2.93554 7.14875 0
M  V30 3881 H 368.321 -2.64644 6.42642 0
M  V30 3882 H 371.512 -2.04721 4.2096 0
M  V30 3883 H 371.685 -2.60462 5.93349 0
M  V30 3884 N 365.091 -1.34144 -0.827227 0
M  V30 3885 C 366.337 -1.26446 -1.58554 0
M  V30 3886 C 366.67 0.1664 -1.93486 0
M  V30 3887 O 365.945 1.1107 -1.59667 0
M  V30 3888 C 366.228 -2.15111 -2.8879 0
M  V30 3889 C 366.081 -3.66712 -2.60465 0
M  V30 3890 C 367.4 -2.03311 -3.90324 0
M  V30 3891 H 364.519 -0.46067 -0.575284 0
M  V30 3892 H 367.161 -1.64356 -0.953269 0
M  V30 3893 H 365.311 -1.8291 -3.42748 0
M  V30 3894 H 366.983 -4.09259 -2.1285 0
M  V30 3895 H 365.226 -3.88014 -1.93978 0
M  V30 3896 H 365.897 -4.24112 -3.53317 0
M  V30 3897 H 368.373 -2.31574 -3.45706 0
M  V30 3898 H 367.249 -2.67582 -4.79261 0
M  V30 3899 H 367.51 -1.00879 -4.30437 0
M  V30 3900 N 366.569 1.04691 -1.17803 0
M  V30 3901 C 367.985 1.29963 -0.926379 0
M  V30 3902 C 368.185 1.97251 0.411635 0
M  V30 3903 O 367.241 2.24922 1.14744 0
M  V30 3904 C 368.554 2.16447 -2.08737 0
M  V30 3905 C 370.102 2.29814 -2.12496 0
M  V30 3906 C 370.577 3.19661 -3.27995 0
M  V30 3907 N 372.068 3.27247 -3.27816 0
M  V30 3908 C 372.803 3.96906 -4.13827 0
M  V30 3909 N 372.299 4.6895 -5.09959 0
M  V30 3910 N 374.092 3.93122 -4.01761 0
M  V30 3911 H 366.243 0.594182 -2.0392 0
M  V30 3912 H 368.506 0.324649 -0.890678 0
M  V30 3913 H 368.212 1.74304 -3.05469 0
M  V30 3914 H 368.086 3.17103 -2.04268 0
M  V30 3915 H 370.473 2.71196 -1.16347 0
M  V30 3916 H 370.554 1.2877 -2.21025 0
M  V30 3917 H 370.198 2.78991 -4.24413 0
M  V30 3918 H 370.128 4.20722 -3.16703 0
M  V30 3919 H 372.619 2.75921 -2.58217 0
M  V30 3920 H 372.932 5.19679 -5.71974 0
M  V30 3921 H 371.277 4.67875 -5.13924 0
M  V30 3922 H 374.468 3.35967 -3.2595 0
M  V30 3923 H 374.641 4.47139 -4.6901 0
M  V30 3924 N 368.047 0.979072 1.23499 0
M  V30 3925 C 368.977 0.537606 2.27227 0
M  V30 3926 C 369.958 -0.428539 1.64613 0
M  V30 3927 O 371.143 -0.322191 1.91509 0
M  V30 3928 C 368.273 -0.162052 3.46922 0
M  V30 3929 C 367.227 0.721242 4.21879 0
M  V30 3930 C 366.553 -0.110555 5.34586 0
M  V30 3931 C 367.853 2.01141 4.82016 0
M  V30 3932 H 369.547 1.40462 2.64406 0
M  V30 3933 H 367.093 0.67684 1.27102 0
M  V30 3934 H 369.046 -0.482192 4.18632 0
M  V30 3935 H 367.77 -1.06351 3.08799 0
M  V30 3936 H 366.429 1.02482 3.51984 0
M  V30 3937 H 366.077 -1.0125 4.92704 0
M  V30 3938 H 365.777 0.477325 5.85658 0
M  V30 3939 H 367.301 -0.425107 6.09118 0
M  V30 3940 H 368.715 1.75612 5.45741 0
M  V30 3941 H 367.112 2.54695 5.43369 0
M  V30 3942 H 368.182 2.69909 4.02836 0
M  V30 3943 N 369.525 -1.3858 0.750561 0
M  V30 3944 C 370.475 -2.27795 0.0965949 0
M  V30 3945 C 371.459 -1.45048 -0.696411 0
M  V30 3946 O 372.651 -1.67812 -0.562863 0
M  V30 3947 C 369.78 -3.33894 -0.798085 0
M  V30 3948 C 368.866 -4.241 0.0016067 0
M  V30 3949 N 369.257 -4.95067 1.03647 0
M  V30 3950 C 367.555 -4.45429 -0.225674 0
M  V30 3951 C 368.256 -5.61489 1.52004 0
M  V30 3952 N 367.232 -5.37135 0.835874 0
M  V30 3953 H 371.034 -2.80125 0.889228 0
M  V30 3954 H 368.548 -1.51446 0.586323 0
M  V30 3955 H 370.545 -3.96693 -1.28219 0
M  V30 3956 H 369.205 -2.83123 -1.5897 0
M  V30 3957 H 370.216 -4.98104 1.41819 0
M  V30 3958 H 366.893 -4.05571 -0.990872 0
M  V30 3959 H 368.283 -6.28264 2.38188 0
M  V30 3960 N 371.003 -0.499398 -1.49478 0
M  V30 3961 C 372.25 0.0456899 -2.02448 0
M  V30 3962 C 372.578 1.37142 -1.37921 0
M  V30 3963 O 371.833 1.89111 -0.503544 0
M  V30 3964 C 372.132 0.248424 -3.56536 0
M  V30 3965 C 371.798 -0.999107 -4.39692 0
M  V30 3966 C 370.46 -1.34108 -4.62135 0
M  V30 3967 C 372.812 -1.82842 -4.88076 0
M  V30 3968 C 370.14 -2.51191 -5.30208 0
M  V30 3969 C 372.492 -2.99076 -5.57437 0
M  V30 3970 C 371.156 -3.33655 -5.78127 0
M  V30 3971 H 370.426 0.0167191 -0.740811 0
M  V30 3972 H 373.073 -0.65923 -1.79795 0
M  V30 3973 H 371.378 1.03586 -3.77859 0
M  V30 3974 H 373.075 0.684605 -3.95113 0
M  V30 3975 H 369.665 -0.722729 -4.22463 0
M  V30 3976 H 373.849 -1.57737 -4.70566 0
M  V30 3977 H 369.105 -2.78221 -5.44429 0
M  V30 3978 H 373.279 -3.63664 -5.93904 0
M  V30 3979 H 370.906 -4.24483 -6.30649 0
M  V30 3980 N 372.481 1.55866 -0.233164 0
M  V30 3981 C 373.727 1.98897 0.395959 0
M  V30 3982 C 374.06 1.12091 1.58585 0
M  V30 3983 O 373.335 0.181182 1.93654 0
M  V30 3984 C 373.618 3.50658 0.819224 0
M  V30 3985 C 373.471 4.48233 -0.375109 0
M  V30 3986 C 374.79 4.07135 1.67121 0
M  V30 3987 H 371.909 0.723102 0.142451 0
M  V30 3988 H 374.551 1.87082 -0.331725 0
M  V30 3989 H 372.701 3.60857 1.43925 0
M  V30 3990 H 374.373 4.50031 -1.01341 0
M  V30 3991 H 372.616 4.21624 -1.02058 0
M  V30 3992 H 373.287 5.51988 -0.0358328 0
M  V30 3993 H 375.763 3.99952 1.14795 0
M  V30 3994 H 374.639 5.13615 1.93625 0
M  V30 3995 H 374.9 3.54736 2.63846 0
M  V30 3996 N 373.959 -0.0401083 1.57549 0
M  V30 3997 C 374.869 -1.06133 2.0922 0
M  V30 3998 C 375.885 -1.40356 1.0284 0
M  V30 3999 O 377.061 -1.49897 1.34509 0
M  V30 4000 C 374.126 -2.34658 2.55218 0
M  V30 4001 C 373.187 -2.07117 3.76033 0
M  V30 4002 C 372.42 -3.29514 4.19829 0
M  V30 4003 O 372.643 -4.39794 3.63232 0
M  V30 4004 O 371.577 -3.15863 5.12362 0
M  V30 4005 H 375.403 -0.652244 2.96613 0
M  V30 4006 H 372.988 -0.256368 1.47184 0
M  V30 4007 H 374.87 -3.10239 2.85184 0
M  V30 4008 H 373.545 -2.74883 1.70941 0
M  V30 4009 H 372.452 -1.29139 3.51104 0
M  V30 4010 H 373.785 -1.71754 4.61261 0
M  V30 4011 N 375.437 -1.54477 -0.31217 0
M  V30 4012 C 376.367 -1.87652 -1.38957 0
M  V30 4013 C 377.348 -0.734358 -1.53431 0
M  V30 4014 O 378.533 -0.98911 -1.67123 0
M  V30 4015 C 375.663 -2.11396 -2.75552 0
M  V30 4016 C 374.617 -3.27243 -2.75855 0
M  V30 4017 C 373.943 -3.36382 -4.15633 0
M  V30 4018 C 375.243 -4.64622 -2.38587 0
M  V30 4019 H 376.937 -2.77887 -1.11442 0
M  V30 4020 H 374.483 -1.33707 -0.534655 0
M  V30 4021 H 376.436 -2.33189 -3.51 0
M  V30 4022 H 375.16 -1.17921 -3.04569 0
M  V30 4023 H 373.819 -3.05356 -2.02863 0
M  V30 4024 H 373.467 -2.40445 -4.41809 0
M  V30 4025 H 373.167 -4.14249 -4.1674 0
M  V30 4026 H 374.691 -3.60422 -4.92877 0
M  V30 4027 H 376.105 -4.86219 -3.03749 0
M  V30 4028 H 374.502 -5.45121 -2.50925 0
M  V30 4029 H 375.572 -4.66097 -1.33723 0
M  V30 4030 N 376.915 0.57481 -1.46744 0
M  V30 4031 C 378.163 1.33009 -1.52161 0
M  V30 4032 C 378.484 1.94185 -0.178092 0
M  V30 4033 O 377.754 1.7899 0.796196 0
M  V30 4034 H 376.334 0.493873 -0.560445 0
M  V30 4035 H 378.996 0.672589 -1.82927 0
M  V30 4036 H 378.092 2.13273 -2.27862 0
M  V30 4037 N 378.394 1.34581 0.820102 0
M  V30 4038 C 379.619 1.30333 1.61332 0
M  V30 4039 C 380.044 -0.119339 1.87721 0
M  V30 4040 O 379.402 -1.08197 1.45475 0
M  V30 4041 C 379.45 2.10258 2.92957 0
M  V30 4042 O 378.554 1.47404 3.85157 0
M  V30 4043 H 377.895 0.447488 0.490561 0
M  V30 4044 H 380.425 1.77425 1.01889 0
M  V30 4045 H 380.435 2.21718 3.42498 0
M  V30 4046 H 379.11 3.13693 2.73074 0
M  V30 4047 H 377.687 1.44703 3.43679 0
M  V30 4048 N 379.872 -1.04064 1.18357 0
M  V30 4049 C 381.12 -1.76915 0.977013 0
M  V30 4050 C 381.441 -1.88624 -0.494577 0
M  V30 4051 O 380.711 -1.41125 -1.3587 0
M  V30 4052 H 379.291 -0.65535 0.358504 0
M  V30 4053 H 381.953 -1.25592 1.49039 0
M  V30 4054 H 381.049 -2.78178 1.41504 0
M  V30 4055 N 381.35 -0.985608 -1.22978 0
M  V30 4056 C 382.761 -0.693593 -1.73338 0
M  V30 4057 C 383.112 0.789935 -1.79595 0
M  V30 4058 O 382.237 1.61771 -1.43733 0
M  V30 4059 C 382.832 -1.25235 -3.14804 0
M  V30 4060 C 381.391 -1.00987 -3.626 0
M  V30 4061 C 380.538 -1.37695 -2.40698 0
M  V30 4062 H 383.489 -1.15884 -1.08428 0
M  V30 4063 H 383.51 -0.627329 -3.75293 0
M  V30 4064 H 383.022 -2.33209 -3.10218 0
M  V30 4065 H 381.123 0.0535565 -3.72562 0
M  V30 4066 H 381.236 -1.66812 -4.49122 0
M  V30 4067 H 379.6 -0.795459 -2.4196 0
M  V30 4068 H 380.383 -2.46657 -2.38779 0
M  V30 4069 N 382.828 1.3818 -0.7579 0
M  V30 4070 C 383.791 2.28764 -0.141286 0
M  V30 4071 C 384.791 1.47388 0.642907 0
M  V30 4072 O 385.981 1.67781 0.468536 0
M  V30 4073 C 383.113 3.31184 0.808069 0
M  V30 4074 H 384.306 2.848 -0.939633 0
M  V30 4075 H 381.859 1.47212 -0.525191 0
M  V30 4076 H 382.594 2.80247 1.63193 0
M  V30 4077 H 382.379 3.91314 0.248104 0
M  V30 4078 H 383.869 3.98909 1.23536 0
M  V30 4079 N 384.306 0.507319 1.49211 0
M  V30 4080 C 385.552 -0.0350047 2.0277 0
M  V30 4081 C 385.885 -1.3606 1.38569 0
M  V30 4082 O 385.16 -1.87321 0.523542 0
M  V30 4083 C 385.443 -0.180916 3.59645 0
M  V30 4084 C 385.296 1.16825 4.34364 0
M  V30 4085 C 386.615 -0.918558 4.30407 0
M  V30 4086 H 383.734 -0.0112473 0.736914 0
M  V30 4087 H 386.376 0.659956 1.7817 0
M  V30 4088 H 384.526 -0.772826 3.80736 0
M  V30 4089 H 386.198 1.79952 4.24753 0
M  V30 4090 H 384.441 1.75594 3.96673 0
M  V30 4091 H 385.112 1.01939 5.42506 0
M  V30 4092 H 387.588 -0.41649 4.1401 0
M  V30 4093 H 386.464 -0.989505 5.39907 0
M  V30 4094 H 386.725 -1.96373 3.96093 0
M  V30 4095 N 385.784 -1.5574 0.241426 0
M  V30 4096 C 387.024 -2.00714 -0.38644 0
M  V30 4097 C 387.388 -1.12586 -1.55526 0
M  V30 4098 O 388.589 -1.46992 -2.25048 0
M  V30 4099 C 386.86 -3.48534 -0.791128 0
M  V30 4100 S 388.419 -4.15519 -1.41029 0
M  V30 4101 H 385.237 -0.700484 -0.121834 0
M  V30 4102 H 387.839 -1.92243 0.355377 0
M  V30 4103 H 386.543 -4.10342 0.0689225 0
M  V30 4104 H 386.074 -3.6092 -1.56526 0
M  V30 4105 H 388.089 -4.16352 -2.69936 0
M  V30 4106 N 387.262 0.0317525 -1.57568 0
M  V30 4107 C 388.192 1.03274 -2.0942 0
M  V30 4108 C 389.173 1.3788 -0.996143 0
M  V30 4109 O 390.358 1.46811 -1.27122 0
M  V30 4110 C 387.488 2.33448 -2.57137 0
M  V30 4111 C 386.442 2.13091 -3.71182 0
M  V30 4112 C 385.768 3.49001 -4.05095 0
M  V30 4113 C 387.068 1.51928 -4.99715 0
M  V30 4114 H 388.762 0.60112 -2.93303 0
M  V30 4115 H 386.308 0.287705 -1.41097 0
M  V30 4116 H 388.261 3.03802 -2.92032 0
M  V30 4117 H 386.985 2.78665 -1.70333 0
M  V30 4118 H 385.644 1.45171 -3.36632 0
M  V30 4119 H 385.292 3.91862 -3.15362 0
M  V30 4120 H 384.992 3.36207 -4.81911 0
M  V30 4121 H 386.516 4.20721 -4.42522 0
M  V30 4122 H 387.93 2.12196 -5.32584 0
M  V30 4123 H 386.327 1.49716 -5.81124 0
M  V30 4124 H 387.397 0.484811 -4.8247 0
M  V30 4125 N 388.74 1.54641 0.303973 0
M  V30 4126 C 389.98 1.75516 1.04755 0
M  V30 4127 C 390.344 0.528211 1.84591 0
M  V30 4128 O 391.545 0.614645 2.61678 0
M  V30 4129 C 389.816 3.00685 1.93193 0
M  V30 4130 S 391.375 3.42549 2.74237 0
M  V30 4131 H 388.193 0.616987 0.353339 0
M  V30 4132 H 390.795 1.92842 0.321292 0
M  V30 4133 H 389.499 3.8811 1.33411 0
M  V30 4134 H 389.03 2.85937 2.70191 0
M  V30 4135 H 391.045 2.99386 3.95705 0
M  V30 4136 N 390.218 -0.567019 1.47046 0
M  V30 4137 C 391.168 -1.67018 1.55207 0
M  V30 4138 C 392.152 -1.55543 0.411714 0
M  V30 4139 O 393.344 -1.64192 0.661064 0
M  V30 4140 C 390.473 -3.05801 1.56014 0
M  V30 4141 C 389.559 -3.22515 2.75399 0
M  V30 4142 N 389.95 -3.09329 4.00186 0
M  V30 4143 C 388.248 -3.53493 2.71954 0
M  V30 4144 C 388.949 -3.2847 4.80086 0
M  V30 4145 N 387.925 -3.54352 4.12233 0
M  V30 4146 H 391.727 -1.55377 2.4947 0
M  V30 4147 H 389.241 -0.771503 1.42904 0
M  V30 4148 H 391.238 -3.84996 1.59949 0
M  V30 4149 H 389.898 -3.18561 0.628396 0
M  V30 4150 H 390.909 -2.86863 4.31196 0
M  V30 4151 H 387.586 -3.7284 1.87873 0
M  V30 4152 H 388.976 -3.23326 5.88991 0
M  V30 4153 N 391.696 -1.35014 -0.812953 0
M  V30 4154 C 392.944 -1.27678 -1.56661 0
M  V30 4155 C 393.265 0.150359 -1.94419 0
M  V30 4156 O 392.535 1.08532 -1.63088 0
M  V30 4157 H 391.115 -0.469602 -0.580933 0
M  V30 4158 H 393.777 -1.69043 -0.970076 0
M  V30 4159 H 392.873 -1.88833 -2.48492 0
M  V30 4160 N 393.175 1.03435 -1.18907 0
M  V30 4161 C 394.422 1.76743 -0.988334 0
M  V30 4162 C 394.75 1.88447 0.481441 0
M  V30 4163 O 394.005 1.39383 1.37371 0
M  V30 4164 C 394.304 3.19792 -1.59586 0
M  V30 4165 C 393.97 3.28108 -3.09283 0
M  V30 4166 C 392.632 3.30084 -3.5014 0
M  V30 4167 C 394.984 3.27696 -4.05296 0
M  V30 4168 C 392.312 3.29299 -4.85571 0
M  V30 4169 C 394.664 3.28451 -5.4065 0
M  V30 4170 C 393.328 3.28723 -5.80946 0
M  V30 4171 H 392.598 0.64675 -0.361657 0
M  V30 4172 H 395.245 1.21442 -1.48068 0
M  V30 4173 H 393.55 3.78136 -1.02568 0
M  V30 4174 H 395.247 3.75171 -1.41589 0
M  V30 4175 H 391.837 3.27294 -2.76725 0
M  V30 4176 H 396.021 3.25354 -3.74778 0
M  V30 4177 H 391.277 3.2783 -5.16079 0
M  V30 4178 H 395.451 3.27082 -6.14809 0
M  V30 4179 H 393.078 3.27868 -6.85862 0
M  V30 4180 N 394.653 0.992116 1.22453 0
M  V30 4181 C 396.064 0.702776 1.72968 0
M  V30 4182 C 396.415 -0.780399 1.80012 0
M  V30 4183 O 395.54 -1.61007 1.44589 0
M  V30 4184 C 396.135 1.26903 3.14135 0
M  V30 4185 C 394.694 1.02909 3.62059 0
M  V30 4186 C 393.841 1.38969 2.39964 0
M  V30 4187 H 396.792 1.16457 1.07812 0
M  V30 4188 H 396.813 0.647223 3.74955 0
M  V30 4189 H 396.325 2.34851 3.08977 0
M  V30 4190 H 394.426 -0.0337979 3.72585 0
M  V30 4191 H 394.539 1.69191 4.48231 0
M  V30 4192 H 392.903 0.808279 2.41535 0
M  V30 4193 H 393.686 2.4792 2.37467 0
M  V30 4194 N 396.131 -1.37776 0.765217 0
M  V30 4195 C 397.041 -2.34135 0.147666 0
M  V30 4196 C 398.057 -1.59854 -0.687215 0
M  V30 4197 O 399.233 -1.91983 -0.608659 0
M  V30 4198 C 396.298 -3.3901 -0.72617 0
M  V30 4199 C 395.359 -4.2912 0.124417 0
M  V30 4200 C 394.592 -5.28986 -0.707807 0
M  V30 4201 O 394.815 -5.36205 -1.94525 0
M  V30 4202 O 393.749 -6.01779 -0.12046 0
M  V30 4203 H 397.575 -2.88664 0.943758 0
M  V30 4204 H 395.16 -1.39824 0.526277 0
M  V30 4205 H 397.042 -4.03195 -1.22524 0
M  V30 4206 H 395.717 -2.86819 -1.50056 0
M  V30 4207 H 394.624 -3.68057 0.669696 0
M  V30 4208 H 395.957 -4.84598 0.861736 0
M  V30 4209 N 397.609 -0.515225 -1.4894 0
M  V30 4210 C 398.834 0.022727 -2.07388 0
M  V30 4211 C 399.259 1.2876 -1.37122 0
M  V30 4212 O 398.617 1.76067 -0.432431 0
M  V30 4213 C 398.665 0.244869 -3.59768 0
M  V30 4214 O 397.769 1.31667 -3.90817 0
M  V30 4215 H 397.11 -0.0325506 -0.663202 0
M  V30 4216 H 399.64 -0.718918 -1.91553 0
M  V30 4217 H 399.65 0.47205 -4.0526 0
M  V30 4218 H 398.325 -0.679194 -4.10317 0
M  V30 4219 H 396.902 1.07331 -3.5712 0
M  V30 4220 N 399.087 1.5561 -0.249682 0
M  V30 4221 C 400.333 2.00044 0.367952 0
M  V30 4222 C 400.688 1.1349 1.55363 0
M  V30 4223 O 399.981 0.191079 1.90645 0
M  V30 4224 C 400.175 3.4775 0.824887 0
M  V30 4225 C 400.004 4.48596 -0.314973 0
M  V30 4226 C 398.774 4.99077 -0.790555 0
M  V30 4227 C 400.972 5.0144 -1.14291 0
M  V30 4228 N 398.954 5.83675 -1.90254 0
M  V30 4229 C 400.325 5.83236 -2.10322 0
M  V30 4230 C 402.38 4.83736 -1.17916 0
M  V30 4231 C 401.083 6.49217 -3.09692 0
M  V30 4232 C 403.109 5.50497 -2.16117 0
M  V30 4233 C 402.471 6.32084 -3.10884 0
M  V30 4234 H 398.57 0.775512 0.100522 0
M  V30 4235 H 401.154 1.91193 -0.367896 0
M  V30 4236 H 399.325 3.56994 1.53002 0
M  V30 4237 H 401.057 3.79056 1.4177 0
M  V30 4238 H 397.812 4.72119 -0.374218 0
M  V30 4239 H 398.236 6.30671 -2.46137 0
M  V30 4240 H 402.878 4.20286 -0.460352 0
M  V30 4241 H 400.596 7.11832 -3.8252 0
M  V30 4242 H 404.182 5.38752 -2.19631 0
M  V30 4243 H 403.062 6.82832 -3.8563 0
M  V30 4244 N 400.565 -0.0233959 1.57583 0
M  V30 4245 C 401.795 -0.723631 1.93513 0
M  V30 4246 C 402.203 -1.69115 0.848333 0
M  V30 4247 O 401.546 -1.82781 -0.183484 0
M  V30 4248 C 401.608 -1.53075 3.25282 0
M  V30 4249 C 401.272 -0.727388 4.51174 0
M  V30 4250 C 402.269 -0.0251924 5.19894 0
M  V30 4251 C 399.954 -0.680256 4.97672 0
M  V30 4252 C 401.948 0.713374 6.33395 0
M  V30 4253 C 399.635 0.0620523 6.11068 0
M  V30 4254 C 400.633 0.757622 6.78785 0
M  V30 4255 O 400.321 1.48787 7.90011 0
M  V30 4256 H 400.053 -0.208051 0.643188 0
M  V30 4257 H 402.607 0.0167489 2.05393 0
M  V30 4258 H 400.837 -2.31508 3.09744 0
M  V30 4259 H 402.526 -2.11413 3.46496 0
M  V30 4260 H 403.292 -0.0526003 4.84971 0
M  V30 4261 H 399.171 -1.21116 4.44805 0
M  V30 4262 H 402.715 1.25683 6.86185 0
M  V30 4263 H 398.612 0.0913634 6.45435 0
M  V30 4264 H 399.38 1.40213 8.06401 0
M  V30 4265 N 402.043 -1.548 -0.295768 0
M  V30 4266 C 403.268 -1.78653 -1.05346 0
M  V30 4267 C 403.693 -0.546894 -1.79974 0
M  V30 4268 O 403.051 0.502763 -1.7419 0
M  V30 4269 C 403.099 -2.99679 -2.00561 0
M  V30 4270 O 402.203 -2.7317 -3.08953 0
M  V30 4271 H 401.544 -0.59116 -0.302367 0
M  V30 4272 H 404.074 -2.01895 -0.331598 0
M  V30 4273 H 404.084 -3.27793 -2.42932 0
M  V30 4274 H 402.759 -3.89562 -1.4565 0
M  V30 4275 H 401.336 -2.56089 -2.71059 0
M  V30 4276 N 403.521 0.559213 -1.47345 0
M  V30 4277 C 404.767 1.31614 -1.55079 0
M  V30 4278 C 405.122 1.91257 -0.209422 0
M  V30 4279 O 404.415 1.74796 0.784656 0
M  V30 4280 C 404.609 2.44853 -2.6035 0
M  V30 4281 C 404.438 1.96305 -4.04591 0
M  V30 4282 C 403.208 1.8024 -4.72061 0
M  V30 4283 C 405.406 1.50872 -4.91673 0
M  V30 4284 N 403.388 1.26011 -6.00828 0
M  V30 4285 C 404.759 1.08395 -6.10451 0
M  V30 4286 C 406.814 1.38905 -4.78132 0
M  V30 4287 C 405.517 0.551399 -7.17183 0
M  V30 4288 C 407.543 0.870518 -5.84958 0
M  V30 4289 C 406.905 0.455661 -7.02925 0
M  V30 4290 H 403.004 0.473712 -0.62219 0
M  V30 4291 H 405.588 0.634103 -1.84085 0
M  V30 4292 H 403.759 3.10589 -2.33215 0
M  V30 4293 H 405.491 3.11849 -2.57938 0
M  V30 4294 H 402.246 2.02895 -4.27937 0
M  V30 4295 H 402.67 1.00991 -6.69425 0
M  V30 4296 H 407.312 1.69591 -3.87297 0
M  V30 4297 H 405.03 0.232159 -8.07766 0
M  V30 4298 H 408.616 0.781507 -5.76527 0
M  V30 4299 H 407.496 0.0606414 -7.84177 0
M  V30 4300 N 404.999 1.35443 0.805782 0
M  V30 4301 C 406.415 1.15499 1.10146 0
M  V30 4302 C 406.615 -0.0319975 2.01475 0
M  V30 4303 O 405.671 -0.70236 2.42535 0
M  V30 4304 C 406.984 2.45833 1.73166 0
M  V30 4305 C 408.532 2.52047 1.85583 0
M  V30 4306 C 409.007 3.82427 2.52019 0
M  V30 4307 N 410.498 3.83682 2.59504 0
M  V30 4308 C 411.233 4.81294 3.11679 0
M  V30 4309 N 410.729 5.89294 3.64287 0
M  V30 4310 N 412.522 4.6873 3.1024 0
M  V30 4311 H 404.673 2.11469 0.198678 0
M  V30 4312 H 406.936 0.93594 0.150731 0
M  V30 4313 H 406.642 3.32874 1.13526 0
M  V30 4314 H 406.516 2.6044 2.72857 0
M  V30 4315 H 408.903 1.65435 2.44367 0
M  V30 4316 H 408.984 2.41354 0.847455 0
M  V30 4317 H 408.628 4.69437 1.93885 0
M  V30 4318 H 408.558 3.90409 3.53395 0
M  V30 4319 H 411.049 3.05648 2.22234 0
M  V30 4320 H 411.362 6.59768 4.02401 0
M  V30 4321 H 409.707 5.92985 3.62483 0
M  V30 4322 H 412.898 3.83496 2.68419 0
M  V30 4323 H 413.071 5.44965 3.50596 0
M  V30 4324 N 406.477 -1.02803 1.19454 0
M  V30 4325 C 407.707 -1.79581 1.02149 0
M  V30 4326 C 408.115 -1.84182 -0.432851 0
M  V30 4327 O 407.458 -1.28534 -1.31243 0
M  V30 4328 C 407.52 -3.25993 1.51554 0
M  V30 4329 C 407.184 -3.45025 2.99678 0
M  V30 4330 C 408.181 -3.35175 3.97434 0
M  V30 4331 C 405.866 -3.71212 3.38389 0
M  V30 4332 C 407.86 -3.51238 5.31893 0
M  V30 4333 C 405.547 -3.8692 4.73008 0
M  V30 4334 C 406.545 -3.76936 5.69569 0
M  V30 4335 O 406.233 -3.92179 7.01748 0
M  V30 4336 H 405.965 -0.571962 0.360327 0
M  V30 4337 H 408.519 -1.30367 1.58725 0
M  V30 4338 H 406.749 -3.76235 0.893543 0
M  V30 4339 H 408.438 -3.84368 1.30444 0
M  V30 4340 H 409.204 -3.14895 3.68872 0
M  V30 4341 H 405.083 -3.78075 2.6378 0
M  V30 4342 H 408.627 -3.43362 6.07247 0
M  V30 4343 H 404.524 -4.06699 5.01265 0
M  V30 4344 H 405.292 -4.09265 7.08833 0
M  V30 4345 N 407.956 -0.998596 -1.21925 0
M  V30 4346 C 408.888 -0.511879 -2.23411 0
M  V30 4347 C 409.901 0.396094 -1.57908 0
M  V30 4348 O 411.09 0.197316 -1.77406 0
M  V30 4349 C 408.19 0.276802 -3.37768 0
M  V30 4350 C 407.363 -0.628687 -4.32858 0
M  V30 4351 C 406.422 0.109272 -5.26087 0
M  V30 4352 O 405.448 -0.507237 -5.66935 0
M  V30 4353 N 406.65 1.38983 -5.63617 0
M  V30 4354 H 409.415 -1.38457 -2.658 0
M  V30 4355 H 406.976 -0.873981 -1.36283 0
M  V30 4356 H 408.968 0.77928 -3.97126 0
M  V30 4357 H 407.538 1.05063 -2.94415 0
M  V30 4358 H 406.758 -1.31175 -3.71735 0
M  V30 4359 H 408.046 -1.24514 -4.93329 0
M  V30 4360 H 407.444 1.91194 -5.32411 0
M  V30 4361 H 406.001 1.83739 -6.25367 0
M  V30 4362 N 409.434 1.37368 -0.772513 0
M  V30 4363 C 410.683 1.98918 -0.333861 0
M  V30 4364 C 410.996 1.62017 1.09589 0
M  V30 4365 O 412.202 2.16676 1.63596 0
M  V30 4366 C 410.658 3.55735 -0.545971 0
M  V30 4367 C 410.266 4.01573 -1.98603 0
M  V30 4368 C 412.01 4.24156 -0.170979 0
M  V30 4369 C 409.917 5.51102 -2.1457 0
M  V30 4370 H 408.847 0.744214 -0.121085 0
M  V30 4371 H 411.498 1.56888 -0.95175 0
M  V30 4372 H 409.88 3.95748 0.141387 0
M  V30 4373 H 411.054 3.72803 -2.7084 0
M  V30 4374 H 409.369 3.45937 -2.31769 0
M  V30 4375 H 411.966 5.34024 -0.26878 0
M  V30 4376 H 412.309 4.06917 0.878855 0
M  V30 4377 H 412.842 3.89447 -0.810914 0
M  V30 4378 H 409.581 5.73268 -3.17875 0
M  V30 4379 H 409.101 5.81554 -1.46817 0
M  V30 4380 H 410.78 6.17083 -1.94468 0
M  V30 4381 N 410.912 0.523116 1.48665 0
M  V30 4382 C 412.323 0.0808997 1.86525 0
M  V30 4383 C 412.674 -1.33975 1.43336 0
M  V30 4384 O 411.799 -2.00221 0.821009 0
M  V30 4385 C 412.394 0.140037 3.3851 0
M  V30 4386 C 410.953 -0.246948 3.75589 0
M  V30 4387 C 410.1 0.502845 2.72703 0
M  V30 4388 H 413.051 0.734736 1.40667 0
M  V30 4389 H 413.072 -0.649945 3.74908 0
M  V30 4390 H 412.584 1.17412 3.69914 0
M  V30 4391 H 410.685 -1.28343 3.49798 0
M  V30 4392 H 410.798 0.0878859 4.79019 0
M  V30 4393 H 409.162 -0.0500581 2.54651 0
M  V30 4394 H 409.945 1.53743 3.0695 0
M  V30 4395 N 412.39 -1.55475 0.257931 0
M  V30 4396 C 413.353 -2.20551 -0.623706 0
M  V30 4397 C 414.353 -1.17809 -1.09443 0
M  V30 4398 O 415.543 -1.42823 -0.997362 0
M  V30 4399 C 412.675 -2.85784 -1.8585 0
M  V30 4400 H 413.868 -2.99848 -0.0557743 0
M  V30 4401 H 411.421 -1.56298 0.0084422 0
M  V30 4402 H 412.156 -2.10453 -2.46739 0
M  V30 4403 H 411.941 -3.61057 -1.52907 0
M  V30 4404 H 413.431 -3.35553 -2.48584 0
M  V30 4405 N 413.868 0.0150385 -1.57593 0
M  V30 4406 C 414.798 1.01047 -2.10503 0
M  V30 4407 C 415.779 1.36816 -1.01071 0
M  V30 4408 O 416.964 1.45455 -1.28672 0
M  V30 4409 C 414.094 2.30708 -2.59598 0
M  V30 4410 C 413.048 2.09142 -3.73421 0
M  V30 4411 C 412.374 3.44685 -4.08774 0
M  V30 4412 C 413.674 1.46619 -5.01298 0
M  V30 4413 H 415.368 0.569978 -2.93925 0
M  V30 4414 H 412.914 0.272724 -1.41394 0
M  V30 4415 H 414.867 3.00687 -2.95238 0
M  V30 4416 H 413.591 2.76843 -1.73279 0
M  V30 4417 H 412.25 1.41592 -3.38153 0
M  V30 4418 H 411.898 3.88495 -3.195 0
M  V30 4419 H 411.598 3.31077 -4.8545 0
M  V30 4420 H 413.122 4.16004 -4.4696 0
M  V30 4421 H 414.536 2.06535 -5.34805 0
M  V30 4422 H 412.933 1.43544 -5.82679 0
M  V30 4423 H 414.003 0.433611 -4.82957 0
M  V30 4424 N 415.346 1.54954 0.287554 0
M  V30 4425 C 416.309 1.86076 1.33823 0
M  V30 4426 C 417.309 0.734414 1.43049 0
M  V30 4427 O 418.499 1.00266 1.42452 0
M  V30 4428 C 415.631 2.05305 2.72144 0
M  V30 4429 H 416.824 2.79984 1.07465 0
M  V30 4430 H 414.377 1.47223 0.524902 0
M  V30 4431 H 415.112 1.1373 3.03704 0
M  V30 4432 H 414.897 2.873 2.66836 0
M  V30 4433 H 416.387 2.30706 3.48087 0
M  V30 4434 N 416.824 -0.551391 1.4764 0
M  V30 4435 C 417.756 -1.67333 1.56628 0
M  V30 4436 C 418.769 -1.56398 0.452045 0
M  V30 4437 O 419.958 -1.6325 0.721926 0
M  V30 4438 C 417.058 -3.05841 1.45994 0
M  V30 4439 C 416.231 -3.42472 2.72088 0
M  V30 4440 C 415.29 -4.60168 2.55209 0
M  V30 4441 O 414.316 -4.64458 3.2904 0
M  V30 4442 N 415.518 -5.57024 1.63416 0
M  V30 4443 H 418.283 -1.60066 2.53375 0
M  V30 4444 H 415.844 -0.738169 1.44093 0
M  V30 4445 H 417.836 -3.8242 1.32428 0
M  V30 4446 H 416.406 -3.07302 0.573071 0
M  V30 4447 H 415.626 -2.55284 3.00373 0
M  V30 4448 H 416.914 -3.63723 3.55785 0
M  V30 4449 H 416.312 -5.56319 1.02594 0
M  V30 4450 H 414.869 -6.32906 1.558 0
M  V30 4451 N 418.302 -1.35869 -0.798587 0
M  V30 4452 C 419.265 -1.29307 -1.89242 0
M  V30 4453 C 420.265 -0.202747 -1.59517 0
M  V30 4454 O 421.455 -0.456957 -1.681 0
M  V30 4455 C 418.587 -1.00229 -3.25833 0
M  V30 4456 H 419.78 -2.26576 -1.96478 0
M  V30 4457 H 417.333 -1.20509 -0.995358 0
M  V30 4458 H 418.068 -0.033801 -3.24282 0
M  V30 4459 H 417.853 -1.79121 -3.48795 0
M  V30 4460 H 419.343 -0.98219 -4.05885 0
M  V30 4461 N 419.78 1.02168 -1.19998 0
M  V30 4462 C 421.028 1.75338 -1.00504 0
M  V30 4463 C 421.349 1.89387 0.464506 0
M  V30 4464 O 420.619 1.43268 1.33608 0
M  V30 4465 H 419.199 0.649564 -0.368885 0
M  V30 4466 H 421.861 1.23205 -1.51018 0
M  V30 4467 H 420.957 2.75892 -1.45912 0
M  V30 4468 N 421.258 1.00505 1.21394 0
M  V30 4469 C 422.488 0.705584 1.94178 0
M  V30 4470 C 422.896 -0.735846 1.74304 0
M  V30 4471 O 422.239 -1.50954 1.04683 0
M  V30 4472 C 422.301 0.94689 3.46806 0
M  V30 4473 C 421.965 2.37517 3.90429 0
M  V30 4474 C 422.962 3.35539 3.97127 0
M  V30 4475 C 420.647 2.71284 4.22742 0
M  V30 4476 C 422.641 4.65395 4.3553 0
M  V30 4477 C 420.328 4.01356 4.60822 0
M  V30 4478 C 421.326 4.98223 4.67186 0
M  V30 4479 O 421.014 6.25969 5.04399 0
M  V30 4480 H 420.746 0.259216 0.624326 0
M  V30 4481 H 423.3 1.34592 1.55159 0
M  V30 4482 H 421.53 0.249386 3.85895 0
M  V30 4483 H 423.219 0.640804 4.0081 0
M  V30 4484 H 423.985 3.10786 3.7234 0
M  V30 4485 H 419.864 1.96581 4.16985 0
M  V30 4486 H 423.408 5.41002 4.40412 0
M  V30 4487 H 419.305 4.25893 4.85063 0
M  V30 4488 H 420.073 6.30085 5.22431 0
M  V30 4489 N 422.737 -1.36956 0.779787 0
M  V30 4490 C 424.153 -1.52817 0.460342 0
M  V30 4491 C 424.353 -1.7361 -1.02283 0
M  V30 4492 O 423.409 -1.76207 -1.80852 0
M  V30 4493 C 424.722 -2.71983 1.28241 0
M  V30 4494 C 426.27 -2.85849 1.27512 0
M  V30 4495 C 426.745 -4.08008 2.08072 0
M  V30 4496 N 428.236 -4.15135 2.05467 0
M  V30 4497 C 428.971 -5.08711 2.64577 0
M  V30 4498 N 428.467 -6.07792 3.32506 0
M  V30 4499 N 430.26 -5.01254 2.54363 0
M  V30 4500 H 422.411 -1.21713 1.74068 0
M  V30 4501 H 424.674 -0.593294 0.739396 0
M  V30 4502 H 424.38 -2.63109 2.33381 0
M  V30 4503 H 424.254 -3.65882 0.917088 0
M  V30 4504 H 426.641 -2.94189 0.231686 0
M  V30 4505 H 426.722 -1.92886 1.68014 0
M  V30 4506 H 426.366 -4.00429 3.12441 0
M  V30 4507 H 426.296 -5.001 1.64947 0
M  V30 4508 H 428.787 -3.44189 1.5602 0
M  V30 4509 H 429.1 -6.75739 3.74963 0
M  V30 4510 H 427.445 -6.08047 3.36606 0
M  V30 4511 H 430.636 -4.22795 2.00902 0
M  V30 4512 H 430.809 -5.73995 3.00722 0
M  V30 4513 N 424.215 -0.530993 -1.48385 0
M  V30 4514 C 425.461 0.00274135 -2.028 0
M  V30 4515 C 425.794 1.33838 -1.40716 0
M  V30 4516 O 425.069 1.86465 -0.553277 0
M  V30 4517 C 425.352 0.123676 -3.59888 0
M  V30 4518 C 425.205 -1.2372 -4.3245 0
M  V30 4519 C 426.524 0.849967 -4.31814 0
M  V30 4520 H 423.643 -0.000477758 -0.737 0
M  V30 4521 H 426.285 -0.688217 -1.77098 0
M  V30 4522 H 424.435 0.712157 -3.81917 0
M  V30 4523 H 426.107 -1.86687 -4.21836 0
M  V30 4524 H 424.35 -1.81882 -3.93829 0
M  V30 4525 H 425.021 -1.10557 -5.40815 0
M  V30 4526 H 427.497 0.350572 -4.14621 0
M  V30 4527 H 426.373 0.903486 -5.41413 0
M  V30 4528 H 426.634 1.90047 -3.99167 0
M  V30 4529 N 425.693 1.55336 -0.266172 0
M  V30 4530 C 426.623 2.25146 0.618981 0
M  V30 4531 C 427.604 1.23845 1.16604 0
M  V30 4532 O 428.789 1.52544 1.20183 0
M  V30 4533 C 425.919 2.96572 1.80728 0
M  V30 4534 C 424.873 4.04726 1.39215 0
M  V30 4535 C 424.199 4.63678 2.66283 0
M  V30 4536 C 425.499 5.19407 0.548942 0
M  V30 4537 H 427.193 2.99377 0.0368116 0
M  V30 4538 H 424.739 1.43991 0.0162651 0
M  V30 4539 H 426.692 3.44116 2.43232 0
M  V30 4540 H 425.416 2.19861 2.41514 0
M  V30 4541 H 424.075 3.57979 0.790351 0
M  V30 4542 H 423.723 3.83646 3.25308 0
M  V30 4543 H 423.423 5.367 2.39222 0
M  V30 4544 H 424.947 5.13967 3.29651 0
M  V30 4545 H 426.361 5.63059 1.07876 0
M  V30 4546 H 424.758 5.98936 0.373593 0
M  V30 4547 H 425.828 4.8295 -0.434394 0
M  V30 4548 N 427.171 -0.0066808 1.57599 0
M  V30 4549 C 428.134 -0.985035 2.06953 0
M  V30 4550 C 429.134 -1.27663 0.977687 0
M  V30 4551 O 430.324 -1.22293 1.24057 0
M  V30 4552 C 427.456 -2.3118 2.50536 0
M  V30 4553 H 428.649 -0.558255 2.94658 0
M  V30 4554 H 426.202 -0.254011 1.54222 0
M  V30 4555 H 426.937 -2.78561 1.66054 0
M  V30 4556 H 426.722 -2.11338 3.3027 0
M  V30 4557 H 428.212 -3.01377 2.8907 0
M  V30 4558 N 428.649 -1.55105 -0.279332 0
M  V30 4559 C 429.582 -1.82467 -1.37044 0
M  V30 4560 C 430.56 -0.677261 -1.47824 0
M  V30 4561 O 431.744 -0.919578 -1.64548 0
M  V30 4562 C 428.871 -1.98066 -2.7475 0
M  V30 4563 C 427.917 -3.20594 -2.81286 0
M  V30 4564 S 428.75 -4.78116 -2.41175 0
M  V30 4565 C 429.906 -4.9668 -3.80867 0
M  V30 4566 H 430.139 -2.74728 -1.1363 0
M  V30 4567 H 427.672 -1.46794 -0.478625 0
M  V30 4568 H 429.63 -2.07739 -3.54055 0
M  V30 4569 H 428.291 -1.06704 -2.9542 0
M  V30 4570 H 427.484 -3.28376 -3.82341 0
M  V30 4571 H 427.086 -3.09479 -2.09996 0
M  V30 4572 H 429.378 -4.82033 -4.76078 0
M  V30 4573 H 430.321 -5.98741 -3.78041 0
M  V30 4574 H 430.729 -4.24698 -3.71876 0
M  V30 4575 N 430.127 0.543554 -1.4793 0
M  V30 4576 C 431.404 1.30458 -1.4574 0
M  V30 4577 C 431.784 2.1048 -0.161692 0
M  V30 4578 O 431.132 2.11831 0.856734 0
M  V30 4579 C 431.342 2.19754 -2.71126 0
M  V30 4580 C 432.69 2.80334 -3.18901 0
M  V30 4581 O 433.714 2.30049 -2.71948 0
M  V30 4582 O 432.573 3.71766 -4.00565 0
M  V30 4583 H 429.667 0.588117 -0.581418 0
M  V30 4584 H 432.213 0.561328 -1.60147 0
M  V30 4585 H 430.985 1.60316 -3.56952 0
M  V30 4586 H 430.608 3.01351 -2.59371 0
M  V30 4587 N 431.605 1.3629 0.791371 0
M  V30 4588 C 432.538 1.24816 1.9104 0
M  V30 4589 C 433.516 0.132739 1.62057 0
M  V30 4590 O 434.7 0.303527 1.8604 0
M  V30 4591 C 431.827 0.925355 3.25814 0
M  V30 4592 C 430.873 2.05495 3.7373 0
M  V30 4593 S 431.706 3.67255 3.89723 0
M  V30 4594 C 432.862 3.37084 5.27376 0
M  V30 4595 H 433.095 2.19533 2.00481 0
M  V30 4596 H 430.628 1.21684 0.950393 0
M  V30 4597 H 432.586 0.745924 4.03666 0
M  V30 4598 H 431.247 -0.00400098 3.141 0
M  V30 4599 H 430.44 1.7836 4.71385 0
M  V30 4600 H 430.042 2.1935 3.02922 0
M  V30 4601 H 432.334 2.90856 6.1189 0
M  V30 4602 H 433.277 4.33995 5.59512 0
M  V30 4603 H 433.685 2.7248 4.94383 0
M  V30 4604 N 433.083 -1.0153 1.20538 0
M  V30 4605 C 434.03 -2.10098 0.955383 0
M  V30 4606 C 435 -1.65702 -0.114878 0
M  V30 4607 O 436.185 -1.90776 0.0301118 0
M  V30 4608 C 433.325 -3.41236 0.514969 0
M  V30 4609 C 432.438 -3.99102 1.65353 0
M  V30 4610 C 431.573 -5.18306 1.16329 0
M  V30 4611 C 430.612 -5.68258 2.27485 0
M  V30 4612 N 429.749 -6.78722 1.7967 0
M  V30 4613 H 434.589 -2.30818 1.88486 0
M  V30 4614 H 432.126 -1.13189 0.939499 0
M  V30 4615 H 434.084 -4.16504 0.240935 0
M  V30 4616 H 432.714 -3.20585 -0.377512 0
M  V30 4617 H 431.766 -3.20918 2.04245 0
M  V30 4618 H 433.078 -4.32177 2.49047 0
M  V30 4619 H 432.232 -6.00782 0.845302 0
M  V30 4620 H 430.971 -4.86799 0.296254 0
M  V30 4621 H 429.976 -4.84385 2.60099 0
M  V30 4622 H 431.201 -6.01798 3.14667 0
M  V30 4623 H 429.147 -6.49042 0.95295 0
M  V30 4624 H 429.064 -7.10996 2.56944 0
M  V30 4625 H 430.332 -7.64759 1.50875 0
M  V30 4626 N 434.561 -1.01147 -1.20859 0
M  V30 4627 C 435.809 -0.696486 -1.89719 0
M  V30 4628 C 436.13 0.775788 -1.78904 0
M  V30 4629 O 435.4 1.55759 -1.18811 0
M  V30 4630 H 433.98 -0.254628 -0.702263 0
M  V30 4631 H 436.642 -1.28197 -1.46804 0
M  V30 4632 H 435.738 -0.975357 -2.96468 0
M  V30 4633 N 436.039 1.36541 -0.78704 0
M  V30 4634 C 437.269 2.03266 -0.369662 0
M  V30 4635 C 437.677 1.59481 1.01796 0
M  V30 4636 O 437.02 0.778612 1.66383 0
M  V30 4637 C 437.082 3.57779 -0.351371 0
M  V30 4638 C 436.746 4.24756 -1.68617 0
M  V30 4639 C 437.743 4.47811 -2.64124 0
M  V30 4640 C 435.428 4.62277 -1.96481 0
M  V30 4641 C 437.422 5.07464 -3.85693 0
M  V30 4642 C 435.109 5.21649 -3.18317 0
M  V30 4643 C 436.107 5.44182 -4.12741 0
M  V30 4644 O 435.795 6.02307 -5.32429 0
M  V30 4645 H 435.527 0.658977 -0.150751 0
M  V30 4646 H 438.081 1.75548 -1.0664 0
M  V30 4647 H 436.311 3.84606 0.401847 0
M  V30 4648 H 438 4.05879 0.0410147 0
M  V30 4649 H 438.766 4.19221 -2.43883 0
M  V30 4650 H 434.645 4.44065 -1.23805 0
M  V30 4651 H 438.189 5.24968 -4.59407 0
M  V30 4652 H 434.086 5.49664 -3.38437 0
M  V30 4653 H 434.854 6.20775 -5.33461 0
M  V30 4654 N 437.518 0.538854 1.48102 0
M  V30 4655 C 438.766 0.00798599 2.02098 0
M  V30 4656 C 439.087 -1.33922 1.41739 0
M  V30 4657 O 438.357 -1.86932 0.585934 0
M  V30 4658 H 436.937 -3.62179e-05 0.747 0
M  V30 4659 H 439.599 0.7047 1.81714 0
M  V30 4660 H 438.695 -0.0937672 3.11959 0
M  V30 4661 N 438.996 -1.55193 0.274407 0
M  V30 4662 C 439.906 -2.26164 -0.623473 0
M  V30 4663 C 440.922 -1.28729 -1.17068 0
M  V30 4664 O 442.098 -1.61663 -1.20112 0
M  V30 4665 C 439.163 -2.96833 -1.7914 0
M  V30 4666 C 438.224 -4.09745 -1.28093 0
M  V30 4667 C 437.457 -4.77034 -2.3932 0
M  V30 4668 O 437.68 -4.4353 -3.5866 0
M  V30 4669 O 436.614 -5.64996 -2.07516 0
M  V30 4670 H 440.44 -3.03661 -0.0485661 0
M  V30 4671 H 438.025 -1.49341 0.0418382 0
M  V30 4672 H 439.907 -3.41248 -2.4724 0
M  V30 4673 H 438.582 -2.22253 -2.35341 0
M  V30 4674 H 437.489 -3.69787 -0.566416 0
M  V30 4675 H 438.822 -4.86224 -0.764683 0
M  V30 4676 N 440.474 -0.00167713 -1.576 0
M  V30 4677 C 441.699 0.69739 -1.95323 0
M  V30 4678 C 442.124 1.6642 -0.876706 0
M  V30 4679 O 441.482 1.80548 0.165007 0
M  V30 4680 C 441.53 1.40403 -3.32144 0
M  V30 4681 O 440.634 2.5185 -3.26566 0
M  V30 4682 H 439.975 0.185373 -0.637599 0
M  V30 4683 H 442.505 -0.0553665 -2.04525 0
M  V30 4684 H 442.515 1.76707 -3.67748 0
M  V30 4685 H 441.19 0.695167 -4.10049 0
M  V30 4686 H 439.767 2.17861 -3.0264 0
M  V30 4687 N 441.952 1.55251 0.271103 0
M  V30 4688 C 443.177 1.80306 1.02491 0
M  V30 4689 C 443.602 0.575457 1.79081 0
M  V30 4690 O 442.96 -0.474987 1.74967 0
M  V30 4691 C 443.008 3.02832 1.95768 0
M  V30 4692 O 442.112 2.78051 3.04568 0
M  V30 4693 H 441.453 0.595896 0.292923 0
M  V30 4694 H 443.983 2.02397 0.299436 0
M  V30 4695 H 443.993 3.31616 2.37686 0
M  V30 4696 H 442.668 3.9183 1.39434 0
M  V30 4697 H 441.245 2.60369 2.66951 0
M  V30 4698 N 443.43 -0.535701 1.48216 0
M  V30 4699 C 444.393 -1.623 1.61838 0
M  V30 4700 C 445.393 -1.53087 0.492024 0
M  V30 4701 O 446.583 -1.5686 0.757668 0
M  V30 4702 C 443.715 -3.01907 1.58319 0
M  V30 4703 H 444.908 -1.51564 2.58783 0
M  V30 4704 H 442.461 -0.757317 1.36727 0
M  V30 4705 H 443.196 -3.18155 0.628299 0
M  V30 4706 H 442.981 -3.10003 2.40085 0
M  V30 4707 H 444.471 -3.80969 1.71033 0
M  V30 4708 N 444.908 -1.36708 -0.784132 0
M  V30 4709 C 446.319 -1.27947 -1.35965 0
M  V30 4710 C 446.67 0.0784013 -1.96043 0
M  V30 4711 O 445.795 0.979989 -1.92938 0
M  V30 4712 C 446.39 -2.31689 -2.47195 0
M  V30 4713 C 444.949 -2.26601 -3.00548 0
M  V30 4714 C 444.096 -2.16184 -1.73666 0
M  V30 4715 H 447.047 -1.4751 -0.585358 0
M  V30 4716 H 447.068 -1.95638 -3.26352 0
M  V30 4717 H 446.58 -3.30506 -2.03439 0
M  V30 4718 H 444.681 -1.31268 -3.48711 0
M  V30 4719 H 444.794 -3.19508 -3.57004 0
M  V30 4720 H 443.158 -1.62524 -1.96107 0
M  V30 4721 H 443.941 -3.16896 -1.32031 0
M  V30 4722 N 446.386 1.0089 -1.21074 0
M  V30 4723 C 447.797 1.56056 -1.02486 0
M  V30 4724 C 448.148 1.91728 0.416506 0
M  V30 4725 O 447.273 1.73066 1.29912 0
M  V30 4726 C 447.868 2.83563 -1.85411 0
M  V30 4727 C 446.427 3.3523 -1.71166 0
M  V30 4728 C 445.574 2.0846 -1.82865 0
M  V30 4729 H 448.525 0.831818 -1.35154 0
M  V30 4730 H 448.546 3.55286 -1.36205 0
M  V30 4731 H 448.058 2.57569 -2.9031 0
M  V30 4732 H 446.159 3.66167 -0.689361 0
M  V30 4733 H 446.272 4.06913 -2.52901 0
M  V30 4734 H 444.636 2.21275 -1.26132 0
M  V30 4735 H 445.419 1.84883 -2.89263 0
M  V30 4736 N 447.864 1.01787 1.20321 0
M  V30 4737 C 448.774 0.598898 2.26827 0
M  V30 4738 C 449.79 -0.36418 1.70146 0
M  V30 4739 O 450.966 -0.224812 2.00141 0
M  V30 4740 C 448.031 -0.0549769 3.46656 0
M  V30 4741 C 447.092 0.954205 4.18561 0
M  V30 4742 C 446.325 0.331439 5.3267 0
M  V30 4743 O 446.548 -0.86851 5.63749 0
M  V30 4744 O 445.482 1.0488 5.92692 0
M  V30 4745 H 449.308 1.48562 2.64883 0
M  V30 4746 H 446.893 0.787434 1.26964 0
M  V30 4747 H 448.775 -0.420102 4.19301 0
M  V30 4748 H 447.45 -0.915876 3.10473 0
M  V30 4749 H 446.357 1.37072 3.48083 0
M  V30 4750 H 447.69 1.78511 4.58688 0
M  V30 4751 N 449.342 -1.36122 0.79427 0
M  V30 4752 C 450.591 -1.98361 0.365464 0
M  V30 4753 C 450.904 -1.6374 -1.06997 0
M  V30 4754 O 452.11 -2.19251 -1.60129 0
M  V30 4755 C 450.566 -3.54821 0.602496 0
M  V30 4756 C 450.174 -3.98362 2.04967 0
M  V30 4757 C 451.918 -4.2383 0.238437 0
M  V30 4758 C 449.825 -5.47619 2.2331 0
M  V30 4759 H 448.755 -0.742193 0.13291 0
M  V30 4760 H 451.406 -1.55354 0.976589 0
M  V30 4761 H 449.788 -3.95922 -0.078409 0
M  V30 4762 H 450.962 -3.68447 2.76737 0
M  V30 4763 H 449.277 -3.42206 2.37243 0
M  V30 4764 H 451.874 -5.33529 0.353705 0
M  V30 4765 H 452.217 -4.08264 -0.814006 0
M  V30 4766 H 452.75 -3.88108 0.872769 0
M  V30 4767 H 449.489 -5.68138 3.26955 0
M  V30 4768 H 449.009 -5.79145 1.5605 0
M  V30 4769 H 450.688 -6.13911 2.0426 0
M  V30 4770 N 450.82 -0.546701 -1.47814 0
M  V30 4771 C 451.73 0.21026 -2.33656 0
M  V30 4772 C 452.746 0.922413 -1.47538 0
M  V30 4773 O 453.922 0.893652 -1.80488 0
M  V30 4774 C 450.987 1.23348 -3.24016 0
M  V30 4775 C 450.048 0.529883 -4.26017 0
M  V30 4776 C 449.281 1.50435 -5.12059 0
M  V30 4777 O 449.504 2.73837 -5.00369 0
M  V30 4778 O 448.438 1.03459 -5.92942 0
M  V30 4779 H 452.264 -0.493605 -2.99662 0
M  V30 4780 H 449.849 -0.307427 -1.46203 0
M  V30 4781 H 451.731 1.82438 -3.79861 0
M  V30 4782 H 450.406 1.91945 -2.60651 0
M  V30 4783 H 449.313 -0.101948 -3.73961 0
M  V30 4784 H 450.646 -0.11445 -4.92067 0
M  V30 4785 N 452.299 1.55045 -0.282633 0
M  V30 4786 C 453.209 2.26491 0.61147 0
M  V30 4787 C 454.225 1.29348 1.16384 0
M  V30 4788 O 455.401 1.62298 1.19253 0
M  V30 4789 C 452.466 2.97779 1.77563 0
M  V30 4790 C 451.527 4.10418 1.25919 0
M  V30 4791 C 450.76 4.78297 2.36786 0
M  V30 4792 O 450.983 4.45426 3.56303 0
M  V30 4793 O 449.917 5.66089 2.04517 0
M  V30 4794 H 453.743 3.03683 0.0324615 0
M  V30 4795 H 451.328 1.49317 -0.0497576 0
M  V30 4796 H 453.21 3.42554 2.45427 0
M  V30 4797 H 451.885 2.23498 2.34159 0
M  V30 4798 H 450.792 3.70082 0.546797 0
M  V30 4799 H 452.125 4.86622 0.738887 0
M  V30 4800 N 453.777 0.010035 1.57597 0
M  V30 4801 C 455.007 -0.682422 1.95004 0
M  V30 4802 C 455.415 -1.67278 0.884014 0
M  V30 4803 O 454.758 -1.83129 -0.144672 0
M  V30 4804 C 454.82 -1.46141 3.28456 0
M  V30 4805 C 454.484 -0.631523 4.52615 0
M  V30 4806 C 455.481 0.0850905 5.1983 0
M  V30 4807 C 453.166 -0.574539 4.99003 0
M  V30 4808 C 455.16 0.847566 6.3174 0
M  V30 4809 C 452.847 0.191655 6.10799 0
M  V30 4810 C 453.845 0.901432 6.77025 0
M  V30 4811 O 453.533 1.65511 7.86677 0
M  V30 4812 H 453.265 -0.194361 0.647456 0
M  V30 4813 H 455.819 0.060312 2.05311 0
M  V30 4814 H 454.049 -2.24885 3.14585 0
M  V30 4815 H 455.738 -2.04016 3.50902 0
M  V30 4816 H 456.504 0.0502812 4.84974 0
M  V30 4817 H 452.383 -1.11654 4.47274 0
M  V30 4818 H 455.927 1.4021 6.83364 0
M  V30 4819 H 451.824 0.228249 6.45096 0
M  V30 4820 H 452.592 1.57287 8.03245 0
M  V30 4821 N 455.255 -1.55392 -0.262866 0
M  V30 4822 C 456.495 -1.78231 -1.00064 0
M  V30 4823 C 456.859 -0.576966 -1.83126 0
M  V30 4824 O 458.06 -0.683809 -2.59957 0
M  V30 4825 C 456.331 -3.05701 -1.85153 0
M  V30 4826 S 457.89 -3.49699 -2.65058 0
M  V30 4827 H 454.708 -0.626138 -0.336856 0
M  V30 4828 H 457.31 -1.93626 -0.27005 0
M  V30 4829 H 456.014 -3.91511 -1.23074 0
M  V30 4830 H 455.545 -2.93 -2.62515 0
M  V30 4831 H 457.56 -3.09772 -3.87629 0
M  V30 4832 N 456.733 0.527833 -1.48498 0
M  V30 4833 C 457.666 1.64892 -1.57753 0
M  V30 4834 C 458.644 1.5687 -0.427867 0
M  V30 4835 O 459.828 1.77311 -0.639764 0
M  V30 4836 C 456.955 3.03301 -1.50752 0
M  V30 4837 C 456.001 3.29675 -2.70586 0
M  V30 4838 S 456.834 3.15712 -4.32535 0
M  V30 4839 C 457.99 4.56564 -4.28136 0
M  V30 4840 H 458.223 1.56792 -2.52594 0
M  V30 4841 H 455.756 0.710959 -1.37057 0
M  V30 4842 H 457.714 3.83123 -1.474 0
M  V30 4843 H 456.375 3.08839 -0.572454 0
M  V30 4844 H 455.568 4.3065 -2.61833 0
M  V30 4845 H 455.17 2.57526 -2.71212 0
M  V30 4846 H 457.462 5.48126 -3.98201 0
M  V30 4847 H 458.405 4.70371 -5.29298 0
M  V30 4848 H 458.813 4.35987 -3.58574 0
M  V30 4849 N 458.211 1.37122 0.776871 0
M  V30 4850 C 459.121 1.34651 1.9211 0
M  V30 4851 C 460.137 0.246824 1.7224 0
M  V30 4852 O 461.313 0.48134 1.95563 0
M  V30 4853 C 458.378 1.14748 3.2716 0
M  V30 4854 C 457.439 2.34308 3.5972 0
M  V30 4855 C 456.672 2.15345 4.88326 0
M  V30 4856 O 456.895 1.13507 5.58992 0
M  V30 4857 O 455.829 3.03414 5.1983 0
M  V30 4858 H 459.655 2.31013 1.97146 0
M  V30 4859 H 457.24 1.17799 0.918901 0
M  V30 4860 H 459.122 1.05616 4.0795 0
M  V30 4861 H 457.797 0.214562 3.22988 0
M  V30 4862 H 456.704 2.49011 2.79185 0
M  V30 4863 H 458.037 3.26149 3.68629 0
M  V30 4864 N 459.689 -1.00246 1.21608 0
M  V30 4865 C 460.935 -1.74319 1.03638 0
M  V30 4866 C 461.268 -1.89408 -0.428749 0
M  V30 4867 O 460.543 -1.43026 -1.3181 0
M  V30 4868 C 460.826 -3.15431 1.73711 0
M  V30 4869 C 460.679 -3.08049 3.27759 0
M  V30 4870 C 461.998 -4.14407 1.48173 0
M  V30 4871 H 459.117 -0.632741 0.377899 0
M  V30 4872 H 461.759 -1.16853 1.49818 0
M  V30 4873 H 459.909 -3.64493 1.34452 0
M  V30 4874 H 461.581 -2.66681 3.76403 0
M  V30 4875 H 459.824 -2.45088 3.57931 0
M  V30 4876 H 460.495 -4.07862 3.71958 0
M  V30 4877 H 462.971 -3.74061 1.82258 0
M  V30 4878 H 461.847 -5.11279 1.99713 0
M  V30 4879 H 462.108 -4.40174 0.412273 0
M  V30 4880 N 461.167 -1.02423 -1.1978 0
M  V30 4881 C 462.097 -0.62157 -2.25075 0
M  V30 4882 C 463.078 0.367148 -1.6609 0
M  V30 4883 O 464.263 0.250892 -1.92573 0
M  V30 4884 C 461.393 0.0331826 -3.47284 0
M  V30 4885 C 460.347 -0.877323 -4.18912 0
M  V30 4886 C 459.673 -0.0879296 -5.34628 0
M  V30 4887 C 460.973 -2.18892 -4.74219 0
M  V30 4888 H 462.667 -1.50179 -2.59011 0
M  V30 4889 H 460.213 -0.723547 -1.24502 0
M  V30 4890 H 462.166 0.326488 -4.20133 0
M  V30 4891 H 460.89 0.948164 -3.12534 0
M  V30 4892 H 459.549 -1.15475 -3.47938 0
M  V30 4893 H 459.197 0.828941 -4.96123 0
M  V30 4894 H 458.897 -0.694359 -5.83483 0
M  V30 4895 H 460.421 0.198743 -6.10276 0
M  V30 4896 H 461.835 -1.95746 -5.38847 0
M  V30 4897 H 460.232 -2.74686 -5.33542 0
M  V30 4898 H 461.302 -2.84674 -3.92541 0
M  V30 4899 N 462.645 1.35699 -0.801477 0
M  V30 4900 C 463.885 2.00741 -0.385027 0
M  V30 4901 C 464.249 1.62213 1.02718 0
M  V30 4902 O 465.45 2.19936 1.54537 0
M  V30 4903 C 463.721 3.53032 -0.557057 0
M  V30 4904 S 465.28 4.38195 -0.230272 0
M  V30 4905 H 462.098 0.695748 -0.146477 0
M  V30 4906 H 464.7 1.65378 -1.04261 0
M  V30 4907 H 463.404 3.7856 -1.58494 0
M  V30 4908 H 462.935 3.93229 0.116029 0
M  V30 4909 H 464.95 4.86748 0.963895 0
M  V30 4910 N 464.123 0.554532 1.47522 0
M  V30 4911 C 465.07 -0.19466 2.29978 0
M  V30 4912 C 466.04 -0.910882 1.38896 0
M  V30 4913 O 467.225 -0.907102 1.67858 0
M  V30 4914 C 464.365 -1.22035 3.22802 0
M  V30 4915 C 463.478 -0.510474 4.28973 0
M  V30 4916 C 462.613 -1.52123 5.08952 0
M  V30 4917 C 461.652 -0.796173 6.069 0
M  V30 4918 N 460.789 -1.75363 6.79847 0
M  V30 4919 H 465.629 0.51461 2.93523 0
M  V30 4920 H 463.166 0.265607 1.44682 0
M  V30 4921 H 465.124 -1.8276 3.7504 0
M  V30 4922 H 463.754 -1.89769 2.61127 0
M  V30 4923 H 462.806 0.211234 3.79813 0
M  V30 4924 H 464.118 0.0576503 4.98767 0
M  V30 4925 H 463.272 -2.20207 5.65326 0
M  V30 4926 H 462.011 -2.12327 4.39054 0
M  V30 4927 H 461.016 -0.101388 5.49707 0
M  V30 4928 H 462.241 -0.199911 6.78806 0
M  V30 4929 H 460.187 -2.3443 6.12682 0
M  V30 4930 H 460.104 -1.23759 7.45801 0
M  V30 4931 H 461.372 -2.4257 7.40797 0
M  V30 4932 N 465.601 -1.54893 0.290851 0
M  V30 4933 C 466.511 -2.26812 -0.59945 0
M  V30 4934 C 467.527 -1.29963 -1.15696 0
M  V30 4935 O 468.703 -1.62928 -1.18391 0
M  V30 4936 C 465.768 -2.98716 -1.75982 0
M  V30 4937 C 464.829 -4.1108 -1.2374 0
M  V30 4938 C 464.062 -4.79546 -2.34246 0
M  V30 4939 O 464.285 -4.47309 -3.53936 0
M  V30 4940 O 463.219 -5.67165 -2.01512 0
M  V30 4941 H 467.045 -3.03696 -0.0163561 0
M  V30 4942 H 464.63 -1.49289 0.0576755 0
M  V30 4943 H 466.512 -3.43851 -2.43607 0
M  V30 4944 H 465.187 -2.24737 -2.3297 0
M  V30 4945 H 464.094 -3.70367 -0.527163 0
M  V30 4946 H 465.427 -4.87007 -0.71307 0
M  V30 4947 N 467.08 -0.0183926 -1.57589 0
M  V30 4948 C 468.013 1.00148 -2.0505 0
M  V30 4949 C 468.991 1.32387 -0.944058 0
M  V30 4950 O 470.175 1.44237 -1.21358 0
M  V30 4951 C 467.302 2.32435 -2.46357 0
M  V30 4952 C 466.348 2.15731 -3.67916 0
M  V30 4953 S 467.181 1.46613 -5.15039 0
M  V30 4954 C 468.337 2.80293 -5.59631 0
M  V30 4955 H 468.57 0.597429 -2.91235 0
M  V30 4956 H 466.103 0.193002 -1.53189 0
M  V30 4957 H 468.061 3.0849 -2.70822 0
M  V30 4958 H 466.722 2.69975 -1.60537 0
M  V30 4959 H 465.915 3.13502 -3.9463 0
M  V30 4960 H 465.517 1.4782 -3.43548 0
M  V30 4961 H 467.809 3.76557 -5.63215 0
M  V30 4962 H 468.752 2.58256 -6.59325 0
M  V30 4963 H 469.16 2.85047 -4.87246 0
M  V30 4964 N 468.558 1.5553 0.254621 0
M  V30 4965 C 469.804 1.77262 0.985193 0
M  V30 4966 C 470.137 0.582286 1.85265 0
M  V30 4967 O 469.412 -0.419666 1.89919 0
M  V30 4968 C 469.695 3.0881 1.85225 0
M  V30 4969 C 469.548 4.38233 1.0135 0
M  V30 4970 C 470.867 3.3653 2.83612 0
M  V30 4971 H 467.986 0.644906 0.356742 0
M  V30 4972 H 470.628 1.88264 0.256236 0
M  V30 4973 H 468.778 2.99562 2.47376 0
M  V30 4974 H 470.45 4.59463 0.411269 0
M  V30 4975 H 468.693 4.32636 0.317574 0
M  V30 4976 H 469.364 5.26644 1.65379 0
M  V30 4977 H 471.84 3.45691 2.31596 0
M  V30 4978 H 470.716 4.29805 3.41407 0
M  V30 4979 H 470.977 2.57064 3.59681 0
M  V30 4980 N 470.036 -0.519951 1.48776 0
M  V30 4981 C 471.264 -1.29971 1.60982 0
M  V30 4982 C 471.679 -1.86803 0.273885 0
M  V30 4983 O 471.036 -1.66904 -0.738193 0
M  V30 4984 C 471.087 -2.44346 2.66415 0
M  V30 4985 O 470.808 -1.89855 3.94825 0
M  V30 4986 C 472.309 -3.36014 2.89153 0
M  V30 4987 H 469.529 -0.394891 0.542496 0
M  V30 4988 H 472.073 -0.626214 1.94676 0
M  V30 4989 H 470.228 -3.07562 2.35552 0
M  V30 4990 H 470.642 -2.64798 4.5275 0
M  V30 4991 H 472.116 -4.12593 3.66703 0
M  V30 4992 H 472.593 -3.91859 1.98351 0
M  V30 4993 H 473.199 -2.78582 3.21359 0
M  V30 4994 N 471.514 -1.37532 -0.769588 0
M  V30 4995 C 472.761 -1.3286 -1.52822 0
M  V30 4996 C 473.089 0.0862597 -1.94309 0
M  V30 4997 O 472.344 1.05995 -1.6451 0
M  V30 4998 C 472.643 -2.21558 -2.8044 0
M  V30 4999 C 472.309 -3.69796 -2.57996 0
M  V30 5000 C 470.971 -4.10194 -2.51583 0
M  V30 5001 C 473.323 -4.63699 -2.37976 0
M  V30 5002 C 470.651 -5.42608 -2.23144 0
M  V30 5003 C 473.003 -5.96353 -2.1106 0
M  V30 5004 C 471.667 -6.35853 -2.03093 0
M  V30 5005 H 470.937 -0.486168 -0.559215 0
M  V30 5006 H 473.584 -1.69757 -0.886277 0
M  V30 5007 H 471.889 -1.77663 -3.49204 0
M  V30 5008 H 473.586 -2.15256 -3.38328 0
M  V30 5009 H 470.176 -3.37759 -2.63851 0
M  V30 5010 H 474.36 -4.33346 -2.41919 0
M  V30 5011 H 469.616 -5.72173 -2.15472 0
M  V30 5012 H 473.79 -6.68667 -1.94568 0
M  V30 5013 H 471.417 -7.38382 -1.8082 0
M  V30 5014 N 472.992 0.995999 -1.22138 0
M  V30 5015 C 473.922 2.10387 -1.01289 0
M  V30 5016 C 474.903 1.69975 0.0651454 0
M  V30 5017 O 476.088 1.9396 -0.0964628 0
M  V30 5018 C 473.218 3.42312 -0.586517 0
M  V30 5019 C 472.172 3.96558 -1.61014 0
M  V30 5020 C 471.498 5.24494 -1.0397 0
M  V30 5021 C 472.798 4.27595 -2.99933 0
M  V30 5022 H 474.492 2.28086 -1.93951 0
M  V30 5023 H 472.038 1.09607 -0.933928 0
M  V30 5024 H 473.991 4.19223 -0.427793 0
M  V30 5025 H 472.715 3.24431 0.375761 0
M  V30 5026 H 471.374 3.21776 -1.75658 0
M  V30 5027 H 471.022 5.02953 -0.0688703 0
M  V30 5028 H 470.722 5.61755 -1.72352 0
M  V30 5029 H 472.246 6.04042 -0.892494 0
M  V30 5030 H 473.66 4.95315 -2.8868 0
M  V30 5031 H 472.057 4.76021 -3.6541 0
M  V30 5032 H 473.127 3.35498 -3.50099 0
M  V30 5033 N 474.47 1.03057 1.19235 0
M  V30 5034 C 475.747 0.642608 1.84743 0
M  V30 5035 C 476.127 -0.878577 1.91948 0
M  V30 5036 O 475.475 -1.77597 1.43776 0
M  V30 5037 C 475.685 1.30665 3.23616 0
M  V30 5038 C 477.033 1.43098 3.9976 0
M  V30 5039 O 478.057 1.26396 3.3302 0
M  V30 5040 O 476.916 1.70223 5.19313 0
M  V30 5041 H 474.01 0.223573 0.796206 0
M  V30 5042 H 476.556 1.12883 1.26711 0
M  V30 5043 H 475.328 2.34544 3.13217 0
M  V30 5044 H 474.951 0.808405 3.89295 0
M  V30 5045 N 475.948 -1.35272 0.808662 0
M  V30 5046 C 476.895 -2.29764 0.218482 0
M  V30 5047 C 477.865 -1.52911 -0.648652 0
M  V30 5048 O 479.05 -1.81341 -0.593297 0
M  V30 5049 C 476.19 -3.39388 -0.625282 0
M  V30 5050 C 475.303 -4.31202 0.262516 0
M  V30 5051 C 474.438 -5.27919 -0.589451 0
M  V30 5052 C 473.477 -6.11371 0.298617 0
M  V30 5053 N 472.614 -7.0022 -0.513443 0
M  V30 5054 H 477.454 -2.79645 1.02968 0
M  V30 5055 H 474.991 -1.37629 0.519303 0
M  V30 5056 H 476.949 -4.01615 -1.12966 0
M  V30 5057 H 475.579 -2.90777 -1.40173 0
M  V30 5058 H 474.631 -3.69962 0.885013 0
M  V30 5059 H 475.943 -4.89748 0.945971 0
M  V30 5060 H 475.097 -5.95529 -1.15888 0
M  V30 5061 H 473.836 -4.69875 -1.30647 0
M  V30 5062 H 472.841 -5.42707 0.880301 0
M  V30 5063 H 474.066 -6.71494 1.01352 0
M  V30 5064 H 472.012 -6.44662 -1.21439 0
M  V30 5065 H 471.929 -7.55917 0.111922 0
M  V30 5066 H 473.197 -7.72175 -1.06608 0
M  V30 5067 N 477.426 -0.562348 -1.47226 0
M  V30 5068 C 478.356 0.170627 -2.32876 0
M  V30 5069 C 479.337 0.903748 -1.44106 0
M  V30 5070 O 480.522 0.883206 -1.72954 0
M  V30 5071 C 477.652 1.19786 -3.25989 0
M  V30 5072 C 476.606 0.580875 -4.2404 0
M  V30 5073 C 475.932 1.71311 -5.06514 0
M  V30 5074 C 477.232 -0.468714 -5.20193 0
M  V30 5075 H 478.926 -0.544441 -2.94408 0
M  V30 5076 H 476.472 -0.263271 -1.41573 0
M  V30 5077 H 478.425 1.71884 -3.84752 0
M  V30 5078 H 477.149 1.94294 -2.62521 0
M  V30 5079 H 475.808 0.0811538 -3.6651 0
M  V30 5080 H 475.456 2.44736 -4.39447 0
M  V30 5081 H 475.156 1.30604 -5.72902 0
M  V30 5082 H 476.68 2.23725 -5.68137 0
M  V30 5083 H 478.094 -0.0336028 -5.7329 0
M  V30 5084 H 476.491 -0.794957 -5.94811 0
M  V30 5085 H 477.561 -1.36269 -4.65359 0
M  V30 5086 N 478.904 1.54736 -0.299062 0
M  V30 5087 C 480.152 1.99706 0.31017 0
M  V30 5088 C 480.473 1.18896 1.54559 0
M  V30 5089 O 479.743 0.284445 1.93824 0
M  V30 5090 H 478.323 0.737686 0.117596 0
M  V30 5091 H 480.985 1.9054 -0.409943 0
M  V30 5092 H 480.081 3.06596 0.58355 0
M  V30 5093 N 480.382 0.0267497 1.57577 0
M  V30 5094 C 481.312 -0.954308 2.13108 0
M  V30 5095 C 482.293 -1.34088 1.04663 0
M  V30 5096 O 483.478 -1.41992 1.32484 0
M  V30 5097 C 480.608 -2.23744 2.65624 0
M  V30 5098 C 479.562 -1.99168 3.78835 0
M  V30 5099 C 478.888 -3.33726 4.17769 0
M  V30 5100 C 480.188 -1.33277 5.0501 0
M  V30 5101 H 481.882 -0.491848 2.95332 0
M  V30 5102 H 479.428 -0.23514 1.42067 0
M  V30 5103 H 481.381 -2.92754 3.03106 0
M  V30 5104 H 480.105 -2.72151 1.80558 0
M  V30 5105 H 478.764 -1.32577 3.41788 0
M  V30 5106 H 478.412 -3.79888 3.29688 0
M  V30 5107 H 478.112 -3.18089 4.94058 0
M  V30 5108 H 479.636 -4.04008 4.57832 0
M  V30 5109 H 481.05 -1.92283 5.40093 0
M  V30 5110 H 479.447 -1.28045 5.8628 0
M  V30 5111 H 480.517 -0.305411 4.83937 0
M  V30 5112 N 481.861 -1.55662 -0.24637 0
M  V30 5113 C 483.086 -1.81914 -0.996093 0
M  V30 5114 C 483.511 -0.603875 -1.78143 0
M  V30 5115 O 482.869 0.447091 -1.75701 0
M  V30 5116 C 482.917 -3.05908 -1.90925 0
M  V30 5117 O 482.021 -2.82861 -3.00105 0
M  V30 5118 H 481.362 -0.600481 -0.283406 0
M  V30 5119 H 483.892 -2.02848 -0.267199 0
M  V30 5120 H 483.902 -3.35356 -2.3238 0
M  V30 5121 H 482.577 -3.93999 -1.33183 0
M  V30 5122 H 481.154 -2.64583 -2.62775 0
M  V30 5123 N 483.339 0.512053 -1.4905 0
M  V30 5124 C 484.271 1.63121 -1.6101 0
M  V30 5125 C 485.284 1.55145 -0.493352 0
M  V30 5126 O 486.473 1.61278 -0.764955 0
M  V30 5127 C 483.573 3.01863 -1.54052 0
M  V30 5128 C 482.746 3.35138 -2.81072 0
M  V30 5129 C 481.805 4.5324 -2.67319 0
M  V30 5130 O 480.831 4.55571 -3.41238 0
M  V30 5131 N 482.033 5.52495 -1.78127 0
M  V30 5132 H 484.798 1.53292 -2.5753 0
M  V30 5133 H 482.359 0.699706 -1.45999 0
M  V30 5134 H 484.351 3.78774 -1.42521 0
M  V30 5135 H 482.921 3.05675 -0.654345 0
M  V30 5136 H 482.141 2.4723 -3.07036 0
M  V30 5137 H 483.429 3.54162 -3.65304 0
M  V30 5138 H 482.827 5.53403 -1.17308 0
M  V30 5139 H 481.384 6.28553 -1.72525 0
M  V30 5140 N 484.817 1.37938 0.762283 0
M  V30 5141 C 485.78 1.34279 1.85747 0
M  V30 5142 C 486.78 0.244969 1.58923 0
M  V30 5143 O 487.97 0.501365 1.66829 0
M  V30 5144 C 485.102 1.08833 3.23061 0
M  V30 5145 H 486.295 2.31705 1.90401 0
M  V30 5146 H 483.848 1.23105 0.963057 0
M  V30 5147 H 484.583 0.119767 3.24079 0
M  V30 5148 H 484.368 1.88306 3.43923 0
M  V30 5149 H 485.858 1.08946 4.03138 0
M  V30 5150 N 486.295 -0.989507 1.22664 0
M  V30 5151 C 487.541 -1.7321 1.05481 0
M  V30 5152 C 487.874 -1.89852 -0.408635 0
M  V30 5153 O 487.149 -1.44416 -1.30285 0
M  V30 5154 C 487.432 -3.1357 1.77047 0
M  V30 5155 C 487.285 -3.04555 3.31008 0
M  V30 5156 C 488.604 -4.12812 1.5256 0
M  V30 5157 H 485.723 -0.628697 0.384589 0
M  V30 5158 H 488.365 -1.15258 1.51049 0
M  V30 5159 H 486.515 -3.63046 1.3831 0
M  V30 5160 H 488.187 -2.62674 3.7921 0
M  V30 5161 H 486.43 -2.41278 3.6051 0
M  V30 5162 H 487.101 -4.03894 3.76263 0
M  V30 5163 H 489.577 -3.72106 1.86215 0
M  V30 5164 H 488.453 -5.09132 2.05124 0
M  V30 5165 H 488.714 -4.39711 0.458936 0
M  V30 5166 N 487.773 -1.03688 -1.18687 0
M  V30 5167 C 489.02 -0.73803 -1.88572 0
M  V30 5168 C 489.348 0.733973 -1.8012 0
M  V30 5169 O 488.603 1.55098 -1.19344 0
M  V30 5170 C 488.902 -1.14477 -3.3857 0
M  V30 5171 C 488.568 -2.61641 -3.67226 0
M  V30 5172 C 487.23 -3.01846 -3.74757 0
M  V30 5173 C 489.582 -3.56812 -3.79914 0
M  V30 5174 C 486.91 -4.36118 -3.92451 0
M  V30 5175 C 489.262 -4.90799 -3.99123 0
M  V30 5176 C 487.926 -5.3068 -4.04888 0
M  V30 5177 H 487.196 -0.270064 -0.690034 0
M  V30 5178 H 489.843 -1.3012 -1.40503 0
M  V30 5179 H 488.148 -0.500337 -3.88592 0
M  V30 5180 H 489.845 -0.89095 -3.90977 0
M  V30 5181 H 486.435 -2.29498 -3.61979 0
M  V30 5182 H 490.619 -3.26899 -3.73431 0
M  V30 5183 H 485.875 -4.66542 -3.95157 0
M  V30 5184 H 490.049 -5.64451 -4.07882 0
M  V30 5185 H 487.676 -6.34733 -4.18351 0
M  V30 5186 N 489.251 1.34841 -0.815825 0
M  V30 5187 C 490.5 1.97755 -0.396976 0
M  V30 5188 C 490.813 1.65422 1.04379 0
M  V30 5189 O 492.019 2.21771 1.5662 0
M  V30 5190 C 490.475 3.53818 -0.658869 0
M  V30 5191 C 490.083 3.95051 -2.11278 0
M  V30 5192 C 491.827 4.23397 -0.305834 0
M  V30 5193 C 489.734 5.43997 -2.31994 0
M  V30 5194 H 488.664 0.739985 -0.1447 0
M  V30 5195 H 491.315 1.53781 -1.00118 0
M  V30 5196 H 489.697 3.95997 0.0154112 0
M  V30 5197 H 490.871 3.63998 -2.82564 0
M  V30 5198 H 489.186 3.38388 -2.42657 0
M  V30 5199 H 491.783 5.32899 -0.43854 0
M  V30 5200 H 492.126 4.09508 0.748952 0
M  V30 5201 H 492.659 3.8667 -0.934403 0
M  V30 5202 H 489.398 5.62865 -3.35952 0
M  V30 5203 H 488.918 5.76589 -1.65244 0
M  V30 5204 H 490.597 6.10584 -2.14001 0
M  V30 5205 N 490.729 0.570148 1.46925 0
M  V30 5206 C 491.977 0.0508523 2.02036 0
M  V30 5207 C 492.298 -1.30885 1.44548 0
M  V30 5208 O 491.568 -1.85647 0.625453 0
M  V30 5209 H 490.148 0.0158088 0.746833 0
M  V30 5210 H 492.81 0.743086 1.80178 0
M  V30 5211 H 491.906 -0.027575 3.12088 0
M  V30 5212 N 492.207 -1.54576 0.307264 0
M  V30 5213 C 493.157 -2.20467 -0.581249 0
M  V30 5214 C 494.141 -1.17972 -1.09414 0
M  V30 5215 O 495.333 -1.43667 -1.03387 0
M  V30 5216 C 492.462 -2.95369 -1.74963 0
M  V30 5217 C 491.548 -4.05186 -1.25241 0
M  V30 5218 N 491.939 -5.03577 -0.47364 0
M  V30 5219 C 490.237 -4.18841 -1.53259 0
M  V30 5220 C 490.938 -5.81328 -0.208083 0
M  V30 5221 N 489.914 -5.37834 -0.789651 0
M  V30 5222 H 493.716 -2.93892 0.0212221 0
M  V30 5223 H 491.23 -1.62011 0.112325 0
M  V30 5224 H 493.227 -3.41046 -2.39777 0
M  V30 5225 H 491.887 -2.23461 -2.35574 0
M  V30 5226 H 492.898 -5.17766 -0.117963 0
M  V30 5227 H 489.575 -3.58141 -2.14573 0
M  V30 5228 H 490.965 -6.706 0.417793 0
M  V30 5229 N 493.685 -0.035106 -1.57561 0
M  V30 5230 C 494.962 0.681212 -1.83354 0
M  V30 5231 C 495.342 1.89986 -0.920252 0
M  V30 5232 O 494.69 2.28489 0.0226815 0
M  V30 5233 C 494.9 1.05376 -3.32712 0
M  V30 5234 C 496.248 1.44286 -3.99333 0
M  V30 5235 O 497.272 1.14656 -3.37242 0
M  V30 5236 O 496.131 1.99518 -5.08778 0
M  V30 5237 H 493.225 0.334741 -0.756226 0
M  V30 5238 H 495.771 -0.0632448 -1.69582 0
M  V30 5239 H 494.543 0.186668 -3.90854 0
M  V30 5240 H 494.166 1.85619 -3.51613 0
M  V30 5241 N 495.163 1.55791 0.238111 0
M  V30 5242 C 496.409 1.79211 0.962035 0
M  V30 5243 C 496.764 0.605463 1.82625 0
M  V30 5244 O 496.057 -0.40104 1.87356 0
M  V30 5245 C 496.251 3.05869 1.84875 0
M  V30 5246 C 496.08 4.36739 1.07186 0
M  V30 5247 C 494.85 4.99346 0.773424 0
M  V30 5248 C 497.048 5.1237 0.445168 0
M  V30 5249 N 495.03 6.13894 -0.0266037 0
M  V30 5250 C 496.401 6.19613 -0.219023 0
M  V30 5251 C 498.456 4.96622 0.356522 0
M  V30 5252 C 497.159 7.1282 -0.963358 0
M  V30 5253 C 499.185 5.90214 -0.374304 0
M  V30 5254 C 498.547 6.96872 -1.0271 0
M  V30 5255 H 494.646 0.707627 0.332849 0
M  V30 5256 H 497.23 1.93284 0.234368 0
M  V30 5257 H 495.401 2.93108 2.54837 0
M  V30 5258 H 497.133 3.17547 2.5089 0
M  V30 5259 H 493.888 4.60948 1.08738 0
M  V30 5260 H 494.312 6.75727 -0.414968 0
M  V30 5261 H 498.954 4.14232 0.846878 0
M  V30 5262 H 496.672 7.94704 -1.46529 0
M  V30 5263 H 500.258 5.80106 -0.443678 0
M  V30 5264 H 499.138 7.68045 -1.58358 0
M  V30 5265 N 496.642 -0.504142 1.49319 0
M  V30 5266 C 497.89 -1.25598 1.58334 0
M  V30 5267 C 498.211 -1.93114 0.270538 0
M  V30 5268 O 497.481 -1.82585 -0.709891 0
M  V30 5269 H 496.061 -0.466571 0.58337 0
M  V30 5270 H 498.723 -0.584547 1.85928 0
M  V30 5271 H 497.819 -2.02159 2.37778 0
M  V30 5272 N 498.12 -1.38341 -0.754957 0
M  V30 5273 C 499.368 -1.34208 -1.51105 0
M  V30 5274 C 499.689 0.0677634 -1.94882 0
M  V30 5275 O 498.959 1.01517 -1.67544 0
M  V30 5276 H 497.539 -0.493819 -0.560493 0
M  V30 5277 H 500.201 -1.73005 -0.897507 0
M  V30 5278 H 499.297 -1.99203 -2.4026 0
M  V30 5279 N 499.598 0.982988 -1.23187 0
M  V30 5280 C 500.531 2.07302 -0.953993 0
M  V30 5281 C 501.509 1.62249 0.106753 0
M  V30 5282 O 502.693 1.88481 -0.0269525 0
M  V30 5283 C 499.82 3.35873 -0.436716 0
M  V30 5284 C 498.866 3.99862 -1.48367 0
M  V30 5285 S 499.699 4.39443 -3.06023 0
M  V30 5286 C 500.855 5.7117 -2.55959 0
M  V30 5287 H 501.088 2.30554 -1.87702 0
M  V30 5288 H 498.621 1.11883 -1.06403 0
M  V30 5289 H 500.579 4.10244 -0.144872 0
M  V30 5290 H 499.24 3.10634 0.465351 0
M  V30 5291 H 498.433 4.92471 -1.07182 0
M  V30 5292 H 498.035 3.31857 -1.72473 0
M  V30 5293 H 500.327 6.47977 -1.97818 0
M  V30 5294 H 501.27 6.17194 -3.47098 0
M  V30 5295 H 501.678 5.29046 -1.96902 0
M  V30 5296 N 501.076 1.04316 1.18135 0
M  V30 5297 C 502.006 0.657299 2.24058 0
M  V30 5298 C 502.987 -0.340678 1.66654 0
M  V30 5299 O 504.172 -0.220223 1.92947 0
M  V30 5300 C 501.302 0.0220715 3.47293 0
M  V30 5301 C 500.256 0.943857 4.17463 0
M  V30 5302 C 499.582 0.172973 5.3442 0
M  V30 5303 C 500.882 2.26409 4.70677 0
M  V30 5304 H 502.576 1.5428 2.56589 0
M  V30 5305 H 500.122 0.743263 1.23335 0
M  V30 5306 H 502.075 -0.259607 4.206 0
M  V30 5307 H 500.799 -0.898323 3.14003 0
M  V30 5308 H 499.458 1.20996 3.46057 0
M  V30 5309 H 499.106 -0.749907 4.97379 0
M  V30 5310 H 498.806 0.787098 5.82304 0
M  V30 5311 H 500.33 -0.101628 6.10515 0
M  V30 5312 H 501.744 2.04294 5.35665 0
M  V30 5313 H 500.141 2.8314 5.29105 0
M  V30 5314 H 501.211 2.90883 3.87962 0
M  V30 5315 N 502.554 -1.34406 0.822964 0
M  V30 5316 C 503.8 -1.98578 0.411666 0
M  V30 5317 C 504.133 -1.65093 -1.02264 0
M  V30 5318 O 503.408 -0.92258 -1.71227 0
M  V30 5319 C 503.691 -3.54823 0.614235 0
M  V30 5320 C 503.544 -3.9805 2.09466 0
M  V30 5321 C 504.863 -4.40071 0.050221 0
M  V30 5322 H 501.982 -0.721355 0.151047 0
M  V30 5323 H 504.624 -1.59301 1.03554 0
M  V30 5324 H 502.774 -3.88411 0.0831774 0
M  V30 5325 H 504.446 -3.74795 2.68936 0
M  V30 5326 H 502.689 -3.4836 2.5851 0
M  V30 5327 H 503.36 -5.06819 2.18721 0
M  V30 5328 H 505.836 -4.13037 0.503953 0
M  V30 5329 H 504.712 -5.48452 0.221759 0
M  V30 5330 H 504.973 -4.29576 -1.04482 0
M  V30 5331 N 504.032 -0.577932 -1.46621 0
M  V30 5332 C 505.278 -0.0700937 -2.03279 0
M  V30 5333 C 505.633 1.27376 -1.44198 0
M  V30 5334 O 504.926 1.82097 -0.595911 0
M  V30 5335 C 505.12 0.0590832 -3.57351 0
M  V30 5336 C 504.949 -1.2707 -4.31374 0
M  V30 5337 C 503.719 -1.84357 -4.70469 0
M  V30 5338 C 505.917 -2.19278 -4.65211 0
M  V30 5339 N 503.899 -3.11124 -5.29221 0
M  V30 5340 C 505.27 -3.30631 -5.24484 0
M  V30 5341 C 507.325 -2.19018 -4.47142 0
M  V30 5342 C 506.028 -4.41849 -5.67593 0
M  V30 5343 C 508.054 -3.29262 -4.91264 0
M  V30 5344 C 507.416 -4.39335 -5.50604 0
M  V30 5345 H 503.515 -0.0683127 -0.779011 0
M  V30 5346 H 506.099 -0.76978 -1.78836 0
M  V30 5347 H 504.27 0.727929 -3.81518 0
M  V30 5348 H 506.002 0.57087 -4.00653 0
M  V30 5349 H 502.757 -1.37906 -4.53077 0
M  V30 5350 H 503.181 -3.75794 -5.63123 0
M  V30 5351 H 507.823 -1.35191 -4.00604 0
M  V30 5352 H 505.541 -5.26421 -6.13112 0
M  V30 5353 H 509.127 -3.30172 -4.79038 0
M  V30 5354 H 508.007 -5.23233 -5.84121 0
M  V30 5355 N 505.51 1.54411 -0.315457 0
M  V30 5356 C 506.74 2.04536 0.291315 0
M  V30 5357 C 507.148 1.19162 1.4696 0
M  V30 5358 O 506.491 0.213199 1.82459 0
M  V30 5359 C 506.553 3.5056 0.796725 0
M  V30 5360 C 506.217 4.5627 -0.258178 0
M  V30 5361 C 507.214 5.08312 -1.09153 0
M  V30 5362 C 504.899 5.00672 -0.404036 0
M  V30 5363 C 506.893 6.03312 -2.05655 0
M  V30 5364 C 504.58 5.95488 -1.37248 0
M  V30 5365 C 505.578 6.46693 -2.19721 0
M  V30 5366 O 505.266 7.39648 -3.14921 0
M  V30 5367 H 504.998 0.672856 0.0651165 0
M  V30 5368 H 507.552 2.00244 -0.457308 0
M  V30 5369 H 505.782 3.52223 1.59612 0
M  V30 5370 H 507.471 3.83804 1.32096 0
M  V30 5371 H 508.237 4.74793 -0.98979 0
M  V30 5372 H 504.116 4.60436 0.22799 0
M  V30 5373 H 507.66 6.43203 -2.70067 0
M  V30 5374 H 503.557 6.28424 -1.47489 0
M  V30 5375 H 504.325 7.57496 -3.10067 0
M  V30 5376 N 506.988 0.0434614 1.5754 0
M  V30 5377 C 507.921 -0.968729 2.06618 0
M  V30 5378 C 508.899 -1.30868 0.965 0
M  V30 5379 O 510.083 -1.42288 1.23638 0
M  V30 5380 C 507.21 -2.28486 2.50023 0
M  V30 5381 C 506.256 -2.09851 3.71302 0
M  V30 5382 S 507.089 -1.38401 5.17306 0
M  V30 5383 C 508.245 -2.71354 5.64019 0
M  V30 5384 H 508.478 -0.551021 2.92149 0
M  V30 5385 H 506.011 -0.168607 1.53477 0
M  V30 5386 H 507.969 -3.04142 2.75695 0
M  V30 5387 H 506.63 -2.67387 1.64812 0
M  V30 5388 H 505.823 -3.07184 3.99567 0
M  V30 5389 H 505.425 -1.42336 3.45856 0
M  V30 5390 H 507.717 -3.67549 5.69134 0
M  V30 5391 H 508.66 -2.47734 6.6335 0
M  V30 5392 H 509.068 -2.77259 4.91719 0
M  V30 5393 N 508.466 -1.55915 -0.229846 0
M  V30 5394 C 509.429 -1.90914 -1.26824 0
M  V30 5395 C 510.429 -0.786999 -1.40225 0
M  V30 5396 O 511.619 -1.05484 -1.38632 0
M  V30 5397 C 508.751 -2.15264 -2.64337 0
M  V30 5398 H 509.944 -2.8378 -0.969998 0
M  V30 5399 H 507.497 -1.49069 -0.4699 0
M  V30 5400 H 508.232 -1.24923 -2.99274 0
M  V30 5401 H 508.017 -2.97005 -2.55989 0
M  V30 5402 H 509.507 -2.43467 -3.39284 0
M  V30 5403 N 509.944 0.496216 -1.49584 0
M  V30 5404 C 510.874 1.60576 -1.69521 0
M  V30 5405 C 511.855 1.61169 -0.543933 0
M  V30 5406 O 513.04 1.77834 -0.78031 0
M  V30 5407 C 510.17 2.99038 -1.76616 0
M  V30 5408 C 509.124 3.13312 -2.91581 0
M  V30 5409 C 508.45 4.53172 -2.83794 0
M  V30 5410 C 509.75 2.92886 -4.32452 0
M  V30 5411 H 511.444 1.44146 -2.62416 0
M  V30 5412 H 508.99 0.692024 -1.26282 0
M  V30 5413 H 510.943 3.76564 -1.8915 0
M  V30 5414 H 509.667 3.16568 -0.80324 0
M  V30 5415 H 508.326 2.38213 -2.78658 0
M  V30 5416 H 507.974 4.67585 -1.854 0
M  V30 5417 H 507.674 4.63662 -3.60958 0
M  V30 5418 H 509.198 5.32752 -2.98342 0
M  V30 5419 H 510.612 3.60178 -4.46032 0
M  V30 5420 H 509.009 3.14844 -5.10875 0
M  V30 5421 H 510.079 1.88966 -4.46565 0
M  V30 5422 N 511.423 1.38739 0.74761 0
M  V30 5423 C 512.67 1.35274 1.50689 0
M  V30 5424 C 512.998 -0.0553359 1.94421 0
M  V30 5425 O 512.253 -1.03365 1.66175 0
M  V30 5426 C 512.552 2.25992 2.7688 0
M  V30 5427 C 512.218 3.73854 2.5208 0
M  V30 5428 C 510.88 4.14145 2.45025 0
M  V30 5429 C 513.232 4.67427 2.30568 0
M  V30 5430 C 510.56 5.4609 2.14483 0
M  V30 5431 C 512.912 5.99635 2.01545 0
M  V30 5432 C 511.576 6.39004 1.92951 0
M  V30 5433 H 510.846 0.495003 0.55141 0
M  V30 5434 H 513.493 1.71145 0.859158 0
M  V30 5435 H 511.798 1.83196 3.46333 0
M  V30 5436 H 513.495 2.20611 3.34861 0
M  V30 5437 H 510.085 3.41913 2.58444 0
M  V30 5438 H 514.269 4.3714 2.34994 0
M  V30 5439 H 509.525 5.75528 2.06342 0
M  V30 5440 H 513.699 6.71678 1.83906 0
M  V30 5441 H 511.326 7.41165 1.6905 0
M  V30 5442 N 512.901 -0.976442 1.23707 0
M  V30 5443 C 514.131 -1.75087 1.09673 0
M  V30 5444 C 514.539 -1.85852 -0.354344 0
M  V30 5445 O 513.882 -1.33985 -1.25673 0
M  V30 5446 C 513.944 -3.19272 1.65245 0
M  V30 5447 C 513.608 -3.32004 3.14042 0
M  V30 5448 C 514.605 -3.18017 4.11292 0
M  V30 5449 C 512.29 -3.56525 3.53829 0
M  V30 5450 C 514.284 -3.28363 5.46312 0
M  V30 5451 C 511.971 -3.6651 4.88993 0
M  V30 5452 C 512.969 -3.52439 5.85043 0
M  V30 5453 O 512.657 -3.62063 7.1775 0
M  V30 5454 H 512.389 -0.556164 0.384262 0
M  V30 5455 H 514.943 -1.23518 1.64111 0
M  V30 5456 H 513.173 -3.72107 1.05231 0
M  V30 5457 H 514.862 -3.7849 1.46629 0
M  V30 5458 H 515.628 -2.98966 3.81896 0
M  V30 5459 H 511.507 -3.66547 2.79579 0
M  V30 5460 H 515.051 -3.17297 6.21263 0
M  V30 5461 H 510.948 -3.85072 5.18063 0
M  V30 5462 H 511.716 -3.78833 7.25553 0
M  V30 5463 N 514.379 -1.04941 -1.1758 0
M  V30 5464 C 515.79 -0.784501 -1.69418 0
M  V30 5465 C 516.141 0.693625 -1.8353 0
M  V30 5466 O 515.266 1.53925 -1.52106 0
M  V30 5467 C 515.861 -1.41746 -3.07723 0
M  V30 5468 C 514.42 -1.20066 -3.56737 0
M  V30 5469 C 513.567 -1.5026 -2.33061 0
M  V30 5470 H 516.518 -1.21469 -1.02133 0
M  V30 5471 H 516.539 -0.825381 -3.7144 0
M  V30 5472 H 516.051 -2.49325 -2.9742 0
M  V30 5473 H 514.152 -0.144006 -3.72322 0
M  V30 5474 H 514.265 -1.90384 -4.39648 0
M  V30 5475 H 512.629 -0.922598 -2.37403 0
M  V30 5476 H 513.412 -2.58967 -2.25368 0
M  V30 5477 N 515.857 1.33968 -0.830081 0
M  V30 5478 C 516.767 2.33164 -0.259207 0
M  V30 5479 C 517.783 1.62951 0.610164 0
M  V30 5480 O 518.959 1.94668 0.516369 0
M  V30 5481 C 516.024 3.42088 0.563598 0
M  V30 5482 C 515.085 4.28037 -0.329014 0
M  V30 5483 C 514.318 5.3176 0.454616 0
M  V30 5484 O 514.541 5.44876 1.6872 0
M  V30 5485 O 513.475 6.01669 -0.166794 0
M  V30 5486 H 517.301 2.83832 -1.08041 0
M  V30 5487 H 514.886 1.37154 -0.59239 0
M  V30 5488 H 516.768 4.08581 1.03147 0
M  V30 5489 H 515.443 2.93651 1.36201 0
M  V30 5490 H 514.35 3.64443 -0.844538 0
M  V30 5491 H 515.683 4.79934 -1.09196 0
M  V30 5492 N 517.335 0.585699 1.46312 0
M  V30 5493 C 518.751 0.247607 1.57668 0
M  V30 5494 C 518.951 -1.25007 1.58037 0
M  V30 5495 O 518.007 -2.03196 1.49893 0
M  V30 5496 C 519.32 0.899456 2.86933 0
M  V30 5497 C 520.868 0.873326 3.00569 0
M  V30 5498 C 521.343 1.50477 4.32574 0
M  V30 5499 N 522.834 1.46925 4.3928 0
M  V30 5500 C 523.569 1.92719 5.40044 0
M  V30 5501 N 523.065 2.46499 6.47464 0
M  V30 5502 N 524.858 1.83617 5.31264 0
M  V30 5503 H 517.009 1.55841 1.44317 0
M  V30 5504 H 519.272 0.651564 0.688599 0
M  V30 5505 H 518.978 1.95313 2.92482 0
M  V30 5506 H 518.852 0.409476 3.74971 0
M  V30 5507 H 521.239 -0.171736 2.946 0
M  V30 5508 H 521.32 1.40136 2.13999 0
M  V30 5509 H 520.964 2.54905 4.39302 0
M  V30 5510 H 520.894 0.951944 5.17924 0
M  V30 5511 H 523.385 1.07616 3.62253 0
M  V30 5512 H 523.698 2.79291 7.20567 0
M  V30 5513 H 522.043 2.50526 6.48276 0
M  V30 5514 H 525.234 1.41358 4.46246 0
M  V30 5515 H 525.407 2.19622 6.09648 0
M  V30 5516 N 518.813 -1.54241 0.323641 0
M  V30 5517 C 520.059 -2.00867 -0.279323 0
M  V30 5518 C 520.392 -1.21146 -1.5178 0
M  V30 5519 O 519.667 -0.29378 -1.92269 0
M  V30 5520 C 519.95 -3.54837 -0.613387 0
M  V30 5521 C 519.803 -4.45284 0.635803 0
M  V30 5522 C 521.122 -4.16186 -1.43099 0
M  V30 5523 H 518.241 -0.730177 -0.100049 0
M  V30 5524 H 520.883 -1.84829 0.440235 0
M  V30 5525 H 519.033 -3.68634 -1.22641 0
M  V30 5526 H 520.705 -4.43357 1.27406 0
M  V30 5527 H 518.948 -4.14956 1.26466 0
M  V30 5528 H 519.619 -5.5084 0.357597 0
M  V30 5529 H 522.095 -4.05964 -0.912814 0
M  V30 5530 H 520.971 -5.24031 -1.6335 0
M  V30 5531 H 521.232 -3.69516 -2.42715 0
M  V30 5532 N 520.291 -0.0518155 -1.57515 0
M  V30 5533 C 521.707 0.304735 -1.56664 0
M  V30 5534 C 521.907 1.71395 -1.05953 0
M  V30 5535 O 520.963 2.42123 -0.716414 0
M  V30 5536 C 522.276 0.132614 -3.00407 0
M  V30 5537 C 523.824 0.20367 -3.12337 0
M  V30 5538 C 524.299 0.0600706 -4.57961 0
M  V30 5539 N 525.79 0.116326 -4.63054 0
M  V30 5540 C 526.525 0.0293363 -5.73392 0
M  V30 5541 N 526.021 -0.110038 -6.92713 0
M  V30 5542 N 527.814 0.0849651 -5.62036 0
M  V30 5543 H 519.965 -0.973056 -1.888 0
M  V30 5544 H 522.228 -0.377781 -0.869474 0
M  V30 5545 H 521.934 -0.839019 -3.41546 0
M  V30 5546 H 521.808 0.893376 -3.66468 0
M  V30 5547 H 524.195 1.16578 -2.71097 0
M  V30 5548 H 524.276 -0.587857 -2.48954 0
M  V30 5549 H 523.92 -0.898715 -4.99886 0
M  V30 5550 H 523.85 0.87075 -5.19351 0
M  V30 5551 H 526.341 0.22327 -3.7724 0
M  V30 5552 H 526.654 -0.169104 -7.72615 0
M  V30 5553 H 524.999 -0.145132 -6.94848 0
M  V30 5554 H 528.19 0.192411 -4.67704 0
M  V30 5555 H 528.363 0.0137131 -6.47999 0
M  V30 5556 N 521.769 1.56035 0.221574 0
M  V30 5557 C 522.732 1.91584 1.2581 0
M  V30 5558 C 523.732 0.794425 1.39805 0
M  V30 5559 O 524.922 1.06217 1.38071 0
M  V30 5560 C 522.054 2.16663 2.63192 0
M  V30 5561 H 523.247 2.8429 0.954935 0
M  V30 5562 H 520.8 1.49316 0.461988 0
M  V30 5563 H 521.535 1.26508 2.98607 0
M  V30 5564 H 521.32 2.98358 2.5441 0
M  V30 5565 H 522.81 2.45262 3.37988 0
M  V30 5566 N 523.247 -0.488276 1.49845 0
M  V30 5567 C 524.493 -1.24341 1.6021 0
M  V30 5568 C 524.826 -1.91967 0.293651 0
M  V30 5569 O 524.101 -1.81323 -0.703718 0
M  V30 5570 C 524.384 -2.3005 2.77036 0
M  V30 5571 C 524.237 -1.66842 4.17713 0
M  V30 5572 C 525.556 -3.31509 2.89464 0
M  V30 5573 H 522.675 -0.450704 0.583125 0
M  V30 5574 H 525.317 -0.539673 1.82174 0
M  V30 5575 H 523.467 -2.90071 2.58439 0
M  V30 5576 H 525.139 -1.1055 4.47858 0
M  V30 5577 H 523.382 -0.972079 4.22768 0
M  V30 5578 H 524.053 -2.43576 4.95353 0
M  V30 5579 H 526.529 -2.81493 3.06433 0
M  V30 5580 H 525.405 -4.02822 3.72861 0
M  V30 5581 H 525.666 -3.94603 1.99351 0
M  V30 5582 N 524.725 -1.39134 -0.740242 0
M  V30 5583 C 525.688 -1.37217 -1.83587 0
M  V30 5584 C 526.688 -0.270221 -1.58513 0
M  V30 5585 O 527.878 -0.527843 -1.6601 0
M  V30 5586 C 525.01 -1.13959 -3.21288 0
M  V30 5587 H 526.203 -2.34705 -1.86691 0
M  V30 5588 H 523.756 -1.24622 -0.94335 0
M  V30 5589 H 524.491 -0.17131 -3.23847 0
M  V30 5590 H 524.276 -1.93754 -3.40884 0
M  V30 5591 H 525.766 -1.15346 -4.01354 0
M  V30 5592 N 526.204 0.969867 -1.24223 0
M  V30 5593 C 527.429 1.75289 -1.10853 0
M  V30 5594 C 527.854 1.85091 0.335079 0
M  V30 5595 O 527.212 1.32024 1.24255 0
M  V30 5596 C 527.26 3.15255 -1.75062 0
M  V30 5597 O 526.364 3.99589 -1.01992 0
M  V30 5598 H 525.705 0.538904 -0.387915 0
M  V30 5599 H 528.235 1.21675 -1.64488 0
M  V30 5600 H 528.245 3.65787 -1.80731 0
M  V30 5601 H 526.92 3.07436 -2.801 0
M  V30 5602 H 525.497 3.58077 -1.04094 0
M  V30 5603 N 527.682 1.05563 1.17022 0
M  V30 5604 C 528.612 0.681026 2.23348 0
M  V30 5605 C 529.593 -0.322983 1.67005 0
M  V30 5606 O 530.778 -0.199746 1.9317 0
M  V30 5607 C 527.908 0.0589053 3.4725 0
M  V30 5608 C 526.862 0.988082 4.16438 0
M  V30 5609 C 526.188 0.229646 5.34207 0
M  V30 5610 C 527.488 2.31388 4.68249 0
M  V30 5611 H 529.182 1.56993 2.54938 0
M  V30 5612 H 526.728 0.756302 1.2254 0
M  V30 5613 H 528.681 -0.214982 4.20851 0
M  V30 5614 H 527.405 -0.864968 3.14938 0
M  V30 5615 H 526.064 1.24659 3.44754 0
M  V30 5616 H 525.712 -0.697111 4.98146 0
M  V30 5617 H 525.412 0.848815 5.81437 0
M  V30 5618 H 526.936 -0.0368694 6.10589 0
M  V30 5619 H 528.35 2.09964 5.33468 0
M  V30 5620 H 526.747 2.88736 5.26072 0
M  V30 5621 H 527.817 2.94982 3.84855 0
M  V30 5622 N 529.16 -1.33526 0.837174 0
M  V30 5623 C 530.108 -2.31168 0.257698 0
M  V30 5624 C 531.102 -1.5806 -0.609388 0
M  V30 5625 O 532.308 -1.72941 -0.499139 0
M  V30 5626 H 528.683 -0.74922 0.0646058 0
M  V30 5627 H 530.654 -2.77552 1.09578 0
M  V30 5628 C 529.403 -3.4326 -0.553887 0
M  V30 5629 H 528.726 -3.99665 0.104008 0
M  V30 5630 H 530.166 -4.13782 -0.925219 0
M  V30 5631 C 528.625 -2.88965 -1.73207 0
M  V30 5632 O 529.155 -2.85013 -2.83073 0
M  V30 5633 N 527.361 -2.45596 -1.55342 0
M  V30 5634 H 526.908 -2.49009 -0.659705 0
M  V30 5635 H 526.866 -2.0962 -2.34322 0
M  V30 5636 N 530.638 -0.59345 -1.46 0
M  V30 5637 C 531.866 -0.0890934 -2.06708 0
M  V30 5638 C 532.281 1.2205 -1.44046 0
M  V30 5639 O 531.638 1.74029 -0.549551 0
M  V30 5640 C 531.689 0.0720263 -3.61428 0
M  V30 5641 O 531.41 -1.18574 -4.21748 0
M  V30 5642 C 532.911 0.609487 -4.3909 0
M  V30 5643 H 530.131 -0.0623628 -0.668096 0
M  V30 5644 H 532.675 -0.817171 -1.87464 0
M  V30 5645 H 530.83 0.750369 -3.80063 0
M  V30 5646 H 531.244 -1.0064 -5.14754 0
M  V30 5647 H 532.718 0.671363 -5.47902 0
M  V30 5648 H 533.195 1.62878 -4.07882 0
M  V30 5649 H 533.801 -0.03434 -4.25286 0
M  V30 5650 N 532.116 1.54067 -0.331816 0
M  V30 5651 C 533.527 1.86059 0.15454 0
M  V30 5652 C 533.878 1.25331 1.50952 0
M  V30 5653 O 533.003 0.562441 2.08963 0
M  V30 5654 C 533.598 3.37581 0.287192 0
M  V30 5655 C 532.157 3.69493 0.717773 0
M  V30 5656 C 531.304 2.76863 -0.155569 0
M  V30 5657 H 534.255 1.48797 -0.55182 0
M  V30 5658 H 534.276 3.63744 1.11671 0
M  V30 5659 H 533.788 3.81751 -0.699131 0
M  V30 5660 H 531.889 3.3086 1.71354 0
M  V30 5661 H 532.002 4.76315 0.5158 0
M  V30 5662 H 530.366 2.51995 0.370213 0
M  V30 5663 H 531.149 3.23861 -1.13881 0
M  V30 5664 N 533.594 0.0601682 1.57485 0
M  V30 5665 C 534.841 -0.611594 1.93043 0
M  V30 5666 C 535.169 -1.70317 0.939274 0
M  V30 5667 O 534.424 -1.95644 -0.046996 0
M  V30 5668 C 534.723 -1.23831 3.35262 0
M  V30 5669 C 534.389 -0.274037 4.50066 0
M  V30 5670 C 533.051 -0.00872394 4.81199 0
M  V30 5671 C 535.403 0.386308 5.19766 0
M  V30 5672 C 532.731 0.924218 5.79375 0
M  V30 5673 C 535.083 1.3075 6.1894 0
M  V30 5674 C 533.747 1.58139 6.48497 0
M  V30 5675 H 533.017 -0.223798 0.706396 0
M  V30 5676 H 535.664 0.128566 1.91068 0
M  V30 5677 H 533.969 -2.05394 3.33647 0
M  V30 5678 H 535.666 -1.76517 3.60059 0
M  V30 5679 H 532.256 -0.491008 4.25778 0
M  V30 5680 H 536.44 0.194436 4.95919 0
M  V30 5681 H 531.696 1.1438 6.00606 0
M  V30 5682 H 535.87 1.82519 6.72056 0
M  V30 5683 H 533.497 2.30593 7.24383 0
M  V30 5684 N 535.072 -1.5615 -0.213296 0
M  V30 5685 C 536.321 -1.78743 -0.93455 0
M  V30 5686 C 536.634 -0.630199 -1.8517 0
M  V30 5687 O 537.84 -0.739966 -2.61222 0
M  V30 5688 C 536.296 -3.16571 -1.71203 0
M  V30 5689 C 535.904 -4.40043 -0.840617 0
M  V30 5690 C 537.648 -3.48485 -2.42401 0
M  V30 5691 C 535.555 -5.68895 -1.61592 0
M  V30 5692 H 534.485 -0.666426 -0.352692 0
M  V30 5693 H 537.136 -1.82532 -0.188227 0
M  V30 5694 H 535.518 -3.06981 -2.50157 0
M  V30 5695 H 536.692 -4.6071 -0.0910326 0
M  V30 5696 H 535.007 -4.15706 -0.240365 0
M  V30 5697 H 537.604 -4.41983 -3.00924 0
M  V30 5698 H 537.947 -2.71371 -3.15695 0
M  V30 5699 H 538.48 -3.59442 -1.7043 0
M  V30 5700 H 535.219 -6.48925 -0.926106 0
M  V30 5701 H 534.739 -5.52275 -2.33991 0
M  V30 5702 H 536.418 -6.09365 -2.17447 0
M  V30 5703 N 536.55 0.480323 -1.50102 0
M  V30 5704 C 537.961 1.06142 -1.53593 0
M  V30 5705 C 538.312 1.93335 -0.334055 0
M  V30 5706 O 537.437 2.09188 0.55403 0
M  V30 5707 C 538.032 1.9317 -2.78336 0
M  V30 5708 C 536.591 2.46405 -2.84538 0
M  V30 5709 C 535.738 1.24521 -2.4777 0
M  V30 5710 H 538.689 0.26333 -1.565 0
M  V30 5711 H 538.71 2.78123 -2.59669 0
M  V30 5712 H 538.222 1.29683 -3.65792 0
M  V30 5713 H 536.323 3.13472 -2.01411 0
M  V30 5714 H 536.436 2.82143 -3.87211 0
M  V30 5715 H 534.8 1.57706 -2.00003 0
M  V30 5716 H 535.583 0.627102 -3.37524 0
M  V30 5717 N 538.028 1.39524 0.732853 0
M  V30 5718 C 538.991 1.38189 1.82857 0
M  V30 5719 C 539.991 0.278624 1.58368 0
M  V30 5720 O 541.181 0.536639 1.65728 0
M  V30 5721 C 538.313 1.15661 3.2068 0
M  V30 5722 H 539.506 2.35692 1.85444 0
M  V30 5723 H 537.059 1.2512 0.936728 0
M  V30 5724 H 537.794 0.188482 3.23752 0
M  V30 5725 H 537.579 1.95559 3.39852 0
M  V30 5726 H 539.069 1.17472 4.00737 0
M  V30 5727 N 539.506 -0.963266 1.24736 0
M  V30 5728 C 540.454 -2.07985 1.04139 0
M  V30 5729 C 541.448 -1.69381 -0.0250556 0
M  V30 5730 O 542.654 -1.79531 0.129863 0
M  V30 5731 H 539.029 -0.680627 0.319768 0
M  V30 5732 H 541 -2.22517 1.98818 0
M  V30 5733 C 539.749 -3.4123 0.667615 0
M  V30 5734 H 539.072 -3.71397 1.48 0
M  V30 5735 H 540.512 -4.20244 0.563136 0
M  V30 5736 C 538.971 -3.3104 -0.625647 0
M  V30 5737 O 539.501 -3.65334 -1.67016 0
M  V30 5738 N 537.707 -2.84168 -0.608033 0
M  V30 5739 H 537.254 -2.56458 0.242323 0
M  V30 5740 H 537.212 -2.77732 -1.47352 0
M  V30 5741 N 540.985 -1.06182 -1.16461 0
M  V30 5742 C 542.396 -0.802426 -1.68576 0
M  V30 5743 C 542.747 0.67412 -1.84255 0
M  V30 5744 O 541.872 1.52303 -1.5373 0
M  V30 5745 C 542.467 -1.45002 -3.06202 0
M  V30 5746 C 541.026 -1.23843 -3.55443 0
M  V30 5747 C 540.173 -1.52724 -2.31454 0
M  V30 5748 H 543.124 -1.22545 -1.00839 0
M  V30 5749 H 543.145 -0.864731 -3.70544 0
M  V30 5750 H 542.657 -2.52466 -2.94759 0
M  V30 5751 H 540.758 -0.183487 -3.72148 0
M  V30 5752 H 540.871 -1.95036 -4.37604 0
M  V30 5753 H 539.235 -0.947726 -2.36411 0
M  V30 5754 H 540.018 -2.61343 -2.22609 0
M  V30 5755 N 542.463 1.3308 -0.844243 0
M  V30 5756 C 543.411 2.31028 -0.269954 0
M  V30 5757 C 544.405 1.58381 0.600997 0
M  V30 5758 O 545.611 1.73203 0.48996 0
M  V30 5759 H 541.986 0.748866 -0.0685782 0
M  V30 5760 H 543.957 2.76967 -1.11049 0
M  V30 5761 C 542.706 3.43549 0.535676 0
M  V30 5762 H 542.029 3.99604 -0.125202 0
M  V30 5763 H 543.469 4.14267 0.903262 0
M  V30 5764 C 541.928 2.8988 1.71672 0
M  V30 5765 O 542.458 2.86511 2.81557 0
M  V30 5766 N 540.664 2.46416 1.54037 0
M  V30 5767 H 540.211 2.49356 0.64649 0
M  V30 5768 H 540.169 2.1086 2.33207 0
M  V30 5769 N 543.941 0.601185 1.45683 0
M  V30 5770 C 544.874 -0.17013 2.27565 0
M  V30 5771 C 545.852 -0.879661 1.36751 0
M  V30 5772 O 547.036 -0.889827 1.66176 0
M  V30 5773 C 544.163 -1.24568 3.14961 0
M  V30 5774 C 543.209 -0.639978 4.21671 0
M  V30 5775 S 544.042 0.547275 5.32696 0
M  V30 5776 C 545.198 -0.529019 6.2366 0
M  V30 5777 H 545.431 0.524583 2.92635 0
M  V30 5778 H 542.964 0.388537 1.49431 0
M  V30 5779 H 544.922 -1.86138 3.65873 0
M  V30 5780 H 543.583 -1.91243 2.49169 0
M  V30 5781 H 542.776 -1.44903 4.8272 0
M  V30 5782 H 542.378 -0.0995558 3.73867 0
M  V30 5783 H 544.67 -1.40981 6.62669 0
M  V30 5784 H 545.613 0.0451599 7.08086 0
M  V30 5785 H 546.021 -0.84147 5.58193 0
M  V30 5786 N 545.419 -1.53889 0.339982 0
M  V30 5787 C 546.644 -2.05741 -0.261798 0
M  V30 5788 C 547.069 -1.21354 -1.43718 0
M  V30 5789 O 546.427 -0.22645 -1.7988 0
M  V30 5790 C 546.475 -3.54542 -0.658228 0
M  V30 5791 O 545.579 -3.7302 -1.75869 0
M  V30 5792 H 544.92 -0.662529 -0.0441672 0
M  V30 5793 H 547.45 -1.98568 0.493161 0
M  V30 5794 H 547.46 -3.9711 -0.936368 0
M  V30 5795 H 546.135 -4.15412 0.201358 0
M  V30 5796 H 544.712 -3.42355 -1.47809 0
M  V30 5797 N 546.897 -0.0685191 -1.57451 0
M  V30 5798 C 548.308 0.464634 -1.80826 0
M  V30 5799 C 548.659 1.69847 -0.982169 0
M  V30 5800 O 547.784 2.15439 -0.203734 0
M  V30 5801 C 548.379 0.849721 -3.27971 0
M  V30 5802 C 546.938 1.32776 -3.52204 0
M  V30 5803 C 546.085 0.311332 -2.75547 0
M  V30 5804 H 549.036 -0.294248 -1.55948 0
M  V30 5805 H 549.057 1.71138 -3.39841 0
M  V30 5806 H 548.569 -0.0484736 -3.8807 0
M  V30 5807 H 546.67 2.24456 -2.97406 0
M  V30 5808 H 546.783 1.30794 -4.60901 0
M  V30 5809 H 545.147 0.787915 -2.42206 0
M  V30 5810 H 545.93 -0.579078 -3.38381 0
M  V30 5811 N 548.375 1.56261 0.205012 0
M  V30 5812 C 549.305 1.96779 1.257 0
M  V30 5813 C 550.286 0.838309 1.48008 0
M  V30 5814 O 551.471 1.10189 1.59913 0
M  V30 5815 C 548.601 2.29876 2.60335 0
M  V30 5816 C 547.555 3.45469 2.52656 0
M  V30 5817 C 546.881 3.64215 3.91473 0
M  V30 5818 C 548.181 4.79954 2.06014 0
M  V30 5819 H 549.875 2.84904 0.920338 0
M  V30 5820 H 547.421 1.37072 0.441277 0
M  V30 5821 H 549.374 2.56814 3.34102 0
M  V30 5822 H 548.098 1.38622 2.95722 0
M  V30 5823 H 546.757 3.18605 1.81345 0
M  V30 5824 H 546.405 2.70309 4.24196 0
M  V30 5825 H 546.105 4.41973 3.87213 0
M  V30 5826 H 547.629 3.93519 4.66878 0
M  V30 5827 H 549.043 5.05989 2.69533 0
M  V30 5828 H 547.44 5.61111 2.12777 0
M  V30 5829 H 548.51 4.74201 1.01297 0
M  V30 5830 N 549.853 -0.472356 1.50355 0
M  V30 5831 C 550.763 -1.59637 1.7191 0
M  V30 5832 C 551.779 -1.63247 0.602195 0
M  V30 5833 O 552.955 -1.81139 0.880369 0
M  V30 5834 C 550.02 -2.9586 1.80742 0
M  V30 5835 C 549.081 -3.02649 3.04471 0
M  V30 5836 C 548.314 -4.32374 3.12872 0
M  V30 5837 O 548.537 -5.22807 2.28099 0
M  V30 5838 O 547.471 -4.44728 4.05587 0
M  V30 5839 H 551.297 -1.44373 2.67189 0
M  V30 5840 H 548.882 -0.651717 1.34436 0
M  V30 5841 H 550.764 -3.7677 1.88739 0
M  V30 5842 H 549.439 -3.11325 0.88647 0
M  V30 5843 H 548.346 -2.20821 3.01975 0
M  V30 5844 H 549.679 -2.92119 3.9614 0
M  V30 5845 N 551.331 -1.39911 -0.725443 0
M  V30 5846 C 552.556 -1.41137 -1.5197 0
M  V30 5847 C 552.981 -0.010262 -1.88097 0
M  V30 5848 O 552.339 0.979184 -1.52583 0
M  V30 5849 C 552.387 -2.2994 -2.77777 0
M  V30 5850 O 551.491 -1.73586 -3.74088 0
M  V30 5851 H 550.832 -0.480219 -0.458569 0
M  V30 5852 H 553.362 -1.84023 -0.894249 0
M  V30 5853 H 553.372 -2.44785 -3.26411 0
M  V30 5854 H 552.047 -3.31759 -2.50816 0
M  V30 5855 H 550.624 -1.68035 -3.32894 0
M  V30 5856 N 552.809 0.956637 -1.25245 0
M  V30 5857 C 554.058 1.69537 -1.0927 0
M  V30 5858 C 554.371 1.92136 0.366503 0
M  V30 5859 O 555.577 2.63687 0.64665 0
M  V30 5860 C 554.033 3.05211 -1.9072 0
M  V30 5861 C 553.641 2.90416 -3.41119 0
M  V30 5862 C 555.385 3.82882 -1.83308 0
M  V30 5863 C 553.292 4.21468 -4.14872 0
M  V30 5864 H 552.222 0.635804 -0.405302 0
M  V30 5865 H 554.873 1.06513 -1.49423 0
M  V30 5866 H 553.255 3.69128 -1.43389 0
M  V30 5867 H 554.429 2.35444 -3.9611 0
M  V30 5868 H 552.744 2.26203 -3.49602 0
M  V30 5869 H 555.341 4.79944 -2.35706 0
M  V30 5870 H 555.684 4.0853 -0.800572 0
M  V30 5871 H 556.217 3.25711 -2.28379 0
M  V30 5872 H 552.956 4.01009 -5.18529 0
M  V30 5873 H 552.476 4.76213 -3.64665 0
M  V30 5874 H 554.155 4.90022 -4.22478 0
M  V30 5875 N 554.287 1.06798 1.15896 0
M  V30 5876 C 555.234 0.683314 2.20453 0
M  V30 5877 C 556.204 -0.32255 1.62938 0
M  V30 5878 O 557.389 -0.210276 1.89638 0
M  V30 5879 C 554.529 0.0813266 3.45004 0
M  V30 5880 C 553.642 1.13799 4.16742 0
M  V30 5881 C 552.777 0.501598 5.28826 0
M  V30 5882 C 551.816 1.54144 5.92373 0
M  V30 5883 N 550.953 0.928038 6.9594 0
M  V30 5884 H 555.793 1.57932 2.52708 0
M  V30 5885 H 553.33 0.789544 1.24115 0
M  V30 5886 H 555.288 -0.285274 4.16224 0
M  V30 5887 H 553.918 -0.77806 3.13283 0
M  V30 5888 H 552.97 1.62223 3.44075 0
M  V30 5889 H 554.282 1.92664 4.60089 0
M  V30 5890 H 553.436 0.0823162 6.06644 0
M  V30 5891 H 552.175 -0.318883 4.86656 0
M  V30 5892 H 551.18 1.97056 5.13273 0
M  V30 5893 H 552.405 2.3641 6.36621 0
M  V30 5894 H 550.351 0.12836 6.55874 0
M  V30 5895 H 550.268 1.65401 7.37685 0
M  V30 5896 H 551.536 0.534071 7.77668 0
M  V30 5897 N 555.766 -1.3263 0.851289 0
M  V30 5898 C 556.729 -2.27247 0.298541 0
M  V30 5899 C 557.729 -1.51467 -0.539847 0
M  V30 5900 O 558.919 -1.7061 -0.351843 0
M  V30 5901 C 556.051 -3.35964 -0.578004 0
M  V30 5902 H 557.244 -2.7765 1.13359 0
M  V30 5903 H 554.797 -1.43245 0.625354 0
M  V30 5904 H 555.532 -2.90823 -1.435 0
M  V30 5905 H 555.317 -3.92094 0.0220539 0
M  V30 5906 H 556.807 -4.06472 -0.957626 0
M  V30 5907 N 557.244 -0.608902 -1.45362 0
M  V30 5908 C 558.192 0.121639 -2.32282 0
M  V30 5909 C 559.186 0.858301 -1.46046 0
M  V30 5910 O 560.392 0.773718 -1.62523 0
M  V30 5911 H 556.767 0.058086 -0.749753 0
M  V30 5912 H 558.738 -0.629866 -2.91677 0
M  V30 5913 C 557.487 1.1047 -3.29684 0
M  V30 5914 H 556.81 0.547278 -3.96036 0
M  V30 5915 H 558.25 1.58576 -3.9323 0
M  V30 5916 C 556.709 2.17891 -2.56954 0
M  V30 5917 O 557.239 3.25652 -2.35189 0
M  V30 5918 N 555.445 1.93211 -2.17066 0
M  V30 5919 H 554.992 1.05584 -2.34967 0
M  V30 5920 H 554.95 2.6529 -1.68727 0
M  V30 5921 N 558.722 1.53707 -0.348139 0
M  V30 5922 C 560.133 1.86213 0.134797 0
M  V30 5923 C 560.484 1.26925 1.49614 0
M  V30 5924 O 559.609 0.584573 2.08355 0
M  V30 5925 C 560.204 3.37866 0.251371 0
M  V30 5926 C 558.763 3.70233 0.678543 0
M  V30 5927 C 557.91 2.76683 -0.184925 0
M  V30 5928 H 560.861 1.48204 -0.567571 0
M  V30 5929 H 560.882 3.64908 1.07806 0
M  V30 5930 H 560.394 3.80988 -0.739581 0
M  V30 5931 H 558.495 3.32659 1.67835 0
M  V30 5932 H 558.608 4.76836 0.465251 0
M  V30 5933 H 556.972 2.52374 0.343465 0
M  V30 5934 H 557.755 3.22635 -1.1731 0
M  V30 5935 N 560.2 0.0768682 1.57412 0
M  V30 5936 C 561.446 -0.591961 1.93968 0
M  V30 5937 C 561.779 -1.68954 0.9575 0
M  V30 5938 O 561.054 -1.94496 -0.0124675 0
M  V30 5939 C 561.337 -1.16418 3.40762 0
M  V30 5940 C 561.19 -0.0728933 4.49741 0
M  V30 5941 C 562.509 -2.06814 3.88479 0
M  V30 5942 H 559.628 -0.213716 0.705333 0
M  V30 5943 H 562.27 0.14387 1.89455 0
M  V30 5944 H 560.42 -1.79128 3.4474 0
M  V30 5945 H 562.092 0.560446 4.57883 0
M  V30 5946 H 560.335 0.595859 4.29688 0
M  V30 5947 H 561.006 -0.513755 5.49604 0
M  V30 5948 H 563.482 -1.54033 3.8654 0
M  V30 5949 H 562.358 -2.43785 4.91793 0
M  V30 5950 H 562.619 -2.97844 3.26713 0
M  V30 5951 N 561.678 -1.56367 -0.196722 0
M  V30 5952 C 562.925 -1.80529 -0.917366 0
M  V30 5953 C 563.253 -0.649817 -1.83324 0
M  V30 5954 O 562.508 0.36451 -1.92275 0
M  V30 5955 C 562.807 -3.10663 -1.767 0
M  V30 5956 C 562.473 -4.3962 -1.00225 0
M  V30 5957 C 561.135 -4.74653 -0.791095 0
M  V30 5958 C 563.487 -5.1913 -0.464035 0
M  V30 5959 C 560.815 -5.86692 -0.0302155 0
M  V30 5960 C 563.167 -6.31964 0.283625 0
M  V30 5961 C 561.831 -6.65581 0.505813 0
M  V30 5962 H 561.101 -0.660602 -0.335688 0
M  V30 5963 H 563.748 -1.90615 -0.183844 0
M  V30 5964 H 562.053 -2.95807 -2.56915 0
M  V30 5965 H 563.75 -3.26563 -2.32718 0
M  V30 5966 H 560.34 -4.12127 -1.17684 0
M  V30 5967 H 564.524 -4.9248 -0.614575 0
M  V30 5968 H 559.78 -6.11211 0.151917 0
M  V30 5969 H 563.954 -6.92791 0.708057 0
M  V30 5970 H 561.581 -7.52239 1.0973 0
M  V30 5971 N 563.156 0.464375 -1.50603 0
M  V30 5972 C 564.433 1.22549 -1.5245 0
M  V30 5973 C 564.813 2.09327 -0.273035 0
M  V30 5974 O 564.161 2.16074 0.743242 0
M  V30 5975 C 564.371 2.05074 -2.82393 0
M  V30 5976 C 565.719 2.63036 -3.33313 0
M  V30 5977 O 566.743 2.1531 -2.8376 0
M  V30 5978 O 565.602 3.5001 -4.19709 0
M  V30 5979 H 562.696 0.556471 -0.611775 0
M  V30 5980 H 565.242 0.475648 -1.62898 0
M  V30 5981 H 564.014 1.41169 -3.64948 0
M  V30 5982 H 563.637 2.87179 -2.7498 0
M  V30 5983 N 564.634 1.40294 0.718013 0
M  V30 5984 C 565.864 1.41544 1.50495 0
M  V30 5985 C 566.272 0.0127877 1.89196 0
M  V30 5986 O 565.615 -0.97305 1.55812 0
M  V30 5987 C 565.677 2.24021 2.81167 0
M  V30 5988 C 565.341 3.72463 2.64803 0
M  V30 5989 C 566.338 4.65154 2.32223 0
M  V30 5990 C 564.023 4.1625 2.81143 0
M  V30 5991 C 566.017 5.99618 2.16189 0
M  V30 5992 C 563.704 5.50784 2.64727 0
M  V30 5993 C 564.702 6.42283 2.32297 0
M  V30 5994 O 564.39 7.74337 2.16004 0
M  V30 5995 H 564.122 0.484819 0.471091 0
M  V30 5996 H 566.676 1.84948 0.893488 0
M  V30 5997 H 564.906 1.75393 3.44636 0
M  V30 5998 H 566.595 2.17243 3.42871 0
M  V30 5999 H 567.361 4.32622 2.19234 0
M  V30 6000 H 563.24 3.45352 3.05373 0
M  V30 6001 H 566.784 6.71 1.90799 0
M  V30 6002 H 562.681 5.82902 2.773 0
M  V30 6003 H 563.449 7.85244 2.30942 0
M  V30 6004 N 566.112 -0.949982 1.2575 0
M  V30 6005 C 567.044 -2.05088 1.02331 0
M  V30 6006 C 568.057 -1.62795 -0.0133247 0
M  V30 6007 O 569.246 -1.77067 0.225759 0
M  V30 6008 C 566.346 -3.34794 0.525924 0
M  V30 6009 C 565.519 -4.05903 1.62978 0
M  V30 6010 C 564.578 -5.1388 1.13196 0
M  V30 6011 O 563.604 -5.39072 1.82729 0
M  V30 6012 N 564.806 -5.80495 -0.0242926 0
M  V30 6013 H 567.571 -2.25747 1.97125 0
M  V30 6014 H 565.132 -1.11886 1.17018 0
M  V30 6015 H 567.124 -4.04312 0.177263 0
M  V30 6016 H 565.694 -3.10872 -0.328202 0
M  V30 6017 H 564.914 -3.3042 2.1498 0
M  V30 6018 H 566.202 -4.50166 2.37124 0
M  V30 6019 H 565.6 -5.62454 -0.605184 0
M  V30 6020 H 564.157 -6.51043 -0.313947 0
M  V30 6021 N 567.59 -1.07411 -1.15328 0
M  V30 6022 C 568.52 -0.716472 -2.22236 0
M  V30 6023 C 569.501 0.296373 -1.67498 0
M  V30 6024 O 570.686 0.168989 -1.93463 0
M  V30 6025 C 567.816 -0.114142 -3.47112 0
M  V30 6026 C 566.77 -1.05421 -4.14814 0
M  V30 6027 C 566.096 -0.314604 -5.33774 0
M  V30 6028 C 567.396 -2.38808 -4.64508 0
M  V30 6029 H 569.09 -1.61029 -2.52408 0
M  V30 6030 H 566.636 -0.775702 -1.21321 0
M  V30 6031 H 568.589 0.148001 -4.2114 0
M  V30 6032 H 567.313 0.814755 -3.16274 0
M  V30 6033 H 565.972 -1.30128 -3.42728 0
M  V30 6034 H 565.62 0.617772 -4.99192 0
M  V30 6035 H 565.32 -0.941209 -5.80013 0
M  V30 6036 H 566.844 -0.0602747 -6.1057 0
M  V30 6037 H 568.258 -2.18424 -5.3006 0
M  V30 6038 H 566.655 -2.97069 -5.21412 0
M  V30 6039 H 567.725 -3.01067 -3.80114 0
M  V30 6040 N 569.068 1.32177 -0.85831 0
M  V30 6041 C 570.298 2.01021 -0.476889 0
M  V30 6042 C 570.706 1.64653 0.931995 0
M  V30 6043 O 570.049 0.865713 1.62022 0
M  V30 6044 C 570.111 3.55413 -0.540528 0
M  V30 6045 C 569.775 4.1522 -1.90895 0
M  V30 6046 C 570.772 4.3318 -2.87491 0
M  V30 6047 C 568.457 4.51212 -2.20709 0
M  V30 6048 C 570.451 4.86306 -4.1205 0
M  V30 6049 C 568.138 5.04042 -3.45521 0
M  V30 6050 C 569.136 5.21538 -4.41007 0
M  V30 6051 O 568.824 5.73238 -5.63608 0
M  V30 6052 H 568.556 0.650059 -0.18547 0
M  V30 6053 H 571.11 1.69648 -1.15796 0
M  V30 6054 H 569.34 3.86196 0.19741 0
M  V30 6055 H 571.029 4.05526 -0.174191 0
M  V30 6056 H 571.795 4.05704 -2.65762 0
M  V30 6057 H 567.674 4.36878 -1.4717 0
M  V30 6058 H 571.218 4.99877 -4.86589 0
M  V30 6059 H 567.115 5.30952 -3.67098 0
M  V30 6060 H 567.883 5.91625 -5.65617 0
M  V30 6061 N 570.547 0.616602 1.45037 0
M  V30 6062 C 571.794 0.115331 2.02171 0
M  V30 6063 C 572.122 -1.25748 1.48383 0
M  V30 6064 O 571.377 -1.84511 0.652229 0
M  V30 6065 C 571.676 0.0356829 3.57382 0
M  V30 6066 C 571.342 1.34535 4.30362 0
M  V30 6067 C 570.004 1.70408 4.50016 0
M  V30 6068 C 572.356 2.21049 4.72003 0
M  V30 6069 C 569.684 2.92529 5.0857 0
M  V30 6070 C 572.036 3.42427 5.31908 0
M  V30 6071 C 570.7 3.78541 5.49784 0
M  V30 6072 H 569.97 0.0422024 0.739797 0
M  V30 6073 H 572.617 0.80002 1.73988 0
M  V30 6074 H 570.922 -0.732314 3.84895 0
M  V30 6075 H 572.619 -0.368463 3.99304 0
M  V30 6076 H 569.209 1.05615 4.15383 0
M  V30 6077 H 573.393 1.94632 4.56544 0
M  V30 6078 H 568.649 3.20605 5.20598 0
M  V30 6079 H 572.823 4.09709 5.63127 0
M  V30 6080 H 570.45 4.73255 5.94923 0
M  V30 6081 N 572.025 -1.5352 0.356285 0
M  V30 6082 C 572.957 -2.23009 -0.529127 0
M  V30 6083 C 573.97 -1.241 -1.05371 0
M  V30 6084 O 575.159 -1.50379 -0.961679 0
M  V30 6085 C 572.259 -2.90685 -1.74229 0
M  V30 6086 C 571.432 -4.16019 -1.35081 0
M  V30 6087 C 570.491 -4.66989 -2.42502 0
M  V30 6088 O 569.517 -5.30895 -2.05279 0
M  V30 6089 N 570.719 -4.44006 -3.7395 0
M  V30 6090 H 573.484 -2.99627 0.0660501 0
M  V30 6091 H 571.045 -1.60885 0.181014 0
M  V30 6092 H 573.037 -3.21695 -2.4555 0
M  V30 6093 H 571.607 -2.17575 -2.24454 0
M  V30 6094 H 570.827 -3.91414 -0.467833 0
M  V30 6095 H 572.115 -4.9752 -1.06542 0
M  V30 6096 H 571.513 -3.92924 -4.06973 0
M  V30 6097 H 570.07 -4.7959 -4.41403 0
M  V30 6098 N 573.503 -0.0852151 -1.57369 0
M  V30 6099 C 574.413 0.891712 -2.16992 0
M  V30 6100 C 575.429 1.3174 -1.13669 0
M  V30 6101 O 576.605 1.38735 -1.45995 0
M  V30 6102 C 573.67 2.13635 -2.73059 0
M  V30 6103 C 572.731 1.7658 -3.91303 0
M  V30 6104 C 571.964 2.95111 -4.44686 0
M  V30 6105 O 572.187 4.09539 -3.97032 0
M  V30 6106 O 571.121 2.74149 -5.35841 0
M  V30 6107 H 574.947 0.414477 -3.00858 0
M  V30 6108 H 572.532 0.138598 -1.48756 0
M  V30 6109 H 574.414 2.86595 -3.08935 0
M  V30 6110 H 573.089 2.6043 -1.92244 0
M  V30 6111 H 571.996 1.00831 -3.60255 0
M  V30 6112 H 573.329 1.34557 -4.7345 0
M  V30 6113 N 574.981 1.5647 0.188427 0
M  V30 6114 C 576.392 1.70864 0.752494 0
M  V30 6115 C 576.743 0.692905 1.83557 0
M  V30 6116 O 575.868 -0.149307 2.15884 0
M  V30 6117 C 576.463 3.09789 1.37173 0
M  V30 6118 C 575.022 3.25925 1.88281 0
M  V30 6119 C 574.169 2.66817 0.755259 0
M  V30 6120 H 577.12 1.58657 -0.0367408 0
M  V30 6121 H 577.141 3.07489 2.24122 0
M  V30 6122 H 576.653 3.83693 0.583219 0
M  V30 6123 H 574.754 2.56948 2.6983 0
M  V30 6124 H 574.867 4.33498 2.04001 0
M  V30 6125 H 573.231 2.2617 1.17128 0
M  V30 6126 H 574.014 3.43294 -0.0211237 0
M  V30 6127 N 576.459 -0.456382 1.50847 0
M  V30 6128 C 577.707 -1.20497 1.62249 0
M  V30 6129 C 578.028 -1.92156 0.331839 0
M  V30 6130 O 577.298 -1.84751 -0.651443 0
M  V30 6131 H 575.878 -0.447775 0.597918 0
M  V30 6132 H 578.54 -0.525099 1.87693 0
M  V30 6133 H 577.636 -1.94492 2.44089 0
M  V30 6134 N 577.937 -1.40673 -0.710563 0
M  V30 6135 C 579.183 -1.39428 -1.47267 0
M  V30 6136 C 579.516 0.00182129 -1.942 0
M  V30 6137 O 578.791 0.971387 -1.68506 0
M  V30 6138 C 579.074 -2.38812 -2.6952 0
M  V30 6139 C 578.927 -3.87467 -2.28449 0
M  V30 6140 C 580.246 -2.3566 -3.71689 0
M  V30 6141 H 577.365 -0.507768 -0.534173 0
M  V30 6142 H 580.007 -1.71843 -0.810547 0
M  V30 6143 H 578.157 -2.113 -3.26013 0
M  V30 6144 H 579.829 -4.25825 -1.77399 0
M  V30 6145 H 578.072 -4.03058 -1.60395 0
M  V30 6146 H 578.743 -4.5253 -3.16103 0
M  V30 6147 H 581.219 -2.6004 -3.24836 0
M  V30 6148 H 580.095 -3.07237 -4.54859 0
M  V30 6149 H 580.356 -1.36996 -4.20339 0
M  V30 6150 N 579.415 0.9433 -1.26252 0
M  V30 6151 C 580.378 2.02326 -1.07689 0
M  V30 6152 C 581.378 1.60779 -0.0259174 0
M  V30 6153 O 582.568 1.72108 -0.269134 0
M  V30 6154 C 579.7 3.34886 -0.63752 0
M  V30 6155 H 580.893 2.20225 -2.0357 0
M  V30 6156 H 578.446 1.12197 -1.08819 0
M  V30 6157 H 579.181 3.22684 0.323377 0
M  V30 6158 H 578.966 3.66393 -1.39637 0
M  V30 6159 H 580.456 4.14231 -0.529418 0
M  V30 6160 N 580.893 1.08022 1.14757 0
M  V30 6161 C 581.803 0.718292 2.23333 0
M  V30 6162 C 582.819 -0.273477 1.71837 0
M  V30 6163 O 583.995 -0.118406 2.01052 0
M  V30 6164 C 581.06 0.128855 3.4646 0
M  V30 6165 C 580.121 1.17473 4.12915 0
M  V30 6166 C 579.354 0.61333 5.30164 0
M  V30 6167 O 579.577 -0.568458 5.6756 0
M  V30 6168 O 578.511 1.3615 5.86299 0
M  V30 6169 H 582.337 1.62394 2.56636 0
M  V30 6170 H 579.922 0.853628 1.22611 0
M  V30 6171 H 581.804 -0.197249 4.20938 0
M  V30 6172 H 580.479 -0.750014 3.14891 0
M  V30 6173 H 579.386 1.5533 3.40328 0
M  V30 6174 H 580.719 2.02574 4.48581 0
M  V30 6175 N 582.371 -1.3172 0.865308 0
M  V30 6176 C 583.334 -2.26918 0.322627 0
M  V30 6177 C 584.334 -1.52031 -0.523751 0
M  V30 6178 O 585.524 -1.70973 -0.333727 0
M  V30 6179 C 582.656 -3.36558 -0.542338 0
M  V30 6180 H 583.849 -2.76432 1.16298 0
M  V30 6181 H 581.402 -1.42573 0.640512 0
M  V30 6182 H 582.137 -2.92329 -1.40407 0
M  V30 6183 H 581.922 -3.92048 0.0636395 0
M  V30 6184 H 583.412 -4.07465 -0.91446 0
M  V30 6185 N 583.85 -0.624285 -1.44708 0
M  V30 6186 C 584.76 0.0861083 -2.34442 0
M  V30 6187 C 585.776 0.84291 -1.5222 0
M  V30 6188 O 586.952 0.796723 -1.84971 0
M  V30 6189 C 584.017 1.05999 -3.30099 0
M  V30 6190 C 583.077 0.303316 -4.28227 0
M  V30 6191 C 582.311 1.23081 -5.19314 0
M  V30 6192 O 582.534 2.46929 -5.14181 0
M  V30 6193 O 581.468 0.71883 -5.97592 0
M  V30 6194 H 585.293 -0.651756 -2.96624 0
M  V30 6195 H 582.879 -0.384493 -1.44368 0
M  V30 6196 H 584.76 1.62046 -3.88997 0
M  V30 6197 H 583.436 1.77859 -2.70459 0
M  V30 6198 H 582.343 -0.300033 -3.72895 0
M  V30 6199 H 583.676 -0.375123 -4.90768 0
M  V30 6200 N 585.328 1.53329 -0.364422 0
M  V30 6201 C 586.258 2.28627 0.474543 0
M  V30 6202 C 587.239 1.31009 1.08492 0
M  V30 6203 O 588.424 1.59878 1.10239 0
M  V30 6204 C 585.554 3.07465 1.61501 0
M  V30 6205 C 584.508 4.1276 1.13194 0
M  V30 6206 C 583.834 4.79674 2.36255 0
M  V30 6207 C 585.134 5.21847 0.217507 0
M  V30 6208 H 586.828 2.99005 -0.153656 0
M  V30 6209 H 584.374 1.43803 -0.0753406 0
M  V30 6210 H 586.327 3.58889 2.20855 0
M  V30 6211 H 585.051 2.34775 2.27042 0
M  V30 6212 H 583.71 3.62281 0.56109 0
M  V30 6213 H 583.358 4.03557 3.00251 0
M  V30 6214 H 583.058 5.50827 2.04606 0
M  V30 6215 H 584.582 5.33892 2.96297 0
M  V30 6216 H 585.996 5.6878 0.718493 0
M  V30 6217 H 584.393 6.00099 -0.00806408 0
M  V30 6218 H 585.463 4.7921 -0.740653 0
M  V30 6219 N 586.806 0.0935595 1.57322 0
M  V30 6220 C 587.716 -0.880192 2.17462 0
M  V30 6221 C 588.732 -1.31135 1.14366 0
M  V30 6222 O 589.908 -1.37958 1.46729 0
M  V30 6223 C 586.973 -2.12184 2.74188 0
M  V30 6224 C 586.034 -1.74503 3.92234 0
M  V30 6225 C 585.267 -2.92748 4.46245 0
M  V30 6226 O 585.49 -4.07427 3.99198 0
M  V30 6227 O 584.424 -2.71303 5.37288 0
M  V30 6228 H 588.25 -0.398516 3.01074 0
M  V30 6229 H 585.835 -0.130707 1.48827 0
M  V30 6230 H 587.717 -2.84953 3.10451 0
M  V30 6231 H 586.392 -2.59407 1.93623 0
M  V30 6232 H 585.299 -0.989186 3.60785 0
M  V30 6233 H 586.632 -1.32044 4.74157 0
M  V30 6234 N 588.284 -1.56567 -0.180126 0
M  V30 6235 C 589.216 -1.92275 -1.24751 0
M  V30 6236 C 590.229 -0.814922 -1.40936 0
M  V30 6237 O 591.418 -1.09336 -1.41095 0
M  V30 6238 C 588.518 -2.15265 -2.61752 0
M  V30 6239 C 587.691 -3.46467 -2.66981 0
M  V30 6240 C 586.75 -3.58391 -3.85283 0
M  V30 6241 O 585.776 -4.31086 -3.7169 0
M  V30 6242 N 586.978 -2.92587 -5.01371 0
M  V30 6243 H 589.743 -2.84435 -0.944302 0
M  V30 6244 H 587.304 -1.57617 -0.369952 0
M  V30 6245 H 589.296 -2.20515 -3.39345 0
M  V30 6246 H 587.866 -1.29533 -2.845 0
M  V30 6247 H 587.086 -3.52953 -1.75549 0
M  V30 6248 H 588.374 -4.32819 -2.67479 0
M  V30 6249 H 587.772 -2.3338 -5.15316 0
M  V30 6250 H 586.329 -3.03444 -5.76858 0
M  V30 6251 N 589.762 0.448376 -1.51087 0
M  V30 6252 C 590.71 1.56407 -1.72161 0
M  V30 6253 C 591.704 1.58878 -0.587721 0
M  V30 6254 O 592.91 1.62755 -0.768822 0
M  V30 6255 H 589.285 0.519423 -0.543786 0
M  V30 6256 H 591.256 1.35803 -2.65707 0
M  V30 6257 C 590.005 2.94163 -1.85373 0
M  V30 6258 H 589.328 2.9299 -2.72024 0
M  V30 6259 H 590.768 3.71625 -2.04135 0
M  V30 6260 C 589.227 3.31317 -0.610803 0
M  V30 6261 O 589.757 4.00985 0.239636 0
M  V30 6262 N 587.963 2.86966 -0.458127 0
M  V30 6263 H 587.51 2.30443 -1.15124 0
M  V30 6264 H 587.468 3.12188 0.372289 0
M  V30 6265 N 591.24 1.41047 0.703093 0
M  V30 6266 C 592.17 1.45067 1.82969 0
M  V30 6267 C 593.151 0.31016 1.67248 0
M  V30 6268 O 594.336 0.520548 1.87093 0
M  V30 6269 C 591.466 1.32478 3.2104 0
M  V30 6270 C 590.42 2.44262 3.51454 0
M  V30 6271 C 589.746 2.16742 4.88801 0
M  V30 6272 C 591.046 3.86606 3.51189 0
M  V30 6273 H 592.74 2.39353 1.79863 0
M  V30 6274 H 590.286 1.15206 0.863919 0
M  V30 6275 H 592.239 1.33904 3.99559 0
M  V30 6276 H 590.963 0.346735 3.24754 0
M  V30 6277 H 589.622 2.42107 2.75282 0
M  V30 6278 H 589.27 1.17299 4.89132 0
M  V30 6279 H 588.97 2.91643 5.10116 0
M  V30 6280 H 590.494 2.19872 5.69639 0
M  V30 6281 H 591.908 3.90517 4.19725 0
M  V30 6282 H 590.305 4.61128 3.84033 0
M  V30 6283 H 591.375 4.15296 2.50315 0
M  V30 6284 N 592.718 -0.936591 1.26751 0
M  V30 6285 C 593.943 -1.72288 1.15462 0
M  V30 6286 C 594.368 -1.85915 -0.285887 0
M  V30 6287 O 593.726 -1.35272 -1.20711 0
M  V30 6288 C 593.774 -3.10503 1.83359 0
M  V30 6289 O 592.878 -3.96745 1.1255 0
M  V30 6290 H 592.219 -0.52843 0.402067 0
M  V30 6291 H 594.749 -1.17271 1.67656 0
M  V30 6292 H 594.759 -3.60867 1.90365 0
M  V30 6293 H 593.434 -2.99901 2.88153 0
M  V30 6294 H 592.011 -3.55191 1.13551 0
M  V30 6295 N 594.196 -1.08629 -1.14182 0
M  V30 6296 C 595.612 -0.814363 -1.3726 0
M  V30 6297 C 595.812 0.575271 -1.93114 0
M  V30 6298 O 594.868 1.33165 -2.1453 0
M  V30 6299 C 596.181 -1.8989 -2.33157 0
M  V30 6300 C 597.729 -1.92518 -2.46791 0
M  V30 6301 C 598.204 -3.00092 -3.45989 0
M  V30 6302 N 599.695 -2.99279 -3.53534 0
M  V30 6303 C 600.43 -3.79158 -4.30147 0
M  V30 6304 N 599.926 -4.68923 -5.09983 0
M  V30 6305 N 601.719 -3.67451 -4.25366 0
M  V30 6306 H 593.87 -1.98232 -0.762758 0
M  V30 6307 H 596.133 -0.860383 -0.398051 0
M  V30 6308 H 595.839 -2.89809 -1.99257 0
M  V30 6309 H 595.713 -1.77013 -3.33086 0
M  V30 6310 H 598.1 -0.932425 -2.79982 0
M  V30 6311 H 598.181 -2.09473 -1.46816 0
M  V30 6312 H 597.825 -3.99575 -3.13532 0
M  V30 6313 H 597.755 -2.80382 -4.45751 0
M  V30 6314 H 600.246 -2.3422 -2.96563 0
M  V30 6315 H 600.559 -5.26475 -5.65724 0
M  V30 6316 H 598.904 -4.72964 -5.09244 0
M  V30 6317 H 602.095 -2.9669 -3.62067 0
M  V30 6318 H 602.268 -4.29944 -4.84822 0
M  V30 6319 N 595.674 1.31259 -0.872281 0
M  V30 6320 C 596.902 2.00795 -0.498907 0
M  V30 6321 C 597.317 1.65464 0.909238 0
M  V30 6322 O 596.674 0.885073 1.59602 0
M  V30 6323 C 596.725 3.55625 -0.649092 0
M  V30 6324 O 596.446 3.89692 -2.00179 0
M  V30 6325 C 597.947 4.42434 -0.277034 0
M  V30 6326 H 595.167 0.642299 -0.194145 0
M  V30 6327 H 597.711 1.67438 -1.17408 0
M  V30 6328 H 595.866 3.87394 -0.0214402 0
M  V30 6329 H 596.28 4.84407 -2.01122 0
M  V30 6330 H 597.754 5.50299 -0.433064 0
M  V30 6331 H 598.231 4.32146 0.783989 0
M  V30 6332 H 598.837 4.16086 -0.880483 0
M  V30 6333 N 597.152 0.631951 1.44375 0
M  V30 6334 C 598.399 0.136767 2.02038 0
M  V30 6335 C 598.727 -1.24168 1.49709 0
M  V30 6336 O 597.982 -1.83809 0.671763 0
M  V30 6337 C 598.281 0.0735861 3.57324 0
M  V30 6338 C 597.947 1.39092 4.28911 0
M  V30 6339 C 596.609 1.75171 4.48184 0
M  V30 6340 C 598.961 2.26042 4.69632 0
M  V30 6341 C 596.289 2.97907 5.05439 0
M  V30 6342 C 598.641 3.4805 5.28246 0
M  V30 6343 C 597.305 3.84351 5.45738 0
M  V30 6344 H 596.575 0.0500466 0.739308 0
M  V30 6345 H 599.222 0.818429 1.7313 0
M  V30 6346 H 597.527 -0.691449 3.8565 0
M  V30 6347 H 599.224 -0.326091 3.99672 0
M  V30 6348 H 595.814 1.10015 4.1424 0
M  V30 6349 H 599.998 1.99463 4.54454 0
M  V30 6350 H 595.254 3.26108 5.17169 0
M  V30 6351 H 599.428 4.15658 5.5875 0
M  V30 6352 H 597.055 4.79538 5.8987 0
M  V30 6353 N 598.631 -1.53133 0.372548 0
M  V30 6354 C 599.578 -2.25951 -0.470631 0
M  V30 6355 C 600.548 -1.26895 -1.07176 0
M  V30 6356 O 601.733 -1.55691 -1.10294 0
M  V30 6357 C 598.873 -3.05726 -1.6008 0
M  V30 6358 C 597.986 -4.19684 -1.02416 0
M  V30 6359 C 597.121 -4.86888 -2.124 0
M  V30 6360 C 596.16 -5.92866 -1.52238 0
M  V30 6361 N 595.297 -6.53732 -2.56084 0
M  V30 6362 H 600.137 -2.97587 0.156816 0
M  V30 6363 H 597.674 -1.4683 0.0891571 0
M  V30 6364 H 599.632 -3.50258 -2.26661 0
M  V30 6365 H 598.262 -2.36331 -2.1988 0
M  V30 6366 H 597.314 -3.79588 -0.248426 0
M  V30 6367 H 598.626 -4.95821 -0.544366 0
M  V30 6368 H 597.78 -5.34638 -2.86787 0
M  V30 6369 H 596.519 -4.10239 -2.63734 0
M  V30 6370 H 595.524 -5.4447 -0.763685 0
M  V30 6371 H 596.749 -6.71439 -1.0172 0
M  V30 6372 H 594.695 -5.79932 -3.06618 0
M  V30 6373 H 594.612 -7.25429 -2.12811 0
M  V30 6374 H 595.88 -7.0613 -3.30152 0
M  V30 6375 N 600.109 -0.101901 -1.5727 0
M  V30 6376 C 601.334 0.571759 -1.99363 0
M  V30 6377 C 601.759 1.60507 -0.980768 0
M  V30 6378 O 601.117 1.81231 0.0498517 0
M  V30 6379 C 601.165 1.18996 -3.404 0
M  V30 6380 O 600.269 2.30572 -3.41922 0
M  V30 6381 H 599.61 0.144449 -0.648098 0
M  V30 6382 H 602.14 -0.185325 -2.03759 0
M  V30 6383 H 602.15 1.52962 -3.78241 0
M  V30 6384 H 600.825 0.432984 -4.1364 0
M  V30 6385 H 599.402 1.98173 -3.15883 0
M  V30 6386 N 601.587 1.56661 0.17182 0
M  V30 6387 C 602.517 1.99401 1.21498 0
M  V30 6388 C 603.498 0.869516 1.46197 0
M  V30 6389 O 604.683 1.13556 1.57539 0
M  V30 6390 C 601.813 2.35346 2.55401 0
M  V30 6391 C 600.767 3.5075 2.45272 0
M  V30 6392 C 600.093 3.72437 3.8366 0
M  V30 6393 C 601.393 4.84216 1.95787 0
M  V30 6394 H 603.087 2.86792 0.859699 0
M  V30 6395 H 600.633 1.37977 0.412103 0
M  V30 6396 H 602.586 2.63843 3.2858 0
M  V30 6397 H 601.31 1.44864 2.92715 0
M  V30 6398 H 599.969 3.2238 1.74547 0
M  V30 6399 H 599.617 2.79246 4.18367 0
M  V30 6400 H 599.317 4.50087 3.77751 0
M  V30 6401 H 600.841 4.03334 4.58426 0
M  V30 6402 H 602.255 5.11592 2.5874 0
M  V30 6403 H 600.652 5.65498 2.00827 0
M  V30 6404 H 601.722 4.76243 0.912159 0
M  V30 6405 N 603.065 -0.440357 1.51323 0
M  V30 6406 C 604.312 -1.19004 1.63842 0
M  V30 6407 C 604.64 -1.91266 0.35321 0
M  V30 6408 O 603.895 -1.84143 -0.662565 0
M  V30 6409 C 604.194 -2.2339 2.78984 0
M  V30 6410 C 603.86 -1.68162 4.18369 0
M  V30 6411 C 602.522 -1.52823 4.56288 0
M  V30 6412 C 604.874 -1.27524 5.05358 0
M  V30 6413 C 602.202 -0.953157 5.78906 0
M  V30 6414 C 604.554 -0.714474 6.28552 0
M  V30 6415 C 603.218 -0.547961 6.65247 0
M  V30 6416 H 602.488 -0.435468 0.59954 0
M  V30 6417 H 605.135 -0.481538 1.85347 0
M  V30 6418 H 603.44 -3.00267 2.51688 0
M  V30 6419 H 605.137 -2.81211 2.85869 0
M  V30 6420 H 601.727 -1.81077 3.8847 0
M  V30 6421 H 605.911 -1.38197 4.76671 0
M  V30 6422 H 601.167 -0.811882 6.05986 0
M  V30 6423 H 605.341 -0.391059 6.95301 0
M  V30 6424 H 602.968 -0.100222 7.60134 0
M  V30 6425 N 604.543 -1.41418 -0.695603 0
M  V30 6426 C 605.959 -1.23887 -1.00619 0
M  V30 6427 C 606.159 -0.128206 -2.01092 0
M  V30 6428 O 605.215 0.507408 -2.47349 0
M  V30 6429 C 606.528 -2.58816 -1.53083 0
M  V30 6430 C 608.076 -2.65998 -1.64967 0
M  V30 6431 C 608.551 -4.01244 -2.20833 0
M  V30 6432 N 610.042 -4.0309 -2.28194 0
M  V30 6433 C 610.777 -5.04539 -2.72448 0
M  V30 6434 N 610.273 -6.16378 -3.16306 0
M  V30 6435 N 612.066 -4.91901 -2.72011 0
M  V30 6436 H 604.217 -2.12379 -0.0300061 0
M  V30 6437 H 606.48 -0.944958 -0.0758797 0
M  V30 6438 H 606.186 -3.40842 -0.867147 0
M  V30 6439 H 606.06 -2.81299 -2.51298 0
M  V30 6440 H 608.447 -1.84331 -2.30448 0
M  V30 6441 H 608.528 -2.47325 -0.652982 0
M  V30 6442 H 608.172 -4.83359 -1.55968 0
M  V30 6443 H 608.102 -4.17257 -3.21254 0
M  V30 6444 H 610.593 -3.22341 -1.97242 0
M  V30 6445 H 610.906 -6.89658 -3.487 0
M  V30 6446 H 609.251 -6.19914 -3.14215 0
M  V30 6447 H 612.442 -4.03613 -2.37095 0
M  V30 6448 H 612.615 -5.71102 -3.06181 0
M  V30 6449 N 606.021 0.929856 -1.27246 0
M  V30 6450 C 606.984 2.01172 -1.09829 0
M  V30 6451 C 607.984 1.60743 -0.0429687 0
M  V30 6452 O 609.174 1.71813 -0.287373 0
M  V30 6453 C 606.306 3.34191 -0.673003 0
M  V30 6454 H 607.499 2.18054 -2.05895 0
M  V30 6455 H 605.052 1.11036 -1.10003 0
M  V30 6456 H 605.787 3.23009 0.289134 0
M  V30 6457 H 605.572 3.64892 -1.43515 0
M  V30 6458 H 607.062 4.13646 -0.573323 0
M  V30 6459 N 607.499 1.09233 1.13605 0
M  V30 6460 C 608.724 0.849067 1.89224 0
M  V30 6461 C 609.149 -0.593875 1.78479 0
M  V30 6462 O 608.507 -1.41703 1.13092 0
M  V30 6463 C 608.555 1.28642 3.36873 0
M  V30 6464 O 607.659 0.44363 4.10007 0
M  V30 6465 H 607 0.30767 0.588417 0
M  V30 6466 H 609.53 1.45595 1.43748 0
M  V30 6467 H 609.54 1.27096 3.87699 0
M  V30 6468 H 608.215 2.33729 3.44011 0
M  V30 6469 H 606.792 0.523241 3.69211 0
M  V30 6470 N 608.977 -1.30795 0.87923 0
M  V30 6471 C 610.254 -1.91145 0.415086 0
M  V30 6472 C 610.634 -1.7995 -1.10368 0
M  V30 6473 O 609.982 -1.21305 -1.93642 0
M  V30 6474 C 610.192 -3.37014 0.906778 0
M  V30 6475 C 611.54 -4.14101 0.938358 0
M  V30 6476 O 612.564 -3.45834 0.853053 0
M  V30 6477 O 611.423 -5.36054 1.06342 0
M  V30 6478 H 608.517 -0.81736 0.125905 0
M  V30 6479 H 611.063 -1.39401 0.967753 0
M  V30 6480 H 609.835 -3.3922 1.95053 0
M  V30 6481 H 609.458 -3.96204 0.332948 0
M  V30 6482 N 610.455 -0.639598 -1.44038 0
M  V30 6483 C 611.365 0.0612377 -2.3452 0
M  V30 6484 C 612.381 0.826717 -1.53106 0
M  V30 6485 O 613.557 0.777059 -1.85806 0
M  V30 6486 C 610.622 1.02492 -3.31204 0
M  V30 6487 C 609.683 0.25788 -4.28525 0
M  V30 6488 C 608.916 1.17566 -5.2059 0
M  V30 6489 O 609.139 2.41461 -5.16771 0
M  V30 6490 O 608.073 0.655407 -5.98321 0
M  V30 6491 H 611.899 -0.68318 -2.95916 0
M  V30 6492 H 609.484 -0.399784 -1.43952 0
M  V30 6493 H 611.366 1.57911 -3.90694 0
M  V30 6494 H 610.041 1.7498 -2.7233 0
M  V30 6495 H 608.948 -0.339566 -3.72556 0
M  V30 6496 H 610.281 -0.427154 -4.90343 0
M  V30 6497 N 611.933 1.52934 -0.380664 0
M  V30 6498 C 613.158 2.06363 0.207157 0
M  V30 6499 C 613.583 1.25122 1.4045 0
M  V30 6500 O 612.941 0.274062 1.79217 0
M  V30 6501 C 612.989 3.56162 0.563996 0
M  V30 6502 O 612.093 3.77552 1.65917 0
M  V30 6503 H 611.434 0.663468 0.0265859 0
M  V30 6504 H 613.964 1.9719 -0.545635 0
M  V30 6505 H 613.974 3.99453 0.830752 0
M  V30 6506 H 612.649 4.14732 -0.311427 0
M  V30 6507 H 611.226 3.46154 1.3868 0
M  V30 6508 N 613.412 0.11024 1.57214 0
M  V30 6509 C 614.658 -0.550684 1.9518 0
M  V30 6510 C 614.991 -1.66885 0.993122 0
M  V30 6511 O 614.266 -1.94479 0.0287907 0
M  V30 6512 C 614.549 -1.09163 3.43155 0
M  V30 6513 C 614.402 0.0225198 4.49794 0
M  V30 6514 C 615.721 -1.98527 3.92778 0
M  V30 6515 H 612.84 -0.198706 0.709708 0
M  V30 6516 H 615.482 0.184024 1.89107 0
M  V30 6517 H 613.632 -1.71775 3.48462 0
M  V30 6518 H 615.304 0.657443 4.56591 0
M  V30 6519 H 613.547 0.686868 4.28328 0
M  V30 6520 H 614.218 -0.39706 5.5057 0
M  V30 6521 H 616.694 -1.458 3.8972 0
M  V30 6522 H 615.57 -2.33298 4.96853 0
M  V30 6523 H 615.831 -2.90846 3.32958 0
M  V30 6524 N 614.89 -1.56749 -0.16351 0
M  V30 6525 C 615.82 -2.00042 -1.20438 0
M  V30 6526 C 616.801 -0.877256 -1.45733 0
M  V30 6527 O 617.986 -1.1439 -1.56935 0
M  V30 6528 C 615.116 -2.36697 -2.54149 0
M  V30 6529 C 614.07 -3.52046 -2.43408 0
M  V30 6530 C 613.396 -3.74466 -3.81679 0
M  V30 6531 C 614.696 -4.85247 -1.93216 0
M  V30 6532 H 616.39 -2.87244 -0.844477 0
M  V30 6533 H 613.936 -1.38194 -0.40478 0
M  V30 6534 H 615.889 -2.65582 -3.27176 0
M  V30 6535 H 614.613 -1.46414 -2.91943 0
M  V30 6536 H 613.272 -3.23301 -1.72834 0
M  V30 6537 H 612.92 -2.81461 -4.1688 0
M  V30 6538 H 612.62 -4.52084 -3.75359 0
M  V30 6539 H 614.144 -4.0576 -4.5628 0
M  V30 6540 H 615.558 -5.12957 -2.56023 0
M  V30 6541 H 613.955 -5.66556 -1.97825 0
M  V30 6542 H 615.025 -4.7672 -0.88689 0
M  V30 6543 N 616.368 0.432326 -1.51554 0
M  V30 6544 C 617.593 1.20824 -1.68571 0
M  V30 6545 C 618.018 1.84126 -0.384596 0
M  V30 6546 O 617.376 1.69025 0.655751 0
M  V30 6547 C 617.424 2.26429 -2.80646 0
M  V30 6548 O 616.528 3.32032 -2.44598 0
M  V30 6549 H 615.869 0.353765 -0.561913 0
M  V30 6550 H 618.399 0.509916 -1.98144 0
M  V30 6551 H 618.409 2.71133 -3.04878 0
M  V30 6552 H 617.084 1.79733 -3.75058 0
M  V30 6553 H 615.661 2.92769 -2.30956 0
M  V30 6554 N 617.846 1.41785 0.688094 0
M  V30 6555 C 618.779 1.38643 1.81255 0
M  V30 6556 C 619.757 0.252583 1.60626 0
M  V30 6557 O 620.941 0.440691 1.83276 0
M  V30 6558 C 618.068 1.16449 3.18053 0
M  V30 6559 C 617.114 2.32651 3.57457 0
M  V30 6560 S 617.947 3.95152 3.61407 0
M  V30 6561 C 619.103 3.75275 5.00919 0
M  V30 6562 H 619.336 2.33799 1.83644 0
M  V30 6563 H 616.869 1.28398 0.857513 0
M  V30 6564 H 618.827 1.0433 3.97021 0
M  V30 6565 H 617.488 0.229002 3.13264 0
M  V30 6566 H 616.681 2.12835 4.56856 0
M  V30 6567 H 616.283 2.41215 2.85817 0
M  V30 6568 H 618.575 3.35443 5.88629 0
M  V30 6569 H 619.518 4.74302 5.25778 0
M  V30 6570 H 619.926 3.08401 4.7281 0
M  V30 6571 N 619.324 -0.923095 1.27737 0
M  V30 6572 C 620.274 -2.01061 1.0751 0
M  V30 6573 C 621.258 -1.609 0.00165451 0
M  V30 6574 O 622.45 -1.75618 0.220724 0
M  V30 6575 C 619.579 -3.35467 0.729162 0
M  V30 6576 C 618.665 -3.82059 1.84098 0
M  V30 6577 N 619.056 -4.01115 3.08124 0
M  V30 6578 C 617.354 -4.11135 1.7287 0
M  V30 6579 C 618.055 -4.39989 3.80506 0
M  V30 6580 N 617.031 -4.47721 3.08297 0
M  V30 6581 H 620.833 -2.13832 2.01626 0
M  V30 6582 H 618.347 -1.11027 1.18519 0
M  V30 6583 H 620.344 -4.13049 0.565355 0
M  V30 6584 H 619.004 -3.24056 -0.204334 0
M  V30 6585 H 620.015 -3.87294 3.43836 0
M  V30 6586 H 616.692 -4.08412 0.866352 0
M  V30 6587 H 618.082 -4.62773 4.87125 0
M  V30 6588 N 620.802 -1.09834 -1.13024 0
M  V30 6589 C 621.749 -0.741522 -2.18564 0
M  V30 6590 C 622.719 0.279236 -1.63736 0
M  V30 6591 O 623.904 0.159923 -1.90129 0
M  V30 6592 C 621.044 -0.17277 -3.44667 0
M  V30 6593 C 620.157 -1.24808 -4.13578 0
M  V30 6594 C 619.292 -0.641631 -5.27311 0
M  V30 6595 C 618.331 -1.69795 -5.88078 0
M  V30 6596 N 617.468 -1.11223 -6.93234 0
M  V30 6597 H 622.308 -1.64576 -2.48432 0
M  V30 6598 H 619.845 -0.822174 -1.21978 0
M  V30 6599 H 621.803 0.17482 -4.16834 0
M  V30 6600 H 620.433 0.694725 -3.15235 0
M  V30 6601 H 619.485 -1.71288 -3.39653 0
M  V30 6602 H 620.797 -2.04795 -4.54819 0
M  V30 6603 H 619.951 -0.243128 -6.06213 0
M  V30 6604 H 618.69 0.189742 -4.87331 0
M  V30 6605 H 617.695 -2.10595 -5.07868 0
M  V30 6606 H 618.92 -2.53206 -6.3013 0
M  V30 6607 H 616.866 -0.302208 -6.55304 0
M  V30 6608 H 616.783 -1.84901 -7.3304 0
M  V30 6609 H 618.051 -0.740068 -7.75979 0
M  V30 6610 N 622.28 1.30327 -0.886154 0
M  V30 6611 C 623.526 1.96388 -0.505941 0
M  V30 6612 C 623.859 1.69784 0.942712 0
M  V30 6613 O 623.134 1.00322 1.6663 0
M  V30 6614 C 623.417 3.51488 -0.782826 0
M  V30 6615 C 623.27 3.87603 -2.28219 0
M  V30 6616 C 624.589 4.39331 -0.260128 0
M  V30 6617 H 621.708 0.713327 -0.185292 0
M  V30 6618 H 624.35 1.54178 -1.11036 0
M  V30 6619 H 622.5 3.87572 -0.268399 0
M  V30 6620 H 624.172 3.61537 -2.86512 0
M  V30 6621 H 622.415 3.3563 -2.74837 0
M  V30 6622 H 623.086 4.95806 -2.42653 0
M  V30 6623 H 625.562 4.10162 -0.700444 0
M  V30 6624 H 624.438 5.46769 -0.483179 0
M  V30 6625 H 624.699 4.34072 0.838674 0
M  V30 6626 N 623.758 0.647228 1.43697 0
M  V30 6627 C 624.998 0.16171 2.03759 0
M  V30 6628 C 625.362 -1.19951 1.49919 0
M  V30 6629 O 626.563 -1.77808 2.01588 0
M  V30 6630 C 624.834 0.16505 3.57019 0
M  V30 6631 S 626.393 -0.253497 4.38067 0
M  V30 6632 H 623.211 0.0689985 0.707644 0
M  V30 6633 H 625.813 0.854224 1.7585 0
M  V30 6634 H 624.517 1.15858 3.93707 0
M  V30 6635 H 624.048 -0.548194 3.89562 0
M  V30 6636 H 626.063 -1.49385 4.73179 0
M  V30 6637 N 625.236 -1.5273 0.388769 0
M  V30 6638 C 626.146 -2.30165 -0.453993 0
M  V30 6639 C 627.162 -1.37058 -1.07197 0
M  V30 6640 O 628.338 -1.70127 -1.0779 0
M  V30 6641 C 625.403 -3.09303 -1.56628 0
M  V30 6642 C 624.464 -4.18117 -0.973467 0
M  V30 6643 C 623.697 -4.93472 -2.03275 0
M  V30 6644 O 623.92 -4.68913 -3.24772 0
M  V30 6645 O 622.854 -5.78833 -1.65034 0
M  V30 6646 H 626.68 -3.03185 0.176816 0
M  V30 6647 H 624.265 -1.4862 0.152501 0
M  V30 6648 H 626.147 -3.58648 -2.21246 0
M  V30 6649 H 624.822 -2.39098 -2.18206 0
M  V30 6650 H 623.729 -3.7297 -0.290556 0
M  V30 6651 H 625.062 -4.90556 -0.401908 0
M  V30 6652 N 626.714 -0.118576 -1.57153 0
M  V30 6653 C 627.677 0.817464 -2.14127 0
M  V30 6654 C 628.677 1.1949 -1.07604 0
M  V30 6655 O 629.867 1.12048 -1.33382 0
M  V30 6656 C 626.999 2.10541 -2.68115 0
M  V30 6657 H 628.192 0.322339 -2.98163 0
M  V30 6658 H 625.745 0.130655 -1.55753 0
M  V30 6659 H 626.48 2.64485 -1.87665 0
M  V30 6660 H 626.265 1.84425 -3.4602 0
M  V30 6661 H 627.755 2.77453 -3.12105 0
M  V30 6662 N 628.193 1.56834 0.155195 0
M  V30 6663 C 629.441 1.82536 0.867462 0
M  V30 6664 C 629.762 0.698168 1.82073 0
M  V30 6665 O 629.032 -0.280807 1.93877 0
M  V30 6666 H 627.612 0.673401 0.323327 0
M  V30 6667 H 630.274 1.94313 0.151156 0
M  V30 6668 H 629.37 2.77171 1.43466 0
M  V30 6669 N 629.671 -0.424282 1.51781 0
M  V30 6670 C 630.919 -1.17028 1.64769 0
M  V30 6671 C 631.24 -1.91409 0.372523 0
M  V30 6672 O 630.51 -1.86091 -0.612108 0
M  V30 6673 H 629.09 -0.434992 0.607282 0
M  V30 6674 H 631.752 -0.485169 1.88765 0
M  V30 6675 H 630.848 -1.8927 2.4816 0
M  V30 6676 N 631.149 -1.42148 -0.680565 0
M  V30 6677 C 632.079 -1.4796 -1.80638 0
M  V30 6678 C 633.06 -0.336728 -1.66734 0
M  V30 6679 O 634.245 -0.550247 -1.86242 0
M  V30 6680 C 631.375 -1.37569 -3.18892 0
M  V30 6681 C 630.329 -2.49823 -3.47524 0
M  V30 6682 C 629.655 -2.24491 -4.85291 0
M  V30 6683 C 630.955 -3.92144 -3.44994 0
M  V30 6684 H 632.649 -2.42184 -1.76032 0
M  V30 6685 H 630.195 -1.16566 -0.845481 0
M  V30 6686 H 632.148 -1.40243 -3.97379 0
M  V30 6687 H 630.872 -0.398357 -3.24162 0
M  V30 6688 H 629.531 -2.46455 -2.71395 0
M  V30 6689 H 629.179 -1.25066 -4.87204 0
M  V30 6690 H 628.879 -2.99722 -5.05411 0
M  V30 6691 H 630.403 -2.28906 -5.66069 0
M  V30 6692 H 631.817 -3.97145 -4.13459 0
M  V30 6693 H 630.214 -4.67179 -3.76648 0
M  V30 6694 H 631.284 -4.19225 -2.43676 0
M  V30 6695 N 632.627 0.916307 -1.28225 0
M  V30 6696 C 633.874 1.66518 -1.1523 0
M  V30 6697 C 634.202 1.92178 0.299632 0
M  V30 6698 O 633.457 1.51842 1.2346 0
M  V30 6699 C 633.756 3.03125 -1.8934 0
M  V30 6700 C 633.422 2.97135 -3.39148 0
M  V30 6701 C 632.084 2.95208 -3.80007 0
M  V30 6702 C 634.436 2.87574 -4.34685 0
M  V30 6703 C 631.764 2.81518 -5.14747 0
M  V30 6704 C 634.116 2.75424 -5.69495 0
M  V30 6705 C 632.78 2.71854 -6.09632 0
M  V30 6706 H 632.05 0.609334 -0.421655 0
M  V30 6707 H 634.697 1.06776 -1.58969 0
M  V30 6708 H 633.002 3.66639 -1.38143 0
M  V30 6709 H 634.699 3.59968 -1.76704 0
M  V30 6710 H 631.289 2.99428 -3.06661 0
M  V30 6711 H 635.473 2.88152 -4.04082 0
M  V30 6712 H 630.729 2.77148 -5.44976 0
M  V30 6713 H 634.903 2.66993 -6.43185 0
M  V30 6714 H 632.53 2.61003 -7.1399 0
M  V30 6715 N 634.105 1.10431 1.1244 0
M  V30 6716 C 635.351 0.847972 1.84221 0
M  V30 6717 C 635.684 -0.624903 1.83871 0
M  V30 6718 O 634.959 -1.46074 1.28423 0
M  V30 6719 C 635.242 1.39695 3.319 0
M  V30 6720 C 635.095 2.93668 3.40704 0
M  V30 6721 C 636.414 1.03924 4.27654 0
M  V30 6722 H 633.533 0.309502 0.668863 0
M  V30 6723 H 636.175 1.36745 1.31912 0
M  V30 6724 H 634.325 0.955095 3.76577 0
M  V30 6725 H 635.997 3.46379 3.04662 0
M  V30 6726 H 634.24 3.30272 2.81252 0
M  V30 6727 H 634.911 3.27162 4.446 0
M  V30 6728 H 637.387 1.42049 3.91102 0
M  V30 6729 H 636.263 1.45027 5.29394 0
M  V30 6730 H 636.524 -0.051336 4.4207 0
M  V30 6731 N 635.583 -1.29855 0.893053 0
M  V30 6732 C 636.531 -2.29867 0.355512 0
M  V30 6733 C 637.525 -1.60502 -0.541801 0
M  V30 6734 O 638.731 -1.74902 -0.425339 0
M  V30 6735 H 635.106 -0.745805 0.0963247 0
M  V30 6736 H 637.077 -2.72655 1.21252 0
M  V30 6737 C 635.826 -3.453 -0.407801 0
M  V30 6738 H 635.149 -3.98864 0.273426 0
M  V30 6739 H 636.589 -4.17334 -0.748887 0
M  V30 6740 C 635.048 -2.96051 -1.60795 0
M  V30 6741 O 635.578 -2.96763 -2.7073 0
M  V30 6742 N 633.784 -2.51963 -1.44786 0
M  V30 6743 H 633.331 -2.51583 -0.553498 0
M  V30 6744 H 633.289 -2.1937 -2.2522 0
M  V30 6745 N 637.061 -0.65484 -1.43351 0
M  V30 6746 C 638.286 -0.175046 -2.0666 0
M  V30 6747 C 638.711 1.15104 -1.4877 0
M  V30 6748 O 638.069 1.71144 -0.598279 0
M  V30 6749 C 638.117 -0.0991544 -3.60464 0
M  V30 6750 O 637.221 0.938169 -4.01587 0
M  V30 6751 H 636.562 -0.0956148 -0.65708 0
M  V30 6752 H 639.092 -0.898222 -1.83829 0
M  V30 6753 H 639.102 0.083632 -4.07914 0
M  V30 6754 H 637.777 -1.06719 -4.01975 0
M  V30 6755 H 636.354 0.72804 -3.65724 0
M  V30 6756 N 638.539 1.52521 -0.396863 0
M  V30 6757 C 639.95 1.86547 0.0754868 0
M  V30 6758 C 640.301 1.31621 1.45501 0
M  V30 6759 O 639.426 0.650563 2.0639 0
M  V30 6760 C 640.021 3.38495 0.143754 0
M  V30 6761 C 638.58 3.72205 0.560413 0
M  V30 6762 C 637.727 2.75954 -0.272856 0
M  V30 6763 H 640.678 1.46323 -0.614434 0
M  V30 6764 H 640.699 3.68153 0.961425 0
M  V30 6765 H 640.211 3.78442 -0.860415 0
M  V30 6766 H 638.312 3.3783 1.57167 0
M  V30 6767 H 638.425 4.78074 0.313314 0
M  V30 6768 H 636.789 2.53339 0.263 0
M  V30 6769 H 637.572 3.1874 -1.27515 0
M  V30 6770 N 640.017 0.126909 1.57088 0
M  V30 6771 C 640.927 -0.833867 2.1928 0
M  V30 6772 C 641.943 -1.2868 1.17122 0
M  V30 6773 O 643.119 -1.34815 1.49622 0
M  V30 6774 C 640.184 -2.0632 2.78627 0
M  V30 6775 C 639.245 -1.66143 3.95847 0
M  V30 6776 C 638.478 -2.83217 4.52354 0
M  V30 6777 O 638.701 -3.98868 4.0775 0
M  V30 6778 O 637.635 -2.59846 5.42922 0
M  V30 6779 H 641.461 -0.334564 3.01852 0
M  V30 6780 H 639.046 -0.0991091 1.49071 0
M  V30 6781 H 640.928 -2.78304 3.16425 0
M  V30 6782 H 639.603 -2.55242 1.99082 0
M  V30 6783 H 638.51 -0.912435 3.62802 0
M  V30 6784 H 639.843 -1.21957 4.76852 0
M  V30 6785 N 641.495 -1.56914 -0.146875 0
M  V30 6786 C 642.405 -2.0154 -1.20079 0
M  V30 6787 C 643.421 -0.930838 -1.47008 0
M  V30 6788 O 644.597 -1.24032 -1.58676 0
M  V30 6789 C 641.662 -2.38715 -2.51428 0
M  V30 6790 C 640.723 -3.6112 -2.32145 0
M  V30 6791 C 639.956 -3.96512 -3.57231 0
M  V30 6792 O 640.179 -3.32566 -4.63418 0
M  V30 6793 O 639.113 -4.89758 -3.49887 0
M  V30 6794 H 642.939 -2.91506 -0.851924 0
M  V30 6795 H 640.524 -1.45106 -0.355607 0
M  V30 6796 H 642.406 -2.63485 -3.28867 0
M  V30 6797 H 641.081 -1.51903 -2.85845 0
M  V30 6798 H 639.988 -3.41536 -1.52656 0
M  V30 6799 H 641.321 -4.48549 -2.02644 0
M  V30 6800 N 642.974 0.416227 -1.52004 0
M  V30 6801 C 644.385 0.995319 -1.57957 0
M  V30 6802 C 644.736 1.91744 -0.415754 0
M  V30 6803 O 643.861 2.11349 0.464808 0
M  V30 6804 C 644.456 1.81191 -2.86278 0
M  V30 6805 C 643.015 2.34115 -2.94732 0
M  V30 6806 C 642.162 1.139 -2.52828 0
M  V30 6807 H 645.113 0.196716 -1.57476 0
M  V30 6808 H 645.134 2.66859 -2.71231 0
M  V30 6809 H 644.646 1.14051 -3.70963 0
M  V30 6810 H 642.747 3.04647 -2.14525 0
M  V30 6811 H 642.86 2.65466 -3.98829 0
M  V30 6812 H 641.224 1.49081 -2.06511 0
M  V30 6813 H 642.007 0.483383 -3.3988 0
M  V30 6814 N 644.452 1.42507 0.673017 0
M  V30 6815 C 645.677 1.4668 1.46627 0
M  V30 6816 C 646.102 0.080066 1.8793 0
M  V30 6817 O 645.46 -0.921879 1.56112 0
M  V30 6818 C 645.508 2.40091 2.69051 0
M  V30 6819 O 644.612 1.8735 3.67387 0
M  V30 6820 H 643.953 0.496908 0.44043 0
M  V30 6821 H 646.483 1.87215 0.825334 0
M  V30 6822 H 646.493 2.56731 3.17101 0
M  V30 6823 H 645.168 3.4084 2.3833 0
M  V30 6824 H 643.745 1.80274 3.26429 0
M  V30 6825 N 645.93 -0.909495 1.28709 0
M  V30 6826 C 646.86 -2.0291 1.15542 0
M  V30 6827 C 647.841 -1.7002 0.0521017 0
M  V30 6828 O 649.026 -1.92835 0.229849 0
M  V30 6829 C 646.156 -3.37458 0.820935 0
M  V30 6830 C 645.11 -3.84524 1.87949 0
M  V30 6831 C 644.436 -5.16086 1.39854 0
M  V30 6832 C 645.736 -4.05918 3.28676 0
M  V30 6833 H 647.43 -2.14183 2.09203 0
M  V30 6834 H 644.976 -1.02913 1.00722 0
M  V30 6835 H 646.929 -4.1528 0.715571 0
M  V30 6836 H 645.653 -3.26249 -0.151374 0
M  V30 6837 H 644.312 -3.08911 1.97408 0
M  V30 6838 H 643.96 -5.01284 0.41518 0
M  V30 6839 H 643.66 -5.48547 2.1064 0
M  V30 6840 H 645.184 -5.96459 1.30649 0
M  V30 6841 H 646.598 -4.74252 3.22115 0
M  V30 6842 H 644.995 -4.49717 3.97334 0
M  V30 6843 H 646.065 -3.10583 3.72379 0
M  V30 6844 N 647.408 -1.11026 -1.11852 0
M  V30 6845 C 648.633 -0.879064 -1.87849 0
M  V30 6846 C 649.058 0.565406 -1.79401 0
M  V30 6847 O 648.416 1.39886 -1.15333 0
M  V30 6848 C 648.464 -1.33985 -3.34784 0
M  V30 6849 O 647.568 -0.508803 -4.09249 0
M  V30 6850 H 646.909 -0.316992 -0.583448 0
M  V30 6851 H 649.439 -1.47863 -1.41413 0
M  V30 6852 H 649.449 -1.33248 -3.85628 0
M  V30 6853 H 648.124 -2.39172 -3.40249 0
M  V30 6854 H 646.701 -0.581913 -3.68332 0
M  V30 6855 N 648.886 1.2938 -0.899927 0
M  V30 6856 C 650.302 1.48052 -0.596059 0
M  V30 6857 C 650.502 1.82114 0.862372 0
M  V30 6858 O 649.558 1.91774 1.64253 0
M  V30 6859 C 650.871 2.59332 -1.52208 0
M  V30 6860 C 652.419 2.73208 -1.5273 0
M  V30 6861 C 652.894 3.87617 -2.43961 0
M  V30 6862 N 654.385 3.9495 -2.42009 0
M  V30 6863 C 655.12 4.82824 -3.09303 0
M  V30 6864 N 654.616 5.75387 -3.85877 0
M  V30 6865 N 656.409 4.76317 -2.98459 0
M  V30 6866 H 648.56 1.05546 -1.8432 0
M  V30 6867 H 650.823 0.524314 -0.78981 0
M  V30 6868 H 650.529 2.41029 -2.56121 0
M  V30 6869 H 650.403 3.56139 -1.24278 0
M  V30 6870 H 652.79 2.90908 -0.495614 0
M  V30 6871 H 652.871 1.76975 -1.84698 0
M  V30 6872 H 652.515 3.70672 -3.47224 0
M  V30 6873 H 652.445 4.83218 -2.09303 0
M  V30 6874 H 654.936 3.28744 -1.86375 0
M  V30 6875 H 655.249 6.39235 -4.34279 0
M  V30 6876 H 653.594 5.75272 -3.89984 0
M  V30 6877 H 656.785 4.0299 -2.38152 0
M  V30 6878 H 656.958 5.44589 -3.51179 0
M  V30 6879 N 650.364 0.662433 1.43002 0
M  V30 6880 C 651.297 -0.073459 2.28082 0
M  V30 6881 C 652.275 -0.820869 1.40358 0
M  V30 6882 O 653.459 -0.818545 1.698 0
M  V30 6883 C 650.586 -1.11097 3.19961 0
M  V30 6884 C 649.632 -0.460557 4.24006 0
M  V30 6885 S 650.465 0.772717 5.29896 0
M  V30 6886 C 651.621 -0.264028 6.25343 0
M  V30 6887 H 651.854 0.648227 2.90147 0
M  V30 6888 H 649.387 0.451566 1.47649 0
M  V30 6889 H 651.345 -1.70452 3.73439 0
M  V30 6890 H 650.006 -1.80503 2.57056 0
M  V30 6891 H 649.199 -1.24299 4.88432 0
M  V30 6892 H 648.801 0.0591038 3.73953 0
M  V30 6893 H 651.093 -1.12748 6.68052 0
M  V30 6894 H 652.036 0.345443 7.07257 0
M  V30 6895 H 652.444 -0.603964 5.6126 0
M  V30 6896 N 651.842 -1.52309 0.404946 0
M  V30 6897 C 653.088 -2.02065 -0.172455 0
M  V30 6898 C 653.421 -1.29022 -1.45145 0
M  V30 6899 O 652.696 -0.395284 -1.90441 0
M  V30 6900 C 652.979 -3.5759 -0.424433 0
M  V30 6901 C 652.832 -4.41287 0.870945 0
M  V30 6902 C 654.151 -4.23186 -1.20837 0
M  V30 6903 H 651.27 -0.734454 -0.0612035 0
M  V30 6904 H 653.912 -1.82236 0.53759 0
M  V30 6905 H 652.062 -3.74617 -1.02929 0
M  V30 6906 H 653.734 -4.3598 1.50729 0
M  V30 6907 H 651.977 -4.07669 1.48284 0
M  V30 6908 H 652.648 -5.48171 0.649083 0
M  V30 6909 H 655.124 -4.10232 -0.696338 0
M  V30 6910 H 654 -5.31953 -1.35343 0
M  V30 6911 H 654.261 -3.81862 -2.22786 0
M  V30 6912 N 653.32 -0.135238 -1.57019 0
M  V30 6913 C 654.548 0.526066 -2.001 0
M  V30 6914 C 654.963 1.59184 -1.01519 0
M  V30 6915 O 654.32 1.82497 -0.0104258 0
M  V30 6916 C 654.371 1.13744 -3.43139 0
M  V30 6917 O 654.092 0.114259 -4.37951 0
M  V30 6918 C 655.593 1.8805 -4.01438 0
M  V30 6919 H 652.813 0.137962 -0.656664 0
M  V30 6920 H 655.357 -0.226359 -2.03243 0
M  V30 6921 H 653.512 1.84056 -3.40885 0
M  V30 6922 H 653.926 0.56058 -5.21496 0
M  V30 6923 H 655.4 2.26133 -5.03555 0
M  V30 6924 H 655.877 2.76194 -3.41487 0
M  V30 6925 H 656.483 1.22464 -4.07287 0
M  V30 6926 N 654.798 1.5699 0.138552 0
M  V30 6927 C 655.708 2.02174 1.19008 0
M  V30 6928 C 656.724 0.938622 1.46512 0
M  V30 6929 O 657.9 1.24872 1.58016 0
M  V30 6930 C 654.965 2.40045 2.50159 0
M  V30 6931 C 654.026 3.62346 2.30226 0
M  V30 6932 C 653.259 3.98401 3.55123 0
M  V30 6933 O 653.482 3.35019 4.61647 0
M  V30 6934 O 652.416 4.91606 3.47285 0
M  V30 6935 H 656.242 2.91954 0.836452 0
M  V30 6936 H 653.827 1.45293 0.347907 0
M  V30 6937 H 655.709 2.65225 3.27465 0
M  V30 6938 H 654.384 1.53417 2.85035 0
M  V30 6939 H 653.291 3.42341 1.50843 0
M  V30 6940 H 654.624 4.49617 2.00262 0
M  V30 6941 N 656.276 -0.40816 1.52223 0
M  V30 6942 C 657.186 -1.52202 1.78526 0
M  V30 6943 C 658.202 -1.60546 0.670892 0
M  V30 6944 O 659.378 -1.77242 0.956404 0
M  V30 6945 C 656.443 -2.87928 1.93128 0
M  V30 6946 C 655.504 -2.89463 3.17033 0
M  V30 6947 C 654.737 -4.18715 3.30929 0
M  V30 6948 O 654.96 -5.12662 2.50067 0
M  V30 6949 O 653.894 -4.27125 4.24084 0
M  V30 6950 H 657.72 -1.32911 2.73072 0
M  V30 6951 H 655.305 -0.594112 1.37079 0
M  V30 6952 H 657.187 -3.68426 2.04549 0
M  V30 6953 H 655.862 -3.07285 1.01772 0
M  V30 6954 H 654.769 -2.07815 3.11069 0
M  V30 6955 H 656.102 -2.75055 4.08174 0
M  V30 6956 N 657.755 -1.42862 -0.66545 0
M  V30 6957 C 658.665 -1.49491 -1.80803 0
M  V30 6958 C 659.681 -0.382914 -1.69734 0
M  V30 6959 O 660.857 -0.635223 -1.9112 0
M  V30 6960 C 657.922 -1.40383 -3.17007 0
M  V30 6961 C 656.983 -2.62152 -3.39963 0
M  V30 6962 C 656.216 -2.53469 -4.69669 0
M  V30 6963 O 656.439 -1.57568 -5.48205 0
M  V30 6964 O 655.373 -3.43763 -4.94075 0
M  V30 6965 H 659.199 -2.45949 -1.78165 0
M  V30 6966 H 656.784 -1.24728 -0.822387 0
M  V30 6967 H 658.666 -1.377 -3.98267 0
M  V30 6968 H 657.341 -0.470546 -3.20262 0
M  V30 6969 H 656.248 -2.70409 -2.58515 0
M  V30 6970 H 657.581 -3.54411 -3.41546 0
M  V30 6971 N 659.233 0.902656 -1.29189 0
M  V30 6972 C 660.482 1.6475 -1.16362 0
M  V30 6973 C 660.795 1.93517 0.284682 0
M  V30 6974 O 662.001 2.66192 0.534229 0
M  V30 6975 C 660.457 2.96848 -2.03493 0
M  V30 6976 C 660.065 2.75687 -3.5313 0
M  V30 6977 C 661.809 3.74762 -1.99383 0
M  V30 6978 C 659.716 4.03492 -4.32375 0
M  V30 6979 H 658.646 0.618041 -0.431904 0
M  V30 6980 H 661.297 1.0008 -1.53806 0
M  V30 6981 H 659.679 3.62715 -1.58916 0
M  V30 6982 H 660.853 2.18431 -4.05739 0
M  V30 6983 H 659.168 2.11171 -3.58881 0
M  V30 6984 H 661.765 4.69515 -2.5585 0
M  V30 6985 H 662.108 4.04767 -0.973123 0
M  V30 6986 H 662.641 3.15732 -2.41988 0
M  V30 6987 H 659.38 3.78656 -5.3507 0
M  V30 6988 H 658.9 4.60318 -3.84535 0
M  V30 6989 H 660.579 4.71662 -4.42881 0
M  V30 6990 N 660.711 1.11618 1.11262 0
M  V30 6991 C 661.643 0.734015 2.17129 0
M  V30 6992 C 662.656 -0.235243 1.61091 0
M  V30 6993 O 663.845 -0.0178597 1.78491 0
M  V30 6994 C 660.945 0.0643682 3.38839 0
M  V30 6995 C 660.118 1.06092 4.24339 0
M  V30 6996 C 659.177 0.420482 5.24517 0
M  V30 6997 O 658.203 1.07495 5.58957 0
M  V30 6998 N 659.405 -0.815828 5.74739 0
M  V30 6999 H 662.17 1.64492 2.50524 0
M  V30 7000 H 659.731 1.00664 1.26801 0
M  V30 7001 H 661.723 -0.375851 4.02951 0
M  V30 7002 H 660.293 -0.749147 3.03491 0
M  V30 7003 H 659.513 1.67903 3.56654 0
M  V30 7004 H 660.801 1.73507 4.78302 0
M  V30 7005 H 660.199 -1.36668 5.48943 0
M  V30 7006 H 658.756 -1.199 6.40677 0
M  V30 7007 N 662.189 -1.289 0.906776 0
M  V30 7008 C 663.436 -1.95269 0.536326 0
M  V30 7009 C 663.764 -1.71435 -0.918711 0
M  V30 7010 O 663.019 -1.02431 -1.66752 0
M  V30 7011 C 663.318 -3.48704 0.783617 0
M  V30 7012 C 662.984 -3.92626 2.21711 0
M  V30 7013 C 661.646 -4.04329 2.60906 0
M  V30 7014 C 663.998 -4.15218 3.15029 0
M  V30 7015 C 661.326 -4.35998 3.92584 0
M  V30 7016 C 663.678 -4.48365 4.46264 0
M  V30 7017 C 662.342 -4.58278 4.85322 0
M  V30 7018 H 661.612 -0.714538 0.196256 0
M  V30 7019 H 664.259 -1.53366 1.14678 0
M  V30 7020 H 662.564 -3.91696 0.0903048 0
M  V30 7021 H 664.261 -3.98162 0.476267 0
M  V30 7022 H 660.851 -3.84038 1.90296 0
M  V30 7023 H 665.035 -4.05636 2.8596 0
M  V30 7024 H 660.291 -4.41878 4.22557 0
M  V30 7025 H 664.465 -4.64795 5.18593 0
M  V30 7026 H 662.092 -4.82573 5.87391 0
M  V30 7027 N 663.667 -0.670007 -1.42649 0
M  V30 7028 C 664.897 -0.198252 -2.05647 0
M  V30 7029 C 665.305 1.14786 -1.50402 0
M  V30 7030 O 664.648 1.72316 -0.636634 0
M  V30 7031 C 664.71 -0.0507132 -3.59464 0
M  V30 7032 C 664.374 -1.32478 -4.37377 0
M  V30 7033 C 665.371 -2.2572 -4.68344 0
M  V30 7034 C 663.056 -1.57104 -4.77099 0
M  V30 7035 C 665.05 -3.4187 -5.37963 0
M  V30 7036 C 662.737 -2.73543 -5.46459 0
M  V30 7037 C 663.735 -3.65751 -5.76815 0
M  V30 7038 O 663.423 -4.80154 -6.44753 0
M  V30 7039 H 663.155 -0.0950721 -0.669281 0
M  V30 7040 H 665.709 -0.915745 -1.83857 0
M  V30 7041 H 663.939 0.722314 -3.79894 0
M  V30 7042 H 665.628 0.380552 -4.04112 0
M  V30 7043 H 666.394 -2.07943 -4.38161 0
M  V30 7044 H 662.273 -0.862069 -4.52868 0
M  V30 7045 H 665.817 -4.13861 -5.61574 0
M  V30 7046 H 661.714 -2.91248 -5.7606 0
M  V30 7047 H 662.482 -4.79637 -6.63243 0
M  V30 7048 N 665.145 1.52092 -0.413018 0
M  V30 7049 C 666.391 2.02154 0.161737 0
M  V30 7050 C 666.724 1.29789 1.44459 0
M  V30 7051 O 665.999 0.405378 1.90229 0
M  V30 7052 C 666.282 3.5781 0.405463 0
M  V30 7053 C 666.135 4.40819 -0.894335 0
M  V30 7054 C 667.454 4.23821 1.18591 0
M  V30 7055 H 664.573 0.734769 0.0573077 0
M  V30 7056 H 667.215 1.81948 -0.547247 0
M  V30 7057 H 665.365 3.75158 1.0094 0
M  V30 7058 H 667.037 4.35175 -1.53039 0
M  V30 7059 H 665.28 4.06877 -1.50444 0
M  V30 7060 H 665.951 5.47819 -0.678144 0
M  V30 7061 H 668.427 4.10596 0.674573 0
M  V30 7062 H 667.303 5.32663 1.3252 0
M  V30 7063 H 667.564 3.83038 2.20758 0
M  V30 7064 N 666.623 0.143563 1.56945 0
M  V30 7065 C 667.555 -0.828353 2.13708 0
M  V30 7066 C 668.568 -1.21313 1.08568 0
M  V30 7067 O 669.757 -1.1578 1.35857 0
M  V30 7068 C 666.857 -2.12248 2.64204 0
M  V30 7069 C 666.03 -1.90561 3.93707 0
M  V30 7070 C 665.089 -3.03931 4.29549 0
M  V30 7071 O 664.115 -2.75772 4.97934 0
M  V30 7072 N 665.317 -4.31016 3.88852 0
M  V30 7073 H 668.082 -0.343242 2.97728 0
M  V30 7074 H 665.643 -0.0401152 1.6185 0
M  V30 7075 H 667.635 -2.87132 2.85197 0
M  V30 7076 H 666.205 -2.52033 1.84928 0
M  V30 7077 H 665.425 -0.997327 3.81375 0
M  V30 7078 H 666.713 -1.73405 4.78339 0
M  V30 7079 H 666.111 -4.56762 3.33743 0
M  V30 7080 H 664.668 -5.02691 4.14903 0
M  V30 7081 N 668.101 -1.57061 -0.130224 0
M  V30 7082 C 669.033 -1.96147 -1.18571 0
M  V30 7083 C 670.046 -0.859347 -1.38272 0
M  V30 7084 O 671.235 -1.13769 -1.37545 0
M  V30 7085 C 668.335 -2.23484 -2.54771 0
M  V30 7086 C 667.508 -3.54786 -2.55824 0
M  V30 7087 C 666.567 -3.70467 -3.73686 0
M  V30 7088 O 665.593 -4.42693 -3.57787 0
M  V30 7089 N 666.795 -3.08389 -4.91809 0
M  V30 7090 H 669.56 -2.87295 -0.853333 0
M  V30 7091 H 667.121 -1.58714 -0.319621 0
M  V30 7092 H 669.113 -2.312 -3.32158 0
M  V30 7093 H 667.683 -1.38518 -2.80235 0
M  V30 7094 H 666.903 -3.5836 -1.64232 0
M  V30 7095 H 668.191 -4.4111 -2.53573 0
M  V30 7096 H 667.589 -2.49656 -5.0763 0
M  V30 7097 H 666.146 -3.21642 -5.66912 0
M  V30 7098 N 669.579 0.400081 -1.52437 0
M  V30 7099 C 670.826 1.14619 -1.6694 0
M  V30 7100 C 671.154 1.90262 -0.403797 0
M  V30 7101 O 670.409 1.85835 0.61351 0
M  V30 7102 C 670.708 2.15914 -2.84808 0
M  V30 7103 C 670.374 1.57011 -4.2268 0
M  V30 7104 C 669.036 1.40672 -4.60179 0
M  V30 7105 C 671.388 1.14081 -5.08562 0
M  V30 7106 C 668.716 0.799335 -5.81229 0
M  V30 7107 C 671.068 0.547573 -6.30226 0
M  V30 7108 C 669.732 0.371389 -6.66466 0
M  V30 7109 H 669.002 0.419419 -0.610875 0
M  V30 7110 H 671.649 0.432227 -1.86558 0
M  V30 7111 H 669.954 2.93488 -2.59561 0
M  V30 7112 H 671.651 2.73533 -2.93225 0
M  V30 7113 H 668.241 1.70713 -3.93135 0
M  V30 7114 H 672.425 1.2551 -4.80168 0
M  V30 7115 H 667.681 0.65093 -6.07925 0
M  V30 7116 H 671.855 0.206575 -6.96094 0
M  V30 7117 H 669.482 -0.10135 -7.60132 0
M  V30 7118 N 671.057 1.43213 0.657864 0
M  V30 7119 C 672.004 1.48011 1.77092 0
M  V30 7120 C 672.974 0.330291 1.62783 0
M  V30 7121 O 674.159 0.536787 1.83094 0
M  V30 7122 C 671.299 1.40461 3.15222 0
M  V30 7123 C 670.412 2.65612 3.40697 0
M  V30 7124 C 669.547 2.50083 4.68649 0
M  V30 7125 C 668.586 3.70525 4.87214 0
M  V30 7126 N 667.723 3.53835 6.0642 0
M  V30 7127 H 672.563 2.43121 1.72326 0
M  V30 7128 H 670.1 1.20687 0.841013 0
M  V30 7129 H 672.058 1.34079 3.95068 0
M  V30 7130 H 670.688 0.489359 3.19069 0
M  V30 7131 H 669.74 2.82292 2.54982 0
M  V30 7132 H 671.052 3.5509 3.50303 0
M  V30 7133 H 670.206 2.41383 5.56614 0
M  V30 7134 H 668.945 1.58121 4.61356 0
M  V30 7135 H 667.95 3.79639 3.97686 0
M  V30 7136 H 669.175 4.63489 4.96341 0
M  V30 7137 H 667.121 2.64604 6.00267 0
M  V30 7138 H 667.038 4.36912 6.16963 0
M  V30 7139 H 668.306 3.48978 6.97019 0
M  V30 7140 N 672.536 -0.895792 1.29666 0
M  V30 7141 C 673.483 -2.00035 1.15129 0
M  V30 7142 C 674.453 -1.66043 0.0435819 0
M  V30 7143 O 675.638 -1.89621 0.211811 0
M  V30 7144 C 672.778 -3.34774 0.83787 0
M  V30 7145 C 671.891 -3.81525 2.0264 0
M  V30 7146 C 671.026 -5.04858 1.65201 0
M  V30 7147 C 670.065 -5.43988 2.80612 0
M  V30 7148 N 669.202 -6.58507 2.43544 0
M  V30 7149 H 674.042 -2.11802 2.09628 0
M  V30 7150 H 671.579 -1.03719 1.04311 0
M  V30 7151 H 673.537 -4.12311 0.636824 0
M  V30 7152 H 672.167 -3.22724 -0.0702314 0
M  V30 7153 H 671.219 -2.9999 2.33903 0
M  V30 7154 H 672.531 -4.06472 2.89106 0
M  V30 7155 H 671.685 -5.8999 1.41408 0
M  V30 7156 H 670.424 -4.81759 0.758893 0
M  V30 7157 H 669.429 -4.57388 3.05083 0
M  V30 7158 H 670.654 -5.69066 3.70595 0
M  V30 7159 H 668.6 -6.37004 1.56724 0
M  V30 7160 H 668.517 -6.83269 3.23542 0
M  V30 7161 H 669.785 -7.46897 2.2308 0
M  V30 7162 N 674.014 -1.12206 -1.10668 0
M  V30 7163 C 675.239 -0.898938 -1.86906 0
M  V30 7164 C 675.664 0.546346 -1.79991 0
M  V30 7165 O 675.022 1.38655 -1.1681 0
M  V30 7166 C 675.07 -1.37529 -3.33344 0
M  V30 7167 O 674.174 -0.55218 -4.08687 0
M  V30 7168 H 673.515 -0.323163 -0.580053 0
M  V30 7169 H 676.045 -1.49355 -1.39837 0
M  V30 7170 H 676.055 -1.3733 -3.84193 0
M  V30 7171 H 674.73 -2.42767 -3.37693 0
M  V30 7172 H 673.307 -0.620947 -3.67694 0
M  V30 7173 N 675.492 1.28418 -0.913599 0
M  V30 7174 C 676.74 1.94596 -0.545594 0
M  V30 7175 C 677.061 1.7227 0.913668 0
M  V30 7176 O 676.331 1.06233 1.64595 0
M  V30 7177 H 674.911 0.720065 -0.198783 0
M  V30 7178 H 677.573 1.56404 -1.16292 0
M  V30 7179 H 676.669 3.03202 -0.739911 0
M  V30 7180 N 676.97 0.677563 1.42291 0
M  V30 7181 C 678.217 0.200975 2.015 0
M  V30 7182 C 678.545 -1.19342 1.53583 0
M  V30 7183 O 677.8 -1.81579 0.7299 0
M  V30 7184 C 678.099 0.187229 3.56909 0
M  V30 7185 C 677.765 1.52667 4.24268 0
M  V30 7186 C 676.427 1.89341 4.42384 0
M  V30 7187 C 678.779 2.40869 4.62203 0
M  V30 7188 C 676.107 3.13836 4.95705 0
M  V30 7189 C 678.459 3.64679 5.16906 0
M  V30 7190 C 677.123 4.01519 5.33234 0
M  V30 7191 H 676.393 0.0735418 0.737342 0
M  V30 7192 H 679.04 0.873095 1.70439 0
M  V30 7193 H 677.345 -0.568407 3.87655 0
M  V30 7194 H 679.042 -0.198773 4.00507 0
M  V30 7195 H 675.632 1.23138 4.1053 0
M  V30 7196 H 679.816 2.1382 4.47878 0
M  V30 7197 H 675.072 3.42396 5.06532 0
M  V30 7198 H 679.246 4.33224 5.45243 0
M  V30 7199 H 676.873 4.98062 5.74316 0
M  V30 7200 N 678.448 -1.51871 0.421078 0
M  V30 7201 C 679.864 -1.59435 0.0725398 0
M  V30 7202 C 680.064 -1.43315 -1.41644 0
M  V30 7203 O 679.12 -1.26614 -2.18461 0
M  V30 7204 C 680.433 -2.9509 0.578132 0
M  V30 7205 C 681.981 -3.08356 0.537149 0
M  V30 7206 C 682.456 -4.4651 1.01945 0
M  V30 7207 N 683.947 -4.52784 0.976758 0
M  V30 7208 C 684.682 -5.57976 1.32099 0
M  V30 7209 N 684.178 -6.70664 1.73727 0
M  V30 7210 N 685.971 -5.48248 1.2402 0
M  V30 7211 H 678.122 -1.60595 1.39007 0
M  V30 7212 H 680.385 -0.756138 0.571803 0
M  V30 7213 H 680.091 -3.12205 1.61929 0
M  V30 7214 H 679.965 -3.772 -0.00578374 0
M  V30 7215 H 682.352 -2.90919 -0.494991 0
M  V30 7216 H 682.433 -2.28125 1.15727 0
M  V30 7217 H 682.077 -4.64692 2.04997 0
M  V30 7218 H 682.007 -5.25256 0.376023 0
M  V30 7219 H 684.498 -3.71898 0.670851 0
M  V30 7220 H 684.811 -7.46932 1.98274 0
M  V30 7221 H 683.156 -6.71914 1.77641 0
M  V30 7222 H 686.347 -4.59095 0.913756 0
M  V30 7223 H 686.52 -6.30119 1.51176 0
M  V30 7224 N 679.926 -0.151884 -1.56866 0
M  V30 7225 C 681.174 0.497021 -1.95893 0
M  V30 7226 C 681.495 1.65078 -1.03799 0
M  V30 7227 O 680.765 1.95642 -0.10049 0
M  V30 7228 H 679.345 0.186603 -0.723318 0
M  V30 7229 H 682.007 -0.228525 -1.93556 0
M  V30 7230 H 681.103 0.869933 -2.99731 0
M  V30 7231 N 681.404 1.57128 0.121893 0
M  V30 7232 C 682.815 1.73902 0.679348 0
M  V30 7233 C 683.166 0.770135 1.80453 0
M  V30 7234 O 682.291 -0.0576083 2.16323 0
M  V30 7235 C 682.886 3.15328 1.2391 0
M  V30 7236 C 681.445 3.33618 1.74288 0
M  V30 7237 C 680.592 2.6978 0.641414 0
M  V30 7238 H 683.543 1.58359 -0.104 0
M  V30 7239 H 683.564 3.16718 2.10879 0
M  V30 7240 H 683.076 3.85821 0.419957 0
M  V30 7241 H 681.177 2.68162 2.58689 0
M  V30 7242 H 681.29 4.4176 1.85432 0
M  V30 7243 H 679.654 2.30935 1.0743 0
M  V30 7244 H 680.437 3.42895 -0.166707 0
M  V30 7245 N 682.882 -0.391992 1.52647 0
M  V30 7246 C 683.812 -1.48517 1.8018 0
M  V30 7247 C 684.793 -1.57039 0.653667 0
M  V30 7248 O 685.978 -1.72036 0.900962 0
M  V30 7249 C 683.108 -2.86161 1.96797 0
M  V30 7250 C 682.062 -2.92481 3.12472 0
M  V30 7251 C 681.388 -4.32546 3.14338 0
M  V30 7252 C 682.688 -2.624 4.51601 0
M  V30 7253 H 684.382 -1.25726 2.71723 0
M  V30 7254 H 681.928 -0.603387 1.30749 0
M  V30 7255 H 683.881 -3.62639 2.14641 0
M  V30 7256 H 682.605 -3.10283 1.01941 0
M  V30 7257 H 681.264 -2.18451 2.94406 0
M  V30 7258 H 680.912 -4.53703 2.1717 0
M  V30 7259 H 680.612 -4.37695 3.92042 0
M  V30 7260 H 682.136 -5.10934 3.34333 0
M  V30 7261 H 683.55 -3.28596 4.69785 0
M  V30 7262 H 681.947 -2.78903 5.3135 0
M  V30 7263 H 683.017 -1.57754 4.58521 0
M  V30 7264 N 684.36 -1.4356 -0.65026 0
M  V30 7265 C 685.308 -1.49219 -1.78427 0
M  V30 7266 C 686.302 -0.365528 -1.65409 0
M  V30 7267 O 687.508 -0.539649 -1.7172 0
M  V30 7268 H 683.883 -0.467858 -0.588738 0
M  V30 7269 H 685.854 -2.44701 -1.70774 0
M  V30 7270 C 684.603 -1.43519 -3.16698 0
M  V30 7271 H 683.926 -2.2952 -3.27354 0
M  V30 7272 H 685.366 -1.5154 -3.95995 0
M  V30 7273 C 683.825 -0.153197 -3.36552 0
M  V30 7274 O 684.355 0.784317 -3.93969 0
M  V30 7275 N 682.561 -0.0624402 -2.90533 0
M  V30 7276 H 682.108 -0.826172 -2.43992 0
M  V30 7277 H 682.066 0.794616 -3.04193 0
M  V30 7278 N 685.838 0.888903 -1.30139 0
M  V30 7279 C 687.084 1.64288 -1.19922 0
M  V30 7280 C 687.439 1.90839 0.244561 0
M  V30 7281 O 686.732 1.51544 1.17239 0
M  V30 7282 C 686.926 2.99041 -1.95728 0
M  V30 7283 C 686.755 2.85644 -3.47329 0
M  V30 7284 C 685.525 2.85836 -4.16685 0
M  V30 7285 C 687.723 2.6188 -4.42632 0
M  V30 7286 N 685.705 2.63289 -5.54574 0
M  V30 7287 C 687.076 2.48418 -5.68057 0
M  V30 7288 C 689.131 2.47073 -4.32272 0
M  V30 7289 C 687.834 2.21655 -6.84296 0
M  V30 7290 C 689.86 2.21695 -5.48275 0
M  V30 7291 C 689.222 2.09007 -6.72678 0
M  V30 7292 H 685.321 0.606315 -0.493868 0
M  V30 7293 H 687.905 1.0478 -1.64102 0
M  V30 7294 H 686.076 3.56589 -1.53945 0
M  V30 7295 H 687.808 3.63607 -1.77685 0
M  V30 7296 H 684.563 2.97521 -3.68481 0
M  V30 7297 H 684.987 2.55039 -6.27124 0
M  V30 7298 H 689.629 2.55621 -3.36776 0
M  V30 7299 H 687.347 2.11845 -7.79838 0
M  V30 7300 H 690.933 2.11067 -5.42164 0
M  V30 7301 H 689.813 1.89643 -7.60924 0
M  V30 7302 N 687.317 1.12792 1.10072 0
M  V30 7303 C 688.547 0.907189 1.85617 0
M  V30 7304 C 688.955 -0.547181 1.81115 0
M  V30 7305 O 688.298 -1.39024 1.20075 0
M  V30 7306 C 688.36 1.30872 3.34832 0
M  V30 7307 C 688.024 2.77516 3.6309 0
M  V30 7308 C 689.021 3.75696 3.59373 0
M  V30 7309 C 686.706 3.14513 3.91646 0
M  V30 7310 C 688.7 5.08888 3.83812 0
M  V30 7311 C 686.387 4.47886 4.15742 0
M  V30 7312 C 687.385 5.44882 4.11816 0
M  V30 7313 O 687.073 6.7585 4.35295 0
M  V30 7314 H 686.805 0.323855 0.593375 0
M  V30 7315 H 689.359 1.50262 1.40038 0
M  V30 7316 H 687.589 0.656518 3.81086 0
M  V30 7317 H 689.278 1.06153 3.91773 0
M  V30 7318 H 690.044 3.48458 3.37345 0
M  V30 7319 H 685.923 2.39622 3.93831 0
M  V30 7320 H 689.467 5.84586 3.80663 0
M  V30 7321 H 685.364 4.74851 4.37249 0
M  V30 7322 H 686.132 6.81853 4.52791 0
M  V30 7323 N 688.795 -1.27931 0.920396 0
M  V30 7324 C 690.211 -1.47085 0.619537 0
M  V30 7325 C 690.411 -1.83463 -0.833291 0
M  V30 7326 O 689.467 -1.94363 -1.61181 0
M  V30 7327 C 690.78 -2.56878 1.56314 0
M  V30 7328 C 692.328 -2.70743 1.57058 0
M  V30 7329 C 692.803 -3.83687 2.50097 0
M  V30 7330 N 694.294 -3.9105 2.48262 0
M  V30 7331 C 695.029 -4.77842 3.16945 0
M  V30 7332 N 694.525 -5.69176 3.94982 0
M  V30 7333 N 696.318 -4.71509 3.06 0
M  V30 7334 H 688.469 -1.02601 1.85975 0
M  V30 7335 H 690.732 -0.511682 0.798051 0
M  V30 7336 H 690.438 -2.36923 2.59923 0
M  V30 7337 H 690.312 -3.54117 1.29928 0
M  V30 7338 H 692.699 -2.90083 0.541832 0
M  V30 7339 H 692.78 -1.74015 1.8749 0
M  V30 7340 H 692.424 -3.65101 3.53077 0
M  V30 7341 H 692.354 -4.79827 2.16964 0
M  V30 7342 H 694.845 -3.25738 1.91581 0
M  V30 7343 H 695.158 -6.32245 4.44394 0
M  V30 7344 H 693.503 -5.68995 3.99086 0
M  V30 7345 H 696.694 -3.99151 2.44533 0
M  V30 7346 H 696.867 -5.38933 3.59799 0
M  V30 7347 N 690.273 -0.685099 -1.4193 0
M  V30 7348 C 691.221 -0.00165985 -2.326 0
M  V30 7349 C 692.215 0.779678 -1.50391 0
M  V30 7350 O 693.421 0.68648 -1.66395 0
M  V30 7351 H 689.796 0.0182616 -0.751778 0
M  V30 7352 H 691.767 -0.783592 -2.87928 0
M  V30 7353 C 690.516 0.928385 -3.35077 0
M  V30 7354 H 689.839 0.336578 -3.98381 0
M  V30 7355 H 691.279 1.37509 -4.01083 0
M  V30 7356 C 689.738 2.03964 -2.68142 0
M  V30 7357 O 690.268 3.12727 -2.5212 0
M  V30 7358 N 688.474 1.81433 -2.27003 0
M  V30 7359 H 688.021 0.929807 -2.40234 0
M  V30 7360 H 687.979 2.55973 -1.82552 0
M  V30 7361 N 691.751 1.51645 -0.429126 0
M  V30 7362 C 692.684 2.24083 0.431492 0
M  V30 7363 C 693.662 1.25691 1.03153 0
M  V30 7364 O 694.846 1.54802 1.07557 0
M  V30 7365 C 691.973 2.9849 1.60067 0
M  V30 7366 C 691.019 4.11474 1.12211 0
M  V30 7367 S 691.852 5.35453 0.0708449 0
M  V30 7368 C 693.008 6.13395 1.24488 0
M  V30 7369 H 693.241 2.96733 -0.183525 0
M  V30 7370 H 690.774 1.52916 -0.213574 0
M  V30 7371 H 692.732 3.4196 2.27099 0
M  V30 7372 H 691.393 2.25445 2.18708 0
M  V30 7373 H 690.586 4.62784 1.99618 0
M  V30 7374 H 690.188 3.70223 0.530149 0
M  V30 7375 H 692.48 6.41984 2.16479 0
M  V30 7376 H 693.423 7.0388 0.771921 0
M  V30 7377 H 693.831 5.44761 1.47973 0
M  V30 7378 N 693.229 0.160201 1.56784 0
M  V30 7379 C 694.139 -0.787167 2.21 0
M  V30 7380 C 695.155 -1.26167 1.19825 0
M  V30 7381 O 696.331 -1.31611 1.52448 0
M  V30 7382 C 693.396 -2.00364 2.8294 0
M  V30 7383 C 692.457 -1.5771 3.99282 0
M  V30 7384 C 691.69 -2.73558 4.58259 0
M  V30 7385 O 691.913 -3.90129 4.16119 0
M  V30 7386 O 690.847 -2.48271 5.48311 0
M  V30 7387 H 694.673 -0.270462 3.02493 0
M  V30 7388 H 692.258 -0.0674666 1.49248 0
M  V30 7389 H 694.14 -2.71529 3.22257 0
M  V30 7390 H 692.815 -2.50961 2.04451 0
M  V30 7391 H 691.722 -0.835274 3.64656 0
M  V30 7392 H 693.055 -1.11815 4.79331 0
M  V30 7393 N 694.707 -1.5719 -0.113559 0
M  V30 7394 C 696.123 -1.52607 -0.467253 0
M  V30 7395 C 696.323 -0.874058 -1.81556 0
M  V30 7396 O 695.379 -0.458703 -2.48299 0
M  V30 7397 C 696.692 -2.97363 -0.446736 0
M  V30 7398 C 698.24 -3.08482 -0.529903 0
M  V30 7399 C 698.715 -4.54809 -0.539721 0
M  V30 7400 N 700.206 -4.59284 -0.601005 0
M  V30 7401 C 700.941 -5.69927 -0.630138 0
M  V30 7402 N 700.437 -6.90051 -0.616589 0
M  V30 7403 N 702.23 -5.5805 -0.673558 0
M  V30 7404 H 694.381 -1.97958 0.769819 0
M  V30 7405 H 696.644 -0.90428 0.284572 0
M  V30 7406 H 696.35 -3.48458 0.47643 0
M  V30 7407 H 696.224 -3.55086 -1.27254 0
M  V30 7408 H 698.611 -2.57386 -1.44349 0
M  V30 7409 H 698.692 -2.53744 0.323695 0
M  V30 7410 H 698.336 -5.06552 0.369843 0
M  V30 7411 H 698.266 -5.07364 -1.41028 0
M  V30 7412 H 700.757 -3.72822 -0.617419 0
M  V30 7413 H 701.07 -7.70132 -0.641592 0
M  V30 7414 H 699.415 -6.92543 -0.583927 0
M  V30 7415 H 702.606 -4.63112 -0.681544 0
M  V30 7416 H 702.779 -6.44286 -0.692794 0
M  V30 7417 N 696.185 0.383891 -1.52853 0
M  V30 7418 C 697.133 1.48965 -1.7864 0
M  V30 7419 C 698.127 1.56242 -0.654577 0
M  V30 7420 O 699.333 1.59347 -0.83716 0
M  V30 7421 H 695.708 0.495892 -0.565328 0
M  V30 7422 H 697.679 1.24411 -2.71228 0
M  V30 7423 C 696.428 2.86036 -1.97683 0
M  V30 7424 H 695.751 2.81188 -2.84206 0
M  V30 7425 H 697.191 3.62632 -2.19713 0
M  V30 7426 C 695.65 3.28428 -0.750776 0
M  V30 7427 O 696.18 4.0164 0.0693491 0
M  V30 7428 N 694.386 2.84765 -0.579427 0
M  V30 7429 H 693.933 2.25353 -1.24795 0
M  V30 7430 H 693.891 3.13486 0.239544 0
M  V30 7431 N 697.663 1.43903 0.642637 0
M  V30 7432 C 698.909 1.47291 1.40275 0
M  V30 7433 C 699.264 0.0996024 1.92142 0
M  V30 7434 O 698.557 -0.883423 1.70018 0
M  V30 7435 C 698.751 2.45907 2.59354 0
M  V30 7436 C 698.58 3.92691 2.19143 0
M  V30 7437 C 697.35 4.6097 2.06966 0
M  V30 7438 C 699.548 4.82231 1.78768 0
M  V30 7439 N 697.53 5.9263 1.60196 0
M  V30 7440 C 698.901 6.03246 1.43159 0
M  V30 7441 C 700.956 4.69397 1.66045 0
M  V30 7442 C 699.659 7.12851 0.961014 0
M  V30 7443 C 701.685 5.79016 1.20392 0
M  V30 7444 C 701.047 6.99164 0.857271 0
M  V30 7445 H 697.146 0.594055 0.50855 0
M  V30 7446 H 699.73 1.80153 0.738434 0
M  V30 7447 H 697.901 2.15054 3.23429 0
M  V30 7448 H 699.633 2.39665 3.26102 0
M  V30 7449 H 696.388 4.15622 2.27058 0
M  V30 7450 H 696.812 6.62547 1.39143 0
M  V30 7451 H 701.454 3.76954 1.91482 0
M  V30 7452 H 699.172 8.05113 0.694148 0
M  V30 7453 H 702.758 5.71109 1.11023 0
M  V30 7454 H 701.638 7.82544 0.509408 0
M  V30 7455 N 699.141 -0.881989 1.30609 0
M  V30 7456 C 700.088 -1.98803 1.17244 0
M  V30 7457 C 701.058 -1.65987 0.0611905 0
M  V30 7458 O 702.243 -1.89385 0.231911 0
M  V30 7459 C 699.383 -3.33867 0.87333 0
M  V30 7460 C 698.496 -3.79354 2.06675 0
M  V30 7461 C 697.631 -5.03078 1.70547 0
M  V30 7462 C 696.67 -5.40981 2.86366 0
M  V30 7463 N 695.807 -6.55886 2.50514 0
M  V30 7464 H 700.647 -2.09566 2.11863 0
M  V30 7465 H 698.184 -1.02607 1.05405 0
M  V30 7466 H 700.142 -4.11612 0.680519 0
M  V30 7467 H 698.772 -3.2278 -0.0359983 0
M  V30 7468 H 697.824 -2.97492 2.37071 0
M  V30 7469 H 699.136 -4.03382 2.93401 0
M  V30 7470 H 698.29 -5.88457 1.47658 0
M  V30 7471 H 697.029 -4.80927 0.809947 0
M  V30 7472 H 696.034 -4.54127 3.09917 0
M  V30 7473 H 697.259 -5.65104 3.76609 0
M  V30 7474 H 695.205 -6.35306 1.63471 0
M  V30 7475 H 695.122 -6.79799 3.30771 0
M  V30 7476 H 696.39 -7.44489 2.30989 0
M  V30 7477 N 700.619 -1.13374 -1.09472 0
M  V30 7478 C 701.865 -0.906459 -1.82085 0
M  V30 7479 C 702.22 0.5614 -1.84027 0
M  V30 7480 O 701.513 1.41012 -1.29716 0
M  V30 7481 C 701.707 -1.42759 -3.2765 0
M  V30 7482 C 701.536 -2.94459 -3.39888 0
M  V30 7483 C 700.306 -3.62798 -3.51718 0
M  V30 7484 C 702.504 -3.92398 -3.32457 0
M  V30 7485 N 700.486 -5.02516 -3.52635 0
M  V30 7486 C 701.857 -5.18304 -3.40237 0
M  V30 7487 C 703.912 -3.84671 -3.16122 0
M  V30 7488 C 702.615 -6.37386 -3.33364 0
M  V30 7489 C 704.641 -5.03287 -3.10574 0
M  V30 7490 C 704.003 -6.28055 -3.18945 0
M  V30 7491 H 700.102 -0.385097 -0.680606 0
M  V30 7492 H 702.686 -1.44187 -1.30836 0
M  V30 7493 H 700.857 -0.919102 -3.77369 0
M  V30 7494 H 702.589 -1.14136 -3.88272 0
M  V30 7495 H 699.344 -3.13317 -3.55147 0
M  V30 7496 H 699.768 -5.75421 -3.56679 0
M  V30 7497 H 704.41 -2.89094 -3.0852 0
M  V30 7498 H 702.128 -7.33219 -3.3973 0
M  V30 7499 H 705.714 -4.99047 -2.9907 0
M  V30 7500 H 704.594 -7.18299 -3.14668 0
M  V30 7501 N 702.098 1.27442 -0.927168 0
M  V30 7502 C 703.061 2.2512 -0.430525 0
M  V30 7503 C 704.061 1.54357 0.450619 0
M  V30 7504 O 705.251 1.72371 0.251774 0
M  V30 7505 C 702.383 3.38763 0.381144 0
M  V30 7506 H 703.576 2.70569 -1.29354 0
M  V30 7507 H 701.129 1.39355 -0.707806 0
M  V30 7508 H 701.864 2.98695 1.263 0
M  V30 7509 H 701.649 3.91298 -0.250618 0
M  V30 7510 H 703.139 4.11364 0.719012 0
M  V30 7511 N 703.576 0.692616 1.41565 0
M  V30 7512 C 704.816 0.226453 2.03142 0
M  V30 7513 C 705.18 -1.1512 1.5366 0
M  V30 7514 O 706.381 -1.71305 2.07143 0
M  V30 7515 C 704.652 0.27855 3.56313 0
M  V30 7516 S 706.211 -0.114001 4.38652 0
M  V30 7517 H 703.029 0.0914767 0.705091 0
M  V30 7518 H 705.631 0.909737 1.73043 0
M  V30 7519 H 704.335 1.28325 3.89821 0
M  V30 7520 H 703.866 -0.423981 3.91109 0
M  V30 7521 H 705.881 -1.34256 4.77692 0
M  V30 7522 N 705.054 -1.51416 0.437162 0
M  V30 7523 C 706.001 -2.27743 -0.374374 0
M  V30 7524 C 706.971 -1.31327 -1.01698 0
M  V30 7525 O 708.156 -1.60229 -1.03592 0
M  V30 7526 C 705.296 -3.12241 -1.46969 0
M  V30 7527 C 704.409 -4.23651 -0.845236 0
M  V30 7528 C 703.544 -4.95458 -1.91559 0
M  V30 7529 C 702.583 -5.98789 -1.26956 0
M  V30 7530 N 701.72 -6.64005 -2.28126 0
M  V30 7531 H 706.56 -2.96654 0.282892 0
M  V30 7532 H 704.097 -1.46319 0.151352 0
M  V30 7533 H 706.055 -3.59556 -2.11602 0
M  V30 7534 H 704.685 -2.45445 -2.09659 0
M  V30 7535 H 703.737 -3.803 -0.0872059 0
M  V30 7536 H 705.049 -4.97683 -0.333582 0
M  V30 7537 H 704.203 -5.46321 -2.63854 0
M  V30 7538 H 702.942 -4.21055 -2.46097 0
M  V30 7539 H 701.947 -5.47219 -0.53207 0
M  V30 7540 H 703.172 -6.75149 -0.731509 0
M  V30 7541 H 701.118 -5.92415 -2.81745 0
M  V30 7542 H 701.035 -7.33802 -1.81852 0
M  V30 7543 H 702.303 -7.19498 -2.99905 0
M  V30 7544 N 706.532 -0.168513 -1.56696 0
M  V30 7545 C 707.757 0.486688 -2.01609 0
M  V30 7546 C 708.182 1.56203 -1.04796 0
M  V30 7547 O 707.54 1.8128 -0.0270596 0
M  V30 7548 C 707.588 1.04451 -3.45141 0
M  V30 7549 O 706.692 2.15862 -3.51393 0
M  V30 7550 H 706.033 0.116831 -0.653641 0
M  V30 7551 H 708.563 -0.271579 -2.0279 0
M  V30 7552 H 708.573 1.36782 -3.84389 0
M  V30 7553 H 707.248 0.257155 -4.15104 0
M  V30 7554 H 705.825 1.84597 -3.24004 0
M  V30 7555 N 708.01 1.57248 0.105221 0
M  V30 7556 C 708.94 2.04374 1.12931 0
M  V30 7557 C 709.921 0.93074 1.42377 0
M  V30 7558 O 711.106 1.20136 1.52581 0
M  V30 7559 C 708.236 2.45967 2.45189 0
M  V30 7560 C 707.19 3.60838 2.30174 0
M  V30 7561 C 706.516 3.88374 3.67518 0
M  V30 7562 C 707.816 4.92084 1.75073 0
M  V30 7563 H 709.51 2.9018 0.737287 0
M  V30 7564 H 707.056 1.39601 0.353211 0
M  V30 7565 H 709.009 2.77542 3.17094 0
M  V30 7566 H 707.733 1.57148 2.86308 0
M  V30 7567 H 706.392 3.29493 1.60716 0
M  V30 7568 H 706.04 2.96739 4.06147 0
M  V30 7569 H 705.74 4.65703 3.58321 0
M  V30 7570 H 707.264 4.22415 4.40906 0
M  V30 7571 H 708.678 5.22106 2.36809 0
M  V30 7572 H 707.075 5.73507 1.76662 0
M  V30 7573 H 708.145 4.79684 0.709347 0
M  V30 7574 N 709.488 -0.375779 1.53054 0
M  V30 7575 C 710.736 -1.11727 1.68409 0
M  V30 7576 C 711.057 -1.90127 0.43323 0
M  V30 7577 O 710.327 -1.87945 -0.552595 0
M  V30 7578 H 708.907 -0.415451 0.620813 0
M  V30 7579 H 711.569 -0.424869 1.90213 0
M  V30 7580 H 710.665 -1.8128 2.54055 0
M  V30 7581 N 710.966 -1.44241 -0.634997 0
M  V30 7582 C 712.382 -1.28043 -0.952742 0
M  V30 7583 C 712.582 -0.21338 -2.00367 0
M  V30 7584 O 711.638 0.402042 -2.49279 0
M  V30 7585 C 712.951 -2.65076 -1.41968 0
M  V30 7586 C 714.499 -2.72755 -1.53537 0
M  V30 7587 C 714.974 -4.10249 -2.03616 0
M  V30 7588 N 716.465 -4.12406 -2.10892 0
M  V30 7589 C 717.2 -5.15641 -2.50803 0
M  V30 7590 N 716.696 -6.29239 -2.89879 0
M  V30 7591 N 718.489 -5.02995 -2.50903 0
M  V30 7592 H 710.64 -2.12315 0.060098 0
M  V30 7593 H 712.903 -0.947326 -0.0357325 0
M  V30 7594 H 712.609 -3.44213 -0.721804 0
M  V30 7595 H 712.483 -2.91704 -2.39141 0
M  V30 7596 H 714.87 -1.93939 -2.22422 0
M  V30 7597 H 714.951 -2.49872 -0.547496 0
M  V30 7598 H 714.595 -4.8954 -1.35327 0
M  V30 7599 H 714.525 -4.30507 -3.03268 0
M  V30 7600 H 717.016 -3.30417 -1.83393 0
M  V30 7601 H 717.329 -7.03827 -3.19135 0
M  V30 7602 H 715.674 -6.32683 -2.8764 0
M  V30 7603 H 718.865 -4.13306 -2.19763 0
M  V30 7604 H 719.038 -5.83574 -2.81683 0
M  V30 7605 N 712.444 0.87505 -1.31075 0
M  V30 7606 C 713.391 1.98178 -1.18296 0
M  V30 7607 C 714.361 1.65952 -0.0699923 0
M  V30 7608 O 715.546 1.8926 -0.241951 0
M  V30 7609 C 712.686 3.33399 -0.891024 0
M  V30 7610 C 711.799 3.78253 -2.08684 0
M  V30 7611 C 710.934 5.02166 -1.73212 0
M  V30 7612 C 709.973 5.39455 -2.89231 0
M  V30 7613 N 709.11 6.54549 -2.53989 0
M  V30 7614 H 713.95 2.0844 -2.12971 0
M  V30 7615 H 711.487 1.02047 -1.05948 0
M  V30 7616 H 713.445 4.11246 -0.702338 0
M  V30 7617 H 712.075 3.22794 0.0188799 0
M  V30 7618 H 711.127 2.9623 -2.38646 0
M  V30 7619 H 712.439 4.01821 -2.95536 0
M  V30 7620 H 711.593 5.87666 -1.50777 0
M  V30 7621 H 710.332 4.80491 -0.83544 0
M  V30 7622 H 709.337 4.52477 -3.12321 0
M  V30 7623 H 710.562 5.63098 -3.79601 0
M  V30 7624 H 708.508 6.3443 -1.66838 0
M  V30 7625 H 708.425 6.78035 -3.34372 0
M  V30 7626 H 709.693 7.43254 -2.34934 0
M  V30 7627 N 713.922 1.13953 1.08869 0
M  V30 7628 C 715.171 0.899431 1.80536 0
M  V30 7629 C 715.484 -0.575781 1.86933 0
M  V30 7630 O 716.69 -0.932988 2.54966 0
M  V30 7631 C 715.146 1.55963 3.24351 0
M  V30 7632 C 714.754 3.07077 3.26202 0
M  V30 7633 C 716.498 1.40046 4.00733 0
M  V30 7634 C 714.405 3.65955 4.64576 0
M  V30 7635 H 713.335 0.332849 0.676556 0
M  V30 7636 H 715.986 1.3679 1.22314 0
M  V30 7637 H 714.368 1.01883 3.82669 0
M  V30 7638 H 715.542 3.67785 2.77617 0
M  V30 7639 H 713.857 3.22576 2.63312 0
M  V30 7640 H 716.454 1.81441 5.02974 0
M  V30 7641 H 716.797 0.345993 4.1486 0
M  V30 7642 H 717.33 1.91137 3.48872 0
M  V30 7643 H 714.069 4.71234 4.55652 0
M  V30 7644 H 713.589 3.10027 5.13462 0
M  V30 7645 H 715.268 3.65968 5.33551 0
M  V30 7646 N 715.4 -1.26948 0.933913 0
M  V30 7647 C 716.33 -2.29017 0.45534 0
M  V30 7648 C 717.311 -1.62961 -0.487605 0
M  V30 7649 O 718.496 -1.90223 -0.391022 0
M  V30 7650 C 715.626 -3.46112 -0.287015 0
M  V30 7651 C 714.58 -4.24205 0.568682 0
M  V30 7652 C 713.906 -5.3384 -0.303206 0
M  V30 7653 C 715.206 -4.88954 1.83633 0
M  V30 7654 H 716.9 -2.69298 1.30839 0
M  V30 7655 H 714.446 -1.29459 0.630579 0
M  V30 7656 H 716.399 -4.16622 -0.6328 0
M  V30 7657 H 715.123 -3.04765 -1.17414 0
M  V30 7658 H 713.782 -3.5545 0.897261 0
M  V30 7659 H 713.43 -4.88734 -1.18947 0
M  V30 7660 H 713.13 -5.86998 0.265879 0
M  V30 7661 H 714.654 -6.0719 -0.644423 0
M  V30 7662 H 716.068 -5.51717 1.55823 0
M  V30 7663 H 714.465 -5.52198 2.34941 0
M  V30 7664 H 715.535 -4.12305 2.55211 0
M  V30 7665 N 716.879 -0.700114 -1.41195 0
M  V30 7666 C 718.128 -0.230082 -2.00383 0
M  V30 7667 C 718.441 1.17857 -1.56106 0
M  V30 7668 O 719.647 1.74631 -2.07885 0
M  V30 7669 C 718.103 -0.360447 -3.5809 0
M  V30 7670 C 717.711 -1.77475 -4.11347 0
M  V30 7671 C 719.455 0.0495799 -4.24471 0
M  V30 7672 C 717.362 -1.85653 -5.61504 0
M  V30 7673 H 716.292 -0.0822633 -0.749499 0
M  V30 7674 H 718.943 -0.868969 -1.6162 0
M  V30 7675 H 717.325 0.346768 -3.94479 0
M  V30 7676 H 718.499 -2.51109 -3.86369 0
M  V30 7677 H 716.814 -2.13486 -3.57509 0
M  V30 7678 H 719.411 0.00898219 -5.34699 0
M  V30 7679 H 719.754 1.08904 -4.01803 0
M  V30 7680 H 720.287 -0.607521 -3.93134 0
M  V30 7681 H 717.026 -2.87667 -5.89006 0
M  V30 7682 H 716.546 -1.1641 -5.88395 0
M  V30 7683 H 718.225 -1.62151 -6.26351 0
M  V30 7684 N 718.357 1.51182 -0.445186 0
M  V30 7685 C 719.768 1.86693 0.0160999 0
M  V30 7686 C 720.119 1.36183 1.4124 0
M  V30 7687 O 719.244 0.715895 2.04215 0
M  V30 7688 C 719.839 3.38781 0.0359918 0
M  V30 7689 C 718.398 3.73799 0.441715 0
M  V30 7690 C 717.545 2.74947 -0.360511 0
M  V30 7691 H 720.496 1.44294 -0.660674 0
M  V30 7692 H 720.517 3.71026 0.843813 0
M  V30 7693 H 720.029 3.75513 -0.980378 0
M  V30 7694 H 718.13 3.42659 1.4634 0
M  V30 7695 H 718.243 4.78829 0.16106 0
M  V30 7696 H 716.607 2.54047 0.182269 0
M  V30 7697 H 717.39 3.14521 -1.3759 0
M  V30 7698 N 719.835 0.176821 1.56605 0
M  V30 7699 C 720.798 -0.737429 2.17013 0
M  V30 7700 C 721.798 -1.15414 1.11965 0
M  V30 7701 O 722.988 -1.0702 1.37449 0
M  V30 7702 C 720.12 -2.00445 2.75744 0
M  V30 7703 H 721.313 -0.211455 2.99154 0
M  V30 7704 H 718.866 -0.0727582 1.56131 0
M  V30 7705 H 719.601 -2.57338 1.97352 0
M  V30 7706 H 719.386 -1.71456 3.52626 0
M  V30 7707 H 720.876 -2.65679 3.22187 0
M  V30 7708 N 721.313 -1.57302 -0.09688 0
M  V30 7709 C 722.243 -2.0497 -1.11846 0
M  V30 7710 C 723.224 -0.938278 -1.41882 0
M  V30 7711 O 724.409 -1.20943 -1.51942 0
M  V30 7712 C 721.539 -2.47264 -2.43881 0
M  V30 7713 C 720.493 -3.62053 -2.28257 0
M  V30 7714 C 719.819 -3.90318 -3.65453 0
M  V30 7715 C 721.119 -4.93005 -1.72461 0
M  V30 7716 H 722.813 -2.90567 -0.721888 0
M  V30 7717 H 720.359 -1.39786 -0.345803 0
M  V30 7718 H 722.312 -2.7922 -3.15617 0
M  V30 7719 H 721.036 -1.58664 -2.8547 0
M  V30 7720 H 719.695 -3.30341 -1.58967 0
M  V30 7721 H 719.343 -2.98889 -4.04567 0
M  V30 7722 H 719.043 -4.67597 -3.55846 0
M  V30 7723 H 720.567 -4.24747 -4.3866 0
M  V30 7724 H 721.981 -5.23354 -2.34036 0
M  V30 7725 H 720.378 -5.74436 -1.73618 0
M  V30 7726 H 721.448 -4.80053 -0.683898 0
M  V30 7727 N 722.791 0.367657 -1.53252 0
M  V30 7728 C 723.724 1.47264 -1.74323 0
M  V30 7729 C 724.702 1.51458 -0.591535 0
M  V30 7730 O 725.886 1.69542 -0.823883 0
M  V30 7731 C 723.013 2.85637 -1.82015 0
M  V30 7732 C 722.059 2.99176 -3.03967 0
M  V30 7733 S 722.892 2.68147 -4.63527 0
M  V30 7734 C 724.048 4.08673 -4.74065 0
M  V30 7735 H 724.281 1.29169 -2.67773 0
M  V30 7736 H 721.814 0.561866 -1.43814 0
M  V30 7737 H 723.772 3.65365 -1.87132 0
M  V30 7738 H 722.433 3.01043 -0.896195 0
M  V30 7739 H 721.626 4.00511 -3.05953 0
M  V30 7740 H 721.228 2.27367 -2.96952 0
M  V30 7741 H 723.52 5.02889 -4.53992 0
M  V30 7742 H 724.463 4.11693 -5.7612 0
M  V30 7743 H 724.871 3.95576 -4.02716 0
M  V30 7744 N 724.269 1.44576 0.627338 0
M  V30 7745 C 725.515 1.47777 1.38888 0
M  V30 7746 C 725.848 0.111406 1.9388 0
M  V30 7747 O 725.123 -0.87149 1.73883 0
M  V30 7748 C 725.406 2.54119 2.55138 0
M  V30 7749 C 725.259 4.00128 2.0547 0
M  V30 7750 C 726.578 2.56929 3.57317 0
M  V30 7751 H 723.697 0.538048 0.50366 0
M  V30 7752 H 726.339 1.76277 0.708978 0
M  V30 7753 H 724.489 2.29948 3.13139 0
M  V30 7754 H 726.161 4.35444 1.5227 0
M  V30 7755 H 724.404 4.11724 1.36623 0
M  V30 7756 H 725.075 4.7019 2.89181 0
M  V30 7757 H 727.551 2.78536 3.09122 0
M  V30 7758 H 726.427 3.33234 4.36173 0
M  V30 7759 H 726.688 1.6127 4.11636 0
M  V30 7760 N 725.747 -0.868086 1.31537 0
M  V30 7761 C 726.975 -1.65402 1.24298 0
M  V30 7762 C 727.39 -1.87827 -0.191389 0
M  V30 7763 O 726.747 -1.43776 -1.12404 0
M  V30 7764 C 726.798 -3.02093 1.9855 0
M  V30 7765 O 726.519 -2.80668 3.36388 0
M  V30 7766 C 728.02 -3.96538 1.98173 0
M  V30 7767 H 725.24 -0.515598 0.429417 0
M  V30 7768 H 727.784 -1.0834 1.73444 0
M  V30 7769 H 725.939 -3.55838 1.53161 0
M  V30 7770 H 726.353 -3.67504 3.74221 0
M  V30 7771 H 727.827 -4.8976 2.54635 0
M  V30 7772 H 728.304 -4.28474 0.964697 0
M  V30 7773 H 728.91 -3.48729 2.4345 0
M  V30 7774 N 727.225 -1.14528 -1.08264 0
M  V30 7775 C 728.188 -0.83632 -2.13397 0
M  V30 7776 C 729.188 0.159715 -1.60005 0
M  V30 7777 O 730.378 -0.0688098 -1.74064 0
M  V30 7778 C 727.51 -0.246973 -3.40004 0
M  V30 7779 H 728.703 -1.76808 -2.42237 0
M  V30 7780 H 726.256 -0.951509 -1.24 0
M  V30 7781 H 726.991 0.693436 -3.168 0
M  V30 7782 H 726.776 -0.964412 -3.80055 0
M  V30 7783 H 728.266 -0.0480679 -4.17572 0
M  V30 7784 N 728.703 1.26451 -0.940633 0
M  V30 7785 C 729.613 2.30128 -0.455881 0
M  V30 7786 C 730.629 1.67536 0.469867 0
M  V30 7787 O 731.805 1.98344 0.349529 0
M  V30 7788 C 728.87 3.45634 0.271648 0
M  V30 7789 C 727.931 4.23709 -0.690594 0
M  V30 7790 C 727.164 5.337 0.00231047 0
M  V30 7791 O 727.387 5.57215 1.21935 0
M  V30 7792 O 726.321 5.98091 -0.676111 0
M  V30 7793 H 730.147 2.73655 -1.31707 0
M  V30 7794 H 727.732 1.3164 -0.706497 0
M  V30 7795 H 729.614 4.15853 0.681486 0
M  V30 7796 H 728.289 3.04138 1.10824 0
M  V30 7797 H 727.196 3.55974 -1.15037 0
M  V30 7798 H 728.529 4.68953 -1.49478 0
M  V30 7799 N 730.181 0.707592 1.40822 0
M  V30 7800 C 731.128 0.0499029 2.30746 0
M  V30 7801 C 732.098 -0.758718 1.47759 0
M  V30 7802 O 733.283 -0.724299 1.76518 0
M  V30 7803 C 730.423 -0.871756 3.33908 0
M  V30 7804 C 729.536 -0.0534655 4.31967 0
M  V30 7805 C 728.671 -0.973869 5.22197 0
M  V30 7806 C 727.71 -0.149194 6.11918 0
M  V30 7807 N 726.847 -1.02404 6.94592 0
M  V30 7808 H 731.687 0.822461 2.86426 0
M  V30 7809 H 729.224 0.417285 1.41057 0
M  V30 7810 H 731.182 -1.42028 3.9228 0
M  V30 7811 H 729.812 -1.61058 2.7975 0
M  V30 7812 H 728.864 0.612142 3.75442 0
M  V30 7813 H 730.176 0.585354 4.95353 0
M  V30 7814 H 729.33 -1.59121 5.85462 0
M  V30 7815 H 728.069 -1.64652 4.59065 0
M  V30 7816 H 727.074 0.481137 5.47691 0
M  V30 7817 H 728.299 0.519841 6.77107 0
M  V30 7818 H 726.245 -1.6825 6.34057 0
M  V30 7819 H 726.162 -0.441076 7.54712 0
M  V30 7820 H 727.43 -1.62782 7.62314 0
M  V30 7821 N 731.66 -1.50943 0.453197 0
M  V30 7822 C 732.937 -1.94872 -0.168633 0
M  V30 7823 C 733.317 -1.39272 -1.5864 0
M  V30 7824 O 732.665 -0.586272 -2.20851 0
M  V30 7825 C 732.875 -3.48757 -0.130217 0
M  V30 7826 C 734.223 -4.23331 -0.327975 0
M  V30 7827 O 735.247 -3.55594 -0.207619 0
M  V30 7828 O 734.106 -5.43529 -0.569077 0
M  V30 7829 H 731.2 -0.818042 -0.121394 0
M  V30 7830 H 733.746 -1.61782 0.512316 0
M  V30 7831 H 732.518 -3.81725 0.860346 0
M  V30 7832 H 732.141 -3.88333 -0.853397 0
M  V30 7833 N 733.138 -0.185124 -1.56509 0
M  V30 7834 C 734.385 0.456258 -1.97293 0
M  V30 7835 C 734.713 1.62314 -1.07165 0
M  V30 7836 O 733.968 1.95398 -0.108621 0
M  V30 7837 C 734.267 0.967977 -3.44042 0
M  V30 7838 C 733.933 -0.084476 -4.50821 0
M  V30 7839 C 732.595 -0.373689 -4.79747 0
M  V30 7840 C 734.947 -0.79812 -5.15053 0
M  V30 7841 C 732.275 -1.3817 -5.70198 0
M  V30 7842 C 734.627 -1.79521 -6.06593 0
M  V30 7843 C 733.291 -2.09172 -6.3388 0
M  V30 7844 H 732.561 0.166957 -0.721946 0
M  V30 7845 H 735.208 -0.279992 -1.89442 0
M  V30 7846 H 733.513 1.78231 -3.48914 0
M  V30 7847 H 735.21 1.47347 -3.72948 0
M  V30 7848 H 731.8 0.15111 -4.28334 0
M  V30 7849 H 735.984 -0.587903 -4.92806 0
M  V30 7850 H 731.24 -1.61745 -5.89617 0
M  V30 7851 H 735.414 -2.35347 -6.55427 0
M  V30 7852 H 733.041 -2.87427 -7.03768 0
M  V30 7853 N 734.616 1.57351 0.0885366 0
M  V30 7854 C 735.862 1.86696 0.791996 0
M  V30 7855 C 736.195 0.775148 1.78059 0
M  V30 7856 O 735.47 -0.216247 1.93294 0
M  V30 7857 C 735.753 3.26684 1.51491 0
M  V30 7858 C 735.606 4.465 0.543858 0
M  V30 7859 C 736.925 3.64664 2.46391 0
M  V30 7860 H 734.044 0.679049 0.286463 0
M  V30 7861 H 736.686 1.89919 0.0554866 0
M  V30 7862 H 734.836 3.24067 2.14273 0
M  V30 7863 H 736.508 4.61235 -0.0774597 0
M  V30 7864 H 734.751 4.33567 -0.142228 0
M  V30 7865 H 735.422 5.41192 1.08696 0
M  V30 7866 H 737.898 3.68267 1.93698 0
M  V30 7867 H 736.774 4.63534 2.93986 0
M  V30 7868 H 737.035 2.93698 3.30445 0
M  V30 7869 N 736.094 -0.359525 1.53444 0
M  V30 7870 C 737.024 -1.44662 1.8329 0
M  V30 7871 C 738.005 -1.55617 0.68683 0
M  V30 7872 O 739.19 -1.70086 0.93725 0
M  V30 7873 C 736.32 -2.81923 2.02822 0
M  V30 7874 C 735.274 -2.85787 3.18606 0
M  V30 7875 C 734.6 -4.25781 3.23442 0
M  V30 7876 C 735.9 -2.52762 4.57065 0
M  V30 7877 H 737.594 -1.19934 2.74329 0
M  V30 7878 H 735.14 -0.575517 1.31999 0
M  V30 7879 H 737.093 -3.58005 2.22285 0
M  V30 7880 H 735.817 -3.08051 1.085 0
M  V30 7881 H 734.476 -2.12157 2.98973 0
M  V30 7882 H 734.124 -4.48994 2.26745 0
M  V30 7883 H 733.824 -4.29281 4.01238 0
M  V30 7884 H 735.348 -5.03727 3.45096 0
M  V30 7885 H 736.762 -3.18557 4.76649 0
M  V30 7886 H 735.159 -2.67569 5.37147 0
M  V30 7887 H 736.229 -1.47993 4.61764 0
M  V30 7888 N 737.572 -1.44907 -0.619662 0
M  V30 7889 C 738.818 -1.48512 -1.38102 0
M  V30 7890 C 739.151 -0.121686 -1.93818 0
M  V30 7891 O 738.426 0.862256 -1.74343 0
M  V30 7892 C 738.709 -2.55469 -2.53787 0
M  V30 7893 C 738.562 -4.01212 -2.03345 0
M  V30 7894 C 739.881 -2.58821 -3.55949 0
M  V30 7895 H 737 -0.540712 -0.500799 0
M  V30 7896 H 739.642 -1.7665 -0.69962 0
M  V30 7897 H 737.792 -2.31606 -3.11915 0
M  V30 7898 H 739.464 -4.36245 -1.49959 0
M  V30 7899 H 737.707 -4.12443 -1.34438 0
M  V30 7900 H 738.378 -4.71717 -2.86683 0
M  V30 7901 H 740.854 -2.80172 -3.07641 0
M  V30 7902 H 739.73 -3.35542 -4.34399 0
M  V30 7903 H 739.991 -1.63451 -4.10775 0
M  V30 7904 N 739.05 0.861098 -1.31996 0
M  V30 7905 C 740.461 1.43065 -1.19955 0
M  V30 7906 C 740.812 1.95273 0.190489 0
M  V30 7907 O 739.937 1.87012 1.08882 0
M  V30 7908 C 740.532 2.60052 -2.1716 0
M  V30 7909 C 739.091 3.13026 -2.09026 0
M  V30 7910 C 738.238 1.85756 -2.05888 0
M  V30 7911 H 741.189 0.668834 -1.43918 0
M  V30 7912 H 741.21 3.37016 -1.76637 0
M  V30 7913 H 740.722 2.22024 -3.18319 0
M  V30 7914 H 738.823 3.55653 -1.11092 0
M  V30 7915 H 738.936 3.74707 -2.98549 0
M  V30 7916 H 737.3 2.05088 -1.51033 0
M  V30 7917 H 738.083 1.49954 -3.08818 0
M  V30 7918 N 740.528 1.15101 1.07655 0
M  V30 7919 C 741.46 0.802722 2.14684 0
M  V30 7920 C 742.473 -0.183874 1.61758 0
M  V30 7921 O 743.662 0.0389349 1.78458 0
M  V30 7922 C 740.762 0.172135 3.38463 0
M  V30 7923 C 739.935 1.19538 4.20749 0
M  V30 7924 C 738.994 0.58714 5.22914 0
M  V30 7925 O 738.02 1.25224 5.55255 0
M  V30 7926 N 739.222 -0.632566 5.77043 0
M  V30 7927 H 741.987 1.72379 2.45164 0
M  V30 7928 H 739.548 1.04647 1.23534 0
M  V30 7929 H 741.54 -0.247465 4.03943 0
M  V30 7930 H 740.11 -0.652214 3.0572 0
M  V30 7931 H 739.33 1.79165 3.51132 0
M  V30 7932 H 740.618 1.88636 4.7254 0
M  V30 7933 H 740.016 -1.19135 5.53013 0
M  V30 7934 H 738.573 -0.994566 6.44167 0
M  V30 7935 N 742.006 -1.2595 0.947325 0
M  V30 7936 C 742.939 -2.24559 0.406009 0
M  V30 7937 C 743.917 -1.54441 -0.508598 0
M  V30 7938 O 745.101 -1.83181 -0.444644 0
M  V30 7939 C 742.228 -3.36136 -0.415987 0
M  V30 7940 C 741.274 -4.24245 0.437969 0
M  V30 7941 S 742.107 -5.01948 1.86572 0
M  V30 7942 C 743.263 -6.16997 1.05194 0
M  V30 7943 H 743.496 -2.70128 1.24171 0
M  V30 7944 H 741.029 -1.34912 0.750874 0
M  V30 7945 H 742.987 -4.00861 -0.88433 0
M  V30 7946 H 741.648 -2.89167 -1.22643 0
M  V30 7947 H 740.841 -5.03634 -0.192127 0
M  V30 7948 H 740.443 -3.64416 0.841235 0
M  V30 7949 H 742.735 -6.76848 0.297126 0
M  V30 7950 H 743.678 -6.84324 1.8195 0
M  V30 7951 H 744.086 -5.61458 0.585294 0
M  V30 7952 N 743.484 -0.715051 -1.40445 0
M  V30 7953 C 744.709 -0.26254 -2.05732 0
M  V30 7954 C 745.134 1.08691 -1.53519 0
M  V30 7955 O 744.492 1.68453 -0.670328 0
M  V30 7956 C 744.54 -0.25195 -3.59719 0
M  V30 7957 O 743.644 0.766998 -4.05205 0
M  V30 7958 H 742.985 -0.123398 -0.652433 0
M  V30 7959 H 745.515 -0.975382 -1.79854 0
M  V30 7960 H 745.525 -0.0894537 -4.07902 0
M  V30 7961 H 744.2 -1.23672 -3.97087 0
M  V30 7962 H 742.777 0.572269 -3.68483 0
M  V30 7963 N 744.962 1.50701 -0.461195 0
M  V30 7964 C 745.894 2.26124 0.374244 0
M  V30 7965 C 746.907 1.31064 0.965715 0
M  V30 7966 O 748.096 1.56647 0.855801 0
M  V30 7967 C 745.196 3.01996 1.5379 0
M  V30 7968 C 744.369 4.24336 1.06101 0
M  V30 7969 C 743.428 4.82585 2.09756 0
M  V30 7970 O 742.454 5.43775 1.68219 0
M  V30 7971 N 743.656 4.68712 3.42475 0
M  V30 7972 H 746.421 2.9846 -0.2723 0
M  V30 7973 H 743.982 1.59256 -0.291415 0
M  V30 7974 H 745.974 3.37846 2.22806 0
M  V30 7975 H 744.544 2.32521 2.08933 0
M  V30 7976 H 743.764 3.93707 0.197085 0
M  V30 7977 H 745.052 5.03678 0.720156 0
M  V30 7978 H 744.45 4.20026 3.78938 0
M  V30 7979 H 743.007 5.08858 4.07317 0
M  V30 7980 N 746.441 0.193421 1.56409 0
M  V30 7981 C 747.391 -0.74089 2.15627 0
M  V30 7982 C 748.375 -1.17747 1.09656 0
M  V30 7983 O 749.567 -1.13615 1.35723 0
M  V30 7984 C 746.696 -1.96091 2.81786 0
M  V30 7985 C 745.782 -1.54531 3.94944 0
M  V30 7986 N 746.173 -0.840569 4.98767 0
M  V30 7987 C 744.471 -1.83473 4.06514 0
M  V30 7988 C 745.172 -0.632571 5.7825 0
M  V30 7989 N 744.148 -1.18078 5.30621 0
M  V30 7990 H 747.95 -0.193718 2.93261 0
M  V30 7991 H 745.464 -0.00643211 1.62399 0
M  V30 7992 H 747.461 -2.64071 3.22602 0
M  V30 7993 H 746.121 -2.51282 2.05639 0
M  V30 7994 H 747.132 -0.496218 5.15517 0
M  V30 7995 H 743.809 -2.40184 3.41493 0
M  V30 7996 H 745.199 -0.0736433 6.7186 0
M  V30 7997 N 747.919 -1.57396 -0.0801906 0
M  V30 7998 C 748.852 -1.98386 -1.12774 0
M  V30 7999 C 749.83 -0.859423 -1.38031 0
M  V30 8000 O 751.014 -1.12101 -1.51544 0
M  V30 8001 C 748.141 -2.3134 -2.47386 0
M  V30 8002 C 747.187 -3.53706 -2.38316 0
M  V30 8003 S 748.02 -5.04862 -1.78534 0
M  V30 8004 C 749.176 -5.41008 -3.1474 0
M  V30 8005 H 749.409 -2.86929 -0.778382 0
M  V30 8006 H 746.942 -1.51682 -0.28842 0
M  V30 8007 H 748.9 -2.51 -3.24822 0
M  V30 8008 H 747.561 -1.4334 -2.79486 0
M  V30 8009 H 746.754 -3.74253 -3.37566 0
M  V30 8010 H 746.356 -3.33632 -1.69014 0
M  V30 8011 H 748.648 -5.38565 -4.1104 0
M  V30 8012 H 749.591 -6.41885 -2.98981 0
M  V30 8013 H 749.999 -4.68467 -3.14958 0
M  V30 8014 N 749.397 0.351382 -1.53633 0
M  V30 8015 C 750.307 1.45471 -1.84052 0
M  V30 8016 C 751.323 1.57945 -0.730015 0
M  V30 8017 O 752.499 1.73571 -1.02153 0
M  V30 8018 C 749.564 2.80562 -2.03681 0
M  V30 8019 C 748.625 2.77497 -3.27558 0
M  V30 8020 C 747.858 4.06144 -3.46241 0
M  V30 8021 O 748.081 5.03028 -2.68922 0
M  V30 8022 O 747.015 4.11092 -4.39645 0
M  V30 8023 H 750.841 1.22684 -2.77817 0
M  V30 8024 H 748.426 0.542827 -1.3919 0
M  V30 8025 H 750.308 3.6058 -2.18082 0
M  V30 8026 H 748.983 3.03296 -1.13106 0
M  V30 8027 H 747.89 1.96126 -3.18568 0
M  V30 8028 H 749.223 2.59716 -4.18101 0
M  V30 8029 N 750.875 1.45233 0.611969 0
M  V30 8030 C 752.152 1.39495 1.37115 0
M  V30 8031 C 752.532 0.0633303 2.11005 0
M  V30 8032 O 751.88 -0.954617 2.07604 0
M  V30 8033 C 752.09 2.60579 2.32163 0
M  V30 8034 C 753.438 3.05477 2.94905 0
M  V30 8035 O 754.462 2.60921 2.42485 0
M  V30 8036 O 753.321 3.82787 3.90047 0
M  V30 8037 H 750.415 0.55335 0.614599 0
M  V30 8038 H 752.961 1.57355 0.635423 0
M  V30 8039 H 751.733 3.49085 1.76793 0
M  V30 8040 H 751.356 2.45031 3.13122 0
M  V30 8041 N 752.353 -0.854086 1.3245 0
M  V30 8042 C 753.599 -1.6105 1.24235 0
M  V30 8043 C 753.954 -1.91421 -0.193877 0
M  V30 8044 O 753.247 -1.54599 -1.1318 0
M  V30 8045 C 753.441 -2.93746 2.03587 0
M  V30 8046 C 753.27 -2.76335 3.54781 0
M  V30 8047 C 752.04 -2.74687 4.24117 0
M  V30 8048 C 754.238 -2.50052 4.4942 0
M  V30 8049 N 752.22 -2.48493 5.6136 0
M  V30 8050 C 753.591 -2.33269 5.74444 0
M  V30 8051 C 755.646 -2.35525 4.38671 0
M  V30 8052 C 754.349 -2.03434 6.89933 0
M  V30 8053 C 756.375 -2.07081 5.5396 0
M  V30 8054 C 755.737 -1.91098 6.77983 0
M  V30 8055 H 751.836 -0.593008 0.50977 0
M  V30 8056 H 754.42 -1.00392 1.66822 0
M  V30 8057 H 752.591 -3.52382 1.63345 0
M  V30 8058 H 754.323 -3.58768 1.87263 0
M  V30 8059 H 751.078 -2.87647 3.7624 0
M  V30 8060 H 751.502 -2.38322 6.33665 0
M  V30 8061 H 756.144 -2.46602 3.43435 0
M  V30 8062 H 753.862 -1.91095 7.85181 0
M  V30 8063 H 757.448 -1.96618 5.4757 0
M  V30 8064 H 756.328 -1.69402 7.65684 0
M  V30 8065 N 753.831 -1.1567 -1.07043 0
M  V30 8066 C 755.08 -0.928039 -1.79082 0
M  V30 8067 C 755.393 0.545968 -1.87826 0
M  V30 8068 O 756.599 0.892308 -2.56418 0
M  V30 8069 C 755.055 -1.61103 -3.21829 0
M  V30 8070 C 754.663 -3.12228 -3.21275 0
M  V30 8071 C 756.407 -1.46404 -3.98455 0
M  V30 8072 C 754.314 -3.733 -4.58695 0
M  V30 8073 H 753.244 -0.34357 -0.671175 0
M  V30 8074 H 755.895 -1.38718 -1.20123 0
M  V30 8075 H 754.277 -1.07958 -3.81 0
M  V30 8076 H 755.451 -3.72155 -2.71731 0
M  V30 8077 H 753.766 -3.26725 -2.58147 0
M  V30 8078 H 756.363 -1.8942 -5.00024 0
M  V30 8079 H 756.706 -0.41195 -4.14257 0
M  V30 8080 H 757.239 -1.96663 -3.45787 0
M  V30 8081 H 753.978 -4.78423 -4.48098 0
M  V30 8082 H 753.498 -3.18157 -5.08465 0
M  V30 8083 H 755.177 -3.7441 -5.27661 0
M  V30 8084 N 755.309 1.25446 -0.953992 0
M  V30 8085 C 756.72 1.75047 -0.649255 0
M  V30 8086 C 757.071 1.77527 0.835385 0
M  V30 8087 O 756.196 1.39569 1.65377 0
M  V30 8088 C 756.791 3.17889 -1.17183 0
M  V30 8089 C 755.35 3.65052 -0.917267 0
M  V30 8090 C 754.497 2.44124 -1.31525 0
M  V30 8091 H 757.448 1.11342 -1.13087 0
M  V30 8092 H 757.469 3.76768 -0.531616 0
M  V30 8093 H 756.981 3.16052 -2.25239 0
M  V30 8094 H 755.082 3.72305 0.148354 0
M  V30 8095 H 755.195 4.53222 -1.55328 0
M  V30 8096 H 753.559 2.43906 -0.733624 0
M  V30 8097 H 754.342 2.44979 -2.405 0
M  V30 8098 N 756.787 0.722489 1.40064 0
M  V30 8099 C 757.737 0.0506801 2.27944 0
M  V30 8100 C 758.721 -0.725493 1.43615 0
M  V30 8101 O 759.913 -0.596559 1.66644 0
M  V30 8102 C 757.042 -0.865195 3.32219 0
M  V30 8103 C 756.128 -0.0838393 4.24017 0
M  V30 8104 N 756.519 0.936516 4.97054 0
M  V30 8105 C 754.817 -0.315371 4.44884 0
M  V30 8106 C 755.518 1.4066 5.64437 0
M  V30 8107 N 754.494 0.727485 5.3871 0
M  V30 8108 H 758.296 0.832609 2.8186 0
M  V30 8109 H 755.81 0.555691 1.52597 0
M  V30 8110 H 757.807 -1.36186 3.94029 0
M  V30 8111 H 756.467 -1.64642 2.79862 0
M  V30 8112 H 757.478 1.31755 5.0086 0
M  V30 8113 H 754.155 -1.07238 4.03492 0
M  V30 8114 H 755.545 2.25482 6.32936 0
M  V30 8115 N 758.265 -1.50454 0.469181 0
M  V30 8116 C 759.195 -2.31353 -0.31592 0
M  V30 8117 C 760.176 -1.38172 -0.992094 0
M  V30 8118 O 761.361 -1.67093 -0.989633 0
M  V30 8119 C 758.491 -3.1786 -1.39937 0
M  V30 8120 C 757.445 -4.19578 -0.844909 0
M  V30 8121 C 756.771 -4.9481 -2.0265 0
M  V30 8122 C 758.071 -5.22106 0.142499 0
M  V30 8123 H 759.765 -2.97237 0.359269 0
M  V30 8124 H 757.311 -1.42942 0.174224 0
M  V30 8125 H 759.264 -3.7325 -1.95607 0
M  V30 8126 H 757.988 -2.49858 -2.1033 0
M  V30 8127 H 756.647 -3.65285 -0.310189 0
M  V30 8128 H 756.295 -4.23282 -2.71737 0
M  V30 8129 H 755.995 -5.63613 -1.66174 0
M  V30 8130 H 757.519 -5.53035 -2.58815 0
M  V30 8131 H 758.933 -5.72378 -0.324966 0
M  V30 8132 H 757.33 -5.98618 0.421441 0
M  V30 8133 H 758.4 -4.7297 1.06901 0
M  V30 8134 N 759.743 -0.201713 -1.56304 0
M  V30 8135 C 760.69 0.716499 -2.19397 0
M  V30 8136 C 761.66 1.20494 -1.14326 0
M  V30 8137 O 762.845 1.26763 -1.42604 0
M  V30 8138 C 759.985 1.92762 -2.86246 0
M  V30 8139 C 759.098 1.47993 -4.0586 0
M  V30 8140 C 758.233 2.64706 -4.60547 0
M  V30 8141 C 757.272 2.16576 -5.72504 0
M  V30 8142 N 756.409 3.26491 -6.21569 0
M  V30 8143 H 761.249 0.171724 -2.97505 0
M  V30 8144 H 758.786 0.073016 -1.46919 0
M  V30 8145 H 760.744 2.6384 -3.23178 0
M  V30 8146 H 759.374 2.44559 -2.10691 0
M  V30 8147 H 758.426 0.66477 -3.74546 0
M  V30 8148 H 759.738 1.08686 -4.86815 0
M  V30 8149 H 758.892 3.43898 -4.99819 0
M  V30 8150 H 757.631 3.0729 -3.78713 0
M  V30 8151 H 756.636 1.3584 -5.32755 0
M  V30 8152 H 757.861 1.75015 -6.56161 0
M  V30 8153 H 755.807 3.68594 -5.42655 0
M  V30 8154 H 755.724 2.91374 -6.97594 0
M  V30 8155 H 756.992 4.05877 -6.65495 0
M  V30 8156 N 761.222 1.57436 0.0718424 0
M  V30 8157 C 762.638 1.53792 0.426628 0
M  V30 8158 C 762.838 0.921887 1.79174 0
M  V30 8159 O 761.894 0.524374 2.46995 0
M  V30 8160 C 763.207 2.98443 0.367739 0
M  V30 8161 C 764.755 3.09778 0.447928 0
M  V30 8162 C 765.23 4.5608 0.418946 0
M  V30 8163 N 766.721 4.60716 0.479022 0
M  V30 8164 C 767.456 5.71397 0.47881 0
M  V30 8165 N 766.952 6.91443 0.433417 0
M  V30 8166 N 768.745 5.59639 0.525364 0
M  V30 8167 H 760.896 1.95848 -0.822033 0
M  V30 8168 H 763.159 0.896418 -0.308447 0
M  V30 8169 H 762.865 3.47072 -0.56865 0
M  V30 8170 H 762.739 3.58335 1.17795 0
M  V30 8171 H 765.126 2.61122 1.37474 0
M  V30 8172 H 765.207 2.52796 -0.390857 0
M  V30 8173 H 764.851 5.05393 -0.504016 0
M  V30 8174 H 764.781 5.10925 1.27526 0
M  V30 8175 H 767.272 3.74328 0.518355 0
M  V30 8176 H 767.585 7.71562 0.43718 0
M  V30 8177 H 765.93 6.93847 0.400106 0
M  V30 8178 H 769.121 4.64756 0.558519 0
M  V30 8179 H 769.294 6.45896 0.52173 0
M  V30 8180 N 762.7 -0.34323 1.53817 0
M  V30 8181 C 763.948 -1.0813 1.70741 0
M  V30 8182 C 764.269 -1.89165 0.473461 0
M  V30 8183 O 763.539 -1.89075 -0.512605 0
M  V30 8184 H 762.119 -0.40219 0.629486 0
M  V30 8185 H 764.781 -0.384426 1.91071 0
M  V30 8186 H 763.877 -1.7585 2.57843 0
M  V30 8187 N 764.178 -1.45556 -0.604258 0
M  V30 8188 C 765.128 -1.50906 -1.70913 0
M  V30 8189 C 766.112 -0.371996 -1.56541 0
M  V30 8190 O 767.304 -0.619064 -1.65821 0
M  V30 8191 C 764.433 -1.48181 -3.09673 0
M  V30 8192 C 763.519 -2.67102 -3.2942 0
M  V30 8193 N 763.91 -3.92184 -3.19414 0
M  V30 8194 C 762.208 -2.6287 -3.60299 0
M  V30 8195 C 762.909 -4.71571 -3.40581 0
M  V30 8196 N 761.885 -4.03081 -3.64728 0
M  V30 8197 H 765.687 -2.45435 -1.61675 0
M  V30 8198 H 763.201 -1.40894 -0.807622 0
M  V30 8199 H 765.198 -1.501 -3.88942 0
M  V30 8200 H 763.858 -0.54712 -3.20057 0
M  V30 8201 H 764.869 -4.23756 -2.97743 0
M  V30 8202 H 761.546 -1.78324 -3.77501 0
M  V30 8203 H 762.936 -5.80571 -3.38211 0
M  V30 8204 N 765.656 0.84705 -1.32902 0
M  V30 8205 C 766.905 1.59667 -1.23245 0
M  V30 8206 C 767.218 1.94551 0.202349 0
M  V30 8207 O 768.424 2.68218 0.420847 0
M  V30 8208 C 766.88 2.8795 -2.15901 0
M  V30 8209 C 766.488 2.60461 -3.64505 0
M  V30 8210 C 768.232 3.65968 -2.15098 0
M  V30 8211 C 766.139 3.84791 -4.49099 0
M  V30 8212 H 765.069 0.599167 -0.457728 0
M  V30 8213 H 767.72 0.934662 -1.57912 0
M  V30 8214 H 766.102 3.55648 -1.74157 0
M  V30 8215 H 767.276 2.01026 -4.14639 0
M  V30 8216 H 765.591 1.9576 -3.67515 0
M  V30 8217 H 768.188 4.58241 -2.75534 0
M  V30 8218 H 768.531 4.00275 -1.14392 0
M  V30 8219 H 769.064 3.05184 -2.55162 0
M  V30 8220 H 765.803 3.55621 -5.50649 0
M  V30 8221 H 765.323 4.43594 -4.03713 0
M  V30 8222 H 767.002 4.52454 -4.62487 0
M  V30 8223 N 767.134 1.16236 1.06428 0
M  V30 8224 C 768.044 0.881976 2.1739 0
M  V30 8225 C 769.06 -0.145259 1.73393 0
M  V30 8226 O 770.236 0.0310558 2.01376 0
M  V30 8227 C 767.301 0.385496 3.4455 0
M  V30 8228 C 766.362 1.47779 4.03063 0
M  V30 8229 C 765.595 1.0049 5.24154 0
M  V30 8230 O 765.818 -0.145889 5.70213 0
M  V30 8231 O 764.752 1.79265 5.74585 0
M  V30 8232 H 768.578 1.80983 2.43883 0
M  V30 8233 H 766.163 0.942226 1.15942 0
M  V30 8234 H 768.045 0.115536 4.21242 0
M  V30 8235 H 766.72 -0.514369 3.19587 0
M  V30 8236 H 765.627 1.80147 3.27869 0
M  V30 8237 H 766.96 2.35291 4.32318 0
M  V30 8238 N 768.612 -1.24939 0.960631 0
M  V30 8239 C 769.889 -1.88118 0.535807 0
M  V30 8240 C 770.269 -1.86605 -0.987009 0
M  V30 8241 O 769.617 -1.33375 -1.85536 0
M  V30 8242 C 769.827 -3.30565 1.11927 0
M  V30 8243 C 771.175 -4.07296 1.19981 0
M  V30 8244 O 772.199 -3.39709 1.07126 0
M  V30 8245 O 771.058 -5.28206 1.40218 0
M  V30 8246 H 768.152 -0.807698 0.177631 0
M  V30 8247 H 770.698 -1.32964 1.05445 0
M  V30 8248 H 769.47 -3.26128 2.16231 0
M  V30 8249 H 769.093 -3.93284 0.584245 0
M  V30 8250 N 770.09 -0.729906 -1.39679 0
M  V30 8251 C 771.33 -0.280232 -2.0247 0
M  V30 8252 C 771.694 1.11006 -1.56658 0
M  V30 8253 O 772.895 1.65753 -2.11612 0
M  V30 8254 C 771.166 -0.372922 -3.55449 0
M  V30 8255 S 772.725 -0.00233974 -4.388 0
M  V30 8256 H 769.543 -0.110139 -0.702418 0
M  V30 8257 H 772.145 -0.955296 -1.70571 0
M  V30 8258 H 770.849 -1.38616 -3.86282 0
M  V30 8259 H 770.38 0.320136 -3.92095 0
M  V30 8260 H 772.395 1.21544 -4.81084 0
M  V30 8261 N 771.568 1.50203 -0.477153 0
M  V30 8262 C 772.816 2.01959 0.0755889 0
M  V30 8263 C 773.137 1.3608 1.39668 0
M  V30 8264 O 772.407 0.508136 1.89195 0
M  V30 8265 H 770.987 0.74636 0.0309248 0
M  V30 8266 H 773.649 1.84473 -0.628959 0
M  V30 8267 H 772.745 3.11305 0.222683 0
M  V30 8268 N 773.046 0.209999 1.56195 0
M  V30 8269 C 773.996 -0.717978 2.164 0
M  V30 8270 C 774.98 -1.16577 1.10899 0
M  V30 8271 O 776.172 -1.12169 1.3692 0
M  V30 8272 C 773.301 -1.93091 2.8385 0
M  V30 8273 C 772.387 -1.50333 3.96561 0
M  V30 8274 N 772.778 -0.787621 4.9963 0
M  V30 8275 C 771.076 -1.79151 4.08437 0
M  V30 8276 C 771.777 -0.571204 5.78889 0
M  V30 8277 N 770.753 -1.12444 5.31843 0
M  V30 8278 H 774.555 -0.162603 2.9345 0
M  V30 8279 H 772.069 0.0107928 1.62396 0
M  V30 8280 H 774.066 -2.60635 3.25384 0
M  V30 8281 H 772.726 -2.49087 2.08293 0
M  V30 8282 H 773.737 -0.441513 5.16015 0
M  V30 8283 H 770.414 -2.36549 3.44022 0
M  V30 8284 H 771.804 -0.00237941 6.719 0
M  V30 8285 N 774.524 -1.57472 -0.0634922 0
M  V30 8286 C 775.77 -1.88792 -0.756903 0
M  V30 8287 C 776.125 -0.804679 -1.74765 0
M  V30 8288 O 775.418 0.19033 -1.90652 0
M  V30 8289 C 775.612 -3.24521 -1.49736 0
M  V30 8290 C 775.441 -4.45946 -0.579833 0
M  V30 8291 C 774.211 -5.04848 -0.213667 0
M  V30 8292 C 776.409 -5.14143 0.12703 0
M  V30 8293 N 774.391 -6.09795 0.708712 0
M  V30 8294 C 775.762 -6.1334 0.906295 0
M  V30 8295 C 777.817 -4.97508 0.197625 0
M  V30 8296 C 776.52 -6.97697 1.74961 0
M  V30 8297 C 778.546 -5.82398 1.02794 0
M  V30 8298 C 777.908 -6.81139 1.79523 0
M  V30 8299 H 774.007 -0.740235 -0.252142 0
M  V30 8300 H 776.591 -1.94692 -0.0181026 0
M  V30 8301 H 774.762 -3.19615 -2.20683 0
M  V30 8302 H 776.494 -3.43464 -2.14044 0
M  V30 8303 H 773.249 -4.70177 -0.568357 0
M  V30 8304 H 773.673 -6.66929 1.16339 0
M  V30 8305 H 778.315 -4.21077 -0.381261 0
M  V30 8306 H 776.033 -7.73496 2.33943 0
M  V30 8307 H 779.619 -5.71581 1.08565 0
M  V30 8308 H 778.499 -7.45687 2.42736 0
M  V30 8309 N 776.003 0.335068 -1.53997 0
M  V30 8310 C 777.231 1.09418 -1.756 0
M  V30 8311 C 777.646 1.82083 -0.499138 0
M  V30 8312 O 777.003 1.74646 0.529631 0
M  V30 8313 C 777.054 2.10115 -2.94166 0
M  V30 8314 O 776.775 1.40404 -4.14992 0
M  V30 8315 C 778.276 2.98336 -3.27888 0
M  V30 8316 H 775.496 0.32595 -0.586513 0
M  V30 8317 H 778.04 0.384693 -2.00849 0
M  V30 8318 H 776.195 2.76616 -2.71224 0
M  V30 8319 H 776.609 2.07743 -4.81605 0
M  V30 8320 H 778.083 3.6491 -4.1418 0
M  V30 8321 H 778.56 3.64814 -2.44556 0
M  V30 8322 H 779.166 2.37412 -3.52868 0
M  V30 8323 N 777.481 1.45874 0.596531 0
M  V30 8324 C 778.413 1.51408 1.7207 0
M  V30 8325 C 779.426 0.403738 1.57714 0
M  V30 8326 O 780.615 0.671384 1.65393 0
M  V30 8327 C 777.715 1.3652 3.10186 0
M  V30 8328 C 776.888 2.61428 3.50677 0
M  V30 8329 C 775.947 2.40937 4.67799 0
M  V30 8330 O 774.973 3.14602 4.74357 0
M  V30 8331 N 776.175 1.4621 5.61785 0
M  V30 8332 H 778.94 2.48333 1.67782 0
M  V30 8333 H 776.501 1.41755 0.782129 0
M  V30 8334 H 778.493 1.20606 3.86311 0
M  V30 8335 H 777.063 0.478302 3.08919 0
M  V30 8336 H 776.283 2.92381 2.644 0
M  V30 8337 H 777.571 3.44432 3.74491 0
M  V30 8338 H 776.969 0.854382 5.59211 0
M  V30 8339 H 775.526 1.36264 6.37397 0
M  V30 8340 N 778.959 -0.83999 1.33349 0
M  V30 8341 C 779.892 -1.95415 1.17848 0
M  V30 8342 C 780.87 -1.6243 0.0742296 0
M  V30 8343 O 782.054 -1.87014 0.23626 0
M  V30 8344 C 779.181 -3.28938 0.807295 0
M  V30 8345 C 778.227 -3.80895 1.91888 0
M  V30 8346 S 779.06 -4.02709 3.52967 0
M  V30 8347 C 780.216 -5.39185 3.17853 0
M  V30 8348 H 780.449 -2.08265 2.12162 0
M  V30 8349 H 777.982 -0.993643 1.18178 0
M  V30 8350 H 779.94 -4.06093 0.599914 0
M  V30 8351 H 778.601 -3.13881 -0.117234 0
M  V30 8352 H 777.794 -4.77508 1.6125 0
M  V30 8353 H 777.396 -3.10633 2.08286 0
M  V30 8354 H 779.688 -6.21978 2.68608 0
M  V30 8355 H 780.631 -5.74795 4.13542 0
M  V30 8356 H 781.039 -5.03885 2.5448 0
M  V30 8357 N 780.437 -1.16799 -1.0581 0
M  V30 8358 C 781.714 -0.862616 -1.75551 0
M  V30 8359 C 782.094 0.6385 -2.01212 0
M  V30 8360 O 781.442 1.58784 -1.64317 0
M  V30 8361 C 781.652 -1.6907 -3.05314 0
M  V30 8362 C 783 -1.90675 -3.79379 0
M  V30 8363 O 784.024 -1.65976 -3.15167 0
M  V30 8364 O 782.883 -2.32145 -4.94743 0
M  V30 8365 H 779.977 -0.318789 -0.763088 0
M  V30 8366 H 782.523 -1.27461 -1.12034 0
M  V30 8367 H 781.295 -2.70912 -2.82352 0
M  V30 8368 H 780.918 -1.27606 -3.76567 0
M  V30 8369 N 781.915 1.24427 -0.967243 0
M  V30 8370 C 782.862 2.25398 -0.496419 0
M  V30 8371 C 783.832 1.59667 0.457781 0
M  V30 8372 O 785.017 1.87213 0.368246 0
M  V30 8373 C 782.157 3.44474 0.207693 0
M  V30 8374 C 781.27 4.24804 -0.785221 0
M  V30 8375 C 780.405 5.31169 -0.0572631 0
M  V30 8376 C 779.444 6.03195 -1.04027 0
M  V30 8377 N 778.581 7.01265 -0.34235 0
M  V30 8378 H 783.421 2.65039 -1.36229 0
M  V30 8379 H 780.958 1.30288 -0.682902 0
M  V30 8380 H 782.916 4.12376 0.632612 0
M  V30 8381 H 781.546 3.05672 1.03752 0
M  V30 8382 H 780.598 3.56445 -1.32858 0
M  V30 8383 H 781.91 4.74599 -1.53483 0
M  V30 8384 H 781.064 6.05205 0.425674 0
M  V30 8385 H 779.803 4.8228 0.725047 0
M  V30 8386 H 778.808 5.27964 -1.53409 0
M  V30 8387 H 780.033 6.54173 -1.82302 0
M  V30 8388 H 777.979 6.54648 0.420993 0
M  V30 8389 H 777.896 7.48939 -1.03084 0
M  V30 8390 H 779.164 7.7941 0.118634 0
M  V30 8391 N 783.393 0.737304 1.3929 0
M  V30 8392 C 784.804 0.355966 1.83275 0
M  V30 8393 C 785.155 -1.11295 1.6158 0
M  V30 8394 O 784.28 -1.85871 1.10819 0
M  V30 8395 C 784.875 0.63931 3.32713 0
M  V30 8396 C 783.434 0.31144 3.75109 0
M  V30 8397 C 782.581 0.900765 2.62262 0
M  V30 8398 H 785.532 0.934763 1.28249 0
M  V30 8399 H 785.553 -0.0881293 3.80398 0
M  V30 8400 H 785.065 1.70847 3.48472 0
M  V30 8401 H 783.166 -0.751791 3.64937 0
M  V30 8402 H 783.279 0.795611 4.72448 0
M  V30 8403 H 781.643 0.327239 2.52589 0
M  V30 8404 H 782.426 1.97463 2.80826 0
M  V30 8405 N 784.871 -1.49948 0.485112 0
M  V30 8406 C 786.099 -2.06806 -0.0622824 0
M  V30 8407 C 786.514 -1.34736 -1.32256 0
M  V30 8408 O 785.871 -0.420836 -1.77582 0
M  V30 8409 C 785.922 -3.59934 -0.336096 0
M  V30 8410 O 785.643 -4.29289 0.874203 0
M  V30 8411 C 787.144 -4.33459 -0.928903 0
M  V30 8412 H 784.364 -0.670867 0.0133472 0
M  V30 8413 H 786.908 -1.92937 0.677917 0
M  V30 8414 H 785.063 -3.7356 -1.02625 0
M  V30 8415 H 785.477 -5.20735 0.627332 0
M  V30 8416 H 786.951 -5.41527 -1.07017 0
M  V30 8417 H 787.428 -3.94881 -1.92265 0
M  V30 8418 H 788.034 -4.24399 -0.276705 0
M  V30 8419 N 786.349 -0.21828 -1.56081 0
M  V30 8420 C 787.259 0.704602 -2.23769 0
M  V30 8421 C 788.275 1.21633 -1.24425 0
M  V30 8422 O 789.451 1.25862 -1.57228 0
M  V30 8423 C 786.516 1.89725 -2.90182 0
M  V30 8424 C 785.577 1.42782 -4.0486 0
M  V30 8425 C 784.81 2.56361 -4.68097 0
M  V30 8426 O 785.033 3.74417 -4.30312 0
M  V30 8427 O 783.967 2.2775 -5.57148 0
M  V30 8428 H 787.793 0.158007 -3.03289 0
M  V30 8429 H 785.378 0.0120279 -1.49395 0
M  V30 8430 H 787.26 2.59382 -3.32113 0
M  V30 8431 H 785.935 2.432 -2.13624 0
M  V30 8432 H 784.842 0.699359 -3.67505 0
M  V30 8433 H 786.175 0.939474 -4.83151 0
M  V30 8434 N 787.827 1.57504 0.0551401 0
M  V30 8435 C 789.073 1.88334 0.752216 0
M  V30 8436 C 789.406 0.812742 1.76375 0
M  V30 8437 O 788.681 -0.175198 1.93709 0
M  V30 8438 C 788.964 3.29824 1.44528 0
M  V30 8439 C 788.817 4.47553 0.449026 0
M  V30 8440 C 790.136 3.69808 2.38601 0
M  V30 8441 H 787.255 0.684973 0.271995 0
M  V30 8442 H 789.897 1.89994 0.0151895 0
M  V30 8443 H 788.047 3.28539 2.07351 0
M  V30 8444 H 789.719 4.60967 -0.175277 0
M  V30 8445 H 787.962 4.33168 -0.234162 0
M  V30 8446 H 788.633 5.43376 0.971917 0
M  V30 8447 H 791.109 3.72293 1.85842 0
M  V30 8448 H 789.985 4.69665 2.84088 0
M  V30 8449 H 790.246 3.00641 3.24141 0
M  V30 8450 N 789.305 -0.326896 1.54172 0
M  V30 8451 C 790.253 -1.42232 1.84046 0
M  V30 8452 C 791.247 -1.53705 0.712115 0
M  V30 8453 O 792.453 -1.56131 0.895724 0
M  V30 8454 H 788.828 -0.474568 0.583343 0
M  V30 8455 H 790.799 -1.14259 2.75658 0
M  V30 8456 C 789.548 -2.78502 2.08163 0
M  V30 8457 H 788.871 -2.70447 2.94446 0
M  V30 8458 H 790.311 -3.54228 2.33021 0
M  V30 8459 C 788.77 -3.25415 0.872152 0
M  V30 8460 O 789.3 -4.01621 0.0797648 0
M  V30 8461 N 787.506 -2.82418 0.684716 0
M  V30 8462 H 787.053 -2.20566 1.33072 0
M  V30 8463 H 787.011 -3.14159 -0.123031 0
M  V30 8464 N 790.784 -1.46188 -0.588786 0
M  V30 8465 C 791.716 -1.52319 -1.71265 0
M  V30 8466 C 792.729 -0.412096 -1.57498 0
M  V30 8467 O 793.918 -0.680146 -1.65034 0
M  V30 8468 C 791.018 -1.38164 -3.09458 0
M  V30 8469 C 790.191 -2.63284 -3.49286 0
M  V30 8470 C 789.25 -2.43415 -4.66514 0
M  V30 8471 O 788.276 -3.17113 -4.72682 0
M  V30 8472 N 789.478 -1.49187 -5.61002 0
M  V30 8473 H 792.243 -2.49219 -1.66463 0
M  V30 8474 H 789.804 -1.42167 -0.774601 0
M  V30 8475 H 791.796 -1.22653 -3.85666 0
M  V30 8476 H 790.366 -0.494678 -3.08661 0
M  V30 8477 H 789.586 -2.93779 -2.62845 0
M  V30 8478 H 790.874 -3.46413 -3.7266 0
M  V30 8479 H 790.272 -0.884027 -5.5875 0
M  V30 8480 H 788.829 -1.39642 -6.36666 0
M  V30 8481 N 792.262 0.832906 -1.33792 0
M  V30 8482 C 793.511 1.58351 -1.24932 0
M  V30 8483 C 793.824 1.94754 0.181703 0
M  V30 8484 O 795.03 2.6865 0.392375 0
M  V30 8485 C 793.486 2.85643 -2.18943 0
M  V30 8486 C 793.094 2.56581 -3.67247 0
M  V30 8487 C 794.838 3.63667 -2.18968 0
M  V30 8488 C 792.745 3.80006 -4.53155 0
M  V30 8489 H 791.675 0.594278 -0.464058 0
M  V30 8490 H 794.326 0.91786 -1.58895 0
M  V30 8491 H 792.708 3.53781 -1.77919 0
M  V30 8492 H 793.882 1.96617 -4.16747 0
M  V30 8493 H 792.197 1.91851 -3.6957 0
M  V30 8494 H 794.794 4.55293 -2.80379 0
M  V30 8495 H 795.137 3.99039 -1.18631 0
M  V30 8496 H 795.67 3.0246 -2.58384 0
M  V30 8497 H 792.409 3.4976 -5.5439 0
M  V30 8498 H 791.929 4.39288 -4.08395 0
M  V30 8499 H 793.608 4.47523 -4.6726 0
M  V30 8500 N 793.74 1.17359 1.05189 0
M  V30 8501 C 794.67 0.91365 2.14883 0
M  V30 8502 C 795.651 -0.144365 1.69486 0
M  V30 8503 O 796.836 0.00587861 1.94199 0
M  V30 8504 C 793.966 0.426196 3.44675 0
M  V30 8505 C 792.92 1.4234 4.03638 0
M  V30 8506 C 792.246 0.793902 5.28773 0
M  V30 8507 C 793.546 2.7966 4.41121 0
M  V30 8508 H 795.24 1.831 2.36885 0
M  V30 8509 H 792.786 0.881781 1.13845 0
M  V30 8510 H 794.739 0.231767 4.20762 0
M  V30 8511 H 793.463 -0.526693 3.22325 0
M  V30 8512 H 792.122 1.60457 3.2962 0
M  V30 8513 H 791.77 -0.165824 5.02727 0
M  V30 8514 H 791.47 1.45959 5.69183 0
M  V30 8515 H 792.994 0.609747 6.07548 0
M  V30 8516 H 794.408 2.6526 5.08242 0
M  V30 8517 H 792.805 3.42807 4.92548 0
M  V30 8518 H 793.875 3.34068 3.51464 0
M  V30 8519 N 795.218 -1.23913 0.973828 0
M  V30 8520 C 796.467 -1.91455 0.63464 0
M  V30 8521 C 796.78 -1.76893 -0.834759 0
M  V30 8522 O 797.986 -2.3918 -1.28473 0
M  V30 8523 C 796.442 -3.43172 1.08447 0
M  V30 8524 C 796.05 -3.66409 2.57776 0
M  V30 8525 C 797.794 -4.1653 0.818721 0
M  V30 8526 C 795.701 -5.11728 2.9646 0
M  V30 8527 H 794.631 -0.716881 0.233661 0
M  V30 8528 H 797.282 -1.40457 1.18085 0
M  V30 8529 H 795.664 -3.93242 0.466524 0
M  V30 8530 H 796.838 -3.26913 3.24753 0
M  V30 8531 H 795.153 -3.06349 2.82027 0
M  V30 8532 H 797.75 -5.23603 1.08367 0
M  V30 8533 H 798.093 -4.15578 -0.245128 0
M  V30 8534 H 798.626 -3.72428 1.39793 0
M  V30 8535 H 795.365 -5.17806 4.01941 0
M  V30 8536 H 794.885 -5.52199 2.34172 0
M  V30 8537 H 796.564 -5.80009 2.86703 0
M  V30 8538 N 796.696 -0.74468 -1.38897 0
M  V30 8539 C 797.643 -0.111064 -2.30533 0
M  V30 8540 C 798.613 0.719276 -1.49719 0
M  V30 8541 O 799.798 0.677244 -1.78376 0
M  V30 8542 C 796.938 0.78292 -3.36102 0
M  V30 8543 C 796.051 -0.0610817 -4.31957 0
M  V30 8544 C 795.186 0.835075 -5.24595 0
M  V30 8545 C 794.225 -0.0130974 -6.12099 0
M  V30 8546 N 793.362 0.839525 -6.97063 0
M  V30 8547 H 798.202 -0.898113 -2.84144 0
M  V30 8548 H 795.739 -0.454537 -1.39901 0
M  V30 8549 H 797.697 1.31578 -3.95908 0
M  V30 8550 H 796.327 1.53585 -2.83922 0
M  V30 8551 H 795.379 -0.711469 -3.73687 0
M  V30 8552 H 796.691 -0.716482 -4.93627 0
M  V30 8553 H 795.845 1.43542 -5.89475 0
M  V30 8554 H 794.584 1.52423 -4.63269 0
M  V30 8555 H 793.589 -0.626179 -5.46223 0
M  V30 8556 H 794.814 -0.699181 -6.75491 0
M  V30 8557 H 792.76 1.5138 -6.38295 0
M  V30 8558 H 792.677 0.240823 -7.55616 0
M  V30 8559 H 793.945 1.42513 -7.66362 0
M  V30 8560 N 798.174 1.49689 -0.493057 0
M  V30 8561 C 799.42 2.03347 0.0463792 0
M  V30 8562 C 799.775 1.36671 1.35421 0
M  V30 8563 O 799.068 0.4907 1.8521 0
M  V30 8564 C 799.262 3.56427 0.263536 0
M  V30 8565 C 799.091 4.3794 -1.02169 0
M  V30 8566 C 797.861 4.8025 -1.57125 0
M  V30 8567 C 800.059 4.77 -1.9229 0
M  V30 8568 N 798.041 5.46162 -2.80321 0
M  V30 8569 C 799.412 5.42549 -3.00067 0
M  V30 8570 C 801.467 4.58945 -1.93064 0
M  V30 8571 C 800.17 5.91954 -4.08635 0
M  V30 8572 C 802.196 5.09306 -3.00602 0
M  V30 8573 C 801.558 5.74849 -4.07097 0
M  V30 8574 H 797.657 0.781644 -0.0236097 0
M  V30 8575 H 800.241 1.82949 -0.666151 0
M  V30 8576 H 798.412 3.76725 0.945118 0
M  V30 8577 H 800.144 3.96729 0.79927 0
M  V30 8578 H 796.899 4.60228 -1.11746 0
M  V30 8579 H 797.323 5.83711 -3.42944 0
M  V30 8580 H 801.965 4.07685 -1.12039 0
M  V30 8581 H 799.683 6.4224 -4.90463 0
M  V30 8582 H 803.269 4.97152 -3.0221 0
M  V30 8583 H 802.149 6.13113 -4.88939 0
M  V30 8584 N 799.652 0.226554 1.55963 0
M  V30 8585 C 800.582 -0.676079 2.23498 0
M  V30 8586 C 801.563 -1.19718 1.20837 0
M  V30 8587 O 802.748 -1.24027 1.49436 0
M  V30 8588 C 799.878 -1.88217 2.91876 0
M  V30 8589 C 798.832 -1.4947 4.01052 0
M  V30 8590 C 798.158 -2.77997 4.56751 0
M  V30 8591 C 799.458 -0.680951 5.17842 0
M  V30 8592 H 801.152 -0.112989 2.99187 0
M  V30 8593 H 798.698 -0.0529046 1.43903 0
M  V30 8594 H 800.651 -2.51911 3.37815 0
M  V30 8595 H 799.375 -2.47031 2.13643 0
M  V30 8596 H 798.034 -0.881199 3.55852 0
M  V30 8597 H 797.682 -3.34966 3.75243 0
M  V30 8598 H 797.382 -2.52803 5.30438 0
M  V30 8599 H 798.906 -3.42625 5.05411 0
M  V30 8600 H 800.32 -1.22171 5.60131 0
M  V30 8601 H 798.717 -0.525898 5.97791 0
M  V30 8602 H 799.787 0.311346 4.83899 0
M  V30 8603 N 801.13 -1.57531 -0.0467866 0
M  V30 8604 C 802.407 -1.79568 -0.775536 0
M  V30 8605 C 802.787 -0.820322 -1.94509 0
M  V30 8606 O 802.135 0.14134 -2.28062 0
M  V30 8607 C 802.345 -3.26789 -1.22516 0
M  V30 8608 C 803.693 -3.91299 -1.64835 0
M  V30 8609 O 804.717 -3.30831 -1.3202 0
M  V30 8610 O 803.576 -4.97727 -2.25677 0
M  V30 8611 H 800.67 -0.737817 -0.373572 0
M  V30 8612 H 803.216 -1.69682 -0.0249302 0
M  V30 8613 H 801.988 -3.89357 -0.389446 0
M  V30 8614 H 801.611 -3.41496 -2.03633 0
M  V30 8615 N 802.608 0.318715 -1.54344 0
M  V30 8616 C 803.833 1.07987 -1.77069 0
M  V30 8617 C 804.258 1.80766 -0.520117 0
M  V30 8618 O 803.616 1.73424 0.528566 0
M  V30 8619 C 803.664 2.04987 -2.96669 0
M  V30 8620 O 802.768 3.12974 -2.68554 0
M  V30 8621 H 802.109 0.311109 -0.586606 0
M  V30 8622 H 804.639 0.361533 -2.0138 0
M  V30 8623 H 804.649 2.47771 -3.2415 0
M  V30 8624 H 803.324 1.51417 -3.87357 0
M  V30 8625 H 801.901 2.74831 -2.52037 0
M  V30 8626 N 804.086 1.46499 0.581025 0
M  V30 8627 C 805.363 1.42372 1.34125 0
M  V30 8628 C 805.743 0.108073 2.10823 0
M  V30 8629 O 805.091 -0.910366 2.09582 0
M  V30 8630 C 805.301 2.65445 2.26583 0
M  V30 8631 C 806.649 3.11664 2.88359 0
M  V30 8632 O 807.673 2.66006 2.36896 0
M  V30 8633 O 806.532 3.90974 3.81839 0
M  V30 8634 H 803.626 0.566262 0.602724 0
M  V30 8635 H 806.172 1.58667 0.601903 0
M  V30 8636 H 804.944 3.52756 1.69348 0
M  V30 8637 H 804.567 2.51618 3.07854 0
M  V30 8638 N 805.565 -0.825799 1.34232 0
M  V30 8639 C 806.528 -1.91808 1.25468 0
M  V30 8640 C 807.528 -1.59893 0.170567 0
M  V30 8641 O 808.718 -1.68986 0.422996 0
M  V30 8642 C 805.85 -3.27786 0.93644 0
M  V30 8643 H 807.043 -2.01003 2.22571 0
M  V30 8644 H 804.596 -1.01944 1.18479 0
M  V30 8645 H 805.331 -3.24285 -0.0315408 0
M  V30 8646 H 805.116 -3.52333 1.72057 0
M  V30 8647 H 806.606 -4.07782 0.900214 0
M  V30 8648 N 807.043 -1.17915 -1.04565 0
M  V30 8649 C 808.459 -0.927761 -1.29864 0
M  V30 8650 C 808.659 0.409536 -1.97294 0
M  V30 8651 O 807.715 1.14505 -2.25044 0
M  V30 8652 C 809.028 -2.08967 -2.16225 0
M  V30 8653 C 810.576 -2.12741 -2.29587 0
M  V30 8654 C 811.051 -3.28335 -3.19312 0
M  V30 8655 N 812.542 -3.28164 -3.26898 0
M  V30 8656 C 813.277 -4.14249 -3.96466 0
M  V30 8657 N 812.773 -5.10457 -4.68407 0
M  V30 8658 N 814.566 -4.02179 -3.92694 0
M  V30 8659 H 806.717 -2.03983 -0.592011 0
M  V30 8660 H 808.98 -0.891023 -0.323701 0
M  V30 8661 H 808.686 -3.05654 -1.73979 0
M  V30 8662 H 808.56 -2.04606 -3.16885 0
M  V30 8663 H 810.947 -1.16636 -2.71072 0
M  V30 8664 H 811.028 -2.21162 -1.28535 0
M  V30 8665 H 810.672 -4.2471 -2.78539 0
M  V30 8666 H 810.602 -3.17151 -4.20384 0
M  V30 8667 H 813.093 -2.58511 -2.75646 0
M  V30 8668 H 813.406 -5.72526 -5.1907 0
M  V30 8669 H 811.751 -5.14422 -4.67328 0
M  V30 8670 H 814.942 -3.26308 -3.3562 0
M  V30 8671 H 815.115 -4.69486 -4.4664 0
M  V30 8672 N 808.521 1.23394 -0.980386 0
M  V30 8673 C 809.469 2.26872 -0.513018 0
M  V30 8674 C 810.463 1.63853 0.429948 0
M  V30 8675 O 811.669 1.77417 0.303842 0
M  V30 8676 H 808.044 0.737398 -0.147473 0
M  V30 8677 H 810.015 2.63654 -1.39746 0
M  V30 8678 C 808.764 3.47289 0.168962 0
M  V30 8679 H 808.087 3.96033 -0.547546 0
M  V30 8680 H 809.527 4.21502 0.459616 0
M  V30 8681 C 807.986 3.06425 1.40019 0
M  V30 8682 O 808.516 3.14708 2.49643 0
M  V30 8683 N 806.722 2.61339 1.27084 0
M  V30 8684 H 806.269 2.54799 0.378872 0
M  V30 8685 H 806.227 2.34364 2.09573 0
M  V30 8686 N 809.999 0.752036 1.385 0
M  V30 8687 C 811.41 0.375385 1.82887 0
M  V30 8688 C 811.761 -1.09575 1.62751 0
M  V30 8689 O 810.886 -1.84685 1.12785 0
M  V30 8690 C 811.481 0.674563 3.32017 0
M  V30 8691 C 810.04 0.351208 3.74758 0
M  V30 8692 C 809.187 0.928531 2.61292 0
M  V30 8693 H 812.138 0.948313 1.27251 0
M  V30 8694 H 812.159 -0.0477781 3.8047 0
M  V30 8695 H 811.671 1.74533 3.46641 0
M  V30 8696 H 809.772 -0.713042 3.65714 0
M  V30 8697 H 809.885 0.845675 4.71577 0
M  V30 8698 H 808.249 0.354012 2.52228 0
M  V30 8699 H 809.032 2.0043 2.78716 0
M  V30 8700 N 811.477 -1.49425 0.500989 0
M  V30 8701 C 812.888 -1.86624 0.0532011 0
M  V30 8702 C 813.239 -1.41331 -1.36088 0
M  V30 8703 O 812.364 -0.791195 -2.01418 0
M  V30 8704 C 812.959 -3.38681 0.0897693 0
M  V30 8705 C 811.518 -3.75181 -0.302677 0
M  V30 8706 C 810.665 -2.73419 0.462307 0
M  V30 8707 H 813.616 -1.41743 0.713773 0
M  V30 8708 H 813.637 -3.73902 -0.705528 0
M  V30 8709 H 813.149 -3.71616 1.11907 0
M  V30 8710 H 811.25 -3.47855 -1.33521 0
M  V30 8711 H 811.363 -4.79097 0.0167653 0
M  V30 8712 H 809.727 -2.54548 -0.0878557 0
M  V30 8713 H 810.51 -3.09198 1.49169 0
M  V30 8714 N 812.955 -0.234822 -1.55841 0
M  V30 8715 C 814.201 0.393843 -1.98939 0
M  V30 8716 C 814.534 1.58466 -1.1226 0
M  V30 8717 O 813.809 1.93635 -0.183242 0
M  V30 8718 C 814.092 0.815492 -3.50745 0
M  V30 8719 C 813.945 -0.379878 -4.48193 0
M  V30 8720 C 815.264 1.66687 -4.07312 0
M  V30 8721 H 812.383 0.141681 -0.723253 0
M  V30 8722 H 815.025 -0.333716 -1.87046 0
M  V30 8723 H 813.175 1.43541 -3.6101 0
M  V30 8724 H 814.847 -1.0182 -4.49923 0
M  V30 8725 H 813.09 -1.02507 -4.21515 0
M  V30 8726 H 813.761 -0.0417069 -5.51984 0
M  V30 8727 H 816.237 1.14369 -4.00074 0
M  V30 8728 H 815.113 1.93078 -5.13821 0
M  V30 8729 H 815.374 2.63468 -3.55017 0
M  V30 8730 N 814.433 1.57553 0.0384317 0
M  V30 8731 C 815.679 1.89121 0.732199 0
M  V30 8732 C 816.012 0.831404 1.75503 0
M  V30 8733 O 815.287 -0.154642 1.93884 0
M  V30 8734 C 815.57 3.31338 1.41021 0
M  V30 8735 C 815.423 4.48004 0.401532 0
M  V30 8736 C 816.742 3.72318 2.34665 0
M  V30 8737 H 813.861 0.687819 0.264715 0
M  V30 8738 H 816.503 1.89999 -0.00496279 0
M  V30 8739 H 814.653 3.3072 2.03854 0
M  V30 8740 H 816.325 4.60755 -0.224159 0
M  V30 8741 H 814.568 4.32895 -0.280092 0
M  V30 8742 H 815.239 5.44377 0.91423 0
M  V30 8743 H 817.715 3.74243 1.81883 0
M  V30 8744 H 816.591 4.72652 2.7909 0
M  V30 8745 H 816.852 3.04062 3.20934 0
M  V30 8746 N 815.911 -0.310526 1.54511 0
M  V30 8747 C 817.136 -1.07046 1.7764 0
M  V30 8748 C 817.561 -1.80488 0.529696 0
M  V30 8749 O 816.919 -1.73702 -0.519361 0
M  V30 8750 C 816.967 -2.03411 2.97752 0
M  V30 8751 O 816.071 -3.11545 2.7021 0
M  V30 8752 H 815.412 -0.307994 0.588248 0
M  V30 8753 H 817.942 -0.350848 2.01569 0
M  V30 8754 H 817.952 -2.46048 3.2546 0
M  V30 8755 H 816.627 -1.49361 3.88155 0
M  V30 8756 H 815.204 -2.7349 2.53491 0
M  V30 8757 N 817.389 -1.46805 -0.573248 0
M  V30 8758 C 818.336 -1.58084 -1.68161 0
M  V30 8759 C 819.306 -0.424636 -1.6058 0
M  V30 8760 O 820.491 -0.642623 -1.79652 0
M  V30 8761 C 817.631 -1.58601 -3.06496 0
M  V30 8762 C 816.744 -2.85023 -3.24632 0
M  V30 8763 C 815.879 -2.76981 -4.53271 0
M  V30 8764 C 814.918 -3.983 -4.64783 0
M  V30 8765 N 814.055 -3.88589 -5.84759 0
M  V30 8766 H 818.895 -2.52755 -1.57858 0
M  V30 8767 H 816.432 -1.25385 -0.769218 0
M  V30 8768 H 818.39 -1.56885 -3.86579 0
M  V30 8769 H 817.02 -0.674553 -3.15673 0
M  V30 8770 H 816.072 -2.96678 -2.38089 0
M  V30 8771 H 817.384 -3.7491 -3.29004 0
M  V30 8772 H 816.538 -2.73424 -5.41594 0
M  V30 8773 H 815.277 -1.84751 -4.51352 0
M  V30 8774 H 814.282 -4.02179 -3.74876 0
M  V30 8775 H 815.507 -4.91639 -4.68474 0
M  V30 8776 H 813.453 -2.99151 -5.83819 0
M  V30 8777 H 813.37 -4.7214 -5.90441 0
M  V30 8778 H 814.638 -3.89022 -6.75486 0
M  V30 8779 N 818.867 0.818669 -1.34668 0
M  V30 8780 C 819.8 1.93516 -1.20941 0
M  V30 8781 C 820.778 1.62292 -0.100061 0
M  V30 8782 O 821.962 1.86614 -0.265983 0
M  V30 8783 C 819.089 3.27612 -0.859524 0
M  V30 8784 C 818.135 3.77794 -1.97923 0
M  V30 8785 S 818.968 3.97043 -3.59329 0
M  V30 8786 C 820.124 5.3406 -3.2639 0
M  V30 8787 H 820.357 2.04864 -2.15449 0
M  V30 8788 H 817.89 0.974716 -1.19744 0
M  V30 8789 H 819.848 4.05087 -0.664444 0
M  V30 8790 H 818.509 3.14028 0.0672835 0
M  V30 8791 H 817.702 4.74883 -1.68827 0
M  V30 8792 H 817.304 3.0728 -2.13202 0
M  V30 8793 H 819.596 6.17626 -2.78469 0
M  V30 8794 H 820.539 5.68143 -4.22634 0
M  V30 8795 H 820.947 4.99773 -2.62464 0
M  V30 8796 O 820.384 1.30074 0.957231 0
M  V30 8797 H 821.075 1.11341 1.58502 0
M  V30 END ATOM
M  V30 BEGIN BOND
M  V30 END BOND
M  V30 END CTAB
M  END
$$$$
