drugbank_target|P45381 Aspartoacylase (DB00128; DB01593; DB14487; DB14533; DB14548)
 OpenBabel12092119263D

  0  0  0     0  0            999 V3000
M  V30 BEGIN CTAB
M  V30 COUNTS 5009 5072 0 0 0
M  V30 BEGIN ATOM
M  V30 1 H -0.908 1.98254 -0.117106 0
M  V30 2 N 0 1.576 0 0
M  V30 3 C 0.933 2.03868 1.02534 0
M  V30 4 C 1.911 0.928543 1.3348 0
M  V30 5 O 3.095 1.19667 1.45644 0
M  V30 6 C 0.222 2.43627 2.35294 0
M  V30 7 C -0.732 3.65373 2.2001 0
M  V30 8 S 0.101 5.13292 1.52614 0
M  V30 9 C 1.257 5.56322 2.86805 0
M  V30 10 H 1.49 2.90518 0.631377 0
M  V30 11 H -0.977 1.52953 0.210867 0
M  V30 12 H 0.981 2.67203 3.11629 0
M  V30 13 H -0.358 1.57376 2.7183 0
M  V30 14 H -1.165 3.90944 3.18086 0
M  V30 15 H -1.563 3.418 1.51819 0
M  V30 16 H 0.729 5.58782 3.83104 0
M  V30 17 H 1.672 6.56266 2.65933 0
M  V30 18 H 2.08 4.83886 2.90714 0
M  V30 19 N 1.4781 -0.272755 1.55222 0
M  V30 20 C 2.7061 -1.02255 1.79865 0
M  V30 21 C 3.1211 -1.79924 0.572088 0
M  V30 22 O 2.4781 -1.76638 -0.458842 0
M  V30 23 C 2.5291 -1.98094 3.02392 0
M  V30 24 O 2.2501 -1.23572 4.20311 0
M  V30 25 C 3.7511 -2.84884 3.39641 0
M  V30 26 H 0.9711 -0.302057 0.599168 0
M  V30 27 H 3.5151 -0.303465 2.02236 0
M  V30 28 H 1.6701 -2.65465 2.82147 0
M  V30 29 H 2.0841 -1.88172 4.89583 0
M  V30 30 H 3.5581 -3.47927 4.28545 0
M  V30 31 H 4.0351 -3.54665 2.59055 0
M  V30 32 H 4.6411 -2.23003 3.62146 0
M  V30 33 N 2.9562 -1.48159 -0.537278 0
M  V30 34 C 4.1812 -1.59707 -1.32319 0
M  V30 35 C 4.6062 -0.254859 -1.86365 0
M  V30 36 O 3.9642 0.772378 -1.64024 0
M  V30 37 C 4.0122 -2.6412 -2.45505 0
M  V30 38 O 3.1162 -2.20774 -3.48328 0
M  V30 39 H 2.4572 -0.535791 -0.392204 0
M  V30 40 H 4.9872 -1.94092 -0.647268 0
M  V30 41 H 4.9972 -2.85166 -2.91795 0
M  V30 42 H 3.6722 -3.61567 -2.05528 0
M  V30 43 H 2.2492 -2.09911 -3.08207 0
M  V30 44 N 4.4343 0.785586 -1.36625 0
M  V30 45 C 5.6743 1.55678 -1.32453 0
M  V30 46 C 6.0383 1.91769 0.0941089 0
M  V30 47 O 7.2393 2.67536 0.26042 0
M  V30 48 C 5.5103 2.79701 -2.22491 0
M  V30 49 S 7.0693 3.69907 -2.36038 0
M  V30 50 H 3.8873 0.533141 -0.470405 0
M  V30 51 H 6.4893 0.924953 -1.72235 0
M  V30 52 H 5.1933 2.51244 -3.24507 0
M  V30 53 H 4.7243 3.47854 -1.83742 0
M  V30 54 H 6.7393 4.71016 -1.56072 0
M  V30 55 N 5.9124 1.20967 1.01018 0
M  V30 56 C 6.8624 0.93182 2.08089 0
M  V30 57 C 7.8464 -0.110898 1.60517 0
M  V30 58 O 9.0384 0.0973392 1.76732 0
M  V30 59 C 6.1674 0.492719 3.39746 0
M  V30 60 C 5.2534 1.56922 3.94 0
M  V30 61 N 5.6444 2.79312 4.21686 0
M  V30 62 C 3.9424 1.43688 4.2222 0
M  V30 63 C 4.6434 3.48797 4.65527 0
M  V30 64 N 3.6194 2.76224 4.68189 0
M  V30 65 H 7.4214 1.86175 2.27412 0
M  V30 66 H 4.9354 1.10463 1.19045 0
M  V30 67 H 6.9324 0.275044 4.15992 0
M  V30 68 H 5.5924 -0.430509 3.21833 0
M  V30 69 H 6.6034 3.15903 4.10397 0
M  V30 70 H 3.2804 0.578548 4.13472 0
M  V30 71 H 4.6704 4.53561 4.95714 0
M  V30 72 N 7.3905 -1.2043 1.01659 0
M  V30 73 C 8.6395 -1.89118 0.701237 0
M  V30 74 C 8.9525 -1.79705 -0.772358 0
M  V30 75 O 10.1585 -2.43528 -1.20026 0
M  V30 76 C 8.6145 -3.39168 1.20388 0
M  V30 77 C 8.2225 -3.57166 2.70438 0
M  V30 78 C 9.9665 -4.1341 0.963953 0
M  V30 79 C 7.8735 -5.01042 3.14183 0
M  V30 80 H 6.8035 -0.708267 0.2586 0
M  V30 81 H 9.4545 -1.36239 1.22927 0
M  V30 82 H 7.8365 -3.91369 0.603824 0
M  V30 83 H 9.0105 -3.15351 3.35992 0
M  V30 84 H 7.3255 -2.96294 2.92572 0
M  V30 85 H 9.9225 -5.19491 1.26621 0
M  V30 86 H 10.2655 -4.16181 -0.099578 0
M  V30 87 H 10.7985 -3.67309 1.52738 0
M  V30 88 H 7.5375 -5.03426 4.19812 0
M  V30 89 H 7.0575 -5.43668 2.53348 0
M  V30 90 H 8.7365 -5.69623 3.0682 0
M  V30 91 N 8.8686 -0.792821 -1.36206 0
M  V30 92 C 9.8316 -0.199459 -2.2833 0
M  V30 93 C 10.8316 0.605189 -1.48977 0
M  V30 94 O 12.0216 0.425685 -1.68919 0
M  V30 95 C 9.1536 0.723523 -3.33134 0
M  V30 96 H 10.3466 -1.01181 -2.82316 0
M  V30 97 H 7.8996 -0.562485 -1.45828 0
M  V30 98 H 8.6346 1.56008 -2.84309 0
M  V30 99 H 8.4196 0.148436 -3.91819 0
M  V30 100 H 9.9096 1.13344 -4.01924 0
M  V30 101 N 10.3467 1.47872 -0.545128 0
M  V30 102 C 11.2567 2.33633 0.212746 0
M  V30 103 C 12.2727 1.4744 0.923983 0
M  V30 104 O 13.4487 1.80393 0.895572 0
M  V30 105 C 10.5137 3.23884 1.23693 0
M  V30 106 C 9.5747 4.25961 0.534417 0
M  V30 107 C 8.8077 5.11899 1.5098 0
M  V30 108 O 9.0307 5.00077 2.7437 0
M  V30 109 O 7.9647 5.92831 1.0409 0
M  V30 110 H 11.7907 2.99714 -0.490416 0
M  V30 111 H 9.3757 1.46235 -0.305871 0
M  V30 112 H 11.2577 3.79666 1.82843 0
M  V30 113 H 9.9327 2.60446 1.92222 0
M  V30 114 H 8.8397 3.73972 -0.0979679 0
M  V30 115 H 10.1727 4.92079 -0.109213 0
M  V30 116 N 11.8248 0.280983 1.55075 0
M  V30 117 C 12.7348 -0.61388 2.26426 0
M  V30 118 C 13.7508 -1.16521 1.29224 0
M  V30 119 O 14.9268 -1.19426 1.62171 0
M  V30 120 C 11.9918 -1.7788 2.9759 0
M  V30 121 C 11.0528 -1.26355 4.10284 0
M  V30 122 C 10.2858 -2.37295 4.78045 0
M  V30 123 O 10.5088 -3.56777 4.45047 0
M  V30 124 O 9.4428 -2.05119 5.65871 0
M  V30 125 H 13.2688 -0.0356932 3.03679 0
M  V30 126 H 10.8538 0.0481686 1.49322 0
M  V30 127 H 12.7358 -2.45791 3.42293 0
M  V30 128 H 11.4108 -2.34397 2.23249 0
M  V30 129 H 10.3178 -0.550735 3.70024 0
M  V30 130 H 11.6508 -0.744065 4.86543 0
M  V30 131 N 13.3029 -1.57598 0.00835791 0
M  V30 132 C 14.2529 -2.05431 -0.989045 0
M  V30 133 C 15.2369 -0.950662 -1.29812 0
M  V30 134 O 16.4289 -1.21438 -1.28771 0
M  V30 135 C 13.5579 -2.56801 -2.27833 0
M  V30 136 C 12.6439 -3.74058 -1.99853 0
M  V30 137 N 13.0349 -4.8544 -1.42062 0
M  V30 138 C 11.3329 -3.82148 -2.29953 0
M  V30 139 C 12.0339 -5.66817 -1.30743 0
M  V30 140 N 11.0099 -5.13077 -1.7959 0
M  V30 141 H 14.8119 -2.88955 -0.536853 0
M  V30 142 H 12.3259 -1.61199 -0.197148 0
M  V30 143 H 14.3229 -2.89349 -3.00137 0
M  V30 144 H 12.9829 -1.74699 -2.73698 0
M  V30 145 H 13.9939 -5.0612 -1.09833 0
M  V30 146 H 10.6709 -3.10916 -2.78635 0
M  V30 147 H 12.0609 -6.66343 -0.862328 0
M  V30 148 N 14.781 0.264519 -1.55364 0
M  V30 149 C 16.03 0.992812 -1.75574 0
M  V30 150 C 16.343 1.87142 -0.568979 0
M  V30 151 O 17.549 2.63513 -0.653682 0
M  V30 152 C 16.005 1.81519 -3.10771 0
M  V30 153 C 15.613 0.984839 -4.37041 0
M  V30 154 C 17.357 2.53727 -3.40327 0
M  V30 155 C 15.264 1.80209 -5.63275 0
M  V30 156 H 14.194 0.374412 -0.65447 0
M  V30 157 H 16.845 0.248138 -1.81815 0
M  V30 158 H 15.227 2.60115 -2.98591 0
M  V30 159 H 16.401 0.242455 -4.60162 0
M  V30 160 H 14.716 0.37691 -4.14691 0
M  V30 161 H 17.313 3.15292 -4.3185 0
M  V30 162 H 17.656 3.24447 -2.60845 0
M  V30 163 H 18.189 1.82156 -3.53644 0
M  V30 164 H 14.928 1.13896 -6.45529 0
M  V30 165 H 14.448 2.52022 -5.44284 0
M  V30 166 H 16.127 2.37364 -6.01887 0
M  V30 167 N 16.2591 1.48442 0.529413 0
M  V30 168 C 17.1911 1.59095 1.64989 0
M  V30 169 C 18.2041 0.475212 1.5571 0
M  V30 170 O 19.3931 0.746081 1.6216 0
M  V30 171 C 16.4931 1.50518 3.0364 0
M  V30 172 C 15.6661 2.77142 3.38395 0
M  V30 173 C 14.7251 2.62012 4.56329 0
M  V30 174 O 13.7511 3.35898 4.59522 0
M  V30 175 N 14.9531 1.71667 5.54536 0
M  V30 176 H 17.7181 2.55723 1.56287 0
M  V30 177 H 15.2791 1.45173 0.716697 0
M  V30 178 H 17.2711 1.38091 3.80412 0
M  V30 179 H 15.8411 0.618627 3.06418 0
M  V30 180 H 15.0611 3.0413 2.50796 0
M  V30 181 H 16.3491 3.61146 3.58401 0
M  V30 182 H 15.7471 1.10841 5.54735 0
M  V30 183 H 14.3041 1.65178 6.30523 0
M  V30 184 N 17.7372 -0.778329 1.37039 0
M  V30 185 C 18.6842 -1.89139 1.32269 0
M  V30 186 C 19.6542 -1.65017 0.189387 0
M  V30 187 O 20.8392 -1.87024 0.377693 0
M  V30 188 C 17.9792 -3.26112 1.12894 0
M  V30 189 C 17.0922 -3.62233 2.35396 0
M  V30 190 C 16.2272 -4.8838 2.08946 0
M  V30 191 C 15.2662 -5.17212 3.2735 0
M  V30 192 N 14.4032 -6.34546 3.00492 0
M  V30 193 H 19.2432 -1.92552 2.27437 0
M  V30 194 H 16.7802 -0.941473 1.13025 0
M  V30 195 H 18.7382 -4.05116 0.996835 0
M  V30 196 H 17.3682 -3.22091 0.213758 0
M  V30 197 H 16.4202 -2.78265 2.5937 0
M  V30 198 H 17.7322 -3.79481 3.23721 0
M  V30 199 H 16.8862 -5.75274 1.92729 0
M  V30 200 H 15.6252 -4.73222 1.17949 0
M  V30 201 H 14.6302 -4.28796 3.44113 0
M  V30 202 H 15.8552 -5.34283 4.19188 0
M  V30 203 H 13.8012 -6.20759 2.12118 0
M  V30 204 H 13.7182 -6.52179 3.82358 0
M  V30 205 H 14.9862 -7.24394 2.87879 0
M  V30 206 N 19.2153 -1.21501 -1.00376 0
M  V30 207 C 20.4613 -1.03452 -1.74429 0
M  V30 208 C 20.7943 0.430764 -1.89362 0
M  V30 209 O 20.0693 1.31962 -1.42886 0
M  V30 210 C 20.3523 -1.73375 -3.15615 0
M  V30 211 C 20.2053 -3.27431 -3.08397 0
M  V30 212 C 21.5243 -1.47732 -4.14564 0
M  V30 213 H 18.6433 -0.377226 -0.633143 0
M  V30 214 H 21.2853 -1.49693 -1.17013 0
M  V30 215 H 19.4353 -1.34064 -3.64636 0
M  V30 216 H 21.1073 -3.76119 -2.67081 0
M  V30 217 H 19.3503 -3.5767 -2.45468 0
M  V30 218 H 20.0213 -3.71524 -4.08258 0
M  V30 219 H 22.4973 -1.8186 -3.74254 0
M  V30 220 H 21.3733 -1.99169 -5.11491 0
M  V30 221 H 21.6343 -0.407589 -4.40217 0
M  V30 222 N 20.6934 1.19889 -1.02296 0
M  V30 223 C 21.6564 2.21116 -0.603351 0
M  V30 224 C 22.6564 1.5738 0.329884 0
M  V30 225 O 23.8464 1.73802 0.117702 0
M  V30 226 C 20.9784 3.40696 0.117992 0
M  V30 227 H 22.1714 2.59754 -1.49893 0
M  V30 228 H 19.7244 1.33463 -0.813468 0
M  V30 229 H 20.4594 3.07569 1.0282 0
M  V30 230 H 20.2444 3.88188 -0.552511 0
M  V30 231 H 21.7344 4.15692 0.398696 0
M  V30 232 N 22.1715 0.800033 1.35784 0
M  V30 233 C 23.4205 0.37387 1.98205 0
M  V30 234 C 23.7335 -1.06302 1.64193 0
M  V30 235 O 24.9395 -1.59198 2.19928 0
M  V30 236 C 23.3955 0.617532 3.54562 0
M  V30 237 C 23.0035 2.06654 3.9749 0
M  V30 238 C 24.7475 0.256401 4.23725 0
M  V30 239 C 22.6545 2.2563 5.46667 0
M  V30 240 H 21.5845 0.136055 0.741623 0
M  V30 241 H 24.2355 0.983166 1.54939 0
M  V30 242 H 22.6175 -0.0616248 3.95952 0
M  V30 243 H 23.7915 2.78296 3.67271 0
M  V30 244 H 22.1065 2.38691 3.41197 0
M  V30 245 H 24.7035 0.376318 5.33374 0
M  V30 246 H 25.0465 -0.796692 4.08606 0
M  V30 247 H 25.5795 0.889214 3.87734 0
M  V30 248 H 22.3185 3.2936 5.66747 0
M  V30 249 H 21.8385 1.58504 5.78478 0
M  V30 250 H 23.5175 2.06861 6.1304 0
M  V30 251 N 23.6496 -1.47581 0.552962 0
M  V30 252 C 24.8966 -2.02482 0.0273243 0
M  V30 253 C 25.2246 -1.42776 -1.32081 0
M  V30 254 O 24.4796 -0.571393 -1.87173 0
M  V30 255 C 24.7786 -3.57199 -0.119728 0
M  V30 256 C 24.4446 -4.35804 1.15697 0
M  V30 257 C 23.1066 -4.57 1.50681 0
M  V30 258 C 25.4586 -4.81167 2.00319 0
M  V30 259 C 22.7866 -5.20807 2.70142 0
M  V30 260 C 25.1386 -5.46293 3.18978 0
M  V30 261 C 23.8026 -5.65722 3.54281 0
M  V30 262 H 23.0726 -0.740933 0.00999866 0
M  V30 263 H 25.7196 -1.77302 0.72362 0
M  V30 264 H 24.0246 -3.81348 -0.89896 0
M  V30 265 H 25.7216 -3.97324 -0.541718 0
M  V30 266 H 22.3116 -4.19582 0.874561 0
M  V30 267 H 26.4956 -4.64574 1.74599 0
M  V30 268 H 21.7516 -5.34045 2.97668 0
M  V30 269 H 25.9256 -5.80407 3.84838 0
M  V30 270 H 23.5526 -6.14936 4.46942 0
M  V30 271 N 25.1277 -0.289203 -1.54924 0
M  V30 272 C 26.3757 0.322879 -1.99504 0
M  V30 273 C 26.6967 1.55313 -1.1791 0
M  V30 274 O 25.9667 1.94001 -0.272097 0
M  V30 275 H 24.5467 0.122291 -0.736922 0
M  V30 276 H 27.2087 -0.397802 -1.90797 0
M  V30 277 H 26.3047 0.603061 -3.06218 0
M  V30 278 N 26.6058 1.57591 -0.0167156 0
M  V30 279 C 27.8538 1.90906 0.663285 0
M  V30 280 C 28.1748 0.892509 1.73376 0
M  V30 281 O 27.4448 -0.0677623 1.95783 0
M  V30 282 H 26.0248 0.704637 0.247983 0
M  V30 283 H 28.6868 1.94803 -0.0615909 0
M  V30 284 H 27.7828 2.9116 1.12393 0
M  V30 285 N 28.0839 -0.256276 1.55502 0
M  V30 286 C 29.3119 -1.00342 1.8094 0
M  V30 287 C 29.7269 -1.79307 0.59114 0
M  V30 288 O 29.0839 -1.77114 -0.440081 0
M  V30 289 C 29.1349 -1.94875 3.04476 0
M  V30 290 O 28.8559 -1.19107 4.21598 0
M  V30 291 C 30.3569 -2.81266 3.42644 0
M  V30 292 H 27.5769 -0.295685 0.602338 0
M  V30 293 H 30.1209 -0.281998 2.02546 0
M  V30 294 H 28.2759 -2.62457 2.84947 0
M  V30 295 H 28.6899 -1.82969 4.91551 0
M  V30 296 H 30.1639 -3.43362 4.32211 0
M  V30 297 H 30.6409 -3.51897 2.62802 0
M  V30 298 H 31.2469 -2.1915 3.64491 0
M  V30 299 N 29.562 -1.4872 -0.521534 0
M  V30 300 C 30.512 -1.60269 -1.62166 0
M  V30 301 C 31.496 -0.45935 -1.54204 0
M  V30 302 O 32.688 -0.711241 -1.62081 0
M  V30 303 C 29.817 -1.65344 -3.00859 0
M  V30 304 C 28.903 -2.85187 -3.13894 0
M  V30 305 N 29.294 -4.09509 -2.96877 0
M  V30 306 C 27.592 -2.82695 -3.44963 0
M  V30 307 C 28.293 -4.89959 -3.13552 0
M  V30 308 N 27.269 -4.22934 -3.41508 0
M  V30 309 H 31.071 -2.5413 -1.47632 0
M  V30 310 H 28.585 -1.45209 -0.727194 0
M  V30 311 H 30.582 -1.71713 -3.79895 0
M  V30 312 H 29.242 -0.726058 -3.16478 0
M  V30 313 H 30.253 -4.39814 -2.73467 0
M  V30 314 H 26.93 -1.99249 -3.66887 0
M  V30 315 H 28.32 -5.98654 -3.05061 0
M  V30 316 N 31.0401 0.771051 -1.3745 0
M  V30 317 C 32.2881 1.52661 -1.32435 0
M  V30 318 C 32.6091 1.9479 0.0905024 0
M  V30 319 O 31.8791 1.66348 1.03466 0
M  V30 320 H 30.4591 0.566218 -0.487244 0
M  V30 321 H 33.1211 0.917636 -1.71946 0
M  V30 322 H 32.2171 2.42568 -1.96385 0
M  V30 323 N 32.5182 1.22032 0.997298 0
M  V30 324 C 33.4662 0.983634 2.10778 0
M  V30 325 C 34.4602 -0.0717564 1.69248 0
M  V30 326 O 35.6662 0.080304 1.79821 0
M  V30 327 H 32.0412 0.300877 0.689186 0
M  V30 328 H 34.0122 1.92606 2.27916 0
M  V30 329 C 32.7612 0.57326 3.42942 0
M  V30 330 H 32.0842 1.37702 3.75338 0
M  V30 331 H 33.5242 0.447031 4.21637 0
M  V30 332 C 31.9832 -0.7167 3.29188 0
M  V30 333 O 32.5132 -1.77027 3.60589 0
M  V30 334 N 30.7192 -0.686167 2.82383 0
M  V30 335 H 30.2662 0.171507 2.57028 0
M  V30 336 H 30.2242 -1.54955 2.73562 0
M  V30 337 N 33.9963 -1.19345 1.0293 0
M  V30 338 C 34.9063 -2.26245 0.620515 0
M  V30 339 C 35.9223 -1.70486 -0.347928 0
M  V30 340 O 37.0983 -2.00347 -0.205704 0
M  V30 341 C 34.1633 -3.46693 -0.0218957 0
M  V30 342 C 33.2243 -4.17632 0.994102 0
M  V30 343 C 32.4573 -5.32329 0.382253 0
M  V30 344 O 32.6803 -5.64552 -0.814676 0
M  V30 345 O 31.6143 -5.91664 1.10531 0
M  V30 346 H 35.4403 -2.63453 1.51083 0
M  V30 347 H 33.0253 -1.26207 0.799513 0
M  V30 348 H 34.9073 -4.19683 -0.380072 0
M  V30 349 H 33.5823 -3.11333 -0.886209 0
M  V30 350 H 32.4893 -3.4676 1.40387 0
M  V30 351 H 33.8223 -4.56964 1.8288 0
M  V30 352 N 35.4744 -0.807222 -1.35358 0
M  V30 353 C 36.4044 -0.232509 -2.3234 0
M  V30 354 C 37.3854 0.642386 -1.57504 0
M  V30 355 O 38.5704 0.572526 -1.85569 0
M  V30 356 C 35.7004 0.619238 -3.41735 0
M  V30 357 C 34.6544 -0.157215 -4.27711 0
M  V30 358 C 33.9804 0.816273 -5.28433 0
M  V30 359 C 35.2804 -1.35656 -5.04376 0
M  V30 360 H 36.9744 -1.04276 -2.80654 0
M  V30 361 H 34.5204 -0.50288 -1.34934 0
M  V30 362 H 36.4734 1.03137 -4.08584 0
M  V30 363 H 35.1974 1.46239 -2.92031 0
M  V30 364 H 33.8564 -0.550525 -3.62443 0
M  V30 365 H 33.5044 1.65494 -4.74996 0
M  V30 366 H 33.2044 0.301067 -5.86828 0
M  V30 367 H 34.7284 1.22659 -5.98153 0
M  V30 368 H 36.1424 -1.01927 -5.64166 0
M  V30 369 H 34.5394 -1.8063 -5.7227 0
M  V30 370 H 35.6094 -2.14288 -4.34981 0
M  V30 371 N 36.9525 1.47285 -0.560781 0
M  V30 372 C 38.1805 2.06855 -0.0430262 0
M  V30 373 C 38.5955 1.41291 1.25229 0
M  V30 374 O 37.9525 0.510648 1.7521 0
M  V30 375 C 38.0035 3.61178 0.152518 0
M  V30 376 O 37.7245 4.24285 -1.0915 0
M  V30 377 C 39.2255 4.37624 0.707145 0
M  V30 378 H 36.4455 0.669319 -0.0474652 0
M  V30 379 H 38.9895 1.89237 -0.77521 0
M  V30 380 H 37.1445 3.78298 0.834843 0
M  V30 381 H 37.5585 5.16868 -0.891482 0
M  V30 382 H 39.0325 5.46271 0.793244 0
M  V30 383 H 39.5095 4.04152 1.71923 0
M  V30 384 H 40.1155 4.25257 0.0604027 0
M  V30 385 N 38.4306 0.297415 1.54768 0
M  V30 386 C 39.6786 -0.312295 1.99673 0
M  V30 387 C 39.9996 -1.54686 1.18732 0
M  V30 388 O 39.2696 -1.93854 0.282382 0
M  V30 389 H 37.8496 -0.118381 0.73756 0
M  V30 390 H 40.5116 0.407915 1.90583 0
M  V30 391 H 39.6076 -0.586813 3.06534 0
M  V30 392 N 39.9087 -1.5758 0.0250728 0
M  V30 393 C 41.1547 -1.91917 -0.655413 0
M  V30 394 C 41.4877 -0.901433 -1.72011 0
M  V30 395 O 40.7627 0.0764069 -1.9435 0
M  V30 396 C 41.0457 -3.36751 -1.27558 0
M  V30 397 C 40.8987 -4.49258 -0.220719 0
M  V30 398 C 42.2177 -3.81469 -2.19475 0
M  V30 399 H 39.3367 -0.697925 -0.23679 0
M  V30 400 H 41.9787 -1.89825 0.0815036 0
M  V30 401 H 40.1287 -3.38664 -1.90365 0
M  V30 402 H 41.8007 -4.59478 0.409601 0
M  V30 403 H 40.0437 -4.31415 0.454264 0
M  V30 404 H 40.7147 -5.47618 -0.694175 0
M  V30 405 H 43.1907 -3.81266 -1.66659 0
M  V30 406 H 42.0667 -4.83512 -2.59822 0
M  V30 407 H 42.3277 -3.16744 -3.08424 0
M  V30 408 N 41.3868 0.248026 -1.55636 0
M  V30 409 C 42.6338 0.976224 -1.77415 0
M  V30 410 C 42.9618 1.85361 -0.589193 0
M  V30 411 O 42.2168 1.90973 0.427529 0
M  V30 412 C 42.5158 1.86819 -3.04686 0
M  V30 413 C 42.1818 1.14625 -4.36087 0
M  V30 414 C 40.8438 0.946723 -4.71795 0
M  V30 415 C 43.1958 0.634463 -5.17324 0
M  V30 416 C 40.5238 0.223091 -5.86276 0
M  V30 417 C 42.8758 -0.0756959 -6.32555 0
M  V30 418 C 41.5398 -0.286711 -6.66884 0
M  V30 419 H 40.8098 0.357226 -0.649208 0
M  V30 420 H 43.4568 0.246415 -1.89908 0
M  V30 421 H 41.7618 2.66502 -2.872 0
M  V30 422 H 43.4588 2.43329 -3.18735 0
M  V30 423 H 40.0488 1.3117 -4.08035 0
M  V30 424 H 44.2328 0.77616 -4.90193 0
M  V30 425 H 39.4888 0.0491185 -6.1138 0
M  V30 426 H 43.6628 -0.479899 -6.94745 0
M  V30 427 H 41.2898 -0.849389 -7.5544 0
M  V30 428 N 42.8649 1.48995 0.513639 0
M  V30 429 C 43.7949 1.67636 1.62544 0
M  V30 430 C 44.7759 0.525087 1.61793 0
M  V30 431 O 45.9609 0.759502 1.78732 0
M  V30 432 C 43.0909 1.73114 3.01079 0
M  V30 433 C 42.0449 2.87905 3.16693 0
M  V30 434 C 41.3709 2.78486 4.56453 0
M  V30 435 C 42.6709 4.29005 2.97913 0
M  V30 436 H 44.3649 2.60716 1.47198 0
M  V30 437 H 41.9109 1.25465 0.706714 0
M  V30 438 H 43.8639 1.84742 3.78746 0
M  V30 439 H 42.5879 0.766241 3.17484 0
M  V30 440 H 41.2469 2.75859 2.41448 0
M  V30 441 H 40.8949 1.7993 4.69717 0
M  V30 442 H 40.5949 3.55523 4.67843 0
M  V30 443 H 42.1189 2.92104 5.36197 0
M  V30 444 H 43.5329 4.41798 3.65359 0
M  V30 445 H 41.9299 5.07166 3.20785 0
M  V30 446 H 42.9999 4.44329 1.94165 0
M  V30 447 N 44.343 -0.763751 1.37857 0
M  V30 448 C 45.589 -1.52483 1.33704 0
M  V30 449 C 45.922 -1.94051 -0.0759612 0
M  V30 450 O 45.197 -1.64675 -1.03501 0
M  V30 451 C 45.48 -2.78441 2.28348 0
M  V30 452 C 45.333 -2.43075 3.78463 0
M  V30 453 C 46.652 -3.80415 2.21298 0
M  V30 454 H 43.771 -0.553169 0.487005 0
M  V30 455 H 46.413 -0.875562 1.68624 0
M  V30 456 H 44.563 -3.33842 1.987 0
M  V30 457 H 46.235 -1.93527 4.18742 0
M  V30 458 H 44.478 -1.75666 3.96641 0
M  V30 459 H 45.149 -3.33149 4.40132 0
M  V30 460 H 47.625 -3.34527 2.47449 0
M  V30 461 H 46.501 -4.66257 2.89647 0
M  V30 462 H 46.762 -4.25262 1.20849 0
M  V30 463 N 45.8211 -1.22559 -0.990812 0
M  V30 464 C 46.7681 -0.997519 -2.0813 0
M  V30 465 C 47.7381 0.0814702 -1.659 0
M  V30 466 O 48.9231 -0.0685424 -1.90677 0
M  V30 467 C 46.0631 -0.583615 -3.40129 0
M  V30 468 C 45.1761 -1.7336 -3.9569 0
M  V30 469 C 44.3111 -1.26748 -5.15857 0
M  V30 470 C 43.3501 -2.38888 -5.63559 0
M  V30 471 N 42.4871 -1.93308 -6.74964 0
M  V30 472 H 47.3271 -1.93099 -2.26973 0
M  V30 473 H 44.8641 -0.962114 -1.11273 0
M  V30 474 H 46.8221 -0.324801 -4.15934 0
M  V30 475 H 45.4521 0.312845 -3.2128 0
M  V30 476 H 44.5041 -2.10669 -3.16738 0
M  V30 477 H 45.8161 -2.57704 -4.27071 0
M  V30 478 H 44.9701 -0.966173 -5.98957 0
M  V30 479 H 43.7091 -0.394272 -4.86104 0
M  V30 480 H 42.7141 -2.69805 -4.79046 0
M  V30 481 H 43.9391 -3.26728 -5.95336 0
M  V30 482 H 41.8851 -1.08352 -6.4699 0
M  V30 483 H 41.8021 -2.71217 -7.05675 0
M  V30 484 H 43.0701 -1.66252 -7.61564 0
M  V30 485 N 47.2992 1.18797 -1.03562 0
M  V30 486 C 48.2492 2.20161 -0.592724 0
M  V30 487 C 49.2332 1.56772 0.362133 0
M  V30 488 O 50.4252 1.76062 0.182009 0
M  V30 489 C 47.5542 3.43266 0.0481024 0
M  V30 490 C 46.6402 4.13786 -0.9296 0
M  V30 491 N 47.0312 4.60388 -2.09467 0
M  V30 492 C 45.3292 4.39572 -0.754499 0
M  V30 493 C 46.0302 5.14619 -2.71187 0
M  V30 494 N 45.0062 5.05826 -1.991 0
M  V30 495 H 48.8082 2.53877 -1.48066 0
M  V30 496 H 46.3222 1.34946 -0.903514 0
M  V30 497 H 48.3192 4.15136 0.383058 0
M  V30 498 H 46.9792 3.11048 0.931636 0
M  V30 499 H 47.9902 4.54999 -2.47379 0
M  V30 500 H 44.6672 4.17425 0.0793713 0
M  V30 501 H 46.0572 5.60917 -3.69895 0
M  V30 502 N 48.7773 0.814389 1.34928 0
M  V30 503 C 50.0233 0.408167 1.99263 0
M  V30 504 C 50.3783 -1.0154 1.63424 0
M  V30 505 O 49.6713 -1.69607 0.891289 0
M  V30 506 C 49.8653 0.537781 3.53331 0
M  V30 507 C 49.6943 1.9724 4.04137 0
M  V30 508 C 48.4643 2.60245 4.33129 0
M  V30 509 C 50.6623 2.93801 4.2212 0
M  V30 510 N 48.6443 3.95036 4.69914 0
M  V30 511 C 50.0153 4.1348 4.6199 0
M  V30 512 C 52.0703 2.9053 4.04348 0
M  V30 513 C 50.7733 5.3033 4.85945 0
M  V30 514 C 52.7993 4.06589 4.29464 0
M  V30 515 C 52.1613 5.25017 4.69613 0
M  V30 516 H 48.2603 0.197289 0.756704 0
M  V30 517 H 50.8443 1.05728 1.63492 0
M  V30 518 H 49.0153 -0.0813868 3.88315 0
M  V30 519 H 50.7473 0.105389 4.04563 0
M  V30 520 H 47.5023 2.11545 4.23728 0
M  V30 521 H 47.9263 4.64455 4.92555 0
M  V30 522 H 52.5683 2.00115 3.72443 0
M  V30 523 H 50.2863 6.21309 5.16721 0
M  V30 524 H 53.8723 4.05447 4.17257 0
M  V30 525 H 52.7523 6.1333 4.88667 0
M  V30 526 N 50.2554 -1.46986 0.568584 0
M  V30 527 C 51.1854 -2.32946 -0.160753 0
M  V30 528 C 52.1664 -1.44487 -0.897631 0
M  V30 529 O 53.3514 -1.73327 -0.875867 0
M  V30 530 C 50.4814 -3.26494 -1.18403 0
M  V30 531 C 49.4354 -4.24282 -0.562895 0
M  V30 532 C 48.7614 -5.07236 -1.69163 0
M  V30 533 C 50.0614 -5.19989 0.490761 0
M  V30 534 H 51.7554 -2.94175 0.556916 0
M  V30 535 H 49.3014 -1.4146 0.26927 0
M  V30 536 H 51.2544 -3.85477 -1.70251 0
M  V30 537 H 49.9784 -2.63343 -1.93179 0
M  V30 538 H 48.6374 -3.66541 -0.0656164 0
M  V30 539 H 48.2854 -4.4048 -2.42871 0
M  V30 540 H 47.9854 -5.7345 -1.28174 0
M  V30 541 H 49.5094 -5.6908 -2.21314 0
M  V30 542 H 50.9234 -5.73271 0.0579047 0
M  V30 543 H 49.3204 -5.94469 0.820165 0
M  V30 544 H 50.3904 -4.64777 1.3824 0
M  V30 545 N 51.7335 -0.305618 -1.54608 0
M  V30 546 C 52.6435 0.57778 -2.27374 0
M  V30 547 C 53.6595 1.14451 -1.31061 0
M  V30 548 O 54.8355 1.16831 -1.6405 0
M  V30 549 C 51.9005 1.73123 -3.00382 0
M  V30 550 C 50.9615 1.19812 -4.12242 0
M  V30 551 C 50.1945 2.2966 -4.81759 0
M  V30 552 O 50.4175 3.49651 -4.50666 0
M  V30 553 O 49.3515 1.96091 -5.69062 0
M  V30 554 H 53.1775 -0.012624 -3.03697 0
M  V30 555 H 50.7625 -0.0719184 -1.49227 0
M  V30 556 H 52.6445 2.40315 -3.4616 0
M  V30 557 H 51.3195 2.30815 -2.26949 0
M  V30 558 H 50.2265 0.491798 -3.70853 0
M  V30 559 H 51.5595 0.666566 -4.87666 0
M  V30 560 N 53.2116 1.57565 -0.0334293 0
M  V30 561 C 54.1596 2.1164 0.96496 0
M  V30 562 C 55.1536 1.04398 1.33407 0
M  V30 563 O 56.3596 1.22828 1.3158 0
M  V30 564 H 52.7346 0.676222 0.32898 0
M  V30 565 H 54.7056 2.94455 0.483614 0
M  V30 566 C 53.4546 2.66207 2.23672 0
M  V30 567 H 52.7776 3.48378 1.96145 0
M  V30 568 H 54.2176 3.07685 2.9173 0
M  V30 569 C 52.6766 1.59151 2.96939 0
M  V30 570 O 53.2066 0.993858 3.89211 0
M  V30 571 N 51.4126 1.31093 2.59351 0
M  V30 572 H 50.9596 1.7988 1.84393 0
M  V30 573 H 50.9176 0.596889 3.08682 0
M  V30 574 N 54.6897 -0.239769 1.55765 0
M  V30 575 C 55.9377 -0.964892 1.77579 0
M  V30 576 C 56.2587 -1.85582 0.598699 0
M  V30 577 O 55.5287 -1.92075 -0.385226 0
M  V30 578 H 54.1087 -0.359265 0.654933 0
M  V30 579 H 56.7707 -0.256001 1.93211 0
M  V30 580 H 55.8667 -1.58243 2.69009 0
M  V30 581 N 56.1678 -1.49265 -0.50573 0
M  V30 582 C 57.1308 -1.65075 -1.59006 0
M  V30 583 C 58.1308 -0.522768 -1.52065 0
M  V30 584 O 59.3208 -0.789117 -1.55302 0
M  V30 585 C 56.4528 -1.64369 -2.98656 0
M  V30 586 H 57.6458 -2.61784 -1.46319 0
M  V30 587 H 55.1988 -1.38226 -0.729616 0
M  V30 588 H 55.9338 -0.692272 -3.16825 0
M  V30 589 H 55.7188 -2.46282 -3.05103 0
M  V30 590 H 57.2088 -1.78674 -3.77446 0
M  V30 591 N 57.6459 0.756429 -1.3826 0
M  V30 592 C 58.5559 1.9009 -1.37488 0
M  V30 593 C 59.5719 1.71855 -0.272366 0
M  V30 594 O 60.7479 1.94827 -0.510318 0
M  V30 595 C 57.8129 3.25421 -1.19592 0
M  V30 596 C 56.8739 3.56202 -2.39622 0
M  V30 597 C 56.1069 4.85075 -2.2257 0
M  V30 598 O 56.3299 5.57246 -1.21793 0
M  V30 599 O 55.2639 5.15269 -3.11098 0
M  V30 600 H 59.0899 1.93695 -2.33914 0
M  V30 601 H 56.6749 0.901313 -1.1915 0
M  V30 602 H 58.5569 4.06337 -1.11661 0
M  V30 603 H 57.2319 3.22634 -0.262486 0
M  V30 604 H 56.1389 2.75458 -2.53128 0
M  V30 605 H 57.4719 3.63747 -3.31586 0
M  V30 606 N 59.124 1.23083 0.984299 0
M  V30 607 C 60.373 1.05466 1.71929 0
M  V30 608 C 60.686 -0.409211 1.91272 0
M  V30 609 O 61.892 -0.705226 2.62181 0
M  V30 610 C 60.348 1.83874 3.09384 0
M  V30 611 C 59.956 3.34566 2.97943 0
M  V30 612 C 61.7 1.74734 3.8687 0
M  V30 613 C 59.607 4.05381 4.30605 0
M  V30 614 H 58.537 0.391039 0.644674 0
M  V30 615 H 61.188 1.47013 1.09815 0
M  V30 616 H 59.57 1.35131 3.72231 0
M  V30 617 H 60.744 3.90767 2.44209 0
M  V30 618 H 59.059 3.44476 2.33934 0
M  V30 619 H 61.656 2.24957 4.85076 0
M  V30 620 H 61.999 0.709372 4.10212 0
M  V30 621 H 62.532 2.21067 3.30717 0
M  V30 622 H 59.271 5.09467 4.1246 0
M  V30 623 H 58.791 3.53967 4.84218 0
M  V30 624 H 60.47 4.11458 4.99311 0
M  V30 625 N 60.6021 -1.18246 1.0419 0
M  V30 626 C 61.5341 -2.2142 0.592088 0
M  V30 627 C 62.5471 -1.59233 -0.338909 0
M  V30 628 O 63.7361 -1.78002 -0.133231 0
M  V30 629 C 60.8361 -3.38546 -0.154854 0
M  V30 630 C 60.0091 -4.3031 0.784328 0
M  V30 631 C 59.0681 -5.26138 0.0804583 0
M  V30 632 O 58.0941 -5.64738 0.711292 0
M  V30 633 N 59.2961 -5.68261 -1.18574 0
M  V30 634 H 62.0611 -2.60636 1.47949 0
M  V30 635 H 59.6221 -1.33044 0.922544 0
M  V30 636 H 61.6141 -3.99678 -0.635606 0
M  V30 637 H 60.1841 -2.98012 -0.943811 0
M  V30 638 H 59.4041 -3.66764 1.44491 0
M  V30 639 H 60.6921 -4.8852 1.42218 0
M  V30 640 H 60.0901 -5.38957 -1.71876 0
M  V30 641 H 58.6471 -6.31584 -1.61074 0
M  V30 642 N 62.0802 -0.821533 -1.34494 0
M  V30 643 C 63.4962 -0.507117 -1.51329 0
M  V30 644 C 63.6962 0.968964 -1.76673 0
M  V30 645 O 62.7522 1.75348 -1.81685 0
M  V30 646 C 64.0652 -1.36544 -2.67911 0
M  V30 647 C 65.6132 -1.36242 -2.81793 0
M  V30 648 C 66.0882 -2.2052 -4.01416 0
M  V30 649 N 67.5792 -2.18136 -4.08621 0
M  V30 650 C 68.3142 -2.80095 -5.00334 0
M  V30 651 N 67.8102 -3.51039 -5.9728 0
M  V30 652 N 69.6032 -2.69656 -4.93196 0
M  V30 653 H 61.7542 -1.77729 -1.16302 0
M  V30 654 H 64.0172 -0.757291 -0.570276 0
M  V30 655 H 63.7232 -2.41361 -2.55808 0
M  V30 656 H 63.5972 -1.02917 -3.62888 0
M  V30 657 H 65.9842 -0.322041 -2.93338 0
M  V30 658 H 66.0652 -1.73866 -1.87628 0
M  V30 659 H 65.7092 -3.24607 -3.90631 0
M  V30 660 H 65.6392 -1.80247 -4.94791 0
M  V30 661 H 68.1302 -1.6653 -3.39229 0
M  V30 662 H 68.4432 -3.95565 -6.63889 0
M  V30 663 H 66.7882 -3.55145 -5.97409 0
M  V30 664 H 69.9792 -2.13808 -4.16418 0
M  V30 665 H 70.1522 -3.1823 -5.64476 0
M  V30 666 N 63.5583 1.46682 -0.576371 0
M  V30 667 C 64.7863 2.06798 -0.0649635 0
M  V30 668 C 65.2013 1.42612 1.23723 0
M  V30 669 O 64.5583 0.529203 1.74659 0
M  V30 670 C 64.6093 3.6132 0.114202 0
M  V30 671 O 64.3303 4.23104 -1.13644 0
M  V30 672 C 65.8313 4.38349 0.66069 0
M  V30 673 H 63.0513 0.668778 -0.0545616 0
M  V30 674 H 65.5953 1.88404 -0.795237 0
M  V30 675 H 63.7503 3.79162 0.794673 0
M  V30 676 H 64.1643 5.15894 -0.946253 0
M  V30 677 H 65.6383 5.47081 0.73526 0
M  V30 678 H 66.1153 4.05953 1.67627 0
M  V30 679 H 66.7213 4.25297 0.0152951 0
M  V30 680 N 65.0364 0.313813 1.54444 0
M  V30 681 C 66.2844 -0.291099 1.99993 0
M  V30 682 C 66.6054 -1.53418 1.20366 0
M  V30 683 O 65.8754 -1.93544 0.302927 0
M  V30 684 H 64.4554 -0.110552 0.738774 0
M  V30 685 H 67.1174 0.428106 1.9014 0
M  V30 686 H 66.2134 -0.554268 3.07139 0
M  V30 687 N 66.5145 -1.57545 0.0417849 0
M  V30 688 C 67.4445 -2.14009 -0.933929 0
M  V30 689 C 68.4255 -1.05938 -1.33083 0
M  V30 690 O 69.6105 -1.33833 -1.40721 0
M  V30 691 C 66.7405 -2.67747 -2.21199 0
M  V30 692 C 65.6945 -3.80718 -1.95544 0
M  V30 693 C 65.0205 -4.20935 -3.29724 0
M  V30 694 C 66.3205 -5.06258 -1.28452 0
M  V30 695 H 68.0145 -2.95788 -0.463645 0
M  V30 696 H 65.5605 -1.42285 -0.221573 0
M  V30 697 H 67.5135 -3.05886 -2.89848 0
M  V30 698 H 66.2375 -1.83147 -2.70416 0
M  V30 699 H 64.8965 -3.43037 -1.2931 0
M  V30 700 H 64.5445 -3.33298 -3.76724 0
M  V30 701 H 64.2445 -4.9707 -3.13361 0
M  V30 702 H 65.7685 -4.61666 -3.9962 0
M  V30 703 H 67.1825 -5.41903 -1.8712 0
M  V30 704 H 65.5795 -5.87475 -1.22445 0
M  V30 705 H 66.6495 -4.84207 -0.259219 0
M  V30 706 N 67.9926 0.231505 -1.5589 0
M  V30 707 C 68.9026 1.308 -1.94752 0
M  V30 708 C 69.9186 1.51826 -0.849989 0
M  V30 709 O 71.0946 1.6515 -1.15271 0
M  V30 710 C 68.1596 2.63968 -2.24771 0
M  V30 711 C 67.2206 2.51331 -3.48039 0
M  V30 712 C 66.4536 3.78148 -3.76616 0
M  V30 713 O 66.6766 4.80722 -3.07022 0
M  V30 714 O 65.6106 3.75857 -4.70123 0
M  V30 715 H 69.4366 1.0083 -2.86474 0
M  V30 716 H 67.0216 0.433547 -1.42971 0
M  V30 717 H 68.9036 3.42633 -2.45318 0
M  V30 718 H 67.5786 2.9364 -1.36225 0
M  V30 719 H 66.4856 1.709 -3.32782 0
M  V30 720 H 67.8186 2.26601 -4.36936 0
M  V30 721 N 69.4707 1.49531 0.497807 0
M  V30 722 C 70.7167 1.59415 1.25358 0
M  V30 723 C 71.0497 0.281422 1.9215 0
M  V30 724 O 70.3247 -0.715249 1.80871 0
M  V30 725 C 70.6077 2.75566 2.3181 0
M  V30 726 C 70.4607 4.16642 1.69498 0
M  V30 727 C 71.7797 2.87347 3.33346 0
M  V30 728 H 68.8987 0.580244 0.454408 0
M  V30 729 H 71.5407 1.81827 0.551262 0
M  V30 730 H 69.6907 2.56587 2.91711 0
M  V30 731 H 71.3627 4.47145 1.13399 0
M  V30 732 H 69.6057 4.22141 0.998978 0
M  V30 733 H 70.2767 4.93792 2.46725 0
M  V30 734 H 72.7527 3.04634 2.83438 0
M  V30 735 H 71.6287 3.70289 4.05188 0
M  V30 736 H 71.8897 1.96834 3.95865 0
M  V30 737 N 70.9488 -0.749086 1.3866 0
M  V30 738 C 71.8958 -1.86291 1.36251 0
M  V30 739 C 72.8658 -1.64578 0.224347 0
M  V30 740 O 74.0508 -1.86181 0.417279 0
M  V30 741 C 71.1908 -3.23644 1.19786 0
M  V30 742 C 70.3038 -3.57158 2.43027 0
M  V30 743 C 69.4388 -4.83838 2.19258 0
M  V30 744 C 68.4778 -5.10152 3.38247 0
M  V30 745 N 67.6148 -6.28029 3.13884 0
M  V30 746 H 72.4548 -1.87685 2.3147 0
M  V30 747 H 69.9918 -0.917287 1.14997 0
M  V30 748 H 71.9498 -4.0291 1.08254 0
M  V30 749 H 70.5798 -3.21566 0.282031 0
M  V30 750 H 69.6318 -2.72701 2.65214 0
M  V30 751 H 70.9438 -3.7253 3.31697 0
M  V30 752 H 70.0978 -5.71057 2.04888 0
M  V30 753 H 68.8368 -4.70614 1.2796 0
M  V30 754 H 67.8418 -4.21401 3.53131 0
M  V30 755 H 69.0668 -5.25271 4.30427 0
M  V30 756 H 67.0128 -6.1612 2.25238 0
M  V30 757 H 66.9298 -6.43922 3.96106 0
M  V30 758 H 68.1978 -7.18124 3.03179 0
M  V30 759 N 72.4269 -1.23603 -0.977757 0
M  V30 760 C 73.8379 -1.06424 -1.53398 0
M  V30 761 C 74.1889 0.367578 -1.92726 0
M  V30 762 O 73.3139 1.25465 -1.76316 0
M  V30 763 C 73.9089 -1.92568 -2.78753 0
M  V30 764 C 72.4679 -1.79642 -3.30765 0
M  V30 765 C 71.6149 -1.88111 -2.03739 0
M  V30 766 H 74.5659 -1.37227 -0.797152 0
M  V30 767 H 74.5869 -1.45203 -3.51705 0
M  V30 768 H 74.0989 -2.96771 -2.50098 0
M  V30 769 H 72.1999 -0.782325 -3.64294 0
M  V30 770 H 72.3129 -2.63174 -4.00345 0
M  V30 771 H 70.6769 -1.31723 -2.17994 0
M  V30 772 H 71.4599 -2.93875 -1.77461 0
M  V30 773 N 73.905 1.17692 -1.04816 0
M  V30 774 C 75.152 1.87859 -0.75599 0
M  V30 775 C 75.48 1.80812 0.716752 0
M  V30 776 O 74.735 1.20819 1.53952 0
M  V30 777 C 75.034 3.37462 -1.17703 0
M  V30 778 C 74.7 3.64713 -2.65133 0
M  V30 779 C 73.362 3.71859 -3.05408 0
M  V30 780 C 75.714 3.76492 -3.60421 0
M  V30 781 C 73.042 3.88271 -4.39843 0
M  V30 782 C 75.394 3.94421 -4.94585 0
M  V30 783 C 74.058 3.99806 -5.3452 0
M  V30 784 H 73.328 0.687425 -0.276636 0
M  V30 785 H 75.975 1.39255 -1.31455 0
M  V30 786 H 74.28 3.88097 -0.537395 0
M  V30 787 H 75.977 3.90109 -0.928218 0
M  V30 788 H 72.567 3.59772 -2.32942 0
M  V30 789 H 76.751 3.70295 -3.30447 0
M  V30 790 H 72.007 3.90687 -4.70291 0
M  V30 791 H 76.181 4.02477 -5.68318 0
M  V30 792 H 73.808 4.12276 -6.38696 0
M  V30 793 N 75.3831 0.828654 1.34056 0
M  V30 794 C 76.6321 0.415828 1.97367 0
M  V30 795 C 76.9451 -1.02796 1.6641 0
M  V30 796 O 78.1511 -1.54497 2.23255 0
M  V30 797 C 76.6071 0.692601 3.53173 0
M  V30 798 C 76.2151 2.15038 3.93017 0
M  V30 799 C 77.9591 0.346222 4.23086 0
M  V30 800 C 75.8661 2.37174 5.41758 0
M  V30 801 H 74.7961 0.151755 0.738571 0
M  V30 802 H 77.4471 1.01581 1.52819 0
M  V30 803 H 75.8291 0.0223764 3.95994 0
M  V30 804 H 77.0031 2.86024 3.61285 0
M  V30 805 H 75.3181 2.45875 3.36057 0
M  V30 806 H 77.9151 0.48937 5.32456 0
M  V30 807 H 78.2581 -0.709842 4.10204 0
M  V30 808 H 78.7911 0.971258 3.85761 0
M  V30 809 H 75.5301 3.41308 5.59633 0
M  V30 810 H 75.0501 1.70738 5.74986 0
M  V30 811 H 76.7291 2.19818 6.08514 0
M  V30 812 N 76.8612 -1.46375 0.584142 0
M  V30 813 C 78.0892 -2.06761 0.0759296 0
M  V30 814 C 78.5042 -1.43266 -1.22965 0
M  V30 815 O 77.8612 -0.538458 -1.74376 0
M  V30 816 C 77.9122 -3.61375 -0.0950384 0
M  V30 817 O 77.6332 -4.22495 1.15887 0
M  V30 818 C 79.1342 -4.38693 -0.637434 0
M  V30 819 H 76.3542 -0.668479 0.0581075 0
M  V30 820 H 78.8982 -1.8798 0.805218 0
M  V30 821 H 77.0532 -3.79578 -0.774554 0
M  V30 822 H 77.4672 -5.15385 0.973598 0
M  V30 823 H 78.9412 -5.47464 -0.706237 0
M  V30 824 H 79.4182 -4.06836 -1.65472 0
M  V30 825 H 80.0242 -4.25299 0.00725967 0
M  V30 826 N 78.3393 -0.321999 -1.54275 0
M  V30 827 C 79.2873 0.560206 -2.25753 0
M  V30 828 C 80.2813 1.11984 -1.27106 0
M  V30 829 O 81.4873 1.06806 -1.44888 0
M  V30 830 H 77.8623 0.199304 -0.725108 0
M  V30 831 H 79.8333 -0.0649365 -2.98329 0
M  V30 832 C 78.5823 1.71023 -3.02731 0
M  V30 833 H 77.9053 1.28885 -3.78456 0
M  V30 834 H 79.3453 2.30314 -3.55993 0
M  V30 835 C 77.8043 2.62692 -2.10938 0
M  V30 836 O 78.3343 3.64364 -1.6912 0
M  V30 837 N 76.5403 2.30891 -1.76459 0
M  V30 838 H 76.0873 1.48253 -2.10663 0
M  V30 839 H 76.0453 2.92487 -1.1532 0
M  V30 840 N 79.8174 1.5752 -0.0501392 0
M  V30 841 C 81.2284 1.80271 0.485705 0
M  V30 842 C 81.5794 0.96228 1.70981 0
M  V30 843 O 80.7044 0.178578 2.15662 0
M  V30 844 C 81.2994 3.26957 0.887938 0
M  V30 845 C 79.8584 3.5063 1.36877 0
M  V30 846 C 79.0054 2.75165 0.343468 0
M  V30 847 H 81.9564 1.56281 -0.276028 0
M  V30 848 H 81.9774 3.37821 1.75093 0
M  V30 849 H 81.4894 3.881 -0.0031809 0
M  V30 850 H 79.5904 2.94766 2.27911 0
M  V30 851 H 79.7034 4.59343 1.36164 0
M  V30 852 H 78.0674 2.4127 0.816128 0
M  V30 853 H 78.8504 3.39034 -0.539548 0
M  V30 854 N 81.2955 -0.223234 1.56011 0
M  V30 855 C 82.7115 -0.572856 1.48965 0
M  V30 856 C 82.9115 -1.87225 0.74492 0
M  V30 857 O 81.9675 -2.50899 0.283896 0
M  V30 858 C 83.2805 -0.653646 2.9351 0
M  V30 859 C 84.8285 -0.744386 3.0402 0
M  V30 860 C 85.3035 -0.856535 4.49919 0
M  V30 861 N 86.7945 -0.9208 4.53955 0
M  V30 862 C 87.5295 -1.02726 5.64123 0
M  V30 863 N 87.0255 -1.09777 6.84047 0
M  V30 864 N 88.8185 -1.06226 5.51971 0
M  V30 865 H 80.9695 0.629462 2.02858 0
M  V30 866 H 83.2325 0.220621 0.921971 0
M  V30 867 H 82.9385 0.231518 3.50937 0
M  V30 868 H 82.8125 -1.51781 3.45315 0
M  V30 869 H 85.1995 -1.61999 2.46658 0
M  V30 870 H 85.2805 0.14541 2.55386 0
M  V30 871 H 84.9245 0.0146069 5.07898 0
M  V30 872 H 84.8545 -1.76172 4.96257 0
M  V30 873 H 87.3455 -0.876694 3.6759 0
M  V30 874 H 87.6585 -1.17872 7.63758 0
M  V30 875 H 86.0035 -1.06693 6.86762 0
M  V30 876 H 89.1945 -1.00382 4.5721 0
M  V30 877 H 89.3675 -1.14177 6.37862 0
M  V30 878 N 82.7736 -1.49793 -0.48987 0
M  V30 879 C 83.7366 -1.66752 -1.57246 0
M  V30 880 C 84.7366 -0.538867 -1.51502 0
M  V30 881 O 85.9266 -0.805545 -1.54456 0
M  V30 882 C 83.0586 -1.67528 -2.96896 0
M  V30 883 H 84.2516 -2.63321 -1.43534 0
M  V30 884 H 81.8046 -1.38992 -0.714914 0
M  V30 885 H 82.5396 -0.725837 -3.16073 0
M  V30 886 H 82.3246 -2.49504 -3.02473 0
M  V30 887 H 83.8146 -1.82667 -3.7553 0
M  V30 888 N 84.2517 0.741722 -1.39055 0
M  V30 889 C 85.4977 1.50336 -1.36113 0
M  V30 890 C 85.8307 1.94148 0.0450796 0
M  V30 891 O 85.1057 1.66301 1.00868 0
M  V30 892 C 85.3887 2.74773 -2.32749 0
M  V30 893 C 85.2417 2.37023 -3.82283 0
M  V30 894 C 86.5607 3.76846 -2.27322 0
M  V30 895 H 83.6797 0.545351 -0.495743 0
M  V30 896 H 86.3217 0.848624 -1.69995 0
M  V30 897 H 84.4717 3.30639 -2.03986 0
M  V30 898 H 86.1437 1.8684 -4.21768 0
M  V30 899 H 84.3867 1.69334 -3.99385 0
M  V30 900 H 85.0577 3.26104 -4.45376 0
M  V30 901 H 87.5337 3.30548 -2.5274 0
M  V30 902 H 86.4097 4.6159 -2.97028 0
M  V30 903 H 86.6707 4.23286 -1.27599 0
M  V30 904 N 85.7298 1.2412 0.971189 0
M  V30 905 C 86.6768 1.0305 2.06517 0
M  V30 906 C 87.6468 -0.0550666 1.66009 0
M  V30 907 O 88.8318 0.0988688 1.90544 0
M  V30 908 C 85.9718 0.637653 3.39158 0
M  V30 909 C 85.0848 1.79633 3.92882 0
M  V30 910 C 84.2198 1.34939 5.13775 0
M  V30 911 C 83.2588 2.47823 5.59687 0
M  V30 912 N 82.3958 2.04022 6.71803 0
M  V30 913 H 87.2358 1.96685 2.23873 0
M  V30 914 H 84.7728 0.979694 1.09729 0
M  V30 915 H 86.7308 0.390931 4.15364 0
M  V30 916 H 85.3608 -0.261693 3.21737 0
M  V30 917 H 84.4128 2.15681 3.13346 0
M  V30 918 H 85.7248 2.64466 4.22918 0
M  V30 919 H 84.8788 1.06134 5.97345 0
M  V30 920 H 83.6178 0.471557 4.85415 0
M  V30 921 H 82.6228 2.77392 4.74693 0
M  V30 922 H 83.8478 3.36158 5.90063 0
M  V30 923 H 81.7938 1.18632 6.45184 0
M  V30 924 H 81.7108 2.82409 7.01271 0
M  V30 925 H 82.9788 1.78347 7.58823 0
M  V30 926 N 87.2079 -1.17134 1.05439 0
M  V30 927 C 88.1549 -2.21235 0.657539 0
M  V30 928 C 89.1249 -1.62551 -0.341543 0
M  V30 929 O 90.3099 -1.89379 -0.232393 0
M  V30 930 C 87.4499 -3.45076 0.0410575 0
M  V30 931 C 86.5629 -4.18042 1.08927 0
M  V30 932 C 85.6979 -5.29376 0.439848 0
M  V30 933 C 84.7369 -5.94132 1.4722 0
M  V30 934 N 83.8739 -6.96975 0.846756 0
M  V30 935 H 88.7139 -2.54534 1.54972 0
M  V30 936 H 86.2509 -1.25028 0.775006 0
M  V30 937 H 88.2089 -4.15862 -0.33383 0
M  V30 938 H 86.8389 -3.12353 -0.814568 0
M  V30 939 H 85.8909 -3.45945 1.58196 0
M  V30 940 H 87.2029 -4.62306 1.87282 0
M  V30 941 H 86.3569 -6.06699 0.0115125 0
M  V30 942 H 85.0959 -4.86251 -0.375656 0
M  V30 943 H 84.1009 -5.15538 1.91052 0
M  V30 944 H 85.3259 -6.39337 2.28965 0
M  V30 945 H 83.2719 -6.5598 0.0518075 0
M  V30 946 H 83.1889 -7.39565 1.5678 0
M  V30 947 H 84.4569 -7.78239 0.443277 0
M  V30 948 N 88.686 -0.835752 -1.33615 0
M  V30 949 C 89.926 -0.43599 -1.99696 0
M  V30 950 C 90.29 0.98557 -1.64774 0
M  V30 951 O 91.491 1.48889 -2.23798 0
M  V30 952 C 89.762 -0.646721 -3.515 0
M  V30 953 S 91.321 -0.341715 -4.37467 0
M  V30 954 H 88.139 -0.164136 -0.691795 0
M  V30 955 H 90.741 -1.08436 -1.62671 0
M  V30 956 H 89.445 -1.68077 -3.74404 0
M  V30 957 H 88.976 0.0159173 -3.93397 0
M  V30 958 H 90.991 0.839708 -4.89043 0
M  V30 959 N 90.1641 1.46063 -0.591896 0
M  V30 960 C 91.3921 2.06717 -0.0868936 0
M  V30 961 C 91.8071 1.43916 1.22203 0
M  V30 962 O 91.1641 0.547698 1.74088 0
M  V30 963 C 91.2151 3.6142 0.0758725 0
M  V30 964 O 90.9361 4.21874 -1.18126 0
M  V30 965 C 92.4371 4.39025 0.61416 0
M  V30 966 H 89.6571 0.668162 -0.0616518 0
M  V30 967 H 92.2011 1.8755 -0.815175 0
M  V30 968 H 90.3561 3.79983 0.754413 0
M  V30 969 H 90.7701 5.14861 -1.00092 0
M  V30 970 H 92.2441 5.4783 0.677193 0
M  V30 971 H 92.7211 4.07708 1.63312 0
M  V30 972 H 93.3271 4.2529 -0.0298142 0
M  V30 973 N 91.6422 0.330177 1.54103 0
M  V30 974 C 93.0582 -0.0222371 1.59585 0
M  V30 975 C 93.2582 -1.49902 1.34654 0
M  V30 976 O 92.3142 -2.25592 1.13421 0
M  V30 977 C 93.6272 0.401932 2.98002 0
M  V30 978 C 95.1752 0.353145 3.11001 0
M  V30 979 C 95.6502 0.752576 4.51775 0
M  V30 980 N 97.1412 0.706239 4.57784 0
M  V30 981 C 97.8762 0.987417 5.64834 0
M  V30 982 N 97.3722 1.33607 6.79795 0
M  V30 983 N 99.1652 0.91254 5.54643 0
M  V30 984 H 91.3162 1.29228 1.68564 0
M  V30 985 H 93.5792 0.525906 0.78875 0
M  V30 986 H 93.2852 1.4311 3.21267 0
M  V30 987 H 93.1592 -0.229699 3.765 0
M  V30 988 H 95.5462 -0.666822 2.87467 0
M  V30 989 H 95.6272 1.0198 2.34593 0
M  V30 990 H 95.2712 1.77049 4.76042 0
M  V30 991 H 95.2012 0.0635409 5.26562 0
M  V30 992 H 97.6922 0.44889 3.75224 0
M  V30 993 H 98.0052 1.53582 7.57385 0
M  V30 994 H 96.3502 1.37439 6.81275 0
M  V30 995 H 99.5412 0.639601 4.6371 0
M  V30 996 H 99.7142 1.13503 6.37982 0
M  V30 997 N 93.1203 -1.57491 0.0584922 0
M  V30 998 C 94.3503 -1.9701 -0.622134 0
M  V30 999 C 94.7583 -0.935034 -1.6448 0
M  V30 1000 O 94.1013 0.0882904 -1.83488 0
M  V30 1001 C 94.1633 -3.32794 -1.35972 0
M  V30 1002 C 93.8273 -4.54343 -0.492043 0
M  V30 1003 C 94.8243 -5.19323 0.244901 0
M  V30 1004 C 92.5093 -5.00534 -0.420821 0
M  V30 1005 C 94.5033 -6.28835 1.04143 0
M  V30 1006 C 92.1903 -6.09921 0.379389 0
M  V30 1007 C 93.1883 -6.73933 1.10919 0
M  V30 1008 O 92.8763 -7.81216 1.89623 0
M  V30 1009 H 92.6083 -0.653127 -0.174359 0
M  V30 1010 H 95.1623 -2.05029 0.123418 0
M  V30 1011 H 93.3923 -3.21351 -2.15105 0
M  V30 1012 H 95.0813 -3.5701 -1.93129 0
M  V30 1013 H 95.8473 -4.8459 0.19939 0
M  V30 1014 H 91.7263 -4.50496 -0.978474 0
M  V30 1015 H 95.2703 -6.7873 1.61157 0
M  V30 1016 H 91.1673 -6.44089 0.426512 0
M  V30 1017 H 91.9353 -7.98029 1.81913 0
M  V30 1018 N 94.5984 0.214957 -1.56127 0
M  V30 1019 C 95.8474 0.936451 -1.78643 0
M  V30 1020 C 96.1604 1.85237 -0.628229 0
M  V30 1021 O 97.3664 2.613 -0.737186 0
M  V30 1022 C 95.8224 1.7154 -3.16389 0
M  V30 1023 C 95.4304 0.845299 -4.39953 0
M  V30 1024 C 97.1744 2.42772 -3.48227 0
M  V30 1025 C 95.0814 1.62198 -5.68723 0
M  V30 1026 H 94.0114 0.353401 -0.666051 0
M  V30 1027 H 96.6624 0.190169 -1.82512 0
M  V30 1028 H 95.0444 2.50484 -3.06715 0
M  V30 1029 H 96.2184 0.0959353 -4.607 0
M  V30 1030 H 94.5334 0.244789 -4.1568 0
M  V30 1031 H 97.1304 3.01394 -4.41663 0
M  V30 1032 H 97.4734 3.15984 -2.71035 0
M  V30 1033 H 98.0064 1.70813 -3.5926 0
M  V30 1034 H 94.7454 0.933011 -6.48826 0
M  V30 1035 H 94.2654 2.34579 -5.52026 0
M  V30 1036 H 95.9444 2.18095 -6.09133 0
M  V30 1037 N 96.0765 1.50051 0.48192 0
M  V30 1038 C 97.3535 1.51009 1.2432 0
M  V30 1039 C 97.7335 0.248587 2.09631 0
M  V30 1040 O 97.0815 -0.768409 2.15192 0
M  V30 1041 C 97.2915 2.79981 2.08355 0
M  V30 1042 C 98.6395 3.3022 2.66908 0
M  V30 1043 O 99.6635 2.81228 2.18607 0
M  V30 1044 O 98.5225 4.15595 3.54884 0
M  V30 1045 H 95.6165 0.605239 0.563573 0
M  V30 1046 H 98.1625 1.62332 0.494627 0
M  V30 1047 H 96.9345 3.63275 1.45419 0
M  V30 1048 H 96.5575 2.7161 2.90368 0
M  V30 1049 N 97.5546 -0.734337 1.39446 0
M  V30 1050 C 98.7946 -1.50655 1.38139 0
M  V30 1051 C 99.1586 -1.91986 -0.0228701 0
M  V30 1052 O 100.36 -2.68318 -0.160947 0
M  V30 1053 C 98.6306 -2.71251 2.32718 0
M  V30 1054 S 100.19 -3.60892 2.49605 0
M  V30 1055 H 97.0076 -0.515315 0.489869 0
M  V30 1056 H 99.6096 -0.860392 1.75549 0
M  V30 1057 H 98.3136 -2.39027 3.33608 0
M  V30 1058 H 97.8446 -3.40795 1.96526 0
M  V30 1059 H 99.8596 -4.64899 1.73446 0
M  V30 1060 N 99.0327 -1.24633 -0.964593 0
M  V30 1061 C 100.31 -0.995809 -1.68354 0
M  V30 1062 C 100.69 0.480964 -2.05548 0
M  V30 1063 O 100.038 1.45599 -1.76105 0
M  V30 1064 C 100.248 -1.92177 -2.91323 0
M  V30 1065 C 101.596 -2.19446 -3.63495 0
M  V30 1066 O 102.62 -1.89855 -3.01386 0
M  V30 1067 O 101.479 -2.69714 -4.75307 0
M  V30 1068 H 98.5727 -0.376854 -0.736146 0
M  V30 1069 H 101.119 -1.35745 -1.0184 0
M  V30 1070 H 99.8907 -2.91938 -2.60553 0
M  V30 1071 H 99.5137 -1.56349 -3.65569 0
M  V30 1072 N 100.511 1.16574 -1.06058 0
M  V30 1073 C 101.441 2.23057 -0.690488 0
M  V30 1074 C 102.422 1.67141 0.315901 0
M  V30 1075 O 103.607 1.93253 0.191556 0
M  V30 1076 C 100.737 3.47222 -0.073625 0
M  V30 1077 C 99.6908 4.16016 -1.00573 0
M  V30 1078 C 99.0168 5.34104 -0.252289 0
M  V30 1079 C 100.317 4.67264 -2.33371 0
M  V30 1080 H 102.011 2.54271 -1.58072 0
M  V30 1081 H 99.5568 1.22218 -0.76149 0
M  V30 1082 H 101.51 4.20939 0.19714 0
M  V30 1083 H 100.234 3.15302 0.85161 0
M  V30 1084 H 98.8928 3.44223 -1.2612 0
M  V30 1085 H 98.5408 4.98437 0.675988 0
M  V30 1086 H 98.2408 5.81072 -0.873455 0
M  V30 1087 H 99.7648 6.10599 0.0109857 0
M  V30 1088 H 101.179 5.32573 -2.12223 0
M  V30 1089 H 99.5758 5.24843 -2.90963 0
M  V30 1090 H 100.646 3.83602 -2.96611 0
M  V30 1091 N 101.989 0.842826 1.3317 0
M  V30 1092 C 102.937 0.267495 2.31057 0
M  V30 1093 C 103.931 -0.602682 1.58316 0
M  V30 1094 O 105.137 -0.491803 1.73151 0
M  V30 1095 H 101.512 0.0677813 0.748939 0
M  V30 1096 H 103.483 1.10754 2.77085 0
M  V30 1097 C 102.232 -0.539331 3.43492 0
M  V30 1098 H 101.555 0.12095 3.99617 0
M  V30 1099 H 102.995 -0.90767 4.14171 0
M  V30 1100 C 101.454 -1.71981 2.89697 0
M  V30 1101 O 101.984 -2.81862 2.86211 0
M  V30 1102 N 100.19 -1.54299 2.46252 0
M  V30 1103 H 99.7369 -0.649143 2.49287 0
M  V30 1104 H 99.6949 -2.33431 2.10612 0
M  V30 1105 N 103.467 -1.45747 0.599634 0
M  V30 1106 C 104.883 -1.57424 0.26264 0
M  V30 1107 C 105.083 -1.59222 -1.23493 0
M  V30 1108 O 104.139 -1.51825 -2.01756 0
M  V30 1109 C 105.452 -2.86061 0.926795 0
M  V30 1110 C 107 -2.99722 0.901967 0
M  V30 1111 C 107.475 -4.31119 1.54598 0
M  V30 1112 N 108.966 -4.37858 1.5111 0
M  V30 1113 C 109.701 -5.3818 1.97863 0
M  V30 1114 N 109.197 -6.45083 2.52666 0
M  V30 1115 N 110.99 -5.29487 1.88679 0
M  V30 1116 H 103.141 -1.42823 1.57211 0
M  V30 1117 H 105.404 -0.68235 0.658105 0
M  V30 1118 H 105.11 -2.90605 1.98095 0
M  V30 1119 H 104.984 -3.74563 0.445238 0
M  V30 1120 H 107.371 -2.9475 -0.143617 0
M  V30 1121 H 107.452 -2.12652 1.42171 0
M  V30 1122 H 107.096 -4.36849 2.59085 0
M  V30 1123 H 107.026 -5.16992 1.00132 0
M  V30 1124 H 109.517 -3.61209 1.11068 0
M  V30 1125 H 109.83 -7.17869 2.86155 0
M  V30 1126 H 108.175 -6.45856 2.56701 0
M  V30 1127 H 111.366 -4.44877 1.4561 0
M  V30 1128 H 111.539 -6.07524 2.25429 0
M  V30 1129 N 104.945 -0.338344 -1.53925 0
M  V30 1130 C 106.194 0.260732 -2.00008 0
M  V30 1131 C 106.507 1.52073 -1.23017 0
M  V30 1132 O 107.713 2.19672 -1.5955 0
M  V30 1133 C 106.169 0.51515 -3.56194 0
M  V30 1134 C 105.777 -0.728645 -4.42035 0
M  V30 1135 C 107.521 1.07337 -4.10706 0
M  V30 1136 C 105.428 -0.445315 -5.89721 0
M  V30 1137 H 104.358 0.101205 -0.747177 0
M  V30 1138 H 107.009 -0.452866 -1.77824 0
M  V30 1139 H 105.391 1.28932 -3.74423 0
M  V30 1140 H 106.565 -1.50352 -4.35581 0
M  V30 1141 H 104.88 -1.20813 -3.98489 0
M  V30 1142 H 107.477 1.30022 -5.18651 0
M  V30 1143 H 107.82 2.0273 -3.63602 0
M  V30 1144 H 108.353 0.360034 -3.96167 0
M  V30 1145 H 105.092 -1.36883 -6.41049 0
M  V30 1146 H 104.612 0.291569 -5.99091 0
M  V30 1147 H 106.291 -0.0606218 -6.46972 0
M  V30 1148 N 106.423 1.57458 -0.0668435 0
M  V30 1149 C 107.67 1.93301 0.603406 0
M  V30 1150 C 107.998 0.946486 1.69917 0
M  V30 1151 O 107.253 -0.0387021 1.95662 0
M  V30 1152 C 107.552 3.35784 1.22409 0
M  V30 1153 C 107.218 4.50179 0.254955 0
M  V30 1154 C 105.88 4.81199 -0.0116746 0
M  V30 1155 C 108.232 5.19598 -0.408338 0
M  V30 1156 C 105.56 5.78978 -0.94877 0
M  V30 1157 C 107.912 6.18381 -1.33372 0
M  V30 1158 C 106.576 6.47821 -1.60887 0
M  V30 1159 H 105.846 0.707338 0.220802 0
M  V30 1160 H 108.493 1.91012 -0.136665 0
M  V30 1161 H 106.798 3.34515 2.03978 0
M  V30 1162 H 108.495 3.60804 1.74989 0
M  V30 1163 H 105.085 4.25983 0.472954 0
M  V30 1164 H 109.269 4.95832 -0.215456 0
M  V30 1165 H 104.525 6.00115 -1.16925 0
M  V30 1166 H 108.699 6.71277 -1.85367 0
M  V30 1167 H 106.326 7.23399 -2.33661 0
M  V30 1168 N 107.901 -0.206675 1.56239 0
M  V30 1169 C 109.178 -0.954051 1.70755 0
M  V30 1170 C 109.558 -2.01841 0.618353 0
M  V30 1171 O 108.906 -2.25444 -0.372434 0
M  V30 1172 C 109.116 -1.551 3.12642 0
M  V30 1173 C 110.464 -2.03757 3.72516 0
M  V30 1174 O 111.488 -1.64965 3.15698 0
M  V30 1175 O 110.347 -2.75103 4.72208 0
M  V30 1176 H 107.441 -0.446636 0.696021 0
M  V30 1177 H 109.987 -0.197283 1.68549 0
M  V30 1178 H 108.759 -0.783212 3.83382 0
M  V30 1179 H 108.382 -2.37291 3.19028 0
M  V30 1180 N 109.379 -1.50304 -0.473955 0
M  V30 1181 C 110.309 -1.71886 -1.58042 0
M  V30 1182 C 111.29 -0.567799 -1.60344 0
M  V30 1183 O 112.475 -0.806623 -1.76656 0
M  V30 1184 C 109.605 -1.81036 -2.96384 0
M  V30 1185 C 108.559 -2.962 -3.08949 0
M  V30 1186 C 107.885 -2.9049 -4.48909 0
M  V30 1187 C 109.185 -4.36752 -2.86434 0
M  V30 1188 H 110.879 -2.64527 -1.40234 0
M  V30 1189 H 108.425 -1.27295 -0.673201 0
M  V30 1190 H 110.378 -1.94719 -3.73714 0
M  V30 1191 H 109.102 -0.850147 -3.15341 0
M  V30 1192 H 107.761 -2.82164 -2.3405 0
M  V30 1193 H 107.409 -1.92321 -4.64781 0
M  V30 1194 H 107.109 -3.67802 -4.58253 0
M  V30 1195 H 108.633 -3.06218 -5.28264 0
M  V30 1196 H 110.047 -4.5133 -3.53517 0
M  V30 1197 H 108.444 -5.15493 -3.07225 0
M  V30 1198 H 109.514 -4.49321 -1.82316 0
M  V30 1199 N 110.857 0.726932 -1.39834 0
M  V30 1200 C 111.767 1.87131 -1.41489 0
M  V30 1201 C 112.783 1.71239 -0.308757 0
M  V30 1202 O 113.959 1.93701 -0.551529 0
M  V30 1203 C 111.024 3.22811 -1.26468 0
M  V30 1204 C 110.085 3.51039 -2.47124 0
M  V30 1205 C 109.318 4.80245 -2.3281 0
M  V30 1206 O 109.541 5.54537 -1.33585 0
M  V30 1207 O 108.475 5.08554 -3.21957 0
M  V30 1208 H 112.301 1.8869 -2.3797 0
M  V30 1209 H 109.886 0.875837 -1.21035 0
M  V30 1210 H 111.768 4.03877 -1.20255 0
M  V30 1211 H 110.443 3.22005 -0.330862 0
M  V30 1212 H 109.35 2.70027 -2.58914 0
M  V30 1213 H 110.683 3.56632 -3.39227 0
M  V30 1214 N 112.336 1.25143 0.95797 0
M  V30 1215 C 113.284 1.05019 2.07542 0
M  V30 1216 C 114.278 -0.0178751 1.69391 0
M  V30 1217 O 115.484 0.137472 1.79474 0
M  V30 1218 H 111.859 0.32265 0.679265 0
M  V30 1219 H 113.83 1.99759 2.21673 0
M  V30 1220 C 112.579 0.682074 3.40944 0
M  V30 1221 H 111.902 1.49573 3.70767 0
M  V30 1222 H 113.342 0.580945 4.20001 0
M  V30 1223 C 111.801 -0.611608 3.31302 0
M  V30 1224 O 112.331 -1.65465 3.66038 0
M  V30 1225 N 110.537 -0.595982 2.84423 0
M  V30 1226 H 110.084 0.253192 2.56353 0
M  V30 1227 H 110.042 -1.46173 2.78354 0
M  V30 1228 N 113.814 -1.1601 1.06675 0
M  V30 1229 C 114.744 -2.22688 0.702307 0
M  V30 1230 C 115.725 -1.67306 -0.307032 0
M  V30 1231 O 116.91 -1.93352 -0.181305 0
M  V30 1232 C 114.04 -3.47178 0.092038 0
M  V30 1233 C 112.994 -4.15477 1.02777 0
M  V30 1234 C 112.32 -5.33963 0.28061 0
M  V30 1235 C 113.62 -4.66019 2.35846 0
M  V30 1236 H 115.314 -2.53429 1.59419 0
M  V30 1237 H 112.86 -1.21813 0.767961 0
M  V30 1238 H 114.813 -4.21037 -0.174814 0
M  V30 1239 H 113.537 -3.15749 -0.834877 0
M  V30 1240 H 112.196 -3.43549 1.27944 0
M  V30 1241 H 111.844 -4.98788 -0.649545 0
M  V30 1242 H 111.544 -5.806 0.904258 0
M  V30 1243 H 113.068 -6.10596 0.021396 0
M  V30 1244 H 114.482 -5.3144 2.15045 0
M  V30 1245 H 112.879 -5.23293 2.93743 0
M  V30 1246 H 113.949 -3.82023 2.98641 0
M  V30 1247 N 115.292 -0.849877 -1.32721 0
M  V30 1248 C 116.54 -0.450032 -1.97026 0
M  V30 1249 C 116.861 0.996604 -1.67609 0
M  V30 1250 O 116.131 1.6958 -0.980786 0
M  V30 1251 H 114.711 -0.163426 -0.728904 0
M  V30 1252 H 117.373 -1.08526 -1.6189 0
M  V30 1253 H 116.469 -0.591146 -3.0645 0
M  V30 1254 N 116.77 1.45427 -0.607355 0
M  V30 1255 C 117.717 2.3053 0.111625 0
M  V30 1256 C 118.687 1.4209 0.860216 0
M  V30 1257 O 119.872 1.71019 0.845998 0
M  V30 1258 C 117.012 3.26992 1.10319 0
M  V30 1259 C 116.125 4.30535 0.355493 0
M  V30 1260 C 115.26 5.14105 1.33676 0
M  V30 1261 C 114.299 6.09376 0.576862 0
M  V30 1262 N 113.436 6.85727 1.5074 0
M  V30 1263 H 118.276 2.91477 -0.620093 0
M  V30 1264 H 115.813 1.43631 -0.317594 0
M  V30 1265 H 117.771 3.81385 1.6912 0
M  V30 1266 H 116.401 2.67799 1.80232 0
M  V30 1267 H 115.453 3.78805 -0.348023 0
M  V30 1268 H 116.765 4.98235 -0.237423 0
M  V30 1269 H 115.919 5.72897 1.99684 0
M  V30 1270 H 114.658 4.46423 1.9636 0
M  V30 1271 H 113.663 5.49715 -0.0968519 0
M  V30 1272 H 114.888 6.79085 -0.0449341 0
M  V30 1273 H 112.834 6.20735 2.12189 0
M  V30 1274 H 112.751 7.49778 0.967913 0
M  V30 1275 H 114.019 7.4906 2.15706 0
M  V30 1276 N 118.248 0.346503 1.53744 0
M  V30 1277 C 119.195 -0.508914 2.25119 0
M  V30 1278 C 120.165 -1.09315 1.25058 0
M  V30 1279 O 121.35 -1.12921 1.53797 0
M  V30 1280 C 118.49 -1.65246 3.02965 0
M  V30 1281 C 117.603 -1.09525 4.17886 0
M  V30 1282 C 116.738 -2.20634 4.83212 0
M  V30 1283 C 115.777 -1.62279 5.90196 0
M  V30 1284 N 114.914 -2.67143 6.49291 0
M  V30 1285 H 119.754 0.106283 2.9781 0
M  V30 1286 H 117.291 0.0642227 1.4696 0
M  V30 1287 H 119.249 -2.32574 3.4636 0
M  V30 1288 H 117.879 -2.2386 2.32565 0
M  V30 1289 H 116.931 -0.312818 3.79112 0
M  V30 1290 H 118.243 -0.628444 4.94825 0
M  V30 1291 H 117.397 -2.95821 5.29693 0
M  V30 1292 H 116.136 -2.70659 4.05703 0
M  V30 1293 H 115.141 -0.855989 5.43096 0
M  V30 1294 H 116.366 -1.13102 6.69615 0
M  V30 1295 H 114.312 -3.16417 5.74645 0
M  V30 1296 H 114.229 -2.25093 7.21713 0
M  V30 1297 H 115.497 -3.4209 7.00425 0
M  V30 1298 N 119.726 -1.57421 0.075193 0
M  V30 1299 C 120.659 -2.08528 -0.926904 0
M  V30 1300 C 121.637 -0.991171 -1.28898 0
M  V30 1301 O 122.821 -1.26479 -1.39769 0
M  V30 1302 C 119.948 -2.54576 -2.23402 0
M  V30 1303 C 118.994 -3.75454 -2.02327 0
M  V30 1304 S 119.827 -5.19989 -1.27951 0
M  V30 1305 C 120.983 -5.69372 -2.59935 0
M  V30 1306 H 121.216 -2.932 -0.492048 0
M  V30 1307 H 118.749 -1.53785 -0.137651 0
M  V30 1308 H 120.707 -2.81767 -2.98526 0
M  V30 1309 H 119.368 -1.70166 -2.64012 0
M  V30 1310 H 118.561 -4.05675 -2.99071 0
M  V30 1311 H 118.163 -3.48654 -1.35339 0
M  V30 1312 H 120.455 -5.76424 -3.56008 0
M  V30 1313 H 121.398 -6.68207 -2.34319 0
M  V30 1314 H 121.806 -4.97205 -2.67296 0
M  V30 1315 N 121.204 0.198386 -1.56346 0
M  V30 1316 C 122.429 0.939682 -1.84891 0
M  V30 1317 C 122.854 1.76202 -0.658369 0
M  V30 1318 O 122.212 1.76993 0.392851 0
M  V30 1319 C 122.26 1.81428 -3.11635 0
M  V30 1320 O 121.364 2.91265 -2.91956 0
M  V30 1321 H 120.705 0.264807 -0.608912 0
M  V30 1322 H 123.235 0.204695 -2.03573 0
M  V30 1323 H 123.245 2.21958 -3.42343 0
M  V30 1324 H 121.92 1.21004 -3.97908 0
M  V30 1325 H 120.497 2.54514 -2.72538 0
M  V30 1326 N 122.682 1.50554 0.465978 0
M  V30 1327 C 123.592 1.72585 1.58907 0
M  V30 1328 C 124.608 0.60911 1.6299 0
M  V30 1329 O 125.784 0.88804 1.80765 0
M  V30 1330 C 122.849 1.81995 2.95091 0
M  V30 1331 C 121.91 3.05751 3.01355 0
M  V30 1332 C 121.143 3.14702 4.31043 0
M  V30 1333 O 121.366 2.30313 5.21835 0
M  V30 1334 O 120.3 4.07468 4.43005 0
M  V30 1335 H 124.126 2.67799 1.43239 0
M  V30 1336 H 121.711 1.34711 0.646013 0
M  V30 1337 H 123.593 1.90335 3.75966 0
M  V30 1338 H 122.268 0.899659 3.10947 0
M  V30 1339 H 121.175 3.02908 2.19539 0
M  V30 1340 H 122.508 3.97375 2.90437 0
M  V30 1341 N 124.16 -0.719506 1.40217 0
M  V30 1342 C 125.437 -1.47221 1.28784 0
M  V30 1343 C 125.817 -2.10883 -0.0956067 0
M  V30 1344 O 125.165 -1.99833 -1.10811 0
M  V30 1345 C 125.375 -2.5111 2.42373 0
M  V30 1346 C 126.723 -3.17053 2.82423 0
M  V30 1347 O 127.747 -2.61429 2.41937 0
M  V30 1348 O 126.606 -4.17742 3.52355 0
M  V30 1349 H 123.7 -0.654491 0.50554 0
M  V30 1350 H 126.246 -0.752014 1.52128 0
M  V30 1351 H 125.018 -2.02556 3.34793 0
M  V30 1352 H 124.641 -3.3067 2.20778 0
M  V30 1353 N 125.638 -1.25649 -0.95132 0
M  V30 1354 C 126.568 -1.08808 -2.06599 0
M  V30 1355 C 127.549 0.00382547 -1.701 0
M  V30 1356 O 128.734 -0.166325 -1.93486 0
M  V30 1357 C 125.864 -0.709542 -3.39975 0
M  V30 1358 C 124.818 -1.75206 -3.90496 0
M  V30 1359 C 124.144 -1.22811 -5.20405 0
M  V30 1360 C 125.444 -3.15153 -4.16504 0
M  V30 1361 H 127.138 -2.02048 -2.20946 0
M  V30 1362 H 124.684 -0.972835 -1.06169 0
M  V30 1363 H 126.637 -0.578649 -4.17408 0
M  V30 1364 H 125.361 0.258556 -3.25575 0
M  V30 1365 H 124.02 -1.87145 -3.15234 0
M  V30 1366 H 123.668 -0.250145 -5.02378 0
M  V30 1367 H 123.368 -1.92492 -5.55176 0
M  V30 1368 H 124.892 -1.10968 -6.00432 0
M  V30 1369 H 126.306 -3.06349 -4.84586 0
M  V30 1370 H 124.703 -3.82333 -4.62538 0
M  V30 1371 H 125.773 -3.61966 -3.22658 0
M  V30 1372 N 127.117 1.15442 -1.07289 0
M  V30 1373 C 128.528 1.67803 -0.818475 0
M  V30 1374 C 128.879 1.8489 0.656507 0
M  V30 1375 O 128.004 1.55176 1.50829 0
M  V30 1376 C 128.599 3.04805 -1.47917 0
M  V30 1377 C 127.158 3.54245 -1.27229 0
M  V30 1378 C 126.305 2.29986 -1.54925 0
M  V30 1379 H 129.256 0.996646 -1.23502 0
M  V30 1380 H 129.277 3.69702 -0.90005 0
M  V30 1381 H 128.789 2.92336 -2.55267 0
M  V30 1382 H 126.89 3.71956 -0.21899 0
M  V30 1383 H 127.003 4.35723 -1.99203 0
M  V30 1384 H 125.367 2.35496 -0.970242 0
M  V30 1385 H 126.15 2.20105 -2.63455 0
M  V30 1386 N 128.595 0.856903 1.32268 0
M  V30 1387 C 129.825 0.47475 2.01071 0
M  V30 1388 C 130.233 -0.933746 1.64553 0
M  V30 1389 O 129.576 -1.62114 0.863989 0
M  V30 1390 C 129.638 0.536746 3.55471 0
M  V30 1391 C 129.302 1.90453 4.15423 0
M  V30 1392 C 130.299 2.87029 4.33486 0
M  V30 1393 C 127.984 2.20229 4.51447 0
M  V30 1394 C 129.978 4.11532 4.86744 0
M  V30 1395 C 127.665 3.44984 5.0441 0
M  V30 1396 C 128.663 4.40452 5.22007 0
M  V30 1397 O 128.351 5.62998 5.73837 0
M  V30 1398 H 128.083 0.184778 0.650256 0
M  V30 1399 H 130.637 1.15615 1.69771 0
M  V30 1400 H 128.867 -0.20152 3.86175 0
M  V30 1401 H 130.556 0.169875 4.05544 0
M  V30 1402 H 131.322 2.6533 4.05986 0
M  V30 1403 H 127.201 1.46705 4.37034 0
M  V30 1404 H 130.745 4.86056 5.00395 0
M  V30 1405 H 126.642 3.66532 5.31342 0
M  V30 1406 H 127.41 5.64987 5.92226 0
M  V30 1407 N 130.073 -1.45103 0.615059 0
M  V30 1408 C 130.983 -2.34382 -0.101034 0
M  V30 1409 C 131.999 -1.51681 -0.852585 0
M  V30 1410 O 133.175 -1.8446 -0.808484 0
M  V30 1411 C 130.24 -3.29417 -1.08099 0
M  V30 1412 C 129.301 -4.28025 -0.330577 0
M  V30 1413 C 128.534 -5.1852 -1.26385 0
M  V30 1414 O 128.757 -5.12598 -2.50198 0
M  V30 1415 O 127.691 -5.97122 -0.756866 0
M  V30 1416 H 131.517 -2.97033 0.632855 0
M  V30 1417 H 129.102 -1.4461 0.375293 0
M  V30 1418 H 130.984 -3.87958 -1.6452 0
M  V30 1419 H 129.659 -2.69321 -1.79577 0
M  V30 1420 H 128.566 -3.73078 0.276283 0
M  V30 1421 H 129.899 -4.90997 0.343866 0
M  V30 1422 N 131.551 -0.354651 -1.53558 0
M  V30 1423 C 132.797 0.238797 -2.01389 0
M  V30 1424 C 133.13 1.49309 -1.2418 0
M  V30 1425 O 132.405 1.91638 -0.332457 0
M  V30 1426 C 132.688 0.541771 -3.56001 0
M  V30 1427 C 132.541 -0.725388 -4.43912 0
M  V30 1428 C 133.86 1.34685 -4.18984 0
M  V30 1429 H 130.979 0.0853177 -0.732045 0
M  V30 1430 H 133.621 -0.477384 -1.83905 0
M  V30 1431 H 131.771 1.15189 -3.71031 0
M  V30 1432 H 133.443 -1.36313 -4.407 0
M  V30 1433 H 131.686 -1.34801 -4.12324 0
M  V30 1434 H 132.357 -0.468505 -5.50008 0
M  V30 1435 H 134.833 0.830837 -4.07721 0
M  V30 1436 H 133.709 1.52759 -5.27215 0
M  V30 1437 H 133.97 2.35221 -3.74331 0
M  V30 1438 N 133.029 1.57378 -0.0835403 0
M  V30 1439 C 134.445 1.57246 0.273109 0
M  V30 1440 C 134.645 1.09385 1.69225 0
M  V30 1441 O 133.701 0.765051 2.40631 0
M  V30 1442 C 135.014 3.00614 0.0720628 0
M  V30 1443 C 136.562 3.12684 0.1407 0
M  V30 1444 C 137.037 4.57989 -0.0322094 0
M  V30 1445 N 138.528 4.63194 0.0230085 0
M  V30 1446 C 139.263 5.73335 -0.0861941 0
M  V30 1447 N 138.759 6.9235 -0.24958 0
M  V30 1448 N 140.552 5.62093 -0.0282886 0
M  V30 1449 H 132.703 1.86801 -1.0109 0
M  V30 1450 H 134.966 0.861687 -0.395222 0
M  V30 1451 H 134.672 3.39786 -0.907662 0
M  V30 1452 H 134.546 3.68193 0.81936 0
M  V30 1453 H 136.933 2.73391 1.11092 0
M  V30 1454 H 137.014 2.47719 -0.637896 0
M  V30 1455 H 136.658 4.97973 -0.999247 0
M  V30 1456 H 136.588 5.21 0.765937 0
M  V30 1457 H 139.079 3.77613 0.14722 0
M  V30 1458 H 139.392 7.72117 -0.324733 0
M  V30 1459 H 137.737 6.94415 -0.285097 0
M  V30 1460 H 140.928 4.67997 0.0981408 0
M  V30 1461 H 141.101 6.47895 -0.116845 0
M  V30 1462 N 134.507 -0.190092 1.56449 0
M  V30 1463 C 135.923 -0.54113 1.50146 0
M  V30 1464 C 136.123 -1.85603 0.784465 0
M  V30 1465 O 135.179 -2.5024 0.337051 0
M  V30 1466 C 136.492 -0.591241 2.9483 0
M  V30 1467 C 138.04 -0.679732 3.0553 0
M  V30 1468 C 138.515 -0.760908 4.51635 0
M  V30 1469 N 140.006 -0.824302 4.55806 0
M  V30 1470 C 140.741 -0.907365 5.66175 0
M  V30 1471 N 140.237 -0.952422 6.86222 0
M  V30 1472 N 142.03 -0.94494 5.541 0
M  V30 1473 H 134.181 0.67235 2.01478 0
M  V30 1474 H 136.444 0.240127 0.917084 0
M  V30 1475 H 136.15 0.305905 3.50367 0
M  V30 1476 H 136.024 -1.44422 3.48457 0
M  V30 1477 H 138.411 -1.56731 2.50039 0
M  V30 1478 H 138.492 0.199549 2.5502 0
M  V30 1479 H 138.136 0.122336 5.07753 0
M  V30 1480 H 138.066 -1.65606 4.99882 0
M  V30 1481 H 140.557 -0.798526 3.69367 0
M  V30 1482 H 140.87 -1.01645 7.66086 0
M  V30 1483 H 139.215 -0.921014 6.8887 0
M  V30 1484 H 142.406 -0.906612 4.59236 0
M  V30 1485 H 142.579 -1.00622 6.4014 0
M  V30 1486 N 135.985 -1.50799 -0.457987 0
M  V30 1487 C 136.948 -1.7005 -1.53674 0
M  V30 1488 C 137.948 -0.570881 -1.50325 0
M  V30 1489 O 139.138 -0.838126 -1.52712 0
M  V30 1490 C 136.27 -1.73788 -2.93276 0
M  V30 1491 H 137.463 -2.66306 -1.37917 0
M  V30 1492 H 135.016 -1.40477 -0.685271 0
M  V30 1493 H 135.751 -0.792717 -3.14462 0
M  V30 1494 H 135.536 -2.55864 -2.97113 0
M  V30 1495 H 137.026 -1.90591 -3.71571 0
M  V30 1496 N 137.463 0.71206 -1.40597 0
M  V30 1497 C 138.395 1.83704 -1.37061 0
M  V30 1498 C 139.408 1.60453 -0.275426 0
M  V30 1499 O 140.597 1.70262 -0.53602 0
M  V30 1500 C 137.697 3.20172 -1.11099 0
M  V30 1501 C 136.87 3.7059 -2.3234 0
M  V30 1502 C 135.929 4.85681 -2.02485 0
M  V30 1503 O 134.955 4.9815 -2.75382 0
M  V30 1504 N 136.157 5.71735 -1.00497 0
M  V30 1505 H 138.922 1.87235 -2.34016 0
M  V30 1506 H 136.483 0.893739 -1.34996 0
M  V30 1507 H 138.475 3.94768 -0.891064 0
M  V30 1508 H 137.045 3.11767 -0.227989 0
M  V30 1509 H 136.265 2.87085 -2.7014 0
M  V30 1510 H 137.553 4.01011 -3.13157 0
M  V30 1511 H 136.951 5.64275 -0.401298 0
M  V30 1512 H 135.508 6.463 -0.844942 0
M  V30 1513 N 138.941 1.26152 0.944643 0
M  V30 1514 C 139.851 1.09176 2.07648 0
M  V30 1515 C 140.867 0.0261935 1.7398 0
M  V30 1516 O 142.043 0.229208 2.00091 0
M  V30 1517 C 139.108 0.722915 3.39079 0
M  V30 1518 C 138.169 1.86752 3.86552 0
M  V30 1519 C 137.402 1.51617 5.11711 0
M  V30 1520 O 137.625 0.416331 5.68879 0
M  V30 1521 O 136.559 2.34975 5.54139 0
M  V30 1522 H 140.385 2.0412 2.24875 0
M  V30 1523 H 137.97 1.05182 1.061 0
M  V30 1524 H 139.852 0.529787 4.18056 0
M  V30 1525 H 138.527 -0.197159 3.23099 0
M  V30 1526 H 137.434 2.11558 3.08535 0
M  V30 1527 H 138.767 2.76719 4.07047 0
M  V30 1528 N 140.419 -1.14872 1.07899 0
M  V30 1529 C 141.668 -1.85135 0.800499 0
M  V30 1530 C 141.981 -1.83547 -0.676014 0
M  V30 1531 O 143.187 -2.49548 -1.06948 0
M  V30 1532 C 141.643 -3.3231 1.38197 0
M  V30 1533 C 141.251 -3.42329 2.8899 0
M  V30 1534 C 142.995 -4.0772 1.18174 0
M  V30 1535 C 140.902 -4.83684 3.403 0
M  V30 1536 H 139.832 -0.693563 0.29578 0
M  V30 1537 H 142.483 -1.29532 1.29976 0
M  V30 1538 H 140.865 -3.87618 0.810431 0
M  V30 1539 H 142.039 -2.97097 3.52236 0
M  V30 1540 H 140.354 -2.80369 3.07867 0
M  V30 1541 H 142.951 -5.12049 1.5398 0
M  V30 1542 H 143.294 -4.16124 0.12117 0
M  V30 1543 H 143.827 -3.58696 1.71994 0
M  V30 1544 H 140.566 -4.80465 4.45907 0
M  V30 1545 H 140.086 -5.29474 2.81811 0
M  V30 1546 H 141.765 -5.52558 3.36584 0
M  V30 1547 N 141.898 -0.863906 -1.31812 0
M  V30 1548 C 142.846 -0.30422 -2.30602 0
M  V30 1549 C 143.84 0.577419 -1.59255 0
M  V30 1550 O 145.046 0.464194 -1.73912 0
M  V30 1551 H 141.421 -0.0796877 -0.747766 0
M  V30 1552 H 143.392 -1.15148 -2.75288 0
M  V30 1553 C 142.141 0.484617 -3.44306 0
M  V30 1554 H 141.464 -0.18451 -3.99374 0
M  V30 1555 H 142.904 0.841664 -4.15562 0
M  V30 1556 C 141.363 1.6735 -2.92396 0
M  V30 1557 O 141.893 2.77273 -2.90659 0
M  V30 1558 N 140.099 1.50362 -2.48676 0
M  V30 1559 H 139.646 0.609402 -2.50288 0
M  V30 1560 H 139.604 2.30051 -2.14299 0
M  V30 1561 N 143.376 1.44774 -0.622745 0
M  V30 1562 C 144.326 2.2774 0.108889 0
M  V30 1563 C 145.31 1.38189 0.824175 0
M  V30 1564 O 146.502 1.62063 0.711664 0
M  V30 1565 C 143.631 3.25353 1.09546 0
M  V30 1566 C 142.717 4.22392 0.380232 0
M  V30 1567 N 143.108 5.02388 -0.586535 0
M  V30 1568 C 141.406 4.41588 0.625792 0
M  V30 1569 C 142.107 5.72894 -1.00834 0
M  V30 1570 N 141.083 5.42479 -0.348878 0
M  V30 1571 H 144.885 2.86993 -0.63341 0
M  V30 1572 H 142.399 1.5611 -0.447589 0
M  V30 1573 H 144.396 3.83538 1.63414 0
M  V30 1574 H 143.056 2.6766 1.83815 0
M  V30 1575 H 144.067 5.0885 -0.963975 0
M  V30 1576 H 140.744 3.95003 1.352 0
M  V30 1577 H 142.134 6.47158 -1.80656 0
M  V30 1578 N 144.854 0.36279 1.53368 0
M  V30 1579 C 145.784 -0.476976 2.28576 0
M  V30 1580 C 146.765 -1.08631 1.30894 0
M  V30 1581 O 147.95 -1.10409 1.59761 0
M  V30 1582 C 145.08 -1.61828 3.07293 0
M  V30 1583 C 144.034 -1.13633 4.1264 0
M  V30 1584 C 143.36 -2.36766 4.79423 0
M  V30 1585 C 144.66 -0.223061 5.21823 0
M  V30 1586 H 146.354 0.150474 2.99022 0
M  V30 1587 H 143.9 0.0738103 1.43811 0
M  V30 1588 H 145.853 -2.21237 3.58653 0
M  V30 1589 H 144.577 -2.27292 2.34533 0
M  V30 1590 H 143.236 -0.564945 3.62221 0
M  V30 1591 H 142.884 -3.0068 4.03238 0
M  V30 1592 H 142.584 -2.05192 5.50609 0
M  V30 1593 H 144.108 -2.96865 5.33576 0
M  V30 1594 H 145.522 -0.724545 5.68703 0
M  V30 1595 H 143.919 0.001678 6.001 0
M  V30 1596 H 144.989 0.735553 4.79289 0
M  V30 1597 N 146.332 -1.57332 0.0918853 0
M  V30 1598 C 147.579 -1.94236 -0.572577 0
M  V30 1599 C 147.907 -0.973398 -1.6839 0
M  V30 1600 O 147.162 0.00756912 -1.95699 0
M  V30 1601 C 147.461 -3.37689 -1.17051 0
M  V30 1602 C 147.127 -4.50527 -0.183304 0
M  V30 1603 C 145.789 -4.81119 0.0882276 0
M  V30 1604 C 148.141 -5.18883 0.49095 0
M  V30 1605 C 145.469 -5.77395 1.04076 0
M  V30 1606 C 147.821 -6.1618 1.43193 0
M  V30 1607 C 146.485 -6.45179 1.71173 0
M  V30 1608 H 145.755 -0.710762 -0.209521 0
M  V30 1609 H 148.402 -1.9077 0.167036 0
M  V30 1610 H 146.707 -3.37718 -1.9863 0
M  V30 1611 H 148.404 -3.63543 -1.69227 0
M  V30 1612 H 144.994 -4.26681 -0.405124 0
M  V30 1613 H 149.178 -4.95427 0.294312 0
M  V30 1614 H 144.434 -5.98179 1.26457 0
M  V30 1615 H 148.608 -6.68243 1.96023 0
M  V30 1616 H 146.235 -7.1959 2.4514 0
M  V30 1617 N 147.81 0.181792 -1.56548 0
M  V30 1618 C 149.058 0.89832 -1.81038 0
M  V30 1619 C 149.379 1.83232 -0.667164 0
M  V30 1620 O 148.649 1.93372 0.313673 0
M  V30 1621 H 147.229 0.33471 -0.667816 0
M  V30 1622 H 149.891 0.184116 -1.94028 0
M  V30 1623 H 148.987 1.4815 -2.74696 0
M  V30 1624 N 149.288 1.51039 0.449983 0
M  V30 1625 C 150.699 1.557 1.03026 0
M  V30 1626 C 151.05 0.372939 1.92623 0
M  V30 1627 O 150.175 -0.511771 2.10261 0
M  V30 1628 C 150.77 2.82171 1.87523 0
M  V30 1629 C 149.329 2.89444 2.40622 0
M  V30 1630 C 148.476 2.50228 1.19504 0
M  V30 1631 H 151.427 1.56999 0.231745 0
M  V30 1632 H 151.448 2.65219 2.72835 0
M  V30 1633 H 150.96 3.68331 1.22286 0
M  V30 1634 H 149.061 2.07685 3.0935 0
M  V30 1635 H 149.174 3.92816 2.74285 0
M  V30 1636 H 147.538 2.03139 1.53644 0
M  V30 1637 H 148.321 3.38719 0.558972 0
M  V30 1638 N 150.766 -0.704594 1.40972 0
M  V30 1639 C 151.713 -1.81862 1.42109 0
M  V30 1640 C 152.683 -1.63781 0.276593 0
M  V30 1641 O 153.868 -1.84759 0.4763 0
M  V30 1642 C 151.008 -3.19669 1.30022 0
M  V30 1643 C 150.121 -3.49246 2.54267 0
M  V30 1644 C 149.256 -4.76618 2.3454 0
M  V30 1645 C 148.295 -4.99133 3.54306 0
M  V30 1646 N 147.432 -6.17726 3.33706 0
M  V30 1647 H 152.272 -1.80226 2.37324 0
M  V30 1648 H 149.809 -0.880238 1.17857 0
M  V30 1649 H 151.767 -3.99263 1.21018 0
M  V30 1650 H 150.397 -3.20506 0.384192 0
M  V30 1651 H 149.449 -2.64125 2.73756 0
M  V30 1652 H 150.761 -3.61788 3.43381 0
M  V30 1653 H 149.915 -5.64249 2.22952 0
M  V30 1654 H 148.654 -4.66305 1.42867 0
M  V30 1655 H 147.659 -4.09953 3.66359 0
M  V30 1656 H 148.884 -5.11311 4.4692 0
M  V30 1657 H 146.83 -6.08642 2.44725 0
M  V30 1658 H 146.747 -6.30995 4.16391 0
M  V30 1659 H 148.015 -7.08115 3.25873 0
M  V30 1660 N 152.244 -1.26651 -0.937939 0
M  V30 1661 C 153.521 -1.0313 -1.66204 0
M  V30 1662 C 153.901 0.437256 -2.06522 0
M  V30 1663 O 153.249 1.41831 -1.79154 0
M  V30 1664 C 153.459 -1.98314 -2.87181 0
M  V30 1665 C 154.807 -2.27107 -3.58758 0
M  V30 1666 O 155.831 -1.96205 -2.97291 0
M  V30 1667 O 154.69 -2.79736 -4.69479 0
M  V30 1668 H 151.784 -0.392384 -0.727986 0
M  V30 1669 H 154.33 -1.37874 -0.989382 0
M  V30 1670 H 153.102 -2.97399 -2.54302 0
M  V30 1671 H 152.725 -1.64068 -3.6217 0
M  V30 1672 N 153.722 1.14298 -1.08507 0
M  V30 1673 C 154.947 1.8976 -0.837001 0
M  V30 1674 C 155.372 1.78097 0.605228 0
M  V30 1675 O 154.73 1.12188 1.4242 0
M  V30 1676 C 154.778 3.37685 -1.26495 0
M  V30 1677 O 153.882 4.10281 -0.417514 0
M  V30 1678 H 153.223 0.590365 -0.303917 0
M  V30 1679 H 155.753 1.44672 -1.44676 0
M  V30 1680 H 155.763 3.88501 -1.24625 0
M  V30 1681 H 154.438 3.45492 -2.31534 0
M  V30 1682 H 153.015 3.69536 -0.499722 0
M  V30 1683 N 155.201 0.870884 1.31352 0
M  V30 1684 C 156.111 0.330783 2.32256 0
M  V30 1685 C 157.127 -0.559767 1.6475 0
M  V30 1686 O 158.303 -0.456263 1.96164 0
M  V30 1687 C 155.368 -0.458137 3.4366 0
M  V30 1688 C 154.429 0.460482 4.26823 0
M  V30 1689 C 153.662 -0.290881 5.32907 0
M  V30 1690 O 153.885 -1.51885 5.49806 0
M  V30 1691 O 152.819 0.351732 6.00871 0
M  V30 1692 H 156.645 1.16718 2.80376 0
M  V30 1693 H 154.23 0.634285 1.35267 0
M  V30 1694 H 156.112 -0.905343 4.1156 0
M  V30 1695 H 154.787 -1.27106 2.97701 0
M  V30 1696 H 153.694 0.956207 3.61673 0
M  V30 1697 H 155.027 1.23903 4.7635 0
M  V30 1698 N 156.679 -1.44442 0.630414 0
M  V30 1699 C 157.956 -1.9549 0.0655657 0
M  V30 1700 C 158.336 -1.5724 -1.40851 0
M  V30 1701 O 157.684 -0.846116 -2.12257 0
M  V30 1702 C 157.894 -3.47812 0.287691 0
M  V30 1703 C 159.242 -4.24216 0.180513 0
M  V30 1704 O 160.266 -3.55526 0.219019 0
M  V30 1705 O 159.125 -5.46434 0.0848493 0
M  V30 1706 H 156.219 -0.826688 -0.0227177 0
M  V30 1707 H 158.765 -1.54496 0.702068 0
M  V30 1708 H 157.537 -3.687 1.31056 0
M  V30 1709 H 157.16 -3.95751 -0.382984 0
M  V30 1710 N 158.157 -0.370918 -1.53173 0
M  V30 1711 C 159.382 0.220293 -2.06227 0
M  V30 1712 C 159.807 1.41243 -1.24225 0
M  V30 1713 O 159.165 1.79387 -0.262645 0
M  V30 1714 C 159.213 0.586663 -3.55796 0
M  V30 1715 O 158.317 1.68317 -3.76488 0
M  V30 1716 H 157.658 0.0308099 -0.663285 0
M  V30 1717 H 160.188 -0.533068 -1.97534 0
M  V30 1718 H 160.198 0.85617 -3.98916 0
M  V30 1719 H 158.873 -0.285013 -4.14922 0
M  V30 1720 H 157.45 1.40881 -3.45264 0
M  V30 1721 N 159.635 1.57281 -0.100228 0
M  V30 1722 C 160.865 1.98591 0.569681 0
M  V30 1723 C 161.273 0.978315 1.61943 0
M  V30 1724 O 160.616 -0.0396108 1.83657 0
M  V30 1725 C 160.678 3.36282 1.271 0
M  V30 1726 C 160.342 4.55488 0.371409 0
M  V30 1727 C 161.339 5.18491 -0.382504 0
M  V30 1728 C 159.024 5.01474 0.287965 0
M  V30 1729 C 161.018 6.25852 -1.20779 0
M  V30 1730 C 158.705 6.08701 -0.540965 0
M  V30 1731 C 159.703 6.70755 -1.28749 0
M  V30 1732 O 159.391 7.75914 -2.10269 0
M  V30 1733 H 159.123 0.65752 0.156982 0
M  V30 1734 H 161.677 2.0463 -0.177734 0
M  V30 1735 H 159.907 3.26941 2.0651 0
M  V30 1736 H 161.596 3.62005 1.83595 0
M  V30 1737 H 162.362 4.83891 -0.3278 0
M  V30 1738 H 158.241 4.52932 0.858689 0
M  V30 1739 H 161.785 6.74218 -1.79096 0
M  V30 1740 H 157.682 6.42732 -0.597131 0
M  V30 1741 H 158.45 7.92925 -2.03007 0
M  V30 1742 N 161.113 -0.173488 1.56642 0
M  V30 1743 C 162.39 -0.917617 1.7274 0
M  V30 1744 C 162.77 -2.00484 0.661027 0
M  V30 1745 O 162.118 -2.26184 -0.32453 0
M  V30 1746 C 162.328 -1.48433 3.15862 0
M  V30 1747 C 163.676 -1.95809 3.76754 0
M  V30 1748 O 164.7 -1.58231 3.19126 0
M  V30 1749 O 163.559 -2.65024 4.77938 0
M  V30 1750 H 160.653 -0.431772 0.705338 0
M  V30 1751 H 163.199 -0.161487 1.6893 0
M  V30 1752 H 161.971 -0.701715 3.84957 0
M  V30 1753 H 161.594 -2.30471 3.23989 0
M  V30 1754 N 162.591 -1.51276 -0.441967 0
M  V30 1755 C 163.84 -1.6295 -1.18871 0
M  V30 1756 C 164.153 -0.349312 -1.92456 0
M  V30 1757 O 165.359 -0.345355 -2.69295 0
M  V30 1758 C 163.815 -2.87759 -2.16155 0
M  V30 1759 C 163.423 -4.22764 -1.48239 0
M  V30 1760 C 165.167 -3.08788 -2.91291 0
M  V30 1761 C 163.074 -5.38728 -2.4398 0
M  V30 1762 H 162.004 -0.606913 -0.447406 0
M  V30 1763 H 164.655 -1.77739 -0.456205 0
M  V30 1764 H 163.037 -2.66593 -2.92821 0
M  V30 1765 H 164.211 -4.54293 -0.771635 0
M  V30 1766 H 162.526 -4.07575 -0.852741 0
M  V30 1767 H 165.123 -3.92599 -3.63002 0
M  V30 1768 H 165.466 -2.21679 -3.5237 0
M  V30 1769 H 165.999 -3.30272 -2.21733 0
M  V30 1770 H 162.738 -6.28082 -1.87598 0
M  V30 1771 H 162.258 -5.1158 -3.13123 0
M  V30 1772 H 163.937 -5.70489 -3.05207 0
M  V30 1773 N 164.069 0.697108 -1.41344 0
M  V30 1774 C 165.318 1.45279 -1.39918 0
M  V30 1775 C 165.631 1.95597 -0.0109624 0
M  V30 1776 O 166.837 2.71208 0.125919 0
M  V30 1777 C 165.293 2.62695 -2.46007 0
M  V30 1778 C 164.901 2.19169 -3.90729 0
M  V30 1779 C 166.645 3.40336 -2.53715 0
M  V30 1780 C 164.552 3.33535 -4.88373 0
M  V30 1781 H 163.482 0.545692 -0.520323 0
M  V30 1782 H 166.133 0.756929 -1.67161 0
M  V30 1783 H 164.515 3.34541 -2.11892 0
M  V30 1784 H 165.689 1.54623 -4.34083 0
M  V30 1785 H 164.004 1.54525 -3.86666 0
M  V30 1786 H 166.601 4.2547 -3.2385 0
M  V30 1787 H 166.944 3.85418 -1.5735 0
M  V30 1788 H 167.477 2.75546 -2.86913 0
M  V30 1789 H 164.216 2.93468 -5.86137 0
M  V30 1790 H 163.736 3.96936 -4.49668 0
M  V30 1791 H 165.415 3.99335 -5.09059 0
M  V30 1792 N 165.547 1.27147 0.931209 0
M  V30 1793 C 166.794 1.13278 1.67852 0
M  V30 1794 C 167.122 -0.32204 1.91815 0
M  V30 1795 O 166.377 -1.25224 1.50391 0
M  V30 1796 C 166.676 1.8579 3.05314 0
M  V30 1797 C 166.342 3.35657 3.01073 0
M  V30 1798 C 165.004 3.76536 2.99623 0
M  V30 1799 C 167.356 4.31299 2.92627 0
M  V30 1800 C 164.684 5.11426 2.87506 0
M  V30 1801 C 167.036 5.66242 2.82051 0
M  V30 1802 C 165.7 6.06418 2.7895 0
M  V30 1803 H 164.97 0.414515 0.614214 0
M  V30 1804 H 167.617 1.57712 1.08624 0
M  V30 1805 H 165.922 1.33854 3.68226 0
M  V30 1806 H 167.619 1.72491 3.62005 0
M  V30 1807 H 164.209 3.03146 3.02986 0
M  V30 1808 H 168.393 4.00692 2.92848 0
M  V30 1809 H 163.649 5.41705 2.83489 0
M  V30 1810 H 167.823 6.40026 2.74481 0
M  V30 1811 H 165.45 7.10895 2.69318 0
M  V30 1812 N 167.025 -1.13721 1.09112 0
M  V30 1813 C 168.302 -1.81155 0.737706 0
M  V30 1814 C 168.682 -1.96253 -0.777683 0
M  V30 1815 O 168.03 -1.52807 -1.69889 0
M  V30 1816 C 168.24 -3.16392 1.47299 0
M  V30 1817 C 169.588 -3.91787 1.63671 0
M  V30 1818 O 170.612 -3.26005 1.43524 0
M  V30 1819 O 169.471 -5.0977 1.96969 0
M  V30 1820 H 166.565 -0.783518 0.26463 0
M  V30 1821 H 169.111 -1.20676 1.19312 0
M  V30 1822 H 167.883 -3.0061 2.50498 0
M  V30 1823 H 167.506 -3.8457 1.00953 0
M  V30 1824 N 168.503 -0.877838 -1.30888 0
M  V30 1825 C 169.433 -0.35534 -2.3078 0
M  V30 1826 C 170.414 0.557994 -1.60687 0
M  V30 1827 O 171.599 0.473355 -1.88343 0
M  V30 1828 C 168.729 0.437221 -3.44537 0
M  V30 1829 C 167.683 -0.383715 -4.26276 0
M  V30 1830 C 167.009 0.535014 -5.32017 0
M  V30 1831 C 168.309 -1.62201 -4.96476 0
M  V30 1832 H 170.003 -1.19007 -2.74732 0
M  V30 1833 H 167.549 -0.573698 -1.32078 0
M  V30 1834 H 169.502 0.813334 -4.13477 0
M  V30 1835 H 168.226 1.30553 -2.99372 0
M  V30 1836 H 166.885 -0.741874 -3.59015 0
M  V30 1837 H 166.533 1.40083 -4.831 0
M  V30 1838 H 166.233 -0.0104211 -5.87599 0
M  V30 1839 H 167.757 0.907799 -6.03814 0
M  V30 1840 H 169.171 -1.31689 -5.5797 0
M  V30 1841 H 167.568 -2.10711 -5.61891 0
M  V30 1842 H 168.638 -2.37044 -4.23011 0
M  V30 1843 N 169.982 1.44106 -0.638065 0
M  V30 1844 C 170.932 2.27843 0.0847285 0
M  V30 1845 C 171.916 1.39055 0.809471 0
M  V30 1846 O 173.108 1.62808 0.694435 0
M  V30 1847 C 170.237 3.26497 1.06089 0
M  V30 1848 C 169.323 4.22772 0.33541 0
M  V30 1849 N 169.714 5.01737 -0.639787 0
M  V30 1850 C 168.012 4.42227 0.578921 0
M  V30 1851 C 168.713 5.71792 -1.06904 0
M  V30 1852 N 167.689 5.42079 -0.406395 0
M  V30 1853 H 171.491 2.86305 -0.663814 0
M  V30 1854 H 169.005 1.55627 -0.464122 0
M  V30 1855 H 171.002 3.8525 1.59337 0
M  V30 1856 H 169.662 2.69595 1.80966 0
M  V30 1857 H 170.673 5.07799 -1.01789 0
M  V30 1858 H 167.35 3.96415 1.31003 0
M  V30 1859 H 168.74 6.45205 -1.8751 0
M  V30 1860 N 171.46 0.379036 1.52974 0
M  V30 1861 C 172.408 -0.476033 2.27677 0
M  V30 1862 C 173.402 -1.0719 1.31174 0
M  V30 1863 O 174.608 -1.01355 1.48752 0
M  V30 1864 H 170.983 -0.172255 0.732006 0
M  V30 1865 H 172.954 0.175615 2.97883 0
M  V30 1866 C 171.703 -1.5967 3.0887 0
M  V30 1867 H 171.026 -1.1475 3.82978 0
M  V30 1868 H 172.466 -2.16943 3.64296 0
M  V30 1869 C 170.925 -2.54682 2.20542 0
M  V30 1870 O 171.455 -3.57836 1.82527 0
M  V30 1871 N 169.661 -2.24183 1.84907 0
M  V30 1872 H 169.208 -1.40333 2.1602 0
M  V30 1873 H 169.166 -2.88006 1.26096 0
M  V30 1874 N 172.938 -1.57226 0.108567 0
M  V30 1875 C 174.166 -1.99179 -0.559954 0
M  V30 1876 C 174.581 -0.988022 -1.60884 0
M  V30 1877 O 173.938 0.0205512 -1.82488 0
M  V30 1878 C 173.989 -3.41159 -1.19552 0
M  V30 1879 O 173.71 -4.37694 -0.188577 0
M  V30 1880 C 175.211 -3.98188 -1.94837 0
M  V30 1881 H 172.431 -0.654228 -0.149088 0
M  V30 1882 H 174.975 -2.03598 0.19183 0
M  V30 1883 H 173.13 -3.37711 -1.89815 0
M  V30 1884 H 173.544 -5.20469 -0.649014 0
M  V30 1885 H 175.018 -4.99644 -2.34648 0
M  V30 1886 H 175.495 -3.3675 -2.81951 0
M  V30 1887 H 176.101 -4.0515 -1.2936 0
M  V30 1888 N 174.416 0.165178 -1.56732 0
M  V30 1889 C 175.644 0.896218 -1.86482 0
M  V30 1890 C 176.059 1.75555 -0.694675 0
M  V30 1891 O 175.416 1.79379 0.33607 0
M  V30 1892 C 175.467 1.76792 -3.1532 0
M  V30 1893 O 175.188 0.943239 -4.27825 0
M  V30 1894 C 176.689 2.6081 -3.58459 0
M  V30 1895 H 173.909 0.260064 -0.618553 0
M  V30 1896 H 176.453 0.163428 -2.03846 0
M  V30 1897 H 174.608 2.45398 -2.99764 0
M  V30 1898 H 175.022 1.53998 -5.01383 0
M  V30 1899 H 176.496 3.17579 -4.51495 0
M  V30 1900 H 176.973 3.35977 -2.82872 0
M  V30 1901 H 177.579 1.97526 -3.76648 0
M  V30 1902 N 175.894 1.51508 0.433938 0
M  V30 1903 C 177.119 1.68443 1.21003 0
M  V30 1904 C 177.544 0.382636 1.84167 0
M  V30 1905 O 176.902 -0.65755 1.68956 0
M  V30 1906 C 176.95 2.80405 2.26727 0
M  V30 1907 O 176.054 2.44245 3.32292 0
M  V30 1908 H 175.395 0.561536 0.354363 0
M  V30 1909 H 177.925 1.9809 0.512024 0
M  V30 1910 H 177.935 3.0459 2.71457 0
M  V30 1911 H 176.61 3.74867 1.80132 0
M  V30 1912 H 175.187 2.30644 2.93015 0
M  V30 1913 N 177.372 -0.689602 1.41712 0
M  V30 1914 C 178.32 -1.82475 1.44242 0
M  V30 1915 C 179.314 -1.66354 0.319774 0
M  V30 1916 O 180.52 -1.73143 0.492089 0
M  V30 1917 H 176.895 -0.601416 0.451445 0
M  V30 1918 H 178.866 -1.77458 2.39899 0
M  V30 1919 C 177.615 -3.20535 1.3473 0
M  V30 1920 H 176.938 -3.33559 2.20405 0
M  V30 1921 H 178.378 -4.00023 1.40562 0
M  V30 1922 C 176.837 -3.36846 0.0603281 0
M  V30 1923 O 177.367 -3.91656 -0.892663 0
M  V30 1924 N 175.573 -2.90595 -0.0177039 0
M  V30 1925 H 175.12 -2.46178 0.758572 0
M  V30 1926 H 175.078 -3.01886 -0.878201 0
M  V30 1927 N 178.85 -1.27639 -0.924453 0
M  V30 1928 C 179.783 -1.04966 -2.02626 0
M  V30 1929 C 180.761 0.0309505 -1.62571 0
M  V30 1930 O 181.945 -0.114846 -1.8815 0
M  V30 1931 C 179.072 -0.59292 -3.3347 0
M  V30 1932 C 178.118 -1.66858 -3.92506 0
M  V30 1933 S 178.951 -3.2619 -4.24689 0
M  V30 1934 C 180.107 -2.82325 -5.58609 0
M  V30 1935 H 180.34 -1.98252 -2.21547 0
M  V30 1936 H 177.873 -1.11506 -1.06798 0
M  V30 1937 H 179.831 -0.336086 -4.09122 0
M  V30 1938 H 178.492 0.319939 -3.12466 0
M  V30 1939 H 177.685 -1.30038 -4.86935 0
M  V30 1940 H 177.287 -1.87766 -3.2345 0
M  V30 1941 H 179.579 -2.2783 -6.38044 0
M  V30 1942 H 180.522 -3.75511 -6.00331 0
M  V30 1943 H 180.93 -2.21367 -5.19285 0
M  V30 1944 N 180.328 1.1314 -1.09713 0
M  V30 1945 C 181.576 1.84119 -0.833338 0
M  V30 1946 C 181.897 1.84097 0.642904 0
M  V30 1947 O 181.167 1.29881 1.46655 0
M  V30 1948 H 179.747 0.681766 -0.305293 0
M  V30 1949 H 182.409 1.37038 -1.38588 0
M  V30 1950 H 181.505 2.88543 -1.18951 0
M  V30 1951 N 181.806 0.884767 1.30421 0
M  V30 1952 C 183.046 0.509806 1.9794 0
M  V30 1953 C 183.41 -0.923736 1.68319 0
M  V30 1954 O 184.611 -1.40481 2.29169 0
M  V30 1955 C 182.882 0.776732 3.48858 0
M  V30 1956 S 184.441 0.503843 4.35898 0
M  V30 1957 H 181.259 0.189699 0.685227 0
M  V30 1958 H 183.861 1.14399 1.58535 0
M  V30 1959 H 182.565 1.81857 3.67908 0
M  V30 1960 H 182.096 0.1301 3.93185 0
M  V30 1961 H 184.111 -0.657625 4.91823 0
M  V30 1962 N 183.284 -1.43765 0.645699 0
M  V30 1963 C 184.512 -2.06253 0.163556 0
M  V30 1964 C 184.927 -1.48352 -1.16778 0
M  V30 1965 O 184.284 -0.611932 -1.71935 0
M  V30 1966 C 184.335 -3.61453 0.0583186 0
M  V30 1967 O 184.056 -4.172 1.33702 0
M  V30 1968 C 185.557 -4.41002 -0.450795 0
M  V30 1969 H 182.777 -0.665413 0.0864077 0
M  V30 1970 H 185.321 -1.84396 0.884222 0
M  V30 1971 H 183.476 -3.82522 -0.612865 0
M  V30 1972 H 183.89 -5.10791 1.19131 0
M  V30 1973 H 185.364 -5.49966 -0.473403 0
M  V30 1974 H 185.841 -4.13488 -1.48068 0
M  V30 1975 H 186.447 -4.24886 0.187637 0
M  V30 1976 N 184.763 -0.387143 -1.52771 0
M  V30 1977 C 185.693 0.440551 -2.29306 0
M  V30 1978 C 186.674 1.06535 -1.32606 0
M  V30 1979 O 187.859 1.07853 -1.61497 0
M  V30 1980 C 184.989 1.56919 -3.09829 0
M  V30 1981 C 183.943 1.07054 -4.14395 0
M  V30 1982 C 183.269 2.29109 -4.83129 0
M  V30 1983 C 184.569 0.140015 -5.22112 0
M  V30 1984 H 186.263 -0.198026 -2.98744 0
M  V30 1985 H 183.809 -0.09668 -1.43675 0
M  V30 1986 H 185.762 2.15503 -3.62128 0
M  V30 1987 H 184.486 2.23532 -2.3812 0
M  V30 1988 H 183.145 0.507247 -3.63074 0
M  V30 1989 H 182.793 2.94227 -4.0797 0
M  V30 1990 H 182.493 1.96406 -5.53804 0
M  V30 1991 H 184.017 2.88339 -5.38231 0
M  V30 1992 H 185.431 0.633978 -5.69784 0
M  V30 1993 H 183.828 -0.0971485 -6.00021 0
M  V30 1994 H 184.898 -0.811711 -4.78058 0
M  V30 1995 N 186.241 1.57166 -0.116904 0
M  V30 1996 C 187.49 1.94298 0.541407 0
M  V30 1997 C 187.803 1.00236 1.67964 0
M  V30 1998 O 189.009 1.26826 2.40057 0
M  V30 1999 C 187.465 3.45306 1.01449 0
M  V30 2000 C 187.073 4.47899 -0.0951738 0
M  V30 2001 C 188.817 3.91361 1.6443 0
M  V30 2002 C 186.724 5.90083 0.394491 0
M  V30 2003 H 185.654 0.725308 0.206019 0
M  V30 2004 H 188.305 1.82446 -0.196419 0
M  V30 2005 H 186.687 3.52385 1.80667 0
M  V30 2006 H 187.861 4.52486 -0.871374 0
M  V30 2007 H 186.176 4.11583 -0.631505 0
M  V30 2008 H 188.773 4.95004 2.02176 0
M  V30 2009 H 189.116 3.3122 2.52189 0
M  V30 2010 H 189.649 3.87073 0.917559 0
M  V30 2011 H 186.388 6.53974 -0.447004 0
M  V30 2012 H 185.908 5.88921 1.13722 0
M  V30 2013 H 187.587 6.41307 0.856399 0
M  V30 2014 N 187.719 -0.156864 1.56817 0
M  V30 2015 C 188.649 -1.19589 2.00551 0
M  V30 2016 C 189.63 -1.4536 0.883426 0
M  V30 2017 O 190.815 -1.56449 1.15054 0
M  V30 2018 C 187.945 -2.53143 2.37773 0
M  V30 2019 C 186.899 -2.41913 3.53075 0
M  V30 2020 C 186.225 -3.80088 3.76081 0
M  V30 2021 C 187.525 -1.91157 4.86062 0
M  V30 2022 H 189.219 -0.832293 2.87599 0
M  V30 2023 H 186.765 -0.398918 1.38364 0
M  V30 2024 H 188.718 -3.26047 2.66967 0
M  V30 2025 H 187.442 -2.91319 1.4765 0
M  V30 2026 H 186.101 -1.71462 3.24031 0
M  V30 2027 H 185.749 -4.15683 2.83225 0
M  V30 2028 H 185.449 -3.73439 4.53671 0
M  V30 2029 H 186.973 -4.54556 4.0769 0
M  V30 2030 H 188.387 -2.53846 5.14038 0
M  V30 2031 H 186.784 -1.95422 5.67389 0
M  V30 2032 H 187.854 -0.866673 4.77092 0
M  V30 2033 N 189.197 -1.51736 -0.425897 0
M  V30 2034 C 190.107 -1.76738 -1.54275 0
M  V30 2035 C 191.123 -0.65211 -1.61318 0
M  V30 2036 O 192.299 -0.935654 -1.78346 0
M  V30 2037 C 189.364 -1.89755 -2.90162 0
M  V30 2038 C 188.425 -3.13633 -2.93143 0
M  V30 2039 C 187.658 -3.2602 -4.22548 0
M  V30 2040 O 187.881 -2.44067 -5.15546 0
M  V30 2041 O 186.815 -4.19071 -4.32046 0
M  V30 2042 H 190.641 -2.71502 -1.36089 0
M  V30 2043 H 188.226 -1.36376 -0.610069 0
M  V30 2044 H 190.108 -2.00236 -3.70788 0
M  V30 2045 H 188.783 -0.981785 -3.08452 0
M  V30 2046 H 187.69 -3.08622 -2.11431 0
M  V30 2047 H 189.023 -4.04936 -2.798 0
M  V30 2048 N 190.675 0.682077 -1.42076 0
M  V30 2049 C 191.952 1.43755 -1.32642 0
M  V30 2050 C 192.332 2.11063 0.0396611 0
M  V30 2051 O 191.68 2.02701 1.05474 0
M  V30 2052 C 191.89 2.44596 -2.48946 0
M  V30 2053 C 193.238 3.09454 -2.9073 0
M  V30 2054 O 194.262 2.54922 -2.48783 0
M  V30 2055 O 193.121 4.08253 -3.63307 0
M  V30 2056 H 190.215 0.640857 -0.522715 0
M  V30 2057 H 192.761 0.711415 -1.54068 0
M  V30 2058 H 191.533 1.93609 -3.40046 0
M  V30 2059 H 191.156 3.24701 -2.29467 0
M  V30 2060 N 192.153 1.28127 0.917671 0
M  V30 2061 C 193.378 1.18007 1.70555 0
M  V30 2062 C 193.803 -0.258257 1.86319 0
M  V30 2063 O 193.161 -1.1869 1.37049 0
M  V30 2064 C 193.209 1.87948 3.07746 0
M  V30 2065 O 192.313 1.18427 3.9503 0
M  V30 2066 H 191.654 0.409867 0.522403 0
M  V30 2067 H 194.184 1.69379 1.1477 0
M  V30 2068 H 194.194 1.95701 3.58001 0
M  V30 2069 H 192.869 2.92573 2.95591 0
M  V30 2070 H 191.446 1.18811 3.53466 0
M  V30 2071 N 193.631 -1.12557 1.10312 0
M  V30 2072 C 195.047 -1.36036 0.834649 0
M  V30 2073 C 195.247 -1.93946 -0.546539 0
M  V30 2074 O 194.303 -2.16484 -1.29966 0
M  V30 2075 C 195.616 -2.30312 1.9333 0
M  V30 2076 C 197.164 -2.43906 1.9616 0
M  V30 2077 C 197.639 -3.41496 3.05195 0
M  V30 2078 N 199.13 -3.49053 3.04494 0
M  V30 2079 C 199.865 -4.24471 3.85502 0
M  V30 2080 N 199.361 -5.02966 4.76442 0
M  V30 2081 N 201.154 -4.19864 3.73725 0
M  V30 2082 H 193.305 -0.733246 1.99342 0
M  V30 2083 H 195.568 -0.385234 0.866198 0
M  V30 2084 H 195.274 -1.94933 2.92735 0
M  V30 2085 H 195.148 -3.30421 1.81939 0
M  V30 2086 H 197.535 -2.78567 0.973886 0
M  V30 2087 H 197.616 -1.4369 2.11629 0
M  V30 2088 H 197.26 -3.07565 4.04186 0
M  V30 2089 H 197.19 -4.41539 2.86968 0
M  V30 2090 H 199.681 -2.93053 2.38596 0
M  V30 2091 H 199.994 -5.57846 5.34815 0
M  V30 2092 H 198.339 -5.02167 4.80472 0
M  V30 2093 H 201.53 -3.57623 3.02032 0
M  V30 2094 H 201.703 -4.78386 4.37093 0
M  V30 2095 N 195.109 -0.891671 -1.2995 0
M  V30 2096 C 196.057 -0.353066 -2.29905 0
M  V30 2097 C 197.051 0.543509 -1.60444 0
M  V30 2098 O 198.257 0.4272 -1.74857 0
M  V30 2099 H 194.632 -0.095531 -0.745907 0
M  V30 2100 H 196.603 -1.20961 -2.72784 0
M  V30 2101 C 195.352 0.411475 -3.45257 0
M  V30 2102 H 194.675 -0.269182 -3.98893 0
M  V30 2103 H 196.115 0.753328 -4.17254 0
M  V30 2104 C 194.574 1.6111 -2.9588 0
M  V30 2105 O 195.104 2.71045 -2.96475 0
M  V30 2106 N 193.31 1.45054 -2.51809 0
M  V30 2107 H 192.857 0.556175 -2.51524 0
M  V30 2108 H 192.815 2.25453 -2.1913 0
M  V30 2109 N 196.587 1.43421 -0.653314 0
M  V30 2110 C 197.535 2.32546 0.0501531 0
M  V30 2111 C 198.529 1.48617 0.812985 0
M  V30 2112 O 199.735 1.64825 0.723375 0
M  V30 2113 H 196.11 0.751185 0.0350032 0
M  V30 2114 H 198.081 2.89602 -0.719261 0
M  V30 2115 C 196.83 3.32925 1.00279 0
M  V30 2116 H 196.153 3.97532 0.425236 0
M  V30 2117 H 197.593 3.9792 1.46409 0
M  V30 2118 C 196.052 2.63532 2.09886 0
M  V30 2119 O 196.582 2.45092 3.18265 0
M  V30 2120 N 194.788 2.22905 1.86445 0
M  V30 2121 H 194.335 2.38103 0.98309 0
M  V30 2122 H 194.293 1.76805 2.59976 0
M  V30 2123 N 198.065 0.39524 1.52563 0
M  V30 2124 C 199.312 -0.185044 2.01653 0
M  V30 2125 C 199.64 -1.46317 1.28146 0
M  V30 2126 O 198.895 -1.9213 0.372074 0
M  V30 2127 C 199.194 -0.493444 3.53977 0
M  V30 2128 C 198.86 0.69384 4.4553 0
M  V30 2129 C 197.522 1.01954 4.70275 0
M  V30 2130 C 199.874 1.48785 4.99512 0
M  V30 2131 C 197.202 2.14069 5.46252 0
M  V30 2132 C 199.554 2.59965 5.76716 0
M  V30 2133 C 198.218 2.93037 5.99738 0
M  V30 2134 H 197.488 -0.0677123 0.7379 0
M  V30 2135 H 200.135 0.533807 1.8391 0
M  V30 2136 H 198.44 -1.29369 3.69825 0
M  V30 2137 H 200.137 -0.955163 3.89458 0
M  V30 2138 H 196.727 0.429987 4.26438 0
M  V30 2139 H 200.911 1.24946 4.80315 0
M  V30 2140 H 196.167 2.40056 5.62302 0
M  V30 2141 H 200.341 3.21887 6.17545 0
M  V30 2142 H 197.968 3.8003 6.58393 0
M  V30 2143 N 199.544 -1.57102 0.125237 0
M  V30 2144 C 200.474 -2.18659 -0.819174 0
M  V30 2145 C 201.455 -1.12843 -1.27281 0
M  V30 2146 O 202.64 -1.41104 -1.33429 0
M  V30 2147 C 199.77 -2.79096 -2.06695 0
M  V30 2148 C 198.724 -3.90548 -1.75088 0
M  V30 2149 C 198.05 -4.37821 -3.06948 0
M  V30 2150 C 199.35 -5.12356 -1.01435 0
M  V30 2151 H 201.044 -2.9783 -0.306202 0
M  V30 2152 H 198.59 -1.4326 -0.145839 0
M  V30 2153 H 200.543 -3.2082 -2.73226 0
M  V30 2154 H 199.267 -1.97223 -2.60328 0
M  V30 2155 H 197.926 -3.49409 -1.10944 0
M  V30 2156 H 197.574 -3.52799 -3.58527 0
M  V30 2157 H 197.274 -5.12982 -2.86571 0
M  V30 2158 H 198.798 -4.822 -3.74587 0
M  V30 2159 H 200.212 -5.5106 -1.58132 0
M  V30 2160 H 198.609 -5.9314 -0.911319 0
M  V30 2161 H 199.679 -4.849 -0.00218681 0
M  V30 2162 N 201.022 0.148545 -1.56898 0
M  V30 2163 C 202.271 0.85984 -1.82454 0
M  V30 2164 C 202.584 1.82406 -0.706229 0
M  V30 2165 O 203.79 2.57938 -0.847349 0
M  V30 2166 C 202.246 1.57967 -3.2338 0
M  V30 2167 C 201.854 0.65794 -4.43142 0
M  V30 2168 C 203.598 2.27784 -3.58211 0
M  V30 2169 C 201.505 1.3793 -5.75091 0
M  V30 2170 H 200.435 0.324834 -0.68044 0
M  V30 2171 H 203.086 0.112588 -1.83154 0
M  V30 2172 H 201.468 2.37249 -3.17063 0
M  V30 2173 H 202.642 -0.0995497 -4.60692 0
M  V30 2174 H 200.957 0.0682643 -4.16344 0
M  V30 2175 H 203.554 2.8239 -4.54048 0
M  V30 2176 H 203.897 3.04204 -2.84193 0
M  V30 2177 H 204.43 1.55421 -3.66182 0
M  V30 2178 H 201.169 0.656982 -6.52199 0
M  V30 2179 H 200.689 2.10954 -5.61479 0
M  V30 2180 H 202.368 1.92063 -6.17835 0
M  V30 2181 N 202.5 1.5196 0.417844 0
M  V30 2182 C 203.432 1.70895 1.52733 0
M  V30 2183 C 204.445 0.589405 1.51756 0
M  V30 2184 O 205.634 0.864312 1.56179 0
M  V30 2185 C 202.734 1.72627 2.91639 0
M  V30 2186 C 201.907 3.01479 3.16905 0
M  V30 2187 C 200.966 2.95139 4.35637 0
M  V30 2188 O 199.992 3.69059 4.3334 0
M  V30 2189 N 201.194 2.12328 5.40275 0
M  V30 2190 H 203.959 2.66612 1.36888 0
M  V30 2191 H 201.52 1.50089 0.607037 0
M  V30 2192 H 203.512 1.65928 3.6912 0
M  V30 2193 H 202.082 0.844216 3.00985 0
M  V30 2194 H 201.302 3.21895 2.27546 0
M  V30 2195 H 202.59 3.86736 3.30625 0
M  V30 2196 H 201.988 1.51685 5.44985 0
M  V30 2197 H 200.545 2.11494 6.16534 0
M  V30 2198 N 203.978 -0.674533 1.42435 0
M  V30 2199 C 204.911 -1.79924 1.40366 0
M  V30 2200 C 205.889 -1.60378 0.267899 0
M  V30 2201 O 207.073 -1.82847 0.458159 0
M  V30 2202 C 204.2 -3.16927 1.19478 0
M  V30 2203 C 203.246 -3.55221 2.36051 0
M  V30 2204 S 204.079 -3.5762 3.98583 0
M  V30 2205 C 205.235 -4.97315 3.80038 0
M  V30 2206 H 205.468 -1.81405 2.35541 0
M  V30 2207 H 203.001 -0.845221 1.29211 0
M  V30 2208 H 204.959 -3.96007 1.08114 0
M  V30 2209 H 203.62 -3.13031 0.258883 0
M  V30 2210 H 202.813 -4.54804 2.17185 0
M  V30 2211 H 202.415 -2.83502 2.43932 0
M  V30 2212 H 204.707 -5.85401 3.41045 0
M  V30 2213 H 205.65 -5.21228 4.79298 0
M  V30 2214 H 206.058 -4.69845 3.12899 0
M  V30 2215 N 205.456 -1.28612 -0.910864 0
M  V30 2216 C 206.703 -1.15934 -1.66029 0
M  V30 2217 C 207.031 0.291483 -1.92303 0
M  V30 2218 O 206.286 1.22816 -1.52364 0
M  V30 2219 C 206.585 -1.90624 -3.0232 0
M  V30 2220 C 206.251 -3.40405 -2.95695 0
M  V30 2221 C 204.913 -3.81255 -2.93595 0
M  V30 2222 C 207.265 -4.359 -2.85728 0
M  V30 2223 C 204.593 -5.15936 -2.79334 0
M  V30 2224 C 206.945 -5.70657 -2.73007 0
M  V30 2225 C 205.609 -6.10779 -2.69267 0
M  V30 2226 H 204.879 -0.424234 -0.607541 0
M  V30 2227 H 207.526 -1.5942 -1.06101 0
M  V30 2228 H 205.831 -1.39696 -3.6605 0
M  V30 2229 H 207.528 -1.78228 -3.59215 0
M  V30 2230 H 204.118 -3.07927 -2.98125 0
M  V30 2231 H 208.302 -4.053 -2.86436 0
M  V30 2232 H 203.558 -5.46146 -2.74835 0
M  V30 2233 H 207.732 -6.44311 -2.64264 0
M  V30 2234 H 205.359 -7.1509 -2.57974 0
M  V30 2235 N 206.934 1.1197 -1.10907 0
M  V30 2236 C 207.884 2.15946 -0.731538 0
M  V30 2237 C 208.868 1.58758 0.261699 0
M  V30 2238 O 210.06 1.76863 0.0696722 0
M  V30 2239 C 207.189 3.42877 -0.170299 0
M  V30 2240 C 206.275 4.07037 -1.19087 0
M  V30 2241 N 206.666 4.46135 -2.38322 0
M  V30 2242 C 204.964 4.33884 -1.03252 0
M  V30 2243 C 205.665 4.96331 -3.03366 0
M  V30 2244 N 204.641 4.9214 -2.30865 0
M  V30 2245 H 208.443 2.43947 -1.63912 0
M  V30 2246 H 205.957 1.28927 -0.987505 0
M  V30 2247 H 207.954 4.16732 0.118271 0
M  V30 2248 H 206.614 3.16343 0.731935 0
M  V30 2249 H 207.625 4.38345 -2.75815 0
M  V30 2250 H 204.302 4.17084 -0.186256 0
M  V30 2251 H 205.692 5.36257 -4.04818 0
M  V30 2252 N 208.412 0.89855 1.29475 0
M  V30 2253 C 209.642 0.538479 1.99459 0
M  V30 2254 C 210.05 -0.880922 1.67441 0
M  V30 2255 O 209.393 -1.59283 0.915127 0
M  V30 2256 C 209.455 0.649564 3.53583 0
M  V30 2257 C 209.119 2.03573 4.09154 0
M  V30 2258 C 210.116 3.00675 4.24135 0
M  V30 2259 C 207.801 2.3448 4.44212 0
M  V30 2260 C 209.795 4.26809 4.73405 0
M  V30 2261 C 207.482 3.60857 4.93179 0
M  V30 2262 C 208.48 4.56836 5.0773 0
M  V30 2263 O 208.168 5.80969 5.55635 0
M  V30 2264 H 207.9 0.205372 0.644048 0
M  V30 2265 H 210.454 1.20958 1.66007 0
M  V30 2266 H 208.684 -0.0785592 3.8662 0
M  V30 2267 H 210.373 0.29881 4.04799 0
M  V30 2268 H 211.139 2.78112 3.97339 0
M  V30 2269 H 207.018 1.60534 4.32145 0
M  V30 2270 H 210.562 5.0173 4.84678 0
M  V30 2271 H 206.459 3.83251 5.19412 0
M  V30 2272 H 207.227 5.83542 5.73952 0
M  V30 2273 N 209.89 -1.43072 0.660911 0
M  V30 2274 C 211.139 -2.00942 0.174735 0
M  V30 2275 C 211.452 -1.52797 -1.22117 0
M  V30 2276 O 212.658 -2.02991 -1.80297 0
M  V30 2277 C 211.114 -3.58948 0.261559 0
M  V30 2278 C 210.722 -4.16085 1.66064 0
M  V30 2279 C 212.466 -4.24173 -0.166617 0
M  V30 2280 C 210.373 -5.6641 1.70098 0
M  V30 2281 H 209.303 -0.751483 0.0615631 0
M  V30 2282 H 211.954 -1.63955 0.824069 0
M  V30 2283 H 210.336 -3.93372 -0.455421 0
M  V30 2284 H 211.51 -3.93147 2.40359 0
M  V30 2285 H 209.825 -3.6326 2.03546 0
M  V30 2286 H 212.422 -5.34471 -0.156433 0
M  V30 2287 H 212.765 -3.98647 -1.19943 0
M  V30 2288 H 213.298 -3.94659 0.498875 0
M  V30 2289 H 210.037 -5.96715 2.71315 0
M  V30 2290 H 209.557 -5.91382 1.00139 0
M  V30 2291 H 211.236 -6.30585 1.44816 0
M  V30 2292 N 211.368 -0.403325 -1.52352 0
M  V30 2293 C 212.315 0.425011 -2.26853 0
M  V30 2294 C 213.285 1.04598 -1.29029 0
M  V30 2295 O 214.47 1.07135 -1.57882 0
M  V30 2296 C 211.61 1.53888 -3.08889 0
M  V30 2297 C 210.723 0.939396 -4.21663 0
M  V30 2298 C 209.858 2.02547 -4.91068 0
M  V30 2299 C 208.897 1.40263 -5.95813 0
M  V30 2300 N 208.034 2.4286 -6.58759 0
M  V30 2301 H 212.874 -0.21674 -2.97211 0
M  V30 2302 H 210.411 -0.118722 -1.4662 0
M  V30 2303 H 212.369 2.19558 -3.54753 0
M  V30 2304 H 210.999 2.15074 -2.40714 0
M  V30 2305 H 210.051 0.171898 -3.80011 0
M  V30 2306 H 211.363 0.44436 -4.96817 0
M  V30 2307 H 210.517 2.75958 -5.40308 0
M  V30 2308 H 209.256 2.55415 -4.15469 0
M  V30 2309 H 208.261 0.653833 -5.45898 0
M  V30 2310 H 209.486 0.881719 -6.73352 0
M  V30 2311 H 207.432 2.94871 -5.85992 0
M  V30 2312 H 207.349 1.98152 -7.2957 0
M  V30 2313 H 208.617 3.15858 -7.12639 0
M  V30 2314 N 212.846 1.57033 -0.133567 0
M  V30 2315 C 214.074 2.00044 0.528195 0
M  V30 2316 C 214.489 1.01349 1.59291 0
M  V30 2317 O 213.846 0.00848369 1.82498 0
M  V30 2318 C 213.897 3.43018 1.1411 0
M  V30 2319 O 213.618 4.37939 0.11892 0
M  V30 2320 C 215.119 4.01237 1.88477 0
M  V30 2321 H 212.339 0.656517 0.138661 0
M  V30 2322 H 214.883 2.03267 -0.224196 0
M  V30 2323 H 213.038 3.40688 1.84418 0
M  V30 2324 H 213.452 5.21436 0.56613 0
M  V30 2325 H 214.926 5.03314 2.26669 0
M  V30 2326 H 215.403 3.41193 2.76558 0
M  V30 2327 H 216.009 4.07156 1.22898 0
M  V30 2328 N 214.325 -0.140222 1.56975 0
M  V30 2329 C 215.55 -0.870414 1.88251 0
M  V30 2330 C 215.975 -1.73637 0.723312 0
M  V30 2331 O 215.333 -1.78329 -0.32689 0
M  V30 2332 C 215.381 -1.69737 3.18154 0
M  V30 2333 O 214.485 -2.80229 3.02565 0
M  V30 2334 H 213.826 -0.242025 0.61832 0
M  V30 2335 H 216.356 -0.128999 2.04193 0
M  V30 2336 H 216.366 -2.09099 3.50345 0
M  V30 2337 H 215.041 -1.06152 4.02125 0
M  V30 2338 H 213.618 -2.44224 2.81796 0
M  V30 2339 N 215.803 -1.52179 -0.40978 0
M  V30 2340 C 216.733 -1.78435 -1.5061 0
M  V30 2341 C 217.714 -0.635295 -1.57791 0
M  V30 2342 O 218.899 -0.880823 -1.73076 0
M  V30 2343 C 216.029 -1.93444 -2.88439 0
M  V30 2344 C 214.983 -3.09038 -2.96108 0
M  V30 2345 C 214.309 -3.09268 -4.36185 0
M  V30 2346 C 215.609 -4.48508 -2.67652 0
M  V30 2347 H 217.303 -2.70237 -1.28889 0
M  V30 2348 H 214.849 -1.30036 -0.618605 0
M  V30 2349 H 216.802 -2.10394 -3.65119 0
M  V30 2350 H 215.526 -0.983129 -3.11452 0
M  V30 2351 H 214.185 -2.91837 -2.21872 0
M  V30 2352 H 213.833 -2.11861 -4.56206 0
M  V30 2353 H 213.533 -3.86907 -4.42241 0
M  V30 2354 H 215.057 -3.28348 -5.14801 0
M  V30 2355 H 216.471 -4.65918 -3.34056 0
M  V30 2356 H 214.868 -5.28059 -2.85085 0
M  V30 2357 H 215.938 -4.56649 -1.63095 0
M  V30 2358 N 217.281 0.66697 -1.42791 0
M  V30 2359 C 218.244 1.76211 -1.46568 0
M  V30 2360 C 219.244 1.56896 -0.352196 0
M  V30 2361 O 220.434 1.63044 -0.613364 0
M  V30 2362 C 217.566 3.14935 -1.30494 0
M  V30 2363 H 218.759 1.74247 -2.44086 0
M  V30 2364 H 216.312 0.877342 -1.29354 0
M  V30 2365 H 217.047 3.2252 -0.339301 0
M  V30 2366 H 216.832 3.30359 -2.11199 0
M  V30 2367 H 218.322 3.94821 -1.36038 0
M  V30 2368 N 218.759 1.29093 0.90403 0
M  V30 2369 C 220.17 1.15186 1.46932 0
M  V30 2370 C 220.521 -0.254587 1.94541 0
M  V30 2371 O 219.646 -1.14972 1.83332 0
M  V30 2372 C 220.241 2.08492 2.67051 0
M  V30 2373 C 218.8 1.98621 3.19729 0
M  V30 2374 C 217.947 1.9967 1.92425 0
M  V30 2375 H 220.898 1.41641 0.715789 0
M  V30 2376 H 220.919 1.65461 3.42641 0
M  V30 2377 H 220.431 3.10847 2.3237 0
M  V30 2378 H 218.532 0.993389 3.59114 0
M  V30 2379 H 218.645 2.86068 3.8432 0
M  V30 2380 H 217.009 1.44208 2.09943 0
M  V30 2381 H 217.792 3.03721 1.60026 0
M  V30 2382 N 220.237 -1.11381 1.11499 0
M  V30 2383 C 221.167 -2.19509 0.796125 0
M  V30 2384 C 222.148 -1.68458 -0.235796 0
M  V30 2385 O 223.333 -1.93947 -0.0991344 0
M  V30 2386 C 220.463 -3.46475 0.239205 0
M  V30 2387 C 219.417 -4.10744 1.20307 0
M  V30 2388 C 218.743 -5.32293 0.50683 0
M  V30 2389 C 220.043 -4.55597 2.55399 0
M  V30 2390 H 221.737 -2.46439 1.70024 0
M  V30 2391 H 219.283 -1.18446 0.818935 0
M  V30 2392 H 221.236 -4.214 0.00392006 0
M  V30 2393 H 219.96 -3.19006 -0.700206 0
M  V30 2394 H 218.619 -3.37813 1.42399 0
M  V30 2395 H 218.267 -5.01095 -0.437408 0
M  V30 2396 H 217.967 -5.76243 1.1497 0
M  V30 2397 H 219.491 -6.09956 0.280351 0
M  V30 2398 H 220.905 -5.21841 2.37391 0
M  V30 2399 H 219.302 -5.10363 3.15673 0
M  V30 2400 H 220.372 -3.69013 3.14575 0
M  V30 2401 N 221.715 -0.905404 -1.28997 0
M  V30 2402 C 223.126 -0.581953 -1.77398 0
M  V30 2403 C 223.477 0.902552 -1.74208 0
M  V30 2404 O 222.602 1.70584 -1.33154 0
M  V30 2405 C 223.197 -1.04961 -3.22131 0
M  V30 2406 C 221.756 -0.777229 -3.68288 0
M  V30 2407 C 220.903 -1.22109 -2.48967 0
M  V30 2408 H 223.854 -1.08754 -1.15578 0
M  V30 2409 H 223.875 -0.387387 -3.78523 0
M  V30 2410 H 223.387 -2.13008 -3.24421 0
M  V30 2411 H 221.488 0.290383 -3.71467 0
M  V30 2412 H 221.601 -1.37911 -4.58822 0
M  V30 2413 H 219.965 -0.639971 -2.46529 0
M  V30 2414 H 220.748 -2.30972 -2.53982 0
M  V30 2415 N 223.193 1.4272 -0.668489 0
M  V30 2416 C 224.433 2.03497 -0.19194 0
M  V30 2417 C 224.797 1.51684 1.17712 0
M  V30 2418 O 225.998 2.04205 1.74796 0
M  V30 2419 C 224.269 3.56734 -0.218032 0
M  V30 2420 S 225.828 4.38395 0.188438 0
M  V30 2421 H 222.646 0.706542 -0.0794959 0
M  V30 2422 H 225.248 1.74563 -0.880235 0
M  V30 2423 H 223.952 3.91943 -1.2169 0
M  V30 2424 H 223.483 3.90333 0.490303 0
M  V30 2425 H 225.498 4.75345 1.42345 0
M  V30 2426 N 224.671 0.411399 1.52136 0
M  V30 2427 C 225.901 -0.16284 2.05957 0
M  V30 2428 C 226.309 -1.3922 1.28119 0
M  V30 2429 O 225.652 -1.80768 0.326881 0
M  V30 2430 C 225.714 -0.575946 3.54856 0
M  V30 2431 C 225.378 0.542998 4.53763 0
M  V30 2432 C 226.375 1.40726 5.00492 0
M  V30 2433 C 224.06 0.716337 4.97166 0
M  V30 2434 C 226.054 2.4298 5.8927 0
M  V30 2435 C 223.741 1.74218 5.8574 0
M  V30 2436 C 224.739 2.59731 6.31687 0
M  V30 2437 O 224.427 3.60558 7.18507 0
M  V30 2438 H 224.159 -0.0229125 0.675612 0
M  V30 2439 H 226.713 0.581634 1.96993 0
M  V30 2440 H 224.943 -1.37274 3.61515 0
M  V30 2441 H 226.632 -1.07836 3.91313 0
M  V30 2442 H 227.398 1.28476 4.67674 0
M  V30 2443 H 223.277 0.0603857 4.6096 0
M  V30 2444 H 226.821 3.0976 6.25055 0
M  V30 2445 H 222.718 1.86498 6.17971 0
M  V30 2446 H 223.486 3.56829 7.36624 0
M  V30 2447 N 226.149 -1.5696 0.141893 0
M  V30 2448 C 227.395 -1.9625 -0.511248 0
M  V30 2449 C 227.728 -1.02654 -1.64851 0
M  V30 2450 O 227.003 -0.0679676 -1.94381 0
M  V30 2451 C 227.286 -3.45285 -1.02227 0
M  V30 2452 C 227.139 -4.49658 0.113138 0
M  V30 2453 C 228.458 -3.96698 -1.90574 0
M  V30 2454 H 225.577 -0.713567 -0.184367 0
M  V30 2455 H 228.219 -1.88698 0.222087 0
M  V30 2456 H 226.369 -3.51852 -1.64719 0
M  V30 2457 H 228.041 -4.55174 0.749302 0
M  V30 2458 H 226.284 -4.26857 0.773026 0
M  V30 2459 H 226.955 -5.51258 -0.286053 0
M  V30 2460 H 229.431 -3.92578 -1.37918 0
M  V30 2461 H 228.307 -5.01453 -2.2324 0
M  V30 2462 H 228.568 -3.3875 -2.84079 0
M  V30 2463 N 227.627 0.131896 -1.57047 0
M  V30 2464 C 228.857 0.855219 -1.88068 0
M  V30 2465 C 229.265 1.74557 -0.729817 0
M  V30 2466 O 228.608 1.81083 0.308962 0
M  V30 2467 C 228.67 1.75119 -3.13964 0
M  V30 2468 C 228.334 1.03646 -4.45091 0
M  V30 2469 C 229.331 0.383276 -5.18485 0
M  V30 2470 C 227.016 1.02148 -4.91804 0
M  V30 2471 C 229.01 -0.275347 -6.36805 0
M  V30 2472 C 226.697 0.359047 -6.10044 0
M  V30 2473 C 227.695 -0.288222 -6.82392 0
M  V30 2474 O 227.383 -0.94011 -7.98384 0
M  V30 2475 H 227.115 0.251864 -0.627328 0
M  V30 2476 H 229.669 0.124782 -2.05021 0
M  V30 2477 H 227.899 2.52295 -2.9306 0
M  V30 2478 H 229.588 2.3478 -3.31109 0
M  V30 2479 H 230.354 0.386562 -4.83457 0
M  V30 2480 H 226.233 1.5147 -4.35405 0
M  V30 2481 H 229.777 -0.781148 -6.93213 0
M  V30 2482 H 225.674 0.35348 -6.44531 0
M  V30 2483 H 226.442 -0.84329 -8.14144 0
M  V30 2484 N 229.106 1.52395 0.401703 0
M  V30 2485 C 230.036 1.79231 1.49661 0
M  V30 2486 C 231.017 0.643654 1.57452 0
M  V30 2487 O 232.202 0.889989 1.72606 0
M  V30 2488 C 229.332 1.94971 2.87409 0
M  V30 2489 C 228.286 3.10604 2.94465 0
M  V30 2490 C 227.612 3.11577 4.34538 0
M  V30 2491 C 228.912 4.49921 2.6527 0
M  V30 2492 H 230.606 2.70917 1.27454 0
M  V30 2493 H 228.152 1.30362 0.6117 0
M  V30 2494 H 230.105 2.12328 3.63999 0
M  V30 2495 H 228.829 0.999632 3.10926 0
M  V30 2496 H 227.488 2.93009 2.20321 0
M  V30 2497 H 227.136 2.14277 4.55076 0
M  V30 2498 H 226.836 3.89247 4.40183 0
M  V30 2499 H 228.36 3.31073 5.13053 0
M  V30 2500 H 229.774 4.67683 3.31581 0
M  V30 2501 H 228.171 5.29564 2.82281 0
M  V30 2502 H 229.241 4.57507 1.60671 0
M  V30 2503 N 230.584 -0.659388 1.43143 0
M  V30 2504 C 231.833 -1.41518 1.43721 0
M  V30 2505 C 232.146 -1.95499 0.0628176 0
M  V30 2506 O 233.352 -2.71446 -0.0539683 0
M  V30 2507 C 231.808 -2.5608 2.52885 0
M  V30 2508 C 231.416 -2.08733 3.96402 0
M  V30 2509 C 233.16 -3.3349 2.62649 0
M  V30 2510 C 231.067 -3.20469 4.97045 0
M  V30 2511 H 229.997 -0.531705 0.534608 0
M  V30 2512 H 232.648 -0.712343 1.69109 0
M  V30 2513 H 231.03 -3.28805 2.20688 0
M  V30 2514 H 232.204 -1.43059 4.3803 0
M  V30 2515 H 230.519 -1.44219 3.90627 0
M  V30 2516 H 233.116 -4.16734 3.35017 0
M  V30 2517 H 233.459 -3.8111 1.67513 0
M  V30 2518 H 233.992 -2.67842 2.94118 0
M  V30 2519 H 230.731 -2.77824 5.93712 0
M  V30 2520 H 230.251 -3.84874 4.60034 0
M  V30 2521 H 231.93 -3.85698 5.19467 0
M  V30 2522 N 232.062 -1.29571 -0.897171 0
M  V30 2523 C 232.972 -1.16808 -2.03453 0
M  V30 2524 C 233.988 -0.0907471 -1.73763 0
M  V30 2525 O 235.164 -0.303312 -1.99103 0
M  V30 2526 C 232.229 -0.848264 -3.36163 0
M  V30 2527 C 231.29 -2.0097 -3.79354 0
M  V30 2528 C 230.523 -1.70505 -5.05731 0
M  V30 2529 O 230.746 -0.62718 -5.66941 0
M  V30 2530 O 229.68 -2.5538 -5.45036 0
M  V30 2531 H 233.506 -2.12325 -2.17144 0
M  V30 2532 H 231.091 -1.09047 -1.02123 0
M  V30 2533 H 232.973 -0.684581 -4.15802 0
M  V30 2534 H 231.648 0.0771071 -3.23608 0
M  V30 2535 H 230.555 -2.22863 -3.00471 0
M  V30 2536 H 231.888 -2.91636 -3.96496 0
M  V30 2537 N 233.54 1.10788 -1.12088 0
M  V30 2538 C 234.49 2.15158 -0.754401 0
M  V30 2539 C 235.474 1.59026 0.244846 0
M  V30 2540 O 236.666 1.76927 0.0509097 0
M  V30 2541 C 233.795 3.42677 -0.206657 0
M  V30 2542 C 232.881 4.05751 -1.23398 0
M  V30 2543 N 233.272 4.43582 -2.43041 0
M  V30 2544 C 231.57 4.32764 -1.07848 0
M  V30 2545 C 232.271 4.93085 -3.08613 0
M  V30 2546 N 231.247 4.89664 -2.36072 0
M  V30 2547 H 235.049 2.42195 -1.6649 0
M  V30 2548 H 232.563 1.27872 -1.00112 0
M  V30 2549 H 234.56 4.16834 0.0740646 0
M  V30 2550 H 233.22 3.17101 0.698342 0
M  V30 2551 H 234.231 4.35395 -2.80449 0
M  V30 2552 H 230.908 4.16863 -0.230483 0
M  V30 2553 H 232.298 5.31933 -4.10483 0
M  V30 2554 N 235.018 0.912232 1.28515 0
M  V30 2555 C 236.429 0.591352 1.77087 0
M  V30 2556 C 236.78 -0.8933 1.74684 0
M  V30 2557 O 235.905 -1.69876 1.34056 0
M  V30 2558 C 236.5 1.06668 3.2157 0
M  V30 2559 C 235.059 0.79675 3.67871 0
M  V30 2560 C 234.206 1.23427 2.48316 0
M  V30 2561 H 237.157 1.09365 1.15 0
M  V30 2562 H 237.178 0.407455 3.78312 0
M  V30 2563 H 236.69 2.14726 3.23287 0
M  V30 2564 H 234.791 -0.270679 3.71616 0
M  V30 2565 H 234.904 1.40343 4.58084 0
M  V30 2566 H 233.268 0.653036 2.46186 0
M  V30 2567 H 234.051 2.32316 2.52753 0
M  V30 2568 N 236.496 -1.42363 0.676048 0
M  V30 2569 C 237.721 -2.06377 0.205705 0
M  V30 2570 C 238.146 -1.50463 -1.12883 0
M  V30 2571 O 237.504 -0.623619 -1.70237 0
M  V30 2572 C 237.552 -3.60277 0.152655 0
M  V30 2573 O 236.656 -4.02935 -0.87845 0
M  V30 2574 H 235.997 -0.655588 0.105359 0
M  V30 2575 H 238.527 -1.82475 0.925412 0
M  V30 2576 H 238.537 -4.07993 -0.0230675 0
M  V30 2577 H 237.212 -4.00346 1.12675 0
M  V30 2578 H 235.789 -3.66764 -0.673668 0
M  V30 2579 N 237.974 -0.419461 -1.51915 0
M  V30 2580 C 238.904 0.391813 -2.30189 0
M  V30 2581 C 239.885 1.03699 -1.34836 0
M  V30 2582 O 241.07 1.04403 -1.63748 0
M  V30 2583 C 238.2 1.50312 -3.13087 0
M  V30 2584 C 237.154 0.9824 -4.16573 0
M  V30 2585 C 236.48 2.18809 -4.8788 0
M  V30 2586 C 237.78 0.0292356 -5.22292 0
M  V30 2587 H 239.474 -0.26135 -2.98257 0
M  V30 2588 H 237.02 -0.127134 -1.43438 0
M  V30 2589 H 238.973 2.07773 -3.66617 0
M  V30 2590 H 237.697 2.18431 -2.42807 0
M  V30 2591 H 236.356 0.430119 -3.64068 0
M  V30 2592 H 236.004 2.85507 -4.14119 0
M  V30 2593 H 235.704 1.84615 -5.57845 0
M  V30 2594 H 237.228 2.76858 -5.44226 0
M  V30 2595 H 238.642 0.512976 -5.71 0
M  V30 2596 H 237.039 -0.2244 -5.9968 0
M  V30 2597 H 238.109 -0.912931 -4.76228 0
M  V30 2598 N 239.452 1.56882 -0.150215 0
M  V30 2599 C 240.399 2.16922 0.788244 0
M  V30 2600 C 241.369 1.10303 1.24187 0
M  V30 2601 O 242.554 1.38359 1.31383 0
M  V30 2602 C 239.694 2.79754 2.02068 0
M  V30 2603 C 238.807 4.00775 1.61257 0
M  V30 2604 C 237.942 4.51595 2.79705 0
M  V30 2605 C 236.981 5.65074 2.35282 0
M  V30 2606 N 236.118 6.10499 3.4675 0
M  V30 2607 H 240.958 2.96779 0.269444 0
M  V30 2608 H 238.495 1.46599 0.12128 0
M  V30 2609 H 240.453 3.14329 2.74323 0
M  V30 2610 H 239.083 2.02536 2.51354 0
M  V30 2611 H 238.135 3.72158 0.787553 0
M  V30 2612 H 239.447 4.82978 1.24633 0
M  V30 2613 H 238.601 4.88242 3.60145 0
M  V30 2614 H 237.34 3.68406 3.19576 0
M  V30 2615 H 236.345 5.28 1.53283 0
M  V30 2616 H 237.57 6.50052 1.96493 0
M  V30 2617 H 235.516 5.30243 3.86236 0
M  V30 2618 H 235.433 6.87637 3.14152 0
M  V30 2619 H 236.701 6.51791 4.27537 0
M  V30 2620 N 240.93 -0.123565 1.57115 0
M  V30 2621 C 242.16 -0.845233 1.88519 0
M  V30 2622 C 242.568 -1.74168 0.739064 0
M  V30 2623 O 241.911 -1.81244 -0.299355 0
M  V30 2624 C 241.973 -1.73452 3.14888 0
M  V30 2625 C 241.637 -1.01285 4.45635 0
M  V30 2626 C 242.634 -0.355774 5.18681 0
M  V30 2627 C 240.319 -0.99538 4.92339 0
M  V30 2628 C 242.313 0.309114 6.3665 0
M  V30 2629 C 240 -0.32669 6.10226 0
M  V30 2630 C 240.998 0.324406 6.82229 0
M  V30 2631 O 240.686 0.982437 7.97874 0
M  V30 2632 H 240.418 -0.248534 0.628655 0
M  V30 2633 H 242.972 -0.113907 2.05084 0
M  V30 2634 H 241.202 -2.50737 2.94394 0
M  V30 2635 H 242.891 -2.33021 3.32349 0
M  V30 2636 H 243.657 -0.360918 4.83655 0
M  V30 2637 H 239.536 -1.49159 4.36202 0
M  V30 2638 H 243.08 0.8179 6.92789 0
M  V30 2639 H 238.977 -0.319294 6.4471 0
M  V30 2640 H 239.745 0.886454 8.13686 0
M  V30 2641 N 242.408 -1.52605 -0.393616 0
M  V30 2642 C 243.371 -1.76415 -1.46323 0
M  V30 2643 C 244.371 -0.634126 -1.47768 0
M  V30 2644 O 245.561 -0.902142 -1.4902 0
M  V30 2645 C 242.693 -1.8607 -2.85641 0
M  V30 2646 H 243.886 -2.71916 -1.26498 0
M  V30 2647 H 241.439 -1.43257 -0.625073 0
M  V30 2648 H 242.174 -0.925378 -3.10817 0
M  V30 2649 H 241.959 -2.68235 -2.85993 0
M  V30 2650 H 243.449 -2.06179 -3.63153 0
M  V30 2651 N 243.887 0.651787 -1.4349 0
M  V30 2652 C 245.115 1.43937 -1.48626 0
M  V30 2653 C 245.53 1.8851 -0.104587 0
M  V30 2654 O 244.887 1.5958 0.885464 0
M  V30 2655 C 244.938 2.6734 -2.43334 0
M  V30 2656 O 244.659 2.24631 -3.76128 0
M  V30 2657 C 246.16 3.60683 -2.57726 0
M  V30 2658 H 243.38 0.44213 -0.504739 0
M  V30 2659 H 245.924 0.798944 -1.88248 0
M  V30 2660 H 244.079 3.2752 -2.06904 0
M  V30 2661 H 244.493 3.04485 -4.2707 0
M  V30 2662 H 245.967 4.43933 -3.28067 0
M  V30 2663 H 246.444 4.08126 -1.62265 0
M  V30 2664 H 247.05 3.06384 -2.94973 0
M  V30 2665 N 245.365 1.30045 0.890287 0
M  V30 2666 C 246.593 1.21472 1.67487 0
M  V30 2667 C 247.008 -0.223241 1.87476 0
M  V30 2668 O 246.365 -1.14828 1.41847 0
M  V30 2669 C 246.416 1.93394 3.05419 0
M  V30 2670 O 246.137 3.31576 2.86337 0
M  V30 2671 C 247.638 1.91414 3.99844 0
M  V30 2672 H 244.858 0.420604 0.522813 0
M  V30 2673 H 247.402 1.7158 1.11268 0
M  V30 2674 H 245.557 1.47099 3.58386 0
M  V30 2675 H 245.971 3.67929 3.73802 0
M  V30 2676 H 247.445 2.46285 4.94012 0
M  V30 2677 H 247.922 0.891833 4.3005 0
M  V30 2678 H 248.528 2.37496 3.52811 0
M  V30 2679 N 246.843 -1.10192 1.12674 0
M  V30 2680 C 248.259 -1.34235 0.863317 0
M  V30 2681 C 248.459 -1.95062 -0.505277 0
M  V30 2682 O 247.515 -2.19192 -1.25345 0
M  V30 2683 C 248.828 -2.2616 1.98172 0
M  V30 2684 C 250.376 -2.3969 2.0129 0
M  V30 2685 C 250.851 -3.34946 3.1237 0
M  V30 2686 N 252.342 -3.42515 3.11829 0
M  V30 2687 C 253.077 -4.16199 3.94419 0
M  V30 2688 N 252.573 -4.92747 4.87004 0
M  V30 2689 N 254.366 -4.11843 3.82547 0
M  V30 2690 H 246.517 -0.690798 2.00853 0
M  V30 2691 H 248.78 -0.366774 0.874174 0
M  V30 2692 H 248.486 -1.8868 2.96804 0
M  V30 2693 H 248.36 -3.26488 1.88906 0
M  V30 2694 H 250.747 -2.76438 1.03276 0
M  V30 2695 H 250.828 -1.39169 2.14629 0
M  V30 2696 H 250.472 -2.98923 4.10619 0
M  V30 2697 H 250.402 -4.35353 2.96269 0
M  V30 2698 H 252.893 -2.87926 2.44759 0
M  V30 2699 H 253.206 -5.46376 5.46528 0
M  V30 2700 H 251.551 -4.91862 4.91016 0
M  V30 2701 H 254.742 -3.51136 3.0955 0
M  V30 2702 H 254.915 -4.69007 4.47142 0
M  V30 2703 N 248.321 -0.919034 -1.28029 0
M  V30 2704 C 249.546 -0.570357 -1.99403 0
M  V30 2705 C 249.971 0.842486 -1.68178 0
M  V30 2706 O 249.329 1.56391 -0.917141 0
M  V30 2707 C 249.377 -0.792541 -3.51783 0
M  V30 2708 O 248.481 0.145988 -4.12142 0
M  V30 2709 H 247.822 -0.220555 -0.6263 0
M  V30 2710 H 250.352 -1.23592 -1.63053 0
M  V30 2711 H 250.362 -0.704708 -4.01868 0
M  V30 2712 H 249.037 -1.82247 -3.73844 0
M  V30 2713 H 247.614 0.00897528 -3.72899 0
M  V30 2714 N 249.799 1.42003 -0.683588 0
M  V30 2715 C 251.048 2.00638 -0.206681 0
M  V30 2716 C 251.361 1.5472 1.19671 0
M  V30 2717 O 252.567 2.05833 1.77045 0
M  V30 2718 C 251.023 3.58487 -0.318632 0
M  V30 2719 C 250.631 4.1339 -1.72663 0
M  V30 2720 C 252.375 4.24384 0.0991141 0
M  V30 2721 C 250.282 5.63633 -1.79087 0
M  V30 2722 H 249.212 0.750408 -0.0735107 0
M  V30 2723 H 251.863 1.62624 -0.850048 0
M  V30 2724 H 250.245 3.94047 0.392781 0
M  V30 2725 H 251.419 3.89273 -2.46583 0
M  V30 2726 H 249.734 3.59976 -2.09299 0
M  V30 2727 H 252.331 5.34652 0.0713833 0
M  V30 2728 H 252.674 4.00505 1.13586 0
M  V30 2729 H 253.207 3.93816 -0.561599 0
M  V30 2730 H 249.946 5.92323 -2.80774 0
M  V30 2731 H 249.466 5.89714 -1.09535 0
M  V30 2732 H 251.145 6.28201 -1.5483 0
M  V30 2733 N 251.277 0.427512 1.51691 0
M  V30 2734 C 252.24 -0.377132 2.26076 0
M  V30 2735 C 253.24 -0.958089 1.29141 0
M  V30 2736 O 254.43 -0.83408 1.52934 0
M  V30 2737 C 251.562 -1.53262 3.04506 0
M  V30 2738 H 252.755 0.27464 2.9864 0
M  V30 2739 H 250.308 0.180445 1.55255 0
M  V30 2740 H 251.043 -2.22072 2.36335 0
M  V30 2741 H 250.828 -1.12232 3.75694 0
M  V30 2742 H 252.318 -2.10135 3.60878 0
M  V30 2743 N 252.755 -1.56801 0.158532 0
M  V30 2744 C 253.702 -2.17337 -0.776729 0
M  V30 2745 C 254.672 -1.1096 -1.23601 0
M  V30 2746 O 255.857 -1.39054 -1.30647 0
M  V30 2747 C 252.997 -2.80822 -2.00582 0
M  V30 2748 C 252.11 -4.01624 -1.59129 0
M  V30 2749 C 251.245 -4.53072 -2.77306 0
M  V30 2750 C 250.284 -5.66314 -2.32282 0
M  V30 2751 N 249.421 -6.12329 -3.43508 0
M  V30 2752 H 254.261 -2.96918 -0.253701 0
M  V30 2753 H 251.798 -1.46661 -0.113504 0
M  V30 2754 H 253.756 -3.15779 -2.72652 0
M  V30 2755 H 252.386 -2.03866 -2.50277 0
M  V30 2756 H 251.438 -3.72571 -0.767806 0
M  V30 2757 H 252.75 -4.83633 -1.2207 0
M  V30 2758 H 251.904 -4.90145 -3.57551 0
M  V30 2759 H 250.643 -3.70095 -3.17617 0
M  V30 2760 H 249.648 -5.28806 -1.5048 0
M  V30 2761 H 250.873 -6.51085 -1.93043 0
M  V30 2762 H 248.819 -5.32284 -3.83418 0
M  V30 2763 H 248.736 -6.89293 -3.105 0
M  V30 2764 H 250.004 -6.5405 -4.24075 0
M  V30 2765 N 254.233 0.115231 -1.57178 0
M  V30 2766 C 255.463 0.835224 -1.88964 0
M  V30 2767 C 255.871 1.73774 -0.74829 0
M  V30 2768 O 255.214 1.81401 0.289739 0
M  V30 2769 C 255.276 1.7178 -3.15804 0
M  V30 2770 C 254.94 0.989198 -4.46166 0
M  V30 2771 C 255.937 0.328263 -5.18863 0
M  V30 2772 C 253.622 0.969256 -4.9286 0
M  V30 2773 C 255.616 -0.342873 -6.36477 0
M  V30 2774 C 253.303 0.294324 -6.10391 0
M  V30 2775 C 254.301 -0.360582 -6.82048 0
M  V30 2776 O 253.989 -1.02474 -7.97342 0
M  V30 2777 H 253.721 0.245197 -0.629964 0
M  V30 2778 H 256.275 0.10303 -2.05141 0
M  V30 2779 H 254.505 2.49173 -2.95719 0
M  V30 2780 H 256.194 2.31255 -3.33581 0
M  V30 2781 H 256.96 0.335263 -4.8384 0
M  V30 2782 H 252.839 1.46844 -4.36987 0
M  V30 2783 H 256.383 -0.854629 -6.92345 0
M  V30 2784 H 252.28 0.285099 -6.4487 0
M  V30 2785 H 253.048 -0.929594 -8.13204 0
M  V30 2786 N 255.711 1.52812 0.385517 0
M  V30 2787 C 257.122 1.5993 0.963293 0
M  V30 2788 C 257.473 0.454302 1.90868 0
M  V30 2789 O 256.598 -0.422132 2.12243 0
M  V30 2790 C 257.193 2.89871 1.75387 0
M  V30 2791 C 255.752 2.99389 2.28129 0
M  V30 2792 C 254.899 2.55071 1.08783 0
M  V30 2793 H 257.85 1.5784 0.164948 0
M  V30 2794 H 257.871 2.76553 2.61341 0
M  V30 2795 H 257.383 3.73186 1.06554 0
M  V30 2796 H 255.484 2.20619 3.00263 0
M  V30 2797 H 255.597 4.04096 2.57377 0
M  V30 2798 H 253.961 2.09473 1.4489 0
M  V30 2799 H 254.744 3.40785 0.414807 0
M  V30 2800 N 257.189 -0.644168 1.43834 0
M  V30 2801 C 258.435 -1.40603 1.46146 0
M  V30 2802 C 258.768 -1.93997 0.0887717 0
M  V30 2803 O 258.043 -1.72854 -0.891724 0
M  V30 2804 C 258.326 -2.58086 2.51124 0
M  V30 2805 C 258.179 -2.10126 3.97702 0
M  V30 2806 C 259.498 -3.60291 2.52742 0
M  V30 2807 H 256.617 -0.509905 0.532134 0
M  V30 2808 H 259.259 -0.729502 1.75437 0
M  V30 2809 H 257.409 -3.15801 2.26278 0
M  V30 2810 H 259.081 -1.57342 4.33637 0
M  V30 2811 H 257.324 -1.41419 4.10101 0
M  V30 2812 H 257.995 -2.94649 4.66783 0
M  V30 2813 H 260.471 -3.12352 2.7491 0
M  V30 2814 H 259.347 -4.40032 3.28121 0
M  V30 2815 H 259.608 -4.1349 1.56455 0
M  V30 2816 N 258.668 -1.30515 -0.883378 0
M  V30 2817 C 259.916 -1.19194 -1.63209 0
M  V30 2818 C 260.237 0.253205 -1.93349 0
M  V30 2819 O 259.507 1.17025 -1.57105 0
M  V30 2820 H 258.087 -0.438148 -0.605009 0
M  V30 2821 H 260.749 -1.63663 -1.05832 0
M  V30 2822 H 259.845 -1.75396 -2.58153 0
M  V30 2823 N 260.146 1.09593 -1.13257 0
M  V30 2824 C 261.395 1.81105 -0.887917 0
M  V30 2825 C 261.708 1.86563 0.587672 0
M  V30 2826 O 262.914 2.54367 0.949204 0
M  V30 2827 C 261.37 3.25338 -1.53895 0
M  V30 2828 C 260.978 3.28151 -3.04994 0
M  V30 2829 C 262.722 4.01617 -1.37492 0
M  V30 2830 C 260.629 4.66897 -3.6299 0
M  V30 2831 H 259.559 0.678661 -0.328534 0
M  V30 2832 H 262.21 1.23183 -1.36008 0
M  V30 2833 H 260.592 3.8331 -0.994446 0
M  V30 2834 H 261.766 2.79953 -3.66009 0
M  V30 2835 H 260.081 2.65361 -3.20893 0
M  V30 2836 H 262.678 5.04119 -1.78235 0
M  V30 2837 H 263.021 4.15072 -0.31957 0
M  V30 2838 H 263.554 3.50082 -1.88912 0
M  V30 2839 H 260.293 4.58643 -4.68323 0
M  V30 2840 H 259.813 5.15426 -3.06752 0
M  V30 2841 H 261.492 5.3587 -3.62563 0
M  V30 2842 N 261.624 0.925811 1.2754 0
M  V30 2843 C 262.534 0.428993 2.30644 0
M  V30 2844 C 263.55 -0.489387 1.66976 0
M  V30 2845 O 264.726 -0.372653 1.97922 0
M  V30 2846 C 261.791 -0.311967 3.45294 0
M  V30 2847 C 260.852 0.641098 4.24486 0
M  V30 2848 C 260.085 -0.0645955 5.33661 0
M  V30 2849 O 260.308 -1.28429 5.55754 0
M  V30 2850 O 259.242 0.606265 5.98839 0
M  V30 2851 H 263.068 1.28504 2.75173 0
M  V30 2852 H 260.653 0.691086 1.32455 0
M  V30 2853 H 262.535 -0.729972 4.15029 0
M  V30 2854 H 261.21 -1.14365 3.02824 0
M  V30 2855 H 260.117 1.10874 3.57292 0
M  V30 2856 H 261.45 1.43995 4.70666 0
M  V30 2857 N 263.102 -1.41638 0.69111 0
M  V30 2858 C 264.348 -2.01598 0.220519 0
M  V30 2859 C 264.681 -1.54594 -1.17535 0
M  V30 2860 O 263.956 -0.755177 -1.79241 0
M  V30 2861 C 264.239 -3.59062 0.273243 0
M  V30 2862 C 264.092 -4.16203 1.70573 0
M  V30 2863 C 265.411 -4.38546 -0.369457 0
M  V30 2864 H 262.53 -0.732468 0.0816045 0
M  V30 2865 H 265.172 -1.68445 0.878986 0
M  V30 2866 H 263.322 -3.87435 -0.287411 0
M  V30 2867 H 264.994 -3.98722 2.31989 0
M  V30 2868 H 263.237 -3.71414 2.2413 0
M  V30 2869 H 263.908 -5.25358 1.69419 0
M  V30 2870 H 266.384 -4.1596 0.107977 0
M  V30 2871 H 265.26 -5.48069 -0.302002 0
M  V30 2872 H 265.521 -4.17662 -1.44951 0
M  V30 2873 N 264.58 -0.43555 -1.51462 0
M  V30 2874 C 265.828 0.131254 -2.01673 0
M  V30 2875 C 266.149 1.43368 -1.32177 0
M  V30 2876 O 265.419 1.90524 -0.455769 0
M  V30 2877 H 263.999 0.0514954 -0.745223 0
M  V30 2878 H 266.661 -0.577847 -1.86137 0
M  V30 2879 H 265.757 0.308446 -3.10572 0
M  V30 2880 N 266.058 1.56714 -0.166846 0
M  V30 2881 C 267.469 1.83378 0.350646 0
M  V30 2882 C 267.82 1.08646 1.63372 0
M  V30 2883 O 266.945 0.338058 2.13743 0
M  V30 2884 C 267.54 3.32643 0.642963 0
M  V30 2885 C 266.099 3.59818 1.10491 0
M  V30 2886 C 265.246 2.76954 0.138411 0
M  V30 2887 H 268.197 1.53803 -0.391193 0
M  V30 2888 H 268.218 3.49878 1.49551 0
M  V30 2889 H 267.73 3.87007 -0.291055 0
M  V30 2890 H 265.831 3.1086 2.05418 0
M  V30 2891 H 265.944 4.68178 1.01716 0
M  V30 2892 H 264.308 2.4666 0.634911 0
M  V30 2893 H 265.091 3.34097 -0.789549 0
M  V30 2894 N 267.536 -0.106894 1.57237 0
M  V30 2895 C 268.468 -1.15646 1.97885 0
M  V30 2896 C 269.481 -1.36981 0.879779 0
M  V30 2897 O 270.67 -1.35841 1.15799 0
M  V30 2898 C 267.77 -2.51425 2.27241 0
M  V30 2899 C 266.943 -2.50529 3.58545 0
M  V30 2900 C 266.002 -3.68145 3.75973 0
M  V30 2901 O 265.028 -3.51176 4.47956 0
M  V30 2902 N 266.23 -4.87177 3.15656 0
M  V30 2903 H 268.995 -0.81059 2.8853 0
M  V30 2904 H 266.556 -0.296024 1.59171 0
M  V30 2905 H 268.548 -3.28689 2.36105 0
M  V30 2906 H 267.118 -2.78147 1.42663 0
M  V30 2907 H 266.338 -1.58894 3.60758 0
M  V30 2908 H 267.626 -2.46997 4.44826 0
M  V30 2909 H 267.024 -5.03868 2.57165 0
M  V30 2910 H 265.581 -5.62075 3.30023 0
M  V30 2911 N 269.014 -1.53014 -0.377408 0
M  V30 2912 C 270.425 -1.60438 -0.954798 0
M  V30 2913 C 270.776 -0.464418 -1.90624 0
M  V30 2914 O 269.901 0.41087 -2.12464 0
M  V30 2915 C 270.496 -2.90797 -1.73847 0
M  V30 2916 C 269.055 -3.00595 -2.26538 0
M  V30 2917 C 268.202 -2.55645 -1.07429 0
M  V30 2918 H 271.153 -1.57926 -0.156575 0
M  V30 2919 H 271.174 -2.77935 -2.5987 0
M  V30 2920 H 270.686 -3.73746 -1.04574 0
M  V30 2921 H 268.787 -2.22208 -2.99089 0
M  V30 2922 H 268.9 -4.05456 -2.5523 0
M  V30 2923 H 267.264 -2.10239 -1.43777 0
M  V30 2924 H 268.047 -3.41 -0.396728 0
M  V30 2925 N 270.492 0.636531 -1.44174 0
M  V30 2926 C 271.424 1.7618 -1.46606 0
M  V30 2927 C 272.437 1.58768 -0.360091 0
M  V30 2928 O 273.626 1.67181 -0.625518 0
M  V30 2929 C 270.726 3.13833 -1.27915 0
M  V30 2930 C 269.899 3.57753 -2.51658 0
M  V30 2931 C 268.958 4.74265 -2.27945 0
M  V30 2932 O 267.984 4.82852 -3.01401 0
M  V30 2933 N 269.186 5.65604 -1.30662 0
M  V30 2934 H 271.951 1.74567 -2.43612 0
M  V30 2935 H 269.512 0.820924 -1.39544 0
M  V30 2936 H 271.504 3.8949 -1.09907 0
M  V30 2937 H 270.074 3.10121 -0.39293 0
M  V30 2938 H 269.294 2.72362 -2.84978 0
M  V30 2939 H 270.582 3.83847 -3.33974 0
M  V30 2940 H 269.98 5.61354 -0.699844 0
M  V30 2941 H 268.537 6.40913 -1.18634 0
M  V30 2942 N 271.97 1.30982 0.876444 0
M  V30 2943 C 273.218 1.20058 1.62575 0
M  V30 2944 C 273.539 -0.242947 1.93481 0
M  V30 2945 O 272.809 -1.1619 1.57724 0
M  V30 2946 H 271.389 0.44135 0.602677 0
M  V30 2947 H 274.051 1.64222 1.04962 0
M  V30 2948 H 273.147 1.76762 2.57219 0
M  V30 2949 N 273.449 -1.08991 1.13837 0
M  V30 2950 C 274.695 -1.81526 0.90422 0
M  V30 2951 C 275.028 -1.85706 -0.568066 0
M  V30 2952 O 274.303 -1.32855 -1.42056 0
M  V30 2953 C 274.586 -3.27447 1.49835 0
M  V30 2954 C 274.439 -3.31512 3.04006 0
M  V30 2955 C 275.758 -4.24256 1.17025 0
M  V30 2956 H 272.877 -0.659029 0.329923 0
M  V30 2957 H 275.519 -1.27644 1.40737 0
M  V30 2958 H 273.669 -3.73462 1.07044 0
M  V30 2959 H 275.341 -2.93867 3.55584 0
M  V30 2960 H 273.584 -2.70963 3.38765 0
M  V30 2961 H 274.255 -4.34329 3.40679 0
M  V30 2962 H 276.731 -3.86549 1.54009 0
M  V30 2963 H 275.607 -5.24684 1.61237 0
M  V30 2964 H 275.868 -4.42019 0.0846274 0
M  V30 2965 N 274.927 -0.932562 -1.27047 0
M  V30 2966 C 275.857 -0.452902 -2.29066 0
M  V30 2967 C 276.838 0.489338 -1.62909 0
M  V30 2968 O 278.023 0.393046 -1.90181 0
M  V30 2969 C 275.153 0.290698 -3.46081 0
M  V30 2970 C 274.107 -0.564168 -4.24265 0
M  V30 2971 C 273.433 0.308886 -5.33807 0
M  V30 2972 C 274.733 -1.83112 -4.89149 0
M  V30 2973 H 276.427 -1.30552 -2.69437 0
M  V30 2974 H 273.973 -0.629201 -1.29526 0
M  V30 2975 H 275.926 0.637233 -4.16554 0
M  V30 2976 H 274.65 1.17738 -3.0464 0
M  V30 2977 H 273.309 -0.893477 -3.55545 0
M  V30 2978 H 272.957 1.19467 -4.88607 0
M  V30 2979 H 272.657 -0.259633 -5.87026 0
M  V30 2980 H 274.181 0.650884 -6.07121 0
M  V30 2981 H 275.595 -1.55236 -5.51883 0
M  V30 2982 H 273.992 -2.34353 -5.52448 0
M  V30 2983 H 275.062 -2.54772 -4.12576 0
M  V30 2984 N 276.405 1.4127 -0.698611 0
M  V30 2985 C 277.821 1.55241 -0.370462 0
M  V30 2986 C 278.021 1.67351 1.12231 0
M  V30 2987 O 277.077 1.65363 1.90818 0
M  V30 2988 C 278.39 2.78997 -1.12165 0
M  V30 2989 C 279.938 2.92797 -1.1063 0
M  V30 2990 C 280.413 4.19445 -1.8393 0
M  V30 2991 N 281.904 4.26409 -1.80914 0
M  V30 2992 C 282.639 5.23271 -2.34467 0
M  V30 2993 N 282.135 6.26145 -2.96504 0
M  V30 2994 N 283.928 5.15232 -2.24706 0
M  V30 2995 H 276.079 1.31654 -1.66676 0
M  V30 2996 H 278.342 0.635393 -0.703548 0
M  V30 2997 H 278.048 2.76268 -2.17644 0
M  V30 2998 H 277.922 3.70606 -0.702209 0
M  V30 2999 H 280.309 2.95039 -0.0597713 0
M  V30 3000 H 280.39 2.02353 -1.56483 0
M  V30 3001 H 280.034 4.17964 -2.88563 0
M  V30 3002 H 279.964 5.08866 -1.35509 0
M  V30 3003 H 282.455 3.527 -1.35687 0
M  V30 3004 H 282.768 6.96451 -3.34927 0
M  V30 3005 H 281.113 6.26638 -3.00583 0
M  V30 3006 H 284.304 4.33789 -1.7591 0
M  V30 3007 H 284.477 5.90552 -2.66745 0
M  V30 3008 N 277.883 0.443576 1.51229 0
M  V30 3009 C 278.846 -0.353132 2.26463 0
M  V30 3010 C 279.846 -0.944338 1.3015 0
M  V30 3011 O 281.036 -0.817813 1.5381 0
M  V30 3012 C 278.168 -1.50023 3.06114 0
M  V30 3013 H 279.361 0.3063 2.98332 0
M  V30 3014 H 276.914 0.196902 1.55055 0
M  V30 3015 H 277.649 -2.19553 2.38677 0
M  V30 3016 H 277.434 -1.08241 3.76864 0
M  V30 3017 H 278.924 -2.06296 3.63087 0
M  V30 3018 N 279.361 -1.56624 0.175154 0
M  V30 3019 C 280.638 -1.88688 -0.515373 0
M  V30 3020 C 281.018 -1.08564 -1.81044 0
M  V30 3021 O 280.366 -0.180703 -2.27784 0
M  V30 3022 C 280.576 -3.40768 -0.753552 0
M  V30 3023 C 281.924 -4.10587 -1.08184 0
M  V30 3024 O 282.948 -3.46106 -0.841961 0
M  V30 3025 O 281.807 -5.24512 -1.53459 0
M  V30 3026 H 278.901 -0.78301 -0.26613 0
M  V30 3027 H 281.447 -1.68347 0.213877 0
M  V30 3028 H 280.219 -3.90965 0.161829 0
M  V30 3029 H 279.842 -3.66733 -1.53598 0
M  V30 3030 N 280.839 0.0985539 -1.57292 0
M  V30 3031 C 282.088 0.801358 -1.85098 0
M  V30 3032 C 282.401 1.80066 -0.763902 0
M  V30 3033 O 283.607 2.55112 -0.928981 0
M  V30 3034 C 282.063 1.47599 -3.28242 0
M  V30 3035 C 281.671 0.516624 -4.45011 0
M  V30 3036 C 283.415 2.16272 -3.65276 0
M  V30 3037 C 281.322 1.19564 -5.79188 0
M  V30 3038 H 280.252 0.303022 -0.69043 0
M  V30 3039 H 282.903 0.0542623 -1.8342 0
M  V30 3040 H 281.285 2.27042 -3.2445 0
M  V30 3041 H 282.459 -0.246065 -4.60143 0
M  V30 3042 H 280.774 -0.064227 -4.1635 0
M  V30 3043 H 283.371 2.67802 -4.62803 0
M  V30 3044 H 283.714 2.95009 -2.93727 0
M  V30 3045 H 284.247 1.43693 -3.70941 0
M  V30 3046 H 280.986 0.449157 -6.53959 0
M  V30 3047 H 280.506 1.92984 -5.67906 0
M  V30 3048 H 282.185 1.7231 -6.23633 0
M  V30 3049 N 282.317 1.53212 0.369288 0
M  V30 3050 C 283.247 1.82365 1.45826 0
M  V30 3051 C 284.228 0.676907 1.56051 0
M  V30 3052 O 285.413 0.926401 1.70679 0
M  V30 3053 C 282.543 2.01023 2.83208 0
M  V30 3054 C 281.497 3.1678 2.8781 0
M  V30 3055 C 280.823 3.20724 4.27832 0
M  V30 3056 C 282.123 4.55447 2.55667 0
M  V30 3057 H 283.817 2.73559 1.21678 0
M  V30 3058 H 281.363 1.3163 0.583911 0
M  V30 3059 H 283.316 2.20001 3.59413 0
M  V30 3060 H 282.04 1.06536 3.08736 0
M  V30 3061 H 280.699 2.97616 2.14056 0
M  V30 3062 H 280.347 2.23882 4.50429 0
M  V30 3063 H 280.047 3.98496 4.31827 0
M  V30 3064 H 281.571 3.41881 5.05915 0
M  V30 3065 H 282.985 4.74611 3.21586 0
M  V30 3066 H 281.382 5.35432 2.70984 0
M  V30 3067 H 282.452 4.60812 1.5093 0
M  V30 3068 N 283.795 -0.628877 1.44509 0
M  V30 3069 C 285.072 -1.38733 1.37886 0
M  V30 3070 C 285.452 -2.11065 0.0387008 0
M  V30 3071 O 284.8 -2.06476 -0.97878 0
M  V30 3072 C 285.01 -2.35188 2.57852 0
M  V30 3073 C 286.358 -2.9845 3.02014 0
M  V30 3074 O 287.382 -2.45513 2.58073 0
M  V30 3075 O 286.241 -3.94487 3.78209 0
M  V30 3076 H 283.335 -0.621015 0.54614 0
M  V30 3077 H 285.881 -0.653744 1.56602 0
M  V30 3078 H 284.653 -1.80855 3.46998 0
M  V30 3079 H 284.276 -3.1596 2.4136 0
M  V30 3080 N 285.273 -1.31445 -0.869486 0
M  V30 3081 C 286.205 -1.14955 -1.98287 0
M  V30 3082 C 287.218 -0.0885037 -1.62559 0
M  V30 3083 O 288.407 -0.336044 -1.75308 0
M  V30 3084 C 285.507 -0.734255 -3.3085 0
M  V30 3085 C 284.68 -1.88042 -3.94917 0
M  V30 3086 C 283.739 -1.4511 -5.05796 0
M  V30 3087 O 282.765 -2.16082 -5.2659 0
M  V30 3088 N 283.967 -0.338763 -5.79511 0
M  V30 3089 H 286.732 -2.10856 -2.12979 0
M  V30 3090 H 284.293 -1.23786 -1.04349 0
M  V30 3091 H 286.285 -0.42975 -4.02412 0
M  V30 3092 H 284.855 0.133158 -3.12316 0
M  V30 3093 H 284.075 -2.35222 -3.1633 0
M  V30 3094 H 285.363 -2.6481 -4.34457 0
M  V30 3095 H 284.761 0.252274 -5.65137 0
M  V30 3096 H 283.318 -0.0937925 -6.51733 0
M  V30 3097 N 286.751 1.08385 -1.14413 0
M  V30 3098 C 287.684 2.14642 -0.774871 0
M  V30 3099 C 288.662 1.60761 0.243876 0
M  V30 3100 O 289.846 1.88031 0.132883 0
M  V30 3101 C 286.973 3.38366 -0.150491 0
M  V30 3102 C 286.019 4.10997 -1.13945 0
M  V30 3103 S 286.852 4.63797 -2.67679 0
M  V30 3104 C 288.008 5.90808 -2.06631 0
M  V30 3105 H 288.241 2.45633 -1.67487 0
M  V30 3106 H 285.774 1.20498 -0.96538 0
M  V30 3107 H 287.732 4.09996 0.203334 0
M  V30 3108 H 286.393 3.05572 0.72694 0
M  V30 3109 H 285.586 4.99783 -0.65059 0
M  V30 3110 H 285.188 3.4528 -1.43727 0
M  V30 3111 H 287.48 6.62411 -1.4219 0
M  V30 3112 H 288.423 6.4439 -2.93542 0
M  V30 3113 H 288.831 5.4383 -1.51357 0
M  V30 3114 N 288.23 0.939286 1.26551 0
M  V30 3115 C 289.646 0.641304 1.46149 0
M  V30 3116 C 289.846 -0.805964 1.84679 0
M  V30 3117 O 288.902 -1.58278 1.96734 0
M  V30 3118 C 290.215 1.6011 2.54529 0
M  V30 3119 C 291.763 1.6106 2.68382 0
M  V30 3120 C 292.238 2.55765 3.79932 0
M  V30 3121 N 293.729 2.5404 3.87322 0
M  V30 3122 C 294.464 3.24004 4.73085 0
M  V30 3123 N 293.96 4.03388 5.63249 0
M  V30 3124 N 295.753 3.12965 4.66914 0
M  V30 3125 H 287.904 1.87478 0.998285 0
M  V30 3126 H 290.167 0.805559 0.499779 0
M  V30 3127 H 289.873 2.63412 2.33039 0
M  V30 3128 H 289.747 1.35171 3.52149 0
M  V30 3129 H 292.134 0.584835 2.89247 0
M  V30 3130 H 292.215 1.90053 1.71212 0
M  V30 3131 H 291.859 3.58458 3.5982 0
M  V30 3132 H 291.789 2.24063 4.76554 0
M  V30 3133 H 294.28 1.96396 3.22858 0
M  V30 3134 H 294.593 4.5373 6.25579 0
M  V30 3135 H 292.938 4.07489 5.63008 0
M  V30 3136 H 296.129 2.50432 3.95476 0
M  V30 3137 H 296.302 3.67759 5.33533 0
M  V30 3138 N 289.708 -1.40897 0.706093 0
M  V30 3139 C 290.655 -2.30751 0.0474474 0
M  V30 3140 C 291.625 -1.47678 -0.76029 0
M  V30 3141 O 292.81 -1.76441 -0.726177 0
M  V30 3142 C 289.95 -3.33815 -0.875309 0
M  V30 3143 C 289.063 -4.31961 -0.0580623 0
M  V30 3144 C 288.198 -5.22093 -0.979425 0
M  V30 3145 C 287.237 -6.11902 -0.155706 0
M  V30 3146 N 286.374 -6.94482 -1.03144 0
M  V30 3147 H 291.214 -2.86513 0.819413 0
M  V30 3148 H 288.751 -1.41102 0.415783 0
M  V30 3149 H 290.709 -3.92129 -1.42446 0
M  V30 3150 H 289.339 -2.79579 -1.61356 0
M  V30 3151 H 288.391 -3.75507 0.608147 0
M  V30 3152 H 289.703 -4.95415 0.580082 0
M  V30 3153 H 288.857 -5.85292 -1.59744 0
M  V30 3154 H 287.596 -4.5889 -1.65141 0
M  V30 3155 H 286.601 -5.47742 0.475309 0
M  V30 3156 H 287.826 -6.77162 0.512635 0
M  V30 3157 H 285.772 -6.33877 -1.68924 0
M  V30 3158 H 285.689 -7.54665 -0.449108 0
M  V30 3159 H 286.957 -7.6214 -1.63593 0
M  V30 3160 N 291.186 -0.45159 -1.50991 0
M  V30 3161 C 292.119 0.398179 -2.24699 0
M  V30 3162 C 293.097 1.01276 -1.27208 0
M  V30 3163 O 294.281 1.05247 -1.56382 0
M  V30 3164 C 291.408 1.55618 -3.00833 0
M  V30 3165 C 290.454 1.0609 -4.13095 0
M  V30 3166 S 291.287 -0.00865136 -5.35499 0
M  V30 3167 C 292.443 1.15369 -6.15175 0
M  V30 3168 H 292.676 -0.227555 -2.96428 0
M  V30 3169 H 290.209 -0.236251 -1.52582 0
M  V30 3170 H 292.167 2.21997 -3.45293 0
M  V30 3171 H 290.828 2.15337 -2.28667 0
M  V30 3172 H 290.021 1.92726 -4.65696 0
M  V30 3173 H 289.623 0.47513 -3.7097 0
M  V30 3174 H 291.915 2.06925 -6.45126 0
M  V30 3175 H 292.858 0.667344 -7.04948 0
M  V30 3176 H 293.266 1.3987 -5.46897 0
M  V30 3177 N 292.664 1.56529 -0.183458 0
M  V30 3178 C 293.913 1.96419 0.458511 0
M  V30 3179 C 294.226 1.0727 1.63562 0
M  V30 3180 O 295.432 1.36893 2.34462 0
M  V30 3181 C 293.888 3.49298 0.867122 0
M  V30 3182 C 293.496 4.47092 -0.285057 0
M  V30 3183 C 295.24 3.97983 1.47683 0
M  V30 3184 C 293.147 5.91225 0.143862 0
M  V30 3185 H 292.077 0.733394 0.175071 0
M  V30 3186 H 294.728 1.81448 -0.273624 0
M  V30 3187 H 293.11 3.59731 1.65559 0
M  V30 3188 H 294.284 4.48383 -1.0625 0
M  V30 3189 H 292.599 4.08535 -0.805503 0
M  V30 3190 H 295.196 5.03134 1.80999 0
M  V30 3191 H 295.539 3.41618 2.37914 0
M  V30 3192 H 296.072 3.90617 0.752562 0
M  V30 3193 H 292.811 6.5149 -0.723974 0
M  V30 3194 H 292.331 5.93214 0.886413 0
M  V30 3195 H 294.01 6.44362 0.583628 0
M  V30 3196 N 294.142 -0.090211 1.57342 0
M  V30 3197 C 295.089 -1.10909 2.02405 0
M  V30 3198 C 296.059 -1.39523 0.901252 0
M  V30 3199 O 297.244 -1.50903 1.1676 0
M  V30 3200 C 294.384 -2.42277 2.45755 0
M  V30 3201 C 293.497 -2.20352 3.71576 0
M  V30 3202 C 292.632 -3.45154 4.03785 0
M  V30 3203 C 291.671 -3.18512 5.22701 0
M  V30 3204 N 290.808 -4.35593 5.50639 0
M  V30 3205 H 295.648 -0.71782 2.89225 0
M  V30 3206 H 293.185 -0.342901 1.43048 0
M  V30 3207 H 295.143 -3.18951 2.68935 0
M  V30 3208 H 293.773 -2.79242 1.61938 0
M  V30 3209 H 292.825 -1.34458 3.55844 0
M  V30 3210 H 294.137 -1.96661 4.58395 0
M  V30 3211 H 293.291 -4.30233 4.27767 0
M  V30 3212 H 292.03 -3.71904 3.15498 0
M  V30 3213 H 291.035 -2.31827 4.98534 0
M  V30 3214 H 292.26 -2.93103 6.12591 0
M  V30 3215 H 290.206 -4.6241 4.6531 0
M  V30 3216 H 290.123 -4.1511 6.31838 0
M  V30 3217 H 291.391 -5.21723 5.7916 0
M  V30 3218 N 295.62 -1.53406 -0.361157 0
M  V30 3219 C 296.57 -1.76536 -1.44287 0
M  V30 3220 C 297.554 -0.620019 -1.48474 0
M  V30 3221 O 298.746 -0.878834 -1.53641 0
M  V30 3222 C 295.875 -1.96266 -2.81664 0
M  V30 3223 C 294.961 -3.16815 -2.81938 0
M  V30 3224 N 295.352 -4.38637 -2.51855 0
M  V30 3225 C 293.65 -3.17627 -3.13096 0
M  V30 3226 C 294.351 -5.20401 -2.59919 0
M  V30 3227 N 293.327 -4.56712 -2.94814 0
M  V30 3228 H 297.129 -2.68331 -1.19899 0
M  V30 3229 H 294.643 -1.52091 -0.56938 0
M  V30 3230 H 296.64 -2.10966 -3.59582 0
M  V30 3231 H 295.3 -1.05702 -3.07013 0
M  V30 3232 H 296.311 -4.66293 -2.25369 0
M  V30 3233 H 292.988 -2.36971 -3.43731 0
M  V30 3234 H 294.378 -6.27586 -2.39969 0
M  V30 3235 N 297.098 0.621204 -1.44841 0
M  V30 3236 C 298.061 1.71459 -1.521 0
M  V30 3237 C 299.061 1.55696 -0.401933 0
M  V30 3238 O 300.251 1.61011 -0.664925 0
M  V30 3239 C 297.383 3.10624 -1.40447 0
M  V30 3240 H 298.576 1.66394 -2.49506 0
M  V30 3241 H 296.129 0.835745 -1.3208 0
M  V30 3242 H 296.864 3.21277 -0.441737 0
M  V30 3243 H 296.649 3.23473 -2.21602 0
M  V30 3244 H 298.139 3.90293 -1.4853 0
M  V30 3245 N 298.576 1.31904 0.862503 0
M  V30 3246 C 299.506 1.22782 1.98612 0
M  V30 3247 C 300.487 0.113362 1.69722 0
M  V30 3248 O 301.672 0.299218 1.91881 0
M  V30 3249 C 298.802 0.942058 3.34279 0
M  V30 3250 C 297.756 2.0169 3.77499 0
M  V30 3251 C 297.082 1.58369 5.10709 0
M  V30 3252 C 298.382 3.43096 3.93805 0
M  V30 3253 H 300.076 2.16788 2.06502 0
M  V30 3254 H 297.622 1.04366 0.992154 0
M  V30 3255 H 299.575 0.864818 4.1243 0
M  V30 3256 H 298.299 -0.0336603 3.26583 0
M  V30 3257 H 296.958 2.08416 3.01593 0
M  V30 3258 H 296.606 0.595628 4.99461 0
M  V30 3259 H 296.306 2.30279 5.40597 0
M  V30 3260 H 297.83 1.52067 5.91361 0
M  V30 3261 H 299.244 3.39003 4.62331 0
M  V30 3262 H 297.641 4.13288 4.35101 0
M  V30 3263 H 298.711 3.83334 2.96957 0
M  V30 3264 N 300.054 -1.07777 1.14986 0
M  V30 3265 C 301.331 -1.7699 0.832695 0
M  V30 3266 C 301.711 -2.001 -0.672561 0
M  V30 3267 O 301.059 -1.61598 -1.6155 0
M  V30 3268 C 301.269 -3.08139 1.63863 0
M  V30 3269 C 302.617 -3.8256 1.84208 0
M  V30 3270 O 303.641 -3.17939 1.60603 0
M  V30 3271 O 302.5 -4.98612 2.23714 0
M  V30 3272 H 299.594 -0.768389 0.305791 0
M  V30 3273 H 302.14 -1.14182 1.25541 0
M  V30 3274 H 300.912 -2.86909 2.6608 0
M  V30 3275 H 300.535 -3.78678 1.21197 0
M  V30 3276 N 301.532 -0.945985 -1.26051 0
M  V30 3277 C 302.779 -0.596118 -1.93527 0
M  V30 3278 C 303.107 0.865559 -1.74179 0
M  V30 3279 O 302.362 1.63524 -1.0751 0
M  V30 3280 C 302.661 -0.890475 -3.46129 0
M  V30 3281 C 302.327 -2.3368 -3.85622 0
M  V30 3282 C 300.989 -2.73216 -3.96114 0
M  V30 3283 C 303.341 -3.27648 -4.05334 0
M  V30 3284 C 300.669 -4.05806 -4.2372 0
M  V30 3285 C 303.021 -4.59841 -4.3443 0
M  V30 3286 C 301.685 -4.99185 -4.43137 0
M  V30 3287 H 300.955 -0.218135 -0.708165 0
M  V30 3288 H 303.602 -1.1934 -1.49768 0
M  V30 3289 H 301.907 -0.210711 -3.91233 0
M  V30 3290 H 303.604 -0.598478 -3.96509 0
M  V30 3291 H 300.194 -2.02015 -3.78005 0
M  V30 3292 H 304.378 -2.98298 -3.96651 0
M  V30 3293 H 299.634 -4.35945 -4.28675 0
M  V30 3294 H 303.808 -5.32641 -4.48628 0
M  V30 3295 H 301.435 -6.01952 -4.64282 0
M  V30 3296 N 303.011 1.40521 -0.713556 0
M  V30 3297 C 304.26 2.00155 -0.249192 0
M  V30 3298 C 304.573 1.57224 1.16362 0
M  V30 3299 O 305.779 2.09542 1.72639 0
M  V30 3300 C 304.235 3.5773 -0.3946 0
M  V30 3301 C 303.843 4.09635 -1.81392 0
M  V30 3302 C 305.587 4.24499 0.00907364 0
M  V30 3303 C 303.494 5.59707 -1.91003 0
M  V30 3304 H 302.424 0.74868 -0.0894114 0
M  V30 3305 H 305.075 1.60784 -0.884352 0
M  V30 3306 H 303.457 3.94792 0.30911 0
M  V30 3307 H 304.631 3.83955 -2.54785 0
M  V30 3308 H 302.946 3.55456 -2.16888 0
M  V30 3309 H 305.543 5.34683 -0.0420404 0
M  V30 3310 H 305.886 4.02824 1.05065 0
M  V30 3311 H 306.419 3.92536 -0.645007 0
M  V30 3312 H 303.158 5.86234 -2.93275 0
M  V30 3313 H 302.678 5.87258 -1.22019 0
M  V30 3314 H 304.357 6.24776 -1.6812 0
M  V30 3315 N 304.489 0.459591 1.5075 0
M  V30 3316 C 305.439 -0.358926 2.25157 0
M  V30 3317 C 306.423 -0.971285 1.28276 0
M  V30 3318 O 307.615 -0.885739 1.53244 0
M  V30 3319 C 304.744 -1.44695 3.11317 0
M  V30 3320 C 303.83 -0.842894 4.15639 0
M  V30 3321 N 304.221 0.0299373 5.05791 0
M  V30 3322 C 302.519 -1.10809 4.32015 0
M  V30 3323 C 303.22 0.371563 5.80512 0
M  V30 3324 N 302.196 -0.250409 5.43023 0
M  V30 3325 H 305.998 0.313636 2.92222 0
M  V30 3326 H 303.512 0.273021 1.60089 0
M  V30 3327 H 305.509 -2.04641 3.63218 0
M  V30 3328 H 304.169 -2.12162 2.45799 0
M  V30 3329 H 305.18 0.39797 5.16369 0
M  V30 3330 H 301.857 -1.7786 3.77719 0
M  V30 3331 H 303.247 1.08319 6.63111 0
M  V30 3332 N 305.967 -1.56429 0.191757 0
M  V30 3333 C 306.917 -2.15548 -0.743184 0
M  V30 3334 C 307.901 -1.09531 -1.17863 0
M  V30 3335 O 309.093 -1.35602 -1.13759 0
M  V30 3336 C 306.222 -2.81577 -1.96391 0
M  V30 3337 C 305.308 -3.9478 -1.54951 0
M  V30 3338 N 305.699 -4.98677 -0.845876 0
M  V30 3339 C 303.997 -4.06319 -1.83905 0
M  V30 3340 C 304.698 -5.78183 -0.638724 0
M  V30 3341 N 303.674 -5.30495 -1.18643 0
M  V30 3342 H 307.476 -2.9324 -0.196839 0
M  V30 3343 H 304.99 -1.62398 -0.0081603 0
M  V30 3344 H 306.987 -3.22321 -2.64415 0
M  V30 3345 H 305.647 -2.05371 -2.51501 0
M  V30 3346 H 306.658 -5.15464 -0.501704 0
M  V30 3347 H 303.335 -3.41238 -2.40548 0
M  V30 3348 H 304.725 -6.71851 -0.0807929 0
M  V30 3349 N 307.445 0.0818655 -1.57387 0
M  V30 3350 C 308.692 0.782914 -1.86753 0
M  V30 3351 C 309.02 1.78082 -0.782118 0
M  V30 3352 O 308.275 1.94426 0.22295 0
M  V30 3353 C 308.574 1.53513 -3.22752 0
M  V30 3354 C 308.24 0.678134 -4.45771 0
M  V30 3355 C 306.902 0.441929 -4.79166 0
M  V30 3356 C 309.254 0.0832243 -5.21134 0
M  V30 3357 C 306.582 -0.398833 -5.85343 0
M  V30 3358 C 308.934 -0.744935 -6.28199 0
M  V30 3359 C 307.598 -0.991107 -6.60101 0
M  V30 3360 H 306.868 0.286489 -0.683378 0
M  V30 3361 H 309.515 0.0439808 -1.91449 0
M  V30 3362 H 307.82 2.34599 -3.138 0
M  V30 3363 H 309.517 2.08218 -3.42705 0
M  V30 3364 H 306.107 0.872357 -4.19628 0
M  V30 3365 H 310.291 0.252847 -4.95655 0
M  V30 3366 H 305.547 -0.598405 -6.08465 0
M  V30 3367 H 309.721 -1.21271 -6.8576 0
M  V30 3368 H 307.348 -1.64437 -7.42202 0
M  V30 3369 N 308.923 1.53595 0.353017 0
M  V30 3370 C 309.871 1.81605 1.45335 0
M  V30 3371 C 310.865 0.685923 1.54892 0
M  V30 3372 O 312.071 0.869095 1.57628 0
M  V30 3373 H 308.446 0.575204 0.484401 0
M  V30 3374 H 310.417 2.73679 1.18921 0
M  V30 3375 C 309.166 2.03406 2.81995 0
M  V30 3376 H 308.489 2.89814 2.75405 0
M  V30 3377 H 309.929 2.26975 3.58132 0
M  V30 3378 C 308.388 0.816794 3.26849 0
M  V30 3379 O 308.918 0.0115856 4.01698 0
M  V30 3380 N 307.124 0.636682 2.8354 0
M  V30 3381 H 306.671 1.2931 2.22793 0
M  V30 3382 H 306.629 -0.176336 3.13905 0
M  V30 3383 N 310.401 -0.613514 1.45168 0
M  V30 3384 C 311.311 -1.75296 1.55912 0
M  V30 3385 C 312.327 -1.68244 0.443856 0
M  V30 3386 O 313.503 -1.88706 0.70371 0
M  V30 3387 C 310.568 -3.1174 1.5172 0
M  V30 3388 C 309.629 -3.30291 2.74238 0
M  V30 3389 C 308.862 -4.60226 2.70236 0
M  V30 3390 O 309.085 -5.42168 1.77229 0
M  V30 3391 O 308.019 -4.81361 3.61352 0
M  V30 3392 H 311.845 -1.69183 2.52212 0
M  V30 3393 H 309.43 -0.776886 1.27612 0
M  V30 3394 H 311.312 -3.93044 1.51968 0
M  V30 3395 H 309.987 -3.18357 0.585697 0
M  V30 3396 H 308.894 -2.48598 2.79553 0
M  V30 3397 H 310.227 -3.28547 3.66494 0
M  V30 3398 N 311.879 -1.3236 -0.855495 0
M  V30 3399 C 313.127 -1.22629 -1.60644 0
M  V30 3400 C 313.448 0.212136 -1.93843 0
M  V30 3401 O 312.718 1.13666 -1.59552 0
M  V30 3402 H 311.298 -0.450882 -0.595579 0
M  V30 3403 H 313.96 -1.65871 -1.02337 0
M  V30 3404 H 313.056 -1.80832 -2.54374 0
M  V30 3405 N 313.357 1.07166 -1.15556 0
M  V30 3406 C 314.304 2.14417 -0.854055 0
M  V30 3407 C 315.274 1.64965 0.193806 0
M  V30 3408 O 316.459 1.90703 0.0609443 0
M  V30 3409 C 313.599 3.43304 -0.351574 0
M  V30 3410 C 312.712 4.06537 -1.46123 0
M  V30 3411 C 311.847 5.23266 -0.914677 0
M  V30 3412 C 310.886 5.78464 -2.00114 0
M  V30 3413 N 310.023 6.86521 -1.47083 0
M  V30 3414 H 314.863 2.39548 -1.77259 0
M  V30 3415 H 312.4 1.17543 -0.884425 0
M  V30 3416 H 314.358 4.17179 -0.0419409 0
M  V30 3417 H 312.988 3.18419 0.530037 0
M  V30 3418 H 312.04 3.30297 -1.88701 0
M  V30 3419 H 313.352 4.43567 -2.28144 0
M  V30 3420 H 312.506 6.04131 -0.557698 0
M  V30 3421 H 311.245 4.87658 -0.0636583 0
M  V30 3422 H 310.25 4.96243 -2.36692 0
M  V30 3423 H 311.475 6.16126 -2.85597 0
M  V30 3424 H 309.421 6.52849 -0.642198 0
M  V30 3425 H 309.338 7.22446 -2.22729 0
M  V30 3426 H 310.606 7.71087 -1.14215 0
M  V30 3427 N 314.835 0.952656 1.25548 0
M  V30 3428 C 315.745 0.47782 2.29682 0
M  V30 3429 C 316.761 -0.453859 1.67977 0
M  V30 3430 O 317.937 -0.330587 1.98668 0
M  V30 3431 C 315.002 -0.238655 3.45878 0
M  V30 3432 C 314.063 0.730994 4.23031 0
M  V30 3433 C 313.296 0.0486165 5.33678 0
M  V30 3434 O 313.519 -1.16612 5.58353 0
M  V30 3435 O 312.453 0.733152 5.97418 0
M  V30 3436 H 316.279 1.34312 2.72386 0
M  V30 3437 H 313.864 0.719026 1.30959 0
M  V30 3438 H 315.746 -0.641774 4.16484 0
M  V30 3439 H 314.421 -1.07916 3.05181 0
M  V30 3440 H 313.328 1.18428 3.5486 0
M  V30 3441 H 314.661 1.53946 4.67506 0
M  V30 3442 N 316.313 -1.40141 0.720998 0
M  V30 3443 C 317.56 -2.00787 0.262842 0
M  V30 3444 C 317.888 -1.5718 -1.14563 0
M  V30 3445 O 317.143 -0.785391 -1.79249 0
M  V30 3446 C 317.442 -3.56165 0.296892 0
M  V30 3447 C 317.108 -4.19373 1.65641 0
M  V30 3448 C 315.77 -4.36352 2.02855 0
M  V30 3449 C 318.122 -4.54578 2.54968 0
M  V30 3450 C 315.45 -4.8582 3.28931 0
M  V30 3451 C 317.802 -5.05447 3.80402 0
M  V30 3452 C 316.466 -5.20635 4.17726 0
M  V30 3453 H 315.736 -0.734731 0.0961807 0
M  V30 3454 H 318.383 -1.67673 0.925093 0
M  V30 3455 H 316.688 -3.8922 -0.448932 0
M  V30 3456 H 318.385 -4.00929 -0.0755208 0
M  V30 3457 H 314.975 -4.06549 1.35704 0
M  V30 3458 H 319.159 -4.41091 2.27491 0
M  V30 3459 H 314.415 -4.95764 3.57811 0
M  V30 3460 H 318.589 -5.31663 4.49786 0
M  V30 3461 H 316.216 -5.58728 5.15487 0
M  V30 3462 N 317.792 -0.46758 -1.50504 0
M  V30 3463 C 319.203 -0.0116166 -1.86696 0
M  V30 3464 C 319.554 1.39202 -1.38265 0
M  V30 3465 O 318.679 2.0313 -0.746132 0
M  V30 3466 C 319.274 -0.0143044 -3.38797 0
M  V30 3467 C 317.833 0.386175 -3.74414 0
M  V30 3468 C 316.98 -0.401287 -2.74381 0
M  V30 3469 H 319.931 -0.682022 -1.43297 0
M  V30 3470 H 319.952 0.788641 -3.72237 0
M  V30 3471 H 319.464 -1.03602 -3.74016 0
M  V30 3472 H 317.565 1.41237 -3.44794 0
M  V30 3473 H 317.678 0.0899596 -4.79016 0
M  V30 3474 H 316.042 0.144536 -2.5429 0
M  V30 3475 H 316.825 -1.42244 -3.12444 0
M  V30 3476 N 319.27 1.56325 -0.20005 0
M  V30 3477 C 320.681 1.8408 0.31167 0
M  V30 3478 C 321.032 1.12087 1.61031 0
M  V30 3479 O 320.157 0.38332 2.12978 0
M  V30 3480 C 320.752 3.33932 0.57226 0
M  V30 3481 C 319.311 3.6208 1.02834 0
M  V30 3482 C 318.458 2.77186 0.079634 0
M  V30 3483 H 321.409 1.52939 -0.423729 0
M  V30 3484 H 321.43 3.52971 1.42096 0
M  V30 3485 H 320.942 3.86303 -0.37308 0
M  V30 3486 H 319.043 3.15147 1.98778 0
M  V30 3487 H 319.156 4.7023 0.917624 0
M  V30 3488 H 317.52 2.47951 0.582448 0
M  V30 3489 H 318.303 3.32347 -0.860238 0
M  V30 3490 N 320.748 -0.0735177 1.57428 0
M  V30 3491 C 321.988 -0.778363 1.89 0
M  V30 3492 C 322.352 -1.7483 0.793634 0
M  V30 3493 O 323.553 -2.49811 0.992367 0
M  V30 3494 C 321.824 -1.46929 3.25802 0
M  V30 3495 S 323.383 -2.20943 3.79117 0
M  V30 3496 H 320.201 -0.258874 0.662197 0
M  V30 3497 H 322.803 -0.0345338 1.95469 0
M  V30 3498 H 321.507 -0.749532 4.03497 0
M  V30 3499 H 321.038 -2.25258 3.22525 0
M  V30 3500 H 323.053 -3.47435 3.54265 0
M  V30 3501 N 322.226 -1.5378 -0.344866 0
M  V30 3502 C 323.189 -1.80981 -1.40637 0
M  V30 3503 C 324.189 -0.680816 -1.45676 0
M  V30 3504 O 325.379 -0.949095 -1.46075 0
M  V30 3505 C 322.511 -1.95063 -2.79577 0
M  V30 3506 H 323.704 -2.75803 -1.17783 0
M  V30 3507 H 321.257 -1.45173 -0.579181 0
M  V30 3508 H 321.992 -1.02379 -3.07716 0
M  V30 3509 H 321.777 -2.77198 -2.77315 0
M  V30 3510 H 323.267 -2.17629 -3.56409 0
M  V30 3511 N 323.704 0.605807 -1.45491 0
M  V30 3512 C 324.953 1.36086 -1.48874 0
M  V30 3513 C 325.266 1.95131 -0.135333 0
M  V30 3514 O 326.472 2.7146 -0.0468144 0
M  V30 3515 C 324.928 2.46518 -2.62215 0
M  V30 3516 C 324.536 1.93877 -4.03876 0
M  V30 3517 C 326.28 3.23512 -2.74846 0
M  V30 3518 C 324.187 3.01801 -5.08596 0
M  V30 3519 H 323.117 0.511497 -0.553974 0
M  V30 3520 H 325.768 0.649089 -1.71636 0
M  V30 3521 H 324.15 3.20388 -2.32739 0
M  V30 3522 H 325.324 1.26704 -4.43038 0
M  V30 3523 H 323.639 1.29622 -3.95711 0
M  V30 3524 H 326.236 4.04013 -3.50253 0
M  V30 3525 H 326.579 3.74631 -1.81542 0
M  V30 3526 H 327.112 2.56742 -3.03856 0
M  V30 3527 H 323.851 2.55597 -6.03614 0
M  V30 3528 H 323.371 3.67535 -4.74002 0
M  V30 3529 H 325.05 3.66152 -5.33424 0
M  V30 3530 N 325.182 1.32811 0.848464 0
M  V30 3531 C 326.092 1.24278 1.98978 0
M  V30 3532 C 327.108 0.155176 1.73307 0
M  V30 3533 O 328.284 0.376999 1.9784 0
M  V30 3534 C 325.349 0.972444 3.32783 0
M  V30 3535 C 324.41 2.14911 3.71634 0
M  V30 3536 C 323.643 1.89157 4.99054 0
M  V30 3537 O 323.866 0.837165 5.64223 0
M  V30 3538 O 322.8 2.75433 5.35183 0
M  V30 3539 H 326.626 2.20238 2.09115 0
M  V30 3540 H 324.211 1.12762 0.980052 0
M  V30 3541 H 326.093 0.838432 4.12975 0
M  V30 3542 H 324.768 0.043051 3.23671 0
M  V30 3543 H 323.675 2.33862 2.91992 0
M  V30 3544 H 325.008 3.06151 3.85399 0
M  V30 3545 N 326.66 -1.06551 1.16123 0
M  V30 3546 C 327.906 -1.79567 0.94252 0
M  V30 3547 C 328.239 -1.86869 -0.528547 0
M  V30 3548 O 327.514 -1.35838 -1.39206 0
M  V30 3549 C 327.797 -3.24195 1.56747 0
M  V30 3550 C 327.65 -3.24989 3.10969 0
M  V30 3551 C 328.969 -4.21678 1.25998 0
M  V30 3552 H 326.088 -0.651883 0.343828 0
M  V30 3553 H 328.73 -1.2463 1.43413 0
M  V30 3554 H 326.88 -3.71107 1.14942 0
M  V30 3555 H 328.552 -2.86258 3.61737 0
M  V30 3556 H 326.795 -2.63716 3.44436 0
M  V30 3557 H 327.466 -4.27005 3.49815 0
M  V30 3558 H 329.942 -3.83196 1.62174 0
M  V30 3559 H 328.818 -5.21146 1.7233 0
M  V30 3560 H 329.079 -4.4174 0.178367 0
M  V30 3561 N 328.138 -0.959301 -1.25041 0
M  V30 3562 C 329.368 -0.63303 -1.96663 0
M  V30 3563 C 329.776 0.800031 -1.71453 0
M  V30 3564 O 329.119 1.54736 -0.99008 0
M  V30 3565 C 329.181 -0.817523 -3.50081 0
M  V30 3566 C 328.845 -2.22863 -3.98975 0
M  V30 3567 C 329.842 -3.20569 -4.09306 0
M  V30 3568 C 327.527 -2.55407 -4.32519 0
M  V30 3569 C 329.521 -4.4891 -4.52503 0
M  V30 3570 C 327.208 -3.83976 -4.754 0
M  V30 3571 C 328.206 -4.8054 -4.85356 0
M  V30 3572 O 327.894 -6.06817 -5.27284 0
M  V30 3573 H 327.626 -0.235866 -0.633516 0
M  V30 3574 H 330.18 -1.2874 -1.60047 0
M  V30 3575 H 328.41 -0.105992 -3.86555 0
M  V30 3576 H 330.099 -0.491604 -4.02912 0
M  V30 3577 H 330.865 -2.96753 -3.83618 0
M  V30 3578 H 326.744 -1.8097 -4.23994 0
M  V30 3579 H 330.288 -5.24283 -4.60188 0
M  V30 3580 H 326.185 -4.07596 -5.00535 0
M  V30 3581 H 326.953 -6.10262 -5.45457 0
M  V30 3582 N 329.616 1.39756 -0.72842 0
M  V30 3583 C 330.563 2.30647 -0.0841519 0
M  V30 3584 C 331.533 1.48869 0.7367 0
M  V30 3585 O 332.718 1.77574 0.698015 0
M  V30 3586 C 329.858 3.35165 0.822091 0
M  V30 3587 C 328.971 4.31999 -0.0106663 0
M  V30 3588 C 328.106 5.23585 0.896241 0
M  V30 3589 C 327.145 6.12072 0.0583381 0
M  V30 3590 N 326.282 6.96035 0.920818 0
M  V30 3591 H 331.122 2.85173 -0.864891 0
M  V30 3592 H 328.659 1.40422 -0.438179 0
M  V30 3593 H 330.617 3.94345 1.36189 0
M  V30 3594 H 329.247 2.8211 1.56888 0
M  V30 3595 H 328.299 3.74492 -0.66781 0
M  V30 3596 H 329.611 4.9443 -0.658825 0
M  V30 3597 H 328.765 5.87759 1.50412 0
M  V30 3598 H 327.504 4.61459 1.57819 0
M  V30 3599 H 326.509 5.46916 -0.562389 0
M  V30 3600 H 327.734 6.76261 -0.6203 0
M  V30 3601 H 325.68 6.36485 1.58818 0
M  V30 3602 H 325.597 7.55284 0.32899 0
M  V30 3603 H 326.865 7.64646 1.51447 0
M  V30 3604 N 331.094 0.475555 1.50254 0
M  V30 3605 C 332.343 -0.0795996 2.01543 0
M  V30 3606 C 332.656 -1.4038 1.36209 0
M  V30 3607 O 333.862 -2.04415 1.7868 0
M  V30 3608 C 332.318 -0.192363 3.59386 0
M  V30 3609 C 331.926 1.12367 4.33679 0
M  V30 3610 C 333.67 -0.699238 4.18701 0
M  V30 3611 C 331.577 0.974453 5.83317 0
M  V30 3612 H 330.507 -0.0335228 0.753254 0
M  V30 3613 H 333.158 0.611128 1.73025 0
M  V30 3614 H 331.54 -0.946974 3.84511 0
M  V30 3615 H 332.714 1.88958 4.20276 0
M  V30 3616 H 331.029 1.562 3.85993 0
M  V30 3617 H 333.626 -0.827978 5.28251 0
M  V30 3618 H 333.969 -1.69171 3.80377 0
M  V30 3619 H 334.502 -0.00188807 3.978 0
M  V30 3620 H 331.241 1.94042 6.26121 0
M  V30 3621 H 330.761 0.248998 5.99283 0
M  V30 3622 H 332.44 0.642867 6.43798 0
M  V30 3623 N 332.573 -1.56217 0.208337 0
M  V30 3624 C 333.822 -1.97124 -0.427204 0
M  V30 3625 C 334.135 -1.09859 -1.61835 0
M  V30 3626 O 335.341 -1.40606 -2.32255 0
M  V30 3627 C 333.797 -3.50633 -0.811442 0
M  V30 3628 C 333.405 -4.46582 0.35615 0
M  V30 3629 C 335.149 -4.00282 -1.41332 0
M  V30 3630 C 333.056 -5.91379 -0.0497852 0
M  V30 3631 H 331.986 -0.736086 -0.163381 0
M  V30 3632 H 334.637 -1.8099 0.302456 0
M  V30 3633 H 333.019 -3.62319 -1.59815 0
M  V30 3634 H 334.193 -4.46636 1.1337 0
M  V30 3635 H 332.508 -4.07202 0.870396 0
M  V30 3636 H 335.105 -5.0595 -1.72972 0
M  V30 3637 H 335.448 -3.45359 -2.32449 0
M  V30 3638 H 335.981 -3.91764 -0.690323 0
M  V30 3639 H 332.72 -6.50255 0.827529 0
M  V30 3640 H 332.24 -5.94549 -0.791926 0
M  V30 3641 H 333.919 -6.45209 -0.481042 0
M  V30 3642 N 334.051 0.0651679 -1.57465 0
M  V30 3643 C 334.961 1.09448 -2.07505 0
M  V30 3644 C 335.977 1.41974 -1.00595 0
M  V30 3645 O 337.153 1.52018 -1.32107 0
M  V30 3646 C 334.218 2.38689 -2.51453 0
M  V30 3647 C 333.279 2.13073 -3.72691 0
M  V30 3648 C 332.512 3.36152 -4.14533 0
M  V30 3649 O 332.735 4.45517 -3.56189 0
M  V30 3650 O 331.669 3.23974 -5.07272 0
M  V30 3651 H 335.495 0.69935 -2.95538 0
M  V30 3652 H 333.08 0.279752 -1.46757 0
M  V30 3653 H 334.962 3.14736 -2.80212 0
M  V30 3654 H 333.637 2.77568 -1.66546 0
M  V30 3655 H 332.544 1.34709 -3.49005 0
M  V30 3656 H 333.877 1.79071 -4.5847 0
M  V30 3657 N 335.529 1.53961 0.336706 0
M  V30 3658 C 336.476 1.82428 1.41381 0
M  V30 3659 C 337.446 0.670444 1.51968 0
M  V30 3660 O 338.631 0.915565 1.67398 0
M  V30 3661 C 335.771 2.04564 2.77934 0
M  V30 3662 C 334.884 3.32267 2.76084 0
M  V30 3663 C 334.019 3.44434 4.04399 0
M  V30 3664 C 333.058 4.66061 3.96804 0
M  V30 3665 N 332.195 4.75224 5.16823 0
M  V30 3666 H 337.035 2.74324 1.16405 0
M  V30 3667 H 334.572 1.35869 0.563752 0
M  V30 3668 H 336.53 2.15388 3.57301 0
M  V30 3669 H 335.16 1.15974 3.01247 0
M  V30 3670 H 334.212 3.3025 1.88784 0
M  V30 3671 H 335.524 4.21733 2.66351 0
M  V30 3672 H 334.678 3.54728 4.92192 0
M  V30 3673 H 333.417 2.53037 4.16921 0
M  V30 3674 H 332.422 4.55838 3.07396 0
M  V30 3675 H 333.647 5.58829 3.85858 0
M  V30 3676 H 331.593 3.86739 5.29876 0
M  V30 3677 H 331.51 5.58636 5.09374 0
M  V30 3678 H 332.778 4.89835 6.06367 0
M  V30 3679 N 337.007 -0.598083 1.45811 0
M  V30 3680 C 338.253 -1.35882 1.50545 0
M  V30 3681 C 338.586 -1.93616 0.150445 0
M  V30 3682 O 337.861 -1.75604 -0.83628 0
M  V30 3683 C 338.144 -2.49966 2.59208 0
M  V30 3684 C 337.997 -1.97367 4.04186 0
M  V30 3685 C 339.316 -3.52068 2.64076 0
M  V30 3686 H 336.435 -0.492717 0.548087 0
M  V30 3687 H 339.077 -0.673319 1.77669 0
M  V30 3688 H 337.227 -3.08443 2.3621 0
M  V30 3689 H 338.899 -1.43466 4.38423 0
M  V30 3690 H 337.142 -1.283 4.14393 0
M  V30 3691 H 337.813 -2.79649 4.75921 0
M  V30 3692 H 340.289 -3.03448 2.84708 0
M  V30 3693 H 339.165 -4.2937 3.41954 0
M  V30 3694 H 339.426 -4.08304 1.69531 0
M  V30 3695 N 338.485 -1.33259 -0.841409 0
M  V30 3696 C 339.762 -1.15174 -1.58096 0
M  V30 3697 C 340.142 0.282858 -2.09196 0
M  V30 3698 O 339.49 1.28151 -1.89181 0
M  V30 3699 C 339.7 -2.1907 -2.71679 0
M  V30 3700 C 341.048 -2.53093 -3.40924 0
M  V30 3701 O 342.072 -2.17717 -2.81918 0
M  V30 3702 O 340.931 -3.1379 -4.47435 0
M  V30 3703 H 338.025 -0.445303 -0.696875 0
M  V30 3704 H 340.571 -1.44833 -0.884385 0
M  V30 3705 H 339.343 -3.15443 -2.31541 0
M  V30 3706 H 338.966 -1.90481 -3.49002 0
M  V30 3707 N 339.963 1.05934 -1.16686 0
M  V30 3708 C 341.193 1.82226 -0.973515 0
M  V30 3709 C 341.601 1.8297 0.481532 0
M  V30 3710 O 340.944 1.25009 1.34604 0
M  V30 3711 C 341.006 3.29897 -1.42858 0
M  V30 3712 C 340.67 3.52849 -2.90425 0
M  V30 3713 C 341.667 3.45595 -3.88407 0
M  V30 3714 C 339.352 3.80053 -3.28428 0
M  V30 3715 C 341.346 3.65217 -5.22394 0
M  V30 3716 C 339.033 3.99325 -4.62583 0
M  V30 3717 C 340.031 3.91905 -5.59374 0
M  V30 3718 O 339.719 4.10647 -6.91104 0
M  V30 3719 H 339.451 0.581314 -0.345036 0
M  V30 3720 H 342.005 1.3453 -1.55212 0
M  V30 3721 H 340.235 3.78472 -0.793477 0
M  V30 3722 H 341.924 3.87692 -1.20207 0
M  V30 3723 H 342.69 3.24564 -3.60393 0
M  V30 3724 H 338.569 3.84936 -2.53664 0
M  V30 3725 H 342.113 3.59341 -5.9793 0
M  V30 3726 H 338.01 4.19846 -4.90306 0
M  V30 3727 H 338.778 4.27915 -6.97733 0
M  V30 3728 N 341.441 0.965919 1.2453 0
M  V30 3729 C 342.852 0.665929 1.7442 0
M  V30 3730 C 343.203 -0.818407 1.78316 0
M  V30 3731 O 342.328 -1.64037 1.41141 0
M  V30 3732 C 342.923 1.20211 3.16757 0
M  V30 3733 C 341.482 0.952059 3.6416 0
M  V30 3734 C 340.629 1.33848 2.42858 0
M  V30 3735 H 343.58 1.14144 1.10258 0
M  V30 3736 H 343.601 0.567544 3.76244 0
M  V30 3737 H 343.113 2.28244 3.13889 0
M  V30 3738 H 341.214 -0.112821 3.72429 0
M  V30 3739 H 341.327 1.59645 4.51719 0
M  V30 3740 H 339.691 0.756864 2.43195 0
M  V30 3741 H 340.474 2.42827 2.42673 0
M  V30 3742 N 342.919 -1.39368 0.735821 0
M  V30 3743 C 344.335 -1.54204 0.411492 0
M  V30 3744 C 344.535 -1.70268 -1.07755 0
M  V30 3745 O 343.591 -1.70364 -1.86366 0
M  V30 3746 C 344.904 -2.75925 1.19523 0
M  V30 3747 C 346.452 -2.89761 1.18354 0
M  V30 3748 C 346.927 -4.14421 1.94986 0
M  V30 3749 N 348.418 -4.21462 1.92156 0
M  V30 3750 C 349.153 -5.16871 2.48258 0
M  V30 3751 N 348.649 -6.18063 3.13001 0
M  V30 3752 N 350.442 -5.09093 2.38287 0
M  V30 3753 H 342.593 -1.27189 1.70108 0
M  V30 3754 H 344.856 -0.616517 0.720147 0
M  V30 3755 H 344.562 -2.70401 2.24892 0
M  V30 3756 H 344.436 -3.68614 0.800222 0
M  V30 3757 H 346.823 -2.94777 0.137975 0
M  V30 3758 H 346.904 -1.98133 1.61793 0
M  V30 3759 H 346.548 -4.10166 2.99543 0
M  V30 3760 H 346.478 -5.05095 1.48953 0
M  V30 3761 H 348.969 -3.48979 1.44991 0
M  V30 3762 H 349.282 -6.87326 3.53275 0
M  V30 3763 H 347.627 -6.18448 3.17091 0
M  V30 3764 H 350.818 -4.28973 1.8735 0
M  V30 3765 H 350.991 -5.83272 2.82308 0
M  V30 3766 N 344.397 -0.483516 -1.5 0
M  V30 3767 C 345.674 0.129337 -1.95172 0
M  V30 3768 C 346.054 1.55802 -1.4244 0
M  V30 3769 O 345.402 2.19625 -0.630649 0
M  V30 3770 C 345.612 0.0599251 -3.48949 0
M  V30 3771 C 346.96 0.242617 -4.23906 0
M  V30 3772 O 347.984 0.135933 -3.55941 0
M  V30 3773 O 346.843 0.459454 -5.44565 0
M  V30 3774 H 343.937 0.104887 -0.820322 0
M  V30 3775 H 346.483 -0.544807 -1.60717 0
M  V30 3776 H 345.255 -0.937079 -3.79914 0
M  V30 3777 H 344.878 0.774984 -3.89974 0
M  V30 3778 N 345.875 1.56104 -0.216619 0
M  V30 3779 C 346.785 2.23694 0.706982 0
M  V30 3780 C 347.801 1.24295 1.21765 0
M  V30 3781 O 348.977 1.57094 1.2603 0
M  V30 3782 C 346.042 2.8998 1.90033 0
M  V30 3783 C 345.103 4.04708 1.43213 0
M  V30 3784 C 344.336 4.67824 2.56859 0
M  V30 3785 O 344.559 4.29913 3.74874 0
M  V30 3786 O 343.493 5.56905 2.28343 0
M  V30 3787 H 347.319 3.03272 0.161235 0
M  V30 3788 H 344.904 1.49394 0.0136177 0
M  V30 3789 H 346.786 3.31837 2.59735 0
M  V30 3790 H 345.461 2.13365 2.43428 0
M  V30 3791 H 344.368 3.6743 0.70327 0
M  V30 3792 H 345.701 4.83051 0.944615 0
M  V30 3793 N 347.353 -0.0568162 1.57498 0
M  V30 3794 C 348.301 -1.08452 2.05769 0
M  V30 3795 C 349.295 -1.39164 0.965903 0
M  V30 3796 O 350.501 -1.38395 1.15095 0
M  V30 3797 H 346.876 -0.367148 0.656282 0
M  V30 3798 H 348.847 -0.651368 2.91204 0
M  V30 3799 C 347.596 -2.38543 2.52968 0
M  V30 3800 H 346.919 -2.15765 3.36579 0
M  V30 3801 H 348.359 -3.08863 2.90481 0
M  V30 3802 C 346.818 -3.05562 1.41893 0
M  V30 3803 O 347.348 -3.94262 0.769442 0
M  V30 3804 N 345.554 -2.6643 1.16032 0
M  V30 3805 H 345.101 -1.94387 1.6903 0
M  V30 3806 H 345.059 -3.11593 0.419219 0
M  V30 3807 N 348.832 -1.54138 -0.328536 0
M  V30 3808 C 350.08 -1.71765 -1.06496 0
M  V30 3809 C 350.401 -0.49149 -1.88704 0
M  V30 3810 O 349.671 0.494539 -1.89555 0
M  V30 3811 H 348.251 -0.633295 -0.396164 0
M  V30 3812 H 350.913 -1.91429 -0.366176 0
M  V30 3813 H 350.009 -2.5951 -1.73381 0
M  V30 3814 N 350.31 0.590341 -1.46126 0
M  V30 3815 C 351.22 1.72793 -1.58681 0
M  V30 3816 C 352.236 1.67516 -0.470566 0
M  V30 3817 O 353.412 1.87562 -0.733642 0
M  V30 3818 C 350.477 3.09287 -1.5666 0
M  V30 3819 C 349.538 3.25886 -2.79458 0
M  V30 3820 C 348.771 4.55869 -2.77524 0
M  V30 3821 O 348.994 5.3928 -1.85832 0
M  V30 3822 O 347.928 4.75552 -3.68964 0
M  V30 3823 H 351.754 1.65149 -2.54872 0
M  V30 3824 H 349.339 0.756486 -1.28832 0
M  V30 3825 H 351.221 3.90577 -1.58202 0
M  V30 3826 H 349.896 3.17385 -0.636271 0
M  V30 3827 H 348.803 2.44119 -2.83472 0
M  V30 3828 H 350.136 3.22675 -3.71674 0
M  V30 3829 N 351.788 1.33704 0.83433 0
M  V30 3830 C 353.037 1.24763 1.58484 0
M  V30 3831 C 353.35 -0.183775 1.94735 0
M  V30 3832 O 354.556 -0.395234 2.68608 0
M  V30 3833 C 353.012 2.18638 2.85876 0
M  V30 3834 C 352.62 3.66974 2.56971 0
M  V30 3835 C 354.364 2.18581 3.63899 0
M  V30 3836 C 352.271 4.5275 3.80488 0
M  V30 3837 H 351.201 0.463425 0.594772 0
M  V30 3838 H 353.852 1.58797 0.919551 0
M  V30 3839 H 352.234 1.77542 3.5397 0
M  V30 3840 H 353.408 4.16538 1.9706 0
M  V30 3841 H 351.723 3.69366 1.92244 0
M  V30 3842 H 354.32 2.79894 4.55591 0
M  V30 3843 H 354.663 1.18207 3.99165 0
M  V30 3844 H 355.196 2.58062 3.02735 0
M  V30 3845 H 351.935 5.54017 3.5035 0
M  V30 3846 H 351.455 4.07927 4.39722 0
M  V30 3847 H 353.134 4.66784 4.4802 0
M  V30 3848 N 353.266 -1.05314 1.17247 0
M  V30 3849 C 354.229 -2.112 0.890357 0
M  V30 3850 C 355.229 -1.60359 -0.118943 0
M  V30 3851 O 356.419 -1.73833 0.113086 0
M  V30 3852 C 353.551 -3.39266 0.333422 0
M  V30 3853 H 354.744 -2.37659 1.82916 0
M  V30 3854 H 352.297 -1.21538 0.982758 0
M  V30 3855 H 353.032 -3.18462 -0.612587 0
M  V30 3856 H 352.817 -3.77477 1.06082 0
M  V30 3857 H 354.307 -4.17315 0.154322 0
M  V30 3858 N 354.744 -0.972509 -1.24016 0
M  V30 3859 C 355.707 -0.511403 -2.23422 0
M  V30 3860 C 356.707 0.394679 -1.55881 0
M  V30 3861 O 357.897 0.189469 -1.73167 0
M  V30 3862 C 355.029 0.258769 -3.39916 0
M  V30 3863 H 356.222 -1.39024 -2.6573 0
M  V30 3864 H 353.775 -0.757585 -1.36713 0
M  V30 3865 H 354.51 1.1545 -3.03054 0
M  V30 3866 H 354.295 -0.391522 -3.9014 0
M  V30 3867 H 355.785 0.570244 -4.13688 0
M  V30 3868 N 356.222 1.38976 -0.743202 0
M  V30 3869 C 357.471 1.99581 -0.291592 0
M  V30 3870 C 357.784 1.59656 1.13001 0
M  V30 3871 O 358.99 2.13157 1.68156 0
M  V30 3872 C 357.446 3.56813 -0.470391 0
M  V30 3873 C 357.054 4.05695 -1.90041 0
M  V30 3874 C 358.798 4.24423 -0.0809709 0
M  V30 3875 C 356.705 5.5553 -2.02832 0
M  V30 3876 H 355.635 0.746615 -0.105272 0
M  V30 3877 H 358.286 1.58872 -0.918258 0
M  V30 3878 H 356.668 3.95359 0.225299 0
M  V30 3879 H 357.842 3.78464 -2.62872 0
M  V30 3880 H 356.157 3.50775 -2.24379 0
M  V30 3881 H 358.754 5.34474 -0.155445 0
M  V30 3882 H 359.097 4.04962 0.96497 0
M  V30 3883 H 359.63 3.9108 -0.728124 0
M  V30 3884 H 356.369 5.79881 -3.05643 0
M  V30 3885 H 355.889 5.84537 -1.34448 0
M  V30 3886 H 357.568 6.21069 -1.81335 0
M  V30 3887 N 357.7 0.491464 1.49741 0
M  V30 3888 C 358.949 -0.0582189 2.01616 0
M  V30 3889 C 359.262 -1.38927 1.3769 0
M  V30 3890 O 360.468 -2.02509 1.80838 0
M  V30 3891 C 358.924 -0.154235 3.59569 0
M  V30 3892 C 358.532 1.1696 4.32463 0
M  V30 3893 C 360.276 -0.65479 4.1942 0
M  V30 3894 C 358.183 1.03627 5.8225 0
M  V30 3895 H 357.113 -0.0255317 0.753568 0
M  V30 3896 H 359.764 0.629445 1.72367 0
M  V30 3897 H 358.146 -0.906138 3.85493 0
M  V30 3898 H 359.32 1.93405 4.18248 0
M  V30 3899 H 357.635 1.60285 3.84315 0
M  V30 3900 H 360.232 -0.771903 5.29099 0
M  V30 3901 H 360.575 -1.65127 3.8215 0
M  V30 3902 H 361.108 0.040304 3.9778 0
M  V30 3903 H 357.847 2.00672 6.24028 0
M  V30 3904 H 357.367 0.312546 5.98985 0
M  V30 3905 H 359.046 0.711114 6.4308 0
M  V30 3906 N 359.178 -1.55987 0.224894 0
M  V30 3907 C 360.128 -2.17076 -0.697296 0
M  V30 3908 C 361.112 -1.12006 -1.15514 0
M  V30 3909 O 362.304 -1.37985 -1.10857 0
M  V30 3910 C 359.433 -2.85679 -1.90374 0
M  V30 3911 C 358.519 -3.97977 -1.46543 0
M  V30 3912 N 358.91 -5.00359 -0.739909 0
M  V30 3913 C 357.208 -4.10128 -1.75245 0
M  V30 3914 C 357.909 -5.79407 -0.515939 0
M  V30 3915 N 356.885 -5.32892 -1.07364 0
M  V30 3916 H 360.687 -2.93592 -0.134594 0
M  V30 3917 H 358.201 -1.62379 0.0262885 0
M  V30 3918 H 360.198 -3.27857 -2.57518 0
M  V30 3919 H 358.858 -2.1066 -2.47088 0
M  V30 3920 H 359.869 -5.16412 -0.392253 0
M  V30 3921 H 356.546 -3.46263 -2.33255 0
M  V30 3922 H 357.936 -6.71872 0.0617349 0
M  V30 3923 N 360.656 0.0484629 -1.57525 0
M  V30 3924 C 362.067 0.597486 -1.76881 0
M  V30 3925 C 362.418 1.76664 -0.853475 0
M  V30 3926 O 361.543 2.16357 -0.0433656 0
M  V30 3927 C 362.138 1.09066 -3.20765 0
M  V30 3928 C 360.697 1.58535 -3.41385 0
M  V30 3929 C 359.844 0.514868 -2.72478 0
M  V30 3930 H 362.795 -0.177758 -1.57701 0
M  V30 3931 H 362.816 1.95875 -3.2621 0
M  V30 3932 H 362.328 0.239521 -3.8736 0
M  V30 3933 H 360.429 2.45898 -2.79937 0
M  V30 3934 H 360.542 1.64622 -4.49929 0
M  V30 3935 H 358.906 0.965407 -2.35695 0
M  V30 3936 H 359.689 -0.32648 -3.41744 0
M  V30 3937 N 362.134 1.5431 0.320358 0
M  V30 3938 C 363.082 1.84647 1.4145 0
M  V30 3939 C 364.076 0.718624 1.53402 0
M  V30 3940 O 365.282 0.902335 1.5575 0
M  V30 3941 H 361.657 0.585349 0.472091 0
M  V30 3942 H 363.628 2.7614 1.13089 0
M  V30 3943 C 362.377 2.09341 2.77617 0
M  V30 3944 H 361.7 2.9559 2.69196 0
M  V30 3945 H 363.14 2.3452 3.53237 0
M  V30 3946 C 361.599 0.885939 3.25043 0
M  V30 3947 O 362.129 0.0967891 4.01583 0
M  V30 3948 N 360.335 0.696682 2.82125 0
M  V30 3949 H 359.882 1.34006 2.2 0
M  V30 3950 H 359.84 -0.109712 3.14209 0
M  V30 3951 N 363.613 -0.582584 1.46437 0
M  V30 3952 C 364.543 -1.70187 1.59871 0
M  V30 3953 C 365.524 -1.64066 0.449042 0
M  V30 3954 O 366.709 -1.82081 0.6753 0
M  V30 3955 C 363.839 -3.08827 1.58881 0
M  V30 3956 C 362.793 -3.29779 2.72819 0
M  V30 3957 C 362.119 -4.68947 2.5689 0
M  V30 3958 C 363.419 -3.17601 4.1464 0
M  V30 3959 H 365.113 -1.592 2.53566 0
M  V30 3960 H 362.659 -0.764472 1.22032 0
M  V30 3961 H 364.612 -3.86951 1.66873 0
M  V30 3962 H 363.336 -3.20713 0.617306 0
M  V30 3963 H 361.995 -2.54054 2.64296 0
M  V30 3964 H 361.643 -4.77599 1.57823 0
M  V30 3965 H 361.343 -4.83919 3.33312 0
M  V30 3966 H 362.867 -5.4924 2.66773 0
M  V30 3967 H 364.281 -3.8557 4.24274 0
M  V30 3968 H 362.678 -3.44094 4.9165 0
M  V30 3969 H 363.748 -2.14681 4.34788 0
M  V30 3970 N 365.091 -1.34144 -0.827227 0
M  V30 3971 C 366.023 -1.21206 -1.9453 0
M  V30 3972 C 367.036 -0.140176 -1.62195 0
M  V30 3973 O 368.225 -0.391647 -1.7415 0
M  V30 3974 C 365.325 -0.839141 -3.28347 0
M  V30 3975 C 364.498 -2.0051 -3.88734 0
M  V30 3976 C 363.557 -1.61128 -5.00923 0
M  V30 3977 O 362.583 -2.32726 -5.19449 0
M  V30 3978 N 363.785 -0.522958 -5.7814 0
M  V30 3979 H 366.55 -2.17525 -2.06162 0
M  V30 3980 H 364.111 -1.27043 -1.00358 0
M  V30 3981 H 366.103 -0.557556 -4.00841 0
M  V30 3982 H 364.673 0.0337293 -3.12582 0
M  V30 3983 H 363.893 -2.45166 -3.08686 0
M  V30 3984 H 365.181 -2.78498 -4.25812 0
M  V30 3985 H 364.579 0.0723518 -5.65654 0
M  V30 3986 H 363.136 -0.301089 -6.51104 0
M  V30 3987 N 366.569 1.04691 -1.17803 0
M  V30 3988 C 367.846 1.7472 -0.879328 0
M  V30 3989 C 368.226 2.01812 0.619271 0
M  V30 3990 O 367.574 1.65824 1.57209 0
M  V30 3991 C 367.784 3.03686 -1.71976 0
M  V30 3992 C 369.132 3.77542 -1.94286 0
M  V30 3993 O 370.156 3.13569 -1.68976 0
M  V30 3994 O 369.015 4.92506 -2.36855 0
M  V30 3995 H 366.109 0.760011 -0.326056 0
M  V30 3996 H 368.655 1.10813 -1.28525 0
M  V30 3997 H 367.427 2.79754 -2.73594 0
M  V30 3998 H 367.05 3.75332 -1.31194 0
M  V30 3999 N 368.047 0.979072 1.23499 0
M  V30 4000 C 368.979 0.476271 2.24197 0
M  V30 4001 C 369.992 -0.421166 1.57258 0
M  V30 4002 O 371.181 -0.225515 1.7707 0
M  V30 4003 C 368.281 -0.330503 3.37285 0
M  V30 4004 C 367.454 0.559744 4.33804 0
M  V30 4005 C 366.513 -0.192954 5.25846 0
M  V30 4006 O 365.539 0.416978 5.67671 0
M  V30 4007 N 366.741 -1.47932 5.61334 0
M  V30 4008 H 369.506 1.34211 2.67969 0
M  V30 4009 H 367.067 0.852189 1.37657 0
M  V30 4010 H 369.059 -0.842361 3.95836 0
M  V30 4011 H 367.629 -1.09734 2.92707 0
M  V30 4012 H 366.849 1.25245 3.73775 0
M  V30 4013 H 368.137 1.1665 4.95248 0
M  V30 4014 H 367.535 -1.9964 5.29302 0
M  V30 4015 H 366.092 -1.93664 6.22364 0
M  V30 4016 N 369.525 -1.3858 0.750561 0
M  V30 4017 C 370.802 -1.94231 0.231009 0
M  V30 4018 C 371.182 -1.68611 -1.27018 0
M  V30 4019 O 370.53 -1.02296 -2.04323 0
M  V30 4020 C 370.74 -3.44123 0.581428 0
M  V30 4021 C 372.088 -4.2116 0.539389 0
M  V30 4022 O 373.112 -3.52391 0.519541 0
M  V30 4023 O 371.971 -5.43749 0.54765 0
M  V30 4024 H 369.065 -0.825639 0.0474263 0
M  V30 4025 H 371.611 -1.4799 0.830478 0
M  V30 4026 H 370.383 -3.56267 1.61833 0
M  V30 4027 H 370.006 -3.97573 -0.0462047 0
M  V30 4028 N 371.003 -0.499398 -1.49478 0
M  V30 4029 C 372.249 0.0377587 -2.03365 0
M  V30 4030 C 372.604 1.3484 -1.37244 0
M  V30 4031 O 371.897 1.85 -0.498547 0
M  V30 4032 C 372.091 0.248424 -3.56536 0
M  V30 4033 C 371.92 -1.04025 -4.37503 0
M  V30 4034 C 370.69 -1.59159 -4.79579 0
M  V30 4035 C 372.888 -1.9431 -4.76181 0
M  V30 4036 N 370.87 -2.82634 -5.44969 0
M  V30 4037 C 372.241 -3.02364 -5.41272 0
M  V30 4038 C 374.296 -1.95008 -4.58123 0
M  V30 4039 C 372.999 -4.1114 -5.90217 0
M  V30 4040 C 375.025 -3.02758 -5.08027 0
M  V30 4041 C 374.387 -4.09531 -5.73118 0
M  V30 4042 H 370.486 -0.026923 -0.781536 0
M  V30 4043 H 373.07 -0.673901 -1.82665 0
M  V30 4044 H 371.241 0.929139 -3.77123 0
M  V30 4045 H 372.973 0.782445 -3.97064 0
M  V30 4046 H 369.728 -1.13696 -4.5975 0
M  V30 4047 H 370.152 -3.45416 -5.82252 0
M  V30 4048 H 374.794 -1.13766 -4.07207 0
M  V30 4049 H 372.512 -4.93181 -6.40155 0
M  V30 4050 H 376.098 -3.04315 -4.95866 0
M  V30 4051 H 374.978 -4.91534 -6.11035 0
M  V30 4052 N 372.481 1.55866 -0.233164 0
M  V30 4053 C 373.428 2.20796 0.67215 0
M  V30 4054 C 374.398 1.16731 1.18166 0
M  V30 4055 O 375.583 1.45129 1.23864 0
M  V30 4056 C 372.723 2.90072 1.86955 0
M  V30 4057 C 371.836 4.08759 1.39786 0
M  V30 4058 C 370.971 4.65787 2.55374 0
M  V30 4059 C 370.01 5.76752 2.04998 0
M  V30 4060 N 369.147 6.28021 3.13901 0
M  V30 4061 H 373.987 2.9779 0.111749 0
M  V30 4062 H 371.524 1.47036 0.0434007 0
M  V30 4063 H 373.482 3.28428 2.57276 0
M  V30 4064 H 372.112 2.15575 2.40265 0
M  V30 4065 H 371.164 3.7581 0.589173 0
M  V30 4066 H 372.476 4.88906 0.98856 0
M  V30 4067 H 371.63 5.06646 3.33758 0
M  V30 4068 H 370.369 3.84828 2.99598 0
M  V30 4069 H 369.374 5.35383 1.25079 0
M  V30 4070 H 370.599 6.59553 1.61759 0
M  V30 4071 H 368.545 5.49971 3.57586 0
M  V30 4072 H 368.462 7.03323 2.7726 0
M  V30 4073 H 369.73 6.73538 3.92386 0
M  V30 4074 N 373.959 -0.0401083 1.57549 0
M  V30 4075 C 375.37 -0.588097 1.77196 0
M  V30 4076 C 375.721 -1.76209 0.862832 0
M  V30 4077 O 374.846 -2.16331 0.0548389 0
M  V30 4078 C 375.441 -1.07363 3.21339 0
M  V30 4079 C 374 -1.56723 3.42221 0
M  V30 4080 C 373.147 -0.50041 2.72747 0
M  V30 4081 H 376.098 0.186119 1.57605 0
M  V30 4082 H 376.119 -1.94143 3.27244 0
M  V30 4083 H 375.631 -0.218975 3.87482 0
M  V30 4084 H 373.732 -2.4441 2.81237 0
M  V30 4085 H 373.845 -1.62234 4.50796 0
M  V30 4086 H 372.209 -0.952894 2.36203 0
M  V30 4087 H 372.992 0.344599 3.41566 0
M  V30 4088 N 375.437 -1.54477 -0.31217 0
M  V30 4089 C 376.367 -1.87652 -1.38957 0
M  V30 4090 C 377.348 -0.734358 -1.53431 0
M  V30 4091 O 378.533 -0.98911 -1.67123 0
M  V30 4092 C 375.663 -2.11396 -2.75552 0
M  V30 4093 C 374.617 -3.27243 -2.75855 0
M  V30 4094 C 373.943 -3.36382 -4.15633 0
M  V30 4095 C 375.243 -4.64622 -2.38587 0
M  V30 4096 H 376.937 -2.77887 -1.11442 0
M  V30 4097 H 374.483 -1.33707 -0.534655 0
M  V30 4098 H 376.436 -2.33189 -3.51 0
M  V30 4099 H 375.16 -1.17921 -3.04569 0
M  V30 4100 H 373.819 -3.05356 -2.02863 0
M  V30 4101 H 373.467 -2.40445 -4.41809 0
M  V30 4102 H 373.167 -4.14249 -4.1674 0
M  V30 4103 H 374.691 -3.60422 -4.92877 0
M  V30 4104 H 376.105 -4.86219 -3.03749 0
M  V30 4105 H 374.502 -5.45121 -2.50925 0
M  V30 4106 H 375.572 -4.66097 -1.33723 0
M  V30 4107 N 376.915 0.57481 -1.46744 0
M  V30 4108 C 377.865 1.67838 -1.54319 0
M  V30 4109 C 378.849 1.55759 -0.40346 0
M  V30 4110 O 380.041 1.6454 -0.652347 0
M  V30 4111 C 377.17 3.06624 -1.5439 0
M  V30 4112 C 376.256 3.23971 -2.73685 0
M  V30 4113 N 376.647 3.11447 -3.9854 0
M  V30 4114 C 374.945 3.5493 -2.70075 0
M  V30 4115 C 375.646 3.31011 -4.78337 0
M  V30 4116 N 374.622 3.56533 -4.10348 0
M  V30 4117 H 378.424 1.56698 -2.48642 0
M  V30 4118 H 375.938 0.779071 -1.42493 0
M  V30 4119 H 377.935 3.85839 -1.57905 0
M  V30 4120 H 376.595 3.1889 -0.611493 0
M  V30 4121 H 377.606 2.89145 -4.29669 0
M  V30 4122 H 374.283 3.73832 -1.85893 0
M  V30 4123 H 375.673 3.26445 -5.87268 0
M  V30 4124 N 378.394 1.34581 0.820102 0
M  V30 4125 C 379.805 1.24298 1.39309 0
M  V30 4126 C 380.156 -0.130351 1.95767 0
M  V30 4127 O 379.281 -1.0308 1.90272 0
M  V30 4128 C 379.876 2.25054 2.53251 0
M  V30 4129 C 378.435 2.18552 3.0645 0
M  V30 4130 C 377.582 2.11503 1.79337 0
M  V30 4131 H 380.533 1.45906 0.624262 0
M  V30 4132 H 380.554 1.86917 3.31425 0
M  V30 4133 H 380.066 3.24996 2.1213 0
M  V30 4134 H 378.167 1.21976 3.52069 0
M  V30 4135 H 378.28 3.0993 3.65349 0
M  V30 4136 H 376.644 1.57268 2.00347 0
M  V30 4137 H 377.427 3.13284 1.40386 0
M  V30 4138 N 379.872 -1.04064 1.18357 0
M  V30 4139 C 381.12 -1.76915 0.977013 0
M  V30 4140 C 381.441 -1.88624 -0.494577 0
M  V30 4141 O 380.711 -1.41125 -1.3587 0
M  V30 4142 H 379.291 -0.65535 0.358504 0
M  V30 4143 H 381.953 -1.25592 1.49039 0
M  V30 4144 H 381.049 -2.78178 1.41504 0
M  V30 4145 N 381.35 -0.985608 -1.22978 0
M  V30 4146 C 382.627 -0.573599 -1.87001 0
M  V30 4147 C 383.007 0.949213 -1.88555 0
M  V30 4148 O 382.355 1.82811 -1.37086 0
M  V30 4149 C 382.565 -1.18564 -3.28243 0
M  V30 4150 C 383.913 -1.28163 -4.04796 0
M  V30 4151 O 384.937 -1.13949 -3.37482 0
M  V30 4152 O 383.796 -1.50832 -5.25273 0
M  V30 4153 H 380.89 -0.193868 -0.803955 0
M  V30 4154 H 383.436 -1.08102 -1.30813 0
M  V30 4155 H 382.208 -2.22758 -3.21706 0
M  V30 4156 H 381.831 -0.663363 -3.92027 0
M  V30 4157 N 382.828 1.3818 -0.7579 0
M  V30 4158 C 384.239 1.82726 -0.383134 0
M  V30 4159 C 384.59 1.63214 1.08884 0
M  V30 4160 O 383.715 1.13566 1.84205 0
M  V30 4161 C 384.31 3.31728 -0.688631 0
M  V30 4162 C 382.869 3.74606 -0.367091 0
M  V30 4163 C 382.016 2.60896 -0.939599 0
M  V30 4164 H 384.967 1.26847 -0.953699 0
M  V30 4165 H 384.988 3.80487 0.0316492 0
M  V30 4166 H 384.5 3.45898 -1.76001 0
M  V30 4167 H 382.601 3.66013 0.697532 0
M  V30 4168 H 382.714 4.71215 -0.865658 0
M  V30 4169 H 381.078 2.52075 -0.3647 0
M  V30 4170 H 381.861 2.77864 -2.0161 0
M  V30 4171 N 384.306 0.507319 1.49211 0
M  V30 4172 C 385.239 -0.314509 2.26022 0
M  V30 4173 C 386.217 -0.964849 1.30879 0
M  V30 4174 O 387.401 -0.993707 1.6018 0
M  V30 4175 C 384.528 -1.44346 3.06402 0
M  V30 4176 C 383.574 -0.90685 4.16748 0
M  V30 4177 S 384.407 0.207392 5.35098 0
M  V30 4178 C 385.563 -0.924573 6.19033 0
M  V30 4179 H 385.796 0.337416 2.95379 0
M  V30 4180 H 383.329 0.292718 1.516 0
M  V30 4181 H 385.287 -2.09029 3.53295 0
M  V30 4182 H 383.948 -2.06702 2.36502 0
M  V30 4183 H 383.141 -1.75309 4.72528 0
M  V30 4184 H 382.743 -0.33712 3.72478 0
M  V30 4185 H 385.035 -1.82839 6.52362 0
M  V30 4186 H 385.978 -0.405248 7.06939 0
M  V30 4187 H 386.386 -1.19476 5.51712 0
M  V30 4188 N 385.784 -1.5574 0.241426 0
M  V30 4189 C 387.031 -1.9881 -0.384836 0
M  V30 4190 C 387.359 -1.12947 -1.58346 0
M  V30 4191 O 386.614 -0.178993 -1.9488 0
M  V30 4192 C 386.913 -3.47308 -0.843317 0
M  V30 4193 C 386.579 -4.50223 0.246946 0
M  V30 4194 C 385.241 -4.78088 0.546399 0
M  V30 4195 C 387.593 -5.11841 0.983282 0
M  V30 4196 C 384.921 -5.64846 1.58636 0
M  V30 4197 C 387.273 -5.99727 2.01272 0
M  V30 4198 C 385.937 -6.25927 2.31888 0
M  V30 4199 H 385.207 -0.727496 -0.140821 0
M  V30 4200 H 387.854 -1.8831 0.348106 0
M  V30 4201 H 386.159 -3.55112 -1.65537 0
M  V30 4202 H 387.856 -3.78017 -1.33806 0
M  V30 4203 H 384.446 -4.286 0.00340639 0
M  V30 4204 H 388.63 -4.90366 0.765182 0
M  V30 4205 H 383.886 -5.83403 1.82896 0
M  V30 4206 H 388.06 -6.46517 2.58823 0
M  V30 4207 H 385.687 -6.92949 3.12611 0
M  V30 4208 N 387.262 0.0317525 -1.57568 0
M  V30 4209 C 388.192 1.03274 -2.0942 0
M  V30 4210 C 389.173 1.3788 -0.996143 0
M  V30 4211 O 390.358 1.46811 -1.27122 0
M  V30 4212 C 387.488 2.33448 -2.57137 0
M  V30 4213 C 386.442 2.13091 -3.71182 0
M  V30 4214 C 385.768 3.49001 -4.05095 0
M  V30 4215 C 387.068 1.51928 -4.99715 0
M  V30 4216 H 388.762 0.60112 -2.93303 0
M  V30 4217 H 386.308 0.287705 -1.41097 0
M  V30 4218 H 388.261 3.03802 -2.92032 0
M  V30 4219 H 386.985 2.78665 -1.70333 0
M  V30 4220 H 385.644 1.45171 -3.36632 0
M  V30 4221 H 385.292 3.91862 -3.15362 0
M  V30 4222 H 384.992 3.36207 -4.81911 0
M  V30 4223 H 386.516 4.20721 -4.42522 0
M  V30 4224 H 387.93 2.12196 -5.32584 0
M  V30 4225 H 386.327 1.49716 -5.81124 0
M  V30 4226 H 387.397 0.484811 -4.8247 0
M  V30 4227 N 388.74 1.54641 0.303973 0
M  V30 4228 C 389.968 1.77768 1.05858 0
M  V30 4229 C 390.383 0.535722 1.8104 0
M  V30 4230 O 389.74 -0.494337 1.75677 0
M  V30 4231 C 389.791 2.9834 2.04146 0
M  V30 4232 O 389.512 4.17736 1.32015 0
M  V30 4233 C 391.013 3.33832 2.91669 0
M  V30 4234 H 388.233 0.592961 0.314067 0
M  V30 4235 H 390.777 2.01583 0.344149 0
M  V30 4236 H 388.932 2.76742 2.71096 0
M  V30 4237 H 389.346 4.85693 1.97998 0
M  V30 4238 H 390.82 4.21448 3.56491 0
M  V30 4239 H 391.297 2.51857 3.59812 0
M  V30 4240 H 391.903 3.57579 2.30254 0
M  V30 4241 N 390.218 -0.567019 1.47046 0
M  V30 4242 C 391.148 -1.68482 1.61667 0
M  V30 4243 C 392.129 -1.6358 0.466418 0
M  V30 4244 O 393.314 -1.81354 0.694574 0
M  V30 4245 C 390.444 -3.07124 1.62148 0
M  V30 4246 C 389.398 -3.26867 2.76301 0
M  V30 4247 C 388.724 -4.66196 2.61849 0
M  V30 4248 C 390.024 -3.13186 4.17986 0
M  V30 4249 H 391.718 -1.56502 2.5524 0
M  V30 4250 H 389.264 -0.751486 1.22836 0
M  V30 4251 H 391.217 -3.8516 1.70968 0
M  V30 4252 H 389.941 -3.2004 0.651287 0
M  V30 4253 H 388.6 -2.51237 2.66975 0
M  V30 4254 H 388.248 -4.75898 1.62879 0
M  V30 4255 H 387.948 -4.80356 3.38425 0
M  V30 4256 H 389.472 -5.46379 2.72584 0
M  V30 4257 H 390.886 -3.81049 4.2834 0
M  V30 4258 H 389.283 -3.3886 4.95272 0
M  V30 4259 H 390.353 -2.10057 4.3704 0
M  V30 4260 N 391.696 -1.35014 -0.812953 0
M  V30 4261 C 392.973 -1.18502 -1.55617 0
M  V30 4262 C 393.353 0.238421 -2.09749 0
M  V30 4263 O 392.701 1.2411 -1.91857 0
M  V30 4264 C 392.911 -2.24783 -2.66971 0
M  V30 4265 C 394.259 -2.60268 -3.35478 0
M  V30 4266 O 395.283 -2.23648 -2.77236 0
M  V30 4267 O 394.142 -3.2321 -4.40678 0
M  V30 4268 H 391.236 -0.459984 -0.687272 0
M  V30 4269 H 393.782 -1.46677 -0.853464 0
M  V30 4270 H 392.554 -3.20284 -2.24798 0
M  V30 4271 H 392.177 -1.97841 -3.44884 0
M  V30 4272 N 393.175 1.03435 -1.18907 0
M  V30 4273 C 394.423 1.76394 -0.986382 0
M  V30 4274 C 394.744 1.88883 0.484567 0
M  V30 4275 O 394.014 1.41843 1.3512 0
M  V30 4276 H 392.594 0.65344 -0.361975 0
M  V30 4277 H 395.256 1.248 -1.49703 0
M  V30 4278 H 394.352 2.77424 -1.42978 0
M  V30 4279 N 394.653 0.992116 1.22453 0
M  V30 4280 C 395.6 0.541731 2.24352 0
M  V30 4281 C 396.57 -0.425519 1.60557 0
M  V30 4282 O 397.755 -0.330453 1.87917 0
M  V30 4283 C 394.895 -0.138248 3.44823 0
M  V30 4284 C 394.008 0.870649 4.23136 0
M  V30 4285 C 393.143 0.164269 5.30946 0
M  V30 4286 C 392.182 1.16159 6.00977 0
M  V30 4287 N 391.319 0.483568 7.00433 0
M  V30 4288 H 396.159 1.41541 2.62241 0
M  V30 4289 H 393.696 0.709013 1.28885 0
M  V30 4290 H 395.654 -0.5494 4.13567 0
M  V30 4291 H 394.284 -0.975721 3.077 0
M  V30 4292 H 393.336 1.40013 3.53696 0
M  V30 4293 H 394.648 1.63014 4.7141 0
M  V30 4294 H 393.802 -0.303653 6.0594 0
M  V30 4295 H 392.541 -0.627733 4.83643 0
M  V30 4296 H 391.546 1.64015 5.24766 0
M  V30 4297 H 392.771 1.95445 6.50368 0
M  V30 4298 H 390.717 -0.289012 6.55363 0
M  V30 4299 H 390.634 1.18152 7.4671 0
M  V30 4300 H 391.902 0.0384219 7.79491 0
M  V30 4301 N 396.131 -1.37776 0.765217 0
M  V30 4302 C 397.359 -2.04124 0.337767 0
M  V30 4303 C 397.774 -1.57715 -1.03785 0
M  V30 4304 O 397.131 -0.755447 -1.6613 0
M  V30 4305 C 397.182 -3.59658 0.364442 0
M  V30 4306 O 396.903 -4.04367 1.68579 0
M  V30 4307 C 398.404 -4.43236 -0.0754221 0
M  V30 4308 H 395.624 -0.655696 0.142491 0
M  V30 4309 H 398.168 -1.76238 1.03732 0
M  V30 4310 H 396.323 -3.86339 -0.286471 0
M  V30 4311 H 396.737 -4.98857 1.61993 0
M  V30 4312 H 398.211 -5.52 -0.00560067 0
M  V30 4313 H 398.688 -4.2455 -1.12491 0
M  V30 4314 H 399.294 -4.21767 0.547055 0
M  V30 4315 N 397.609 -0.515225 -1.4894 0
M  V30 4316 C 398.858 0.0261361 -2.01683 0
M  V30 4317 C 399.171 1.36719 -1.39883 0
M  V30 4318 O 400.377 1.99606 -1.84037 0
M  V30 4319 C 398.833 0.0970111 -3.59769 0
M  V30 4320 C 398.441 -1.23825 -4.30548 0
M  V30 4321 C 400.185 0.587981 -4.20408 0
M  V30 4322 C 398.092 -1.12877 -5.80528 0
M  V30 4323 H 397.022 0.0135398 -0.753878 0
M  V30 4324 H 399.673 -0.656787 -1.71343 0
M  V30 4325 H 398.055 0.844694 -3.86886 0
M  V30 4326 H 399.229 -2.00034 -4.15118 0
M  V30 4327 H 397.544 -1.66379 -3.81716 0
M  V30 4328 H 400.141 0.68763 -5.3026 0
M  V30 4329 H 400.484 1.59026 -3.84729 0
M  V30 4330 H 401.017 -0.103582 -3.97665 0
M  V30 4331 H 397.756 -2.10575 -6.20756 0
M  V30 4332 H 397.276 -0.407799 -5.98412 0
M  V30 4333 H 398.955 -0.813332 -6.41868 0
M  V30 4334 N 399.087 1.5561 -0.249682 0
M  V30 4335 C 400.498 1.84979 0.252949 0
M  V30 4336 C 400.849 1.17153 1.57384 0
M  V30 4337 O 399.974 0.450884 2.11651 0
M  V30 4338 C 400.569 3.35584 0.465732 0
M  V30 4339 C 399.128 3.65169 0.912624 0
M  V30 4340 C 398.275 2.77299 -0.00859085 0
M  V30 4341 H 401.226 1.51513 -0.47217 0
M  V30 4342 H 401.247 3.57313 1.30795 0
M  V30 4343 H 400.759 3.8492 -0.49579 0
M  V30 4344 H 398.86 3.21312 1.88652 0
M  V30 4345 H 398.973 4.72912 0.767559 0
M  V30 4346 H 397.337 2.49678 0.50327 0
M  V30 4347 H 398.12 3.29442 -0.965537 0
M  V30 4348 N 400.565 -0.0233959 1.57583 0
M  V30 4349 C 401.495 -1.02162 2.09965 0
M  V30 4350 C 402.476 -1.3735 1.00344 0
M  V30 4351 O 403.661 -1.46135 1.27899 0
M  V30 4352 C 400.791 -2.32081 2.58371 0
M  V30 4353 C 399.745 -2.1112 3.72307 0
M  V30 4354 C 399.071 -3.46848 4.06941 0
M  V30 4355 C 400.371 -1.49276 5.00514 0
M  V30 4356 H 402.065 -0.585557 2.93618 0
M  V30 4357 H 399.611 -0.280218 1.41247 0
M  V30 4358 H 401.564 -3.02249 2.93639 0
M  V30 4359 H 400.288 -2.77758 1.71808 0
M  V30 4360 H 398.947 -1.43384 3.37397 0
M  V30 4361 H 398.595 -3.90184 3.17436 0
M  V30 4362 H 398.295 -3.33646 4.83688 0
M  V30 4363 H 399.819 -4.18369 4.44747 0
M  V30 4364 H 401.233 -2.09368 5.33702 0
M  V30 4365 H 399.63 -1.46632 5.8191 0
M  V30 4366 H 400.7 -0.459217 4.82721 0
M  V30 4367 N 402.043 -1.548 -0.295768 0
M  V30 4368 C 403.291 -1.73985 -1.02828 0
M  V30 4369 C 403.612 -0.531406 -1.87619 0
M  V30 4370 O 402.882 0.454221 -1.90561 0
M  V30 4371 H 401.462 -0.641556 -0.382642 0
M  V30 4372 H 404.124 -1.92163 -0.325489 0
M  V30 4373 H 403.22 -2.63129 -1.67838 0
M  V30 4374 N 403.521 0.559213 -1.47345 0
M  V30 4375 C 404.769 1.31388 -1.53563 0
M  V30 4376 C 405.09 1.93985 -0.198678 0
M  V30 4377 O 404.36 1.79825 0.777167 0
M  V30 4378 H 402.94 0.487901 -0.565652 0
M  V30 4379 H 405.602 0.65315 -1.8363 0
M  V30 4380 H 404.698 2.10844 -2.30111 0
M  V30 4381 N 404.999 1.35443 0.805782 0
M  V30 4382 C 406.276 1.19325 1.54987 0
M  V30 4383 C 406.656 -0.227294 2.09873 0
M  V30 4384 O 406.004 -1.2309 1.92512 0
M  V30 4385 C 406.214 2.26196 2.65775 0
M  V30 4386 C 407.562 2.62043 3.34094 0
M  V30 4387 O 408.586 2.25115 2.76046 0
M  V30 4388 O 407.445 3.25542 4.38958 0
M  V30 4389 H 404.539 0.463623 0.684823 0
M  V30 4390 H 407.085 1.47127 0.845674 0
M  V30 4391 H 405.857 3.21471 2.23096 0
M  V30 4392 H 405.48 1.99667 3.43829 0
M  V30 4393 N 406.477 -1.02803 1.19454 0
M  V30 4394 C 407.717 -1.77769 1.00883 0
M  V30 4395 C 408.081 -1.86596 -0.45233 0
M  V30 4396 O 409.282 -2.57895 -0.757877 0
M  V30 4397 C 407.553 -3.16486 1.66046 0
M  V30 4398 S 409.112 -4.07632 1.62424 0
M  V30 4399 H 405.93 -0.611949 0.361993 0
M  V30 4400 H 408.532 -1.23175 1.51816 0
M  V30 4401 H 407.236 -3.0768 2.7159 0
M  V30 4402 H 406.767 -3.76156 1.15196 0
M  V30 4403 H 408.782 -4.91937 0.64903 0
M  V30 4404 N 407.956 -0.998596 -1.21925 0
M  V30 4405 C 409.184 -0.696286 -1.94832 0
M  V30 4406 C 409.599 0.740032 -1.73692 0
M  V30 4407 O 408.956 1.5 -1.03953 0
M  V30 4408 C 409.007 -0.999833 -3.47398 0
M  V30 4409 O 408.728 -2.37972 -3.67833 0
M  V30 4410 C 410.229 -0.716025 -4.37479 0
M  V30 4411 H 407.449 -0.257111 -0.619786 0
M  V30 4412 H 409.993 -1.33491 -1.54921 0
M  V30 4413 H 408.148 -0.406918 -3.85257 0
M  V30 4414 H 408.562 -2.48338 -4.61983 0
M  V30 4415 H 410.036 -0.978642 -5.43256 0
M  V30 4416 H 410.513 0.349968 -4.37803 0
M  V30 4417 H 411.119 -1.29025 -4.05256 0
M  V30 4418 N 409.434 1.37368 -0.772513 0
M  V30 4419 C 410.68 1.99969 -0.337681 0
M  V30 4420 C 411.013 1.61184 1.08321 0
M  V30 4421 O 410.288 0.858395 1.74533 0
M  V30 4422 C 410.571 3.56858 -0.482121 0
M  V30 4423 C 410.424 4.0555 -1.94549 0
M  V30 4424 C 411.743 4.39955 0.113143 0
M  V30 4425 H 408.862 0.726464 -0.124171 0
M  V30 4426 H 411.504 1.63034 -0.975699 0
M  V30 4427 H 409.654 3.88452 0.0610361 0
M  V30 4428 H 411.326 3.84518 -2.54841 0
M  V30 4429 H 409.569 3.57715 -2.45403 0
M  V30 4430 H 410.24 5.14587 -1.9976 0
M  V30 4431 H 412.716 4.14623 -0.35031 0
M  V30 4432 H 411.592 5.48897 -0.0180514 0
M  V30 4433 H 411.853 4.25403 1.20354 0
M  V30 4434 N 410.912 0.523116 1.48665 0
M  V30 4435 C 412.142 -0.00961724 2.06598 0
M  V30 4436 C 412.55 -1.29333 1.38093 0
M  V30 4437 O 411.893 -1.77846 0.46007 0
M  V30 4438 C 411.955 -0.311135 3.58151 0
M  V30 4439 C 411.619 0.878092 4.48485 0
M  V30 4440 C 412.616 1.77464 4.88674 0
M  V30 4441 C 410.301 1.08315 4.90483 0
M  V30 4442 C 412.295 2.86021 5.69623 0
M  V30 4443 C 409.982 2.17187 5.71203 0
M  V30 4444 C 410.98 3.05873 6.10681 0
M  V30 4445 O 410.668 4.12862 6.89783 0
M  V30 4446 H 410.4 0.0272658 0.67545 0
M  V30 4447 H 412.954 0.726156 1.92136 0
M  V30 4448 H 411.184 -1.10079 3.70701 0
M  V30 4449 H 412.873 -0.785125 3.98234 0
M  V30 4450 H 413.639 1.62813 4.56855 0
M  V30 4451 H 409.518 0.402149 4.59243 0
M  V30 4452 H 413.062 3.55272 6.00356 0
M  V30 4453 H 408.959 2.31824 6.02435 0
M  V30 4454 H 409.727 4.10487 7.08126 0
M  V30 4455 N 412.39 -1.55475 0.257931 0
M  V30 4456 C 413.801 -1.8511 -0.243135 0
M  V30 4457 C 414.152 -1.17986 -1.5676 0
M  V30 4458 O 413.277 -0.462102 -2.11409 0
M  V30 4459 C 413.872 -3.35826 -0.447929 0
M  V30 4460 C 412.431 -3.65647 -0.893245 0
M  V30 4461 C 411.578 -2.7729 0.0232965 0
M  V30 4462 H 414.529 -1.51261 0.480199 0
M  V30 4463 H 414.55 -3.58002 -1.28898 0
M  V30 4464 H 414.062 -3.84652 0.516196 0
M  V30 4465 H 412.163 -3.22308 -1.86945 0
M  V30 4466 H 412.276 -4.73312 -0.742469 0
M  V30 4467 H 410.64 -2.49942 -0.490021 0
M  V30 4468 H 411.423 -3.28926 0.982994 0
M  V30 4469 N 413.868 0.0150385 -1.57593 0
M  V30 4470 C 415.114 0.704043 -1.90187 0
M  V30 4471 C 415.447 1.74249 -0.857366 0
M  V30 4472 O 414.722 1.94092 0.125843 0
M  V30 4473 C 415.005 1.36087 -3.33395 0
M  V30 4474 C 414.858 0.334981 -4.48551 0
M  V30 4475 C 416.177 2.29112 -3.7576 0
M  V30 4476 H 413.296 0.254475 -0.691673 0
M  V30 4477 H 415.938 -0.0331678 -1.89971 0
M  V30 4478 H 414.088 1.98922 -3.3371 0
M  V30 4479 H 415.76 -0.292534 -4.60372 0
M  V30 4480 H 414.003 -0.344325 -4.32431 0
M  V30 4481 H 414.674 0.833316 -5.45674 0
M  V30 4482 H 417.15 1.76308 -3.76902 0
M  V30 4483 H 416.026 2.72043 -4.76743 0
M  V30 4484 H 416.287 3.16385 -3.08793 0
M  V30 4485 N 415.346 1.54954 0.287554 0
M  V30 4486 C 416.593 1.74873 1.02106 0
M  V30 4487 C 416.921 0.541829 1.86801 0
M  V30 4488 O 416.176 -0.475992 1.89823 0
M  V30 4489 C 416.475 2.99833 1.94512 0
M  V30 4490 C 416.141 4.33029 1.25686 0
M  V30 4491 C 414.803 4.69233 1.06649 0
M  V30 4492 C 417.155 5.15542 0.765913 0
M  V30 4493 C 414.483 5.85518 0.372222 0
M  V30 4494 C 416.835 6.32542 0.0853101 0
M  V30 4495 C 415.499 6.67398 -0.1169 0
M  V30 4496 H 414.769 0.639906 0.373632 0
M  V30 4497 H 417.416 1.89219 0.294665 0
M  V30 4498 H 415.721 2.80325 2.73725 0
M  V30 4499 H 417.418 3.1244 2.51361 0
M  V30 4500 H 414.008 4.04564 1.41512 0
M  V30 4501 H 418.192 4.88059 0.90066 0
M  V30 4502 H 413.448 6.11057 0.204695 0
M  V30 4503 H 417.622 6.95741 -0.302936 0
M  V30 4504 H 415.249 7.57357 -0.656859 0
M  V30 4505 N 416.824 -0.551391 1.4764 0
M  V30 4506 C 418.07 -1.31024 1.54792 0
M  V30 4507 C 418.403 -1.9304 0.211967 0
M  V30 4508 O 417.678 -1.78175 -0.77999 0
M  V30 4509 C 417.961 -2.41593 2.67029 0
M  V30 4510 C 417.814 -1.84408 4.10261 0
M  V30 4511 C 419.133 -3.43488 2.75143 0
M  V30 4512 H 416.252 -0.475031 0.563485 0
M  V30 4513 H 418.894 -0.616454 1.79722 0
M  V30 4514 H 417.044 -3.00772 2.45904 0
M  V30 4515 H 418.716 -1.29445 4.42766 0
M  V30 4516 H 416.959 -1.15051 4.18265 0
M  V30 4517 H 417.63 -2.64367 4.84576 0
M  V30 4518 H 420.106 -2.94236 2.94218 0
M  V30 4519 H 418.982 -4.18274 3.55441 0
M  V30 4520 H 419.243 -4.02703 1.82435 0
M  V30 4521 N 418.302 -1.35869 -0.798587 0
M  V30 4522 C 419.25 -1.29491 -1.93222 0
M  V30 4523 C 420.244 -0.18836 -1.6835 0
M  V30 4524 O 421.45 -0.354822 -1.76468 0
M  V30 4525 H 417.825 -0.402901 -0.63496 0
M  V30 4526 H 419.796 -2.25247 -1.9572 0
M  V30 4527 C 418.545 -1.09184 -3.30112 0
M  V30 4528 H 417.868 -1.93574 -3.49813 0
M  V30 4529 H 419.308 -1.08766 -4.09812 0
M  V30 4530 C 417.767 0.203959 -3.36282 0
M  V30 4531 O 418.297 1.19699 -3.83451 0
M  V30 4532 N 416.503 0.245488 -2.89561 0
M  V30 4533 H 416.05 -0.563223 -2.51367 0
M  V30 4534 H 416.008 1.11219 -2.94071 0
M  V30 4535 N 419.78 1.02168 -1.19998 0
M  V30 4536 C 420.69 2.14069 -0.959774 0
M  V30 4537 C 421.706 1.73804 0.082655 0
M  V30 4538 O 422.882 2.01133 -0.103633 0
M  V30 4539 C 419.947 3.42936 -0.509459 0
M  V30 4540 C 419.008 3.97474 -1.62213 0
M  V30 4541 C 418.241 5.2019 -1.19321 0
M  V30 4542 O 418.464 5.70369 -0.0597726 0
M  V30 4543 O 417.398 5.67749 -1.99863 0
M  V30 4544 H 421.224 2.37199 -1.89658 0
M  V30 4545 H 418.809 1.12469 -0.983411 0
M  V30 4546 H 420.691 4.20551 -0.267322 0
M  V30 4547 H 419.366 3.21234 0.398821 0
M  V30 4548 H 418.273 3.21161 -1.9185 0
M  V30 4549 H 419.606 4.23555 -2.50723 0
M  V30 4550 N 421.258 1.00505 1.21394 0
M  V30 4551 C 422.221 0.570459 2.21987 0
M  V30 4552 C 423.221 -0.353211 1.56873 0
M  V30 4553 O 424.411 -0.14349 1.73608 0
M  V30 4554 C 421.543 -0.168555 3.40483 0
M  V30 4555 H 422.736 1.46021 2.6195 0
M  V30 4556 H 420.289 0.793565 1.34656 0
M  V30 4557 H 421.024 -1.07374 3.06009 0
M  V30 4558 H 420.809 0.494823 3.88965 0
M  V30 4559 H 422.299 -0.460362 4.15055 0
M  V30 4560 N 422.737 -1.36956 0.779787 0
M  V30 4561 C 423.7 -2.2851 0.177662 0
M  V30 4562 C 424.7 -1.48393 -0.619377 0
M  V30 4563 O 425.89 -1.68505 -0.441785 0
M  V30 4564 C 423.022 -3.32428 -0.755279 0
M  V30 4565 H 424.215 -2.83269 0.984823 0
M  V30 4566 H 421.768 -1.46358 0.548544 0
M  V30 4567 H 422.503 -2.82808 -1.58714 0
M  V30 4568 H 422.288 -3.91659 -0.185817 0
M  V30 4569 H 423.778 -4.00824 -1.17174 0
M  V30 4570 N 424.215 -0.530993 -1.48385 0
M  V30 4571 C 425.445 -0.00133928 -2.066 0
M  V30 4572 C 425.853 1.28599 -1.38777 0
M  V30 4573 O 425.196 1.77599 -0.469495 0
M  V30 4574 C 425.258 0.292137 -3.58311 0
M  V30 4575 C 424.922 -0.901864 -4.48013 0
M  V30 4576 C 425.919 -1.80053 -4.87726 0
M  V30 4577 C 423.604 -1.10915 -4.89901 0
M  V30 4578 C 425.598 -2.89038 -5.68098 0
M  V30 4579 C 423.285 -2.20213 -5.70043 0
M  V30 4580 C 424.283 -3.09107 -6.0905 0
M  V30 4581 O 423.971 -4.16514 -6.87583 0
M  V30 4582 H 423.703 -0.0308475 -0.675296 0
M  V30 4583 H 426.257 -0.736335 -1.91748 0
M  V30 4584 H 424.487 1.08112 -3.7128 0
M  V30 4585 H 426.176 0.763994 -3.98645 0
M  V30 4586 H 426.942 -1.65234 -4.55986 0
M  V30 4587 H 422.821 -0.426498 -4.59023 0
M  V30 4588 H 426.365 -3.58451 -5.98464 0
M  V30 4589 H 422.262 -2.35016 -6.01197 0
M  V30 4590 H 423.03 -4.14237 -7.05939 0
M  V30 4591 N 425.693 1.55336 -0.266172 0
M  V30 4592 C 426.923 2.03506 0.356239 0
M  V30 4593 C 427.331 1.14426 1.50676 0
M  V30 4594 O 426.674 0.155043 1.83045 0
M  V30 4595 C 426.736 3.47848 0.90785 0
M  V30 4596 C 426.4 4.56861 -0.112888 0
M  V30 4597 C 427.397 5.11528 -0.929264 0
M  V30 4598 C 425.082 5.01704 -0.244546 0
M  V30 4599 C 427.076 6.09549 -1.86357 0
M  V30 4600 C 424.763 5.99553 -1.18234 0
M  V30 4601 C 425.761 6.53356 -1.99036 0
M  V30 4602 O 425.449 7.49293 -2.91231 0
M  V30 4603 H 425.181 0.670444 0.08649 0
M  V30 4604 H 427.735 2.01598 -0.39337 0
M  V30 4605 H 425.965 3.46967 1.70737 0
M  V30 4606 H 427.654 3.79407 1.44239 0
M  V30 4607 H 428.42 4.77701 -0.838237 0
M  V30 4608 H 424.299 4.59477 0.374359 0
M  V30 4609 H 427.843 6.51469 -2.49467 0
M  V30 4610 H 423.74 6.32799 -1.27421 0
M  V30 4611 H 424.508 7.66978 -2.8581 0
M  V30 4612 N 427.171 -0.0066808 1.57599 0
M  V30 4613 C 428.081 -1.01671 2.11424 0
M  V30 4614 C 429.097 -1.38143 1.05795 0
M  V30 4615 O 430.273 -1.47011 1.37658 0
M  V30 4616 C 427.338 -2.29192 2.60139 0
M  V30 4617 C 426.399 -1.99094 3.80342 0
M  V30 4618 C 425.632 -3.20535 4.26724 0
M  V30 4619 O 425.855 -4.3199 3.72479 0
M  V30 4620 O 424.789 -3.04924 5.18946 0
M  V30 4621 H 428.615 -0.589181 2.9793 0
M  V30 4622 H 426.2 -0.225091 1.47695 0
M  V30 4623 H 428.082 -3.0412 2.917 0
M  V30 4624 H 426.757 -2.71195 1.76733 0
M  V30 4625 H 425.664 -1.21663 3.53764 0
M  V30 4626 H 426.997 -1.61931 4.648 0
M  V30 4627 N 428.649 -1.55105 -0.279332 0
M  V30 4628 C 429.596 -1.8755 -1.34513 0
M  V30 4629 C 430.566 -0.726384 -1.49375 0
M  V30 4630 O 431.751 -0.977063 -1.63884 0
M  V30 4631 C 428.891 -2.14738 -2.70151 0
M  V30 4632 C 428.004 -3.42285 -2.63562 0
M  V30 4633 C 427.139 -3.59206 -3.91337 0
M  V30 4634 C 426.178 -4.80467 -3.79233 0
M  V30 4635 N 425.315 -4.94079 -4.98829 0
M  V30 4636 H 430.155 -2.78456 -1.06143 0
M  V30 4637 H 427.692 -1.37867 -0.512936 0
M  V30 4638 H 429.65 -2.28501 -3.49061 0
M  V30 4639 H 428.28 -1.27075 -2.96735 0
M  V30 4640 H 427.332 -3.37029 -1.76397 0
M  V30 4641 H 428.644 -4.31328 -2.50515 0
M  V30 4642 H 427.798 -3.72751 -4.78687 0
M  V30 4643 H 426.537 -2.68337 -4.07243 0
M  V30 4644 H 425.542 -4.66932 -2.90266 0
M  V30 4645 H 426.767 -5.72765 -3.64852 0
M  V30 4646 H 424.713 -4.06139 -5.15158 0
M  V30 4647 H 424.63 -5.77156 -4.8829 0
M  V30 4648 H 425.898 -5.12003 -5.8777 0
M  V30 4649 N 430.127 0.543554 -1.4793 0
M  V30 4650 C 431.074 1.64942 -1.6144 0
M  V30 4651 C 432.044 1.59692 -0.456903 0
M  V30 4652 O 433.229 1.78321 -0.678688 0
M  V30 4653 C 430.369 3.03238 -1.64744 0
M  V30 4654 C 429.482 3.18823 -2.91506 0
M  V30 4655 C 428.617 4.47599 -2.86057 0
M  V30 4656 C 427.656 4.56664 -4.07584 0
M  V30 4657 N 426.793 5.76811 -4.00292 0
M  V30 4658 H 431.633 1.52733 -2.55884 0
M  V30 4659 H 429.17 0.7438 -1.2691 0
M  V30 4660 H 431.128 3.83339 -1.64641 0
M  V30 4661 H 429.758 3.1425 -0.738017 0
M  V30 4662 H 428.81 2.32064 -3.01414 0
M  V30 4663 H 430.122 3.21384 -3.81463 0
M  V30 4664 H 429.276 5.35975 -2.84281 0
M  V30 4665 H 428.015 4.47538 -1.93807 0
M  V30 4666 H 427.02 3.66697 -4.09651 0
M  V30 4667 H 428.245 4.58474 -5.00978 0
M  V30 4668 H 426.191 5.77673 -3.10853 0
M  V30 4669 H 426.108 5.80808 -4.8394 0
M  V30 4670 H 427.376 6.67512 -4.02553 0
M  V30 4671 N 431.605 1.3629 0.791371 0
M  V30 4672 C 432.515 1.32606 1.93527 0
M  V30 4673 C 433.531 0.228541 1.72493 0
M  V30 4674 O 434.707 0.460571 1.96063 0
M  V30 4675 C 431.772 1.11271 3.28359 0
M  V30 4676 C 430.833 2.3048 3.62185 0
M  V30 4677 C 430.066 2.10154 4.90583 0
M  V30 4678 O 430.289 1.07572 5.60165 0
M  V30 4679 O 429.223 2.97884 5.23019 0
M  V30 4680 H 433.049 2.28909 1.99585 0
M  V30 4681 H 430.634 1.16818 0.931344 0
M  V30 4682 H 432.516 1.01283 4.09047 0
M  V30 4683 H 431.191 0.180292 3.23198 0
M  V30 4684 H 430.098 2.46036 2.81811 0
M  V30 4685 H 431.431 3.22221 3.72068 0
M  V30 4686 N 433.083 -1.0153 1.20538 0
M  V30 4687 C 434.046 -2.0826 0.957098 0
M  V30 4688 C 435.046 -1.60657 -0.0678655 0
M  V30 4689 O 436.236 -1.73385 0.168332 0
M  V30 4690 C 433.368 -3.38033 0.441188 0
M  V30 4691 H 434.561 -2.31719 1.90384 0
M  V30 4692 H 432.114 -1.1835 1.02093 0
M  V30 4693 H 432.849 -3.20249 -0.510961 0
M  V30 4694 H 432.634 -3.73911 1.18038 0
M  V30 4695 H 434.124 -4.16613 0.287009 0
M  V30 4696 N 434.561 -1.01147 -1.20859 0
M  V30 4697 C 435.808 -0.697865 -1.90095 0
M  V30 4698 C 436.136 0.772014 -1.78522 0
M  V30 4699 O 435.391 1.57595 -1.16027 0
M  V30 4700 C 435.69 -1.0727 -3.40922 0
M  V30 4701 C 435.356 -2.53792 -3.72693 0
M  V30 4702 C 434.018 -2.93829 -3.81075 0
M  V30 4703 C 436.37 -3.48674 -3.87397 0
M  V30 4704 C 433.698 -4.27696 -4.01613 0
M  V30 4705 C 436.05 -4.82223 -4.09444 0
M  V30 4706 C 434.714 -5.21973 -4.16054 0
M  V30 4707 H 433.984 -0.255367 -0.695607 0
M  V30 4708 H 436.631 -1.27111 -1.43231 0
M  V30 4709 H 434.936 -0.417799 -3.89566 0
M  V30 4710 H 436.633 -0.807818 -3.92779 0
M  V30 4711 H 433.223 -2.21768 -3.66765 0
M  V30 4712 H 437.407 -3.18904 -3.80281 0
M  V30 4713 H 432.663 -4.58055 -4.04964 0
M  V30 4714 H 436.837 -5.55672 -4.19763 0
M  V30 4715 H 434.464 -6.25717 -4.31721 0
M  V30 4716 N 436.039 1.36541 -0.78704 0
M  V30 4717 C 437.002 2.28413 -0.189778 0
M  V30 4718 C 438.002 1.48719 0.611499 0
M  V30 4719 O 439.192 1.68737 0.432842 0
M  V30 4720 C 436.324 3.32824 0.737638 0
M  V30 4721 H 437.517 2.82743 -0.999831 0
M  V30 4722 H 435.07 1.46065 -0.556298 0
M  V30 4723 H 435.805 2.83646 1.57212 0
M  V30 4724 H 435.59 3.91752 0.165044 0
M  V30 4725 H 437.08 4.0144 1.15047 0
M  V30 4726 N 437.518 0.538854 1.48102 0
M  V30 4727 C 438.465 -0.219042 2.29758 0
M  V30 4728 C 439.435 -0.925562 1.37922 0
M  V30 4729 O 440.62 -0.924855 1.66886 0
M  V30 4730 C 437.76 -1.25452 3.2149 0
M  V30 4731 C 436.873 -0.555943 4.28408 0
M  V30 4732 C 436.008 -1.57512 5.0731 0
M  V30 4733 C 435.047 -0.860498 6.06021 0
M  V30 4734 N 434.184 -1.82564 6.77949 0
M  V30 4735 H 439.024 0.483449 2.94052 0
M  V30 4736 H 436.561 0.250247 1.44956 0
M  V30 4737 H 438.519 -1.86727 3.7308 0
M  V30 4738 H 437.149 -1.92528 2.591 0
M  V30 4739 H 436.201 0.170938 3.80016 0
M  V30 4740 H 437.513 0.00474616 4.988 0
M  V30 4741 H 436.667 -2.26191 5.62959 0
M  V30 4742 H 435.406 -2.16972 4.36778 0
M  V30 4743 H 434.411 -0.159686 5.49568 0
M  V30 4744 H 435.636 -0.271897 6.78555 0
M  V30 4745 H 433.582 -2.40915 6.10161 0
M  V30 4746 H 433.499 -1.31662 7.44447 0
M  V30 4747 H 434.767 -2.50414 7.38182 0
M  V30 4748 N 438.996 -1.55193 0.274407 0
M  V30 4749 C 440.224 -2.03987 -0.345943 0
M  V30 4750 C 440.639 -1.15279 -1.4952 0
M  V30 4751 O 439.996 -0.172759 -1.8168 0
M  V30 4752 C 440.047 -3.51898 -0.827631 0
M  V30 4753 O 439.768 -4.37231 0.275855 0
M  V30 4754 C 441.269 -4.16577 -1.51587 0
M  V30 4755 H 438.489 -0.666335 -0.0789892 0
M  V30 4756 H 441.033 -2.00423 0.406294 0
M  V30 4757 H 439.188 -3.55909 -1.52996 0
M  V30 4758 H 439.602 -5.24415 -0.0943638 0
M  V30 4759 H 441.076 -5.21678 -1.80433 0
M  V30 4760 H 441.553 -3.64707 -2.44716 0
M  V30 4761 H 442.159 -4.16568 -0.857409 0
M  V30 4762 N 440.474 -0.00167713 -1.576 0
M  V30 4763 C 441.702 0.693759 -1.94922 0
M  V30 4764 C 442.117 1.67215 -0.876626 0
M  V30 4765 O 441.474 1.81929 0.144279 0
M  V30 4766 C 441.525 1.42416 -3.32265 0
M  V30 4767 O 441.246 0.485014 -4.35407 0
M  V30 4768 C 442.747 2.21395 -3.84056 0
M  V30 4769 H 439.967 0.193118 -0.642609 0
M  V30 4770 H 442.511 -0.0532952 -2.04431 0
M  V30 4771 H 440.666 2.12284 -3.24059 0
M  V30 4772 H 441.08 1.00053 -5.14868 0
M  V30 4773 H 442.554 2.67996 -4.82578 0
M  V30 4774 H 443.031 3.04142 -3.16851 0
M  V30 4775 H 443.637 1.56542 -3.95443 0
M  V30 4776 N 441.952 1.55251 0.271103 0
M  V30 4777 C 442.899 1.88261 1.33516 0
M  V30 4778 C 443.869 0.734296 1.48988 0
M  V30 4779 O 445.054 0.985741 1.63364 0
M  V30 4780 C 442.194 2.16168 2.69008 0
M  V30 4781 C 441.307 3.43678 2.61743 0
M  V30 4782 C 440.442 3.61276 3.89427 0
M  V30 4783 C 439.481 4.82472 3.7668 0
M  V30 4784 N 438.618 4.96717 4.96202 0
M  V30 4785 H 443.458 2.79015 1.04665 0
M  V30 4786 H 440.995 1.38137 0.505618 0
M  V30 4787 H 442.953 2.30349 3.47844 0
M  V30 4788 H 441.583 1.28646 2.96057 0
M  V30 4789 H 440.635 3.37959 1.74607 0
M  V30 4790 H 441.947 4.3265 2.48224 0
M  V30 4791 H 441.101 3.75284 4.76704 0
M  V30 4792 H 439.84 2.70492 4.05814 0
M  V30 4793 H 438.845 4.68465 2.87786 0
M  V30 4794 H 440.07 5.74692 3.61809 0
M  V30 4795 H 438.016 4.08865 5.12997 0
M  V30 4796 H 437.933 5.79738 4.85222 0
M  V30 4797 H 439.201 5.15113 5.85046 0
M  V30 4798 N 443.43 -0.535701 1.48216 0
M  V30 4799 C 444.36 -1.65014 1.65204 0
M  V30 4800 C 445.341 -1.62554 0.501011 0
M  V30 4801 O 446.526 -1.7984 0.732886 0
M  V30 4802 C 443.656 -3.03616 1.68626 0
M  V30 4803 C 442.61 -3.20932 2.83172 0
M  V30 4804 C 441.936 -4.60537 2.71679 0
M  V30 4805 C 443.236 -3.04249 4.24535 0
M  V30 4806 H 444.93 -1.51053 2.58502 0
M  V30 4807 H 442.476 -0.725262 1.24402 0
M  V30 4808 H 444.429 -3.81446 1.79099 0
M  V30 4809 H 443.153 -3.18587 0.719026 0
M  V30 4810 H 441.812 -2.45517 2.72244 0
M  V30 4811 H 441.46 -4.72336 1.72937 0
M  V30 4812 H 441.16 -4.73069 3.48538 0
M  V30 4813 H 442.684 -5.40475 2.84112 0
M  V30 4814 H 444.098 -3.71877 4.36326 0
M  V30 4815 H 442.495 -3.28278 5.02348 0
M  V30 4816 H 443.565 -2.00739 4.41397 0
M  V30 4817 N 444.908 -1.36708 -0.784132 0
M  V30 4818 C 446.136 -1.34398 -1.57305 0
M  V30 4819 C 446.551 0.0735577 -1.88657 0
M  V30 4820 O 445.908 1.03193 -1.50524 0
M  V30 4821 C 445.959 -2.17053 -2.89085 0
M  V30 4822 O 445.68 -3.53281 -2.59083 0
M  V30 4823 C 447.181 -2.22583 -3.83369 0
M  V30 4824 H 444.401 -0.460819 -0.487736 0
M  V30 4825 H 446.945 -1.79879 -0.972819 0
M  V30 4826 H 445.1 -1.75113 -3.45564 0
M  V30 4827 H 445.514 -3.9647 -3.43383 0
M  V30 4828 H 446.988 -2.84763 -4.72878 0
M  V30 4829 H 447.465 -1.23075 -4.21603 0
M  V30 4830 H 448.071 -2.64781 -3.32823 0
M  V30 4831 N 446.386 1.0089 -1.21074 0
M  V30 4832 C 447.316 2.1145 -0.990523 0
M  V30 4833 C 448.297 1.69897 0.0831699 0
M  V30 4834 O 449.482 1.94052 -0.0758853 0
M  V30 4835 C 446.612 3.42914 -0.550177 0
M  V30 4836 C 445.566 3.98244 -1.56799 0
M  V30 4837 C 444.892 5.25568 -0.984013 0
M  V30 4838 C 446.192 4.30752 -2.95381 0
M  V30 4839 H 447.886 2.3013 -1.91521 0
M  V30 4840 H 445.432 1.10592 -0.92225 0
M  V30 4841 H 447.385 4.19653 -0.383305 0
M  V30 4842 H 446.109 3.24014 0.41015 0
M  V30 4843 H 444.768 3.23621 -1.72236 0
M  V30 4844 H 444.416 5.02998 -0.0155216 0
M  V30 4845 H 444.116 5.63551 -1.66384 0
M  V30 4846 H 445.64 6.04955 -0.828378 0
M  V30 4847 H 447.054 4.98349 -2.8341 0
M  V30 4848 H 445.451 4.79869 -3.60341 0
M  V30 4849 H 446.521 3.39192 -3.46521 0
M  V30 4850 N 447.864 1.01787 1.20321 0
M  V30 4851 C 448.812 0.58254 2.25187 0
M  V30 4852 C 449.806 -0.379359 1.65098 0
M  V30 4853 O 451.012 -0.249142 1.78267 0
M  V30 4854 H 447.387 0.170078 0.732514 0
M  V30 4855 H 449.358 1.47788 2.59232 0
M  V30 4856 C 448.107 -0.0620885 3.47645 0
M  V30 4857 H 447.43 0.669069 3.94162 0
M  V30 4858 H 448.87 -0.329784 4.22716 0
M  V30 4859 C 447.329 -1.3053 3.10586 0
M  V30 4860 O 447.859 -2.39848 3.22236 0
M  V30 4861 N 446.065 -1.18988 2.65123 0
M  V30 4862 H 445.612 -0.300341 2.55843 0
M  V30 4863 H 445.57 -2.02267 2.40698 0
M  V30 4864 N 449.342 -1.36122 0.79427 0
M  V30 4865 C 450.305 -2.28309 0.201889 0
M  V30 4866 C 451.305 -1.49041 -0.603603 0
M  V30 4867 O 452.495 -1.68964 -0.423888 0
M  V30 4868 C 449.627 -3.3321 -0.719978 0
M  V30 4869 H 450.82 -2.82208 1.01481 0
M  V30 4870 H 448.373 -1.45768 0.564037 0
M  V30 4871 H 449.108 -2.84475 -1.55706 0
M  V30 4872 H 448.893 -3.91835 -0.144266 0
M  V30 4873 H 450.383 -4.02044 -1.12916 0
M  V30 4874 N 450.82 -0.546701 -1.47814 0
M  V30 4875 C 451.767 0.206854 -2.29871 0
M  V30 4876 C 452.737 0.918235 -1.38411 0
M  V30 4877 O 453.922 0.915991 -1.67375 0
M  V30 4878 C 451.062 1.23746 -3.22151 0
M  V30 4879 C 450.175 0.533216 -4.28697 0
M  V30 4880 C 449.31 1.5482 -5.08138 0
M  V30 4881 C 448.349 0.828347 -6.06469 0
M  V30 4882 N 447.486 1.78966 -6.78908 0
M  V30 4883 H 452.326 -0.499037 -2.93792 0
M  V30 4884 H 449.863 -0.25793 -1.44821 0
M  V30 4885 H 451.821 1.84746 -3.74065 0
M  V30 4886 H 450.451 1.91151 -2.60117 0
M  V30 4887 H 449.503 -0.191089 -3.7992 0
M  V30 4888 H 450.815 -0.0311987 -4.9879 0
M  V30 4889 H 449.969 2.23202 -5.6415 0
M  V30 4890 H 448.708 2.14652 -4.37922 0
M  V30 4891 H 447.713 0.130539 -5.49645 0
M  V30 4892 H 448.938 0.235907 -6.7869 0
M  V30 4893 H 446.884 2.37675 -6.1143 0
M  V30 4894 H 446.801 1.27712 -7.45135 0
M  V30 4895 H 448.069 2.46496 -7.395 0
M  V30 4896 N 452.299 1.55045 -0.282633 0
M  V30 4897 C 453.524 2.04628 0.337977 0
M  V30 4898 C 453.949 1.15937 1.48123 0
M  V30 4899 O 453.307 0.159532 1.80597 0
M  V30 4900 C 453.355 3.51854 0.78936 0
M  V30 4901 O 452.459 3.66236 1.89592 0
M  V30 4902 H 451.8 0.660434 0.0687261 0
M  V30 4903 H 454.33 2.00261 -0.419124 0
M  V30 4904 H 454.34 3.93361 1.08311 0
M  V30 4905 H 453.015 4.15873 -0.0470419 0
M  V30 4906 H 451.592 3.36633 1.60413 0
M  V30 4907 N 453.777 0.010035 1.57597 0
M  V30 4908 C 455.026 -0.671945 1.90178 0
M  V30 4909 C 455.339 -1.74376 0.886131 0
M  V30 4910 O 456.545 -2.48107 1.10252 0
M  V30 4911 C 455.001 -1.24636 3.3763 0
M  V30 4912 C 454.609 -0.208838 4.47513 0
M  V30 4913 C 456.353 -1.90595 3.79307 0
M  V30 4914 C 454.26 -0.793814 5.86048 0
M  V30 4915 H 453.19 -0.25474 0.709665 0
M  V30 4916 H 455.841 0.0722206 1.83358 0
M  V30 4917 H 454.223 -2.04152 3.3932 0
M  V30 4918 H 455.397 0.562463 4.57354 0
M  V30 4919 H 453.712 0.350889 4.14919 0
M  V30 4920 H 456.309 -2.35284 4.80151 0
M  V30 4921 H 456.652 -2.74074 3.13352 0
M  V30 4922 H 457.185 -1.17798 3.79958 0
M  V30 4923 H 453.924 0.00240855 6.555 0
M  V30 4924 H 453.444 -1.53404 5.79851 0
M  V30 4925 H 455.123 -1.2894 6.34022 0
M  V30 4926 N 455.255 -1.55392 -0.262866 0
M  V30 4927 C 456.671 -1.47459 -0.610582 0
M  V30 4928 C 456.871 -0.697031 -1.8906 0
M  V30 4929 O 455.927 -0.219952 -2.5154 0
M  V30 4930 C 457.24 -2.91751 -0.728131 0
M  V30 4931 C 458.788 -3.02027 -0.821517 0
M  V30 4932 C 459.263 -4.47594 -0.97076 0
M  V30 4933 N 460.754 -4.51465 -1.03603 0
M  V30 4934 C 461.489 -5.61326 -1.17049 0
M  V30 4935 N 460.985 -6.81032 -1.2715 0
M  V30 4936 N 462.778 -5.49089 -1.20239 0
M  V30 4937 H 454.929 -2.04395 0.577632 0
M  V30 4938 H 457.192 -0.927287 0.197086 0
M  V30 4939 H 456.898 -3.51413 0.142132 0
M  V30 4940 H 456.772 -3.4134 -1.6052 0
M  V30 4941 H 459.159 -2.42456 -1.68224 0
M  V30 4942 H 459.24 -2.55674 0.0803688 0
M  V30 4943 H 458.884 -5.07771 -0.114655 0
M  V30 4944 H 458.814 -4.91613 -1.88745 0
M  V30 4945 H 461.305 -3.6524 -0.96996 0
M  V30 4946 H 461.618 -7.60511 -1.37271 0
M  V30 4947 H 459.963 -6.83824 -1.24136 0
M  V30 4948 H 463.154 -4.54507 -1.11985 0
M  V30 4949 H 463.327 -6.34749 -1.30373 0
M  V30 4950 N 456.733 0.527833 -1.48498 0
M  V30 4951 C 457.973 1.29401 -1.58224 0
M  V30 4952 C 458.337 1.90348 -0.251327 0
M  V30 4953 O 459.538 2.67868 -0.223588 0
M  V30 4954 C 457.809 2.35266 -2.69044 0
M  V30 4955 S 459.368 3.2158 -2.98549 0
M  V30 4956 H 456.186 0.440138 -0.558391 0
M  V30 4957 H 458.788 0.601079 -1.8603 0
M  V30 4958 H 457.492 1.88975 -3.64303 0
M  V30 4959 H 457.023 3.09263 -2.43146 0
M  V30 4960 H 459.038 4.35391 -2.38011 0
M  V30 4961 N 458.211 1.37122 0.776871 0
M  V30 4962 C 459.451 1.33441 1.54831 0
M  V30 4963 C 459.815 -0.0818963 1.91825 0
M  V30 4964 O 461.016 -0.24338 2.67696 0
M  V30 4965 C 459.287 2.24267 2.78279 0
M  V30 4966 S 460.846 2.38389 3.68397 0
M  V30 4967 H 457.664 0.473791 0.530135 0
M  V30 4968 H 460.266 1.7282 0.913968 0
M  V30 4969 H 458.97 3.261 2.49173 0
M  V30 4970 H 458.501 1.85953 3.46677 0
M  V30 4971 H 460.516 1.59068 4.70013 0
M  V30 4972 N 459.689 -1.00246 1.21608 0
M  V30 4973 C 460.619 -2.10921 1.00172 0
M  V30 4974 C 461.6 -1.69938 -0.0741587 0
M  V30 4975 O 462.785 -1.94009 0.0861753 0
M  V30 4976 C 459.915 -3.42618 0.568355 0
M  V30 4977 C 458.869 -3.97407 1.58909 0
M  V30 4978 C 458.195 -5.25038 1.01187 0
M  V30 4979 C 459.495 -4.2918 2.97661 0
M  V30 4980 H 461.189 -2.29112 1.92739 0
M  V30 4981 H 458.735 -1.10101 0.928102 0
M  V30 4982 H 460.688 -4.19444 0.405555 0
M  V30 4983 H 459.412 -3.24227 -0.392961 0
M  V30 4984 H 458.071 -3.22703 1.73949 0
M  V30 4985 H 457.719 -5.02982 0.0421965 0
M  V30 4986 H 457.419 -5.62661 1.6937 0
M  V30 4987 H 458.943 -6.04507 0.860448 0
M  V30 4988 H 460.357 -4.96839 2.86049 0
M  V30 4989 H 458.754 -4.77952 3.6288 0
M  V30 4990 H 459.824 -3.3735 3.48315 0
M  V30 4991 N 461.167 -1.02423 -1.1978 0
M  V30 4992 C 462.117 -0.571689 -2.20716 0
M  V30 4993 C 463.101 0.377077 -1.56419 0
M  V30 4994 O 464.293 0.198801 -1.7588 0
M  V30 4995 C 461.422 0.0808555 -3.43205 0
M  V30 4996 C 460.508 -0.890073 -4.14655 0
M  V30 4997 N 460.899 -2.05065 -4.62366 0
M  V30 4998 C 459.197 -0.71252 -4.40272 0
M  V30 4999 C 459.898 -2.66264 -5.17183 0
M  V30 5000 N 458.874 -1.94264 -5.07703 0
M  V30 5001 H 462.676 -1.45636 -2.55279 0
M  V30 5002 H 460.19 -0.890596 -1.35802 0
M  V30 5003 H 462.187 0.422654 -4.14752 0
M  V30 5004 H 460.847 0.961274 -3.10144 0
M  V30 5005 H 461.858 -2.43026 -4.57339 0
M  V30 5006 H 458.535 0.119199 -4.1733 0
M  V30 5007 H 459.925 -3.64526 -5.64421 0
M  V30 5008 O 462.684 1.31512 -0.937375 0
M  V30 5009 H 463.375 1.85319 -0.563611 0
M  V30 END ATOM
M  V30 BEGIN BOND
M  V30 END BOND
M  V30 END CTAB
M  END
$$$$
