drugbank_target|P25101 Endothelin-1 receptor (DB00559; DB00945; DB04674; DB04883; DB05290; DB05367; DB06199; DB06268; DB06403; DB06460; DB06558; DB06677; DB08932; DB12548)
 OpenBabel12092119333D

  0  0  0     0  0            999 V3000
M  V30 BEGIN CTAB
M  V30 COUNTS 6858 6940 0 0 0
M  V30 BEGIN ATOM
M  V30 1 H -0.908 1.98254 -0.117106 0
M  V30 2 N 0 1.576 0 0
M  V30 3 C 0.933 2.03868 1.02534 0
M  V30 4 C 1.911 0.928543 1.3348 0
M  V30 5 O 3.095 1.19667 1.45644 0
M  V30 6 C 0.222 2.43627 2.35294 0
M  V30 7 C -0.732 3.65373 2.2001 0
M  V30 8 S 0.101 5.13292 1.52614 0
M  V30 9 C 1.257 5.56322 2.86805 0
M  V30 10 H 1.49 2.90518 0.631377 0
M  V30 11 H -0.977 1.52953 0.210867 0
M  V30 12 H 0.981 2.67203 3.11629 0
M  V30 13 H -0.358 1.57376 2.7183 0
M  V30 14 H -1.165 3.90944 3.18086 0
M  V30 15 H -1.563 3.418 1.51819 0
M  V30 16 H 0.729 5.58782 3.83104 0
M  V30 17 H 1.672 6.56266 2.65933 0
M  V30 18 H 2.08 4.83886 2.90714 0
M  V30 19 N 1.4781 -0.272755 1.55222 0
M  V30 20 C 2.3881 -1.35918 1.91216 0
M  V30 21 C 3.4041 -1.54026 0.809436 0
M  V30 22 O 4.5801 -1.68148 1.10852 0
M  V30 23 C 1.6451 -2.69834 2.17693 0
M  V30 24 C 0.7061 -2.6047 3.41253 0
M  V30 25 C -0.0609 -3.88 3.66458 0
M  V30 26 O 0.1621 -4.88693 2.94169 0
M  V30 27 O -0.9039 -3.88189 4.59992 0
M  V30 28 H 2.9221 -1.0839 2.83699 0
M  V30 29 H 0.5071 -0.471301 1.41771 0
M  V30 30 H 2.3891 -3.49017 2.36147 0
M  V30 31 H 1.0641 -2.97148 1.28392 0
M  V30 32 H -0.0289 -1.79663 3.28134 0
M  V30 33 H 1.3041 -2.38106 4.30774 0
M  V30 34 N 2.9562 -1.48159 -0.537278 0
M  V30 35 C 4.1842 -1.59454 -1.31841 0
M  V30 36 C 4.5992 -0.252065 -1.8711 0
M  V30 37 O 3.9562 0.757621 -1.66031 0
M  V30 38 C 4.0072 -2.63546 -2.47439 0
M  V30 39 O 3.7282 -3.92583 -1.94449 0
M  V30 40 C 5.2292 -2.85212 -3.39366 0
M  V30 41 H 2.4492 -0.53785 -0.401196 0
M  V30 42 H 4.9932 -1.93932 -0.648891 0
M  V30 43 H 3.1482 -2.31946 -3.1029 0
M  V30 44 H 3.5622 -4.49629 -2.70063 0
M  V30 45 H 5.0362 -3.61863 -4.16844 0
M  V30 46 H 5.5132 -1.93765 -3.94147 0
M  V30 47 H 6.1192 -3.18086 -2.82314 0
M  V30 48 N 4.4343 0.785586 -1.36625 0
M  V30 49 C 5.3643 1.91259 -1.33949 0
M  V30 50 C 6.3453 1.68795 -0.210325 0
M  V30 51 O 7.5303 1.89854 -0.408561 0
M  V30 52 C 4.6603 3.28339 -1.13186 0
M  V30 53 C 3.6143 3.65335 -2.22967 0
M  V30 54 C 2.9403 5.00806 -1.87342 0
M  V30 55 C 4.2403 3.7352 -3.65075 0
M  V30 56 H 5.9343 1.93755 -2.28253 0
M  V30 57 H 3.4803 0.930788 -1.09874 0
M  V30 58 H 5.4333 4.06804 -1.09948 0
M  V30 59 H 4.1573 3.2624 -0.153332 0
M  V30 60 H 2.8163 2.89169 -2.25337 0
M  V30 61 H 2.4643 4.95233 -0.880545 0
M  V30 62 H 2.1643 5.26529 -2.60846 0
M  V30 63 H 3.6883 5.81687 -1.85667 0
M  V30 64 H 5.1023 4.42168 -3.64911 0
M  V30 65 H 3.4993 4.10731 -4.37516 0
M  V30 66 H 4.5693 2.74527 -3.99703 0
M  V30 67 N 5.9124 1.20967 1.01018 0
M  V30 68 C 7.1524 1.03511 1.76252 0
M  V30 69 C 7.5164 -0.42458 1.87247 0
M  V30 70 O 8.7174 -0.719508 2.58991 0
M  V30 71 C 6.9884 1.70726 3.13986 0
M  V30 72 S 8.5474 1.68458 4.05176 0
M  V30 73 H 5.3654 0.371037 0.606508 0
M  V30 74 H 7.9674 1.53628 1.20908 0
M  V30 75 H 6.6714 2.76128 3.03614 0
M  V30 76 H 6.2024 1.20767 3.74405 0
M  V30 77 H 8.2174 0.721987 4.90919 0
M  V30 78 N 7.3905 -1.2043 1.01659 0
M  V30 79 C 8.3205 -2.25466 0.607226 0
M  V30 80 C 9.3015 -1.65853 -0.377716 0
M  V30 81 O 10.4865 -1.92409 -0.263149 0
M  V30 82 C 7.6165 -3.47256 -0.0552949 0
M  V30 83 C 6.5705 -4.19462 0.850632 0
M  V30 84 C 5.8965 -5.34673 0.0538859 0
M  V30 85 C 7.1965 -4.75603 2.15868 0
M  V30 86 H 8.8905 -2.59962 1.48526 0
M  V30 87 H 6.4365 -1.2496 0.715605 0
M  V30 88 H 8.3895 -4.19917 -0.353233 0
M  V30 89 H 7.1135 -3.11924 -0.968045 0
M  V30 90 H 5.7725 -3.48667 1.13257 0
M  V30 91 H 5.4205 -4.95585 -0.860514 0
M  V30 92 H 5.1205 -5.83913 0.657192 0
M  V30 93 H 6.6445 -6.10138 -0.237598 0
M  V30 94 H 8.0585 -5.40083 1.92311 0
M  V30 95 H 6.4555 -5.3528 2.71284 0
M  V30 96 H 7.5255 -3.94346 2.82169 0
M  V30 97 N 8.8686 -0.792821 -1.36206 0
M  V30 98 C 10.2846 -0.474903 -1.52371 0
M  V30 99 C 10.4846 1.00622 -1.74578 0
M  V30 100 O 9.5406 1.79162 -1.77924 0
M  V30 101 C 10.8536 -1.3083 -2.70747 0
M  V30 102 C 12.4016 -1.30234 -2.84619 0
M  V30 103 C 12.8766 -2.11956 -4.06004 0
M  V30 104 N 14.3676 -2.09419 -4.13156 0
M  V30 105 C 15.1026 -2.69419 -5.06163 0
M  V30 106 N 14.5986 -3.3829 -6.04592 0
M  V30 107 N 16.3916 -2.59134 -4.98804 0
M  V30 108 H 8.5426 -1.75222 -1.20046 0
M  V30 109 H 10.8056 -0.745024 -0.586211 0
M  V30 110 H 10.5116 -2.35881 -2.6087 0
M  V30 111 H 10.3856 -0.95196 -3.6499 0
M  V30 112 H 12.7726 -0.259748 -2.93955 0
M  V30 113 H 12.8536 -1.69847 -1.91274 0
M  V30 114 H 12.4976 -3.16248 -3.97429 0
M  V30 115 H 12.4276 -1.69711 -4.98503 0
M  V30 116 H 14.9186 -1.59297 -3.42685 0
M  V30 117 H 15.2316 -3.81394 -6.7213 0
M  V30 118 H 13.5766 -3.42393 -6.04807 0
M  V30 119 H 16.7676 -2.04927 -4.20859 0
M  V30 120 H 16.9406 -3.06185 -5.711 0
M  V30 121 N 10.3467 1.47872 -0.545128 0
M  V30 122 C 11.3097 2.28337 0.198717 0
M  V30 123 C 12.3097 1.36255 0.853888 0
M  V30 124 O 13.4997 1.59003 0.711606 0
M  V30 125 C 10.6317 3.15585 1.28915 0
M  V30 126 H 11.8247 2.95567 -0.507941 0
M  V30 127 H 9.3777 1.53362 -0.301616 0
M  V30 128 H 10.1127 2.53019 2.02859 0
M  V30 129 H 9.8977 3.83337 0.824309 0
M  V30 130 H 11.3877 3.76243 1.81194 0
M  V30 131 N 11.8248 0.280983 1.55075 0
M  V30 132 C 13.0498 -0.340154 2.04592 0
M  V30 133 C 13.4748 -1.48246 1.15779 0
M  V30 134 O 12.8328 -1.80614 0.15761 0
M  V30 135 C 12.8808 -0.793104 3.5177 0
M  V30 136 O 11.9848 -1.89981 3.66034 0
M  V30 137 H 11.3258 -0.0694289 0.66036 0
M  V30 138 H 13.8558 0.416993 2.00306 0
M  V30 139 H 13.8658 -1.08729 3.93245 0
M  V30 140 H 12.5408 0.0426163 4.15878 0
M  V30 141 H 11.1178 -1.60771 3.36463 0
M  V30 142 N 13.3029 -1.57598 0.00835791 0
M  V30 143 C 14.5499 -1.90928 -0.674732 0
M  V30 144 C 14.8779 -0.88277 -1.73313 0
M  V30 145 O 14.1329 0.111294 -1.95383 0
M  V30 146 C 14.4319 -3.3101 -1.34787 0
M  V30 147 C 14.0979 -4.48922 -0.421861 0
M  V30 148 C 12.7599 -4.8091 -0.166927 0
M  V30 149 C 15.1119 -5.20755 0.215211 0
M  V30 150 C 12.4399 -5.821 0.733232 0
M  V30 151 C 14.7919 -6.22905 1.1033 0
M  V30 152 C 13.4559 -6.53346 1.36733 0
M  V30 153 H 12.7259 -0.698656 -0.246902 0
M  V30 154 H 15.3729 -1.91387 0.0656779 0
M  V30 155 H 13.6779 -3.26714 -2.16253 0
M  V30 156 H 15.3749 -3.54061 -1.8826 0
M  V30 157 H 11.9649 -4.23934 -0.630729 0
M  V30 158 H 16.1489 -4.9629 0.0312829 0
M  V30 159 H 11.4049 -6.04042 0.945712 0
M  V30 160 H 15.5789 -6.77694 1.60325 0
M  V30 161 H 13.2059 -7.31573 2.06652 0
M  V30 162 N 14.781 0.264519 -1.55364 0
M  V30 163 C 16.027 0.992314 -1.77552 0
M  V30 164 C 16.382 1.83626 -0.574379 0
M  V30 165 O 15.675 1.86648 0.432782 0
M  V30 166 C 15.869 1.9004 -3.02687 0
M  V30 167 C 15.698 1.14583 -4.34857 0
M  V30 168 C 14.468 0.858068 -4.97961 0
M  V30 169 C 16.666 0.532069 -5.1154 0
M  V30 170 N 14.648 0.0775974 -6.13851 0
M  V30 171 C 16.019 -0.113823 -6.19896 0
M  V30 172 C 18.074 0.440763 -4.95945 0
M  V30 173 C 16.777 -0.842231 -7.14352 0
M  V30 174 C 18.803 -0.274072 -5.90765 0
M  V30 175 C 18.165 -0.90867 -6.98515 0
M  V30 176 H 14.264 0.344811 -0.701875 0
M  V30 177 H 16.848 0.267141 -1.92859 0
M  V30 178 H 15.019 2.59775 -2.88741 0
M  V30 179 H 16.751 2.56243 -3.13243 0
M  V30 180 H 13.506 1.16547 -4.59036 0
M  V30 181 H 13.93 -0.300216 -6.76334 0
M  V30 182 H 18.572 0.917064 -4.12735 0
M  V30 183 H 16.29 -1.33019 -7.97077 0
M  V30 184 H 19.876 -0.345151 -5.80775 0
M  V30 185 H 18.756 -1.45299 -7.70622 0
M  V30 186 N 16.2591 1.48442 0.529413 0
M  V30 187 C 17.1891 1.65902 1.64313 0
M  V30 188 C 18.1701 0.507897 1.6234 0
M  V30 189 O 19.3551 0.740503 1.79528 0
M  V30 190 C 16.4851 1.69911 3.02898 0
M  V30 191 C 15.4391 2.8453 3.19729 0
M  V30 192 C 14.7651 2.73629 4.59381 0
M  V30 193 C 16.0651 4.25821 3.02447 0
M  V30 194 H 17.7591 2.5914 1.49955 0
M  V30 195 H 15.3051 1.24709 0.719982 0
M  V30 196 H 17.2581 1.80715 3.80684 0
M  V30 197 H 15.9821 0.732524 3.18279 0
M  V30 198 H 14.6411 2.73283 2.44361 0
M  V30 199 H 14.2891 1.74938 4.71599 0
M  V30 200 H 13.9891 3.50541 4.71588 0
M  V30 201 H 15.5131 2.86401 5.39265 0
M  V30 202 H 16.9271 4.37898 3.70024 0
M  V30 203 H 15.3241 5.03735 3.26146 0
M  V30 204 H 16.3941 4.42244 1.98867 0
M  V30 205 N 17.7372 -0.778329 1.37039 0
M  V30 206 C 18.7002 -1.87301 1.32102 0
M  V30 207 C 19.7002 -1.59198 0.226405 0
M  V30 208 O 20.8902 -1.67403 0.481861 0
M  V30 209 C 18.0222 -3.24309 1.05055 0
M  V30 210 H 19.2152 -1.93093 2.29467 0
M  V30 211 H 16.7682 -0.977358 1.21973 0
M  V30 212 H 17.5032 -3.24196 0.0819373 0
M  V30 213 H 17.2882 -3.46098 1.84279 0
M  V30 214 H 18.7782 -4.04382 1.04234 0
M  V30 215 N 19.2153 -1.21501 -1.00376 0
M  V30 216 C 20.1453 -0.999478 -2.11028 0
M  V30 217 C 21.1263 0.0759671 -1.6993 0
M  V30 218 O 22.3113 -0.0841106 -1.94018 0
M  V30 219 C 19.4413 -0.564709 -3.42678 0
M  V30 220 C 18.3953 -1.58486 -3.97576 0
M  V30 221 C 17.7213 -1.00628 -5.25146 0
M  V30 222 C 19.0213 -2.97204 -4.29496 0
M  V30 223 H 20.7153 -1.92495 -2.29317 0
M  V30 224 H 18.2613 -0.92693 -1.102 0
M  V30 225 H 20.2143 -0.401091 -4.19487 0
M  V30 226 H 18.9383 0.396411 -3.24185 0
M  V30 227 H 17.5973 -1.73606 -3.22888 0
M  V30 228 H 17.2453 -0.0368439 -5.02987 0
M  V30 229 H 16.9453 -1.68771 -5.62841 0
M  V30 230 H 18.4693 -0.854015 -6.04598 0
M  V30 231 H 19.8833 -2.8552 -4.97143 0
M  V30 232 H 18.2803 -3.62372 -4.78338 0
M  V30 233 H 19.3503 -3.47956 -3.3772 0
M  V30 234 N 20.6934 1.19889 -1.02296 0
M  V30 235 C 21.9394 1.89701 -0.717033 0
M  V30 236 C 22.2724 1.7905 0.751989 0
M  V30 237 O 21.5474 1.17891 1.547 0
M  V30 238 C 21.8304 3.40858 -1.16136 0
M  V30 239 C 21.6834 3.60411 -2.69117 0
M  V30 240 C 23.0024 4.33876 -0.737549 0
M  V30 241 H 20.1214 0.688874 -0.261957 0
M  V30 242 H 22.7634 1.41154 -1.27183 0
M  V30 243 H 20.9134 3.82335 -0.689342 0
M  V30 244 H 22.5854 3.28145 -3.2422 0
M  V30 245 H 20.8284 3.03665 -3.0979 0
M  V30 246 H 21.4994 4.66396 -2.95261 0
M  V30 247 H 23.9754 4.00081 -1.14344 0
M  V30 248 H 22.8514 5.38242 -1.0764 0
M  V30 249 H 23.1124 4.40628 0.360436 0
M  V30 250 N 22.1715 0.800033 1.35784 0
M  V30 251 C 23.4195 0.376597 1.9856 0
M  V30 252 C 23.7405 -1.05812 1.63795 0
M  V30 253 O 23.0105 -1.73103 0.917171 0
M  V30 254 H 21.5905 0.136261 0.734467 0
M  V30 255 H 24.2525 1.02442 1.65806 0
M  V30 256 H 23.3485 0.477002 3.08433 0
M  V30 257 N 23.6496 -1.47581 0.552962 0
M  V30 258 C 24.8896 -2.04379 0.0296245 0
M  V30 259 C 25.2536 -1.4185 -1.29393 0
M  V30 260 O 26.4546 -1.89669 -1.90471 0
M  V30 261 C 24.7256 -3.57339 -0.0661371 0
M  V30 262 S 26.2846 -4.35511 -0.536213 0
M  V30 263 H 23.1026 -0.710625 0.0230991 0
M  V30 264 H 25.7046 -1.81005 0.738734 0
M  V30 265 H 24.4086 -4.00374 0.901596 0
M  V30 266 H 23.9396 -3.85202 -0.798931 0
M  V30 267 H 25.9546 -4.6253 -1.79668 0
M  V30 268 N 25.1277 -0.289203 -1.54924 0
M  V30 269 C 26.3737 0.323998 -2.00195 0
M  V30 270 C 26.7067 1.54441 -1.17735 0
M  V30 271 O 25.9817 1.92875 -0.250878 0
M  V30 272 C 26.2647 0.692276 -3.53383 0
M  V30 273 C 26.1177 -0.536457 -4.46589 0
M  V30 274 C 27.4367 1.52335 -4.12895 0
M  V30 275 H 24.5557 0.116289 -0.727768 0
M  V30 276 H 27.1977 -0.398954 -1.85764 0
M  V30 277 H 25.3477 1.30822 -3.65811 0
M  V30 278 H 27.0197 -1.17499 -4.46085 0
M  V30 279 H 25.2627 -1.17192 -4.1767 0
M  V30 280 H 25.9337 -0.234806 -5.515 0
M  V30 281 H 28.4097 1.00302 -4.0383 0
M  V30 282 H 27.2857 1.74982 -5.20262 0
M  V30 283 H 27.5467 2.50886 -3.64018 0
M  V30 284 N 26.6058 1.57591 -0.0167156 0
M  V30 285 C 27.8548 1.90461 0.663877 0
M  V30 286 C 28.1678 0.893515 1.73999 0
M  V30 287 O 29.3738 1.11302 2.47637 0
M  V30 288 C 27.8298 3.38155 1.23204 0
M  V30 289 C 27.4378 4.47597 0.189866 0
M  V30 290 C 29.1818 3.80111 1.88986 0
M  V30 291 C 27.0888 5.86379 0.768964 0
M  V30 292 H 26.0188 0.710738 0.251729 0
M  V30 293 H 28.6698 1.83326 -0.0799926 0
M  V30 294 H 27.0518 3.40182 2.02712 0
M  V30 295 H 28.2258 4.57112 -0.581846 0
M  V30 296 H 26.5408 4.14766 -0.368475 0
M  V30 297 H 29.1378 4.81145 2.33247 0
M  V30 298 H 29.4808 3.14511 2.72743 0
M  V30 299 H 30.0138 3.80454 1.16187 0
M  V30 300 H 26.7528 6.55493 -0.0301957 0
M  V30 301 H 26.2728 5.80496 1.50945 0
M  V30 302 H 27.9518 6.34563 1.26251 0
M  V30 303 N 28.0839 -0.256276 1.55502 0
M  V30 304 C 29.3089 -1.00766 1.81276 0
M  V30 305 C 29.7339 -1.78524 0.59252 0
M  V30 306 O 29.0919 -1.75413 -0.45827 0
M  V30 307 C 29.1399 -1.92869 3.04687 0
M  V30 308 O 28.2439 -3.019 2.80945 0
M  V30 309 H 27.5849 -0.287224 0.598664 0
M  V30 310 H 30.1149 -0.280109 2.02674 0
M  V30 311 H 30.1249 -2.34511 3.33869 0
M  V30 312 H 28.7999 -1.35689 3.93143 0
M  V30 313 H 27.3769 -2.64454 2.62904 0
M  V30 314 N 29.562 -1.4872 -0.521534 0
M  V30 315 C 30.839 -1.4766 -1.2828 0
M  V30 316 C 31.219 -0.19292 -2.10217 0
M  V30 317 O 30.567 0.825193 -2.13079 0
M  V30 318 C 30.777 -2.74358 -2.15705 0
M  V30 319 C 32.125 -3.23028 -2.75569 0
M  V30 320 O 33.149 -2.75333 -2.25987 0
M  V30 321 O 32.008 -4.0604 -3.65778 0
M  V30 322 H 29.102 -0.590085 -0.579421 0
M  V30 323 H 31.648 -1.60963 -0.537492 0
M  V30 324 H 30.42 -3.59292 -1.54999 0
M  V30 325 H 30.043 -2.63816 -2.97467 0
M  V30 326 N 31.0401 0.771051 -1.3745 0
M  V30 327 C 31.9881 1.90574 -1.33358 0
M  V30 328 C 32.9821 1.67936 -0.22224 0
M  V30 329 O 34.1881 1.75717 -0.390304 0
M  V30 330 H 30.5631 0.626714 -0.415612 0
M  V30 331 H 32.5341 1.91142 -2.29144 0
M  V30 332 C 31.2831 3.27845 -1.15813 0
M  V30 333 H 30.6061 3.45842 -2.00583 0
M  V30 334 H 32.0461 4.07538 -1.17 0
M  V30 335 C 30.5051 3.36625 0.136165 0
M  V30 336 O 31.0351 3.85785 1.11949 0
M  V30 337 N 29.2411 2.89997 0.187099 0
M  V30 338 H 28.7881 2.50182 -0.613753 0
M  V30 339 H 28.7461 2.96252 1.05272 0
M  V30 340 N 32.5182 1.22032 0.997298 0
M  V30 341 C 33.9292 1.0397 1.55071 0
M  V30 342 C 34.2802 -0.398192 1.92117 0
M  V30 343 O 33.4052 -1.28254 1.74298 0
M  V30 344 C 34.0002 1.88109 2.81781 0
M  V30 345 C 32.5592 1.74357 3.33581 0
M  V30 346 C 31.7062 1.84846 2.06706 0
M  V30 347 H 34.6572 1.35941 0.818883 0
M  V30 348 H 34.6782 1.39589 3.53971 0
M  V30 349 H 34.1902 2.92754 2.54787 0
M  V30 350 H 32.2912 0.72427 3.65493 0
M  V30 351 H 32.4042 2.56772 4.04481 0
M  V30 352 H 30.7682 1.28238 2.20062 0
M  V30 353 H 31.5512 2.91014 1.82114 0
M  V30 354 N 33.9963 -1.19345 1.0293 0
M  V30 355 C 34.9063 -2.26245 0.620515 0
M  V30 356 C 35.9223 -1.70486 -0.347928 0
M  V30 357 O 37.0983 -2.00347 -0.205704 0
M  V30 358 C 34.1633 -3.46693 -0.0218957 0
M  V30 359 C 33.2243 -4.17632 0.994102 0
M  V30 360 C 32.4573 -5.32329 0.382253 0
M  V30 361 O 32.6803 -5.64552 -0.814676 0
M  V30 362 O 31.6143 -5.91664 1.10531 0
M  V30 363 H 35.4403 -2.63453 1.51083 0
M  V30 364 H 33.0253 -1.26207 0.799513 0
M  V30 365 H 34.9073 -4.19683 -0.380072 0
M  V30 366 H 33.5823 -3.11333 -0.886209 0
M  V30 367 H 32.4893 -3.4676 1.40387 0
M  V30 368 H 33.8223 -4.56964 1.8288 0
M  V30 369 N 35.4744 -0.807222 -1.35358 0
M  V30 370 C 36.8904 -0.491038 -1.51858 0
M  V30 371 C 37.0904 0.987648 -1.75635 0
M  V30 372 O 36.1464 1.77265 -1.79815 0
M  V30 373 C 37.4594 -1.33695 -2.69344 0
M  V30 374 C 39.0074 -1.33246 -2.83222 0
M  V30 375 C 39.4824 -2.1625 -4.03733 0
M  V30 376 N 40.9734 -2.1379 -4.10911 0
M  V30 377 C 41.7084 -2.74772 -5.03277 0
M  V30 378 N 41.2044 -3.44684 -6.0097 0
M  V30 379 N 42.9974 -2.6441 -4.96028 0
M  V30 380 H 35.1484 -1.76485 -1.18181 0
M  V30 381 H 37.4114 -0.751199 -0.578276 0
M  V30 382 H 37.1174 -2.38634 -2.58354 0
M  V30 383 H 36.9914 -0.990618 -3.6396 0
M  V30 384 H 39.3784 -0.290911 -2.93663 0
M  V30 385 H 39.4594 -1.71866 -1.89461 0
M  V30 386 H 39.1034 -3.20445 -3.94052 0
M  V30 387 H 39.0334 -1.74989 -4.96675 0
M  V30 388 H 41.5244 -1.62923 -3.40976 0
M  V30 389 H 41.8374 -3.88501 -6.68047 0
M  V30 390 H 40.1824 -3.48788 -6.01142 0
M  V30 391 H 43.3734 -2.0938 -4.18662 0
M  V30 392 H 43.5464 -3.12225 -5.6782 0
M  V30 393 N 36.9525 1.47285 -0.560781 0
M  V30 394 C 38.1825 2.06555 -0.0429638 0
M  V30 395 C 38.5905 1.41339 1.25777 0
M  V30 396 O 37.9335 0.505182 1.76617 0
M  V30 397 C 37.9955 3.58827 0.219887 0
M  V30 398 C 37.6595 4.46105 -0.991944 0
M  V30 399 C 38.6565 4.84 -1.89843 0
M  V30 400 C 36.3415 4.87567 -1.20762 0
M  V30 401 C 38.3355 5.6216 -3.00425 0
M  V30 402 C 36.0225 5.65491 -2.31653 0
M  V30 403 C 37.0205 6.02699 -3.21315 0
M  V30 404 O 36.7085 6.79052 -4.30283 0
M  V30 405 H 36.4405 0.674537 -0.0444468 0
M  V30 406 H 38.9945 1.90225 -0.774818 0
M  V30 407 H 37.2245 3.73383 1.00609 0
M  V30 408 H 38.9135 4.00103 0.683522 0
M  V30 409 H 39.6795 4.52564 -1.74387 0
M  V30 410 H 35.5585 4.5807 -0.518893 0
M  V30 411 H 39.1025 5.9112 -3.70436 0
M  V30 412 H 34.9995 5.9634 -2.47081 0
M  V30 413 H 35.7675 6.9745 -4.28376 0
M  V30 414 N 38.4306 0.297415 1.54768 0
M  V30 415 C 39.6556 -0.318435 2.04941 0
M  V30 416 C 40.0806 -1.4701 1.17345 0
M  V30 417 O 39.4386 -1.80436 0.176758 0
M  V30 418 C 39.4866 -0.755749 3.52592 0
M  V30 419 O 38.5906 -1.86088 3.68028 0
M  V30 420 H 37.9316 -0.062421 0.661059 0
M  V30 421 H 40.4616 0.438215 1.99852 0
M  V30 422 H 40.4716 -1.04552 3.94376 0
M  V30 423 H 39.1466 0.0867233 4.1581 0
M  V30 424 H 37.7236 -1.57193 3.38149 0
M  V30 425 N 39.9087 -1.5758 0.0250728 0
M  V30 426 C 41.1367 -1.9593 -0.664747 0
M  V30 427 C 41.5517 -0.901352 -1.65895 0
M  V30 428 O 40.9087 0.117255 -1.82123 0
M  V30 429 C 40.9597 -3.34342 -1.37468 0
M  V30 430 O 40.6807 -4.36079 -0.420324 0
M  V30 431 C 42.1817 -3.873 -2.1567 0
M  V30 432 H 39.4017 -0.645405 -0.183557 0
M  V30 433 H 41.9457 -2.04329 0.0836372 0
M  V30 434 H 40.1007 -3.27175 -2.0745 0
M  V30 435 H 40.5147 -5.16297 -0.923991 0
M  V30 436 H 41.9887 -4.86504 -2.60803 0
M  V30 437 H 42.4657 -3.21331 -2.99405 0
M  V30 438 H 43.0717 -3.97723 -1.50654 0
M  V30 439 N 41.3868 0.248026 -1.55636 0
M  V30 440 C 42.3348 1.32683 -1.91045 0
M  V30 441 C 43.3288 1.49883 -0.789401 0
M  V30 442 O 44.5348 1.51371 -0.974007 0
M  V30 443 H 40.9098 0.444272 -0.606734 0
M  V30 444 H 42.8808 1.00085 -2.81115 0
M  V30 445 C 41.6298 2.6755 -2.22064 0
M  V30 446 H 40.9528 2.55114 -3.07826 0
M  V30 447 H 42.3928 3.41912 -2.50743 0
M  V30 448 C 40.8518 3.20556 -1.0366 0
M  V30 449 O 41.3818 4.00695 -0.284016 0
M  V30 450 N 39.5878 2.78568 -0.82753 0
M  V30 451 H 39.1348 2.1351 -1.44123 0
M  V30 452 H 39.0928 3.14378 -0.0369803 0
M  V30 453 N 42.8649 1.48995 0.513639 0
M  V30 454 C 43.7949 1.67636 1.62544 0
M  V30 455 C 44.7759 0.525087 1.61793 0
M  V30 456 O 45.9609 0.759502 1.78732 0
M  V30 457 C 43.0909 1.73114 3.01079 0
M  V30 458 C 42.0449 2.87905 3.16693 0
M  V30 459 C 41.3709 2.78486 4.56453 0
M  V30 460 C 42.6709 4.29005 2.97913 0
M  V30 461 H 44.3649 2.60716 1.47198 0
M  V30 462 H 41.9109 1.25465 0.706714 0
M  V30 463 H 43.8639 1.84742 3.78746 0
M  V30 464 H 42.5879 0.766241 3.17484 0
M  V30 465 H 41.2469 2.75859 2.41448 0
M  V30 466 H 40.8949 1.7993 4.69717 0
M  V30 467 H 40.5949 3.55523 4.67843 0
M  V30 468 H 42.1189 2.92104 5.36197 0
M  V30 469 H 43.5329 4.41798 3.65359 0
M  V30 470 H 41.9299 5.07166 3.20785 0
M  V30 471 H 42.9999 4.44329 1.94165 0
M  V30 472 N 44.343 -0.763751 1.37857 0
M  V30 473 C 45.568 -1.55805 1.36893 0
M  V30 474 C 45.993 -1.88054 -0.0416135 0
M  V30 475 O 45.351 -1.49825 -1.02089 0
M  V30 476 C 45.399 -2.84012 2.22192 0
M  V30 477 O 44.503 -3.78732 1.63204 0
M  V30 478 H 43.844 -0.471638 0.46739 0
M  V30 479 H 46.374 -0.944657 1.81487 0
M  V30 480 H 46.384 -3.33037 2.35691 0
M  V30 481 H 45.059 -2.59869 3.24716 0
M  V30 482 H 43.636 -3.37402 1.58791 0
M  V30 483 N 45.8211 -1.22559 -0.990812 0
M  V30 484 C 46.7691 -0.994798 -2.10253 0
M  V30 485 C 47.7631 0.0627798 -1.69284 0
M  V30 486 O 48.9691 -0.0898392 -1.79776 0
M  V30 487 H 45.3441 -0.304527 -0.687581 0
M  V30 488 H 47.3151 -1.93812 -2.26891 0
M  V30 489 C 46.0641 -0.591439 -3.42633 0
M  V30 490 H 45.3871 -1.3969 -3.74602 0
M  V30 491 H 46.8271 -0.469385 -4.21394 0
M  V30 492 C 45.2861 0.699232 -3.29564 0
M  V30 493 O 45.8161 1.75112 -3.61523 0
M  V30 494 N 44.0221 0.671182 -2.82743 0
M  V30 495 H 43.5691 -0.185136 -2.56934 0
M  V30 496 H 43.5271 1.53502 -2.7438 0
M  V30 497 N 47.2992 1.18797 -1.03562 0
M  V30 498 C 48.2492 2.20161 -0.592724 0
M  V30 499 C 49.2332 1.56772 0.362133 0
M  V30 500 O 50.4252 1.76062 0.182009 0
M  V30 501 C 47.5542 3.43266 0.0481024 0
M  V30 502 C 46.6402 4.13786 -0.9296 0
M  V30 503 N 47.0312 4.60388 -2.09467 0
M  V30 504 C 45.3292 4.39572 -0.754499 0
M  V30 505 C 46.0302 5.14619 -2.71187 0
M  V30 506 N 45.0062 5.05826 -1.991 0
M  V30 507 H 48.8082 2.53877 -1.48066 0
M  V30 508 H 46.3222 1.34946 -0.903514 0
M  V30 509 H 48.3192 4.15136 0.383058 0
M  V30 510 H 46.9792 3.11048 0.931636 0
M  V30 511 H 47.9902 4.54999 -2.47379 0
M  V30 512 H 44.6672 4.17425 0.0793713 0
M  V30 513 H 46.0572 5.60917 -3.69895 0
M  V30 514 N 48.7773 0.814389 1.34928 0
M  V30 515 C 50.0233 0.399013 1.98836 0
M  V30 516 C 50.3563 -1.03314 1.64438 0
M  V30 517 O 49.6313 -1.71811 0.911659 0
M  V30 518 C 49.9143 0.591629 3.55207 0
M  V30 519 C 49.7673 2.06928 3.99376 0
M  V30 520 C 51.0863 0.022199 4.40094 0
M  V30 521 H 48.2053 0.146451 0.722303 0
M  V30 522 H 50.8473 1.02537 1.59957 0
M  V30 523 H 48.9973 0.0584441 3.88456 0
M  V30 524 H 50.6693 2.66544 3.76499 0
M  V30 525 H 48.9123 2.56287 3.49999 0
M  V30 526 H 49.5833 2.1549 5.08201 0
M  V30 527 H 52.0593 0.477643 4.13349 0
M  V30 528 H 50.9353 0.186832 5.48582 0
M  V30 529 H 51.1963 -1.07215 4.28902 0
M  V30 530 N 50.2554 -1.46986 0.568584 0
M  V30 531 C 51.5324 -1.95592 -0.0174074 0
M  V30 532 C 51.9124 -1.51124 -1.47393 0
M  V30 533 O 51.2604 -0.755329 -2.15655 0
M  V30 534 C 51.4704 -3.48719 0.139913 0
M  V30 535 C 52.8184 -4.246 0.000426376 0
M  V30 536 O 53.8424 -3.56135 0.0680316 0
M  V30 537 O 52.7014 -5.46302 -0.146988 0
M  V30 538 H 49.7954 -0.82498 -0.0577599 0
M  V30 539 H 52.3414 -1.57335 0.635909 0
M  V30 540 H 51.1134 -3.73927 1.15301 0
M  V30 541 H 50.7364 -3.93771 -0.550491 0
M  V30 542 N 51.7335 -0.305618 -1.54608 0
M  V30 543 C 53.0105 0.355652 -1.92339 0
M  V30 544 C 53.3905 1.71324 -1.23335 0
M  V30 545 O 52.7385 2.25473 -0.370702 0
M  V30 546 C 52.9485 0.46572 -3.45879 0
M  V30 547 C 54.2965 0.734426 -4.182 0
M  V30 548 O 55.3205 0.54935 -3.51938 0
M  V30 549 O 54.1795 1.09024 -5.35515 0
M  V30 550 H 51.2735 0.199666 -0.802535 0
M  V30 551 H 53.8195 -0.354017 -1.65966 0
M  V30 552 H 52.5915 -0.488461 -3.88239 0
M  V30 553 H 52.2145 1.22367 -3.78301 0
M  V30 554 N 53.2116 1.57565 -0.0334293 0
M  V30 555 C 54.4586 1.91978 0.644272 0
M  V30 556 C 54.7866 0.910231 1.71887 0
M  V30 557 O 54.0416 -0.0801961 1.95536 0
M  V30 558 C 54.3406 3.33112 1.29504 0
M  V30 559 C 54.0066 4.49537 0.350388 0
M  V30 560 C 52.6686 4.81115 0.0903974 0
M  V30 561 C 55.0206 5.20347 -0.298032 0
M  V30 562 C 52.3486 5.8086 -0.825746 0
M  V30 563 C 54.7006 6.2107 -1.20226 0
M  V30 564 C 53.3646 6.51088 -1.4711 0
M  V30 565 H 52.6346 0.702496 0.235756 0
M  V30 566 H 55.2816 1.91259 -0.0961176 0
M  V30 567 H 53.5866 3.30113 2.11028 0
M  V30 568 H 55.2836 3.57011 1.82603 0
M  V30 569 H 51.8736 4.24883 0.563205 0
M  V30 570 H 56.0576 4.96178 -0.110234 0
M  V30 571 H 51.3136 6.02461 -1.04169 0
M  V30 572 H 55.4876 6.75057 -1.71086 0
M  V30 573 H 53.1146 7.28193 -2.18264 0
M  V30 574 N 54.6897 -0.239769 1.55765 0
M  V30 575 C 55.9177 -0.98417 1.81994 0
M  V30 576 C 56.3327 -1.7867 0.610124 0
M  V30 577 O 55.6897 -1.77571 -0.421271 0
M  V30 578 C 55.7407 -1.91635 3.06526 0
M  V30 579 O 55.4617 -1.14629 4.22838 0
M  V30 580 C 56.9627 -2.77616 3.45607 0
M  V30 581 H 54.1827 -0.28928 0.605441 0
M  V30 582 H 56.7267 -0.260499 2.02834 0
M  V30 583 H 54.8817 -2.5942 2.87715 0
M  V30 584 H 55.2957 -1.77745 4.93464 0
M  V30 585 H 56.7697 -3.38759 4.35828 0
M  V30 586 H 57.2467 -3.4909 2.6652 0
M  V30 587 H 57.8527 -2.15271 3.66795 0
M  V30 588 N 56.1678 -1.49265 -0.50573 0
M  V30 589 C 57.3958 -1.62215 -1.28429 0
M  V30 590 C 57.8108 -0.291697 -1.86533 0
M  V30 591 O 57.1678 0.722233 -1.67601 0
M  V30 592 C 57.2188 -2.68735 -2.41793 0
M  V30 593 O 56.9398 -3.96619 -1.86078 0
M  V30 594 C 58.4408 -2.92346 -3.3324 0
M  V30 595 H 55.6608 -0.546239 -0.389697 0
M  V30 596 H 58.2048 -1.95265 -0.607609 0
M  V30 597 H 56.3598 -2.38476 -3.053 0
M  V30 598 H 56.7738 -4.55256 -2.60465 0
M  V30 599 H 58.2478 -3.70623 -4.09075 0
M  V30 600 H 58.7248 -2.02081 -3.89948 0
M  V30 601 H 59.3308 -3.24003 -2.75503 0
M  V30 602 N 57.6459 0.756429 -1.3826 0
M  V30 603 C 58.8929 1.51547 -1.34312 0
M  V30 604 C 59.2209 1.94382 0.0677144 0
M  V30 605 O 58.4759 1.65514 1.04421 0
M  V30 606 C 58.7749 2.78313 -2.24224 0
M  V30 607 C 58.4409 2.54455 -3.72241 0
M  V30 608 C 57.1029 2.47657 -4.12576 0
M  V30 609 C 59.4549 2.3354 -4.65949 0
M  V30 610 C 56.7829 2.17956 -5.44713 0
M  V30 611 C 59.1349 2.05359 -5.9834 0
M  V30 612 C 57.7989 1.97016 -6.37762 0
M  V30 613 H 57.0689 0.55455 -0.491482 0
M  V30 614 H 59.7159 0.870039 -1.70595 0
M  V30 615 H 58.0209 3.47492 -1.80987 0
M  V30 616 H 59.7179 3.36259 -2.18474 0
M  V30 617 H 56.3079 2.60616 -3.40261 0
M  V30 618 H 60.4919 2.37772 -4.35635 0
M  V30 619 H 55.7479 2.10003 -5.74203 0
M  V30 620 H 59.9219 1.88179 -6.70494 0
M  V30 621 H 57.5489 1.73766 -7.40074 0
M  V30 622 N 59.124 1.23083 0.984299 0
M  V30 623 C 60.54 0.992637 1.24975 0
M  V30 624 C 60.74 -0.308618 1.99123 0
M  V30 625 O 59.796 -1.02905 2.30579 0
M  V30 626 C 61.109 2.19698 2.05312 0
M  V30 627 C 62.657 2.24147 2.18465 0
M  V30 628 C 63.132 3.44157 3.02192 0
M  V30 629 N 64.623 3.44372 3.09777 0
M  V30 630 C 65.358 4.33886 3.74874 0
M  V30 631 N 64.854 5.3363 4.41827 0
M  V30 632 N 66.647 4.21639 3.71721 0
M  V30 633 H 58.798 2.06731 0.487453 0
M  V30 634 H 61.061 0.906339 0.277944 0
M  V30 635 H 60.767 3.1411 1.58201 0
M  V30 636 H 60.641 2.20465 3.06064 0
M  V30 637 H 63.028 1.30277 2.64786 0
M  V30 638 H 63.109 2.27415 1.17115 0
M  V30 639 H 62.753 4.38332 2.56568 0
M  V30 640 H 62.683 3.3813 4.03702 0
M  V30 641 H 65.174 2.72201 2.62135 0
M  V30 642 H 65.487 5.98196 4.89266 0
M  V30 643 H 63.832 5.37534 4.40548 0
M  V30 644 H 67.023 3.42962 3.18582 0
M  V30 645 H 67.196 4.91604 4.22173 0
M  V30 646 N 60.6021 -1.18246 1.0419 0
M  V30 647 C 61.8501 -1.87886 0.744543 0
M  V30 648 C 62.1711 -1.8082 -0.730006 0
M  V30 649 O 61.4411 -1.22736 -1.52685 0
M  V30 650 H 60.0211 -0.695556 0.272417 0
M  V30 651 H 62.6831 -1.43494 1.31892 0
M  V30 652 H 61.7791 -2.9389 1.05049 0
M  V30 653 N 62.0802 -0.821533 -1.34494 0
M  V30 654 C 63.3082 -0.421884 -2.02553 0
M  V30 655 C 63.7232 0.971745 -1.61872 0
M  V30 656 O 63.0802 1.62864 -0.823496 0
M  V30 657 C 63.1312 -0.51285 -3.57844 0
M  V30 658 O 62.8522 -1.85155 -3.97051 0
M  V30 659 C 64.3532 -0.107921 -4.43169 0
M  V30 660 H 61.5732 -0.169482 -0.649243 0
M  V30 661 H 64.1172 -1.1093 -1.71798 0
M  V30 662 H 62.2722 0.126474 -3.87193 0
M  V30 663 H 62.6862 -1.82482 -4.91732 0
M  V30 664 H 64.1602 -0.222657 -5.51551 0
M  V30 665 H 64.6372 0.948401 -4.28838 0
M  V30 666 H 65.2432 -0.720989 -4.19144 0
M  V30 667 N 63.5583 1.46682 -0.576371 0
M  V30 668 C 64.4683 2.34032 0.163141 0
M  V30 669 C 65.4843 1.49367 0.892501 0
M  V30 670 O 66.6603 1.82252 0.857106 0
M  V30 671 C 63.7253 3.26435 1.16795 0
M  V30 672 C 62.7863 4.26998 0.443944 0
M  V30 673 C 62.0193 5.14986 1.40088 0
M  V30 674 O 62.2423 5.05785 2.637 0
M  V30 675 O 61.1763 5.94906 0.914917 0
M  V30 676 H 65.0023 2.98607 -0.55388 0
M  V30 677 H 62.5873 1.45554 -0.336821 0
M  V30 678 H 64.4693 3.83459 1.74748 0
M  V30 679 H 63.1443 2.64465 1.86655 0
M  V30 680 H 62.0513 3.7368 -0.177271 0
M  V30 681 H 63.3843 4.91736 -0.213566 0
M  V30 682 N 65.0364 0.313813 1.54444 0
M  V30 683 C 65.9664 -0.549454 2.26943 0
M  V30 684 C 66.9474 -1.12741 1.27372 0
M  V30 685 O 68.1324 -1.15436 1.56167 0
M  V30 686 C 65.2624 -1.71523 3.01989 0
M  V30 687 C 64.2164 -1.26703 4.08816 0
M  V30 688 C 63.5424 -2.51898 4.71647 0
M  V30 689 C 64.8424 -0.388962 5.2085 0
M  V30 690 H 66.5364 0.0552661 2.99349 0
M  V30 691 H 64.0824 0.0280207 1.43973 0
M  V30 692 H 66.0354 -2.32535 3.51433 0
M  V30 693 H 64.7594 -2.34639 2.27183 0
M  V30 694 H 63.4184 -0.679896 3.6024 0
M  V30 695 H 63.0664 -3.13356 3.93468 0
M  V30 696 H 62.7664 -2.22605 5.43802 0
M  V30 697 H 64.2904 -3.1369 5.23861 0
M  V30 698 H 65.7044 -0.905107 5.6611 0
M  V30 699 H 64.1014 -0.18924 5.99802 0
M  V30 700 H 65.1714 0.582699 4.81386 0
M  V30 701 N 66.5145 -1.57545 0.0417849 0
M  V30 702 C 67.7395 -1.97035 -0.647455 0
M  V30 703 C 68.1645 -0.918775 -1.64135 0
M  V30 704 O 67.5225 0.119006 -1.80909 0
M  V30 705 C 67.5705 -3.35609 -1.31905 0
M  V30 706 O 66.6745 -3.3287 -2.43457 0
M  V30 707 H 66.0155 -0.64211 -0.169086 0
M  V30 708 H 68.5455 -2.04318 0.107399 0
M  V30 709 H 68.5555 -3.72126 -1.67291 0
M  V30 710 H 67.2305 -4.11685 -0.590586 0
M  V30 711 H 65.8075 -3.08087 -2.10088 0
M  V30 712 N 67.9926 0.231505 -1.5589 0
M  V30 713 C 69.2396 0.957352 -1.78441 0
M  V30 714 C 69.5676 1.84726 -0.60882 0
M  V30 715 O 68.8226 1.91416 0.40725 0
M  V30 716 C 69.1216 1.83577 -3.0665 0
M  V30 717 C 68.7876 1.09993 -4.37278 0
M  V30 718 C 67.4496 0.896629 -4.72773 0
M  V30 719 C 69.8016 0.579558 -5.17968 0
M  V30 720 C 67.1296 0.160896 -5.86479 0
M  V30 721 C 69.4816 -0.142783 -6.32439 0
M  V30 722 C 68.1456 -0.357427 -6.66542 0
M  V30 723 H 67.4156 0.35032 -0.65296 0
M  V30 724 H 70.0626 0.226259 -1.90159 0
M  V30 725 H 68.3676 2.63441 -2.90011 0
M  V30 726 H 70.0646 2.39934 -3.21298 0
M  V30 727 H 66.6546 1.26835 -4.09403 0
M  V30 728 H 70.8386 0.724125 -4.90989 0
M  V30 729 H 66.0946 -0.0157293 -6.11398 0
M  V30 730 H 70.2686 -0.553559 -6.94196 0
M  V30 731 H 67.8956 -0.929466 -7.54497 0
M  V30 732 N 69.4707 1.49531 0.497807 0
M  V30 733 C 70.4007 1.6935 1.60757 0
M  V30 734 C 71.3817 0.542218 1.61227 0
M  V30 735 O 72.5667 0.778417 1.77917 0
M  V30 736 C 69.6967 1.76298 2.99226 0
M  V30 737 C 68.6507 2.91248 3.13622 0
M  V30 738 C 67.9767 2.83312 4.53474 0
M  V30 739 C 69.2767 4.3214 2.93346 0
M  V30 740 H 70.9707 2.62263 1.44425 0
M  V30 741 H 68.5167 1.26208 0.693367 0
M  V30 742 H 70.4697 1.88749 3.76765 0
M  V30 743 H 69.1937 0.799871 3.16654 0
M  V30 744 H 67.8527 2.78404 2.38509 0
M  V30 745 H 67.5007 1.84902 4.67782 0
M  V30 746 H 67.2007 3.60465 4.64046 0
M  V30 747 H 68.7247 2.97775 5.33069 0
M  V30 748 H 70.1387 4.45649 3.60652 0
M  V30 749 H 68.5357 5.1054 3.15387 0
M  V30 750 H 69.6057 4.46363 1.89441 0
M  V30 751 N 70.9488 -0.749086 1.3866 0
M  V30 752 C 72.1948 -1.51056 1.35314 0
M  V30 753 C 72.5278 -1.94121 -0.0553751 0
M  V30 754 O 71.8028 -1.65763 -1.01749 0
M  V30 755 C 72.0858 -2.76003 2.31288 0
M  V30 756 C 71.9388 -2.39047 3.8102 0
M  V30 757 C 73.2578 -3.78046 2.2532 0
M  V30 758 H 70.3768 -0.547972 0.492844 0
M  V30 759 H 73.0188 -0.857628 1.69543 0
M  V30 760 H 71.1688 -3.31716 2.02229 0
M  V30 761 H 72.8408 -1.89074 4.20771 0
M  V30 762 H 71.0838 -1.71449 3.98482 0
M  V30 763 H 71.7548 -3.28462 4.4364 0
M  V30 764 H 74.2308 -3.31884 2.50983 0
M  V30 765 H 73.1068 -4.63159 2.94576 0
M  V30 766 H 73.3678 -4.23957 1.25352 0
M  V30 767 N 72.4269 -1.23603 -0.977757 0
M  V30 768 C 73.6549 -1.09646 -1.75458 0
M  V30 769 C 74.0699 0.351859 -1.85492 0
M  V30 770 O 73.4269 1.24327 -1.336 0
M  V30 771 C 73.4779 -1.71895 -3.18016 0
M  V30 772 O 73.1989 -3.11063 -3.08498 0
M  V30 773 C 74.6999 -1.63415 -4.12081 0
M  V30 774 H 71.9199 -0.38359 -0.550545 0
M  V30 775 H 74.4639 -1.63507 -1.22824 0
M  V30 776 H 72.6189 -1.22061 -3.67668 0
M  V30 777 H 73.0329 -3.41305 -3.9826 0
M  V30 778 H 74.5069 -2.11669 -5.09804 0
M  V30 779 H 74.9839 -0.593462 -4.35172 0
M  V30 780 H 75.5899 -2.12628 -3.68334 0
M  V30 781 N 73.905 1.17692 -1.04816 0
M  V30 782 C 75.133 1.91786 -0.776254 0
M  V30 783 C 75.548 1.76604 0.667577 0
M  V30 784 O 74.905 1.10067 1.45573 0
M  V30 785 C 74.956 3.42967 -1.14263 0
M  V30 786 O 74.677 3.57678 -2.52978 0
M  V30 787 C 76.178 4.34144 -0.896311 0
M  V30 788 H 73.398 0.608624 -0.282519 0
M  V30 789 H 75.942 1.49268 -1.39783 0
M  V30 790 H 74.097 3.83245 -0.565874 0
M  V30 791 H 74.511 4.51319 -2.67229 0
M  V30 792 H 75.985 5.38744 -1.20244 0
M  V30 793 H 76.462 4.38876 0.168636 0
M  V30 794 H 77.068 3.99574 -1.45672 0
M  V30 795 N 75.3831 0.828654 1.34056 0
M  V30 796 C 76.3331 0.226828 2.26869 0
M  V30 797 C 77.3171 -0.612243 1.48796 0
M  V30 798 O 78.5091 -0.465884 1.70759 0
M  V30 799 C 75.6381 -0.605654 3.37915 0
M  V30 800 C 74.7241 0.244361 4.23395 0
M  V30 801 N 75.1151 1.31815 4.88322 0
M  V30 802 C 73.4131 0.0296616 4.4599 0
M  V30 803 C 74.1141 1.83895 5.51867 0
M  V30 804 N 73.0901 1.14196 5.3147 0
M  V30 805 H 76.8921 1.04811 2.74576 0
M  V30 806 H 74.4061 0.67205 1.47842 0
M  V30 807 H 76.4031 -1.05302 4.03382 0
M  V30 808 H 75.0631 -1.42504 2.91758 0
M  V30 809 H 76.0741 1.70099 4.8917 0
M  V30 810 H 72.7511 -0.757097 4.10578 0
M  V30 811 H 74.1411 2.7376 6.136 0
M  V30 812 N 76.8612 -1.46375 0.584142 0
M  V30 813 C 77.7932 -2.28443 -0.186119 0
M  V30 814 C 78.8062 -1.38596 -0.854115 0
M  V30 815 O 79.9952 -1.63183 -0.723438 0
M  V30 816 C 77.0952 -3.13671 -1.28311 0
M  V30 817 C 76.2682 -4.31652 -0.706758 0
M  V30 818 C 75.3272 -4.98267 -1.69163 0
M  V30 819 O 74.3532 -5.55815 -1.22712 0
M  V30 820 N 75.5552 -4.95408 -3.02575 0
M  V30 821 H 78.3202 -2.9519 0.517986 0
M  V30 822 H 75.8812 -1.56303 0.42201 0
M  V30 823 H 77.8732 -3.55101 -1.94128 0
M  V30 824 H 76.4432 -2.48989 -1.89005 0
M  V30 825 H 75.6632 -3.93989 0.128908 0
M  V30 826 H 76.9512 -5.07906 -0.301506 0
M  V30 827 H 76.3492 -4.49902 -3.42936 0
M  V30 828 H 74.9062 -5.40774 -3.63877 0
M  V30 829 N 78.3393 -0.321999 -1.54275 0
M  V30 830 C 79.7503 0.166384 -1.85957 0
M  V30 831 C 80.1013 1.51747 -1.24367 0
M  V30 832 O 79.2263 2.09317 -0.549124 0
M  V30 833 C 79.8213 0.308681 -3.37391 0
M  V30 834 C 78.3803 0.741286 -3.69028 0
M  V30 835 C 77.5273 -0.137937 -2.76957 0
M  V30 836 H 80.4783 -0.542335 -1.49146 0
M  V30 837 H 80.4993 1.13984 -3.63026 0
M  V30 838 H 80.0113 -0.674809 -3.82188 0
M  V30 839 H 78.1123 1.73458 -3.29762 0
M  V30 840 H 78.2253 0.546118 -4.75977 0
M  V30 841 H 76.5893 0.386251 -2.51754 0
M  V30 842 H 77.3723 -1.11816 -3.2458 0
M  V30 843 N 79.8174 1.5752 -0.0501392 0
M  V30 844 C 81.0454 1.96963 0.633492 0
M  V30 845 C 81.4604 0.927631 1.6444 0
M  V30 846 O 80.8174 -0.0882665 1.82286 0
M  V30 847 C 80.8684 3.36487 1.32132 0
M  V30 848 O 80.5894 4.36693 0.350894 0
M  V30 849 C 82.0904 3.90682 2.09481 0
M  V30 850 H 79.3104 0.648244 0.173266 0
M  V30 851 H 81.8544 2.0417 -0.116134 0
M  V30 852 H 80.0094 3.30434 2.02218 0
M  V30 853 H 80.4234 5.17702 0.841735 0
M  V30 854 H 81.8974 4.90591 2.5303 0
M  V30 855 H 82.3744 3.26053 2.94255 0
M  V30 856 H 82.9804 4.00069 1.44307 0
M  V30 857 N 81.2955 -0.223234 1.56011 0
M  V30 858 C 82.2435 -1.29627 1.93131 0
M  V30 859 C 83.2375 -1.48608 0.813146 0
M  V30 860 O 84.4435 -1.49802 0.997966 0
M  V30 861 H 80.8185 -0.434563 0.613726 0
M  V30 862 H 82.7895 -0.955995 2.82672 0
M  V30 863 C 81.5385 -2.63983 2.26292 0
M  V30 864 H 80.8615 -2.50185 3.11846 0
M  V30 865 H 82.3015 -3.3788 2.56151 0
M  V30 866 C 80.7605 -3.18866 1.08747 0
M  V30 867 O 81.2905 -4.00192 0.347727 0
M  V30 868 N 79.4965 -2.77217 0.871743 0
M  V30 869 H 79.0435 -2.1119 1.47501 0
M  V30 870 H 79.0015 -3.1428 0.0869905 0
M  V30 871 N 82.7736 -1.49793 -0.48987 0
M  V30 872 C 83.7036 -1.70201 -1.59856 0
M  V30 873 C 84.6846 -0.55076 -1.60937 0
M  V30 874 O 85.8696 -0.787841 -1.77501 0
M  V30 875 C 82.9996 -1.77882 -2.98287 0
M  V30 876 C 81.9536 -2.92907 -3.12073 0
M  V30 877 C 81.2796 -2.85712 -4.51965 0
M  V30 878 C 82.5796 -4.3369 -2.91051 0
M  V30 879 H 84.2736 -2.63025 -1.43032 0
M  V30 880 H 81.8196 -1.26574 -0.686664 0
M  V30 881 H 83.7726 -1.90744 -3.75759 0
M  V30 882 H 82.4966 -0.816653 -3.16225 0
M  V30 883 H 81.1556 -2.79665 -2.37029 0
M  V30 884 H 80.8036 -1.8738 -4.66795 0
M  V30 885 H 80.5036 -3.62921 -4.62128 0
M  V30 886 H 82.0276 -3.00598 -5.31482 0
M  V30 887 H 83.4416 -4.47555 -3.58284 0
M  V30 888 H 81.8386 -5.12205 -3.12675 0
M  V30 889 H 82.9086 -4.47362 -1.87071 0
M  V30 890 N 84.2517 0.741722 -1.39055 0
M  V30 891 C 85.4977 1.50336 -1.36113 0
M  V30 892 C 85.8307 1.94148 0.0450796 0
M  V30 893 O 85.1057 1.66301 1.00868 0
M  V30 894 C 85.3887 2.74773 -2.32749 0
M  V30 895 C 85.2417 2.37023 -3.82283 0
M  V30 896 C 86.5607 3.76846 -2.27322 0
M  V30 897 H 83.6797 0.545351 -0.495743 0
M  V30 898 H 86.3217 0.848624 -1.69995 0
M  V30 899 H 84.4717 3.30639 -2.03986 0
M  V30 900 H 86.1437 1.8684 -4.21768 0
M  V30 901 H 84.3867 1.69334 -3.99385 0
M  V30 902 H 85.0577 3.26104 -4.45376 0
M  V30 903 H 87.5337 3.30548 -2.5274 0
M  V30 904 H 86.4097 4.6159 -2.97028 0
M  V30 905 H 86.6707 4.23286 -1.27599 0
M  V30 906 N 85.7298 1.2412 0.971189 0
M  V30 907 C 86.6598 1.05508 2.08304 0
M  V30 908 C 87.6408 -0.0308864 1.70072 0
M  V30 909 O 88.8258 0.135521 1.93727 0
M  V30 910 C 85.9558 0.655365 3.4106 0
M  V30 911 C 84.9098 1.68971 3.93234 0
M  V30 912 C 84.2358 1.14516 5.22293 0
M  V30 913 C 85.5358 3.08487 4.21465 0
M  V30 914 H 87.2298 1.98507 2.24132 0
M  V30 915 H 84.7758 0.955821 1.07704 0
M  V30 916 H 86.7288 0.51217 4.18276 0
M  V30 917 H 85.4528 -0.31032 3.25122 0
M  V30 918 H 84.1118 1.82106 3.18171 0
M  V30 919 H 83.7598 0.170189 5.02712 0
M  V30 920 H 83.4598 1.83635 5.58168 0
M  V30 921 H 84.9838 1.01401 6.02121 0
M  V30 922 H 86.3978 2.98601 4.89398 0
M  V30 923 H 84.7948 3.74926 4.68562 0
M  V30 924 H 85.8648 3.56787 3.28376 0
M  V30 925 N 87.2079 -1.17134 1.05439 0
M  V30 926 C 88.6189 -1.69084 0.791676 0
M  V30 927 C 88.9699 -1.83822 -0.685839 0
M  V30 928 O 88.0949 -1.52757 -1.53278 0
M  V30 929 C 88.6899 -3.07119 1.4305 0
M  V30 930 C 87.2489 -3.56225 1.21577 0
M  V30 931 C 86.3959 -2.32421 1.51247 0
M  V30 932 H 89.3469 -1.01617 1.219 0
M  V30 933 H 89.3679 -3.71087 0.84112 0
M  V30 934 H 88.8799 -2.9636 2.50584 0
M  V30 935 H 86.9809 -3.72257 0.159787 0
M  V30 936 H 87.0939 -4.38837 1.92246 0
M  V30 937 H 85.4579 -2.3701 0.932653 0
M  V30 938 H 86.2409 -2.24268 2.5992 0
M  V30 939 N 88.686 -0.835752 -1.33615 0
M  V30 940 C 89.911 -0.442389 -2.02627 0
M  V30 941 C 90.336 0.947735 -1.62479 0
M  V30 942 O 89.694 1.61907 -0.815826 0
M  V30 943 C 89.742 -0.567216 -3.56111 0
M  V30 944 O 88.846 0.407799 -4.10379 0
M  V30 945 H 88.187 -0.180278 -0.639059 0
M  V30 946 H 90.717 -1.12972 -1.70583 0
M  V30 947 H 90.727 -0.447708 -4.05536 0
M  V30 948 H 89.402 -1.58103 -3.84677 0
M  V30 949 H 87.979 0.246107 -3.72087 0
M  V30 950 N 90.1641 1.46063 -0.591896 0
M  V30 951 C 91.1121 2.32124 0.148739 0
M  V30 952 C 92.1061 1.45035 0.875286 0
M  V30 953 O 93.3121 1.61609 0.792632 0
M  V30 954 H 89.6871 0.749024 0.066832 0
M  V30 955 H 91.6581 2.92392 -0.595783 0
M  V30 956 C 90.4071 3.28373 1.1431 0
M  V30 957 H 89.7301 3.95371 0.59346 0
M  V30 958 H 91.1701 3.91352 1.63155 0
M  V30 959 C 89.6291 2.54393 2.20875 0
M  V30 960 O 90.1591 2.31373 3.28374 0
M  V30 961 N 88.3651 2.14797 1.95731 0
M  V30 962 H 87.9121 2.33719 1.08319 0
M  V30 963 H 87.8701 1.65619 2.67241 0
M  V30 964 N 91.6422 0.330177 1.54103 0
M  V30 965 C 92.8902 -0.269871 2.0029 0
M  V30 966 C 93.2112 -1.52133 1.21986 0
M  V30 967 O 92.4812 -1.93212 0.323438 0
M  V30 968 H 91.0612 -0.10271 0.739905 0
M  V30 969 H 93.7232 0.448249 1.89675 0
M  V30 970 H 92.8192 -0.52166 3.07709 0
M  V30 971 N 93.1203 -1.57491 0.0584922 0
M  V30 972 C 94.3453 -1.97711 -0.62652 0
M  V30 973 C 94.7703 -0.936132 -1.63151 0
M  V30 974 O 94.1283 0.099811 -1.81025 0
M  V30 975 C 94.1763 -3.36989 -1.28338 0
M  V30 976 O 93.2803 -3.35433 -2.39913 0
M  V30 977 H 92.6213 -0.643868 -0.162266 0
M  V30 978 H 95.1513 -2.04193 0.129064 0
M  V30 979 H 95.1613 -3.73879 -1.63335 0
M  V30 980 H 93.8363 -4.12289 -0.546889 0
M  V30 981 H 92.4133 -3.10298 -2.06809 0
M  V30 982 N 94.5984 0.214957 -1.56127 0
M  V30 983 C 95.5314 1.29382 -1.87977 0
M  V30 984 C 96.5094 1.44897 -0.737807 0
M  V30 985 O 97.6934 1.60605 -0.986833 0
M  V30 986 C 94.8204 2.66325 -2.09258 0
M  V30 987 C 93.8664 2.67789 -3.31951 0
M  V30 988 S 94.6994 2.21198 -4.8768 0
M  V30 989 C 95.8554 3.60003 -5.12004 0
M  V30 990 H 96.0884 1.02173 -2.79192 0
M  V30 991 H 93.6214 0.417516 -1.48648 0
M  V30 992 H 95.5794 3.45162 -2.22201 0
M  V30 993 H 94.2404 2.90755 -1.18829 0
M  V30 994 H 93.4334 3.68436 -3.43906 0
M  V30 995 H 93.0354 1.9702 -3.17898 0
M  V30 996 H 95.3274 4.55739 -5.01307 0
M  V30 997 H 96.2704 3.52959 -6.13861 0
M  V30 998 H 96.6784 3.53996 -4.39712 0
M  V30 999 N 96.0765 1.50051 0.48192 0
M  V30 1000 C 97.0265 1.64512 1.5786 0
M  V30 1001 C 98.0105 0.500073 1.52932 0
M  V30 1002 O 99.2025 0.753964 1.60139 0
M  V30 1003 C 96.3315 1.73263 2.9637 0
M  V30 1004 C 95.4175 2.93409 3.06222 0
M  V30 1005 N 95.8085 4.17236 2.85915 0
M  V30 1006 C 94.1065 2.91742 3.37346 0
M  V30 1007 C 94.8075 4.981 3.00451 0
M  V30 1008 N 93.7835 4.3184 3.30174 0
M  V30 1009 H 97.5855 2.57955 1.40842 0
M  V30 1010 H 95.0995 1.47086 0.688439 0
M  V30 1011 H 97.0965 1.81724 3.75209 0
M  V30 1012 H 95.7565 0.809711 3.14442 0
M  V30 1013 H 96.7675 4.46909 2.6171 0
M  V30 1014 H 93.4445 2.08907 3.61475 0
M  V30 1015 H 94.8345 6.06532 2.89082 0
M  V30 1016 N 97.5546 -0.734337 1.39446 0
M  V30 1017 C 98.5026 -1.86971 1.38364 0
M  V30 1018 C 99.4966 -1.67288 0.266687 0
M  V30 1019 O 100.703 -1.74621 0.436755 0
M  V30 1020 H 97.0776 -0.615474 0.432082 0
M  V30 1021 H 99.0486 -1.85 2.34132 0
M  V30 1022 C 97.7976 -3.2466 1.24465 0
M  V30 1023 H 97.1206 -3.40402 2.09682 0
M  V30 1024 H 98.5606 -4.04292 1.27764 0
M  V30 1025 C 97.0196 -3.36867 -0.0468674 0
M  V30 1026 O 97.5496 -3.88618 -1.01681 0
M  V30 1027 N 95.7556 -2.90391 -0.110145 0
M  V30 1028 H 95.3026 -2.48466 0.679868 0
M  V30 1029 H 95.2606 -2.98939 -0.973799 0
M  V30 1030 N 99.0327 -1.24633 -0.964593 0
M  V30 1031 C 100.263 -1.11339 -1.74032 0
M  V30 1032 C 100.671 0.336593 -1.86182 0
M  V30 1033 O 100.014 1.24389 -1.35178 0
M  V30 1034 C 100.076 -1.68284 -3.1768 0
M  V30 1035 C 99.7397 -3.17196 -3.28992 0
M  V30 1036 C 100.737 -4.14308 -3.14078 0
M  V30 1037 C 98.4217 -3.57215 -3.53133 0
M  V30 1038 C 100.416 -5.4942 -3.23135 0
M  V30 1039 C 98.1027 -4.92468 -3.61827 0
M  V30 1040 C 99.1007 -5.8838 -3.46841 0
M  V30 1041 O 98.7887 -7.21173 -3.55197 0
M  V30 1042 H 98.5207 -0.389551 -0.552472 0
M  V30 1043 H 101.075 -1.65282 -1.21946 0
M  V30 1044 H 99.3047 -1.08777 -3.71085 0
M  V30 1045 H 100.994 -1.50234 -3.77074 0
M  V30 1046 H 101.76 -3.84731 -2.95308 0
M  V30 1047 H 97.6387 -2.83063 -3.63863 0
M  V30 1048 H 101.183 -6.24263 -3.11355 0
M  V30 1049 H 97.0797 -5.21714 -3.80111 0
M  V30 1050 H 97.8477 -7.29135 -3.71892 0
M  V30 1051 N 100.511 1.16574 -1.06058 0
M  V30 1052 C 101.751 1.88723 -0.78504 0
M  V30 1053 C 102.115 1.79706 0.676006 0
M  V30 1054 O 103.316 2.46757 1.06603 0
M  V30 1055 C 101.587 3.34338 -1.26304 0
M  V30 1056 S 103.146 4.24366 -1.1162 0
M  V30 1057 H 99.9638 0.651448 -0.284846 0
M  V30 1058 H 102.566 1.40732 -1.35701 0
M  V30 1059 H 101.27 3.38439 -2.32136 0
M  V30 1060 H 100.801 3.87378 -0.685719 0
M  V30 1061 H 102.816 4.96179 -0.0456539 0
M  V30 1062 N 101.989 0.842826 1.3317 0
M  V30 1063 C 103.4 0.496651 1.79973 0
M  V30 1064 C 103.751 -0.984641 1.69703 0
M  V30 1065 O 102.876 -1.76743 1.24863 0
M  V30 1066 C 103.471 0.894727 3.26772 0
M  V30 1067 C 102.03 0.600629 3.71577 0
M  V30 1068 C 101.177 1.10091 2.5451 0
M  V30 1069 H 104.128 1.03116 1.20635 0
M  V30 1070 H 104.149 0.206347 3.7994 0
M  V30 1071 H 103.661 1.97287 3.34215 0
M  V30 1072 H 101.762 -0.467284 3.69658 0
M  V30 1073 H 101.875 1.15863 4.64879 0
M  V30 1074 H 100.239 0.52162 2.49301 0
M  V30 1075 H 101.022 2.18591 2.64713 0
M  V30 1076 N 103.467 -1.45747 0.599634 0
M  V30 1077 C 104.399 -2.28628 -0.161879 0
M  V30 1078 C 105.412 -1.39494 -0.839367 0
M  V30 1079 O 106.601 -1.63941 -0.706089 0
M  V30 1080 C 103.701 -3.15014 -1.24976 0
M  V30 1081 C 102.874 -4.32378 -0.660935 0
M  V30 1082 C 101.933 -5.00033 -1.63869 0
M  V30 1083 O 100.959 -5.57085 -1.1681 0
M  V30 1084 N 102.161 -4.98589 -2.97303 0
M  V30 1085 H 104.926 -2.94624 0.549265 0
M  V30 1086 H 102.487 -1.55847 0.438565 0
M  V30 1087 H 104.479 -3.5714 -1.9035 0
M  V30 1088 H 103.049 -2.5098 -1.86354 0
M  V30 1089 H 102.269 -3.9383 0.170688 0
M  V30 1090 H 103.557 -5.08197 -0.247619 0
M  V30 1091 H 102.955 -4.53514 -3.38145 0
M  V30 1092 H 101.512 -5.44603 -3.58121 0
M  V30 1093 N 104.945 -0.338344 -1.53925 0
M  V30 1094 C 105.877 0.555117 -2.22376 0
M  V30 1095 C 106.89 1.06812 -1.22862 0
M  V30 1096 O 108.079 0.979163 -1.49247 0
M  V30 1097 C 105.179 1.77609 -2.88631 0
M  V30 1098 C 104.352 1.39927 -4.14414 0
M  V30 1099 C 103.411 2.47936 -4.64127 0
M  V30 1100 O 102.437 2.11461 -5.28463 0
M  V30 1101 N 103.639 3.79107 -4.39612 0
M  V30 1102 H 106.404 -0.0310778 -2.99684 0
M  V30 1103 H 103.965 -0.162226 -1.61085 0
M  V30 1104 H 105.957 2.49287 -3.18807 0
M  V30 1105 H 104.527 2.26978 -2.14941 0
M  V30 1106 H 103.747 0.513481 -3.90841 0
M  V30 1107 H 105.035 1.12341 -4.96243 0
M  V30 1108 H 104.433 4.11531 -3.88148 0
M  V30 1109 H 102.99 4.4697 -4.74406 0
M  V30 1110 N 106.423 1.57458 -0.0668435 0
M  V30 1111 C 107.651 1.97624 0.612565 0
M  V30 1112 C 108.066 0.94502 1.63447 0
M  V30 1113 O 107.423 -0.0689276 1.8237 0
M  V30 1114 C 107.474 3.37869 1.28555 0
M  V30 1115 O 107.195 4.3704 0.304557 0
M  V30 1116 C 108.696 3.92882 2.05325 0
M  V30 1117 H 105.916 0.650045 0.166381 0
M  V30 1118 H 108.46 2.04035 -0.137782 0
M  V30 1119 H 106.615 3.3256 1.98702 0
M  V30 1120 H 107.029 5.18565 0.786779 0
M  V30 1121 H 108.503 4.93247 2.47812 0
M  V30 1122 H 108.98 3.29156 2.9078 0
M  V30 1123 H 109.586 4.01577 1.40056 0
M  V30 1124 N 107.901 -0.206675 1.56239 0
M  V30 1125 C 108.848 -1.25617 1.93621 0
M  V30 1126 C 109.818 -1.45824 0.795274 0
M  V30 1127 O 111.003 -1.59148 1.05245 0
M  V30 1128 C 108.143 -2.59839 2.27107 0
M  V30 1129 C 107.256 -2.47308 3.54207 0
M  V30 1130 C 106.391 -3.74155 3.7707 0
M  V30 1131 C 105.43 -3.56407 4.97635 0
M  V30 1132 N 104.567 -4.75238 5.1681 0
M  V30 1133 H 109.407 -0.930383 2.83104 0
M  V30 1134 H 106.944 -0.448065 1.4011 0
M  V30 1135 H 108.902 -3.38021 2.44535 0
M  V30 1136 H 107.532 -2.90485 1.40778 0
M  V30 1137 H 106.584 -1.60483 3.4489 0
M  V30 1138 H 107.896 -2.30122 4.42544 0
M  V30 1139 H 107.05 -4.60778 3.94675 0
M  V30 1140 H 105.789 -3.94282 2.87042 0
M  V30 1141 H 104.794 -2.68168 4.79964 0
M  V30 1142 H 106.019 -3.37736 5.89161 0
M  V30 1143 H 103.965 -4.95651 4.29728 0
M  V30 1144 H 103.882 -4.60835 5.99306 0
M  V30 1145 H 105.15 -5.63246 5.38864 0
M  V30 1146 N 109.379 -1.50304 -0.473955 0
M  V30 1147 C 110.628 -1.60392 -1.22301 0
M  V30 1148 C 110.941 -0.308411 -1.93153 0
M  V30 1149 O 112.147 -0.288156 -2.69966 0
M  V30 1150 C 110.603 -2.83109 -2.2221 0
M  V30 1151 C 110.211 -4.19524 -1.57173 0
M  V30 1152 C 111.955 -3.0254 -2.97775 0
M  V30 1153 C 109.862 -5.33431 -2.55353 0
M  V30 1154 H 108.792 -0.597286 -0.460179 0
M  V30 1155 H 111.443 -1.76731 -0.493803 0
M  V30 1156 H 109.825 -2.60322 -2.9841 0
M  V30 1157 H 110.999 -4.52554 -0.867824 0
M  V30 1158 H 109.314 -4.05674 -0.939002 0
M  V30 1159 H 111.911 -3.84811 -3.71248 0
M  V30 1160 H 112.254 -2.14154 -3.56992 0
M  V30 1161 H 112.787 -3.25494 -2.28688 0
M  V30 1162 H 109.526 -6.23962 -2.00878 0
M  V30 1163 H 109.046 -5.04823 -3.23904 0
M  V30 1164 H 110.725 -5.63887 -3.17239 0
M  V30 1165 N 110.857 0.726932 -1.39834 0
M  V30 1166 C 112.085 1.51613 -1.40787 0
M  V30 1167 C 112.5 1.88799 -0.00451505 0
M  V30 1168 O 111.857 1.54662 0.968809 0
M  V30 1169 C 111.908 2.79863 -2.28821 0
M  V30 1170 O 111.629 2.44253 -3.63692 0
M  V30 1171 C 113.13 3.73837 -2.38245 0
M  V30 1172 H 110.35 0.468264 -0.480593 0
M  V30 1173 H 112.894 0.897607 -1.83748 0
M  V30 1174 H 111.049 3.38027 -1.89252 0
M  V30 1175 H 111.463 3.26695 -4.1033 0
M  V30 1176 H 112.937 4.60699 -3.04073 0
M  V30 1177 H 113.414 4.16153 -1.40403 0
M  V30 1178 H 114.02 3.21589 -2.78317 0
M  V30 1179 N 112.336 1.25143 0.95797 0
M  V30 1180 C 113.561 1.12521 1.74223 0
M  V30 1181 C 113.986 -0.317402 1.85403 0
M  V30 1182 O 113.344 -1.2299 1.33204 0
M  V30 1183 C 113.392 1.78062 3.1357 0
M  V30 1184 O 112.496 1.058 3.98598 0
M  V30 1185 H 111.837 0.39304 0.535178 0
M  V30 1186 H 114.367 1.65641 1.201 0
M  V30 1187 H 114.377 1.84213 3.64046 0
M  V30 1188 H 113.052 2.83021 3.04749 0
M  V30 1189 H 111.629 1.07506 3.57067 0
M  V30 1190 N 113.814 -1.1601 1.06675 0
M  V30 1191 C 114.777 -2.18724 0.685001 0
M  V30 1192 C 115.777 -1.58496 -0.271246 0
M  V30 1193 O 116.967 -1.74119 -0.0531156 0
M  V30 1194 C 114.099 -3.40899 0.00853648 0
M  V30 1195 H 115.292 -2.54011 1.59431 0
M  V30 1196 H 112.845 -1.30352 0.862441 0
M  V30 1197 H 113.58 -3.11173 -0.913337 0
M  V30 1198 H 113.365 -3.8587 0.696204 0
M  V30 1199 H 114.855 -4.16886 -0.24414 0
M  V30 1200 N 115.292 -0.849877 -1.32721 0
M  V30 1201 C 116.539 -0.450923 -1.97416 0
M  V30 1202 C 116.867 0.992376 -1.67279 0
M  V30 1203 O 116.122 1.71048 -0.950845 0
M  V30 1204 C 116.421 -0.631272 -3.51781 0
M  V30 1205 C 116.087 -2.04432 -4.01894 0
M  V30 1206 C 114.749 -2.4308 -4.1529 0
M  V30 1207 C 117.101 -2.96679 -4.28522 0
M  V30 1208 C 114.429 -3.73257 -4.52654 0
M  V30 1209 C 116.781 -4.26349 -4.67343 0
M  V30 1210 C 115.445 -4.64939 -4.78945 0
M  V30 1211 H 114.715 -0.165004 -0.722395 0
M  V30 1212 H 117.362 -1.07901 -1.58207 0
M  V30 1213 H 115.667 0.0800767 -3.91718 0
M  V30 1214 H 117.364 -0.302709 -3.99856 0
M  V30 1215 H 113.954 -1.73419 -3.91949 0
M  V30 1216 H 118.138 -2.68054 -4.17685 0
M  V30 1217 H 113.394 -4.02946 -4.59831 0
M  V30 1218 H 117.568 -4.97895 -4.86902 0
M  V30 1219 H 115.195 -5.65855 -5.07654 0
M  V30 1220 N 116.77 1.45427 -0.607355 0
M  V30 1221 C 117.717 2.3053 0.111625 0
M  V30 1222 C 118.687 1.4209 0.860216 0
M  V30 1223 O 119.872 1.71019 0.845998 0
M  V30 1224 C 117.012 3.26992 1.10319 0
M  V30 1225 C 116.125 4.30535 0.355493 0
M  V30 1226 C 115.26 5.14105 1.33676 0
M  V30 1227 C 114.299 6.09376 0.576862 0
M  V30 1228 N 113.436 6.85727 1.5074 0
M  V30 1229 H 118.276 2.91477 -0.620093 0
M  V30 1230 H 115.813 1.43631 -0.317594 0
M  V30 1231 H 117.771 3.81385 1.6912 0
M  V30 1232 H 116.401 2.67799 1.80232 0
M  V30 1233 H 115.453 3.78805 -0.348023 0
M  V30 1234 H 116.765 4.98235 -0.237423 0
M  V30 1235 H 115.919 5.72897 1.99684 0
M  V30 1236 H 114.658 4.46423 1.9636 0
M  V30 1237 H 113.663 5.49715 -0.0968519 0
M  V30 1238 H 114.888 6.79085 -0.0449341 0
M  V30 1239 H 112.834 6.20735 2.12189 0
M  V30 1240 H 112.751 7.49778 0.967913 0
M  V30 1241 H 114.019 7.4906 2.15706 0
M  V30 1242 N 118.248 0.346503 1.53744 0
M  V30 1243 C 119.478 -0.250047 2.05081 0
M  V30 1244 C 119.886 -1.44529 1.22098 0
M  V30 1245 O 119.229 -1.81992 0.249917 0
M  V30 1246 C 119.291 -0.725934 3.52094 0
M  V30 1247 C 118.955 0.350053 4.55657 0
M  V30 1248 C 119.952 1.19372 5.0601 0
M  V30 1249 C 117.637 0.504827 4.99757 0
M  V30 1250 C 119.631 2.17768 5.99046 0
M  V30 1251 C 117.318 1.49218 5.92602 0
M  V30 1252 C 118.316 2.32706 6.42135 0
M  V30 1253 O 118.004 3.2976 7.33153 0
M  V30 1254 H 117.736 -0.0515469 0.674032 0
M  V30 1255 H 120.29 0.497559 1.99282 0
M  V30 1256 H 118.52 -1.52483 3.55367 0
M  V30 1257 H 120.209 -1.24336 3.86388 0
M  V30 1258 H 120.975 1.08525 4.72702 0
M  V30 1259 H 116.854 -0.135178 4.60802 0
M  V30 1260 H 120.398 2.82971 6.37631 0
M  V30 1261 H 116.295 1.6012 6.25325 0
M  V30 1262 H 117.063 3.25265 7.51096 0
M  V30 1263 N 119.726 -1.57421 0.075193 0
M  V30 1264 C 120.975 -1.92794 -0.592731 0
M  V30 1265 C 121.288 -0.957478 -1.70563 0
M  V30 1266 O 122.494 -1.20417 -2.43335 0
M  V30 1267 C 120.95 -3.42495 -1.10569 0
M  V30 1268 C 120.558 -4.47994 -0.0236121 0
M  V30 1269 C 122.302 -3.86864 -1.74748 0
M  V30 1270 C 120.209 -5.88829 -0.550803 0
M  V30 1271 H 119.139 -0.719591 -0.225177 0
M  V30 1272 H 121.79 -1.82902 0.147978 0
M  V30 1273 H 120.172 -3.47471 -1.89947 0
M  V30 1274 H 121.346 -4.54637 0.751099 0
M  V30 1275 H 119.661 -4.13113 0.522159 0
M  V30 1276 H 122.258 -4.8947 -2.15229 0
M  V30 1277 H 122.601 -3.24417 -2.60882 0
M  V30 1278 H 123.134 -3.84504 -1.01986 0
M  V30 1279 H 119.873 -6.54929 0.273457 0
M  V30 1280 H 119.393 -5.85698 -1.29296 0
M  V30 1281 H 121.072 -6.38811 -1.02613 0
M  V30 1282 N 121.204 0.198386 -1.56346 0
M  V30 1283 C 122.152 1.26538 -1.95169 0
M  V30 1284 C 123.146 1.47295 -0.836685 0
M  V30 1285 O 124.352 1.48195 -1.02167 0
M  V30 1286 H 120.727 0.424744 -0.620561 0
M  V30 1287 H 122.698 0.910904 -2.84157 0
M  V30 1288 C 121.447 2.6035 -2.30463 0
M  V30 1289 H 120.77 2.45192 -3.15786 0
M  V30 1290 H 122.21 3.33762 -2.61494 0
M  V30 1291 C 120.669 3.17096 -1.13806 0
M  V30 1292 O 121.199 3.99588 -0.41135 0
M  V30 1293 N 119.405 2.75795 -0.915736 0
M  V30 1294 H 118.952 2.08816 -1.50843 0
M  V30 1295 H 118.91 3.14101 -0.136979 0
M  V30 1296 N 122.682 1.50554 0.465978 0
M  V30 1297 C 123.91 1.65563 1.24083 0
M  V30 1298 C 124.325 0.341051 1.85694 0
M  V30 1299 O 123.682 -0.677543 1.69457 0
M  V30 1300 C 123.733 2.75051 2.34583 0
M  V30 1301 O 123.454 4.01413 1.75497 0
M  V30 1302 C 124.955 3.01078 3.25372 0
M  V30 1303 H 122.175 0.55638 0.375077 0
M  V30 1304 H 124.719 1.96807 0.555624 0
M  V30 1305 H 122.874 2.46486 2.9887 0
M  V30 1306 H 123.288 4.62002 2.48303 0
M  V30 1307 H 124.762 3.81339 3.99105 0
M  V30 1308 H 125.239 2.12349 3.84453 0
M  V30 1309 H 125.845 3.31194 2.66816 0
M  V30 1310 N 124.16 -0.719506 1.40217 0
M  V30 1311 C 125.406 -1.48152 1.38488 0
M  V30 1312 C 125.739 -1.94195 -0.0141867 0
M  V30 1313 O 125.014 -1.67884 -0.982096 0
M  V30 1314 C 125.297 -2.71035 2.37091 0
M  V30 1315 C 125.15 -2.30912 3.86005 0
M  V30 1316 C 126.469 -3.73182 2.33288 0
M  V30 1317 H 123.588 -0.537395 0.504357 0
M  V30 1318 H 126.23 -0.821472 1.71324 0
M  V30 1319 H 124.38 -3.27352 2.0922 0
M  V30 1320 H 126.052 -1.80107 4.24687 0
M  V30 1321 H 124.295 -1.62958 4.02029 0
M  V30 1322 H 124.966 -3.18978 4.50508 0
M  V30 1323 H 127.442 -3.26485 2.57966 0
M  V30 1324 H 126.318 -4.56806 3.04334 0
M  V30 1325 H 126.579 -4.21202 1.34317 0
M  V30 1326 N 125.638 -1.25649 -0.95132 0
M  V30 1327 C 126.887 -1.09988 -1.69073 0
M  V30 1328 C 127.2 0.358355 -1.92289 0
M  V30 1329 O 128.406 0.635466 -2.63958 0
M  V30 1330 C 126.862 -1.92012 -3.044 0
M  V30 1331 C 126.47 -3.42347 -2.88968 0
M  V30 1332 C 128.214 -1.8493 -3.82101 0
M  V30 1333 C 126.121 -4.16655 -4.19705 0
M  V30 1334 H 125.051 -0.407993 -0.63408 0
M  V30 1335 H 127.702 -1.49873 -1.05879 0
M  V30 1336 H 126.084 -1.44952 -3.68517 0
M  V30 1337 H 127.258 -3.97104 -2.33762 0
M  V30 1338 H 125.573 -3.50557 -2.24719 0
M  V30 1339 H 128.17 -2.37739 -4.78941 0
M  V30 1340 H 128.513 -0.817883 -4.08187 0
M  V30 1341 H 129.046 -2.29758 -3.2474 0
M  V30 1342 H 125.785 -5.20224 -3.98807 0
M  V30 1343 H 125.305 -3.66681 -4.74663 0
M  V30 1344 H 126.984 -4.24551 -4.88227 0
M  V30 1345 N 127.117 1.15442 -1.07289 0
M  V30 1346 C 128.342 1.90638 -0.816828 0
M  V30 1347 C 128.767 1.77445 0.624083 0
M  V30 1348 O 128.125 1.10671 1.43602 0
M  V30 1349 C 128.173 3.39008 -1.22906 0
M  V30 1350 O 127.277 4.10701 -0.373975 0
M  V30 1351 H 126.618 0.593555 -0.297638 0
M  V30 1352 H 129.148 1.46198 -1.43134 0
M  V30 1353 H 129.158 3.89801 -1.20497 0
M  V30 1354 H 127.833 3.47929 -2.27856 0
M  V30 1355 H 126.41 3.70046 -0.460499 0
M  V30 1356 N 128.595 0.856903 1.32268 0
M  V30 1357 C 129.835 0.467705 1.98977 0
M  V30 1358 C 130.199 -0.959231 1.66321 0
M  V30 1359 O 131.4 -1.4531 2.26138 0
M  V30 1360 C 129.671 0.70256 3.50427 0
M  V30 1361 S 131.23 0.411269 4.36868 0
M  V30 1362 H 128.048 0.175121 0.689096 0
M  V30 1363 H 130.65 1.1101 1.60925 0
M  V30 1364 H 129.354 1.74012 3.71683 0
M  V30 1365 H 128.885 0.0466707 3.93372 0
M  V30 1366 H 130.9 -0.761799 4.90317 0
M  V30 1367 N 130.073 -1.45103 0.615059 0
M  V30 1368 C 131.301 -2.06553 0.11977 0
M  V30 1369 C 131.716 -1.45842 -1.19898 0
M  V30 1370 O 131.073 -0.575325 -1.73194 0
M  V30 1371 C 131.124 -3.61495 -0.018364 0
M  V30 1372 O 130.845 -4.19942 1.24822 0
M  V30 1373 C 132.346 -4.39947 -0.544237 0
M  V30 1374 H 129.566 -0.667096 0.0722739 0
M  V30 1375 H 132.11 -1.8623 0.84491 0
M  V30 1376 H 130.265 -3.81135 -0.693865 0
M  V30 1377 H 130.679 -5.13204 1.0827 0
M  V30 1378 H 132.153 -5.48838 -0.589953 0
M  V30 1379 H 132.63 -4.10255 -1.56805 0
M  V30 1380 H 133.236 -4.25188 0.0974703 0
M  V30 1381 N 131.551 -0.354651 -1.53558 0
M  V30 1382 C 132.8 0.239504 -2.00273 0
M  V30 1383 C 133.113 1.50759 -1.24623 0
M  V30 1384 O 134.319 2.17968 -1.61871 0
M  V30 1385 C 132.775 0.477341 -3.5672 0
M  V30 1386 C 132.383 -0.775488 -4.41237 0
M  V30 1387 C 134.127 1.02975 -4.11821 0
M  V30 1388 C 132.034 -0.507838 -5.89216 0
M  V30 1389 H 130.964 0.0932743 -0.748208 0
M  V30 1390 H 133.615 -0.471701 -1.77334 0
M  V30 1391 H 131.997 1.24953 -3.7577 0
M  V30 1392 H 133.171 -1.54963 -4.33962 0
M  V30 1393 H 131.486 -1.25033 -3.97185 0
M  V30 1394 H 134.083 1.24513 -5.2 0
M  V30 1395 H 134.426 1.98862 -3.65731 0
M  V30 1396 H 134.959 0.317994 -3.96527 0
M  V30 1397 H 131.698 -1.43674 -6.39561 0
M  V30 1398 H 131.218 0.228011 -5.99366 0
M  V30 1399 H 132.897 -0.129238 -6.46871 0
M  V30 1400 N 133.029 1.57378 -0.0835403 0
M  V30 1401 C 134.276 1.9393 0.58287 0
M  V30 1402 C 134.604 0.964455 1.68904 0
M  V30 1403 O 133.859 -0.0179474 1.95692 0
M  V30 1404 C 134.158 3.37063 1.1884 0
M  V30 1405 C 133.824 4.50424 0.207194 0
M  V30 1406 C 132.486 4.81159 -0.0627115 0
M  V30 1407 C 134.838 5.19136 -0.463426 0
M  V30 1408 C 132.166 5.77939 -1.01012 0
M  V30 1409 C 134.518 6.16931 -1.39924 0
M  V30 1410 C 133.182 6.46078 -1.67749 0
M  V30 1411 H 132.452 0.70964 0.213287 0
M  V30 1412 H 135.099 1.90856 -0.156916 0
M  V30 1413 H 133.404 3.3666 2.00418 0
M  V30 1414 H 135.101 3.6264 1.71153 0
M  V30 1415 H 131.691 4.2646 0.427747 0
M  V30 1416 H 135.875 4.95576 -0.268034 0
M  V30 1417 H 131.131 5.98842 -1.23283 0
M  V30 1418 H 135.305 6.69273 -1.92476 0
M  V30 1419 H 132.932 7.2088 -2.41321 0
M  V30 1420 N 134.507 -0.190092 1.56449 0
M  V30 1421 C 135.756 -0.907912 1.80111 0
M  V30 1422 C 136.069 -1.84214 0.657619 0
M  V30 1423 O 137.275 -2.60094 0.778663 0
M  V30 1424 C 135.731 -1.66485 3.19078 0
M  V30 1425 C 135.339 -0.7752 4.41242 0
M  V30 1426 C 137.083 -2.37201 3.52045 0
M  V30 1427 C 134.99 -1.53129 5.71231 0
M  V30 1428 H 133.92 -0.34276 0.671589 0
M  V30 1429 H 136.571 -0.161109 1.82791 0
M  V30 1430 H 134.953 -2.45572 3.10661 0
M  V30 1431 H 136.127 -0.0226298 4.60794 0
M  V30 1432 H 134.442 -0.178627 4.16017 0
M  V30 1433 H 137.039 -2.94329 4.46402 0
M  V30 1434 H 137.382 -3.11632 2.76028 0
M  V30 1435 H 137.915 -1.65075 3.61932 0
M  V30 1436 H 134.654 -0.82967 6.50228 0
M  V30 1437 H 134.174 -2.25767 5.55688 0
M  V30 1438 H 135.853 -2.08377 6.12526 0
M  V30 1439 N 135.985 -1.50799 -0.457987 0
M  V30 1440 C 137.231 -1.62683 -1.21088 0
M  V30 1441 C 137.564 -0.332268 -1.91336 0
M  V30 1442 O 136.839 0.667043 -1.82704 0
M  V30 1443 C 137.122 -2.81615 -2.24422 0
M  V30 1444 C 136.975 -4.20989 -1.58392 0
M  V30 1445 C 138.294 -2.96085 -3.2561 0
M  V30 1446 H 135.413 -0.592087 -0.438864 0
M  V30 1447 H 138.055 -1.83225 -0.50286 0
M  V30 1448 H 136.205 -2.64231 -2.84806 0
M  V30 1449 H 137.877 -4.49994 -1.01504 0
M  V30 1450 H 136.12 -4.24641 -0.886704 0
M  V30 1451 H 136.791 -5.0016 -2.33547 0
M  V30 1452 H 139.267 -3.12042 -2.75262 0
M  V30 1453 H 138.143 -3.80902 -3.95228 0
M  V30 1454 H 138.404 -2.0726 -3.90507 0
M  V30 1455 N 137.463 0.71206 -1.40597 0
M  V30 1456 C 138.711 1.46907 -1.38791 0
M  V30 1457 C 139.032 1.94998 0.00780391 0
M  V30 1458 O 138.302 1.70587 0.963174 0
M  V30 1459 H 136.882 0.545043 -0.51082 0
M  V30 1460 H 139.544 0.843882 -1.75683 0
M  V30 1461 H 138.64 2.34021 -2.06496 0
M  V30 1462 N 138.941 1.26152 0.944643 0
M  V30 1463 C 139.874 1.01729 2.04271 0
M  V30 1464 C 140.852 -0.0568101 1.62501 0
M  V30 1465 O 142.036 0.0848987 1.88309 0
M  V30 1466 C 139.163 0.539792 3.34371 0
M  V30 1467 C 138.209 1.60593 3.9511 0
M  V30 1468 S 139.042 3.19392 4.29825 0
M  V30 1469 C 140.198 2.73402 5.63029 0
M  V30 1470 H 140.431 1.94703 2.24673 0
M  V30 1471 H 137.964 1.09793 1.08558 0
M  V30 1472 H 139.922 0.270956 4.09605 0
M  V30 1473 H 138.583 -0.369609 3.11918 0
M  V30 1474 H 137.776 1.22275 4.88943 0
M  V30 1475 H 137.378 1.82596 3.26397 0
M  V30 1476 H 139.67 2.1765 6.41588 0
M  V30 1477 H 140.613 3.65913 6.06229 0
M  V30 1478 H 141.021 2.13077 5.22741 0
M  V30 1479 N 140.419 -1.14872 1.07899 0
M  V30 1480 C 141.665 -1.86064 0.806725 0
M  V30 1481 C 141.998 -1.82434 -0.665706 0
M  V30 1482 O 141.273 -1.25138 -1.48899 0
M  V30 1483 C 141.556 -3.34929 1.32267 0
M  V30 1484 C 141.409 -3.47161 2.86006 0
M  V30 1485 C 142.728 -4.29863 0.943717 0
M  V30 1486 H 139.847 -0.675591 0.294526 0
M  V30 1487 H 142.489 -1.34925 1.33773 0
M  V30 1488 H 140.639 -3.78611 0.870974 0
M  V30 1489 H 142.311 -3.12302 3.39507 0
M  V30 1490 H 140.554 -2.88539 3.23925 0
M  V30 1491 H 141.225 -4.51777 3.17177 0
M  V30 1492 H 143.701 -3.9417 1.33302 0
M  V30 1493 H 142.577 -5.32494 1.33198 0
M  V30 1494 H 142.838 -4.41846 -0.149796 0
M  V30 1495 N 141.898 -0.863906 -1.31812 0
M  V30 1496 C 143.146 -0.470904 -1.96537 0
M  V30 1497 C 143.467 0.978771 -1.68657 0
M  V30 1498 O 142.737 1.6853 -0.998717 0
M  V30 1499 H 141.317 -0.171148 -0.72713 0
M  V30 1500 H 143.979 -1.10236 -1.60729 0
M  V30 1501 H 143.075 -0.623616 -3.05806 0
M  V30 1502 N 143.376 1.44774 -0.622745 0
M  V30 1503 C 144.324 2.32387 0.0994683 0
M  V30 1504 C 145.318 1.46859 0.844326 0
M  V30 1505 O 146.524 1.63254 0.758174 0
M  V30 1506 H 142.899 0.750273 0.0509291 0
M  V30 1507 H 144.87 2.91062 -0.65767 0
M  V30 1508 C 143.619 3.30723 1.07319 0
M  V30 1509 H 142.942 3.96541 0.509462 0
M  V30 1510 H 144.382 3.94725 1.54817 0
M  V30 1511 C 142.841 2.59021 2.15429 0
M  V30 1512 O 143.371 2.38286 3.23393 0
M  V30 1513 N 141.577 2.189 1.91131 0
M  V30 1514 H 141.124 2.35964 1.03337 0
M  V30 1515 H 141.082 1.71251 2.63668 0
M  V30 1516 N 144.854 0.36279 1.53368 0
M  V30 1517 C 145.817 -0.472679 2.24273 0
M  V30 1518 C 146.817 -1.012 1.24961 0
M  V30 1519 O 148.007 -0.898194 1.49259 0
M  V30 1520 C 145.139 -1.66039 2.97731 0
M  V30 1521 H 146.332 0.14773 2.99536 0
M  V30 1522 H 143.885 0.114434 1.55881 0
M  V30 1523 H 144.62 -2.31896 2.26704 0
M  V30 1524 H 144.405 -1.28066 3.70596 0
M  V30 1525 H 145.895 -2.25252 3.51641 0
M  V30 1526 N 146.332 -1.57332 0.0918853 0
M  V30 1527 C 147.56 -1.98574 -0.581048 0
M  V30 1528 C 147.975 -0.970903 -1.61923 0
M  V30 1529 O 147.332 0.0399054 -1.82456 0
M  V30 1530 C 147.383 -3.39872 -1.23164 0
M  V30 1531 O 147.104 -4.37469 -0.234989 0
M  V30 1532 C 148.605 -3.96099 -1.99049 0
M  V30 1533 H 145.825 -0.65261 -0.156018 0
M  V30 1534 H 148.369 -2.0379 0.170225 0
M  V30 1535 H 146.524 -3.35679 -1.93386 0
M  V30 1536 H 146.938 -5.19751 -0.70418 0
M  V30 1537 H 148.412 -4.97127 -2.39934 0
M  V30 1538 H 148.889 -3.3374 -2.85507 0
M  V30 1539 H 149.495 -4.03755 -1.3365 0
M  V30 1540 N 147.81 0.181792 -1.56548 0
M  V30 1541 C 148.74 1.22765 -1.98623 0
M  V30 1542 C 149.721 1.46747 -0.860189 0
M  V30 1543 O 150.906 1.58259 -1.12551 0
M  V30 1544 C 148.036 2.56894 -2.33715 0
M  V30 1545 C 146.99 2.475 -3.49182 0
M  V30 1546 C 146.316 3.86023 -3.69986 0
M  V30 1547 C 147.616 1.98866 -4.82959 0
M  V30 1548 H 149.31 0.877942 -2.86239 0
M  V30 1549 H 146.856 0.42088 -1.37712 0
M  V30 1550 H 148.809 3.30253 -2.61746 0
M  V30 1551 H 147.533 2.93632 -1.42997 0
M  V30 1552 H 146.192 1.76596 -3.21262 0
M  V30 1553 H 145.84 4.20136 -2.76576 0
M  V30 1554 H 145.54 3.80609 -4.47672 0
M  V30 1555 H 147.064 4.60984 -4.00407 0
M  V30 1556 H 148.478 2.61992 -5.09934 0
M  V30 1557 H 146.875 2.04424 -5.64208 0
M  V30 1558 H 147.945 0.942465 -4.75653 0
M  V30 1559 N 149.288 1.51039 0.449983 0
M  V30 1560 C 150.218 1.74379 1.55288 0
M  V30 1561 C 151.199 0.593236 1.5942 0
M  V30 1562 O 152.384 0.834625 1.7535 0
M  V30 1563 C 149.514 1.85728 2.93466 0
M  V30 1564 C 148.468 3.01078 3.04197 0
M  V30 1565 C 147.794 2.97595 4.44231 0
M  V30 1566 C 149.094 4.41254 2.7945 0
M  V30 1567 H 150.788 2.66725 1.36008 0
M  V30 1568 H 148.334 1.2835 0.652864 0
M  V30 1569 H 150.287 2.0064 3.70569 0
M  V30 1570 H 149.011 0.900207 3.13949 0
M  V30 1571 H 147.67 2.85851 2.29531 0
M  V30 1572 H 147.318 1.99691 4.61663 0
M  V30 1573 H 147.018 3.75046 4.52343 0
M  V30 1574 H 148.542 3.14583 5.23326 0
M  V30 1575 H 149.956 4.56897 3.46292 0
M  V30 1576 H 148.353 5.20315 2.98985 0
M  V30 1577 H 149.423 4.52164 1.75144 0
M  V30 1578 N 150.766 -0.704594 1.40972 0
M  V30 1579 C 152.182 -1.01406 1.23244 0
M  V30 1580 C 152.382 -2.01169 0.115399 0
M  V30 1581 O 151.438 -2.47021 -0.523147 0
M  V30 1582 C 152.751 -1.54728 2.57836 0
M  V30 1583 C 154.299 -1.66658 2.64942 0
M  V30 1584 C 154.774 -2.23383 3.9983 0
M  V30 1585 N 156.265 -2.30756 4.01629 0
M  V30 1586 C 157 -2.75655 5.02794 0
M  V30 1587 N 156.496 -3.20225 6.14352 0
M  V30 1588 N 158.289 -2.75138 4.90159 0
M  V30 1589 H 150.44 -0.0435285 2.12355 0
M  V30 1590 H 152.703 -0.0818951 0.944456 0
M  V30 1591 H 152.409 -0.888832 3.40283 0
M  V30 1592 H 152.283 -2.53084 2.79693 0
M  V30 1593 H 154.67 -2.31617 1.8286 0
M  V30 1594 H 154.751 -0.668717 2.46904 0
M  V30 1595 H 154.395 -1.59043 4.82357 0
M  V30 1596 H 154.325 -3.23904 4.15203 0
M  V30 1597 H 156.816 -1.99291 3.21079 0
M  V30 1598 H 157.129 -3.53084 6.87424 0
M  V30 1599 H 155.474 -3.18156 6.17901 0
M  V30 1600 H 158.665 -2.39661 4.02095 0
M  V30 1601 H 158.838 -3.09812 5.6914 0
M  V30 1602 N 152.244 -1.26651 -0.937939 0
M  V30 1603 C 153.493 -1.11775 -1.67897 0
M  V30 1604 C 153.806 0.33794 -1.92659 0
M  V30 1605 O 155.012 0.607434 -2.64618 0
M  V30 1606 C 153.468 -1.9523 -3.02346 0
M  V30 1607 C 153.076 -3.45393 -2.8532 0
M  V30 1608 C 154.82 -1.88972 -3.80118 0
M  V30 1609 C 152.727 -4.21083 -4.15263 0
M  V30 1610 H 151.657 -0.414696 -0.629717 0
M  V30 1611 H 154.308 -1.50988 -1.04283 0
M  V30 1612 H 152.69 -1.48853 -3.66959 0
M  V30 1613 H 153.864 -3.99561 -2.29537 0
M  V30 1614 H 152.179 -3.52921 -2.20988 0
M  V30 1615 H 154.776 -2.42805 -4.76392 0
M  V30 1616 H 155.119 -0.86113 -4.07296 0
M  V30 1617 H 155.652 -2.33189 -3.22285 0
M  V30 1618 H 152.391 -5.24425 -3.93267 0
M  V30 1619 H 151.911 -3.71695 -4.70747 0
M  V30 1620 H 153.59 -4.29706 -4.83696 0
M  V30 1621 N 153.722 1.14298 -1.08507 0
M  V30 1622 C 154.971 1.84708 -0.810305 0
M  V30 1623 C 155.284 1.83903 0.666271 0
M  V30 1624 O 156.49 2.50112 1.05624 0
M  V30 1625 C 154.946 3.31572 -1.39957 0
M  V30 1626 C 154.554 3.40791 -2.90801 0
M  V30 1627 C 156.298 4.07087 -1.20334 0
M  V30 1628 C 154.205 4.81872 -3.4286 0
M  V30 1629 H 153.135 0.691985 -0.299454 0
M  V30 1630 H 155.786 1.28841 -1.30661 0
M  V30 1631 H 154.168 3.87183 -0.830976 0
M  V30 1632 H 155.342 2.95225 -3.53806 0
M  V30 1633 H 153.657 2.78732 -3.0935 0
M  V30 1634 H 156.254 5.11225 -1.56693 0
M  V30 1635 H 156.597 4.16054 -0.143237 0
M  V30 1636 H 157.13 3.57779 -1.73893 0
M  V30 1637 H 153.869 4.78094 -4.48449 0
M  V30 1638 H 153.389 5.27972 -2.84615 0
M  V30 1639 H 155.068 5.50765 -3.39509 0
M  V30 1640 N 155.201 0.870884 1.31352 0
M  V30 1641 C 156.431 0.496049 2.00557 0
M  V30 1642 C 156.839 -0.916241 1.65534 0
M  V30 1643 O 156.182 -1.61188 0.881134 0
M  V30 1644 C 156.244 0.574418 3.54881 0
M  V30 1645 C 155.908 1.94849 4.1338 0
M  V30 1646 C 156.905 2.91611 4.30417 0
M  V30 1647 C 154.59 2.25005 4.49086 0
M  V30 1648 C 156.584 4.16672 4.82352 0
M  V30 1649 C 154.271 3.50315 5.00722 0
M  V30 1650 C 155.269 4.45964 5.17306 0
M  V30 1651 O 154.957 5.69052 5.67833 0
M  V30 1652 H 154.689 0.191664 0.64826 0
M  V30 1653 H 157.243 1.17409 1.68536 0
M  V30 1654 H 155.473 -0.160549 3.86367 0
M  V30 1655 H 157.162 0.212879 4.05341 0
M  V30 1656 H 157.928 2.69622 4.03149 0
M  V30 1657 H 153.807 1.51332 4.35453 0
M  V30 1658 H 157.351 4.91336 4.95211 0
M  V30 1659 H 153.248 3.72147 5.27424 0
M  V30 1660 H 154.016 5.71236 5.86201 0
M  V30 1661 N 156.679 -1.44442 0.630414 0
M  V30 1662 C 157.611 -2.2892 -0.113347 0
M  V30 1663 C 158.624 -1.41243 -0.80959 0
M  V30 1664 O 159.813 -1.65402 -0.671156 0
M  V30 1665 C 156.913 -3.17594 -1.18266 0
M  V30 1666 C 156.086 -4.33682 -0.569073 0
M  V30 1667 C 155.145 -5.03397 -1.53226 0
M  V30 1668 O 154.171 -5.59438 -1.04967 0
M  V30 1669 N 155.373 -5.04783 -2.86661 0
M  V30 1670 H 158.138 -2.93392 0.611636 0
M  V30 1671 H 155.699 -1.54881 0.471523 0
M  V30 1672 H 157.691 -3.61097 -1.82732 0
M  V30 1673 H 156.261 -2.54876 -1.80988 0
M  V30 1674 H 155.481 -3.9338 0.254187 0
M  V30 1675 H 156.769 -5.08608 -0.139767 0
M  V30 1676 H 156.167 -4.60584 -3.28449 0
M  V30 1677 H 154.724 -5.52077 -3.46489 0
M  V30 1678 N 158.157 -0.370918 -1.53173 0
M  V30 1679 C 159.105 0.488101 -2.27421 0
M  V30 1680 C 160.099 1.07884 -1.30604 0
M  V30 1681 O 161.305 1.02143 -1.48212 0
M  V30 1682 H 157.68 0.176134 -0.731082 0
M  V30 1683 H 159.651 -0.159815 -2.97972 0
M  V30 1684 C 158.4 1.61306 -3.08019 0
M  V30 1685 H 157.723 1.1678 -3.82364 0
M  V30 1686 H 159.163 2.18872 -3.63141 0
M  V30 1687 C 157.622 2.55848 -2.19188 0
M  V30 1688 O 158.152 3.58799 -1.80626 0
M  V30 1689 N 156.358 2.2516 -1.83715 0
M  V30 1690 H 155.905 1.41476 -2.15273 0
M  V30 1691 H 155.863 2.8867 -1.24567 0
M  V30 1692 N 159.635 1.57281 -0.100228 0
M  V30 1693 C 160.582 2.14305 0.856858 0
M  V30 1694 C 161.552 1.06296 1.27634 0
M  V30 1695 O 162.737 1.34109 1.35718 0
M  V30 1696 C 159.877 2.73184 2.10866 0
M  V30 1697 C 158.99 3.95442 1.73925 0
M  V30 1698 C 158.125 4.42468 2.93931 0
M  V30 1699 C 157.164 5.57303 2.5314 0
M  V30 1700 N 156.301 5.99158 3.65997 0
M  V30 1701 H 161.141 2.95772 0.363726 0
M  V30 1702 H 158.678 1.46139 0.167858 0
M  V30 1703 H 160.636 3.05442 2.84185 0
M  V30 1704 H 159.266 1.94437 2.57671 0
M  V30 1705 H 158.318 3.69464 0.905554 0
M  V30 1706 H 159.63 4.78769 1.39935 0
M  V30 1707 H 158.784 4.76537 3.75496 0
M  V30 1708 H 157.523 3.58052 3.31134 0
M  V30 1709 H 156.528 5.22857 1.70003 0
M  V30 1710 H 157.753 6.43471 2.17075 0
M  V30 1711 H 155.699 5.17687 4.02909 0
M  V30 1712 H 155.616 6.77295 3.35869 0
M  V30 1713 H 156.884 6.3786 4.48057 0
M  V30 1714 N 161.113 -0.173488 1.56642 0
M  V30 1715 C 162.353 -0.896984 1.83667 0
M  V30 1716 C 162.717 -1.79523 0.680842 0
M  V30 1717 O 163.918 -2.55616 0.831488 0
M  V30 1718 C 162.189 -1.67351 3.15798 0
M  V30 1719 S 163.748 -2.44607 3.64298 0
M  V30 1720 H 160.566 -0.300464 0.644393 0
M  V30 1721 H 163.168 -0.158775 1.94854 0
M  V30 1722 H 161.872 -1.00462 3.97914 0
M  V30 1723 H 161.403 -2.45313 3.07546 0
M  V30 1724 H 163.418 -3.69261 3.31452 0
M  V30 1725 N 162.591 -1.51276 -0.441967 0
M  V30 1726 C 163.524 -1.66933 -1.55591 0
M  V30 1727 C 164.502 -0.516958 -1.54163 0
M  V30 1728 O 165.686 -0.740209 -1.73358 0
M  V30 1729 C 162.813 -1.67866 -2.94174 0
M  V30 1730 C 161.859 -2.89013 -3.13646 0
M  V30 1731 S 162.692 -4.49897 -2.90436 0
M  V30 1732 C 163.848 -4.53568 -4.31308 0
M  V30 1733 H 164.081 -2.61155 -1.42076 0
M  V30 1734 H 161.614 -1.40902 -0.631341 0
M  V30 1735 H 163.572 -1.69089 -3.74058 0
M  V30 1736 H 162.233 -0.748296 -3.05056 0
M  V30 1737 H 161.426 -2.86054 -4.14957 0
M  V30 1738 H 161.028 -2.85509 -2.4158 0
M  V30 1739 H 163.32 -4.28924 -5.24434 0
M  V30 1740 H 164.263 -5.55355 -4.39303 0
M  V30 1741 H 164.671 -3.82943 -4.14747 0
M  V30 1742 N 164.069 0.697108 -1.41344 0
M  V30 1743 C 165.485 1.00751 -1.2378 0
M  V30 1744 C 165.685 2.01105 -0.126066 0
M  V30 1745 O 164.741 2.47295 0.51004 0
M  V30 1746 C 166.054 1.53359 -2.58653 0
M  V30 1747 C 167.602 1.6525 -2.65822 0
M  V30 1748 C 168.077 2.2126 -4.01009 0
M  V30 1749 N 169.568 2.28622 -4.02847 0
M  V30 1750 C 170.303 2.72984 -5.04249 0
M  V30 1751 N 169.799 3.16962 -6.16041 0
M  V30 1752 N 171.592 2.72534 -4.91611 0
M  V30 1753 H 163.743 0.0322662 -2.12375 0
M  V30 1754 H 166.006 0.0768853 -0.944877 0
M  V30 1755 H 165.712 0.870773 -3.4075 0
M  V30 1756 H 165.586 2.51597 -2.81032 0
M  V30 1757 H 167.973 2.30644 -1.84086 0
M  V30 1758 H 168.054 0.655614 -2.47256 0
M  V30 1759 H 167.698 1.56482 -4.83193 0
M  V30 1760 H 167.628 3.21698 -4.16915 0
M  V30 1761 H 170.119 1.97585 -3.22131 0
M  V30 1762 H 170.432 3.49434 -6.89287 0
M  V30 1763 H 168.777 3.14875 -6.1958 0
M  V30 1764 H 171.968 2.37525 -4.0336 0
M  V30 1765 H 172.141 3.06789 -5.70775 0
M  V30 1766 N 165.547 1.27147 0.931209 0
M  V30 1767 C 166.495 1.09398 2.05268 0
M  V30 1768 C 167.489 0.0180591 1.6939 0
M  V30 1769 O 168.695 0.17551 1.79142 0
M  V30 1770 H 165.07 0.336986 0.672268 0
M  V30 1771 H 167.041 2.04416 2.17386 0
M  V30 1772 C 165.79 0.75424 3.39421 0
M  V30 1773 H 165.113 1.57404 3.67511 0
M  V30 1774 H 166.553 0.669903 4.18674 0
M  V30 1775 C 165.012 -0.541197 3.32525 0
M  V30 1776 O 165.542 -1.57664 3.69466 0
M  V30 1777 N 163.748 -0.535517 2.85623 0
M  V30 1778 H 163.295 0.307511 2.55758 0
M  V30 1779 H 163.253 -1.40236 2.81392 0
M  V30 1780 N 167.025 -1.13721 1.09112 0
M  V30 1781 C 168.273 -1.84559 0.823562 0
M  V30 1782 C 168.594 -1.83754 -0.652658 0
M  V30 1783 O 167.864 -1.29102 -1.47342 0
M  V30 1784 H 166.444 -0.683376 0.301673 0
M  V30 1785 H 169.106 -1.37771 1.37859 0
M  V30 1786 H 168.202 -2.8917 1.17419 0
M  V30 1787 N 168.503 -0.877838 -1.30888 0
M  V30 1788 C 169.914 -0.544193 -1.78593 0
M  V30 1789 C 170.265 0.939301 -1.72254 0
M  V30 1790 O 169.39 1.7337 -1.29505 0
M  V30 1791 C 169.985 -0.98105 -3.24285 0
M  V30 1792 C 168.544 -0.698935 -3.69854 0
M  V30 1793 C 167.691 -1.168 -2.51502 0
M  V30 1794 H 170.642 -1.06278 -1.17859 0
M  V30 1795 H 170.663 -0.307009 -3.79259 0
M  V30 1796 H 170.175 -2.06079 -3.28866 0
M  V30 1797 H 168.276 0.369112 -3.70767 0
M  V30 1798 H 168.389 -1.28148 -4.61644 0
M  V30 1799 H 166.753 -0.587535 -2.47831 0
M  V30 1800 H 167.536 -2.25533 -2.58824 0
M  V30 1801 N 169.982 1.44106 -0.638065 0
M  V30 1802 C 170.93 2.3248 0.0748149 0
M  V30 1803 C 171.924 1.47746 0.828702 0
M  V30 1804 O 173.13 1.64049 0.740816 0
M  V30 1805 H 169.505 0.750771 0.0429686 0
M  V30 1806 H 171.476 2.90348 -0.688504 0
M  V30 1807 C 170.225 3.31843 1.03805 0
M  V30 1808 H 169.548 3.97059 0.467375 0
M  V30 1809 H 170.988 3.96345 1.50622 0
M  V30 1810 C 169.447 2.61291 2.1267 0
M  V30 1811 O 169.977 2.41702 3.20847 0
M  V30 1812 N 168.183 2.20915 1.88798 0
M  V30 1813 H 167.73 2.37047 1.00829 0
M  V30 1814 H 167.688 1.74038 2.61836 0
M  V30 1815 N 171.46 0.379036 1.52974 0
M  V30 1816 C 172.423 -0.448865 2.24762 0
M  V30 1817 C 173.423 -0.998689 1.26027 0
M  V30 1818 O 174.613 -0.882313 1.50203 0
M  V30 1819 C 171.745 -1.62872 2.99476 0
M  V30 1820 H 172.938 0.179491 2.99362 0
M  V30 1821 H 170.491 0.13096 1.5575 0
M  V30 1822 H 171.226 -2.29479 2.29151 0
M  V30 1823 H 171.011 -1.24128 3.71934 0
M  V30 1824 H 172.501 -2.2151 3.5401 0
M  V30 1825 N 172.938 -1.57226 0.108567 0
M  V30 1826 C 173.868 -2.17778 -0.84232 0
M  V30 1827 C 174.849 -1.11487 -1.2847 0
M  V30 1828 O 176.034 -1.39681 -1.34918 0
M  V30 1829 C 173.164 -2.76888 -2.09644 0
M  V30 1830 C 172.118 -3.88669 -1.79221 0
M  V30 1831 C 171.444 -4.34541 -3.11574 0
M  V30 1832 C 172.744 -5.11251 -1.06864 0
M  V30 1833 H 174.438 -2.97489 -0.337774 0
M  V30 1834 H 171.984 -1.43097 -0.161025 0
M  V30 1835 H 173.937 -3.17904 -2.76614 0
M  V30 1836 H 172.661 -1.94451 -2.62405 0
M  V30 1837 H 171.32 -3.48213 -1.14644 0
M  V30 1838 H 170.968 -3.48977 -3.62249 0
M  V30 1839 H 170.668 -5.09914 -2.91996 0
M  V30 1840 H 172.192 -4.782 -3.7968 0
M  V30 1841 H 173.606 -5.49352 -1.63968 0
M  V30 1842 H 172.003 -5.9214 -0.974178 0
M  V30 1843 H 173.073 -4.8487 -0.0536168 0
M  V30 1844 N 174.416 0.165178 -1.56732 0
M  V30 1845 C 175.665 0.879143 -1.81532 0
M  V30 1846 C 175.978 1.83144 -0.686842 0
M  V30 1847 O 177.184 2.58823 -0.819944 0
M  V30 1848 C 175.64 1.61388 -3.21686 0
M  V30 1849 C 175.248 0.704904 -4.4242 0
M  V30 1850 C 176.992 2.3157 -3.55774 0
M  V30 1851 C 174.899 1.44022 -5.73595 0
M  V30 1852 H 173.829 0.332033 -0.676957 0
M  V30 1853 H 176.48 0.132008 -1.83025 0
M  V30 1854 H 174.862 2.40599 -3.14529 0
M  V30 1855 H 176.036 -0.0506815 -4.60772 0
M  V30 1856 H 174.351 0.112419 -4.16248 0
M  V30 1857 H 176.948 2.8719 -4.51028 0
M  V30 1858 H 177.291 3.07201 -2.8095 0
M  V30 1859 H 177.824 1.59297 -3.64513 0
M  V30 1860 H 174.563 0.72612 -6.51466 0
M  V30 1861 H 174.083 2.16898 -5.5921 0
M  V30 1862 H 175.762 1.98606 -6.15764 0
M  V30 1863 N 175.894 1.51508 0.433938 0
M  V30 1864 C 176.857 1.72473 1.50949 0
M  V30 1865 C 177.857 0.594725 1.49398 0
M  V30 1866 O 179.047 0.862315 1.5136 0
M  V30 1867 C 176.179 1.78431 2.90474 0
M  V30 1868 H 177.372 2.68467 1.33662 0
M  V30 1869 H 174.925 1.41549 0.662836 0
M  V30 1870 H 175.66 0.842645 3.13161 0
M  V30 1871 H 175.445 2.60558 2.93005 0
M  V30 1872 H 176.935 1.96479 3.68491 0
M  V30 1873 N 177.372 -0.689602 1.41712 0
M  V30 1874 C 178.597 -1.48329 1.44959 0
M  V30 1875 C 179.022 -1.8801 0.0581283 0
M  V30 1876 O 178.38 -1.55026 -0.940035 0
M  V30 1877 C 178.428 -2.71835 2.36935 0
M  V30 1878 O 177.532 -3.69549 1.8305 0
M  V30 1879 H 176.873 -0.446199 0.491734 0
M  V30 1880 H 179.403 -0.847127 1.86239 0
M  V30 1881 H 179.413 -3.20076 2.53013 0
M  V30 1882 H 178.088 -2.42291 3.38035 0
M  V30 1883 H 176.665 -3.2851 1.76452 0
M  V30 1884 N 178.85 -1.27639 -0.924453 0
M  V30 1885 C 179.78 -1.13166 -2.04244 0
M  V30 1886 C 180.761 -0.032256 -1.70069 0
M  V30 1887 O 181.946 -0.207328 -1.9309 0
M  V30 1888 C 179.076 -0.781496 -3.38393 0
M  V30 1889 C 178.03 -1.83449 -3.86692 0
M  V30 1890 C 177.356 -1.33822 -5.17683 0
M  V30 1891 C 178.656 -3.23917 -4.09726 0
M  V30 1892 H 180.35 -2.06689 -2.1661 0
M  V30 1893 H 177.896 -0.995136 -1.04082 0
M  V30 1894 H 179.849 -0.667057 -4.16087 0
M  V30 1895 H 178.573 0.189439 -3.2605 0
M  V30 1896 H 177.232 -1.93789 -3.11193 0
M  V30 1897 H 176.88 -0.35665 -5.01734 0
M  V30 1898 H 176.58 -2.04224 -5.50968 0
M  V30 1899 H 178.104 -1.23679 -5.97943 0
M  V30 1900 H 179.518 -3.16559 -4.77978 0
M  V30 1901 H 177.915 -3.92059 -4.54324 0
M  V30 1902 H 178.985 -3.68729 -3.14908 0
M  V30 1903 N 180.328 1.1314 -1.09713 0
M  V30 1904 C 181.291 2.16831 -0.742751 0
M  V30 1905 C 182.291 1.59159 0.229129 0
M  V30 1906 O 183.481 1.74199 0.00693237 0
M  V30 1907 C 180.613 3.40756 -0.0989168 0
M  V30 1908 H 181.806 2.49695 -1.66109 0
M  V30 1909 H 179.359 1.2802 -0.896699 0
M  V30 1910 H 180.094 3.13485 0.830514 0
M  V30 1911 H 179.879 3.83888 -0.798265 0
M  V30 1912 H 181.369 4.17386 0.133524 0
M  V30 1913 N 181.806 0.884767 1.30421 0
M  V30 1914 C 182.736 0.367574 2.30589 0
M  V30 1915 C 183.717 -0.549464 1.60981 0
M  V30 1916 O 184.902 -0.46336 1.88591 0
M  V30 1917 C 182.032 -0.418944 3.44764 0
M  V30 1918 C 180.986 0.406316 4.26067 0
M  V30 1919 C 180.312 -0.506793 5.32293 0
M  V30 1920 C 181.612 1.64832 4.95608 0
M  V30 1921 H 183.306 1.20462 2.74097 0
M  V30 1922 H 180.852 0.580695 1.31772 0
M  V30 1923 H 182.805 -0.791395 4.13902 0
M  V30 1924 H 181.529 -1.28964 3.0006 0
M  V30 1925 H 180.188 0.760903 3.58617 0
M  V30 1926 H 179.836 -1.37519 4.83836 0
M  V30 1927 H 179.536 0.0415828 5.87585 0
M  V30 1928 H 181.06 -0.875764 6.04287 0
M  V30 1929 H 182.474 1.34646 5.57264 0
M  V30 1930 H 180.871 2.13688 5.60765 0
M  V30 1931 H 181.941 2.39284 4.21748 0
M  V30 1932 N 183.284 -1.43765 0.645699 0
M  V30 1933 C 184.532 -2.01499 0.155731 0
M  V30 1934 C 184.853 -1.51151 -1.232 0
M  V30 1935 O 184.123 -0.721044 -1.82148 0
M  V30 1936 H 182.703 -0.745003 0.0545817 0
M  V30 1937 H 185.365 -1.76075 0.835677 0
M  V30 1938 H 184.461 -3.1181 0.134577 0
M  V30 1939 N 184.763 -0.387143 -1.52771 0
M  V30 1940 C 186.04 0.253197 -1.93954 0
M  V30 1941 C 186.42 1.64545 -1.32243 0
M  V30 1942 O 185.768 2.23191 -0.489699 0
M  V30 1943 C 185.978 0.281722 -3.47861 0
M  V30 1944 C 187.326 0.511715 -4.21505 0
M  V30 1945 O 188.35 0.362023 -3.54356 0
M  V30 1946 O 187.209 0.804847 -5.40541 0
M  V30 1947 H 184.303 0.156845 -0.811991 0
M  V30 1948 H 186.849 -0.441494 -1.63856 0
M  V30 1949 H 185.621 -0.693571 -3.85104 0
M  V30 1950 H 185.244 1.02142 -3.84256 0
M  V30 1951 N 186.241 1.57166 -0.116904 0
M  V30 1952 C 187.171 2.18222 0.830759 0
M  V30 1953 C 188.152 1.12167 1.27877 0
M  V30 1954 O 189.337 1.40394 1.34176 0
M  V30 1955 C 186.467 2.77996 2.08172 0
M  V30 1956 C 185.421 3.89614 1.77157 0
M  V30 1957 C 184.747 4.36187 3.09265 0
M  V30 1958 C 186.047 5.1181 1.04151 0
M  V30 1959 H 187.741 2.97664 0.321992 0
M  V30 1960 H 185.287 1.4318 0.153434 0
M  V30 1961 H 187.24 3.19366 2.74924 0
M  V30 1962 H 185.964 1.9584 2.6137 0
M  V30 1963 H 184.623 3.48816 1.12796 0
M  V30 1964 H 184.271 3.50893 3.60393 0
M  V30 1965 H 183.971 5.11455 2.89288 0
M  V30 1966 H 185.495 4.80207 3.77139 0
M  V30 1967 H 186.909 5.50214 1.61052 0
M  V30 1968 H 185.306 5.92648 0.942762 0
M  V30 1969 H 186.376 4.84892 0.0279022 0
M  V30 1970 N 187.719 -0.156864 1.56817 0
M  V30 1971 C 188.968 -0.869504 1.81996 0
M  V30 1972 C 189.281 -1.82777 0.696545 0
M  V30 1973 O 190.487 -2.58384 0.833658 0
M  V30 1974 C 188.943 -1.59679 3.22538 0
M  V30 1975 C 188.551 -0.681431 4.42787 0
M  V30 1976 C 190.295 -2.2968 3.56997 0
M  V30 1977 C 188.202 -1.40978 5.74351 0
M  V30 1978 H 187.132 -0.328438 0.678708 0
M  V30 1979 H 189.783 -0.1223 1.83092 0
M  V30 1980 H 188.165 -2.38927 3.158 0
M  V30 1981 H 189.339 0.0751166 4.60739 0
M  V30 1982 H 187.654 -0.0903431 4.16302 0
M  V30 1983 H 190.251 -2.84794 4.52544 0
M  V30 1984 H 190.594 -3.05707 2.82576 0
M  V30 1985 H 191.127 -1.57361 3.65352 0
M  V30 1986 H 187.866 -0.691561 6.51842 0
M  V30 1987 H 187.386 -2.13929 5.60352 0
M  V30 1988 H 189.065 -1.95337 6.16808 0
M  V30 1989 N 189.197 -1.51736 -0.425897 0
M  V30 1990 C 190.427 -1.68549 -1.19476 0
M  V30 1991 C 190.835 -0.387288 -1.85194 0
M  V30 1992 O 190.178 0.645142 -1.71999 0
M  V30 1993 C 190.24 -2.75275 -2.31223 0
M  V30 1994 C 189.904 -4.17534 -1.8578 0
M  V30 1995 C 190.901 -5.01936 -1.35485 0
M  V30 1996 C 188.586 -4.6369 -1.93123 0
M  V30 1997 C 190.58 -6.30559 -0.931347 0
M  V30 1998 C 188.267 -5.92307 -1.50384 0
M  V30 1999 C 189.265 -6.75569 -1.00473 0
M  V30 2000 O 188.953 -8.0178 -0.583452 0
M  V30 2001 H 188.685 -0.568525 -0.365725 0
M  V30 2002 H 191.239 -1.98982 -0.509444 0
M  V30 2003 H 189.469 -2.40182 -3.03067 0
M  V30 2004 H 191.158 -2.80853 -2.93047 0
M  V30 2005 H 191.924 -4.67475 -1.29197 0
M  V30 2006 H 187.803 -3.98997 -2.30916 0
M  V30 2007 H 191.347 -6.95498 -0.541084 0
M  V30 2008 H 187.244 -6.2628 -1.56346 0
M  V30 2009 H 188.012 -8.1543 -0.708275 0
M  V30 2010 N 190.675 0.682077 -1.42076 0
M  V30 2011 C 191.921 1.44428 -1.42367 0
M  V30 2012 C 192.254 1.94164 -0.0373056 0
M  V30 2013 O 191.529 1.70429 0.937239 0
M  V30 2014 C 191.812 2.64654 -2.44194 0
M  V30 2015 C 191.665 2.20596 -3.91991 0
M  V30 2016 C 192.984 3.66865 -2.431 0
M  V30 2017 H 190.103 0.523834 -0.518428 0
M  V30 2018 H 192.745 0.77576 -1.73442 0
M  V30 2019 H 190.895 3.2169 -2.17826 0
M  V30 2020 H 192.567 1.68783 -4.29313 0
M  V30 2021 H 190.81 1.52242 -4.06208 0
M  V30 2022 H 191.481 3.06921 -4.58807 0
M  V30 2023 H 193.957 3.19531 -2.66532 0
M  V30 2024 H 192.833 4.48577 -3.16339 0
M  V30 2025 H 193.094 4.17493 -1.45437 0
M  V30 2026 N 192.153 1.28127 0.917671 0
M  V30 2027 C 193.399 1.15223 1.66888 0
M  V30 2028 C 193.732 -0.299293 1.9188 0
M  V30 2029 O 193.007 -1.21805 1.51637 0
M  V30 2030 C 193.29 1.94706 3.02922 0
M  V30 2031 C 193.143 3.47898 2.85109 0
M  V30 2032 C 194.462 1.75939 4.03402 0
M  V30 2033 H 191.581 0.419946 0.605652 0
M  V30 2034 H 194.223 1.57398 1.06423 0
M  V30 2035 H 192.373 1.58864 3.54534 0
M  V30 2036 H 194.045 3.93624 2.40537 0
M  V30 2037 H 192.288 3.7373 2.20246 0
M  V30 2038 H 192.959 3.98765 3.81694 0
M  V30 2039 H 195.435 2.07209 3.60837 0
M  V30 2040 H 194.311 2.33931 4.96556 0
M  V30 2041 H 194.572 0.709877 4.36364 0
M  V30 2042 N 193.631 -1.12557 1.10312 0
M  V30 2043 C 194.88 -1.83395 0.839588 0
M  V30 2044 C 195.193 -1.84939 -0.636929 0
M  V30 2045 O 196.399 -2.51761 -1.01631 0
M  V30 2046 C 194.855 -3.29303 1.45215 0
M  V30 2047 C 194.463 -3.36122 2.96186 0
M  V30 2048 C 196.207 -4.05121 1.26796 0
M  V30 2049 C 194.114 -4.76357 3.50483 0
M  V30 2050 H 193.044 -0.687133 0.310425 0
M  V30 2051 H 195.695 -1.26746 1.32694 0
M  V30 2052 H 194.077 -3.85812 0.892469 0
M  V30 2053 H 195.251 -2.89559 3.58458 0
M  V30 2054 H 193.566 -2.73776 3.13745 0
M  V30 2055 H 196.163 -5.08668 1.64806 0
M  V30 2056 H 196.506 -4.15773 0.209409 0
M  V30 2057 H 197.039 -3.54967 1.79563 0
M  V30 2058 H 193.778 -4.70899 4.55998 0
M  V30 2059 H 193.298 -5.23377 2.92978 0
M  V30 2060 H 194.977 -5.45294 3.48228 0
M  V30 2061 N 195.109 -0.891671 -1.2995 0
M  V30 2062 C 196.386 -0.433307 -1.9074 0
M  V30 2063 C 196.766 1.08646 -1.80995 0
M  V30 2064 O 196.114 1.92476 -1.23147 0
M  V30 2065 C 196.324 -0.938895 -3.36134 0
M  V30 2066 C 197.672 -0.977829 -4.13187 0
M  V30 2067 O 198.696 -0.886015 -3.45005 0
M  V30 2068 O 197.555 -1.11453 -5.35015 0
M  V30 2069 H 194.649 -0.133699 -0.816121 0
M  V30 2070 H 197.195 -0.981011 -1.38471 0
M  V30 2071 H 195.967 -1.98281 -3.37343 0
M  V30 2072 H 195.59 -0.37074 -3.95868 0
M  V30 2073 N 196.587 1.43421 -0.653314 0
M  V30 2074 C 197.517 2.33487 0.0246656 0
M  V30 2075 C 198.498 1.49475 0.811863 0
M  V30 2076 O 199.683 1.78139 0.773322 0
M  V30 2077 C 196.813 3.32841 0.99166 0
M  V30 2078 C 195.767 4.26842 0.314568 0
M  V30 2079 C 195.093 5.16236 1.39302 0
M  V30 2080 C 196.393 5.16243 -0.793095 0
M  V30 2081 H 198.087 2.90427 -0.727481 0
M  V30 2082 H 195.633 1.39649 -0.351287 0
M  V30 2083 H 197.586 3.94747 1.47487 0
M  V30 2084 H 196.31 2.74158 1.77497 0
M  V30 2085 H 194.969 3.663 -0.148199 0
M  V30 2086 H 194.617 4.53891 2.16776 0
M  V30 2087 H 194.317 5.79948 0.945223 0
M  V30 2088 H 195.841 5.81015 1.87759 0
M  V30 2089 H 197.255 5.71958 -0.392039 0
M  V30 2090 H 195.652 5.88676 -1.16536 0
M  V30 2091 H 196.722 4.55927 -1.65103 0
M  V30 2092 N 198.065 0.39524 1.52563 0
M  V30 2093 C 199.476 -0.0774719 1.86539 0
M  V30 2094 C 199.827 -1.45641 1.31466 0
M  V30 2095 O 198.952 -2.06459 0.648367 0
M  V30 2096 C 199.547 -0.147356 3.38479 0
M  V30 2097 C 198.106 -0.564373 3.72145 0
M  V30 2098 C 197.253 0.269919 2.75983 0
M  V30 2099 H 200.204 0.612876 1.46388 0
M  V30 2100 H 200.225 -0.965343 3.68051 0
M  V30 2101 H 199.737 0.856387 3.78534 0
M  V30 2102 H 197.838 -1.57527 3.37663 0
M  V30 2103 H 197.951 -0.318402 4.78041 0
M  V30 2104 H 196.315 -0.265696 2.5331 0
M  V30 2105 H 197.098 1.27175 3.18875 0
M  V30 2106 N 199.544 -1.57102 0.125237 0
M  V30 2107 C 200.793 -1.94582 -0.531095 0
M  V30 2108 C 201.106 -1.01126 -1.6743 0
M  V30 2109 O 202.312 -1.28097 -2.39381 0
M  V30 2110 C 200.768 -3.45839 -0.996164 0
M  V30 2111 C 200.376 -4.47842 0.118926 0
M  V30 2112 C 202.12 -3.92227 -1.62352 0
M  V30 2113 C 200.027 -5.90284 -0.363192 0
M  V30 2114 H 198.957 -0.726391 -0.20217 0
M  V30 2115 H 201.608 -1.82339 0.206092 0
M  V30 2116 H 199.99 -3.53338 -1.78796 0
M  V30 2117 H 201.164 -4.52018 0.895358 0
M  V30 2118 H 199.479 -4.11243 0.653324 0
M  V30 2119 H 202.076 -4.96069 -1.99548 0
M  V30 2120 H 202.419 -3.32552 -2.50429 0
M  V30 2121 H 202.952 -3.87554 -0.897019 0
M  V30 2122 H 199.691 -6.53728 0.481679 0
M  V30 2123 H 199.211 -5.89515 -1.10597 0
M  V30 2124 H 200.89 -6.41752 -0.822377 0
M  V30 2125 N 201.022 0.148545 -1.56898 0
M  V30 2126 C 201.97 1.20265 -1.99096 0
M  V30 2127 C 202.964 1.44559 -0.883123 0
M  V30 2128 O 204.17 1.4487 -1.0683 0
M  V30 2129 H 200.545 0.404786 -0.63376 0
M  V30 2130 H 202.516 0.82004 -2.86911 0
M  V30 2131 C 201.265 2.52886 -2.3863 0
M  V30 2132 H 200.588 2.35021 -3.23427 0
M  V30 2133 H 202.028 3.25274 -2.7198 0
M  V30 2134 C 200.487 3.13315 -1.23837 0
M  V30 2135 O 201.017 3.98077 -0.538268 0
M  V30 2136 N 199.223 2.72742 -1.00301 0
M  V30 2137 H 198.77 2.03912 -1.5741 0
M  V30 2138 H 198.728 3.13507 -0.236838 0
M  V30 2139 N 202.5 1.5196 0.417844 0
M  V30 2140 C 203.746 1.65836 1.16732 0
M  V30 2141 C 204.079 0.382881 1.90388 0
M  V30 2142 O 203.354 -0.618368 1.84408 0
M  V30 2143 C 203.637 2.87466 2.16876 0
M  V30 2144 C 203.49 4.25041 1.47174 0
M  V30 2145 C 204.809 3.04613 3.17646 0
M  V30 2146 H 201.928 0.603515 0.423011 0
M  V30 2147 H 204.57 1.84494 0.454105 0
M  V30 2148 H 202.72 2.71689 2.777 0
M  V30 2149 H 204.392 4.52527 0.895376 0
M  V30 2150 H 202.635 4.26843 0.773806 0
M  V30 2151 H 203.306 5.06176 2.20204 0
M  V30 2152 H 205.782 3.1923 2.66892 0
M  V30 2153 H 204.658 3.91247 3.8499 0
M  V30 2154 H 204.919 2.17541 3.84874 0
M  V30 2155 N 203.978 -0.674533 1.42435 0
M  V30 2156 C 205.225 -1.43459 1.42919 0
M  V30 2157 C 205.553 -1.94446 0.0457312 0
M  V30 2158 O 204.808 -1.7132 -0.94593 0
M  V30 2159 C 205.107 -2.64767 2.40069 0
M  V30 2160 C 204.773 -2.3232 3.86443 0
M  V30 2161 C 203.435 -2.23182 4.26314 0
M  V30 2162 C 205.787 -2.05977 4.78773 0
M  V30 2163 C 203.115 -1.85827 5.56494 0
M  V30 2164 C 205.467 -1.70125 6.09295 0
M  V30 2165 C 204.131 -1.59498 6.48164 0
M  V30 2166 H 203.401 -0.524952 0.522978 0
M  V30 2167 H 206.048 -0.769097 1.75377 0
M  V30 2168 H 204.353 -3.36349 2.00939 0
M  V30 2169 H 206.05 -3.22949 2.37707 0
M  V30 2170 H 202.64 -2.40334 3.54877 0
M  V30 2171 H 206.824 -2.11969 4.48757 0
M  V30 2172 H 202.08 -1.76168 5.8547 0
M  V30 2173 H 206.254 -1.48767 6.80324 0
M  V30 2174 H 203.881 -1.30322 7.48946 0
M  V30 2175 N 205.456 -1.28612 -0.910864 0
M  V30 2176 C 206.403 -1.12786 -2.01365 0
M  V30 2177 C 207.373 -0.024201 -1.66082 0
M  V30 2178 O 208.558 -0.189667 -1.89855 0
M  V30 2179 C 205.698 -0.798743 -3.35729 0
M  V30 2180 C 204.811 -1.98173 -3.83864 0
M  V30 2181 C 203.946 -1.59298 -5.06752 0
M  V30 2182 C 202.985 -2.74245 -5.47226 0
M  V30 2183 N 202.122 -2.35842 -6.61304 0
M  V30 2184 H 206.962 -2.07142 -2.14234 0
M  V30 2185 H 204.499 -1.03093 -1.0493 0
M  V30 2186 H 206.457 -0.588662 -4.13026 0
M  V30 2187 H 205.087 0.10789 -3.2262 0
M  V30 2188 H 204.139 -2.30386 -3.02699 0
M  V30 2189 H 205.451 -2.84343 -4.09818 0
M  V30 2190 H 204.605 -1.34513 -5.916 0
M  V30 2191 H 203.344 -0.702618 -4.82612 0
M  V30 2192 H 202.349 -2.99725 -4.60918 0
M  V30 2193 H 203.574 -3.63928 -5.73353 0
M  V30 2194 H 201.52 -1.49279 -6.38789 0
M  V30 2195 H 201.437 -3.15546 -6.86998 0
M  V30 2196 H 202.705 -2.14348 -7.4945 0
M  V30 2197 N 206.934 1.1197 -1.10907 0
M  V30 2198 C 207.864 2.19928 -0.784473 0
M  V30 2199 C 208.845 1.6833 0.244726 0
M  V30 2200 O 210.03 1.93892 0.109418 0
M  V30 2201 C 207.16 3.46597 -0.220827 0
M  V30 2202 C 206.114 4.11376 -1.18127 0
M  V30 2203 C 205.44 5.32554 -0.478594 0
M  V30 2204 C 206.74 4.56945 -2.52979 0
M  V30 2205 H 208.434 2.47337 -1.68715 0
M  V30 2206 H 205.98 1.18879 -0.812642 0
M  V30 2207 H 207.933 4.21396 0.0184278 0
M  V30 2208 H 206.657 3.1863 0.717113 0
M  V30 2209 H 205.316 3.38564 -1.40606 0
M  V30 2210 H 204.964 5.00856 0.463976 0
M  V30 2211 H 204.664 5.76844 -1.11912 0
M  V30 2212 H 206.188 6.10096 -0.248 0
M  V30 2213 H 207.602 5.23093 -2.3462 0
M  V30 2214 H 205.999 5.1203 -3.12962 0
M  V30 2215 H 207.069 3.70676 -3.12614 0
M  V30 2216 N 208.412 0.89855 1.29475 0
M  V30 2217 C 209.342 0.39201 2.30186 0
M  V30 2218 C 210.323 -0.532359 1.61555 0
M  V30 2219 O 211.508 -0.443331 1.89072 0
M  V30 2220 C 208.638 -0.382353 3.45189 0
M  V30 2221 C 207.592 0.451483 4.25612 0
M  V30 2222 C 206.918 -0.450307 5.328 0
M  V30 2223 C 208.218 1.70079 4.93832 0
M  V30 2224 H 209.912 1.23362 2.72804 0
M  V30 2225 H 207.458 0.594638 1.31149 0
M  V30 2226 H 209.411 -0.747451 4.14718 0
M  V30 2227 H 208.135 -1.25774 3.01411 0
M  V30 2228 H 206.794 0.798897 3.57789 0
M  V30 2229 H 206.442 -1.32379 4.85268 0
M  V30 2230 H 206.142 0.103902 5.87508 0
M  V30 2231 H 207.666 -0.811623 6.05182 0
M  V30 2232 H 209.08 1.40549 5.55805 0
M  V30 2233 H 207.477 2.19623 5.58467 0
M  V30 2234 H 208.547 2.43744 4.19186 0
M  V30 2235 N 209.89 -1.43072 0.660911 0
M  V30 2236 C 210.853 -2.29194 -0.0166406 0
M  V30 2237 C 211.853 -1.42609 -0.742912 0
M  V30 2238 O 213.043 -1.64155 -0.583004 0
M  V30 2239 C 210.175 -3.24831 -1.0343 0
M  V30 2240 H 211.368 -2.90596 0.741208 0
M  V30 2241 H 208.921 -1.5048 0.422532 0
M  V30 2242 H 209.656 -2.68339 -1.82111 0
M  V30 2243 H 209.441 -3.88676 -0.517082 0
M  V30 2244 H 210.931 -3.89451 -1.50723 0
M  V30 2245 N 211.368 -0.403325 -1.52352 0
M  V30 2246 C 212.616 0.174003 -2.0135 0
M  V30 2247 C 212.937 1.46139 -1.29106 0
M  V30 2248 O 212.207 1.91448 -0.415253 0
M  V30 2249 H 210.787 0.0672911 -0.743963 0
M  V30 2250 H 213.449 -0.538235 -1.87321 0
M  V30 2251 H 212.545 0.374254 -3.09848 0
M  V30 2252 N 212.846 1.57033 -0.133567 0
M  V30 2253 C 214.262 1.58035 0.222944 0
M  V30 2254 C 214.462 1.14713 1.6566 0
M  V30 2255 O 213.518 0.841218 2.38075 0
M  V30 2256 C 214.831 3.00691 -0.0236116 0
M  V30 2257 C 216.379 3.12973 0.0411512 0
M  V30 2258 C 216.854 4.57654 -0.177899 0
M  V30 2259 N 218.345 4.63033 -0.124365 0
M  V30 2260 C 219.08 5.72771 -0.268553 0
M  V30 2261 N 218.576 6.91206 -0.46972 0
M  V30 2262 N 220.369 5.61718 -0.2071 0
M  V30 2263 H 212.52 1.8349 -1.06981 0
M  V30 2264 H 214.783 0.848677 -0.422436 0
M  V30 2265 H 214.489 3.36726 -1.0153 0
M  V30 2266 H 214.363 3.70614 0.701808 0
M  V30 2267 H 216.75 2.76787 1.02338 0
M  V30 2268 H 216.831 2.45564 -0.716383 0
M  V30 2269 H 216.475 4.94542 -1.15717 0
M  V30 2270 H 216.405 5.23173 0.599797 0
M  V30 2271 H 218.896 3.7789 0.027011 0
M  V30 2272 H 219.209 7.70693 -0.570212 0
M  V30 2273 H 217.554 6.93156 -0.505876 0
M  V30 2274 H 220.745 4.68072 -0.0507986 0
M  V30 2275 H 220.918 6.47195 -0.322909 0
M  V30 2276 N 214.325 -0.140222 1.56975 0
M  V30 2277 C 215.571 -0.848084 1.84876 0
M  V30 2278 C 215.926 -1.78481 0.718481 0
M  V30 2279 O 215.219 -1.89497 -0.283093 0
M  V30 2280 C 215.413 -1.65386 3.16832 0
M  V30 2281 C 215.242 -0.79665 4.42587 0
M  V30 2282 C 214.012 -0.459648 5.03205 0
M  V30 2283 C 216.21 -0.12389 5.14151 0
M  V30 2284 N 214.192 0.410446 6.12526 0
M  V30 2285 C 215.563 0.606064 6.17031 0
M  V30 2286 C 217.618 -0.0452654 4.97879 0
M  V30 2287 C 216.321 1.40723 7.054 0
M  V30 2288 C 218.347 0.742658 5.86718 0
M  V30 2289 C 217.709 1.46087 6.89085 0
M  V30 2290 H 213.808 -0.287946 0.727056 0
M  V30 2291 H 216.392 -0.11304 1.94372 0
M  V30 2292 H 214.563 -2.36009 3.08471 0
M  V30 2293 H 216.295 -2.30541 3.32615 0
M  V30 2294 H 213.05 -0.797006 4.66846 0
M  V30 2295 H 213.474 0.836716 6.7181 0
M  V30 2296 H 218.116 -0.586184 4.18717 0
M  V30 2297 H 215.834 1.95938 7.83986 0
M  V30 2298 H 219.42 0.805574 5.76196 0
M  V30 2299 H 218.3 2.06077 7.56639 0
M  V30 2300 N 215.803 -1.52179 -0.40978 0
M  V30 2301 C 217.214 -1.58377 -0.988615 0
M  V30 2302 C 217.565 -0.423879 -1.91566 0
M  V30 2303 O 216.69 0.455844 -2.11544 0
M  V30 2304 C 217.285 -2.87044 -1.79976 0
M  V30 2305 C 215.844 -2.95722 -2.32863 0
M  V30 2306 C 214.991 -2.53309 -1.12828 0
M  V30 2307 H 217.942 -1.57558 -0.190039 0
M  V30 2308 H 217.963 -2.7236 -2.65707 0
M  V30 2309 H 217.475 -3.71444 -1.12478 0
M  V30 2310 H 215.576 -2.15814 -3.03735 0
M  V30 2311 H 215.689 -3.99951 -2.63773 0
M  V30 2312 H 214.053 -2.07142 -1.48204 0
M  V30 2313 H 214.836 -3.40082 -0.46897 0
M  V30 2314 N 217.281 0.66697 -1.42791 0
M  V30 2315 C 218.528 1.42699 -1.43678 0
M  V30 2316 C 218.856 1.94419 -0.0560425 0
M  V30 2317 O 218.111 1.7182 0.936831 0
M  V30 2318 C 218.41 2.6349 -2.4147 0
M  V30 2319 C 218.076 2.30267 -3.8767 0
M  V30 2320 C 216.738 2.20918 -4.27491 0
M  V30 2321 C 219.09 2.03435 -4.79858 0
M  V30 2322 C 216.418 1.82873 -5.57471 0
M  V30 2323 C 218.77 1.66892 -6.10188 0
M  V30 2324 C 217.434 1.56058 -6.49001 0
M  V30 2325 H 216.704 0.522171 -0.525755 0
M  V30 2326 H 219.351 0.759785 -1.75783 0
M  V30 2327 H 217.656 3.35279 -2.0272 0
M  V30 2328 H 219.353 3.21684 -2.39417 0
M  V30 2329 H 215.943 2.38449 -3.56146 0
M  V30 2330 H 220.127 2.09586 -4.49875 0
M  V30 2331 H 215.383 1.7306 -5.86396 0
M  V30 2332 H 219.557 1.45157 -6.81104 0
M  V30 2333 H 217.184 1.26348 -7.49627 0
M  V30 2334 N 218.759 1.29093 0.90403 0
M  V30 2335 C 220.036 1.075 1.63411 0
M  V30 2336 C 220.416 -0.382346 2.07609 0
M  V30 2337 O 219.764 -1.37031 1.82851 0
M  V30 2338 C 219.974 2.05858 2.81822 0
M  V30 2339 C 221.322 2.36539 3.52611 0
M  V30 2340 O 222.346 2.04019 2.91984 0
M  V30 2341 O 221.205 2.92085 4.61897 0
M  V30 2342 H 218.299 0.411547 0.717327 0
M  V30 2343 H 220.845 1.40449 0.952479 0
M  V30 2344 H 219.617 3.04037 2.46327 0
M  V30 2345 H 219.24 1.73613 3.57693 0
M  V30 2346 N 220.237 -1.11381 1.11499 0
M  V30 2347 C 221.187 -2.15555 0.74298 0
M  V30 2348 C 222.171 -1.58894 -0.253276 0
M  V30 2349 O 223.363 -1.76897 -0.0602918 0
M  V30 2350 C 220.492 -3.42782 0.188481 0
M  V30 2351 C 219.578 -4.064 1.21244 0
M  V30 2352 N 219.969 -4.44864 2.40685 0
M  V30 2353 C 218.267 -4.3333 1.05552 0
M  V30 2354 C 218.968 -4.94715 3.05994 0
M  V30 2355 N 217.944 -4.90909 2.33472 0
M  V30 2356 H 221.746 -2.43074 1.65203 0
M  V30 2357 H 219.26 -1.28401 0.994329 0
M  V30 2358 H 221.257 -4.16789 -0.0961693 0
M  V30 2359 H 219.917 -3.16727 -0.715149 0
M  V30 2360 H 220.928 -4.36876 2.78136 0
M  V30 2361 H 217.605 -4.1698 0.208372 0
M  V30 2362 H 218.995 -5.34103 4.07656 0
M  V30 2363 N 221.715 -0.905404 -1.28997 0
M  V30 2364 C 222.663 -0.377431 -2.29517 0
M  V30 2365 C 223.657 0.526461 -1.61012 0
M  V30 2366 O 224.863 0.40863 -1.753 0
M  V30 2367 H 221.238 -0.103437 -0.744852 0
M  V30 2368 H 223.209 -1.23848 -2.71485 0
M  V30 2369 C 221.958 0.374833 -3.45674 0
M  V30 2370 H 221.281 -0.311474 -3.98585 0
M  V30 2371 H 222.721 0.70903 -4.1803 0
M  V30 2372 C 221.18 1.57963 -2.97572 0
M  V30 2373 O 221.71 2.67886 -2.99333 0
M  V30 2374 N 219.916 1.42375 -2.53333 0
M  V30 2375 H 219.463 0.529466 -2.521 0
M  V30 2376 H 219.421 2.23117 -2.21509 0
M  V30 2377 N 223.193 1.4272 -0.668489 0
M  V30 2378 C 224.47 1.95248 -0.117373 0
M  V30 2379 C 224.85 1.60919 1.36632 0
M  V30 2380 O 224.198 0.902095 2.09939 0
M  V30 2381 C 224.408 3.46927 -0.379806 0
M  V30 2382 C 225.756 4.23588 -0.292923 0
M  V30 2383 O 226.78 3.5482 -0.313204 0
M  V30 2384 O 225.639 5.46017 -0.229697 0
M  V30 2385 H 222.733 0.827 0.00079152 0
M  V30 2386 H 225.279 1.52581 -0.742783 0
M  V30 2387 H 224.051 3.65096 -1.40786 0
M  V30 2388 H 223.674 3.96627 0.277923 0
M  V30 2389 N 224.671 0.411399 1.52136 0
M  V30 2390 C 225.918 -0.163645 2.01838 0
M  V30 2391 C 226.246 -1.4495 1.29691 0
M  V30 2392 O 225.501 -1.91725 0.392431 0
M  V30 2393 C 225.8 -0.455872 3.54481 0
M  V30 2394 C 225.466 0.741055 4.44769 0
M  V30 2395 C 224.128 1.06936 4.69167 0
M  V30 2396 C 226.48 1.54075 4.97906 0
M  V30 2397 C 223.808 2.19851 5.43951 0
M  V30 2398 C 226.16 2.66067 5.73926 0
M  V30 2399 C 224.824 2.99381 5.96596 0
M  V30 2400 H 224.094 -0.0598821 0.738576 0
M  V30 2401 H 226.741 0.553283 1.83333 0
M  V30 2402 H 225.046 -1.2544 3.71177 0
M  V30 2403 H 226.743 -0.913802 3.90449 0
M  V30 2404 H 223.333 0.475192 4.25958 0
M  V30 2405 H 227.517 1.30033 4.78963 0
M  V30 2406 H 222.773 2.46006 5.59724 0
M  V30 2407 H 226.947 3.28419 6.14096 0
M  V30 2408 H 224.574 3.86992 6.54325 0
M  V30 2409 N 226.149 -1.5696 0.141893 0
M  V30 2410 C 227.397 -1.95573 -0.509484 0
M  V30 2411 C 227.718 -1.02746 -1.65736 0
M  V30 2412 O 226.988 -0.0880311 -1.95702 0
M  V30 2413 H 225.568 -0.722115 -0.191205 0
M  V30 2414 H 228.23 -1.93697 0.216196 0
M  V30 2415 H 227.326 -2.99171 -0.889 0
M  V30 2416 N 227.627 0.131896 -1.57047 0
M  V30 2417 C 228.873 0.843179 -1.84441 0
M  V30 2418 C 229.206 1.80129 -0.725749 0
M  V30 2419 O 228.481 1.92624 0.269469 0
M  V30 2420 C 228.764 1.60442 -3.22382 0
M  V30 2421 C 228.617 0.666782 -4.4483 0
M  V30 2422 C 229.936 2.56354 -3.5773 0
M  V30 2423 H 227.055 0.305081 -0.670891 0
M  V30 2424 H 229.697 0.107839 -1.89694 0
M  V30 2425 H 227.847 2.23128 -3.18035 0
M  V30 2426 H 229.519 0.0497646 -4.61273 0
M  V30 2427 H 227.762 -0.022609 -4.33794 0
M  V30 2428 H 228.433 1.23579 -5.37989 0
M  V30 2429 H 230.909 2.0378 -3.62785 0
M  V30 2430 H 229.785 3.06657 -4.5525 0
M  V30 2431 H 230.046 3.38419 -2.84473 0
M  V30 2432 N 229.106 1.52395 0.401703 0
M  V30 2433 C 230.353 1.66817 1.14796 0
M  V30 2434 C 230.681 0.401772 1.90305 0
M  V30 2435 O 229.936 -0.615487 1.85769 0
M  V30 2436 C 230.235 2.84578 2.16217 0
M  V30 2437 C 229.901 4.22513 1.5746 0
M  V30 2438 C 228.563 4.60029 1.41161 0
M  V30 2439 C 230.915 5.0844 1.14622 0
M  V30 2440 C 228.243 5.81144 0.80552 0
M  V30 2441 C 230.595 6.30167 0.55428 0
M  V30 2442 C 229.259 6.66426 0.378482 0
M  V30 2443 H 228.529 0.610428 0.420069 0
M  V30 2444 H 231.176 1.86512 0.434212 0
M  V30 2445 H 229.481 2.59248 2.93764 0
M  V30 2446 H 231.178 2.92933 2.73845 0
M  V30 2447 H 227.768 3.92953 1.71132 0
M  V30 2448 H 231.952 4.80034 1.26021 0
M  V30 2449 H 227.208 6.07855 0.657399 0
M  V30 2450 H 231.382 6.96071 0.213983 0
M  V30 2451 H 229.009 7.60143 -0.0932606 0
M  V30 2452 N 230.584 -0.659388 1.43143 0
M  V30 2453 C 231.514 -1.78422 1.50625 0
M  V30 2454 C 232.495 -1.66216 0.361443 0
M  V30 2455 O 233.68 -1.85404 0.577834 0
M  V30 2456 C 230.81 -3.16815 1.42287 0
M  V30 2457 C 229.764 -3.43777 2.54954 0
M  V30 2458 C 229.09 -4.81905 2.31671 0
M  V30 2459 C 230.39 -3.39134 3.97222 0
M  V30 2460 H 232.084 -1.72417 2.44771 0
M  V30 2461 H 229.63 -0.828084 1.17808 0
M  V30 2462 H 231.583 -3.95253 1.46127 0
M  V30 2463 H 230.307 -3.23534 0.446435 0
M  V30 2464 H 228.966 -2.67707 2.50457 0
M  V30 2465 H 228.614 -4.85294 1.32284 0
M  V30 2466 H 228.314 -5.00906 3.07192 0
M  V30 2467 H 229.838 -5.62609 2.37284 0
M  V30 2468 H 231.252 -4.07518 4.03239 0
M  V30 2469 H 229.649 -3.69671 4.72719 0
M  V30 2470 H 230.719 -2.37426 4.22797 0
M  V30 2471 N 232.062 -1.29571 -0.897171 0
M  V30 2472 C 233.302 -1.18959 -1.66217 0
M  V30 2473 C 233.666 0.254271 -1.90309 0
M  V30 2474 O 234.867 0.483407 -2.64417 0
M  V30 2475 C 233.138 -1.98302 -2.9734 0
M  V30 2476 S 234.697 -2.04253 -3.88364 0
M  V30 2477 H 231.515 -0.424137 -0.570639 0
M  V30 2478 H 234.117 -1.6389 -1.06585 0
M  V30 2479 H 232.821 -3.02342 -2.77521 0
M  V30 2480 H 232.352 -1.53986 -3.62011 0
M  V30 2481 H 234.367 -1.16105 -4.82425 0
M  V30 2482 N 233.54 1.10788 -1.12088 0
M  V30 2483 C 234.487 2.17025 -0.785407 0
M  V30 2484 C 235.457 1.64265 0.246191 0
M  V30 2485 O 236.642 1.90412 0.121584 0
M  V30 2486 C 233.782 3.44249 -0.242177 0
M  V30 2487 C 232.895 4.1098 -1.33115 0
M  V30 2488 C 232.03 5.25911 -0.747741 0
M  V30 2489 C 231.069 5.84538 -1.81609 0
M  V30 2490 N 230.206 6.90853 -1.25167 0
M  V30 2491 H 235.046 2.45066 -1.69548 0
M  V30 2492 H 232.583 1.20297 -0.846582 0
M  V30 2493 H 234.541 4.17101 0.0908026 0
M  V30 2494 H 233.171 3.16571 0.631072 0
M  V30 2495 H 232.223 3.36133 -1.78097 0
M  V30 2496 H 233.535 4.50601 -2.13917 0
M  V30 2497 H 232.689 6.056 -0.365216 0
M  V30 2498 H 231.428 4.87614 0.0915188 0
M  V30 2499 H 230.433 5.03522 -2.20785 0
M  V30 2500 H 231.658 6.249 -2.6585 0
M  V30 2501 H 229.604 6.54562 -0.434174 0
M  V30 2502 H 229.521 7.29166 -1.99633 0
M  V30 2503 H 230.789 7.7433 -0.896259 0
M  V30 2504 N 235.018 0.912232 1.28515 0
M  V30 2505 C 235.948 0.416403 2.29757 0
M  V30 2506 C 236.929 -0.515194 1.6211 0
M  V30 2507 O 238.114 -0.423253 1.89532 0
M  V30 2508 C 235.244 -0.34572 3.45575 0
M  V30 2509 C 234.198 0.496599 4.25109 0
M  V30 2510 C 233.524 -0.393771 5.33248 0
M  V30 2511 C 234.824 1.75307 4.92001 0
M  V30 2512 H 236.518 1.26249 2.7148 0
M  V30 2513 H 234.064 0.608515 1.30511 0
M  V30 2514 H 236.017 -0.703422 4.15488 0
M  V30 2515 H 234.741 -1.2257 3.02728 0
M  V30 2516 H 233.4 0.8368 3.56922 0
M  V30 2517 H 233.048 -1.27225 4.86644 0
M  V30 2518 H 232.748 0.166209 5.87365 0
M  V30 2519 H 234.272 -0.747389 6.06009 0
M  V30 2520 H 235.686 1.46437 5.54283 0
M  V30 2521 H 234.083 2.25534 5.56106 0
M  V30 2522 H 235.153 2.48176 4.16577 0
M  V30 2523 N 236.496 -1.42363 0.676048 0
M  V30 2524 C 237.743 -2.01522 0.19883 0
M  V30 2525 C 238.071 -1.53456 -1.19505 0
M  V30 2526 O 237.326 -0.727967 -1.81657 0
M  V30 2527 C 237.625 -3.56929 0.183431 0
M  V30 2528 C 237.291 -4.24431 1.52215 0
M  V30 2529 C 235.953 -4.42585 1.8887 0
M  V30 2530 C 238.305 -4.62459 2.40377 0
M  V30 2531 C 235.633 -4.96039 3.13309 0
M  V30 2532 C 237.985 -5.17294 3.64129 0
M  V30 2533 C 236.649 -5.33661 4.00951 0
M  V30 2534 H 235.919 -0.737419 0.0727571 0
M  V30 2535 H 238.566 -1.70531 0.871281 0
M  V30 2536 H 236.871 -3.87594 -0.572532 0
M  V30 2537 H 238.568 -4.00486 -0.203035 0
M  V30 2538 H 235.158 -4.10661 1.22701 0
M  V30 2539 H 239.342 -4.48105 2.13343 0
M  V30 2540 H 234.598 -5.06896 3.41857 0
M  V30 2541 H 238.772 -5.45704 4.32644 0
M  V30 2542 H 236.399 -5.74845 4.9745 0
M  V30 2543 N 237.974 -0.419461 -1.51915 0
M  V30 2544 C 239.385 0.0477853 -1.86639 0
M  V30 2545 C 239.736 1.43531 -1.33766 0
M  V30 2546 O 238.861 2.05401 -0.68113 0
M  V30 2547 C 239.456 0.0934885 -3.38671 0
M  V30 2548 C 238.015 0.505097 -3.72996 0
M  V30 2549 C 237.162 -0.313792 -2.75519 0
M  V30 2550 H 240.113 -0.636088 -1.45395 0
M  V30 2551 H 240.134 0.906667 -3.6954 0
M  V30 2552 H 239.646 -0.916501 -3.77123 0
M  V30 2553 H 237.747 1.52135 -3.40126 0
M  V30 2554 H 237.86 0.242309 -4.78487 0
M  V30 2555 H 236.224 0.225363 -2.53701 0
M  V30 2556 H 237.007 -1.32232 -3.16812 0
M  V30 2557 N 239.452 1.56882 -0.150215 0
M  V30 2558 C 240.699 1.96228 0.500093 0
M  V30 2559 C 241.027 1.03522 1.64661 0
M  V30 2560 O 240.282 0.0650683 1.95592 0
M  V30 2561 C 240.581 3.41801 1.04437 0
M  V30 2562 C 240.247 4.50897 0.0159671 0
M  V30 2563 C 238.909 4.8046 -0.266731 0
M  V30 2564 C 241.261 5.16703 -0.683192 0
M  V30 2565 C 238.589 5.73135 -1.25434 0
M  V30 2566 C 240.941 6.10441 -1.65964 0
M  V30 2567 C 239.605 6.38382 -1.95 0
M  V30 2568 H 238.875 0.718048 0.182997 0
M  V30 2569 H 241.522 1.90019 -0.237724 0
M  V30 2570 H 239.827 3.44857 1.85959 0
M  V30 2571 H 241.524 3.69573 1.55618 0
M  V30 2572 H 238.114 4.27891 0.246485 0
M  V30 2573 H 242.298 4.93993 -0.477983 0
M  V30 2574 H 237.554 5.93074 -1.48571 0
M  V30 2575 H 241.728 6.60507 -2.20689 0
M  V30 2576 H 239.355 7.09996 -2.71679 0
M  V30 2577 N 240.93 -0.123565 1.57115 0
M  V30 2578 C 241.86 -1.15309 2.03042 0
M  V30 2579 C 242.841 -1.43454 0.914061 0
M  V30 2580 O 244.026 -1.53973 1.18347 0
M  V30 2581 C 241.156 -2.48043 2.43089 0
M  V30 2582 C 240.11 -2.3437 3.58127 0
M  V30 2583 C 239.436 -3.72026 3.84059 0
M  V30 2584 C 240.736 -1.80804 4.90007 0
M  V30 2585 H 242.43 -0.771102 2.893 0
M  V30 2586 H 239.976 -0.369479 1.39179 0
M  V30 2587 H 241.929 -3.20311 2.73823 0
M  V30 2588 H 240.653 -2.88122 1.53796 0
M  V30 2589 H 239.312 -1.64551 3.27595 0
M  V30 2590 H 238.96 -4.09582 2.91979 0
M  V30 2591 H 238.66 -3.63732 4.6149 0
M  V30 2592 H 240.184 -4.45806 4.1724 0
M  V30 2593 H 241.598 -2.42886 5.19307 0
M  V30 2594 H 239.995 -1.83343 5.71407 0
M  V30 2595 H 241.065 -0.76528 4.78823 0
M  V30 2596 N 242.408 -1.52605 -0.393616 0
M  V30 2597 C 243.34 -1.73303 -1.49995 0
M  V30 2598 C 244.353 -0.613473 -1.50799 0
M  V30 2599 O 245.542 -0.889049 -1.54784 0
M  V30 2600 C 242.642 -1.77245 -2.88855 0
M  V30 2601 C 241.815 -3.06483 -3.12069 0
M  V30 2602 C 240.874 -3.02033 -4.30886 0
M  V30 2603 O 239.9 -3.75907 -4.27414 0
M  V30 2604 N 241.102 -2.20897 -5.36828 0
M  V30 2605 H 243.867 -2.68756 -1.32629 0
M  V30 2606 H 241.428 -1.51036 -0.583083 0
M  V30 2607 H 243.42 -1.7178 -3.66434 0
M  V30 2608 H 241.99 -0.891993 -2.99603 0
M  V30 2609 H 241.21 -3.25474 -2.22396 0
M  V30 2610 H 242.498 -3.91947 -3.2443 0
M  V30 2611 H 241.896 -1.60336 -5.42502 0
M  V30 2612 H 240.453 -2.21275 -6.13091 0
M  V30 2613 N 243.887 0.651787 -1.4349 0
M  V30 2614 C 244.834 1.76462 -1.4876 0
M  V30 2615 C 245.804 1.62641 -0.337189 0
M  V30 2616 O 246.989 1.82864 -0.544544 0
M  V30 2617 C 244.129 3.14623 -1.41796 0
M  V30 2618 C 243.242 3.39568 -2.67053 0
M  V30 2619 C 242.377 4.67585 -2.52068 0
M  V30 2620 C 241.416 4.85639 -3.72587 0
M  V30 2621 N 240.553 6.04915 -3.56402 0
M  V30 2622 H 245.393 1.71293 -2.43849 0
M  V30 2623 H 242.93 0.835889 -1.21043 0
M  V30 2624 H 244.888 3.94496 -1.35753 0
M  V30 2625 H 243.518 3.18859 -0.50288 0
M  V30 2626 H 242.57 2.53783 -2.8337 0
M  V30 2627 H 243.882 3.48795 -3.56572 0
M  V30 2628 H 243.036 5.55586 -2.4374 0
M  V30 2629 H 241.775 4.60681 -1.60075 0
M  V30 2630 H 240.78 3.96073 -3.81321 0
M  V30 2631 H 242.005 4.94372 -4.65589 0
M  V30 2632 H 239.951 5.9914 -2.67146 0
M  V30 2633 H 239.868 6.15106 -4.39524 0
M  V30 2634 H 241.136 6.95533 -3.51929 0
M  V30 2635 N 245.365 1.30045 0.890287 0
M  V30 2636 C 246.59 1.21598 1.68014 0
M  V30 2637 C 247.015 -0.218678 1.86825 0
M  V30 2638 O 246.373 -1.15756 1.39536 0
M  V30 2639 C 246.421 1.94434 3.03691 0
M  V30 2640 O 245.525 1.2678 3.92429 0
M  V30 2641 H 244.866 0.420856 0.513592 0
M  V30 2642 H 247.396 1.71775 1.11151 0
M  V30 2643 H 247.406 2.03251 3.5377 0
M  V30 2644 H 246.081 2.98777 2.89318 0
M  V30 2645 H 244.658 1.26282 3.50866 0
M  V30 2646 N 246.843 -1.10192 1.12674 0
M  V30 2647 C 248.068 -1.86523 0.906853 0
M  V30 2648 C 248.493 -1.80221 -0.538711 0
M  V30 2649 O 247.851 -1.17396 -1.38158 0
M  V30 2650 C 247.899 -3.32758 1.3894 0
M  V30 2651 O 247.003 -4.08449 0.5695 0
M  V30 2652 H 246.344 -0.578678 0.325619 0
M  V30 2653 H 248.874 -1.39203 1.49946 0
M  V30 2654 H 248.884 -3.83608 1.38958 0
M  V30 2655 H 247.559 -3.36661 2.44197 0
M  V30 2656 H 246.136 -3.67427 0.636528 0
M  V30 2657 N 248.321 -0.919034 -1.28029 0
M  V30 2658 C 249.567 -0.555757 -1.95036 0
M  V30 2659 C 249.9 0.899198 -1.72128 0
M  V30 2660 O 249.175 1.64023 -1.04531 0
M  V30 2661 C 249.458 -0.872024 -3.49382 0
M  V30 2662 C 249.311 -2.3801 -3.81669 0
M  V30 2663 C 250.63 -0.37185 -4.38526 0
M  V30 2664 H 247.749 -0.203386 -0.708381 0
M  V30 2665 H 250.391 -1.14924 -1.51303 0
M  V30 2666 H 248.541 -0.366946 -3.86763 0
M  V30 2667 H 250.213 -2.9562 -3.54128 0
M  V30 2668 H 248.456 -2.83289 -3.28526 0
M  V30 2669 H 249.127 -2.55192 -4.8947 0
M  V30 2670 H 251.603 -0.804602 -4.08247 0
M  V30 2671 H 250.479 -0.622173 -5.45362 0
M  V30 2672 H 250.74 0.727934 -4.36066 0
M  V30 2673 N 249.799 1.42003 -0.683588 0
M  V30 2674 C 251.047 2.01015 -0.209101 0
M  V30 2675 C 251.368 1.54365 1.19149 0
M  V30 2676 O 250.638 0.769083 1.80172 0
M  V30 2677 H 249.218 0.743294 -0.074315 0
M  V30 2678 H 251.88 1.73798 -0.882066 0
M  V30 2679 H 250.976 3.11343 -0.2172 0
M  V30 2680 N 251.277 0.427512 1.51691 0
M  V30 2681 C 252.526 -0.143679 2.01188 0
M  V30 2682 C 252.839 -1.44642 1.31674 0
M  V30 2683 O 254.045 -2.09997 1.72086 0
M  V30 2684 C 252.501 -0.306602 3.58592 0
M  V30 2685 C 252.109 0.985125 4.37035 0
M  V30 2686 C 253.853 -0.832091 4.16265 0
M  V30 2687 C 251.76 0.788382 5.86122 0
M  V30 2688 H 250.69 -0.0574701 0.751807 0
M  V30 2689 H 253.341 0.555772 1.74881 0
M  V30 2690 H 251.723 -1.06882 3.81303 0
M  V30 2691 H 252.897 1.75492 4.26074 0
M  V30 2692 H 251.212 1.4384 3.90767 0
M  V30 2693 H 253.809 -0.995617 5.25349 0
M  V30 2694 H 254.152 -1.81186 3.74803 0
M  V30 2695 H 254.685 -0.128444 3.97593 0
M  V30 2696 H 251.424 1.74025 6.31978 0
M  V30 2697 H 250.944 0.0582143 5.99772 0
M  V30 2698 H 252.623 0.437722 6.45518 0
M  V30 2699 N 252.755 -1.56801 0.158532 0
M  V30 2700 C 253.983 -2.00859 -0.496303 0
M  V30 2701 C 254.398 -1.03871 -1.57659 0
M  V30 2702 O 253.755 -0.0375165 -1.82461 0
M  V30 2703 C 253.806 -3.4479 -1.08638 0
M  V30 2704 O 253.527 -4.38072 -0.0492322 0
M  V30 2705 C 255.028 -4.04185 -1.8207 0
M  V30 2706 H 252.248 -0.65864 -0.128199 0
M  V30 2707 H 254.792 -2.02885 0.256506 0
M  V30 2708 H 252.947 -3.43579 -1.78975 0
M  V30 2709 H 253.361 -5.2227 -0.483102 0
M  V30 2710 H 254.835 -5.06857 -2.18633 0
M  V30 2711 H 255.312 -3.45549 -2.71095 0
M  V30 2712 H 255.918 -4.0906 -1.16405 0
M  V30 2713 N 254.233 0.115231 -1.57178 0
M  V30 2714 C 255.479 0.82357 -1.85325 0
M  V30 2715 C 255.812 1.79349 -0.744814 0
M  V30 2716 O 255.087 1.92899 0.249024 0
M  V30 2717 C 255.37 1.57014 -3.24066 0
M  V30 2718 C 255.223 0.619565 -4.45513 0
M  V30 2719 C 256.542 2.52545 -3.60429 0
M  V30 2720 H 253.661 0.297948 -0.674089 0
M  V30 2721 H 256.303 0.0877138 -1.89797 0
M  V30 2722 H 254.453 2.19742 -3.20383 0
M  V30 2723 H 256.125 0.000837639 -4.613 0
M  V30 2724 H 254.368 -0.0686174 -4.33746 0
M  V30 2725 H 255.039 1.17866 -5.3927 0
M  V30 2726 H 257.515 1.9992 -3.64926 0
M  V30 2727 H 256.391 3.01811 -4.58477 0
M  V30 2728 H 256.652 3.35383 -2.88047 0
M  V30 2729 N 255.711 1.52812 0.385517 0
M  V30 2730 C 256.641 1.80808 1.47752 0
M  V30 2731 C 257.622 0.660318 1.5676 0
M  V30 2732 O 258.807 0.908246 1.71652 0
M  V30 2733 C 255.937 1.98008 2.85324 0
M  V30 2734 C 254.891 3.13709 2.91154 0
M  V30 2735 C 254.217 3.16169 4.31209 0
M  V30 2736 C 255.517 4.52709 2.60483 0
M  V30 2737 H 257.211 2.72253 1.24573 0
M  V30 2738 H 254.757 1.31003 0.597839 0
M  V30 2739 H 256.71 2.16176 3.61726 0
M  V30 2740 H 255.434 1.03255 3.09848 0
M  V30 2741 H 254.093 2.95329 2.17201 0
M  V30 2742 H 253.741 2.19092 4.52778 0
M  V30 2743 H 253.441 3.93894 4.36029 0
M  V30 2744 H 254.965 3.36496 5.09512 0
M  V30 2745 H 256.379 4.71173 3.26602 0
M  V30 2746 H 254.776 5.32528 2.76648 0
M  V30 2747 H 255.846 4.59186 1.55809 0
M  V30 2748 N 257.189 -0.644168 1.43834 0
M  V30 2749 C 258.137 -1.77793 1.49974 0
M  V30 2750 C 259.131 -1.65253 0.372536 0
M  V30 2751 O 260.337 -1.7149 0.546924 0
M  V30 2752 H 256.712 -0.58675 0.47035 0
M  V30 2753 H 258.683 -1.69736 2.45423 0
M  V30 2754 C 257.432 -3.16087 1.4486 0
M  V30 2755 H 256.755 -3.26378 2.30905 0
M  V30 2756 H 258.195 -3.95349 1.53217 0
M  V30 2757 C 256.654 -3.36484 0.167463 0
M  V30 2758 O 257.184 -3.94298 -0.767609 0
M  V30 2759 N 255.39 -2.90504 0.0747556 0
M  V30 2760 H 254.937 -2.4364 0.836507 0
M  V30 2761 H 254.895 -3.04527 -0.781714 0
M  V30 2762 N 258.668 -1.30515 -0.883378 0
M  V30 2763 C 259.598 -1.19607 -2.00541 0
M  V30 2764 C 260.579 -0.086346 -1.69881 0
M  V30 2765 O 261.764 -0.268654 -1.92333 0
M  V30 2766 C 258.894 -0.888758 -3.35736 0
M  V30 2767 C 257.848 -1.95659 -3.8066 0
M  V30 2768 C 257.174 -1.50224 -5.13164 0
M  V30 2769 C 258.474 -3.36788 -3.99213 0
M  V30 2770 H 260.168 -2.13476 -2.09925 0
M  V30 2771 H 257.714 -1.02775 -1.00863 0
M  V30 2772 H 259.667 -0.799094 -4.13754 0
M  V30 2773 H 258.391 0.0856125 -3.26488 0
M  V30 2774 H 257.05 -2.03591 -3.04871 0
M  V30 2775 H 256.698 -0.516092 -5.00345 0
M  V30 2776 H 256.398 -2.2165 -5.44192 0
M  V30 2777 H 257.922 -1.42639 -5.93706 0
M  V30 2778 H 259.336 -3.31605 -4.67665 0
M  V30 2779 H 257.733 -4.06314 -4.41621 0
M  V30 2780 H 258.803 -3.78561 -3.03017 0
M  V30 2781 N 260.146 1.09593 -1.13257 0
M  V30 2782 C 261.386 1.83349 -0.903472 0
M  V30 2783 C 261.75 1.83641 0.560351 0
M  V30 2784 O 262.951 2.53037 0.906947 0
M  V30 2785 C 261.222 3.25629 -1.47311 0
M  V30 2786 S 262.781 4.16408 -1.38382 0
M  V30 2787 H 259.599 0.632014 -0.325699 0
M  V30 2788 H 262.201 1.31817 -1.44376 0
M  V30 2789 H 260.905 3.22991 -2.53189 0
M  V30 2790 H 260.436 3.82233 -0.930689 0
M  V30 2791 H 262.451 4.94884 -0.361113 0
M  V30 2792 N 261.624 0.925811 1.2754 0
M  V30 2793 C 262.587 0.428129 2.25166 0
M  V30 2794 C 263.587 -0.452261 1.54309 0
M  V30 2795 O 264.777 -0.253608 1.72344 0
M  V30 2796 C 261.909 -0.384749 3.38722 0
M  V30 2797 H 263.102 1.29066 2.70706 0
M  V30 2798 H 260.655 0.706323 1.3943 0
M  V30 2799 H 261.39 -1.26618 2.98561 0
M  V30 2800 H 261.175 0.246454 3.91325 0
M  V30 2801 H 262.665 -0.723389 4.11287 0
M  V30 2802 N 263.102 -1.41638 0.69111 0
M  V30 2803 C 264.032 -2.3347 0.037248 0
M  V30 2804 C 265.013 -1.51575 -0.771947 0
M  V30 2805 O 266.198 -1.80126 -0.72582 0
M  V30 2806 C 263.328 -3.35354 -0.903064 0
M  V30 2807 C 262.282 -4.27526 -0.201288 0
M  V30 2808 C 261.608 -5.19747 -1.25565 0
M  V30 2809 C 262.908 -5.13959 0.929689 0
M  V30 2810 H 264.602 -2.88397 0.804227 0
M  V30 2811 H 262.148 -1.38669 0.388189 0
M  V30 2812 H 264.101 -3.98519 -1.36969 0
M  V30 2813 H 262.825 -2.78767 -1.70166 0
M  V30 2814 H 261.484 -3.65779 0.245265 0
M  V30 2815 H 261.132 -4.59479 -2.04666 0
M  V30 2816 H 260.832 -5.8225 -0.791128 0
M  V30 2817 H 262.356 -5.85789 -1.72288 0
M  V30 2818 H 263.77 -5.70718 0.543546 0
M  V30 2819 H 262.167 -5.85379 1.32103 0
M  V30 2820 H 263.237 -4.51389 1.77133 0
M  V30 2821 N 264.58 -0.43555 -1.51462 0
M  V30 2822 C 265.805 0.132627 -2.06976 0
M  V30 2823 C 266.23 1.35848 -1.30104 0
M  V30 2824 O 265.588 1.78112 -0.338493 0
M  V30 2825 C 265.636 0.43523 -3.57964 0
M  V30 2826 O 264.74 1.52198 -3.83288 0
M  V30 2827 H 264.081 0.00265 -0.663995 0
M  V30 2828 H 266.611 -0.616369 -1.95095 0
M  V30 2829 H 266.621 0.686206 -4.02188 0
M  V30 2830 H 265.296 -0.460739 -4.1334 0
M  V30 2831 H 263.873 1.2611 -3.50928 0
M  V30 2832 N 266.058 1.56714 -0.166846 0
M  V30 2833 C 267.304 1.97039 0.479962 0
M  V30 2834 C 267.637 1.05264 1.63197 0
M  V30 2835 O 266.912 0.0988833 1.94248 0
M  V30 2836 C 267.195 3.46867 0.967212 0
M  V30 2837 C 267.048 4.49421 -0.18466 0
M  V30 2838 C 268.367 3.9968 1.84238 0
M  V30 2839 H 265.486 0.71641 0.172992 0
M  V30 2840 H 268.128 1.8832 -0.252079 0
M  V30 2841 H 266.278 3.54428 1.59101 0
M  V30 2842 H 267.95 4.53924 -0.821621 0
M  V30 2843 H 266.193 4.25573 -0.840837 0
M  V30 2844 H 266.864 5.51644 0.198317 0
M  V30 2845 H 269.34 3.94723 1.31655 0
M  V30 2846 H 268.216 5.04941 2.15234 0
M  V30 2847 H 268.477 3.43226 2.78654 0
M  V30 2848 N 267.536 -0.106894 1.57237 0
M  V30 2849 C 268.813 -0.843526 1.76477 0
M  V30 2850 C 269.193 -1.97499 0.745464 0
M  V30 2851 O 268.541 -2.27357 -0.228306 0
M  V30 2852 C 268.751 -1.34903 3.21873 0
M  V30 2853 C 270.099 -1.79654 3.8472 0
M  V30 2854 O 271.123 -1.44554 3.2555 0
M  V30 2855 O 269.982 -2.44515 4.88748 0
M  V30 2856 H 267.076 -0.401468 0.723016 0
M  V30 2857 H 269.622 -0.0896927 1.69463 0
M  V30 2858 H 268.394 -0.53781 3.87586 0
M  V30 2859 H 268.017 -2.16522 3.33473 0
M  V30 2860 N 269.014 -1.53014 -0.377408 0
M  V30 2861 C 270.43 -1.42523 -0.718281 0
M  V30 2862 C 270.63 -0.55487 -1.9371 0
M  V30 2863 O 269.686 -0.0327593 -2.52479 0
M  V30 2864 C 270.999 -2.85546 -0.942539 0
M  V30 2865 C 272.547 -2.95101 -1.04329 0
M  V30 2866 C 273.022 -4.3916 -1.3001 0
M  V30 2867 N 274.513 -4.42536 -1.36806 0
M  V30 2868 C 275.248 -5.51097 -1.58364 0
M  V30 2869 N 274.744 -6.69724 -1.77317 0
M  V30 2870 N 276.537 -5.38657 -1.60638 0
M  V30 2871 H 268.688 -2.08116 0.424426 0
M  V30 2872 H 270.951 -0.939352 0.127759 0
M  V30 2873 H 270.657 -3.51499 -0.118929 0
M  V30 2874 H 270.531 -3.28493 -1.85397 0
M  V30 2875 H 272.918 -2.29309 -1.85745 0
M  V30 2876 H 272.999 -2.55566 -0.109505 0
M  V30 2877 H 272.643 -5.05521 -0.490991 0
M  V30 2878 H 272.573 -4.76258 -2.24691 0
M  V30 2879 H 275.064 -3.57039 -1.23821 0
M  V30 2880 H 275.377 -7.48233 -1.93306 0
M  V30 2881 H 273.722 -6.72732 -1.74518 0
M  V30 2882 H 276.913 -4.44948 -1.45391 0
M  V30 2883 H 277.086 -6.2333 -1.77098 0
M  V30 2884 N 270.492 0.636531 -1.44174 0
M  V30 2885 C 271.722 1.42146 -1.49927 0
M  V30 2886 C 272.13 1.88812 -0.121063 0
M  V30 2887 O 271.473 1.61126 0.882267 0
M  V30 2888 C 271.535 2.67883 -2.39748 0
M  V30 2889 C 271.199 2.43048 -3.8701 0
M  V30 2890 C 272.196 2.05216 -4.77684 0
M  V30 2891 C 269.881 2.56856 -4.3166 0
M  V30 2892 C 271.875 1.81512 -6.11009 0
M  V30 2893 C 269.562 2.32766 -5.65034 0
M  V30 2894 C 270.56 1.95152 -6.54526 0
M  V30 2895 O 270.248 1.71326 -7.85431 0
M  V30 2896 H 269.98 0.442567 -0.51099 0
M  V30 2897 H 272.534 0.786158 -1.8976 0
M  V30 2898 H 270.764 3.34032 -1.94832 0
M  V30 2899 H 272.453 3.29874 -2.36513 0
M  V30 2900 H 273.219 1.94111 -4.44462 0
M  V30 2901 H 269.098 2.85104 -3.62266 0
M  V30 2902 H 272.642 1.52077 -6.80822 0
M  V30 2903 H 268.539 2.43479 -5.97819 0
M  V30 2904 H 269.307 1.85616 -7.97176 0
M  V30 2905 N 271.97 1.30982 0.876444 0
M  V30 2906 C 273.386 1.09498 1.16113 0
M  V30 2907 C 273.586 -0.13875 2.01022 0
M  V30 2908 O 272.642 -0.829935 2.38471 0
M  V30 2909 C 273.955 2.36308 1.85954 0
M  V30 2910 C 275.503 2.41856 1.98683 0
M  V30 2911 C 275.978 3.6853 2.71937 0
M  V30 2912 N 277.469 3.69387 2.79477 0
M  V30 2913 C 278.204 4.64096 3.36753 0
M  V30 2914 N 277.7 5.69155 3.95012 0
M  V30 2915 N 279.493 4.51626 3.3465 0
M  V30 2916 H 271.644 2.10118 0.310494 0
M  V30 2917 H 273.907 0.926634 0.200131 0
M  V30 2918 H 273.613 3.26388 1.31011 0
M  V30 2919 H 273.487 2.4561 2.86278 0
M  V30 2920 H 275.874 1.52249 2.52793 0
M  V30 2921 H 275.955 2.36523 0.9742 0
M  V30 2922 H 275.599 4.58499 2.18496 0
M  V30 2923 H 275.529 3.71127 3.73593 0
M  V30 2924 H 278.02 2.93438 2.38123 0
M  V30 2925 H 278.333 6.3751 4.36808 0
M  V30 2926 H 276.678 5.72937 3.93406 0
M  V30 2927 H 279.869 3.68728 2.8837 0
M  V30 2928 H 280.042 5.25614 3.7899 0
M  V30 2929 N 273.449 -1.08991 1.13837 0
M  V30 2930 C 274.412 -2.13925 0.822715 0
M  V30 2931 C 275.412 -1.599 -0.1699 0
M  V30 2932 O 276.602 -1.74104 0.0577251 0
M  V30 2933 C 273.734 -3.40155 0.225318 0
M  V30 2934 H 274.927 -2.43358 1.75262 0
M  V30 2935 H 272.48 -1.24603 0.943594 0
M  V30 2936 H 273.215 -3.16352 -0.713594 0
M  V30 2937 H 273 -3.80661 0.940193 0
M  V30 2938 H 274.49 -4.17594 0.0214784 0
M  V30 2939 N 274.927 -0.932562 -1.27047 0
M  V30 2940 C 276.173 -0.576412 -1.94436 0
M  V30 2941 C 276.506 0.880891 -1.73072 0
M  V30 2942 O 275.781 1.62905 -1.06264 0
M  V30 2943 C 276.064 -0.909031 -3.48437 0
M  V30 2944 C 275.917 -2.42044 -3.79123 0
M  V30 2945 C 277.236 -0.418341 -4.38107 0
M  V30 2946 H 274.355 -0.210888 -0.706184 0
M  V30 2947 H 276.997 -1.16522 -1.50075 0
M  V30 2948 H 275.147 -0.407947 -3.86352 0
M  V30 2949 H 276.819 -2.99359 -3.50973 0
M  V30 2950 H 275.062 -2.86758 -3.25503 0
M  V30 2951 H 275.733 -2.6037 -4.86736 0
M  V30 2952 H 278.209 -0.847856 -4.0737 0
M  V30 2953 H 277.085 -0.679981 -5.44672 0
M  V30 2954 H 277.346 0.681642 -4.36814 0
M  V30 2955 N 276.405 1.4127 -0.698611 0
M  V30 2956 C 277.368 2.29158 -0.044132 0
M  V30 2957 C 278.368 1.44529 0.704841 0
M  V30 2958 O 279.558 1.65643 0.539276 0
M  V30 2959 C 276.69 3.27459 0.947809 0
M  V30 2960 H 277.883 2.88529 -0.817994 0
M  V30 2961 H 275.436 1.49307 -0.46228 0
M  V30 2962 H 276.171 2.73073 1.74933 0
M  V30 2963 H 275.956 3.8991 0.41385 0
M  V30 2964 H 277.446 3.93311 1.40344 0
M  V30 2965 N 277.883 0.443576 1.51229 0
M  V30 2966 C 279.108 -0.121648 2.07043 0
M  V30 2967 C 279.533 -1.35156 1.30823 0
M  V30 2968 O 278.891 -1.7793 0.347934 0
M  V30 2969 C 278.939 -0.41624 3.5819 0
M  V30 2970 O 278.043 -1.50163 3.8409 0
M  V30 2971 H 277.384 0.000871367 0.663999 0
M  V30 2972 H 279.914 0.626706 1.94765 0
M  V30 2973 H 279.924 -0.664867 4.02546 0
M  V30 2974 H 278.599 0.482653 4.1309 0
M  V30 2975 H 277.176 -1.24248 3.51592 0
M  V30 2976 N 279.361 -1.56624 0.175154 0
M  V30 2977 C 280.607 -1.98061 -0.462976 0
M  V30 2978 C 280.962 -1.05949 -1.60601 0
M  V30 2979 O 280.255 -0.0999027 -1.91339 0
M  V30 2980 C 280.449 -3.43419 -0.989864 0
M  V30 2981 C 280.278 -4.49587 0.100583 0
M  V30 2982 C 279.048 -5.02281 0.551539 0
M  V30 2983 C 281.246 -5.06322 0.902369 0
M  V30 2984 N 279.228 -5.92088 1.62189 0
M  V30 2985 C 280.599 -5.92607 1.82256 0
M  V30 2986 C 282.654 -4.88811 0.947019 0
M  V30 2987 C 281.357 -6.63254 2.78364 0
M  V30 2988 C 283.383 -5.60182 1.89606 0
M  V30 2989 C 282.745 -6.46197 2.80372 0
M  V30 2990 H 278.844 -0.769833 -0.137409 0
M  V30 2991 H 281.428 -1.9273 0.276256 0
M  V30 2992 H 279.599 -3.49288 -1.6986 0
M  V30 2993 H 281.331 -3.7186 -1.59694 0
M  V30 2994 H 278.086 -4.73367 0.148537 0
M  V30 2995 H 278.51 -6.41696 2.15767 0
M  V30 2996 H 283.152 -4.22004 0.259304 0
M  V30 2997 H 280.87 -7.29271 3.48122 0
M  V30 2998 H 284.456 -5.48617 1.93676 0
M  V30 2999 H 283.336 -7.00453 3.52612 0
M  V30 3000 N 280.839 0.0985539 -1.57292 0
M  V30 3001 C 282.064 0.820196 -1.90493 0
M  V30 3002 C 282.489 1.71658 -0.769094 0
M  V30 3003 O 281.847 1.79133 0.279495 0
M  V30 3004 C 281.895 1.61242 -3.22542 0
M  V30 3005 O 280.999 2.72108 -3.09888 0
M  V30 3006 H 280.34 0.225547 -0.62452 0
M  V30 3007 H 282.87 0.0748159 -2.04463 0
M  V30 3008 H 282.88 1.99737 -3.55766 0
M  V30 3009 H 281.555 0.954535 -4.04798 0
M  V30 3010 H 280.132 2.36667 -2.88172 0
M  V30 3011 N 282.317 1.53212 0.369288 0
M  V30 3012 C 283.733 1.42902 0.710712 0
M  V30 3013 C 283.933 0.565135 1.93413 0
M  V30 3014 O 282.989 0.0461484 2.52458 0
M  V30 3015 C 284.302 2.86042 0.927382 0
M  V30 3016 C 285.85 2.9565 1.02762 0
M  V30 3017 C 286.325 4.39843 1.27679 0
M  V30 3018 N 287.816 4.43256 1.34457 0
M  V30 3019 C 288.551 5.51929 1.55439 0
M  V30 3020 N 288.047 6.70655 1.73762 0
M  V30 3021 N 289.84 5.39502 1.57779 0
M  V30 3022 H 281.991 2.07888 -0.435457 0
M  V30 3023 H 284.254 0.938661 -0.132739 0
M  V30 3024 H 283.96 3.51557 0.100287 0
M  V30 3025 H 283.834 3.29472 1.83653 0
M  V30 3026 H 286.221 2.30291 1.84527 0
M  V30 3027 H 286.302 2.5562 0.0959504 0
M  V30 3028 H 285.946 5.05774 0.464175 0
M  V30 3029 H 285.876 4.77443 2.22162 0
M  V30 3030 H 288.367 3.5769 1.21926 0
M  V30 3031 H 288.68 7.49248 1.89335 0
M  V30 3032 H 287.025 6.73648 1.70948 0
M  V30 3033 H 290.216 4.45713 1.43029 0
M  V30 3034 H 290.389 6.2426 1.7379 0
M  V30 3035 N 283.795 -0.628877 1.44509 0
M  V30 3036 C 285.041 -1.39045 1.47629 0
M  V30 3037 C 285.374 -1.93892 0.109343 0
M  V30 3038 O 284.649 -1.7379 -0.87334 0
M  V30 3039 C 284.932 -2.55408 2.53848 0
M  V30 3040 C 284.785 -2.05896 3.99909 0
M  V30 3041 C 286.104 -3.5759 2.56549 0
M  V30 3042 H 283.223 -0.504232 0.537512 0
M  V30 3043 H 285.865 -0.710854 1.76201 0
M  V30 3044 H 284.015 -3.13384 2.29615 0
M  V30 3045 H 285.687 -1.52734 4.35282 0
M  V30 3046 H 283.93 -1.37061 4.11578 0
M  V30 3047 H 284.601 -2.89681 4.69882 0
M  V30 3048 H 287.077 -3.09419 2.78207 0
M  V30 3049 H 285.953 -4.36527 3.32769 0
M  V30 3050 H 286.214 -4.11808 1.60832 0
M  V30 3051 N 285.273 -1.31445 -0.869486 0
M  V30 3052 C 286.205 -1.14955 -1.98287 0
M  V30 3053 C 287.218 -0.0885037 -1.62559 0
M  V30 3054 O 288.407 -0.336044 -1.75308 0
M  V30 3055 C 285.507 -0.734255 -3.3085 0
M  V30 3056 C 284.68 -1.88042 -3.94917 0
M  V30 3057 C 283.739 -1.4511 -5.05796 0
M  V30 3058 O 282.765 -2.16082 -5.2659 0
M  V30 3059 N 283.967 -0.338763 -5.79511 0
M  V30 3060 H 286.732 -2.10856 -2.12979 0
M  V30 3061 H 284.293 -1.23786 -1.04349 0
M  V30 3062 H 286.285 -0.42975 -4.02412 0
M  V30 3063 H 284.855 0.133158 -3.12316 0
M  V30 3064 H 284.075 -2.35222 -3.1633 0
M  V30 3065 H 285.363 -2.6481 -4.34457 0
M  V30 3066 H 284.761 0.252274 -5.65137 0
M  V30 3067 H 283.318 -0.0937925 -6.51733 0
M  V30 3068 N 286.751 1.08385 -1.14413 0
M  V30 3069 C 287.999 1.80419 -0.910679 0
M  V30 3070 C 288.32 1.86658 0.564243 0
M  V30 3071 O 287.59 1.35985 1.41014 0
M  V30 3072 H 286.17 0.668204 -0.333934 0
M  V30 3073 H 288.832 1.31037 -1.44275 0
M  V30 3074 H 287.928 2.83238 -1.31082 0
M  V30 3075 N 288.23 0.939286 1.26551 0
M  V30 3076 C 289.479 0.581601 1.93133 0
M  V30 3077 C 289.792 -0.883224 1.74524 0
M  V30 3078 O 290.998 -1.3502 2.35546 0
M  V30 3079 C 289.454 0.989425 3.46032 0
M  V30 3080 C 289.062 2.47573 3.73379 0
M  V30 3081 C 290.806 0.703544 4.18629 0
M  V30 3082 C 288.713 2.82235 5.19709 0
M  V30 3083 H 287.643 0.213803 0.723052 0
M  V30 3084 H 290.294 1.14167 1.4366 0
M  V30 3085 H 288.676 0.357902 3.94379 0
M  V30 3086 H 289.85 3.15614 3.35744 0
M  V30 3087 H 288.165 2.73471 3.1401 0
M  V30 3088 H 290.762 0.938869 5.26393 0
M  V30 3089 H 291.105 -0.359639 4.14744 0
M  V30 3090 H 291.638 1.2947 3.76141 0
M  V30 3091 H 288.377 3.87509 5.28694 0
M  V30 3092 H 287.897 2.18854 5.58447 0
M  V30 3093 H 289.576 2.70599 5.87695 0
M  V30 3094 N 289.708 -1.40897 0.706093 0
M  V30 3095 C 290.956 -2.00657 0.241054 0
M  V30 3096 C 291.277 -1.56241 -1.16678 0
M  V30 3097 O 290.547 -0.79765 -1.78926 0
M  V30 3098 H 289.127 -0.742018 0.0861308 0
M  V30 3099 H 291.789 -1.72372 0.909604 0
M  V30 3100 H 290.885 -3.10958 0.266705 0
M  V30 3101 N 291.186 -0.45159 -1.50991 0
M  V30 3102 C 292.435 0.111653 -2.01391 0
M  V30 3103 C 292.748 1.42529 -1.33959 0
M  V30 3104 O 293.954 2.07232 -1.75405 0
M  V30 3105 C 292.41 0.249514 -3.59034 0
M  V30 3106 C 292.018 -1.05453 -4.35412 0
M  V30 3107 C 293.762 0.765762 -4.17536 0
M  V30 3108 C 291.669 -0.881529 -5.84793 0
M  V30 3109 H 290.599 0.0455022 -0.752626 0
M  V30 3110 H 293.25 -0.583524 -1.73975 0
M  V30 3111 H 291.632 1.00803 -3.82955 0
M  V30 3112 H 292.806 -1.82248 -4.23229 0
M  V30 3113 H 291.121 -1.50039 -3.88429 0
M  V30 3114 H 293.718 0.911913 -5.26866 0
M  V30 3115 H 294.061 1.75201 -3.77638 0
M  V30 3116 H 294.594 0.0651744 -3.97747 0
M  V30 3117 H 291.333 -1.84057 -6.29129 0
M  V30 3118 H 290.853 -0.153625 -5.99603 0
M  V30 3119 H 292.532 -0.540363 -6.4474 0
M  V30 3120 N 292.664 1.56529 -0.183458 0
M  V30 3121 C 294.075 1.83739 0.331177 0
M  V30 3122 C 294.426 1.10373 1.62211 0
M  V30 3123 O 293.551 0.36071 2.13373 0
M  V30 3124 C 294.146 3.33306 0.607646 0
M  V30 3125 C 292.705 3.60969 1.06668 0
M  V30 3126 C 291.852 2.77086 0.109029 0
M  V30 3127 H 294.803 1.53379 -0.407484 0
M  V30 3128 H 294.824 3.51444 1.45832 0
M  V30 3129 H 294.336 3.86677 -0.332086 0
M  V30 3130 H 292.437 3.13021 2.0211 0
M  V30 3131 H 292.55 4.69231 0.967447 0
M  V30 3132 H 290.914 2.47319 0.608714 0
M  V30 3133 H 291.697 3.33241 -0.82494 0
M  V30 3134 N 294.142 -0.090211 1.57342 0
M  V30 3135 C 295.072 -1.10976 2.05443 0
M  V30 3136 C 296.053 -1.41482 0.944284 0
M  V30 3137 O 297.238 -1.51428 1.21586 0
M  V30 3138 C 294.368 -2.42831 2.48295 0
M  V30 3139 C 293.322 -2.26721 3.63018 0
M  V30 3140 C 292.648 -3.63796 3.91863 0
M  V30 3141 C 293.948 -1.7037 4.93732 0
M  V30 3142 H 295.642 -0.709564 2.9087 0
M  V30 3143 H 293.188 -0.339874 1.39932 0
M  V30 3144 H 295.141 -3.14431 2.80555 0
M  V30 3145 H 293.865 -2.84795 1.59873 0
M  V30 3146 H 292.524 -1.57565 3.31012 0
M  V30 3147 H 292.172 -4.03297 3.00601 0
M  V30 3148 H 291.872 -3.53861 4.69101 0
M  V30 3149 H 293.396 -4.36855 4.26603 0
M  V30 3150 H 294.81 -2.31816 5.24342 0
M  V30 3151 H 293.207 -1.71181 5.75167 0
M  V30 3152 H 294.277 -0.663542 4.80339 0
M  V30 3153 N 295.62 -1.53406 -0.361157 0
M  V30 3154 C 296.866 -1.70054 -1.10496 0
M  V30 3155 C 297.199 -0.453278 -1.88836 0
M  V30 3156 O 296.474 0.5495 -1.86576 0
M  V30 3157 C 296.757 -2.95317 -2.06058 0
M  V30 3158 C 296.61 -4.3021 -1.31298 0
M  V30 3159 C 297.929 -3.16193 -3.06121 0
M  V30 3160 H 295.048 -0.618799 -0.400321 0
M  V30 3161 H 297.69 -1.86052 -0.385318 0
M  V30 3162 H 295.84 -2.81809 -2.67425 0
M  V30 3163 H 297.512 -4.55538 -0.726807 0
M  V30 3164 H 295.755 -4.29421 -0.614853 0
M  V30 3165 H 296.426 -5.14 -2.01265 0
M  V30 3166 H 298.902 -3.28916 -2.5486 0
M  V30 3167 H 297.778 -4.05266 -3.70204 0
M  V30 3168 H 298.039 -2.31676 -3.76535 0
M  V30 3169 N 297.098 0.621204 -1.44841 0
M  V30 3170 C 298.326 1.40752 -1.51646 0
M  V30 3171 C 298.741 1.88246 -0.144549 0
M  V30 3172 O 298.098 1.61422 0.851416 0
M  V30 3173 C 298.149 2.62119 -2.4895 0
M  V30 3174 O 297.87 2.16602 -3.80808 0
M  V30 3175 C 299.371 3.55135 -2.65319 0
M  V30 3176 H 296.591 0.431325 -0.514004 0
M  V30 3177 H 299.135 0.758835 -1.899 0
M  V30 3178 H 297.29 3.23058 -2.13805 0
M  V30 3179 H 297.704 2.95358 -4.33433 0
M  V30 3180 H 299.178 4.36874 -3.37409 0
M  V30 3181 H 299.655 4.04592 -1.70886 0
M  V30 3182 H 300.261 3.00058 -3.01405 0
M  V30 3183 N 298.576 1.31904 0.862503 0
M  V30 3184 C 299.539 1.20131 1.95195 0
M  V30 3185 C 300.539 0.126409 1.60302 0
M  V30 3186 O 301.729 0.376234 1.70089 0
M  V30 3187 C 298.861 0.845691 3.30244 0
M  V30 3188 H 300.054 2.16943 2.07064 0
M  V30 3189 H 297.607 1.15622 1.05172 0
M  V30 3190 H 298.342 -0.120957 3.24074 0
M  V30 3191 H 298.127 1.62276 3.56944 0
M  V30 3192 H 299.617 0.787418 4.10109 0
M  V30 3193 N 300.054 -1.07777 1.14986 0
M  V30 3194 C 301.303 -1.79669 0.916617 0
M  V30 3195 C 301.616 -1.87474 -0.557917 0
M  V30 3196 O 302.822 -2.55845 -0.908617 0
M  V30 3197 C 301.278 -3.22848 1.59051 0
M  V30 3198 C 300.886 -3.23257 3.10176 0
M  V30 3199 C 302.63 -3.99379 1.43864 0
M  V30 3200 C 300.537 -4.61063 3.70372 0
M  V30 3201 H 299.467 -0.673349 0.33929 0
M  V30 3202 H 302.118 -1.21003 1.37951 0
M  V30 3203 H 300.5 -3.8168 1.0553 0
M  V30 3204 H 301.674 -2.74095 3.70417 0
M  V30 3205 H 299.989 -2.60222 3.25074 0
M  V30 3206 H 302.586 -5.0122 1.86232 0
M  V30 3207 H 302.929 -4.14511 0.385564 0
M  V30 3208 H 303.462 -3.47032 1.94457 0
M  V30 3209 H 300.201 -4.51135 4.7556 0
M  V30 3210 H 299.721 -5.1048 3.14913 0
M  V30 3211 H 301.4 -5.30034 3.71043 0
M  V30 3212 N 301.532 -0.945985 -1.26051 0
M  V30 3213 C 302.442 -0.465633 -2.29933 0
M  V30 3214 C 303.458 0.462761 -1.67733 0
M  V30 3215 O 304.634 0.341118 -1.9849 0
M  V30 3216 C 301.699 0.256994 -3.45746 0
M  V30 3217 C 300.76 -0.708549 -4.23412 0
M  V30 3218 C 299.993 -0.0203135 -5.33696 0
M  V30 3219 O 300.216 1.19571 -5.57726 0
M  V30 3220 O 299.15 -0.701459 -5.97799 0
M  V30 3221 H 302.976 -1.32866 -2.73094 0
M  V30 3222 H 300.561 -0.712071 -1.31339 0
M  V30 3223 H 302.443 0.663852 -4.16138 0
M  V30 3224 H 301.118 1.09533 -3.04605 0
M  V30 3225 H 300.025 -1.16545 -3.55483 0
M  V30 3226 H 301.358 -1.51465 -4.68315 0
M  V30 3227 N 303.011 1.40521 -0.713556 0
M  V30 3228 C 304.26 2.00155 -0.249192 0
M  V30 3229 C 304.573 1.57224 1.16362 0
M  V30 3230 O 305.779 2.09542 1.72639 0
M  V30 3231 C 304.235 3.5773 -0.3946 0
M  V30 3232 C 303.843 4.09635 -1.81392 0
M  V30 3233 C 305.587 4.24499 0.00907364 0
M  V30 3234 C 303.494 5.59707 -1.91003 0
M  V30 3235 H 302.424 0.74868 -0.0894114 0
M  V30 3236 H 305.075 1.60784 -0.884352 0
M  V30 3237 H 303.457 3.94792 0.30911 0
M  V30 3238 H 304.631 3.83955 -2.54785 0
M  V30 3239 H 302.946 3.55456 -2.16888 0
M  V30 3240 H 305.543 5.34683 -0.0420404 0
M  V30 3241 H 305.886 4.02824 1.05065 0
M  V30 3242 H 306.419 3.92536 -0.645007 0
M  V30 3243 H 303.158 5.86234 -2.93275 0
M  V30 3244 H 302.678 5.87258 -1.22019 0
M  V30 3245 H 304.357 6.24776 -1.6812 0
M  V30 3246 N 304.489 0.459591 1.5075 0
M  V30 3247 C 305.735 -0.0994966 2.02556 0
M  V30 3248 C 306.068 -1.40399 1.3417 0
M  V30 3249 O 305.343 -1.88892 0.463683 0
M  V30 3250 C 305.626 -0.295242 3.58888 0
M  V30 3251 C 305.479 1.02947 4.37861 0
M  V30 3252 C 306.798 -1.05502 4.27267 0
M  V30 3253 H 303.917 -0.034686 0.736183 0
M  V30 3254 H 306.559 0.602938 1.8018 0
M  V30 3255 H 304.709 -0.893563 3.78084 0
M  V30 3256 H 306.381 1.66348 4.30263 0
M  V30 3257 H 304.624 1.62885 4.02058 0
M  V30 3258 H 305.295 0.846281 5.45474 0
M  V30 3259 H 307.771 -0.547993 4.12476 0
M  V30 3260 H 306.647 -1.16077 5.36486 0
M  V30 3261 H 306.908 -2.08875 3.89645 0
M  V30 3262 N 305.967 -1.56429 0.191757 0
M  V30 3263 C 307.192 -2.02309 -0.456706 0
M  V30 3264 C 307.617 -1.07103 -1.5463 0
M  V30 3265 O 306.975 -0.0539677 -1.8122 0
M  V30 3266 C 307.023 -3.46654 -0.993159 0
M  V30 3267 O 306.127 -3.54559 -2.10622 0
M  V30 3268 H 305.468 -0.655303 -0.107114 0
M  V30 3269 H 307.998 -2.02364 0.301653 0
M  V30 3270 H 308.008 -3.86377 -1.31061 0
M  V30 3271 H 306.683 -4.1544 -0.195504 0
M  V30 3272 H 305.26 -3.26708 -1.79767 0
M  V30 3273 N 307.445 0.0818655 -1.57387 0
M  V30 3274 C 308.694 0.781681 -1.85937 0
M  V30 3275 C 309.007 1.79246 -0.782957 0
M  V30 3276 O 310.213 2.54112 -0.955987 0
M  V30 3277 C 308.669 1.44109 -3.29789 0
M  V30 3278 C 308.277 0.469396 -4.45534 0
M  V30 3279 C 310.021 2.12386 -3.67549 0
M  V30 3280 C 307.928 1.13415 -5.80423 0
M  V30 3281 H 306.858 0.295682 -0.693605 0
M  V30 3282 H 309.509 0.0348051 -1.83467 0
M  V30 3283 H 307.891 2.23588 -3.2684 0
M  V30 3284 H 309.065 -0.294856 -4.59856 0
M  V30 3285 H 307.38 -0.108383 -4.16259 0
M  V30 3286 H 309.977 2.62878 -4.65617 0
M  V30 3287 H 310.32 2.91877 -2.96839 0
M  V30 3288 H 310.853 1.39751 -3.72444 0
M  V30 3289 H 307.592 0.379771 -6.54399 0
M  V30 3290 H 307.112 1.8695 -5.69921 0
M  V30 3291 H 308.791 1.65686 -6.25426 0
M  V30 3292 N 308.923 1.53595 0.353017 0
M  V30 3293 C 310.169 1.71581 1.09232 0
M  V30 3294 C 310.524 0.468328 1.86613 0
M  V30 3295 O 309.817 -0.538911 1.83865 0
M  V30 3296 C 310.011 2.91313 2.07054 0
M  V30 3297 C 309.84 4.27585 1.39287 0
M  V30 3298 C 308.61 4.92233 1.1417 0
M  V30 3299 C 310.808 5.07656 0.824005 0
M  V30 3300 N 308.79 6.124 0.428841 0
M  V30 3301 C 310.161 6.19531 0.241195 0
M  V30 3302 C 312.216 4.92609 0.723922 0
M  V30 3303 C 310.919 7.18002 -0.431952 0
M  V30 3304 C 312.945 5.91365 0.0645334 0
M  V30 3305 C 312.307 7.02571 -0.507347 0
M  V30 3306 H 308.406 0.680987 0.384422 0
M  V30 3307 H 310.99 1.91013 0.377096 0
M  V30 3308 H 309.161 2.73398 2.75877 0
M  V30 3309 H 310.893 2.98062 2.73753 0
M  V30 3310 H 307.648 4.51612 1.42631 0
M  V30 3311 H 308.072 6.76944 0.0874131 0
M  V30 3312 H 312.714 4.06808 1.15181 0
M  V30 3313 H 310.432 8.03384 -0.871758 0
M  V30 3314 H 314.018 5.81799 -0.0121469 0
M  V30 3315 H 312.898 7.77675 -1.0095 0
M  V30 3316 N 310.401 -0.613514 1.45168 0
M  V30 3317 C 311.65 -1.36874 1.4815 0
M  V30 3318 C 311.963 -1.952 0.124982 0
M  V30 3319 O 313.169 -2.71481 0.0324176 0
M  V30 3320 C 311.625 -2.47905 2.60904 0
M  V30 3321 C 311.233 -1.96016 4.02842 0
M  V30 3322 C 312.977 -3.24965 2.73126 0
M  V30 3323 C 310.884 -3.04494 5.06988 0
M  V30 3324 H 309.814 -0.514428 0.551253 0
M  V30 3325 H 312.465 -0.658182 1.7129 0
M  V30 3326 H 310.847 -3.21618 2.31037 0
M  V30 3327 H 312.021 -1.29051 4.4236 0
M  V30 3328 H 310.336 -1.31719 3.95018 0
M  V30 3329 H 312.933 -4.05865 3.48106 0
M  V30 3330 H 313.276 -3.75588 1.79553 0
M  V30 3331 H 313.809 -2.5835 3.0249 0
M  V30 3332 H 310.548 -2.58795 6.0225 0
M  V30 3333 H 310.068 -3.70044 4.72046 0
M  V30 3334 H 311.747 -3.68976 5.31475 0
M  V30 3335 N 311.879 -1.3236 -0.855495 0
M  V30 3336 C 312.809 -1.23833 -1.97958 0
M  V30 3337 C 313.79 -0.122361 -1.69659 0
M  V30 3338 O 314.975 -0.30939 -1.9172 0
M  V30 3339 C 312.105 -0.959772 -3.33775 0
M  V30 3340 C 311.059 -2.03689 -3.76424 0
M  V30 3341 C 310.385 -1.61075 -5.09862 0
M  V30 3342 C 311.685 -3.4518 -3.9198 0
M  V30 3343 H 313.379 -2.1788 -2.0535 0
M  V30 3344 H 310.925 -1.04891 -0.986605 0
M  V30 3345 H 312.878 -0.886678 -4.11966 0
M  V30 3346 H 311.602 0.0163404 -3.26596 0
M  V30 3347 H 310.261 -2.10012 -3.00484 0
M  V30 3348 H 309.909 -0.622107 -4.99138 0
M  V30 3349 H 309.609 -2.33143 -5.39368 0
M  V30 3350 H 311.133 -1.55201 -5.90546 0
M  V30 3351 H 312.547 -3.4145 -4.60526 0
M  V30 3352 H 310.944 -4.1559 -4.32903 0
M  V30 3353 H 312.014 -3.84903 -2.94919 0
M  V30 3354 N 313.357 1.07166 -1.15556 0
M  V30 3355 C 314.582 1.84053 -0.955988 0
M  V30 3356 C 315.007 1.81586 0.490739 0
M  V30 3357 O 314.365 1.21018 1.34997 0
M  V30 3358 C 314.413 3.28957 -1.47714 0
M  V30 3359 O 313.517 4.06795 -0.677593 0
M  V30 3360 H 312.858 0.569842 -0.340847 0
M  V30 3361 H 315.388 1.35178 -1.53584 0
M  V30 3362 H 315.398 3.79788 -1.4908 0
M  V30 3363 H 314.073 3.30068 -2.53037 0
M  V30 3364 H 312.65 3.6561 -0.733721 0
M  V30 3365 N 314.835 0.952656 1.25548 0
M  V30 3366 C 316.082 0.606373 1.93208 0
M  V30 3367 C 316.41 -0.85631 1.74636 0
M  V30 3368 O 315.665 -1.62951 1.08376 0
M  V30 3369 C 315.964 0.908818 3.45652 0
M  V30 3370 C 315.63 2.35722 3.84378 0
M  V30 3371 C 314.292 2.75312 3.9466 0
M  V30 3372 C 316.644 3.29793 4.03591 0
M  V30 3373 C 313.972 4.08047 4.21562 0
M  V30 3374 C 316.324 4.62138 4.31985 0
M  V30 3375 C 314.988 5.01528 4.40484 0
M  V30 3376 H 314.258 0.221888 0.706998 0
M  V30 3377 H 316.905 1.20132 1.49133 0
M  V30 3378 H 315.21 0.231456 3.91116 0
M  V30 3379 H 316.907 0.619498 3.96186 0
M  V30 3380 H 313.497 2.04017 3.76928 0
M  V30 3381 H 317.681 3.00397 3.95064 0
M  V30 3382 H 312.937 4.38212 4.26357 0
M  V30 3383 H 317.111 5.35012 4.45797 0
M  V30 3384 H 314.738 6.04406 4.61083 0
M  V30 3385 N 316.313 -1.40141 0.720998 0
M  V30 3386 C 317.562 -2.0002 0.259804 0
M  V30 3387 C 317.875 -1.57839 -1.15526 0
M  V30 3388 O 319.081 -2.10455 -1.71525 0
M  V30 3389 C 317.537 -3.57516 0.413566 0
M  V30 3390 C 317.145 -4.08667 1.83562 0
M  V30 3391 C 318.889 -4.24498 0.0134387 0
M  V30 3392 C 316.796 -5.58686 1.93968 0
M  V30 3393 H 315.726 -0.748195 0.0933806 0
M  V30 3394 H 318.377 -1.60313 0.892866 0
M  V30 3395 H 316.759 -3.9495 -0.288169 0
M  V30 3396 H 317.933 -3.82598 2.56817 0
M  V30 3397 H 316.248 -3.543 2.1877 0
M  V30 3398 H 318.845 -5.34654 0.0703954 0
M  V30 3399 H 319.188 -4.03375 -1.02927 0
M  V30 3400 H 319.721 -3.92188 0.665815 0
M  V30 3401 H 316.46 -5.8467 2.96379 0
M  V30 3402 H 315.98 -5.86602 1.25131 0
M  V30 3403 H 317.659 -6.23875 1.71431 0
M  V30 3404 N 317.792 -0.46758 -1.50504 0
M  V30 3405 C 318.722 0.318381 -2.31319 0
M  V30 3406 C 319.703 0.993564 -1.38066 0
M  V30 3407 O 320.888 0.991411 -1.66987 0
M  V30 3408 C 318.018 1.40275 -3.17711 0
M  V30 3409 C 316.972 0.849373 -4.19487 0
M  V30 3410 C 316.298 2.03177 -4.94594 0
M  V30 3411 C 317.598 -0.136942 -5.2212 0
M  V30 3412 H 319.292 -0.356106 -2.97275 0
M  V30 3413 H 316.838 -0.172703 -1.42961 0
M  V30 3414 H 318.791 1.96004 -3.73042 0
M  V30 3415 H 317.515 2.10596 -2.49634 0
M  V30 3416 H 316.174 0.314076 -3.65252 0
M  V30 3417 H 315.822 2.72187 -4.22993 0
M  V30 3418 H 315.522 1.66774 -5.63436 0
M  V30 3419 H 317.046 2.59403 -5.52759 0
M  V30 3420 H 318.46 0.331056 -5.72343 0
M  V30 3421 H 316.857 -0.41507 -5.98663 0
M  V30 3422 H 317.927 -1.06398 -4.73083 0
M  V30 3423 N 319.27 1.56325 -0.20005 0
M  V30 3424 C 320.233 2.18084 0.705132 0
M  V30 3425 C 321.233 1.13666 1.1374 0
M  V30 3426 O 322.423 1.39023 1.04968 0
M  V30 3427 C 319.555 2.78689 1.96329 0
M  V30 3428 H 320.748 2.99435 0.167023 0
M  V30 3429 H 318.301 1.56221 0.0495725 0
M  V30 3430 H 319.036 2.0115 2.5438 0
M  V30 3431 H 318.821 3.55133 1.66202 0
M  V30 3432 H 320.311 3.26096 2.60866 0
M  V30 3433 N 320.748 -0.0735177 1.57428 0
M  V30 3434 C 321.997 -0.771809 1.86349 0
M  V30 3435 C 322.31 -1.78828 0.792452 0
M  V30 3436 O 323.516 -2.53602 0.96945 0
M  V30 3437 C 321.972 -1.42358 3.30548 0
M  V30 3438 C 321.58 -0.445761 4.45777 0
M  V30 3439 C 323.324 -2.10434 3.6867 0
M  V30 3440 C 321.231 -1.10335 5.81016 0
M  V30 3441 H 320.161 -0.291999 0.695164 0
M  V30 3442 H 322.812 -0.0250749 1.83483 0
M  V30 3443 H 321.194 -2.21852 3.28021 0
M  V30 3444 H 322.368 0.319239 4.59693 0
M  V30 3445 H 320.683 0.130457 4.16196 0
M  V30 3446 H 323.28 -2.60405 4.67004 0
M  V30 3447 H 323.623 -2.90298 2.98383 0
M  V30 3448 H 324.156 -1.37773 3.7318 0
M  V30 3449 H 320.895 -0.345061 6.54591 0
M  V30 3450 H 320.415 -1.83925 5.70904 0
M  V30 3451 H 322.094 -1.62367 6.26295 0
M  V30 3452 N 322.226 -1.5378 -0.344866 0
M  V30 3453 C 323.637 -1.62428 -0.920552 0
M  V30 3454 C 323.988 -0.504747 -1.89596 0
M  V30 3455 O 323.113 0.365711 -2.13287 0
M  V30 3456 C 323.708 -2.94419 -1.67639 0
M  V30 3457 C 322.267 -3.05333 -2.20111 0
M  V30 3458 C 321.414 -2.57866 -1.01982 0
M  V30 3459 H 324.365 -1.58222 -0.123042 0
M  V30 3460 H 324.386 -2.83384 -2.53917 0
M  V30 3461 H 323.898 -3.7588 -0.966224 0
M  V30 3462 H 321.999 -2.28502 -2.94308 0
M  V30 3463 H 322.112 -4.10778 -2.46573 0
M  V30 3464 H 320.476 -2.13241 -1.39285 0
M  V30 3465 H 321.259 -3.41765 -0.324308 0
M  V30 3466 N 323.704 0.605807 -1.45491 0
M  V30 3467 C 324.614 1.74466 -1.56839 0
M  V30 3468 C 325.63 1.68006 -0.452772 0
M  V30 3469 O 326.806 1.8833 -0.713708 0
M  V30 3470 C 323.871 3.10931 -1.53371 0
M  V30 3471 C 322.932 3.28832 -2.75986 0
M  V30 3472 C 322.165 4.58787 -2.72673 0
M  V30 3473 O 322.388 5.4122 -1.80102 0
M  V30 3474 O 321.322 4.79438 -3.63899 0
M  V30 3475 H 325.148 1.67843 -2.53106 0
M  V30 3476 H 322.733 0.770108 -1.28022 0
M  V30 3477 H 324.615 3.92233 -1.54051 0
M  V30 3478 H 323.29 3.18042 -0.602572 0
M  V30 3479 H 322.197 2.47112 -2.80867 0
M  V30 3480 H 323.53 3.26599 -3.68231 0
M  V30 3481 N 325.182 1.32811 0.848464 0
M  V30 3482 C 326.145 1.22194 1.9391 0
M  V30 3483 C 327.145 0.143404 1.60159 0
M  V30 3484 O 328.335 0.394253 1.6968 0
M  V30 3485 C 325.467 0.88067 3.29328 0
M  V30 3486 H 326.66 2.19127 2.04752 0
M  V30 3487 H 324.213 1.16731 1.0394 0
M  V30 3488 H 324.948 -0.0865776 3.24184 0
M  V30 3489 H 324.733 1.66052 3.55203 0
M  V30 3490 H 326.223 0.830871 4.09251 0
M  V30 3491 N 326.66 -1.06551 1.16123 0
M  V30 3492 C 327.909 -1.78687 0.935622 0
M  V30 3493 C 328.222 -1.88056 -0.538001 0
M  V30 3494 O 329.428 -2.56794 -0.88143 0
M  V30 3495 C 327.884 -3.21143 1.62466 0
M  V30 3496 C 327.492 -3.19949 3.13587 0
M  V30 3497 C 329.236 -3.9783 1.48092 0
M  V30 3498 C 327.143 -4.57108 3.75241 0
M  V30 3499 H 326.073 -0.669712 0.346412 0
M  V30 3500 H 328.724 -1.19534 1.39226 0
M  V30 3501 H 327.106 -3.80539 1.09572 0
M  V30 3502 H 328.28 -2.70151 3.73303 0
M  V30 3503 H 326.595 -2.5676 3.27816 0
M  V30 3504 H 329.192 -4.99217 1.91538 0
M  V30 3505 H 329.535 -4.14078 0.429507 0
M  V30 3506 H 330.068 -3.4495 1.98127 0
M  V30 3507 H 326.807 -4.46065 4.80319 0
M  V30 3508 H 326.327 -5.07111 3.20309 0
M  V30 3509 H 328.006 -5.26069 3.76644 0
M  V30 3510 N 328.138 -0.959301 -1.25041 0
M  V30 3511 C 329.386 -0.615393 -1.92503 0
M  V30 3512 C 329.707 0.850969 -1.75452 0
M  V30 3513 O 328.977 1.60658 -1.12098 0
M  V30 3514 H 327.557 -0.224613 -0.712431 0
M  V30 3515 H 330.219 -1.21855 -1.5211 0
M  V30 3516 H 329.315 -0.848738 -3.00338 0
M  V30 3517 N 329.616 1.39756 -0.72842 0
M  V30 3518 C 330.863 2.00645 -0.273487 0
M  V30 3519 C 331.191 1.57786 1.13727 0
M  V30 3520 O 330.446 0.794886 1.7883 0
M  V30 3521 C 330.745 3.56002 -0.315776 0
M  V30 3522 C 330.411 4.18489 -1.67863 0
M  V30 3523 C 329.073 4.3527 -2.05166 0
M  V30 3524 C 331.425 4.53219 -2.57375 0
M  V30 3525 C 328.753 4.84069 -3.31503 0
M  V30 3526 C 331.105 5.03423 -3.83077 0
M  V30 3527 C 329.769 5.18413 -4.20481 0
M  V30 3528 H 329.039 0.734211 -0.100076 0
M  V30 3529 H 331.686 1.6718 -0.933972 0
M  V30 3530 H 329.991 3.89452 0.428285 0
M  V30 3531 H 331.688 4.00963 0.0542575 0
M  V30 3532 H 328.278 4.05824 -1.37858 0
M  V30 3533 H 332.462 4.39878 -2.29827 0
M  V30 3534 H 327.718 4.93859 -3.60435 0
M  V30 3535 H 331.892 5.2927 -4.52599 0
M  V30 3536 H 329.519 5.55987 -5.18443 0
M  V30 3537 N 331.094 0.475555 1.50254 0
M  V30 3538 C 332.34 -0.0780073 2.0265 0
M  V30 3539 C 332.673 -1.38968 1.35652 0
M  V30 3540 O 331.948 -1.8839 0.483691 0
M  V30 3541 C 332.231 -0.257161 3.59181 0
M  V30 3542 C 332.084 1.07585 4.36744 0
M  V30 3543 C 333.403 -1.00965 4.28362 0
M  V30 3544 H 330.522 -0.0268758 0.73651 0
M  V30 3545 H 333.164 0.622015 1.7953 0
M  V30 3546 H 331.314 -0.853412 3.79011 0
M  V30 3547 H 332.986 1.70902 4.28474 0
M  V30 3548 H 331.229 1.6714 4.00308 0
M  V30 3549 H 331.9 0.904088 5.44546 0
M  V30 3550 H 334.376 -0.504214 4.13034 0
M  V30 3551 H 333.252 -1.10381 5.37687 0
M  V30 3552 H 333.513 -2.04731 3.91839 0
M  V30 3553 N 332.573 -1.56217 0.208337 0
M  V30 3554 C 333.506 -2.15633 -0.746842 0
M  V30 3555 C 334.484 -1.09685 -1.20034 0
M  V30 3556 O 335.668 -1.3787 -1.28547 0
M  V30 3557 C 332.795 -2.72594 -2.01023 0
M  V30 3558 C 331.841 -3.91251 -1.69779 0
M  V30 3559 S 332.674 -5.28962 -0.834209 0
M  V30 3560 C 333.83 -5.89353 -2.10745 0
M  V30 3561 H 334.063 -2.96315 -0.241789 0
M  V30 3562 H 331.596 -1.54398 -0.00682183 0
M  V30 3563 H 333.554 -3.06053 -2.73572 0
M  V30 3564 H 332.215 -1.91929 -2.48641 0
M  V30 3565 H 331.408 -4.29562 -2.63614 0
M  V30 3566 H 331.01 -3.58869 -1.05303 0
M  V30 3567 H 333.302 -6.04522 -3.05875 0
M  V30 3568 H 334.245 -6.85661 -1.76845 0
M  V30 3569 H 334.653 -5.1807 -2.24196 0
M  V30 3570 N 334.051 0.0651679 -1.57465 0
M  V30 3571 C 335.297 0.764193 -1.87851 0
M  V30 3572 C 335.63 1.76889 -0.801495 0
M  V30 3573 O 334.905 1.93594 0.187528 0
M  V30 3574 C 335.188 1.46625 -3.28897 0
M  V30 3575 C 335.041 0.477515 -4.47258 0
M  V30 3576 C 336.36 2.4095 -3.68281 0
M  V30 3577 H 333.479 0.276351 -0.683227 0
M  V30 3578 H 336.121 0.0272868 -1.8998 0
M  V30 3579 H 334.271 2.09438 -3.27212 0
M  V30 3580 H 335.943 -0.145922 -4.61069 0
M  V30 3581 H 334.186 -0.206576 -4.33308 0
M  V30 3582 H 334.857 1.0065 -5.42746 0
M  V30 3583 H 337.333 1.88209 -3.71102 0
M  V30 3584 H 336.209 2.87072 -4.67847 0
M  V30 3585 H 336.47 3.26049 -2.98571 0
M  V30 3586 N 335.529 1.53961 0.336706 0
M  V30 3587 C 336.94 1.62914 0.911925 0
M  V30 3588 C 337.291 0.514795 1.89326 0
M  V30 3589 O 336.416 -0.354395 2.13478 0
M  V30 3590 C 337.011 2.95304 1.66076 0
M  V30 3591 C 335.57 3.06496 2.18489 0
M  V30 3592 C 334.717 2.58403 1.00613 0
M  V30 3593 H 337.668 1.58285 0.114649 0
M  V30 3594 H 337.689 2.84727 2.5241 0
M  V30 3595 H 337.201 3.76387 0.946276 0
M  V30 3596 H 335.302 2.3006 2.93092 0
M  V30 3597 H 335.415 4.1208 2.44391 0
M  V30 3598 H 333.779 2.13977 1.38152 0
M  V30 3599 H 334.562 3.41932 0.306179 0
M  V30 3600 N 337.007 -0.598083 1.45811 0
M  V30 3601 C 338.254 -1.35681 1.50323 0
M  V30 3602 C 338.582 -1.9393 0.148739 0
M  V30 3603 O 337.837 -1.76094 -0.853787 0
M  V30 3604 C 338.136 -2.51669 2.53766 0
M  V30 3605 C 337.802 -2.11508 3.98215 0
M  V30 3606 C 336.464 -2.0027 4.37545 0
M  V30 3607 C 338.816 -1.80308 4.89018 0
M  V30 3608 C 336.144 -1.56067 5.65562 0
M  V30 3609 C 338.496 -1.37589 6.17456 0
M  V30 3610 C 337.16 -1.24916 6.55708 0
M  V30 3611 H 336.43 -0.496492 0.550069 0
M  V30 3612 H 339.077 -0.675052 1.79207 0
M  V30 3613 H 337.382 -3.25225 2.18486 0
M  V30 3614 H 339.079 -3.09895 2.54492 0
M  V30 3615 H 335.669 -2.21185 3.67117 0
M  V30 3616 H 339.853 -1.87884 4.59362 0
M  V30 3617 H 335.109 -1.44886 5.93985 0
M  V30 3618 H 339.283 -1.12495 6.87254 0
M  V30 3619 H 336.91 -0.904386 7.54801 0
M  V30 3620 N 338.485 -1.33259 -0.841409 0
M  V30 3621 C 339.395 -1.25332 -1.98316 0
M  V30 3622 C 340.411 -0.164364 -1.73222 0
M  V30 3623 O 341.587 -0.387486 -1.97637 0
M  V30 3624 C 338.652 -0.990078 -3.32262 0
M  V30 3625 C 337.713 -2.16879 -3.70489 0
M  V30 3626 C 336.946 -1.91801 -4.98044 0
M  V30 3627 O 337.169 -0.867075 -5.63771 0
M  V30 3628 O 336.103 -2.78267 -5.33714 0
M  V30 3629 H 339.929 -2.21344 -2.07944 0
M  V30 3630 H 337.514 -1.1328 -0.974058 0
M  V30 3631 H 339.396 -0.860321 -4.12524 0
M  V30 3632 H 338.071 -0.0602155 -3.23644 0
M  V30 3633 H 336.978 -2.35407 -2.90748 0
M  V30 3634 H 338.311 -3.0819 -3.8377 0
M  V30 3635 N 339.963 1.05934 -1.16686 0
M  V30 3636 C 341.193 1.82226 -0.973515 0
M  V30 3637 C 341.601 1.8297 0.481532 0
M  V30 3638 O 340.944 1.25009 1.34604 0
M  V30 3639 C 341.006 3.29897 -1.42858 0
M  V30 3640 C 340.67 3.52849 -2.90425 0
M  V30 3641 C 341.667 3.45595 -3.88407 0
M  V30 3642 C 339.352 3.80053 -3.28428 0
M  V30 3643 C 341.346 3.65217 -5.22394 0
M  V30 3644 C 339.033 3.99325 -4.62583 0
M  V30 3645 C 340.031 3.91905 -5.59374 0
M  V30 3646 O 339.719 4.10647 -6.91104 0
M  V30 3647 H 339.451 0.581314 -0.345036 0
M  V30 3648 H 342.005 1.3453 -1.55212 0
M  V30 3649 H 340.235 3.78472 -0.793477 0
M  V30 3650 H 341.924 3.87692 -1.20207 0
M  V30 3651 H 342.69 3.24564 -3.60393 0
M  V30 3652 H 338.569 3.84936 -2.53664 0
M  V30 3653 H 342.113 3.59341 -5.9793 0
M  V30 3654 H 338.01 4.19846 -4.90306 0
M  V30 3655 H 338.778 4.27915 -6.97733 0
M  V30 3656 N 341.441 0.965919 1.2453 0
M  V30 3657 C 342.857 0.67216 1.44756 0
M  V30 3658 C 343.057 -0.766609 1.86347 0
M  V30 3659 O 342.113 -1.5407 2.00047 0
M  V30 3660 C 343.426 1.65473 2.51076 0
M  V30 3661 C 344.974 1.66716 2.64905 0
M  V30 3662 C 345.449 2.63766 3.74421 0
M  V30 3663 N 346.94 2.62198 3.81846 0
M  V30 3664 C 347.675 3.33966 4.66106 0
M  V30 3665 N 347.171 4.15245 5.54566 0
M  V30 3666 N 348.964 3.22799 4.60171 0
M  V30 3667 H 341.115 1.89553 0.958293 0
M  V30 3668 H 343.378 0.815979 0.482579 0
M  V30 3669 H 343.084 2.68296 2.27399 0
M  V30 3670 H 342.958 1.4261 3.49202 0
M  V30 3671 H 345.345 0.646057 2.87941 0
M  V30 3672 H 345.426 1.93642 1.67142 0
M  V30 3673 H 345.07 3.6601 3.52135 0
M  V30 3674 H 345 2.34121 4.71694 0
M  V30 3675 H 347.491 2.032 3.18619 0
M  V30 3676 H 347.804 4.66898 6.15814 0
M  V30 3677 H 346.149 4.1934 5.54237 0
M  V30 3678 H 349.34 2.58764 3.90075 0
M  V30 3679 H 349.513 3.78994 5.25612 0
M  V30 3680 N 342.919 -1.39368 0.735821 0
M  V30 3681 C 344.167 -2.00101 0.283562 0
M  V30 3682 C 344.488 -1.5868 -1.13338 0
M  V30 3683 O 343.758 -0.835423 -1.77193 0
M  V30 3684 H 342.338 -0.740024 0.101851 0
M  V30 3685 H 345 -1.70404 0.945962 0
M  V30 3686 H 344.096 -3.10323 0.332604 0
M  V30 3687 N 344.397 -0.483516 -1.5 0
M  V30 3688 C 345.307 0.309172 -2.32554 0
M  V30 3689 C 346.323 0.984159 -1.43493 0
M  V30 3690 O 347.499 0.969399 -1.76535 0
M  V30 3691 C 344.564 1.36979 -3.18493 0
M  V30 3692 C 343.625 0.710095 -4.23387 0
M  V30 3693 C 342.858 1.72018 -5.05218 0
M  V30 3694 O 343.081 2.94813 -4.88305 0
M  V30 3695 O 342.015 1.28515 -5.8802 0
M  V30 3696 H 345.841 -0.366064 -3.01486 0
M  V30 3697 H 343.426 -0.24514 -1.47375 0
M  V30 3698 H 345.308 1.98385 -3.71781 0
M  V30 3699 H 343.983 2.02828 -2.52275 0
M  V30 3700 H 342.89 0.0567539 -3.74057 0
M  V30 3701 H 344.223 0.0943557 -4.9211 0
M  V30 3702 N 345.875 1.56104 -0.216619 0
M  V30 3703 C 346.807 2.17339 0.72776 0
M  V30 3704 C 347.82 1.14109 1.16116 0
M  V30 3705 O 349.009 1.4111 1.09317 0
M  V30 3706 C 346.109 2.73818 1.99693 0
M  V30 3707 C 345.282 4.02168 1.71988 0
M  V30 3708 C 344.341 4.43259 2.83562 0
M  V30 3709 O 343.367 5.10257 2.52244 0
M  V30 3710 N 344.569 4.08535 4.12407 0
M  V30 3711 H 347.334 2.99005 0.203983 0
M  V30 3712 H 344.895 1.61861 -0.0354289 0
M  V30 3713 H 346.887 2.9828 2.73516 0
M  V30 3714 H 345.457 1.96483 2.43132 0
M  V30 3715 H 344.677 3.85612 0.818337 0
M  V30 3716 H 345.965 4.85907 1.50903 0
M  V30 3717 H 345.363 3.54687 4.40696 0
M  V30 3718 H 343.92 4.37901 4.8279 0
M  V30 3719 N 347.353 -0.0568162 1.57498 0
M  V30 3720 C 348.303 -1.07315 2.01166 0
M  V30 3721 C 349.287 -1.33632 0.896171 0
M  V30 3722 O 350.479 -1.33682 1.16009 0
M  V30 3723 C 347.608 -2.38257 2.47161 0
M  V30 3724 C 346.694 -2.1515 3.65474 0
M  V30 3725 N 347.085 -1.62014 4.7915 0
M  V30 3726 C 345.383 -2.45559 3.72313 0
M  V30 3727 C 346.084 -1.54069 5.60926 0
M  V30 3728 N 345.06 -2.00652 5.05213 0
M  V30 3729 H 348.862 -0.655878 2.86488 0
M  V30 3730 H 346.376 -0.263635 1.60246 0
M  V30 3731 H 348.373 -3.11845 2.76691 0
M  V30 3732 H 347.033 -2.80687 1.63232 0
M  V30 3733 H 348.044 -1.30667 5.01145 0
M  V30 3734 H 344.721 -2.91253 2.99129 0
M  V30 3735 H 346.111 -1.13712 6.62208 0
M  V30 3736 N 348.832 -1.54138 -0.328536 0
M  V30 3737 C 349.779 -1.83176 -1.40411 0
M  V30 3738 C 350.749 -0.678494 -1.5161 0
M  V30 3739 O 351.934 -0.92443 -1.6691 0
M  V30 3740 C 349.074 -2.06035 -2.76846 0
M  V30 3741 C 348.187 -3.33727 -2.74318 0
M  V30 3742 C 347.322 -3.46574 -4.02567 0
M  V30 3743 C 346.361 -4.68159 -3.94327 0
M  V30 3744 N 345.498 -4.77959 -5.14296 0
M  V30 3745 H 350.338 -2.74938 -1.14948 0
M  V30 3746 H 347.875 -1.36166 -0.556538 0
M  V30 3747 H 349.833 -2.1728 -3.56153 0
M  V30 3748 H 348.463 -1.1757 -3.00628 0
M  V30 3749 H 347.515 -3.31246 -1.8703 0
M  V30 3750 H 348.827 -4.23139 -2.64111 0
M  V30 3751 H 347.981 -3.57333 -4.90304 0
M  V30 3752 H 346.72 -2.55245 -4.15574 0
M  V30 3753 H 345.725 -4.57461 -3.04974 0
M  V30 3754 H 346.95 -5.60868 -3.82889 0
M  V30 3755 H 344.896 -3.89544 -5.27818 0
M  V30 3756 H 344.813 -5.6133 -5.06404 0
M  V30 3757 H 346.081 -4.93044 -6.03761 0
M  V30 3758 N 350.31 0.590341 -1.46126 0
M  V30 3759 C 351.538 1.37504 -1.54597 0
M  V30 3760 C 351.953 1.87897 -0.184447 0
M  V30 3761 O 351.31 1.63192 0.816984 0
M  V30 3762 C 351.361 2.56779 -2.54454 0
M  V30 3763 O 351.082 2.08476 -3.85317 0
M  V30 3764 C 352.583 3.49427 -2.72792 0
M  V30 3765 H 349.803 0.420325 -0.523037 0
M  V30 3766 H 352.347 0.718383 -1.91467 0
M  V30 3767 H 350.502 3.1845 -2.20609 0
M  V30 3768 H 350.916 2.86097 -4.396 0
M  V30 3769 H 352.39 4.29619 -3.466 0
M  V30 3770 H 352.867 4.00876 -1.79429 0
M  V30 3771 H 353.473 2.93598 -3.07702 0
M  V30 3772 N 351.788 1.33704 0.83433 0
M  V30 3773 C 353.028 1.26754 1.60352 0
M  V30 3774 C 353.392 -0.163182 1.91305 0
M  V30 3775 O 354.593 -0.3567 2.66423 0
M  V30 3776 C 352.864 2.12262 2.8754 0
M  V30 3777 S 354.423 2.22549 3.78176 0
M  V30 3778 H 351.241 0.450879 0.549753 0
M  V30 3779 H 353.843 1.68788 0.986444 0
M  V30 3780 H 352.547 3.15238 2.62779 0
M  V30 3781 H 352.078 1.71082 3.54252 0
M  V30 3782 H 354.093 1.3899 4.76336 0
M  V30 3783 N 353.266 -1.05314 1.17247 0
M  V30 3784 C 354.199 -2.12512 0.831507 0
M  V30 3785 C 355.177 -1.61351 -0.201168 0
M  V30 3786 O 356.361 -1.88317 -0.0829831 0
M  V30 3787 C 353.488 -3.37848 0.24015 0
M  V30 3788 C 352.534 -4.07832 1.24801 0
M  V30 3789 S 353.367 -4.56537 2.79882 0
M  V30 3790 C 354.523 -5.85122 2.22223 0
M  V30 3791 H 354.756 -2.41106 1.7394 0
M  V30 3792 H 352.289 -1.17896 0.996988 0
M  V30 3793 H 354.247 -4.10391 -0.0945588 0
M  V30 3794 H 352.908 -3.07392 -0.645668 0
M  V30 3795 H 352.101 -4.97883 0.78287 0
M  V30 3796 H 351.703 -3.41348 1.52831 0
M  V30 3797 H 353.995 -6.58408 1.59703 0
M  V30 3798 H 354.938 -6.36381 3.10523 0
M  V30 3799 H 355.346 -5.39626 1.65722 0
M  V30 3800 N 354.744 -0.972509 -1.24016 0
M  V30 3801 C 355.674 -0.525548 -2.27509 0
M  V30 3802 C 356.655 0.437262 -1.64384 0
M  V30 3803 O 357.84 0.332343 -1.91335 0
M  V30 3804 C 354.97 0.180448 -3.46831 0
M  V30 3805 C 353.924 -0.698859 -4.22256 0
M  V30 3806 C 353.25 0.138903 -5.3452 0
M  V30 3807 C 354.55 -1.98582 -4.83076 0
M  V30 3808 H 356.244 -1.39058 -2.65148 0
M  V30 3809 H 353.79 -0.67009 -1.27459 0
M  V30 3810 H 355.743 0.504387 -4.18371 0
M  V30 3811 H 354.467 1.07987 -3.08231 0
M  V30 3812 H 353.126 -1.00614 -3.52523 0
M  V30 3813 H 352.774 1.03862 -4.9216 0
M  V30 3814 H 352.474 -0.446259 -5.85903 0
M  V30 3815 H 353.998 0.457404 -6.08884 0
M  V30 3816 H 355.412 -1.72715 -5.46665 0
M  V30 3817 H 353.809 -2.5181 -5.44713 0
M  V30 3818 H 354.879 -2.67769 -4.04262 0
M  V30 3819 N 356.222 1.38976 -0.743202 0
M  V30 3820 C 357.17 2.32394 -0.0978389 0
M  V30 3821 C 358.164 1.53486 0.716824 0
M  V30 3822 O 359.37 1.69092 0.617088 0
M  V30 3823 H 355.745 0.75189 -0.0128402 0
M  V30 3824 H 357.716 2.84441 -0.901981 0
M  V30 3825 C 356.465 3.38629 0.789036 0
M  V30 3826 H 355.788 3.99432 0.171559 0
M  V30 3827 H 357.228 4.06426 1.20807 0
M  V30 3828 C 355.687 2.76347 1.92702 0
M  V30 3829 O 356.217 2.64836 3.02034 0
M  V30 3830 N 354.423 2.34311 1.71891 0
M  V30 3831 H 353.97 2.43873 0.829675 0
M  V30 3832 H 353.928 1.9298 2.48205 0
M  V30 3833 N 357.7 0.491464 1.49741 0
M  V30 3834 C 358.663 -0.280906 2.27472 0
M  V30 3835 C 359.663 -0.902454 1.33088 0
M  V30 3836 O 360.853 -0.768465 1.56334 0
M  V30 3837 C 357.985 -1.40209 3.10732 0
M  V30 3838 H 359.178 0.401056 2.97206 0
M  V30 3839 H 356.731 0.246131 1.5435 0
M  V30 3840 H 357.466 -2.11849 2.45541 0
M  V30 3841 H 357.251 -0.961969 3.80117 0
M  V30 3842 H 358.741 -1.9464 3.69466 0
M  V30 3843 N 359.178 -1.55987 0.224894 0
M  V30 3844 C 360.406 -2.02784 -0.410665 0
M  V30 3845 C 360.821 -1.10464 -1.53112 0
M  V30 3846 O 360.178 -0.114871 -1.82138 0
M  V30 3847 C 360.229 -3.49087 -0.939165 0
M  V30 3848 O 359.95 -4.37887 0.136614 0
M  V30 3849 C 361.451 -4.11543 -1.64763 0
M  V30 3850 H 358.671 -0.663484 -0.100148 0
M  V30 3851 H 361.215 -2.01614 0.342326 0
M  V30 3852 H 359.37 -3.50861 -1.64242 0
M  V30 3853 H 359.784 -5.23849 -0.261155 0
M  V30 3854 H 361.258 -5.15673 -1.96939 0
M  V30 3855 H 361.735 -3.56736 -2.56195 0
M  V30 3856 H 362.341 -4.13629 -0.989503 0
M  V30 3857 N 360.656 0.0484629 -1.57525 0
M  V30 3858 C 361.881 0.759177 -1.93006 0
M  V30 3859 C 362.306 1.69125 -0.823317 0
M  V30 3860 O 361.664 1.79931 0.222364 0
M  V30 3861 C 361.712 1.50899 -3.27509 0
M  V30 3862 O 360.816 2.62112 -3.18388 0
M  V30 3863 H 360.157 0.205564 -0.631379 0
M  V30 3864 H 362.687 0.00972959 -2.04598 0
M  V30 3865 H 362.697 1.88317 -3.6194 0
M  V30 3866 H 361.372 0.825269 -4.0763 0
M  V30 3867 H 359.949 2.27379 -2.95556 0
M  V30 3868 N 362.134 1.5431 0.320358 0
M  V30 3869 C 363.081 1.83918 1.39438 0
M  V30 3870 C 364.051 0.686525 1.51248 0
M  V30 3871 O 365.236 0.933269 1.66417 0
M  V30 3872 C 362.376 2.075 2.75749 0
M  V30 3873 C 361.489 3.35177 2.72544 0
M  V30 3874 C 360.624 3.48704 4.00723 0
M  V30 3875 C 359.663 4.70244 3.91838 0
M  V30 3876 N 358.8 4.80679 5.11754 0
M  V30 3877 H 363.64 2.75544 1.13489 0
M  V30 3878 H 361.177 1.36459 0.549309 0
M  V30 3879 H 363.135 2.19166 3.54996 0
M  V30 3880 H 361.765 1.19163 3 0
M  V30 3881 H 360.817 3.32233 1.85271 0
M  V30 3882 H 362.129 4.24534 2.61863 0
M  V30 3883 H 361.283 3.59928 4.88402 0
M  V30 3884 H 360.022 2.57445 4.14214 0
M  V30 3885 H 359.027 4.59072 3.02544 0
M  V30 3886 H 360.252 5.6289 3.7991 0
M  V30 3887 H 358.198 3.92337 5.25745 0
M  V30 3888 H 358.115 5.64007 5.0342 0
M  V30 3889 H 359.383 4.96239 6.01138 0
M  V30 3890 N 363.613 -0.582584 1.46437 0
M  V30 3891 C 364.86 -1.34079 1.51753 0
M  V30 3892 C 365.188 -1.93762 0.169299 0
M  V30 3893 O 364.443 -1.76989 -0.835062 0
M  V30 3894 C 364.742 -2.48964 2.56421 0
M  V30 3895 C 364.408 -2.07273 4.00436 0
M  V30 3896 C 363.07 -1.95618 4.39644 0
M  V30 3897 C 365.422 -1.75111 4.90903 0
M  V30 3898 C 362.75 -1.5006 5.67185 0
M  V30 3899 C 365.102 -1.31032 6.18881 0
M  V30 3900 C 363.766 -1.17954 6.56996 0
M  V30 3901 H 363.036 -0.49063 0.555304 0
M  V30 3902 H 365.683 -0.656007 1.79913 0
M  V30 3903 H 363.988 -3.22889 2.21923 0
M  V30 3904 H 365.685 -3.07178 2.57765 0
M  V30 3905 H 362.275 -2.17279 3.69443 0
M  V30 3906 H 366.459 -1.83001 4.61329 0
M  V30 3907 H 361.715 -1.38577 5.95488 0
M  V30 3908 H 365.889 -1.052 6.88408 0
M  V30 3909 H 363.516 -0.824279 7.55718 0
M  V30 3910 N 365.091 -1.34144 -0.827227 0
M  V30 3911 C 366.024 -1.19707 -1.94282 0
M  V30 3912 C 367.002 -0.0897256 -1.62352 0
M  V30 3913 O 368.186 -0.254095 -1.8678 0
M  V30 3914 C 365.313 -0.838646 -3.28153 0
M  V30 3915 C 364.359 -1.95514 -3.79047 0
M  V30 3916 S 365.192 -3.56793 -3.99323 0
M  V30 3917 C 366.348 -3.22983 -5.36127 0
M  V30 3918 H 366.581 -2.1414 -2.06231 0
M  V30 3919 H 364.114 -1.19121 -0.982321 0
M  V30 3920 H 366.072 -0.638637 -4.05502 0
M  V30 3921 H 364.733 0.0872776 -3.13979 0
M  V30 3922 H 363.926 -1.658 -4.75948 0
M  V30 3923 H 363.528 -2.11241 -3.08631 0
M  V30 3924 H 365.82 -2.74531 -6.19386 0
M  V30 3925 H 366.763 -4.19008 -5.70822 0
M  V30 3926 H 367.171 -2.59276 -5.01434 0
M  V30 3927 N 366.569 1.04691 -1.17803 0
M  V30 3928 C 367.479 2.16057 -0.914151 0
M  V30 3929 C 368.495 1.73589 0.119503 0
M  V30 3930 O 369.671 2.01308 -0.0609468 0
M  V30 3931 C 366.736 3.4394 -0.436603 0
M  V30 3932 C 365.797 4.00825 -1.53746 0
M  V30 3933 C 365.03 5.22604 -1.0826 0
M  V30 3934 O 365.253 5.70367 0.0612244 0
M  V30 3935 O 364.187 5.7186 -1.87775 0
M  V30 3936 H 368.013 2.41169 -1.84584 0
M  V30 3937 H 365.598 1.1453 -0.959334 0
M  V30 3938 H 367.48 4.21024 -0.178057 0
M  V30 3939 H 366.155 3.20316 0.466869 0
M  V30 3940 H 365.062 3.25158 -1.84995 0
M  V30 3941 H 366.395 4.28778 -2.41683 0
M  V30 3942 N 368.047 0.979072 1.23499 0
M  V30 3943 C 369.294 0.647219 1.91878 0
M  V30 3944 C 369.622 -0.819074 1.76413 0
M  V30 3945 O 368.877 -1.60616 1.11808 0
M  V30 3946 C 369.176 0.981932 3.43646 0
M  V30 3947 C 368.842 2.43822 3.79291 0
M  V30 3948 C 367.504 2.83622 3.88731 0
M  V30 3949 C 369.856 3.3828 3.96505 0
M  V30 3950 C 367.184 4.16897 4.12812 0
M  V30 3951 C 369.536 4.71197 4.22085 0
M  V30 3952 C 368.2 5.10758 4.29747 0
M  V30 3953 H 367.47 0.236834 0.702133 0
M  V30 3954 H 370.117 1.23268 1.46551 0
M  V30 3955 H 368.422 0.314365 3.90537 0
M  V30 3956 H 370.119 0.703395 3.94783 0
M  V30 3957 H 366.709 2.11966 3.72516 0
M  V30 3958 H 370.893 3.0871 3.88603 0
M  V30 3959 H 366.149 4.47157 4.16966 0
M  V30 3960 H 370.323 5.44348 4.34348 0
M  V30 3961 H 367.95 6.1405 4.48159 0
M  V30 3962 N 369.525 -1.3858 0.750561 0
M  V30 3963 C 370.755 -2.04175 0.31564 0
M  V30 3964 C 371.163 -1.56726 -1.05989 0
M  V30 3965 O 370.506 -0.734225 -1.68389 0
M  V30 3966 C 370.568 -3.58585 0.256389 0
M  V30 3967 C 370.232 -4.29077 1.57296 0
M  V30 3968 C 371.229 -4.54656 2.52159 0
M  V30 3969 C 368.914 -4.67324 1.84156 0
M  V30 3970 C 370.908 -5.17512 3.72103 0
M  V30 3971 C 368.595 -5.29905 3.04374 0
M  V30 3972 C 369.593 -5.54933 3.98168 0
M  V30 3973 O 369.281 -6.16212 5.16273 0
M  V30 3974 H 369.013 -0.662742 0.133226 0
M  V30 3975 H 371.567 -1.78313 1.01948 0
M  V30 3976 H 369.797 -3.83406 -0.503677 0
M  V30 3977 H 371.486 -4.05628 -0.148612 0
M  V30 3978 H 372.252 -4.25539 2.32683 0
M  V30 3979 H 368.131 -4.47191 1.11988 0
M  V30 3980 H 371.675 -5.36963 4.45327 0
M  V30 3981 H 367.572 -5.58444 3.23745 0
M  V30 3982 H 368.34 -6.34701 5.16815 0
M  V30 3983 N 371.003 -0.499398 -1.49478 0
M  V30 3984 C 371.935 0.316575 -2.27003 0
M  V30 3985 C 372.948 0.932047 -1.33479 0
M  V30 3986 O 374.137 0.815658 -1.58774 0
M  V30 3987 C 371.237 1.46055 -3.05812 0
M  V30 3988 C 370.41 0.952679 -4.26899 0
M  V30 3989 C 369.469 1.97407 -4.87767 0
M  V30 3990 O 368.495 1.54326 -5.4788 0
M  V30 3991 N 369.697 3.30436 -4.77276 0
M  V30 3992 H 372.462 -0.348168 -2.97671 0
M  V30 3993 H 370.023 -0.33185 -1.58463 0
M  V30 3994 H 372.015 2.14135 -3.43407 0
M  V30 3995 H 370.585 2.02948 -2.37762 0
M  V30 3996 H 369.805 0.0968248 -3.94081 0
M  V30 3997 H 371.093 0.59174 -5.05347 0
M  V30 3998 H 370.491 3.68126 -4.29534 0
M  V30 3999 H 369.048 3.94235 -5.19059 0
M  V30 4000 N 372.481 1.55866 -0.233164 0
M  V30 4001 C 373.758 1.90471 0.444988 0
M  V30 4002 C 374.138 1.15209 1.7689 0
M  V30 4003 O 373.486 0.265119 2.26957 0
M  V30 4004 C 373.696 3.4333 0.626559 0
M  V30 4005 C 375.044 4.14319 0.92871 0
M  V30 4006 O 376.068 3.48993 0.712926 0
M  V30 4007 O 374.927 5.29846 1.33887 0
M  V30 4008 H 372.021 0.792347 0.236885 0
M  V30 4009 H 374.567 1.67437 -0.276211 0
M  V30 4010 H 373.339 3.90095 -0.306822 0
M  V30 4011 H 372.962 3.72181 1.39881 0
M  V30 4012 N 373.959 -0.0401083 1.57549 0
M  V30 4013 C 375.205 -0.734211 1.89043 0
M  V30 4014 C 375.538 -1.75591 0.829535 0
M  V30 4015 O 374.813 -1.93868 -0.156706 0
M  V30 4016 C 375.096 -1.41374 3.31188 0
M  V30 4017 C 374.949 -0.406299 4.47961 0
M  V30 4018 C 376.268 -2.35061 3.72068 0
M  V30 4019 H 373.387 -0.265447 0.687537 0
M  V30 4020 H 376.029 0.00294087 1.9 0
M  V30 4021 H 374.179 -2.04206 3.30503 0
M  V30 4022 H 375.851 0.219255 4.60779 0
M  V30 4023 H 374.094 0.275485 4.32924 0
M  V30 4024 H 374.765 -0.920022 5.44279 0
M  V30 4025 H 377.241 -1.82282 3.74049 0
M  V30 4026 H 376.117 -2.79593 4.72355 0
M  V30 4027 H 376.378 -3.21258 3.0372 0
M  V30 4028 N 375.437 -1.54477 -0.31217 0
M  V30 4029 C 376.384 -1.84655 -1.38461 0
M  V30 4030 C 377.354 -0.694536 -1.50882 0
M  V30 4031 O 378.539 -0.942081 -1.6592 0
M  V30 4032 C 375.679 -2.0896 -2.74645 0
M  V30 4033 C 374.792 -3.36618 -2.70763 0
M  V30 4034 C 373.927 -3.50824 -3.98868 0
M  V30 4035 C 372.966 -4.72315 -3.89339 0
M  V30 4036 N 372.103 -4.83387 -5.09197 0
M  V30 4037 H 376.943 -2.76142 -1.12026 0
M  V30 4038 H 374.48 -1.36748 -0.542065 0
M  V30 4039 H 376.438 -2.21045 -3.53829 0
M  V30 4040 H 375.068 -1.20752 -2.99364 0
M  V30 4041 H 374.12 -3.33211 -1.83506 0
M  V30 4042 H 375.432 -4.25917 -2.59608 0
M  V30 4043 H 374.586 -3.62513 -4.86486 0
M  V30 4044 H 373.325 -2.59638 -4.12843 0
M  V30 4045 H 372.33 -4.6067 -3.00105 0
M  V30 4046 H 373.555 -5.64897 -3.76919 0
M  V30 4047 H 371.501 -3.9512 -5.23657 0
M  V30 4048 H 371.418 -5.66669 -5.00422 0
M  V30 4049 H 372.686 -4.9942 -5.98498 0
M  V30 4050 N 376.915 0.57481 -1.46744 0
M  V30 4051 C 378.192 1.3352 -1.4294 0
M  V30 4052 C 378.572 2.10775 -0.117009 0
M  V30 4053 O 377.92 2.09966 0.901474 0
M  V30 4054 C 378.13 2.25456 -2.66403 0
M  V30 4055 C 379.478 2.87035 -3.12883 0
M  V30 4056 O 380.502 2.35766 -2.67007 0
M  V30 4057 O 379.361 3.80179 -3.92589 0
M  V30 4058 H 376.455 0.600318 -0.568812 0
M  V30 4059 H 379.001 0.595171 -1.58921 0
M  V30 4060 H 377.773 1.67851 -3.53471 0
M  V30 4061 H 377.396 3.06785 -2.52921 0
M  V30 4062 N 378.394 1.34581 0.820102 0
M  V30 4063 C 379.64 1.28294 1.57836 0
M  V30 4064 C 379.995 -0.145099 1.91852 0
M  V30 4065 O 379.288 -1.09209 1.57429 0
M  V30 4066 C 379.482 2.10997 2.8847 0
M  V30 4067 C 379.311 3.61698 2.67216 0
M  V30 4068 C 378.081 4.3097 2.63805 0
M  V30 4069 C 380.279 4.55638 2.38534 0
M  V30 4070 N 378.261 5.67502 2.34126 0
M  V30 4071 C 379.632 5.80194 2.18574 0
M  V30 4072 C 381.687 4.44523 2.24285 0
M  V30 4073 C 380.39 6.94886 1.8581 0
M  V30 4074 C 382.416 5.5905 1.92916 0
M  V30 4075 C 381.778 6.82627 1.73782 0
M  V30 4076 H 377.877 0.524697 0.579842 0
M  V30 4077 H 380.461 1.69323 0.961139 0
M  V30 4078 H 378.632 1.7226 3.48111 0
M  V30 4079 H 380.364 1.96333 3.53886 0
M  V30 4080 H 377.119 3.83438 2.77978 0
M  V30 4081 H 377.543 6.39525 2.22118 0
M  V30 4082 H 382.185 3.49599 2.37782 0
M  V30 4083 H 379.903 7.89789 1.7105 0
M  V30 4084 H 383.489 5.52396 1.82619 0
M  V30 4085 H 382.369 7.69748 1.49861 0
M  V30 4086 N 379.872 -1.04064 1.18357 0
M  V30 4087 C 381.118 -1.77658 0.990412 0
M  V30 4088 C 381.473 -1.86446 -0.474944 0
M  V30 4089 O 380.766 -1.36153 -1.34807 0
M  V30 4090 C 380.96 -3.20634 1.57888 0
M  V30 4091 C 380.789 -3.25782 3.09994 0
M  V30 4092 C 379.559 -3.34411 3.7881 0
M  V30 4093 C 381.757 -3.13791 4.0748 0
M  V30 4094 N 379.739 -3.28809 5.18418 0
M  V30 4095 C 381.11 -3.15689 5.33611 0
M  V30 4096 C 383.165 -2.97833 3.98998 0
M  V30 4097 C 381.868 -3.03268 6.52243 0
M  V30 4098 C 383.894 -2.86759 5.17227 0
M  V30 4099 C 383.256 -2.893 6.4225 0
M  V30 4100 H 379.355 -0.661901 0.416427 0
M  V30 4101 H 381.939 -1.23968 1.50133 0
M  V30 4102 H 380.11 -3.7267 1.09414 0
M  V30 4103 H 381.842 -3.82525 1.32124 0
M  V30 4104 H 378.597 -3.40144 3.29543 0
M  V30 4105 H 379.021 -3.29448 5.91433 0
M  V30 4106 H 383.663 -2.94698 3.03171 0
M  V30 4107 H 381.381 -3.05156 7.48268 0
M  V30 4108 H 384.967 -2.75465 5.12455 0
M  V30 4109 H 383.847 -2.80818 7.32196 0
M  V30 4110 N 381.35 -0.985608 -1.22978 0
M  V30 4111 C 382.28 -0.549649 -2.26939 0
M  V30 4112 C 383.261 0.419803 -1.64838 0
M  V30 4113 O 384.446 0.31203 -1.91677 0
M  V30 4114 C 381.576 0.143652 -3.47003 0
M  V30 4115 C 380.53 -0.743606 -4.21491 0
M  V30 4116 C 379.856 0.0822027 -5.34637 0
M  V30 4117 C 381.156 -2.03694 -4.80943 0
M  V30 4118 H 382.85 -1.41862 -2.63658 0
M  V30 4119 H 380.396 -0.683571 -1.26741 0
M  V30 4120 H 382.349 0.459985 -4.18882 0
M  V30 4121 H 381.073 1.04711 -3.09359 0
M  V30 4122 H 379.732 -1.04347 -3.51436 0
M  V30 4123 H 379.38 0.986359 -4.93234 0
M  V30 4124 H 379.08 -0.508377 -5.85397 0
M  V30 4125 H 380.604 0.392797 -6.09335 0
M  V30 4126 H 382.018 -1.78504 -5.44802 0
M  V30 4127 H 380.415 -2.57573 -5.42011 0
M  V30 4128 H 381.485 -2.72042 -4.01399 0
M  V30 4129 N 382.828 1.3818 -0.7579 0
M  V30 4130 C 384.075 2.00019 -0.315985 0
M  V30 4131 C 384.403 1.60163 1.10355 0
M  V30 4132 O 383.658 0.83264 1.77103 0
M  V30 4133 C 383.957 3.55252 -0.391218 0
M  V30 4134 C 383.623 4.14834 -1.76702 0
M  V30 4135 C 382.285 4.30821 -2.14353 0
M  V30 4136 C 384.637 4.47658 -2.66931 0
M  V30 4137 C 381.965 4.76928 -3.41696 0
M  V30 4138 C 384.317 4.95184 -3.93669 0
M  V30 4139 C 382.981 5.09377 -4.31383 0
M  V30 4140 H 382.251 0.731923 -0.115627 0
M  V30 4141 H 384.898 1.65161 -0.969223 0
M  V30 4142 H 383.203 3.90273 0.34558 0
M  V30 4143 H 384.9 4.00988 -0.030805 0
M  V30 4144 H 381.49 4.02808 -1.46435 0
M  V30 4145 H 385.674 4.34904 -2.39106 0
M  V30 4146 H 380.93 4.86103 -3.70829 0
M  V30 4147 H 385.104 5.19551 -4.63724 0
M  V30 4148 H 382.731 5.44865 -5.30119 0
M  V30 4149 N 384.306 0.507319 1.49211 0
M  V30 4150 C 385.554 -0.0348839 2.0207 0
M  V30 4151 C 385.875 -1.36898 1.38866 0
M  V30 4152 O 385.145 -1.88133 0.546151 0
M  V30 4153 H 383.725 -0.0158812 0.746831 0
M  V30 4154 H 386.387 0.665998 1.83168 0
M  V30 4155 H 385.483 -0.159917 3.1169 0
M  V30 4156 N 385.784 -1.5574 0.241426 0
M  V30 4157 C 387.031 -1.9881 -0.384836 0
M  V30 4158 C 387.359 -1.12947 -1.58346 0
M  V30 4159 O 386.614 -0.178993 -1.9488 0
M  V30 4160 C 386.913 -3.47308 -0.843317 0
M  V30 4161 C 386.579 -4.50223 0.246946 0
M  V30 4162 C 385.241 -4.78088 0.546399 0
M  V30 4163 C 387.593 -5.11841 0.983282 0
M  V30 4164 C 384.921 -5.64846 1.58636 0
M  V30 4165 C 387.273 -5.99727 2.01272 0
M  V30 4166 C 385.937 -6.25927 2.31888 0
M  V30 4167 H 385.207 -0.727496 -0.140821 0
M  V30 4168 H 387.854 -1.8831 0.348106 0
M  V30 4169 H 386.159 -3.55112 -1.65537 0
M  V30 4170 H 387.856 -3.78017 -1.33806 0
M  V30 4171 H 384.446 -4.286 0.00340639 0
M  V30 4172 H 388.63 -4.90366 0.765182 0
M  V30 4173 H 383.886 -5.83403 1.82896 0
M  V30 4174 H 388.06 -6.46517 2.58823 0
M  V30 4175 H 385.687 -6.92949 3.12611 0
M  V30 4176 N 387.262 0.0317525 -1.57568 0
M  V30 4177 C 388.492 0.733884 -1.93126 0
M  V30 4178 C 388.9 1.69563 -0.839352 0
M  V30 4179 O 388.243 1.82681 0.193175 0
M  V30 4180 C 388.305 1.54798 -3.24465 0
M  V30 4181 C 387.969 0.751304 -4.50782 0
M  V30 4182 C 388.966 0.0527632 -5.19873 0
M  V30 4183 C 386.651 0.706639 -4.97305 0
M  V30 4184 C 388.645 -0.679774 -6.33765 0
M  V30 4185 C 386.332 -0.0296449 -6.11093 0
M  V30 4186 C 387.33 -0.721614 -6.79177 0
M  V30 4187 O 387.018 -1.44595 -7.90789 0
M  V30 4188 H 386.75 0.211459 -0.642076 0
M  V30 4189 H 389.304 -0.00585615 -2.05399 0
M  V30 4190 H 387.534 2.33147 -3.08512 0
M  V30 4191 H 389.223 2.13247 -3.4537 0
M  V30 4192 H 389.989 0.0783188 -4.84937 0
M  V30 4193 H 385.868 1.23474 -4.44157 0
M  V30 4194 H 389.412 -1.22042 -6.86842 0
M  V30 4195 H 385.309 -0.0571331 -6.45475 0
M  V30 4196 H 386.077 -1.35935 -8.07133 0
M  V30 4197 N 388.74 1.54641 0.303973 0
M  V30 4198 C 389.987 1.7378 1.03955 0
M  V30 4199 C 390.315 0.521986 1.87365 0
M  V30 4200 O 389.57 -0.496099 1.89308 0
M  V30 4201 C 389.869 2.97753 1.97681 0
M  V30 4202 C 389.535 4.31671 1.30271 0
M  V30 4203 C 388.197 4.68075 1.11619 0
M  V30 4204 C 390.549 5.147 0.82055 0
M  V30 4205 C 387.877 5.8509 0.434304 0
M  V30 4206 C 390.229 6.32416 0.152395 0
M  V30 4207 C 388.893 6.67484 -0.0461067 0
M  V30 4208 H 388.163 0.635908 0.380398 0
M  V30 4209 H 390.81 1.88896 0.314718 0
M  V30 4210 H 389.115 2.77406 2.76682 0
M  V30 4211 H 390.812 3.09756 2.54661 0
M  V30 4212 H 387.402 4.03041 1.45795 0
M  V30 4213 H 391.586 4.87077 0.952374 0
M  V30 4214 H 386.842 6.10806 0.269495 0
M  V30 4215 H 391.016 6.96023 -0.229126 0
M  V30 4216 H 388.643 7.58011 -0.576494 0
M  V30 4217 N 390.218 -0.567019 1.47046 0
M  V30 4218 C 391.458 -1.3355 1.54738 0
M  V30 4219 C 391.822 -1.90947 0.200772 0
M  V30 4220 O 393.023 -2.68367 0.152489 0
M  V30 4221 C 391.294 -2.42317 2.62712 0
M  V30 4222 S 392.853 -3.29383 2.89918 0
M  V30 4223 H 389.671 -0.454788 0.546525 0
M  V30 4224 H 392.273 -0.650191 1.84371 0
M  V30 4225 H 390.977 -1.98568 3.59164 0
M  V30 4226 H 390.508 -3.15601 2.34861 0
M  V30 4227 H 392.523 -4.41548 2.26384 0
M  V30 4228 N 391.696 -1.35014 -0.812953 0
M  V30 4229 C 392.629 -1.21761 -1.93001 0
M  V30 4230 C 393.607 -0.10694 -1.62248 0
M  V30 4231 O 394.791 -0.273891 -1.865 0
M  V30 4232 C 391.918 -0.873404 -3.27245 0
M  V30 4233 C 390.964 -1.99523 -3.76952 0
M  V30 4234 S 391.797 -3.61009 -3.95516 0
M  V30 4235 C 392.953 -3.28651 -5.32672 0
M  V30 4236 H 393.186 -2.16315 -2.03948 0
M  V30 4237 H 390.719 -1.20156 -0.969631 0
M  V30 4238 H 392.677 -0.68161 -4.04802 0
M  V30 4239 H 391.338 0.053971 -3.14054 0
M  V30 4240 H 390.531 -1.70838 -4.74163 0
M  V30 4241 H 390.133 -2.14503 -3.06373 0
M  V30 4242 H 392.425 -2.81085 -6.1644 0
M  V30 4243 H 393.368 -4.25039 -5.66346 0
M  V30 4244 H 393.776 -2.6458 -4.98656 0
M  V30 4245 N 393.175 1.03435 -1.18907 0
M  V30 4246 C 394.586 1.58195 -0.991523 0
M  V30 4247 C 394.937 1.90801 0.457081 0
M  V30 4248 O 394.062 1.70272 1.33553 0
M  V30 4249 C 394.657 2.87432 -1.79355 0
M  V30 4250 C 393.216 3.38785 -1.64017 0
M  V30 4251 C 392.363 2.12292 -1.78402 0
M  V30 4252 H 395.314 0.860299 -1.33359 0
M  V30 4253 H 395.335 3.58096 -1.28638 0
M  V30 4254 H 394.847 2.63669 -2.84781 0
M  V30 4255 H 392.948 3.67547 -0.611536 0
M  V30 4256 H 393.061 4.12186 -2.44212 0
M  V30 4257 H 391.425 2.23901 -1.2141 0
M  V30 4258 H 392.208 1.90977 -2.85277 0
M  V30 4259 N 394.653 0.992116 1.22453 0
M  V30 4260 C 395.583 0.561677 2.26644 0
M  V30 4261 C 396.564 -0.411055 1.65059 0
M  V30 4262 O 397.749 -0.301861 1.9184 0
M  V30 4263 C 394.879 -0.125247 3.47074 0
M  V30 4264 C 393.833 0.765948 4.21091 0
M  V30 4265 C 393.159 -0.0538484 5.34673 0
M  V30 4266 C 394.459 2.06242 4.79856 0
M  V30 4267 H 396.153 1.43259 2.62902 0
M  V30 4268 H 393.699 0.690283 1.26377 0
M  V30 4269 H 395.652 -0.437764 4.1912 0
M  V30 4270 H 394.376 -1.03069 3.0991 0
M  V30 4271 H 393.035 1.0621 3.50878 0
M  V30 4272 H 392.683 -0.960188 4.9375 0
M  V30 4273 H 392.383 0.539415 5.85119 0
M  V30 4274 H 393.907 -0.360477 6.09535 0
M  V30 4275 H 395.321 1.8139 5.43848 0
M  V30 4276 H 393.718 2.60444 5.40638 0
M  V30 4277 H 394.788 2.74167 3.99951 0
M  V30 4278 N 396.131 -1.37776 0.765217 0
M  V30 4279 C 397.377 -2.00145 0.327072 0
M  V30 4280 C 397.71 -1.60607 -1.09175 0
M  V30 4281 O 396.985 -0.849127 -1.74986 0
M  V30 4282 C 397.268 -3.57109 0.46319 0
M  V30 4283 C 397.121 -4.06576 1.92395 0
M  V30 4284 C 398.44 -4.39888 -0.136473 0
M  V30 4285 H 395.559 -0.727113 0.120316 0
M  V30 4286 H 398.201 -1.63549 0.967039 0
M  V30 4287 H 396.351 -3.88414 -0.0816358 0
M  V30 4288 H 398.023 -3.85864 2.52798 0
M  V30 4289 H 396.266 -3.59011 2.43503 0
M  V30 4290 H 396.937 -5.15639 1.97028 0
M  V30 4291 H 399.413 -4.14803 0.328317 0
M  V30 4292 H 398.289 -5.48899 -0.0110582 0
M  V30 4293 H 398.55 -4.24758 -1.22608 0
M  V30 4294 N 397.609 -0.515225 -1.4894 0
M  V30 4295 C 398.849 0.0223983 -2.04388 0
M  V30 4296 C 399.213 1.32961 -1.38511 0
M  V30 4297 O 400.414 1.95236 -1.8476 0
M  V30 4298 C 398.685 0.157056 -3.57055 0
M  V30 4299 S 400.244 0.646875 -4.34006 0
M  V30 4300 H 397.062 -0.00500662 -0.710982 0
M  V30 4301 H 399.664 -0.69243 -1.82827 0
M  V30 4302 H 398.368 -0.799412 -4.02539 0
M  V30 4303 H 397.899 0.896704 -3.83044 0
M  V30 4304 H 399.914 1.91381 -4.57808 0
M  V30 4305 N 399.087 1.5561 -0.249682 0
M  V30 4306 C 400.315 2.03411 0.378352 0
M  V30 4307 C 400.73 1.12886 1.51335 0
M  V30 4308 O 400.087 0.143833 1.81932 0
M  V30 4309 C 400.138 3.50537 0.88351 0
M  V30 4310 O 399.859 4.37614 -0.20626 0
M  V30 4311 C 401.36 4.14113 1.58195 0
M  V30 4312 H 398.58 0.664994 0.08958 0
M  V30 4313 H 401.124 2.01044 -0.374357 0
M  V30 4314 H 399.279 3.5343 1.58639 0
M  V30 4315 H 399.693 5.24199 0.177782 0
M  V30 4316 H 401.167 5.18741 1.8871 0
M  V30 4317 H 401.644 3.60767 2.50487 0
M  V30 4318 H 402.25 4.15151 0.923573 0
M  V30 4319 N 400.565 -0.0233959 1.57583 0
M  V30 4320 C 401.528 -1.00693 2.05897 0
M  V30 4321 C 402.528 -1.28693 0.964092 0
M  V30 4322 O 403.718 -1.23602 1.22753 0
M  V30 4323 C 400.85 -2.33825 2.4807 0
M  V30 4324 H 402.043 -0.589476 2.9405 0
M  V30 4325 H 399.596 -0.270354 1.53944 0
M  V30 4326 H 400.331 -2.80307 1.6309 0
M  V30 4327 H 400.116 -2.1483 3.2801 0
M  V30 4328 H 401.606 -3.04426 2.85857 0
M  V30 4329 N 402.043 -1.548 -0.295768 0
M  V30 4330 C 403.292 -1.73538 -1.02798 0
M  V30 4331 C 403.605 -0.531159 -1.8825 0
M  V30 4332 O 404.811 -0.600458 -2.64777 0
M  V30 4333 C 403.267 -3.07051 -1.87744 0
M  V30 4334 C 402.875 -4.34968 -1.07269 0
M  V30 4335 C 404.619 -3.35146 -2.60533 0
M  V30 4336 C 402.526 -5.5953 -1.91521 0
M  V30 4337 H 401.456 -0.646794 -0.387522 0
M  V30 4338 H 404.107 -1.81278 -0.284718 0
M  V30 4339 H 402.489 -2.93289 -2.66078 0
M  V30 4340 H 403.663 -4.5958 -0.335117 0
M  V30 4341 H 401.978 -4.13847 -0.460384 0
M  V30 4342 H 404.575 -4.2541 -3.23929 0
M  V30 4343 H 404.918 -2.54255 -3.29636 0
M  V30 4344 H 405.451 -3.49902 -1.89244 0
M  V30 4345 H 402.19 -6.43103 -1.26878 0
M  V30 4346 H 401.71 -5.39096 -2.62937 0
M  V30 4347 H 403.389 -5.96982 -2.49442 0
M  V30 4348 N 403.521 0.559213 -1.47345 0
M  V30 4349 C 404.768 1.31648 -1.53867 0
M  V30 4350 C 405.096 1.93468 -0.200104 0
M  V30 4351 O 404.351 1.78295 0.806799 0
M  V30 4352 C 404.65 2.44853 -2.6035 0
M  V30 4353 C 404.316 2.00876 -4.03683 0
M  V30 4354 C 402.978 1.88599 -4.42701 0
M  V30 4355 C 405.33 1.67279 -4.93626 0
M  V30 4356 C 402.658 1.41017 -5.69501 0
M  V30 4357 C 405.01 1.21169 -6.20887 0
M  V30 4358 C 403.674 1.07487 -6.58789 0
M  V30 4359 H 402.944 0.481734 -0.56304 0
M  V30 4360 H 405.591 0.627301 -1.80934 0
M  V30 4361 H 403.896 3.19318 -2.27032 0
M  V30 4362 H 405.593 3.03039 -2.62619 0
M  V30 4363 H 402.183 2.11374 -3.72853 0
M  V30 4364 H 406.367 1.75638 -4.64182 0
M  V30 4365 H 401.623 1.29086 -5.97618 0
M  V30 4366 H 405.797 0.942345 -6.89995 0
M  V30 4367 H 403.424 0.703946 -7.56934 0
M  V30 4368 N 404.999 1.35443 0.805782 0
M  V30 4369 C 406.229 1.31687 1.59192 0
M  V30 4370 C 406.637 -0.10756 1.88894 0
M  V30 4371 O 405.98 -1.07017 1.49309 0
M  V30 4372 C 406.042 2.05686 2.94845 0
M  V30 4373 C 405.706 3.54868 2.87954 0
M  V30 4374 C 406.703 4.49444 2.61335 0
M  V30 4375 C 404.388 3.97528 3.07046 0
M  V30 4376 C 406.382 5.84655 2.53885 0
M  V30 4377 C 404.069 5.32833 2.99219 0
M  V30 4378 C 405.067 6.26209 2.72674 0
M  V30 4379 O 404.755 7.59032 2.64811 0
M  V30 4380 H 404.487 0.453878 0.50097 0
M  V30 4381 H 407.041 1.78892 1.0093 0
M  V30 4382 H 405.271 1.5312 3.55093 0
M  V30 4383 H 406.96 1.94998 3.55993 0
M  V30 4384 H 407.726 4.17804 2.46303 0
M  V30 4385 H 403.605 3.25233 3.26718 0
M  V30 4386 H 407.149 6.57508 2.33086 0
M  V30 4387 H 403.046 5.64087 3.13809 0
M  V30 4388 H 403.814 7.68967 2.80413 0
M  V30 4389 N 406.477 -1.02803 1.19454 0
M  V30 4390 C 407.705 -1.79841 1.02297 0
M  V30 4391 C 408.12 -1.83879 -0.428259 0
M  V30 4392 O 407.477 -1.28345 -1.29745 0
M  V30 4393 C 407.528 -3.24852 1.58598 0
M  V30 4394 O 407.249 -3.21097 2.98041 0
M  V30 4395 C 408.75 -4.18485 1.46236 0
M  V30 4396 H 405.97 -0.565936 0.360496 0
M  V30 4397 H 408.514 -1.2948 1.58288 0
M  V30 4398 H 406.669 -3.72401 1.06753 0
M  V30 4399 H 407.083 -4.12033 3.24545 0
M  V30 4400 H 408.557 -5.18121 1.90407 0
M  V30 4401 H 409.034 -4.37254 0.41301 0
M  V30 4402 H 409.64 -3.76811 1.97215 0
M  V30 4403 N 407.956 -0.998596 -1.21925 0
M  V30 4404 C 408.886 -0.573688 -2.26343 0
M  V30 4405 C 409.867 0.402296 -1.65274 0
M  V30 4406 O 411.052 0.291683 -1.91997 0
M  V30 4407 C 408.182 0.106839 -3.47136 0
M  V30 4408 C 407.136 -0.788269 -4.20678 0
M  V30 4409 C 406.462 0.0254927 -5.34694 0
M  V30 4410 C 407.762 -2.08784 -4.78755 0
M  V30 4411 H 409.456 -1.44651 -2.62138 0
M  V30 4412 H 407.002 -0.696975 -1.26009 0
M  V30 4413 H 408.955 0.415531 -4.19346 0
M  V30 4414 H 407.679 1.01424 -3.10452 0
M  V30 4415 H 406.338 -1.08069 -3.50309 0
M  V30 4416 H 405.986 0.933989 -4.94253 0
M  V30 4417 H 405.686 -0.570437 -5.84825 0
M  V30 4418 H 407.21 0.328147 -6.09718 0
M  V30 4419 H 408.624 -1.84272 -5.42878 0
M  V30 4420 H 407.021 -2.63307 -5.39249 0
M  V30 4421 H 408.091 -2.76284 -3.98491 0
M  V30 4422 N 409.434 1.37368 -0.772513 0
M  V30 4423 C 410.367 2.27956 -0.105593 0
M  V30 4424 C 411.345 1.46362 0.708295 0
M  V30 4425 O 412.529 1.75695 0.682895 0
M  V30 4426 C 409.656 3.27687 0.856686 0
M  V30 4427 C 408.702 4.26312 0.1267 0
M  V30 4428 S 409.535 5.22206 -1.1858 0
M  V30 4429 C 410.691 6.25488 -0.227081 0
M  V30 4430 H 410.924 2.84171 -0.87372 0
M  V30 4431 H 408.457 1.43654 -0.565939 0
M  V30 4432 H 410.415 3.85653 1.40648 0
M  V30 4433 H 409.076 2.70417 1.59793 0
M  V30 4434 H 408.269 4.96674 0.856212 0
M  V30 4435 H 407.871 3.72339 -0.352117 0
M  V30 4436 H 410.163 6.74836 0.600231 0
M  V30 4437 H 411.106 7.02371 -0.898899 0
M  V30 4438 H 411.514 5.64267 0.162053 0
M  V30 4439 N 410.912 0.523116 1.48665 0
M  V30 4440 C 412.14 -0.0096312 2.06898 0
M  V30 4441 C 412.555 -1.28784 1.38059 0
M  V30 4442 O 411.912 -1.76453 0.465893 0
M  V30 4443 C 411.963 -0.244386 3.60673 0
M  V30 4444 O 411.684 0.983172 4.26925 0
M  V30 4445 C 413.185 -0.818289 4.35682 0
M  V30 4446 H 410.405 0.0304161 0.67031 0
M  V30 4447 H 412.949 0.726799 1.91149 0
M  V30 4448 H 411.104 -0.930847 3.76051 0
M  V30 4449 H 411.518 0.759653 5.1897 0
M  V30 4450 H 412.992 -0.93201 5.44075 0
M  V30 4451 H 413.469 -1.82153 3.99646 0
M  V30 4452 H 414.075 -0.168609 4.24966 0
M  V30 4453 N 412.39 -1.55475 0.257931 0
M  V30 4454 C 413.63 -2.01112 -0.365129 0
M  V30 4455 C 413.994 -1.1423 -1.54323 0
M  V30 4456 O 415.195 -1.49371 -2.23477 0
M  V30 4457 C 413.466 -3.49353 -0.754117 0
M  V30 4458 S 415.025 -4.16992 -1.36614 0
M  V30 4459 H 411.843 -0.701737 -0.114397 0
M  V30 4460 H 414.445 -1.91855 0.375747 0
M  V30 4461 H 413.149 -4.10246 0.112441 0
M  V30 4462 H 412.68 -3.6256 -1.52689 0
M  V30 4463 H 414.695 -4.19191 -2.65505 0
M  V30 4464 N 413.868 0.0150385 -1.57593 0
M  V30 4465 C 414.778 1.02791 -2.10882 0
M  V30 4466 C 415.794 1.38702 -1.0506 0
M  V30 4467 O 416.97 1.47739 -1.36877 0
M  V30 4468 C 414.035 2.30568 -2.58919 0
M  V30 4469 C 413.096 2.01108 -3.79281 0
M  V30 4470 C 412.329 3.22794 -4.25018 0
M  V30 4471 O 412.552 4.33959 -3.70183 0
M  V30 4472 O 411.486 3.07672 -5.17322 0
M  V30 4473 H 415.312 0.604973 -2.97613 0
M  V30 4474 H 412.897 0.23292 -1.47573 0
M  V30 4475 H 414.779 3.05662 -2.90084 0
M  V30 4476 H 413.454 2.72129 -1.75293 0
M  V30 4477 H 412.361 1.23537 -3.53114 0
M  V30 4478 H 413.694 1.64394 -4.63935 0
M  V30 4479 N 415.346 1.54954 0.287554 0
M  V30 4480 C 416.279 1.81737 1.3801 0
M  V30 4481 C 417.257 0.669412 1.48181 0
M  V30 4482 O 418.441 0.910839 1.65033 0
M  V30 4483 C 415.568 1.96606 2.75796 0
M  V30 4484 C 414.614 3.19098 2.82982 0
M  V30 4485 S 415.447 4.7683 2.43707 0
M  V30 4486 C 416.603 4.94653 3.83496 0
M  V30 4487 H 416.836 2.74122 1.15085 0
M  V30 4488 H 414.369 1.46538 0.486403 0
M  V30 4489 H 416.327 2.05858 3.55152 0
M  V30 4490 H 414.988 1.05136 2.95982 0
M  V30 4491 H 414.181 3.26344 3.84077 0
M  V30 4492 H 413.783 3.08361 2.11635 0
M  V30 4493 H 416.075 4.79502 4.78628 0
M  V30 4494 H 417.018 5.96728 3.8121 0
M  V30 4495 H 417.426 4.2272 3.74123 0
M  V30 4496 N 416.824 -0.551391 1.4764 0
M  V30 4497 C 417.754 -1.66757 1.63445 0
M  V30 4498 C 418.735 -1.63077 0.483742 0
M  V30 4499 O 419.92 -1.80607 0.71377 0
M  V30 4500 C 417.05 -3.05387 1.65396 0
M  V30 4501 C 416.004 -3.23918 2.79752 0
M  V30 4502 C 415.33 -4.63393 2.66779 0
M  V30 4503 C 416.63 -3.08735 4.21284 0
M  V30 4504 H 418.324 -1.53786 2.56886 0
M  V30 4505 H 415.87 -0.738415 1.23626 0
M  V30 4506 H 417.823 -3.83325 1.75043 0
M  V30 4507 H 416.547 -3.19332 0.685195 0
M  V30 4508 H 415.206 -2.48391 2.69625 0
M  V30 4509 H 414.854 -4.74144 1.67918 0
M  V30 4510 H 414.554 -4.7674 3.43501 0
M  V30 4511 H 416.078 -5.43458 2.78364 0
M  V30 4512 H 417.492 -3.76484 4.32357 0
M  V30 4513 H 415.889 -3.33588 4.98838 0
M  V30 4514 H 416.959 -2.0541 4.39243 0
M  V30 4515 N 418.302 -1.35869 -0.798587 0
M  V30 4516 C 419.25 -1.29491 -1.93222 0
M  V30 4517 C 420.244 -0.18836 -1.6835 0
M  V30 4518 O 421.45 -0.354822 -1.76468 0
M  V30 4519 H 417.825 -0.402901 -0.63496 0
M  V30 4520 H 419.796 -2.25247 -1.9572 0
M  V30 4521 C 418.545 -1.09184 -3.30112 0
M  V30 4522 H 417.868 -1.93574 -3.49813 0
M  V30 4523 H 419.308 -1.08766 -4.09812 0
M  V30 4524 C 417.767 0.203959 -3.36282 0
M  V30 4525 O 418.297 1.19699 -3.83451 0
M  V30 4526 N 416.503 0.245488 -2.89561 0
M  V30 4527 H 416.05 -0.563223 -2.51367 0
M  V30 4528 H 416.008 1.11219 -2.94071 0
M  V30 4529 N 419.78 1.02168 -1.19998 0
M  V30 4530 C 421.196 1.27969 -0.953737 0
M  V30 4531 C 421.396 1.98079 0.369703 0
M  V30 4532 O 420.452 2.27306 1.09947 0
M  V30 4533 C 421.765 2.11971 -2.13281 0
M  V30 4534 C 423.313 2.25255 -2.17323 0
M  V30 4535 C 423.788 3.12632 -3.34702 0
M  V30 4536 N 425.279 3.2022 -3.34684 0
M  V30 4537 C 426.014 3.88039 -4.22153 0
M  V30 4538 N 425.51 4.58027 -5.19791 0
M  V30 4539 N 427.303 3.84511 -4.10009 0
M  V30 4540 H 419.454 0.550794 -2.05134 0
M  V30 4541 H 421.717 0.305683 -0.897364 0
M  V30 4542 H 421.423 1.67785 -3.09097 0
M  V30 4543 H 421.297 3.12699 -2.10949 0
M  V30 4544 H 423.684 2.68667 -1.22073 0
M  V30 4545 H 423.765 1.24053 -2.23706 0
M  V30 4546 H 423.409 2.69926 -4.30235 0
M  V30 4547 H 423.339 4.13909 -3.25556 0
M  V30 4548 H 425.83 2.70382 -2.64012 0
M  V30 4549 H 426.143 5.07429 -5.82868 0
M  V30 4550 H 424.488 4.56869 -5.23733 0
M  V30 4551 H 427.679 3.28978 -3.33003 0
M  V30 4552 H 427.852 4.3709 -4.78389 0
M  V30 4553 N 421.258 1.00505 1.21394 0
M  V30 4554 C 422.674 0.717873 1.42544 0
M  V30 4555 C 422.874 -0.706936 1.88692 0
M  V30 4556 O 421.93 -1.47627 2.04847 0
M  V30 4557 C 423.243 1.73377 2.45684 0
M  V30 4558 C 424.791 1.75059 2.59467 0
M  V30 4559 C 425.266 2.75545 3.6584 0
M  V30 4560 N 426.757 2.74213 3.73311 0
M  V30 4561 C 427.492 3.48626 4.55245 0
M  V30 4562 N 426.988 4.32678 5.41075 0
M  V30 4563 N 428.781 3.37276 4.49668 0
M  V30 4564 H 420.932 1.92506 0.897503 0
M  V30 4565 H 423.195 0.830919 0.456375 0
M  V30 4566 H 422.901 2.75395 2.18748 0
M  V30 4567 H 422.775 1.53647 3.44489 0
M  V30 4568 H 425.162 0.737337 2.8574 0
M  V30 4569 H 425.243 1.98861 1.60897 0
M  V30 4570 H 424.887 3.77028 3.40313 0
M  V30 4571 H 424.817 2.49009 4.64007 0
M  V30 4572 H 427.308 2.13234 3.11993 0
M  V30 4573 H 427.621 4.86253 6.00648 0
M  V30 4574 H 425.966 4.3676 5.40616 0
M  V30 4575 H 429.157 2.71043 3.81646 0
M  V30 4576 H 429.33 3.95524 5.13288 0
M  V30 4577 N 422.737 -1.36956 0.779787 0
M  V30 4578 C 423.685 -2.32053 0.15942 0
M  V30 4579 C 424.679 -1.55333 -0.675878 0
M  V30 4580 O 425.885 -1.70668 -0.57204 0
M  V30 4581 H 422.26 -0.751286 0.0327707 0
M  V30 4582 H 424.231 -2.8195 0.977078 0
M  V30 4583 C 422.98 -3.40602 -0.698977 0
M  V30 4584 H 422.303 -3.99746 -0.0655966 0
M  V30 4585 H 423.743 -4.09486 -1.09989 0
M  V30 4586 C 422.202 -2.81359 -1.85307 0
M  V30 4587 O 422.732 -2.72751 -2.94906 0
M  V30 4588 N 420.938 -2.38786 -1.65619 0
M  V30 4589 H 420.485 -2.45987 -0.764725 0
M  V30 4590 H 420.443 -1.99493 -2.43002 0
M  V30 4591 N 424.215 -0.530993 -1.48385 0
M  V30 4592 C 425.463 0.00273189 -2.021 0
M  V30 4593 C 425.784 1.34672 -1.41027 0
M  V30 4594 O 425.054 1.8724 -0.576012 0
M  V30 4595 H 423.634 0.00399774 -0.746989 0
M  V30 4596 H 426.296 -0.695054 -1.82085 0
M  V30 4597 H 425.392 0.11031 -3.11905 0
M  V30 4598 N 425.693 1.55336 -0.266172 0
M  V30 4599 C 426.918 2.04258 0.359661 0
M  V30 4600 C 427.343 1.14359 1.49344 0
M  V30 4601 O 426.701 0.140369 1.80756 0
M  V30 4602 C 426.749 3.50997 0.826635 0
M  V30 4603 O 425.853 3.64204 1.93466 0
M  V30 4604 H 425.194 0.659668 0.075727 0
M  V30 4605 H 427.724 2.00694 -0.39786 0
M  V30 4606 H 427.734 3.9219 1.12477 0
M  V30 4607 H 426.409 4.159 -0.00293032 0
M  V30 4608 H 424.986 3.34913 1.63974 0
M  V30 4609 N 427.171 -0.0066808 1.57599 0
M  V30 4610 C 428.101 -0.999296 2.11036 0
M  V30 4611 C 429.082 -1.36278 1.01795 0
M  V30 4612 O 430.267 -1.4477 1.29442 0
M  V30 4613 C 427.397 -2.29328 2.60818 0
M  V30 4614 C 426.351 -2.07159 3.74525 0
M  V30 4615 C 425.677 -3.42512 4.10596 0
M  V30 4616 C 426.977 -1.43959 5.02069 0
M  V30 4617 H 428.671 -0.554382 2.94223 0
M  V30 4618 H 426.217 -0.265221 1.41536 0
M  V30 4619 H 428.17 -2.99117 2.96828 0
M  V30 4620 H 426.894 -2.7592 1.74745 0
M  V30 4621 H 425.553 -1.39797 3.38899 0
M  V30 4622 H 425.201 -3.86795 3.21556 0
M  V30 4623 H 424.901 -3.28498 4.87199 0
M  V30 4624 H 426.425 -4.13628 4.4916 0
M  V30 4625 H 427.839 -2.03696 5.35893 0
M  V30 4626 H 426.236 -1.40452 5.83432 0
M  V30 4627 H 427.306 -0.407992 4.83181 0
M  V30 4628 N 428.649 -1.55105 -0.279332 0
M  V30 4629 C 430.065 -1.46803 -0.626187 0
M  V30 4630 C 430.265 -0.676939 -1.89789 0
M  V30 4631 O 429.321 -0.19326 -2.51759 0
M  V30 4632 C 430.634 -2.90962 -0.759034 0
M  V30 4633 C 432.182 -3.01138 -0.853504 0
M  V30 4634 C 432.657 -4.46539 -1.01818 0
M  V30 4635 N 434.148 -4.50341 -1.08386 0
M  V30 4636 C 434.883 -5.60053 -1.22996 0
M  V30 4637 N 434.379 -6.79645 -1.34366 0
M  V30 4638 N 436.172 -5.47783 -1.26056 0
M  V30 4639 H 428.323 -2.04996 0.555921 0
M  V30 4640 H 430.586 -0.929325 0.187239 0
M  V30 4641 H 430.292 -3.51544 0.104852 0
M  V30 4642 H 430.166 -3.39619 -1.64131 0
M  V30 4643 H 432.553 -2.40658 -1.70786 0
M  V30 4644 H 432.634 -2.55745 0.0532466 0
M  V30 4645 H 432.278 -5.0762 -0.168504 0
M  V30 4646 H 432.208 -4.89583 -1.93948 0
M  V30 4647 H 434.699 -3.64191 -1.00864 0
M  V30 4648 H 435.012 -7.59012 -1.4533 0
M  V30 4649 H 433.357 -6.82469 -1.31382 0
M  V30 4650 H 436.548 -4.53294 -1.168 0
M  V30 4651 H 436.721 -6.33331 -1.37098 0
M  V30 4652 N 430.127 0.543554 -1.4793 0
M  V30 4653 C 431.376 1.29649 -1.54512 0
M  V30 4654 C 431.689 1.94382 -0.217973 0
M  V30 4655 O 432.895 2.71017 -0.161908 0
M  V30 4656 C 431.351 2.35175 -2.72435 0
M  V30 4657 C 430.959 1.76572 -4.11736 0
M  V30 4658 C 432.703 3.11564 -2.8832 0
M  V30 4659 C 430.61 2.79958 -5.20939 0
M  V30 4660 H 429.54 0.487541 -0.57517 0
M  V30 4661 H 432.191 0.575708 -1.74235 0
M  V30 4662 H 430.573 3.10229 -2.46118 0
M  V30 4663 H 431.747 1.07799 -4.48013 0
M  V30 4664 H 430.062 1.12722 -4.00852 0
M  V30 4665 H 432.659 3.88794 -3.67074 0
M  V30 4666 H 433.002 3.66594 -1.97268 0
M  V30 4667 H 433.535 2.43623 -3.14472 0
M  V30 4668 H 430.274 2.29766 -6.13912 0
M  V30 4669 H 429.794 3.47101 -4.89164 0
M  V30 4670 H 431.473 3.43198 -5.48474 0
M  V30 4671 N 431.605 1.3629 0.791371 0
M  V30 4672 C 432.568 1.30309 1.88553 0
M  V30 4673 C 433.568 0.211204 1.59407 0
M  V30 4674 O 434.758 0.465865 1.67855 0
M  V30 4675 C 431.89 1.01956 3.25297 0
M  V30 4676 H 433.083 2.27614 1.95273 0
M  V30 4677 H 430.636 1.21035 0.988953 0
M  V30 4678 H 431.371 0.050998 3.2426 0
M  V30 4679 H 431.156 1.80968 3.4784 0
M  V30 4680 H 432.646 1.0037 4.05359 0
M  V30 4681 N 433.083 -1.0153 1.20538 0
M  V30 4682 C 434.013 -2.11972 0.979295 0
M  V30 4683 C 434.994 -1.6985 -0.0921787 0
M  V30 4684 O 436.179 -1.94089 0.0655932 0
M  V30 4685 C 433.309 -3.43201 0.531984 0
M  V30 4686 C 432.263 -3.9907 1.54685 0
M  V30 4687 C 431.589 -5.26082 0.956127 0
M  V30 4688 C 432.889 -4.32313 2.93092 0
M  V30 4689 H 434.583 -2.31143 1.90298 0
M  V30 4690 H 432.129 -1.11079 0.916372 0
M  V30 4691 H 434.082 -4.1985 0.361044 0
M  V30 4692 H 432.806 -3.23792 -0.427327 0
M  V30 4693 H 431.465 -3.2453 1.70517 0
M  V30 4694 H 431.113 -5.02999 -0.0111538 0
M  V30 4695 H 430.813 -5.64426 1.63393 0
M  V30 4696 H 432.337 -6.05386 0.796284 0
M  V30 4697 H 433.751 -4.99845 2.80763 0
M  V30 4698 H 432.148 -4.81774 3.57791 0
M  V30 4699 H 433.218 -3.41025 3.44717 0
M  V30 4700 N 434.561 -1.01147 -1.20859 0
M  V30 4701 C 435.786 -0.716698 -1.94623 0
M  V30 4702 C 436.211 0.715415 -1.73964 0
M  V30 4703 O 435.569 1.49157 -1.03062 0
M  V30 4704 C 435.617 -1.0513 -3.44935 0
M  V30 4705 O 434.721 -0.160131 -4.12089 0
M  V30 4706 H 434.062 -0.266404 -0.608214 0
M  V30 4707 H 436.592 -1.35346 -1.53436 0
M  V30 4708 H 436.602 -1.00086 -3.95533 0
M  V30 4709 H 435.277 -2.09475 -3.59295 0
M  V30 4710 H 433.854 -0.267657 -3.71938 0
M  V30 4711 N 436.039 1.36541 -0.78704 0
M  V30 4712 C 436.949 2.3387 -0.184896 0
M  V30 4713 C 437.965 1.60927 0.661697 0
M  V30 4714 O 439.141 1.92927 0.57804 0
M  V30 4715 C 436.206 3.40122 0.672145 0
M  V30 4716 C 435.267 4.28867 -0.19267 0
M  V30 4717 C 434.5 5.30045 0.623561 0
M  V30 4718 O 434.723 5.39232 1.8597 0
M  V30 4719 O 433.657 6.01895 0.0247068 0
M  V30 4720 H 437.483 2.87126 -0.989562 0
M  V30 4721 H 435.068 1.38969 -0.548455 0
M  V30 4722 H 436.95 4.05093 1.16094 0
M  V30 4723 H 435.625 2.89169 1.45474 0
M  V30 4724 H 434.532 3.66945 -0.728166 0
M  V30 4725 H 435.865 4.83165 -0.938722 0
M  V30 4726 N 437.518 0.538854 1.48102 0
M  V30 4727 C 438.468 -0.23907 2.26743 0
M  V30 4728 C 439.452 -0.901923 1.33245 0
M  V30 4729 O 440.644 -0.803263 1.57723 0
M  V30 4730 C 437.773 -1.2799 3.18549 0
M  V30 4731 C 436.859 -0.621388 4.19523 0
M  V30 4732 N 437.25 0.298004 5.04921 0
M  V30 4733 C 435.548 -0.877533 4.37282 0
M  V30 4734 C 436.249 0.678757 5.77726 0
M  V30 4735 N 435.225 0.0377881 5.43587 0
M  V30 4736 H 439.027 0.468096 2.90148 0
M  V30 4737 H 436.541 0.357497 1.58416 0
M  V30 4738 H 438.538 -1.851 3.73555 0
M  V30 4739 H 437.198 -1.98835 2.567 0
M  V30 4740 H 438.209 0.671126 5.13533 0
M  V30 4741 H 434.886 -1.57588 3.86616 0
M  V30 4742 H 436.276 1.43316 6.56437 0
M  V30 4743 N 438.996 -1.55193 0.274407 0
M  V30 4744 C 439.926 -2.25471 -0.607032 0
M  V30 4745 C 440.907 -1.24461 -1.15946 0
M  V30 4746 O 442.092 -1.53179 -1.19373 0
M  V30 4747 C 439.222 -2.97526 -1.79153 0
M  V30 4748 C 438.176 -4.05459 -1.37067 0
M  V30 4749 C 437.502 -4.65084 -2.6382 0
M  V30 4750 C 438.802 -5.19691 -0.521389 0
M  V30 4751 H 440.496 -2.99393 -0.0209343 0
M  V30 4752 H 438.042 -1.43997 -0.00862866 0
M  V30 4753 H 439.995 -3.45402 -2.41404 0
M  V30 4754 H 438.719 -2.21138 -2.40344 0
M  V30 4755 H 437.378 -3.58393 -0.771355 0
M  V30 4756 H 437.026 -3.85365 -3.23268 0
M  V30 4757 H 436.726 -5.37961 -2.36372 0
M  V30 4758 H 438.25 -5.15708 -3.26921 0
M  V30 4759 H 439.664 -5.63623 -1.04889 0
M  V30 4760 H 438.061 -5.99126 -0.341825 0
M  V30 4761 H 439.131 -4.82713 0.46 0
M  V30 4762 N 440.474 -0.00167713 -1.576 0
M  V30 4763 C 441.421 0.989195 -2.08527 0
M  V30 4764 C 442.391 1.34031 -0.981065 0
M  V30 4765 O 443.576 1.43839 -1.2536 0
M  V30 4766 C 440.716 2.27537 -2.59463 0
M  V30 4767 C 439.829 1.98314 -3.83791 0
M  V30 4768 C 438.964 3.21025 -4.23222 0
M  V30 4769 C 438.003 2.87495 -5.40382 0
M  V30 4770 N 437.14 4.02749 -5.75098 0
M  V30 4771 H 441.98 0.547973 -2.92919 0
M  V30 4772 H 439.517 0.258917 -1.44803 0
M  V30 4773 H 441.475 3.02729 -2.87073 0
M  V30 4774 H 440.105 2.69325 -1.77943 0
M  V30 4775 H 439.157 1.13482 -3.63078 0
M  V30 4776 H 440.469 1.69601 -4.69081 0
M  V30 4777 H 439.623 4.04561 -4.52123 0
M  V30 4778 H 438.362 3.52877 -3.36644 0
M  V30 4779 H 437.367 2.02367 -5.11202 0
M  V30 4780 H 438.592 2.56889 -6.28637 0
M  V30 4781 H 436.538 4.34494 -4.91478 0
M  V30 4782 H 436.455 3.77566 -6.54966 0
M  V30 4783 H 437.723 4.87068 -6.08592 0
M  V30 4784 N 441.952 1.55251 0.271103 0
M  V30 4785 C 442.884 1.84675 1.35749 0
M  V30 4786 C 443.897 0.731366 1.45447 0
M  V30 4787 O 445.086 1.00924 1.4723 0
M  V30 4788 C 442.186 1.99638 2.73857 0
M  V30 4789 C 441.359 3.30312 2.86727 0
M  V30 4790 C 440.418 3.35318 4.05522 0
M  V30 4791 O 439.444 4.08682 3.96191 0
M  V30 4792 N 440.646 2.62857 5.17577 0
M  V30 4793 H 443.411 2.78445 1.10853 0
M  V30 4794 H 440.972 1.55191 0.461218 0
M  V30 4795 H 442.964 2.00355 3.51625 0
M  V30 4796 H 441.534 1.12725 2.91568 0
M  V30 4797 H 440.754 3.42118 1.95829 0
M  V30 4798 H 442.042 4.16488 2.92258 0
M  V30 4799 H 441.44 2.02939 5.28046 0
M  V30 4800 H 439.997 2.69295 5.93568 0
M  V30 4801 N 443.43 -0.535701 1.48216 0
M  V30 4802 C 444.846 -0.863701 1.3421 0
M  V30 4803 C 445.046 -1.98458 0.34879 0
M  V30 4804 O 444.102 -2.51432 -0.23204 0
M  V30 4805 C 445.415 -1.23662 2.74095 0
M  V30 4806 C 446.963 -1.34683 2.82541 0
M  V30 4807 C 447.438 -1.75322 4.23115 0
M  V30 4808 N 448.929 -1.82434 4.2576 0
M  V30 4809 C 449.664 -2.15252 5.31464 0
M  V30 4810 N 449.16 -2.46533 6.47452 0
M  V30 4811 N 450.953 -2.16209 5.18855 0
M  V30 4812 H 443.104 0.203965 2.11418 0
M  V30 4813 H 445.367 0.0286033 0.947568 0
M  V30 4814 H 445.073 -0.486674 3.48316 0
M  V30 4815 H 444.947 -2.18805 3.07253 0
M  V30 4816 H 447.334 -2.08756 2.08579 0
M  V30 4817 H 447.415 -0.376756 2.5301 0
M  V30 4818 H 447.059 -1.01812 4.97591 0
M  V30 4819 H 446.989 -2.7337 4.50085 0
M  V30 4820 H 449.48 -1.6056 3.42095 0
M  V30 4821 H 449.793 -2.70662 7.23852 0
M  V30 4822 H 448.138 -2.44065 6.50736 0
M  V30 4823 H 451.329 -1.91224 4.2726 0
M  V30 4824 H 451.502 -2.41453 6.01335 0
M  V30 4825 N 444.908 -1.36708 -0.784132 0
M  V30 4826 C 446.324 -1.17237 -1.08294 0
M  V30 4827 C 446.524 -5.93947e-05 -2.015 0
M  V30 4828 O 445.58 0.663686 -2.43622 0
M  V30 4829 C 446.893 -2.48557 -1.69233 0
M  V30 4830 C 448.441 -2.54968 -1.8155 0
M  V30 4831 C 448.916 -3.86388 -2.45904 0
M  V30 4832 N 450.407 -3.87762 -2.53367 0
M  V30 4833 C 451.142 -4.86191 -3.03983 0
M  V30 4834 N 450.638 -5.95015 -3.54866 0
M  V30 4835 N 452.431 -4.73606 -3.02743 0
M  V30 4836 H 444.582 -2.11758 -0.16501 0
M  V30 4837 H 446.845 -0.93822 -0.135822 0
M  V30 4838 H 446.551 -3.34638 -1.08215 0
M  V30 4839 H 446.425 -2.64748 -2.68679 0
M  V30 4840 H 448.812 -1.69302 -2.41704 0
M  V30 4841 H 448.893 -2.42672 -0.80895 0
M  V30 4842 H 448.537 -4.72462 -1.86392 0
M  V30 4843 H 448.467 -3.95982 -3.4714 0
M  V30 4844 H 450.958 -3.09145 -2.17343 0
M  V30 4845 H 451.271 -6.66086 -3.91854 0
M  V30 4846 H 449.616 -5.98676 -3.53003 0
M  V30 4847 H 452.807 -3.87717 -2.62284 0
M  V30 4848 H 452.98 -5.50473 -3.41881 0
M  V30 4849 N 446.386 1.0089 -1.21074 0
M  V30 4850 C 447.296 2.13039 -0.982425 0
M  V30 4851 C 448.312 1.73881 0.0642161 0
M  V30 4852 O 449.488 2.01012 -0.12496 0
M  V30 4853 C 446.553 3.42377 -0.545803 0
M  V30 4854 C 445.614 3.95731 -1.6642 0
M  V30 4855 C 444.847 5.18896 -1.24832 0
M  V30 4856 O 445.07 5.70273 -0.120265 0
M  V30 4857 O 444.004 5.65597 -2.05873 0
M  V30 4858 H 447.83 2.35175 -1.92163 0
M  V30 4859 H 445.415 1.1142 -0.995285 0
M  V30 4860 H 447.297 4.20244 -0.311912 0
M  V30 4861 H 445.972 3.21639 0.364727 0
M  V30 4862 H 444.879 3.19108 -1.95246 0
M  V30 4863 H 446.212 4.20872 -2.55201 0
M  V30 4864 N 447.864 1.01787 1.20321 0
M  V30 4865 C 449.11 0.708985 1.90003 0
M  V30 4866 C 449.443 -0.759572 1.78729 0
M  V30 4867 O 448.718 -1.55198 1.17234 0
M  V30 4868 C 449.001 1.1469 3.41348 0
M  V30 4869 C 448.854 2.67586 3.61549 0
M  V30 4870 C 450.173 0.71915 4.34185 0
M  V30 4871 H 447.292 0.259034 0.689978 0
M  V30 4872 H 449.934 1.26584 1.41692 0
M  V30 4873 H 448.084 0.673128 3.82624 0
M  V30 4874 H 449.756 3.22826 3.29517 0
M  V30 4875 H 447.999 3.085 3.04976 0
M  V30 4876 H 448.67 2.93281 4.67643 0
M  V30 4877 H 451.146 1.12647 4.00562 0
M  V30 4878 H 450.022 1.05358 5.38694 0
M  V30 4879 H 450.283 -0.379111 4.40472 0
M  V30 4880 N 449.342 -1.36122 0.79427 0
M  V30 4881 C 450.305 -2.28309 0.201889 0
M  V30 4882 C 451.305 -1.49041 -0.603603 0
M  V30 4883 O 452.495 -1.68964 -0.423888 0
M  V30 4884 C 449.627 -3.3321 -0.719978 0
M  V30 4885 H 450.82 -2.82208 1.01481 0
M  V30 4886 H 448.373 -1.45768 0.564037 0
M  V30 4887 H 449.108 -2.84475 -1.55706 0
M  V30 4888 H 448.893 -3.91835 -0.144266 0
M  V30 4889 H 450.383 -4.02044 -1.12916 0
M  V30 4890 N 450.82 -0.546701 -1.47814 0
M  V30 4891 C 451.767 0.206854 -2.29871 0
M  V30 4892 C 452.737 0.918235 -1.38411 0
M  V30 4893 O 453.922 0.915991 -1.67375 0
M  V30 4894 C 451.062 1.23746 -3.22151 0
M  V30 4895 C 450.175 0.533216 -4.28697 0
M  V30 4896 C 449.31 1.5482 -5.08138 0
M  V30 4897 C 448.349 0.828347 -6.06469 0
M  V30 4898 N 447.486 1.78966 -6.78908 0
M  V30 4899 H 452.326 -0.499037 -2.93792 0
M  V30 4900 H 449.863 -0.25793 -1.44821 0
M  V30 4901 H 451.821 1.84746 -3.74065 0
M  V30 4902 H 450.451 1.91151 -2.60117 0
M  V30 4903 H 449.503 -0.191089 -3.7992 0
M  V30 4904 H 450.815 -0.0311987 -4.9879 0
M  V30 4905 H 449.969 2.23202 -5.6415 0
M  V30 4906 H 448.708 2.14652 -4.37922 0
M  V30 4907 H 447.713 0.130539 -5.49645 0
M  V30 4908 H 448.938 0.235907 -6.7869 0
M  V30 4909 H 446.884 2.37675 -6.1143 0
M  V30 4910 H 446.801 1.27712 -7.45135 0
M  V30 4911 H 448.069 2.46496 -7.395 0
M  V30 4912 N 452.299 1.55045 -0.282633 0
M  V30 4913 C 453.527 2.04168 0.33512 0
M  V30 4914 C 453.942 1.16071 1.48906 0
M  V30 4915 O 453.299 0.182391 1.81586 0
M  V30 4916 C 453.35 3.52332 0.808957 0
M  V30 4917 O 453.071 4.37078 -0.299038 0
M  V30 4918 C 454.572 4.17375 1.49375 0
M  V30 4919 H 451.792 0.666744 0.0754543 0
M  V30 4920 H 454.336 2.00205 -0.416918 0
M  V30 4921 H 452.491 3.56715 1.51106 0
M  V30 4922 H 452.905 5.24458 0.0665514 0
M  V30 4923 H 454.379 5.22627 1.77664 0
M  V30 4924 H 454.856 3.65999 2.42778 0
M  V30 4925 H 455.462 4.17016 0.835305 0
M  V30 4926 N 453.777 0.010035 1.57597 0
M  V30 4927 C 455.023 -0.673697 1.91283 0
M  V30 4928 C 455.356 -1.72863 0.884979 0
M  V30 4929 O 454.631 -1.94268 -0.0949487 0
M  V30 4930 C 454.914 -1.30766 3.35518 0
M  V30 4931 C 454.767 -0.263578 4.49027 0
M  V30 4932 C 456.086 -2.23105 3.79358 0
M  V30 4933 H 453.205 -0.243439 0.695634 0
M  V30 4934 H 455.847 0.0633864 1.89894 0
M  V30 4935 H 453.997 -1.93588 3.36832 0
M  V30 4936 H 455.669 0.365738 4.59848 0
M  V30 4937 H 453.912 0.413077 4.31829 0
M  V30 4938 H 454.583 -0.746398 5.4693 0
M  V30 4939 H 457.059 -1.70289 3.79659 0
M  V30 4940 H 455.935 -2.64424 4.81011 0
M  V30 4941 H 456.196 -3.11433 3.13787 0
M  V30 4942 N 455.255 -1.55392 -0.262866 0
M  V30 4943 C 456.502 -1.76476 -0.993109 0
M  V30 4944 C 456.83 -0.571479 -1.85915 0
M  V30 4945 O 456.085 0.445733 -1.90556 0
M  V30 4946 C 456.384 -3.02889 -1.89718 0
M  V30 4947 C 456.05 -4.34974 -1.18781 0
M  V30 4948 C 454.712 -4.7087 -0.991699 0
M  V30 4949 C 457.064 -5.16695 -0.683798 0
M  V30 4950 C 454.392 -5.86036 -0.279024 0
M  V30 4951 C 456.744 -6.32598 0.0153327 0
M  V30 4952 C 455.408 -6.67127 0.223062 0
M  V30 4953 H 454.678 -0.64577 -0.363404 0
M  V30 4954 H 457.325 -1.89664 -0.264525 0
M  V30 4955 H 455.63 -2.84644 -2.6923 0
M  V30 4956 H 457.327 -3.16399 -2.46359 0
M  V30 4957 H 453.917 -4.06765 -1.35058 0
M  V30 4958 H 458.101 -4.8943 -0.8229 0
M  V30 4959 H 453.357 -6.11306 -0.107456 0
M  V30 4960 H 457.531 -6.95171 0.413584 0
M  V30 4961 H 455.158 -7.56216 0.777265 0
M  V30 4962 N 456.733 0.527833 -1.48498 0
M  V30 4963 C 457.973 1.29401 -1.58224 0
M  V30 4964 C 458.337 1.90348 -0.251327 0
M  V30 4965 O 459.538 2.67868 -0.223588 0
M  V30 4966 C 457.809 2.35266 -2.69044 0
M  V30 4967 S 459.368 3.2158 -2.98549 0
M  V30 4968 H 456.186 0.440138 -0.558391 0
M  V30 4969 H 458.788 0.601079 -1.8603 0
M  V30 4970 H 457.492 1.88975 -3.64303 0
M  V30 4971 H 457.023 3.09263 -2.43146 0
M  V30 4972 H 459.038 4.35391 -2.38011 0
M  V30 4973 N 458.211 1.37122 0.776871 0
M  V30 4974 C 459.141 1.35164 1.90402 0
M  V30 4975 C 460.122 0.221069 1.68657 0
M  V30 4976 O 461.307 0.420642 1.8959 0
M  V30 4977 C 458.437 1.15274 3.27611 0
M  V30 4978 C 457.391 2.25289 3.63908 0
M  V30 4979 C 456.717 1.90527 4.99603 0
M  V30 4980 C 458.017 3.67446 3.71188 0
M  V30 4981 H 459.711 2.29482 1.92297 0
M  V30 4982 H 457.257 1.10465 0.923773 0
M  V30 4983 H 459.21 1.12536 4.06096 0
M  V30 4984 H 457.934 0.174102 3.26136 0
M  V30 4985 H 456.593 2.27174 2.87728 0
M  V30 4986 H 456.241 0.91206 4.94662 0
M  V30 4987 H 455.941 2.64193 5.24858 0
M  V30 4988 H 457.465 1.89367 5.80493 0
M  V30 4989 H 458.879 3.67719 4.39836 0
M  V30 4990 H 457.276 4.40123 4.07936 0
M  V30 4991 H 458.346 4.01443 2.71977 0
M  V30 4992 N 459.689 -1.00246 1.21608 0
M  V30 4993 C 460.935 -1.74319 1.03638 0
M  V30 4994 C 461.268 -1.89408 -0.428749 0
M  V30 4995 O 460.543 -1.43026 -1.3181 0
M  V30 4996 C 460.826 -3.15431 1.73711 0
M  V30 4997 C 460.679 -3.08049 3.27759 0
M  V30 4998 C 461.998 -4.14407 1.48173 0
M  V30 4999 H 459.117 -0.632741 0.377899 0
M  V30 5000 H 461.759 -1.16853 1.49818 0
M  V30 5001 H 459.909 -3.64493 1.34452 0
M  V30 5002 H 461.581 -2.66681 3.76403 0
M  V30 5003 H 459.824 -2.45088 3.57931 0
M  V30 5004 H 460.495 -4.07862 3.71958 0
M  V30 5005 H 462.971 -3.74061 1.82258 0
M  V30 5006 H 461.847 -5.11279 1.99713 0
M  V30 5007 H 462.108 -4.40174 0.412273 0
M  V30 5008 N 461.167 -1.02423 -1.1978 0
M  V30 5009 C 462.413 -0.719051 -1.89625 0
M  V30 5010 C 462.746 0.750083 -1.7913 0
M  V30 5011 O 462.021 1.54574 -1.18056 0
M  V30 5012 C 462.304 -1.16499 -3.40735 0
M  V30 5013 C 462.157 -2.695 -3.60125 0
M  V30 5014 C 463.476 -0.742166 -4.33797 0
M  V30 5015 H 460.595 -0.26269 -0.688595 0
M  V30 5016 H 463.237 -1.27333 -1.41018 0
M  V30 5017 H 461.387 -0.69341 -3.82262 0
M  V30 5018 H 463.059 -3.24569 -3.278 0
M  V30 5019 H 461.302 -3.10113 -3.03336 0
M  V30 5020 H 461.973 -2.95757 -4.66081 0
M  V30 5021 H 464.449 -1.1477 -3.99959 0
M  V30 5022 H 463.325 -1.08213 -5.38127 0
M  V30 5023 H 463.586 0.355747 -4.40666 0
M  V30 5024 N 462.645 1.35699 -0.801477 0
M  V30 5025 C 463.894 1.98165 -0.375979 0
M  V30 5026 C 464.207 1.64306 1.06127 0
M  V30 5027 O 465.413 2.20097 1.58964 0
M  V30 5028 C 463.869 3.54497 -0.621305 0
M  V30 5029 C 463.477 3.9727 -2.07076 0
M  V30 5030 C 465.221 4.23697 -0.26091 0
M  V30 5031 C 463.128 5.46427 -2.26211 0
M  V30 5032 H 462.058 0.741478 -0.136844 0
M  V30 5033 H 464.709 1.54834 -0.984814 0
M  V30 5034 H 463.091 3.95958 0.0574112 0
M  V30 5035 H 464.265 3.66974 -2.78687 0
M  V30 5036 H 462.58 3.40943 -2.39054 0
M  V30 5037 H 465.177 5.33334 -0.381994 0
M  V30 5038 H 465.52 4.0869 0.792344 0
M  V30 5039 H 466.053 3.87639 -0.893339 0
M  V30 5040 H 462.792 5.66396 -3.29963 0
M  V30 5041 H 462.312 5.78309 -1.59119 0
M  V30 5042 H 463.991 6.12819 -2.07513 0
M  V30 5043 N 464.123 0.554532 1.47522 0
M  V30 5044 C 465.37 0.029479 2.02479 0
M  V30 5045 C 465.698 -1.31929 1.42916 0
M  V30 5046 O 464.953 -1.87112 0.573385 0
M  V30 5047 C 465.252 -0.115927 3.57212 0
M  V30 5048 C 464.918 1.16161 4.3568 0
M  V30 5049 C 463.58 1.51168 4.56839 0
M  V30 5050 C 465.932 2.0083 4.80954 0
M  V30 5051 C 463.26 2.70696 5.2052 0
M  V30 5052 C 465.612 3.19559 5.45953 0
M  V30 5053 C 464.276 3.54882 5.65345 0
M  V30 5054 H 463.546 0.0107871 0.740921 0
M  V30 5055 H 466.193 0.725506 1.77225 0
M  V30 5056 H 464.498 -0.894902 3.81443 0
M  V30 5057 H 466.195 -0.53749 3.97381 0
M  V30 5058 H 462.785 0.879026 4.19489 0
M  V30 5059 H 466.969 1.75093 4.64388 0
M  V30 5060 H 462.225 2.98236 5.33728 0
M  V30 5061 H 466.399 3.85456 5.79997 0
M  V30 5062 H 464.026 4.47596 6.1446 0
M  V30 5063 N 465.601 -1.54893 0.290851 0
M  V30 5064 C 466.564 -2.21824 -0.576784 0
M  V30 5065 C 467.564 -1.20104 -1.06919 0
M  V30 5066 O 468.754 -1.44906 -0.966843 0
M  V30 5067 C 465.886 -2.89662 -1.79747 0
M  V30 5068 H 467.079 -2.99899 0.00784051 0
M  V30 5069 H 464.632 -1.56245 0.0415934 0
M  V30 5070 H 465.367 -2.15639 -2.42219 0
M  V30 5071 H 465.152 -3.64219 -1.45214 0
M  V30 5072 H 466.642 -3.4075 -2.4141 0
M  V30 5073 N 467.08 -0.0183926 -1.57589 0
M  V30 5074 C 468.01 0.965596 -2.12599 0
M  V30 5075 C 468.991 1.34641 -1.0395 0
M  V30 5076 O 470.176 1.42693 -1.31729 0
M  V30 5077 C 467.306 2.25149 -2.64434 0
M  V30 5078 C 466.26 2.01175 -3.77773 0
M  V30 5079 C 465.586 3.35937 -4.15994 0
M  V30 5080 C 466.886 1.35953 -5.04296 0
M  V30 5081 H 468.58 0.507504 -2.95067 0
M  V30 5082 H 466.126 0.242671 -1.41941 0
M  V30 5083 H 468.079 2.94357 -3.01549 0
M  V30 5084 H 466.803 2.73105 -1.79112 0
M  V30 5085 H 465.462 1.34388 -3.4108 0
M  V30 5086 H 465.11 3.81631 -3.27669 0
M  V30 5087 H 464.81 3.20705 -4.92364 0
M  V30 5088 H 466.334 4.0643 -4.55683 0
M  V30 5089 H 467.748 1.95144 -5.39065 0
M  V30 5090 H 466.145 1.31152 -5.85593 0
M  V30 5091 H 467.215 0.331071 -4.83768 0
M  V30 5092 N 468.558 1.5553 0.254621 0
M  V30 5093 C 469.798 1.7876 0.991179 0
M  V30 5094 C 470.162 0.586669 1.82817 0
M  V30 5095 O 471.363 0.697585 2.5959 0
M  V30 5096 C 469.634 3.06679 1.83529 0
M  V30 5097 S 471.193 3.511 2.632 0
M  V30 5098 H 468.011 0.627916 0.333531 0
M  V30 5099 H 470.613 1.93766 0.259778 0
M  V30 5100 H 469.317 3.92158 1.20996 0
M  V30 5101 H 468.848 2.94388 2.60958 0
M  V30 5102 H 470.863 3.11823 3.8598 0
M  V30 5103 N 470.036 -0.519951 1.48776 0
M  V30 5104 C 471.282 -1.27456 1.58514 0
M  V30 5105 C 471.637 -1.90634 0.260057 0
M  V30 5106 O 470.93 -1.76815 -0.738036 0
M  V30 5107 C 471.124 -2.37864 2.6675 0
M  V30 5108 C 470.953 -1.85509 4.09654 0
M  V30 5109 C 469.723 -1.67661 4.76674 0
M  V30 5110 C 471.921 -1.37783 4.955 0
M  V30 5111 N 469.903 -1.10037 6.03958 0
M  V30 5112 C 471.274 -0.921714 6.1311 0
M  V30 5113 C 473.329 -1.26179 4.81646 0
M  V30 5114 C 472.032 -0.361057 7.18393 0
M  V30 5115 C 474.058 -0.715121 5.8706 0
M  V30 5116 C 473.42 -0.269132 7.03886 0
M  V30 5117 H 469.519 -0.457049 0.634531 0
M  V30 5118 H 472.103 -0.585073 1.85701 0
M  V30 5119 H 470.274 -3.04296 2.41367 0
M  V30 5120 H 472.006 -3.04901 2.66116 0
M  V30 5121 H 468.761 -1.91478 4.33166 0
M  V30 5122 H 469.185 -0.832067 6.71867 0
M  V30 5123 H 473.827 -1.59263 3.91657 0
M  V30 5124 H 471.545 -0.0179127 8.08098 0
M  V30 5125 H 475.131 -0.628376 5.78397 0
M  V30 5126 H 474.011 0.14729 7.84062 0
M  V30 5127 N 471.514 -1.37532 -0.769588 0
M  V30 5128 C 472.761 -1.3286 -1.52822 0
M  V30 5129 C 473.089 0.0862597 -1.94309 0
M  V30 5130 O 472.344 1.05995 -1.6451 0
M  V30 5131 C 472.643 -2.21558 -2.8044 0
M  V30 5132 C 472.309 -3.69796 -2.57996 0
M  V30 5133 C 470.971 -4.10194 -2.51583 0
M  V30 5134 C 473.323 -4.63699 -2.37976 0
M  V30 5135 C 470.651 -5.42608 -2.23144 0
M  V30 5136 C 473.003 -5.96353 -2.1106 0
M  V30 5137 C 471.667 -6.35853 -2.03093 0
M  V30 5138 H 470.937 -0.486168 -0.559215 0
M  V30 5139 H 473.584 -1.69757 -0.886277 0
M  V30 5140 H 471.889 -1.77663 -3.49204 0
M  V30 5141 H 473.586 -2.15256 -3.38328 0
M  V30 5142 H 470.176 -3.37759 -2.63851 0
M  V30 5143 H 474.36 -4.33346 -2.41919 0
M  V30 5144 H 469.616 -5.72173 -2.15472 0
M  V30 5145 H 473.79 -6.68667 -1.94568 0
M  V30 5146 H 471.417 -7.38382 -1.8082 0
M  V30 5147 N 472.992 0.995999 -1.22138 0
M  V30 5148 C 474.403 1.54961 -1.04135 0
M  V30 5149 C 474.754 1.92159 0.396147 0
M  V30 5150 O 473.879 1.74435 1.28069 0
M  V30 5151 C 474.474 2.81581 -1.88408 0
M  V30 5152 C 473.033 3.33396 -1.74712 0
M  V30 5153 C 472.18 2.06509 -1.85066 0
M  V30 5154 H 475.131 0.817436 -1.36028 0
M  V30 5155 H 475.152 3.53822 -1.39966 0
M  V30 5156 H 474.664 2.54476 -2.93025 0
M  V30 5157 H 472.765 3.65416 -0.728159 0
M  V30 5158 H 472.878 4.04208 -2.57202 0
M  V30 5159 H 471.242 2.19925 -1.28472 0
M  V30 5160 H 472.025 1.81804 -2.91208 0
M  V30 5161 N 474.47 1.03057 1.19235 0
M  V30 5162 C 475.4 0.633497 2.24742 0
M  V30 5163 C 476.381 -0.358335 1.66283 0
M  V30 5164 O 477.566 -0.240676 1.92703 0
M  V30 5165 C 474.696 -0.0147648 3.47297 0
M  V30 5166 C 473.65 0.899527 4.18441 0
M  V30 5167 C 472.976 0.116281 5.34574 0
M  V30 5168 C 474.276 2.21404 4.73051 0
M  V30 5169 H 475.97 1.5155 2.58211 0
M  V30 5170 H 473.516 0.73014 1.24117 0
M  V30 5171 H 475.469 -0.304202 4.20301 0
M  V30 5172 H 474.193 -0.931577 3.13032 0
M  V30 5173 H 472.852 1.17319 3.47321 0
M  V30 5174 H 472.5 -0.802619 4.96555 0
M  V30 5175 H 472.2 0.725293 5.83107 0
M  V30 5176 H 473.724 -0.166376 6.10373 0
M  V30 5177 H 475.138 1.98601 5.37802 0
M  V30 5178 H 473.535 2.77512 5.32078 0
M  V30 5179 H 474.605 2.86752 3.91026 0
M  V30 5180 N 475.948 -1.35272 0.808662 0
M  V30 5181 C 476.898 -2.27181 0.193124 0
M  V30 5182 C 477.882 -1.47871 -0.634265 0
M  V30 5183 O 479.074 -1.70048 -0.491182 0
M  V30 5184 C 476.203 -3.36979 -0.655751 0
M  V30 5185 C 475.289 -4.23712 0.181481 0
M  V30 5186 N 475.68 -4.90225 1.24551 0
M  V30 5187 C 473.978 -4.45985 -0.0365493 0
M  V30 5188 C 474.679 -5.54537 1.75682 0
M  V30 5189 N 473.655 -5.33107 1.06294 0
M  V30 5190 H 477.457 -2.76101 1.00724 0
M  V30 5191 H 474.971 -1.48823 0.650029 0
M  V30 5192 H 476.968 -4.01774 -1.11279 0
M  V30 5193 H 475.628 -2.89611 -1.46819 0
M  V30 5194 H 476.639 -4.91641 1.62818 0
M  V30 5195 H 473.316 -4.09409 -0.817964 0
M  V30 5196 H 474.706 -6.17597 2.64621 0
M  V30 5197 N 477.426 -0.562348 -1.47226 0
M  V30 5198 C 478.356 0.170627 -2.32876 0
M  V30 5199 C 479.337 0.903748 -1.44106 0
M  V30 5200 O 480.522 0.883206 -1.72954 0
M  V30 5201 C 477.652 1.19786 -3.25989 0
M  V30 5202 C 476.606 0.580875 -4.2404 0
M  V30 5203 C 475.932 1.71311 -5.06514 0
M  V30 5204 C 477.232 -0.468714 -5.20193 0
M  V30 5205 H 478.926 -0.544441 -2.94408 0
M  V30 5206 H 476.472 -0.263271 -1.41573 0
M  V30 5207 H 478.425 1.71884 -3.84752 0
M  V30 5208 H 477.149 1.94294 -2.62521 0
M  V30 5209 H 475.808 0.0811538 -3.6651 0
M  V30 5210 H 475.456 2.44736 -4.39447 0
M  V30 5211 H 475.156 1.30604 -5.72902 0
M  V30 5212 H 476.68 2.23725 -5.68137 0
M  V30 5213 H 478.094 -0.0336028 -5.7329 0
M  V30 5214 H 476.491 -0.794957 -5.94811 0
M  V30 5215 H 477.561 -1.36269 -4.65359 0
M  V30 5216 N 478.904 1.54736 -0.299062 0
M  V30 5217 C 480.129 2.04975 0.316254 0
M  V30 5218 C 480.554 1.17501 1.46885 0
M  V30 5219 O 479.912 0.178678 1.80417 0
M  V30 5220 C 479.96 3.52672 0.751997 0
M  V30 5221 O 479.064 3.68226 1.85697 0
M  V30 5222 H 478.405 0.661126 0.0617175 0
M  V30 5223 H 480.935 1.99805 -0.440341 0
M  V30 5224 H 480.945 3.94488 1.04133 0
M  V30 5225 H 479.62 4.158 -0.0911482 0
M  V30 5226 H 478.197 3.38316 1.56834 0
M  V30 5227 N 480.382 0.0267497 1.57577 0
M  V30 5228 C 481.798 -0.32962 1.56159 0
M  V30 5229 C 481.998 -1.73059 1.03213 0
M  V30 5230 O 481.054 -2.43233 0.677804 0
M  V30 5231 C 482.367 -0.18039 3.00158 0
M  V30 5232 C 483.915 -0.253334 3.11973 0
M  V30 5233 C 484.39 -0.132921 4.57807 0
M  V30 5234 N 485.881 -0.189979 4.6281 0
M  V30 5235 C 486.616 -0.120554 5.73273 0
M  V30 5236 N 486.112 -0.000180315 6.928 0
M  V30 5237 N 487.905 -0.174369 5.61829 0
M  V30 5238 H 480.056 0.942896 1.90324 0
M  V30 5239 H 482.319 0.3639 0.875375 0
M  V30 5240 H 482.025 0.784576 3.42837 0
M  V30 5241 H 481.899 -0.951565 3.65 0
M  V30 5242 H 484.286 -1.20876 2.69208 0
M  V30 5243 H 484.367 0.548177 2.49857 0
M  V30 5244 H 484.011 0.819073 5.01252 0
M  V30 5245 H 483.941 -0.953264 5.179 0
M  V30 5246 H 486.432 -0.283257 3.76837 0
M  V30 5247 H 486.745 0.0461666 7.72786 0
M  V30 5248 H 485.09 0.034569 6.94991 0
M  V30 5249 H 488.281 -0.266794 4.67339 0
M  V30 5250 H 488.454 -0.116802 6.47895 0
M  V30 5251 N 481.861 -1.55662 -0.24637 0
M  V30 5252 C 483.11 -1.7672 -0.972254 0
M  V30 5253 C 483.423 -0.59078 -1.86465 0
M  V30 5254 O 484.629 -0.684391 -2.62732 0
M  V30 5255 C 483.085 -3.12869 -1.7788 0
M  V30 5256 C 482.693 -4.38161 -0.933768 0
M  V30 5257 C 484.437 -3.43265 -2.49738 0
M  V30 5258 C 482.344 -5.6534 -1.73623 0
M  V30 5259 H 481.274 -0.658795 -0.366749 0
M  V30 5260 H 483.925 -1.82092 -0.226902 0
M  V30 5261 H 482.307 -3.01606 -2.56612 0
M  V30 5262 H 483.481 -4.60413 -0.188736 0
M  V30 5263 H 481.796 -4.15102 -0.328488 0
M  V30 5264 H 484.393 -4.35501 -3.10231 0
M  V30 5265 H 484.736 -2.64614 -3.2138 0
M  V30 5266 H 485.269 -3.55746 -1.78016 0
M  V30 5267 H 482.008 -6.46814 -1.06354 0
M  V30 5268 H 481.528 -5.47188 -2.45653 0
M  V30 5269 H 483.207 -6.04616 -2.30323 0
M  V30 5270 N 483.339 0.512053 -1.4905 0
M  V30 5271 C 484.269 1.62365 -1.67809 0
M  V30 5272 C 485.25 1.61737 -0.526809 0
M  V30 5273 O 486.435 1.78651 -0.761404 0
M  V30 5274 C 483.565 3.00895 -1.73435 0
M  V30 5275 C 482.519 3.16387 -2.88242 0
M  V30 5276 C 481.845 4.56157 -2.78971 0
M  V30 5277 C 483.145 2.97457 -4.29321 0
M  V30 5278 H 484.839 1.46921 -2.60873 0
M  V30 5279 H 482.385 0.705379 -1.2554 0
M  V30 5280 H 484.338 3.78549 -1.85145 0
M  V30 5281 H 483.062 3.17403 -0.769619 0
M  V30 5282 H 481.721 2.41155 -2.76116 0
M  V30 5283 H 481.369 4.69525 -1.8043 0
M  V30 5284 H 481.069 4.67465 -3.5602 0
M  V30 5285 H 482.593 5.35886 -2.92675 0
M  V30 5286 H 484.007 3.64888 -4.42187 0
M  V30 5287 H 482.404 3.20245 -5.07507 0
M  V30 5288 H 483.474 1.93692 -4.44535 0
M  V30 5289 N 484.817 1.37938 0.762283 0
M  V30 5290 C 485.764 1.34467 1.87583 0
M  V30 5291 C 486.734 0.208633 1.64785 0
M  V30 5292 O 487.919 0.399494 1.86571 0
M  V30 5293 C 485.059 1.16692 3.24772 0
M  V30 5294 C 484.172 2.39608 3.59461 0
M  V30 5295 C 483.307 2.14631 4.85908 0
M  V30 5296 C 482.346 3.33364 5.13357 0
M  V30 5297 N 481.483 3.07877 6.30996 0
M  V30 5298 H 486.323 2.29669 1.89885 0
M  V30 5299 H 483.86 1.14116 0.928219 0
M  V30 5300 H 485.818 1.04405 4.03925 0
M  V30 5301 H 484.448 0.251333 3.2182 0
M  V30 5302 H 483.5 2.626 2.75219 0
M  V30 5303 H 484.812 3.28128 3.75678 0
M  V30 5304 H 483.966 1.99429 5.72986 0
M  V30 5305 H 482.705 1.23463 4.71814 0
M  V30 5306 H 481.71 3.49094 4.24751 0
M  V30 5307 H 482.935 4.25395 5.29354 0
M  V30 5308 H 480.881 2.19348 6.18241 0
M  V30 5309 H 480.798 3.89944 6.47673 0
M  V30 5310 H 482.066 2.96313 7.20985 0
M  V30 5311 N 486.295 -0.989507 1.22664 0
M  V30 5312 C 487.242 -2.08024 0.999733 0
M  V30 5313 C 488.212 -1.65909 -0.0797047 0
M  V30 5314 O 489.397 -1.90669 0.0705715 0
M  V30 5315 C 486.537 -3.40067 0.587234 0
M  V30 5316 C 485.65 -3.95505 1.73781 0
M  V30 5317 C 484.785 -5.15722 1.27297 0
M  V30 5318 C 483.824 -5.63305 2.39488 0
M  V30 5319 N 482.961 -6.74758 1.94026 0
M  V30 5320 H 487.801 -2.26768 1.9334 0
M  V30 5321 H 485.338 -1.11171 0.963297 0
M  V30 5322 H 487.296 -4.15899 0.329227 0
M  V30 5323 H 485.926 -3.21314 -0.309426 0
M  V30 5324 H 484.978 -3.16513 2.11006 0
M  V30 5325 H 486.29 -4.26797 2.58158 0
M  V30 5326 H 485.444 -5.98854 0.972546 0
M  V30 5327 H 484.183 -4.86061 0.399445 0
M  V30 5328 H 483.188 -4.78759 2.70315 0
M  V30 5329 H 484.413 -5.94988 3.27362 0
M  V30 5330 H 482.359 -6.46874 1.09041 0
M  V30 5331 H 482.276 -7.05386 2.71968 0
M  V30 5332 H 483.544 -7.61387 1.67062 0
M  V30 5333 N 487.773 -1.03688 -1.18687 0
M  V30 5334 C 489.001 -0.757918 -1.92518 0
M  V30 5335 C 489.416 0.684398 -1.75959 0
M  V30 5336 O 488.773 1.46617 -1.08673 0
M  V30 5337 C 488.824 -1.10985 -3.44042 0
M  V30 5338 O 488.545 -2.49554 -3.60076 0
M  V30 5339 C 490.046 -0.854844 -4.3498 0
M  V30 5340 H 487.266 -0.276699 -0.611293 0
M  V30 5341 H 489.81 -1.38352 -1.50595 0
M  V30 5342 H 487.965 -0.529279 -3.83767 0
M  V30 5343 H 488.379 -2.6291 -4.53849 0
M  V30 5344 H 489.853 -1.15098 -5.39867 0
M  V30 5345 H 490.33 0.210507 -4.38695 0
M  V30 5346 H 490.936 -1.41853 -4.00946 0
M  V30 5347 N 489.251 1.34841 -0.815825 0
M  V30 5348 C 490.497 1.98793 -0.401129 0
M  V30 5349 C 490.83 1.64548 1.03139 0
M  V30 5350 O 490.105 0.913487 1.71714 0
M  V30 5351 C 490.388 3.55143 -0.595409 0
M  V30 5352 C 490.241 3.99155 -2.07352 0
M  V30 5353 C 491.56 4.40092 -0.0268823 0
M  V30 5354 H 488.679 0.722146 -0.14722 0
M  V30 5355 H 491.321 1.59847 -1.02707 0
M  V30 5356 H 489.471 3.8845 -0.0625779 0
M  V30 5357 H 491.143 3.76216 -2.66945 0
M  V30 5358 H 489.386 3.49726 -2.56659 0
M  V30 5359 H 490.057 5.07971 -2.1603 0
M  V30 5360 H 492.533 4.13298 -0.482042 0
M  V30 5361 H 491.409 5.48562 -0.19267 0
M  V30 5362 H 491.67 4.29016 1.06759 0
M  V30 5363 N 490.729 0.570148 1.46925 0
M  V30 5364 C 491.959 0.0561151 2.06524 0
M  V30 5365 C 492.367 -1.24874 1.42137 0
M  V30 5366 O 491.71 -1.76292 0.516417 0
M  V30 5367 C 491.772 -0.197035 3.5896 0
M  V30 5368 C 491.436 1.02033 4.45464 0
M  V30 5369 C 492.433 1.92921 4.82781 0
M  V30 5370 C 490.118 1.23864 4.86788 0
M  V30 5371 C 492.112 3.03999 5.60235 0
M  V30 5372 C 489.799 2.35249 5.64004 0
M  V30 5373 C 490.797 3.25146 6.0064 0
M  V30 5374 O 490.485 4.34598 6.76299 0
M  V30 5375 H 490.217 0.0487409 0.674241 0
M  V30 5376 H 492.771 0.786915 1.89728 0
M  V30 5377 H 491.001 -0.982299 3.74016 0
M  V30 5378 H 492.69 -0.658032 4.00531 0
M  V30 5379 H 493.456 1.77265 4.51444 0
M  V30 5380 H 489.335 0.54805 4.57731 0
M  V30 5381 H 492.879 3.74192 5.8875 0
M  V30 5382 H 488.776 2.50873 5.94755 0
M  V30 5383 H 489.544 4.32808 6.94708 0
M  V30 5384 N 492.207 -1.54576 0.307264 0
M  V30 5385 C 493.155 -2.25208 -0.581723 0
M  V30 5386 C 494.149 -1.26031 -1.13192 0
M  V30 5387 O 495.355 -1.43862 -1.08184 0
M  V30 5388 H 491.73 -0.723173 -0.206214 0
M  V30 5389 H 493.701 -2.98378 0.0364663 0
M  V30 5390 C 492.45 -3.01086 -1.73904 0
M  V30 5391 H 491.773 -3.77208 -1.32491 0
M  V30 5392 H 493.213 -3.5378 -2.33701 0
M  V30 5393 C 491.672 -2.08422 -2.64692 0
M  V30 5394 O 492.202 -1.65636 -3.65961 0
M  V30 5395 N 490.408 -1.74247 -2.32564 0
M  V30 5396 H 489.955 -2.09238 -1.50257 0
M  V30 5397 H 489.913 -1.12524 -2.93574 0
M  V30 5398 N 493.685 -0.035106 -1.57561 0
M  V30 5399 C 494.595 0.960295 -2.14046 0
M  V30 5400 C 495.611 1.3529 -1.0942 0
M  V30 5401 O 496.787 1.43309 -1.41508 0
M  V30 5402 C 493.852 2.22214 -2.66124 0
M  V30 5403 C 492.913 1.8894 -3.85487 0
M  V30 5404 C 492.146 3.09109 -4.35072 0
M  V30 5405 O 492.369 4.21963 -3.83802 0
M  V30 5406 O 491.303 2.91058 -5.26848 0
M  V30 5407 H 495.129 0.509983 -2.99387 0
M  V30 5408 H 492.714 0.185853 -1.48239 0
M  V30 5409 H 494.596 2.96279 -2.99661 0
M  V30 5410 H 493.271 2.66414 -1.83862 0
M  V30 5411 H 492.178 1.12241 -3.56865 0
M  V30 5412 H 493.511 1.49551 -4.6893 0
M  V30 5413 N 495.163 1.55791 0.238111 0
M  V30 5414 C 496.096 1.86036 1.32158 0
M  V30 5415 C 497.074 0.716216 1.45976 0
M  V30 5416 O 498.258 0.962882 1.62052 0
M  V30 5417 C 495.385 2.05281 2.69402 0
M  V30 5418 C 494.431 3.27939 2.72687 0
M  V30 5419 S 495.264 4.84342 2.28413 0
M  V30 5420 C 496.42 5.06604 3.67565 0
M  V30 5421 H 496.653 2.77644 1.06306 0
M  V30 5422 H 494.186 1.48012 0.439537 0
M  V30 5423 H 496.144 2.17053 3.48423 0
M  V30 5424 H 494.805 1.14499 2.92487 0
M  V30 5425 H 493.998 3.38398 3.73501 0
M  V30 5426 H 493.6 3.14938 2.01717 0
M  V30 5427 H 495.892 4.94486 4.6313 0
M  V30 5428 H 496.835 6.08554 3.62033 0
M  V30 5429 H 497.243 4.34409 3.60485 0
M  V30 5430 N 496.642 -0.504142 1.49319 0
M  V30 5431 C 497.919 -1.26548 1.49147 0
M  V30 5432 C 498.299 -2.09977 0.21744 0
M  V30 5433 O 497.647 -2.14028 -0.800269 0
M  V30 5434 C 497.857 -2.12489 2.76857 0
M  V30 5435 C 499.205 -2.7178 3.26222 0
M  V30 5436 O 500.229 -2.22758 2.77952 0
M  V30 5437 O 499.088 -3.61015 4.10281 0
M  V30 5438 H 496.182 -0.572495 0.596806 0
M  V30 5439 H 498.728 -0.51867 1.61579 0
M  V30 5440 H 497.5 -1.50796 3.61077 0
M  V30 5441 H 497.123 -2.94368 2.6727 0
M  V30 5442 N 498.12 -1.38341 -0.754957 0
M  V30 5443 C 499.067 -1.3546 -1.86867 0
M  V30 5444 C 500.037 -0.217369 -1.64672 0
M  V30 5445 O 501.222 -0.409383 -1.86356 0
M  V30 5446 C 498.362 -1.18413 -3.24149 0
M  V30 5447 C 497.475 -2.41511 -3.58185 0
M  V30 5448 C 496.61 -2.17205 -4.84763 0
M  V30 5449 C 495.649 -3.36081 -5.11582 0
M  V30 5450 N 494.786 -3.11219 -6.29354 0
M  V30 5451 H 499.626 -2.30672 -1.88664 0
M  V30 5452 H 497.163 -1.14607 -0.922154 0
M  V30 5453 H 499.121 -1.06545 -4.03366 0
M  V30 5454 H 497.751 -0.268397 -3.21682 0
M  V30 5455 H 496.803 -2.64056 -2.73822 0
M  V30 5456 H 498.115 -3.30115 -3.73932 0
M  V30 5457 H 497.269 -2.02465 -5.7192 0
M  V30 5458 H 496.008 -1.25964 -4.71152 0
M  V30 5459 H 495.013 -3.51341 -4.22894 0
M  V30 5460 H 496.238 -4.28196 -5.27091 0
M  V30 5461 H 494.184 -2.22624 -6.17069 0
M  V30 5462 H 494.101 -3.93373 -6.45596 0
M  V30 5463 H 495.369 -3.00132 -7.19403 0
M  V30 5464 N 499.598 0.982988 -1.23187 0
M  V30 5465 C 500.546 2.09616 -1.00817 0
M  V30 5466 C 501.54 1.6932 0.0519995 0
M  V30 5467 O 502.746 1.79715 -0.101284 0
M  V30 5468 H 499.121 0.685628 -0.308899 0
M  V30 5469 H 501.092 2.25652 -1.95253 0
M  V30 5470 C 499.841 3.42249 -0.613243 0
M  V30 5471 H 499.164 3.73705 -1.42073 0
M  V30 5472 H 500.604 4.21086 -0.496208 0
M  V30 5473 C 499.063 3.30002 0.678233 0
M  V30 5474 O 499.593 3.6263 1.72807 0
M  V30 5475 N 497.799 2.83164 0.653165 0
M  V30 5476 H 497.346 2.56811 -0.201492 0
M  V30 5477 H 497.304 2.75352 1.51752 0
M  V30 5478 N 501.076 1.04316 1.18135 0
M  V30 5479 C 502.492 0.762858 1.40188 0
M  V30 5480 C 502.692 -0.646547 1.90846 0
M  V30 5481 O 501.748 -1.41036 2.0944 0
M  V30 5482 C 503.061 1.81106 2.40044 0
M  V30 5483 C 504.609 1.83226 2.53766 0
M  V30 5484 C 505.084 2.87044 3.56889 0
M  V30 5485 N 506.575 2.85951 3.64398 0
M  V30 5486 C 507.31 3.62932 4.43923 0
M  V30 5487 N 506.806 4.49672 5.27036 0
M  V30 5488 N 508.599 3.51411 4.38711 0
M  V30 5489 H 500.75 1.95264 0.835805 0
M  V30 5490 H 503.013 0.845017 0.429709 0
M  V30 5491 H 502.719 2.82214 2.09876 0
M  V30 5492 H 502.593 1.64529 3.39426 0
M  V30 5493 H 504.98 0.827869 2.8325 0
M  V30 5494 H 505.061 2.03879 1.54489 0
M  V30 5495 H 504.705 3.87663 3.28145 0
M  V30 5496 H 504.635 2.63645 4.5585 0
M  V30 5497 H 507.126 2.23051 3.05052 0
M  V30 5498 H 507.439 5.05116 5.84874 0
M  V30 5499 H 505.784 4.53738 5.26447 0
M  V30 5500 H 508.975 2.83047 3.72829 0
M  V30 5501 H 509.148 4.11654 5.00445 0
M  V30 5502 N 502.554 -1.34406 0.822964 0
M  V30 5503 C 503.794 -2.00103 0.416915 0
M  V30 5504 C 504.158 -1.63826 -1.00125 0
M  V30 5505 O 505.359 -2.22367 -1.51018 0
M  V30 5506 C 503.63 -3.52101 0.613151 0
M  V30 5507 S 505.189 -4.37774 0.299956 0
M  V30 5508 H 502.007 -0.69333 0.157527 0
M  V30 5509 H 504.609 -1.63698 1.06879 0
M  V30 5510 H 503.313 -3.75991 1.64496 0
M  V30 5511 H 502.844 -3.93364 -0.0534554 0
M  V30 5512 H 504.859 -4.8822 -0.886336 0
M  V30 5513 N 504.032 -0.577932 -1.46621 0
M  V30 5514 C 504.942 0.160651 -2.34049 0
M  V30 5515 C 505.958 0.890911 -1.49462 0
M  V30 5516 O 507.134 0.855166 -1.82343 0
M  V30 5517 C 504.199 1.16447 -3.26559 0
M  V30 5518 C 503.26 0.4394 -4.27045 0
M  V30 5519 C 502.493 1.3954 -5.15135 0
M  V30 5520 O 502.716 2.63162 -5.06065 0
M  V30 5521 O 501.65 0.908585 -5.95003 0
M  V30 5522 H 505.476 -0.557057 -2.98547 0
M  V30 5523 H 503.061 -0.338369 -1.45518 0
M  V30 5524 H 504.943 1.7434 -3.83645 0
M  V30 5525 H 503.618 1.86373 -2.64663 0
M  V30 5526 H 502.525 -0.181247 -3.73661 0
M  V30 5527 H 503.858 -0.218799 -4.91713 0
M  V30 5528 N 505.51 1.54411 -0.315457 0
M  V30 5529 C 506.44 2.27002 0.547039 0
M  V30 5530 C 507.421 1.27492 1.12605 0
M  V30 5531 O 508.606 1.5629 1.15269 0
M  V30 5532 C 505.736 3.02171 1.71201 0
M  V30 5533 C 504.69 4.0895 1.26268 0
M  V30 5534 C 504.016 4.71915 2.51396 0
M  V30 5535 C 505.316 5.20891 0.383419 0
M  V30 5536 H 507.01 2.99343 -0.0584517 0
M  V30 5537 H 504.556 1.4397 -0.0295527 0
M  V30 5538 H 506.509 3.51681 2.32161 0
M  V30 5539 H 505.233 2.27433 2.34397 0
M  V30 5540 H 503.892 3.60312 0.676062 0
M  V30 5541 H 503.54 3.93801 3.12937 0
M  V30 5542 H 503.24 5.44039 2.22026 0
M  V30 5543 H 504.764 5.24195 3.13133 0
M  V30 5544 H 506.178 5.66206 0.899082 0
M  V30 5545 H 504.575 5.99821 0.182857 0
M  V30 5546 H 505.645 4.81324 -0.587821 0
M  V30 5547 N 506.988 0.0434614 1.5754 0
M  V30 5548 C 507.918 -0.931651 2.14109 0
M  V30 5549 C 508.899 -1.32971 1.06079 0
M  V30 5550 O 510.084 -1.40579 1.33982 0
M  V30 5551 C 507.214 -2.20914 2.67982 0
M  V30 5552 C 506.168 -1.95139 3.80926 0
M  V30 5553 C 505.494 -3.29276 4.21285 0
M  V30 5554 C 506.794 -1.27913 5.06395 0
M  V30 5555 H 508.488 -0.460497 2.95837 0
M  V30 5556 H 506.034 -0.220058 1.42309 0
M  V30 5557 H 507.987 -2.89522 3.06194 0
M  V30 5558 H 506.711 -2.70221 1.83434 0
M  V30 5559 H 505.37 -1.28945 3.43175 0
M  V30 5560 H 505.018 -3.76369 3.33699 0
M  V30 5561 H 504.718 -3.12831 4.97404 0
M  V30 5562 H 506.242 -3.99129 4.62091 0
M  V30 5563 H 507.656 -1.86544 5.42102 0
M  V30 5564 H 506.053 -1.2182 5.87605 0
M  V30 5565 H 507.123 -0.254066 4.84234 0
M  V30 5566 N 508.466 -1.55915 -0.229846 0
M  V30 5567 C 509.691 -1.8296 -0.976743 0
M  V30 5568 C 510.116 -0.622735 -1.77493 0
M  V30 5569 O 509.474 0.428431 -1.76165 0
M  V30 5570 C 509.522 -3.07916 -1.8767 0
M  V30 5571 O 508.626 -2.86028 -2.97088 0
M  V30 5572 H 507.967 -0.603453 -0.277021 0
M  V30 5573 H 510.497 -2.0312 -0.245669 0
M  V30 5574 H 510.507 -3.37802 -2.2881 0
M  V30 5575 H 509.182 -3.95389 -1.28996 0
M  V30 5576 H 507.759 -2.67355 -2.59954 0
M  V30 5577 N 509.944 0.496216 -1.49584 0
M  V30 5578 C 511.191 1.25003 -1.59312 0
M  V30 5579 C 511.519 1.92445 -0.28198 0
M  V30 5580 O 510.774 1.81557 0.730452 0
M  V30 5581 C 511.073 2.3359 -2.705 0
M  V30 5582 C 510.739 1.83574 -4.11839 0
M  V30 5583 C 509.401 1.69653 -4.50302 0
M  V30 5584 C 511.753 1.46193 -5.00277 0
M  V30 5585 C 509.081 1.16736 -5.74969 0
M  V30 5586 C 511.433 0.947265 -6.25468 0
M  V30 5587 C 510.097 0.794485 -6.62755 0
M  V30 5588 H 509.367 0.45742 -0.582965 0
M  V30 5589 H 512.014 0.549996 -1.83432 0
M  V30 5590 H 510.319 3.09401 -2.40371 0
M  V30 5591 H 512.016 2.91627 -2.75235 0
M  V30 5592 H 508.606 1.9537 -3.81482 0
M  V30 5593 H 512.79 1.55793 -4.71214 0
M  V30 5594 H 508.046 1.03623 -6.02555 0
M  V30 5595 H 512.22 0.648846 -6.93371 0
M  V30 5596 H 509.847 0.382271 -7.59238 0
M  V30 5597 N 511.423 1.38739 0.74761 0
M  V30 5598 C 512.353 1.39173 1.87492 0
M  V30 5599 C 513.334 0.256794 1.6815 0
M  V30 5600 O 514.519 0.460762 1.88655 0
M  V30 5601 C 511.649 1.22197 3.25093 0
M  V30 5602 C 510.603 2.32957 3.59047 0
M  V30 5603 C 509.929 2.01082 4.95449 0
M  V30 5604 C 511.229 3.75237 3.6331 0
M  V30 5605 H 512.923 2.3351 1.87386 0
M  V30 5606 H 510.469 1.12399 0.900134 0
M  V30 5607 H 512.422 1.21124 4.03617 0
M  V30 5608 H 511.146 0.243241 3.25693 0
M  V30 5609 H 509.805 2.33226 2.82845 0
M  V30 5610 H 509.453 1.01678 4.92616 0
M  V30 5611 H 509.153 2.75267 5.19136 0
M  V30 5612 H 510.677 2.01638 5.76346 0
M  V30 5613 H 512.091 3.76966 4.31937 0
M  V30 5614 H 510.488 4.48677 3.98509 0
M  V30 5615 H 511.558 4.07122 2.634 0
M  V30 5616 N 512.901 -0.976442 1.23707 0
M  V30 5617 C 513.831 -2.08749 1.04624 0
M  V30 5618 C 514.812 -1.70057 -0.0380956 0
M  V30 5619 O 515.997 -1.93782 0.127308 0
M  V30 5620 C 513.127 -3.41335 0.640902 0
M  V30 5621 C 512.081 -3.93947 1.67302 0
M  V30 5622 C 511.407 -5.22774 1.12301 0
M  V30 5623 C 512.707 -4.22769 3.06697 0
M  V30 5624 H 514.401 -2.24972 1.97555 0
M  V30 5625 H 511.947 -1.08108 0.951247 0
M  V30 5626 H 513.9 -4.18489 0.494434 0
M  V30 5627 H 512.624 -3.24988 -0.324099 0
M  V30 5628 H 511.283 -3.18941 1.80755 0
M  V30 5629 H 510.931 -5.0278 0.148877 0
M  V30 5630 H 510.631 -5.58942 1.81267 0
M  V30 5631 H 512.155 -6.02546 0.988479 0
M  V30 5632 H 513.569 -4.90659 2.96524 0
M  V30 5633 H 511.966 -4.70147 3.72937 0
M  V30 5634 H 513.036 -3.29885 3.55392 0
M  V30 5635 N 514.379 -1.04941 -1.1758 0
M  V30 5636 C 515.309 -0.669172 -2.23706 0
M  V30 5637 C 516.29 0.331835 -1.66832 0
M  V30 5638 O 517.475 0.209988 -1.93061 0
M  V30 5639 C 514.605 -0.0404889 -3.47276 0
M  V30 5640 C 513.559 -0.965983 -4.16957 0
M  V30 5641 C 512.885 -0.201312 -5.34321 0
M  V30 5642 C 514.185 -2.28902 -4.69469 0
M  V30 5643 H 515.879 -1.55639 -2.55767 0
M  V30 5644 H 513.425 -0.749793 -1.22939 0
M  V30 5645 H 515.378 0.237298 -4.20731 0
M  V30 5646 H 514.102 0.881658 -3.14475 0
M  V30 5647 H 512.761 -1.22829 -3.45411 0
M  V30 5648 H 512.409 0.723519 -4.97769 0
M  V30 5649 H 512.109 -0.817968 -5.81879 0
M  V30 5650 H 513.633 0.0692499 -6.10561 0
M  V30 5651 H 515.047 -2.07132 -5.34574 0
M  V30 5652 H 513.444 -2.85942 -5.27596 0
M  V30 5653 H 514.514 -2.92937 -3.86414 0
M  V30 5654 N 515.857 1.33968 -0.830081 0
M  V30 5655 C 516.79 2.27303 -0.202182 0
M  V30 5656 C 517.768 1.49235 0.645581 0
M  V30 5657 O 518.952 1.78433 0.607762 0
M  V30 5658 C 516.079 3.31025 0.716932 0
M  V30 5659 C 515.125 4.26466 -0.0542271 0
M  V30 5660 S 515.958 5.16707 -1.40622 0
M  V30 5661 C 517.114 6.23962 -0.492167 0
M  V30 5662 H 517.347 2.8021 -0.99346 0
M  V30 5663 H 514.88 1.41124 -0.626359 0
M  V30 5664 H 516.838 3.91271 1.24165 0
M  V30 5665 H 515.499 2.76951 1.4818 0
M  V30 5666 H 514.692 4.99858 0.644785 0
M  V30 5667 H 514.294 3.7051 -0.509722 0
M  V30 5668 H 516.586 6.76774 0.31347 0
M  V30 5669 H 517.529 6.97927 -1.19599 0
M  V30 5670 H 517.937 5.64447 -0.0774176 0
M  V30 5671 N 517.335 0.585699 1.46312 0
M  V30 5672 C 518.612 0.00542031 1.95599 0
M  V30 5673 C 518.992 -1.45619 1.52834 0
M  V30 5674 O 518.34 -2.14759 0.780446 0
M  V30 5675 C 518.55 0.180601 3.48532 0
M  V30 5676 C 519.898 0.049979 4.24571 0
M  V30 5677 O 520.922 0.109589 3.56031 0
M  V30 5678 O 519.781 -0.0832226 5.46437 0
M  V30 5679 H 516.875 -0.0481281 0.825598 0
M  V30 5680 H 519.421 0.654227 1.56582 0
M  V30 5681 H 518.193 1.19657 3.72556 0
M  V30 5682 H 517.816 -0.504498 3.94386 0
M  V30 5683 N 518.813 -1.54241 0.323641 0
M  V30 5684 C 520.043 -2.04687 -0.280464 0
M  V30 5685 C 520.451 -1.19939 -1.46326 0
M  V30 5686 O 519.794 -0.222872 -1.82343 0
M  V30 5687 C 519.856 -3.50978 -0.778123 0
M  V30 5688 C 519.52 -4.56127 0.282371 0
M  V30 5689 C 520.517 -5.07726 1.11847 0
M  V30 5690 C 518.202 -5.00451 0.430582 0
M  V30 5691 C 520.196 -6.02212 2.08851 0
M  V30 5692 C 517.883 -5.94752 1.40404 0
M  V30 5693 C 518.881 -6.45519 2.23147 0
M  V30 5694 O 518.569 -7.37968 3.1884 0
M  V30 5695 H 518.301 -0.673192 -0.0615473 0
M  V30 5696 H 520.855 -1.99999 0.467921 0
M  V30 5697 H 519.085 -3.53064 -1.57742 0
M  V30 5698 H 520.774 -3.84499 -1.30058 0
M  V30 5699 H 521.54 -4.74261 1.01496 0
M  V30 5700 H 517.419 -4.6055 -0.203569 0
M  V30 5701 H 520.963 -6.41761 2.73474 0
M  V30 5702 H 516.86 -6.27633 1.5082 0
M  V30 5703 H 517.628 -7.55841 3.14079 0
M  V30 5704 N 520.291 -0.0518155 -1.57515 0
M  V30 5705 C 521.54 0.621286 -1.91893 0
M  V30 5706 C 521.853 1.71966 -0.932052 0
M  V30 5707 O 523.059 2.45096 -1.16791 0
M  V30 5708 C 521.515 1.15641 -3.40816 0
M  V30 5709 C 521.123 0.0901146 -4.47909 0
M  V30 5710 C 522.867 1.80472 -3.84227 0
M  V30 5711 C 520.774 0.638154 -5.87947 0
M  V30 5712 H 519.704 0.235835 -0.716169 0
M  V30 5713 H 522.355 -0.120809 -1.83102 0
M  V30 5714 H 520.737 1.95084 -3.44613 0
M  V30 5715 H 521.911 -0.683525 -4.55702 0
M  V30 5716 H 520.226 -0.460774 -4.13843 0
M  V30 5717 H 522.823 2.22471 -4.86221 0
M  V30 5718 H 523.166 2.65669 -3.20508 0
M  V30 5719 H 523.699 1.07683 -3.82948 0
M  V30 5720 H 520.438 -0.176202 -6.55263 0
M  V30 5721 H 519.958 1.37976 -5.83714 0
M  V30 5722 H 521.637 1.12085 -6.37217 0
M  V30 5723 N 521.769 1.56035 0.221574 0
M  V30 5724 C 523.017 1.78693 0.944102 0
M  V30 5725 C 523.338 0.620317 1.8487 0
M  V30 5726 O 522.608 -0.362784 1.92512 0
M  V30 5727 H 521.188 0.659082 0.351597 0
M  V30 5728 H 523.85 1.93497 0.233435 0
M  V30 5729 H 522.946 2.70837 1.55093 0
M  V30 5730 N 523.247 -0.488276 1.49845 0
M  V30 5731 C 524.496 -1.23826 1.59217 0
M  V30 5732 C 524.809 -1.93439 0.289966 0
M  V30 5733 O 526.015 -2.70229 0.262382 0
M  V30 5734 C 524.471 -2.24902 2.80976 0
M  V30 5735 C 524.079 -1.6117 4.18005 0
M  V30 5736 C 525.823 -3.00648 2.99685 0
M  V30 5737 C 523.73 -2.60431 5.3097 0
M  V30 5738 H 522.66 -0.465858 0.592868 0
M  V30 5739 H 525.311 -0.510645 1.76252 0
M  V30 5740 H 523.693 -3.0088 2.57463 0
M  V30 5741 H 524.867 -0.910968 4.51706 0
M  V30 5742 H 523.182 -0.97767 4.0476 0
M  V30 5743 H 525.779 -3.74903 3.81251 0
M  V30 5744 H 526.122 -3.5902 2.10738 0
M  V30 5745 H 526.655 -2.31784 3.23297 0
M  V30 5746 H 523.394 -2.06823 6.22017 0
M  V30 5747 H 522.914 -3.28707 5.01709 0
M  V30 5748 H 524.593 -3.22606 5.60834 0
M  V30 5749 N 524.725 -1.39134 -0.740242 0
M  V30 5750 C 525.673 -1.3757 -1.87556 0
M  V30 5751 C 526.667 -0.259593 -1.67399 0
M  V30 5752 O 527.873 -0.429349 -1.74804 0
M  V30 5753 H 524.248 -0.42947 -0.6173 0
M  V30 5754 H 526.219 -2.33345 -1.85991 0
M  V30 5755 C 524.968 -1.23087 -3.25184 0
M  V30 5756 H 524.291 -2.08237 -3.41288 0
M  V30 5757 H 525.731 -1.26049 -4.0483 0
M  V30 5758 C 524.19 0.0611471 -3.36845 0
M  V30 5759 O 524.72 1.03328 -3.88183 0
M  V30 5760 N 522.926 0.122454 -2.90342 0
M  V30 5761 H 522.473 -0.669329 -2.48752 0
M  V30 5762 H 522.431 0.986463 -2.98523 0
M  V30 5763 N 526.204 0.969867 -1.24223 0
M  V30 5764 C 527.134 2.08191 -1.05729 0
M  V30 5765 C 528.115 1.70075 0.0290765 0
M  V30 5766 O 529.3 1.93712 -0.137583 0
M  V30 5767 C 526.43 3.40991 -0.658995 0
M  V30 5768 C 525.384 3.93054 -1.69389 0
M  V30 5769 C 524.71 5.22171 -1.15072 0
M  V30 5770 C 526.01 4.21137 -3.08935 0
M  V30 5771 H 527.704 2.23921 -1.98746 0
M  V30 5772 H 525.25 1.07602 -0.956967 0
M  V30 5773 H 527.203 4.18221 -0.51662 0
M  V30 5774 H 525.927 3.25155 0.30686 0
M  V30 5775 H 524.586 3.17977 -1.82444 0
M  V30 5776 H 524.234 5.02694 -0.175539 0
M  V30 5777 H 523.934 5.57973 -1.84229 0
M  V30 5778 H 525.458 6.02013 -1.02042 0
M  V30 5779 H 526.872 4.8908 -2.99121 0
M  V30 5780 H 525.269 4.68163 -3.75425 0
M  V30 5781 H 526.339 3.27996 -3.57137 0
M  V30 5782 N 527.682 1.05563 1.17022 0
M  V30 5783 C 528.645 0.664098 2.19368 0
M  V30 5784 C 529.645 -0.286358 1.5823 0
M  V30 5785 O 530.835 -0.069728 1.7406 0
M  V30 5786 C 527.967 -0.0239932 3.40892 0
M  V30 5787 H 529.16 1.57 2.55521 0
M  V30 5788 H 526.713 0.849964 1.31169 0
M  V30 5789 H 527.448 -0.942988 3.10287 0
M  V30 5790 H 527.233 0.659351 3.86516 0
M  V30 5791 H 528.723 -0.283909 4.16634 0
M  V30 5792 N 529.16 -1.33526 0.837174 0
M  V30 5793 C 530.388 -2.02047 0.445494 0
M  V30 5794 C 530.803 -1.62995 -0.952788 0
M  V30 5795 O 530.16 -0.842447 -1.61892 0
M  V30 5796 C 530.211 -3.57221 0.554577 0
M  V30 5797 O 529.932 -3.94863 1.89776 0
M  V30 5798 C 531.433 -4.43012 0.159634 0
M  V30 5799 H 528.653 -0.647221 0.177048 0
M  V30 5800 H 531.197 -1.70492 1.12928 0
M  V30 5801 H 529.352 -3.87315 -0.0812781 0
M  V30 5802 H 529.766 -4.89569 1.88208 0
M  V30 5803 H 531.24 -5.51253 0.28701 0
M  V30 5804 H 531.717 -4.29916 -0.898289 0
M  V30 5805 H 532.323 -4.18274 0.769855 0
M  V30 5806 N 530.638 -0.59345 -1.46 0
M  V30 5807 C 531.571 0.182196 -2.27472 0
M  V30 5808 C 532.549 0.886901 -1.36282 0
M  V30 5809 O 533.733 0.898627 -1.65701 0
M  V30 5810 C 530.86 1.26236 -3.14296 0
M  V30 5811 C 529.906 0.662331 -4.21326 0
M  V30 5812 S 530.739 -0.519017 -5.32979 0
M  V30 5813 C 531.895 0.562086 -6.23371 0
M  V30 5814 H 532.128 -0.509056 -2.92909 0
M  V30 5815 H 529.661 -0.380607 -1.49635 0
M  V30 5816 H 531.619 1.88075 -3.64881 0
M  V30 5817 H 530.28 1.92562 -2.48151 0
M  V30 5818 H 529.473 1.47461 -4.81945 0
M  V30 5819 H 529.075 0.119381 -3.73809 0
M  V30 5820 H 531.367 1.44494 -6.61912 0
M  V30 5821 H 532.31 -0.00760776 -7.081 0
M  V30 5822 H 532.718 0.871061 -5.57739 0
M  V30 5823 N 532.116 1.54067 -0.331816 0
M  V30 5824 C 533.064 2.26105 0.54582 0
M  V30 5825 C 534.058 1.27816 1.11173 0
M  V30 5826 O 535.264 1.45565 1.05882 0
M  V30 5827 H 531.639 0.726363 0.194683 0
M  V30 5828 H 533.61 2.98282 -0.083931 0
M  V30 5829 C 532.359 3.03814 1.69092 0
M  V30 5830 H 531.682 3.79269 1.26473 0
M  V30 5831 H 533.122 3.57453 2.28043 0
M  V30 5832 C 531.581 2.12606 2.61343 0
M  V30 5833 O 532.111 1.71437 3.6328 0
M  V30 5834 N 530.317 1.77925 2.29763 0
M  V30 5835 H 529.864 2.11602 1.46909 0
M  V30 5836 H 529.822 1.1718 2.91747 0
M  V30 5837 N 533.594 0.0601682 1.57485 0
M  V30 5838 C 534.819 -0.624416 1.97777 0
M  V30 5839 C 535.244 -1.63051 0.937867 0
M  V30 5840 O 534.602 -1.81036 -0.0978845 0
M  V30 5841 C 534.65 -1.27979 3.37126 0
M  V30 5842 O 533.754 -2.39556 3.35688 0
M  V30 5843 H 533.095 -0.161581 0.64404 0
M  V30 5844 H 535.625 0.131237 2.04179 0
M  V30 5845 H 535.635 -1.62937 3.74053 0
M  V30 5846 H 534.31 -0.542501 4.12347 0
M  V30 5847 H 532.887 -2.06478 3.10517 0
M  V30 5848 N 535.072 -1.5615 -0.213296 0
M  V30 5849 C 536.312 -1.81325 -0.943435 0
M  V30 5850 C 536.676 -0.634934 -1.81198 0
M  V30 5851 O 537.877 -0.766166 -2.5765 0
M  V30 5852 C 536.148 -3.11437 -1.75334 0
M  V30 5853 S 537.707 -3.57955 -2.53799 0
M  V30 5854 H 534.525 -0.636538 -0.316766 0
M  V30 5855 H 537.127 -1.94387 -0.208313 0
M  V30 5856 H 535.831 -3.95228 -1.10556 0
M  V30 5857 H 535.362 -3.01204 -2.53061 0
M  V30 5858 H 537.377 -3.21947 -3.77577 0
M  V30 5859 N 536.55 0.480323 -1.50102 0
M  V30 5860 C 537.799 1.22979 -1.59872 0
M  V30 5861 C 538.112 1.93282 -0.30022 0
M  V30 5862 O 539.318 2.70086 -0.276709 0
M  V30 5863 C 537.774 2.23408 -2.82164 0
M  V30 5864 C 537.382 1.5895 -4.18854 0
M  V30 5865 C 539.126 2.99055 -3.01275 0
M  V30 5866 C 537.033 2.57611 -5.32344 0
M  V30 5867 H 535.963 0.462707 -0.59533 0
M  V30 5868 H 538.614 0.501291 -1.7652 0
M  V30 5869 H 536.996 2.99511 -2.59055 0
M  V30 5870 H 538.17 0.887 -4.52182 0
M  V30 5871 H 536.485 0.956191 -4.05273 0
M  V30 5872 H 539.082 3.72876 -3.83233 0
M  V30 5873 H 539.425 3.57897 -2.12639 0
M  V30 5874 H 539.958 2.30066 -3.24522 0
M  V30 5875 H 536.697 2.03521 -6.23105 0
M  V30 5876 H 536.217 3.26041 -5.03445 0
M  V30 5877 H 537.896 3.19627 -5.62537 0
M  V30 5878 N 538.028 1.39524 0.732853 0
M  V30 5879 C 538.976 1.38563 1.86824 0
M  V30 5880 C 539.97 0.268467 1.67259 0
M  V30 5881 O 541.176 0.438613 1.74574 0
M  V30 5882 H 537.551 0.432737 0.615014 0
M  V30 5883 H 539.522 2.34328 1.84751 0
M  V30 5884 C 538.271 1.2481 3.24527 0
M  V30 5885 H 537.594 2.10044 3.40179 0
M  V30 5886 H 539.034 1.28194 4.04156 0
M  V30 5887 C 537.493 -0.0432825 3.36872 0
M  V30 5888 O 538.023 -1.01268 3.88726 0
M  V30 5889 N 536.229 -0.107055 2.90403 0
M  V30 5890 H 535.776 0.682512 2.48394 0
M  V30 5891 H 535.734 -0.970618 2.99042 0
M  V30 5892 N 539.506 -0.963266 1.24736 0
M  V30 5893 C 540.917 -1.52145 1.08207 0
M  V30 5894 C 541.268 -1.93142 -0.345061 0
M  V30 5895 O 540.393 -1.77769 -1.23399 0
M  V30 5896 C 540.988 -2.76486 1.95808 0
M  V30 5897 C 539.547 -3.28646 1.8349 0
M  V30 5898 C 538.694 -2.01529 1.90476 0
M  V30 5899 H 541.645 -0.781083 1.38148 0
M  V30 5900 H 541.666 -3.49986 1.49297 0
M  V30 5901 H 541.178 -2.46617 2.99669 0
M  V30 5902 H 539.279 -3.63357 0.824787 0
M  V30 5903 H 539.392 -3.97246 2.67829 0
M  V30 5904 H 537.756 -2.16442 1.34258 0
M  V30 5905 H 538.539 -1.7402 2.95926 0
M  V30 5906 N 540.985 -1.06182 -1.16461 0
M  V30 5907 C 542.234 -0.772927 -1.86303 0
M  V30 5908 C 542.547 0.703187 -1.82523 0
M  V30 5909 O 543.753 1.10641 -2.47933 0
M  V30 5910 C 542.209 -1.33249 -3.34324 0
M  V30 5911 C 541.817 -2.83876 -3.46581 0
M  V30 5912 C 543.561 -1.12108 -4.09429 0
M  V30 5913 C 541.468 -3.33082 -4.88682 0
M  V30 5914 H 540.398 -0.285452 -0.697878 0
M  V30 5915 H 543.049 -1.28039 -1.31447 0
M  V30 5916 H 541.431 -0.7528 -3.88779 0
M  V30 5917 H 542.605 -3.47786 -3.02293 0
M  V30 5918 H 540.92 -3.03671 -2.84909 0
M  V30 5919 H 543.517 -1.46361 -5.14279 0
M  V30 5920 H 543.86 -0.0593832 -4.16258 0
M  V30 5921 H 544.393 -1.6665 -3.6121 0
M  V30 5922 H 541.132 -4.38726 -4.87032 0
M  V30 5923 H 540.652 -2.73919 -5.33599 0
M  V30 5924 H 542.331 -3.28344 -5.57494 0
M  V30 5925 N 542.463 1.3308 -0.844243 0
M  V30 5926 C 543.426 2.27403 -0.286485 0
M  V30 5927 C 544.426 1.51179 0.547872 0
M  V30 5928 O 545.616 1.70421 0.360886 0
M  V30 5929 C 542.748 3.35653 0.595813 0
M  V30 5930 H 543.941 2.78248 -1.11885 0
M  V30 5931 H 541.494 1.43574 -0.617749 0
M  V30 5932 H 542.229 2.90058 1.4504 0
M  V30 5933 H 542.014 3.921 -0.00125994 0
M  V30 5934 H 543.504 4.05958 0.979168 0
M  V30 5935 N 543.941 0.601185 1.45683 0
M  V30 5936 C 544.871 -0.108824 2.33246 0
M  V30 5937 C 545.852 -0.865223 1.46451 0
M  V30 5938 O 547.037 -0.83704 1.75235 0
M  V30 5939 C 544.167 -1.11101 3.2905 0
M  V30 5940 C 543.121 -0.468244 4.25431 0
M  V30 5941 C 542.447 -1.57822 5.10878 0
M  V30 5942 C 543.747 0.606469 5.18767 0
M  V30 5943 H 545.441 0.622306 2.92861 0
M  V30 5944 H 542.987 0.300714 1.40825 0
M  V30 5945 H 544.94 -1.61622 3.89174 0
M  V30 5946 H 543.664 -1.87265 2.67581 0
M  V30 5947 H 542.323 0.0160484 3.66596 0
M  V30 5948 H 541.971 -2.32998 4.45781 0
M  V30 5949 H 541.671 -1.15369 5.76163 0
M  V30 5950 H 543.195 -2.08583 5.73869 0
M  V30 5951 H 544.609 0.185589 5.73 0
M  V30 5952 H 543.006 0.952381 5.92494 0
M  V30 5953 H 544.076 1.48559 4.61582 0
M  V30 5954 N 545.419 -1.53889 0.339982 0
M  V30 5955 C 546.649 -2.04973 -0.258738 0
M  V30 5956 C 547.057 -1.21485 -1.45045 0
M  V30 5957 O 546.4 -0.2422 -1.82096 0
M  V30 5958 C 546.462 -3.51783 -0.740853 0
M  V30 5959 C 546.126 -4.55802 0.330734 0
M  V30 5960 C 547.123 -5.06512 1.17226 0
M  V30 5961 C 544.808 -4.99966 0.483637 0
M  V30 5962 C 546.802 -5.99963 2.15227 0
M  V30 5963 C 544.489 -5.93229 1.46704 0
M  V30 5964 C 545.487 -6.43115 2.29981 0
M  V30 5965 O 545.175 -7.34545 3.26649 0
M  V30 5966 H 544.907 -0.673807 -0.0544037 0
M  V30 5967 H 547.461 -1.99492 0.489107 0
M  V30 5968 H 545.691 -3.54717 -1.53988 0
M  V30 5969 H 547.38 -3.85857 -1.25973 0
M  V30 5970 H 548.146 -4.73158 1.0652 0
M  V30 5971 H 544.025 -4.6074 -0.15471 0
M  V30 5972 H 547.569 -6.38825 2.80265 0
M  V30 5973 H 543.466 -6.25998 1.57468 0
M  V30 5974 H 544.234 -7.52468 3.22078 0
M  V30 5975 N 546.897 -0.0685191 -1.57451 0
M  V30 5976 C 548.144 0.601348 -1.93365 0
M  V30 5977 C 548.472 1.69816 -0.948294 0
M  V30 5978 O 547.727 1.95666 0.0366199 0
M  V30 5979 C 548.026 1.22051 -3.35914 0
M  V30 5980 C 547.692 0.250165 -4.50205 0
M  V30 5981 C 546.354 -0.0167954 -4.81197 0
M  V30 5982 C 548.706 -0.413867 -5.19554 0
M  V30 5983 C 546.034 -0.95493 -5.78876 0
M  V30 5984 C 548.386 -1.3403 -6.18238 0
M  V30 5985 C 547.05 -1.61576 -6.47649 0
M  V30 5986 H 546.32 0.220049 -0.707573 0
M  V30 5987 H 548.967 -0.138697 -1.90997 0
M  V30 5988 H 547.272 2.03622 -3.34732 0
M  V30 5989 H 548.969 1.74605 -3.6099 0
M  V30 5990 H 545.559 0.468421 -4.26033 0
M  V30 5991 H 549.743 -0.220733 -4.95809 0
M  V30 5992 H 544.999 -1.17563 -5.99991 0
M  V30 5993 H 549.173 -1.86081 -6.71079 0
M  V30 5994 H 546.8 -2.34431 -7.2315 0
M  V30 5995 N 548.375 1.56261 0.205012 0
M  V30 5996 C 549.621 1.80306 0.9283 0
M  V30 5997 C 549.954 0.640932 1.83319 0
M  V30 5998 O 549.229 -0.359032 1.91158 0
M  V30 5999 C 549.512 3.14547 1.75306 0
M  V30 6000 C 549.365 4.41236 0.873562 0
M  V30 6001 C 550.684 3.45382 2.72762 0
M  V30 6002 H 547.803 0.655929 0.336044 0
M  V30 6003 H 550.445 1.88984 0.196211 0
M  V30 6004 H 548.595 3.0728 2.37721 0
M  V30 6005 H 550.267 4.60539 0.264887 0
M  V30 6006 H 548.51 4.33427 0.179773 0
M  V30 6007 H 549.181 5.31639 1.48541 0
M  V30 6008 H 551.657 3.52884 2.20481 0
M  V30 6009 H 550.533 4.40449 3.2756 0
M  V30 6010 H 550.794 2.68377 3.51321 0
M  V30 6011 N 549.853 -0.472356 1.50355 0
M  V30 6012 C 551.078 -1.25251 1.65309 0
M  V30 6013 C 551.503 -1.85081 0.335643 0
M  V30 6014 O 550.861 -1.67227 -0.700335 0
M  V30 6015 C 550.909 -2.3379 2.74544 0
M  V30 6016 O 550.013 -3.38401 2.35709 0
M  V30 6017 H 549.354 -0.368539 0.552336 0
M  V30 6018 H 551.884 -0.562271 1.96722 0
M  V30 6019 H 551.894 -2.79121 2.97583 0
M  V30 6020 H 550.569 -1.89614 3.70161 0
M  V30 6021 H 549.146 -2.9879 2.23112 0
M  V30 6022 N 551.331 -1.39911 -0.725443 0
M  V30 6023 C 552.278 -1.39393 -1.83952 0
M  V30 6024 C 553.248 -0.252249 -1.64173 0
M  V30 6025 O 554.433 -0.44882 -1.85446 0
M  V30 6026 C 551.573 -1.25262 -3.21564 0
M  V30 6027 C 550.686 -2.49054 -3.52982 0
M  V30 6028 C 549.821 -2.27439 -4.80047 0
M  V30 6029 C 548.86 -3.46857 -5.04338 0
M  V30 6030 N 547.997 -3.24499 -6.22611 0
M  V30 6031 H 552.837 -2.34622 -1.83729 0
M  V30 6032 H 550.374 -1.16537 -0.897636 0
M  V30 6033 H 552.332 -1.15077 -4.01015 0
M  V30 6034 H 550.962 -0.33657 -3.21041 0
M  V30 6035 H 550.014 -2.69805 -2.6816 0
M  V30 6036 H 551.326 -3.37973 -3.66846 0
M  V30 6037 H 550.48 -2.14551 -5.67497 0
M  V30 6038 H 549.219 -1.35929 -4.68374 0
M  V30 6039 H 548.224 -3.60232 -4.15346 0
M  V30 6040 H 549.449 -4.3928 -5.17889 0
M  V30 6041 H 547.395 -2.35663 -6.12208 0
M  V30 6042 H 547.312 -4.06978 -6.37106 0
M  V30 6043 H 548.58 -3.15325 -7.12875 0
M  V30 6044 N 552.809 0.956637 -1.25245 0
M  V30 6045 C 553.756 2.053 -1.05454 0
M  V30 6046 C 554.726 1.66062 0.0356889 0
M  V30 6047 O 555.911 1.90415 -0.121099 0
M  V30 6048 C 553.051 3.38391 -0.677191 0
M  V30 6049 C 552.164 3.90758 -1.84206 0
M  V30 6050 C 551.299 5.12165 -1.40926 0
M  V30 6051 C 550.338 5.56757 -2.54338 0
M  V30 6052 N 549.475 6.69376 -2.11848 0
M  V30 6053 H 554.315 2.21562 -1.99284 0
M  V30 6054 H 551.852 1.08578 -0.992434 0
M  V30 6055 H 553.81 4.1488 -0.43938 0
M  V30 6056 H 552.44 3.22021 0.224127 0
M  V30 6057 H 551.492 3.10808 -2.19323 0
M  V30 6058 H 552.804 4.19802 -2.69383 0
M  V30 6059 H 551.958 5.96065 -1.13098 0
M  V30 6060 H 550.697 4.84832 -0.528175 0
M  V30 6061 H 549.702 4.71423 -2.82913 0
M  V30 6062 H 550.927 5.861 -3.43022 0
M  V30 6063 H 548.873 6.43756 -1.26153 0
M  V30 6064 H 548.79 6.97927 -2.90574 0
M  V30 6065 H 550.058 7.5669 -1.87191 0
M  V30 6066 N 554.287 1.06798 1.15896 0
M  V30 6067 C 555.534 0.787767 1.86549 0
M  V30 6068 C 555.862 -0.685959 1.82002 0
M  V30 6069 O 555.117 -1.5188 1.23414 0
M  V30 6070 C 555.416 1.23414 3.35416 0
M  V30 6071 C 555.082 2.71285 3.6016 0
M  V30 6072 C 553.744 3.11676 3.66622 0
M  V30 6073 C 556.096 3.6676 3.7032 0
M  V30 6074 C 553.424 4.4637 3.8075 0
M  V30 6075 C 555.776 5.01209 3.8597 0
M  V30 6076 C 554.44 5.41229 3.90676 0
M  V30 6077 H 553.71 0.288264 0.682631 0
M  V30 6078 H 556.357 1.338 1.37003 0
M  V30 6079 H 554.662 0.60319 3.87129 0
M  V30 6080 H 556.359 0.994298 3.88477 0
M  V30 6081 H 552.949 2.39015 3.55767 0
M  V30 6082 H 557.133 3.36685 3.64633 0
M  V30 6083 H 552.389 4.76855 3.82648 0
M  V30 6084 H 556.563 5.75067 3.92773 0
M  V30 6085 H 554.19 6.45602 4.01375 0
M  V30 6086 N 555.766 -1.3263 0.851289 0
M  V30 6087 C 556.713 -2.28952 0.291469 0
M  V30 6088 C 557.683 -1.54897 -0.599676 0
M  V30 6089 O 558.868 -1.83137 -0.535305 0
M  V30 6090 C 556.008 -3.41206 -0.516992 0
M  V30 6091 C 555.121 -4.30148 0.399566 0
M  V30 6092 C 554.256 -5.29527 -0.4212 0
M  V30 6093 C 553.295 -6.10112 0.492969 0
M  V30 6094 N 552.432 -7.01499 -0.290414 0
M  V30 6095 H 557.272 -2.76228 1.11813 0
M  V30 6096 H 554.809 -1.35907 0.562826 0
M  V30 6097 H 556.767 -4.05005 -1.00132 0
M  V30 6098 H 555.397 -2.9509 -1.30851 0
M  V30 6099 H 554.449 -3.66959 1.00227 0
M  V30 6100 H 555.761 -4.8649 1.1013 0
M  V30 6101 H 554.915 -5.98914 -0.968832 0
M  V30 6102 H 553.654 -4.73794 -1.15632 0
M  V30 6103 H 552.659 -5.39632 1.05251 0
M  V30 6104 H 553.884 -6.6793 1.22664 0
M  V30 6105 H 551.83 -6.48199 -1.00868 0
M  V30 6106 H 551.747 -7.55178 0.352354 0
M  V30 6107 H 553.015 -7.75176 -0.819882 0
M  V30 6108 N 557.244 -0.608902 -1.45362 0
M  V30 6109 C 558.192 0.121639 -2.32282 0
M  V30 6110 C 559.186 0.858301 -1.46046 0
M  V30 6111 O 560.392 0.773718 -1.62523 0
M  V30 6112 H 556.767 0.058086 -0.749753 0
M  V30 6113 H 558.738 -0.629866 -2.91677 0
M  V30 6114 C 557.487 1.1047 -3.29684 0
M  V30 6115 H 556.81 0.547278 -3.96036 0
M  V30 6116 H 558.25 1.58576 -3.9323 0
M  V30 6117 C 556.709 2.17891 -2.56954 0
M  V30 6118 O 557.239 3.25652 -2.35189 0
M  V30 6119 N 555.445 1.93211 -2.17066 0
M  V30 6120 H 554.992 1.05584 -2.34967 0
M  V30 6121 H 554.95 2.6529 -1.68727 0
M  V30 6122 N 558.722 1.53707 -0.348139 0
M  V30 6123 C 559.962 2.02899 0.247254 0
M  V30 6124 C 560.326 1.23033 1.47401 0
M  V30 6125 O 561.527 1.62146 2.14388 0
M  V30 6126 C 559.798 3.53156 0.549151 0
M  V30 6127 S 561.357 4.24247 1.1207 0
M  V30 6128 H 558.175 0.707213 0.0732894 0
M  V30 6129 H 560.777 1.89338 -0.486965 0
M  V30 6130 H 559.481 4.08893 -0.351435 0
M  V30 6131 H 559.012 3.70845 1.31291 0
M  V30 6132 H 561.027 4.33958 2.40613 0
M  V30 6133 N 560.2 0.0768682 1.57412 0
M  V30 6134 C 561.447 -0.591085 1.93681 0
M  V30 6135 C 561.775 -1.69311 0.957286 0
M  V30 6136 O 561.03 -1.95682 -0.0262428 0
M  V30 6137 C 561.329 -1.20268 3.36557 0
M  V30 6138 C 560.995 -0.226286 4.50332 0
M  V30 6139 C 559.657 0.0423142 4.81181 0
M  V30 6140 C 562.009 0.441415 5.19327 0
M  V30 6141 C 559.337 0.985616 5.78362 0
M  V30 6142 C 561.689 1.37307 6.17519 0
M  V30 6143 C 560.353 1.65009 6.46783 0
M  V30 6144 H 559.623 -0.216293 0.70873 0
M  V30 6145 H 562.27 0.148824 1.90921 0
M  V30 6146 H 560.575 -2.01844 3.35807 0
M  V30 6147 H 562.272 -1.72688 3.61911 0
M  V30 6148 H 558.862 -0.445821 4.26275 0
M  V30 6149 H 563.046 0.247023 4.95685 0
M  V30 6150 H 558.302 1.20743 5.99359 0
M  V30 6151 H 562.476 1.89637 6.70083 0
M  V30 6152 H 560.103 2.38263 7.21897 0
M  V30 6153 N 561.678 -1.56367 -0.196722 0
M  V30 6154 C 562.61 -1.90941 -1.26784 0
M  V30 6155 C 563.623 -0.799928 -1.41792 0
M  V30 6156 O 564.812 -1.07833 -1.42247 0
M  V30 6157 C 561.912 -2.12477 -2.6402 0
M  V30 6158 C 561.085 -3.43616 -2.70641 0
M  V30 6159 C 560.144 -3.54284 -3.89062 0
M  V30 6160 O 559.17 -4.2712 -3.76241 0
M  V30 6161 N 560.372 -2.87252 -5.04447 0
M  V30 6162 H 563.137 -2.83417 -0.974417 0
M  V30 6163 H 560.698 -1.57215 -0.386649 0
M  V30 6164 H 562.69 -2.16904 -3.41665 0
M  V30 6165 H 561.26 -1.26508 -2.85857 0
M  V30 6166 H 560.48 -3.51072 -1.79283 0
M  V30 6167 H 561.768 -4.29958 -2.72054 0
M  V30 6168 H 561.166 -2.27901 -5.17762 0
M  V30 6169 H 559.723 -2.97308 -5.80044 0
M  V30 6170 N 563.156 0.464375 -1.50603 0
M  V30 6171 C 564.381 1.24372 -1.65971 0
M  V30 6172 C 564.806 1.84901 -0.345453 0
M  V30 6173 O 564.164 1.67596 0.691457 0
M  V30 6174 C 564.212 2.32331 -2.7578 0
M  V30 6175 O 563.316 3.37146 -2.375 0
M  V30 6176 H 562.657 0.365604 -0.554283 0
M  V30 6177 H 565.187 0.55183 -1.97018 0
M  V30 6178 H 565.197 2.77539 -2.99059 0
M  V30 6179 H 563.872 1.87648 -3.71162 0
M  V30 6180 H 562.449 2.97602 -2.24694 0
M  V30 6181 N 564.634 1.40294 0.718013 0
M  V30 6182 C 565.874 1.39888 1.49032 0
M  V30 6183 C 566.238 -0.000462935 1.92 0
M  V30 6184 O 567.439 -0.129622 2.68487 0
M  V30 6185 C 565.71 2.35868 2.68516 0
M  V30 6186 S 567.269 2.53799 3.57954 0
M  V30 6187 H 564.087 0.495849 0.509563 0
M  V30 6188 H 566.689 1.76541 0.839846 0
M  V30 6189 H 565.393 3.36375 2.35117 0
M  V30 6190 H 564.924 2.0049 3.38478 0
M  V30 6191 H 566.939 1.78859 4.62843 0
M  V30 6192 N 566.112 -0.949982 1.2575 0
M  V30 6193 C 567.042 -2.06483 1.09028 0
M  V30 6194 C 568.023 -1.701 -0.00201532 0
M  V30 6195 O 569.208 -1.93469 0.168383 0
M  V30 6196 C 566.338 -3.39899 0.71316 0
M  V30 6197 C 565.292 -3.90309 1.75621 0
M  V30 6198 C 564.618 -5.20274 1.23365 0
M  V30 6199 C 565.918 -4.16169 3.15596 0
M  V30 6200 H 567.612 -2.20731 2.02283 0
M  V30 6201 H 565.158 -1.06066 0.973964 0
M  V30 6202 H 567.111 -4.17346 0.58309 0
M  V30 6203 H 565.835 -3.25602 -0.255091 0
M  V30 6204 H 564.494 -3.15035 1.8748 0
M  V30 6205 H 564.142 -5.02351 0.255491 0
M  V30 6206 H 563.842 -5.54971 1.93082 0
M  V30 6207 H 565.366 -6.00314 1.11607 0
M  V30 6208 H 566.78 -4.84259 3.06864 0
M  V30 6209 H 565.177 -4.62131 3.82825 0
M  V30 6210 H 566.247 -3.22273 3.6231 0
M  V30 6211 N 567.59 -1.07411 -1.15328 0
M  V30 6212 C 568.83 -0.807011 -1.87794 0
M  V30 6213 C 569.194 0.654987 -1.80482 0
M  V30 6214 O 570.395 1.03716 -2.47985 0
M  V30 6215 C 568.666 -1.30198 -3.32841 0
M  V30 6216 S 570.225 -1.16564 -4.23034 0
M  V30 6217 H 567.043 -0.292429 -0.648079 0
M  V30 6218 H 569.645 -1.37334 -1.39139 0
M  V30 6219 H 568.349 -2.3607 -3.35707 0
M  V30 6220 H 567.88 -0.730881 -3.86551 0
M  V30 6221 H 569.895 -0.103557 -4.96092 0
M  V30 6222 N 569.068 1.32177 -0.85831 0
M  V30 6223 C 570.308 1.98927 -0.469822 0
M  V30 6224 C 570.672 1.66423 0.95746 0
M  V30 6225 O 571.873 2.26293 1.45069 0
M  V30 6226 C 570.144 3.50352 -0.706288 0
M  V30 6227 S 571.703 4.36824 -0.415918 0
M  V30 6228 H 568.521 0.688909 -0.175855 0
M  V30 6229 H 571.123 1.60807 -1.11181 0
M  V30 6230 H 569.827 3.71497 -1.74407 0
M  V30 6231 H 569.358 3.93367 -0.0508568 0
M  V30 6232 H 571.373 4.90398 0.756581 0
M  V30 6233 N 570.547 0.616602 1.45037 0
M  V30 6234 C 571.787 0.118453 2.04056 0
M  V30 6235 C 572.151 -1.23104 1.47341 0
M  V30 6236 O 573.352 -1.82044 1.97771 0
M  V30 6237 C 571.623 0.0892842 3.57288 0
M  V30 6238 S 573.182 -0.346361 4.37431 0
M  V30 6239 H 570 0.0539728 0.708948 0
M  V30 6240 H 572.602 0.816731 1.77623 0
M  V30 6241 H 571.306 1.07481 3.96076 0
M  V30 6242 H 570.837 -0.630703 3.88311 0
M  V30 6243 H 572.852 -1.59389 4.69904 0
M  V30 6244 N 572.025 -1.5352 0.356285 0
M  V30 6245 C 573.265 -2.03027 -0.23649 0
M  V30 6246 C 573.629 -1.23813 -1.46746 0
M  V30 6247 O 574.83 -1.63281 -2.13525 0
M  V30 6248 C 573.101 -3.53442 -0.530415 0
M  V30 6249 S 574.66 -4.24836 -1.09819 0
M  V30 6250 H 571.478 -0.707591 -0.0695378 0
M  V30 6251 H 574.08 -1.89077 0.496999 0
M  V30 6252 H 572.784 -4.087 0.373114 0
M  V30 6253 H 572.315 -3.71536 -1.29323 0
M  V30 6254 H 574.33 -4.35228 -2.38309 0
M  V30 6255 N 573.503 -0.0852151 -1.57369 0
M  V30 6256 C 574.733 0.588605 -1.98038 0
M  V30 6257 C 575.141 1.62869 -0.962817 0
M  V30 6258 O 574.484 1.83611 0.057134 0
M  V30 6259 C 574.546 1.30303 -3.35054 0
M  V30 6260 C 574.21 0.414855 -4.55113 0
M  V30 6261 C 575.207 -0.333011 -5.18832 0
M  V30 6262 C 572.892 0.335804 -5.01176 0
M  V30 6263 C 574.886 -1.14801 -6.26976 0
M  V30 6264 C 572.573 -0.482857 -6.09189 0
M  V30 6265 C 573.571 -1.22342 -6.71953 0
M  V30 6266 O 573.259 -2.02855 -7.77885 0
M  V30 6267 H 572.991 0.163249 -0.655992 0
M  V30 6268 H 575.545 -0.1582 -2.0479 0
M  V30 6269 H 573.775 2.0962 -3.24956 0
M  V30 6270 H 575.464 1.87041 -3.60237 0
M  V30 6271 H 576.23 -0.281611 -4.84182 0
M  V30 6272 H 572.109 0.901869 -4.52092 0
M  V30 6273 H 575.653 -1.72654 -6.75897 0
M  V30 6274 H 571.55 -0.535773 -6.43273 0
M  V30 6275 H 572.318 -1.95432 -7.94826 0
M  V30 6276 N 574.981 1.5647 0.188427 0
M  V30 6277 C 575.913 1.91611 1.25769 0
M  V30 6278 C 576.926 0.807436 1.41366 0
M  V30 6279 O 578.115 1.08586 1.41673 0
M  V30 6280 C 575.215 2.13874 2.6289 0
M  V30 6281 C 574.388 3.45047 2.68815 0
M  V30 6282 C 573.447 3.56342 3.87178 0
M  V30 6283 O 572.473 4.29109 3.73971 0
M  V30 6284 N 573.675 2.89924 5.02916 0
M  V30 6285 H 576.44 2.8393 0.959373 0
M  V30 6286 H 574.001 1.57418 0.378306 0
M  V30 6287 H 575.993 2.18713 3.4051 0
M  V30 6288 H 574.563 1.28022 2.85183 0
M  V30 6289 H 573.783 3.52017 1.77419 0
M  V30 6290 H 575.071 4.31395 2.6977 0
M  V30 6291 H 574.469 2.30644 5.16546 0
M  V30 6292 H 573.026 3.0038 5.78459 0
M  V30 6293 N 576.459 -0.456382 1.50847 0
M  V30 6294 C 577.684 -1.2349 1.66628 0
M  V30 6295 C 578.109 -1.84715 0.355254 0
M  V30 6296 O 577.467 -1.67961 -0.682559 0
M  V30 6297 C 577.515 -2.30865 2.77009 0
M  V30 6298 O 576.619 -3.35882 2.39285 0
M  V30 6299 H 575.96 -0.36266 0.556214 0
M  V30 6300 H 578.49 -0.541374 1.97308 0
M  V30 6301 H 578.5 -2.75949 3.00526 0
M  V30 6302 H 577.175 -1.85677 3.72152 0
M  V30 6303 H 575.752 -2.96406 2.26269 0
M  V30 6304 N 577.937 -1.40673 -0.710563 0
M  V30 6305 C 578.884 -1.41336 -1.82463 0
M  V30 6306 C 579.854 -0.269648 -1.63897 0
M  V30 6307 O 581.039 -0.468463 -1.8496 0
M  V30 6308 C 578.179 -1.28665 -3.20218 0
M  V30 6309 C 577.292 -2.52784 -3.5032 0
M  V30 6310 C 576.427 -2.32517 -4.77608 0
M  V30 6311 C 575.466 -3.52187 -5.0063 0
M  V30 6312 N 574.603 -3.31084 -6.19135 0
M  V30 6313 H 579.443 -2.36558 -1.8123 0
M  V30 6314 H 576.98 -1.17483 -0.885226 0
M  V30 6315 H 578.938 -1.19324 -3.99772 0
M  V30 6316 H 577.568 -0.370602 -3.20666 0
M  V30 6317 H 576.62 -2.72634 -2.65283 0
M  V30 6318 H 577.932 -3.41845 -3.63241 0
M  V30 6319 H 577.086 -2.20558 -5.65189 0
M  V30 6320 H 575.825 -1.40889 -4.66906 0
M  V30 6321 H 574.83 -3.64617 -4.11502 0
M  V30 6322 H 576.055 -4.44749 -5.13201 0
M  V30 6323 H 574.001 -2.42143 -6.09674 0
M  V30 6324 H 573.918 -4.13713 -6.32754 0
M  V30 6325 H 575.186 -3.22868 -7.0949 0
M  V30 6326 N 579.415 0.9433 -1.26252 0
M  V30 6327 C 580.64 1.72898 -1.14547 0
M  V30 6328 C 581.065 1.85761 0.295743 0
M  V30 6329 O 580.423 1.3463 1.21427 0
M  V30 6330 C 580.471 3.11471 -1.8171 0
M  V30 6331 O 579.575 3.97336 -1.10445 0
M  V30 6332 H 578.916 0.530555 -0.399259 0
M  V30 6333 H 581.446 1.18159 -1.67032 0
M  V30 6334 H 581.456 3.61872 -1.88449 0
M  V30 6335 H 580.131 3.01425 -2.86558 0
M  V30 6336 H 578.708 3.55788 -1.11666 0
M  V30 6337 N 580.893 1.08022 1.14757 0
M  V30 6338 C 581.823 0.728248 2.21853 0
M  V30 6339 C 582.804 -0.287486 1.67653 0
M  V30 6340 O 583.989 -0.158727 1.9355 0
M  V30 6341 C 581.119 0.132549 3.47047 0
M  V30 6342 C 580.073 1.07619 4.14249 0
M  V30 6343 C 579.399 0.342907 5.33599 0
M  V30 6344 C 580.699 2.41268 4.63235 0
M  V30 6345 H 582.393 1.62365 2.51551 0
M  V30 6346 H 579.939 0.782125 1.20908 0
M  V30 6347 H 581.892 -0.125665 4.21213 0
M  V30 6348 H 580.616 -0.797971 3.16702 0
M  V30 6349 H 579.275 1.31944 3.42033 0
M  V30 6350 H 578.923 -0.59129 4.99513 0
M  V30 6351 H 578.623 0.971955 5.79506 0
M  V30 6352 H 580.147 0.0926538 6.1053 0
M  V30 6353 H 581.561 2.21232 5.28894 0
M  V30 6354 H 579.958 2.9983 5.19829 0
M  V30 6355 H 581.028 3.03079 3.78512 0
M  V30 6356 N 582.371 -1.3172 0.865308 0
M  V30 6357 C 583.304 -2.26687 0.262376 0
M  V30 6358 C 584.282 -1.50894 -0.605787 0
M  V30 6359 O 585.466 -1.79982 -0.56024 0
M  V30 6360 C 582.593 -3.3281 -0.628915 0
M  V30 6361 C 581.639 -4.26172 0.167278 0
M  V30 6362 S 582.472 -5.12797 1.54272 0
M  V30 6363 C 583.628 -6.22438 0.657427 0
M  V30 6364 H 583.861 -2.77478 1.0674 0
M  V30 6365 H 581.394 -1.39414 0.663555 0
M  V30 6366 H 583.352 -3.94426 -1.13747 0
M  V30 6367 H 582.013 -2.80782 -1.40785 0
M  V30 6368 H 581.206 -5.01392 -0.51203 0
M  V30 6369 H 580.808 -3.69029 0.607777 0
M  V30 6370 H 583.1 -6.77368 -0.133925 0
M  V30 6371 H 584.043 -6.9451 1.38061 0
M  V30 6372 H 584.451 -5.64043 0.227044 0
M  V30 6373 N 583.85 -0.624285 -1.44708 0
M  V30 6374 C 585.077 -0.132919 -2.06473 0
M  V30 6375 C 585.493 1.18967 -1.46602 0
M  V30 6376 O 584.85 1.72824 -0.586341 0
M  V30 6377 C 584.901 -0.00465418 -3.615 0
M  V30 6378 O 584.622 -1.27494 -4.19138 0
M  V30 6379 C 586.123 0.516213 -4.40284 0
M  V30 6380 H 583.343 -0.0765201 -0.666623 0
M  V30 6381 H 585.887 -0.856751 -1.85688 0
M  V30 6382 H 584.042 0.669583 -3.8157 0
M  V30 6383 H 584.456 -1.11536 -5.12504 0
M  V30 6384 H 585.93 0.554994 -5.49203 0
M  V30 6385 H 586.407 1.5419 -4.11245 0
M  V30 6386 H 587.013 -0.124542 -4.25118 0
M  V30 6387 N 585.328 1.53329 -0.364422 0
M  V30 6388 C 586.553 2.06132 0.229033 0
M  V30 6389 C 586.978 1.23625 1.41769 0
M  V30 6390 O 586.336 0.255038 1.79497 0
M  V30 6391 C 586.384 3.55544 0.60174 0
M  V30 6392 O 585.488 3.75771 1.69912 0
M  V30 6393 H 584.829 0.663148 0.0336213 0
M  V30 6394 H 587.359 1.97758 -0.524689 0
M  V30 6395 H 587.369 3.98549 0.873073 0
M  V30 6396 H 586.044 4.15039 -0.267421 0
M  V30 6397 H 584.621 3.44663 1.42343 0
M  V30 6398 N 586.806 0.0935595 1.57322 0
M  V30 6399 C 588.052 -0.571355 1.94585 0
M  V30 6400 C 588.385 -1.67929 0.975366 0
M  V30 6401 O 587.66 -1.94498 0.00816206 0
M  V30 6402 C 587.943 -1.12797 3.41978 0
M  V30 6403 C 587.796 -0.0251881 4.49793 0
M  V30 6404 C 589.115 -2.02682 3.90651 0
M  V30 6405 H 586.234 -0.206223 0.70756 0
M  V30 6406 H 588.876 0.163956 1.89291 0
M  V30 6407 H 587.026 -1.75461 3.4662 0
M  V30 6408 H 588.698 0.608979 4.57263 0
M  V30 6409 H 586.941 0.641399 4.29032 0
M  V30 6410 H 587.612 -0.455433 5.50118 0
M  V30 6411 H 590.088 -1.49925 3.88152 0
M  V30 6412 H 588.964 -2.38555 4.94351 0
M  V30 6413 H 589.225 -2.94362 3.29854 0
M  V30 6414 N 588.284 -1.56567 -0.180126 0
M  V30 6415 C 589.695 -1.7126 -0.743422 0
M  V30 6416 C 590.046 -0.70263 -1.83187 0
M  V30 6417 O 589.171 0.137856 -2.1596 0
M  V30 6418 C 589.766 -3.10512 -1.35528 0
M  V30 6419 C 588.325 -3.26919 -1.8655 0
M  V30 6420 C 587.472 -2.67213 -0.741099 0
M  V30 6421 H 590.423 -1.58636 0.0451543 0
M  V30 6422 H 590.444 -3.08673 -2.22489 0
M  V30 6423 H 589.956 -3.83997 -0.562862 0
M  V30 6424 H 588.057 -2.58376 -2.68464 0
M  V30 6425 H 588.17 -4.34574 -2.01699 0
M  V30 6426 H 586.534 -2.26788 -1.15927 0
M  V30 6427 H 587.317 -3.43277 0.0393291 0
M  V30 6428 N 589.762 0.448376 -1.51087 0
M  V30 6429 C 590.695 1.56298 -1.66272 0
M  V30 6430 C 591.673 1.54381 -0.510419 0
M  V30 6431 O 592.857 1.73671 -0.732854 0
M  V30 6432 C 589.984 2.94883 -1.66618 0
M  V30 6433 C 589.03 3.14868 -2.87681 0
M  V30 6434 S 589.863 2.9234 -4.48662 0
M  V30 6435 C 591.019 4.33227 -4.51735 0
M  V30 6436 H 591.252 1.43182 -2.6055 0
M  V30 6437 H 588.785 0.637309 -1.40633 0
M  V30 6438 H 590.743 3.74771 -1.67502 0
M  V30 6439 H 589.404 3.05371 -0.735358 0
M  V30 6440 H 588.597 4.16166 -2.84292 0
M  V30 6441 H 588.199 2.42788 -2.84482 0
M  V30 6442 H 590.491 5.26247 -4.26697 0
M  V30 6443 H 591.434 4.41653 -5.53487 0
M  V30 6444 H 591.842 4.16367 -3.81181 0
M  V30 6445 N 591.24 1.41047 0.703093 0
M  V30 6446 C 592.188 1.42494 1.83843 0
M  V30 6447 C 593.182 0.303885 1.66652 0
M  V30 6448 O 594.388 0.475544 1.73605 0
M  V30 6449 H 590.763 0.445685 0.605697 0
M  V30 6450 H 592.734 2.38194 1.79739 0
M  V30 6451 C 591.483 1.31666 3.21807 0
M  V30 6452 H 590.806 2.17212 3.35647 0
M  V30 6453 H 592.246 1.36738 4.01346 0
M  V30 6454 C 590.705 0.0281828 3.36888 0
M  V30 6455 O 591.235 -0.929995 3.90786 0
M  V30 6456 N 589.441 -0.0454322 2.90564 0
M  V30 6457 H 588.988 0.735046 2.4689 0
M  V30 6458 H 588.946 -0.906968 3.01034 0
M  V30 6459 N 592.718 -0.936591 1.26751 0
M  V30 6460 C 593.966 -1.67998 1.12343 0
M  V30 6461 C 594.287 -1.92137 -0.332938 0
M  V30 6462 O 593.557 -1.52132 -1.23421 0
M  V30 6463 H 592.137 -0.622609 0.412756 0
M  V30 6464 H 594.799 -1.12509 1.59147 0
M  V30 6465 H 593.895 -2.65185 1.64571 0
M  V30 6466 N 594.196 -1.08629 -1.14182 0
M  V30 6467 C 595.424 -0.838889 -1.8913 0
M  V30 6468 C 595.839 0.609153 -1.78703 0
M  V30 6469 O 595.196 1.41876 -1.14794 0
M  V30 6470 C 595.247 -1.25477 -3.39025 0
M  V30 6471 O 594.968 -2.64601 -3.49167 0
M  V30 6472 C 596.469 -1.03856 -4.30963 0
M  V30 6473 H 593.689 -0.302377 -0.599007 0
M  V30 6474 H 596.233 -1.44615 -1.44592 0
M  V30 6475 H 594.388 -0.691571 -3.81177 0
M  V30 6476 H 594.802 -2.81922 -4.42289 0
M  V30 6477 H 596.276 -1.37892 -5.345 0
M  V30 6478 H 596.753 0.0242522 -4.39193 0
M  V30 6479 H 597.359 -1.58731 -3.94569 0
M  V30 6480 N 595.674 1.31259 -0.872281 0
M  V30 6481 C 596.899 2.0133 -0.498099 0
M  V30 6482 C 597.324 1.65031 0.902568 0
M  V30 6483 O 596.682 0.860164 1.59596 0
M  V30 6484 C 596.73 3.54411 -0.665205 0
M  V30 6485 O 595.834 4.11347 0.294473 0
M  V30 6486 H 595.175 0.633844 -0.197832 0
M  V30 6487 H 597.705 1.67402 -1.17633 0
M  V30 6488 H 597.715 4.04147 -0.559373 0
M  V30 6489 H 596.39 3.80171 -1.68651 0
M  V30 6490 H 594.967 3.72624 0.143403 0
M  V30 6491 N 597.152 0.631951 1.44375 0
M  V30 6492 C 598.401 0.134214 2.01253 0
M  V30 6493 C 598.714 -1.25171 1.50305 0
M  V30 6494 O 599.92 -1.8435 1.99317 0
M  V30 6495 C 598.376 0.189187 3.59402 0
M  V30 6496 C 597.984 1.57647 4.19346 0
M  V30 6497 C 599.728 -0.252044 4.23751 0
M  V30 6498 C 597.635 1.58651 5.69722 0
M  V30 6499 H 596.565 0.0464101 0.75257 0
M  V30 6500 H 599.216 0.790868 1.65582 0
M  V30 6501 H 597.598 -0.534584 3.92375 0
M  V30 6502 H 598.772 2.32389 3.97909 0
M  V30 6503 H 597.087 1.96186 3.67288 0
M  V30 6504 H 599.684 -0.264084 5.34047 0
M  V30 6505 H 600.027 -1.27951 3.96149 0
M  V30 6506 H 600.56 0.41926 3.95584 0
M  V30 6507 H 597.299 2.59237 6.0206 0
M  V30 6508 H 596.819 0.882039 5.93279 0
M  V30 6509 H 598.498 1.32082 6.33375 0
M  V30 6510 N 598.631 -1.53133 0.372548 0
M  V30 6511 C 599.563 -2.23557 -0.505444 0
M  V30 6512 C 600.576 -1.25211 -1.04049 0
M  V30 6513 O 601.765 -1.51391 -0.945675 0
M  V30 6514 C 598.865 -2.92516 -1.71136 0
M  V30 6515 C 598.038 -4.17428 -1.30661 0
M  V30 6516 C 597.097 -4.69535 -2.37536 0
M  V30 6517 O 596.123 -5.33042 -1.99637 0
M  V30 6518 N 597.325 -4.47947 -3.6922 0
M  V30 6519 H 600.09 -2.9954 0.0978259 0
M  V30 6520 H 597.651 -1.60684 0.198068 0
M  V30 6521 H 599.643 -3.24281 -2.42124 0
M  V30 6522 H 598.213 -2.19944 -2.22134 0
M  V30 6523 H 597.433 -3.91888 -0.426292 0
M  V30 6524 H 598.721 -4.98622 -1.01259 0
M  V30 6525 H 598.119 -3.97219 -4.02783 0
M  V30 6526 H 596.676 -4.84245 -4.36292 0
M  V30 6527 N 600.109 -0.101901 -1.5727 0
M  V30 6528 C 601.355 0.554864 -1.95686 0
M  V30 6529 C 601.71 1.65368 -0.983415 0
M  V30 6530 O 601.003 1.91597 -0.0105374 0
M  V30 6531 C 601.197 1.14898 -3.38427 0
M  V30 6532 C 601.026 0.109251 -4.49567 0
M  V30 6533 C 599.796 -0.316633 -5.04307 0
M  V30 6534 C 601.994 -0.665196 -5.0998 0
M  V30 6535 N 599.976 -1.34393 -5.99009 0
M  V30 6536 C 601.347 -1.54413 -6.00464 0
M  V30 6537 C 603.402 -0.717966 -4.92696 0
M  V30 6538 C 602.105 -2.47122 -6.75517 0
M  V30 6539 C 604.131 -1.63268 -5.68417 0
M  V30 6540 C 603.493 -2.49923 -6.58572 0
M  V30 6541 H 599.592 0.17317 -0.762585 0
M  V30 6542 H 602.176 -0.18605 -1.93809 0
M  V30 6543 H 600.347 1.85969 -3.40984 0
M  V30 6544 H 602.079 1.76867 -3.64006 0
M  V30 6545 H 598.834 0.0724419 -4.73545 0
M  V30 6546 H 599.258 -1.85598 -6.51062 0
M  V30 6547 H 603.9 -0.0621637 -4.22754 0
M  V30 6548 H 601.618 -3.13724 -7.44717 0
M  V30 6549 H 605.204 -1.67874 -5.57054 0
M  V30 6550 H 604.084 -3.19553 -7.16139 0
M  V30 6551 N 601.587 1.56661 0.17182 0
M  V30 6552 C 602.534 1.96371 1.21273 0
M  V30 6553 C 603.504 0.82756 1.44016 0
M  V30 6554 O 604.689 1.08764 1.56764 0
M  V30 6555 C 601.829 2.32838 2.54716 0
M  V30 6556 C 600.942 3.59628 2.39356 0
M  V30 6557 C 600.077 3.85311 3.65662 0
M  V30 6558 C 599.116 5.0545 3.45234 0
M  V30 6559 N 598.253 5.27268 4.63608 0
M  V30 6560 H 603.093 2.85106 0.86709 0
M  V30 6561 H 600.63 1.41073 0.416744 0
M  V30 6562 H 602.588 2.52004 3.3249 0
M  V30 6563 H 601.218 1.47214 2.87277 0
M  V30 6564 H 600.27 3.4838 1.52761 0
M  V30 6565 H 601.582 4.4756 2.20207 0
M  V30 6566 H 600.736 4.04841 4.51872 0
M  V30 6567 H 599.475 2.95753 3.8779 0
M  V30 6568 H 598.48 4.85819 2.5741 0
M  V30 6569 H 599.705 5.96538 3.24529 0
M  V30 6570 H 597.651 4.40662 4.85956 0
M  V30 6571 H 597.568 6.09422 4.4737 0
M  V30 6572 H 598.836 5.51277 5.51103 0
M  V30 6573 N 603.065 -0.440357 1.51323 0
M  V30 6574 C 604.013 -1.55492 1.72988 0
M  V30 6575 C 605.007 -1.58564 0.596138 0
M  V30 6576 O 606.213 -1.62345 0.777443 0
M  V30 6577 H 602.588 -0.516532 0.546533 0
M  V30 6578 H 604.559 -1.34392 2.66423 0
M  V30 6579 C 603.308 -2.93176 1.86931 0
M  V30 6580 H 602.631 -2.91543 2.73574 0
M  V30 6581 H 604.071 -3.70537 2.06103 0
M  V30 6582 C 602.53 -3.30988 0.628365 0
M  V30 6583 O 603.06 -4.01106 -0.218367 0
M  V30 6584 N 601.266 -2.86719 0.473339 0
M  V30 6585 H 600.813 -2.2983 1.16345 0
M  V30 6586 H 600.771 -3.12381 -0.355727 0
M  V30 6587 N 604.543 -1.41418 -0.695603 0
M  V30 6588 C 605.493 -1.39731 -1.80165 0
M  V30 6589 C 606.477 -0.271689 -1.5859 0
M  V30 6590 O 607.669 -0.512354 -1.69422 0
M  V30 6591 C 604.798 -1.28187 -3.1847 0
M  V30 6592 C 603.884 -2.45612 -3.45739 0
M  V30 6593 N 604.275 -3.71077 -3.43708 0
M  V30 6594 C 602.573 -2.39424 -3.76288 0
M  V30 6595 C 603.274 -4.48957 -3.69882 0
M  V30 6596 N 602.25 -3.7907 -3.89624 0
M  V30 6597 H 606.052 -2.34656 -1.76957 0
M  V30 6598 H 603.566 -1.35473 -0.89559 0
M  V30 6599 H 605.563 -1.2506 -3.977 0
M  V30 6600 H 604.223 -0.342468 -3.22889 0
M  V30 6601 H 605.234 -4.03963 -3.2409 0
M  V30 6602 H 601.911 -1.53955 -3.88077 0
M  V30 6603 H 603.301 -5.57887 -3.74448 0
M  V30 6604 N 606.021 0.929856 -1.27246 0
M  V30 6605 C 607.298 1.65544 -1.04186 0
M  V30 6606 C 607.678 2.06796 0.424097 0
M  V30 6607 O 607.026 1.80053 1.40688 0
M  V30 6608 C 607.236 2.85912 -2.00138 0
M  V30 6609 C 608.584 3.57305 -2.29387 0
M  V30 6610 O 609.608 2.96036 -1.98094 0
M  V30 6611 O 608.467 4.67688 -2.82719 0
M  V30 6612 H 605.561 0.725473 -0.397011 0
M  V30 6613 H 608.107 0.980583 -1.38501 0
M  V30 6614 H 606.879 2.52403 -2.99013 0
M  V30 6615 H 606.502 3.61118 -1.66371 0
M  V30 6616 N 607.499 1.09233 1.13605 0
M  V30 6617 C 608.431 0.687794 2.18637 0
M  V30 6618 C 609.444 -0.26936 1.60556 0
M  V30 6619 O 610.633 -0.0557162 1.78413 0
M  V30 6620 C 607.733 -0.00751901 3.38899 0
M  V30 6621 C 606.906 0.97067 4.26494 0
M  V30 6622 C 605.965 0.309129 5.25291 0
M  V30 6623 O 604.991 0.956149 5.61112 0
M  V30 6624 N 606.193 -0.937555 5.72879 0
M  V30 6625 H 608.958 1.59141 2.53957 0
M  V30 6626 H 606.519 0.979515 1.28907 0
M  V30 6627 H 608.511 -0.461238 4.02063 0
M  V30 6628 H 607.081 -0.813353 3.01833 0
M  V30 6629 H 606.301 1.603 3.60135 0
M  V30 6630 H 607.589 1.63323 4.81875 0
M  V30 6631 H 606.987 -1.48281 5.4592 0
M  V30 6632 H 605.544 -1.33463 6.3799 0
M  V30 6633 N 608.977 -1.30795 0.87923 0
M  V30 6634 C 609.925 -2.30231 0.331112 0
M  V30 6635 C 610.919 -1.59918 -0.558794 0
M  V30 6636 O 612.125 -1.74441 -0.443866 0
M  V30 6637 H 608.5 -0.746785 0.088409 0
M  V30 6638 H 610.471 -2.73925 1.18353 0
M  V30 6639 C 609.22 -3.44848 -0.444401 0
M  V30 6640 H 608.543 -3.99131 0.231106 0
M  V30 6641 H 609.983 -4.16516 -0.793109 0
M  V30 6642 C 608.442 -2.94329 -1.63926 0
M  V30 6643 O 608.972 -2.93875 -2.73862 0
M  V30 6644 N 607.178 -2.50413 -1.4745 0
M  V30 6645 H 606.725 -2.50982 -0.58015 0
M  V30 6646 H 606.683 -2.16969 -2.27534 0
M  V30 6647 N 610.455 -0.639598 -1.44038 0
M  V30 6648 C 611.403 0.0723409 -2.32487 0
M  V30 6649 C 612.397 0.827129 -1.47834 0
M  V30 6650 O 613.603 0.73907 -1.64127 0
M  V30 6651 H 609.978 0.0421696 -0.750817 0
M  V30 6652 H 611.949 -0.691593 -2.90275 0
M  V30 6653 C 610.698 1.03452 -3.31953 0
M  V30 6654 H 610.021 0.46315 -3.97108 0
M  V30 6655 H 611.461 1.502 -3.96505 0
M  V30 6656 C 609.92 2.12392 -2.61518 0
M  V30 6657 O 610.45 3.2059 -2.42044 0
M  V30 6658 N 608.656 1.88563 -2.21116 0
M  V30 6659 H 608.203 1.00577 -2.37154 0
M  V30 6660 H 608.161 2.61651 -1.74316 0
M  V30 6661 N 611.933 1.52934 -0.380664 0
M  V30 6662 C 612.883 2.22989 0.475399 0
M  V30 6663 C 613.867 1.23058 1.03661 0
M  V30 6664 O 615.059 1.48436 0.964146 0
M  V30 6665 C 612.188 3.0338 1.60671 0
M  V30 6666 C 611.274 4.107 1.05766 0
M  V30 6667 N 611.665 5.05264 0.232837 0
M  V30 6668 C 609.963 4.25676 1.33101 0
M  V30 6669 C 610.664 5.81658 -0.0695134 0
M  V30 6670 N 609.64 5.40989 0.532144 0
M  V30 6671 H 613.442 2.93456 -0.161418 0
M  V30 6672 H 610.956 1.61291 -0.189495 0
M  V30 6673 H 612.953 3.52098 2.23232 0
M  V30 6674 H 611.613 2.34446 2.24644 0
M  V30 6675 H 612.624 5.17739 -0.129204 0
M  V30 6676 H 609.301 3.6797 1.97241 0
M  V30 6677 H 610.691 6.67843 -0.737269 0
M  V30 6678 N 613.412 0.11024 1.57214 0
M  V30 6679 C 614.36 -0.860586 2.16094 0
M  V30 6680 C 615.354 -1.28156 1.1078 0
M  V30 6681 O 616.56 -1.25433 1.29099 0
M  V30 6682 H 612.935 -0.295606 0.691463 0
M  V30 6683 H 614.906 -0.33942 2.96463 0
M  V30 6684 C 613.655 -2.10421 2.768 0
M  V30 6685 H 612.978 -1.7892 3.5753 0
M  V30 6686 H 614.418 -2.76375 3.21547 0
M  V30 6687 C 612.877 -2.88823 1.73444 0
M  V30 6688 O 613.407 -3.839 1.18251 0
M  V30 6689 N 611.613 -2.52649 1.43586 0
M  V30 6690 H 611.16 -1.754 1.8866 0
M  V30 6691 H 611.118 -3.05403 0.746735 0
M  V30 6692 N 614.89 -1.56749 -0.16351 0
M  V30 6693 C 616.118 -1.86577 -0.894233 0
M  V30 6694 C 616.533 -0.696543 -1.75481 0
M  V30 6695 O 615.89 0.334161 -1.79415 0
M  V30 6696 C 615.941 -3.15508 -1.76456 0
M  V30 6697 O 615.662 -4.27926 -0.938685 0
M  V30 6698 C 617.163 -3.58737 -2.60428 0
M  V30 6699 H 614.383 -0.618829 -0.259405 0
M  V30 6700 H 616.927 -2.03863 -0.161259 0
M  V30 6701 H 615.082 -3.00025 -2.45079 0
M  V30 6702 H 615.496 -5.01546 -1.53465 0
M  V30 6703 H 616.97 -4.51832 -3.17099 0
M  V30 6704 H 617.447 -2.83229 -3.35675 0
M  V30 6705 H 618.053 -3.76858 -1.97125 0
M  V30 6706 N 616.368 0.432326 -1.51554 0
M  V30 6707 C 617.645 1.19288 -1.55015 0
M  V30 6708 C 618.025 2.08701 -0.317375 0
M  V30 6709 O 617.373 2.17602 0.697243 0
M  V30 6710 C 617.583 1.99037 -2.86679 0
M  V30 6711 C 618.931 2.55907 -3.38817 0
M  V30 6712 O 619.955 2.09243 -2.88263 0
M  V30 6713 O 618.814 3.41029 -4.27038 0
M  V30 6714 H 615.908 0.543369 -0.623441 0
M  V30 6715 H 618.454 0.440988 -1.6387 0
M  V30 6716 H 617.226 1.33397 -3.6786 0
M  V30 6717 H 616.849 2.81281 -2.8101 0
M  V30 6718 N 617.846 1.41785 0.688094 0
M  V30 6719 C 619.262 1.24419 0.999608 0
M  V30 6720 C 619.462 0.138868 2.01021 0
M  V30 6721 O 618.518 -0.494283 2.47615 0
M  V30 6722 C 619.831 2.59625 1.51709 0
M  V30 6723 C 621.379 2.66869 1.63554 0
M  V30 6724 C 621.854 4.0241 2.18702 0
M  V30 6725 N 623.345 4.04295 2.26053 0
M  V30 6726 C 624.08 5.05977 2.69768 0
M  V30 6727 N 623.576 6.18047 3.13033 0
M  V30 6728 N 625.369 4.93336 2.69398 0
M  V30 6729 H 617.52 2.12392 0.0187427 0
M  V30 6730 H 619.783 0.945347 0.0708673 0
M  V30 6731 H 619.489 3.41297 0.849059 0
M  V30 6732 H 619.363 2.82628 2.49803 0
M  V30 6733 H 621.75 1.8555 2.29467 0
M  V30 6734 H 621.831 2.47668 0.639857 0
M  V30 6735 H 621.475 4.8418 1.53402 0
M  V30 6736 H 621.405 4.18955 3.19037 0
M  V30 6737 H 623.896 3.23383 1.9553 0
M  V30 6738 H 624.209 6.91498 3.45038 0
M  V30 6739 H 622.554 6.21572 3.10923 0
M  V30 6740 H 625.745 4.04865 2.34952 0
M  V30 6741 H 625.918 5.72717 3.03148 0
M  V30 6742 N 619.324 -0.923095 1.27737 0
M  V30 6743 C 620.549 -1.71054 1.17283 0
M  V30 6744 C 620.974 -1.86208 -0.266153 0
M  V30 6745 O 620.332 -1.36545 -1.1927 0
M  V30 6746 C 620.38 -3.0854 1.86642 0
M  V30 6747 O 619.484 -3.95528 1.16752 0
M  V30 6748 H 618.825 -0.524136 0.407649 0
M  V30 6749 H 621.355 -1.15487 1.6889 0
M  V30 6750 H 621.365 -3.58828 1.94182 0
M  V30 6751 H 620.04 -2.96828 2.91317 0
M  V30 6752 H 618.617 -3.53967 1.17312 0
M  V30 6753 N 620.802 -1.09834 -1.13024 0
M  V30 6754 C 622.027 -0.85909 -1.88771 0
M  V30 6755 C 622.452 0.584402 -1.78791 0
M  V30 6756 O 621.81 1.41101 -1.13842 0
M  V30 6757 C 621.858 -1.30427 -3.36186 0
M  V30 6758 O 620.962 -0.465368 -4.09766 0
M  V30 6759 H 620.303 -0.310786 -0.586778 0
M  V30 6760 H 622.833 -1.46355 -1.42973 0
M  V30 6761 H 622.843 -1.2915 -3.8702 0
M  V30 6762 H 621.518 -2.3555 -3.42767 0
M  V30 6763 H 620.095 -0.542814 -3.68928 0
M  V30 6764 N 622.28 1.30327 -0.886154 0
M  V30 6765 C 623.23 2.25668 -0.325248 0
M  V30 6766 C 624.214 1.51318 0.546972 0
M  V30 6767 O 625.406 1.72623 0.391203 0
M  V30 6768 C 622.535 3.40229 0.458167 0
M  V30 6769 C 621.621 4.21933 -0.428208 0
M  V30 6770 N 622.012 4.82129 -1.52921 0
M  V30 6771 C 620.31 4.45439 -0.223535 0
M  V30 6772 C 621.011 5.43351 -2.07714 0
M  V30 6773 N 619.987 5.26002 -1.37195 0
M  V30 6774 H 623.789 2.69759 -1.1665 0
M  V30 6775 H 621.303 1.4478 -0.735691 0
M  V30 6776 H 623.3 4.07579 0.876648 0
M  V30 6777 H 621.96 2.97678 1.29684 0
M  V30 6778 H 622.971 4.81312 -1.91205 0
M  V30 6779 H 619.648 4.13481 0.577875 0
M  V30 6780 H 621.038 6.01118 -3.00178 0
M  V30 6781 N 623.758 0.647228 1.43697 0
M  V30 6782 C 624.705 -0.0480092 2.3075 0
M  V30 6783 C 625.675 -0.820705 1.44408 0
M  V30 6784 O 626.86 -0.798515 1.73287 0
M  V30 6785 C 624 -1.01259 3.2991 0
M  V30 6786 C 623.113 -0.236629 4.31351 0
M  V30 6787 C 622.248 -1.19447 5.17596 0
M  V30 6788 C 621.287 -0.408595 6.10735 0
M  V30 6789 N 620.424 -1.31772 6.89623 0
M  V30 6790 H 625.264 0.700238 2.89656 0
M  V30 6791 H 622.801 0.357082 1.427 0
M  V30 6792 H 624.759 -1.58538 3.85903 0
M  V30 6793 H 623.389 -1.72778 2.72667 0
M  V30 6794 H 622.441 0.452353 3.77701 0
M  V30 6795 H 623.753 0.374731 4.9739 0
M  V30 6796 H 622.907 -1.83809 5.78186 0
M  V30 6797 H 621.646 -1.83975 4.51669 0
M  V30 6798 H 620.651 0.24841 5.49239 0
M  V30 6799 H 621.876 0.232188 6.78703 0
M  V30 6800 H 619.822 -1.94991 6.2635 0
M  V30 6801 H 619.739 -0.760779 7.52162 0
M  V30 6802 H 621.007 -1.94967 7.54724 0
M  V30 6803 N 625.236 -1.5273 0.388769 0
M  V30 6804 C 626.513 -1.93981 -0.251133 0
M  V30 6805 C 626.893 -1.32418 -1.64404 0
M  V30 6806 O 626.241 -0.492074 -2.23139 0
M  V30 6807 C 626.451 -3.47891 -0.27802 0
M  V30 6808 C 627.799 -4.21559 -0.507229 0
M  V30 6809 O 628.823 -3.54394 -0.358252 0
M  V30 6810 O 627.682 -5.40626 -0.799094 0
M  V30 6811 H 624.776 -0.812157 -0.15598 0
M  V30 6812 H 627.322 -1.63809 0.443237 0
M  V30 6813 H 626.094 -3.8503 0.697669 0
M  V30 6814 H 625.717 -3.84364 -1.01733 0
M  V30 6815 N 626.714 -0.118576 -1.57153 0
M  V30 6816 C 627.939 0.550582 -1.99958 0
M  V30 6817 C 628.364 1.59458 -0.997736 0
M  V30 6818 O 627.722 1.81274 0.0306269 0
M  V30 6819 C 627.77 1.15379 -3.41643 0
M  V30 6820 O 626.874 2.26932 -3.44348 0
M  V30 6821 H 626.215 0.137567 -0.649593 0
M  V30 6822 H 628.745 -0.206926 -2.03551 0
M  V30 6823 H 628.755 1.48942 -3.79843 0
M  V30 6824 H 627.43 0.389087 -4.14076 0
M  V30 6825 H 626.007 1.94812 -3.17967 0
M  V30 6826 N 628.193 1.56834 0.155195 0
M  V30 6827 C 629.126 1.9278 1.22111 0
M  V30 6828 C 630.104 0.792588 1.41975 0
M  V30 6829 O 631.288 1.04743 1.5672 0
M  V30 6830 C 628.415 2.19273 2.58142 0
M  V30 6831 C 627.461 3.41932 2.54921 0
M  V30 6832 S 628.294 4.95769 2.02418 0
M  V30 6833 C 629.45 5.25375 3.40194 0
M  V30 6834 H 629.683 2.82889 0.914393 0
M  V30 6835 H 627.216 1.50133 0.360461 0
M  V30 6836 H 629.174 2.35217 3.36427 0
M  V30 6837 H 627.835 1.29843 2.86007 0
M  V30 6838 H 627.028 3.57721 3.55038 0
M  V30 6839 H 626.63 3.25188 1.8474 0
M  V30 6840 H 628.922 5.1834 4.36268 0
M  V30 6841 H 629.865 6.26889 3.29266 0
M  V30 6842 H 630.273 4.52906 3.36951 0
M  V30 6843 N 629.671 -0.424282 1.51781 0
M  V30 6844 C 630.619 -1.53649 1.74628 0
M  V30 6845 C 631.613 -1.57923 0.612922 0
M  V30 6846 O 632.819 -1.61511 0.794618 0
M  V30 6847 H 629.194 -0.510706 0.551981 0
M  V30 6848 H 631.165 -1.31558 2.67834 0
M  V30 6849 C 629.914 -2.91177 1.9003 0
M  V30 6850 H 629.237 -2.88625 2.76651 0
M  V30 6851 H 630.677 -3.6833 2.10021 0
M  V30 6852 C 629.136 -3.30303 0.663435 0
M  V30 6853 O 629.666 -4.01315 -0.175812 0
M  V30 6854 N 627.872 -2.86201 0.503723 0
M  V30 6855 H 627.419 -2.28583 1.18776 0
M  V30 6856 H 627.377 -3.12741 -0.322575 0
M  V30 6857 O 631.188 -1.51103 -0.570103 0
M  V30 6858 H 631.879 -1.50032 -1.22516 0
M  V30 END ATOM
M  V30 BEGIN BOND
M  V30 END BOND
M  V30 END CTAB
M  END
$$$$
