drugbank_target|Q99808 Equilibrative nucleoside transporter 1 (DB00197; DB00898; DB12010)
 OpenBabel12092119493D

  0  0  0     0  0            999 V3000
M  V30 BEGIN CTAB
M  V30 COUNTS 7177 7268 0 0 0
M  V30 BEGIN ATOM
M  V30 1 H -0.908 1.98254 -0.117106 0
M  V30 2 N 0 1.576 0 0
M  V30 3 C 0.933 2.03868 1.02534 0
M  V30 4 C 1.911 0.928543 1.3348 0
M  V30 5 O 3.095 1.19667 1.45644 0
M  V30 6 C 0.222 2.43627 2.35294 0
M  V30 7 C -0.732 3.65373 2.2001 0
M  V30 8 S 0.101 5.13292 1.52614 0
M  V30 9 C 1.257 5.56322 2.86805 0
M  V30 10 H 1.49 2.90518 0.631377 0
M  V30 11 H -0.977 1.52953 0.210867 0
M  V30 12 H 0.981 2.67203 3.11629 0
M  V30 13 H -0.358 1.57376 2.7183 0
M  V30 14 H -1.165 3.90944 3.18086 0
M  V30 15 H -1.563 3.418 1.51819 0
M  V30 16 H 0.729 5.58782 3.83104 0
M  V30 17 H 1.672 6.56266 2.65933 0
M  V30 18 H 2.08 4.83886 2.90714 0
M  V30 19 N 1.4781 -0.272755 1.55222 0
M  V30 20 C 2.7061 -1.02255 1.79865 0
M  V30 21 C 3.1211 -1.79924 0.572088 0
M  V30 22 O 2.4781 -1.76638 -0.458842 0
M  V30 23 C 2.5291 -1.98094 3.02392 0
M  V30 24 O 2.2501 -1.23572 4.20311 0
M  V30 25 C 3.7511 -2.84884 3.39641 0
M  V30 26 H 0.9711 -0.302057 0.599168 0
M  V30 27 H 3.5151 -0.303465 2.02236 0
M  V30 28 H 1.6701 -2.65465 2.82147 0
M  V30 29 H 2.0841 -1.88172 4.89583 0
M  V30 30 H 3.5581 -3.47927 4.28545 0
M  V30 31 H 4.0351 -3.54665 2.59055 0
M  V30 32 H 4.6411 -2.23003 3.62146 0
M  V30 33 N 2.9562 -1.48159 -0.537278 0
M  V30 34 C 4.1842 -1.59454 -1.31841 0
M  V30 35 C 4.5992 -0.252065 -1.8711 0
M  V30 36 O 3.9562 0.757621 -1.66031 0
M  V30 37 C 4.0072 -2.63546 -2.47439 0
M  V30 38 O 3.7282 -3.92583 -1.94449 0
M  V30 39 C 5.2292 -2.85212 -3.39366 0
M  V30 40 H 2.4492 -0.53785 -0.401196 0
M  V30 41 H 4.9932 -1.93932 -0.648891 0
M  V30 42 H 3.1482 -2.31946 -3.1029 0
M  V30 43 H 3.5622 -4.49629 -2.70063 0
M  V30 44 H 5.0362 -3.61863 -4.16844 0
M  V30 45 H 5.5132 -1.93765 -3.94147 0
M  V30 46 H 6.1192 -3.18086 -2.82314 0
M  V30 47 N 4.4343 0.785586 -1.36625 0
M  V30 48 C 5.6593 1.57963 -1.34397 0
M  V30 49 C 6.0843 1.87964 0.071526 0
M  V30 50 O 5.4423 1.48182 1.0446 0
M  V30 51 C 5.4903 2.87511 -2.17646 0
M  V30 52 O 4.5943 3.81281 -1.57158 0
M  V30 53 H 3.9353 0.479014 -0.459828 0
M  V30 54 H 6.4653 0.973411 -1.79961 0
M  V30 55 H 6.4753 3.36745 -2.30362 0
M  V30 56 H 5.1503 2.65002 -3.20541 0
M  V30 57 H 3.7273 3.39885 -1.53403 0
M  V30 58 N 5.9124 1.20967 1.01018 0
M  V30 59 C 6.8624 0.93182 2.08089 0
M  V30 60 C 7.8464 -0.110898 1.60517 0
M  V30 61 O 9.0384 0.0973392 1.76732 0
M  V30 62 C 6.1674 0.492719 3.39746 0
M  V30 63 C 5.2534 1.56922 3.94 0
M  V30 64 N 5.6444 2.79312 4.21686 0
M  V30 65 C 3.9424 1.43688 4.2222 0
M  V30 66 C 4.6434 3.48797 4.65527 0
M  V30 67 N 3.6194 2.76224 4.68189 0
M  V30 68 H 7.4214 1.86175 2.27412 0
M  V30 69 H 4.9354 1.10463 1.19045 0
M  V30 70 H 6.9324 0.275044 4.15992 0
M  V30 71 H 5.5924 -0.430509 3.21833 0
M  V30 72 H 6.6034 3.15903 4.10397 0
M  V30 73 H 3.2804 0.578548 4.13472 0
M  V30 74 H 4.6704 4.53561 4.95714 0
M  V30 75 N 7.3905 -1.2043 1.01659 0
M  V30 76 C 8.3225 -2.22626 0.544988 0
M  V30 77 C 9.3355 -1.58479 -0.372609 0
M  V30 78 O 10.5245 -1.77679 -0.170958 0
M  V30 79 C 7.6245 -3.38141 -0.22663 0
M  V30 80 C 6.7975 -4.31877 0.692876 0
M  V30 81 C 5.8565 -5.26191 -0.0311616 0
M  V30 82 O 4.8825 -5.6612 0.591343 0
M  V30 83 N 6.0845 -5.65618 -1.30601 0
M  V30 84 H 8.8495 -2.63716 1.42388 0
M  V30 85 H 6.4105 -1.34971 0.894116 0
M  V30 86 H 8.4025 -3.98239 -0.72024 0
M  V30 87 H 6.9725 -2.95943 -1.00681 0
M  V30 88 H 6.1925 -3.69746 1.36679 0
M  V30 89 H 7.4805 -4.91426 1.31824 0
M  V30 90 H 6.8785 -5.3519 -1.83269 0
M  V30 91 H 5.4355 -6.28025 -1.74435 0
M  V30 92 N 8.8686 -0.792821 -1.36206 0
M  V30 93 C 10.2796 -0.429513 -1.81692 0
M  V30 94 C 10.6306 1.04695 -1.65932 0
M  V30 95 O 9.7556 1.81256 -1.18218 0
M  V30 96 C 10.3506 -0.772831 -3.29868 0
M  V30 97 C 8.9096 -0.462307 -3.7355 0
M  V30 98 C 8.0566 -1.00569 -2.5842 0
M  V30 99 H 11.0076 -0.985672 -1.24379 0
M  V30 100 H 11.0286 -0.0651928 -3.80444 0
M  V30 101 H 10.5406 -1.84747 -3.41307 0
M  V30 102 H 8.6416 0.604158 -3.67669 0
M  V30 103 H 8.7546 -0.985299 -4.68859 0
M  V30 104 H 7.1186 -0.428734 -2.51066 0
M  V30 105 H 7.9016 -2.08616 -2.72643 0
M  V30 106 N 10.3467 1.47872 -0.545128 0
M  V30 107 C 11.2787 2.27869 0.246621 0
M  V30 108 C 12.2917 1.36282 0.890561 0
M  V30 109 O 13.4807 1.61207 0.766449 0
M  V30 110 C 10.5807 3.10159 1.36582 0
M  V30 111 C 9.7537 4.29627 0.820954 0
M  V30 112 C 8.8127 4.93607 1.82314 0
M  V30 113 O 7.8387 5.52366 1.37406 0
M  V30 114 N 9.0407 4.87211 3.15603 0
M  V30 115 H 11.8057 2.96459 -0.439539 0
M  V30 116 H 9.3667 1.57367 -0.380421 0
M  V30 117 H 11.3587 3.49829 2.03474 0
M  V30 118 H 9.9287 2.43891 1.9554 0
M  V30 119 H 9.1487 3.94192 -0.0244032 0
M  V30 120 H 10.4367 5.06928 0.436063 0
M  V30 121 H 9.8347 4.40651 3.54744 0
M  V30 122 H 8.3917 5.30937 3.78087 0
M  V30 123 N 11.8248 0.280983 1.55075 0
M  V30 124 C 13.1018 -0.386207 1.91749 0
M  V30 125 C 13.4818 -1.73264 1.20594 0
M  V30 126 O 12.8298 -2.26034 0.334784 0
M  V30 127 C 13.0398 -0.520687 3.45094 0
M  V30 128 C 14.3878 -0.800865 4.16979 0
M  V30 129 O 15.4118 -0.605271 3.5102 0
M  V30 130 O 14.2708 -1.1753 5.33712 0
M  V30 131 H 11.3648 -0.212408 0.799257 0
M  V30 132 H 13.9108 0.327568 1.66509 0
M  V30 133 H 12.6828 0.426633 3.88967 0
M  V30 134 H 12.3058 -1.2837 3.76307 0
M  V30 135 N 13.3029 -1.57598 0.00835791 0
M  V30 136 C 14.7189 -1.55764 -0.347822 0
M  V30 137 C 14.9189 -1.01186 -1.74252 0
M  V30 138 O 13.9749 -0.649371 -2.44007 0
M  V30 139 C 15.2879 -2.99927 -0.215407 0
M  V30 140 C 16.8359 -3.11656 -0.289725 0
M  V30 141 C 17.3109 -4.57621 -0.18634 0
M  V30 142 N 18.8019 -4.62557 -0.243978 0
M  V30 143 C 19.5369 -5.73094 -0.18745 0
M  V30 144 N 19.0329 -6.92753 -0.0810331 0
M  V30 145 N 20.8259 -5.61588 -0.239925 0
M  V30 146 H 12.9769 -1.91411 0.92062 0
M  V30 147 H 15.2399 -0.879562 0.353659 0
M  V30 148 H 14.9459 -3.43729 0.744512 0
M  V30 149 H 14.8199 -3.63865 -0.994097 0
M  V30 150 H 17.2069 -2.67779 -1.24009 0
M  V30 151 H 17.2879 -2.5048 0.51898 0
M  V30 152 H 16.9319 -5.02174 0.760519 0
M  V30 153 H 16.8619 -5.16752 -1.01364 0
M  V30 154 H 19.3529 -3.76481 -0.327217 0
M  V30 155 H 19.6659 -7.72787 -0.0440241 0
M  V30 156 H 18.0109 -6.94984 -0.0465419 0
M  V30 157 H 21.2019 -4.66996 -0.321317 0
M  V30 158 H 21.3749 -6.47714 -0.192407 0
M  V30 159 N 14.781 0.264519 -1.55364 0
M  V30 160 C 16.011 1.01153 -1.80143 0
M  V30 161 C 16.419 1.80115 -0.579253 0
M  V30 162 O 15.762 1.77813 0.46132 0
M  V30 163 C 15.824 2.01098 -2.97993 0
M  V30 164 C 15.488 1.40995 -4.34706 0
M  V30 165 C 16.485 0.821316 -5.13372 0
M  V30 166 C 14.17 1.43461 -4.81378 0
M  V30 167 C 16.164 0.265339 -6.36847 0
M  V30 168 C 13.851 0.874771 -6.04807 0
M  V30 169 C 14.849 0.291146 -6.82379 0
M  V30 170 O 14.537 -0.260093 -8.03479 0
M  V30 171 H 14.269 0.304125 -0.603725 0
M  V30 172 H 16.823 0.298089 -2.03225 0
M  V30 173 H 15.053 2.76224 -2.70623 0
M  V30 174 H 16.742 2.61997 -3.1002 0
M  V30 175 H 17.508 0.794903 -4.78442 0
M  V30 176 H 13.387 1.87826 -4.21002 0
M  V30 177 H 16.931 -0.190837 -6.97339 0
M  V30 178 H 12.828 0.898452 -6.39217 0
M  V30 179 H 13.596 -0.150265 -8.18362 0
M  V30 180 N 16.2591 1.48442 0.529413 0
M  V30 181 C 17.2061 1.63007 1.63394 0
M  V30 182 C 18.1761 0.47212 1.59249 0
M  V30 183 O 19.3611 0.695673 1.77666 0
M  V30 184 C 16.5011 1.6763 3.01653 0
M  V30 185 C 15.6141 2.94535 3.16027 0
M  V30 186 C 14.7491 2.90316 4.44849 0
M  V30 187 C 13.7881 4.11923 4.52754 0
M  V30 188 N 12.9251 4.05777 5.72965 0
M  V30 189 H 17.7651 2.5733 1.50285 0
M  V30 190 H 15.3021 1.27613 0.731656 0
M  V30 191 H 17.2601 1.68292 3.81751 0
M  V30 192 H 15.8901 0.76797 3.13532 0
M  V30 193 H 14.9421 3.03615 2.29177 0
M  V30 194 H 16.2541 3.84512 3.17729 0
M  V30 195 H 15.4081 2.89382 5.33238 0
M  V30 196 H 14.1471 1.98068 4.45668 0
M  V30 197 H 13.1521 4.13131 3.62771 0
M  V30 198 H 14.3771 5.0533 4.53672 0
M  V30 199 H 12.3231 3.16351 5.74681 0
M  V30 200 H 12.2401 4.8946 5.76164 0
M  V30 201 H 13.5081 4.08904 6.6364 0
M  V30 202 N 17.7372 -0.778329 1.37039 0
M  V30 203 C 18.7002 -1.87301 1.32102 0
M  V30 204 C 19.7002 -1.59198 0.226405 0
M  V30 205 O 20.8902 -1.67403 0.481861 0
M  V30 206 C 18.0222 -3.24309 1.05055 0
M  V30 207 H 19.2152 -1.93093 2.29467 0
M  V30 208 H 16.7682 -0.977358 1.21973 0
M  V30 209 H 17.5032 -3.24196 0.0819373 0
M  V30 210 H 17.2882 -3.46098 1.84279 0
M  V30 211 H 18.7782 -4.04382 1.04234 0
M  V30 212 N 19.2153 -1.21501 -1.00376 0
M  V30 213 C 20.4613 -1.03452 -1.74429 0
M  V30 214 C 20.7943 0.430764 -1.89362 0
M  V30 215 O 20.0693 1.31962 -1.42886 0
M  V30 216 C 20.3523 -1.73375 -3.15615 0
M  V30 217 C 20.2053 -3.27431 -3.08397 0
M  V30 218 C 21.5243 -1.47732 -4.14564 0
M  V30 219 H 18.6433 -0.377226 -0.633143 0
M  V30 220 H 21.2853 -1.49693 -1.17013 0
M  V30 221 H 19.4353 -1.34064 -3.64636 0
M  V30 222 H 21.1073 -3.76119 -2.67081 0
M  V30 223 H 19.3503 -3.5767 -2.45468 0
M  V30 224 H 20.0213 -3.71524 -4.08258 0
M  V30 225 H 22.4973 -1.8186 -3.74254 0
M  V30 226 H 21.3733 -1.99169 -5.11491 0
M  V30 227 H 21.6343 -0.407589 -4.40217 0
M  V30 228 N 20.6934 1.19889 -1.02296 0
M  V30 229 C 21.9394 1.89973 -0.726759 0
M  V30 230 C 22.2944 1.7776 0.73614 0
M  V30 231 O 21.5874 1.15523 1.52856 0
M  V30 232 C 21.7814 3.39883 -1.10518 0
M  V30 233 C 21.6104 3.66684 -2.60332 0
M  V30 234 C 20.3804 3.85045 -3.27213 0
M  V30 235 C 22.5784 3.68727 -3.58532 0
M  V30 236 N 20.5604 3.99422 -4.66192 0
M  V30 237 C 21.9314 3.88604 -4.83101 0
M  V30 238 C 23.9864 3.51722 -3.52414 0
M  V30 239 C 22.6894 3.9324 -6.02292 0
M  V30 240 C 24.7154 3.57632 -4.71013 0
M  V30 241 C 24.0774 3.77988 -5.94394 0
M  V30 242 H 20.1764 0.714551 -0.317712 0
M  V30 243 H 22.7604 1.44123 -1.30907 0
M  V30 244 H 20.9314 3.8447 -0.551142 0
M  V30 245 H 22.6634 3.97464 -0.761853 0
M  V30 246 H 19.4184 3.83689 -2.77632 0
M  V30 247 H 19.8424 4.10473 -5.38368 0
M  V30 248 H 24.4844 3.34945 -2.58015 0
M  V30 249 H 22.2024 4.08811 -6.97065 0
M  V30 250 H 25.7884 3.45773 -4.67902 0
M  V30 251 H 24.6684 3.82428 -6.8463 0
M  V30 252 N 22.1715 0.800033 1.35784 0
M  V30 253 C 23.1015 0.220184 2.3246 0
M  V30 254 C 24.0825 -0.65073 1.57161 0
M  V30 255 O 25.2675 -0.582359 1.85263 0
M  V30 256 C 22.3975 -0.637353 3.41402 0
M  V30 257 C 21.3515 0.134531 4.27789 0
M  V30 258 C 20.6775 -0.844285 5.27992 0
M  V30 259 C 21.9775 1.32979 5.05088 0
M  V30 260 H 23.6715 1.02787 2.81203 0
M  V30 261 H 21.2175 0.495717 1.35199 0
M  V30 262 H 23.1705 -1.05302 4.08031 0
M  V30 263 H 21.8945 -1.47785 2.91251 0
M  V30 264 H 20.5535 0.531296 3.6273 0
M  V30 265 H 20.2015 -1.68011 4.74111 0
M  V30 266 H 19.9015 -0.332184 5.8666 0
M  V30 267 H 21.4255 -1.2583 5.97494 0
M  V30 268 H 22.8395 0.98934 5.64699 0
M  V30 269 H 21.2365 1.77593 5.7322 0
M  V30 270 H 22.3065 2.11978 4.36111 0
M  V30 271 N 23.6496 -1.47581 0.552962 0
M  V30 272 C 24.8986 -2.01684 0.0251995 0
M  V30 273 C 25.2116 -1.43317 -1.33115 0
M  V30 274 O 26.4176 -1.89057 -1.94858 0
M  V30 275 C 24.8736 -3.599 -0.00542052 0
M  V30 276 C 24.4816 -4.27257 1.34742 0
M  V30 277 C 26.2256 -4.21768 -0.4808 0
M  V30 278 C 24.1326 -5.77467 1.27614 0
M  V30 279 H 23.0626 -0.753979 0.00565033 0
M  V30 280 H 25.7136 -1.69616 0.70018 0
M  V30 281 H 24.0956 -3.88911 -0.745961 0
M  V30 282 H 25.2696 -4.09893 2.10534 0
M  V30 283 H 23.5846 -3.77358 1.76039 0
M  V30 284 H 26.1816 -5.31838 -0.55246 0
M  V30 285 H 26.5246 -3.88651 -1.49184 0
M  V30 286 H 27.0576 -3.97273 0.204752 0
M  V30 287 H 23.7966 -6.15196 2.26304 0
M  V30 288 H 23.3166 -5.9718 0.55996 0
M  V30 289 H 24.9956 -6.3959 0.976421 0
M  V30 290 N 25.1277 -0.289203 -1.54924 0
M  V30 291 C 26.3747 0.323519 -1.99899 0
M  V30 292 C 26.7027 1.54797 -1.17762 0
M  V30 293 O 25.9577 1.94237 -0.238835 0
M  V30 294 C 26.2567 0.736119 -3.49737 0
M  V30 295 C 25.9227 -0.385276 -4.49251 0
M  V30 296 C 24.5847 -0.693156 -4.76181 0
M  V30 297 C 26.9367 -1.14021 -5.08575 0
M  V30 298 C 24.2647 -1.7593 -5.59701 0
M  V30 299 C 26.6167 -2.19619 -5.93254 0
M  V30 300 C 25.2807 -2.51026 -6.185 0
M  V30 301 H 24.5507 0.118384 -0.731482 0
M  V30 302 H 27.1977 -0.405847 -1.8715 0
M  V30 303 H 25.5027 1.54539 -3.60035 0
M  V30 304 H 27.1997 1.22118 -3.81953 0
M  V30 305 H 23.7897 -0.135202 -4.28387 0
M  V30 306 H 27.9737 -0.915611 -4.87781 0
M  V30 307 H 23.2297 -2.0075 -5.77503 0
M  V30 308 H 27.4037 -2.78581 -6.38252 0
M  V30 309 H 25.0307 -3.33772 -6.83008 0
M  V30 310 N 26.6058 1.57591 -0.0167156 0
M  V30 311 C 27.8528 1.91283 0.664597 0
M  V30 312 C 28.1808 0.891949 1.72842 0
M  V30 313 O 27.4358 -0.100931 1.9544 0
M  V30 314 C 27.7348 3.3172 1.33029 0
M  V30 315 C 27.4008 4.4914 0.398047 0
M  V30 316 C 26.0628 4.80992 0.141421 0
M  V30 317 C 28.4148 5.20634 -0.242825 0
M  V30 318 C 25.7428 5.81703 -0.764092 0
M  V30 319 C 28.0948 6.22311 -1.13632 0
M  V30 320 C 26.7588 6.52611 -1.40196 0
M  V30 321 H 26.0288 0.699956 0.243193 0
M  V30 322 H 28.6758 1.9135 -0.0758267 0
M  V30 323 H 26.9808 3.27856 2.14517 0
M  V30 324 H 28.6778 3.55055 1.86379 0
M  V30 325 H 25.2678 4.24262 0.608238 0
M  V30 326 H 29.4518 4.96267 -0.0576019 0
M  V30 327 H 24.7078 6.03532 -0.977732 0
M  V30 328 H 28.8818 6.76834 -1.63917 0
M  V30 329 H 26.5088 7.30467 -2.10529 0
M  V30 330 N 28.0839 -0.256276 1.55502 0
M  V30 331 C 29.0169 -1.34321 1.84481 0
M  V30 332 C 29.9949 -1.46802 0.699131 0
M  V30 333 O 31.1789 -1.63165 0.943904 0
M  V30 334 C 28.3059 -2.71779 2.02123 0
M  V30 335 C 27.3519 -2.76496 3.24734 0
M  V30 336 S 28.1849 -2.3405 4.81644 0
M  V30 337 C 29.3409 -3.73452 5.02279 0
M  V30 338 H 29.5739 -1.09539 2.76385 0
M  V30 339 H 27.1069 -0.45678 1.47489 0
M  V30 340 H 29.0649 -3.50932 2.12972 0
M  V30 341 H 27.7259 -2.93803 1.11078 0
M  V30 342 H 26.9189 -3.77424 3.34016 0
M  V30 343 H 26.5209 -2.05379 3.12563 0
M  V30 344 H 28.8129 -4.6887 4.89047 0
M  V30 345 H 29.7559 -3.6911 6.04287 0
M  V30 346 H 30.1639 -3.6553 4.30172 0
M  V30 347 N 29.562 -1.4872 -0.521534 0
M  V30 348 C 30.492 -1.66771 -1.63431 0
M  V30 349 C 31.473 -0.516499 -1.62069 0
M  V30 350 O 32.658 -0.750013 -1.79132 0
M  V30 351 C 29.788 -1.71515 -3.01993 0
M  V30 352 C 28.742 -2.86222 -3.18216 0
M  V30 353 C 28.068 -2.76061 -4.57924 0
M  V30 354 C 29.368 -4.27419 -3.00184 0
M  V30 355 H 31.062 -2.59932 -1.48579 0
M  V30 356 H 28.608 -1.25089 -0.713358 0
M  V30 357 H 30.561 -1.82731 -3.7972 0
M  V30 358 H 29.285 -0.749393 -3.17886 0
M  V30 359 H 27.944 -2.74575 -2.42908 0
M  V30 360 H 27.592 -1.77437 -4.70665 0
M  V30 361 H 27.292 -3.53037 -4.69722 0
M  V30 362 H 28.816 -2.89256 -5.37739 0
M  V30 363 H 30.23 -4.39855 -3.67697 0
M  V30 364 H 28.627 -5.05458 -3.2347 0
M  V30 365 H 29.697 -4.43293 -1.96518 0
M  V30 366 N 31.0401 0.771051 -1.3745 0
M  V30 367 C 32.2881 1.52661 -1.32435 0
M  V30 368 C 32.6091 1.9479 0.0905024 0
M  V30 369 O 31.8791 1.66348 1.03466 0
M  V30 370 H 30.4591 0.566218 -0.487244 0
M  V30 371 H 33.1211 0.917636 -1.71946 0
M  V30 372 H 32.2171 2.42568 -1.96385 0
M  V30 373 N 32.5182 1.22032 0.997298 0
M  V30 374 C 33.4482 1.01065 2.10495 0
M  V30 375 C 34.4292 -0.0669542 1.69968 0
M  V30 376 O 35.6142 0.0943987 1.9397 0
M  V30 377 C 32.7442 0.582874 3.42374 0
M  V30 378 C 31.6982 1.60592 3.96729 0
M  V30 379 C 31.0242 1.03412 5.24605 0
M  V30 380 C 32.3242 2.99478 4.27914 0
M  V30 381 H 34.0182 1.93708 2.28292 0
M  V30 382 H 31.5642 0.932761 1.09707 0
M  V30 383 H 33.5172 0.423332 4.19268 0
M  V30 384 H 32.2412 -0.379213 3.24391 0
M  V30 385 H 30.9002 1.75316 3.21963 0
M  V30 386 H 30.5482 0.063518 5.0296 0
M  V30 387 H 30.2482 1.71754 5.61938 0
M  V30 388 H 31.7722 0.886066 6.04137 0
M  V30 389 H 33.1862 2.88153 4.95622 0
M  V30 390 H 31.5832 3.64903 4.76409 0
M  V30 391 H 32.6532 3.49742 3.3587 0
M  V30 392 N 33.9963 -1.19345 1.0293 0
M  V30 393 C 35.2443 -1.88665 0.724574 0
M  V30 394 C 35.5653 -1.80036 -0.749144 0
M  V30 395 O 34.8353 -1.2111 -1.53978 0
M  V30 396 H 33.4153 -0.698406 0.265025 0
M  V30 397 H 36.0773 -1.44885 1.30362 0
M  V30 398 H 35.1733 -2.94987 1.01926 0
M  V30 399 N 35.4744 -0.807222 -1.35358 0
M  V30 400 C 36.7024 -0.400377 -2.02989 0
M  V30 401 C 37.1174 0.988859 -1.60832 0
M  V30 402 O 36.4744 1.63729 -0.806175 0
M  V30 403 C 36.5254 -0.474867 -3.58368 0
M  V30 404 O 36.2464 -1.80933 -3.98992 0
M  V30 405 C 37.7474 -0.0609112 -4.43258 0
M  V30 406 H 34.9674 -0.162587 -0.651004 0
M  V30 407 H 37.5114 -1.09102 -1.72965 0
M  V30 408 H 35.6664 0.167534 -3.87038 0
M  V30 409 H 36.0804 -1.77256 -4.9364 0
M  V30 410 H 37.5544 -0.164145 -5.51756 0
M  V30 411 H 38.0314 0.993831 -4.27808 0
M  V30 412 H 38.6374 -0.676492 -4.19885 0
M  V30 413 N 36.9525 1.47285 -0.560781 0
M  V30 414 C 37.8825 2.32857 0.173105 0
M  V30 415 C 38.8635 1.44009 0.905281 0
M  V30 416 O 40.0485 1.7286 0.885046 0
M  V30 417 C 37.1785 3.25861 1.20133 0
M  V30 418 C 36.1325 4.23978 0.585388 0
M  V30 419 C 35.4585 5.06332 1.7185 0
M  V30 420 C 36.7585 5.20242 -0.463178 0
M  V30 421 H 38.4525 2.94466 -0.541307 0
M  V30 422 H 35.9985 1.41601 -0.261764 0
M  V30 423 H 37.9515 3.84569 1.72293 0
M  V30 424 H 36.6755 2.62315 1.94573 0
M  V30 425 H 35.3345 3.66501 0.085054 0
M  V30 426 H 34.9825 4.39186 2.45203 0
M  V30 427 H 34.6825 5.72762 1.31213 0
M  V30 428 H 36.2065 5.67899 2.24329 0
M  V30 429 H 37.6205 5.73293 -0.027502 0
M  V30 430 H 36.0175 5.94896 -0.788627 0
M  V30 431 H 37.0875 4.65504 -1.35773 0
M  V30 432 N 38.4306 0.297415 1.54768 0
M  V30 433 C 39.3606 -0.573494 2.26348 0
M  V30 434 C 40.3416 -1.14085 1.26169 0
M  V30 435 O 41.5266 -1.17086 1.54934 0
M  V30 436 C 38.6566 -1.74716 3.00153 0
M  V30 437 C 37.6106 -1.31032 4.07449 0
M  V30 438 C 36.9366 -2.56887 4.68949 0
M  V30 439 C 38.2366 -0.444183 5.20408 0
M  V30 440 H 39.9306 0.0235131 2.99391 0
M  V30 441 H 37.4766 0.0127488 1.43994 0
M  V30 442 H 39.4296 -2.3625 3.48947 0
M  V30 443 H 38.1536 -2.37035 2.24682 0
M  V30 444 H 36.8126 -0.718066 3.59499 0
M  V30 445 H 36.4606 -3.17512 3.90122 0
M  V30 446 H 36.1606 -2.2836 5.41411 0
M  V30 447 H 37.6846 -3.19229 5.20505 0
M  V30 448 H 39.0986 -0.9651 5.65118 0
M  V30 449 H 37.4956 -0.252846 5.99567 0
M  V30 450 H 38.5656 0.531609 4.81977 0
M  V30 451 N 39.9087 -1.5758 0.0250728 0
M  V30 452 C 41.3197 -1.79476 -0.514323 0
M  V30 453 C 41.6707 -0.934956 -1.72491 0
M  V30 454 O 40.7957 -0.144245 -2.15919 0
M  V30 455 C 41.3907 -3.25503 -0.939842 0
M  V30 456 C 39.9497 -3.48408 -1.42438 0
M  V30 457 C 39.0967 -2.74583 -0.387201 0
M  V30 458 H 42.0477 -1.567 0.25113 0
M  V30 459 H 42.0687 -3.34992 -1.80445 0
M  V30 460 H 41.5807 -3.88056 -0.0585628 0
M  V30 461 H 39.6817 -2.91103 -2.32572 0
M  V30 462 H 39.7947 -4.57119 -1.43455 0
M  V30 463 H 38.1587 -2.39942 -0.854409 0
M  V30 464 H 38.9417 -3.39849 0.485543 0
M  V30 465 N 41.3868 0.248026 -1.55636 0
M  V30 466 C 42.6328 0.973427 -1.78594 0
M  V30 467 C 42.9878 1.83007 -0.593823 0
M  V30 468 O 42.2808 1.87097 0.412961 0
M  V30 469 C 42.4748 1.86819 -3.04686 0
M  V30 470 C 42.3038 1.09965 -4.36048 0
M  V30 471 C 41.0738 0.805204 -4.98843 0
M  V30 472 C 43.2718 0.477783 -5.12076 0
M  V30 473 N 41.2538 0.0124859 -6.13899 0
M  V30 474 C 42.6248 -0.179565 -6.1974 0
M  V30 475 C 44.6798 0.388136 -4.96385 0
M  V30 476 C 43.3828 -0.91795 -7.13419 0
M  V30 477 C 45.4088 -0.336716 -5.90441 0
M  V30 478 C 44.7708 -0.982705 -6.97511 0
M  V30 479 H 40.8698 0.337348 -0.705493 0
M  V30 480 H 43.4538 0.24667 -1.93131 0
M  V30 481 H 41.6248 2.56698 -2.9148 0
M  V30 482 H 43.3568 2.52907 -3.15944 0
M  V30 483 H 40.1118 1.11671 -4.60246 0
M  V30 484 H 40.5358 -0.371933 -6.75978 0
M  V30 485 H 45.1778 0.873237 -4.13684 0
M  V30 486 H 42.8958 -1.41466 -7.95621 0
M  V30 487 H 46.4818 -0.406731 -5.80377 0
M  V30 488 H 45.3618 -1.53464 -7.69037 0
M  V30 489 N 42.8649 1.48995 0.513639 0
M  V30 490 C 43.8129 1.65199 1.63744 0
M  V30 491 C 44.8069 0.51809 1.61283 0
M  V30 492 O 46.0129 0.697335 1.65943 0
M  V30 493 H 42.3879 0.52069 0.542574 0
M  V30 494 H 44.3589 2.59552 1.47226 0
M  V30 495 C 43.1079 1.72409 3.01945 0
M  V30 496 H 42.4309 2.59029 3.04539 0
M  V30 497 H 43.8709 1.87785 3.80148 0
M  V30 498 C 42.3299 0.46618 3.33659 0
M  V30 499 O 42.8599 -0.413744 3.99564 0
M  V30 500 N 41.0659 0.332931 2.88687 0
M  V30 501 H 40.6129 1.04996 2.35231 0
M  V30 502 H 40.5709 -0.507665 3.10274 0
M  V30 503 N 44.343 -0.763751 1.37857 0
M  V30 504 C 45.59 -1.52257 1.33506 0
M  V30 505 C 45.918 -1.94343 -0.078022 0
M  V30 506 O 45.173 -1.64958 -1.05297 0
M  V30 507 C 45.472 -2.79499 2.22745 0
M  V30 508 C 45.138 -2.56426 3.70886 0
M  V30 509 C 43.8 -2.49842 4.11257 0
M  V30 510 C 46.152 -2.36008 4.64704 0
M  V30 511 C 43.48 -2.20841 5.43549 0
M  V30 512 C 45.832 -2.0853 5.97242 0
M  V30 513 C 44.496 -2.00396 6.36709 0
M  V30 514 H 43.766 -0.557149 0.488534 0
M  V30 515 H 46.413 -0.879073 1.70131 0
M  V30 516 H 44.718 -3.48447 1.79142 0
M  V30 517 H 46.415 -3.37413 2.16688 0
M  V30 518 H 43.005 -2.62416 3.38874 0
M  V30 519 H 47.189 -2.40079 4.34368 0
M  V30 520 H 42.445 -2.13045 5.73081 0
M  V30 521 H 46.619 -1.91732 6.69486 0
M  V30 522 H 44.246 -1.77688 7.39142 0
M  V30 523 N 45.8211 -1.22559 -0.990812 0
M  V30 524 C 47.0681 -1.05141 -1.73065 0
M  V30 525 C 47.3961 0.413191 -1.9006 0
M  V30 526 O 46.6511 1.32257 -1.44245 0
M  V30 527 C 46.9501 -1.71011 -3.13831 0
M  V30 528 C 46.6161 -3.20911 -3.16745 0
M  V30 529 C 45.2781 -3.61812 -3.17247 0
M  V30 530 C 47.6301 -4.16846 -3.12872 0
M  V30 531 C 44.9581 -4.97127 -3.1158 0
M  V30 532 C 47.3101 -5.5214 -3.08746 0
M  V30 533 C 45.9741 -5.92419 -3.07565 0
M  V30 534 H 45.2441 -0.384738 -0.633291 0
M  V30 535 H 47.8911 -1.5235 -1.16025 0
M  V30 536 H 46.1961 -1.16133 -3.74193 0
M  V30 537 H 47.8931 -1.55023 -3.69823 0
M  V30 538 H 44.4831 -2.88344 -3.17105 0
M  V30 539 H 48.6671 -3.86263 -3.11632 0
M  V30 540 H 43.9231 -5.27562 -3.09012 0
M  V30 541 H 48.0971 -6.26201 -3.04705 0
M  V30 542 H 45.7241 -6.97236 -3.02929 0
M  V30 543 N 47.2992 1.18797 -1.03562 0
M  V30 544 C 48.2322 2.2105 -0.56676 0
M  V30 545 C 49.2102 1.57704 0.395993 0
M  V30 546 O 50.3942 1.85908 0.311498 0
M  V30 547 C 47.5212 3.38259 0.172704 0
M  V30 548 C 46.5672 4.19987 -0.74252 0
M  V30 549 S 47.4002 4.87199 -2.22254 0
M  V30 550 C 48.5562 6.07813 -1.49379 0
M  V30 551 H 48.7892 2.60478 -1.43312 0
M  V30 552 H 46.3222 1.29151 -0.846133 0
M  V30 553 H 48.2802 4.06191 0.593191 0
M  V30 554 H 46.9412 2.97252 1.01488 0
M  V30 555 H 46.1342 5.03709 -0.171265 0
M  V30 556 H 45.7362 3.57408 -1.10163 0
M  V30 557 H 48.0282 6.72948 -0.784056 0
M  V30 558 H 48.9712 6.69435 -2.30786 0
M  V30 559 H 49.3792 5.55781 -0.988331 0
M  V30 560 N 48.7773 0.814389 1.34928 0
M  V30 561 C 50.0053 0.411136 2.02774 0
M  V30 562 C 50.4203 -0.980316 1.61354 0
M  V30 563 O 49.7773 -1.63299 0.814847 0
M  V30 564 C 49.8283 0.493865 3.58111 0
M  V30 565 O 49.5493 1.83047 3.98027 0
M  V30 566 C 51.0503 0.0844174 4.4322 0
M  V30 567 H 48.2703 0.166037 0.650133 0
M  V30 568 H 50.8143 1.10018 1.72384 0
M  V30 569 H 48.9693 -0.147006 3.87121 0
M  V30 570 H 49.3833 1.79872 4.92693 0
M  V30 571 H 50.8573 0.193404 5.51661 0
M  V30 572 H 51.3343 -0.97113 4.28329 0
M  V30 573 H 51.9403 0.69875 4.19521 0
M  V30 574 N 50.2554 -1.46986 0.568584 0
M  V30 575 C 51.2184 -2.28624 -0.162366 0
M  V30 576 C 52.2184 -1.37596 -0.832103 0
M  V30 577 O 53.4084 -1.60115 -0.68622 0
M  V30 578 C 50.5404 -3.17596 -1.23878 0
M  V30 579 H 51.7334 -2.94722 0.554899 0
M  V30 580 H 49.2864 -1.52863 0.325976 0
M  V30 581 H 50.0214 -2.56214 -1.98808 0
M  V30 582 H 49.8064 -3.846 -0.763219 0
M  V30 583 H 51.2964 -3.79078 -1.75185 0
M  V30 584 N 51.7335 -0.305618 -1.54608 0
M  V30 585 C 52.9615 0.304775 -2.04643 0
M  V30 586 C 53.3765 1.47167 -1.18268 0
M  V30 587 O 52.7335 1.81296 -0.209328 0
M  V30 588 C 52.7845 0.756564 -3.53495 0
M  V30 589 O 52.5055 -0.36389 -4.36586 0
M  V30 590 C 54.0065 1.43163 -4.19546 0
M  V30 591 H 51.2265 0.0655481 -0.667791 0
M  V30 592 H 53.7705 -0.446592 -1.99564 0
M  V30 593 H 51.9255 1.45794 -3.58919 0
M  V30 594 H 52.3395 -0.0113121 -5.24499 0
M  V30 595 H 53.8135 1.69886 -5.25207 0
M  V30 596 H 54.2905 2.37318 -3.69563 0
M  V30 597 H 54.8965 0.773307 -4.18211 0
M  V30 598 N 53.2116 1.57565 -0.0334293 0
M  V30 599 C 54.1436 2.0739 0.975811 0
M  V30 600 C 55.1566 0.998166 1.2861 0
M  V30 601 O 56.3456 1.27426 1.25 0
M  V30 602 C 53.4456 2.4871 2.30209 0
M  V30 603 C 52.6186 3.79413 2.17634 0
M  V30 604 C 51.6776 4.07237 3.33233 0
M  V30 605 O 50.7036 4.77425 3.09927 0
M  V30 606 N 51.9056 3.5775 4.5716 0
M  V30 607 H 54.6706 2.94598 0.55066 0
M  V30 608 H 52.2316 1.61173 0.15323 0
M  V30 609 H 54.2236 2.64413 3.06378 0
M  V30 610 H 52.7936 1.66845 2.64351 0
M  V30 611 H 52.0136 3.73465 1.26165 0
M  V30 612 H 53.3016 4.65038 2.0644 0
M  V30 613 H 52.6996 3.00976 4.78989 0
M  V30 614 H 51.2566 3.78724 5.30482 0
M  V30 615 N 54.6897 -0.239769 1.55765 0
M  V30 616 C 55.9197 -0.982743 1.8173 0
M  V30 617 C 56.3277 -1.7917 0.607835 0
M  V30 618 O 55.6707 -1.78525 -0.432973 0
M  V30 619 C 55.7327 -1.96332 3.01155 0
M  V30 620 C 55.3967 -1.34062 4.36894 0
M  V30 621 C 56.3937 -0.739539 5.14613 0
M  V30 622 C 54.0787 -1.35784 4.83599 0
M  V30 623 C 56.0727 -0.163989 6.37189 0
M  V30 624 C 53.7597 -0.778441 6.06122 0
M  V30 625 C 54.7577 -0.182548 6.82756 0
M  V30 626 O 54.4457 0.387887 8.02964 0
M  V30 627 H 54.1777 -0.294481 0.608487 0
M  V30 628 H 56.7317 -0.26572 2.03674 0
M  V30 629 H 54.9617 -2.71884 2.74984 0
M  V30 630 H 56.6507 -2.57032 3.14149 0
M  V30 631 H 57.4167 -0.718687 4.79646 0
M  V30 632 H 53.2957 -1.81105 4.23936 0
M  V30 633 H 56.8397 0.301753 6.96947 0
M  V30 634 H 52.7367 -0.796645 6.40565 0
M  V30 635 H 53.5047 0.28044 8.18019 0
M  V30 636 N 56.1678 -1.49265 -0.50573 0
M  V30 637 C 57.4148 -1.58513 -1.26015 0
M  V30 638 C 57.7428 -0.26972 -1.92621 0
M  V30 639 O 56.9978 0.741997 -1.81088 0
M  V30 640 C 57.2968 -2.69008 -2.35308 0
M  V30 641 C 56.9628 -4.10662 -1.86192 0
M  V30 642 C 55.6248 -4.49212 -1.72516 0
M  V30 643 C 57.9768 -4.99336 -1.49375 0
M  V30 644 C 55.3048 -5.74214 -1.20394 0
M  V30 645 C 57.6568 -6.24852 -0.987072 0
M  V30 646 C 56.3208 -6.62236 -0.836669 0
M  V30 647 H 55.5908 -0.580041 -0.461122 0
M  V30 648 H 58.2378 -1.83078 -0.561665 0
M  V30 649 H 56.5428 -2.38396 -3.10926 0
M  V30 650 H 58.2398 -2.73373 -2.93374 0
M  V30 651 H 54.8298 -3.8023 -1.97795 0
M  V30 652 H 59.0138 -4.70212 -1.5879 0
M  V30 653 H 54.2698 -6.01883 -1.07458 0
M  V30 654 H 58.4438 -6.92944 -0.692983 0
M  V30 655 H 56.0708 -7.58979 -0.430607 0
M  V30 656 N 57.6459 0.756429 -1.3826 0
M  V30 657 C 58.8739 1.54565 -1.3754 0
M  V30 658 C 59.2889 1.88767 0.0355331 0
M  V30 659 O 58.6459 1.52572 1.0014 0
M  V30 660 C 58.6969 2.84654 -2.22833 0
M  V30 661 O 58.4179 2.51912 -3.5843 0
M  V30 662 C 59.9189 3.78807 -2.30261 0
M  V30 663 H 57.1389 0.478353 -0.470553 0
M  V30 664 H 59.6829 0.936381 -1.81803 0
M  V30 665 H 57.8379 3.41965 -1.8204 0
M  V30 666 H 58.2519 3.35325 -4.03308 0
M  V30 667 H 59.7259 4.67045 -2.94233 0
M  V30 668 H 60.2029 4.19038 -1.31545 0
M  V30 669 H 60.8089 3.2742 -2.71433 0
M  V30 670 N 59.124 1.23083 0.984299 0
M  V30 671 C 60.072 1.00593 2.09723 0
M  V30 672 C 61.066 -0.0538014 1.69315 0
M  V30 673 O 62.272 0.0993719 1.79725 0
M  V30 674 H 58.647 0.30817 0.685956 0
M  V30 675 H 60.618 1.95012 2.2586 0
M  V30 676 C 59.367 0.609601 3.42314 0
M  V30 677 H 58.69 1.41675 3.73856 0
M  V30 678 H 60.13 0.491726 4.21139 0
M  V30 679 C 58.589 -0.681745 3.2993 0
M  V30 680 O 59.119 -1.73192 3.62446 0
M  V30 681 N 57.325 -0.656178 2.83095 0
M  V30 682 H 56.872 0.198759 2.56832 0
M  V30 683 H 56.83 -1.52044 2.75191 0
M  V30 684 N 60.6021 -1.18246 1.0419 0
M  V30 685 C 62.0181 -1.40269 0.761366 0
M  V30 686 C 62.2181 -1.90777 -0.648578 0
M  V30 687 O 61.2741 -2.0929 -1.41258 0
M  V30 688 C 62.5871 -2.40237 1.8085 0
M  V30 689 C 64.1351 -2.53961 1.82955 0
M  V30 690 C 64.6101 -3.57194 2.86664 0
M  V30 691 N 66.1011 -3.64702 2.85563 0
M  V30 692 C 66.8361 -4.44309 3.6246 0
M  V30 693 N 66.3321 -5.27514 4.49111 0
M  V30 694 N 68.1251 -4.39084 3.50944 0
M  V30 695 H 60.2761 -0.837882 1.95175 0
M  V30 696 H 62.5391 -0.430608 0.84456 0
M  V30 697 H 62.2451 -2.10176 2.81991 0
M  V30 698 H 62.1191 -3.39601 1.64168 0
M  V30 699 H 64.5061 -2.83338 0.824855 0
M  V30 700 H 64.5871 -1.54706 2.03715 0
M  V30 701 H 64.2311 -3.28558 3.87314 0
M  V30 702 H 64.1611 -4.5613 2.6316 0
M  V30 703 H 66.6521 -3.05289 2.22727 0
M  V30 704 H 66.9651 -5.85411 5.04493 0
M  V30 705 H 65.3101 -5.2693 4.53178 0
M  V30 706 H 68.5011 -3.7313 2.82651 0
M  V30 707 H 68.6741 -5.00883 4.11121 0
M  V30 708 N 62.0802 -0.821533 -1.34494 0
M  V30 709 C 63.0102 -0.257138 -2.3208 0
M  V30 710 C 63.9912 0.625645 -1.58176 0
M  V30 711 O 65.1762 0.552811 -1.86166 0
M  V30 712 C 62.3062 0.582958 -3.42372 0
M  V30 713 C 61.2602 -0.202571 -4.2752 0
M  V30 714 C 60.5862 0.760179 -5.29269 0
M  V30 715 C 61.8862 -1.40998 -5.02908 0
M  V30 716 H 63.5802 -1.07247 -2.79532 0
M  V30 717 H 61.1262 -0.517163 -1.34393 0
M  V30 718 H 63.0792 0.987972 -4.09655 0
M  V30 719 H 61.8032 1.43133 -2.93565 0
M  V30 720 H 60.4622 -0.588936 -3.61838 0
M  V30 721 H 60.1102 1.60447 -4.76724 0
M  V30 722 H 59.8102 0.238809 -5.87115 0
M  V30 723 H 61.3342 1.16308 -5.9942 0
M  V30 724 H 62.7482 -1.07905 -5.63054 0
M  V30 725 H 61.1452 -1.86689 -5.70322 0
M  V30 726 H 62.2152 -2.1889 -4.32684 0
M  V30 727 N 63.5583 1.46682 -0.576371 0
M  V30 728 C 64.8353 1.95599 0.00703437 0
M  V30 729 C 65.2153 1.51904 1.46589 0
M  V30 730 O 64.5633 0.766755 2.15251 0
M  V30 731 C 64.7733 3.4864 -0.158404 0
M  V30 732 C 66.1213 4.24594 -0.0229439 0
M  V30 733 O 67.1453 3.56094 -0.0869173 0
M  V30 734 O 66.0043 5.46373 0.118015 0
M  V30 735 H 63.0983 0.825275 0.053384 0
M  V30 736 H 65.6443 1.56996 -0.644244 0
M  V30 737 H 64.4163 3.7331 -1.17282 0
M  V30 738 H 64.0393 3.94057 0.5296 0
M  V30 739 N 65.0364 0.313813 1.54444 0
M  V30 740 C 65.9694 -0.598866 2.20202 0
M  V30 741 C 66.9474 -1.12318 1.17573 0
M  V30 742 O 68.1314 -1.18899 1.46271 0
M  V30 743 C 65.2584 -1.82071 2.85601 0
M  V30 744 C 64.3044 -1.42851 4.01865 0
M  V30 745 S 65.1374 -0.473512 5.33402 0
M  V30 746 C 66.2934 -1.70286 6.0229 0
M  V30 747 H 66.5264 -0.0402532 2.97273 0
M  V30 748 H 64.0594 0.0979165 1.54089 0
M  V30 749 H 66.0174 -2.52184 3.23904 0
M  V30 750 H 64.6784 -2.3505 2.08351 0
M  V30 751 H 63.8714 -2.33871 4.46453 0
M  V30 752 H 63.4734 -0.807198 3.65185 0
M  V30 753 H 65.7654 -2.64168 6.23876 0
M  V30 754 H 66.7084 -1.29932 6.96077 0
M  V30 755 H 67.1164 -1.88541 5.32083 0
M  V30 756 N 66.5145 -1.57545 0.0417849 0
M  V30 757 C 67.7395 -1.97035 -0.647455 0
M  V30 758 C 68.1645 -0.918775 -1.64135 0
M  V30 759 O 67.5225 0.119006 -1.80909 0
M  V30 760 C 67.5705 -3.35609 -1.31905 0
M  V30 761 O 66.6745 -3.3287 -2.43457 0
M  V30 762 H 66.0155 -0.64211 -0.169086 0
M  V30 763 H 68.5455 -2.04318 0.107399 0
M  V30 764 H 68.5555 -3.72126 -1.67291 0
M  V30 765 H 67.2305 -4.11685 -0.590586 0
M  V30 766 H 65.8075 -3.08087 -2.10088 0
M  V30 767 N 67.9926 0.231505 -1.5589 0
M  V30 768 C 68.9246 1.31006 -1.8807 0
M  V30 769 C 69.9376 1.43539 -0.768145 0
M  V30 770 O 71.1266 1.44614 -1.04638 0
M  V30 771 C 68.2266 2.68688 -2.06543 0
M  V30 772 C 67.3996 2.78228 -3.37502 0
M  V30 773 C 66.4586 3.96857 -3.4553 0
M  V30 774 O 65.4846 3.85662 -4.18633 0
M  V30 775 N 66.6866 5.1072 -2.75944 0
M  V30 776 H 69.4516 1.03731 -2.81176 0
M  V30 777 H 67.0126 0.421573 -1.56315 0
M  V30 778 H 69.0046 3.46412 -2.09239 0
M  V30 779 H 67.5746 2.88605 -1.20109 0
M  V30 780 H 66.7946 1.87059 -3.46991 0
M  V30 781 H 68.0826 2.81564 -4.23791 0
M  V30 782 H 67.4806 5.2271 -2.16311 0
M  V30 783 H 66.0376 5.86523 -2.84314 0
M  V30 784 N 69.4707 1.49531 0.497807 0
M  V30 785 C 70.4187 1.66926 1.61983 0
M  V30 786 C 71.4127 0.535167 1.60724 0
M  V30 787 O 72.6187 0.714896 1.65195 0
M  V30 788 H 68.9937 0.526415 0.537021 0
M  V30 789 H 70.9647 2.61098 1.44465 0
M  V30 790 C 69.7137 1.75602 3.00099 0
M  V30 791 H 69.0367 2.62244 3.01775 0
M  V30 792 H 70.4767 1.91807 3.78135 0
M  V30 793 C 68.9357 0.501543 3.33146 0
M  V30 794 O 69.4657 -0.371342 3.9998 0
M  V30 795 N 67.6717 0.363531 2.88317 0
M  V30 796 H 67.2187 1.07485 2.34104 0
M  V30 797 H 67.1767 -0.474728 3.10795 0
M  V30 798 N 70.9488 -0.749086 1.3866 0
M  V30 799 C 72.1948 -1.51056 1.35314 0
M  V30 800 C 72.5278 -1.94121 -0.0553751 0
M  V30 801 O 71.8028 -1.65763 -1.01749 0
M  V30 802 C 72.0858 -2.76003 2.31288 0
M  V30 803 C 71.9388 -2.39047 3.8102 0
M  V30 804 C 73.2578 -3.78046 2.2532 0
M  V30 805 H 70.3768 -0.547972 0.492844 0
M  V30 806 H 73.0188 -0.857628 1.69543 0
M  V30 807 H 71.1688 -3.31716 2.02229 0
M  V30 808 H 72.8408 -1.89074 4.20771 0
M  V30 809 H 71.0838 -1.71449 3.98482 0
M  V30 810 H 71.7548 -3.28462 4.4364 0
M  V30 811 H 74.2308 -3.31884 2.50983 0
M  V30 812 H 73.1068 -4.63159 2.94576 0
M  V30 813 H 73.3678 -4.23957 1.25352 0
M  V30 814 N 72.4269 -1.23603 -0.977757 0
M  V30 815 C 73.6519 -1.09735 -1.75991 0
M  V30 816 C 74.0769 0.346858 -1.84874 0
M  V30 817 O 73.4349 1.25093 -1.3123 0
M  V30 818 C 73.4829 -1.73051 -3.16363 0
M  V30 819 O 72.5869 -0.994452 -4.0023 0
M  V30 820 H 71.9279 -0.384476 -0.541364 0
M  V30 821 H 74.4579 -1.6371 -1.2272 0
M  V30 822 H 74.4679 -1.78398 -3.66931 0
M  V30 823 H 73.1429 -2.78137 -3.09213 0
M  V30 824 H 71.7199 -1.01812 -3.58732 0
M  V30 825 N 73.905 1.17692 -1.04816 0
M  V30 826 C 74.835 2.23777 -0.666791 0
M  V30 827 C 75.816 1.66796 0.33361 0
M  V30 828 O 77.001 1.93039 0.212042 0
M  V30 829 C 74.131 3.47281 -0.0367933 0
M  V30 830 C 73.085 4.17059 -0.961546 0
M  V30 831 C 72.411 5.34342 -0.195626 0
M  V30 832 C 73.711 4.69713 -2.28402 0
M  V30 833 H 75.405 2.55933 -1.55367 0
M  V30 834 H 72.951 1.23019 -0.748484 0
M  V30 835 H 74.904 4.20706 0.241775 0
M  V30 836 H 73.628 3.14381 0.885004 0
M  V30 837 H 72.287 3.45541 -1.22462 0
M  V30 838 H 71.935 4.97692 0.728816 0
M  V30 839 H 71.635 5.81966 -0.811775 0
M  V30 840 H 73.159 6.10553 0.0757473 0
M  V30 841 H 74.573 5.34794 -2.06563 0
M  V30 842 H 72.97 5.279 -2.8538 0
M  V30 843 H 74.04 3.86726 -2.92525 0
M  V30 844 N 75.3831 0.828654 1.34056 0
M  V30 845 C 76.6291 0.42008 1.98402 0
M  V30 846 C 76.9621 -1.01564 1.65525 0
M  V30 847 O 76.2371 -1.70834 0.929831 0
M  V30 848 C 76.5201 0.62927 3.54559 0
M  V30 849 C 76.3731 2.11152 3.97159 0
M  V30 850 C 77.6921 0.0688756 4.40046 0
M  V30 851 H 74.8111 0.154104 0.720709 0
M  V30 852 H 77.4531 1.04228 1.5886 0
M  V30 853 H 75.6031 0.0996418 3.88372 0
M  V30 854 H 77.2751 2.70522 3.73651 0
M  V30 855 H 75.5181 2.59985 3.47261 0
M  V30 856 H 76.1891 2.20868 5.05887 0
M  V30 857 H 78.6651 0.521458 4.1282 0
M  V30 858 H 77.5411 0.245006 5.48353 0
M  V30 859 H 77.8021 -1.0266 4.30015 0
M  V30 860 N 76.8612 -1.46375 0.584142 0
M  V30 861 C 78.0892 -2.06761 0.0759296 0
M  V30 862 C 78.5042 -1.43266 -1.22965 0
M  V30 863 O 77.8612 -0.538458 -1.74376 0
M  V30 864 C 77.9122 -3.61375 -0.0950384 0
M  V30 865 O 77.6332 -4.22495 1.15887 0
M  V30 866 C 79.1342 -4.38693 -0.637434 0
M  V30 867 H 76.3542 -0.668479 0.0581075 0
M  V30 868 H 78.8982 -1.8798 0.805218 0
M  V30 869 H 77.0532 -3.79578 -0.774554 0
M  V30 870 H 77.4672 -5.15385 0.973598 0
M  V30 871 H 78.9412 -5.47464 -0.706237 0
M  V30 872 H 79.4182 -4.06836 -1.65472 0
M  V30 873 H 80.0242 -4.25299 0.00725967 0
M  V30 874 N 78.3393 -0.321999 -1.54275 0
M  V30 875 C 79.3023 0.531975 -2.22941 0
M  V30 876 C 80.3023 1.04478 -1.22234 0
M  V30 877 O 81.4923 0.937452 -1.46825 0
M  V30 878 C 78.6243 1.73874 -2.93224 0
M  V30 879 H 79.8173 -0.0682612 -2.99822 0
M  V30 880 H 77.3703 -0.0730644 -1.56129 0
M  V30 881 H 78.1053 2.37825 -2.20476 0
M  V30 882 H 77.8903 1.37847 -3.6707 0
M  V30 883 H 79.3803 2.34496 -3.45545 0
M  V30 884 N 79.8174 1.5752 -0.0501392 0
M  V30 885 C 80.7274 2.14952 0.939827 0
M  V30 886 C 81.7434 1.10706 1.34239 0
M  V30 887 O 82.9194 1.42869 1.41952 0
M  V30 888 C 79.9844 2.68232 2.19665 0
M  V30 889 C 79.0454 3.87272 1.85253 0
M  V30 890 C 78.2784 4.38002 3.04943 0
M  V30 891 O 78.5014 3.87811 4.18281 0
M  V30 892 O 77.4354 5.29602 2.86017 0
M  V30 893 H 81.2614 2.9986 0.481392 0
M  V30 894 H 78.8464 1.4841 0.171699 0
M  V30 895 H 80.7284 3.02475 2.93406 0
M  V30 896 H 79.4034 1.86395 2.64648 0
M  V30 897 H 78.3104 3.5792 1.0883 0
M  V30 898 H 79.6434 4.70336 1.4507 0
M  V30 899 N 81.2955 -0.223234 1.56011 0
M  V30 900 C 82.2255 -1.27988 1.95298 0
M  V30 901 C 83.2065 -1.48976 0.820979 0
M  V30 902 O 84.3915 -1.61188 1.08315 0
M  V30 903 C 81.5215 -2.63 2.26822 0
M  V30 904 C 80.4755 -2.56671 3.42497 0
M  V30 905 C 79.8015 -3.95697 3.59622 0
M  V30 906 C 81.1015 -2.11601 4.77517 0
M  V30 907 H 82.7955 -0.953525 2.8381 0
M  V30 908 H 80.3415 -0.457244 1.36548 0
M  V30 909 H 82.2945 -3.37077 2.52898 0
M  V30 910 H 81.0185 -2.9732 1.35161 0
M  V30 911 H 79.6775 -1.85051 3.16467 0
M  V30 912 H 79.3255 -4.27322 2.6534 0
M  V30 913 H 79.0255 -3.92345 4.37424 0
M  V30 914 H 80.5495 -4.71438 3.88044 0
M  V30 915 H 81.9635 -2.7542 5.02809 0
M  V30 916 H 80.3605 -2.19311 5.5859 0
M  V30 917 H 81.4305 -1.06824 4.72987 0
M  V30 918 N 82.7736 -1.49793 -0.48987 0
M  V30 919 C 83.9986 -1.63836 -1.27172 0
M  V30 920 C 84.4236 -0.31402 -1.8546 0
M  V30 921 O 83.7816 0.719803 -1.66399 0
M  V30 922 C 83.8296 -2.71797 -2.36978 0
M  V30 923 O 82.9336 -2.31744 -3.41128 0
M  V30 924 H 82.2746 -0.547997 -0.37496 0
M  V30 925 H 84.8046 -1.96053 -0.585191 0
M  V30 926 H 84.8146 -2.94305 -2.82575 0
M  V30 927 H 83.4896 -3.67923 -1.93921 0
M  V30 928 H 82.0666 -2.1961 -3.01373 0
M  V30 929 N 84.2517 0.741722 -1.39055 0
M  V30 930 C 85.1987 1.85566 -1.37237 0
M  V30 931 C 86.1687 1.64457 -0.233072 0
M  V30 932 O 87.3537 1.85957 -0.427147 0
M  V30 933 C 84.4937 3.23004 -1.215 0
M  V30 934 C 83.6067 3.55864 -2.44918 0
M  V30 935 C 82.7417 4.82669 -2.21821 0
M  V30 936 C 81.7807 5.08351 -3.40948 0
M  V30 937 N 80.9177 6.26356 -3.17211 0
M  V30 938 H 85.7577 1.86455 -2.32462 0
M  V30 939 H 83.2947 0.911176 -1.15482 0
M  V30 940 H 85.2527 4.02331 -1.10389 0
M  V30 941 H 83.8827 3.21411 -0.29908 0
M  V30 942 H 82.9347 2.7129 -2.66657 0
M  V30 943 H 84.2467 3.70765 -3.33668 0
M  V30 944 H 83.4007 5.69962 -2.07914 0
M  V30 945 H 82.1397 4.69929 -1.30454 0
M  V30 946 H 81.1447 4.19522 -3.55361 0
M  V30 947 H 82.3697 5.22981 -4.33207 0
M  V30 948 H 80.3157 6.14917 -2.28502 0
M  V30 949 H 80.2327 6.41813 -3.99515 0
M  V30 950 H 81.5007 7.16506 -3.06984 0
M  V30 951 N 85.7298 1.2412 0.971189 0
M  V30 952 C 87.0068 0.986867 1.6888 0
M  V30 953 C 87.3868 -0.491857 2.0529 0
M  V30 954 O 86.7348 -1.46531 1.75331 0
M  V30 955 C 86.9448 1.9063 2.92338 0
M  V30 956 C 88.2928 2.17515 3.64654 0
M  V30 957 O 89.3168 1.88254 3.02388 0
M  V30 958 O 88.1758 2.6719 4.7673 0
M  V30 959 H 85.2698 0.372944 0.738134 0
M  V30 960 H 87.8158 1.35203 1.02559 0
M  V30 961 H 86.5878 2.90552 2.62097 0
M  V30 962 H 86.2108 1.54408 3.66393 0
M  V30 963 N 87.2079 -1.17134 1.05439 0
M  V30 964 C 88.1709 -2.19439 0.661764 0
M  V30 965 C 89.1709 -1.58199 -0.288042 0
M  V30 966 O 90.3609 -1.74053 -0.0715803 0
M  V30 967 C 87.4929 -3.40889 -0.0276209 0
M  V30 968 H 88.6859 -2.55688 1.56728 0
M  V30 969 H 86.2389 -1.31259 0.848567 0
M  V30 970 H 86.9739 -3.10187 -0.94629 0
M  V30 971 H 86.7589 -3.86586 0.655238 0
M  V30 972 H 88.2489 -4.16603 -0.288342 0
M  V30 973 N 88.686 -0.835752 -1.33615 0
M  V30 974 C 89.618 -0.224151 -2.28101 0
M  V30 975 C 90.631 0.593331 -1.51603 0
M  V30 976 O 91.82 0.420911 -1.73466 0
M  V30 977 C 88.92 0.703309 -3.31522 0
M  V30 978 C 88.093 -0.0741528 -4.37337 0
M  V30 979 C 87.152 0.776176 -5.20444 0
M  V30 980 O 86.178 0.216506 -5.68788 0
M  V30 981 N 87.38 2.09401 -5.41416 0
M  V30 982 H 90.145 -1.03598 -2.81225 0
M  V30 983 H 87.706 -0.69392 -1.46275 0
M  V30 984 H 89.698 1.27707 -3.84022 0
M  V30 985 H 88.268 1.41585 -2.78698 0
M  V30 986 H 87.488 -0.82928 -3.85378 0
M  V30 987 H 88.776 -0.608863 -5.05144 0
M  V30 988 H 88.174 2.57229 -5.03835 0
M  V30 989 H 86.731 2.61633 -5.96985 0
M  V30 990 N 90.1641 1.46063 -0.591896 0
M  V30 991 C 91.1271 2.28854 0.125973 0
M  V30 992 C 92.1271 1.38903 0.810107 0
M  V30 993 O 93.3171 1.61186 0.66066 0
M  V30 994 C 90.4491 3.19526 1.1881 0
M  V30 995 H 91.6421 2.93802 -0.601717 0
M  V30 996 H 89.1951 1.52325 -0.350254 0
M  V30 997 H 89.9301 2.59345 1.94707 0
M  V30 998 H 89.7151 3.85766 0.701936 0
M  V30 999 H 91.2051 3.81817 1.69132 0
M  V30 1000 N 91.6422 0.330177 1.54103 0
M  V30 1001 C 92.8672 -0.274893 2.0557 0
M  V30 1002 C 93.2922 -1.44487 1.20437 0
M  V30 1003 O 92.6502 -1.80021 0.214991 0
M  V30 1004 C 92.6982 -0.68079 3.54115 0
M  V30 1005 O 91.8022 -1.7824 3.71893 0
M  V30 1006 H 91.1432 -0.0483849 0.662235 0
M  V30 1007 H 93.6732 0.480508 1.98878 0
M  V30 1008 H 93.6832 -0.961635 3.96505 0
M  V30 1009 H 92.3582 0.174903 4.15532 0
M  V30 1010 H 90.9352 -1.49985 3.41407 0
M  V30 1011 N 93.1203 -1.57491 0.0584922 0
M  V30 1012 C 94.0833 -2.1085 -0.898617 0
M  V30 1013 C 95.0833 -1.02964 -1.23511 0
M  V30 1014 O 96.2733 -1.29007 -1.17059 0
M  V30 1015 C 93.4053 -2.59881 -2.20623 0
M  V30 1016 H 94.5983 -2.96715 -0.435936 0
M  V30 1017 H 92.1513 -1.55141 -0.190023 0
M  V30 1018 H 92.8863 -1.77431 -2.71457 0
M  V30 1019 H 92.6713 -3.38727 -1.97501 0
M  V30 1020 H 94.1613 -3.01285 -2.89166 0
M  V30 1021 N 94.5984 0.214957 -1.56127 0
M  V30 1022 C 95.5614 1.24997 -1.92116 0
M  V30 1023 C 96.5614 1.39467 -0.800344 0
M  V30 1024 O 97.7514 1.37619 -1.06802 0
M  V30 1025 C 94.8834 2.62271 -2.17777 0
M  V30 1026 H 96.0764 0.942875 -2.84693 0
M  V30 1027 H 93.6294 0.455654 -1.49511 0
M  V30 1028 H 94.3644 2.98068 -1.27773 0
M  V30 1029 H 94.1494 2.53143 -2.99434 0
M  V30 1030 H 95.6394 3.36946 -2.46693 0
M  V30 1031 N 96.0765 1.50051 0.48192 0
M  V30 1032 C 97.4875 1.5348 1.06305 0
M  V30 1033 C 97.8385 0.331997 1.93371 0
M  V30 1034 O 96.9635 -0.556256 2.09129 0
M  V30 1035 C 97.5585 2.7813 1.93466 0
M  V30 1036 C 96.1175 2.84275 2.46707 0
M  V30 1037 C 95.2645 2.47637 1.24785 0
M  V30 1038 H 98.2155 1.56472 0.264995 0
M  V30 1039 H 98.2365 2.59372 2.78399 0
M  V30 1040 H 97.7485 3.65654 1.30072 0
M  V30 1041 H 95.8495 2.01077 3.13686 0
M  V30 1042 H 95.9625 3.8691 2.82555 0
M  V30 1043 H 94.3265 1.99835 1.57918 0
M  V30 1044 H 95.1095 3.37457 0.630694 0
M  V30 1045 N 97.5546 -0.734337 1.39446 0
M  V30 1046 C 98.5176 -1.83004 1.37994 0
M  V30 1047 C 99.5176 -1.58397 0.276938 0
M  V30 1048 O 100.708 -1.65785 0.534875 0
M  V30 1049 C 97.8396 -3.20802 1.1532 0
M  V30 1050 H 99.0326 -1.85694 2.35494 0
M  V30 1051 H 96.5856 -0.938059 1.25021 0
M  V30 1052 H 97.3206 -3.23772 0.185036 0
M  V30 1053 H 97.1056 -3.4006 1.95197 0
M  V30 1054 H 98.5956 -4.00862 1.17046 0
M  V30 1055 N 99.0327 -1.24633 -0.964593 0
M  V30 1056 C 99.9957 -1.0424 -2.04124 0
M  V30 1057 C 100.996 0.00137563 -1.608 0
M  V30 1058 O 102.186 -0.239883 -1.7254 0
M  V30 1059 C 99.3177 -0.580588 -3.3592 0
M  V30 1060 H 100.511 -1.99803 -2.23649 0
M  V30 1061 H 98.0637 -1.06899 -1.14027 0
M  V30 1062 H 98.7987 0.3781 -3.22088 0
M  V30 1063 H 98.5837 -1.33398 -3.6871 0
M  V30 1064 H 100.074 -0.459034 -4.15069 0
M  V30 1065 N 100.511 1.16574 -1.06058 0
M  V30 1066 C 101.922 1.68662 -0.800632 0
M  V30 1067 C 102.273 1.84184 0.67608 0
M  V30 1068 O 101.398 1.53568 1.52466 0
M  V30 1069 C 101.993 3.06356 -1.44676 0
M  V30 1070 C 100.552 3.55575 -1.23465 0
M  V30 1071 C 99.6988 2.31616 -1.52477 0
M  V30 1072 H 102.65 1.00969 -1.22438 0
M  V30 1073 H 102.671 3.70636 -0.860788 0
M  V30 1074 H 102.183 2.95027 -2.52152 0
M  V30 1075 H 100.284 3.72167 -0.179527 0
M  V30 1076 H 100.397 4.37812 -1.94571 0
M  V30 1077 H 98.7608 2.36512 -0.945209 0
M  V30 1078 H 99.5438 2.22887 -2.61106 0
M  V30 1079 N 101.989 0.842826 1.3317 0
M  V30 1080 C 102.919 0.294028 2.31641 0
M  V30 1081 C 103.9 -0.600401 1.59151 0
M  V30 1082 O 105.085 -0.523124 1.87022 0
M  V30 1083 C 102.215 -0.528416 3.43257 0
M  V30 1084 C 101.169 0.27056 4.27144 0
M  V30 1085 C 100.495 -0.675881 5.30411 0
M  V30 1086 C 101.795 1.48981 5.00602 0
M  V30 1087 H 103.489 1.11681 2.77791 0
M  V30 1088 H 101.035 0.538478 1.33553 0
M  V30 1089 H 102.988 -0.922674 4.11175 0
M  V30 1090 H 101.712 -1.38445 2.95805 0
M  V30 1091 H 100.371 0.646427 3.60856 0
M  V30 1092 H 100.019 -1.52842 4.79216 0
M  V30 1093 H 99.7189 -0.145374 5.8742 0
M  V30 1094 H 101.243 -1.06757 6.01195 0
M  V30 1095 H 102.657 1.16849 5.61266 0
M  V30 1096 H 101.054 1.95739 5.6728 0
M  V30 1097 H 102.124 2.25746 4.29147 0
M  V30 1098 N 103.467 -1.45747 0.599634 0
M  V30 1099 C 104.878 -1.85853 0.177681 0
M  V30 1100 C 105.229 -1.50102 -1.26348 0
M  V30 1101 O 104.354 -0.923905 -1.95686 0
M  V30 1102 C 104.949 -3.37326 0.315688 0
M  V30 1103 C 103.508 -3.76365 -0.0515144 0
M  V30 1104 C 102.655 -2.69722 0.643822 0
M  V30 1105 H 105.606 -1.36661 0.806814 0
M  V30 1106 H 105.627 -3.77778 -0.454321 0
M  V30 1107 H 105.139 -3.63315 1.36468 0
M  V30 1108 H 103.24 -3.55993 -1.09999 0
M  V30 1109 H 103.353 -4.77916 0.336594 0
M  V30 1110 H 101.717 -2.54567 0.0822881 0
M  V30 1111 H 102.5 -2.98549 1.6948 0
M  V30 1112 N 104.945 -0.338344 -1.53925 0
M  V30 1113 C 105.855 0.529421 -2.28548 0
M  V30 1114 C 106.871 1.11645 -1.3346 0
M  V30 1115 O 108.047 1.13325 -1.66492 0
M  V30 1116 C 105.112 1.66713 -3.03987 0
M  V30 1117 C 104.173 1.11041 -4.14691 0
M  V30 1118 C 103.406 2.19389 -4.86522 0
M  V30 1119 O 103.629 3.40013 -4.57982 0
M  V30 1120 O 102.563 1.83976 -5.73094 0
M  V30 1121 H 106.389 -0.0770399 -3.03602 0
M  V30 1122 H 103.974 -0.103555 -1.49041 0
M  V30 1123 H 105.856 2.32918 -3.5118 0
M  V30 1124 H 104.531 2.25949 -2.31794 0
M  V30 1125 H 103.438 0.413024 -3.71813 0
M  V30 1126 H 104.771 0.562975 -4.8897 0
M  V30 1127 N 106.423 1.57458 -0.0668435 0
M  V30 1128 C 107.839 1.56947 0.289772 0
M  V30 1129 C 108.039 1.07584 1.70376 0
M  V30 1130 O 107.095 0.739486 2.41429 0
M  V30 1131 C 108.408 3.0052 0.103943 0
M  V30 1132 C 109.956 3.12517 0.173857 0
M  V30 1133 C 110.431 4.57997 0.0163682 0
M  V30 1134 N 111.922 4.63144 0.0721352 0
M  V30 1135 C 112.657 5.73394 -0.0253794 0
M  V30 1136 N 112.153 6.92576 -0.176133 0
M  V30 1137 N 113.946 5.62091 0.0313305 0
M  V30 1138 H 106.097 1.87863 -0.991027 0
M  V30 1139 H 108.36 0.86583 -0.38606 0
M  V30 1140 H 108.066 3.40729 -0.871572 0
M  V30 1141 H 107.94 3.67304 0.858366 0
M  V30 1142 H 110.327 2.72197 1.13985 0
M  V30 1143 H 110.408 2.48381 -0.611586 0
M  V30 1144 H 110.052 4.99005 -0.946374 0
M  V30 1145 H 109.982 5.20158 0.821153 0
M  V30 1146 H 112.473 3.77436 0.187263 0
M  V30 1147 H 112.786 7.72418 -0.242821 0
M  V30 1148 H 111.131 6.94678 -0.211429 0
M  V30 1149 H 114.322 4.67867 0.147773 0
M  V30 1150 H 114.495 6.47982 -0.048121 0
M  V30 1151 N 107.901 -0.206675 1.56239 0
M  V30 1152 C 108.849 -1.27571 1.94495 0
M  V30 1153 C 109.843 -1.47737 0.828862 0
M  V30 1154 O 111.049 -1.48735 1.0138 0
M  V30 1155 H 107.424 -0.428029 0.6183 0
M  V30 1156 H 109.395 -0.925961 2.8367 0
M  V30 1157 C 108.144 -2.61568 2.29079 0
M  V30 1158 H 107.467 -2.46863 3.14482 0
M  V30 1159 H 108.907 -3.35144 2.5972 0
M  V30 1160 C 107.366 -3.17695 1.12123 0
M  V30 1161 O 107.896 -3.99801 0.390153 0
M  V30 1162 N 106.102 -2.76276 0.901097 0
M  V30 1163 H 105.649 -2.09613 1.49733 0
M  V30 1164 H 105.607 -3.1417 0.120319 0
M  V30 1165 N 109.379 -1.50304 -0.473955 0
M  V30 1166 C 110.604 -1.65175 -1.25427 0
M  V30 1167 C 111.029 -0.333673 -1.85117 0
M  V30 1168 O 110.387 0.702114 -1.67153 0
M  V30 1169 C 110.435 -2.74295 -2.34082 0
M  V30 1170 O 109.539 -2.35349 -3.38651 0
M  V30 1171 H 108.88 -0.551944 -0.369126 0
M  V30 1172 H 111.41 -1.96662 -0.564364 0
M  V30 1173 H 111.42 -2.97285 -2.79438 0
M  V30 1174 H 110.095 -3.69959 -1.90008 0
M  V30 1175 H 108.672 -2.22794 -2.99027 0
M  V30 1176 N 110.857 0.726932 -1.39834 0
M  V30 1177 C 111.787 1.85405 -1.41941 0
M  V30 1178 C 112.768 1.67751 -0.281728 0
M  V30 1179 O 113.953 1.8795 -0.488717 0
M  V30 1180 C 111.083 3.23243 -1.2701 0
M  V30 1181 C 110.037 3.55549 -2.38262 0
M  V30 1182 C 109.363 4.9241 -2.08415 0
M  V30 1183 C 110.663 3.577 -3.80589 0
M  V30 1184 H 112.357 1.83899 -2.36266 0
M  V30 1185 H 109.903 0.883349 -1.13723 0
M  V30 1186 H 111.856 4.01775 -1.27103 0
M  V30 1187 H 110.58 3.25296 -0.291564 0
M  V30 1188 H 109.239 2.79351 -2.37399 0
M  V30 1189 H 108.887 4.91052 -1.0898 0
M  V30 1190 H 108.587 5.14992 -2.82943 0
M  V30 1191 H 110.111 5.73289 -2.10171 0
M  V30 1192 H 111.525 4.26293 -3.83337 0
M  V30 1193 H 109.922 3.91804 -4.54543 0
M  V30 1194 H 110.992 2.57328 -4.10987 0
M  V30 1195 N 112.336 1.25143 0.95797 0
M  V30 1196 C 113.561 1.12521 1.74223 0
M  V30 1197 C 113.986 -0.317402 1.85403 0
M  V30 1198 O 113.344 -1.2299 1.33204 0
M  V30 1199 C 113.392 1.78062 3.1357 0
M  V30 1200 O 112.496 1.058 3.98598 0
M  V30 1201 H 111.837 0.39304 0.535178 0
M  V30 1202 H 114.367 1.65641 1.201 0
M  V30 1203 H 114.377 1.84213 3.64046 0
M  V30 1204 H 113.052 2.83021 3.04749 0
M  V30 1205 H 111.629 1.07506 3.57067 0
M  V30 1206 N 113.814 -1.1601 1.06675 0
M  V30 1207 C 114.777 -2.18724 0.685001 0
M  V30 1208 C 115.777 -1.58496 -0.271246 0
M  V30 1209 O 116.967 -1.74119 -0.0531156 0
M  V30 1210 C 114.099 -3.40899 0.00853648 0
M  V30 1211 H 115.292 -2.54011 1.59431 0
M  V30 1212 H 112.845 -1.30352 0.862441 0
M  V30 1213 H 113.58 -3.11173 -0.913337 0
M  V30 1214 H 113.365 -3.8587 0.696204 0
M  V30 1215 H 114.855 -4.16886 -0.24414 0
M  V30 1216 N 115.292 -0.849877 -1.32721 0
M  V30 1217 C 116.541 -0.447175 -1.96681 0
M  V30 1218 C 116.854 1.00135 -1.68025 0
M  V30 1219 O 118.06 1.50926 -2.25685 0
M  V30 1220 C 116.516 -0.7487 -3.52026 0
M  V30 1221 C 116.124 -2.21264 -3.89546 0
M  V30 1222 C 117.868 -0.413487 -4.22481 0
M  V30 1223 C 115.775 -2.45763 -5.37917 0
M  V30 1224 H 114.705 -0.163486 -0.736063 0
M  V30 1225 H 117.356 -1.03999 -1.51183 0
M  V30 1226 H 115.738 -0.0853727 -3.95908 0
M  V30 1227 H 116.912 -2.91736 -3.56689 0
M  V30 1228 H 115.227 -2.5119 -3.32103 0
M  V30 1229 H 117.824 -0.574017 -5.3161 0
M  V30 1230 H 118.167 0.644492 -4.11281 0
M  V30 1231 H 118.7 -1.03251 -3.84167 0
M  V30 1232 H 115.439 -3.50168 -5.54132 0
M  V30 1233 H 114.959 -1.79864 -5.72197 0
M  V30 1234 H 116.638 -2.29471 -6.0494 0
M  V30 1235 N 116.77 1.45427 -0.607355 0
M  V30 1236 C 118.017 2.02241 -0.102455 0
M  V30 1237 C 118.345 1.4758 1.26691 0
M  V30 1238 O 117.6 0.640468 1.84923 0
M  V30 1239 C 117.899 3.57398 -0.0129263 0
M  V30 1240 C 117.565 4.3121 -1.31792 0
M  V30 1241 C 116.227 4.51092 -1.67539 0
M  V30 1242 C 118.579 4.73401 -2.18039 0
M  V30 1243 C 115.907 5.10422 -2.89285 0
M  V30 1244 C 118.259 5.34078 -3.39034 0
M  V30 1245 C 116.923 5.52184 -3.75033 0
M  V30 1246 H 116.193 0.740051 -0.037491 0
M  V30 1247 H 118.84 1.74494 -0.788926 0
M  V30 1248 H 117.145 3.84421 0.756806 0
M  V30 1249 H 118.842 3.99061 0.393881 0
M  V30 1250 H 115.432 4.16047 -1.02968 0
M  V30 1251 H 119.616 4.57774 -1.91721 0
M  V30 1252 H 114.872 5.22629 -3.17283 0
M  V30 1253 H 119.046 5.65724 -4.06115 0
M  V30 1254 H 116.673 5.97925 -4.69457 0
M  V30 1255 N 118.248 0.346503 1.53744 0
M  V30 1256 C 119.196 -0.52422 2.26616 0
M  V30 1257 C 120.19 -1.09948 1.28871 0
M  V30 1258 O 121.396 -1.04488 1.46568 0
M  V30 1259 H 117.771 -0.187743 0.728187 0
M  V30 1260 H 119.742 0.11239 2.98188 0
M  V30 1261 C 118.491 -1.66186 3.05414 0
M  V30 1262 H 117.814 -1.22848 3.80458 0
M  V30 1263 H 119.254 -2.24622 3.59612 0
M  V30 1264 C 117.713 -2.59302 2.1509 0
M  V30 1265 O 118.243 -3.61628 1.74895 0
M  V30 1266 N 116.449 -2.28055 1.8011 0
M  V30 1267 H 115.996 -1.44883 2.12994 0
M  V30 1268 H 115.954 -2.90615 1.19958 0
M  V30 1269 N 119.726 -1.57421 0.075193 0
M  V30 1270 C 120.674 -2.14124 -0.908508 0
M  V30 1271 C 121.668 -1.07898 -1.30592 0
M  V30 1272 O 122.874 -1.26273 -1.28277 0
M  V30 1273 H 119.249 -0.684707 -0.310935 0
M  V30 1274 H 121.22 -2.95634 -0.405374 0
M  V30 1275 C 119.969 -2.72044 -2.16535 0
M  V30 1276 H 119.292 -3.53456 -1.86839 0
M  V30 1277 H 120.732 -3.15311 -2.83469 0
M  V30 1278 C 119.191 -1.66968 -2.92615 0
M  V30 1279 O 119.721 -1.0967 -3.86439 0
M  V30 1280 N 117.927 -1.37923 -2.55784 0
M  V30 1281 H 117.474 -1.84706 -1.79559 0
M  V30 1282 H 117.432 -0.67852 -3.06991 0
M  V30 1283 N 121.204 0.198386 -1.56346 0
M  V30 1284 C 122.45 0.920648 -1.80698 0
M  V30 1285 C 122.783 1.83045 -0.648697 0
M  V30 1286 O 122.058 1.91308 0.350925 0
M  V30 1287 C 122.341 1.73971 -3.15287 0
M  V30 1288 C 122.194 0.85485 -4.41602 0
M  V30 1289 C 123.513 2.71296 -3.46535 0
M  V30 1290 H 120.632 0.333261 -0.657348 0
M  V30 1291 H 123.274 0.188198 -1.89066 0
M  V30 1292 H 121.424 2.36416 -3.08285 0
M  V30 1293 H 123.096 0.245362 -4.60647 0
M  V30 1294 H 121.339 0.161398 -4.335 0
M  V30 1295 H 122.01 1.46286 -5.32264 0
M  V30 1296 H 124.486 2.18983 -3.53816 0
M  V30 1297 H 123.362 3.2569 -4.41834 0
M  V30 1298 H 123.623 3.5018 -2.69864 0
M  V30 1299 N 122.682 1.50554 0.465978 0
M  V30 1300 C 123.615 1.64436 1.58227 0
M  V30 1301 C 124.593 0.492367 1.54966 0
M  V30 1302 O 125.777 0.712536 1.74514 0
M  V30 1303 C 122.904 1.63165 2.96808 0
M  V30 1304 C 121.95 2.83987 3.18204 0
M  V30 1305 S 122.783 4.45219 2.97557 0
M  V30 1306 C 123.939 4.46649 4.3847 0
M  V30 1307 H 124.172 2.58861 1.46213 0
M  V30 1308 H 121.705 1.3988 0.653678 0
M  V30 1309 H 123.663 1.63116 3.76701 0
M  V30 1310 H 122.324 0.69967 3.06208 0
M  V30 1311 H 121.517 2.79416 4.19455 0
M  V30 1312 H 121.119 2.81629 2.46092 0
M  V30 1313 H 123.411 4.20526 5.31191 0
M  V30 1314 H 124.354 5.48295 4.48082 0
M  V30 1315 H 124.762 3.76296 4.20787 0
M  V30 1316 N 124.16 -0.719506 1.40217 0
M  V30 1317 C 125.388 -1.50864 1.41589 0
M  V30 1318 C 125.803 -1.88794 0.0145275 0
M  V30 1319 O 125.16 -1.55174 -0.960594 0
M  V30 1320 C 125.211 -2.78646 2.30302 0
M  V30 1321 O 124.932 -2.42321 3.64983 0
M  V30 1322 C 126.433 -3.72569 2.40224 0
M  V30 1323 H 123.653 -0.465709 0.48307 0
M  V30 1324 H 126.197 -0.88785 1.84221 0
M  V30 1325 H 124.352 -3.37019 1.91042 0
M  V30 1326 H 124.766 -3.24514 4.12057 0
M  V30 1327 H 126.24 -4.5908 3.06512 0
M  V30 1328 H 126.717 -4.15403 1.42608 0
M  V30 1329 H 127.323 -3.20109 2.80019 0
M  V30 1330 N 125.638 -1.25649 -0.95132 0
M  V30 1331 C 126.568 -1.08808 -2.06599 0
M  V30 1332 C 127.549 0.00382547 -1.701 0
M  V30 1333 O 128.734 -0.166325 -1.93486 0
M  V30 1334 C 125.864 -0.709542 -3.39975 0
M  V30 1335 C 124.818 -1.75206 -3.90496 0
M  V30 1336 C 124.144 -1.22811 -5.20405 0
M  V30 1337 C 125.444 -3.15153 -4.16504 0
M  V30 1338 H 127.138 -2.02048 -2.20946 0
M  V30 1339 H 124.684 -0.972835 -1.06169 0
M  V30 1340 H 126.637 -0.578649 -4.17408 0
M  V30 1341 H 125.361 0.258556 -3.25575 0
M  V30 1342 H 124.02 -1.87145 -3.15234 0
M  V30 1343 H 123.668 -0.250145 -5.02378 0
M  V30 1344 H 123.368 -1.92492 -5.55176 0
M  V30 1345 H 124.892 -1.10968 -6.00432 0
M  V30 1346 H 126.306 -3.06349 -4.84586 0
M  V30 1347 H 124.703 -3.82333 -4.62538 0
M  V30 1348 H 125.773 -3.61966 -3.22658 0
M  V30 1349 N 127.117 1.15442 -1.07289 0
M  V30 1350 C 128.357 1.8788 -0.805012 0
M  V30 1351 C 128.721 1.80413 0.656907 0
M  V30 1352 O 129.922 2.47874 1.0398 0
M  V30 1353 C 128.193 3.3298 -1.29843 0
M  V30 1354 S 129.752 4.23158 -1.16114 0
M  V30 1355 H 126.57 0.64839 -0.291739 0
M  V30 1356 H 129.172 1.39285 -1.37186 0
M  V30 1357 H 127.876 3.35958 -2.35712 0
M  V30 1358 H 127.407 3.86629 -0.726767 0
M  V30 1359 H 129.422 4.96103 -0.0982778 0
M  V30 1360 N 128.595 0.856903 1.32268 0
M  V30 1361 C 129.558 0.308171 2.27119 0
M  V30 1362 C 130.558 -0.533421 1.51695 0
M  V30 1363 O 131.748 -0.344607 1.70757 0
M  V30 1364 C 128.88 -0.563757 3.36206 0
M  V30 1365 H 130.073 1.14535 2.77167 0
M  V30 1366 H 127.626 0.631421 1.42978 0
M  V30 1367 H 128.361 -1.42266 2.91429 0
M  V30 1368 H 128.146 0.0386749 3.92081 0
M  V30 1369 H 129.636 -0.940386 4.06874 0
M  V30 1370 N 130.073 -1.45103 0.615059 0
M  V30 1371 C 131.006 -2.27717 -0.148408 0
M  V30 1372 C 131.984 -1.37584 -0.866572 0
M  V30 1373 O 133.168 -1.67017 -0.87393 0
M  V30 1374 C 130.295 -3.16136 -1.21557 0
M  V30 1375 C 129.341 -4.22263 -0.599712 0
M  V30 1376 S 130.174 -5.3215 0.598081 0
M  V30 1377 C 131.33 -6.24137 -0.469484 0
M  V30 1378 H 131.563 -2.92121 0.552483 0
M  V30 1379 H 129.096 -1.49054 0.402778 0
M  V30 1380 H 131.054 -3.67633 -1.82638 0
M  V30 1381 H 129.715 -2.50982 -1.88857 0
M  V30 1382 H 128.908 -4.84081 -1.4029 0
M  V30 1383 H 128.51 -3.73945 -0.063876 0
M  V30 1384 H 130.802 -6.63984 -1.34652 0
M  V30 1385 H 131.745 -7.0801 0.112725 0
M  V30 1386 H 132.153 -5.58971 -0.788168 0
M  V30 1387 N 131.551 -0.354651 -1.53558 0
M  V30 1388 C 132.481 0.489091 -2.2832 0
M  V30 1389 C 133.462 1.09324 -1.30316 0
M  V30 1390 O 134.647 1.11255 -1.59173 0
M  V30 1391 C 131.777 1.63456 -3.0643 0
M  V30 1392 C 130.731 1.1582 -4.12031 0
M  V30 1393 C 130.057 2.39305 -4.7816 0
M  V30 1394 C 131.357 0.250731 -5.21698 0
M  V30 1395 H 133.051 -0.134614 -2.99097 0
M  V30 1396 H 130.597 -0.0661826 -1.43848 0
M  V30 1397 H 132.55 2.23136 -3.57475 0
M  V30 1398 H 131.274 2.28533 -2.33325 0
M  V30 1399 H 129.933 0.584146 -3.61916 0
M  V30 1400 H 129.581 3.02814 -4.01637 0
M  V30 1401 H 129.281 2.08109 -5.49513 0
M  V30 1402 H 130.805 2.99691 -5.31994 0
M  V30 1403 H 132.219 0.754695 -5.68311 0
M  V30 1404 H 130.616 0.0301468 -6.00092 0
M  V30 1405 H 131.686 -0.710125 -4.79672 0
M  V30 1406 N 133.029 1.57378 -0.0835403 0
M  V30 1407 C 134.44 1.81261 0.447358 0
M  V30 1408 C 134.791 0.998331 1.68902 0
M  V30 1409 O 133.916 0.224282 2.15235 0
M  V30 1410 C 134.511 3.28767 0.818386 0
M  V30 1411 C 133.07 3.53455 1.29409 0
M  V30 1412 C 132.217 2.75831 0.285024 0
M  V30 1413 H 135.168 1.5566 -0.309115 0
M  V30 1414 H 135.189 3.41459 1.67887 0
M  V30 1415 H 134.701 3.88006 -0.0855019 0
M  V30 1416 H 132.802 2.99534 2.21608 0
M  V30 1417 H 132.915 4.62128 1.2639 0
M  V30 1418 H 131.279 2.42947 0.764767 0
M  V30 1419 H 132.062 3.37813 -0.611341 0
M  V30 1420 N 134.507 -0.190092 1.56449 0
M  V30 1421 C 135.437 -1.23816 1.97969 0
M  V30 1422 C 136.418 -1.47201 0.852395 0
M  V30 1423 O 137.603 -1.58854 1.1171 0
M  V30 1424 C 134.733 -2.5813 2.3235 0
M  V30 1425 C 133.687 -2.49348 3.47864 0
M  V30 1426 C 133.013 -3.8798 3.67934 0
M  V30 1427 C 134.313 -2.01424 4.81898 0
M  V30 1428 H 136.007 -0.89311 2.85769 0
M  V30 1429 H 133.553 -0.428177 1.37487 0
M  V30 1430 H 135.506 -3.31637 2.59991 0
M  V30 1431 H 134.23 -2.94386 1.41438 0
M  V30 1432 H 132.889 -1.78297 3.20321 0
M  V30 1433 H 132.537 -4.21597 2.74344 0
M  V30 1434 H 132.237 -3.82978 4.45648 0
M  V30 1435 H 133.761 -4.63101 3.97957 0
M  V30 1436 H 135.175 -2.64693 5.08538 0
M  V30 1437 H 133.572 -2.07413 5.63116 0
M  V30 1438 H 134.642 -0.967677 4.75146 0
M  V30 1439 N 135.985 -1.50799 -0.457987 0
M  V30 1440 C 136.915 -1.73553 -1.5621 0
M  V30 1441 C 137.896 -0.584774 -1.59732 0
M  V30 1442 O 139.081 -0.825314 -1.7579 0
M  V30 1443 C 136.211 -1.84169 -2.94447 0
M  V30 1444 C 135.165 -2.99461 -3.0579 0
M  V30 1445 C 134.491 -2.95235 -4.45803 0
M  V30 1446 C 135.791 -4.39766 -2.81786 0
M  V30 1447 H 137.485 -2.66 -1.37421 0
M  V30 1448 H 135.031 -1.28002 -0.659662 0
M  V30 1449 H 136.984 -1.98672 -3.71628 0
M  V30 1450 H 135.708 -0.883545 -3.14422 0
M  V30 1451 H 134.367 -2.8463 -2.31044 0
M  V30 1452 H 134.015 -1.97239 -4.62715 0
M  V30 1453 H 133.715 -3.72642 -4.54326 0
M  V30 1454 H 135.239 -3.11803 -5.24987 0
M  V30 1455 H 136.653 -4.55054 -3.4871 0
M  V30 1456 H 135.05 -5.18722 -3.0174 0
M  V30 1457 H 136.12 -4.51229 -1.7754 0
M  V30 1458 N 137.463 0.71206 -1.40597 0
M  V30 1459 C 138.393 1.83889 -1.43899 0
M  V30 1460 C 139.374 1.67442 -0.299504 0
M  V30 1461 O 140.559 1.87421 -0.508624 0
M  V30 1462 C 137.689 3.21877 -1.30431 0
M  V30 1463 C 136.643 3.53002 -2.42019 0
M  V30 1464 C 135.969 4.90172 -2.13626 0
M  V30 1465 C 137.269 3.53643 -3.84362 0
M  V30 1466 H 138.963 1.81383 -2.38203 0
M  V30 1467 H 136.509 0.871237 -1.14654 0
M  V30 1468 H 138.462 4.00404 -1.31357 0
M  V30 1469 H 137.186 3.24968 -0.326049 0
M  V30 1470 H 135.845 2.76818 -2.40349 0
M  V30 1471 H 135.493 4.89869 -1.14182 0
M  V30 1472 H 135.193 5.11962 -2.88389 0
M  V30 1473 H 136.717 5.71028 -2.1624 0
M  V30 1474 H 138.131 4.22203 -3.87837 0
M  V30 1475 H 136.528 3.86961 -4.58673 0
M  V30 1476 H 137.598 2.52954 -4.13693 0
M  V30 1477 N 138.941 1.26152 0.944643 0
M  V30 1478 C 140.188 1.11492 1.69044 0
M  V30 1479 C 140.516 -0.342366 1.91463 0
M  V30 1480 O 139.771 -1.26812 1.49054 0
M  V30 1481 C 140.07 1.82541 3.07268 0
M  V30 1482 C 139.736 3.32445 3.04616 0
M  V30 1483 C 138.398 3.73337 3.036 0
M  V30 1484 C 140.75 4.28171 2.97185 0
M  V30 1485 C 138.078 5.08348 2.92915 0
M  V30 1486 C 140.43 5.63218 2.88041 0
M  V30 1487 C 139.094 6.03426 2.85366 0
M  V30 1488 H 138.364 0.407977 0.618576 0
M  V30 1489 H 141.011 1.56551 1.10291 0
M  V30 1490 H 139.316 1.29941 3.69625 0
M  V30 1491 H 141.013 1.68642 3.63815 0
M  V30 1492 H 137.603 2.99915 3.06185 0
M  V30 1493 H 141.787 3.97563 2.97081 0
M  V30 1494 H 137.043 5.38667 2.89219 0
M  V30 1495 H 141.217 6.37078 2.81254 0
M  V30 1496 H 138.844 7.07999 2.76842 0
M  V30 1497 N 140.419 -1.14872 1.07899 0
M  V30 1498 C 141.647 -1.89661 0.82683 0
M  V30 1499 C 142.062 -1.78312 -0.620519 0
M  V30 1500 O 141.419 -1.13888 -1.42604 0
M  V30 1501 C 141.47 -3.39817 1.23316 0
M  V30 1502 O 141.191 -3.50845 2.62372 0
M  V30 1503 C 142.692 -4.31615 1.0111 0
M  V30 1504 H 139.912 -0.60092 0.298557 0
M  V30 1505 H 142.456 -1.4551 1.43691 0
M  V30 1506 H 140.611 -3.8161 0.667286 0
M  V30 1507 H 141.025 -4.44076 2.79101 0
M  V30 1508 H 142.499 -5.35367 1.34486 0
M  V30 1509 H 142.976 -4.39169 -0.0522168 0
M  V30 1510 H 143.582 -3.95572 1.56215 0
M  V30 1511 N 141.898 -0.863906 -1.31812 0
M  V30 1512 C 143.128 -0.485406 -2.00817 0
M  V30 1513 C 143.536 0.925007 -1.65046 0
M  V30 1514 O 142.879 1.61653 -0.872574 0
M  V30 1515 C 142.941 -0.555589 -3.55181 0
M  V30 1516 C 142.605 -1.92654 -4.14407 0
M  V30 1517 C 143.602 -2.89324 -4.31958 0
M  V30 1518 C 141.287 -2.2262 -4.50273 0
M  V30 1519 C 143.281 -4.14108 -4.84555 0
M  V30 1520 C 140.968 -3.47654 -5.02573 0
M  V30 1521 C 141.966 -4.43214 -5.19664 0
M  V30 1522 O 141.654 -5.66033 -5.70843 0
M  V30 1523 H 141.386 -0.188224 -0.649267 0
M  V30 1524 H 143.94 -1.16514 -1.69156 0
M  V30 1525 H 142.17 0.181037 -3.86276 0
M  V30 1526 H 143.859 -0.19138 -4.05449 0
M  V30 1527 H 144.625 -2.6748 -4.04573 0
M  V30 1528 H 140.504 -1.4902 -4.3625 0
M  V30 1529 H 144.048 -4.88703 -4.9781 0
M  V30 1530 H 139.945 -3.69345 -5.29391 0
M  V30 1531 H 140.713 -5.6812 -5.89222 0
M  V30 1532 N 143.376 1.44774 -0.622745 0
M  V30 1533 C 144.306 2.33382 0.0741861 0
M  V30 1534 C 145.287 1.47719 0.843387 0
M  V30 1535 O 146.472 1.76458 0.810934 0
M  V30 1536 C 143.602 3.30663 1.06204 0
M  V30 1537 C 142.556 4.26079 0.405037 0
M  V30 1538 C 141.882 5.13165 1.5022 0
M  V30 1539 C 143.182 5.1781 -0.683414 0
M  V30 1540 H 144.876 2.91905 -0.665713 0
M  V30 1541 H 142.422 1.40363 -0.321587 0
M  V30 1542 H 144.375 3.9153 1.55827 0
M  V30 1543 H 143.099 2.70331 1.83272 0
M  V30 1544 H 141.758 3.66532 -0.0704683 0
M  V30 1545 H 141.406 4.49191 2.26355 0
M  V30 1546 H 141.106 5.77812 1.06803 0
M  V30 1547 H 142.63 5.76902 2.00041 0
M  V30 1548 H 144.044 5.72661 -0.270631 0
M  V30 1549 H 142.441 5.91015 -1.04023 0
M  V30 1550 H 143.511 4.59326 -1.55395 0
M  V30 1551 N 144.854 0.36279 1.53368 0
M  V30 1552 C 145.802 -0.500155 2.27159 0
M  V30 1553 C 146.796 -1.08575 1.3003 0
M  V30 1554 O 148.002 -1.02927 1.47668 0
M  V30 1555 H 144.377 -0.180009 0.730138 0
M  V30 1556 H 146.348 0.14401 2.98052 0
M  V30 1557 C 145.097 -1.62937 3.07159 0
M  V30 1558 H 144.42 -1.18806 3.8174 0
M  V30 1559 H 145.86 -2.20795 3.61975 0
M  V30 1560 C 144.319 -2.57007 2.17829 0
M  V30 1561 O 144.849 -3.59752 1.78721 0
M  V30 1562 N 143.055 -2.26131 1.82518 0
M  V30 1563 H 142.602 -1.42616 2.14519 0
M  V30 1564 H 142.56 -2.89327 1.23034 0
M  V30 1565 N 146.332 -1.57332 0.0918853 0
M  V30 1566 C 147.557 -1.98995 -0.584442 0
M  V30 1567 C 147.982 -0.970528 -1.61128 0
M  V30 1568 O 147.34 0.0613904 -1.81196 0
M  V30 1569 C 147.388 -3.39636 -1.21161 0
M  V30 1570 O 146.492 -3.40447 -2.32744 0
M  V30 1571 H 145.833 -0.647165 -0.148572 0
M  V30 1572 H 148.363 -2.03873 0.172347 0
M  V30 1573 H 148.373 -3.7726 -1.55367 0
M  V30 1574 H 147.048 -4.13356 -0.459313 0
M  V30 1575 H 145.625 -3.14614 -2.0018 0
M  V30 1576 N 147.81 0.181792 -1.56548 0
M  V30 1577 C 149.057 0.900097 -1.81396 0
M  V30 1578 C 149.385 1.82695 -0.667281 0
M  V30 1579 O 148.64 1.92614 0.346146 0
M  V30 1580 C 148.939 1.73728 -3.12335 0
M  V30 1581 C 148.605 0.960255 -4.40556 0
M  V30 1582 C 147.267 0.745766 -4.75386 0
M  V30 1583 C 149.619 0.414477 -5.19549 0
M  V30 1584 C 146.947 -0.0257694 -5.86694 0
M  V30 1585 C 149.299 -0.343916 -6.31664 0
M  V30 1586 C 147.963 -0.569301 -6.65068 0
M  V30 1587 H 147.233 0.329369 -0.663775 0
M  V30 1588 H 149.88 0.165647 -1.90782 0
M  V30 1589 H 148.185 2.54081 -2.98245 0
M  V30 1590 H 149.882 2.29591 -3.28769 0
M  V30 1591 H 146.472 1.13746 -4.13231 0
M  V30 1592 H 150.656 0.567554 -4.93044 0
M  V30 1593 H 145.912 -0.210233 -6.11038 0
M  V30 1594 H 150.086 -0.774133 -6.92084 0
M  V30 1595 H 147.713 -1.16903 -7.51158 0
M  V30 1596 N 149.288 1.51039 0.449983 0
M  V30 1597 C 150.218 1.74379 1.55288 0
M  V30 1598 C 151.199 0.593236 1.5942 0
M  V30 1599 O 152.384 0.834625 1.7535 0
M  V30 1600 C 149.514 1.85728 2.93466 0
M  V30 1601 C 148.468 3.01078 3.04197 0
M  V30 1602 C 147.794 2.97595 4.44231 0
M  V30 1603 C 149.094 4.41254 2.7945 0
M  V30 1604 H 150.788 2.66725 1.36008 0
M  V30 1605 H 148.334 1.2835 0.652864 0
M  V30 1606 H 150.287 2.0064 3.70569 0
M  V30 1607 H 149.011 0.900207 3.13949 0
M  V30 1608 H 147.67 2.85851 2.29531 0
M  V30 1609 H 147.318 1.99691 4.61663 0
M  V30 1610 H 147.018 3.75046 4.52343 0
M  V30 1611 H 148.542 3.14583 5.23326 0
M  V30 1612 H 149.956 4.56897 3.46292 0
M  V30 1613 H 148.353 5.20315 2.98985 0
M  V30 1614 H 149.423 4.52164 1.75144 0
M  V30 1615 N 150.766 -0.704594 1.40972 0
M  V30 1616 C 151.716 -1.81051 1.38581 0
M  V30 1617 C 152.7 -1.58759 0.261585 0
M  V30 1618 O 153.892 -1.69745 0.501556 0
M  V30 1619 C 151.021 -3.19279 1.26157 0
M  V30 1620 C 150.107 -3.47296 2.43405 0
M  V30 1621 N 150.498 -3.46064 3.68881 0
M  V30 1622 C 148.796 -3.77804 2.37023 0
M  V30 1623 C 149.497 -3.72733 4.46592 0
M  V30 1624 N 148.473 -3.9203 3.76581 0
M  V30 1625 H 152.275 -1.78448 2.33525 0
M  V30 1626 H 149.789 -0.904198 1.349 0
M  V30 1627 H 151.786 -3.98488 1.22526 0
M  V30 1628 H 150.446 -3.231 0.321902 0
M  V30 1629 H 151.457 -3.26656 4.01891 0
M  V30 1630 H 148.134 -3.8905 1.51481 0
M  V30 1631 H 149.524 -3.77993 5.55492 0
M  V30 1632 N 152.244 -1.26651 -0.937939 0
M  V30 1633 C 153.176 -1.04283 -2.04102 0
M  V30 1634 C 154.189 -0.00221014 -1.628 0
M  V30 1635 O 155.378 -0.242645 -1.76843 0
M  V30 1636 C 152.478 -0.557846 -3.34277 0
M  V30 1637 C 151.651 -1.66843 -4.04329 0
M  V30 1638 C 150.71 -1.18095 -5.12777 0
M  V30 1639 O 149.736 -1.87865 -5.37304 0
M  V30 1640 N 150.938 -0.0311006 -5.80492 0
M  V30 1641 H 153.703 -1.9927 -2.23856 0
M  V30 1642 H 151.264 -1.1808 -1.10764 0
M  V30 1643 H 153.256 -0.215836 -4.04124 0
M  V30 1644 H 151.826 0.298523 -3.11171 0
M  V30 1645 H 151.046 -2.18123 -3.28353 0
M  V30 1646 H 152.334 -2.41408 -4.47883 0
M  V30 1647 H 151.732 0.551486 -5.63005 0
M  V30 1648 H 150.289 0.251809 -6.51313 0
M  V30 1649 N 153.722 1.14298 -1.08507 0
M  V30 1650 C 155.138 1.37347 -0.812901 0
M  V30 1651 C 155.338 1.93052 0.577325 0
M  V30 1652 O 154.394 2.14389 1.33393 0
M  V30 1653 C 155.707 2.33359 -1.89642 0
M  V30 1654 C 157.255 2.46996 -1.92255 0
M  V30 1655 C 157.73 3.46309 -2.99724 0
M  V30 1656 N 159.221 3.53853 -2.98902 0
M  V30 1657 C 159.956 4.3055 -3.787 0
M  V30 1658 N 159.452 5.10482 -4.6838 0
M  V30 1659 N 161.245 4.25757 -3.66998 0
M  V30 1660 H 153.396 0.764867 -1.9815 0
M  V30 1661 H 155.659 0.398966 -0.859959 0
M  V30 1662 H 155.365 1.99565 -2.89597 0
M  V30 1663 H 155.239 3.33274 -1.76659 0
M  V30 1664 H 157.626 2.80081 -0.929445 0
M  V30 1665 H 157.707 1.47039 -2.09316 0
M  V30 1666 H 157.351 3.13957 -3.99241 0
M  V30 1667 H 157.281 4.46049 -2.79907 0
M  V30 1668 H 159.772 2.96812 -2.33904 0
M  V30 1669 H 160.085 5.66284 -5.25873 0
M  V30 1670 H 158.43 5.09747 -4.72422 0
M  V30 1671 H 161.621 3.62383 -2.96304 0
M  V30 1672 H 161.794 4.85279 -4.29427 0
M  V30 1673 N 155.201 0.870884 1.31352 0
M  V30 1674 C 156.45 0.478408 1.95944 0
M  V30 1675 C 156.763 -0.974493 1.69597 0
M  V30 1676 O 157.969 -1.47316 2.28058 0
M  V30 1677 C 156.425 0.804609 3.50791 0
M  V30 1678 C 156.033 2.27433 3.85977 0
M  V30 1679 C 157.777 0.480648 4.2177 0
M  V30 1680 C 155.684 2.5429 5.33939 0
M  V30 1681 H 154.614 0.175175 0.733369 0
M  V30 1682 H 157.265 1.06391 1.4951 0
M  V30 1683 H 155.647 0.148347 3.95722 0
M  V30 1684 H 156.821 2.97373 3.52002 0
M  V30 1685 H 155.136 2.56442 3.28065 0
M  V30 1686 H 157.733 0.658519 5.30629 0
M  V30 1687 H 158.076 -0.578979 4.12254 0
M  V30 1688 H 158.609 1.09349 3.82476 0
M  V30 1689 H 155.348 3.58939 5.48491 0
M  V30 1690 H 154.868 1.88945 5.69263 0
M  V30 1691 H 156.547 2.39066 6.01212 0
M  V30 1692 N 156.679 -1.44442 0.630414 0
M  V30 1693 C 158.09 -1.85434 0.217063 0
M  V30 1694 C 158.441 -1.52748 -1.23136 0
M  V30 1695 O 157.566 -0.965205 -1.93682 0
M  V30 1696 C 158.161 -3.36581 0.387168 0
M  V30 1697 C 156.72 -3.76389 0.0283297 0
M  V30 1698 C 155.867 -2.68296 0.700889 0
M  V30 1699 H 158.818 -1.34919 0.83562 0
M  V30 1700 H 158.839 -3.78657 -0.374086 0
M  V30 1701 H 158.351 -3.60339 1.44144 0
M  V30 1702 H 156.452 -3.58246 -1.02423 0
M  V30 1703 H 156.565 -4.77095 0.437892 0
M  V30 1704 H 154.929 -2.54335 0.136267 0
M  V30 1705 H 155.712 -2.94887 1.75774 0
M  V30 1706 N 158.157 -0.370918 -1.53173 0
M  V30 1707 C 159.089 0.507823 -2.23503 0
M  V30 1708 C 160.102 1.04182 -1.251 0
M  V30 1709 O 161.291 0.947286 -1.5129 0
M  V30 1710 C 158.391 1.71447 -2.92334 0
M  V30 1711 C 157.564 1.31105 -4.17289 0
M  V30 1712 C 156.623 2.38035 -4.69282 0
M  V30 1713 O 155.649 2.00204 -5.32829 0
M  V30 1714 N 156.851 3.69697 -4.47554 0
M  V30 1715 H 159.616 -0.0946382 -2.99551 0
M  V30 1716 H 157.177 -0.196358 -1.60705 0
M  V30 1717 H 159.169 2.42469 -3.24023 0
M  V30 1718 H 157.739 2.22368 -2.19707 0
M  V30 1719 H 156.959 0.430462 -3.91843 0
M  V30 1720 H 158.247 1.0179 -4.98514 0
M  V30 1721 H 157.645 4.03205 -3.9679 0
M  V30 1722 H 156.202 4.36807 -4.8378 0
M  V30 1723 N 159.635 1.57281 -0.100228 0
M  V30 1724 C 160.86 1.99302 0.573881 0
M  V30 1725 C 161.285 0.979059 1.60611 0
M  V30 1726 O 160.643 -0.0517803 1.81226 0
M  V30 1727 C 160.691 3.40274 1.19358 0
M  V30 1728 O 159.795 3.41676 2.30935 0
M  V30 1729 H 159.136 0.647944 0.145138 0
M  V30 1730 H 161.666 2.03779 -0.183156 0
M  V30 1731 H 161.676 3.78078 1.53365 0
M  V30 1732 H 160.351 4.13594 0.437385 0
M  V30 1733 H 158.928 3.15672 1.98509 0
M  V30 1734 N 161.113 -0.173488 1.56642 0
M  V30 1735 C 162.359 -0.891784 1.8214 0
M  V30 1736 C 162.692 -1.8199 0.677736 0
M  V30 1737 O 161.967 -1.91842 -0.320446 0
M  V30 1738 C 162.25 -1.68933 3.18015 0
M  V30 1739 C 162.103 -0.784487 4.42906 0
M  V30 1740 C 163.422 -2.65748 3.50808 0
M  V30 1741 H 160.541 -0.322761 0.662567 0
M  V30 1742 H 163.183 -0.158095 1.89341 0
M  V30 1743 H 161.333 -2.31482 3.12007 0
M  V30 1744 H 163.005 -0.172046 4.60979 0
M  V30 1745 H 161.248 -0.0924117 4.33702 0
M  V30 1746 H 161.919 -1.37799 5.34524 0
M  V30 1747 H 164.395 -2.13327 3.57255 0
M  V30 1748 H 163.271 -3.18619 4.4696 0
M  V30 1749 H 163.532 -3.45842 2.75401 0
M  V30 1750 N 162.591 -1.51276 -0.441967 0
M  V30 1751 C 164.007 -1.39349 -0.778083 0
M  V30 1752 C 164.207 -0.472212 -1.95889 0
M  V30 1753 O 163.263 0.0743551 -2.5239 0
M  V30 1754 C 164.576 -2.81292 -1.0628 0
M  V30 1755 C 166.124 -2.9041 -1.16751 0
M  V30 1756 C 166.599 -4.33251 -1.48519 0
M  V30 1757 N 168.09 -4.36336 -1.55453 0
M  V30 1758 C 168.825 -5.43885 -1.81596 0
M  V30 1759 N 168.321 -6.61601 -2.05562 0
M  V30 1760 N 170.114 -5.3136 -1.8334 0
M  V30 1761 H 162.265 -2.09729 0.335774 0
M  V30 1762 H 164.528 -0.943925 0.0878028 0
M  V30 1763 H 164.234 -3.50678 -0.267905 0
M  V30 1764 H 164.108 -3.20334 -1.99163 0
M  V30 1765 H 166.495 -2.21225 -1.95304 0
M  V30 1766 H 166.576 -2.54871 -0.217801 0
M  V30 1767 H 166.22 -5.02984 -0.704958 0
M  V30 1768 H 166.15 -4.66299 -2.44689 0
M  V30 1769 H 168.641 -3.51466 -1.38853 0
M  V30 1770 H 168.954 -7.39361 -2.24867 0
M  V30 1771 H 167.299 -6.64725 -2.02894 0
M  V30 1772 H 170.49 -4.38382 -1.64132 0
M  V30 1773 H 170.663 -6.15258 -2.03377 0
M  V30 1774 N 164.069 0.697108 -1.41344 0
M  V30 1775 C 165.318 1.45279 -1.39918 0
M  V30 1776 C 165.631 1.95597 -0.0109624 0
M  V30 1777 O 166.837 2.71208 0.125919 0
M  V30 1778 C 165.293 2.62695 -2.46007 0
M  V30 1779 C 164.901 2.19169 -3.90729 0
M  V30 1780 C 166.645 3.40336 -2.53715 0
M  V30 1781 C 164.552 3.33535 -4.88373 0
M  V30 1782 H 163.482 0.545692 -0.520323 0
M  V30 1783 H 166.133 0.756929 -1.67161 0
M  V30 1784 H 164.515 3.34541 -2.11892 0
M  V30 1785 H 165.689 1.54623 -4.34083 0
M  V30 1786 H 164.004 1.54525 -3.86666 0
M  V30 1787 H 166.601 4.2547 -3.2385 0
M  V30 1788 H 166.944 3.85418 -1.5735 0
M  V30 1789 H 167.477 2.75546 -2.86913 0
M  V30 1790 H 164.216 2.93468 -5.86137 0
M  V30 1791 H 163.736 3.96936 -4.49668 0
M  V30 1792 H 165.415 3.99335 -5.09059 0
M  V30 1793 N 165.547 1.27147 0.931209 0
M  V30 1794 C 166.477 1.12081 2.04842 0
M  V30 1795 C 167.458 0.0232364 1.70084 0
M  V30 1796 O 168.643 0.197085 1.93197 0
M  V30 1797 C 165.773 0.76354 3.38803 0
M  V30 1798 C 164.727 1.81396 3.87659 0
M  V30 1799 C 164.053 1.31075 5.18385 0
M  V30 1800 C 165.353 3.21739 4.11438 0
M  V30 1801 H 167.047 2.05537 2.17703 0
M  V30 1802 H 164.593 0.989603 1.04608 0
M  V30 1803 H 166.546 0.644982 4.16435 0
M  V30 1804 H 165.27 -0.206727 3.25945 0
M  V30 1805 H 163.929 1.92136 3.12217 0
M  V30 1806 H 163.577 0.330037 5.01916 0
M  V30 1807 H 163.277 2.013 5.52044 0
M  V30 1808 H 164.801 1.20506 5.98591 0
M  V30 1809 H 166.215 3.14019 4.79651 0
M  V30 1810 H 164.612 3.89644 4.56397 0
M  V30 1811 H 165.682 3.67054 3.16859 0
M  V30 1812 N 167.025 -1.13721 1.09112 0
M  V30 1813 C 168.273 -1.84559 0.823562 0
M  V30 1814 C 168.594 -1.83754 -0.652658 0
M  V30 1815 O 167.864 -1.29102 -1.47342 0
M  V30 1816 H 166.444 -0.683376 0.301673 0
M  V30 1817 H 169.106 -1.37771 1.37859 0
M  V30 1818 H 168.202 -2.8917 1.17419 0
M  V30 1819 N 168.503 -0.877838 -1.30888 0
M  V30 1820 C 169.728 -0.506629 -2.01117 0
M  V30 1821 C 170.153 0.895564 -1.65412 0
M  V30 1822 O 169.511 1.5923 -0.866922 0
M  V30 1823 C 169.559 -0.680223 -3.54126 0
M  V30 1824 O 168.663 0.277033 -4.11468 0
M  V30 1825 H 168.004 -0.200518 -0.633 0
M  V30 1826 H 170.534 -1.18342 -1.66902 0
M  V30 1827 H 170.544 -0.5765 -4.03907 0
M  V30 1828 H 169.219 -1.70261 -3.79452 0
M  V30 1829 H 167.796 0.127606 -3.72682 0
M  V30 1830 N 169.982 1.44106 -0.638065 0
M  V30 1831 C 170.912 2.33448 0.0494287 0
M  V30 1832 C 171.893 1.48606 0.827672 0
M  V30 1833 O 173.078 1.77308 0.792173 0
M  V30 1834 C 170.208 3.31771 1.02691 0
M  V30 1835 C 169.162 4.26485 0.359823 0
M  V30 1836 C 168.488 5.14729 1.44769 0
M  V30 1837 C 169.788 5.17056 -0.738296 0
M  V30 1838 H 171.482 2.91183 -0.696636 0
M  V30 1839 H 169.028 1.40014 -0.336456 0
M  V30 1840 H 170.981 3.93161 1.51666 0
M  V30 1841 H 169.705 2.7226 1.80395 0
M  V30 1842 H 168.364 3.66437 -0.10934 0
M  V30 1843 H 168.012 4.51566 2.21578 0
M  V30 1844 H 167.712 5.78913 1.00668 0
M  V30 1845 H 169.236 5.78991 1.93911 0
M  V30 1846 H 170.65 5.72342 -0.331354 0
M  V30 1847 H 169.047 5.89879 -1.10286 0
M  V30 1848 H 170.117 4.57652 -1.60258 0
M  V30 1849 N 171.46 0.379036 1.52974 0
M  V30 1850 C 172.706 -0.206727 2.01744 0
M  V30 1851 C 173.039 -1.47314 1.26539 0
M  V30 1852 O 172.314 -1.91084 0.362903 0
M  V30 1853 C 172.597 -0.485066 3.56818 0
M  V30 1854 C 172.45 0.795919 4.42702 0
M  V30 1855 C 173.769 -1.28003 4.21074 0
M  V30 1856 H 170.888 -0.0736607 0.73331 0
M  V30 1857 H 173.53 0.506581 1.83122 0
M  V30 1858 H 171.68 -1.09272 3.72816 0
M  V30 1859 H 173.352 1.43307 4.38476 0
M  V30 1860 H 171.595 1.41344 4.10127 0
M  V30 1861 H 172.266 0.555947 5.49193 0
M  V30 1862 H 174.742 -0.765867 4.08991 0
M  V30 1863 H 173.618 -1.44352 5.29579 0
M  V30 1864 H 173.879 -2.29236 3.78026 0
M  V30 1865 N 172.938 -1.57226 0.108567 0
M  V30 1866 C 173.901 -2.13602 -0.831082 0
M  V30 1867 C 174.901 -1.06841 -1.20173 0
M  V30 1868 O 176.091 -1.32666 -1.12895 0
M  V30 1869 C 173.223 -2.66769 -2.12243 0
M  V30 1870 H 174.416 -2.97951 -0.341317 0
M  V30 1871 H 171.969 -1.55667 -0.14057 0
M  V30 1872 H 172.704 -1.85977 -2.65675 0
M  V30 1873 H 172.489 -3.44839 -1.86625 0
M  V30 1874 H 173.979 -3.10332 -2.79435 0
M  V30 1875 N 174.416 0.165178 -1.56732 0
M  V30 1876 C 175.665 0.879143 -1.81532 0
M  V30 1877 C 175.978 1.83144 -0.686842 0
M  V30 1878 O 177.184 2.58823 -0.819944 0
M  V30 1879 C 175.64 1.61388 -3.21686 0
M  V30 1880 C 175.248 0.704904 -4.4242 0
M  V30 1881 C 176.992 2.3157 -3.55774 0
M  V30 1882 C 174.899 1.44022 -5.73595 0
M  V30 1883 H 173.829 0.332033 -0.676957 0
M  V30 1884 H 176.48 0.132008 -1.83025 0
M  V30 1885 H 174.862 2.40599 -3.14529 0
M  V30 1886 H 176.036 -0.0506815 -4.60772 0
M  V30 1887 H 174.351 0.112419 -4.16248 0
M  V30 1888 H 176.948 2.8719 -4.51028 0
M  V30 1889 H 177.291 3.07201 -2.8095 0
M  V30 1890 H 177.824 1.59297 -3.64513 0
M  V30 1891 H 174.563 0.72612 -6.51466 0
M  V30 1892 H 174.083 2.16898 -5.5921 0
M  V30 1893 H 175.762 1.98606 -6.15764 0
M  V30 1894 N 175.894 1.51508 0.433938 0
M  V30 1895 C 176.824 1.76016 1.53429 0
M  V30 1896 C 177.805 0.610112 1.58782 0
M  V30 1897 O 178.99 0.853177 1.74455 0
M  V30 1898 C 176.12 1.88831 2.9148 0
M  V30 1899 C 175.074 3.04288 3.00987 0
M  V30 1900 C 174.4 3.0229 4.4105 0
M  V30 1901 C 175.7 4.44193 2.74754 0
M  V30 1902 H 177.394 2.68152 1.33171 0
M  V30 1903 H 174.94 1.29035 0.639214 0
M  V30 1904 H 176.893 2.04559 3.6842 0
M  V30 1905 H 175.617 0.933455 3.12976 0
M  V30 1906 H 174.276 2.8827 2.26486 0
M  V30 1907 H 173.924 2.04576 4.59519 0
M  V30 1908 H 173.624 3.79822 4.4834 0
M  V30 1909 H 175.148 3.20116 5.1996 0
M  V30 1910 H 176.562 4.60544 3.41426 0
M  V30 1911 H 174.959 5.23457 2.9345 0
M  V30 1912 H 176.029 4.53996 1.70339 0
M  V30 1913 N 177.372 -0.689602 1.41712 0
M  V30 1914 C 178.302 -1.81577 1.46806 0
M  V30 1915 C 179.283 -1.66945 0.326105 0
M  V30 1916 O 180.468 -1.86588 0.538377 0
M  V30 1917 C 177.598 -3.19762 1.35535 0
M  V30 1918 C 176.552 -3.49107 2.47605 0
M  V30 1919 C 175.878 -4.86711 2.21397 0
M  V30 1920 C 177.178 -3.47483 3.89939 0
M  V30 1921 H 178.872 -1.7757 2.41058 0
M  V30 1922 H 176.418 -0.852887 1.16025 0
M  V30 1923 H 178.371 -3.98263 1.3771 0
M  V30 1924 H 177.095 -3.24409 0.377708 0
M  V30 1925 H 175.754 -2.72959 2.44722 0
M  V30 1926 H 175.402 -4.8799 1.21961 0
M  V30 1927 H 175.102 -5.0731 2.96497 0
M  V30 1928 H 176.626 -5.67515 2.25297 0
M  V30 1929 H 178.04 -4.1598 3.94505 0
M  V30 1930 H 176.437 -3.79615 4.64771 0
M  V30 1931 H 177.507 -2.46341 4.17665 0
M  V30 1932 N 178.85 -1.27639 -0.924453 0
M  V30 1933 C 180.096 -1.14336 -1.67497 0
M  V30 1934 C 180.429 0.309465 -1.91718 0
M  V30 1935 O 179.704 1.22608 -1.50989 0
M  V30 1936 C 179.987 -1.93096 -3.0395 0
M  V30 1937 C 179.84 -3.46381 -2.8695 0
M  V30 1938 C 181.159 -1.73798 -4.0433 0
M  V30 1939 H 178.278 -0.416728 -0.607871 0
M  V30 1940 H 180.92 -1.56832 -1.07256 0
M  V30 1941 H 179.07 -1.56982 -3.55372 0
M  V30 1942 H 180.742 -3.92343 -2.42621 0
M  V30 1943 H 178.985 -3.72557 -2.22225 0
M  V30 1944 H 179.656 -3.96735 -3.83804 0
M  V30 1945 H 182.132 -2.05293 -3.61931 0
M  V30 1946 H 181.008 -2.31294 -4.97789 0
M  V30 1947 H 181.269 -0.686725 -4.36734 0
M  V30 1948 N 180.328 1.1314 -1.09713 0
M  V30 1949 C 181.575 1.84484 -0.834987 0
M  V30 1950 C 181.903 1.83689 0.639418 0
M  V30 1951 O 181.158 1.2724 1.4869 0
M  V30 1952 C 181.457 3.32167 -1.3191 0
M  V30 1953 C 181.123 3.53139 -2.80363 0
M  V30 1954 C 179.785 3.58571 -3.20905 0
M  V30 1955 C 182.137 3.60866 -3.76065 0
M  V30 1956 C 179.465 3.69267 -4.55916 0
M  V30 1957 C 181.817 3.73089 -5.10869 0
M  V30 1958 C 180.481 3.76775 -5.50996 0
M  V30 1959 H 179.751 0.675073 -0.305544 0
M  V30 1960 H 182.398 1.33554 -1.37243 0
M  V30 1961 H 180.703 3.85469 -0.701517 0
M  V30 1962 H 182.4 3.85821 -1.09284 0
M  V30 1963 H 178.99 3.49569 -2.47991 0
M  V30 1964 H 183.174 3.55946 -3.45855 0
M  V30 1965 H 178.43 3.70388 -4.86438 0
M  V30 1966 H 182.604 3.78011 -5.84877 0
M  V30 1967 H 180.231 3.84815 -6.55608 0
M  V30 1968 N 181.806 0.884767 1.30421 0
M  V30 1969 C 182.736 0.367574 2.30589 0
M  V30 1970 C 183.717 -0.549464 1.60981 0
M  V30 1971 O 184.902 -0.46336 1.88591 0
M  V30 1972 C 182.032 -0.418944 3.44764 0
M  V30 1973 C 180.986 0.406316 4.26067 0
M  V30 1974 C 180.312 -0.506793 5.32293 0
M  V30 1975 C 181.612 1.64832 4.95608 0
M  V30 1976 H 183.306 1.20462 2.74097 0
M  V30 1977 H 180.852 0.580695 1.31772 0
M  V30 1978 H 182.805 -0.791395 4.13902 0
M  V30 1979 H 181.529 -1.28964 3.0006 0
M  V30 1980 H 180.188 0.760903 3.58617 0
M  V30 1981 H 179.836 -1.37519 4.83836 0
M  V30 1982 H 179.536 0.0415828 5.87585 0
M  V30 1983 H 181.06 -0.875764 6.04287 0
M  V30 1984 H 182.474 1.34646 5.57264 0
M  V30 1985 H 180.871 2.13688 5.60765 0
M  V30 1986 H 181.941 2.39284 4.21748 0
M  V30 1987 N 183.284 -1.43765 0.645699 0
M  V30 1988 C 184.533 -2.01116 0.153412 0
M  V30 1989 C 184.846 -1.51493 -1.23731 0
M  V30 1990 O 186.052 -2.01067 -1.8244 0
M  V30 1991 C 184.508 -3.59206 0.223473 0
M  V30 1992 C 184.116 -4.17823 1.61642 0
M  V30 1993 C 185.86 -4.23972 -0.211597 0
M  V30 1994 C 183.767 -5.68183 1.64081 0
M  V30 1995 H 182.697 -0.752093 0.0535891 0
M  V30 1996 H 185.348 -1.6482 0.806633 0
M  V30 1997 H 183.73 -3.92867 -0.497118 0
M  V30 1998 H 184.904 -3.95674 2.36176 0
M  V30 1999 H 183.219 -3.65399 1.99681 0
M  V30 2000 H 185.816 -5.34275 -0.213112 0
M  V30 2001 H 186.159 -3.97352 -1.24165 0
M  V30 2002 H 186.692 -3.95166 0.456988 0
M  V30 2003 H 183.431 -5.99559 2.64971 0
M  V30 2004 H 182.951 -5.9241 0.938611 0
M  V30 2005 H 184.63 -6.32085 1.3812 0
M  V30 2006 N 184.763 -0.387143 -1.52771 0
M  V30 2007 C 185.991 0.195869 -2.05971 0
M  V30 2008 C 186.406 1.40691 -1.25903 0
M  V30 2009 O 185.763 1.79931 -0.305134 0
M  V30 2010 C 185.814 0.56812 -3.57008 0
M  V30 2011 O 185.535 -0.594803 -4.34043 0
M  V30 2012 C 187.036 1.20723 -4.26545 0
M  V30 2013 H 184.256 0.0300578 -0.670326 0
M  V30 2014 H 186.8 -0.551749 -1.96916 0
M  V30 2015 H 184.955 1.26564 -3.66143 0
M  V30 2016 H 185.369 -0.289322 -5.23701 0
M  V30 2017 H 186.843 1.41807 -5.33474 0
M  V30 2018 H 187.32 2.17395 -3.81623 0
M  V30 2019 H 187.926 0.550535 -4.21722 0
M  V30 2020 N 186.241 1.57166 -0.116904 0
M  V30 2021 C 187.204 2.14039 0.819742 0
M  V30 2022 C 188.204 1.07477 1.19605 0
M  V30 2023 O 189.394 1.33263 1.1219 0
M  V30 2024 C 186.526 2.67891 2.10826 0
M  V30 2025 H 187.719 2.98128 0.325511 0
M  V30 2026 H 185.272 1.55739 0.132312 0
M  V30 2027 H 186.007 1.87384 2.64685 0
M  V30 2028 H 185.792 3.45823 1.84793 0
M  V30 2029 H 187.282 3.11809 2.77785 0
M  V30 2030 N 187.719 -0.156864 1.56817 0
M  V30 2031 C 188.968 -0.869504 1.81996 0
M  V30 2032 C 189.281 -1.82777 0.696545 0
M  V30 2033 O 190.487 -2.58384 0.833658 0
M  V30 2034 C 188.943 -1.59679 3.22538 0
M  V30 2035 C 188.551 -0.681431 4.42787 0
M  V30 2036 C 190.295 -2.2968 3.56997 0
M  V30 2037 C 188.202 -1.40978 5.74351 0
M  V30 2038 H 187.132 -0.328438 0.678708 0
M  V30 2039 H 189.783 -0.1223 1.83092 0
M  V30 2040 H 188.165 -2.38927 3.158 0
M  V30 2041 H 189.339 0.0751166 4.60739 0
M  V30 2042 H 187.654 -0.0903431 4.16302 0
M  V30 2043 H 190.251 -2.84794 4.52544 0
M  V30 2044 H 190.594 -3.05707 2.82576 0
M  V30 2045 H 191.127 -1.57361 3.65352 0
M  V30 2046 H 187.866 -0.691561 6.51842 0
M  V30 2047 H 187.386 -2.13929 5.60352 0
M  V30 2048 H 189.065 -1.95337 6.16808 0
M  V30 2049 N 189.197 -1.51736 -0.425897 0
M  V30 2050 C 190.127 -1.76827 -1.52494 0
M  V30 2051 C 191.108 -0.618524 -1.58456 0
M  V30 2052 O 192.293 -0.862416 -1.74 0
M  V30 2053 C 189.423 -1.90374 -2.90474 0
M  V30 2054 C 188.377 -3.0588 -2.99369 0
M  V30 2055 C 187.703 -3.04625 -4.3944 0
M  V30 2056 C 189.003 -4.45644 -2.72394 0
M  V30 2057 H 190.697 -2.68855 -1.31748 0
M  V30 2058 H 188.243 -1.29372 -0.632362 0
M  V30 2059 H 190.196 -2.0651 -3.6733 0
M  V30 2060 H 188.92 -0.95004 -3.12477 0
M  V30 2061 H 187.579 -2.89467 -2.24954 0
M  V30 2062 H 187.227 -2.0701 -4.58428 0
M  V30 2063 H 186.927 -3.82195 -4.46319 0
M  V30 2064 H 188.451 -3.22869 -5.18255 0
M  V30 2065 H 189.865 -4.62348 -3.38979 0
M  V30 2066 H 188.262 -5.25006 -2.9067 0
M  V30 2067 H 189.332 -4.54893 -1.67929 0
M  V30 2068 N 190.675 0.682077 -1.42076 0
M  V30 2069 C 191.921 1.44428 -1.42367 0
M  V30 2070 C 192.254 1.94164 -0.0373056 0
M  V30 2071 O 191.529 1.70429 0.937239 0
M  V30 2072 C 191.812 2.64654 -2.44194 0
M  V30 2073 C 191.665 2.20596 -3.91991 0
M  V30 2074 C 192.984 3.66865 -2.431 0
M  V30 2075 H 190.103 0.523834 -0.518428 0
M  V30 2076 H 192.745 0.77576 -1.73442 0
M  V30 2077 H 190.895 3.2169 -2.17826 0
M  V30 2078 H 192.567 1.68783 -4.29313 0
M  V30 2079 H 190.81 1.52242 -4.06208 0
M  V30 2080 H 191.481 3.06921 -4.58807 0
M  V30 2081 H 193.957 3.19531 -2.66532 0
M  V30 2082 H 192.833 4.48577 -3.16339 0
M  V30 2083 H 193.094 4.17493 -1.45437 0
M  V30 2084 N 192.153 1.28127 0.917671 0
M  V30 2085 C 193.1 1.11717 2.0196 0
M  V30 2086 C 194.07 0.0153929 1.66093 0
M  V30 2087 O 195.255 0.179596 1.89953 0
M  V30 2088 C 192.395 0.780927 3.36148 0
M  V30 2089 C 191.508 1.96135 3.84909 0
M  V30 2090 C 190.643 1.56609 5.0759 0
M  V30 2091 C 189.682 2.71339 5.48673 0
M  V30 2092 N 188.819 2.32332 6.62545 0
M  V30 2093 H 193.659 2.06003 2.15329 0
M  V30 2094 H 191.196 1.02535 1.05475 0
M  V30 2095 H 193.154 0.56675 4.13333 0
M  V30 2096 H 191.784 -0.124998 3.22558 0
M  V30 2097 H 190.836 2.28777 3.03916 0
M  V30 2098 H 192.148 2.82165 4.1132 0
M  V30 2099 H 191.302 1.31374 5.92305 0
M  V30 2100 H 190.041 0.677014 4.82978 0
M  V30 2101 H 189.046 2.97276 4.62501 0
M  V30 2102 H 190.271 3.60882 5.75274 0
M  V30 2103 H 188.217 1.45889 6.39572 0
M  V30 2104 H 188.134 3.11899 6.88662 0
M  V30 2105 H 189.402 2.10371 7.50576 0
M  V30 2106 N 193.631 -1.12557 1.10312 0
M  V30 2107 C 194.877 -1.84311 0.846011 0
M  V30 2108 C 195.21 -1.83805 -0.626859 0
M  V30 2109 O 194.485 -1.28268 -1.46211 0
M  V30 2110 C 194.768 -3.32048 1.39341 0
M  V30 2111 C 194.621 -3.41016 2.93305 0
M  V30 2112 C 195.94 -4.27764 1.03468 0
M  V30 2113 H 193.059 -0.669192 0.30879 0
M  V30 2114 H 195.701 -1.32057 1.36605 0
M  V30 2115 H 193.851 -3.76678 0.951087 0
M  V30 2116 H 195.523 -3.05031 3.46055 0
M  V30 2117 H 193.766 -2.81603 3.29973 0
M  V30 2118 H 194.437 -4.44948 3.26689 0
M  V30 2119 H 196.913 -3.91253 1.41633 0
M  V30 2120 H 195.789 -5.29549 1.44463 0
M  V30 2121 H 196.05 -4.42064 -0.0560404 0
M  V30 2122 N 195.109 -0.891671 -1.2995 0
M  V30 2123 C 196.041 -0.320695 -2.26945 0
M  V30 2124 C 197.054 0.528497 -1.53983 0
M  V30 2125 O 198.243 0.346959 -1.75096 0
M  V30 2126 C 195.343 0.562066 -3.34207 0
M  V30 2127 C 194.516 -0.259576 -4.36629 0
M  V30 2128 C 193.575 0.554739 -5.23268 0
M  V30 2129 O 192.601 -0.0249311 -5.69195 0
M  V30 2130 N 193.803 1.8625 -5.4981 0
M  V30 2131 H 196.568 -1.15432 -2.76578 0
M  V30 2132 H 194.129 -0.755336 -1.432 0
M  V30 2133 H 196.121 1.11304 -3.89093 0
M  V30 2134 H 194.691 1.29637 -2.84452 0
M  V30 2135 H 193.911 -0.991986 -3.81514 0
M  V30 2136 H 195.199 -0.822564 -5.02107 0
M  V30 2137 H 194.597 2.35628 -5.14292 0
M  V30 2138 H 193.154 2.36078 -6.07545 0
M  V30 2139 N 196.587 1.43421 -0.653314 0
M  V30 2140 C 197.517 2.33487 0.0246656 0
M  V30 2141 C 198.498 1.49475 0.811863 0
M  V30 2142 O 199.683 1.78139 0.773322 0
M  V30 2143 C 196.813 3.32841 0.99166 0
M  V30 2144 C 195.767 4.26842 0.314568 0
M  V30 2145 C 195.093 5.16236 1.39302 0
M  V30 2146 C 196.393 5.16243 -0.793095 0
M  V30 2147 H 198.087 2.90427 -0.727481 0
M  V30 2148 H 195.633 1.39649 -0.351287 0
M  V30 2149 H 197.586 3.94747 1.47487 0
M  V30 2150 H 196.31 2.74158 1.77497 0
M  V30 2151 H 194.969 3.663 -0.148199 0
M  V30 2152 H 194.617 4.53891 2.16776 0
M  V30 2153 H 194.317 5.79948 0.945223 0
M  V30 2154 H 195.841 5.81015 1.87759 0
M  V30 2155 H 197.255 5.71958 -0.392039 0
M  V30 2156 H 195.652 5.88676 -1.16536 0
M  V30 2157 H 196.722 4.55927 -1.65103 0
M  V30 2158 N 198.065 0.39524 1.52563 0
M  V30 2159 C 199.342 -0.242908 1.94086 0
M  V30 2160 C 199.722 -1.63841 1.33114 0
M  V30 2161 O 199.07 -2.22928 0.501529 0
M  V30 2162 C 199.28 -0.26327 3.48006 0
M  V30 2163 C 200.628 -0.489354 4.21771 0
M  V30 2164 O 201.652 -0.343226 3.54543 0
M  V30 2165 O 200.511 -0.776169 5.4096 0
M  V30 2166 H 197.605 -0.152536 0.812811 0
M  V30 2167 H 200.151 0.450178 1.6362 0
M  V30 2168 H 198.923 0.713985 3.84731 0
M  V30 2169 H 198.546 -1.00103 3.84792 0
M  V30 2170 N 199.544 -1.57102 0.125237 0
M  V30 2171 C 200.507 -2.14471 -0.80838 0
M  V30 2172 C 201.507 -1.0811 -1.19033 0
M  V30 2173 O 202.697 -1.33856 -1.11482 0
M  V30 2174 C 199.829 -2.69005 -2.09402 0
M  V30 2175 H 201.022 -2.98297 -0.309696 0
M  V30 2176 H 198.575 -1.55807 -0.124051 0
M  V30 2177 H 199.31 -1.88785 -2.63687 0
M  V30 2178 H 199.095 -3.46799 -1.82957 0
M  V30 2179 H 200.585 -3.13278 -2.76128 0
M  V30 2180 N 201.022 0.148545 -1.56898 0
M  V30 2181 C 201.952 1.18524 -2.01182 0
M  V30 2182 C 202.933 1.4489 -0.891123 0
M  V30 2183 O 204.118 1.55836 -1.15882 0
M  V30 2184 C 201.248 2.51879 -2.39112 0
M  V30 2185 C 200.202 2.40038 -3.54353 0
M  V30 2186 C 199.528 3.78089 -3.78091 0
M  V30 2187 C 200.828 1.88577 -4.87069 0
M  V30 2188 H 202.522 0.817029 -2.88036 0
M  V30 2189 H 200.068 0.391575 -1.38574 0
M  V30 2190 H 202.021 3.24627 -2.68692 0
M  V30 2191 H 200.745 2.90532 -1.49193 0
M  V30 2192 H 199.404 1.69742 -3.24936 0
M  V30 2193 H 199.052 4.14175 -2.85426 0
M  V30 2194 H 198.752 3.71028 -4.55645 0
M  V30 2195 H 200.276 4.52387 -4.10095 0
M  V30 2196 H 201.69 2.51117 -5.15377 0
M  V30 2197 H 200.087 1.9241 -5.68417 0
M  V30 2198 H 201.157 0.84136 -4.77545 0
M  V30 2199 N 202.5 1.5196 0.417844 0
M  V30 2200 C 203.911 1.57851 0.997 0
M  V30 2201 C 204.262 0.413714 1.91789 0
M  V30 2202 O 203.387 -0.467057 2.113 0
M  V30 2203 C 203.982 2.86085 1.81496 0
M  V30 2204 C 202.541 2.94483 2.34428 0
M  V30 2205 C 201.688 2.52707 1.14169 0
M  V30 2206 H 204.639 1.57455 0.198392 0
M  V30 2207 H 204.66 2.70947 2.67148 0
M  V30 2208 H 204.172 3.70842 1.14446 0
M  V30 2209 H 202.273 2.142 3.04875 0
M  V30 2210 H 202.386 3.98546 2.65891 0
M  V30 2211 H 200.75 2.06353 1.49301 0
M  V30 2212 H 201.533 3.39828 0.486999 0
M  V30 2213 N 203.978 -0.674533 1.42435 0
M  V30 2214 C 205.225 -1.43459 1.42919 0
M  V30 2215 C 205.553 -1.94446 0.0457312 0
M  V30 2216 O 204.808 -1.7132 -0.94593 0
M  V30 2217 C 205.107 -2.64767 2.40069 0
M  V30 2218 C 204.773 -2.3232 3.86443 0
M  V30 2219 C 203.435 -2.23182 4.26314 0
M  V30 2220 C 205.787 -2.05977 4.78773 0
M  V30 2221 C 203.115 -1.85827 5.56494 0
M  V30 2222 C 205.467 -1.70125 6.09295 0
M  V30 2223 C 204.131 -1.59498 6.48164 0
M  V30 2224 H 203.401 -0.524952 0.522978 0
M  V30 2225 H 206.048 -0.769097 1.75377 0
M  V30 2226 H 204.353 -3.36349 2.00939 0
M  V30 2227 H 206.05 -3.22949 2.37707 0
M  V30 2228 H 202.64 -2.40334 3.54877 0
M  V30 2229 H 206.824 -2.11969 4.48757 0
M  V30 2230 H 202.08 -1.76168 5.8547 0
M  V30 2231 H 206.254 -1.48767 6.80324 0
M  V30 2232 H 203.881 -1.30322 7.48946 0
M  V30 2233 N 205.456 -1.28612 -0.910864 0
M  V30 2234 C 206.703 -1.15934 -1.66029 0
M  V30 2235 C 207.031 0.291483 -1.92303 0
M  V30 2236 O 206.286 1.22816 -1.52364 0
M  V30 2237 C 206.585 -1.90624 -3.0232 0
M  V30 2238 C 206.251 -3.40405 -2.95695 0
M  V30 2239 C 204.913 -3.81255 -2.93595 0
M  V30 2240 C 207.265 -4.359 -2.85728 0
M  V30 2241 C 204.593 -5.15936 -2.79334 0
M  V30 2242 C 206.945 -5.70657 -2.73007 0
M  V30 2243 C 205.609 -6.10779 -2.69267 0
M  V30 2244 H 204.879 -0.424234 -0.607541 0
M  V30 2245 H 207.526 -1.5942 -1.06101 0
M  V30 2246 H 205.831 -1.39696 -3.6605 0
M  V30 2247 H 207.528 -1.78228 -3.59215 0
M  V30 2248 H 204.118 -3.07927 -2.98125 0
M  V30 2249 H 208.302 -4.053 -2.86436 0
M  V30 2250 H 203.558 -5.46146 -2.74835 0
M  V30 2251 H 207.732 -6.44311 -2.64264 0
M  V30 2252 H 205.359 -7.1509 -2.57974 0
M  V30 2253 N 206.934 1.1197 -1.10907 0
M  V30 2254 C 208.18 1.8386 -0.855773 0
M  V30 2255 C 208.513 1.84134 0.617103 0
M  V30 2256 O 207.788 1.29041 1.45529 0
M  V30 2257 C 208.071 3.31305 -1.411 0
M  V30 2258 C 207.924 3.39456 -2.9511 0
M  V30 2259 C 209.243 4.2721 -1.05736 0
M  V30 2260 H 206.362 0.667545 -0.312334 0
M  V30 2261 H 209.004 1.31331 -1.37303 0
M  V30 2262 H 207.154 3.76169 -0.97105 0
M  V30 2263 H 208.826 3.03191 -3.47668 0
M  V30 2264 H 207.069 2.79849 -3.31462 0
M  V30 2265 H 207.74 4.43209 -3.29044 0
M  V30 2266 H 210.216 3.90497 -1.43706 0
M  V30 2267 H 209.092 5.28775 -1.47269 0
M  V30 2268 H 209.353 4.42088 0.0325958 0
M  V30 2269 N 208.412 0.89855 1.29475 0
M  V30 2270 C 209.661 0.519863 1.94885 0
M  V30 2271 C 209.974 -0.9383 1.71625 0
M  V30 2272 O 211.18 -1.42445 2.31131 0
M  V30 2273 C 209.636 0.878836 3.49005 0
M  V30 2274 C 209.244 2.35569 3.81066 0
M  V30 2275 C 210.988 0.570004 4.20656 0
M  V30 2276 C 208.895 2.65558 5.28425 0
M  V30 2277 H 207.825 0.190692 0.729488 0
M  V30 2278 H 210.476 1.09539 1.47219 0
M  V30 2279 H 208.858 0.232253 3.95318 0
M  V30 2280 H 210.032 3.04773 3.45616 0
M  V30 2281 H 208.347 2.63343 3.22552 0
M  V30 2282 H 210.944 0.770925 5.29113 0
M  V30 2283 H 211.287 -0.491404 4.1339 0
M  V30 2284 H 211.82 1.17438 3.8007 0
M  V30 2285 H 208.559 3.70493 5.40754 0
M  V30 2286 H 208.079 2.00977 5.65127 0
M  V30 2287 H 209.758 2.51765 5.96006 0
M  V30 2288 N 209.89 -1.43072 0.660911 0
M  V30 2289 C 211.118 -2.06067 0.185422 0
M  V30 2290 C 211.533 -1.49582 -1.15198 0
M  V30 2291 O 210.89 -0.630134 -1.71276 0
M  V30 2292 C 210.941 -3.61371 0.0966523 0
M  V30 2293 O 210.662 -4.15758 1.38119 0
M  V30 2294 C 212.163 -4.41455 -0.403996 0
M  V30 2295 H 209.383 -0.664459 0.0934604 0
M  V30 2296 H 211.927 -1.83447 0.90373 0
M  V30 2297 H 210.082 -3.8315 -0.572259 0
M  V30 2298 H 210.496 -5.09499 1.24542 0
M  V30 2299 H 211.97 -5.50437 -0.415045 0
M  V30 2300 H 212.447 -4.15036 -1.43674 0
M  V30 2301 H 213.053 -4.24663 0.232691 0
M  V30 2302 N 211.368 -0.403325 -1.52352 0
M  V30 2303 C 212.301 0.469463 -2.23319 0
M  V30 2304 C 213.279 1.05272 -1.23922 0
M  V30 2305 O 214.463 1.10169 -1.52954 0
M  V30 2306 C 211.59 1.6511 -2.9573 0
M  V30 2307 C 210.636 1.19178 -4.0951 0
M  V30 2308 S 211.469 0.161718 -5.35256 0
M  V30 2309 C 212.625 1.34882 -6.11194 0
M  V30 2310 H 212.858 -0.133134 -2.97002 0
M  V30 2311 H 210.391 -0.187588 -1.53256 0
M  V30 2312 H 212.349 2.3287 -3.38056 0
M  V30 2313 H 211.01 2.22503 -2.21701 0
M  V30 2314 H 210.203 2.07444 -4.59329 0
M  V30 2315 H 209.805 0.592911 -3.6927 0
M  V30 2316 H 212.097 2.27345 -6.38217 0
M  V30 2317 H 213.04 0.89128 -7.02468 0
M  V30 2318 H 213.448 1.57198 -5.42171 0
M  V30 2319 N 212.846 1.57033 -0.133567 0
M  V30 2320 C 214.095 1.94861 0.520768 0
M  V30 2321 C 214.408 1.02012 1.66892 0
M  V30 2322 O 215.614 1.29365 2.38699 0
M  V30 2323 C 214.07 3.46362 0.977809 0
M  V30 2324 C 213.678 4.47773 -0.142674 0
M  V30 2325 C 215.422 3.93083 1.60269 0
M  V30 2326 C 213.329 5.90468 0.331883 0
M  V30 2327 H 212.259 0.727453 0.198315 0
M  V30 2328 H 214.91 1.82227 -0.215759 0
M  V30 2329 H 213.292 3.54282 1.7692 0
M  V30 2330 H 214.466 4.51536 -0.919317 0
M  V30 2331 H 212.781 4.10891 -0.675124 0
M  V30 2332 H 215.378 4.97121 1.96914 0
M  V30 2333 H 215.721 3.33876 2.48662 0
M  V30 2334 H 216.254 3.88025 0.876453 0
M  V30 2335 H 212.993 6.53463 -0.516341 0
M  V30 2336 H 212.513 5.90094 1.07469 0
M  V30 2337 H 214.192 6.42179 0.788332 0
M  V30 2338 N 214.325 -0.140222 1.56975 0
M  V30 2339 C 215.272 -1.17292 1.98774 0
M  V30 2340 C 216.242 -1.4232 0.856408 0
M  V30 2341 O 217.427 -1.54541 1.119 0
M  V30 2342 C 214.567 -2.49973 2.37923 0
M  V30 2343 C 213.68 -2.32062 3.64378 0
M  V30 2344 C 212.815 -3.57825 3.926 0
M  V30 2345 C 211.854 -3.3498 5.12303 0
M  V30 2346 N 210.991 -4.52891 5.36502 0
M  V30 2347 H 215.831 -0.809472 2.86795 0
M  V30 2348 H 213.368 -0.388237 1.41884 0
M  V30 2349 H 215.326 -3.27346 2.58652 0
M  V30 2350 H 213.956 -2.84252 1.52972 0
M  V30 2351 H 213.008 -1.45711 3.51387 0
M  V30 2352 H 214.32 -2.11145 4.51906 0
M  V30 2353 H 213.474 -4.43624 4.13863 0
M  V30 2354 H 212.213 -3.81753 3.03506 0
M  V30 2355 H 211.218 -2.4757 4.90906 0
M  V30 2356 H 212.443 -3.12444 6.02956 0
M  V30 2357 H 210.389 -4.76979 4.50363 0
M  V30 2358 H 210.306 -4.35001 6.18312 0
M  V30 2359 H 211.574 -5.39884 5.62268 0
M  V30 2360 N 215.803 -1.52179 -0.40978 0
M  V30 2361 C 217.052 -1.65434 -1.15388 0
M  V30 2362 C 217.365 -0.390056 -1.91671 0
M  V30 2363 O 218.571 -0.402399 -2.68501 0
M  V30 2364 C 217.027 -2.92279 -2.10003 0
M  V30 2365 C 216.635 -4.25813 -1.39239 0
M  V30 2366 C 218.379 -3.14897 -2.84675 0
M  V30 2367 C 216.286 -5.43782 -2.32498 0
M  V30 2368 H 215.216 -0.616267 -0.434432 0
M  V30 2369 H 217.867 -1.78666 -0.418401 0
M  V30 2370 H 216.249 -2.72744 -2.871 0
M  V30 2371 H 217.423 -4.55828 -0.675099 0
M  V30 2372 H 215.738 -4.09292 -0.766097 0
M  V30 2373 H 218.335 -4.0021 -3.54593 0
M  V30 2374 H 218.678 -2.29103 -3.47588 0
M  V30 2375 H 219.211 -3.34901 -2.14677 0
M  V30 2376 H 215.95 -6.3192 -1.74233 0
M  V30 2377 H 215.47 -5.18106 -3.02201 0
M  V30 2378 H 217.149 -5.76834 -2.93038 0
M  V30 2379 N 217.281 0.66697 -1.42791 0
M  V30 2380 C 218.527 1.4291 -1.43891 0
M  V30 2381 C 218.86 1.94114 -0.0578972 0
M  V30 2382 O 218.135 1.71414 0.91911 0
M  V30 2383 C 218.418 2.62049 -2.46987 0
M  V30 2384 C 218.271 2.16426 -3.94309 0
M  V30 2385 C 219.59 3.64266 -2.46978 0
M  V30 2386 H 216.709 0.518306 -0.523954 0
M  V30 2387 H 219.351 0.757321 -1.74255 0
M  V30 2388 H 217.501 3.19361 -2.21225 0
M  V30 2389 H 219.173 1.64221 -4.31079 0
M  V30 2390 H 217.416 1.47925 -4.078 0
M  V30 2391 H 218.087 3.02038 -4.62036 0
M  V30 2392 H 220.563 3.16686 -2.69906 0
M  V30 2393 H 219.439 4.45196 -3.21079 0
M  V30 2394 H 219.7 4.15927 -1.49857 0
M  V30 2395 N 218.759 1.29093 0.90403 0
M  V30 2396 C 219.689 1.16401 2.02418 0
M  V30 2397 C 220.67 0.0593085 1.69997 0
M  V30 2398 O 221.855 0.238021 1.92736 0
M  V30 2399 C 218.985 0.835233 3.37107 0
M  V30 2400 C 217.939 1.89578 3.83724 0
M  V30 2401 C 217.265 1.42041 5.15489 0
M  V30 2402 C 218.565 3.30394 4.04521 0
M  V30 2403 H 220.259 2.10109 2.13295 0
M  V30 2404 H 217.805 1.01157 1.02486 0
M  V30 2405 H 219.758 0.733169 4.14973 0
M  V30 2406 H 218.482 -0.137543 3.2631 0
M  V30 2407 H 217.141 1.98715 3.08071 0
M  V30 2408 H 216.789 0.436426 5.01103 0
M  V30 2409 H 216.489 2.12964 5.4765 0
M  V30 2410 H 218.013 1.33176 5.959 0
M  V30 2411 H 219.427 3.24123 4.72882 0
M  V30 2412 H 217.824 3.99237 4.48029 0
M  V30 2413 H 218.894 3.73692 3.09002 0
M  V30 2414 N 220.237 -1.11381 1.11499 0
M  V30 2415 C 221.486 -1.82494 0.858993 0
M  V30 2416 C 221.799 -1.85605 -0.617278 0
M  V30 2417 O 223.005 -2.52824 -0.989552 0
M  V30 2418 C 221.461 -3.27745 1.48699 0
M  V30 2419 C 221.069 -3.32961 2.99735 0
M  V30 2420 C 222.813 -4.03754 1.31085 0
M  V30 2421 C 220.72 -4.72612 3.55516 0
M  V30 2422 H 219.65 -0.683802 0.317696 0
M  V30 2423 H 222.301 -1.25331 1.34031 0
M  V30 2424 H 220.683 -3.84844 0.933339 0
M  V30 2425 H 221.857 -2.85741 3.61509 0
M  V30 2426 H 220.172 -2.70433 3.16631 0
M  V30 2427 H 222.769 -5.06891 1.70192 0
M  V30 2428 H 223.112 -4.15527 0.253496 0
M  V30 2429 H 223.645 -3.53043 1.83318 0
M  V30 2430 H 220.384 -4.66036 4.60967 0
M  V30 2431 H 219.904 -5.2024 2.98513 0
M  V30 2432 H 221.583 -5.4157 3.53992 0
M  V30 2433 N 221.715 -0.905404 -1.28997 0
M  V30 2434 C 222.663 -0.377431 -2.29517 0
M  V30 2435 C 223.657 0.526461 -1.61012 0
M  V30 2436 O 224.863 0.40863 -1.753 0
M  V30 2437 H 221.238 -0.103437 -0.744852 0
M  V30 2438 H 223.209 -1.23848 -2.71485 0
M  V30 2439 C 221.958 0.374833 -3.45674 0
M  V30 2440 H 221.281 -0.311474 -3.98585 0
M  V30 2441 H 222.721 0.70903 -4.1803 0
M  V30 2442 C 221.18 1.57963 -2.97572 0
M  V30 2443 O 221.71 2.67886 -2.99333 0
M  V30 2444 N 219.916 1.42375 -2.53333 0
M  V30 2445 H 219.463 0.529466 -2.521 0
M  V30 2446 H 219.421 2.23117 -2.21509 0
M  V30 2447 N 223.193 1.4272 -0.668489 0
M  V30 2448 C 224.418 2.06484 -0.194758 0
M  V30 2449 C 224.843 1.49862 1.13679 0
M  V30 2450 O 224.201 0.614582 1.70565 0
M  V30 2451 C 224.249 3.60353 -0.133546 0
M  V30 2452 O 223.353 4.02464 0.899806 0
M  V30 2453 H 222.694 0.656137 -0.10188 0
M  V30 2454 H 225.224 1.82964 -0.915722 0
M  V30 2455 H 225.234 4.07976 0.0447041 0
M  V30 2456 H 223.909 4.00938 -1.1055 0
M  V30 2457 H 222.486 3.66402 0.693109 0
M  V30 2458 N 224.671 0.411399 1.52136 0
M  V30 2459 C 225.918 -0.163645 2.01838 0
M  V30 2460 C 226.246 -1.4495 1.29691 0
M  V30 2461 O 225.501 -1.91725 0.392431 0
M  V30 2462 C 225.8 -0.455872 3.54481 0
M  V30 2463 C 225.466 0.741055 4.44769 0
M  V30 2464 C 224.128 1.06936 4.69167 0
M  V30 2465 C 226.48 1.54075 4.97906 0
M  V30 2466 C 223.808 2.19851 5.43951 0
M  V30 2467 C 226.16 2.66067 5.73926 0
M  V30 2468 C 224.824 2.99381 5.96596 0
M  V30 2469 H 224.094 -0.0598821 0.738576 0
M  V30 2470 H 226.741 0.553283 1.83333 0
M  V30 2471 H 225.046 -1.2544 3.71177 0
M  V30 2472 H 226.743 -0.913802 3.90449 0
M  V30 2473 H 223.333 0.475192 4.25958 0
M  V30 2474 H 227.517 1.30033 4.78963 0
M  V30 2475 H 222.773 2.46006 5.59724 0
M  V30 2476 H 226.947 3.28419 6.14096 0
M  V30 2477 H 224.574 3.86992 6.54325 0
M  V30 2478 N 226.149 -1.5696 0.141893 0
M  V30 2479 C 227.397 -1.95573 -0.509484 0
M  V30 2480 C 227.718 -1.02746 -1.65736 0
M  V30 2481 O 226.988 -0.0880311 -1.95702 0
M  V30 2482 H 225.568 -0.722115 -0.191205 0
M  V30 2483 H 228.23 -1.93697 0.216196 0
M  V30 2484 H 227.326 -2.99171 -0.889 0
M  V30 2485 N 227.627 0.131896 -1.57047 0
M  V30 2486 C 228.59 1.14638 -1.98471 0
M  V30 2487 C 229.59 1.35029 -0.873148 0
M  V30 2488 O 230.78 1.31764 -1.13946 0
M  V30 2489 C 227.912 2.50358 -2.31373 0
M  V30 2490 H 229.105 0.79064 -2.8929 0
M  V30 2491 H 226.658 0.375761 -1.51716 0
M  V30 2492 H 227.393 2.90876 -1.43393 0
M  V30 2493 H 227.178 2.36915 -3.12432 0
M  V30 2494 H 228.668 3.23395 -2.64207 0
M  V30 2495 N 229.106 1.52395 0.401703 0
M  V30 2496 C 230.355 1.66044 1.14509 0
M  V30 2497 C 230.668 0.400216 1.91462 0
M  V30 2498 O 231.874 0.416632 2.68284 0
M  V30 2499 C 230.33 2.93388 2.0845 0
M  V30 2500 C 229.938 4.26545 1.36978 0
M  V30 2501 C 231.682 3.16402 2.83001 0
M  V30 2502 C 229.589 5.45007 2.29611 0
M  V30 2503 H 228.519 0.618562 0.431158 0
M  V30 2504 H 231.17 1.78886 0.40892 0
M  V30 2505 H 229.552 2.74263 2.8565 0
M  V30 2506 H 230.726 4.56179 0.650916 0
M  V30 2507 H 229.041 4.09692 0.74438 0
M  V30 2508 H 231.638 4.02085 3.52465 0
M  V30 2509 H 231.981 2.30943 3.46368 0
M  V30 2510 H 232.514 3.36034 2.12898 0
M  V30 2511 H 229.253 6.32835 1.70879 0
M  V30 2512 H 228.773 5.19702 2.9945 0
M  V30 2513 H 230.452 5.7838 2.89974 0
M  V30 2514 N 230.584 -0.659388 1.43143 0
M  V30 2515 C 231.514 -1.78422 1.50625 0
M  V30 2516 C 232.495 -1.66216 0.361443 0
M  V30 2517 O 233.68 -1.85404 0.577834 0
M  V30 2518 C 230.81 -3.16815 1.42287 0
M  V30 2519 C 229.764 -3.43777 2.54954 0
M  V30 2520 C 229.09 -4.81905 2.31671 0
M  V30 2521 C 230.39 -3.39134 3.97222 0
M  V30 2522 H 232.084 -1.72417 2.44771 0
M  V30 2523 H 229.63 -0.828084 1.17808 0
M  V30 2524 H 231.583 -3.95253 1.46127 0
M  V30 2525 H 230.307 -3.23534 0.446435 0
M  V30 2526 H 228.966 -2.67707 2.50457 0
M  V30 2527 H 228.614 -4.85294 1.32284 0
M  V30 2528 H 228.314 -5.00906 3.07192 0
M  V30 2529 H 229.838 -5.62609 2.37284 0
M  V30 2530 H 231.252 -4.07518 4.03239 0
M  V30 2531 H 229.649 -3.69671 4.72719 0
M  V30 2532 H 230.719 -2.37426 4.22797 0
M  V30 2533 N 232.062 -1.29571 -0.897171 0
M  V30 2534 C 232.994 -1.10724 -2.00681 0
M  V30 2535 C 234.007 -0.0540026 -1.6271 0
M  V30 2536 O 235.196 -0.298783 -1.75982 0
M  V30 2537 C 232.296 -0.663912 -3.32333 0
M  V30 2538 C 231.469 -1.79622 -3.98816 0
M  V30 2539 C 230.528 -1.34349 -5.0876 0
M  V30 2540 O 229.554 -2.04864 -5.31055 0
M  V30 2541 N 230.756 -0.215764 -5.80099 0
M  V30 2542 H 233.521 -2.06291 -2.17403 0
M  V30 2543 H 231.082 -1.21544 -1.06951 0
M  V30 2544 H 233.074 -0.344295 -4.03233 0
M  V30 2545 H 231.644 0.199375 -3.11964 0
M  V30 2546 H 230.864 -2.28459 -3.21248 0
M  V30 2547 H 232.152 -2.55535 -4.39976 0
M  V30 2548 H 231.55 0.372091 -5.64475 0
M  V30 2549 H 230.107 0.0444707 -6.51785 0
M  V30 2550 N 233.54 1.10788 -1.12088 0
M  V30 2551 C 234.788 1.8231 -0.872205 0
M  V30 2552 C 235.109 1.85419 0.603709 0
M  V30 2553 O 234.379 1.32963 1.43867 0
M  V30 2554 H 232.959 0.675137 -0.319686 0
M  V30 2555 H 235.621 1.34068 -1.41463 0
M  V30 2556 H 234.717 2.85955 -1.25045 0
M  V30 2557 N 235.018 0.912232 1.28515 0
M  V30 2558 C 236.243 0.559774 1.99703 0
M  V30 2559 C 236.668 -0.851393 1.67729 0
M  V30 2560 O 236.026 -1.56875 0.908834 0
M  V30 2561 C 236.074 0.773874 3.52198 0
M  V30 2562 O 235.178 -0.167842 4.12058 0
M  V30 2563 H 234.519 0.21723 0.627461 0
M  V30 2564 H 237.049 1.22725 1.63706 0
M  V30 2565 H 237.059 0.683386 4.02236 0
M  V30 2566 H 235.734 1.80261 3.74805 0
M  V30 2567 H 234.311 -0.0287509 3.72889 0
M  V30 2568 N 236.496 -1.42363 0.676048 0
M  V30 2569 C 237.426 -2.33497 0.0124832 0
M  V30 2570 C 238.407 -1.50748 -0.787981 0
M  V30 2571 O 239.592 -1.79346 -0.744884 0
M  V30 2572 C 236.722 -3.34377 -0.938582 0
M  V30 2573 C 235.676 -4.27289 -0.246622 0
M  V30 2574 C 235.002 -5.18386 -1.31071 0
M  V30 2575 C 236.302 -5.14916 0.875125 0
M  V30 2576 H 237.996 -2.89233 0.773593 0
M  V30 2577 H 235.542 -1.39073 0.37346 0
M  V30 2578 H 237.495 -3.97044 -1.41188 0
M  V30 2579 H 236.219 -2.76947 -1.73113 0
M  V30 2580 H 234.878 -3.66018 0.206456 0
M  V30 2581 H 234.526 -4.57282 -2.09528 0
M  V30 2582 H 234.226 -5.81378 -0.852839 0
M  V30 2583 H 235.75 -5.83929 -1.78492 0
M  V30 2584 H 237.164 -5.71262 0.482983 0
M  V30 2585 H 235.561 -5.86747 1.25887 0
M  V30 2586 H 236.631 -4.53242 1.72335 0
M  V30 2587 N 237.974 -0.419461 -1.51915 0
M  V30 2588 C 239.221 0.152939 -2.01922 0
M  V30 2589 C 239.549 1.4426 -1.30458 0
M  V30 2590 O 238.804 1.91514 -0.402593 0
M  V30 2591 C 239.103 0.437067 -3.54717 0
M  V30 2592 C 238.769 -0.764632 -4.44369 0
M  V30 2593 C 237.431 -1.09423 -4.68594 0
M  V30 2594 C 239.783 -1.56713 -4.97082 0
M  V30 2595 C 237.111 -2.22732 -5.42777 0
M  V30 2596 C 239.463 -2.69107 -5.72507 0
M  V30 2597 C 238.127 -3.02541 -5.95 0
M  V30 2598 H 237.397 0.0559644 -0.738884 0
M  V30 2599 H 240.044 -0.562998 -1.83037 0
M  V30 2600 H 238.349 1.23469 -3.71837 0
M  V30 2601 H 240.046 0.893083 -3.90928 0
M  V30 2602 H 236.636 -0.497775 -4.257 0
M  V30 2603 H 240.82 -1.32571 -4.78266 0
M  V30 2604 H 236.076 -2.48971 -5.58411 0
M  V30 2605 H 240.25 -3.31671 -6.12346 0
M  V30 2606 H 237.877 -3.90457 -6.52264 0
M  V30 2607 N 239.452 1.56882 -0.150215 0
M  V30 2608 C 240.7 1.9584 0.499105 0
M  V30 2609 C 241.021 1.03623 1.65188 0
M  V30 2610 O 240.291 0.0984084 1.95653 0
M  V30 2611 H 238.871 0.723119 0.187373 0
M  V30 2612 H 241.533 1.9358 -0.226466 0
M  V30 2613 H 240.629 2.99638 0.873122 0
M  V30 2614 N 240.93 -0.123565 1.57115 0
M  V30 2615 C 241.86 -1.15309 2.03042 0
M  V30 2616 C 242.841 -1.43454 0.914061 0
M  V30 2617 O 244.026 -1.53973 1.18347 0
M  V30 2618 C 241.156 -2.48043 2.43089 0
M  V30 2619 C 240.11 -2.3437 3.58127 0
M  V30 2620 C 239.436 -3.72026 3.84059 0
M  V30 2621 C 240.736 -1.80804 4.90007 0
M  V30 2622 H 242.43 -0.771102 2.893 0
M  V30 2623 H 239.976 -0.369479 1.39179 0
M  V30 2624 H 241.929 -3.20311 2.73823 0
M  V30 2625 H 240.653 -2.88122 1.53796 0
M  V30 2626 H 239.312 -1.64551 3.27595 0
M  V30 2627 H 238.96 -4.09582 2.91979 0
M  V30 2628 H 238.66 -3.63732 4.6149 0
M  V30 2629 H 240.184 -4.45806 4.1724 0
M  V30 2630 H 241.598 -2.42886 5.19307 0
M  V30 2631 H 239.995 -1.83343 5.71407 0
M  V30 2632 H 241.065 -0.76528 4.78823 0
M  V30 2633 N 242.408 -1.52605 -0.393616 0
M  V30 2634 C 243.371 -1.76415 -1.46323 0
M  V30 2635 C 244.371 -0.634126 -1.47768 0
M  V30 2636 O 245.561 -0.902142 -1.4902 0
M  V30 2637 C 242.693 -1.8607 -2.85641 0
M  V30 2638 H 243.886 -2.71916 -1.26498 0
M  V30 2639 H 241.439 -1.43257 -0.625073 0
M  V30 2640 H 242.174 -0.925378 -3.10817 0
M  V30 2641 H 241.959 -2.68235 -2.85993 0
M  V30 2642 H 243.449 -2.06179 -3.63153 0
M  V30 2643 N 243.887 0.651787 -1.4349 0
M  V30 2644 C 245.135 1.40888 -1.44897 0
M  V30 2645 C 245.456 1.94856 -0.0749086 0
M  V30 2646 O 244.726 1.74518 0.889956 0
M  V30 2647 H 243.306 0.522887 -0.533478 0
M  V30 2648 H 245.968 0.768609 -1.79104 0
M  V30 2649 H 245.064 2.25052 -2.16236 0
M  V30 2650 N 245.365 1.30045 0.890287 0
M  V30 2651 C 246.295 1.18541 2.01172 0
M  V30 2652 C 247.276 0.0773356 1.69924 0
M  V30 2653 O 248.461 0.25845 1.92473 0
M  V30 2654 C 245.591 0.870941 3.36202 0
M  V30 2655 C 244.545 1.93637 3.81692 0
M  V30 2656 C 243.871 1.475 5.13953 0
M  V30 2657 C 245.171 3.34666 4.00994 0
M  V30 2658 H 246.865 2.12359 2.11054 0
M  V30 2659 H 244.411 1.02238 1.01407 0
M  V30 2660 H 246.364 0.777141 4.14172 0
M  V30 2661 H 245.088 -0.102926 3.26438 0
M  V30 2662 H 243.747 2.01972 3.05946 0
M  V30 2663 H 243.395 0.489551 5.00612 0
M  V30 2664 H 243.095 2.1876 5.4536 0
M  V30 2665 H 244.619 1.39489 5.94454 0
M  V30 2666 H 246.033 3.2912 4.69417 0
M  V30 2667 H 244.43 4.03966 4.43769 0
M  V30 2668 H 245.5 3.76949 3.05021 0
M  V30 2669 N 246.843 -1.10192 1.12674 0
M  V30 2670 C 247.773 -2.18652 0.819362 0
M  V30 2671 C 248.754 -1.68698 -0.217915 0
M  V30 2672 O 249.939 -1.94041 -0.0785581 0
M  V30 2673 C 247.069 -3.46202 0.27594 0
M  V30 2674 C 246.023 -4.09444 1.24656 0
M  V30 2675 C 245.349 -5.31725 0.563258 0
M  V30 2676 C 246.649 -4.52863 2.60217 0
M  V30 2677 H 248.343 -2.44622 1.72628 0
M  V30 2678 H 245.889 -1.17571 0.831451 0
M  V30 2679 H 247.842 -4.21372 0.0486149 0
M  V30 2680 H 246.566 -3.1973 -0.666331 0
M  V30 2681 H 245.225 -3.36284 1.45974 0
M  V30 2682 H 244.873 -5.0153 -0.384235 0
M  V30 2683 H 244.573 -5.74991 1.21075 0
M  V30 2684 H 246.097 -6.09624 0.34503 0
M  V30 2685 H 247.511 -5.19294 2.42913 0
M  V30 2686 H 245.908 -5.06986 3.21068 0
M  V30 2687 H 246.978 -3.65656 3.18471 0
M  V30 2688 N 248.321 -0.919034 -1.28029 0
M  V30 2689 C 249.732 -0.600735 -1.76771 0
M  V30 2690 C 250.083 0.884024 -1.75156 0
M  V30 2691 O 249.208 1.69163 -1.34956 0
M  V30 2692 C 249.803 -1.08372 -3.21 0
M  V30 2693 C 248.362 -0.816248 -3.67443 0
M  V30 2694 C 247.509 -1.24742 -2.47658 0
M  V30 2695 H 250.46 -1.09974 -1.14418 0
M  V30 2696 H 250.481 -0.427512 -3.78091 0
M  V30 2697 H 249.993 -2.16437 -3.22144 0
M  V30 2698 H 248.094 0.250968 -3.71754 0
M  V30 2699 H 248.207 -1.4277 -4.57333 0
M  V30 2700 H 246.571 -0.666083 -2.45836 0
M  V30 2701 H 247.354 -2.33653 -2.51518 0
M  V30 2702 N 249.799 1.42003 -0.683588 0
M  V30 2703 C 250.762 2.29191 -0.0198243 0
M  V30 2704 C 251.762 1.43773 0.72013 0
M  V30 2705 O 252.952 1.65061 0.556815 0
M  V30 2706 C 250.084 3.26435 0.982487 0
M  V30 2707 H 251.277 2.8938 -0.787345 0
M  V30 2708 H 248.83 1.49789 -0.446418 0
M  V30 2709 H 249.565 2.71203 1.77819 0
M  V30 2710 H 249.35 3.89449 0.455182 0
M  V30 2711 H 250.84 3.918 1.44508 0
M  V30 2712 N 251.277 0.427512 1.51691 0
M  V30 2713 C 252.502 -0.143601 2.06902 0
M  V30 2714 C 252.927 -1.36536 1.29382 0
M  V30 2715 O 252.285 -1.78289 0.329043 0
M  V30 2716 C 252.333 -0.454207 3.57728 0
M  V30 2717 O 251.437 -1.54228 3.82475 0
M  V30 2718 H 250.778 -0.00617128 0.663971 0
M  V30 2719 H 253.308 0.606014 1.95419 0
M  V30 2720 H 253.318 -0.707525 4.01818 0
M  V30 2721 H 251.993 0.438812 4.13579 0
M  V30 2722 H 250.57 -1.2797 3.50254 0
M  V30 2723 N 252.755 -1.56801 0.158532 0
M  V30 2724 C 253.985 -2.00568 -0.495583 0
M  V30 2725 C 254.393 -1.03774 -1.58201 0
M  V30 2726 O 253.736 -0.0285797 -1.83678 0
M  V30 2727 C 253.798 -3.40768 -1.14532 0
M  V30 2728 C 253.462 -4.56553 -0.202101 0
M  V30 2729 C 254.459 -5.16714 0.574675 0
M  V30 2730 C 252.144 -5.02197 -0.101648 0
M  V30 2731 C 254.138 -6.20939 1.43924 0
M  V30 2732 C 251.825 -6.06274 0.766508 0
M  V30 2733 C 252.823 -6.65515 1.53555 0
M  V30 2734 O 252.511 -7.67575 2.38922 0
M  V30 2735 H 252.243 -0.662893 -0.13247 0
M  V30 2736 H 254.797 -2.03829 0.253559 0
M  V30 2737 H 253.027 -3.34381 -1.94233 0
M  V30 2738 H 254.716 -3.6857 -1.70033 0
M  V30 2739 H 255.482 -4.82341 0.507167 0
M  V30 2740 H 251.361 -4.55807 -0.689994 0
M  V30 2741 H 254.905 -6.67107 2.03996 0
M  V30 2742 H 250.802 -6.40073 0.835266 0
M  V30 2743 H 251.57 -7.84844 2.32296 0
M  V30 2744 N 254.233 0.115231 -1.57178 0
M  V30 2745 C 255.461 0.836437 -1.89239 0
M  V30 2746 C 255.876 1.73256 -0.750175 0
M  V30 2747 O 255.233 1.80357 0.278832 0
M  V30 2748 C 255.284 1.66671 -3.20785 0
M  V30 2749 O 255.005 0.806652 -4.3061 0
M  V30 2750 C 256.506 2.49274 -3.66575 0
M  V30 2751 H 253.726 0.240253 -0.626514 0
M  V30 2752 H 256.27 0.0984932 -2.04263 0
M  V30 2753 H 254.425 2.35737 -3.0742 0
M  V30 2754 H 254.839 1.37969 -5.06028 0
M  V30 2755 H 256.313 3.03055 -4.6137 0
M  V30 2756 H 256.79 3.26807 -2.93417 0
M  V30 2757 H 257.396 1.85443 -3.82741 0
M  V30 2758 N 255.711 1.52812 0.385517 0
M  V30 2759 C 256.674 1.77188 1.45386 0
M  V30 2760 C 257.674 0.641953 1.4743 0
M  V30 2761 O 258.864 0.910033 1.4854 0
M  V30 2762 C 255.996 1.87582 2.8465 0
M  V30 2763 H 257.189 2.72583 1.25054 0
M  V30 2764 H 254.742 1.43586 0.617467 0
M  V30 2765 H 255.477 0.941849 3.10322 0
M  V30 2766 H 255.262 2.69748 2.84567 0
M  V30 2767 H 256.752 2.08102 3.62054 0
M  V30 2768 N 257.189 -0.644168 1.43834 0
M  V30 2769 C 258.6 -1.22554 1.40845 0
M  V30 2770 C 258.951 -1.9585 0.117115 0
M  V30 2771 O 258.076 -2.01734 -0.783086 0
M  V30 2772 C 258.671 -2.22907 2.55143 0
M  V30 2773 C 257.23 -2.76501 2.5539 0
M  V30 2774 C 256.377 -1.51287 2.32396 0
M  V30 2775 H 259.328 -0.43563 1.52604 0
M  V30 2776 H 259.349 -3.05259 2.2715 0
M  V30 2777 H 258.861 -1.69533 3.49114 0
M  V30 2778 H 256.962 -3.33914 1.65324 0
M  V30 2779 H 257.075 -3.23429 3.53455 0
M  V30 2780 H 255.439 -1.78957 1.81236 0
M  V30 2781 H 256.222 -0.998336 3.28463 0
M  V30 2782 N 258.668 -1.30515 -0.883378 0
M  V30 2783 C 259.917 -1.18795 -1.63005 0
M  V30 2784 C 260.23 0.255923 -1.93919 0
M  V30 2785 O 261.436 0.494654 -2.66956 0
M  V30 2786 C 259.892 -2.07878 -2.93794 0
M  V30 2787 C 259.5 -3.57184 -2.70414 0
M  V30 2788 C 261.244 -2.04924 -3.71761 0
M  V30 2789 C 259.151 -4.38317 -3.97029 0
M  V30 2790 H 258.081 -0.441031 -0.611562 0
M  V30 2791 H 260.732 -1.55275 -0.977854 0
M  V30 2792 H 259.114 -1.64283 -3.60315 0
M  V30 2793 H 260.288 -4.08937 -2.12384 0
M  V30 2794 H 258.603 -3.61976 -2.0582 0
M  V30 2795 H 261.2 -2.62792 -4.65665 0
M  V30 2796 H 261.543 -1.0331 -4.03277 0
M  V30 2797 H 262.076 -2.46649 -3.12104 0
M  V30 2798 H 258.815 -5.40632 -3.70671 0
M  V30 2799 H 258.335 -3.91326 -4.54559 0
M  V30 2800 H 260.014 -4.49834 -4.65036 0
M  V30 2801 N 260.146 1.09593 -1.13257 0
M  V30 2802 C 261.079 2.15451 -0.752061 0
M  V30 2803 C 262.057 1.60493 0.260913 0
M  V30 2804 O 263.241 1.8788 0.152819 0
M  V30 2805 C 260.368 3.38506 -0.114594 0
M  V30 2806 C 259.414 4.12183 -1.09579 0
M  V30 2807 S 260.247 4.6661 -2.62745 0
M  V30 2808 C 261.403 5.92966 -2.00354 0
M  V30 2809 H 261.636 2.47395 -1.64872 0
M  V30 2810 H 259.169 1.21515 -0.952545 0
M  V30 2811 H 261.127 4.09757 0.246808 0
M  V30 2812 H 259.788 3.04784 0.759309 0
M  V30 2813 H 258.981 5.00445 -0.597545 0
M  V30 2814 H 258.583 3.46785 -1.40057 0
M  V30 2815 H 260.875 6.63882 -1.35156 0
M  V30 2816 H 261.818 6.47467 -2.86691 0
M  V30 2817 H 262.226 5.45405 -1.4558 0
M  V30 2818 N 261.624 0.925811 1.2754 0
M  V30 2819 C 262.849 0.580924 1.99098 0
M  V30 2820 C 263.274 -0.833555 1.68622 0
M  V30 2821 O 262.632 -1.55903 0.925422 0
M  V30 2822 C 262.68 0.811186 3.51358 0
M  V30 2823 O 261.784 -0.124129 4.12213 0
M  V30 2824 H 261.125 0.223873 0.625122 0
M  V30 2825 H 263.655 1.24455 1.62395 0
M  V30 2826 H 263.665 0.72601 4.01489 0
M  V30 2827 H 262.34 1.84227 3.72872 0
M  V30 2828 H 260.917 0.0108006 3.72898 0
M  V30 2829 N 263.102 -1.41638 0.69111 0
M  V30 2830 C 264.35 -2.00902 0.219758 0
M  V30 2831 C 264.671 -1.54994 -1.18329 0
M  V30 2832 O 263.941 -0.778628 -1.79762 0
M  V30 2833 H 262.521 -0.74289 0.0782558 0
M  V30 2834 H 265.183 -1.73327 0.891271 0
M  V30 2835 H 264.279 -3.11224 0.233708 0
M  V30 2836 N 264.58 -0.43555 -1.51462 0
M  V30 2837 C 265.512 0.41257 -2.25456 0
M  V30 2838 C 266.525 0.987822 -1.29406 0
M  V30 2839 O 267.714 0.882266 -1.55172 0
M  V30 2840 C 264.814 1.58894 -2.99342 0
M  V30 2841 C 263.987 1.13288 -4.22474 0
M  V30 2842 C 263.046 2.17917 -4.78956 0
M  V30 2843 O 262.072 1.77425 -5.40841 0
M  V30 2844 N 263.274 3.50382 -4.62832 0
M  V30 2845 H 266.039 -0.221603 -2.9888 0
M  V30 2846 H 263.6 -0.264342 -1.59727 0
M  V30 2847 H 265.592 2.28508 -3.34015 0
M  V30 2848 H 264.162 2.12849 -2.28941 0
M  V30 2849 H 263.382 0.263881 -3.93316 0
M  V30 2850 H 264.67 0.805542 -5.02383 0
M  V30 2851 H 264.068 3.86013 -4.13534 0
M  V30 2852 H 262.625 4.15895 -5.01871 0
M  V30 2853 N 266.058 1.56714 -0.166846 0
M  V30 2854 C 267.306 1.96358 0.478305 0
M  V30 2855 C 267.627 1.0537 1.6408 0
M  V30 2856 O 266.897 0.119154 1.95537 0
M  V30 2857 H 265.477 0.725065 0.179692 0
M  V30 2858 H 268.139 1.93329 -0.246985 0
M  V30 2859 H 267.235 3.00547 0.841292 0
M  V30 2860 N 267.536 -0.106894 1.57237 0
M  V30 2861 C 268.466 -1.13148 2.04254 0
M  V30 2862 C 269.447 -1.42476 0.929224 0
M  V30 2863 O 270.632 -1.52709 1.19973 0
M  V30 2864 C 267.762 -2.4545 2.45706 0
M  V30 2865 C 266.716 -2.30558 3.60592 0
M  V30 2866 C 266.042 -3.67931 3.87983 0
M  V30 2867 C 267.342 -1.75597 4.91897 0
M  V30 2868 H 269.036 -0.740374 2.90101 0
M  V30 2869 H 266.582 -0.354696 1.39563 0
M  V30 2870 H 268.535 -3.17389 2.77205 0
M  V30 2871 H 267.259 -2.86475 1.56843 0
M  V30 2872 H 265.918 -1.61067 3.29322 0
M  V30 2873 H 265.566 -4.06462 2.96306 0
M  V30 2874 H 265.266 -3.58817 4.65322 0
M  V30 2875 H 266.79 -4.41356 4.21945 0
M  V30 2876 H 268.204 -2.37364 5.21854 0
M  V30 2877 H 266.601 -1.77272 5.73319 0
M  V30 2878 H 267.671 -0.714451 4.79608 0
M  V30 2879 N 269.014 -1.53014 -0.377408 0
M  V30 2880 C 269.977 -1.77957 -1.44444 0
M  V30 2881 C 270.977 -0.649763 -1.47087 0
M  V30 2882 O 272.167 -0.917897 -1.48055 0
M  V30 2883 C 269.299 -1.89089 -2.83651 0
M  V30 2884 H 270.492 -2.73243 -1.23606 0
M  V30 2885 H 268.045 -1.43912 -0.609844 0
M  V30 2886 H 268.78 -0.958293 -3.09818 0
M  V30 2887 H 268.565 -2.71254 -2.83132 0
M  V30 2888 H 270.055 -2.1002 -3.60945 0
M  V30 2889 N 270.492 0.636531 -1.44174 0
M  V30 2890 C 271.74 1.39343 -1.46383 0
M  V30 2891 C 272.061 1.94766 -0.0955715 0
M  V30 2892 O 271.331 1.75452 0.871395 0
M  V30 2893 H 269.911 0.517199 -0.538994 0
M  V30 2894 H 272.573 0.74957 -1.7991 0
M  V30 2895 H 271.669 2.22746 -2.18611 0
M  V30 2896 N 271.97 1.30982 0.876444 0
M  V30 2897 C 273.217 1.20296 1.62896 0
M  V30 2898 C 273.545 -0.240395 1.93009 0
M  V30 2899 O 272.8 -1.18733 1.55567 0
M  V30 2900 C 273.099 1.98572 2.9716 0
M  V30 2901 C 272.765 3.48125 2.86566 0
M  V30 2902 C 271.427 3.88905 2.83383 0
M  V30 2903 C 273.779 4.43322 2.74071 0
M  V30 2904 C 271.107 5.2316 2.65556 0
M  V30 2905 C 273.459 5.77695 2.57781 0
M  V30 2906 C 272.123 6.17704 2.52979 0
M  V30 2907 H 271.393 0.440193 0.59608 0
M  V30 2908 H 274.04 1.62177 1.01837 0
M  V30 2909 H 272.345 1.49352 3.62217 0
M  V30 2910 H 274.042 1.8769 3.54364 0
M  V30 2911 H 270.632 3.15723 2.89856 0
M  V30 2912 H 274.816 4.12752 2.75589 0
M  V30 2913 H 270.072 5.53241 2.60259 0
M  V30 2914 H 274.246 6.51091 2.47089 0
M  V30 2915 H 271.873 7.21678 2.38924 0
M  V30 2916 N 273.449 -1.08991 1.13837 0
M  V30 2917 C 274.696 -1.81258 0.902882 0
M  V30 2918 C 275.024 -1.85936 -0.570803 0
M  V30 2919 O 274.279 -1.3267 -1.43865 0
M  V30 2920 C 274.578 -3.27042 1.44147 0
M  V30 2921 C 274.244 -3.4249 2.93276 0
M  V30 2922 C 272.906 -3.46414 3.33992 0
M  V30 2923 C 275.258 -3.4666 3.892 0
M  V30 2924 C 272.586 -3.52091 4.69307 0
M  V30 2925 C 274.938 -3.53872 5.24364 0
M  V30 2926 C 273.602 -3.56066 5.646 0
M  V30 2927 H 272.872 -0.663268 0.330388 0
M  V30 2928 H 275.519 -1.28368 1.42105 0
M  V30 2929 H 273.824 -3.82599 0.844097 0
M  V30 2930 H 275.521 -3.81499 1.23528 0
M  V30 2931 H 272.111 -3.40124 2.60794 0
M  V30 2932 H 276.295 -3.42865 3.58828 0
M  V30 2933 H 271.551 -3.52079 4.9985 0
M  V30 2934 H 275.725 -3.56043 5.98503 0
M  V30 2935 H 273.352 -3.60218 6.69438 0
M  V30 2936 N 274.927 -0.932562 -1.27047 0
M  V30 2937 C 275.89 -0.440064 -2.24936 0
M  V30 2938 C 276.89 0.444071 -1.54547 0
M  V30 2939 O 278.08 0.244465 -1.72476 0
M  V30 2940 C 275.212 0.36678 -3.38921 0
M  V30 2941 H 276.405 -1.305 -2.70018 0
M  V30 2942 H 273.958 -0.713707 -1.39054 0
M  V30 2943 H 274.693 1.25033 -2.99228 0
M  V30 2944 H 274.478 -0.267204 -3.91188 0
M  V30 2945 H 275.968 0.701567 -4.11665 0
M  V30 2946 N 276.405 1.4127 -0.698611 0
M  V30 2947 C 277.63 2.06024 -0.238512 0
M  V30 2948 C 278.055 1.5224 1.10475 0
M  V30 2949 O 277.413 0.650623 1.69223 0
M  V30 2950 C 277.461 3.59988 -0.209952 0
M  V30 2951 O 276.565 4.04282 0.814235 0
M  V30 2952 H 275.906 0.653829 -0.115775 0
M  V30 2953 H 278.436 1.8098 -0.954326 0
M  V30 2954 H 278.446 4.07979 -0.0418436 0
M  V30 2955 H 277.121 3.98503 -1.1903 0
M  V30 2956 H 275.698 3.6779 0.615234 0
M  V30 2957 N 277.883 0.443576 1.51229 0
M  V30 2958 C 279.129 -0.120975 2.02439 0
M  V30 2959 C 279.462 -1.41815 1.32674 0
M  V30 2960 O 278.737 -1.89373 0.443622 0
M  V30 2961 C 279.02 -0.333291 3.58554 0
M  V30 2962 C 278.873 0.982968 4.38928 0
M  V30 2963 C 280.192 -1.10028 4.26124 0
M  V30 2964 H 277.311 -0.0424923 0.735774 0
M  V30 2965 H 279.953 0.583794 1.80809 0
M  V30 2966 H 278.103 -0.933614 3.77115 0
M  V30 2967 H 279.775 1.61775 4.32003 0
M  V30 2968 H 278.018 1.58611 4.03763 0
M  V30 2969 H 278.689 0.788379 5.46341 0
M  V30 2970 H 281.165 -0.591711 4.11871 0
M  V30 2971 H 280.041 -1.21761 5.35225 0
M  V30 2972 H 280.302 -2.12996 3.87408 0
M  V30 2973 N 279.361 -1.56624 0.175154 0
M  V30 2974 C 280.324 -2.16934 -0.739738 0
M  V30 2975 C 281.324 -1.11842 -1.15533 0
M  V30 2976 O 282.514 -1.37335 -1.07167 0
M  V30 2977 C 279.646 -2.75531 -2.00738 0
M  V30 2978 H 280.839 -2.99131 -0.214639 0
M  V30 2979 H 278.392 -1.56123 -0.0744197 0
M  V30 2980 H 279.127 -1.97078 -2.57548 0
M  V30 2981 H 278.912 -3.52444 -1.71831 0
M  V30 2982 H 280.402 -3.21904 -2.66021 0
M  V30 2983 N 280.839 0.0985539 -1.57292 0
M  V30 2984 C 281.772 1.15082 -1.97057 0
M  V30 2985 C 282.75 1.39025 -0.843255 0
M  V30 2986 O 283.934 1.52842 -1.10325 0
M  V30 2987 C 281.061 2.50069 -2.28437 0
M  V30 2988 C 280.107 2.42428 -3.509 0
M  V30 2989 S 280.94 1.84414 -5.02744 0
M  V30 2990 C 282.096 3.21032 -5.37298 0
M  V30 2991 H 282.329 0.811815 -2.86002 0
M  V30 2992 H 279.862 0.306102 -1.51335 0
M  V30 2993 H 281.82 3.27729 -2.47192 0
M  V30 2994 H 280.481 2.8114 -1.40069 0
M  V30 2995 H 279.674 3.41911 -3.70288 0
M  V30 2996 H 279.276 1.72896 -3.31637 0
M  V30 2997 H 281.568 4.17297 -5.33731 0
M  V30 2998 H 282.511 3.06452 -6.38352 0
M  V30 2999 H 282.919 3.20404 -4.64759 0
M  V30 3000 N 282.317 1.53212 0.369288 0
M  V30 3001 C 283.566 1.68436 1.10961 0
M  V30 3002 C 283.879 0.440738 1.9057 0
M  V30 3003 O 285.085 0.473446 2.6734 0
M  V30 3004 C 283.541 2.97744 2.0218 0
M  V30 3005 C 283.149 4.29355 1.279 0
M  V30 3006 C 284.893 3.22334 2.76226 0
M  V30 3007 C 282.8 5.49755 2.17999 0
M  V30 3008 H 281.73 0.627568 0.41794 0
M  V30 3009 H 284.381 1.79713 0.370884 0
M  V30 3010 H 282.763 2.8026 2.79768 0
M  V30 3011 H 283.937 4.57458 0.554007 0
M  V30 3012 H 282.252 4.11179 0.657311 0
M  V30 3013 H 284.849 4.09471 3.43857 0
M  V30 3014 H 285.192 2.38238 3.41392 0
M  V30 3015 H 285.725 3.40475 2.05723 0
M  V30 3016 H 282.464 6.36318 1.57417 0
M  V30 3017 H 281.984 5.25937 2.88359 0
M  V30 3018 H 283.663 5.84401 2.77641 0
M  V30 3019 N 283.795 -0.628877 1.44509 0
M  V30 3020 C 285.035 -1.39993 1.48934 0
M  V30 3021 C 285.399 -1.91627 0.119604 0
M  V30 3022 O 286.6 -2.68772 0.0385283 0
M  V30 3023 C 284.871 -2.53241 2.52198 0
M  V30 3024 S 286.43 -3.41383 2.75687 0
M  V30 3025 H 283.248 -0.477558 0.526744 0
M  V30 3026 H 285.85 -0.727804 1.81448 0
M  V30 3027 H 284.554 -2.13622 3.50419 0
M  V30 3028 H 284.085 -3.25278 2.21264 0
M  V30 3029 H 286.1 -4.50752 2.07453 0
M  V30 3030 N 285.273 -1.31445 -0.869486 0
M  V30 3031 C 286.236 -1.19094 -1.9583 0
M  V30 3032 C 287.236 -0.117906 -1.60367 0
M  V30 3033 O 288.426 -0.367208 -1.70286 0
M  V30 3034 C 285.558 -0.828165 -3.30688 0
M  V30 3035 H 286.751 -2.15842 -2.08212 0
M  V30 3036 H 284.304 -1.15063 -1.05784 0
M  V30 3037 H 285.039 0.138142 -3.24006 0
M  V30 3038 H 284.824 -1.6038 -3.578 0
M  V30 3039 H 286.314 -0.765658 -4.10521 0
M  V30 3040 N 286.751 1.08385 -1.14413 0
M  V30 3041 C 288 1.80153 -0.907076 0
M  V30 3042 C 288.313 1.87176 0.567851 0
M  V30 3043 O 289.519 2.55359 0.922172 0
M  V30 3044 C 287.975 3.23687 -1.57336 0
M  V30 3045 C 287.583 3.24897 -3.08457 0
M  V30 3046 C 289.327 4.00136 -1.41744 0
M  V30 3047 C 287.234 4.6302 -3.67921 0
M  V30 3048 H 286.164 0.675139 -0.335714 0
M  V30 3049 H 288.815 1.21733 -1.37307 0
M  V30 3050 H 287.197 3.82234 -1.03505 0
M  V30 3051 H 288.371 2.76055 -3.68958 0
M  V30 3052 H 286.686 2.61943 -3.2369 0
M  V30 3053 H 289.283 5.02201 -1.83572 0
M  V30 3054 H 289.626 4.14709 -0.363576 0
M  V30 3055 H 290.159 3.48058 -1.92614 0
M  V30 3056 H 286.898 4.5365 -4.73161 0
M  V30 3057 H 286.418 5.12143 -3.12201 0
M  V30 3058 H 288.097 5.31994 -3.68227 0
M  V30 3059 N 288.23 0.939286 1.26551 0
M  V30 3060 C 289.193 0.451987 2.24699 0
M  V30 3061 C 290.193 -0.435869 1.5478 0
M  V30 3062 O 291.383 -0.235314 1.72603 0
M  V30 3063 C 288.515 -0.348801 3.39111 0
M  V30 3064 H 289.708 1.3193 2.69322 0
M  V30 3065 H 287.261 0.721072 1.38673 0
M  V30 3066 H 287.996 -1.23444 2.99887 0
M  V30 3067 H 287.781 0.287945 3.91041 0
M  V30 3068 H 289.271 -0.679726 4.12031 0
M  V30 3069 N 289.708 -1.40897 0.706093 0
M  V30 3070 C 290.933 -2.05895 0.249435 0
M  V30 3071 C 291.358 -1.52823 -1.09666 0
M  V30 3072 O 290.716 -0.659589 -1.68876 0
M  V30 3073 C 290.764 -3.59872 0.22904 0
M  V30 3074 O 289.868 -4.04708 -0.792784 0
M  V30 3075 H 289.209 -0.653206 0.119241 0
M  V30 3076 H 291.739 -1.80471 0.96391 0
M  V30 3077 H 291.749 -4.07951 0.0634791 0
M  V30 3078 H 290.424 -3.97866 1.21141 0
M  V30 3079 H 289.001 -3.68111 -0.59572 0
M  V30 3080 N 291.186 -0.45159 -1.50991 0
M  V30 3081 C 292.434 0.109857 -2.01801 0
M  V30 3082 C 292.755 1.41958 -1.3369 0
M  V30 3083 O 292.025 1.9003 -0.475951 0
M  V30 3084 H 290.605 0.0435884 -0.745727 0
M  V30 3085 H 293.267 -0.597557 -1.85514 0
M  V30 3086 H 292.363 0.275489 -3.10882 0
M  V30 3087 N 292.664 1.56529 -0.183458 0
M  V30 3088 C 293.889 2.02064 0.467428 0
M  V30 3089 C 294.314 1.06282 1.55196 0
M  V30 3090 O 293.672 0.0443565 1.81246 0
M  V30 3091 C 293.72 3.46122 1.01153 0
M  V30 3092 O 292.824 3.53437 2.12499 0
M  V30 3093 H 292.165 0.654726 0.110588 0
M  V30 3094 H 294.695 2.02521 -0.290917 0
M  V30 3095 H 294.705 3.85676 1.33108 0
M  V30 3096 H 293.38 4.15331 0.217533 0
M  V30 3097 H 291.957 3.2575 1.81497 0
M  V30 3098 N 294.142 -0.090211 1.57342 0
M  V30 3099 C 295.052 -1.12735 2.05738 0
M  V30 3100 C 296.068 -1.43557 0.983231 0
M  V30 3101 O 297.244 -1.54101 1.29672 0
M  V30 3102 C 294.309 -2.42659 2.47624 0
M  V30 3103 C 293.37 -2.18975 3.69254 0
M  V30 3104 C 292.603 -3.42704 4.09133 0
M  V30 3105 O 292.826 -4.51127 3.49057 0
M  V30 3106 O 291.76 -3.32003 5.02053 0
M  V30 3107 H 295.586 -0.746279 2.94388 0
M  V30 3108 H 293.171 -0.303064 1.46294 0
M  V30 3109 H 295.053 -3.19155 2.7517 0
M  V30 3110 H 293.728 -2.80182 1.62109 0
M  V30 3111 H 292.635 -1.40244 3.46818 0
M  V30 3112 H 293.968 -1.86342 4.55563 0
M  V30 3113 N 295.62 -1.53406 -0.361157 0
M  V30 3114 C 296.55 -1.83136 -1.44857 0
M  V30 3115 C 297.531 -0.685174 -1.5569 0
M  V30 3116 O 298.716 -0.93544 -1.70186 0
M  V30 3117 C 295.846 -2.02522 -2.82138 0
M  V30 3118 C 294.8 -3.18302 -2.86126 0
M  V30 3119 C 294.126 -3.22989 -4.26125 0
M  V30 3120 C 295.426 -4.56796 -2.53248 0
M  V30 3121 H 297.12 -2.74201 -1.20226 0
M  V30 3122 H 294.666 -1.31938 -0.576922 0
M  V30 3123 H 296.619 -2.21904 -3.58241 0
M  V30 3124 H 295.343 -1.08172 -3.08166 0
M  V30 3125 H 294.002 -2.98747 -2.12475 0
M  V30 3126 H 293.65 -2.26267 -4.49235 0
M  V30 3127 H 293.35 -4.00781 -4.29708 0
M  V30 3128 H 294.874 -3.44559 -5.04094 0
M  V30 3129 H 296.288 -4.7631 -3.19064 0
M  V30 3130 H 294.685 -5.36862 -2.68141 0
M  V30 3131 H 295.755 -4.61606 -1.48484 0
M  V30 3132 N 297.098 0.621204 -1.44841 0
M  V30 3133 C 298.323 1.41244 -1.51871 0
M  V30 3134 C 298.748 1.87519 -0.147764 0
M  V30 3135 O 298.106 1.59334 0.865 0
M  V30 3136 C 298.154 2.60221 -2.49634 0
M  V30 3137 O 297.258 3.60395 -2.00473 0
M  V30 3138 H 296.599 0.42223 -0.512463 0
M  V30 3139 H 299.129 0.757305 -1.90069 0
M  V30 3140 H 299.139 3.0764 -2.67996 0
M  V30 3141 H 297.814 2.25887 -3.4921 0
M  V30 3142 H 296.391 3.19717 -1.91925 0
M  V30 3143 N 298.576 1.31904 0.862503 0
M  V30 3144 C 299.486 1.22161 2.00285 0
M  V30 3145 C 300.502 0.136785 1.73462 0
M  V30 3146 O 301.678 0.355994 1.98229 0
M  V30 3147 C 298.743 0.937093 3.33796 0
M  V30 3148 C 297.804 2.10957 3.73893 0
M  V30 3149 C 297.037 1.83853 5.01033 0
M  V30 3150 O 297.26 0.777274 5.65079 0
M  V30 3151 O 296.194 2.69741 5.38074 0
M  V30 3152 H 300.02 2.18008 2.11439 0
M  V30 3153 H 297.605 1.11716 0.991957 0
M  V30 3154 H 299.487 0.794583 4.13841 0
M  V30 3155 H 298.162 0.00871894 3.23699 0
M  V30 3156 H 297.069 2.30752 2.94456 0
M  V30 3157 H 298.402 3.02046 3.88625 0
M  V30 3158 N 300.054 -1.07777 1.14986 0
M  V30 3159 C 301.279 -1.84558 0.946213 0
M  V30 3160 C 301.704 -1.81323 -0.500362 0
M  V30 3161 O 301.062 -1.20301 -1.35637 0
M  V30 3162 C 301.11 -3.29736 1.45968 0
M  V30 3163 O 300.214 -4.07149 0.65601 0
M  V30 3164 H 299.555 -0.571641 0.33782 0
M  V30 3165 H 302.085 -1.35991 1.52865 0
M  V30 3166 H 302.095 -3.80574 1.47063 0
M  V30 3167 H 300.77 -3.31406 2.51283 0
M  V30 3168 H 299.347 -3.65994 0.714322 0
M  V30 3169 N 301.532 -0.945985 -1.26051 0
M  V30 3170 C 302.495 -0.463897 -2.24456 0
M  V30 3171 C 303.495 0.427655 -1.55009 0
M  V30 3172 O 304.685 0.226157 -1.72726 0
M  V30 3173 C 301.817 0.330812 -3.39291 0
M  V30 3174 H 303.01 -1.33357 -2.68619 0
M  V30 3175 H 300.563 -0.728416 -1.38289 0
M  V30 3176 H 301.298 1.21852 -3.00537 0
M  V30 3177 H 301.083 -0.308679 -3.90883 0
M  V30 3178 H 302.573 0.657865 -4.12386 0
M  V30 3179 N 303.011 1.40521 -0.713556 0
M  V30 3180 C 304.258 2.00923 -0.25219 0
M  V30 3181 C 304.586 1.56571 1.15395 0
M  V30 3182 O 303.841 0.775874 1.79663 0
M  V30 3183 C 304.14 3.56317 -0.278 0
M  V30 3184 C 303.806 4.20246 -1.63415 0
M  V30 3185 C 302.468 4.37422 -2.00538 0
M  V30 3186 C 304.82 4.55923 -2.52554 0
M  V30 3187 C 302.148 4.87558 -3.2635 0
M  V30 3188 C 304.5 5.07458 -3.77716 0
M  V30 3189 C 303.164 5.22843 -4.14959 0
M  V30 3190 H 302.434 0.735231 -0.0922829 0
M  V30 3191 H 305.081 1.68161 -0.916188 0
M  V30 3192 H 303.386 3.88976 0.469567 0
M  V30 3193 H 305.083 4.00883 0.0967819 0
M  V30 3194 H 301.673 4.07263 -1.33546 0
M  V30 3195 H 305.857 4.42291 -2.25149 0
M  V30 3196 H 301.113 4.97654 -3.55176 0
M  V30 3197 H 305.287 5.34041 -4.4696 0
M  V30 3198 H 302.914 5.61454 -5.12516 0
M  V30 3199 N 304.489 0.459591 1.5075 0
M  V30 3200 C 305.737 -0.0991532 2.01857 0
M  V30 3201 C 306.058 -1.41247 1.34441 0
M  V30 3202 O 305.328 -1.89775 0.486022 0
M  V30 3203 H 303.908 -0.039633 0.745948 0
M  V30 3204 H 306.57 0.607387 1.85194 0
M  V30 3205 H 305.666 -0.258998 3.11023 0
M  V30 3206 N 305.967 -1.56429 0.191757 0
M  V30 3207 C 307.197 -2.01574 -0.452928 0
M  V30 3208 C 307.605 -1.07107 -1.55964 0
M  V30 3209 O 306.948 -0.067534 -1.83576 0
M  V30 3210 C 307.01 -3.43121 -1.07278 0
M  V30 3211 C 306.674 -4.56879 -0.105214 0
M  V30 3212 C 307.671 -5.15379 0.684149 0
M  V30 3213 C 305.356 -5.023 0.00489824 0
M  V30 3214 C 307.35 -6.17746 1.57062 0
M  V30 3215 C 305.037 -6.04511 0.894935 0
M  V30 3216 C 306.035 -6.62108 1.67637 0
M  V30 3217 O 305.723 -7.62335 2.55149 0
M  V30 3218 H 305.455 -0.665554 -0.118379 0
M  V30 3219 H 308.009 -2.03245 0.296737 0
M  V30 3220 H 306.239 -3.38425 -1.87097 0
M  V30 3221 H 307.928 -3.72093 -1.62177 0
M  V30 3222 H 308.694 -4.81157 0.609365 0
M  V30 3223 H 304.573 -4.57168 -0.593156 0
M  V30 3224 H 308.117 -6.6263 2.181 0
M  V30 3225 H 304.014 -6.38157 0.970847 0
M  V30 3226 H 304.782 -7.79741 2.48892 0
M  V30 3227 N 307.445 0.0818655 -1.57387 0
M  V30 3228 C 308.692 0.782914 -1.86753 0
M  V30 3229 C 309.02 1.78082 -0.782118 0
M  V30 3230 O 308.275 1.94426 0.22295 0
M  V30 3231 C 308.574 1.53513 -3.22752 0
M  V30 3232 C 308.24 0.678134 -4.45771 0
M  V30 3233 C 306.902 0.441929 -4.79166 0
M  V30 3234 C 309.254 0.0832243 -5.21134 0
M  V30 3235 C 306.582 -0.398833 -5.85343 0
M  V30 3236 C 308.934 -0.744935 -6.28199 0
M  V30 3237 C 307.598 -0.991107 -6.60101 0
M  V30 3238 H 306.868 0.286489 -0.683378 0
M  V30 3239 H 309.515 0.0439808 -1.91449 0
M  V30 3240 H 307.82 2.34599 -3.138 0
M  V30 3241 H 309.517 2.08218 -3.42705 0
M  V30 3242 H 306.107 0.872357 -4.19628 0
M  V30 3243 H 310.291 0.252847 -4.95655 0
M  V30 3244 H 305.547 -0.598405 -6.08465 0
M  V30 3245 H 309.721 -1.21271 -6.8576 0
M  V30 3246 H 307.348 -1.64437 -7.42202 0
M  V30 3247 N 308.923 1.53595 0.353017 0
M  V30 3248 C 310.172 1.69603 1.09168 0
M  V30 3249 C 310.485 0.460925 1.90092 0
M  V30 3250 O 311.691 0.501774 2.66823 0
M  V30 3251 C 310.147 2.99872 1.9901 0
M  V30 3252 C 309.755 4.30687 1.23339 0
M  V30 3253 C 311.499 3.25246 2.72792 0
M  V30 3254 C 309.406 5.52036 2.12156 0
M  V30 3255 H 308.336 0.631966 0.411261 0
M  V30 3256 H 310.987 1.80096 0.351802 0
M  V30 3257 H 309.369 2.83212 2.7678 0
M  V30 3258 H 310.543 4.58019 0.505456 0
M  V30 3259 H 308.858 4.11853 0.613663 0
M  V30 3260 H 311.455 4.13095 3.39495 0
M  V30 3261 H 311.798 2.41846 3.38846 0
M  V30 3262 H 312.331 3.42638 2.021 0
M  V30 3263 H 309.07 6.37951 1.50659 0
M  V30 3264 H 308.59 5.28966 2.82764 0
M  V30 3265 H 310.269 5.87313 2.71427 0
M  V30 3266 N 310.401 -0.613514 1.45168 0
M  V30 3267 C 311.629 -1.39946 1.5239 0
M  V30 3268 C 312.044 -1.88167 0.154531 0
M  V30 3269 O 311.401 -1.61872 -0.842843 0
M  V30 3270 C 311.452 -2.60795 2.50337 0
M  V30 3271 O 311.173 -2.1458 3.81952 0
M  V30 3272 C 312.674 -3.53723 2.67198 0
M  V30 3273 H 309.894 -0.428593 0.516284 0
M  V30 3274 H 312.438 -0.748753 1.903 0
M  V30 3275 H 310.593 -3.21919 2.15515 0
M  V30 3276 H 311.007 -2.93055 4.34993 0
M  V30 3277 H 312.481 -4.35079 3.39721 0
M  V30 3278 H 312.958 -4.0368 1.73029 0
M  V30 3279 H 313.564 -2.98456 3.02992 0
M  V30 3280 N 311.879 -1.3236 -0.855495 0
M  V30 3281 C 312.842 -1.21164 -1.94556 0
M  V30 3282 C 313.842 -0.134908 -1.60233 0
M  V30 3283 O 315.032 -0.385249 -1.69887 0
M  V30 3284 C 312.164 -0.863192 -3.29791 0
M  V30 3285 H 313.357 -2.18038 -2.05911 0
M  V30 3286 H 310.91 -1.16179 -1.04557 0
M  V30 3287 H 311.645 0.103769 -3.24134 0
M  V30 3288 H 311.43 -1.64166 -3.56078 0
M  V30 3289 H 312.92 -0.809156 -4.09686 0
M  V30 3290 N 313.357 1.07166 -1.15556 0
M  V30 3291 C 314.597 1.81391 -0.94216 0
M  V30 3292 C 314.961 1.84788 0.521272 0
M  V30 3293 O 316.162 2.54904 0.85307 0
M  V30 3294 C 314.433 3.22431 -1.54185 0
M  V30 3295 S 315.992 4.13379 -1.47183 0
M  V30 3296 H 312.81 0.624963 -0.339031 0
M  V30 3297 H 315.412 1.28725 -1.4714 0
M  V30 3298 H 314.116 3.17548 -2.59984 0
M  V30 3299 H 313.647 3.80172 -1.01156 0
M  V30 3300 H 315.662 4.94007 -0.466004 0
M  V30 3301 N 314.835 0.952656 1.25548 0
M  V30 3302 C 315.798 0.475794 2.24207 0
M  V30 3303 C 316.798 -0.419428 1.55234 0
M  V30 3304 O 317.988 -0.216994 1.72843 0
M  V30 3305 C 315.12 -0.312814 3.39462 0
M  V30 3306 H 316.313 1.34779 2.67908 0
M  V30 3307 H 313.866 0.735739 1.37901 0
M  V30 3308 H 314.601 -1.20257 3.01179 0
M  V30 3309 H 314.386 0.329404 3.90714 0
M  V30 3310 H 315.876 -0.635986 4.12729 0
M  V30 3311 N 316.313 -1.40141 0.720998 0
M  V30 3312 C 317.559 -2.01084 0.263231 0
M  V30 3313 C 317.892 -1.57052 -1.14229 0
M  V30 3314 O 317.167 -0.793027 -1.77599 0
M  V30 3315 C 317.45 -3.58401 0.349344 0
M  V30 3316 C 317.303 -4.12491 1.79363 0
M  V30 3317 C 318.622 -4.39231 -0.276351 0
M  V30 3318 H 315.741 -0.730572 0.0971228 0
M  V30 3319 H 318.383 -1.66543 0.914518 0
M  V30 3320 H 316.533 -3.87958 -0.205165 0
M  V30 3321 H 318.205 -3.93711 2.40394 0
M  V30 3322 H 316.448 -3.66576 2.31958 0
M  V30 3323 H 317.119 -5.21646 1.80524 0
M  V30 3324 H 319.595 -4.15637 0.196184 0
M  V30 3325 H 318.471 -5.48586 -0.185681 0
M  V30 3326 H 318.732 -4.20643 -1.36059 0
M  V30 3327 N 317.792 -0.46758 -1.50504 0
M  V30 3328 C 319.041 0.0902868 -2.01498 0
M  V30 3329 C 319.354 1.411 -1.35463 0
M  V30 3330 O 320.56 2.0536 -1.77594 0
M  V30 3331 C 319.016 0.21142 -3.59278 0
M  V30 3332 C 318.624 -1.10065 -4.34269 0
M  V30 3333 C 320.368 0.721433 -4.18325 0
M  V30 3334 C 318.275 -0.943505 -5.83825 0
M  V30 3335 H 317.205 0.037517 -0.753066 0
M  V30 3336 H 319.856 -0.601943 -1.73346 0
M  V30 3337 H 318.238 0.967352 -3.84003 0
M  V30 3338 H 319.412 -1.86726 -4.21272 0
M  V30 3339 H 317.727 -1.5415 -3.86816 0
M  V30 3340 H 320.324 0.85598 -5.27804 0
M  V30 3341 H 320.667 1.71186 -3.79475 0
M  V30 3342 H 321.2 0.0229843 -3.97793 0
M  V30 3343 H 317.939 -1.90719 -6.27141 0
M  V30 3344 H 317.459 -0.217213 -5.99407 0
M  V30 3345 H 319.138 -0.608715 -6.4413 0
M  V30 3346 N 319.27 1.56325 -0.20005 0
M  V30 3347 C 320.519 1.96895 0.437652 0
M  V30 3348 C 320.832 1.08999 1.62415 0
M  V30 3349 O 322.038 1.39372 2.32997 0
M  V30 3350 C 320.494 3.50198 0.830025 0
M  V30 3351 C 320.102 4.46765 -0.332461 0
M  V30 3352 C 321.846 3.99526 1.43453 0
M  V30 3353 C 319.753 5.91344 0.0811468 0
M  V30 3354 H 318.683 0.735209 0.167282 0
M  V30 3355 H 321.334 1.81148 -0.292853 0
M  V30 3356 H 319.716 3.61467 1.61734 0
M  V30 3357 H 320.89 4.47231 -1.11 0
M  V30 3358 H 319.205 4.07657 -0.848789 0
M  V30 3359 H 321.802 5.05025 1.75652 0
M  V30 3360 H 322.145 3.44122 2.34277 0
M  V30 3361 H 322.678 3.91393 0.71109 0
M  V30 3362 H 319.417 6.50685 -0.793033 0
M  V30 3363 H 318.937 5.94121 0.823445 0
M  V30 3364 H 320.616 6.44945 0.515252 0
M  V30 3365 N 320.748 -0.0735177 1.57428 0
M  V30 3366 C 321.678 -1.0879 2.06608 0
M  V30 3367 C 322.659 -1.40473 0.959237 0
M  V30 3368 O 323.844 -1.5013 1.23185 0
M  V30 3369 C 320.974 -2.40183 2.50857 0
M  V30 3370 C 319.928 -2.22858 3.65402 0
M  V30 3371 C 319.254 -3.59619 3.957 0
M  V30 3372 C 320.554 -1.65123 4.95511 0
M  V30 3373 H 322.248 -0.678673 2.91607 0
M  V30 3374 H 319.794 -0.325013 1.40284 0
M  V30 3375 H 321.747 -3.11437 2.83874 0
M  V30 3376 H 320.471 -2.83083 1.62885 0
M  V30 3377 H 319.13 -1.54045 3.32664 0
M  V30 3378 H 318.778 -4.00086 3.04861 0
M  V30 3379 H 318.478 -3.48866 4.72828 0
M  V30 3380 H 320.002 -4.32306 4.31212 0
M  V30 3381 H 321.416 -2.26241 5.26771 0
M  V30 3382 H 319.813 -1.65071 5.7695 0
M  V30 3383 H 320.883 -0.612559 4.81015 0
M  V30 3384 N 322.226 -1.5378 -0.344866 0
M  V30 3385 C 323.454 -1.74899 -1.10534 0
M  V30 3386 C 323.869 -0.487534 -1.82397 0
M  V30 3387 O 323.226 0.540741 -1.74305 0
M  V30 3388 C 323.277 -2.92822 -2.11984 0
M  V30 3389 O 322.998 -4.14089 -1.43044 0
M  V30 3390 C 324.499 -3.25982 -3.00417 0
M  V30 3391 H 321.719 -0.584426 -0.329678 0
M  V30 3392 H 324.263 -2.006 -0.397474 0
M  V30 3393 H 322.418 -2.69457 -2.78338 0
M  V30 3394 H 322.832 -4.80272 -2.10805 0
M  V30 3395 H 324.306 -4.11848 -3.67539 0
M  V30 3396 H 324.783 -2.42228 -3.66363 0
M  V30 3397 H 325.389 -3.51349 -2.39654 0
M  V30 3398 N 323.704 0.605807 -1.45491 0
M  V30 3399 C 324.953 1.36086 -1.48874 0
M  V30 3400 C 325.266 1.95131 -0.135333 0
M  V30 3401 O 326.472 2.7146 -0.0468144 0
M  V30 3402 C 324.928 2.46518 -2.62215 0
M  V30 3403 C 324.536 1.93877 -4.03876 0
M  V30 3404 C 326.28 3.23512 -2.74846 0
M  V30 3405 C 324.187 3.01801 -5.08596 0
M  V30 3406 H 323.117 0.511497 -0.553974 0
M  V30 3407 H 325.768 0.649089 -1.71636 0
M  V30 3408 H 324.15 3.20388 -2.32739 0
M  V30 3409 H 325.324 1.26704 -4.43038 0
M  V30 3410 H 323.639 1.29622 -3.95711 0
M  V30 3411 H 326.236 4.04013 -3.50253 0
M  V30 3412 H 326.579 3.74631 -1.81542 0
M  V30 3413 H 327.112 2.56742 -3.03856 0
M  V30 3414 H 323.851 2.55597 -6.03614 0
M  V30 3415 H 323.371 3.67535 -4.74002 0
M  V30 3416 H 325.05 3.66152 -5.33424 0
M  V30 3417 N 325.182 1.32811 0.848464 0
M  V30 3418 C 326.431 1.23075 1.59798 0
M  V30 3419 C 326.744 -0.204419 1.94529 0
M  V30 3420 O 327.95 -0.423701 2.68173 0
M  V30 3421 C 326.406 2.15594 2.88179 0
M  V30 3422 C 326.014 3.64228 2.60849 0
M  V30 3423 C 327.758 2.14709 3.66197 0
M  V30 3424 C 325.665 4.48689 3.85269 0
M  V30 3425 H 324.595 0.457091 0.599653 0
M  V30 3426 H 327.246 1.57813 0.936342 0
M  V30 3427 H 325.628 1.73778 3.55833 0
M  V30 3428 H 326.802 4.14424 2.01467 0
M  V30 3429 H 325.117 3.67306 1.96151 0
M  V30 3430 H 327.714 2.75046 4.58534 0
M  V30 3431 H 328.057 1.13966 4.00397 0
M  V30 3432 H 328.59 2.54837 3.05455 0
M  V30 3433 H 325.329 5.5027 3.56207 0
M  V30 3434 H 324.849 4.03241 4.44024 0
M  V30 3435 H 326.528 4.62006 4.52946 0
M  V30 3436 N 326.66 -1.06551 1.16123 0
M  V30 3437 C 327.9 -1.80889 0.951766 0
M  V30 3438 C 328.264 -1.85062 -0.511465 0
M  V30 3439 O 329.465 -2.55353 -0.83954 0
M  V30 3440 C 327.736 -3.21609 1.55893 0
M  V30 3441 S 329.295 -4.12593 1.49373 0
M  V30 3442 H 326.113 -0.623156 0.342341 0
M  V30 3443 H 328.715 -1.27943 1.47821 0
M  V30 3444 H 327.419 -3.16165 2.61664 0
M  V30 3445 H 326.95 -3.79631 1.0317 0
M  V30 3446 H 328.965 -4.93753 0.492196 0
M  V30 3447 N 328.138 -0.959301 -1.25041 0
M  V30 3448 C 329.368 -0.63303 -1.96663 0
M  V30 3449 C 329.776 0.800031 -1.71453 0
M  V30 3450 O 329.119 1.54736 -0.99008 0
M  V30 3451 C 329.181 -0.817523 -3.50081 0
M  V30 3452 C 328.845 -2.22863 -3.98975 0
M  V30 3453 C 329.842 -3.20569 -4.09306 0
M  V30 3454 C 327.527 -2.55407 -4.32519 0
M  V30 3455 C 329.521 -4.4891 -4.52503 0
M  V30 3456 C 327.208 -3.83976 -4.754 0
M  V30 3457 C 328.206 -4.8054 -4.85356 0
M  V30 3458 O 327.894 -6.06817 -5.27284 0
M  V30 3459 H 327.626 -0.235866 -0.633516 0
M  V30 3460 H 330.18 -1.2874 -1.60047 0
M  V30 3461 H 328.41 -0.105992 -3.86555 0
M  V30 3462 H 330.099 -0.491604 -4.02912 0
M  V30 3463 H 330.865 -2.96753 -3.83618 0
M  V30 3464 H 326.744 -1.8097 -4.23994 0
M  V30 3465 H 330.288 -5.24283 -4.60188 0
M  V30 3466 H 326.185 -4.07596 -5.00535 0
M  V30 3467 H 326.953 -6.10262 -5.45457 0
M  V30 3468 N 329.616 1.39756 -0.72842 0
M  V30 3469 C 330.546 2.33289 -0.0991354 0
M  V30 3470 C 331.527 1.53568 0.731489 0
M  V30 3471 O 332.712 1.81987 0.677807 0
M  V30 3472 C 329.842 3.3763 0.813834 0
M  V30 3473 C 328.796 4.2791 0.0878663 0
M  V30 3474 C 328.122 5.22894 1.11741 0
M  V30 3475 C 329.422 5.11314 -1.06563 0
M  V30 3476 H 331.116 2.86163 -0.880408 0
M  V30 3477 H 328.662 1.37591 -0.424819 0
M  V30 3478 H 330.615 4.0201 1.26355 0
M  V30 3479 H 329.339 2.83181 1.62715 0
M  V30 3480 H 327.998 3.65 -0.342159 0
M  V30 3481 H 327.646 4.64744 1.92412 0
M  V30 3482 H 327.346 5.84143 0.636477 0
M  V30 3483 H 328.87 5.90151 1.56697 0
M  V30 3484 H 330.284 5.69076 -0.694671 0
M  V30 3485 H 328.681 5.81671 -1.47577 0
M  V30 3486 H 329.751 4.46534 -1.89038 0
M  V30 3487 N 331.094 0.475555 1.50254 0
M  V30 3488 C 332.342 -0.077738 2.0195 0
M  V30 3489 C 332.663 -1.39813 1.35931 0
M  V30 3490 O 331.933 -1.89249 0.506123 0
M  V30 3491 H 330.513 -0.031719 0.746326 0
M  V30 3492 H 333.175 0.626995 1.84539 0
M  V30 3493 H 332.271 -0.225995 3.11281 0
M  V30 3494 N 332.573 -1.56217 0.208337 0
M  V30 3495 C 333.503 -2.22694 -0.702116 0
M  V30 3496 C 334.484 -1.19432 -1.2112 0
M  V30 3497 O 335.669 -1.47978 -1.25762 0
M  V30 3498 C 332.799 -2.8966 -1.9161 0
M  V30 3499 C 331.753 -3.9928 -1.5414 0
M  V30 3500 C 331.079 -4.53476 -2.83308 0
M  V30 3501 C 332.379 -5.17012 -0.741339 0
M  V30 3502 H 334.073 -2.99034 -0.147898 0
M  V30 3503 H 331.619 -1.43831 -0.0696951 0
M  V30 3504 H 333.572 -3.34852 -2.55836 0
M  V30 3505 H 332.296 -2.10746 -2.49507 0
M  V30 3506 H 330.955 -3.54799 -0.922668 0
M  V30 3507 H 330.603 -3.71308 -3.39322 0
M  V30 3508 H 330.303 -5.27451 -2.58976 0
M  V30 3509 H 331.827 -5.01378 -3.485 0
M  V30 3510 H 333.241 -5.58667 -1.28699 0
M  V30 3511 H 331.638 -5.97137 -0.595627 0
M  V30 3512 H 332.708 -4.8423 0.254851 0
M  V30 3513 N 334.051 0.0651679 -1.57465 0
M  V30 3514 C 335.462 0.616213 -1.76238 0
M  V30 3515 C 335.813 1.7756 -0.834689 0
M  V30 3516 O 334.938 2.1639 -0.0204156 0
M  V30 3517 C 335.533 1.12462 -3.1959 0
M  V30 3518 C 334.092 1.62147 -3.39684 0
M  V30 3519 C 333.239 0.543739 -2.71917 0
M  V30 3520 H 336.19 -0.161022 -1.57881 0
M  V30 3521 H 336.211 1.99324 -3.24114 0
M  V30 3522 H 335.723 0.280592 -3.87084 0
M  V30 3523 H 333.824 2.48854 -2.77313 0
M  V30 3524 H 333.937 1.69385 -4.48158 0
M  V30 3525 H 332.301 0.990352 -2.34657 0
M  V30 3526 H 333.084 -0.290216 -3.42071 0
M  V30 3527 N 335.529 1.53961 0.336706 0
M  V30 3528 C 336.945 1.44378 0.680241 0
M  V30 3529 C 337.145 0.606034 1.9217 0
M  V30 3530 O 336.201 0.099688 2.52303 0
M  V30 3531 C 337.514 2.87945 0.8665 0
M  V30 3532 C 339.062 2.97763 0.964682 0
M  V30 3533 C 339.537 4.42453 1.18321 0
M  V30 3534 N 341.028 4.46008 1.25025 0
M  V30 3535 C 341.763 5.55102 1.43697 0
M  V30 3536 N 341.259 6.7419 1.59498 0
M  V30 3537 N 343.052 5.42727 1.463 0
M  V30 3538 H 335.203 2.06918 -0.479455 0
M  V30 3539 H 337.466 0.935634 -0.152619 0
M  V30 3540 H 337.172 3.51691 0.0256937 0
M  V30 3541 H 337.046 3.33293 1.76623 0
M  V30 3542 H 339.433 2.34153 1.796 0
M  V30 3543 H 339.514 2.55766 0.041708 0
M  V30 3544 H 339.158 5.06645 0.356788 0
M  V30 3545 H 339.088 4.82048 2.11985 0
M  V30 3546 H 341.579 3.60196 1.14312 0
M  V30 3547 H 341.892 7.53095 1.734 0
M  V30 3548 H 340.237 6.77123 1.56621 0
M  V30 3549 H 343.428 4.48647 1.33543 0
M  V30 3550 H 343.601 6.27806 1.6051 0
M  V30 3551 N 337.007 -0.598083 1.45811 0
M  V30 3552 C 337.937 -1.71873 1.58057 0
M  V30 3553 C 338.918 -1.64533 0.431615 0
M  V30 3554 O 340.103 -1.82787 0.65595 0
M  V30 3555 C 337.233 -3.10495 1.55597 0
M  V30 3556 C 336.187 -3.32654 2.69305 0
M  V30 3557 C 335.513 -4.71646 2.51902 0
M  V30 3558 C 336.813 -3.21981 4.11248 0
M  V30 3559 H 338.507 -1.61881 2.51863 0
M  V30 3560 H 336.053 -0.777372 1.21214 0
M  V30 3561 H 338.006 -3.88699 1.6276 0
M  V30 3562 H 336.73 -3.2135 0.583255 0
M  V30 3563 H 335.389 -2.56843 2.61586 0
M  V30 3564 H 335.037 -4.79246 1.52748 0
M  V30 3565 H 334.737 -4.87426 3.2816 0
M  V30 3566 H 336.261 -5.52038 2.60933 0
M  V30 3567 H 337.675 -3.90049 4.20161 0
M  V30 3568 H 336.072 -3.49289 4.87972 0
M  V30 3569 H 337.142 -2.1928 4.32486 0
M  V30 3570 N 338.485 -1.33259 -0.841409 0
M  V30 3571 C 339.395 -1.25332 -1.98316 0
M  V30 3572 C 340.411 -0.164364 -1.73222 0
M  V30 3573 O 341.587 -0.387486 -1.97637 0
M  V30 3574 C 338.652 -0.990078 -3.32262 0
M  V30 3575 C 337.713 -2.16879 -3.70489 0
M  V30 3576 C 336.946 -1.91801 -4.98044 0
M  V30 3577 O 337.169 -0.867075 -5.63771 0
M  V30 3578 O 336.103 -2.78267 -5.33714 0
M  V30 3579 H 339.929 -2.21344 -2.07944 0
M  V30 3580 H 337.514 -1.1328 -0.974058 0
M  V30 3581 H 339.396 -0.860321 -4.12524 0
M  V30 3582 H 338.071 -0.0602155 -3.23644 0
M  V30 3583 H 336.978 -2.35407 -2.90748 0
M  V30 3584 H 338.311 -3.0819 -3.8377 0
M  V30 3585 N 339.963 1.05934 -1.16686 0
M  V30 3586 C 341.21 1.788 -0.950622 0
M  V30 3587 C 341.538 1.87384 0.521305 0
M  V30 3588 O 340.793 1.36438 1.40297 0
M  V30 3589 C 341.092 3.23105 -1.52767 0
M  V30 3590 C 340.758 3.34594 -3.02254 0
M  V30 3591 C 339.42 3.37437 -3.43059 0
M  V30 3592 C 341.772 3.36219 -3.98254 0
M  V30 3593 C 339.1 3.39525 -4.78477 0
M  V30 3594 C 341.452 3.39845 -5.33562 0
M  V30 3595 C 340.116 3.40971 -5.73842 0
M  V30 3596 H 339.386 0.654275 -0.347857 0
M  V30 3597 H 342.033 1.24555 -1.45459 0
M  V30 3598 H 340.338 3.80227 -0.94524 0
M  V30 3599 H 342.035 3.7809 -1.336 0
M  V30 3600 H 338.625 3.3309 -2.6972 0
M  V30 3601 H 342.809 3.33231 -3.67792 0
M  V30 3602 H 338.065 3.38703 -5.09009 0
M  V30 3603 H 342.239 3.4005 -6.07733 0
M  V30 3604 H 339.866 3.42342 -6.78753 0
M  V30 3605 N 341.441 0.965919 1.2453 0
M  V30 3606 C 342.671 0.643451 1.96324 0
M  V30 3607 C 343.079 -0.790927 1.71875 0
M  V30 3608 O 342.422 -1.54208 0.998273 0
M  V30 3609 C 342.484 0.836078 3.49643 0
M  V30 3610 C 342.148 2.24975 3.97788 0
M  V30 3611 C 343.145 3.22735 4.07601 0
M  V30 3612 C 340.83 2.57697 4.31158 0
M  V30 3613 C 342.824 4.51303 4.50116 0
M  V30 3614 C 340.511 3.86492 4.73357 0
M  V30 3615 C 341.509 4.83107 4.828 0
M  V30 3616 O 341.197 6.09605 5.24058 0
M  V30 3617 H 340.929 0.239223 0.632257 0
M  V30 3618 H 343.483 1.29587 1.59362 0
M  V30 3619 H 341.713 0.12649 3.86493 0
M  V30 3620 H 343.402 0.512965 4.02646 0
M  V30 3621 H 344.168 2.98783 3.82039 0
M  V30 3622 H 340.047 1.83216 4.23028 0
M  V30 3623 H 343.591 5.26716 4.57401 0
M  V30 3624 H 339.488 4.10245 4.98366 0
M  V30 3625 H 340.256 6.13146 5.42213 0
M  V30 3626 N 342.919 -1.39368 0.735821 0
M  V30 3627 C 344.335 -1.54204 0.411492 0
M  V30 3628 C 344.535 -1.70268 -1.07755 0
M  V30 3629 O 343.591 -1.70364 -1.86366 0
M  V30 3630 C 344.904 -2.75925 1.19523 0
M  V30 3631 C 346.452 -2.89761 1.18354 0
M  V30 3632 C 346.927 -4.14421 1.94986 0
M  V30 3633 N 348.418 -4.21462 1.92156 0
M  V30 3634 C 349.153 -5.16871 2.48258 0
M  V30 3635 N 348.649 -6.18063 3.13001 0
M  V30 3636 N 350.442 -5.09093 2.38287 0
M  V30 3637 H 342.593 -1.27189 1.70108 0
M  V30 3638 H 344.856 -0.616517 0.720147 0
M  V30 3639 H 344.562 -2.70401 2.24892 0
M  V30 3640 H 344.436 -3.68614 0.800222 0
M  V30 3641 H 346.823 -2.94777 0.137975 0
M  V30 3642 H 346.904 -1.98133 1.61793 0
M  V30 3643 H 346.548 -4.10166 2.99543 0
M  V30 3644 H 346.478 -5.05095 1.48953 0
M  V30 3645 H 348.969 -3.48979 1.44991 0
M  V30 3646 H 349.282 -6.87326 3.53275 0
M  V30 3647 H 347.627 -6.18448 3.17091 0
M  V30 3648 H 350.818 -4.28973 1.8735 0
M  V30 3649 H 350.991 -5.83272 2.82308 0
M  V30 3650 N 344.397 -0.483516 -1.5 0
M  V30 3651 C 345.627 0.0643896 -2.065 0
M  V30 3652 C 346.035 1.32949 -1.34615 0
M  V30 3653 O 345.378 1.79003 -0.412756 0
M  V30 3654 C 345.44 0.405983 -3.572 0
M  V30 3655 C 345.104 -0.758875 -4.50655 0
M  V30 3656 C 346.101 -1.64445 -4.93208 0
M  V30 3657 C 343.786 -0.952725 -4.93182 0
M  V30 3658 C 345.78 -2.70818 -5.77006 0
M  V30 3659 C 343.467 -2.01966 -5.76761 0
M  V30 3660 C 344.465 -2.89574 -6.18576 0
M  V30 3661 O 344.153 -3.94429 -7.00486 0
M  V30 3662 H 343.885 -0.00934786 -0.675935 0
M  V30 3663 H 346.439 -0.674959 -1.93993 0
M  V30 3664 H 344.669 1.19869 -3.67652 0
M  V30 3665 H 346.358 0.890433 -3.96013 0
M  V30 3666 H 347.124 -1.50643 -4.61012 0
M  V30 3667 H 343.003 -0.280247 -4.60147 0
M  V30 3668 H 346.547 -3.3923 -6.09565 0
M  V30 3669 H 342.444 -2.1577 -6.0837 0
M  V30 3670 H 343.212 -3.91568 -7.1876 0
M  V30 3671 N 345.875 1.56104 -0.216619 0
M  V30 3672 C 347.105 2.02269 0.420802 0
M  V30 3673 C 347.513 1.09575 1.5424 0
M  V30 3674 O 346.856 0.0967308 1.83445 0
M  V30 3675 C 346.918 3.44784 1.01806 0
M  V30 3676 C 346.582 4.56988 0.0325154 0
M  V30 3677 C 347.579 5.14225 -0.766055 0
M  V30 3678 C 345.264 5.02228 -0.0848092 0
M  V30 3679 C 347.258 6.15169 -1.6687 0
M  V30 3680 C 344.945 6.03011 -0.990994 0
M  V30 3681 C 345.943 6.59357 -1.78149 0
M  V30 3682 O 345.631 7.58179 -2.67245 0
M  V30 3683 H 345.363 0.667353 0.107776 0
M  V30 3684 H 347.917 2.02747 -0.329034 0
M  V30 3685 H 346.147 3.41359 1.81689 0
M  V30 3686 H 347.836 3.74626 1.56237 0
M  V30 3687 H 348.602 4.80126 -0.685836 0
M  V30 3688 H 344.481 4.58054 0.520349 0
M  V30 3689 H 348.025 6.59076 -2.28615 0
M  V30 3690 H 343.922 6.36532 -1.07225 0
M  V30 3691 H 344.69 7.75682 -2.61265 0
M  V30 3692 N 347.353 -0.0568162 1.57498 0
M  V30 3693 C 348.285 -1.09292 2.01464 0
M  V30 3694 C 349.298 -1.34112 0.922913 0
M  V30 3695 O 350.487 -1.32089 1.20062 0
M  V30 3696 C 347.587 -2.44068 2.35125 0
M  V30 3697 C 346.76 -2.38995 3.66333 0
M  V30 3698 C 345.819 -3.55997 3.87495 0
M  V30 3699 O 344.845 -3.36746 4.58901 0
M  V30 3700 N 346.047 -4.76888 3.30996 0
M  V30 3701 H 348.812 -0.718386 2.90963 0
M  V30 3702 H 346.373 -0.245235 1.60032 0
M  V30 3703 H 348.365 -3.21011 2.46443 0
M  V30 3704 H 346.935 -2.73468 1.5144 0
M  V30 3705 H 346.155 -1.47336 3.65631 0
M  V30 3706 H 347.443 -2.3272 4.52458 0
M  V30 3707 H 346.841 -4.95431 2.73065 0
M  V30 3708 H 345.398 -5.51291 3.47738 0
M  V30 3709 N 348.832 -1.54138 -0.328536 0
M  V30 3710 C 349.764 -1.79509 -1.4251 0
M  V30 3711 C 350.777 -0.67688 -1.48061 0
M  V30 3712 O 351.966 -0.953898 -1.50874 0
M  V30 3713 C 349.066 -1.89337 -2.81078 0
M  V30 3714 C 348.239 -3.19443 -2.98789 0
M  V30 3715 C 347.298 -3.20036 -4.17688 0
M  V30 3716 O 346.324 -3.93697 -4.11086 0
M  V30 3717 N 347.526 -2.43467 -5.26976 0
M  V30 3718 H 350.291 -2.74139 -1.21111 0
M  V30 3719 H 347.852 -1.53373 -0.518499 0
M  V30 3720 H 349.844 -1.87167 -3.58818 0
M  V30 3721 H 348.414 -1.01826 -2.95551 0
M  V30 3722 H 347.634 -3.34614 -2.08391 0
M  V30 3723 H 348.922 -4.05354 -3.07515 0
M  V30 3724 H 348.32 -1.83201 -5.35214 0
M  V30 3725 H 346.877 -2.4708 -6.03154 0
M  V30 3726 N 350.31 0.590341 -1.46126 0
M  V30 3727 C 351.24 1.71032 -1.58966 0
M  V30 3728 C 352.221 1.64302 -0.440335 0
M  V30 3729 O 353.406 1.82436 -0.665634 0
M  V30 3730 C 350.536 3.09665 -1.57241 0
M  V30 3731 C 349.49 3.31221 -2.71066 0
M  V30 3732 C 348.816 4.70303 -2.54399 0
M  V30 3733 C 350.116 3.19796 -4.1295 0
M  V30 3734 H 351.81 1.60543 -2.52718 0
M  V30 3735 H 349.356 0.770933 -1.21625 0
M  V30 3736 H 351.309 3.87831 -1.64819 0
M  V30 3737 H 350.033 3.21036 -0.600289 0
M  V30 3738 H 348.692 2.55452 -2.62944 0
M  V30 3739 H 348.34 4.78429 -1.55288 0
M  V30 3740 H 348.04 4.85679 -3.30741 0
M  V30 3741 H 349.564 5.50647 -2.63857 0
M  V30 3742 H 350.978 3.87815 -4.22223 0
M  V30 3743 H 349.375 3.46696 -4.89818 0
M  V30 3744 H 350.445 2.16983 -4.33643 0
M  V30 3745 N 351.788 1.33704 0.83433 0
M  V30 3746 C 352.735 1.24335 1.94447 0
M  V30 3747 C 353.705 0.120991 1.65659 0
M  V30 3748 O 354.89 0.300035 1.88426 0
M  V30 3749 C 352.03 0.993124 3.30501 0
M  V30 3750 C 351.143 2.20217 3.71657 0
M  V30 3751 C 350.278 1.88572 4.96602 0
M  V30 3752 C 349.317 3.05683 5.30306 0
M  V30 3753 N 348.454 2.73997 6.46429 0
M  V30 3754 H 353.294 2.1928 2.01792 0
M  V30 3755 H 350.831 1.09035 0.987404 0
M  V30 3756 H 352.789 0.828467 4.08892 0
M  V30 3757 H 351.419 0.0803902 3.227 0
M  V30 3758 H 350.471 2.47642 2.88752 0
M  V30 3759 H 351.783 3.07752 3.92543 0
M  V30 3760 H 350.937 1.68776 5.82752 0
M  V30 3761 H 349.676 0.982799 4.77695 0
M  V30 3762 H 348.681 3.26088 4.42659 0
M  V30 3763 H 349.906 3.96737 5.51159 0
M  V30 3764 H 347.852 1.86268 6.28999 0
M  V30 3765 H 347.769 3.55064 6.67432 0
M  V30 3766 H 349.037 2.57679 7.35678 0
M  V30 3767 N 353.266 -1.05314 1.17247 0
M  V30 3768 C 354.196 -2.1498 0.911362 0
M  V30 3769 C 355.177 -1.69471 -0.146169 0
M  V30 3770 O 356.362 -1.942 0.003812 0
M  V30 3771 C 353.492 -3.4472 0.422528 0
M  V30 3772 C 352.446 -4.03789 1.4191 0
M  V30 3773 C 351.772 -5.28858 0.788274 0
M  V30 3774 C 353.072 -4.41418 2.7919 0
M  V30 3775 H 354.766 -2.3708 1.82848 0
M  V30 3776 H 352.312 -1.13938 0.880569 0
M  V30 3777 H 354.265 -4.20787 0.227289 0
M  V30 3778 H 352.989 -3.22269 -0.530123 0
M  V30 3779 H 351.648 -3.2979 1.60106 0
M  V30 3780 H 351.296 -5.02709 -0.171173 0
M  V30 3781 H 350.996 -5.69338 1.45353 0
M  V30 3782 H 352.52 -6.07612 0.603282 0
M  V30 3783 H 353.934 -5.08524 2.64719 0
M  V30 3784 H 352.331 -4.92913 3.42282 0
M  V30 3785 H 353.401 -3.51819 3.33693 0
M  V30 3786 N 354.744 -0.972509 -1.24016 0
M  V30 3787 C 355.654 -0.5143 -2.28893 0
M  V30 3788 C 356.67 0.427078 -1.68677 0
M  V30 3789 O 357.846 0.298939 -1.99169 0
M  V30 3790 C 354.911 0.183598 -3.46214 0
M  V30 3791 C 353.972 -0.798202 -4.21814 0
M  V30 3792 C 353.205 -0.133514 -5.33533 0
M  V30 3793 O 353.428 1.07714 -5.60137 0
M  V30 3794 O 352.362 -0.828103 -5.96176 0
M  V30 3795 H 356.188 -1.38629 -2.70214 0
M  V30 3796 H 353.773 -0.739769 -1.29799 0
M  V30 3797 H 355.655 0.575433 -4.17453 0
M  V30 3798 H 354.33 1.03048 -3.0686 0
M  V30 3799 H 353.237 -1.24059 -3.52931 0
M  V30 3800 H 354.57 -1.61364 -4.64997 0
M  V30 3801 N 356.222 1.38976 -0.743202 0
M  V30 3802 C 357.47 1.99948 -0.29417 0
M  V30 3803 C 357.791 1.59279 1.12495 0
M  V30 3804 O 357.061 0.844808 1.76748 0
M  V30 3805 H 355.641 0.739473 -0.105774 0
M  V30 3806 H 358.303 1.699 -0.954986 0
M  V30 3807 H 357.399 3.10142 -0.349056 0
M  V30 3808 N 357.7 0.491464 1.49741 0
M  V30 3809 C 359.111 0.0413169 1.86654 0
M  V30 3810 C 359.462 -1.36985 1.40462 0
M  V30 3811 O 358.587 -2.01917 0.778354 0
M  V30 3812 C 359.182 0.0682023 3.38731 0
M  V30 3813 C 357.741 -0.32656 3.74981 0
M  V30 3814 C 356.888 0.444888 2.73708 0
M  V30 3815 H 359.839 0.704733 1.42194 0
M  V30 3816 H 359.86 -0.729322 3.73445 0
M  V30 3817 H 359.372 1.09539 3.72321 0
M  V30 3818 H 357.473 -1.35734 3.46997 0
M  V30 3819 H 357.586 -0.013741 4.79098 0
M  V30 3820 H 355.95 -0.104062 2.54487 0
M  V30 3821 H 356.733 1.47197 3.10142 0
M  V30 3822 N 359.178 -1.55987 0.224894 0
M  V30 3823 C 360.426 -1.97998 -0.405099 0
M  V30 3824 C 360.747 -1.11387 -1.60056 0
M  V30 3825 O 360.017 -0.191645 -1.9496 0
M  V30 3826 H 358.597 -0.731235 -0.152658 0
M  V30 3827 H 361.259 -1.92279 0.318567 0
M  V30 3828 H 360.355 -3.03463 -0.729167 0
M  V30 3829 N 360.656 0.0484629 -1.57525 0
M  V30 3830 C 361.566 1.07241 -2.08654 0
M  V30 3831 C 362.582 1.409 -1.02095 0
M  V30 3832 O 363.758 1.50609 -1.33712 0
M  V30 3833 C 360.823 2.36008 -2.5397 0
M  V30 3834 C 359.884 2.09108 -3.7493 0
M  V30 3835 C 359.117 3.31736 -4.18075 0
M  V30 3836 O 359.34 4.41714 -3.60895 0
M  V30 3837 O 358.274 3.18576 -5.10679 0
M  V30 3838 H 362.1 0.667965 -2.96263 0
M  V30 3839 H 359.685 0.26417 -1.47046 0
M  V30 3840 H 361.567 3.11747 -2.83535 0
M  V30 3841 H 360.242 2.75786 -1.69481 0
M  V30 3842 H 359.149 1.31 -3.50414 0
M  V30 3843 H 360.482 1.74198 -4.60343 0
M  V30 3844 N 362.134 1.5431 0.320358 0
M  V30 3845 C 363.066 1.80262 1.41556 0
M  V30 3846 C 364.079 0.684723 1.477 0
M  V30 3847 O 365.268 0.961886 1.50366 0
M  V30 3848 C 362.368 1.90825 2.8007 0
M  V30 3849 C 361.541 3.21023 2.97091 0
M  V30 3850 C 360.6 3.22247 4.15985 0
M  V30 3851 O 359.626 3.95871 4.08992 0
M  V30 3852 N 360.828 2.46258 5.25678 0
M  V30 3853 H 363.593 2.74778 1.19655 0
M  V30 3854 H 361.154 1.53646 0.510358 0
M  V30 3855 H 363.146 1.89067 3.57821 0
M  V30 3856 H 361.716 1.03392 2.95006 0
M  V30 3857 H 360.936 3.35715 2.06614 0
M  V30 3858 H 362.224 4.0698 3.05361 0
M  V30 3859 H 361.622 1.86037 5.34235 0
M  V30 3860 H 360.179 2.50275 6.01835 0
M  V30 3861 N 363.613 -0.582584 1.46437 0
M  V30 3862 C 364.523 -1.71949 1.59595 0
M  V30 3863 C 365.539 -1.67264 0.479443 0
M  V30 3864 O 366.715 -1.87171 0.743579 0
M  V30 3865 C 363.78 -3.08452 1.58298 0
M  V30 3866 C 362.841 -3.244 2.81182 0
M  V30 3867 C 362.074 -4.54391 2.79937 0
M  V30 3868 O 362.297 -5.38287 1.8869 0
M  V30 3869 O 361.231 -4.73588 3.71481 0
M  V30 3870 H 365.057 -1.63795 2.55744 0
M  V30 3871 H 362.642 -0.749643 1.29231 0
M  V30 3872 H 364.524 -3.89732 1.60271 0
M  V30 3873 H 363.199 -3.17043 0.653094 0
M  V30 3874 H 362.106 -2.42613 2.84763 0
M  V30 3875 H 363.439 -3.20699 3.7338 0
M  V30 3876 N 365.091 -1.34144 -0.827227 0
M  V30 3877 C 366.319 -1.29325 -1.61501 0
M  V30 3878 C 366.734 0.13354 -1.88327 0
M  V30 3879 O 366.091 1.0793 -1.47164 0
M  V30 3880 C 366.142 -2.07746 -2.95844 0
M  V30 3881 O 365.863 -3.4486 -2.70191 0
M  V30 3882 C 367.364 -2.10273 -3.90256 0
M  V30 3883 H 364.584 -0.445069 -0.50215 0
M  V30 3884 H 367.128 -1.76693 -1.02955 0
M  V30 3885 H 365.283 -1.6403 -3.5096 0
M  V30 3886 H 365.697 -3.85345 -3.55822 0
M  V30 3887 H 367.171 -2.69575 -4.81698 0
M  V30 3888 H 367.648 -1.096 -4.25305 0
M  V30 3889 H 368.254 -2.54059 -3.41078 0
M  V30 3890 N 366.569 1.04691 -1.17803 0
M  V30 3891 C 367.516 2.12557 -0.899343 0
M  V30 3892 C 368.486 1.65339 0.158771 0
M  V30 3893 O 369.671 1.90789 0.0204797 0
M  V30 3894 C 366.811 3.42481 -0.424315 0
M  V30 3895 C 365.924 4.03346 -1.54713 0
M  V30 3896 C 365.059 5.21208 -1.02546 0
M  V30 3897 C 364.098 5.74089 -2.12339 0
M  V30 3898 N 363.235 6.83247 -1.61612 0
M  V30 3899 H 368.075 2.35734 -1.823 0
M  V30 3900 H 365.612 1.1564 -0.909159 0
M  V30 3901 H 367.57 4.16996 -0.130421 0
M  V30 3902 H 366.2 3.19471 0.462377 0
M  V30 3903 H 365.252 3.2622 -1.95664 0
M  V30 3904 H 366.564 4.38628 -2.37501 0
M  V30 3905 H 365.718 6.02812 -0.685718 0
M  V30 3906 H 364.457 4.87414 -0.167084 0
M  V30 3907 H 363.462 4.91111 -2.47165 0
M  V30 3908 H 364.687 6.0993 -2.98601 0
M  V30 3909 H 362.633 6.5134 -0.780533 0
M  V30 3910 H 362.55 7.17559 -2.38003 0
M  V30 3911 H 363.818 7.68491 -1.30545 0
M  V30 3912 N 368.047 0.979072 1.23499 0
M  V30 3913 C 368.977 0.537606 2.27227 0
M  V30 3914 C 369.958 -0.428539 1.64613 0
M  V30 3915 O 371.143 -0.322191 1.91509 0
M  V30 3916 C 368.273 -0.162052 3.46922 0
M  V30 3917 C 367.227 0.721242 4.21879 0
M  V30 3918 C 366.553 -0.110555 5.34586 0
M  V30 3919 C 367.853 2.01141 4.82016 0
M  V30 3920 H 369.547 1.40462 2.64406 0
M  V30 3921 H 367.093 0.67684 1.27102 0
M  V30 3922 H 369.046 -0.482192 4.18632 0
M  V30 3923 H 367.77 -1.06351 3.08799 0
M  V30 3924 H 366.429 1.02482 3.51984 0
M  V30 3925 H 366.077 -1.0125 4.92704 0
M  V30 3926 H 365.777 0.477325 5.85658 0
M  V30 3927 H 367.301 -0.425107 6.09118 0
M  V30 3928 H 368.715 1.75612 5.45741 0
M  V30 3929 H 367.112 2.54695 5.43369 0
M  V30 3930 H 368.182 2.69909 4.02836 0
M  V30 3931 N 369.525 -1.3858 0.750561 0
M  V30 3932 C 370.802 -1.94231 0.231009 0
M  V30 3933 C 371.182 -1.68611 -1.27018 0
M  V30 3934 O 370.53 -1.02296 -2.04323 0
M  V30 3935 C 370.74 -3.44123 0.581428 0
M  V30 3936 C 372.088 -4.2116 0.539389 0
M  V30 3937 O 373.112 -3.52391 0.519541 0
M  V30 3938 O 371.971 -5.43749 0.54765 0
M  V30 3939 H 369.065 -0.825639 0.0474263 0
M  V30 3940 H 371.611 -1.4799 0.830478 0
M  V30 3941 H 370.383 -3.56267 1.61833 0
M  V30 3942 H 370.006 -3.97573 -0.0462047 0
M  V30 3943 N 371.003 -0.499398 -1.49478 0
M  V30 3944 C 371.933 0.269244 -2.31943 0
M  V30 3945 C 372.914 0.964054 -1.40143 0
M  V30 3946 O 374.099 0.955767 -1.69052 0
M  V30 3947 C 371.229 1.33504 -3.20615 0
M  V30 3948 C 370.183 0.760202 -4.21195 0
M  V30 3949 C 369.509 1.9264 -4.98792 0
M  V30 3950 C 370.809 -0.247661 -5.21712 0
M  V30 3951 H 372.503 -0.419082 -2.96452 0
M  V30 3952 H 370.049 -0.202988 -1.42562 0
M  V30 3953 H 372.002 1.88048 -3.77115 0
M  V30 3954 H 370.726 2.05253 -2.54045 0
M  V30 3955 H 369.385 0.23653 -3.65836 0
M  V30 3956 H 369.033 2.63154 -4.28671 0
M  V30 3957 H 368.733 1.54785 -5.66847 0
M  V30 3958 H 370.257 2.4762 -5.58137 0
M  V30 3959 H 371.671 0.209579 -5.72917 0
M  V30 3960 H 370.068 -0.541962 -5.97648 0
M  V30 3961 H 371.138 -1.16409 -4.7072 0
M  V30 3962 N 372.481 1.55866 -0.233164 0
M  V30 3963 C 373.73 1.97779 0.39579 0
M  V30 3964 C 374.043 1.12419 1.60066 0
M  V30 3965 O 375.249 1.44283 2.29988 0
M  V30 3966 C 373.705 3.5188 0.755556 0
M  V30 3967 C 373.313 4.45959 -0.427152 0
M  V30 3968 C 375.057 4.02479 1.34946 0
M  V30 3969 C 372.964 5.91383 -0.0443043 0
M  V30 3970 H 371.894 0.738592 0.15165 0
M  V30 3971 H 374.545 1.80486 -0.331212 0
M  V30 3972 H 372.927 3.64816 1.5403 0
M  V30 3973 H 374.101 4.44776 -1.20462 0
M  V30 3974 H 372.416 4.05765 -0.935068 0
M  V30 3975 H 375.013 5.08637 1.649 0
M  V30 3976 H 375.356 3.49014 2.26925 0
M  V30 3977 H 375.889 3.92813 0.62791 0
M  V30 3978 H 372.628 6.48857 -0.930874 0
M  V30 3979 H 372.148 5.95734 0.697238 0
M  V30 3980 H 373.827 6.45893 0.378334 0
M  V30 3981 N 373.959 -0.0401083 1.57549 0
M  V30 3982 C 375.184 -0.748931 1.93406 0
M  V30 3983 C 375.609 -1.68686 0.832274 0
M  V30 3984 O 374.967 -1.80047 -0.212818 0
M  V30 3985 C 375.015 -1.4916 3.28304 0
M  V30 3986 O 374.119 -2.6042 3.19774 0
M  V30 3987 H 373.46 -0.202212 0.63246 0
M  V30 3988 H 375.99 0.00112086 2.046 0
M  V30 3989 H 376 -1.86395 3.62934 0
M  V30 3990 H 374.675 -0.80364 4.08062 0
M  V30 3991 H 373.252 -2.25808 2.96758 0
M  V30 3992 N 375.437 -1.54477 -0.31217 0
M  V30 3993 C 376.384 -1.84655 -1.38461 0
M  V30 3994 C 377.354 -0.694536 -1.50882 0
M  V30 3995 O 378.539 -0.942081 -1.6592 0
M  V30 3996 C 375.679 -2.0896 -2.74645 0
M  V30 3997 C 374.792 -3.36618 -2.70763 0
M  V30 3998 C 373.927 -3.50824 -3.98868 0
M  V30 3999 C 372.966 -4.72315 -3.89339 0
M  V30 4000 N 372.103 -4.83387 -5.09197 0
M  V30 4001 H 376.943 -2.76142 -1.12026 0
M  V30 4002 H 374.48 -1.36748 -0.542065 0
M  V30 4003 H 376.438 -2.21045 -3.53829 0
M  V30 4004 H 375.068 -1.20752 -2.99364 0
M  V30 4005 H 374.12 -3.33211 -1.83506 0
M  V30 4006 H 375.432 -4.25917 -2.59608 0
M  V30 4007 H 374.586 -3.62513 -4.86486 0
M  V30 4008 H 373.325 -2.59638 -4.12843 0
M  V30 4009 H 372.33 -4.6067 -3.00105 0
M  V30 4010 H 373.555 -5.64897 -3.76919 0
M  V30 4011 H 371.501 -3.9512 -5.23657 0
M  V30 4012 H 371.418 -5.66669 -5.00422 0
M  V30 4013 H 372.686 -4.9942 -5.98498 0
M  V30 4014 N 376.915 0.57481 -1.46744 0
M  V30 4015 C 378.163 1.33009 -1.52161 0
M  V30 4016 C 378.484 1.94185 -0.178092 0
M  V30 4017 O 377.754 1.7899 0.796196 0
M  V30 4018 H 376.334 0.493873 -0.560445 0
M  V30 4019 H 378.996 0.672589 -1.82927 0
M  V30 4020 H 378.092 2.13273 -2.27862 0
M  V30 4021 N 378.394 1.34581 0.820102 0
M  V30 4022 C 379.304 1.28471 1.96297 0
M  V30 4023 C 380.32 0.191902 1.72939 0
M  V30 4024 O 381.496 0.418879 1.96996 0
M  V30 4025 C 378.561 1.04281 3.30645 0
M  V30 4026 C 377.622 2.22745 3.66992 0
M  V30 4027 C 376.855 1.997 4.9493 0
M  V30 4028 O 377.078 0.956656 5.6232 0
M  V30 4029 O 376.012 2.86723 5.2922 0
M  V30 4030 H 379.838 2.24624 2.04396 0
M  V30 4031 H 377.423 1.14816 0.955913 0
M  V30 4032 H 379.305 0.925841 4.11104 0
M  V30 4033 H 377.98 0.111697 3.23507 0
M  V30 4034 H 376.887 2.40003 2.86966 0
M  V30 4035 H 378.22 3.14257 3.78819 0
M  V30 4036 N 379.872 -1.04064 1.18357 0
M  V30 4037 C 380.782 -2.15569 0.925596 0
M  V30 4038 C 381.798 -1.7365 -0.110295 0
M  V30 4039 O 382.974 -2.01273 0.0716218 0
M  V30 4040 C 380.039 -3.43704 0.454836 0
M  V30 4041 C 379.1 -4.00004 1.55869 0
M  V30 4042 C 378.333 -5.22023 1.1103 0
M  V30 4043 O 378.556 -5.70392 -0.0309756 0
M  V30 4044 O 377.49 -5.70856 1.90805 0
M  V30 4045 H 381.316 -2.40187 1.8586 0
M  V30 4046 H 378.901 -1.1402 0.965394 0
M  V30 4047 H 380.783 -4.20923 0.200382 0
M  V30 4048 H 379.458 -3.20559 -0.449876 0
M  V30 4049 H 378.365 -3.24172 1.86716 0
M  V30 4050 H 379.698 -4.2749 2.43953 0
M  V30 4051 N 381.35 -0.985608 -1.22978 0
M  V30 4052 C 382.761 -0.693593 -1.73338 0
M  V30 4053 C 383.112 0.789935 -1.79595 0
M  V30 4054 O 382.237 1.61771 -1.43733 0
M  V30 4055 C 382.832 -1.25235 -3.14804 0
M  V30 4056 C 381.391 -1.00987 -3.626 0
M  V30 4057 C 380.538 -1.37695 -2.40698 0
M  V30 4058 H 383.489 -1.15884 -1.08428 0
M  V30 4059 H 383.51 -0.627329 -3.75293 0
M  V30 4060 H 383.022 -2.33209 -3.10218 0
M  V30 4061 H 381.123 0.0535565 -3.72562 0
M  V30 4062 H 381.236 -1.66812 -4.49122 0
M  V30 4063 H 379.6 -0.795459 -2.4196 0
M  V30 4064 H 380.383 -2.46657 -2.38779 0
M  V30 4065 N 382.828 1.3818 -0.7579 0
M  V30 4066 C 384.244 1.5353 -0.435972 0
M  V30 4067 C 384.444 1.71961 1.05032 0
M  V30 4068 O 383.5 1.73307 1.83633 0
M  V30 4069 C 384.813 2.73989 -1.23898 0
M  V30 4070 C 386.361 2.87841 -1.22949 0
M  V30 4071 C 386.836 4.11266 -2.01554 0
M  V30 4072 N 388.327 4.18352 -1.98837 0
M  V30 4073 C 389.062 5.12856 -2.5645 0
M  V30 4074 N 388.558 6.13005 -3.22794 0
M  V30 4075 N 390.351 5.05238 -2.46356 0
M  V30 4076 H 382.502 1.24467 -1.7211 0
M  V30 4077 H 384.765 0.604982 -0.729864 0
M  V30 4078 H 384.471 2.66789 -2.29165 0
M  V30 4079 H 384.345 3.67294 -0.858764 0
M  V30 4080 H 386.732 2.9452 -0.184854 0
M  V30 4081 H 386.813 1.95534 -1.64924 0
M  V30 4082 H 386.457 4.05349 -3.06031 0
M  V30 4083 H 386.387 5.02661 -1.5697 0
M  V30 4084 H 388.878 3.46628 -1.50524 0
M  V30 4085 H 389.191 6.81619 -3.64165 0
M  V30 4086 H 387.536 6.13325 -3.2689 0
M  V30 4087 H 390.727 4.25938 -1.9415 0
M  V30 4088 H 390.9 5.78707 -2.91552 0
M  V30 4089 N 384.306 0.507319 1.49211 0
M  V30 4090 C 385.269 -0.256763 2.27757 0
M  V30 4091 C 386.269 -0.888287 1.34038 0
M  V30 4092 O 387.459 -0.751841 1.5714 0
M  V30 4093 C 384.591 -1.36905 3.12202 0
M  V30 4094 H 385.784 0.432557 2.96764 0
M  V30 4095 H 383.337 0.262488 1.5408 0
M  V30 4096 H 384.072 -2.09233 2.47775 0
M  V30 4097 H 383.857 -0.921599 3.81115 0
M  V30 4098 H 385.347 -1.9071 3.7151 0
M  V30 4099 N 385.784 -1.5574 0.241426 0
M  V30 4100 C 387.032 -1.98417 -0.384075 0
M  V30 4101 C 387.353 -1.13078 -1.58866 0
M  V30 4102 O 386.623 -0.212312 -1.94746 0
M  V30 4103 H 385.203 -0.732813 -0.144894 0
M  V30 4104 H 387.865 -1.9193 0.338943 0
M  V30 4105 H 386.961 -3.04219 -0.696939 0
M  V30 4106 N 387.262 0.0317525 -1.57568 0
M  V30 4107 C 388.209 1.0332 -2.06382 0
M  V30 4108 C 389.179 1.36082 -0.952414 0
M  V30 4109 O 390.364 1.46466 -1.2228 0
M  V30 4110 C 387.504 2.32989 -2.54578 0
M  V30 4111 C 386.617 2.0641 -3.79498 0
M  V30 4112 C 385.752 3.2993 -4.16317 0
M  V30 4113 C 384.791 2.98893 -5.34162 0
M  V30 4114 N 383.928 4.14857 -5.66426 0
M  V30 4115 H 388.768 0.609982 -2.9169 0
M  V30 4116 H 386.305 0.289573 -1.44222 0
M  V30 4117 H 388.263 3.0875 -2.80587 0
M  V30 4118 H 386.893 2.73039 -1.7219 0
M  V30 4119 H 385.945 1.21158 -3.6059 0
M  V30 4120 H 387.257 1.79513 -4.65378 0
M  V30 4121 H 386.411 4.1406 -4.4344 0
M  V30 4122 H 385.15 3.59938 -3.29083 0
M  V30 4123 H 384.155 2.13164 -5.06795 0
M  V30 4124 H 385.38 2.70165 -6.23047 0
M  V30 4125 H 383.326 4.44821 -4.82151 0
M  V30 4126 H 383.243 3.91374 -6.4681 0
M  V30 4127 H 384.511 4.99868 -5.98124 0
M  V30 4128 N 388.74 1.54641 0.303973 0
M  V30 4129 C 389.65 1.88439 1.39743 0
M  V30 4130 C 390.666 0.778239 1.55626 0
M  V30 4131 O 391.842 1.07442 1.70347 0
M  V30 4132 C 388.907 2.12212 2.74166 0
M  V30 4133 C 387.968 3.35936 2.67293 0
M  V30 4134 C 387.201 3.58566 3.95305 0
M  V30 4135 O 387.424 2.84263 4.9452 0
M  V30 4136 O 386.358 4.52078 3.97378 0
M  V30 4137 H 390.184 2.81458 1.14083 0
M  V30 4138 H 387.769 1.40793 0.499768 0
M  V30 4139 H 389.651 2.29067 3.53704 0
M  V30 4140 H 388.326 1.22379 2.99675 0
M  V30 4141 H 387.233 3.24448 1.86237 0
M  V30 4142 H 388.566 4.2589 2.46736 0
M  V30 4143 N 390.218 -0.567019 1.47046 0
M  V30 4144 C 391.128 -1.70247 1.6141 0
M  V30 4145 C 392.144 -1.66746 0.497157 0
M  V30 4146 O 393.32 -1.86371 0.763389 0
M  V30 4147 C 390.385 -3.06756 1.61561 0
M  V30 4148 C 389.446 -3.21399 2.84607 0
M  V30 4149 C 388.679 -4.51396 2.84741 0
M  V30 4150 O 388.902 -5.36255 1.94388 0
M  V30 4151 O 387.836 -4.69621 3.76483 0
M  V30 4152 H 391.662 -1.61073 2.57467 0
M  V30 4153 H 389.247 -0.735894 1.30019 0
M  V30 4154 H 391.129 -3.8801 1.64396 0
M  V30 4155 H 389.804 -3.16333 0.686684 0
M  V30 4156 H 388.711 -2.39579 2.8732 0
M  V30 4157 H 390.044 -3.16721 3.76761 0
M  V30 4158 N 391.696 -1.35014 -0.812953 0
M  V30 4159 C 392.921 -1.31187 -1.60639 0
M  V30 4160 C 393.346 0.109382 -1.87782 0
M  V30 4161 O 392.704 1.07424 -1.46047 0
M  V30 4162 C 392.752 -2.11809 -2.91838 0
M  V30 4163 O 391.856 -1.49444 -3.8437 0
M  V30 4164 H 391.197 -0.450084 -0.488181 0
M  V30 4165 H 393.727 -1.77963 -1.00947 0
M  V30 4166 H 393.737 -2.23531 -3.41318 0
M  V30 4167 H 392.412 -3.15137 -2.71407 0
M  V30 4168 H 390.989 -1.46524 -3.42907 0
M  V30 4169 N 393.175 1.03435 -1.18907 0
M  V30 4170 C 394.423 1.76394 -0.986382 0
M  V30 4171 C 394.744 1.88883 0.484567 0
M  V30 4172 O 394.014 1.41843 1.3512 0
M  V30 4173 H 392.594 0.65344 -0.361975 0
M  V30 4174 H 395.256 1.248 -1.49703 0
M  V30 4175 H 394.352 2.77424 -1.42978 0
M  V30 4176 N 394.653 0.992116 1.22453 0
M  V30 4177 C 395.899 0.668523 1.91464 0
M  V30 4178 C 396.232 -0.797313 1.77078 0
M  V30 4179 O 395.507 -1.5765 1.13916 0
M  V30 4180 C 395.79 1.07424 3.43703 0
M  V30 4181 C 395.643 2.59857 3.67143 0
M  V30 4182 C 396.962 0.626891 4.35612 0
M  V30 4183 H 394.081 0.244341 0.695318 0
M  V30 4184 H 396.723 1.2355 1.44345 0
M  V30 4185 H 394.873 0.591816 3.83966 0
M  V30 4186 H 396.545 3.15764 3.3629 0
M  V30 4187 H 394.788 3.01961 3.11451 0
M  V30 4188 H 395.459 2.83296 4.73759 0
M  V30 4189 H 397.935 1.04125 4.02861 0
M  V30 4190 H 396.811 0.939076 5.40807 0
M  V30 4191 H 397.072 -0.472457 4.39568 0
M  V30 4192 N 396.131 -1.37776 0.765217 0
M  V30 4193 C 397.356 -2.04651 0.336537 0
M  V30 4194 C 397.781 -1.57337 -1.03086 0
M  V30 4195 O 397.139 -0.730621 -1.65927 0
M  V30 4196 C 397.187 -3.58577 0.381468 0
M  V30 4197 O 396.291 -4.07706 -0.62042 0
M  V30 4198 H 395.632 -0.64756 0.146838 0
M  V30 4199 H 398.162 -1.76221 1.03959 0
M  V30 4200 H 398.172 -4.07314 0.236448 0
M  V30 4201 H 396.847 -3.9237 1.37907 0
M  V30 4202 H 395.424 -3.70306 -0.439056 0
M  V30 4203 N 397.609 -0.515225 -1.4894 0
M  V30 4204 C 398.855 0.0242508 -2.02785 0
M  V30 4205 C 399.188 1.35323 -1.39289 0
M  V30 4206 O 398.463 1.87041 -0.533469 0
M  V30 4207 C 398.746 0.16184 -3.59736 0
M  V30 4208 C 398.599 -1.19127 -4.33738 0
M  V30 4209 C 399.918 0.895719 -4.30888 0
M  V30 4210 H 397.037 0.00733914 -0.736963 0
M  V30 4211 H 399.679 -0.669395 -1.77818 0
M  V30 4212 H 397.829 0.752624 -3.8114 0
M  V30 4213 H 399.501 -1.82202 -4.23792 0
M  V30 4214 H 397.744 -1.77695 -3.95736 0
M  V30 4215 H 398.415 -1.04815 -5.41957 0
M  V30 4216 H 400.891 0.394528 -4.14225 0
M  V30 4217 H 399.767 0.960859 -5.40425 0
M  V30 4218 H 400.028 1.9427 -3.97129 0
M  V30 4219 N 399.087 1.5561 -0.249682 0
M  V30 4220 C 400.312 2.03865 0.381305 0
M  V30 4221 C 400.737 1.12769 1.50548 0
M  V30 4222 O 400.095 0.121189 1.80895 0
M  V30 4223 C 400.143 3.50101 0.863816 0
M  V30 4224 O 399.247 3.62132 1.97318 0
M  V30 4225 H 398.588 0.658827 0.0827194 0
M  V30 4226 H 401.118 2.01105 -0.376552 0
M  V30 4227 H 401.128 3.90975 1.1663 0
M  V30 4228 H 399.803 4.1588 0.0411816 0
M  V30 4229 H 398.38 3.33155 1.67517 0
M  V30 4230 N 400.565 -0.0233959 1.57583 0
M  V30 4231 C 401.513 -1.04063 2.08023 0
M  V30 4232 C 402.507 -1.37084 0.995204 0
M  V30 4233 O 403.713 -1.35923 1.18004 0
M  V30 4234 H 400.088 -0.353144 0.663922 0
M  V30 4235 H 402.059 -0.589453 2.9252 0
M  V30 4236 C 400.808 -2.33123 2.57971 0
M  V30 4237 H 400.131 -2.08577 3.4108 0
M  V30 4238 H 401.571 -3.02632 2.96967 0
M  V30 4239 C 400.03 -3.02483 1.48342 0
M  V30 4240 O 400.56 -3.92541 0.852898 0
M  V30 4241 N 398.766 -2.63909 1.21658 0
M  V30 4242 H 398.313 -1.90758 1.73116 0
M  V30 4243 H 398.271 -3.10633 0.485218 0
M  V30 4244 N 402.043 -1.548 -0.295768 0
M  V30 4245 C 403.268 -1.78653 -1.05346 0
M  V30 4246 C 403.693 -0.546894 -1.79974 0
M  V30 4247 O 403.051 0.502763 -1.7419 0
M  V30 4248 C 403.099 -2.99679 -2.00561 0
M  V30 4249 O 402.203 -2.7317 -3.08953 0
M  V30 4250 H 401.544 -0.59116 -0.302367 0
M  V30 4251 H 404.074 -2.01895 -0.331598 0
M  V30 4252 H 404.084 -3.27793 -2.42932 0
M  V30 4253 H 402.759 -3.89562 -1.4565 0
M  V30 4254 H 401.336 -2.56089 -2.71059 0
M  V30 4255 N 403.521 0.559213 -1.47345 0
M  V30 4256 C 404.453 1.68161 -1.55738 0
M  V30 4257 C 405.466 1.56636 -0.443744 0
M  V30 4258 O 406.655 1.6363 -0.713258 0
M  V30 4259 C 403.755 3.06611 -1.4437 0
M  V30 4260 C 402.928 3.4391 -2.70268 0
M  V30 4261 C 401.987 4.61515 -2.52765 0
M  V30 4262 O 401.013 4.66197 -3.26572 0
M  V30 4263 N 402.215 5.57883 -1.6046 0
M  V30 4264 H 404.98 1.61408 -2.52522 0
M  V30 4265 H 402.541 0.7458 -1.43699 0
M  V30 4266 H 404.533 3.83117 -1.30398 0
M  V30 4267 H 403.103 3.07602 -0.556766 0
M  V30 4268 H 402.323 2.56873 -2.99015 0
M  V30 4269 H 403.611 3.65605 -3.53851 0
M  V30 4270 H 403.009 5.56855 -0.996422 0
M  V30 4271 H 401.566 6.33723 -1.52441 0
M  V30 4272 N 404.999 1.35443 0.805782 0
M  V30 4273 C 406.41 1.25768 1.37983 0
M  V30 4274 C 406.761 -0.10958 1.95894 0
M  V30 4275 O 405.886 -1.01056 1.91355 0
M  V30 4276 C 406.481 2.27727 2.5085 0
M  V30 4277 C 405.04 2.2179 3.04115 0
M  V30 4278 C 404.187 2.13393 1.77084 0
M  V30 4279 H 407.138 1.4656 0.608752 0
M  V30 4280 H 407.159 1.90422 3.29424 0
M  V30 4281 H 406.671 3.27227 2.08671 0
M  V30 4282 H 404.772 1.25703 3.50756 0
M  V30 4283 H 404.885 3.13788 3.62042 0
M  V30 4284 H 403.249 1.59384 1.98668 0
M  V30 4285 H 404.032 3.14755 1.37056 0
M  V30 4286 N 406.477 -1.02803 1.19454 0
M  V30 4287 C 407.705 -1.79841 1.02297 0
M  V30 4288 C 408.12 -1.83879 -0.428259 0
M  V30 4289 O 407.477 -1.28345 -1.29745 0
M  V30 4290 C 407.528 -3.24852 1.58598 0
M  V30 4291 O 407.249 -3.21097 2.98041 0
M  V30 4292 C 408.75 -4.18485 1.46236 0
M  V30 4293 H 405.97 -0.565936 0.360496 0
M  V30 4294 H 408.514 -1.2948 1.58288 0
M  V30 4295 H 406.669 -3.72401 1.06753 0
M  V30 4296 H 407.083 -4.12033 3.24545 0
M  V30 4297 H 408.557 -5.18121 1.90407 0
M  V30 4298 H 409.034 -4.37254 0.41301 0
M  V30 4299 H 409.64 -3.76811 1.97215 0
M  V30 4300 N 407.956 -0.998596 -1.21925 0
M  V30 4301 C 408.904 -0.546641 -2.26085 0
M  V30 4302 C 409.898 0.405576 -1.64473 0
M  V30 4303 O 411.104 0.277471 -1.77849 0
M  V30 4304 H 407.479 -0.158403 -0.735127 0
M  V30 4305 H 409.45 -1.43645 -2.61551 0
M  V30 4306 C 408.199 0.117388 -3.47502 0
M  V30 4307 H 407.522 -0.606277 -3.95176 0
M  V30 4308 H 408.962 0.396993 -4.22137 0
M  V30 4309 C 407.421 1.35455 -3.0847 0
M  V30 4310 O 407.951 2.44944 -3.18379 0
M  V30 4311 N 406.157 1.23191 -2.63196 0
M  V30 4312 H 405.704 0.341006 -2.55333 0
M  V30 4313 H 405.662 2.06071 -2.37449 0
M  V30 4314 N 409.434 1.37368 -0.772513 0
M  V30 4315 C 410.344 2.34053 -0.160081 0
M  V30 4316 C 411.36 1.60216 0.678728 0
M  V30 4317 O 412.536 1.92303 0.59847 0
M  V30 4318 C 409.601 3.3939 0.708182 0
M  V30 4319 C 408.662 4.29048 -0.147172 0
M  V30 4320 C 407.895 5.29354 0.679744 0
M  V30 4321 O 408.118 5.3723 1.91678 0
M  V30 4322 O 407.052 6.01835 0.0885444 0
M  V30 4323 H 410.878 2.88159 -0.959053 0
M  V30 4324 H 408.463 1.39543 -0.533685 0
M  V30 4325 H 410.345 4.03839 1.20384 0
M  V30 4326 H 409.02 2.8761 1.48533 0
M  V30 4327 H 407.927 3.67697 -0.689205 0
M  V30 4328 H 409.26 4.84134 -0.887423 0
M  V30 4329 N 410.912 0.523116 1.48665 0
M  V30 4330 C 412.137 -0.0117284 2.07397 0
M  V30 4331 C 412.562 -1.28031 1.37803 0
M  V30 4332 O 411.92 -1.75836 0.441762 0
M  V30 4333 C 411.968 -0.225786 3.59892 0
M  V30 4334 O 411.072 -1.29592 3.91509 0
M  V30 4335 H 410.413 0.0360673 0.66302 0
M  V30 4336 H 412.943 0.729066 1.9117 0
M  V30 4337 H 412.953 -0.450552 4.05505 0
M  V30 4338 H 411.628 0.700944 4.09951 0
M  V30 4339 H 410.205 -1.05436 3.57684 0
M  V30 4340 N 412.39 -1.55475 0.257931 0
M  V30 4341 C 413.34 -2.18506 -0.651094 0
M  V30 4342 C 414.324 -1.14431 -1.13112 0
M  V30 4343 O 415.516 -1.40305 -1.07905 0
M  V30 4344 C 412.645 -2.89653 -1.84272 0
M  V30 4345 C 411.731 -4.00996 -1.38068 0
M  V30 4346 N 412.122 -5.01816 -0.633609 0
M  V30 4347 C 410.42 -4.13753 -1.66506 0
M  V30 4348 C 411.121 -5.80371 -0.392922 0
M  V30 4349 N 410.097 -5.3505 -0.960359 0
M  V30 4350 H 413.899 -2.93811 -0.0722883 0
M  V30 4351 H 411.413 -1.62286 0.0607256 0
M  V30 4352 H 413.41 -3.33245 -2.50506 0
M  V30 4353 H 412.07 -2.15854 -2.42564 0
M  V30 4354 H 413.081 -5.17128 -0.282626 0
M  V30 4355 H 409.758 -3.51133 -2.25858 0
M  V30 4356 H 411.148 -6.7159 0.204235 0
M  V30 4357 N 413.868 0.0150385 -1.57593 0
M  V30 4358 C 415.093 0.718067 -1.94573 0
M  V30 4359 C 415.518 1.6734 -0.859005 0
M  V30 4360 O 414.876 1.80362 0.184147 0
M  V30 4361 C 414.924 1.43918 -3.30636 0
M  V30 4362 O 414.028 2.55299 -3.23876 0
M  V30 4363 H 413.369 0.192125 -0.635597 0
M  V30 4364 H 415.899 -0.0336708 -2.04572 0
M  V30 4365 H 415.909 1.80598 -3.65853 0
M  V30 4366 H 414.584 0.738619 -4.09289 0
M  V30 4367 H 413.161 2.21058 -3.00312 0
M  V30 4368 N 415.346 1.54954 0.287554 0
M  V30 4369 C 416.595 1.74081 1.01877 0
M  V30 4370 C 416.908 0.541135 1.87966 0
M  V30 4371 O 418.114 0.614491 2.64455 0
M  V30 4372 C 416.57 3.08042 1.86113 0
M  V30 4373 C 416.178 4.35531 1.04961 0
M  V30 4374 C 417.922 3.36523 2.58752 0
M  V30 4375 C 415.829 5.60538 1.88551 0
M  V30 4376 H 414.759 0.64884 0.384087 0
M  V30 4377 H 417.41 1.81426 0.275101 0
M  V30 4378 H 415.792 2.94696 2.64519 0
M  V30 4379 H 416.966 4.59751 0.31074 0
M  V30 4380 H 415.281 4.14085 0.43843 0
M  V30 4381 H 417.878 4.27122 3.21668 0
M  V30 4382 H 418.221 2.56 3.28283 0
M  V30 4383 H 418.754 3.50901 1.87386 0
M  V30 4384 H 415.493 6.43767 1.23466 0
M  V30 4385 H 415.013 5.40483 2.60074 0
M  V30 4386 H 416.692 5.98297 2.46273 0
M  V30 4387 N 416.824 -0.551391 1.4764 0
M  V30 4388 C 417.771 -1.65796 1.60563 0
M  V30 4389 C 418.741 -1.59932 0.448428 0
M  V30 4390 O 419.926 -1.78679 0.669222 0
M  V30 4391 C 417.066 -3.04108 1.63133 0
M  V30 4392 C 416.179 -3.20365 2.89811 0
M  V30 4393 C 415.314 -4.49109 2.8368 0
M  V30 4394 C 414.353 -4.58819 4.05156 0
M  V30 4395 N 413.49 -5.78926 3.97227 0
M  V30 4396 H 418.33 -1.54088 2.5507 0
M  V30 4397 H 415.867 -0.75052 1.26513 0
M  V30 4398 H 417.825 -3.84207 1.62606 0
M  V30 4399 H 416.455 -3.14637 0.721341 0
M  V30 4400 H 415.507 -2.33659 3.00179 0
M  V30 4401 H 416.819 -3.23402 3.79753 0
M  V30 4402 H 415.973 -5.37475 2.81434 0
M  V30 4403 H 414.712 -4.4856 1.91431 0
M  V30 4404 H 413.717 -3.68864 4.077 0
M  V30 4405 H 414.942 -4.61124 4.98539 0
M  V30 4406 H 412.888 -5.79314 3.07785 0
M  V30 4407 H 412.805 -5.83367 4.80853 0
M  V30 4408 H 414.073 -6.69637 3.99007 0
M  V30 4409 N 418.302 -1.35869 -0.798587 0
M  V30 4410 C 419.265 -1.29307 -1.89242 0
M  V30 4411 C 420.265 -0.202747 -1.59517 0
M  V30 4412 O 421.455 -0.456957 -1.681 0
M  V30 4413 C 418.587 -1.00229 -3.25833 0
M  V30 4414 H 419.78 -2.26576 -1.96478 0
M  V30 4415 H 417.333 -1.20509 -0.995358 0
M  V30 4416 H 418.068 -0.033801 -3.24282 0
M  V30 4417 H 417.853 -1.79121 -3.48795 0
M  V30 4418 H 419.343 -0.98219 -4.05885 0
M  V30 4419 N 419.78 1.02168 -1.19998 0
M  V30 4420 C 421.029 1.75091 -1.0013 0
M  V30 4421 C 421.342 1.89923 0.467835 0
M  V30 4422 O 422.548 2.59888 0.785515 0
M  V30 4423 C 421.004 3.14892 -1.74273 0
M  V30 4424 C 420.612 3.0809 -3.25245 0
M  V30 4425 C 422.356 3.9206 -1.62755 0
M  V30 4426 C 420.263 4.42867 -3.91948 0
M  V30 4427 H 419.193 0.656394 -0.37103 0
M  V30 4428 H 421.844 1.14284 -1.43567 0
M  V30 4429 H 420.226 3.7621 -1.2362 0
M  V30 4430 H 421.4 2.5611 -3.83072 0
M  V30 4431 H 419.715 2.44416 -3.3712 0
M  V30 4432 H 422.312 4.91764 -2.09934 0
M  V30 4433 H 422.655 4.12199 -0.582894 0
M  V30 4434 H 423.188 3.37359 -2.10793 0
M  V30 4435 H 419.927 4.27931 -4.96543 0
M  V30 4436 H 419.447 4.94874 -3.3891 0
M  V30 4437 H 421.126 5.11728 -3.95909 0
M  V30 4438 N 421.258 1.00505 1.21394 0
M  V30 4439 C 422.188 0.585684 2.26035 0
M  V30 4440 C 423.169 -0.393525 1.65485 0
M  V30 4441 O 424.354 -0.281497 1.92149 0
M  V30 4442 C 421.484 -0.0884283 3.47187 0
M  V30 4443 C 420.438 0.810567 4.20254 0
M  V30 4444 C 419.764 0.00286382 5.347 0
M  V30 4445 C 421.064 2.1132 4.77641 0
M  V30 4446 H 422.758 1.46039 2.61368 0
M  V30 4447 H 420.304 0.703648 1.25638 0
M  V30 4448 H 422.257 -0.393286 4.19561 0
M  V30 4449 H 420.981 -0.997766 3.10986 0
M  V30 4450 H 419.64 1.09925 3.49731 0
M  V30 4451 H 419.288 -0.907765 4.94741 0
M  V30 4452 H 418.988 0.601444 5.84514 0
M  V30 4453 H 420.512 -0.295808 6.09883 0
M  V30 4454 H 421.926 1.87148 5.41893 0
M  V30 4455 H 420.323 2.66164 5.37845 0
M  V30 4456 H 421.393 2.78393 3.9702 0
M  V30 4457 N 422.737 -1.36956 0.779787 0
M  V30 4458 C 423.684 -2.30175 0.169697 0
M  V30 4459 C 424.654 -1.51501 -0.68094 0
M  V30 4460 O 425.839 -1.80042 -0.631629 0
M  V30 4461 C 422.979 -3.37985 -0.697131 0
M  V30 4462 C 422.092 -4.31661 0.170992 0
M  V30 4463 C 421.227 -5.2655 -0.701298 0
M  V30 4464 C 420.266 -6.11867 0.168869 0
M  V30 4465 N 419.403 -6.98973 -0.661855 0
M  V30 4466 H 424.243 -2.81767 0.970135 0
M  V30 4467 H 421.78 -1.38699 0.489994 0
M  V30 4468 H 423.738 -3.99128 -1.2146 0
M  V30 4469 H 422.368 -2.87739 -1.46309 0
M  V30 4470 H 421.42 -3.71756 0.80634 0
M  V30 4471 H 422.732 -4.91644 0.841875 0
M  V30 4472 H 421.886 -5.92937 -1.28494 0
M  V30 4473 H 420.625 -4.66998 -1.40584 0
M  V30 4474 H 419.63 -5.44452 0.764986 0
M  V30 4475 H 420.855 -6.73493 0.870863 0
M  V30 4476 H 418.801 -6.41941 -1.35086 0
M  V30 4477 H 418.718 -7.55984 -0.0484447 0
M  V30 4478 H 419.986 -7.6974 -1.22963 0
M  V30 4479 N 424.215 -0.530993 -1.48385 0
M  V30 4480 C 425.163 0.244595 -2.3131 0
M  V30 4481 C 426.157 0.93451 -1.41291 0
M  V30 4482 O 427.363 0.85878 -1.58193 0
M  V30 4483 H 423.738 0.0977472 -0.74562 0
M  V30 4484 H 425.709 -0.474369 -2.94605 0
M  V30 4485 C 424.458 1.2779 -3.23365 0
M  V30 4486 H 423.781 0.756439 -3.92579 0
M  V30 4487 H 425.221 1.79198 -3.84271 0
M  V30 4488 C 423.68 2.31205 -2.45042 0
M  V30 4489 O 424.21 3.37661 -2.17596 0
M  V30 4490 N 422.416 2.04446 -2.0652 0
M  V30 4491 H 421.963 1.17891 -2.2904 0
M  V30 4492 H 421.921 2.73861 -1.54427 0
M  V30 4493 N 425.693 1.55336 -0.266172 0
M  V30 4494 C 426.942 1.98574 0.353749 0
M  V30 4495 C 427.255 1.15789 1.57646 0
M  V30 4496 O 428.461 1.49129 2.26876 0
M  V30 4497 C 426.917 3.53403 0.680747 0
M  V30 4498 C 426.525 4.44953 -0.52165 0
M  V30 4499 C 428.269 4.05251 1.26379 0
M  V30 4500 C 426.176 5.91156 -0.169736 0
M  V30 4501 H 425.106 0.741643 0.135949 0
M  V30 4502 H 427.757 1.79743 -0.369421 0
M  V30 4503 H 426.139 3.68001 1.46257 0
M  V30 4504 H 427.313 4.42121 -1.29869 0
M  V30 4505 H 425.628 4.03691 -1.02093 0
M  V30 4506 H 428.225 5.12021 1.54074 0
M  V30 4507 H 428.568 3.53749 2.19471 0
M  V30 4508 H 429.101 3.94057 0.544447 0
M  V30 4509 H 425.84 6.46736 -1.0683 0
M  V30 4510 H 425.36 5.97079 0.570717 0
M  V30 4511 H 427.039 6.4655 0.241245 0
M  V30 4512 N 427.171 -0.0066808 1.57599 0
M  V30 4513 C 428.396 -0.707738 1.94951 0
M  V30 4514 C 428.821 -1.66882 0.867868 0
M  V30 4515 O 428.179 -1.80457 -0.17458 0
M  V30 4516 C 428.227 -1.42162 3.31394 0
M  V30 4517 O 427.331 -2.53578 3.25226 0
M  V30 4518 H 426.672 -0.188752 0.636607 0
M  V30 4519 H 429.202 0.0445193 2.04552 0
M  V30 4520 H 429.212 -1.78655 3.66806 0
M  V30 4521 H 427.887 -0.716903 4.09675 0
M  V30 4522 H 426.464 -2.19463 3.01481 0
M  V30 4523 N 428.649 -1.55105 -0.279332 0
M  V30 4524 C 429.895 -1.75672 -1.01327 0
M  V30 4525 C 430.228 -0.552739 -1.86168 0
M  V30 4526 O 429.503 0.449827 -1.89227 0
M  V30 4527 C 429.786 -3.05825 -1.90114 0
M  V30 4528 C 429.639 -4.36565 -1.08309 0
M  V30 4529 C 430.958 -3.31975 -2.8893 0
M  V30 4530 H 428.077 -0.639149 -0.366957 0
M  V30 4531 H 430.719 -1.87833 -0.286154 0
M  V30 4532 H 428.869 -2.95588 -2.52111 0
M  V30 4533 H 430.541 -4.58751 -0.484314 0
M  V30 4534 H 428.784 -4.32076 -0.386362 0
M  V30 4535 H 429.455 -5.23946 -1.73737 0
M  V30 4536 H 431.931 -3.41963 -2.37067 0
M  V30 4537 H 430.807 -4.2432 -3.48201 0
M  V30 4538 H 431.068 -2.51309 -3.63725 0
M  V30 4539 N 430.127 0.543554 -1.4793 0
M  V30 4540 C 431.057 1.65888 -1.64327 0
M  V30 4541 C 432.038 1.62818 -0.492383 0
M  V30 4542 O 433.223 1.80226 -0.723338 0
M  V30 4543 C 430.353 3.04506 -1.67013 0
M  V30 4544 C 429.307 3.2243 -2.81466 0
M  V30 4545 C 428.633 4.61972 -2.69233 0
M  V30 4546 C 429.933 3.06496 -4.22915 0
M  V30 4547 H 431.627 1.52421 -2.57698 0
M  V30 4548 H 429.173 0.731849 -1.24016 0
M  V30 4549 H 431.126 3.82391 -1.77074 0
M  V30 4550 H 429.85 3.18964 -0.70212 0
M  V30 4551 H 428.509 2.46957 -2.70938 0
M  V30 4552 H 428.157 4.73247 -1.7043 0
M  V30 4553 H 427.857 4.74911 -3.46025 0
M  V30 4554 H 429.381 5.41974 -2.81242 0
M  V30 4555 H 430.795 3.74186 -4.34348 0
M  V30 4556 H 429.192 3.30938 -5.006 0
M  V30 4557 H 430.262 2.03077 -4.40327 0
M  V30 4558 N 431.605 1.3629 0.791371 0
M  V30 4559 C 432.568 1.30309 1.88553 0
M  V30 4560 C 433.568 0.211204 1.59407 0
M  V30 4561 O 434.758 0.465865 1.67855 0
M  V30 4562 C 431.89 1.01956 3.25297 0
M  V30 4563 H 433.083 2.27614 1.95273 0
M  V30 4564 H 430.636 1.21035 0.988953 0
M  V30 4565 H 431.371 0.050998 3.2426 0
M  V30 4566 H 431.156 1.80968 3.4784 0
M  V30 4567 H 432.646 1.0037 4.05359 0
M  V30 4568 N 433.083 -1.0153 1.20538 0
M  V30 4569 C 434.33 -1.75149 1.01633 0
M  V30 4570 C 434.658 -1.89189 -0.451399 0
M  V30 4571 O 433.913 -1.41551 -1.35136 0
M  V30 4572 C 434.212 -3.17213 1.64654 0
M  V30 4573 C 433.878 -3.23146 3.14464 0
M  V30 4574 C 432.54 -3.24472 3.55347 0
M  V30 4575 C 434.892 -3.21207 4.10458 0
M  V30 4576 C 432.22 -3.21532 4.90748 0
M  V30 4577 C 434.572 -3.19808 5.45807 0
M  V30 4578 C 433.236 -3.19439 5.86102 0
M  V30 4579 H 432.506 -0.640914 0.3719 0
M  V30 4580 H 435.153 -1.19071 1.49981 0
M  V30 4581 H 433.458 -3.76457 1.08571 0
M  V30 4582 H 435.155 -3.72871 1.4754 0
M  V30 4583 H 431.745 -3.2285 2.81897 0
M  V30 4584 H 435.929 -3.19351 3.79906 0
M  V30 4585 H 431.185 -3.19578 5.21229 0
M  V30 4586 H 435.359 -3.1726 6.19935 0
M  V30 4587 H 432.986 -3.16915 6.90991 0
M  V30 4588 N 434.561 -1.01147 -1.20859 0
M  V30 4589 C 435.786 -0.716698 -1.94623 0
M  V30 4590 C 436.211 0.715415 -1.73964 0
M  V30 4591 O 435.569 1.49157 -1.03062 0
M  V30 4592 C 435.617 -1.0513 -3.44935 0
M  V30 4593 O 434.721 -0.160131 -4.12089 0
M  V30 4594 H 434.062 -0.266404 -0.608214 0
M  V30 4595 H 436.592 -1.35346 -1.53436 0
M  V30 4596 H 436.602 -1.00086 -3.95533 0
M  V30 4597 H 435.277 -2.09475 -3.59295 0
M  V30 4598 H 433.854 -0.267657 -3.71938 0
M  V30 4599 N 436.039 1.36541 -0.78704 0
M  V30 4600 C 437.285 1.99599 -0.358872 0
M  V30 4601 C 437.618 1.62323 1.06606 0
M  V30 4602 O 436.893 0.876858 1.73613 0
M  V30 4603 C 437.176 3.56327 -0.519944 0
M  V30 4604 C 437.029 4.03464 -1.98839 0
M  V30 4605 C 438.348 4.4005 0.0664737 0
M  V30 4606 H 435.467 0.725107 -0.131869 0
M  V30 4607 H 438.109 1.6199 -0.992936 0
M  V30 4608 H 436.259 3.88495 0.0198321 0
M  V30 4609 H 437.931 3.81793 -2.58905 0
M  V30 4610 H 436.174 3.55092 -2.49183 0
M  V30 4611 H 436.845 5.12439 -2.05207 0
M  V30 4612 H 439.321 4.14228 -0.394267 0
M  V30 4613 H 438.197 5.48847 -0.0762682 0
M  V30 4614 H 438.458 4.26655 1.15835 0
M  V30 4615 N 437.518 0.538854 1.48102 0
M  V30 4616 C 438.758 0.0101209 2.04397 0
M  V30 4617 C 439.122 -1.30741 1.40609 0
M  V30 4618 O 440.323 -1.92272 1.87843 0
M  V30 4619 C 438.594 -0.100232 3.57259 0
M  V30 4620 S 440.153 -0.577746 4.3498 0
M  V30 4621 H 436.971 0.0163171 0.710813 0
M  V30 4622 H 439.573 0.721429 1.81702 0
M  V30 4623 H 438.277 0.863351 4.01216 0
M  V30 4624 H 437.808 -0.835651 3.84422 0
M  V30 4625 H 439.823 -1.84073 4.60794 0
M  V30 4626 N 438.996 -1.55193 0.274407 0
M  V30 4627 C 440.243 -1.99581 -0.342579 0
M  V30 4628 C 440.571 -1.1628 -1.55914 0
M  V30 4629 O 439.826 -0.22029 -1.94456 0
M  V30 4630 C 440.125 -3.49019 -0.769458 0
M  V30 4631 C 439.791 -4.49598 0.342389 0
M  V30 4632 C 438.453 -4.76821 0.647686 0
M  V30 4633 C 440.805 -5.0964 1.09163 0
M  V30 4634 C 438.133 -5.61354 1.70581 0
M  V30 4635 C 440.485 -5.95323 2.13948 0
M  V30 4636 C 439.149 -6.20867 2.45113 0
M  V30 4637 H 438.419 -0.730319 -0.125358 0
M  V30 4638 H 441.066 -1.87529 0.387971 0
M  V30 4639 H 439.371 -3.58544 -1.57967 0
M  V30 4640 H 441.068 -3.8077 -1.25757 0
M  V30 4641 H 437.658 -4.28496 0.094318 0
M  V30 4642 H 441.842 -4.88632 0.869024 0
M  V30 4643 H 437.098 -5.79392 1.9523 0
M  V30 4644 H 441.272 -6.40881 2.72478 0
M  V30 4645 H 438.899 -6.86162 3.27239 0
M  V30 4646 N 440.474 -0.00167713 -1.576 0
M  V30 4647 C 441.723 0.682021 -1.89819 0
M  V30 4648 C 442.036 1.74844 -0.876871 0
M  V30 4649 O 443.242 2.48688 -1.08934 0
M  V30 4650 C 441.698 1.26425 -3.36964 0
M  V30 4651 C 441.306 0.232568 -4.47396 0
M  V30 4652 C 443.05 1.92604 -3.78291 0
M  V30 4653 C 440.957 0.824882 -5.85619 0
M  V30 4654 H 439.887 0.258499 -0.708304 0
M  V30 4655 H 442.538 -0.0624957 -1.83394 0
M  V30 4656 H 440.92 2.05949 -3.38232 0
M  V30 4657 H 442.094 -0.5382 -4.57646 0
M  V30 4658 H 440.409 -0.32888 -4.15099 0
M  V30 4659 H 443.006 2.37827 -4.78897 0
M  V30 4660 H 443.349 2.75732 -3.11894 0
M  V30 4661 H 443.882 1.19812 -3.79328 0
M  V30 4662 H 440.621 0.0323542 -6.55492 0
M  V30 4663 H 440.141 1.56477 -5.79029 0
M  V30 4664 H 441.82 1.32301 -6.33329 0
M  V30 4665 N 441.952 1.55251 0.271103 0
M  V30 4666 C 443.199 1.75946 1.00245 0
M  V30 4667 C 443.527 0.561611 1.86215 0
M  V30 4668 O 442.782 -0.455832 1.90317 0
M  V30 4669 C 443.081 3.01879 1.91321 0
M  V30 4670 C 442.747 4.34337 1.21086 0
M  V30 4671 C 441.409 4.70338 1.01666 0
M  V30 4672 C 443.761 5.16325 0.71119 0
M  V30 4673 C 441.089 5.8588 0.310099 0
M  V30 4674 C 443.441 6.32597 0.0182157 0
M  V30 4675 C 442.105 6.67236 -0.18768 0
M  V30 4676 H 441.375 0.643833 0.366824 0
M  V30 4677 H 444.022 1.89521 0.27458 0
M  V30 4678 H 442.327 2.83212 2.70736 0
M  V30 4679 H 444.024 3.15088 2.48033 0
M  V30 4680 H 440.614 4.06043 1.37213 0
M  V30 4681 H 444.798 4.88987 0.848844 0
M  V30 4682 H 440.054 6.1124 0.139873 0
M  V30 4683 H 444.228 6.9538 -0.376711 0
M  V30 4684 H 441.855 7.56618 -0.73715 0
M  V30 4685 N 443.43 -0.535701 1.48216 0
M  V30 4686 C 444.658 -1.31671 1.59594 0
M  V30 4687 C 445.073 -1.87083 0.254056 0
M  V30 4688 O 444.43 -1.66112 -0.755854 0
M  V30 4689 C 444.481 -2.47158 2.63809 0
M  V30 4690 O 444.202 -1.94032 3.92789 0
M  V30 4691 C 445.703 -3.39062 2.85573 0
M  V30 4692 H 442.923 -0.400623 0.538277 0
M  V30 4693 H 445.467 -0.646827 1.94001 0
M  V30 4694 H 443.622 -3.10043 2.32276 0
M  V30 4695 H 444.036 -2.69585 4.49916 0
M  V30 4696 H 445.51 -4.16459 3.62306 0
M  V30 4697 H 445.987 -3.93941 1.94184 0
M  V30 4698 H 446.593 -2.81975 3.18387 0
M  V30 4699 N 444.908 -1.36708 -0.784132 0
M  V30 4700 C 446.157 -1.30559 -1.53744 0
M  V30 4701 C 446.47 0.111374 -1.95283 0
M  V30 4702 O 447.676 0.29527 -2.6989 0
M  V30 4703 C 446.132 -2.29098 -2.77565 0
M  V30 4704 C 445.74 -3.76258 -2.43174 0
M  V30 4705 C 447.484 -2.31936 -3.55536 0
M  V30 4706 C 445.391 -4.6656 -3.63422 0
M  V30 4707 H 444.321 -0.48518 -0.577162 0
M  V30 4708 H 446.972 -1.62101 -0.859981 0
M  V30 4709 H 445.354 -1.90557 -3.47137 0
M  V30 4710 H 446.528 -4.23565 -1.81465 0
M  V30 4711 H 444.843 -3.76246 -1.78403 0
M  V30 4712 H 447.44 -2.9661 -4.44889 0
M  V30 4713 H 447.783 -1.3294 -3.94503 0
M  V30 4714 H 448.316 -2.6912 -2.92949 0
M  V30 4715 H 445.055 -5.66638 -3.29547 0
M  V30 4716 H 444.575 -4.23966 -4.24279 0
M  V30 4717 H 446.254 -4.8309 -4.30387 0
M  V30 4718 N 446.386 1.0089 -1.21074 0
M  V30 4719 C 447.614 1.78191 -1.05145 0
M  V30 4720 C 448.029 1.84537 0.398952 0
M  V30 4721 O 447.386 1.30393 1.27687 0
M  V30 4722 C 447.437 3.22288 -1.63746 0
M  V30 4723 O 447.158 3.16315 -3.03111 0
M  V30 4724 C 448.659 4.16106 -1.52875 0
M  V30 4725 H 445.879 0.560129 -0.369454 0
M  V30 4726 H 448.423 1.26945 -1.60328 0
M  V30 4727 H 446.578 3.70655 -1.12664 0
M  V30 4728 H 446.992 4.06817 -3.31059 0
M  V30 4729 H 448.466 5.15026 -1.98626 0
M  V30 4730 H 448.943 4.36541 -0.482521 0
M  V30 4731 H 449.549 3.73625 -2.03185 0
M  V30 4732 N 447.864 1.01787 1.20321 0
M  V30 4733 C 449.113 0.703249 1.89043 0
M  V30 4734 C 449.426 -0.770445 1.79787 0
M  V30 4735 O 450.632 -1.19767 2.43656 0
M  V30 4736 C 449.088 1.20749 3.3904 0
M  V30 4737 C 448.696 2.70817 3.56878 0
M  V30 4738 C 450.44 0.968352 4.13308 0
M  V30 4739 C 448.347 3.14716 5.00708 0
M  V30 4740 H 447.277 0.259354 0.707991 0
M  V30 4741 H 449.928 1.23072 1.36108 0
M  V30 4742 H 448.31 0.607989 3.91305 0
M  V30 4743 H 449.484 3.36327 3.14993 0
M  V30 4744 H 447.799 2.92888 2.95983 0
M  V30 4745 H 450.396 1.27173 5.19356 0
M  V30 4746 H 450.739 -0.095149 4.16191 0
M  V30 4747 H 451.272 1.53129 3.67146 0
M  V30 4748 H 448.011 4.20347 5.02979 0
M  V30 4749 H 447.531 2.53927 5.43398 0
M  V30 4750 H 449.21 3.07426 5.69296 0
M  V30 4751 N 449.342 -1.36122 0.79427 0
M  V30 4752 C 450.59 -1.98718 0.368177 0
M  V30 4753 C 450.911 -1.63345 -1.06506 0
M  V30 4754 O 450.181 -0.909825 -1.73491 0
M  V30 4755 H 448.761 -0.735038 0.133146 0
M  V30 4756 H 451.423 -1.66239 1.01739 0
M  V30 4757 H 450.519 -3.08633 0.463923 0
M  V30 4758 N 450.82 -0.546701 -1.47814 0
M  V30 4759 C 451.753 0.254472 -2.26777 0
M  V30 4760 C 452.731 0.929809 -1.33392 0
M  V30 4761 O 453.915 0.950889 -1.62759 0
M  V30 4762 C 451.042 1.36171 -3.10121 0
M  V30 4763 C 450.088 0.796038 -4.19005 0
M  V30 4764 S 450.921 -0.349191 -5.3436 0
M  V30 4765 C 452.077 0.760122 -6.21267 0
M  V30 4766 H 452.31 -0.415612 -2.94381 0
M  V30 4767 H 449.843 -0.332809 -1.5077 0
M  V30 4768 H 451.801 1.99588 -3.58713 0
M  V30 4769 H 450.462 2.00359 -2.41899 0
M  V30 4770 H 449.655 1.62719 -4.7701 0
M  V30 4771 H 449.257 0.238246 -3.7324 0
M  V30 4772 H 451.549 1.65479 -6.5698 0
M  V30 4773 H 452.492 0.217673 -7.07765 0
M  V30 4774 H 452.9 1.04806 -5.54685 0
M  V30 4775 N 452.299 1.55045 -0.282633 0
M  V30 4776 C 453.546 1.9976 0.33199 0
M  V30 4777 C 453.874 1.17105 1.55295 0
M  V30 4778 O 453.129 0.230599 1.94337 0
M  V30 4779 C 453.428 3.49422 0.750938 0
M  V30 4780 C 453.094 4.4941 -0.366228 0
M  V30 4781 C 451.756 4.76471 -0.672964 0
M  V30 4782 C 454.108 5.09054 -1.11864 0
M  V30 4783 C 451.436 5.60442 -1.73556 0
M  V30 4784 C 453.788 5.9418 -2.17102 0
M  V30 4785 C 452.452 6.19558 -2.48402 0
M  V30 4786 H 451.722 0.730974 0.121484 0
M  V30 4787 H 454.369 1.8732 -0.39791 0
M  V30 4788 H 452.674 3.59377 1.56063 0
M  V30 4789 H 454.371 3.81432 1.23736 0
M  V30 4790 H 450.961 4.2844 -0.117041 0
M  V30 4791 H 455.145 4.88165 -0.894925 0
M  V30 4792 H 450.401 5.78349 -1.983 0
M  V30 4793 H 454.575 6.39427 -2.75873 0
M  V30 4794 H 452.202 6.84417 -3.30874 0
M  V30 4795 N 453.777 0.010035 1.57597 0
M  V30 4796 C 455.188 -0.531426 1.78977 0
M  V30 4797 C 455.539 -1.73375 0.918454 0
M  V30 4798 O 454.664 -2.16047 0.123635 0
M  V30 4799 C 455.259 -0.97086 3.24592 0
M  V30 4800 C 453.818 -1.45756 3.47033 0
M  V30 4801 C 452.965 -0.413384 2.74201 0
M  V30 4802 H 455.916 0.236166 1.56933 0
M  V30 4803 H 455.937 -1.83633 3.33255 0
M  V30 4804 H 455.449 -0.0955893 3.87982 0
M  V30 4805 H 453.55 -2.35339 2.88871 0
M  V30 4806 H 453.663 -1.4781 4.55729 0
M  V30 4807 H 452.027 -0.877266 2.39115 0
M  V30 4808 H 452.81 0.453092 3.40297 0
M  V30 4809 N 455.255 -1.55392 -0.262866 0
M  V30 4810 C 456.218 -1.88181 -1.30846 0
M  V30 4811 C 457.218 -0.757079 -1.41862 0
M  V30 4812 O 458.408 -1.02519 -1.40838 0
M  V30 4813 C 455.54 -2.09609 -2.68844 0
M  V30 4814 H 456.733 -2.81659 -1.02997 0
M  V30 4815 H 454.286 -1.48039 -0.501414 0
M  V30 4816 H 455.021 -1.18547 -3.01856 0
M  V30 4817 H 454.806 -2.91508 -2.62231 0
M  V30 4818 H 456.296 -2.36215 -3.44372 0
M  V30 4819 N 456.733 0.527833 -1.48498 0
M  V30 4820 C 457.979 1.28545 -1.56857 0
M  V30 4821 C 458.312 1.92678 -0.242651 0
M  V30 4822 O 457.587 1.79394 0.751545 0
M  V30 4823 C 457.87 2.37314 -2.70839 0
M  V30 4824 C 457.723 1.77858 -4.13142 0
M  V30 4825 C 459.042 3.39068 -2.80573 0
M  V30 4826 H 456.161 0.466006 -0.570971 0
M  V30 4827 H 458.803 0.587784 -1.8068 0
M  V30 4828 H 456.953 2.96821 -2.50658 0
M  V30 4829 H 458.625 1.22385 -4.44769 0
M  V30 4830 H 456.868 1.08383 -4.20042 0
M  V30 4831 H 457.539 2.56624 -4.88721 0
M  V30 4832 H 460.015 2.89518 -2.98862 0
M  V30 4833 H 458.891 4.12566 -3.6205 0
M  V30 4834 H 459.152 3.9975 -1.88818 0
M  V30 4835 N 458.211 1.37122 0.776871 0
M  V30 4836 C 459.439 1.3523 1.5659 0
M  V30 4837 C 459.854 -0.0635518 1.88693 0
M  V30 4838 O 459.211 -1.02394 1.51069 0
M  V30 4839 C 459.262 2.18583 2.8793 0
M  V30 4840 O 458.983 3.5465 2.57206 0
M  V30 4841 C 460.484 2.24612 3.82183 0
M  V30 4842 H 457.704 0.4634 0.485285 0
M  V30 4843 H 460.248 1.80392 0.963266 0
M  V30 4844 H 458.403 1.76943 3.4463 0
M  V30 4845 H 458.817 3.98286 3.41275 0
M  V30 4846 H 460.291 2.87267 4.71361 0
M  V30 4847 H 460.768 1.25309 4.20944 0
M  V30 4848 H 461.374 2.66543 3.31414 0
M  V30 4849 N 459.689 -1.00246 1.21608 0
M  V30 4850 C 460.935 -1.74319 1.03638 0
M  V30 4851 C 461.268 -1.89408 -0.428749 0
M  V30 4852 O 460.543 -1.43026 -1.3181 0
M  V30 4853 C 460.826 -3.15431 1.73711 0
M  V30 4854 C 460.679 -3.08049 3.27759 0
M  V30 4855 C 461.998 -4.14407 1.48173 0
M  V30 4856 H 459.117 -0.632741 0.377899 0
M  V30 4857 H 461.759 -1.16853 1.49818 0
M  V30 4858 H 459.909 -3.64493 1.34452 0
M  V30 4859 H 461.581 -2.66681 3.76403 0
M  V30 4860 H 459.824 -2.45088 3.57931 0
M  V30 4861 H 460.495 -4.07862 3.71958 0
M  V30 4862 H 462.971 -3.74061 1.82258 0
M  V30 4863 H 461.847 -5.11279 1.99713 0
M  V30 4864 H 462.108 -4.40174 0.412273 0
M  V30 4865 N 461.167 -1.02423 -1.1978 0
M  V30 4866 C 462.077 -0.610919 -2.26506 0
M  V30 4867 C 463.093 0.355152 -1.70337 0
M  V30 4868 O 464.269 0.214195 -2.00258 0
M  V30 4869 C 461.334 0.0365921 -3.46681 0
M  V30 4870 C 460.395 -0.976389 -4.18049 0
M  V30 4871 C 459.628 -0.359683 -5.32487 0
M  V30 4872 O 459.851 0.838601 -5.64202 0
M  V30 4873 O 458.785 -1.08022 -5.92127 0
M  V30 4874 H 462.611 -1.49965 -2.64091 0
M  V30 4875 H 460.196 -0.794156 -1.26545 0
M  V30 4876 H 462.078 0.39786 -4.19518 0
M  V30 4877 H 460.753 0.899398 -3.10954 0
M  V30 4878 H 459.66 -1.38916 -3.47352 0
M  V30 4879 H 460.993 -1.80941 -4.57735 0
M  V30 4880 N 462.645 1.35699 -0.801477 0
M  V30 4881 C 463.891 1.99208 -0.380022 0
M  V30 4882 C 464.224 1.63445 1.04878 0
M  V30 4883 O 463.499 0.895223 1.72673 0
M  V30 4884 C 463.782 3.55755 -0.557708 0
M  V30 4885 C 463.635 4.01332 -2.03107 0
M  V30 4886 C 464.954 4.40096 0.0197968 0
M  V30 4887 H 462.073 0.723667 -0.139552 0
M  V30 4888 H 464.715 1.60928 -1.01006 0
M  V30 4889 H 462.865 3.88494 -0.0213741 0
M  V30 4890 H 464.537 3.79026 -2.62939 0
M  V30 4891 H 462.78 3.52429 -2.52936 0
M  V30 4892 H 463.451 5.10234 -2.1063 0
M  V30 4893 H 465.927 4.13786 -0.438179 0
M  V30 4894 H 464.803 5.48735 -0.134477 0
M  V30 4895 H 465.064 4.2786 1.11303 0
M  V30 4896 N 464.123 0.554532 1.47522 0
M  V30 4897 C 465.07 -0.19466 2.29978 0
M  V30 4898 C 466.04 -0.910882 1.38896 0
M  V30 4899 O 467.225 -0.907102 1.67858 0
M  V30 4900 C 464.365 -1.22035 3.22802 0
M  V30 4901 C 463.478 -0.510474 4.28973 0
M  V30 4902 C 462.613 -1.52123 5.08952 0
M  V30 4903 C 461.652 -0.796173 6.069 0
M  V30 4904 N 460.789 -1.75363 6.79847 0
M  V30 4905 H 465.629 0.51461 2.93523 0
M  V30 4906 H 463.166 0.265607 1.44682 0
M  V30 4907 H 465.124 -1.8276 3.7504 0
M  V30 4908 H 463.754 -1.89769 2.61127 0
M  V30 4909 H 462.806 0.211234 3.79813 0
M  V30 4910 H 464.118 0.0576503 4.98767 0
M  V30 4911 H 463.272 -2.20207 5.65326 0
M  V30 4912 H 462.011 -2.12327 4.39054 0
M  V30 4913 H 461.016 -0.101388 5.49707 0
M  V30 4914 H 462.241 -0.199911 6.78806 0
M  V30 4915 H 460.187 -2.3443 6.12682 0
M  V30 4916 H 460.104 -1.23759 7.45801 0
M  V30 4917 H 461.372 -2.4257 7.40797 0
M  V30 4918 N 465.601 -1.54893 0.290851 0
M  V30 4919 C 466.826 -2.04804 -0.32712 0
M  V30 4920 C 467.251 -1.16721 -1.47506 0
M  V30 4921 O 466.609 -0.169107 -1.8051 0
M  V30 4922 C 466.657 -3.52268 -0.770689 0
M  V30 4923 O 465.761 -3.67236 -1.87647 0
M  V30 4924 H 465.102 -0.660789 -0.0652227 0
M  V30 4925 H 467.632 -2.00036 0.429739 0
M  V30 4926 H 467.642 -3.9393 -1.06223 0
M  V30 4927 H 466.317 -4.15843 0.069096 0
M  V30 4928 H 464.894 -3.37479 -1.58626 0
M  V30 4929 N 467.08 -0.0183926 -1.57589 0
M  V30 4930 C 468.305 0.676634 -1.96052 0
M  V30 4931 C 468.73 1.6548 -0.894307 0
M  V30 4932 O 468.088 1.80712 0.145849 0
M  V30 4933 C 468.136 1.36872 -3.33614 0
M  V30 4934 O 467.24 2.48372 -3.29219 0
M  V30 4935 H 466.581 0.1786 -0.63953 0
M  V30 4936 H 469.111 -0.077056 -2.04455 0
M  V30 4937 H 469.121 1.72797 -3.69601 0
M  V30 4938 H 467.796 0.651636 -4.10763 0
M  V30 4939 H 466.373 2.14639 -3.04934 0
M  V30 4940 N 468.558 1.5553 0.254621 0
M  V30 4941 C 469.807 1.76202 0.981612 0
M  V30 4942 C 470.12 0.580883 1.86776 0
M  V30 4943 O 471.326 0.670448 2.63092 0
M  V30 4944 C 469.782 3.11921 1.79537 0
M  V30 4945 C 469.39 4.37659 0.956991 0
M  V30 4946 C 471.134 3.41936 2.51555 0
M  V30 4947 C 469.041 5.64411 1.76619 0
M  V30 4948 H 467.971 0.656841 0.370237 0
M  V30 4949 H 470.622 1.81969 0.236556 0
M  V30 4950 H 469.004 3.00241 2.58208 0
M  V30 4951 H 470.178 4.60307 0.21315 0
M  V30 4952 H 468.493 4.14922 0.350497 0
M  V30 4953 H 471.09 4.33849 3.12536 0
M  V30 4954 H 471.433 2.62905 3.22779 0
M  V30 4955 H 471.966 3.54797 1.799 0
M  V30 4956 H 468.705 6.46241 1.09783 0
M  V30 4957 H 468.225 5.45877 2.48551 0
M  V30 4958 H 469.904 6.03386 2.33527 0
M  V30 4959 N 470.036 -0.519951 1.48776 0
M  V30 4960 C 470.999 -1.60574 1.6355 0
M  V30 4961 C 471.999 -1.52557 0.508234 0
M  V30 4962 O 473.189 -1.56047 0.774262 0
M  V30 4963 C 470.321 -3.00211 1.61512 0
M  V30 4964 H 471.514 -1.4881 2.60376 0
M  V30 4965 H 469.067 -0.742772 1.37523 0
M  V30 4966 H 469.802 -3.17471 0.662009 0
M  V30 4967 H 469.587 -3.07439 2.43359 0
M  V30 4968 H 471.077 -3.79134 1.75064 0
M  V30 4969 N 471.514 -1.37532 -0.769588 0
M  V30 4970 C 472.762 -1.32597 -1.5252 0
M  V30 4971 C 473.083 0.0884294 -1.94799 0
M  V30 4972 O 472.353 1.03289 -1.66458 0
M  V30 4973 H 470.933 -0.487846 -0.565699 0
M  V30 4974 H 473.595 -1.72044 -0.915806 0
M  V30 4975 H 472.691 -1.96643 -2.42359 0
M  V30 4976 N 472.992 0.995999 -1.22138 0
M  V30 4977 C 474.217 1.77601 -1.0711 0
M  V30 4978 C 474.642 1.84339 0.374264 0
M  V30 4979 O 474 1.29359 1.27028 0
M  V30 4980 C 474.048 3.18897 -1.68336 0
M  V30 4981 O 473.152 4.01663 -0.934928 0
M  V30 4982 H 472.493 0.547011 -0.376397 0
M  V30 4983 H 475.023 1.25137 -1.6187 0
M  V30 4984 H 475.033 3.69539 -1.72931 0
M  V30 4985 H 473.708 3.13308 -2.73516 0
M  V30 4986 H 472.285 3.60204 -0.964751 0
M  V30 4987 N 474.47 1.03057 1.19235 0
M  V30 4988 C 475.695 0.74757 1.93458 0
M  V30 4989 C 476.12 -0.687648 1.7508 0
M  V30 4990 O 475.478 -1.47499 1.05422 0
M  V30 4991 C 475.526 1.10604 3.43219 0
M  V30 4992 O 474.63 0.225671 4.11782 0
M  V30 4993 H 473.971 0.276047 0.603899 0
M  V30 4994 H 476.501 1.3777 1.51263 0
M  V30 4995 H 476.511 1.06366 3.93891 0
M  V30 4996 H 475.186 2.15165 3.55917 0
M  V30 4997 H 473.763 0.326795 3.71465 0
M  V30 4998 N 475.948 -1.35272 0.808662 0
M  V30 4999 C 477.176 -2.02946 0.402537 0
M  V30 5000 C 477.591 -1.60937 -0.987147 0
M  V30 5001 O 476.948 -0.807917 -1.63643 0
M  V30 5002 C 476.999 -3.58317 0.47868 0
M  V30 5003 O 476.72 -3.98799 1.81358 0
M  V30 5004 C 478.221 -4.43251 0.0656281 0
M  V30 5005 H 475.441 -0.650831 0.163279 0
M  V30 5006 H 477.985 -1.72849 1.09286 0
M  V30 5007 H 476.14 -3.87055 -0.163415 0
M  V30 5008 H 476.554 -4.93451 1.77781 0
M  V30 5009 H 478.028 -5.51738 0.170017 0
M  V30 5010 H 478.505 -4.27913 -0.989278 0
M  V30 5011 H 479.111 -4.19813 0.68096 0
M  V30 5012 N 477.426 -0.562348 -1.47226 0
M  V30 5013 C 478.672 -0.0485293 -2.03342 0
M  V30 5014 C 479.027 1.28898 -1.42839 0
M  V30 5015 O 478.32 1.82719 -0.576563 0
M  V30 5016 C 478.514 0.0969817 -3.57268 0
M  V30 5017 C 478.343 -1.22487 -4.32697 0
M  V30 5018 C 477.113 -1.79357 -4.72397 0
M  V30 5019 C 479.311 -2.14332 -4.67511 0
M  V30 5020 N 477.293 -3.05493 -5.32491 0
M  V30 5021 C 478.664 -3.25049 -5.27961 0
M  V30 5022 C 480.719 -2.14263 -4.4944 0
M  V30 5023 C 479.422 -4.35804 -5.72248 0
M  V30 5024 C 481.448 -3.24033 -4.94729 0
M  V30 5025 C 480.81 -4.3347 -5.55233 0
M  V30 5026 H 476.909 -0.0600464 -0.779691 0
M  V30 5027 H 479.493 -0.750769 -1.79643 0
M  V30 5028 H 477.664 0.768353 -3.80724 0
M  V30 5029 H 479.396 0.613333 -4.00025 0
M  V30 5030 H 476.151 -1.33093 -4.54514 0
M  V30 5031 H 476.575 -3.698 -5.67077 0
M  V30 5032 H 481.217 -1.30935 -4.02015 0
M  V30 5033 H 478.935 -5.19888 -6.18661 0
M  V30 5034 H 482.521 -3.25073 -4.82513 0
M  V30 5035 H 481.401 -5.17008 -5.89638 0
M  V30 5036 N 478.904 1.54736 -0.299062 0
M  V30 5037 C 479.814 2.27127 0.587413 0
M  V30 5038 C 480.83 1.30575 1.15005 0
M  V30 5039 O 482.006 1.63554 1.17525 0
M  V30 5040 C 479.071 2.99645 1.74395 0
M  V30 5041 C 478.132 4.11731 1.21559 0
M  V30 5042 C 477.365 4.80781 2.317 0
M  V30 5043 O 477.588 4.4918 3.51558 0
M  V30 5044 O 476.522 5.68226 1.98501 0
M  V30 5045 H 480.348 3.037 0.000250109 0
M  V30 5046 H 477.933 1.49256 -0.0655919 0
M  V30 5047 H 479.815 3.45138 2.4178 0
M  V30 5048 H 478.49 2.25969 2.31775 0
M  V30 5049 H 477.397 3.70641 0.507514 0
M  V30 5050 H 478.73 4.87379 0.687233 0
M  V30 5051 N 480.382 0.0267497 1.57577 0
M  V30 5052 C 481.798 -0.32962 1.56159 0
M  V30 5053 C 481.998 -1.73059 1.03213 0
M  V30 5054 O 481.054 -2.43233 0.677804 0
M  V30 5055 C 482.367 -0.18039 3.00158 0
M  V30 5056 C 483.915 -0.253334 3.11973 0
M  V30 5057 C 484.39 -0.132921 4.57807 0
M  V30 5058 N 485.881 -0.189979 4.6281 0
M  V30 5059 C 486.616 -0.120554 5.73273 0
M  V30 5060 N 486.112 -0.000180315 6.928 0
M  V30 5061 N 487.905 -0.174369 5.61829 0
M  V30 5062 H 480.056 0.942896 1.90324 0
M  V30 5063 H 482.319 0.3639 0.875375 0
M  V30 5064 H 482.025 0.784576 3.42837 0
M  V30 5065 H 481.899 -0.951565 3.65 0
M  V30 5066 H 484.286 -1.20876 2.69208 0
M  V30 5067 H 484.367 0.548177 2.49857 0
M  V30 5068 H 484.011 0.819073 5.01252 0
M  V30 5069 H 483.941 -0.953264 5.179 0
M  V30 5070 H 486.432 -0.283257 3.76837 0
M  V30 5071 H 486.745 0.0461666 7.72786 0
M  V30 5072 H 485.09 0.034569 6.94991 0
M  V30 5073 H 488.281 -0.266794 4.67339 0
M  V30 5074 H 488.454 -0.116802 6.47895 0
M  V30 5075 N 481.861 -1.55662 -0.24637 0
M  V30 5076 C 483.091 -1.81312 -0.990438 0
M  V30 5077 C 483.499 -0.600234 -1.79426 0
M  V30 5078 O 482.842 0.440537 -1.78339 0
M  V30 5079 C 482.904 -3.0032 -1.97607 0
M  V30 5080 C 482.568 -4.36322 -1.35912 0
M  V30 5081 C 483.565 -5.14295 -0.761348 0
M  V30 5082 C 481.25 -4.83019 -1.37833 0
M  V30 5083 C 483.244 -6.37114 -0.190998 0
M  V30 5084 C 480.931 -6.05786 -0.804128 0
M  V30 5085 C 481.929 -6.82672 -0.211489 0
M  V30 5086 O 481.617 -8.03121 0.353845 0
M  V30 5087 H 481.349 -0.607233 -0.297058 0
M  V30 5088 H 483.903 -2.0356 -0.274351 0
M  V30 5089 H 482.133 -2.73829 -2.73047 0
M  V30 5090 H 483.822 -3.13057 -2.58361 0
M  V30 5091 H 484.588 -4.79337 -0.739013 0
M  V30 5092 H 480.467 -4.23165 -1.829 0
M  V30 5093 H 484.011 -6.97069 0.272206 0
M  V30 5094 H 479.908 -6.40222 -0.823792 0
M  V30 5095 H 480.676 -8.18131 0.245761 0
M  V30 5096 N 483.339 0.512053 -1.4905 0
M  V30 5097 C 484.586 1.26686 -1.57978 0
M  V30 5098 C 484.914 1.92733 -0.261553 0
M  V30 5099 O 484.169 1.80772 0.749667 0
M  V30 5100 C 484.468 2.36446 -2.68008 0
M  V30 5101 C 484.134 1.87932 -4.09869 0
M  V30 5102 C 482.796 1.74419 -4.48477 0
M  V30 5103 C 485.148 1.5149 -4.98698 0
M  V30 5104 C 482.476 1.22827 -5.73699 0
M  V30 5105 C 484.828 1.01355 -6.24428 0
M  V30 5106 C 483.492 0.864735 -6.61875 0
M  V30 5107 H 482.762 0.463577 -0.578081 0
M  V30 5108 H 485.409 0.569421 -1.82838 0
M  V30 5109 H 483.714 3.11933 -2.37076 0
M  V30 5110 H 485.411 2.9453 -2.72127 0
M  V30 5111 H 482.001 1.99405 -3.79389 0
M  V30 5112 H 486.185 1.60782 -4.69535 0
M  V30 5113 H 481.441 1.10008 -6.01422 0
M  V30 5114 H 485.615 0.722351 -6.92644 0
M  V30 5115 H 483.242 0.462777 -7.5879 0
M  V30 5116 N 484.817 1.37938 0.762283 0
M  V30 5117 C 486.066 1.32989 1.51647 0
M  V30 5118 C 486.379 -0.0802922 1.95435 0
M  V30 5119 O 487.585 -0.252295 2.70325 0
M  V30 5120 C 486.041 2.33485 2.73885 0
M  V30 5121 C 485.649 3.80079 2.37157 0
M  V30 5122 C 487.393 2.37563 3.51801 0
M  V30 5123 C 485.3 4.72283 3.55954 0
M  V30 5124 H 484.23 0.494301 0.56937 0
M  V30 5125 H 486.881 1.63448 0.834083 0
M  V30 5126 H 485.263 1.96056 3.44061 0
M  V30 5127 H 486.437 4.26398 1.74704 0
M  V30 5128 H 484.752 3.79037 1.72395 0
M  V30 5129 H 487.349 3.0365 4.40114 0
M  V30 5130 H 487.692 1.39199 3.92338 0
M  V30 5131 H 488.225 2.73747 2.8863 0
M  V30 5132 H 484.964 5.7181 3.2049 0
M  V30 5133 H 484.484 4.30663 4.1748 0
M  V30 5134 H 486.163 4.89876 4.22647 0
M  V30 5135 N 486.295 -0.989507 1.22664 0
M  V30 5136 C 487.706 -1.54406 1.04955 0
M  V30 5137 C 488.057 -1.92366 -0.385951 0
M  V30 5138 O 487.182 -1.75111 -1.27142 0
M  V30 5139 C 487.777 -2.80578 1.89899 0
M  V30 5140 C 486.336 -3.32464 1.76478 0
M  V30 5141 C 485.483 -2.05524 1.86159 0
M  V30 5142 H 488.434 -0.810211 1.3646 0
M  V30 5143 H 488.455 -3.53075 1.4184 0
M  V30 5144 H 487.967 -2.52918 2.94371 0
M  V30 5145 H 486.068 -3.65024 0.747528 0
M  V30 5146 H 486.181 -4.02838 2.59342 0
M  V30 5147 H 484.545 -2.19241 1.29636 0
M  V30 5148 H 485.328 -1.80258 2.92168 0
M  V30 5149 N 487.773 -1.03688 -1.18687 0
M  V30 5150 C 489.019 -0.739123 -1.88851 0
M  V30 5151 C 489.352 0.731042 -1.79915 0
M  V30 5152 O 488.627 1.53313 -1.19688 0
M  V30 5153 C 488.91 -1.20106 -3.3948 0
M  V30 5154 C 488.763 -2.73304 -3.57246 0
M  V30 5155 C 490.082 -0.788134 -4.32986 0
M  V30 5156 H 487.201 -0.269978 -0.68577 0
M  V30 5157 H 489.843 -1.28822 -1.3966 0
M  V30 5158 H 487.993 -0.733915 -3.81505 0
M  V30 5159 H 489.665 -3.28027 -3.24339 0
M  V30 5160 H 487.908 -3.13313 -3.00029 0
M  V30 5161 H 488.579 -3.00684 -4.62918 0
M  V30 5162 H 491.055 -1.19005 -3.98719 0
M  V30 5163 H 489.931 -1.13915 -5.36949 0
M  V30 5164 H 490.192 0.308988 -4.41019 0
M  V30 5165 N 489.251 1.34841 -0.815825 0
M  V30 5166 C 490.476 2.03261 -0.41226 0
M  V30 5167 C 490.901 1.61055 0.971751 0
M  V30 5168 O 490.259 0.7917 1.63101 0
M  V30 5169 C 490.307 3.56914 -0.514289 0
M  V30 5170 O 489.411 4.09728 0.468675 0
M  V30 5171 H 488.752 0.641664 -0.170771 0
M  V30 5172 H 491.282 1.72241 -1.10427 0
M  V30 5173 H 491.292 4.06156 -0.387457 0
M  V30 5174 H 489.967 3.86982 -1.52375 0
M  V30 5175 H 488.544 3.71681 0.301316 0
M  V30 5176 N 490.729 0.570148 1.46925 0
M  V30 5177 C 491.969 0.0534743 2.0433 0
M  V30 5178 C 492.333 -1.27729 1.4335 0
M  V30 5179 O 493.534 -1.88244 1.91879 0
M  V30 5180 C 491.805 -0.0244296 3.57392 0
M  V30 5181 S 493.364 -0.485351 4.36108 0
M  V30 5182 H 490.182 0.0313908 0.710307 0
M  V30 5183 H 492.784 0.759808 1.80131 0
M  V30 5184 H 491.488 0.948261 3.99295 0
M  V30 5185 H 491.019 -0.753922 3.86108 0
M  V30 5186 H 493.034 -1.74258 4.64595 0
M  V30 5187 N 492.207 -1.54576 0.307264 0
M  V30 5188 C 493.454 -2.00263 -0.300167 0
M  V30 5189 C 493.782 -1.19561 -1.53413 0
M  V30 5190 O 493.037 -0.261487 -1.93945 0
M  V30 5191 C 493.336 -3.50572 -0.695253 0
M  V30 5192 C 493.002 -4.48771 0.437679 0
M  V30 5193 C 491.664 -4.7534 0.748681 0
M  V30 5194 C 494.016 -5.0721 1.19949 0
M  V30 5195 C 491.344 -5.5761 1.8245 0
M  V30 5196 C 493.696 -5.90651 2.26527 0
M  V30 5197 C 492.36 -6.15528 2.58227 0
M  V30 5198 H 491.63 -0.732814 -0.109839 0
M  V30 5199 H 494.277 -1.86664 0.427661 0
M  V30 5200 H 492.582 -3.61814 -1.50326 0
M  V30 5201 H 494.279 -3.83352 -1.17653 0
M  V30 5202 H 490.869 -4.282 0.185187 0
M  V30 5203 H 495.053 -4.86679 0.972474 0
M  V30 5204 H 490.309 -5.75121 2.07476 0
M  V30 5205 H 494.483 -6.34957 2.86011 0
M  V30 5206 H 492.11 -6.79066 3.4172 0
M  V30 5207 N 493.685 -0.035106 -1.57561 0
M  V30 5208 C 494.615 0.942993 -2.13612 0
M  V30 5209 C 495.596 1.33531 -1.05373 0
M  V30 5210 O 496.781 1.41287 -1.33235 0
M  V30 5211 C 493.911 2.22332 -2.66807 0
M  V30 5212 C 492.865 1.97156 -3.79886 0
M  V30 5213 C 492.191 3.31506 -4.19533 0
M  V30 5214 C 493.491 1.30596 -5.05709 0
M  V30 5215 H 495.185 0.476179 -2.95589 0
M  V30 5216 H 492.731 0.227602 -1.4219 0
M  V30 5217 H 494.684 2.91142 -3.04654 0
M  V30 5218 H 493.408 2.7119 -1.81999 0
M  V30 5219 H 492.067 1.30763 -3.42486 0
M  V30 5220 H 491.715 3.78134 -3.31698 0
M  V30 5221 H 491.415 3.15465 -4.95738 0
M  V30 5222 H 492.939 4.01574 -4.59968 0
M  V30 5223 H 494.353 1.89416 -5.41105 0
M  V30 5224 H 492.75 1.24934 -5.86951 0
M  V30 5225 H 493.82 0.279742 -4.84092 0
M  V30 5226 N 495.163 1.55791 0.238111 0
M  V30 5227 C 496.391 1.82098 0.982233 0
M  V30 5228 C 496.806 0.612025 1.78605 0
M  V30 5229 O 496.163 -0.419381 1.77616 0
M  V30 5230 C 496.214 3.0673 1.91309 0
M  V30 5231 O 495.935 4.2296 1.14179 0
M  V30 5232 C 497.436 3.45903 2.77248 0
M  V30 5233 H 494.656 0.605748 0.288635 0
M  V30 5234 H 497.2 2.02862 0.258341 0
M  V30 5235 H 495.355 2.87991 2.59114 0
M  V30 5236 H 495.769 4.93653 1.7722 0
M  V30 5237 H 497.243 4.36189 3.38295 0
M  V30 5238 H 497.72 2.66891 3.48806 0
M  V30 5239 H 498.326 3.67024 2.14881 0
M  V30 5240 N 496.642 -0.504142 1.49319 0
M  V30 5241 C 497.889 -1.25846 1.58647 0
M  V30 5242 C 498.217 -1.92592 0.27177 0
M  V30 5243 O 497.472 -1.81167 -0.74007 0
M  V30 5244 C 497.771 -2.35021 2.69258 0
M  V30 5245 C 497.437 -1.85755 4.1086 0
M  V30 5246 C 496.099 -1.72038 4.49395 0
M  V30 5247 C 498.451 -1.48844 4.99495 0
M  V30 5248 C 495.779 -1.19783 5.74342 0
M  V30 5249 C 498.131 -0.980422 6.24956 0
M  V30 5250 C 496.795 -0.829622 6.62324 0
M  V30 5251 H 496.065 -0.460505 0.580531 0
M  V30 5252 H 498.712 -0.559716 1.83138 0
M  V30 5253 H 497.017 -3.10672 2.38726 0
M  V30 5254 H 498.714 -2.93083 2.73685 0
M  V30 5255 H 495.304 -1.9739 3.80441 0
M  V30 5256 H 499.488 -1.5829 4.70381 0
M  V30 5257 H 494.744 -1.06817 6.01997 0
M  V30 5258 H 498.918 -0.685608 6.93017 0
M  V30 5259 H 496.545 -0.42253 7.59025 0
M  V30 5260 N 498.12 -1.38341 -0.754957 0
M  V30 5261 C 499.068 -1.35573 -1.89005 0
M  V30 5262 C 500.062 -0.241824 -1.67665 0
M  V30 5263 O 501.268 -0.410785 -1.7525 0
M  V30 5264 H 497.643 -0.422898 -0.621821 0
M  V30 5265 H 499.614 -2.31359 -1.88455 0
M  V30 5266 C 498.363 -1.19631 -3.26471 0
M  V30 5267 H 497.686 -2.04605 -3.43477 0
M  V30 5268 H 499.126 -1.21748 -4.06144 0
M  V30 5269 C 497.585 0.0968705 -3.36761 0
M  V30 5270 O 498.115 1.07439 -3.87066 0
M  V30 5271 N 496.321 0.153242 -2.90196 0
M  V30 5272 H 495.868 -0.642908 -2.49448 0
M  V30 5273 H 495.826 1.01807 -2.9746 0
M  V30 5274 N 499.598 0.982988 -1.23187 0
M  V30 5275 C 500.847 1.71817 -1.05649 0
M  V30 5276 C 501.16 1.91315 0.407176 0
M  V30 5277 O 502.366 2.62256 0.702436 0
M  V30 5278 C 500.822 3.09188 -1.84203 0
M  V30 5279 C 500.43 2.97586 -3.34882 0
M  V30 5280 C 502.174 3.86684 -1.75146 0
M  V30 5281 C 500.081 4.30173 -4.05839 0
M  V30 5282 H 499.011 0.644258 -0.391724 0
M  V30 5283 H 501.662 1.09659 -1.4713 0
M  V30 5284 H 500.044 3.72087 -1.35527 0
M  V30 5285 H 501.218 2.43793 -3.91026 0
M  V30 5286 H 499.533 2.33567 -3.44725 0
M  V30 5287 H 502.13 4.84836 -2.25473 0
M  V30 5288 H 502.473 4.10136 -0.713737 0
M  V30 5289 H 503.006 3.30482 -2.21419 0
M  V30 5290 H 499.745 4.11918 -5.09906 0
M  V30 5291 H 499.265 4.83841 -3.54482 0
M  V30 5292 H 500.944 4.98873 -4.11989 0
M  V30 5293 N 501.076 1.04316 1.18135 0
M  V30 5294 C 502.323 0.74802 1.88178 0
M  V30 5295 C 502.651 -0.72441 1.80506 0
M  V30 5296 O 501.906 -1.54463 1.20165 0
M  V30 5297 C 502.205 1.16271 3.37958 0
M  V30 5298 C 501.871 2.63585 3.65833 0
M  V30 5299 C 500.533 3.03829 3.73151 0
M  V30 5300 C 502.885 3.58822 3.78016 0
M  V30 5301 C 500.213 4.38194 3.90132 0
M  V30 5302 C 502.565 4.92909 3.96514 0
M  V30 5303 C 501.229 5.3282 4.02068 0
M  V30 5304 H 500.499 0.27372 0.688592 0
M  V30 5305 H 503.146 1.30863 1.39811 0
M  V30 5306 H 501.451 0.520938 3.88321 0
M  V30 5307 H 503.148 0.911672 3.90499 0
M  V30 5308 H 499.738 2.31414 3.60757 0
M  V30 5309 H 503.922 3.28875 3.71692 0
M  V30 5310 H 499.178 4.68631 3.92677 0
M  V30 5311 H 503.352 5.66606 4.04883 0
M  V30 5312 H 500.979 6.36943 4.14979 0
M  V30 5313 N 502.554 -1.34406 0.822964 0
M  V30 5314 C 503.831 -1.92733 0.333641 0
M  V30 5315 C 504.211 -1.75107 -1.17901 0
M  V30 5316 O 503.559 -1.12983 -1.98613 0
M  V30 5317 C 503.769 -3.40557 0.763023 0
M  V30 5318 C 505.117 -4.17709 0.761879 0
M  V30 5319 O 506.141 -3.49141 0.705606 0
M  V30 5320 O 505 -5.40082 0.835109 0
M  V30 5321 H 502.094 -0.821964 0.0911249 0
M  V30 5322 H 504.64 -1.4338 0.907757 0
M  V30 5323 H 503.412 -3.47187 1.8049 0
M  V30 5324 H 503.035 -3.97259 0.164605 0
M  V30 5325 N 504.032 -0.577932 -1.46621 0
M  V30 5326 C 505.278 -0.0700937 -2.03279 0
M  V30 5327 C 505.633 1.27376 -1.44198 0
M  V30 5328 O 504.926 1.82097 -0.595911 0
M  V30 5329 C 505.12 0.0590832 -3.57351 0
M  V30 5330 C 504.949 -1.2707 -4.31374 0
M  V30 5331 C 503.719 -1.84357 -4.70469 0
M  V30 5332 C 505.917 -2.19278 -4.65211 0
M  V30 5333 N 503.899 -3.11124 -5.29221 0
M  V30 5334 C 505.27 -3.30631 -5.24484 0
M  V30 5335 C 507.325 -2.19018 -4.47142 0
M  V30 5336 C 506.028 -4.41849 -5.67593 0
M  V30 5337 C 508.054 -3.29262 -4.91264 0
M  V30 5338 C 507.416 -4.39335 -5.50604 0
M  V30 5339 H 503.515 -0.0683127 -0.779011 0
M  V30 5340 H 506.099 -0.76978 -1.78836 0
M  V30 5341 H 504.27 0.727929 -3.81518 0
M  V30 5342 H 506.002 0.57087 -4.00653 0
M  V30 5343 H 502.757 -1.37906 -4.53077 0
M  V30 5344 H 503.181 -3.75794 -5.63123 0
M  V30 5345 H 507.823 -1.35191 -4.00604 0
M  V30 5346 H 505.541 -5.26421 -6.13112 0
M  V30 5347 H 509.127 -3.30172 -4.79038 0
M  V30 5348 H 508.007 -5.23233 -5.84121 0
M  V30 5349 N 505.51 1.54411 -0.315457 0
M  V30 5350 C 506.44 2.27002 0.547039 0
M  V30 5351 C 507.421 1.27492 1.12605 0
M  V30 5352 O 508.606 1.5629 1.15269 0
M  V30 5353 C 505.736 3.02171 1.71201 0
M  V30 5354 C 504.69 4.0895 1.26268 0
M  V30 5355 C 504.016 4.71915 2.51396 0
M  V30 5356 C 505.316 5.20891 0.383419 0
M  V30 5357 H 507.01 2.99343 -0.0584517 0
M  V30 5358 H 504.556 1.4397 -0.0295527 0
M  V30 5359 H 506.509 3.51681 2.32161 0
M  V30 5360 H 505.233 2.27433 2.34397 0
M  V30 5361 H 503.892 3.60312 0.676062 0
M  V30 5362 H 503.54 3.93801 3.12937 0
M  V30 5363 H 503.24 5.44039 2.22026 0
M  V30 5364 H 504.764 5.24195 3.13133 0
M  V30 5365 H 506.178 5.66206 0.899082 0
M  V30 5366 H 504.575 5.99821 0.182857 0
M  V30 5367 H 505.645 4.81324 -0.587821 0
M  V30 5368 N 506.988 0.0434614 1.5754 0
M  V30 5369 C 508.236 -0.630786 1.92004 0
M  V30 5370 C 508.557 -1.71836 0.921807 0
M  V30 5371 O 507.827 -1.9587 -0.034522 0
M  V30 5372 H 506.407 -0.235988 0.708745 0
M  V30 5373 H 509.069 0.0946462 1.9467 0
M  V30 5374 H 508.165 -1.07434 2.93026 0
M  V30 5375 N 508.466 -1.55915 -0.229846 0
M  V30 5376 C 509.882 -1.48721 -0.579166 0
M  V30 5377 C 510.082 -0.736976 -1.87539 0
M  V30 5378 O 509.138 -0.273258 -2.51017 0
M  V30 5379 C 510.451 -2.9323 -0.666082 0
M  V30 5380 C 511.999 -3.03701 -0.757267 0
M  V30 5381 C 512.474 -4.49552 -0.8756 0
M  V30 5382 N 513.965 -4.53561 -0.940035 0
M  V30 5383 C 514.7 -5.63683 -1.05116 0
M  V30 5384 N 514.196 -6.83576 -1.12675 0
M  V30 5385 N 515.989 -5.51516 -1.08565 0
M  V30 5386 H 508.14 -2.03123 0.620857 0
M  V30 5387 H 510.403 -0.922898 0.21671 0
M  V30 5388 H 510.109 -3.51032 0.21664 0
M  V30 5389 H 509.983 -3.44668 -1.53243 0
M  V30 5390 H 512.37 -2.45969 -1.63043 0
M  V30 5391 H 512.451 -2.55446 0.134583 0
M  V30 5392 H 512.095 -5.079 -0.00692351 0
M  V30 5393 H 512.025 -4.95506 -1.78274 0
M  V30 5394 H 514.516 -3.67215 -0.892269 0
M  V30 5395 H 514.829 -7.63251 -1.21109 0
M  V30 5396 H 513.174 -6.86303 -1.09603 0
M  V30 5397 H 516.365 -4.5678 -1.02319 0
M  V30 5398 H 516.538 -6.37372 -1.1688 0
M  V30 5399 N 509.944 0.496216 -1.49584 0
M  V30 5400 C 511.169 1.27865 -1.63295 0
M  V30 5401 C 511.594 1.85592 -0.306156 0
M  V30 5402 O 510.952 1.66092 0.726851 0
M  V30 5403 C 511 2.38128 -2.7079 0
M  V30 5404 O 510.104 3.42108 -2.30296 0
M  V30 5405 H 509.445 0.377279 -0.546403 0
M  V30 5406 H 511.975 0.593497 -1.95803 0
M  V30 5407 H 511.985 2.8382 -2.93104 0
M  V30 5408 H 510.66 1.95479 -3.67098 0
M  V30 5409 H 509.237 3.02301 -2.18331 0
M  V30 5410 N 511.423 1.38739 0.74761 0
M  V30 5411 C 512.353 1.39173 1.87492 0
M  V30 5412 C 513.334 0.256794 1.6815 0
M  V30 5413 O 514.519 0.460762 1.88655 0
M  V30 5414 C 511.649 1.22197 3.25093 0
M  V30 5415 C 510.603 2.32957 3.59047 0
M  V30 5416 C 509.929 2.01082 4.95449 0
M  V30 5417 C 511.229 3.75237 3.6331 0
M  V30 5418 H 512.923 2.3351 1.87386 0
M  V30 5419 H 510.469 1.12399 0.900134 0
M  V30 5420 H 512.422 1.21124 4.03617 0
M  V30 5421 H 511.146 0.243241 3.25693 0
M  V30 5422 H 509.805 2.33226 2.82845 0
M  V30 5423 H 509.453 1.01678 4.92616 0
M  V30 5424 H 509.153 2.75267 5.19136 0
M  V30 5425 H 510.677 2.01638 5.76346 0
M  V30 5426 H 512.091 3.76966 4.31937 0
M  V30 5427 H 510.488 4.48677 3.98509 0
M  V30 5428 H 511.558 4.07122 2.634 0
M  V30 5429 N 512.901 -0.976442 1.23707 0
M  V30 5430 C 514.129 -1.75341 1.09833 0
M  V30 5431 C 514.544 -1.8553 -0.349885 0
M  V30 5432 O 513.901 -1.33732 -1.24185 0
M  V30 5433 C 513.952 -3.17833 1.72233 0
M  V30 5434 O 513.673 -3.08167 3.11391 0
M  V30 5435 C 515.174 -4.11906 1.63853 0
M  V30 5436 H 512.394 -0.550137 0.384175 0
M  V30 5437 H 514.938 -1.2265 1.63638 0
M  V30 5438 H 513.093 -3.67538 1.22452 0
M  V30 5439 H 513.507 -3.97897 3.41729 0
M  V30 5440 H 514.981 -5.09579 2.12211 0
M  V30 5441 H 515.458 -4.35109 0.598092 0
M  V30 5442 H 516.064 -3.68107 2.13019 0
M  V30 5443 N 514.379 -1.04941 -1.1758 0
M  V30 5444 C 515.342 -0.652456 -2.19717 0
M  V30 5445 C 516.342 0.294745 -1.58076 0
M  V30 5446 O 517.532 0.0789579 -1.74021 0
M  V30 5447 C 514.664 0.0420712 -3.40874 0
M  V30 5448 H 515.857 -1.55642 -2.5635 0
M  V30 5449 H 513.41 -0.842995 -1.31618 0
M  V30 5450 H 514.145 0.95943 -3.09783 0
M  V30 5451 H 513.93 -0.638844 -3.86861 0
M  V30 5452 H 515.42 0.306 -4.16477 0
M  V30 5453 N 515.857 1.33968 -0.830081 0
M  V30 5454 C 517.103 1.98357 -0.422191 0
M  V30 5455 C 517.436 1.65633 1.01387 0
M  V30 5456 O 516.711 0.931648 1.70735 0
M  V30 5457 C 516.994 3.54492 -0.633043 0
M  V30 5458 C 516.847 3.96934 -2.11574 0
M  V30 5459 C 518.166 4.40039 -0.0735584 0
M  V30 5460 H 515.285 0.720544 -0.154871 0
M  V30 5461 H 517.927 1.58749 -1.04397 0
M  V30 5462 H 516.077 3.88361 -0.103775 0
M  V30 5463 H 517.749 3.73363 -2.7092 0
M  V30 5464 H 515.992 3.46984 -2.60354 0
M  V30 5465 H 516.663 5.05651 -2.21406 0
M  V30 5466 H 519.139 4.12764 -0.52585 0
M  V30 5467 H 518.015 5.48327 -0.250841 0
M  V30 5468 H 518.276 4.30124 1.02202 0
M  V30 5469 N 517.335 0.585699 1.46312 0
M  V30 5470 C 518.582 0.0724211 2.0237 0
M  V30 5471 C 518.91 -1.28868 1.45683 0
M  V30 5472 O 518.165 -1.85853 0.612945 0
M  V30 5473 C 518.464 -0.0401312 3.57377 0
M  V30 5474 C 518.13 1.25376 4.33119 0
M  V30 5475 C 516.792 1.60824 4.5353 0
M  V30 5476 C 519.144 2.10987 4.76586 0
M  V30 5477 C 516.472 2.81676 5.14661 0
M  V30 5478 C 518.824 3.31068 5.39052 0
M  V30 5479 C 517.488 3.66794 5.5769 0
M  V30 5480 H 516.758 0.0265007 0.740526 0
M  V30 5481 H 519.405 0.762935 1.75646 0
M  V30 5482 H 517.71 -0.813791 3.83255 0
M  V30 5483 H 519.407 -0.453078 3.98432 0
M  V30 5484 H 515.997 0.967808 4.1753 0
M  V30 5485 H 520.181 1.84904 4.60569 0
M  V30 5486 H 515.437 3.0949 5.27282 0
M  V30 5487 H 519.611 3.97672 5.71691 0
M  V30 5488 H 517.238 4.60529 6.04828 0
M  V30 5489 N 518.813 -1.54241 0.323641 0
M  V30 5490 C 519.746 -2.20579 -0.584833 0
M  V30 5491 C 520.724 -1.18286 -1.11567 0
M  V30 5492 O 521.908 -1.47025 -1.17966 0
M  V30 5493 C 519.035 -2.86754 -1.80249 0
M  V30 5494 C 518.081 -4.02767 -1.4029 0
M  V30 5495 S 518.914 -5.33693 -0.439539 0
M  V30 5496 C 520.07 -6.03362 -1.66448 0
M  V30 5497 H 520.303 -2.97292 -0.0213238 0
M  V30 5498 H 517.836 -1.54024 0.107726 0
M  V30 5499 H 519.794 -3.25503 -2.50116 0
M  V30 5500 H 518.455 -2.09844 -2.33719 0
M  V30 5501 H 517.648 -4.47933 -2.31024 0
M  V30 5502 H 517.25 -3.65692 -0.783928 0
M  V30 5503 H 519.542 -6.25546 -2.6019 0
M  V30 5504 H 520.485 -6.9689 -1.25498 0
M  V30 5505 H 520.893 -5.33273 -1.85149 0
M  V30 5506 N 520.291 -0.0518155 -1.57515 0
M  V30 5507 C 521.537 0.616839 -1.93821 0
M  V30 5508 C 521.892 1.68413 -0.930307 0
M  V30 5509 O 521.185 1.91534 0.0504231 0
M  V30 5510 C 521.379 1.25607 -3.34601 0
M  V30 5511 C 521.208 0.252222 -4.48992 0
M  V30 5512 C 519.978 -0.156031 -5.05059 0
M  V30 5513 C 522.176 -0.502613 -5.11838 0
M  V30 5514 N 520.158 -1.15267 -6.02981 0
M  V30 5515 C 521.529 -1.35232 -6.05072 0
M  V30 5516 C 523.584 -0.560855 -4.94731 0
M  V30 5517 C 522.287 -2.25505 -6.83037 0
M  V30 5518 C 524.313 -1.45102 -5.73323 0
M  V30 5519 C 523.675 -2.28845 -6.6619 0
M  V30 5520 H 519.774 0.197344 -0.75669 0
M  V30 5521 H 522.358 -0.124297 -1.94303 0
M  V30 5522 H 520.529 1.96723 -3.34895 0
M  V30 5523 H 522.261 1.88358 -3.58195 0
M  V30 5524 H 519.016 0.22306 -4.73074 0
M  V30 5525 H 519.44 -1.64791 -6.56638 0
M  V30 5526 H 524.082 0.0723639 -4.22738 0
M  V30 5527 H 521.8 -2.89872 -7.54321 0
M  V30 5528 H 525.386 -1.50066 -5.62113 0
M  V30 5529 H 524.266 -2.96608 -7.25943 0
M  V30 5530 N 521.769 1.56035 0.221574 0
M  V30 5531 C 523.18 1.69229 0.788567 0
M  V30 5532 C 523.531 0.653814 1.84986 0
M  V30 5533 O 522.656 -0.195065 2.15519 0
M  V30 5534 C 523.251 3.06809 1.43713 0
M  V30 5535 C 521.81 3.21858 1.95152 0
M  V30 5536 C 520.957 2.65155 0.811685 0
M  V30 5537 H 523.908 1.587 -0.00307894 0
M  V30 5538 H 523.929 3.02666 2.30594 0
M  V30 5539 H 523.441 3.82369 0.664475 0
M  V30 5540 H 521.542 2.51167 2.7522 0
M  V30 5541 H 521.655 4.29073 2.1315 0
M  V30 5542 H 520.019 2.23635 1.21899 0
M  V30 5543 H 520.802 3.43261 0.0516987 0
M  V30 5544 N 523.247 -0.488276 1.49845 0
M  V30 5545 C 524.495 -1.23911 1.59657 0
M  V30 5546 C 524.816 -1.92816 0.291005 0
M  V30 5547 O 524.086 -1.83328 -0.690485 0
M  V30 5548 H 522.666 -0.460357 0.588286 0
M  V30 5549 H 525.328 -0.564794 1.86537 0
M  V30 5550 H 524.424 -1.99625 2.39909 0
M  V30 5551 N 524.725 -1.39134 -0.740242 0
M  V30 5552 C 525.672 -1.37434 -1.8542 0
M  V30 5553 C 526.642 -0.234822 -1.64432 0
M  V30 5554 O 527.827 -0.429125 -1.85912 0
M  V30 5555 C 524.967 -1.21844 -3.22875 0
M  V30 5556 C 524.08 -2.45296 -3.55603 0
M  V30 5557 C 523.215 -2.22334 -4.82432 0
M  V30 5558 C 522.254 -3.41488 -5.07988 0
M  V30 5559 N 521.391 -3.17877 -6.26018 0
M  V30 5560 H 526.231 -2.3266 -1.86207 0
M  V30 5561 H 523.768 -1.15578 -0.909946 0
M  V30 5562 H 525.726 -1.10818 -4.02213 0
M  V30 5563 H 524.356 -0.3025 -3.21379 0
M  V30 5564 H 523.408 -2.66945 -2.71006 0
M  V30 5565 H 524.72 -3.34063 -3.7041 0
M  V30 5566 H 523.874 -2.0852 -5.69741 0
M  V30 5567 H 522.613 -1.30954 -4.6979 0
M  V30 5568 H 521.618 -3.55807 -4.19144 0
M  V30 5569 H 522.843 -4.33763 -5.22519 0
M  V30 5570 H 520.789 -2.29156 -6.14673 0
M  V30 5571 H 520.706 -4.00198 -6.41387 0
M  V30 5572 H 521.974 -3.07746 -7.16179 0
M  V30 5573 N 526.204 0.969867 -1.24223 0
M  V30 5574 C 527.481 1.68774 -0.988664 0
M  V30 5575 C 527.861 2.05342 0.489673 0
M  V30 5576 O 527.209 1.75486 1.46345 0
M  V30 5577 C 527.419 2.92135 -1.90941 0
M  V30 5578 C 528.767 3.64422 -2.17903 0
M  V30 5579 O 529.791 3.02188 -1.88576 0
M  V30 5580 O 528.65 4.76446 -2.67697 0
M  V30 5581 H 525.744 0.737736 -0.37373 0
M  V30 5582 H 528.29 1.02415 -1.35312 0
M  V30 5583 H 527.062 2.61788 -2.90831 0
M  V30 5584 H 526.685 3.66228 -1.54798 0
M  V30 5585 N 527.682 1.05563 1.17022 0
M  V30 5586 C 528.907 0.788437 1.91829 0
M  V30 5587 C 529.332 -0.650356 1.76499 0
M  V30 5588 O 528.69 -1.45229 1.08527 0
M  V30 5589 C 528.738 1.1786 3.40795 0
M  V30 5590 O 527.842 0.312965 4.11211 0
M  V30 5591 H 527.183 0.288794 0.597908 0
M  V30 5592 H 529.713 1.40948 1.48307 0
M  V30 5593 H 529.723 1.14697 3.91546 0
M  V30 5594 H 528.398 2.22666 3.51273 0
M  V30 5595 H 526.975 0.405515 3.70689 0
M  V30 5596 N 529.16 -1.33526 0.837174 0
M  V30 5597 C 530.576 -1.50727 0.524743 0
M  V30 5598 C 530.776 -1.77792 -0.948279 0
M  V30 5599 O 529.832 -1.83719 -1.73216 0
M  V30 5600 C 531.145 -2.66299 1.39661 0
M  V30 5601 C 532.693 -2.80183 1.39521 0
M  V30 5602 C 533.168 -3.98815 2.25189 0
M  V30 5603 N 534.659 -4.06047 2.2289 0
M  V30 5604 C 535.394 -4.97032 2.85915 0
M  V30 5605 N 534.89 -5.93143 3.57985 0
M  V30 5606 N 536.683 -4.90015 2.75394 0
M  V30 5607 H 528.834 -1.1422 1.79074 0
M  V30 5608 H 531.097 -0.561399 0.763894 0
M  V30 5609 H 530.803 -2.52974 2.4433 0
M  V30 5610 H 530.677 -3.61663 1.07145 0
M  V30 5611 H 533.064 -2.92942 0.356253 0
M  V30 5612 H 533.145 -1.85586 1.76044 0
M  V30 5613 H 532.789 -3.86817 3.29143 0
M  V30 5614 H 532.719 -4.92654 1.86009 0
M  V30 5615 H 535.21 -3.37262 1.70478 0
M  V30 5616 H 535.523 -6.59227 4.03286 0
M  V30 5617 H 533.868 -5.93223 3.62093 0
M  V30 5618 H 537.059 -4.13894 2.18654 0
M  V30 5619 H 537.232 -5.60724 3.24796 0
M  V30 5620 N 530.638 -0.59345 -1.46 0
M  V30 5621 C 531.884 -0.0916503 -2.03193 0
M  V30 5622 C 532.239 1.25839 -1.45541 0
M  V30 5623 O 531.532 1.81455 -0.615191 0
M  V30 5624 C 531.726 0.021178 -3.57394 0
M  V30 5625 C 531.555 -1.31638 -4.30002 0
M  V30 5626 C 530.325 -1.89336 -4.68487 0
M  V30 5627 C 532.523 -2.242 -4.62859 0
M  V30 5628 N 530.505 -3.1672 -5.25891 0
M  V30 5629 C 531.876 -3.36175 -5.20948 0
M  V30 5630 C 533.931 -2.23748 -4.44794 0
M  V30 5631 C 532.634 -4.47844 -5.62875 0
M  V30 5632 C 534.66 -3.34454 -4.87744 0
M  V30 5633 C 534.022 -4.4515 -5.45913 0
M  V30 5634 H 530.121 -0.0765713 -0.778242 0
M  V30 5635 H 532.705 -0.788705 -1.7801 0
M  V30 5636 H 530.876 0.687423 -3.82268 0
M  V30 5637 H 532.608 0.528343 -4.01236 0
M  V30 5638 H 529.363 -1.42704 -4.51589 0
M  V30 5639 H 529.787 -3.81746 -5.59106 0
M  V30 5640 H 534.429 -1.39433 -3.99147 0
M  V30 5641 H 532.147 -5.32894 -6.07495 0
M  V30 5642 H 535.733 -3.35234 -4.75509 0
M  V30 5643 H 534.613 -5.29398 -5.78539 0
M  V30 5644 N 532.116 1.54067 -0.331816 0
M  V30 5645 C 533.046 2.27569 0.522932 0
M  V30 5646 C 534.027 1.28679 1.11247 0
M  V30 5647 O 535.212 1.57504 1.13605 0
M  V30 5648 C 532.342 3.0397 1.67987 0
M  V30 5649 C 531.296 4.10267 1.21924 0
M  V30 5650 C 530.622 4.74555 2.46377 0
M  V30 5651 C 531.922 5.21268 0.32815 0
M  V30 5652 H 533.616 2.99264 -0.0901977 0
M  V30 5653 H 531.162 1.4393 -0.044821 0
M  V30 5654 H 533.115 3.54123 2.28418 0
M  V30 5655 H 531.839 2.29906 2.31971 0
M  V30 5656 H 530.498 3.61009 0.637809 0
M  V30 5657 H 530.146 3.97098 3.08743 0
M  V30 5658 H 529.846 5.46363 2.16243 0
M  V30 5659 H 531.37 5.27487 3.07555 0
M  V30 5660 H 532.784 5.67128 0.838978 0
M  V30 5661 H 531.181 5.99982 0.119228 0
M  V30 5662 H 532.251 4.80673 -0.638839 0
M  V30 5663 N 533.594 0.0601682 1.57485 0
M  V30 5664 C 535.005 -0.474217 1.80577 0
M  V30 5665 C 535.356 -1.70365 0.973147 0
M  V30 5666 O 534.481 -2.15544 0.192306 0
M  V30 5667 C 535.076 -0.867102 3.27516 0
M  V30 5668 C 533.635 -1.34642 3.51495 0
M  V30 5669 C 532.782 -0.32594 2.75378 0
M  V30 5670 H 535.733 0.285973 1.56102 0
M  V30 5671 H 535.754 -1.72938 3.38929 0
M  V30 5672 H 535.266 0.0278927 3.8809 0
M  V30 5673 H 533.367 -2.2603 2.96212 0
M  V30 5674 H 533.48 -1.33237 4.60201 0
M  V30 5675 H 531.844 -0.800749 2.41785 0
M  V30 5676 H 532.627 0.561125 3.38683 0
M  V30 5677 N 535.072 -1.5615 -0.213296 0
M  V30 5678 C 536.297 -1.83986 -0.957282 0
M  V30 5679 C 536.722 -0.641526 -1.76822 0
M  V30 5680 O 536.08 0.409722 -1.7661 0
M  V30 5681 C 536.128 -3.09889 -1.84393 0
M  V30 5682 O 535.232 -2.89163 -2.94038 0
M  V30 5683 H 534.573 -0.606357 -0.270605 0
M  V30 5684 H 537.103 -2.03369 -0.224111 0
M  V30 5685 H 537.113 -3.40209 -2.25215 0
M  V30 5686 H 535.788 -3.96735 -1.24795 0
M  V30 5687 H 534.365 -2.70097 -2.57103 0
M  V30 5688 N 536.55 0.480323 -1.50102 0
M  V30 5689 C 537.48 1.58769 -1.71215 0
M  V30 5690 C 538.461 1.60583 -0.560997 0
M  V30 5691 O 539.646 1.76996 -0.799127 0
M  V30 5692 C 536.776 2.97148 -1.79778 0
M  V30 5693 C 535.73 3.10201 -2.94888 0
M  V30 5694 C 535.056 4.50137 -2.88584 0
M  V30 5695 C 536.356 2.88283 -4.35534 0
M  V30 5696 H 538.05 1.41354 -2.6393 0
M  V30 5697 H 535.596 0.678591 -1.27008 0
M  V30 5698 H 537.549 3.74536 -1.93133 0
M  V30 5699 H 536.273 3.15699 -0.836772 0
M  V30 5700 H 534.932 2.35244 -2.81169 0
M  V30 5701 H 534.58 4.65593 -1.90349 0
M  V30 5702 H 534.28 4.59808 -3.65856 0
M  V30 5703 H 535.804 5.29558 -3.03976 0
M  V30 5704 H 537.218 3.55427 -4.49827 0
M  V30 5705 H 535.615 3.09408 -5.14186 0
M  V30 5706 H 536.685 1.84219 -4.48544 0
M  V30 5707 N 538.028 1.39524 0.732853 0
M  V30 5708 C 539.274 1.37068 1.49467 0
M  V30 5709 C 539.607 -0.0327166 1.94172 0
M  V30 5710 O 538.882 -0.998071 1.66939 0
M  V30 5711 C 539.165 2.34494 2.73285 0
M  V30 5712 C 539.018 3.83784 2.34585 0
M  V30 5713 C 540.337 2.29717 3.75391 0
M  V30 5714 H 537.456 0.499206 0.542183 0
M  V30 5715 H 540.098 1.70532 0.837783 0
M  V30 5716 H 538.248 2.06087 3.29333 0
M  V30 5717 H 539.92 4.22949 1.84151 0
M  V30 5718 H 538.163 4.00455 1.66787 0
M  V30 5719 H 538.834 4.47444 3.23262 0
M  V30 5720 H 541.31 2.54839 3.28932 0
M  V30 5721 H 540.186 2.99962 4.59689 0
M  V30 5722 H 540.447 1.30291 4.22465 0
M  V30 5723 N 539.506 -0.963266 1.24736 0
M  V30 5724 C 540.436 -2.07628 1.06832 0
M  V30 5725 C 541.417 -1.70088 -0.0200566 0
M  V30 5726 O 542.602 -1.93636 0.147854 0
M  V30 5727 C 539.732 -3.40636 0.677069 0
M  V30 5728 C 538.686 -3.9215 1.71471 0
M  V30 5729 C 538.012 -5.21553 1.1784 0
M  V30 5730 C 539.312 -4.19493 3.11164 0
M  V30 5731 H 541.006 -2.22864 1.9993 0
M  V30 5732 H 538.552 -1.07093 0.96266 0
M  V30 5733 H 540.505 -4.17941 0.538792 0
M  V30 5734 H 539.229 -3.25313 -0.289612 0
M  V30 5735 H 537.888 -3.17005 1.84128 0
M  V30 5736 H 537.536 -5.02593 0.202195 0
M  V30 5737 H 537.236 -5.56988 1.87185 0
M  V30 5738 H 538.76 -6.01463 1.05233 0
M  V30 5739 H 540.174 -4.87487 3.01711 0
M  V30 5740 H 538.571 -4.66165 3.77902 0
M  V30 5741 H 539.641 -3.26097 3.58871 0
M  V30 5742 N 540.985 -1.06182 -1.16461 0
M  V30 5743 C 541.948 -0.675723 -2.19013 0
M  V30 5744 C 542.948 0.277963 -1.58379 0
M  V30 5745 O 544.138 0.0604962 -1.74095 0
M  V30 5746 C 541.27 0.00591459 -3.40899 0
M  V30 5747 H 542.463 -1.58353 -2.54685 0
M  V30 5748 H 540.016 -0.856908 -1.30716 0
M  V30 5749 H 540.751 0.92652 -3.10783 0
M  V30 5750 H 540.536 -0.67984 -3.86161 0
M  V30 5751 H 542.026 0.26181 -4.16778 0
M  V30 5752 N 542.463 1.3308 -0.844243 0
M  V30 5753 C 543.879 1.50447 -0.532729 0
M  V30 5754 C 544.079 1.78292 0.938837 0
M  V30 5755 O 543.135 1.84635 1.72239 0
M  V30 5756 C 544.448 2.65555 -1.41072 0
M  V30 5757 C 545.996 2.7944 -1.41005 0
M  V30 5758 C 546.471 3.97616 -2.27301 0
M  V30 5759 N 547.962 4.0486 -2.2504 0
M  V30 5760 C 548.697 4.95508 -2.88547 0
M  V30 5761 N 548.193 5.91236 -3.61126 0
M  V30 5762 N 549.986 4.88548 -2.77989 0
M  V30 5763 H 542.137 1.13269 -1.79677 0
M  V30 5764 H 544.4 0.55734 -0.766861 0
M  V30 5765 H 544.106 2.51675 -2.45668 0
M  V30 5766 H 543.98 3.61089 -1.09061 0
M  V30 5767 H 546.367 2.92749 -0.371784 0
M  V30 5768 H 546.448 1.8465 -1.77026 0
M  V30 5769 H 546.092 3.85066 -3.3119 0
M  V30 5770 H 546.022 4.91661 -1.88619 0
M  V30 5771 H 548.513 3.36353 -1.72264 0
M  V30 5772 H 548.826 6.57079 -4.06776 0
M  V30 5773 H 547.171 5.91295 -3.65234 0
M  V30 5774 H 550.362 4.12729 -2.20846 0
M  V30 5775 H 550.535 5.58994 -3.27765 0
M  V30 5776 N 543.941 0.601185 1.45683 0
M  V30 5777 C 544.871 -0.108824 2.33246 0
M  V30 5778 C 545.852 -0.865223 1.46451 0
M  V30 5779 O 547.037 -0.83704 1.75235 0
M  V30 5780 C 544.167 -1.11101 3.2905 0
M  V30 5781 C 543.121 -0.468244 4.25431 0
M  V30 5782 C 542.447 -1.57822 5.10878 0
M  V30 5783 C 543.747 0.606469 5.18767 0
M  V30 5784 H 545.441 0.622306 2.92861 0
M  V30 5785 H 542.987 0.300714 1.40825 0
M  V30 5786 H 544.94 -1.61622 3.89174 0
M  V30 5787 H 543.664 -1.87265 2.67581 0
M  V30 5788 H 542.323 0.0160484 3.66596 0
M  V30 5789 H 541.971 -2.32998 4.45781 0
M  V30 5790 H 541.671 -1.15369 5.76163 0
M  V30 5791 H 543.195 -2.08583 5.73869 0
M  V30 5792 H 544.609 0.185589 5.73 0
M  V30 5793 H 543.006 0.952381 5.92494 0
M  V30 5794 H 544.076 1.48559 4.61582 0
M  V30 5795 N 545.419 -1.53889 0.339982 0
M  V30 5796 C 546.665 -2.01152 -0.258003 0
M  V30 5797 C 546.998 -1.22749 -1.50487 0
M  V30 5798 O 546.273 -0.314156 -1.91946 0
M  V30 5799 C 546.556 -3.55468 -0.575717 0
M  V30 5800 C 546.409 -4.44584 0.682996 0
M  V30 5801 C 547.728 -4.1768 -1.38677 0
M  V30 5802 H 544.847 -0.731198 -0.0922992 0
M  V30 5803 H 547.489 -1.84352 0.459814 0
M  V30 5804 H 545.639 -3.69914 -1.18725 0
M  V30 5805 H 547.311 -4.41981 1.32102 0
M  V30 5806 H 545.554 -4.13592 1.3086 0
M  V30 5807 H 546.225 -5.5043 0.416001 0
M  V30 5808 H 548.701 -4.0691 -0.869705 0
M  V30 5809 H 547.577 -5.25734 -1.57783 0
M  V30 5810 H 547.838 -3.72069 -2.38782 0
M  V30 5811 N 546.897 -0.0685191 -1.57451 0
M  V30 5812 C 548.144 0.601348 -1.93365 0
M  V30 5813 C 548.472 1.69816 -0.948294 0
M  V30 5814 O 547.727 1.95666 0.0366199 0
M  V30 5815 C 548.026 1.22051 -3.35914 0
M  V30 5816 C 547.692 0.250165 -4.50205 0
M  V30 5817 C 546.354 -0.0167954 -4.81197 0
M  V30 5818 C 548.706 -0.413867 -5.19554 0
M  V30 5819 C 546.034 -0.95493 -5.78876 0
M  V30 5820 C 548.386 -1.3403 -6.18238 0
M  V30 5821 C 547.05 -1.61576 -6.47649 0
M  V30 5822 H 546.32 0.220049 -0.707573 0
M  V30 5823 H 548.967 -0.138697 -1.90997 0
M  V30 5824 H 547.272 2.03622 -3.34732 0
M  V30 5825 H 548.969 1.74605 -3.6099 0
M  V30 5826 H 545.559 0.468421 -4.26033 0
M  V30 5827 H 549.743 -0.220733 -4.95809 0
M  V30 5828 H 544.999 -1.17563 -5.99991 0
M  V30 5829 H 549.173 -1.86081 -6.71079 0
M  V30 5830 H 546.8 -2.34431 -7.2315 0
M  V30 5831 N 548.375 1.56261 0.205012 0
M  V30 5832 C 549.621 1.80306 0.9283 0
M  V30 5833 C 549.954 0.640932 1.83319 0
M  V30 5834 O 549.229 -0.359032 1.91158 0
M  V30 5835 C 549.512 3.14547 1.75306 0
M  V30 5836 C 549.365 4.41236 0.873562 0
M  V30 5837 C 550.684 3.45382 2.72762 0
M  V30 5838 H 547.803 0.655929 0.336044 0
M  V30 5839 H 550.445 1.88984 0.196211 0
M  V30 5840 H 548.595 3.0728 2.37721 0
M  V30 5841 H 550.267 4.60539 0.264887 0
M  V30 5842 H 548.51 4.33427 0.179773 0
M  V30 5843 H 549.181 5.31639 1.48541 0
M  V30 5844 H 551.657 3.52884 2.20481 0
M  V30 5845 H 550.533 4.40449 3.2756 0
M  V30 5846 H 550.794 2.68377 3.51321 0
M  V30 5847 N 549.853 -0.472356 1.50355 0
M  V30 5848 C 551.264 -1.05326 1.54154 0
M  V30 5849 C 551.615 -1.93155 0.344303 0
M  V30 5850 O 550.74 -2.09479 -0.542928 0
M  V30 5851 C 551.335 -1.91691 2.79356 0
M  V30 5852 C 549.894 -2.44892 2.8584 0
M  V30 5853 C 549.041 -1.23205 2.48426 0
M  V30 5854 H 551.992 -0.255027 1.56637 0
M  V30 5855 H 552.013 -2.76742 2.6114 0
M  V30 5856 H 551.525 -1.27741 3.66475 0
M  V30 5857 H 549.626 -3.12399 2.0307 0
M  V30 5858 H 549.739 -2.80086 3.88701 0
M  V30 5859 H 548.103 -1.56643 2.00836 0
M  V30 5860 H 548.886 -0.609194 3.37852 0
M  V30 5861 N 551.331 -1.39911 -0.725443 0
M  V30 5862 C 552.261 -1.42138 -1.85254 0
M  V30 5863 C 553.242 -0.283513 -1.67721 0
M  V30 5864 O 554.427 -0.490717 -1.87898 0
M  V30 5865 C 551.557 -1.27354 -3.23107 0
M  V30 5866 C 550.511 -2.3864 -3.55296 0
M  V30 5867 C 549.837 -2.08939 -4.92188 0
M  V30 5868 C 551.137 -3.8097 -3.57295 0
M  V30 5869 H 552.831 -2.36461 -1.83648 0
M  V30 5870 H 550.377 -1.13817 -0.882138 0
M  V30 5871 H 552.33 -1.2753 -4.01639 0
M  V30 5872 H 551.054 -0.295025 -3.25265 0
M  V30 5873 H 549.713 -2.37696 -2.79099 0
M  V30 5874 H 549.361 -1.09502 -4.90936 0
M  V30 5875 H 549.061 -2.83491 -5.14691 0
M  V30 5876 H 550.585 -2.10781 -5.73065 0
M  V30 5877 H 551.999 -3.8379 -4.25885 0
M  V30 5878 H 550.396 -4.5496 -3.9132 0
M  V30 5879 H 551.466 -4.11261 -2.5689 0
M  V30 5880 N 552.809 0.956637 -1.25245 0
M  V30 5881 C 553.739 2.07058 -1.07931 0
M  V30 5882 C 554.72 1.70096 0.0110361 0
M  V30 5883 O 555.905 1.93555 -0.158121 0
M  V30 5884 C 553.035 3.40272 -0.695124 0
M  V30 5885 C 551.989 3.91235 -1.73549 0
M  V30 5886 C 551.315 5.20921 -1.20604 0
M  V30 5887 C 552.615 4.17837 -3.13385 0
M  V30 5888 H 554.309 2.218 -2.01109 0
M  V30 5889 H 551.855 1.06581 -0.968326 0
M  V30 5890 H 553.808 4.1765 -0.560949 0
M  V30 5891 H 552.532 3.25462 0.272355 0
M  V30 5892 H 551.191 3.16025 -1.85807 0
M  V30 5893 H 550.839 5.02479 -0.228846 0
M  V30 5894 H 550.539 5.55987 -1.90136 0
M  V30 5895 H 552.063 6.00897 -1.08421 0
M  V30 5896 H 553.477 4.8588 -3.04292 0
M  V30 5897 H 551.874 4.64154 -3.80369 0
M  V30 5898 H 552.944 3.2419 -3.60595 0
M  V30 5899 N 554.287 1.06798 1.15896 0
M  V30 5900 C 555.217 0.704677 2.22613 0
M  V30 5901 C 556.198 -0.305252 1.67339 0
M  V30 5902 O 557.383 -0.179247 1.93371 0
M  V30 5903 C 554.513 0.0957325 3.47168 0
M  V30 5904 C 553.467 1.0322 4.15367 0
M  V30 5905 C 552.793 0.286293 5.33933 0
M  V30 5906 C 554.093 2.36341 4.65768 0
M  V30 5907 H 555.787 1.59688 2.53259 0
M  V30 5908 H 553.333 0.769257 1.21731 0
M  V30 5909 H 555.286 -0.170333 4.21056 0
M  V30 5910 H 554.01 -0.831516 3.15838 0
M  V30 5911 H 552.669 1.28309 3.43413 0
M  V30 5912 H 552.317 -0.644237 4.98857 0
M  V30 5913 H 552.017 0.910436 5.80504 0
M  V30 5914 H 553.541 0.0278938 6.10594 0
M  V30 5915 H 554.955 2.1561 5.31211 0
M  V30 5916 H 553.352 2.94299 5.2298 0
M  V30 5917 H 554.422 2.99047 3.81705 0
M  V30 5918 N 555.766 -1.3263 0.851289 0
M  V30 5919 C 556.696 -2.31449 0.308771 0
M  V30 5920 C 557.677 -1.59531 -0.590255 0
M  V30 5921 O 558.862 -1.87351 -0.511205 0
M  V30 5922 C 555.992 -3.43586 -0.506548 0
M  V30 5923 C 554.946 -4.26963 0.297753 0
M  V30 5924 C 554.272 -5.30831 -0.642094 0
M  V30 5925 C 555.572 -4.99643 1.52166 0
M  V30 5926 H 557.266 -2.77074 1.13447 0
M  V30 5927 H 554.812 -1.33207 0.546971 0
M  V30 5928 H 556.765 -4.11754 -0.896474 0
M  V30 5929 H 555.489 -2.96681 -1.36558 0
M  V30 5930 H 554.148 -3.60437 0.669391 0
M  V30 5931 H 553.796 -4.8018 -1.49788 0
M  V30 5932 H 553.496 -5.87501 -0.107968 0
M  V30 5933 H 555.02 -6.01862 -1.02927 0
M  V30 5934 H 556.434 -5.6051 1.20421 0
M  V30 5935 H 554.831 -5.66022 1.99347 0
M  V30 5936 H 555.901 -4.27701 2.28474 0
M  V30 5937 N 557.244 -0.608902 -1.45362 0
M  V30 5938 C 558.484 -0.10763 -2.04116 0
M  V30 5939 C 558.848 1.23883 -1.46686 0
M  V30 5940 O 560.049 1.83091 -1.96803 0
M  V30 5941 C 558.32 -0.0703351 -3.57331 0
M  V30 5942 S 559.879 0.369554 -4.37241 0
M  V30 5943 H 556.697 -0.0502123 -0.709225 0
M  V30 5944 H 559.299 -0.8073 -1.78053 0
M  V30 5945 H 558.003 -1.05379 -3.9664 0
M  V30 5946 H 557.534 0.651287 -3.87971 0
M  V30 5947 H 559.549 1.61878 -4.69052 0
M  V30 5948 N 558.722 1.53707 -0.348139 0
M  V30 5949 C 559.67 2.26671 0.521808 0
M  V30 5950 C 560.664 1.28988 1.09811 0
M  V30 5951 O 561.87 1.4668 1.04332 0
M  V30 5952 H 558.245 0.728387 0.186968 0
M  V30 5953 H 560.216 2.98176 -0.115563 0
M  V30 5954 C 558.965 3.05591 1.6586 0
M  V30 5955 H 558.288 3.80589 1.22443 0
M  V30 5956 H 559.728 3.59851 2.24239 0
M  V30 5957 C 558.187 2.15366 2.59073 0
M  V30 5958 O 558.717 1.7528 3.61441 0
M  V30 5959 N 556.923 1.80352 2.27863 0
M  V30 5960 H 556.47 2.13149 1.44656 0
M  V30 5961 H 556.428 1.20268 2.90488 0
M  V30 5962 N 560.2 0.0768682 1.57412 0
M  V30 5963 C 561.449 -0.590679 1.92857 0
M  V30 5964 C 561.762 -1.70461 0.959293 0
M  V30 5965 O 562.968 -2.43207 1.20675 0
M  V30 5966 C 561.424 -1.10204 3.42612 0
M  V30 5967 C 561.032 -0.0188447 4.47996 0
M  V30 5968 C 562.776 -1.74336 3.87049 0
M  V30 5969 C 560.683 -0.544536 5.88888 0
M  V30 5970 H 559.613 -0.224411 0.71983 0
M  V30 5971 H 562.264 0.149924 1.82887 0
M  V30 5972 H 560.646 -1.89577 3.47673 0
M  V30 5973 H 561.82 0.755936 4.54557 0
M  V30 5974 H 560.135 0.526555 4.13057 0
M  V30 5975 H 562.732 -2.14708 4.89699 0
M  V30 5976 H 563.075 -2.60537 3.24694 0
M  V30 5977 H 563.608 -1.01577 3.84613 0
M  V30 5978 H 560.347 0.280426 6.549 0
M  V30 5979 H 559.867 -1.28673 5.85836 0
M  V30 5980 H 561.546 -1.01933 6.3892 0
M  V30 5981 N 561.678 -1.56367 -0.196722 0
M  V30 5982 C 562.625 -1.94417 -1.24382 0
M  V30 5983 C 563.595 -0.804543 -1.45315 0
M  V30 5984 O 564.78 -1.06256 -1.58475 0
M  V30 5985 C 561.92 -2.28757 -2.58388 0
M  V30 5986 C 561.033 -3.55775 -2.45047 0
M  V30 5987 C 560.168 -3.79445 -3.71746 0
M  V30 5988 C 559.207 -4.99894 -3.53231 0
M  V30 5989 N 558.344 -5.19826 -4.71938 0
M  V30 5990 H 563.184 -2.83691 -0.912338 0
M  V30 5991 H 560.721 -1.40392 -0.439135 0
M  V30 5992 H 562.679 -2.46682 -3.36457 0
M  V30 5993 H 561.309 -1.42625 -2.89582 0
M  V30 5994 H 560.361 -3.45905 -1.58284 0
M  V30 5995 H 561.673 -4.44 -2.27299 0
M  V30 5996 H 560.827 -3.97601 -4.58256 0
M  V30 5997 H 559.566 -2.89546 -3.92446 0
M  V30 5998 H 558.571 -4.81662 -2.65107 0
M  V30 5999 H 559.796 -5.913 -3.33978 0
M  V30 6000 H 557.742 -4.32875 -4.92905 0
M  V30 6001 H 557.659 -6.02228 -4.57009 0
M  V30 6002 H 558.927 -5.42439 -5.59803 0
M  V30 6003 N 563.156 0.464375 -1.50603 0
M  V30 6004 C 564.567 1.04507 -1.5471 0
M  V30 6005 C 564.918 1.9297 -0.354542 0
M  V30 6006 O 564.043 2.09763 0.531812 0
M  V30 6007 C 564.638 1.90207 -2.80369 0
M  V30 6008 C 563.197 2.43373 -2.87135 0
M  V30 6009 C 562.344 1.21886 -2.49076 0
M  V30 6010 H 565.295 0.246716 -1.56771 0
M  V30 6011 H 565.316 2.75353 -2.62604 0
M  V30 6012 H 564.828 1.25796 -3.67147 0
M  V30 6013 H 562.929 3.11318 -2.04724 0
M  V30 6014 H 563.042 2.7802 -3.90181 0
M  V30 6015 H 561.406 1.55575 -2.01664 0
M  V30 6016 H 562.189 0.591268 -3.3817 0
M  V30 6017 N 564.634 1.40294 0.718013 0
M  V30 6018 C 566.05 1.2227 1.02577 0
M  V30 6019 C 566.25 0.0961976 2.0127 0
M  V30 6020 O 565.306 -0.546695 2.46511 0
M  V30 6021 C 566.619 2.56348 1.57182 0
M  V30 6022 C 568.167 2.6334 1.69178 0
M  V30 6023 C 568.642 3.9768 2.27188 0
M  V30 6024 N 570.133 3.99409 2.34578 0
M  V30 6025 C 570.868 5.00141 2.8044 0
M  V30 6026 N 570.364 6.11268 3.26073 0
M  V30 6027 N 572.157 4.87511 2.79802 0
M  V30 6028 H 564.308 2.12304 0.0637899 0
M  V30 6029 H 566.571 0.943632 0.0909036 0
M  V30 6030 H 566.277 3.3942 0.921262 0
M  V30 6031 H 566.151 2.77266 2.55741 0
M  V30 6032 H 568.538 1.80641 2.33351 0
M  V30 6033 H 568.619 2.46255 0.692247 0
M  V30 6034 H 568.263 4.80817 1.63638 0
M  V30 6035 H 568.193 4.12093 3.27852 0
M  V30 6036 H 570.684 3.19162 2.02346 0
M  V30 6037 H 570.997 6.84023 3.59628 0
M  V30 6038 H 569.342 6.14837 3.24038 0
M  V30 6039 H 572.533 3.9979 2.43487 0
M  V30 6040 H 572.706 5.66158 3.15228 0
M  V30 6041 N 566.112 -0.949982 1.2575 0
M  V30 6042 C 567.528 -1.22191 1.02672 0
M  V30 6043 C 567.728 -1.99898 -0.253588 0
M  V30 6044 O 566.784 -2.33329 -0.965076 0
M  V30 6045 C 568.097 -1.99175 2.25277 0
M  V30 6046 C 569.645 -2.12201 2.30087 0
M  V30 6047 C 570.12 -2.92586 3.5236 0
M  V30 6048 N 571.611 -3.00163 3.52784 0
M  V30 6049 C 572.346 -3.62766 4.44059 0
M  V30 6050 N 571.842 -4.26943 5.45611 0
M  V30 6051 N 573.635 -3.59953 4.3173 0
M  V30 6052 H 565.786 -0.430258 2.07996 0
M  V30 6053 H 568.049 -0.252844 0.91366 0
M  V30 6054 H 567.755 -1.49479 3.18354 0
M  V30 6055 H 567.629 -2.99868 2.28821 0
M  V30 6056 H 570.016 -2.61093 1.3753 0
M  V30 6057 H 570.097 -1.10799 2.30559 0
M  V30 6058 H 569.741 -2.44383 4.45241 0
M  V30 6059 H 569.671 -3.94224 3.49134 0
M  V30 6060 H 572.162 -2.54529 2.79327 0
M  V30 6061 H 572.475 -4.72583 6.11461 0
M  V30 6062 H 570.82 -4.25557 5.49478 0
M  V30 6063 H 574.011 -3.09003 3.51617 0
M  V30 6064 H 574.184 -4.08455 5.03059 0
M  V30 6065 N 567.59 -1.07411 -1.15328 0
M  V30 6066 C 568.82 -0.817595 -1.89734 0
M  V30 6067 C 569.228 0.63297 -1.78298 0
M  V30 6068 O 568.571 1.44594 -1.13306 0
M  V30 6069 C 568.633 -1.14748 -3.40695 0
M  V30 6070 C 568.297 -2.59876 -3.75917 0
M  V30 6071 C 569.294 -3.58122 -3.76888 0
M  V30 6072 C 566.979 -2.95469 -4.06206 0
M  V30 6073 C 568.973 -4.89996 -4.07655 0
M  V30 6074 C 566.66 -4.2754 -4.36638 0
M  V30 6075 C 567.658 -5.24614 -4.37344 0
M  V30 6076 O 567.346 -6.54312 -4.67045 0
M  V30 6077 H 567.078 -0.295175 -0.608151 0
M  V30 6078 H 569.632 -1.43409 -1.47048 0
M  V30 6079 H 567.862 -0.47395 -3.83785 0
M  V30 6080 H 569.551 -0.873397 -3.96392 0
M  V30 6081 H 570.317 -3.31966 -3.53587 0
M  V30 6082 H 566.196 -2.20558 -4.04815 0
M  V30 6083 H 569.74 -5.65759 -4.08121 0
M  V30 6084 H 565.637 -4.53449 -4.59407 0
M  V30 6085 H 566.405 -6.59473 -4.84807 0
M  V30 6086 N 569.068 1.32177 -0.85831 0
M  V30 6087 C 569.998 2.31282 -0.321041 0
M  V30 6088 C 570.979 1.59841 0.581786 0
M  V30 6089 O 572.164 1.87619 0.501262 0
M  V30 6090 C 569.294 3.4385 0.48832 0
M  V30 6091 C 568.248 4.26799 -0.320391 0
M  V30 6092 C 567.574 5.31164 0.613934 0
M  V30 6093 C 568.874 4.98829 -1.54813 0
M  V30 6094 H 570.568 2.76469 -1.14915 0
M  V30 6095 H 568.114 1.32916 -0.554028 0
M  V30 6096 H 570.067 4.12224 0.874626 0
M  V30 6097 H 568.791 2.97401 1.34983 0
M  V30 6098 H 567.45 3.60077 -0.688497 0
M  V30 6099 H 567.098 4.80967 1.47239 0
M  V30 6100 H 566.798 5.8755 0.0768097 0
M  V30 6101 H 568.322 6.024 0.997336 0
M  V30 6102 H 569.736 5.59864 -1.23392 0
M  V30 6103 H 568.133 5.64957 -2.02346 0
M  V30 6104 H 569.203 4.26483 -2.30739 0
M  V30 6105 N 570.547 0.616602 1.45037 0
M  V30 6106 C 571.775 0.121968 2.0654 0
M  V30 6107 C 572.19 -1.19743 1.45969 0
M  V30 6108 O 571.547 -1.73133 0.577168 0
M  V30 6109 C 571.598 -0.0145171 3.61497 0
M  V30 6110 O 571.319 1.25269 4.19809 0
M  V30 6111 C 572.82 -0.539555 4.40004 0
M  V30 6112 H 570.04 0.0729837 0.667019 0
M  V30 6113 H 572.584 0.846891 1.8614 0
M  V30 6114 H 570.739 -0.689809 3.81209 0
M  V30 6115 H 571.153 1.08816 5.13088 0
M  V30 6116 H 572.627 -0.584112 5.48901 0
M  V30 6117 H 573.104 -1.56368 4.10421 0
M  V30 6118 H 573.71 0.101995 4.25178 0
M  V30 6119 N 572.025 -1.5352 0.356285 0
M  V30 6120 C 573.271 -2.01414 -0.236653 0
M  V30 6121 C 573.604 -1.24339 -1.49176 0
M  V30 6122 O 572.879 -0.334496 -1.91602 0
M  V30 6123 C 573.162 -3.56059 -0.537982 0
M  V30 6124 C 573.015 -4.43835 0.730112 0
M  V30 6125 C 574.334 -4.19127 -1.34239 0
M  V30 6126 H 571.453 -0.732135 -0.0845386 0
M  V30 6127 H 574.095 -1.83854 0.479341 0
M  V30 6128 H 572.245 -3.71153 -1.14795 0
M  V30 6129 H 573.917 -4.40555 1.36782 0
M  V30 6130 H 572.16 -4.1218 1.3524 0
M  V30 6131 H 572.831 -5.49958 0.474358 0
M  V30 6132 H 575.307 -4.07809 -0.826498 0
M  V30 6133 H 574.183 -5.27378 -1.52198 0
M  V30 6134 H 574.444 -3.74581 -2.34822 0
M  V30 6135 N 573.503 -0.0852151 -1.57369 0
M  V30 6136 C 574.749 0.581666 -1.94279 0
M  V30 6137 C 575.082 1.68444 -0.966446 0
M  V30 6138 O 574.357 1.945 0.00215277 0
M  V30 6139 C 574.64 1.14609 -3.41375 0
M  V30 6140 C 574.493 0.0490414 -4.49773 0
M  V30 6141 C 575.812 2.04751 -3.8957 0
M  V30 6142 H 572.931 0.209972 -0.706456 0
M  V30 6143 H 575.573 -0.153915 -1.89376 0
M  V30 6144 H 573.723 1.77297 -3.45685 0
M  V30 6145 H 575.395 -0.584721 -4.57579 0
M  V30 6146 H 573.638 -0.618638 -4.29366 0
M  V30 6147 H 574.309 0.484601 -5.49869 0
M  V30 6148 H 576.785 1.51981 -3.87351 0
M  V30 6149 H 575.661 2.41173 -4.93079 0
M  V30 6150 H 575.922 2.96107 -3.28288 0
M  V30 6151 N 574.981 1.5647 0.188427 0
M  V30 6152 C 576.228 1.81013 0.907779 0
M  V30 6153 C 576.556 0.65953 1.82977 0
M  V30 6154 O 575.811 -0.354308 1.92466 0
M  V30 6155 C 576.11 3.11596 1.7505 0
M  V30 6156 C 575.776 4.40145 0.978922 0
M  V30 6157 C 574.438 4.75066 0.765912 0
M  V30 6158 C 576.79 5.19369 0.436498 0
M  V30 6159 C 574.118 5.867 -0.00089868 0
M  V30 6160 C 576.47 6.31805 -0.317136 0
M  V30 6161 C 575.134 6.65303 -0.541103 0
M  V30 6162 H 574.404 0.662373 0.33218 0
M  V30 6163 H 577.051 1.9071 0.173732 0
M  V30 6164 H 575.356 2.97165 2.55343 0
M  V30 6165 H 577.053 3.27793 2.30983 0
M  V30 6166 H 573.643 4.12745 1.15497 0
M  V30 6167 H 577.827 4.92799 0.588449 0
M  V30 6168 H 573.083 6.11122 -0.184329 0
M  V30 6169 H 577.257 6.92406 -0.744788 0
M  V30 6170 H 574.884 7.51646 -1.13718 0
M  V30 6171 N 576.459 -0.456382 1.50847 0
M  V30 6172 C 577.369 -1.57805 1.73594 0
M  V30 6173 C 578.385 -1.62599 0.619476 0
M  V30 6174 O 579.561 -1.80195 0.899532 0
M  V30 6175 C 576.626 -2.93926 1.8387 0
M  V30 6176 C 575.687 -2.99402 3.07663 0
M  V30 6177 C 574.92 -4.29031 3.1744 0
M  V30 6178 O 575.143 -5.20358 2.33631 0
M  V30 6179 O 574.077 -4.40401 4.10281 0
M  V30 6180 H 577.903 -1.41531 2.68705 0
M  V30 6181 H 575.488 -0.637422 1.3512 0
M  V30 6182 H 577.37 -3.74747 1.92725 0
M  V30 6183 H 576.045 -3.10368 0.91944 0
M  V30 6184 H 574.952 -2.17606 3.043 0
M  V30 6185 H 576.285 -2.87901 3.99216 0
M  V30 6186 N 577.937 -1.40673 -0.710563 0
M  V30 6187 C 578.887 -1.37812 -1.81636 0
M  V30 6188 C 579.871 -0.254853 -1.58869 0
M  V30 6189 O 581.063 -0.494356 -1.69956 0
M  V30 6190 C 578.192 -1.24802 -3.19811 0
M  V30 6191 C 577.278 -2.41931 -3.48325 0
M  V30 6192 N 577.669 -3.67411 -3.47625 0
M  V30 6193 C 575.967 -2.35419 -3.78806 0
M  V30 6194 C 576.668 -4.45008 -3.74623 0
M  V30 6195 N 575.644 -3.74916 -3.93623 0
M  V30 6196 H 579.446 -2.32766 -1.79436 0
M  V30 6197 H 576.96 -1.34516 -0.909909 0
M  V30 6198 H 578.957 -1.20835 -3.99004 0
M  V30 6199 H 577.617 -0.308202 -3.23234 0
M  V30 6200 H 578.628 -4.00503 -3.28356 0
M  V30 6201 H 575.305 -1.4983 -3.89689 0
M  V30 6202 H 576.695 -5.53884 -3.80344 0
M  V30 6203 N 579.415 0.9433 -1.26252 0
M  V30 6204 C 580.692 1.66639 -1.02424 0
M  V30 6205 C 581.072 2.06335 0.446006 0
M  V30 6206 O 580.42 1.78551 1.42589 0
M  V30 6207 C 580.63 2.88019 -1.97094 0
M  V30 6208 C 581.978 3.59718 -2.25584 0
M  V30 6209 O 583.002 2.9812 -1.94943 0
M  V30 6210 O 581.861 4.7066 -2.77743 0
M  V30 6211 H 578.955 0.729643 -0.389294 0
M  V30 6212 H 581.501 0.995218 -1.37454 0
M  V30 6213 H 580.273 2.5556 -2.96319 0
M  V30 6214 H 579.896 3.62863 -1.62532 0
M  V30 6215 N 580.893 1.08022 1.14757 0
M  V30 6216 C 581.856 0.71048 2.1791 0
M  V30 6217 C 582.856 -0.252731 1.58801 0
M  V30 6218 O 584.046 -0.0327915 1.74169 0
M  V30 6219 C 581.178 0.0483203 3.40866 0
M  V30 6220 H 582.371 1.62384 2.52134 0
M  V30 6221 H 579.924 0.877595 1.29337 0
M  V30 6222 H 580.659 -0.876959 3.12218 0
M  V30 6223 H 580.444 0.741189 3.85031 0
M  V30 6224 H 581.934 -0.195471 4.17142 0
M  V30 6225 N 582.371 -1.3172 0.865308 0
M  V30 6226 C 583.617 -1.97559 0.483944 0
M  V30 6227 C 583.972 -1.67181 -0.95227 0
M  V30 6228 O 583.265 -0.955392 -1.66081 0
M  V30 6229 C 583.459 -3.5102 0.672283 0
M  V30 6230 C 583.288 -3.96312 2.12525 0
M  V30 6231 C 582.058 -4.22877 2.76591 0
M  V30 6232 C 584.256 -4.10596 3.09702 0
M  V30 6233 N 582.238 -4.5449 4.12689 0
M  V30 6234 C 583.609 -4.45867 4.30816 0
M  V30 6235 C 585.664 -3.92961 3.05755 0
M  V30 6236 C 584.367 -4.65344 5.48495 0
M  V30 6237 C 586.393 -4.13628 4.22688 0
M  V30 6238 C 585.755 -4.49227 5.42563 0
M  V30 6239 H 581.854 -0.74862 0.226035 0
M  V30 6240 H 584.438 -1.59336 1.11893 0
M  V30 6241 H 582.609 -3.88342 0.0669224 0
M  V30 6242 H 584.341 -4.03865 0.259765 0
M  V30 6243 H 581.096 -4.15343 2.27567 0
M  V30 6244 H 581.52 -4.74464 4.82921 0
M  V30 6245 H 586.162 -3.64531 2.14188 0
M  V30 6246 H 583.88 -4.92624 6.40584 0
M  V30 6247 H 587.466 -4.01474 4.21082 0
M  V30 6248 H 586.346 -4.64895 6.31539 0
M  V30 6249 N 583.85 -0.624285 -1.44708 0
M  V30 6250 C 585.096 -0.126051 -2.02107 0
M  V30 6251 C 585.425 1.2496 -1.49048 0
M  V30 6252 O 584.68 1.84163 -0.662005 0
M  V30 6253 C 584.979 -0.0546353 -3.57358 0
M  V30 6254 C 584.644 -1.36815 -4.29642 0
M  V30 6255 C 583.307 -1.72792 -4.49106 0
M  V30 6256 C 585.659 -2.23549 -4.70824 0
M  V30 6257 C 582.986 -2.95222 -5.07012 0
M  V30 6258 C 585.339 -3.45243 -5.30085 0
M  V30 6259 C 584.003 -3.81452 -5.47769 0
M  V30 6260 H 583.273 -0.0461252 -0.739563 0
M  V30 6261 H 585.92 -0.809236 -1.73562 0
M  V30 6262 H 584.225 0.711891 -3.85278 0
M  V30 6263 H 585.922 0.347282 -3.99493 0
M  V30 6264 H 582.512 -1.07817 -4.14817 0
M  V30 6265 H 586.696 -1.9705 -4.55505 0
M  V30 6266 H 581.952 -3.23361 -5.18891 0
M  V30 6267 H 586.125 -4.12689 -5.60946 0
M  V30 6268 H 583.753 -4.76403 -5.92405 0
M  V30 6269 N 585.328 1.53329 -0.364422 0
M  V30 6270 C 586.577 2.00421 0.226747 0
M  V30 6271 C 586.89 1.25581 1.49963 0
M  V30 6272 O 588.096 1.63256 2.16933 0
M  V30 6273 C 586.552 3.57017 0.454618 0
M  V30 6274 C 586.16 4.40734 -0.803568 0
M  V30 6275 C 587.904 4.12468 1.00351 0
M  V30 6276 C 585.811 5.8888 -0.545345 0
M  V30 6277 H 584.741 0.748787 0.0885082 0
M  V30 6278 H 587.392 1.7703 -0.482983 0
M  V30 6279 H 585.774 3.76558 1.22558 0
M  V30 6280 H 586.948 4.32967 -1.57723 0
M  V30 6281 H 585.263 3.96381 -1.27559 0
M  V30 6282 H 587.86 5.20783 1.212 0
M  V30 6283 H 588.203 3.6699 1.9653 0
M  V30 6284 H 588.736 3.96721 0.29274 0
M  V30 6285 H 585.475 6.38633 -1.47743 0
M  V30 6286 H 584.995 5.99499 0.189842 0
M  V30 6287 H 586.674 6.46776 -0.170425 0
M  V30 6288 N 586.806 0.0935595 1.57322 0
M  V30 6289 C 588.053 -0.570509 1.94297 0
M  V30 6290 C 588.381 -1.68286 0.97519 0
M  V30 6291 O 587.636 -1.95699 -0.00548655 0
M  V30 6292 C 587.935 -1.16692 3.37813 0
M  V30 6293 C 587.601 -0.178509 4.50547 0
M  V30 6294 C 586.263 0.0933475 4.81109 0
M  V30 6295 C 588.615 0.496472 5.1883 0
M  V30 6296 C 585.943 1.0469 5.77284 0
M  V30 6297 C 588.295 1.43849 6.16028 0
M  V30 6298 C 586.959 1.71859 6.44997 0
M  V30 6299 H 586.229 -0.208764 0.710984 0
M  V30 6300 H 588.876 0.169066 1.90752 0
M  V30 6301 H 587.181 -1.98271 3.37929 0
M  V30 6302 H 588.878 -1.6884 3.63722 0
M  V30 6303 H 585.468 -0.400584 4.26724 0
M  V30 6304 H 589.652 0.299584 4.95395 0
M  V30 6305 H 584.908 1.27094 5.98044 0
M  V30 6306 H 589.082 1.96734 6.68034 0
M  V30 6307 H 586.709 2.45906 7.19329 0
M  V30 6308 N 588.284 -1.56567 -0.180126 0
M  V30 6309 C 589.531 -1.81492 -0.898167 0
M  V30 6310 C 589.859 -0.669225 -1.82624 0
M  V30 6311 O 589.114 0.344096 -1.92651 0
M  V30 6312 C 589.413 -3.1252 -1.73395 0
M  V30 6313 C 589.079 -4.40658 -0.955567 0
M  V30 6314 C 587.741 -4.75465 -0.740707 0
M  V30 6315 C 590.093 -5.19593 -0.408948 0
M  V30 6316 C 587.421 -5.86691 0.0320128 0
M  V30 6317 C 589.773 -6.31627 0.350638 0
M  V30 6318 C 588.437 -6.65007 0.576378 0
M  V30 6319 H 587.707 -0.664125 -0.328662 0
M  V30 6320 H 590.354 -1.908 -0.163616 0
M  V30 6321 H 588.659 -2.98515 -2.53763 0
M  V30 6322 H 590.356 -3.29013 -2.29241 0
M  V30 6323 H 586.946 -4.13352 -1.13306 0
M  V30 6324 H 591.13 -4.93104 -0.562307 0
M  V30 6325 H 586.386 -6.11016 0.216735 0
M  V30 6326 H 590.56 -6.92001 0.781497 0
M  V30 6327 H 588.187 -7.51033 1.17703 0
M  V30 6328 N 589.762 0.448376 -1.51087 0
M  V30 6329 C 590.695 1.56298 -1.66272 0
M  V30 6330 C 591.673 1.54381 -0.510419 0
M  V30 6331 O 592.857 1.73671 -0.732854 0
M  V30 6332 C 589.984 2.94883 -1.66618 0
M  V30 6333 C 589.03 3.14868 -2.87681 0
M  V30 6334 S 589.863 2.9234 -4.48662 0
M  V30 6335 C 591.019 4.33227 -4.51735 0
M  V30 6336 H 591.252 1.43182 -2.6055 0
M  V30 6337 H 588.785 0.637309 -1.40633 0
M  V30 6338 H 590.743 3.74771 -1.67502 0
M  V30 6339 H 589.404 3.05371 -0.735358 0
M  V30 6340 H 588.597 4.16166 -2.84292 0
M  V30 6341 H 588.199 2.42788 -2.84482 0
M  V30 6342 H 590.491 5.26247 -4.26697 0
M  V30 6343 H 591.434 4.41653 -5.53487 0
M  V30 6344 H 591.842 4.16367 -3.81181 0
M  V30 6345 N 591.24 1.41047 0.703093 0
M  V30 6346 C 592.203 1.42036 1.79884 0
M  V30 6347 C 593.203 0.312153 1.57741 0
M  V30 6348 O 594.393 0.571672 1.64553 0
M  V30 6349 C 591.525 1.22437 3.18154 0
M  V30 6350 H 592.718 2.39572 1.80403 0
M  V30 6351 H 590.271 1.27079 0.909977 0
M  V30 6352 H 591.006 0.257112 3.23279 0
M  V30 6353 H 590.791 2.02723 3.35627 0
M  V30 6354 H 592.281 1.25946 3.98155 0
M  V30 6355 N 592.718 -0.936591 1.26751 0
M  V30 6356 C 593.681 -2.01752 1.08761 0
M  V30 6357 C 594.681 -1.60763 0.0344435 0
M  V30 6358 O 595.871 -1.71963 0.278258 0
M  V30 6359 C 593.003 -3.34543 0.655271 0
M  V30 6360 H 594.196 -2.19143 2.04735 0
M  V30 6361 H 591.749 -1.11618 1.09413 0
M  V30 6362 H 592.484 -3.22851 -0.30626 0
M  V30 6363 H 592.269 -3.65647 1.41578 0
M  V30 6364 H 593.759 -4.13944 0.551378 0
M  V30 6365 N 594.196 -1.08629 -1.14182 0
M  V30 6366 C 595.443 -0.817345 -1.85272 0
M  V30 6367 C 595.771 0.656917 -1.83071 0
M  V30 6368 O 595.026 1.49897 -1.25815 0
M  V30 6369 C 595.325 -1.28734 -3.3341 0
M  V30 6370 C 594.991 -2.76981 -3.55798 0
M  V30 6371 C 593.653 -3.17469 -3.61617 0
M  V30 6372 C 596.005 -3.72605 -3.64438 0
M  V30 6373 C 593.333 -4.52371 -3.736 0
M  V30 6374 C 595.685 -5.07286 -3.77947 0
M  V30 6375 C 594.349 -5.47376 -3.82016 0
M  V30 6376 H 593.619 -0.299088 -0.677958 0
M  V30 6377 H 596.266 -1.35962 -1.34857 0
M  V30 6378 H 594.571 -0.664702 -3.8612 0
M  V30 6379 H 596.268 -1.05598 -3.86846 0
M  V30 6380 H 592.858 -2.44644 -3.51919 0
M  V30 6381 H 597.042 -3.42443 -3.5923 0
M  V30 6382 H 592.298 -4.82882 -3.75013 0
M  V30 6383 H 596.472 -5.81243 -3.83575 0
M  V30 6384 H 594.099 -6.51906 -3.91054 0
M  V30 6385 N 595.674 1.31259 -0.872281 0
M  V30 6386 C 596.637 2.26744 -0.334656 0
M  V30 6387 C 597.637 1.52307 0.515681 0
M  V30 6388 O 598.827 1.71148 0.324656 0
M  V30 6389 C 595.959 3.36841 0.524482 0
M  V30 6390 H 597.152 2.75812 -1.17762 0
M  V30 6391 H 594.705 1.42232 -0.648064 0
M  V30 6392 H 595.44 2.93069 1.38855 0
M  V30 6393 H 595.225 3.92009 -0.0844299 0
M  V30 6394 H 596.715 4.07944 0.892838 0
M  V30 6395 N 597.152 0.631951 1.44375 0
M  V30 6396 C 598.399 0.136767 2.02038 0
M  V30 6397 C 598.727 -1.24168 1.49709 0
M  V30 6398 O 597.982 -1.83809 0.671763 0
M  V30 6399 C 598.281 0.0735861 3.57324 0
M  V30 6400 C 597.947 1.39092 4.28911 0
M  V30 6401 C 596.609 1.75171 4.48184 0
M  V30 6402 C 598.961 2.26042 4.69632 0
M  V30 6403 C 596.289 2.97907 5.05439 0
M  V30 6404 C 598.641 3.4805 5.28246 0
M  V30 6405 C 597.305 3.84351 5.45738 0
M  V30 6406 H 596.575 0.0500466 0.739308 0
M  V30 6407 H 599.222 0.818429 1.7313 0
M  V30 6408 H 597.527 -0.691449 3.8565 0
M  V30 6409 H 599.224 -0.326091 3.99672 0
M  V30 6410 H 595.814 1.10015 4.1424 0
M  V30 6411 H 599.998 1.99463 4.54454 0
M  V30 6412 H 595.254 3.26108 5.17169 0
M  V30 6413 H 599.428 4.15658 5.5875 0
M  V30 6414 H 597.055 4.79538 5.8987 0
M  V30 6415 N 598.631 -1.53133 0.372548 0
M  V30 6416 C 599.856 -2.0625 -0.218098 0
M  V30 6417 C 600.281 -1.24375 -1.41111 0
M  V30 6418 O 599.639 -0.264554 -1.79359 0
M  V30 6419 C 599.687 -3.55858 -0.582876 0
M  V30 6420 O 598.791 -3.76667 -1.67917 0
M  V30 6421 H 598.132 -0.663317 -0.030104 0
M  V30 6422 H 600.662 -1.97477 0.535169 0
M  V30 6423 H 600.672 -3.99007 -0.851925 0
M  V30 6424 H 599.347 -4.14892 0.289428 0
M  V30 6425 H 597.924 -3.45413 -1.40513 0
M  V30 6426 N 600.109 -0.101901 -1.5727 0
M  V30 6427 C 601.057 0.872034 -2.15635 0
M  V30 6428 C 602.051 1.28742 -1.10099 0
M  V30 6429 O 603.257 1.26116 -1.28432 0
M  V30 6430 H 599.632 0.299269 -0.689886 0
M  V30 6431 H 601.603 0.355137 -2.96279 0
M  V30 6432 C 600.352 2.11886 -2.7568 0
M  V30 6433 H 599.675 1.80813 -3.56576 0
M  V30 6434 H 601.115 2.78077 -3.20077 0
M  V30 6435 C 599.574 2.89739 -1.7191 0
M  V30 6436 O 600.104 3.84522 -1.16213 0
M  V30 6437 N 598.31 2.53407 -1.42245 0
M  V30 6438 H 597.857 1.76398 -1.87727 0
M  V30 6439 H 597.815 3.05795 -0.730529 0
M  V30 6440 N 601.587 1.56661 0.17182 0
M  V30 6441 C 602.835 1.81606 0.886774 0
M  V30 6442 C 603.156 0.678818 1.82803 0
M  V30 6443 O 602.426 -0.301354 1.93568 0
M  V30 6444 H 601.006 0.669934 0.330451 0
M  V30 6445 H 603.668 1.94142 0.171757 0
M  V30 6446 H 602.764 2.75634 1.46398 0
M  V30 6447 N 603.065 -0.440357 1.51323 0
M  V30 6448 C 604.295 -1.21079 1.67402 0
M  V30 6449 C 604.703 -1.85555 0.369599 0
M  V30 6450 O 604.046 -1.71375 -0.661525 0
M  V30 6451 C 604.108 -2.33839 2.73056 0
M  V30 6452 C 603.772 -1.89755 4.15743 0
M  V30 6453 C 604.769 -1.40268 5.0062 0
M  V30 6454 C 602.454 -1.97539 4.61826 0
M  V30 6455 C 604.448 -0.991474 6.29642 0
M  V30 6456 C 602.135 -1.56029 5.90845 0
M  V30 6457 C 603.133 -1.06915 6.7458 0
M  V30 6458 O 602.821 -0.659933 8.01187 0
M  V30 6459 H 602.553 -0.371133 0.56501 0
M  V30 6460 H 605.107 -0.528409 1.98487 0
M  V30 6461 H 603.337 -3.05345 2.37279 0
M  V30 6462 H 605.026 -2.95713 2.78044 0
M  V30 6463 H 605.792 -1.33652 4.66221 0
M  V30 6464 H 601.671 -2.34713 3.96776 0
M  V30 6465 H 605.215 -0.607425 6.9495 0
M  V30 6466 H 601.112 -1.62315 6.24759 0
M  V30 6467 H 601.88 -0.786052 8.14717 0
M  V30 6468 N 604.543 -1.41418 -0.695603 0
M  V30 6469 C 605.473 -1.46035 -1.82197 0
M  V30 6470 C 606.454 -0.319025 -1.67082 0
M  V30 6471 O 607.639 -0.530462 -1.86815 0
M  V30 6472 C 604.769 -1.34179 -3.20333 0
M  V30 6473 C 603.723 -2.46123 -3.50154 0
M  V30 6474 C 603.049 -2.19332 -4.87645 0
M  V30 6475 C 604.349 -3.88463 -3.49133 0
M  V30 6476 H 606.043 -2.40303 -1.78591 0
M  V30 6477 H 603.589 -1.15663 -0.857797 0
M  V30 6478 H 605.542 -1.36021 -3.98844 0
M  V30 6479 H 604.266 -0.363952 -3.24566 0
M  V30 6480 H 602.925 -2.43563 -2.73994 0
M  V30 6481 H 602.573 -1.19891 -4.88503 0
M  V30 6482 H 602.273 -2.94344 -5.08562 0
M  V30 6483 H 603.797 -2.22889 -5.68465 0
M  V30 6484 H 605.211 -3.92738 -4.17648 0
M  V30 6485 H 603.608 -4.63158 -3.81582 0
M  V30 6486 H 604.678 -4.16617 -2.48109 0
M  V30 6487 N 606.021 0.929856 -1.27246 0
M  V30 6488 C 606.984 2.01172 -1.09829 0
M  V30 6489 C 607.984 1.60743 -0.0429687 0
M  V30 6490 O 609.174 1.71813 -0.287373 0
M  V30 6491 C 606.306 3.34191 -0.673003 0
M  V30 6492 H 607.499 2.18054 -2.05895 0
M  V30 6493 H 605.052 1.11036 -1.10003 0
M  V30 6494 H 605.787 3.23009 0.289134 0
M  V30 6495 H 605.572 3.64892 -1.43515 0
M  V30 6496 H 607.062 4.13646 -0.573323 0
M  V30 6497 N 607.499 1.09233 1.13605 0
M  V30 6498 C 608.724 0.849067 1.89224 0
M  V30 6499 C 609.149 -0.593875 1.78479 0
M  V30 6500 O 608.507 -1.41703 1.13092 0
M  V30 6501 C 608.555 1.28642 3.36873 0
M  V30 6502 O 607.659 0.44363 4.10007 0
M  V30 6503 H 607 0.30767 0.588417 0
M  V30 6504 H 609.53 1.45595 1.43748 0
M  V30 6505 H 609.54 1.27096 3.87699 0
M  V30 6506 H 608.215 2.33729 3.44011 0
M  V30 6507 H 606.792 0.523241 3.69211 0
M  V30 6508 N 608.977 -1.30795 0.87923 0
M  V30 6509 C 609.907 -2.30742 0.357796 0
M  V30 6510 C 610.888 -1.60747 -0.556283 0
M  V30 6511 O 612.073 -1.88393 -0.47135 0
M  V30 6512 C 609.203 -3.44583 -0.433555 0
M  V30 6513 C 608.157 -4.26235 0.388251 0
M  V30 6514 C 607.483 -5.32073 -0.529352 0
M  V30 6515 C 608.783 -4.96303 1.62729 0
M  V30 6516 H 610.477 -2.74605 1.19299 0
M  V30 6517 H 608.023 -1.32017 0.575104 0
M  V30 6518 H 609.976 -4.13563 -0.808934 0
M  V30 6519 H 608.7 -2.99511 -1.30234 0
M  V30 6520 H 607.359 -3.58936 0.745695 0
M  V30 6521 H 607.007 -4.83249 -1.39569 0
M  V30 6522 H 606.707 -5.87598 0.0166741 0
M  V30 6523 H 608.231 -6.0391 -0.901373 0
M  V30 6524 H 609.645 -5.5783 1.32283 0
M  V30 6525 H 608.042 -5.61666 2.11309 0
M  V30 6526 H 609.112 -4.22758 2.37494 0
M  V30 6527 N 610.455 -0.639598 -1.44038 0
M  V30 6528 C 611.695 -0.150902 -2.03842 0
M  V30 6529 C 612.059 1.20744 -1.49281 0
M  V30 6530 O 613.26 1.78875 -2.00642 0
M  V30 6531 C 611.531 -0.146114 -3.57101 0
M  V30 6532 S 613.09 0.276725 -4.37927 0
M  V30 6533 H 609.908 -0.0652447 -0.708 0
M  V30 6534 H 612.51 -0.844886 -1.76301 0
M  V30 6535 H 611.214 -1.13769 -3.94316 0
M  V30 6536 H 610.745 0.568846 -3.89266 0
M  V30 6537 H 612.76 1.51893 -4.7238 0
M  V30 6538 N 611.933 1.52934 -0.380664 0
M  V30 6539 C 612.866 2.22597 0.502564 0
M  V30 6540 C 613.844 1.22345 1.071 0
M  V30 6541 O 615.028 1.51302 1.12428 0
M  V30 6542 C 612.155 2.93246 1.69482 0
M  V30 6543 C 611.201 4.07696 1.25244 0
M  V30 6544 S 612.034 5.34957 0.241159 0
M  V30 6545 C 613.19 6.09124 1.4394 0
M  V30 6546 H 613.423 2.97167 -0.089029 0
M  V30 6547 H 610.956 1.53518 -0.164817 0
M  V30 6548 H 612.914 3.34562 2.37863 0
M  V30 6549 H 611.575 2.18373 2.2577 0
M  V30 6550 H 610.768 4.56199 2.1424 0
M  V30 6551 H 610.37 3.68349 0.647664 0
M  V30 6552 H 612.662 6.34771 2.36794 0
M  V30 6553 H 613.605 7.01068 0.995464 0
M  V30 6554 H 614.013 5.39777 1.65229 0
M  V30 6555 N 613.412 0.11024 1.57214 0
M  V30 6556 C 614.652 -0.553061 1.96775 0
M  V30 6557 C 615.016 -1.64403 0.991753 0
M  V30 6558 O 616.217 -2.36561 1.27642 0
M  V30 6559 C 614.488 -1.08004 3.4069 0
M  V30 6560 S 616.047 -1.75309 4.02259 0
M  V30 6561 H 612.865 -0.18003 0.68783 0
M  V30 6562 H 615.467 0.193242 1.94543 0
M  V30 6563 H 614.171 -0.274735 4.09479 0
M  V30 6564 H 613.702 -1.86182 3.46554 0
M  V30 6565 H 615.717 -3.03834 3.923 0
M  V30 6566 N 614.89 -1.56749 -0.16351 0
M  V30 6567 C 616.137 -1.82434 -0.878866 0
M  V30 6568 C 616.465 -0.688557 -1.81904 0
M  V30 6569 O 615.72 0.323644 -1.93005 0
M  V30 6570 C 616.019 -3.14342 -1.70071 0
M  V30 6571 C 615.685 -4.41647 -0.908775 0
M  V30 6572 C 614.347 -4.76224 -0.690236 0
M  V30 6573 C 616.699 -5.19998 -0.353815 0
M  V30 6574 C 614.027 -5.86624 0.0942374 0
M  V30 6575 C 616.379 -6.3122 0.41761 0
M  V30 6576 C 615.043 -6.64358 0.646879 0
M  V30 6577 H 614.313 -0.667574 -0.3216 0
M  V30 6578 H 616.96 -1.90963 -0.14337 0
M  V30 6579 H 615.265 -3.0119 -2.50583 0
M  V30 6580 H 616.962 -3.31426 -2.25738 0
M  V30 6581 H 613.552 -4.1453 -1.08916 0
M  V30 6582 H 617.736 -4.93673 -0.509975 0
M  V30 6583 H 612.992 -6.10751 0.281529 0
M  V30 6584 H 617.166 -6.91133 0.854849 0
M  V30 6585 H 614.793 -7.49742 1.25662 0
M  V30 6586 N 616.368 0.432326 -1.51554 0
M  V30 6587 C 617.616 1.17901 -1.64146 0
M  V30 6588 C 617.937 1.91604 -0.362367 0
M  V30 6589 O 617.207 1.85764 0.621968 0
M  V30 6590 H 615.787 0.438206 -0.604966 0
M  V30 6591 H 618.449 0.495172 -1.88505 0
M  V30 6592 H 617.545 1.90584 -2.47152 0
M  V30 6593 N 617.846 1.41785 0.688094 0
M  V30 6594 C 619.257 1.3701 1.26828 0
M  V30 6595 C 619.608 0.056835 1.96118 0
M  V30 6596 O 618.733 -0.84475 1.99231 0
M  V30 6597 C 619.328 2.48168 2.30648 0
M  V30 6598 C 617.887 2.46766 2.84224 0
M  V30 6599 C 617.034 2.27633 1.58361 0
M  V30 6600 H 619.985 1.51192 0.482351 0
M  V30 6601 H 620.006 2.17655 3.121 0
M  V30 6602 H 619.518 3.43735 1.80188 0
M  V30 6603 H 617.619 1.54978 3.3884 0
M  V30 6604 H 617.732 3.43342 3.34145 0
M  V30 6605 H 616.096 1.75648 1.84445 0
M  V30 6606 H 616.879 3.25238 1.09887 0
M  V30 6607 N 619.324 -0.923095 1.27737 0
M  V30 6608 C 620.271 -2.02432 1.1086 0
M  V30 6609 C 621.241 -1.66098 0.00835195 0
M  V30 6610 O 622.426 -1.90027 0.171542 0
M  V30 6611 C 619.566 -3.36476 0.766671 0
M  V30 6612 C 618.679 -3.85737 1.94501 0
M  V30 6613 C 617.814 -5.08249 1.54455 0
M  V30 6614 C 616.853 -5.49818 2.6901 0
M  V30 6615 N 615.99 -6.63524 2.29521 0
M  V30 6616 H 620.83 -2.16201 2.05089 0
M  V30 6617 H 618.367 -1.05909 1.02087 0
M  V30 6618 H 620.325 -4.13569 0.549223 0
M  V30 6619 H 618.955 -3.22502 -0.13867 0
M  V30 6620 H 618.007 -3.04883 2.27487 0
M  V30 6621 H 619.319 -4.12513 2.80419 0
M  V30 6622 H 618.473 -5.92857 1.28862 0
M  V30 6623 H 617.212 -4.83261 0.656534 0
M  V30 6624 H 616.217 -4.63757 2.95313 0
M  V30 6625 H 617.442 -5.76799 3.5844 0
M  V30 6626 H 615.388 -6.40185 1.43177 0
M  V30 6627 H 615.305 -6.89978 3.08977 0
M  V30 6628 H 616.573 -7.51461 2.07187 0
M  V30 6629 N 620.802 -1.09834 -1.13024 0
M  V30 6630 C 621.749 -0.741522 -2.18564 0
M  V30 6631 C 622.719 0.279236 -1.63736 0
M  V30 6632 O 623.904 0.159923 -1.90129 0
M  V30 6633 C 621.044 -0.17277 -3.44667 0
M  V30 6634 C 620.157 -1.24808 -4.13578 0
M  V30 6635 C 619.292 -0.641631 -5.27311 0
M  V30 6636 C 618.331 -1.69795 -5.88078 0
M  V30 6637 N 617.468 -1.11223 -6.93234 0
M  V30 6638 H 622.308 -1.64576 -2.48432 0
M  V30 6639 H 619.845 -0.822174 -1.21978 0
M  V30 6640 H 621.803 0.17482 -4.16834 0
M  V30 6641 H 620.433 0.694725 -3.15235 0
M  V30 6642 H 619.485 -1.71288 -3.39653 0
M  V30 6643 H 620.797 -2.04795 -4.54819 0
M  V30 6644 H 619.951 -0.243128 -6.06213 0
M  V30 6645 H 618.69 0.189742 -4.87331 0
M  V30 6646 H 617.695 -2.10595 -5.07868 0
M  V30 6647 H 618.92 -2.53206 -6.3013 0
M  V30 6648 H 616.866 -0.302208 -6.55304 0
M  V30 6649 H 616.783 -1.84901 -7.3304 0
M  V30 6650 H 618.051 -0.740068 -7.75979 0
M  V30 6651 N 622.28 1.30327 -0.886154 0
M  V30 6652 C 623.526 1.96388 -0.505941 0
M  V30 6653 C 623.859 1.69784 0.942712 0
M  V30 6654 O 623.134 1.00322 1.6663 0
M  V30 6655 C 623.417 3.51488 -0.782826 0
M  V30 6656 C 623.27 3.87603 -2.28219 0
M  V30 6657 C 624.589 4.39331 -0.260128 0
M  V30 6658 H 621.708 0.713327 -0.185292 0
M  V30 6659 H 624.35 1.54178 -1.11036 0
M  V30 6660 H 622.5 3.87572 -0.268399 0
M  V30 6661 H 624.172 3.61537 -2.86512 0
M  V30 6662 H 622.415 3.3563 -2.74837 0
M  V30 6663 H 623.086 4.95806 -2.42653 0
M  V30 6664 H 625.562 4.10162 -0.700444 0
M  V30 6665 H 624.438 5.46769 -0.483179 0
M  V30 6666 H 624.699 4.34072 0.838674 0
M  V30 6667 N 623.758 0.647228 1.43697 0
M  V30 6668 C 624.705 -0.0480092 2.3075 0
M  V30 6669 C 625.675 -0.820705 1.44408 0
M  V30 6670 O 626.86 -0.798515 1.73287 0
M  V30 6671 C 624 -1.01259 3.2991 0
M  V30 6672 C 623.113 -0.236629 4.31351 0
M  V30 6673 C 622.248 -1.19447 5.17596 0
M  V30 6674 C 621.287 -0.408595 6.10735 0
M  V30 6675 N 620.424 -1.31772 6.89623 0
M  V30 6676 H 625.264 0.700238 2.89656 0
M  V30 6677 H 622.801 0.357082 1.427 0
M  V30 6678 H 624.759 -1.58538 3.85903 0
M  V30 6679 H 623.389 -1.72778 2.72667 0
M  V30 6680 H 622.441 0.452353 3.77701 0
M  V30 6681 H 623.753 0.374731 4.9739 0
M  V30 6682 H 622.907 -1.83809 5.78186 0
M  V30 6683 H 621.646 -1.83975 4.51669 0
M  V30 6684 H 620.651 0.24841 5.49239 0
M  V30 6685 H 621.876 0.232188 6.78703 0
M  V30 6686 H 619.822 -1.94991 6.2635 0
M  V30 6687 H 619.739 -0.760779 7.52162 0
M  V30 6688 H 621.007 -1.94967 7.54724 0
M  V30 6689 N 625.236 -1.5273 0.388769 0
M  V30 6690 C 626.647 -1.86505 -0.0853788 0
M  V30 6691 C 626.998 -1.30847 -1.46197 0
M  V30 6692 O 626.123 -0.639609 -2.06732 0
M  V30 6693 C 626.718 -3.38414 -0.161703 0
M  V30 6694 C 625.277 -3.71902 -0.580144 0
M  V30 6695 C 624.424 -2.76095 0.258218 0
M  V30 6696 H 627.375 -1.46647 0.606665 0
M  V30 6697 H 627.396 -3.67638 -0.980936 0
M  V30 6698 H 626.908 -3.78893 0.840333 0
M  V30 6699 H 625.009 -3.36992 -1.58957 0
M  V30 6700 H 625.122 -4.77902 -0.338663 0
M  V30 6701 H 623.486 -2.53195 -0.276432 0
M  V30 6702 H 624.269 -3.19411 1.25822 0
M  V30 6703 N 626.714 -0.118576 -1.57153 0
M  V30 6704 C 627.677 0.817464 -2.14127 0
M  V30 6705 C 628.677 1.1949 -1.07604 0
M  V30 6706 O 629.867 1.12048 -1.33382 0
M  V30 6707 C 626.999 2.10541 -2.68115 0
M  V30 6708 H 628.192 0.322339 -2.98163 0
M  V30 6709 H 625.745 0.130655 -1.55753 0
M  V30 6710 H 626.48 2.64485 -1.87665 0
M  V30 6711 H 626.265 1.84425 -3.4602 0
M  V30 6712 H 627.755 2.77453 -3.12105 0
M  V30 6713 N 628.193 1.56834 0.155195 0
M  V30 6714 C 629.103 2.009 1.21146 0
M  V30 6715 C 630.119 0.923029 1.475 0
M  V30 6716 O 631.295 1.23189 1.59331 0
M  V30 6717 C 628.36 2.37378 2.52691 0
M  V30 6718 C 627.421 3.59883 2.34057 0
M  V30 6719 C 626.654 3.94612 3.59329 0
M  V30 6720 O 626.877 3.30104 4.65175 0
M  V30 6721 O 625.811 4.87895 3.52479 0
M  V30 6722 H 629.637 2.9105 0.867371 0
M  V30 6723 H 627.222 1.44916 0.363298 0
M  V30 6724 H 629.104 2.61737 3.3026 0
M  V30 6725 H 627.779 1.50385 2.86646 0
M  V30 6726 H 626.686 3.40722 1.54465 0
M  V30 6727 H 628.019 4.47468 2.0502 0
M  V30 6728 N 629.671 -0.424282 1.51781 0
M  V30 6729 C 630.634 -1.49848 1.73431 0
M  V30 6730 C 631.634 -1.49016 0.604225 0
M  V30 6731 O 632.824 -1.50808 0.871935 0
M  V30 6732 C 629.956 -2.89332 1.80277 0
M  V30 6733 H 631.149 -1.3195 2.69312 0
M  V30 6734 H 628.702 -0.653809 1.41968 0
M  V30 6735 H 629.437 -3.12618 0.862568 0
M  V30 6736 H 629.222 -2.9134 2.62419 0
M  V30 6737 H 630.712 -3.67233 1.98821 0
M  V30 6738 N 631.149 -1.42148 -0.680565 0
M  V30 6739 C 632.059 -1.47565 -1.82378 0
M  V30 6740 C 633.075 -0.36489 -1.70131 0
M  V30 6741 O 634.251 -0.614916 -1.91783 0
M  V30 6742 C 631.316 -1.37013 -3.18478 0
M  V30 6743 C 630.377 -2.58532 -3.42724 0
M  V30 6744 C 629.61 -2.48473 -4.72331 0
M  V30 6745 O 629.833 -1.51745 -5.49845 0
M  V30 6746 O 628.767 -3.38503 -4.97694 0
M  V30 6747 H 632.593 -2.44045 -1.80764 0
M  V30 6748 H 630.178 -1.23849 -0.835569 0
M  V30 6749 H 632.06 -1.33468 -3.99705 0
M  V30 6750 H 630.735 -0.436552 -3.20743 0
M  V30 6751 H 629.642 -2.67652 -2.61368 0
M  V30 6752 H 630.975 -3.50769 -3.45286 0
M  V30 6753 N 632.627 0.916307 -1.28225 0
M  V30 6754 C 633.855 1.69901 -1.18073 0
M  V30 6755 C 634.27 1.86988 0.260968 0
M  V30 6756 O 633.627 1.39505 1.17663 0
M  V30 6757 C 633.678 3.09254 -1.87201 0
M  V30 6758 O 633.399 2.92959 -3.2574 0
M  V30 6759 C 634.9 4.0362 -1.83319 0
M  V30 6760 H 632.12 0.531181 -0.409985 0
M  V30 6761 H 634.664 1.14703 -1.69303 0
M  V30 6762 H 632.819 3.61277 -1.39848 0
M  V30 6763 H 633.233 3.81139 -3.60324 0
M  V30 6764 H 634.707 4.98873 -2.36282 0
M  V30 6765 H 635.184 4.3176 -0.805007 0
M  V30 6766 H 635.79 3.57524 -2.3034 0
M  V30 6767 N 634.105 1.10431 1.1244 0
M  V30 6768 C 635.068 0.756542 2.16354 0
M  V30 6769 C 636.068 -0.21899 1.59302 0
M  V30 6770 O 637.258 0.00415969 1.742 0
M  V30 6771 C 634.39 0.120612 3.40687 0
M  V30 6772 H 635.583 1.67696 2.48632 0
M  V30 6773 H 633.136 0.904832 1.27446 0
M  V30 6774 H 633.871 -0.810536 3.14008 0
M  V30 6775 H 633.656 0.822693 3.83372 0
M  V30 6776 H 635.146 -0.106945 4.17463 0
M  V30 6777 N 635.583 -1.29855 0.893053 0
M  V30 6778 C 636.831 -1.9544 0.514566 0
M  V30 6779 C 637.152 -1.70795 -0.940959 0
M  V30 6780 O 636.422 -1.03601 -1.66264 0
M  V30 6781 H 635.002 -0.723137 0.187302 0
M  V30 6782 H 637.664 -1.58234 1.13789 0
M  V30 6783 H 636.76 -3.04341 0.691581 0
M  V30 6784 N 637.061 -0.65484 -1.43351 0
M  V30 6785 C 638.024 0.0263562 -2.29185 0
M  V30 6786 C 639.024 0.748951 -1.42293 0
M  V30 6787 O 640.214 0.589957 -1.63906 0
M  V30 6788 C 637.346 1.04806 -3.2439 0
M  V30 6789 H 638.539 -0.728883 -2.90908 0
M  V30 6790 H 636.092 -0.416149 -1.50658 0
M  V30 6791 H 636.827 1.83247 -2.67565 0
M  V30 6792 H 636.612 0.533554 -3.88453 0
M  V30 6793 H 638.102 1.52372 -3.88809 0
M  V30 6794 N 638.539 1.52521 -0.396863 0
M  V30 6795 C 639.788 2.00857 0.184184 0
M  V30 6796 C 640.101 1.28733 1.47265 0
M  V30 6797 O 641.307 1.67821 2.13421 0
M  V30 6798 C 639.763 3.57901 0.378787 0
M  V30 6799 C 639.371 4.38931 -0.896873 0
M  V30 6800 C 641.115 4.14504 0.915789 0
M  V30 6801 C 639.022 5.87591 -0.670133 0
M  V30 6802 H 637.952 0.750496 0.0726055 0
M  V30 6803 H 640.603 1.75965 -0.520425 0
M  V30 6804 H 638.985 3.79072 1.14543 0
M  V30 6805 H 640.159 4.29524 -1.66872 0
M  V30 6806 H 638.474 3.93586 -1.35938 0
M  V30 6807 H 641.071 5.23236 1.10126 0
M  V30 6808 H 641.414 3.71076 1.88701 0
M  V30 6809 H 641.947 3.97253 0.208523 0
M  V30 6810 H 638.686 6.35355 -1.61257 0
M  V30 6811 H 638.206 5.99767 0.0626368 0
M  V30 6812 H 639.885 6.46268 -0.307577 0
M  V30 6813 N 640.017 0.126909 1.57088 0
M  V30 6814 C 640.95 -0.857844 2.11462 0
M  V30 6815 C 641.928 -1.25569 1.03301 0
M  V30 6816 O 643.112 -1.35535 1.31006 0
M  V30 6817 C 640.239 -2.14912 2.61784 0
M  V30 6818 C 639.285 -1.89874 3.81903 0
M  V30 6819 S 640.118 -1.10785 5.23915 0
M  V30 6820 C 641.274 -2.41075 5.7761 0
M  V30 6821 H 641.507 -0.395384 2.94659 0
M  V30 6822 H 639.04 -0.0870151 1.54155 0
M  V30 6823 H 640.998 -2.89101 2.91429 0
M  V30 6824 H 639.659 -2.58275 1.78754 0
M  V30 6825 H 638.852 -2.85572 4.15289 0
M  V30 6826 H 638.454 -1.23802 3.52915 0
M  V30 6827 H 640.746 -3.36864 5.87817 0
M  V30 6828 H 641.689 -2.12223 6.75549 0
M  V30 6829 H 642.097 -2.50804 5.05725 0
M  V30 6830 N 641.495 -1.56914 -0.146875 0
M  V30 6831 C 642.458 -1.97368 -1.16526 0
M  V30 6832 C 643.458 -0.860223 -1.35856 0
M  V30 6833 O 644.648 -1.12684 -1.32846 0
M  V30 6834 C 641.78 -2.28974 -2.52555 0
M  V30 6835 H 642.973 -2.88523 -0.818209 0
M  V30 6836 H 640.526 -1.5135 -0.390221 0
M  V30 6837 H 641.261 -1.40611 -2.92231 0
M  V30 6838 H 641.046 -3.10157 -2.39886 0
M  V30 6839 H 642.536 -2.61109 -3.25902 0
M  V30 6840 N 642.974 0.416227 -1.52004 0
M  V30 6841 C 644.221 1.16383 -1.65714 0
M  V30 6842 C 644.549 1.9068 -0.383594 0
M  V30 6843 O 643.804 1.85174 0.633185 0
M  V30 6844 C 644.103 2.18923 -2.82502 0
M  V30 6845 C 643.769 1.61485 -4.20991 0
M  V30 6846 C 642.431 1.45545 -4.58661 0
M  V30 6847 C 644.783 1.19468 -5.07323 0
M  V30 6848 C 642.111 0.860937 -5.80349 0
M  V30 6849 C 644.463 0.614386 -6.29609 0
M  V30 6850 C 643.127 0.442056 -6.66035 0
M  V30 6851 H 642.397 0.425875 -0.606392 0
M  V30 6852 H 645.044 0.45199 -1.8609 0
M  V30 6853 H 643.349 2.96225 -2.56433 0
M  V30 6854 H 645.046 2.76628 -2.90307 0
M  V30 6855 H 641.636 1.74873 -3.91302 0
M  V30 6856 H 645.82 1.30596 -4.78809 0
M  V30 6857 H 641.076 0.715372 -6.072 0
M  V30 6858 H 645.25 0.280393 -6.95835 0
M  V30 6859 H 642.877 -0.0207218 -7.60197 0
M  V30 6860 N 644.452 1.42507 0.673017 0
M  V30 6861 C 645.699 1.43072 1.43306 0
M  V30 6862 C 646.027 0.0478004 1.94441 0
M  V30 6863 O 645.282 -0.944106 1.71421 0
M  V30 6864 C 645.581 2.40351 2.64511 0
M  V30 6865 C 645.247 3.8669 2.31908 0
M  V30 6866 C 643.909 4.26551 2.22728 0
M  V30 6867 C 646.261 4.78991 2.05467 0
M  V30 6868 C 643.589 5.56691 1.85234 0
M  V30 6869 C 645.941 6.09476 1.69477 0
M  V30 6870 C 644.605 6.48334 1.58808 0
M  V30 6871 H 643.875 0.523536 0.524395 0
M  V30 6872 H 646.522 1.75459 0.76723 0
M  V30 6873 H 644.827 2.01297 3.36135 0
M  V30 6874 H 646.524 2.38051 3.22696 0
M  V30 6875 H 643.114 3.55132 2.39956 0
M  V30 6876 H 647.298 4.48982 2.11492 0
M  V30 6877 H 642.554 5.85657 1.75545 0
M  V30 6878 H 646.728 6.80482 1.48043 0
M  V30 6879 H 644.355 7.49084 1.29525 0
M  V30 6880 N 645.93 -0.909495 1.28709 0
M  V30 6881 C 646.86 -2.0291 1.15542 0
M  V30 6882 C 647.841 -1.7002 0.0521017 0
M  V30 6883 O 649.026 -1.92835 0.229849 0
M  V30 6884 C 646.156 -3.37458 0.820935 0
M  V30 6885 C 645.11 -3.84524 1.87949 0
M  V30 6886 C 644.436 -5.16086 1.39854 0
M  V30 6887 C 645.736 -4.05918 3.28676 0
M  V30 6888 H 647.43 -2.14183 2.09203 0
M  V30 6889 H 644.976 -1.02913 1.00722 0
M  V30 6890 H 646.929 -4.1528 0.715571 0
M  V30 6891 H 645.653 -3.26249 -0.151374 0
M  V30 6892 H 644.312 -3.08911 1.97408 0
M  V30 6893 H 643.96 -5.01284 0.41518 0
M  V30 6894 H 643.66 -5.48547 2.1064 0
M  V30 6895 H 645.184 -5.96459 1.30649 0
M  V30 6896 H 646.598 -4.74252 3.22115 0
M  V30 6897 H 644.995 -4.49717 3.97334 0
M  V30 6898 H 646.065 -3.10583 3.72379 0
M  V30 6899 N 647.408 -1.11026 -1.11852 0
M  V30 6900 C 648.648 -0.866348 -1.85132 0
M  V30 6901 C 649.012 0.597236 -1.82475 0
M  V30 6902 O 650.213 0.957744 -2.51159 0
M  V30 6903 C 648.484 -1.40721 -3.28531 0
M  V30 6904 S 650.043 -1.29964 -4.19112 0
M  V30 6905 H 646.861 -0.312899 -0.638447 0
M  V30 6906 H 649.463 -1.41691 -1.34699 0
M  V30 6907 H 648.167 -2.46631 -3.28027 0
M  V30 6908 H 647.698 -0.85349 -3.8403 0
M  V30 6909 H 649.713 -0.261333 -4.95511 0
M  V30 6910 N 648.886 1.2938 -0.899927 0
M  V30 6911 C 649.816 2.30144 -0.39446 0
M  V30 6912 C 650.797 1.61611 0.530639 0
M  V30 6913 O 651.982 1.89119 0.441319 0
M  V30 6914 C 649.112 3.45229 0.37868 0
M  V30 6915 C 648.066 4.25564 -0.456012 0
M  V30 6916 C 647.392 5.32848 0.444637 0
M  V30 6917 C 648.692 4.93651 -1.70605 0
M  V30 6918 H 650.386 2.72673 -1.23653 0
M  V30 6919 H 647.932 1.31086 -0.596034 0
M  V30 6920 H 649.885 4.14797 0.743037 0
M  V30 6921 H 648.609 3.01545 1.25453 0
M  V30 6922 H 647.268 3.57704 -0.802704 0
M  V30 6923 H 646.916 4.85408 1.31863 0
M  V30 6924 H 646.616 5.87497 -0.110154 0
M  V30 6925 H 648.14 6.05268 0.805182 0
M  V30 6926 H 649.554 5.55655 -1.41141 0
M  V30 6927 H 647.951 5.58233 -2.20217 0
M  V30 6928 H 649.021 4.18926 -2.4419 0
M  V30 6929 N 650.364 0.662433 1.43002 0
M  V30 6930 C 651.612 0.179237 2.01304 0
M  V30 6931 C 651.933 -1.21428 1.52579 0
M  V30 6932 O 651.203 -1.81294 0.742252 0
M  V30 6933 H 649.783 0.0632725 0.744316 0
M  V30 6934 H 652.445 0.856169 1.75088 0
M  V30 6935 H 651.541 0.170957 3.11631 0
M  V30 6936 N 651.842 -1.52309 0.404946 0
M  V30 6937 C 652.772 -2.29805 -0.41376 0
M  V30 6938 C 653.753 -1.3384 -1.0498 0
M  V30 6939 O 654.938 -1.62745 -1.05961 0
M  V30 6940 C 652.068 -3.11639 -1.53292 0
M  V30 6941 C 651.022 -4.15616 -1.02211 0
M  V30 6942 C 650.348 -4.8577 -2.23455 0
M  V30 6943 C 651.648 -5.2224 -0.0790725 0
M  V30 6944 H 653.342 -2.98493 0.232878 0
M  V30 6945 H 650.888 -1.43552 0.113441 0
M  V30 6946 H 652.841 -3.64618 -2.11262 0
M  V30 6947 H 651.565 -2.40712 -2.20738 0
M  V30 6948 H 650.224 -3.63641 -0.46484 0
M  V30 6949 H 649.872 -4.11376 -2.89445 0
M  V30 6950 H 649.572 -5.56058 -1.89929 0
M  V30 6951 H 651.096 -5.4156 -2.82038 0
M  V30 6952 H 652.51 -5.70485 -0.567438 0
M  V30 6953 H 650.907 -5.99867 0.167167 0
M  V30 6954 H 651.977 -4.77078 0.867447 0
M  V30 6955 N 653.32 -0.135238 -1.57019 0
M  V30 6956 C 654.283 0.794707 -2.14981 0
M  V30 6957 C 655.283 1.18342 -1.08866 0
M  V30 6958 O 656.473 1.10627 -1.34563 0
M  V30 6959 C 653.605 2.07685 -2.70333 0
M  V30 6960 H 654.798 0.290696 -2.98488 0
M  V30 6961 H 652.351 0.114128 -1.55883 0
M  V30 6962 H 653.086 2.6248 -1.9046 0
M  V30 6963 H 652.871 1.80745 -3.47957 0
M  V30 6964 H 654.361 2.74127 -3.1503 0
M  V30 6965 N 654.798 1.5699 0.138552 0
M  V30 6966 C 655.728 2.01933 1.17241 0
M  V30 6967 C 656.709 0.90033 1.44319 0
M  V30 6968 O 657.894 1.16872 1.55095 0
M  V30 6969 C 655.024 2.40711 2.50351 0
M  V30 6970 C 653.978 3.55874 2.37776 0
M  V30 6971 C 653.304 3.80491 3.75674 0
M  V30 6972 C 654.604 4.8826 1.85472 0
M  V30 6973 H 656.298 2.88551 0.798672 0
M  V30 6974 H 653.844 1.3882 0.382743 0
M  V30 6975 H 655.797 2.70754 3.22909 0
M  V30 6976 H 654.521 1.5104 2.89576 0
M  V30 6977 H 653.18 3.2601 1.67669 0
M  V30 6978 H 652.828 2.88057 4.12349 0
M  V30 6979 H 652.528 4.57998 3.68119 0
M  V30 6980 H 654.052 4.12967 4.49767 0
M  V30 6981 H 655.466 5.16965 2.4783 0
M  V30 6982 H 653.863 5.69631 1.88787 0
M  V30 6983 H 654.933 4.78071 0.810935 0
M  V30 6984 N 656.276 -0.40816 1.52223 0
M  V30 6985 C 657.524 -1.15274 1.66001 0
M  V30 6986 C 657.845 -1.91003 0.392803 0
M  V30 6987 O 657.115 -1.8673 -0.592336 0
M  V30 6988 H 655.695 -0.428526 0.611861 0
M  V30 6989 H 658.357 -0.46512 1.89269 0
M  V30 6990 H 657.453 -1.86628 2.50153 0
M  V30 6991 N 657.755 -1.42862 -0.66545 0
M  V30 6992 C 658.718 -1.46756 -1.76055 0
M  V30 6993 C 659.718 -0.353866 -1.56858 0
M  V30 6994 O 660.908 -0.615099 -1.62979 0
M  V30 6995 C 658.04 -1.30829 -3.14796 0
M  V30 6996 H 659.233 -2.44271 -1.73987 0
M  V30 6997 H 656.786 -1.29447 -0.875965 0
M  V30 6998 H 657.521 -0.342733 -3.22484 0
M  V30 6999 H 657.306 -2.11551 -3.30134 0
M  V30 7000 H 658.796 -1.36458 -3.94676 0
M  V30 7001 N 659.233 0.902656 -1.29189 0
M  V30 7002 C 660.479 1.65532 -1.17163 0
M  V30 7003 C 660.812 1.92216 0.276879 0
M  V30 7004 O 660.087 1.53048 1.20027 0
M  V30 7005 C 660.37 3.00629 -1.98228 0
M  V30 7006 C 660.223 2.81029 -3.51202 0
M  V30 7007 C 661.542 4.01321 -1.80635 0
M  V30 7008 H 658.661 0.60071 -0.426985 0
M  V30 7009 H 661.303 1.04578 -1.5863 0
M  V30 7010 H 659.453 3.52656 -1.62991 0
M  V30 7011 H 661.125 2.35927 -3.96404 0
M  V30 7012 H 659.368 2.1587 -3.76275 0
M  V30 7013 H 660.039 3.77014 -4.03192 0
M  V30 7014 H 662.515 3.58394 -2.11406 0
M  V30 7015 H 661.391 4.93792 -2.3971 0
M  V30 7016 H 661.652 4.35505 -0.760754 0
M  V30 7017 N 660.711 1.11618 1.11262 0
M  V30 7018 C 661.958 0.86618 1.8304 0
M  V30 7019 C 662.286 -0.608149 1.84748 0
M  V30 7020 O 661.541 -1.46508 1.29745 0
M  V30 7021 C 661.84 1.37529 3.2988 0
M  V30 7022 C 661.506 2.86317 3.4833 0
M  V30 7023 C 660.168 3.26945 3.53073 0
M  V30 7024 C 662.52 3.82136 3.54431 0
M  V30 7025 C 659.848 4.62117 3.61475 0
M  V30 7026 C 662.2 5.17128 3.64365 0
M  V30 7027 C 660.864 5.57312 3.67369 0
M  V30 7028 H 660.134 0.316958 0.66979 0
M  V30 7029 H 662.781 1.3949 1.31205 0
M  V30 7030 H 661.086 0.766842 3.84222 0
M  V30 7031 H 662.783 1.15817 3.83911 0
M  V30 7032 H 659.373 2.53889 3.45309 0
M  V30 7033 H 663.557 3.51847 3.50025 0
M  V30 7034 H 658.813 4.92655 3.62079 0
M  V30 7035 H 662.987 5.91208 3.68029 0
M  V30 7036 H 660.614 6.62045 3.73632 0
M  V30 7037 N 662.189 -1.289 0.906776 0
M  V30 7038 C 663.414 -1.99939 0.551303 0
M  V30 7039 C 663.839 -1.67366 -0.858496 0
M  V30 7040 O 663.197 -0.902176 -1.57259 0
M  V30 7041 C 663.245 -3.52523 0.758937 0
M  V30 7042 O 662.349 -4.11983 -0.185308 0
M  V30 7043 H 661.69 -0.628376 0.214568 0
M  V30 7044 H 664.22 -1.64225 1.2203 0
M  V30 7045 H 664.23 -4.02522 0.666329 0
M  V30 7046 H 662.905 -3.75566 1.78671 0
M  V30 7047 H 661.482 -3.72873 -0.0445577 0
M  V30 7048 N 663.667 -0.670007 -1.42649 0
M  V30 7049 C 664.914 -0.190286 -2.01604 0
M  V30 7050 C 665.242 1.20155 -1.52948 0
M  V30 7051 O 664.497 1.81964 -0.72026 0
M  V30 7052 C 664.796 -0.168298 -3.57004 0
M  V30 7053 C 664.462 -1.50415 -4.25072 0
M  V30 7054 C 663.124 -1.86992 -4.43382 0
M  V30 7055 C 665.476 -2.38414 -4.63474 0
M  V30 7056 C 662.804 -3.11203 -4.97363 0
M  V30 7057 C 665.156 -3.61933 -5.18833 0
M  V30 7058 C 663.82 -3.98685 -5.35356 0
M  V30 7059 H 663.09 -0.0696305 -0.737721 0
M  V30 7060 H 665.737 -0.864044 -1.70899 0
M  V30 7061 H 664.042 0.588958 -3.87348 0
M  V30 7062 H 665.739 0.22001 -4.00396 0
M  V30 7063 H 662.329 -1.20959 -4.11177 0
M  V30 7064 H 666.513 -2.11442 -4.49006 0
M  V30 7065 H 661.769 -3.39705 -5.08341 0
M  V30 7066 H 665.943 -4.30326 -5.47533 0
M  V30 7067 H 663.57 -4.95009 -5.76949 0
M  V30 7068 N 665.145 1.52092 -0.413018 0
M  V30 7069 C 666.075 2.30021 0.401567 0
M  V30 7070 C 667.056 1.34395 1.04269 0
M  V30 7071 O 668.241 1.63304 1.05097 0
M  V30 7072 C 665.371 3.12447 1.51638 0
M  V30 7073 C 664.325 4.16153 1.00005 0
M  V30 7074 C 663.651 4.86948 2.20875 0
M  V30 7075 C 664.951 5.22275 0.0513757 0
M  V30 7076 H 666.645 2.98365 -0.248704 0
M  V30 7077 H 664.191 1.4349 -0.121052 0
M  V30 7078 H 666.144 3.65733 2.09326 0
M  V30 7079 H 664.868 2.41879 2.19458 0
M  V30 7080 H 663.527 3.63882 0.445549 0
M  V30 7081 H 663.175 4.12905 2.8726 0
M  V30 7082 H 662.875 5.57057 1.86978 0
M  V30 7083 H 664.399 5.43048 2.79162 0
M  V30 7084 H 665.813 5.70778 0.537176 0
M  V30 7085 H 664.21 5.9977 -0.198977 0
M  V30 7086 H 665.28 4.76611 -0.892736 0
M  V30 7087 N 666.623 0.143563 1.56945 0
M  V30 7088 C 667.87 -0.508407 1.96014 0
M  V30 7089 C 668.198 -1.65099 1.02824 0
M  V30 7090 O 667.453 -1.95618 0.0567764 0
M  V30 7091 C 667.752 -1.05885 3.41355 0
M  V30 7092 C 667.418 -0.0350809 4.50886 0
M  V30 7093 C 666.08 0.246362 4.80569 0
M  V30 7094 C 668.432 0.661282 5.16988 0
M  V30 7095 C 665.76 1.23003 5.73661 0
M  V30 7096 C 668.112 1.63375 6.11139 0
M  V30 7097 C 666.776 1.92292 6.39203 0
M  V30 7098 H 666.046 -0.186039 0.717266 0
M  V30 7099 H 668.693 0.229667 1.90118 0
M  V30 7100 H 666.998 -1.87419 3.44066 0
M  V30 7101 H 668.695 -1.57183 3.6891 0
M  V30 7102 H 665.285 -0.264622 4.27782 0
M  V30 7103 H 669.469 0.457038 4.94191 0
M  V30 7104 H 664.725 1.46056 5.93698 0
M  V30 7105 H 668.899 2.17887 6.61436 0
M  V30 7106 H 666.526 2.68666 7.11142 0
M  V30 7107 N 668.101 -1.57061 -0.130224 0
M  V30 7108 C 669.517 -1.52103 -0.483413 0
M  V30 7109 C 669.717 -0.854752 -1.82473 0
M  V30 7110 O 668.773 -0.432342 -2.48771 0
M  V30 7111 C 670.086 -2.96872 -0.47825 0
M  V30 7112 C 671.634 -3.07902 -0.562592 0
M  V30 7113 C 672.109 -4.54211 -0.587929 0
M  V30 7114 N 673.6 -4.58621 -0.649684 0
M  V30 7115 C 674.335 -5.69227 -0.690551 0
M  V30 7116 N 673.831 -6.89358 -0.689743 0
M  V30 7117 N 675.624 -5.57304 -0.732708 0
M  V30 7118 H 667.775 -1.98764 0.748779 0
M  V30 7119 H 670.038 -0.907248 0.274965 0
M  V30 7120 H 669.744 -3.48944 0.439444 0
M  V30 7121 H 669.618 -3.53716 -1.31013 0
M  V30 7122 H 672.005 -2.5584 -1.47071 0
M  V30 7123 H 672.086 -2.54073 0.296764 0
M  V30 7124 H 671.73 -5.06915 0.316096 0
M  V30 7125 H 671.66 -5.0584 -1.46401 0
M  V30 7126 H 674.151 -3.72146 -0.656927 0
M  V30 7127 H 674.464 -7.69408 -0.723239 0
M  V30 7128 H 672.809 -6.91884 -0.657347 0
M  V30 7129 H 676 -4.62363 -0.730625 0
M  V30 7130 H 676.173 -6.43515 -0.76109 0
M  V30 7131 N 669.579 0.400081 -1.52437 0
M  V30 7132 C 670.542 1.4707 -1.75793 0
M  V30 7133 C 671.542 1.48036 -0.627856 0
M  V30 7134 O 672.732 1.49401 -0.895817 0
M  V30 7135 C 669.864 2.86427 -1.84858 0
M  V30 7136 H 671.057 1.27649 -2.71377 0
M  V30 7137 H 668.61 0.631141 -1.42991 0
M  V30 7138 H 669.345 3.11207 -0.912194 0
M  V30 7139 H 669.13 2.87128 -2.6702 0
M  V30 7140 H 670.62 3.64023 -2.04638 0
M  V30 7141 N 671.057 1.43213 0.657864 0
M  V30 7142 C 672.306 1.43871 1.41365 0
M  V30 7143 C 672.619 0.064898 1.95492 0
M  V30 7144 O 673.825 -0.0510796 2.71452 0
M  V30 7145 C 672.281 2.53158 2.55811 0
M  V30 7146 C 671.889 3.96624 2.08311 0
M  V30 7147 C 673.633 2.63004 3.3321 0
M  V30 7148 C 671.54 4.97385 3.1994 0
M  V30 7149 H 670.47 0.535174 0.531136 0
M  V30 7150 H 673.121 1.69185 0.710543 0
M  V30 7151 H 671.503 2.21037 3.2857 0
M  V30 7152 H 672.677 4.38182 1.42593 0
M  V30 7153 H 670.992 3.90781 1.43804 0
M  V30 7154 H 673.589 3.3546 4.16378 0
M  V30 7155 H 673.932 1.67918 3.80932 0
M  V30 7156 H 674.465 2.94403 2.67529 0
M  V30 7157 H 671.204 5.94007 2.77192 0
M  V30 7158 H 670.724 4.60444 3.84385 0
M  V30 7159 H 672.403 5.19877 3.85145 0
M  V30 7160 N 672.536 -0.895792 1.29666 0
M  V30 7161 C 673.782 -1.64908 1.18039 0
M  V30 7162 C 674.115 -1.9236 -0.266682 0
M  V30 7163 O 673.39 -1.53682 -1.19214 0
M  V30 7164 C 673.673 -2.99574 1.99819 0
M  V30 7165 C 673.526 -2.79163 3.52687 0
M  V30 7166 C 674.845 -4.00358 1.82761 0
M  V30 7167 H 671.964 -0.598437 0.430165 0
M  V30 7168 H 674.606 -1.03736 1.59182 0
M  V30 7169 H 672.756 -3.51786 1.64859 0
M  V30 7170 H 674.428 -2.33821 3.9765 0
M  V30 7171 H 672.671 -2.13871 3.77414 0
M  V30 7172 H 673.342 -3.74871 4.05186 0
M  V30 7173 H 675.818 -3.57268 2.13304 0
M  V30 7174 H 674.694 -4.92514 2.42325 0
M  V30 7175 H 674.955 -4.35096 0.783839 0
M  V30 7176 O 674.053 -1.24272 -1.03144 0
M  V30 7177 H 674.744 -1.0191 -1.64724 0
M  V30 END ATOM
M  V30 BEGIN BOND
M  V30 END BOND
M  V30 END CTAB
M  END
$$$$
