drugbank_drug|DB11767  Heavy chain
 OpenBabel12092119123D

  0  0  0     0  0            999 V3000
M  V30 BEGIN CTAB
M  V30 COUNTS 6817 6908 0 0 0
M  V30 BEGIN ATOM
M  V30 1 H -0.908 1.98254 -0.117106 0
M  V30 2 N 0 1.576 0 0
M  V30 3 C 0.91 2.11853 1.00774 0
M  V30 4 C 1.926 1.06379 1.37693 0
M  V30 5 O 3.102 1.3828 1.46426 0
M  V30 6 C 0.167 2.61108 2.28087 0
M  V30 7 C -0.772 3.81183 1.9748 0
M  V30 8 C -1.539 4.28079 3.18723 0
M  V30 9 O -1.316 3.74307 4.30407 0
M  V30 10 O -2.382 5.20234 3.02721 0
M  V30 11 H 1.444 2.98177 0.576547 0
M  V30 12 H -0.971 1.47789 0.218828 0
M  V30 13 H 0.911 2.92987 3.0288 0
M  V30 14 H -0.414 1.77881 2.70444 0
M  V30 15 H -1.507 3.54277 1.20162 0
M  V30 16 H -0.174 4.65482 1.5996 0
M  V30 17 N 1.4781 -0.272755 1.55222 0
M  V30 18 C 2.7241 -1.00581 1.761 0
M  V30 19 C 3.0571 -1.85932 0.560625 0
M  V30 20 O 2.3321 -1.89416 -0.441801 0
M  V30 21 C 2.6151 -1.88816 3.06628 0
M  V30 22 C 2.4681 -1.06457 4.37021 0
M  V30 23 C 3.7871 -2.8752 3.33197 0
M  V30 24 H 0.9061 -0.364244 0.640699 0
M  V30 25 H 3.5481 -0.278189 1.87952 0
M  V30 26 H 1.6981 -2.50856 2.96654 0
M  V30 27 H 3.3701 -0.464863 4.58952 0
M  V30 28 H 1.6131 -0.368043 4.32236 0
M  V30 29 H 2.2841 -1.71514 5.24678 0
M  V30 30 H 4.7601 -2.35615 3.42965 0
M  V30 31 H 3.6361 -3.46399 4.25792 0
M  V30 32 H 3.8971 -3.62657 2.52849 0
M  V30 33 N 2.9562 -1.48159 -0.537278 0
M  V30 34 C 3.8882 -1.58218 -1.65831 0
M  V30 35 C 4.9012 -0.466948 -1.5596 0
M  V30 36 O 6.0902 -0.73747 -1.62553 0
M  V30 37 C 3.1902 -1.48906 -3.04434 0
M  V30 38 C 2.3632 -2.75343 -3.3986 0
M  V30 39 C 1.4222 -2.59588 -4.57712 0
M  V30 40 O 0.4482 -3.33457 -4.61297 0
M  V30 41 N 1.6502 -1.68724 -5.55439 0
M  V30 42 H 4.4152 -2.54891 -1.57641 0
M  V30 43 H 1.9762 -1.4479 -0.724386 0
M  V30 44 H 3.9682 -1.36072 -3.81139 0
M  V30 45 H 2.5382 -0.602368 -3.06741 0
M  V30 46 H 1.7582 -3.02795 -2.52406 0
M  V30 47 H 3.0462 -3.5924 -3.60311 0
M  V30 48 H 2.4442 -1.07898 -5.55315 0
M  V30 49 H 1.0012 -1.61832 -6.3139 0
M  V30 50 N 4.4343 0.785586 -1.36625 0
M  V30 51 C 5.3643 1.91259 -1.33949 0
M  V30 52 C 6.3453 1.68795 -0.210325 0
M  V30 53 O 7.5303 1.89854 -0.408561 0
M  V30 54 C 4.6603 3.28339 -1.13186 0
M  V30 55 C 3.6143 3.65335 -2.22967 0
M  V30 56 C 2.9403 5.00806 -1.87342 0
M  V30 57 C 4.2403 3.7352 -3.65075 0
M  V30 58 H 5.9343 1.93755 -2.28253 0
M  V30 59 H 3.4803 0.930788 -1.09874 0
M  V30 60 H 5.4333 4.06804 -1.09948 0
M  V30 61 H 4.1573 3.2624 -0.153332 0
M  V30 62 H 2.8163 2.89169 -2.25337 0
M  V30 63 H 2.4643 4.95233 -0.880545 0
M  V30 64 H 2.1643 5.26529 -2.60846 0
M  V30 65 H 3.6883 5.81687 -1.85667 0
M  V30 66 H 5.1023 4.42168 -3.64911 0
M  V30 67 H 3.4993 4.10731 -4.37516 0
M  V30 68 H 4.5693 2.74527 -3.99703 0
M  V30 69 N 5.9124 1.20967 1.01018 0
M  V30 70 C 7.1584 1.02526 1.74975 0
M  V30 71 C 7.4914 -0.4408 1.89131 0
M  V30 72 O 6.7664 -1.32718 1.42184 0
M  V30 73 C 7.0494 1.71699 3.1653 0
M  V30 74 C 6.9024 3.25791 3.10129 0
M  V30 75 C 8.2214 1.45531 4.15342 0
M  V30 76 H 5.3404 0.373863 0.635134 0
M  V30 77 H 7.9824 1.49071 1.17805 0
M  V30 78 H 6.1324 1.32128 3.65341 0
M  V30 79 H 7.8044 3.74697 2.69072 0
M  V30 80 H 6.0474 3.56363 2.47362 0
M  V30 81 H 6.7184 3.69353 4.10222 0
M  V30 82 H 9.1944 1.79872 3.75213 0
M  V30 83 H 8.0704 1.96453 5.1254 0
M  V30 84 H 8.3314 0.384237 4.40427 0
M  V30 85 N 7.3905 -1.2043 1.01659 0
M  V30 86 C 8.3005 -2.2689 0.596484 0
M  V30 87 C 9.3165 -1.70107 -0.36599 0
M  V30 88 O 10.4925 -2.00117 -0.226942 0
M  V30 89 C 7.5575 -3.4665 -0.0586659 0
M  V30 90 C 6.6185 -4.18662 0.949751 0
M  V30 91 C 5.8515 -5.32705 0.32577 0
M  V30 92 O 6.0745 -5.63656 -0.874509 0
M  V30 93 O 5.0085 -5.92803 1.04249 0
M  V30 94 H 8.8345 -2.65041 1.4828 0
M  V30 95 H 6.4195 -1.27048 0.786082 0
M  V30 96 H 8.3015 -4.19256 -0.424564 0
M  V30 97 H 6.9765 -3.10375 -0.91918 0
M  V30 98 H 5.8835 -3.48229 1.36702 0
M  V30 99 H 7.2165 -4.58878 1.78023 0
M  V30 100 N 8.8686 -0.792821 -1.36206 0
M  V30 101 C 10.0936 -0.377701 -2.03932 0
M  V30 102 C 10.5186 0.998947 -1.59382 0
M  V30 103 O 9.8766 1.64421 -0.763903 0
M  V30 104 C 9.9246 -0.453635 -3.57735 0
M  V30 105 O 9.0286 0.538151 -4.08874 0
M  V30 106 H 8.3696 -0.159855 -0.644471 0
M  V30 107 H 10.8996 -1.07488 -1.7409 0
M  V30 108 H 10.9096 -0.318464 -4.06755 0
M  V30 109 H 9.5846 -1.45784 -3.89512 0
M  V30 110 H 8.1616 0.364359 -3.71116 0
M  V30 111 N 10.3467 1.47872 -0.545128 0
M  V30 112 C 11.5947 2.02093 -0.016553 0
M  V30 113 C 11.9157 1.42305 1.3332 0
M  V30 114 O 11.1857 0.593853 1.86682 0
M  V30 115 H 9.7657 0.746993 -0.00313038 0
M  V30 116 H 12.4277 1.81414 -0.712397 0
M  V30 117 H 11.5237 3.11996 0.0805422 0
M  V30 118 N 11.8248 0.280983 1.55075 0
M  V30 119 C 13.0728 -0.333455 1.9933 0
M  V30 120 C 13.3938 -1.55937 1.17085 0
M  V30 121 O 12.6638 -1.94143 0.261805 0
M  V30 122 H 11.2438 -0.126197 0.736263 0
M  V30 123 H 13.9058 0.387678 1.91005 0
M  V30 124 H 13.0018 -0.619292 3.05894 0
M  V30 125 N 13.3029 -1.57598 0.00835791 0
M  V30 126 C 14.5509 -1.90551 -0.6734 0
M  V30 127 C 14.8719 -0.883301 -1.73847 0
M  V30 128 O 14.1419 0.0781442 -1.95744 0
M  V30 129 H 12.7219 -0.703312 -0.251717 0
M  V30 130 H 15.3839 -1.94833 0.0512592 0
M  V30 131 H 14.4799 -2.9056 -1.13935 0
M  V30 132 N 14.781 0.264519 -1.55364 0
M  V30 133 C 15.711 1.33121 -1.91836 0
M  V30 134 C 16.692 1.51101 -0.781192 0
M  V30 135 O 17.877 1.64003 -1.04003 0
M  V30 136 C 15.007 2.68921 -2.19769 0
M  V30 137 C 13.961 2.65661 -3.35571 0
M  V30 138 C 13.287 4.05093 -3.49004 0
M  V30 139 C 14.587 2.24187 -4.71739 0
M  V30 140 H 16.281 1.02844 -2.81182 0
M  V30 141 H 13.827 0.493286 -1.35287 0
M  V30 142 H 15.78 3.43663 -2.43872 0
M  V30 143 H 14.504 3.00799 -1.27231 0
M  V30 144 H 13.163 1.93377 -3.1145 0
M  V30 145 H 12.811 4.34206 -2.53917 0
M  V30 146 H 12.511 4.03804 -4.26868 0
M  V30 147 H 14.035 4.81561 -3.75408 0
M  V30 148 H 15.449 2.88654 -4.9533 0
M  V30 149 H 13.846 2.34044 -5.52579 0
M  V30 150 H 14.916 1.19327 -4.69988 0
M  V30 151 N 16.2591 1.48442 0.529413 0
M  V30 152 C 17.5051 1.5672 1.28711 0
M  V30 153 C 17.8381 0.2406 1.92704 0
M  V30 154 O 17.1131 -0.753454 1.79313 0
M  V30 155 C 17.3961 2.70587 2.37603 0
M  V30 156 C 17.2491 4.12953 1.78297 0
M  V30 157 C 18.5681 2.80212 3.39366 0
M  V30 158 H 15.6871 0.570474 0.466613 0
M  V30 159 H 18.3291 1.80617 0.589706 0
M  V30 160 H 16.4791 2.50342 2.97088 0
M  V30 161 H 18.1511 4.44639 1.22858 0
M  V30 162 H 16.3941 4.19927 1.0883 0
M  V30 163 H 17.0651 4.88448 2.57144 0
M  V30 164 H 19.5411 2.98553 2.89836 0
M  V30 165 H 18.4171 3.61611 4.12951 0
M  V30 166 H 18.6781 1.88393 3.99951 0
M  V30 167 N 17.7372 -0.778329 1.37039 0
M  V30 168 C 18.6692 -1.90034 1.2814 0
M  V30 169 C 19.6822 -1.61585 0.198558 0
M  V30 170 O 20.8712 -1.72625 0.454175 0
M  V30 171 C 17.9712 -3.25108 0.956968 0
M  V30 172 C 17.1442 -3.81253 2.14394 0
M  V30 173 C 16.2032 -4.94789 1.79082 0
M  V30 174 O 15.2292 -5.10721 2.51301 0
M  V30 175 N 16.4312 -5.75878 0.731043 0
M  V30 176 H 19.1962 -1.98186 2.24816 0
M  V30 177 H 16.7572 -0.957129 1.30578 0
M  V30 178 H 18.7492 -3.9857 0.701701 0
M  V30 179 H 17.3192 -3.125 0.0789812 0
M  V30 180 H 16.5392 -2.99647 2.56135 0
M  V30 181 H 17.8272 -4.15495 2.93668 0
M  V30 182 H 17.2252 -5.65547 0.131618 0
M  V30 183 H 15.7822 -6.49596 0.535622 0
M  V30 184 N 19.2153 -1.21501 -1.00376 0
M  V30 185 C 20.6263 -1.03146 -1.55621 0
M  V30 186 C 20.9773 0.408375 -1.91903 0
M  V30 187 O 20.1023 1.29177 -1.73616 0
M  V30 188 C 20.6973 -1.86612 -2.82775 0
M  V30 189 C 19.2563 -1.72586 -3.34501 0
M  V30 190 C 18.4033 -1.83747 -2.07683 0
M  V30 191 H 21.3543 -1.35505 -0.826081 0
M  V30 192 H 21.3753 -1.3771 -3.54706 0
M  V30 193 H 20.8873 -2.91399 -2.56336 0
M  V30 194 H 18.9883 -0.704877 -3.65872 0
M  V30 195 H 19.1013 -2.54623 -4.05837 0
M  V30 196 H 17.4653 -1.27069 -2.20739 0
M  V30 197 H 18.2483 -2.90044 -1.83655 0
M  V30 198 N 20.6934 1.19889 -1.02296 0
M  V30 199 C 21.9414 1.89046 -0.714558 0
M  V30 200 C 22.2624 1.79636 0.758681 0
M  V30 201 O 21.5324 1.20292 1.54618 0
M  V30 202 H 20.1124 0.699802 -0.261317 0
M  V30 203 H 22.7744 1.45574 -1.29592 0
M  V30 204 H 21.8704 2.95524 -1.0036 0
M  V30 205 N 22.1715 0.800033 1.35784 0
M  V30 206 C 23.5875 0.482977 1.52117 0
M  V30 207 C 23.7875 -0.996948 1.75109 0
M  V30 208 O 22.8435 -1.78216 1.78872 0
M  V30 209 C 24.1565 1.32264 2.70049 0
M  V30 210 C 25.7045 1.31742 2.83924 0
M  V30 211 C 26.1795 2.14106 4.04874 0
M  V30 212 N 27.6705 2.11607 4.12039 0
M  V30 213 C 28.4055 2.72099 5.04727 0
M  V30 214 N 27.9015 3.41492 6.02789 0
M  V30 215 N 29.6945 2.61776 4.97423 0
M  V30 216 H 21.8455 1.75856 1.19115 0
M  V30 217 H 24.1085 0.748122 0.582252 0
M  V30 218 H 23.8145 2.37261 2.59616 0
M  V30 219 H 23.6885 0.971303 3.6448 0
M  V30 220 H 26.0755 0.275333 2.93813 0
M  V30 221 H 26.1565 1.70859 1.9037 0
M  V30 222 H 25.8005 3.18351 3.95746 0
M  V30 223 H 25.7305 1.72353 4.97596 0
M  V30 224 H 28.2215 1.61112 3.41835 0
M  V30 225 H 28.5345 3.84953 6.70098 0
M  V30 226 H 26.8795 3.45596 6.02983 0
M  V30 227 H 30.0705 2.07157 4.19766 0
M  V30 228 H 30.2435 3.0921 5.69468 0
M  V30 229 N 23.6496 -1.47581 0.552962 0
M  V30 230 C 24.8746 -2.07378 0.0300593 0
M  V30 231 C 25.2996 -1.40355 -1.25229 0
M  V30 232 O 24.6576 -0.477099 -1.7491 0
M  V30 233 C 24.7056 -3.60274 -0.153231 0
M  V30 234 O 23.8096 -3.94041 -1.21678 0
M  V30 235 H 23.1506 -0.662158 0.0494182 0
M  V30 236 H 25.6806 -1.89662 0.767434 0
M  V30 237 H 25.6906 -4.0633 -0.368761 0
M  V30 238 H 24.3656 -4.08455 0.783397 0
M  V30 239 H 22.9426 -3.59735 -0.982079 0
M  V30 240 N 25.1277 -0.289203 -1.54924 0
M  V30 241 C 26.0577 0.58549 -2.2604 0
M  V30 242 C 27.0387 1.14753 -1.25562 0
M  V30 243 O 28.2237 1.17906 -1.54311 0
M  V30 244 C 25.3537 1.76305 -2.99222 0
M  V30 245 C 24.3077 1.33191 -4.06748 0
M  V30 246 C 23.6337 2.5937 -4.6758 0
M  V30 247 C 24.9337 0.471775 -5.20165 0
M  V30 248 H 26.6277 -0.00763532 -2.99399 0
M  V30 249 H 24.1737 -0.00511229 -1.43999 0
M  V30 250 H 26.1267 2.38097 -3.47689 0
M  V30 251 H 24.8507 2.38223 -2.23422 0
M  V30 252 H 23.5097 0.737121 -3.59113 0
M  V30 253 H 23.1577 3.19576 -3.88433 0
M  V30 254 H 22.8577 2.31228 -5.40192 0
M  V30 255 H 24.3817 3.21985 -5.18804 0
M  V30 256 H 25.7957 0.995056 -5.64599 0
M  V30 257 H 24.1927 0.284639 -5.99425 0
M  V30 258 H 25.2627 -0.506041 -4.82252 0
M  V30 259 N 26.6058 1.57591 -0.0167156 0
M  V30 260 C 28.0218 1.55946 0.339557 0
M  V30 261 C 28.2218 1.02109 1.73713 0
M  V30 262 O 27.2778 0.662303 2.43659 0
M  V30 263 C 28.5908 3.00037 0.199499 0
M  V30 264 C 30.1388 3.11805 0.273193 0
M  V30 265 C 30.6138 4.57713 0.162068 0
M  V30 266 N 32.1048 4.6268 0.219444 0
M  V30 267 C 32.8398 5.73185 0.157054 0
M  V30 268 N 32.3358 6.92786 0.0442936 0
M  V30 269 N 34.1288 5.61707 0.21014 0
M  V30 270 H 26.2798 1.90921 -0.930758 0
M  V30 271 H 28.5428 0.877674 -0.358319 0
M  V30 272 H 28.2488 3.4333 -0.76273 0
M  V30 273 H 28.1228 3.64387 0.974786 0
M  V30 274 H 30.5098 2.68433 1.22587 0
M  V30 275 H 30.5908 2.50201 -0.532256 0
M  V30 276 H 30.2348 5.01763 -0.78714 0
M  V30 277 H 30.1648 5.17283 0.986222 0
M  V30 278 H 32.6558 3.76649 0.307246 0
M  V30 279 H 32.9688 7.728 0.00304069 0
M  V30 280 H 31.3138 6.94999 0.00968457 0
M  V30 281 H 34.5048 4.6716 0.296546 0
M  V30 282 H 34.6778 6.47807 0.158054 0
M  V30 283 N 28.0839 -0.256276 1.55502 0
M  V30 284 C 29.0139 -1.32102 1.92539 0
M  V30 285 C 29.9949 -1.50684 0.789194 0
M  V30 286 O 31.1799 -1.63449 1.04872 0
M  V30 287 C 28.3099 -2.67752 2.21192 0
M  V30 288 C 27.2639 -2.63878 3.36975 0
M  V30 289 C 26.5899 -4.03236 3.51147 0
M  V30 290 C 27.8899 -2.21682 4.72921 0
M  V30 291 H 29.5839 -1.01351 2.81724 0
M  V30 292 H 27.1299 -0.486105 1.35547 0
M  V30 293 H 29.0829 -3.42365 2.45691 0
M  V30 294 H 27.8069 -3.0012 1.28824 0
M  V30 295 H 26.4659 -1.91722 3.12471 0
M  V30 296 H 26.1139 -4.32854 2.56216 0
M  V30 297 H 25.8139 -4.01535 4.29003 0
M  V30 298 H 27.3379 -4.79563 3.77957 0
M  V30 299 H 28.7519 -2.86023 4.96854 0
M  V30 300 H 27.1489 -2.3111 5.53812 0
M  V30 301 H 28.2189 -1.16833 4.70615 0
M  V30 302 N 29.562 -1.4872 -0.521534 0
M  V30 303 C 30.787 -1.61101 -1.30618 0
M  V30 304 C 31.212 -0.274611 -1.86085 0
M  V30 305 O 30.57 0.754937 -1.64834 0
M  V30 306 C 30.618 -2.66709 -2.4269 0
M  V30 307 O 29.722 -2.24456 -3.45967 0
M  V30 308 H 29.063 -0.539921 -0.386499 0
M  V30 309 H 31.593 -1.94767 -0.626645 0
M  V30 310 H 31.603 -2.88245 -2.88754 0
M  V30 311 H 30.278 -3.63727 -2.01682 0
M  V30 312 H 28.855 -2.13168 -3.05964 0
M  V30 313 N 31.0401 0.771051 -1.3745 0
M  V30 314 C 32.2801 1.54264 -1.34096 0
M  V30 315 C 32.6441 1.91858 0.0737639 0
M  V30 316 O 33.8451 2.67797 0.23203 0
M  V30 317 C 32.1161 2.77326 -2.25445 0
M  V30 318 S 33.6751 3.67383 -2.39948 0
M  V30 319 H 30.4931 0.528122 -0.476034 0
M  V30 320 H 33.0951 0.906633 -1.73206 0
M  V30 321 H 31.7991 2.47788 -3.27153 0
M  V30 322 H 31.3301 3.45886 -1.87421 0
M  V30 323 H 33.3451 4.69334 -1.61059 0
M  V30 324 N 32.5182 1.22032 0.997298 0
M  V30 325 C 33.4812 0.987909 2.06816 0
M  V30 326 C 34.4812 -0.0440084 1.6074 0
M  V30 327 O 35.6712 0.194053 1.73116 0
M  V30 328 C 32.8032 0.49132 3.37341 0
M  V30 329 H 33.9962 1.93803 2.28868 0
M  V30 330 H 31.5492 1.03838 1.16822 0
M  V30 331 H 32.2842 -0.463364 3.20973 0
M  V30 332 H 32.0692 1.23575 3.72118 0
M  V30 333 H 33.5592 0.348824 4.16141 0
M  V30 334 N 33.9963 -1.19345 1.0293 0
M  V30 335 C 34.9593 -2.20793 0.615069 0
M  V30 336 C 35.9593 -1.57553 -0.321533 0
M  V30 337 O 37.1493 -1.73862 -0.108483 0
M  V30 338 C 34.2813 -3.40754 -0.0999222 0
M  V30 339 H 35.4743 -2.58955 1.51269 0
M  V30 340 H 33.0273 -1.3303 0.820534 0
M  V30 341 H 33.7623 -3.0811 -1.01187 0
M  V30 342 H 33.5473 -3.87889 0.57309 0
M  V30 343 H 35.0373 -4.15898 -0.376645 0
M  V30 344 N 35.4744 -0.807222 -1.35358 0
M  V30 345 C 36.6994 -0.399309 -2.0352 0
M  V30 346 C 37.1244 0.981986 -1.60433 0
M  V30 347 O 36.4824 1.63601 -0.781299 0
M  V30 348 C 36.5304 -0.491552 -3.57234 0
M  V30 349 O 35.6344 0.494754 -4.09421 0
M  V30 350 H 34.9754 -0.166682 -0.642739 0
M  V30 351 H 37.5054 -1.09328 -1.72941 0
M  V30 352 H 37.5154 -0.361588 -4.06395 0
M  V30 353 H 36.1904 -1.49907 -3.87944 0
M  V30 354 H 34.7674 0.324977 -3.71481 0
M  V30 355 N 36.9525 1.47285 -0.560781 0
M  V30 356 C 38.3685 1.58065 -0.22081 0
M  V30 357 C 38.5685 1.55892 1.27671 0
M  V30 358 O 37.6245 1.46422 2.0571 0
M  V30 359 C 38.9375 2.88418 -0.850625 0
M  V30 360 C 40.4855 3.02009 -0.822184 0
M  V30 361 C 40.9605 4.35066 -1.43113 0
M  V30 362 N 42.4515 4.41711 -1.39448 0
M  V30 363 C 43.1865 5.43237 -1.83525 0
M  V30 364 N 42.6825 6.51555 -2.35474 0
M  V30 365 N 44.4755 5.34304 -1.74574 0
M  V30 366 H 36.6265 1.46941 -1.53369 0
M  V30 367 H 38.8895 0.699558 -0.639783 0
M  V30 368 H 38.5955 2.95755 -1.9032 0
M  V30 369 H 38.4695 3.75612 -0.345773 0
M  V30 370 H 40.8565 2.94266 0.221714 0
M  V30 371 H 40.9375 2.16347 -1.36483 0
M  V30 372 H 40.5815 4.43565 -2.47412 0
M  V30 373 H 40.5115 5.19465 -0.863899 0
M  V30 374 H 43.0025 3.64027 -1.01452 0
M  V30 375 H 43.3155 7.25203 -2.67021 0
M  V30 376 H 41.6605 6.52435 -2.39487 0
M  V30 377 H 44.8515 4.48581 -1.33763 0
M  V30 378 H 45.0245 6.13288 -2.09242 0
M  V30 379 N 38.4306 0.297415 1.54768 0
M  V30 380 C 39.6776 -0.312913 2.00068 0
M  V30 381 C 40.0056 -1.54171 1.18582 0
M  V30 382 O 39.2606 -1.94108 0.249133 0
M  V30 383 C 39.5596 -0.717561 3.50123 0
M  V30 384 C 39.2256 0.409095 4.4904 0
M  V30 385 C 37.8876 0.718399 4.75807 0
M  V30 386 C 40.2396 1.16717 5.07963 0
M  V30 387 C 37.5676 1.78896 5.5876 0
M  V30 388 C 39.9196 2.22762 5.92081 0
M  V30 389 C 38.5836 2.54303 6.1716 0
M  V30 390 H 37.8536 -0.114503 0.7321 0
M  V30 391 H 40.5006 0.415767 1.86932 0
M  V30 392 H 38.8056 -1.52627 3.60849 0
M  V30 393 H 40.5026 -1.20091 3.82595 0
M  V30 394 H 37.0926 0.157918 4.28309 0
M  V30 395 H 41.2766 0.941466 4.87289 0
M  V30 396 H 36.5326 2.0381 5.7643 0
M  V30 397 H 40.7066 2.81962 6.36765 0
M  V30 398 H 38.3336 3.3739 6.81229 0
M  V30 399 N 39.9087 -1.5758 0.0250728 0
M  V30 400 C 41.1367 -1.9593 -0.664747 0
M  V30 401 C 41.5517 -0.901352 -1.65895 0
M  V30 402 O 40.9087 0.117255 -1.82123 0
M  V30 403 C 40.9597 -3.34342 -1.37468 0
M  V30 404 O 40.6807 -4.36079 -0.420324 0
M  V30 405 C 42.1817 -3.873 -2.1567 0
M  V30 406 H 39.4017 -0.645405 -0.183557 0
M  V30 407 H 41.9457 -2.04329 0.0836372 0
M  V30 408 H 40.1007 -3.27175 -2.0745 0
M  V30 409 H 40.5147 -5.16297 -0.923991 0
M  V30 410 H 41.9887 -4.86504 -2.60803 0
M  V30 411 H 42.4657 -3.21331 -2.99405 0
M  V30 412 H 43.0717 -3.97723 -1.50654 0
M  V30 413 N 41.3868 0.248026 -1.55636 0
M  V30 414 C 42.6338 0.976224 -1.77415 0
M  V30 415 C 42.9618 1.85361 -0.589193 0
M  V30 416 O 42.2168 1.90973 0.427529 0
M  V30 417 C 42.5158 1.86819 -3.04686 0
M  V30 418 C 42.1818 1.14625 -4.36087 0
M  V30 419 C 40.8438 0.946723 -4.71795 0
M  V30 420 C 43.1958 0.634463 -5.17324 0
M  V30 421 C 40.5238 0.223091 -5.86276 0
M  V30 422 C 42.8758 -0.0756959 -6.32555 0
M  V30 423 C 41.5398 -0.286711 -6.66884 0
M  V30 424 H 40.8098 0.357226 -0.649208 0
M  V30 425 H 43.4568 0.246415 -1.89908 0
M  V30 426 H 41.7618 2.66502 -2.872 0
M  V30 427 H 43.4588 2.43329 -3.18735 0
M  V30 428 H 40.0488 1.3117 -4.08035 0
M  V30 429 H 44.2328 0.77616 -4.90193 0
M  V30 430 H 39.4888 0.0491185 -6.1138 0
M  V30 431 H 43.6628 -0.479899 -6.94745 0
M  V30 432 H 41.2898 -0.849389 -7.5544 0
M  V30 433 N 42.8649 1.48995 0.513639 0
M  V30 434 C 44.1419 1.48338 1.27495 0
M  V30 435 C 44.5219 0.204065 2.10111 0
M  V30 436 O 43.8699 -0.813881 2.13514 0
M  V30 437 C 44.0799 2.75498 2.14247 0
M  V30 438 C 45.4279 3.24484 2.73852 0
M  V30 439 O 46.4519 2.76528 2.24523 0
M  V30 440 O 45.3109 4.07974 3.6362 0
M  V30 441 H 42.4049 0.593149 0.576284 0
M  V30 442 H 44.9509 1.61246 0.528948 0
M  V30 443 H 43.7229 3.60109 1.53092 0
M  V30 444 H 43.3459 2.6539 2.96064 0
M  V30 445 N 44.343 -0.763751 1.37857 0
M  V30 446 C 45.62 -1.51244 1.24035 0
M  V30 447 C 46 -2.10472 -0.162649 0
M  V30 448 O 45.348 -1.96206 -1.17112 0
M  V30 449 C 45.558 -2.58694 2.34261 0
M  V30 450 C 46.906 -3.25878 2.72193 0
M  V30 451 O 47.93 -2.68993 2.33497 0
M  V30 452 O 46.789 -4.2874 3.38887 0
M  V30 453 H 43.883 -0.670243 0.484462 0
M  V30 454 H 46.429 -0.800031 1.49658 0
M  V30 455 H 45.201 -2.13105 3.2818 0
M  V30 456 H 44.824 -3.37527 2.10146 0
M  V30 457 N 45.8211 -1.22559 -0.990812 0
M  V30 458 C 47.0511 -1.07623 -1.76355 0
M  V30 459 C 47.4591 0.37601 -1.85426 0
M  V30 460 O 46.8021 1.27228 -1.32509 0
M  V30 461 C 46.8641 -1.61507 -3.21179 0
M  V30 462 C 46.5281 -3.10146 -3.35646 0
M  V30 463 C 47.5251 -4.07553 -3.22796 0
M  V30 464 C 45.2101 -3.49644 -3.60631 0
M  V30 465 C 47.2041 -5.42442 -3.34716 0
M  V30 466 C 44.8911 -4.84682 -3.72192 0
M  V30 467 C 45.8891 -5.8089 -3.59243 0
M  V30 468 O 45.5771 -7.13476 -3.70415 0
M  V30 469 H 45.3091 -0.377745 -0.560611 0
M  V30 470 H 47.8631 -1.62658 -1.25425 0
M  V30 471 H 46.0931 -1.00881 -3.73309 0
M  V30 472 H 47.7821 -1.42202 -3.80175 0
M  V30 473 H 48.5481 -3.78381 -3.03403 0
M  V30 474 H 44.4271 -2.75282 -3.69785 0
M  V30 475 H 47.9711 -6.17518 -3.24526 0
M  V30 476 H 43.8681 -5.13534 -3.91092 0
M  V30 477 H 44.6361 -7.21083 -3.87275 0
M  V30 478 N 47.2992 1.18797 -1.03562 0
M  V30 479 C 48.2622 2.20464 -0.626769 0
M  V30 480 C 49.2622 1.57721 0.313173 0
M  V30 481 O 50.4522 1.73917 0.0992615 0
M  V30 482 C 47.5842 3.40802 0.0818498 0
M  V30 483 H 48.7772 2.58149 -1.5264 0
M  V30 484 H 46.3302 1.32593 -0.827578 0
M  V30 485 H 47.0652 3.08642 0.995518 0
M  V30 486 H 46.8502 3.8758 -0.593652 0
M  V30 487 H 48.3402 4.16092 0.354584 0
M  V30 488 N 48.7773 0.814389 1.34928 0
M  V30 489 C 49.7103 0.175641 2.27523 0
M  V30 490 C 50.6883 -0.662953 1.48471 0
M  V30 491 O 51.8723 -0.628545 1.77712 0
M  V30 492 C 48.9993 -0.755516 3.30166 0
M  V30 493 C 48.0453 0.00445305 4.265 0
M  V30 494 S 48.8783 1.34582 5.18313 0
M  V30 495 C 50.0343 0.419315 6.24494 0
M  V30 496 H 50.2673 0.960691 2.8135 0
M  V30 497 H 47.8003 0.609846 1.41846 0
M  V30 498 H 49.7583 -1.28723 3.89796 0
M  V30 499 H 48.4193 -1.51402 2.75202 0
M  V30 500 H 47.6123 -0.703077 4.99072 0
M  V30 501 H 47.2143 0.466447 3.7108 0
M  V30 502 H 49.5063 -0.392432 6.76362 0
M  V30 503 H 50.4493 1.11446 6.99275 0
M  V30 504 H 50.8573 0.0115389 5.64499 0
M  V30 505 N 50.2554 -1.46986 0.568584 0
M  V30 506 C 51.2054 -2.27179 -0.193339 0
M  V30 507 C 52.1894 -1.35035 -0.874895 0
M  V30 508 O 53.3814 -1.5931 -0.771322 0
M  V30 509 C 50.5104 -3.21063 -1.21546 0
M  V30 510 C 49.5964 -4.2069 -0.536738 0
M  V30 511 N 49.9874 -5.04218 0.399673 0
M  V30 512 C 48.2854 -4.38961 -0.789254 0
M  V30 513 C 48.9864 -5.76242 0.795017 0
M  V30 514 N 47.9624 -5.434 0.1473 0
M  V30 515 H 51.7644 -2.89146 0.526458 0
M  V30 516 H 49.2784 -1.57664 0.389342 0
M  V30 517 H 51.2754 -3.77209 -1.77536 0
M  V30 518 H 49.9354 -2.60654 -1.93623 0
M  V30 519 H 50.9464 -5.12077 0.774454 0
M  V30 520 H 47.6234 -3.89713 -1.49767 0
M  V30 521 H 49.0134 -6.53417 1.56513 0
M  V30 522 N 51.7335 -0.305618 -1.54608 0
M  V30 523 C 52.9795 0.295595 -2.01241 0
M  V30 524 C 53.3345 1.51171 -1.19018 0
M  V30 525 O 52.6275 1.89832 -0.259684 0
M  V30 526 C 52.8215 0.698983 -3.50498 0
M  V30 527 C 52.6505 -0.476491 -4.47168 0
M  V30 528 C 51.4205 -0.969963 -4.95903 0
M  V30 529 C 53.6185 -1.32294 -4.96994 0
M  V30 530 N 51.6005 -2.11172 -5.76437 0
M  V30 531 C 52.9715 -2.31212 -5.75275 0
M  V30 532 C 55.0265 -1.35278 -4.7917 0
M  V30 533 C 53.7295 -3.32896 -6.37631 0
M  V30 534 C 55.7555 -2.35823 -5.42348 0
M  V30 535 C 55.1175 -3.33469 -6.20466 0
M  V30 536 H 51.2165 0.0724992 -0.778632 0
M  V30 537 H 53.8005 -0.436583 -1.89742 0
M  V30 538 H 51.9715 1.40032 -3.62278 0
M  V30 539 H 53.7035 1.28013 -3.8392 0
M  V30 540 H 50.4585 -0.544178 -4.70463 0
M  V30 541 H 50.8825 -2.68714 -6.21387 0
M  V30 542 H 55.5245 -0.61157 -4.18354 0
M  V30 543 H 53.2425 -4.07933 -6.97579 0
M  V30 544 H 56.8285 -2.38911 -5.30484 0
M  V30 545 H 55.7085 -4.09996 -6.68485 0
M  V30 546 N 53.2116 1.57565 -0.0334293 0
M  V30 547 C 54.4576 1.92262 0.645226 0
M  V30 548 C 54.7906 0.910543 1.71531 0
M  V30 549 O 54.0656 -0.066099 1.94388 0
M  V30 550 C 54.3486 3.37422 1.2577 0
M  V30 551 C 54.2016 4.49369 0.196891 0
M  V30 552 C 55.5206 3.82628 2.17449 0
M  V30 553 H 52.6396 0.699171 0.233085 0
M  V30 554 H 55.2816 1.89779 -0.0915694 0
M  V30 555 H 53.4316 3.39669 1.88566 0
M  V30 556 H 55.1036 4.59254 -0.433962 0
M  V30 557 H 53.3466 4.31168 -0.477137 0
M  V30 558 H 54.0176 5.47978 0.665124 0
M  V30 559 H 56.4936 3.82145 1.64634 0
M  V30 560 H 55.3696 4.84883 2.57254 0
M  V30 561 H 55.6306 3.18376 3.0674 0
M  V30 562 N 54.6897 -0.239769 1.55765 0
M  V30 563 C 56.1057 -0.588624 1.48349 0
M  V30 564 C 56.3057 -1.88005 0.72502 0
M  V30 565 O 55.3617 -2.51186 0.257269 0
M  V30 566 C 56.6747 -0.68474 2.928 0
M  V30 567 C 58.2227 -0.77659 3.03213 0
M  V30 568 C 58.6977 -0.904207 4.48986 0
M  V30 569 N 60.1887 -0.968896 4.52953 0
M  V30 570 C 60.9237 -1.08703 5.63002 0
M  V30 571 N 60.4197 -1.17026 6.82845 0
M  V30 572 N 62.2127 -1.12074 5.50814 0
M  V30 573 H 54.3637 0.607911 2.03515 0
M  V30 574 H 56.6267 0.21083 0.924259 0
M  V30 575 H 56.3327 0.194284 3.51163 0
M  V30 576 H 56.2067 -1.55435 3.43686 0
M  V30 577 H 58.5937 -1.64606 2.44926 0
M  V30 578 H 58.6747 0.118315 2.55526 0
M  V30 579 H 58.3187 -0.0392633 5.07885 0
M  V30 580 H 58.2487 -1.81426 4.9436 0
M  V30 581 H 60.7397 -0.915633 3.6664 0
M  V30 582 H 61.0527 -1.25966 7.62465 0
M  V30 583 H 59.3977 -1.13971 6.85591 0
M  V30 584 H 62.5887 -1.05226 4.5612 0
M  V30 585 H 62.7617 -1.20936 6.36615 0
M  V30 586 N 56.1678 -1.49265 -0.50573 0
M  V30 587 C 57.0998 -1.617 -1.62437 0
M  V30 588 C 58.1128 -0.499924 -1.54934 0
M  V30 589 O 59.3018 -0.771785 -1.60953 0
M  V30 590 C 56.4018 -1.5533 -3.01207 0
M  V30 591 C 55.5748 -2.8249 -3.33943 0
M  V30 592 C 54.6338 -2.69238 -4.52103 0
M  V30 593 O 53.6598 -3.43167 -4.5412 0
M  V30 594 N 54.8618 -1.80468 -5.51735 0
M  V30 595 H 57.6268 -2.58177 -1.52199 0
M  V30 596 H 55.1878 -1.46294 -0.693511 0
M  V30 597 H 57.1798 -1.44125 -3.78167 0
M  V30 598 H 55.7498 -0.667297 -3.05395 0
M  V30 599 H 54.9698 -3.08081 -2.45926 0
M  V30 600 H 56.2578 -3.66802 -3.5261 0
M  V30 601 H 55.6558 -1.19653 -5.52901 0
M  V30 602 H 54.2128 -1.75188 -6.27816 0
M  V30 603 N 57.6459 0.756429 -1.3826 0
M  V30 604 C 58.6089 1.85176 -1.35065 0
M  V30 605 C 59.6089 1.58818 -0.251703 0
M  V30 606 O 60.7989 1.66615 -0.508433 0
M  V30 607 C 57.9309 3.22596 -1.10201 0
M  V30 608 H 59.1239 1.89417 -2.3251 0
M  V30 609 H 56.6769 0.95783 -1.23512 0
M  V30 610 H 57.4119 3.24025 -0.133504 0
M  V30 611 H 57.1969 3.43122 -1.89762 0
M  V30 612 H 58.6869 4.02673 -1.10654 0
M  V30 613 N 59.124 1.23083 0.984299 0
M  V30 614 C 60.535 1.05609 1.5396 0
M  V30 615 C 60.886 -0.377793 1.92528 0
M  V30 616 O 60.011 -1.26398 1.75649 0
M  V30 617 C 60.606 1.91087 2.7977 0
M  V30 618 C 59.165 1.77885 3.31713 0
M  V30 619 C 58.312 1.87028 2.04733 0
M  V30 620 H 61.263 1.36802 0.804419 0
M  V30 621 H 61.284 1.43336 3.5247 0
M  V30 622 H 60.796 2.9544 2.51668 0
M  V30 623 H 58.897 0.762995 3.64704 0
M  V30 624 H 59.01 2.61047 4.01735 0
M  V30 625 H 57.374 1.30565 2.18689 0
M  V30 626 H 58.157 2.92929 1.79017 0
M  V30 627 N 60.6021 -1.18246 1.0419 0
M  V30 628 C 61.8501 -1.87886 0.744543 0
M  V30 629 C 62.1711 -1.8082 -0.730006 0
M  V30 630 O 61.4411 -1.22736 -1.52685 0
M  V30 631 H 60.0211 -0.695556 0.272417 0
M  V30 632 H 62.6831 -1.43494 1.31892 0
M  V30 633 H 61.7791 -2.9389 1.05049 0
M  V30 634 N 62.0802 -0.821533 -1.34494 0
M  V30 635 C 63.0272 -0.240397 -2.29545 0
M  V30 636 C 63.9972 0.634031 -1.53523 0
M  V30 637 O 65.1822 0.575966 -1.81899 0
M  V30 638 C 62.3222 0.592869 -3.39969 0
M  V30 639 C 61.4352 -0.30365 -4.30932 0
M  V30 640 C 60.5702 0.539049 -5.28458 0
M  V30 641 C 59.6092 -0.356942 -6.11058 0
M  V30 642 N 58.7462 0.446603 -7.00678 0
M  V30 643 H 63.5862 -1.05632 -2.7865 0
M  V30 644 H 61.1232 -0.532413 -1.37127 0
M  V30 645 H 63.0812 1.09129 -4.02675 0
M  V30 646 H 61.7112 1.37392 -2.92102 0
M  V30 647 H 60.7632 -0.920276 -3.691 0
M  V30 648 H 62.0752 -0.992661 -4.88823 0
M  V30 649 H 61.2292 1.102 -5.96608 0
M  V30 650 H 59.9682 1.26157 -4.71101 0
M  V30 651 H 58.9732 -0.932047 -5.41842 0
M  V30 652 H 60.1982 -1.07755 -6.70497 0
M  V30 653 H 58.1442 1.15282 -6.45791 0
M  V30 654 H 58.0612 -0.184048 -7.55776 0
M  V30 655 H 59.3292 0.992352 -7.73158 0
M  V30 656 N 63.5583 1.46682 -0.576371 0
M  V30 657 C 64.8063 2.02013 -0.0594163 0
M  V30 658 C 65.1273 1.45101 1.30271 0
M  V30 659 O 64.3973 0.633317 1.8538 0
M  V30 660 H 62.9773 0.746759 -0.0189745 0
M  V30 661 H 65.6393 1.79862 -0.750717 0
M  V30 662 H 64.7353 3.12097 0.014345 0
M  V30 663 N 65.0364 0.313813 1.54444 0
M  V30 664 C 65.9664 -0.549454 2.26943 0
M  V30 665 C 66.9474 -1.12741 1.27372 0
M  V30 666 O 68.1324 -1.15436 1.56167 0
M  V30 667 C 65.2624 -1.71523 3.01989 0
M  V30 668 C 64.2164 -1.26703 4.08816 0
M  V30 669 C 63.5424 -2.51898 4.71647 0
M  V30 670 C 64.8424 -0.388962 5.2085 0
M  V30 671 H 66.5364 0.0552661 2.99349 0
M  V30 672 H 64.0824 0.0280207 1.43973 0
M  V30 673 H 66.0354 -2.32535 3.51433 0
M  V30 674 H 64.7594 -2.34639 2.27183 0
M  V30 675 H 63.4184 -0.679896 3.6024 0
M  V30 676 H 63.0664 -3.13356 3.93468 0
M  V30 677 H 62.7664 -2.22605 5.43802 0
M  V30 678 H 64.2904 -3.1369 5.23861 0
M  V30 679 H 65.7044 -0.905107 5.6611 0
M  V30 680 H 64.1014 -0.18924 5.99802 0
M  V30 681 H 65.1714 0.582699 4.81386 0
M  V30 682 N 66.5145 -1.57545 0.0417849 0
M  V30 683 C 67.4245 -2.14451 -0.951213 0
M  V30 684 C 68.4405 -1.09992 -1.34825 0
M  V30 685 O 69.6165 -1.42114 -1.42708 0
M  V30 686 C 66.6815 -2.67063 -2.21084 0
M  V30 687 C 65.7425 -3.86284 -1.87304 0
M  V30 688 C 64.9755 -4.36378 -3.07261 0
M  V30 689 O 65.1985 -3.85587 -4.20332 0
M  V30 690 O 64.1325 -5.28077 -2.88822 0
M  V30 691 H 67.9585 -2.99601 -0.497287 0
M  V30 692 H 65.5435 -1.48317 -0.179567 0
M  V30 693 H 67.4255 -3.00914 -2.95006 0
M  V30 694 H 66.1005 -1.84989 -2.65633 0
M  V30 695 H 65.0075 -3.57338 -1.10727 0
M  V30 696 H 66.3405 -4.6956 -1.47562 0
M  V30 697 N 67.9926 0.231505 -1.5589 0
M  V30 698 C 69.2386 0.954429 -1.79617 0
M  V30 699 C 69.5936 1.82367 -0.613199 0
M  V30 700 O 68.8866 1.87524 0.393094 0
M  V30 701 C 69.0806 1.83577 -3.0665 0
M  V30 702 C 68.9096 1.05334 -4.3719 0
M  V30 703 C 67.6796 0.75225 -4.99669 0
M  V30 704 C 69.8776 0.423444 -5.12554 0
M  V30 705 N 67.8596 -0.052627 -6.13877 0
M  V30 706 C 69.2306 -0.245287 -6.19515 0
M  V30 707 C 71.2856 0.335466 -4.96769 0
M  V30 708 C 69.9886 -0.993566 -7.12405 0
M  V30 709 C 72.0146 -0.399321 -5.9005 0
M  V30 710 C 71.3766 -1.05663 -6.9643 0
M  V30 711 H 67.4756 0.329846 -0.709031 0
M  V30 712 H 70.0596 0.226172 -1.93382 0
M  V30 713 H 68.2306 2.53592 -2.94186 0
M  V30 714 H 69.9626 2.49541 -3.18608 0
M  V30 715 H 66.7176 1.06783 -4.61405 0
M  V30 716 H 67.1416 -0.443609 -6.75545 0
M  V30 717 H 71.7836 0.829311 -4.14587 0
M  V30 718 H 69.5016 -1.49896 -7.94076 0
M  V30 719 H 73.0876 -0.468265 -5.79913 0
M  V30 720 H 71.9676 -1.61612 -7.67366 0
M  V30 721 N 69.4707 1.49531 0.497807 0
M  V30 722 C 70.7167 1.59415 1.25358 0
M  V30 723 C 71.0497 0.281422 1.9215 0
M  V30 724 O 70.3247 -0.715249 1.80871 0
M  V30 725 C 70.6077 2.75566 2.3181 0
M  V30 726 C 70.4607 4.16642 1.69498 0
M  V30 727 C 71.7797 2.87347 3.33346 0
M  V30 728 H 68.8987 0.580244 0.454408 0
M  V30 729 H 71.5407 1.81827 0.551262 0
M  V30 730 H 69.6907 2.56587 2.91711 0
M  V30 731 H 71.3627 4.47145 1.13399 0
M  V30 732 H 69.6057 4.22141 0.998978 0
M  V30 733 H 70.2767 4.93792 2.46725 0
M  V30 734 H 72.7527 3.04634 2.83438 0
M  V30 735 H 71.6287 3.70289 4.05188 0
M  V30 736 H 71.8897 1.96834 3.95865 0
M  V30 737 N 70.9488 -0.749086 1.3866 0
M  V30 738 C 72.1738 -1.54344 1.38538 0
M  V30 739 C 72.5988 -1.88088 -0.0216655 0
M  V30 740 O 71.9568 -1.50899 -1.00494 0
M  V30 741 C 72.0048 -2.8164 2.25192 0
M  V30 742 O 71.1088 -3.7698 1.67212 0
M  V30 743 H 70.4498 -0.466654 0.472367 0
M  V30 744 H 72.9798 -0.925355 1.82478 0
M  V30 745 H 72.9898 -3.30519 2.3921 0
M  V30 746 H 71.6648 -2.56411 3.27454 0
M  V30 747 H 70.2418 -3.35699 1.6236 0
M  V30 748 N 72.4269 -1.23603 -0.977757 0
M  V30 749 C 73.6749 -1.06759 -1.71601 0
M  V30 750 C 73.9959 0.395929 -1.90938 0
M  V30 751 O 73.2659 1.28356 -1.47992 0
M  V30 752 H 71.8459 -0.392062 -0.635843 0
M  V30 753 H 74.5079 -1.55362 -1.1768 0
M  V30 754 H 73.6039 -1.55763 -2.70452 0
M  V30 755 N 73.905 1.17692 -1.04816 0
M  V30 756 C 75.154 1.87192 -0.751132 0
M  V30 757 C 75.467 1.8169 0.724441 0
M  V30 758 O 76.673 2.46625 1.13527 0
M  V30 759 C 75.129 3.35857 -1.29338 0
M  V30 760 C 74.737 3.4987 -2.79812 0
M  V30 761 C 76.481 4.10709 -1.07322 0
M  V30 762 C 74.388 4.92536 -3.27356 0
M  V30 763 H 73.318 0.701162 -0.277288 0
M  V30 764 H 75.969 1.32932 -1.26496 0
M  V30 765 H 74.351 3.89631 -0.707376 0
M  V30 766 H 75.525 3.06332 -3.44235 0
M  V30 767 H 73.84 2.88433 -3.00325 0
M  V30 768 H 76.437 5.15952 -1.4035 0
M  V30 769 H 76.78 4.16299 -0.0108001 0
M  V30 770 H 77.313 3.6313 -1.62423 0
M  V30 771 H 74.052 4.92119 -4.33012 0
M  V30 772 H 73.572 5.3676 -2.67673 0
M  V30 773 H 75.251 5.61288 -3.21815 0
M  V30 774 N 75.3831 0.828654 1.34056 0
M  V30 775 C 76.6081 0.431637 2.02859 0
M  V30 776 C 77.0331 -0.956339 1.61975 0
M  V30 777 O 76.3911 -1.62338 0.807228 0
M  V30 778 C 76.4391 0.548323 3.56407 0
M  V30 779 O 75.5431 -0.429556 4.10157 0
M  V30 780 H 74.8841 0.176886 0.640006 0
M  V30 781 H 77.4141 1.12066 1.71179 0
M  V30 782 H 77.4241 0.426196 4.05768 0
M  V30 783 H 76.0991 1.5606 3.8551 0
M  V30 784 H 74.6761 -0.265836 3.71951 0
M  V30 785 N 76.8612 -1.46375 0.584142 0
M  V30 786 C 78.1072 -2.03248 0.0787103 0
M  V30 787 C 78.4622 -1.44737 -1.26763 0
M  V30 788 O 77.7552 -0.603625 -1.81843 0
M  V30 789 C 77.9492 -3.57373 -0.0439342 0
M  V30 790 C 77.7782 -4.30831 1.28897 0
M  V30 791 C 76.5482 -4.69683 1.8635 0
M  V30 792 C 78.7462 -4.64278 2.21248 0
M  V30 793 N 76.7282 -5.27898 3.13365 0
M  V30 794 C 78.0992 -5.23078 3.32851 0
M  V30 795 C 80.1542 -4.46209 2.20911 0
M  V30 796 C 78.8572 -5.65715 4.44251 0
M  V30 797 C 80.8832 -4.89864 3.31341 0
M  V30 798 C 80.2452 -5.48736 4.41665 0
M  V30 799 H 76.3442 -0.778714 0.0716144 0
M  V30 800 H 78.9282 -1.78509 0.777355 0
M  V30 801 H 77.0992 -3.81823 -0.711749 0
M  V30 802 H 78.8312 -4.00892 -0.553881 0
M  V30 803 H 75.5862 -4.52488 1.39826 0
M  V30 804 H 76.0102 -5.61525 3.78178 0
M  V30 805 H 80.6522 -4.00027 1.36888 0
M  V30 806 H 78.3702 -6.10875 5.29015 0
M  V30 807 H 81.9562 -4.77634 3.322 0
M  V30 808 H 80.8362 -5.81898 5.25704 0
M  V30 809 N 78.3393 -0.321999 -1.54275 0
M  V30 810 C 79.2873 0.560206 -2.25753 0
M  V30 811 C 80.2813 1.11984 -1.27106 0
M  V30 812 O 81.4873 1.06806 -1.44888 0
M  V30 813 H 77.8623 0.199304 -0.725108 0
M  V30 814 H 79.8333 -0.0649365 -2.98329 0
M  V30 815 C 78.5823 1.71023 -3.02731 0
M  V30 816 H 77.9053 1.28885 -3.78456 0
M  V30 817 H 79.3453 2.30314 -3.55993 0
M  V30 818 C 77.8043 2.62692 -2.10938 0
M  V30 819 O 78.3343 3.64364 -1.6912 0
M  V30 820 N 76.5403 2.30891 -1.76459 0
M  V30 821 H 76.0873 1.48253 -2.10663 0
M  V30 822 H 76.0453 2.92487 -1.1532 0
M  V30 823 N 79.8174 1.5752 -0.0501392 0
M  V30 824 C 81.0424 1.97376 0.636997 0
M  V30 825 C 81.4674 0.927466 1.63645 0
M  V30 826 O 80.8254 -0.10941 1.8097 0
M  V30 827 C 80.8734 3.36304 1.30123 0
M  V30 828 O 79.9774 3.34156 2.41689 0
M  V30 829 H 79.3184 0.642998 0.165679 0
M  V30 830 H 81.8484 2.04258 -0.118233 0
M  V30 831 H 81.8584 3.73008 1.65315 0
M  V30 832 H 80.5334 4.11993 0.568746 0
M  V30 833 H 79.1104 3.09196 2.08451 0
M  V30 834 N 81.2955 -0.223234 1.56011 0
M  V30 835 C 82.5435 -0.946003 1.78592 0
M  V30 836 C 82.8645 -1.84936 0.618349 0
M  V30 837 O 82.1345 -1.92473 -0.364833 0
M  V30 838 H 80.7145 -0.352298 0.658707 0
M  V30 839 H 83.3765 -0.235494 1.93472 0
M  V30 840 H 82.4725 -1.55381 2.70672 0
M  V30 841 N 82.7736 -1.49793 -0.48987 0
M  V30 842 C 84.1896 -1.36803 -0.822022 0
M  V30 843 C 84.3896 -0.409652 -1.97292 0
M  V30 844 O 83.4456 0.154614 -2.52026 0
M  V30 845 C 84.7586 -2.77768 -1.15175 0
M  V30 846 C 86.3066 -2.86549 -1.25931 0
M  V30 847 C 86.7816 -4.28306 -1.62228 0
M  V30 848 N 88.2726 -4.31169 -1.69256 0
M  V30 849 C 89.0076 -5.37832 -1.98807 0
M  V30 850 N 88.5036 -6.54726 -2.26507 0
M  V30 851 N 90.2966 -5.25258 -2.00152 0
M  V30 852 H 82.4476 -2.10691 0.268881 0
M  V30 853 H 84.7106 -0.946241 0.057728 0
M  V30 854 H 84.4166 -3.49648 -0.379335 0
M  V30 855 H 84.2906 -3.13836 -2.09253 0
M  V30 856 H 86.6776 -2.14899 -2.02243 0
M  V30 857 H 86.7586 -2.54049 -0.298776 0
M  V30 858 H 86.4026 -5.00486 -0.864622 0
M  V30 859 H 86.3326 -4.58279 -2.594 0
M  V30 860 H 88.8236 -3.4687 -1.49965 0
M  V30 861 H 89.1366 -7.31833 -2.48276 0
M  V30 862 H 87.4816 -6.57933 -2.23939 0
M  V30 863 H 90.6726 -4.32938 -1.77996 0
M  V30 864 H 90.8456 -6.08476 -2.22848 0
M  V30 865 N 84.2517 0.741722 -1.39055 0
M  V30 866 C 85.5007 1.49656 -1.35225 0
M  V30 867 C 85.8137 1.95533 0.0512708 0
M  V30 868 O 87.0197 2.7067 0.212138 0
M  V30 869 C 85.4757 2.70389 -2.37525 0
M  V30 870 C 85.0837 2.31489 -3.83558 0
M  V30 871 C 86.8277 3.48236 -2.42759 0
M  V30 872 C 84.7347 3.48903 -4.77515 0
M  V30 873 H 83.6647 0.56197 -0.502699 0
M  V30 874 H 86.3157 0.809727 -1.64668 0
M  V30 875 H 84.6977 3.41113 -2.01142 0
M  V30 876 H 85.8717 1.68354 -4.28945 0
M  V30 877 H 84.1867 1.66749 -3.81554 0
M  V30 878 H 86.7837 4.35558 -3.1015 0
M  V30 879 H 87.1267 3.90229 -1.45008 0
M  V30 880 H 87.6597 2.84535 -2.78002 0
M  V30 881 H 84.3987 3.11966 -5.76504 0
M  V30 882 H 83.9187 4.11041 -4.36813 0
M  V30 883 H 85.5977 4.15328 -4.96096 0
M  V30 884 N 85.7298 1.2412 0.971189 0
M  V30 885 C 86.9778 1.07668 1.71032 0
M  V30 886 C 87.2988 -0.385797 1.91146 0
M  V30 887 O 86.5688 -1.27569 1.4867 0
M  V30 888 H 85.1488 0.395429 0.633755 0
M  V30 889 H 87.8108 1.55984 1.16855 0
M  V30 890 H 86.9068 1.57195 2.69622 0
M  V30 891 N 87.2079 -1.17134 1.05439 0
M  V30 892 C 88.4379 -1.91094 0.785274 0
M  V30 893 C 88.8459 -1.77198 -0.663142 0
M  V30 894 O 88.1889 -1.10835 -1.46497 0
M  V30 895 C 88.2509 -3.42594 1.08949 0
M  V30 896 C 87.9149 -3.80274 2.53458 0
M  V30 897 C 88.9119 -3.82912 3.51673 0
M  V30 898 C 86.5969 -4.11162 2.88532 0
M  V30 899 C 88.5909 -4.15913 4.83006 0
M  V30 900 C 86.2779 -4.43831 4.20068 0
M  V30 901 C 87.2759 -4.46185 5.17115 0
M  V30 902 O 86.9639 -4.78083 6.46291 0
M  V30 903 H 86.6959 -0.613073 0.284811 0
M  V30 904 H 89.2499 -1.49461 1.40893 0
M  V30 905 H 87.4799 -3.84534 0.408741 0
M  V30 906 H 89.1689 -3.97817 0.805991 0
M  V30 907 H 89.9349 -3.5917 3.25917 0
M  V30 908 H 85.8139 -4.085 2.13656 0
M  V30 909 H 89.3579 -4.17665 5.5875 0
M  V30 910 H 85.2549 -4.67037 4.45586 0
M  V30 911 H 86.0229 -4.9593 6.51149 0
M  V30 912 N 88.686 -0.835752 -1.33615 0
M  V30 913 C 89.649 -0.272 -2.2758 0
M  V30 914 C 90.649 0.557487 -1.50827 0
M  V30 915 O 91.839 0.37173 -1.70188 0
M  V30 916 C 88.971 0.617173 -3.35267 0
M  V30 917 H 90.164 -1.10111 -2.78954 0
M  V30 918 H 87.717 -0.608594 -1.43965 0
M  V30 919 H 88.452 1.46884 -2.89129 0
M  V30 920 H 88.237 0.0237066 -3.92093 0
M  V30 921 H 89.727 1.005 -4.05326 0
M  V30 922 N 90.1641 1.46063 -0.591896 0
M  V30 923 C 91.4411 1.95595 -0.0137119 0
M  V30 924 C 91.8211 1.5345 1.4497 0
M  V30 925 O 91.1691 0.789543 2.14426 0
M  V30 926 C 91.3791 3.48453 -0.195373 0
M  V30 927 C 92.7271 4.24546 -0.0679765 0
M  V30 928 O 93.7511 3.55982 -0.124681 0
M  V30 929 O 92.6101 5.46467 0.0600579 0
M  V30 930 H 89.7041 0.825795 0.0446279 0
M  V30 931 H 92.2501 1.56303 -0.660859 0
M  V30 932 H 91.0221 3.72045 -1.21235 0
M  V30 933 H 90.6451 3.94597 0.487775 0
M  V30 934 N 91.6422 0.330177 1.54103 0
M  V30 935 C 92.8672 -0.274893 2.0557 0
M  V30 936 C 93.2922 -1.44487 1.20437 0
M  V30 937 O 92.6502 -1.80021 0.214991 0
M  V30 938 C 92.6982 -0.68079 3.54115 0
M  V30 939 O 91.8022 -1.7824 3.71893 0
M  V30 940 H 91.1432 -0.0483849 0.662235 0
M  V30 941 H 93.6732 0.480508 1.98878 0
M  V30 942 H 93.6832 -0.961635 3.96505 0
M  V30 943 H 92.3582 0.174903 4.15532 0
M  V30 944 H 90.9352 -1.49985 3.41407 0
M  V30 945 N 93.1203 -1.57491 0.0584922 0
M  V30 946 C 94.3663 -1.93264 -0.614558 0
M  V30 947 C 94.6993 -0.937717 -1.7006 0
M  V30 948 O 93.9743 0.0351652 -1.94468 0
M  V30 949 C 94.2573 -3.3938 -1.20386 0
M  V30 950 C 94.1103 -4.49625 -0.125375 0
M  V30 951 C 95.4293 -3.86039 -2.11334 0
M  V30 952 H 92.5483 -0.702791 -0.221933 0
M  V30 953 H 95.1903 -1.8961 0.12175 0
M  V30 954 H 93.3403 -3.42626 -1.83139 0
M  V30 955 H 95.0123 -4.58506 0.506971 0
M  V30 956 H 93.2553 -4.30354 0.545672 0
M  V30 957 H 93.9263 -5.48967 -0.577861 0
M  V30 958 H 96.4023 -3.84716 -1.58534 0
M  V30 959 H 95.2783 -4.88914 -2.49507 0
M  V30 960 H 95.5393 -3.23215 -3.01636 0
M  V30 961 N 94.5984 0.214957 -1.56127 0
M  V30 962 C 95.5454 1.26642 -1.92952 0
M  V30 963 C 96.5154 1.46244 -0.78753 0
M  V30 964 O 97.7004 1.59704 -1.04399 0
M  V30 965 C 94.8404 2.6104 -2.25726 0
M  V30 966 C 93.9534 2.49183 -3.52891 0
M  V30 967 C 93.0884 3.76149 -3.7508 0
M  V30 968 C 92.1274 3.59041 -4.95738 0
M  V30 969 N 91.2644 4.77972 -5.14283 0
M  V30 970 H 96.1044 0.945384 -2.82607 0
M  V30 971 H 93.6414 0.455489 -1.3987 0
M  V30 972 H 95.5994 3.39313 -2.42739 0
M  V30 973 H 94.2294 2.91227 -1.39236 0
M  V30 974 H 93.2814 1.6231 -3.44034 0
M  V30 975 H 94.5934 2.32466 -4.41318 0
M  V30 976 H 93.7474 4.62865 -3.92226 0
M  V30 977 H 92.4864 3.95799 -2.84947 0
M  V30 978 H 91.4914 2.7071 -4.78535 0
M  V30 979 H 92.7164 3.40856 -5.87362 0
M  V30 980 H 90.6624 4.97923 -4.27093 0
M  V30 981 H 90.5794 4.64006 -5.96853 0
M  V30 982 H 91.8474 5.66096 -5.35869 0
M  V30 983 N 96.0765 1.50051 0.48192 0
M  V30 984 C 97.3245 1.60181 1.23234 0
M  V30 985 C 97.6455 0.299176 1.92691 0
M  V30 986 O 96.9155 -0.682708 1.83619 0
M  V30 987 H 95.4955 0.590232 0.457859 0
M  V30 988 H 98.1575 1.86775 0.556881 0
M  V30 989 H 97.2535 2.40753 1.98607 0
M  V30 990 N 97.5546 -0.734337 1.39446 0
M  V30 991 C 98.9706 -1.03997 1.21065 0
M  V30 992 C 99.1706 -2.01369 0.0727019 0
M  V30 993 O 98.2266 -2.45856 -0.575426 0
M  V30 994 C 99.5396 -1.60163 2.54496 0
M  V30 995 C 101.088 -1.7224 2.61347 0
M  V30 996 C 101.563 -2.31814 3.95002 0
M  V30 997 N 103.054 -2.39223 3.96644 0
M  V30 998 C 103.789 -2.86258 4.96834 0
M  V30 999 N 103.285 -3.33184 6.07421 0
M  V30 1000 N 105.078 -2.85473 4.84213 0
M  V30 1001 H 97.2286 -0.0885624 2.12215 0
M  V30 1002 H 99.4916 -0.10191 0.942506 0
M  V30 1003 H 99.1976 -0.960811 3.38321 0
M  V30 1004 H 99.0716 -2.5896 2.74262 0
M  V30 1005 H 101.459 -2.35443 1.77906 0
M  V30 1006 H 101.54 -0.720939 2.4543 0
M  V30 1007 H 101.184 -1.69238 4.78875 0
M  V30 1008 H 101.114 -3.32638 4.08239 0
M  V30 1009 H 103.605 -2.06057 3.16779 0
M  V30 1010 H 103.918 -3.67586 6.7978 0
M  V30 1011 H 102.263 -3.31191 6.11013 0
M  V30 1012 H 105.454 -2.48136 3.96921 0
M  V30 1013 H 105.627 -3.21814 5.62441 0
M  V30 1014 N 99.0327 -1.24633 -0.964593 0
M  V30 1015 C 100.28 -1.08788 -1.70796 0
M  V30 1016 C 100.608 0.372783 -1.90894 0
M  V30 1017 O 99.8627 1.29167 -1.47018 0
M  V30 1018 C 100.162 -1.7763 -3.10133 0
M  V30 1019 C 99.8277 -3.27557 -3.09866 0
M  V30 1020 C 98.4897 -3.6846 -3.09501 0
M  V30 1021 C 100.842 -4.23389 -3.03959 0
M  V30 1022 C 98.1697 -5.03624 -3.00965 0
M  V30 1023 C 100.522 -5.58565 -2.96965 0
M  V30 1024 C 99.1857 -5.98809 -2.9493 0
M  V30 1025 H 98.4557 -0.398084 -0.624988 0
M  V30 1026 H 101.103 -1.54777 -1.12767 0
M  V30 1027 H 99.4077 -1.24044 -3.71645 0
M  V30 1028 H 101.105 -1.62832 -3.66451 0
M  V30 1029 H 97.6947 -2.95006 -3.10917 0
M  V30 1030 H 101.879 -3.92787 -3.03368 0
M  V30 1031 H 97.1347 -5.33998 -2.97752 0
M  V30 1032 H 101.309 -6.32523 -2.91354 0
M  V30 1033 H 98.9357 -7.03505 -2.88071 0
M  V30 1034 N 100.511 1.16574 -1.06058 0
M  V30 1035 C 101.739 1.90952 -0.796552 0
M  V30 1036 C 102.154 1.77302 0.648808 0
M  V30 1037 O 101.511 1.11605 1.44397 0
M  V30 1038 C 101.562 3.41736 -1.17894 0
M  V30 1039 O 101.283 3.54975 -2.56758 0
M  V30 1040 C 102.784 4.33169 -0.942308 0
M  V30 1041 H 100.004 0.605594 -0.288959 0
M  V30 1042 H 102.548 1.47777 -1.41358 0
M  V30 1043 H 100.703 3.82623 -0.606491 0
M  V30 1044 H 101.117 4.4846 -2.72 0
M  V30 1045 H 102.591 5.37439 -1.25952 0
M  V30 1046 H 103.068 4.3903 0.122078 0
M  V30 1047 H 103.674 3.98007 -1.49902 0
M  V30 1048 N 101.989 0.842826 1.3317 0
M  V30 1049 C 103.238 0.436738 1.96915 0
M  V30 1050 C 103.551 -1.01025 1.67491 0
M  V30 1051 O 104.757 -1.5212 2.24881 0
M  V30 1052 C 103.213 0.730021 3.52418 0
M  V30 1053 C 102.821 2.19195 3.90714 0
M  V30 1054 C 104.565 0.391076 4.22695 0
M  V30 1055 C 102.472 2.42907 5.39212 0
M  V30 1056 H 101.402 0.15958 0.736919 0
M  V30 1057 H 104.053 1.03196 1.51733 0
M  V30 1058 H 102.435 0.0643755 3.95948 0
M  V30 1059 H 103.609 2.8984 3.58231 0
M  V30 1060 H 101.924 2.49425 3.33431 0
M  V30 1061 H 104.521 0.545817 5.31907 0
M  V30 1062 H 104.864 -0.666294 4.10933 0
M  V30 1063 H 105.397 1.01212 3.84709 0
M  V30 1064 H 102.136 3.47224 5.55982 0
M  V30 1065 H 101.656 1.76827 5.73142 0
M  V30 1066 H 103.335 2.2626 6.06148 0
M  V30 1067 N 103.467 -1.45747 0.599634 0
M  V30 1068 C 104.692 -2.07178 0.0960198 0
M  V30 1069 C 105.117 -1.44268 -1.207 0
M  V30 1070 O 104.475 -0.532503 -1.73303 0
M  V30 1071 C 104.523 -3.60579 -0.0385348 0
M  V30 1072 O 103.627 -3.97713 -1.0908 0
M  V30 1073 H 102.968 -0.660251 0.0704593 0
M  V30 1074 H 105.498 -1.87124 0.827385 0
M  V30 1075 H 105.508 -4.07298 -0.239304 0
M  V30 1076 H 104.183 -4.05756 0.912947 0
M  V30 1077 H 102.76 -3.62678 -0.867135 0
M  V30 1078 N 104.945 -0.338344 -1.53925 0
M  V30 1079 C 106.361 0.0137736 -1.59594 0
M  V30 1080 C 106.561 1.49186 -1.35447 0
M  V30 1081 O 105.617 2.24987 -1.14616 0
M  V30 1082 C 106.93 -0.41773 -2.97784 0
M  V30 1083 C 108.478 -0.369633 -3.1081 0
M  V30 1084 C 108.953 -0.776524 -4.51369 0
M  V30 1085 N 110.444 -0.730506 -4.57403 0
M  V30 1086 C 111.179 -1.01736 -5.64303 0
M  V30 1087 N 110.675 -1.3721 -6.79077 0
M  V30 1088 N 112.468 -0.941942 -5.54151 0
M  V30 1089 H 104.619 -1.3012 -1.67876 0
M  V30 1090 H 106.882 -0.530082 -0.78595 0
M  V30 1091 H 106.588 -1.44811 -3.20504 0
M  V30 1092 H 106.462 0.209729 -3.76616 0
M  V30 1093 H 108.849 0.651568 -2.87817 0
M  V30 1094 H 108.93 -1.03223 -2.34049 0
M  V30 1095 H 108.574 -1.79571 -4.75096 0
M  V30 1096 H 108.504 -0.0914649 -5.26521 0
M  V30 1097 H 110.995 -0.468783 -3.74981 0
M  V30 1098 H 111.308 -1.57597 -7.5656 0
M  V30 1099 H 109.653 -1.4105 -6.80536 0
M  V30 1100 H 112.844 -0.664184 -4.63364 0
M  V30 1101 H 113.017 -1.16884 -6.37371 0
M  V30 1102 N 106.423 1.57458 -0.0668435 0
M  V30 1103 C 107.7 1.8469 0.644132 0
M  V30 1104 C 108.08 0.958343 1.88093 0
M  V30 1105 O 107.428 0.0233579 2.28488 0
M  V30 1106 C 107.638 3.34767 0.986509 0
M  V30 1107 C 108.986 4.02159 1.36212 0
M  V30 1108 O 110.01 3.39484 1.07839 0
M  V30 1109 O 108.869 5.12694 1.89227 0
M  V30 1110 H 105.963 0.762816 0.319437 0
M  V30 1111 H 108.509 1.6942 -0.0973986 0
M  V30 1112 H 107.281 3.91151 0.107883 0
M  V30 1113 H 106.904 3.55281 1.78497 0
M  V30 1114 N 107.901 -0.206675 1.56239 0
M  V30 1115 C 108.849 -1.27571 1.94495 0
M  V30 1116 C 109.843 -1.47737 0.828862 0
M  V30 1117 O 111.049 -1.48735 1.0138 0
M  V30 1118 H 107.424 -0.428029 0.6183 0
M  V30 1119 H 109.395 -0.925961 2.8367 0
M  V30 1120 C 108.144 -2.61568 2.29079 0
M  V30 1121 H 107.467 -2.46863 3.14482 0
M  V30 1122 H 108.907 -3.35144 2.5972 0
M  V30 1123 C 107.366 -3.17695 1.12123 0
M  V30 1124 O 107.896 -3.99801 0.390153 0
M  V30 1125 N 106.102 -2.76276 0.901097 0
M  V30 1126 H 105.649 -2.09613 1.49733 0
M  V30 1127 H 105.607 -3.1417 0.120319 0
M  V30 1128 N 109.379 -1.50304 -0.473955 0
M  V30 1129 C 110.342 -1.6841 -1.55469 0
M  V30 1130 C 111.342 -0.554905 -1.50922 0
M  V30 1131 O 112.532 -0.821882 -1.53593 0
M  V30 1132 C 109.664 -1.70667 -2.95102 0
M  V30 1133 H 110.857 -2.64828 -1.40733 0
M  V30 1134 H 108.41 -1.39742 -0.700132 0
M  V30 1135 H 109.145 -0.75932 -3.15285 0
M  V30 1136 H 108.93 -2.52698 -2.9981 0
M  V30 1137 H 110.42 -1.8664 -3.73571 0
M  V30 1138 N 110.857 0.726932 -1.39834 0
M  V30 1139 C 111.767 1.87131 -1.41489 0
M  V30 1140 C 112.783 1.71239 -0.308757 0
M  V30 1141 O 113.959 1.93701 -0.551529 0
M  V30 1142 C 111.024 3.22811 -1.26468 0
M  V30 1143 C 110.085 3.51039 -2.47124 0
M  V30 1144 C 109.318 4.80245 -2.3281 0
M  V30 1145 O 109.541 5.54537 -1.33585 0
M  V30 1146 O 108.475 5.08554 -3.21957 0
M  V30 1147 H 112.301 1.8869 -2.3797 0
M  V30 1148 H 109.886 0.875837 -1.21035 0
M  V30 1149 H 111.768 4.03877 -1.20255 0
M  V30 1150 H 110.443 3.22005 -0.330862 0
M  V30 1151 H 109.35 2.70027 -2.58914 0
M  V30 1152 H 110.683 3.56632 -3.39227 0
M  V30 1153 N 112.336 1.25143 0.95797 0
M  V30 1154 C 113.284 1.05019 2.07542 0
M  V30 1155 C 114.278 -0.0178751 1.69391 0
M  V30 1156 O 115.484 0.137472 1.79474 0
M  V30 1157 H 111.859 0.32265 0.679265 0
M  V30 1158 H 113.83 1.99759 2.21673 0
M  V30 1159 C 112.579 0.682074 3.40944 0
M  V30 1160 H 111.902 1.49573 3.70767 0
M  V30 1161 H 113.342 0.580945 4.20001 0
M  V30 1162 C 111.801 -0.611608 3.31302 0
M  V30 1163 O 112.331 -1.65465 3.66038 0
M  V30 1164 N 110.537 -0.595982 2.84423 0
M  V30 1165 H 110.084 0.253192 2.56353 0
M  V30 1166 H 110.042 -1.46173 2.78354 0
M  V30 1167 N 113.814 -1.1601 1.06675 0
M  V30 1168 C 115.039 -1.91068 0.806706 0
M  V30 1169 C 115.464 -1.77112 -0.633485 0
M  V30 1170 O 114.822 -1.09908 -1.44187 0
M  V30 1171 C 114.87 -3.39655 1.21106 0
M  V30 1172 O 113.974 -4.10893 0.352189 0
M  V30 1173 H 113.315 -0.595125 0.294486 0
M  V30 1174 H 115.845 -1.46955 1.42356 0
M  V30 1175 H 115.855 -3.90434 1.18428 0
M  V30 1176 H 114.53 -3.49132 2.26008 0
M  V30 1177 H 113.107 -3.70285 0.440868 0
M  V30 1178 N 115.292 -0.849877 -1.32721 0
M  V30 1179 C 116.222 -0.306308 -2.31482 0
M  V30 1180 C 117.203 0.591952 -1.59468 0
M  V30 1181 O 118.388 0.513199 -1.87296 0
M  V30 1182 C 115.518 0.510204 -3.43532 0
M  V30 1183 C 114.472 -0.293209 -4.26994 0
M  V30 1184 C 113.798 0.647743 -5.30762 0
M  V30 1185 C 115.098 -1.51634 -4.99804 0
M  V30 1186 H 116.792 -1.13153 -2.77195 0
M  V30 1187 H 114.338 -0.545553 -1.33266 0
M  V30 1188 H 116.291 0.900856 -4.11658 0
M  V30 1189 H 115.015 1.36874 -2.96535 0
M  V30 1190 H 113.674 -0.665555 -3.60508 0
M  V30 1191 H 113.322 1.50299 -4.8002 0
M  V30 1192 H 113.022 0.11422 -5.87489 0
M  V30 1193 H 114.546 1.03567 -6.01753 0
M  V30 1194 H 115.96 -1.19824 -5.60638 0
M  V30 1195 H 114.357 -1.98745 -5.66234 0
M  V30 1196 H 115.427 -2.28018 -4.27943 0
M  V30 1197 N 116.77 1.45427 -0.607355 0
M  V30 1198 C 118.017 2.02241 -0.102455 0
M  V30 1199 C 118.345 1.4758 1.26691 0
M  V30 1200 O 117.6 0.640468 1.84923 0
M  V30 1201 C 117.899 3.57398 -0.0129263 0
M  V30 1202 C 117.565 4.3121 -1.31792 0
M  V30 1203 C 116.227 4.51092 -1.67539 0
M  V30 1204 C 118.579 4.73401 -2.18039 0
M  V30 1205 C 115.907 5.10422 -2.89285 0
M  V30 1206 C 118.259 5.34078 -3.39034 0
M  V30 1207 C 116.923 5.52184 -3.75033 0
M  V30 1208 H 116.193 0.740051 -0.037491 0
M  V30 1209 H 118.84 1.74494 -0.788926 0
M  V30 1210 H 117.145 3.84421 0.756806 0
M  V30 1211 H 118.842 3.99061 0.393881 0
M  V30 1212 H 115.432 4.16047 -1.02968 0
M  V30 1213 H 119.616 4.57774 -1.91721 0
M  V30 1214 H 114.872 5.22629 -3.17283 0
M  V30 1215 H 119.046 5.65724 -4.06115 0
M  V30 1216 H 116.673 5.97925 -4.69457 0
M  V30 1217 N 118.248 0.346503 1.53744 0
M  V30 1218 C 119.178 -0.501193 2.28058 0
M  V30 1219 C 120.159 -1.10014 1.29734 0
M  V30 1220 O 121.344 -1.12097 1.58581 0
M  V30 1221 C 118.474 -1.65078 3.05559 0
M  V30 1222 C 117.428 -1.18003 4.11411 0
M  V30 1223 C 116.754 -2.41837 4.76884 0
M  V30 1224 C 118.054 -0.278394 5.21558 0
M  V30 1225 H 119.748 0.11875 2.99164 0
M  V30 1226 H 117.294 0.0585531 1.43881 0
M  V30 1227 H 119.247 -2.25028 3.56287 0
M  V30 1228 H 117.971 -2.29767 2.32109 0
M  V30 1229 H 116.63 -0.603331 3.61601 0
M  V30 1230 H 116.278 -3.0494 4.00026 0
M  V30 1231 H 115.978 -2.1102 5.48402 0
M  V30 1232 H 117.502 -3.02508 5.30397 0
M  V30 1233 H 118.916 -0.784823 5.67903 0
M  V30 1234 H 117.313 -0.0619707 6.00068 0
M  V30 1235 H 118.383 0.684677 4.80042 0
M  V30 1236 N 119.726 -1.57421 0.075193 0
M  V30 1237 C 120.658 -2.09904 -0.920483 0
M  V30 1238 C 121.671 -1.03191 -1.25918 0
M  V30 1239 O 122.86 -1.30695 -1.21577 0
M  V30 1240 C 119.96 -2.54726 -2.23534 0
M  V30 1241 C 119.133 -3.8505 -2.07498 0
M  V30 1242 C 118.192 -4.15929 -3.22319 0
M  V30 1243 O 117.218 -4.85474 -2.9716 0
M  V30 1244 N 118.42 -3.69745 -4.47514 0
M  V30 1245 H 121.185 -2.95954 -0.472359 0
M  V30 1246 H 118.746 -1.61523 -0.110444 0
M  V30 1247 H 120.738 -2.72443 -2.9926 0
M  V30 1248 H 119.308 -1.73795 -2.59835 0
M  V30 1249 H 118.528 -3.76679 -1.16219 0
M  V30 1250 H 119.816 -4.70348 -1.94038 0
M  V30 1251 H 119.214 -3.13569 -4.7084 0
M  V30 1252 H 117.771 -3.92655 -5.20255 0
M  V30 1253 N 121.204 0.198386 -1.56346 0
M  V30 1254 C 122.137 1.27381 -1.89339 0
M  V30 1255 C 123.115 1.44106 -0.753134 0
M  V30 1256 O 124.299 1.59549 -1.00381 0
M  V30 1257 C 121.426 2.6409 -2.12071 0
M  V30 1258 C 120.472 2.64253 -3.34772 0
M  V30 1259 S 121.305 2.16013 -4.89999 0
M  V30 1260 C 122.461 3.54553 -5.15794 0
M  V30 1261 H 122.694 0.992058 -2.8026 0
M  V30 1262 H 120.227 0.401726 -1.49082 0
M  V30 1263 H 122.185 3.42786 -2.2585 0
M  V30 1264 H 120.846 2.89478 -1.21906 0
M  V30 1265 H 120.039 3.64768 -3.47794 0
M  V30 1266 H 119.641 1.93637 -3.1997 0
M  V30 1267 H 121.933 4.50396 -5.06112 0
M  V30 1268 H 122.876 3.46428 -6.1757 0
M  V30 1269 H 123.284 3.49313 -4.43442 0
M  V30 1270 N 122.682 1.50554 0.465978 0
M  V30 1271 C 123.63 1.70324 1.58406 0
M  V30 1272 C 124.624 0.569139 1.59553 0
M  V30 1273 O 125.83 0.749776 1.63641 0
M  V30 1274 H 122.205 0.537688 0.525734 0
M  V30 1275 H 124.176 2.64104 1.38894 0
M  V30 1276 C 122.925 1.81928 2.96307 0
M  V30 1277 H 122.248 2.68586 2.96144 0
M  V30 1278 H 123.688 1.99784 3.73982 0
M  V30 1279 C 122.147 0.572095 3.32007 0
M  V30 1280 O 122.677 -0.286416 4.00678 0
M  V30 1281 N 120.883 0.424606 2.87481 0
M  V30 1282 H 120.43 1.12427 2.31771 0
M  V30 1283 H 120.388 -0.408697 3.11732 0
M  V30 1284 N 124.16 -0.719506 1.40217 0
M  V30 1285 C 125.408 -1.47641 1.3801 0
M  V30 1286 C 125.729 -1.94992 -0.018145 0
M  V30 1287 O 124.999 -1.70073 -0.972207 0
M  V30 1288 H 123.579 -0.547744 0.507923 0
M  V30 1289 H 126.241 -0.853187 1.75233 0
M  V30 1290 H 125.337 -2.35112 2.05253 0
M  V30 1291 N 125.638 -1.25649 -0.95132 0
M  V30 1292 C 126.568 -1.08808 -2.06599 0
M  V30 1293 C 127.549 0.00382547 -1.701 0
M  V30 1294 O 128.734 -0.166325 -1.93486 0
M  V30 1295 C 125.864 -0.709542 -3.39975 0
M  V30 1296 C 124.818 -1.75206 -3.90496 0
M  V30 1297 C 124.144 -1.22811 -5.20405 0
M  V30 1298 C 125.444 -3.15153 -4.16504 0
M  V30 1299 H 127.138 -2.02048 -2.20946 0
M  V30 1300 H 124.684 -0.972835 -1.06169 0
M  V30 1301 H 126.637 -0.578649 -4.17408 0
M  V30 1302 H 125.361 0.258556 -3.25575 0
M  V30 1303 H 124.02 -1.87145 -3.15234 0
M  V30 1304 H 123.668 -0.250145 -5.02378 0
M  V30 1305 H 123.368 -1.92492 -5.55176 0
M  V30 1306 H 124.892 -1.10968 -6.00432 0
M  V30 1307 H 126.306 -3.06349 -4.84586 0
M  V30 1308 H 124.703 -3.82333 -4.62538 0
M  V30 1309 H 125.773 -3.61966 -3.22658 0
M  V30 1310 N 127.117 1.15442 -1.07289 0
M  V30 1311 C 128.533 1.38201 -0.798288 0
M  V30 1312 C 128.733 1.92429 0.597769 0
M  V30 1313 O 127.789 2.12962 1.3566 0
M  V30 1314 C 129.102 2.35357 -1.87156 0
M  V30 1315 C 130.65 2.49021 -1.89624 0
M  V30 1316 C 131.125 3.49468 -2.96034 0
M  V30 1317 N 132.616 3.57003 -2.95132 0
M  V30 1318 C 133.351 4.34543 -3.74112 0
M  V30 1319 N 132.847 5.15421 -4.6294 0
M  V30 1320 N 134.64 4.29625 -3.62462 0
M  V30 1321 H 126.791 0.78584 -1.97328 0
M  V30 1322 H 129.054 0.408065 -0.855679 0
M  V30 1323 H 128.76 2.02626 -2.87464 0
M  V30 1324 H 128.634 3.35129 -1.73114 0
M  V30 1325 H 131.021 2.81051 -0.899687 0
M  V30 1326 H 131.102 1.4925 -2.07745 0
M  V30 1327 H 130.746 3.18173 -3.95889 0
M  V30 1328 H 130.676 4.48992 -2.75161 0
M  V30 1329 H 133.167 2.99276 -2.30743 0
M  V30 1330 H 133.48 5.7183 -5.19837 0
M  V30 1331 H 131.825 5.14729 -4.66989 0
M  V30 1332 H 135.016 3.65505 -2.92444 0
M  V30 1333 H 135.189 4.89807 -4.24256 0
M  V30 1334 N 128.595 0.856903 1.32268 0
M  V30 1335 C 129.558 0.308171 2.27119 0
M  V30 1336 C 130.558 -0.533421 1.51695 0
M  V30 1337 O 131.748 -0.344607 1.70757 0
M  V30 1338 C 128.88 -0.563757 3.36206 0
M  V30 1339 H 130.073 1.14535 2.77167 0
M  V30 1340 H 127.626 0.631421 1.42978 0
M  V30 1341 H 128.361 -1.42266 2.91429 0
M  V30 1342 H 128.146 0.0386749 3.92081 0
M  V30 1343 H 129.636 -0.940386 4.06874 0
M  V30 1344 N 130.073 -1.45103 0.615059 0
M  V30 1345 C 130.983 -2.34382 -0.101034 0
M  V30 1346 C 131.999 -1.51681 -0.852585 0
M  V30 1347 O 133.175 -1.8446 -0.808484 0
M  V30 1348 C 130.24 -3.29417 -1.08099 0
M  V30 1349 C 129.301 -4.28025 -0.330577 0
M  V30 1350 C 128.534 -5.1852 -1.26385 0
M  V30 1351 O 128.757 -5.12598 -2.50198 0
M  V30 1352 O 127.691 -5.97122 -0.756866 0
M  V30 1353 H 131.517 -2.97033 0.632855 0
M  V30 1354 H 129.102 -1.4461 0.375293 0
M  V30 1355 H 130.984 -3.87958 -1.6452 0
M  V30 1356 H 129.659 -2.69321 -1.79577 0
M  V30 1357 H 128.566 -3.73078 0.276283 0
M  V30 1358 H 129.899 -4.90997 0.343866 0
M  V30 1359 N 131.551 -0.354651 -1.53558 0
M  V30 1360 C 132.828 0.294281 -1.93374 0
M  V30 1361 C 133.208 1.67313 -1.28723 0
M  V30 1362 O 132.556 2.24179 -0.442247 0
M  V30 1363 C 132.766 0.355445 -3.47185 0
M  V30 1364 C 134.114 0.601007 -4.20325 0
M  V30 1365 O 135.138 0.437106 -3.53508 0
M  V30 1366 O 133.997 0.919322 -5.38712 0
M  V30 1367 H 131.091 0.174033 -0.808481 0
M  V30 1368 H 133.637 -0.406638 -1.64756 0
M  V30 1369 H 132.409 -0.611729 -3.86489 0
M  V30 1370 H 132.032 1.1027 -3.82003 0
M  V30 1371 N 133.029 1.57378 -0.0835403 0
M  V30 1372 C 134.257 1.98263 0.59157 0
M  V30 1373 C 134.672 0.962302 1.62435 0
M  V30 1374 O 134.029 -0.049581 1.82433 0
M  V30 1375 C 134.08 3.39214 1.24965 0
M  V30 1376 O 133.801 4.37339 0.258186 0
M  V30 1377 C 135.302 3.95038 2.01147 0
M  V30 1378 H 132.522 0.651773 0.159477 0
M  V30 1379 H 135.066 2.03878 -0.159415 0
M  V30 1380 H 133.221 3.34649 1.95164 0
M  V30 1381 H 133.635 5.19371 0.731734 0
M  V30 1382 H 135.109 4.95848 2.42567 0
M  V30 1383 H 135.586 3.32222 2.87272 0
M  V30 1384 H 136.192 4.0304 1.35789 0
M  V30 1385 N 134.507 -0.190092 1.56449 0
M  V30 1386 C 135.47 -1.21925 1.9408 0
M  V30 1387 C 136.47 -1.38176 0.822431 0
M  V30 1388 O 137.66 -1.35903 1.08977 0
M  V30 1389 C 134.792 -2.58773 2.21922 0
M  V30 1390 H 135.985 -0.897464 2.86157 0
M  V30 1391 H 133.538 -0.43181 1.50217 0
M  V30 1392 H 134.273 -2.95998 1.32499 0
M  V30 1393 H 134.058 -2.48348 3.03424 0
M  V30 1394 H 135.548 -3.32978 2.52022 0
M  V30 1395 N 135.985 -1.50799 -0.457987 0
M  V30 1396 C 136.915 -1.73553 -1.5621 0
M  V30 1397 C 137.896 -0.584774 -1.59732 0
M  V30 1398 O 139.081 -0.825314 -1.7579 0
M  V30 1399 C 136.211 -1.84169 -2.94447 0
M  V30 1400 C 135.165 -2.99461 -3.0579 0
M  V30 1401 C 134.491 -2.95235 -4.45803 0
M  V30 1402 C 135.791 -4.39766 -2.81786 0
M  V30 1403 H 137.485 -2.66 -1.37421 0
M  V30 1404 H 135.031 -1.28002 -0.659662 0
M  V30 1405 H 136.984 -1.98672 -3.71628 0
M  V30 1406 H 135.708 -0.883545 -3.14422 0
M  V30 1407 H 134.367 -2.8463 -2.31044 0
M  V30 1408 H 134.015 -1.97239 -4.62715 0
M  V30 1409 H 133.715 -3.72642 -4.54326 0
M  V30 1410 H 135.239 -3.11803 -5.24987 0
M  V30 1411 H 136.653 -4.55054 -3.4871 0
M  V30 1412 H 135.05 -5.18722 -3.0174 0
M  V30 1413 H 136.12 -4.51229 -1.7754 0
M  V30 1414 N 137.463 0.71206 -1.40597 0
M  V30 1415 C 138.693 1.49894 -1.42181 0
M  V30 1416 C 139.101 1.89189 -0.0208078 0
M  V30 1417 O 138.444 1.56223 0.966436 0
M  V30 1418 C 138.506 2.80215 -2.25211 0
M  V30 1419 C 138.17 2.63221 -3.73582 0
M  V30 1420 C 139.167 2.30249 -4.66135 0
M  V30 1421 C 136.852 2.79376 -4.17438 0
M  V30 1422 C 138.846 2.13645 -6.00529 0
M  V30 1423 C 136.533 2.6239 -5.51901 0
M  V30 1424 C 137.531 2.29573 -6.43262 0
M  V30 1425 O 137.219 2.12719 -7.75246 0
M  V30 1426 H 136.951 0.469031 -0.486812 0
M  V30 1427 H 139.505 0.88564 -1.85326 0
M  V30 1428 H 137.735 3.4389 -1.76852 0
M  V30 1429 H 139.424 3.41947 -2.18694 0
M  V30 1430 H 140.19 2.17398 -4.33547 0
M  V30 1431 H 136.069 3.03906 -3.46644 0
M  V30 1432 H 139.613 1.87953 -6.71803 0
M  V30 1433 H 135.51 2.74826 -5.84073 0
M  V30 1434 H 136.278 2.27611 -7.86216 0
M  V30 1435 N 138.941 1.26152 0.944643 0
M  V30 1436 C 140.171 1.14094 1.72239 0
M  V30 1437 C 140.579 -0.306931 1.86694 0
M  V30 1438 O 139.922 -1.22222 1.3714 0
M  V30 1439 C 139.984 1.73316 3.14963 0
M  V30 1440 C 139.648 3.2239 3.23904 0
M  V30 1441 C 140.645 4.19252 3.07447 0
M  V30 1442 C 138.33 3.62788 3.47405 0
M  V30 1443 C 140.324 5.54491 3.14353 0
M  V30 1444 C 138.011 4.98162 3.53947 0
M  V30 1445 C 139.009 5.93823 3.37436 0
M  V30 1446 O 138.697 7.26732 3.43679 0
M  V30 1447 H 138.429 0.398292 0.546205 0
M  V30 1448 H 140.983 1.67201 1.19301 0
M  V30 1449 H 139.213 1.14667 3.69308 0
M  V30 1450 H 140.902 1.56214 3.74636 0
M  V30 1451 H 141.668 3.8938 2.8915 0
M  V30 1452 H 137.547 2.88816 3.59313 0
M  V30 1453 H 141.091 6.29137 3.01384 0
M  V30 1454 H 136.988 5.27695 3.71763 0
M  V30 1455 H 137.756 7.3496 3.60245 0
M  V30 1456 N 140.419 -1.14872 1.07899 0
M  V30 1457 C 141.659 -1.8745 0.814965 0
M  V30 1458 C 142.023 -1.80758 -0.64733 0
M  V30 1459 O 143.224 -2.48422 -1.02664 0
M  V30 1460 C 141.495 -3.32286 1.31607 0
M  V30 1461 S 143.054 -4.22537 1.18357 0
M  V30 1462 H 139.872 -0.646833 0.295174 0
M  V30 1463 H 142.474 -1.38555 1.37923 0
M  V30 1464 H 141.178 -3.34703 2.37491 0
M  V30 1465 H 140.709 -3.86238 0.747261 0
M  V30 1466 H 142.724 -4.96044 0.124586 0
M  V30 1467 N 141.898 -0.863906 -1.31812 0
M  V30 1468 C 142.861 -0.320212 -2.26952 0
M  V30 1469 C 143.861 0.525369 -1.51975 0
M  V30 1470 O 145.051 0.335547 -1.70938 0
M  V30 1471 C 142.183 0.545919 -3.365 0
M  V30 1472 H 143.376 -1.16004 -2.76556 0
M  V30 1473 H 140.929 -0.638995 -1.42641 0
M  V30 1474 H 141.664 1.40718 -2.92179 0
M  V30 1475 H 141.449 -0.0594674 -3.92055 0
M  V30 1476 H 142.939 0.918796 -4.07367 0
M  V30 1477 N 143.376 1.44774 -0.622745 0
M  V30 1478 C 144.323 2.30635 0.0871679 0
M  V30 1479 C 145.293 1.42994 0.845097 0
M  V30 1480 O 146.478 1.71907 0.827812 0
M  V30 1481 C 143.618 3.28144 1.06844 0
M  V30 1482 C 142.731 4.30888 0.309809 0
M  V30 1483 C 141.866 5.15494 1.28215 0
M  V30 1484 C 140.905 6.09953 0.512198 0
M  V30 1485 N 140.042 6.87287 1.43458 0
M  V30 1486 H 144.882 2.90803 -0.650974 0
M  V30 1487 H 142.419 1.43286 -0.33281 0
M  V30 1488 H 144.377 3.83157 1.65066 0
M  V30 1489 H 143.007 2.69695 1.77382 0
M  V30 1490 H 142.059 3.78414 -0.388181 0
M  V30 1491 H 143.371 4.97955 -0.290254 0
M  V30 1492 H 142.525 5.74983 1.93596 0
M  V30 1493 H 141.264 4.48481 1.91614 0
M  V30 1494 H 140.269 5.49581 -0.155151 0
M  V30 1495 H 141.494 6.78999 -0.116958 0
M  V30 1496 H 139.44 6.2295 2.05594 0
M  V30 1497 H 139.357 7.50763 0.888335 0
M  V30 1498 H 140.625 7.51306 2.07749 0
M  V30 1499 N 144.854 0.36279 1.53368 0
M  V30 1500 C 146.102 -0.227326 2.00817 0
M  V30 1501 C 146.423 -1.49511 1.25186 0
M  V30 1502 O 145.693 -1.92482 0.364348 0
M  V30 1503 H 144.273 -0.0869923 0.741917 0
M  V30 1504 H 146.935 0.488381 1.88682 0
M  V30 1505 H 146.031 -0.456273 3.08747 0
M  V30 1506 N 146.332 -1.57332 0.0918853 0
M  V30 1507 C 147.748 -1.57389 -0.264766 0
M  V30 1508 C 147.948 -1.10281 -1.68643 0
M  V30 1509 O 147.004 -0.777801 -2.40222 0
M  V30 1510 C 148.317 -3.00648 -0.0561195 0
M  V30 1511 C 149.865 -3.12754 -0.124116 0
M  V30 1512 C 150.34 -4.57965 0.0564972 0
M  V30 1513 N 151.831 -4.632 0.00155611 0
M  V30 1514 C 152.566 -5.73281 0.116598 0
M  V30 1515 N 152.062 -6.92208 0.286294 0
M  V30 1516 N 153.855 -5.6207 0.0580973 0
M  V30 1517 H 146.006 -1.86262 1.02079 0
M  V30 1518 H 148.269 -0.859579 0.399786 0
M  V30 1519 H 147.975 -3.393 0.925669 0
M  V30 1520 H 147.849 -3.68623 -0.799823 0
M  V30 1521 H 150.236 -2.73976 -1.09641 0
M  V30 1522 H 150.317 -2.47377 0.651024 0
M  V30 1523 H 149.961 -4.97436 1.02564 0
M  V30 1524 H 149.891 -5.21399 -0.738297 0
M  V30 1525 H 152.382 -3.77686 -0.127192 0
M  V30 1526 H 152.695 -7.71934 0.365676 0
M  V30 1527 H 151.04 -6.94254 0.32192 0
M  V30 1528 H 154.231 -4.68043 -0.0733204 0
M  V30 1529 H 154.404 -6.47824 0.151203 0
M  V30 1530 N 147.81 0.181792 -1.56548 0
M  V30 1531 C 149.087 0.926765 -1.72251 0
M  V30 1532 C 149.467 2.00831 -0.650386 0
M  V30 1533 O 148.815 2.26008 0.336521 0
M  V30 1534 C 149.025 1.50106 -3.1507 0
M  V30 1535 C 150.373 1.97805 -3.75711 0
M  V30 1536 O 151.397 1.59922 -3.18282 0
M  V30 1537 O 150.256 2.67555 -4.76525 0
M  V30 1538 H 147.35 0.435506 -0.703039 0
M  V30 1539 H 149.896 0.170443 -1.68842 0
M  V30 1540 H 148.668 0.72212 -3.84579 0
M  V30 1541 H 148.291 2.32186 -3.22763 0
M  V30 1542 N 149.288 1.51039 0.449983 0
M  V30 1543 C 150.513 1.6715 1.22783 0
M  V30 1544 C 150.938 0.363081 1.84563 0
M  V30 1545 O 150.296 -0.675433 1.68249 0
M  V30 1546 C 150.344 2.77985 2.29689 0
M  V30 1547 O 149.448 2.40707 3.34864 0
M  V30 1548 H 148.789 0.557746 0.360299 0
M  V30 1549 H 151.319 1.97535 0.533005 0
M  V30 1550 H 151.329 3.01693 2.74673 0
M  V30 1551 H 150.004 3.72935 1.84098 0
M  V30 1552 H 148.581 2.27523 2.95445 0
M  V30 1553 N 150.766 -0.704594 1.40972 0
M  V30 1554 C 152.013 -1.46458 1.39844 0
M  V30 1555 C 152.341 -1.94499 0.00447594 0
M  V30 1556 O 151.596 -1.69275 -0.982057 0
M  V30 1557 C 151.895 -2.698 2.34399 0
M  V30 1558 C 151.561 -2.40464 3.81429 0
M  V30 1559 C 150.223 -2.32174 4.21484 0
M  V30 1560 C 152.575 -2.16086 4.74296 0
M  V30 1561 C 149.903 -1.97589 5.52427 0
M  V30 1562 C 152.255 -1.83011 6.05549 0
M  V30 1563 C 150.919 -1.7321 6.44635 0
M  V30 1564 H 150.189 -0.535927 0.511725 0
M  V30 1565 H 152.836 -0.806124 1.73706 0
M  V30 1566 H 151.141 -3.40536 1.93759 0
M  V30 1567 H 152.838 -3.27919 2.30804 0
M  V30 1568 H 149.428 -2.47808 3.49699 0
M  V30 1569 H 153.612 -2.2144 4.4416 0
M  V30 1570 H 148.868 -1.88547 5.81601 0
M  V30 1571 H 153.042 -1.63164 6.77016 0
M  V30 1572 H 150.669 -1.46179 7.46013 0
M  V30 1573 N 152.244 -1.26651 -0.937939 0
M  V30 1574 C 153.521 -1.0313 -1.66204 0
M  V30 1575 C 153.901 0.437256 -2.06522 0
M  V30 1576 O 153.249 1.41831 -1.79154 0
M  V30 1577 C 153.459 -1.98314 -2.87181 0
M  V30 1578 C 154.807 -2.27107 -3.58758 0
M  V30 1579 O 155.831 -1.96205 -2.97291 0
M  V30 1580 O 154.69 -2.79736 -4.69479 0
M  V30 1581 H 151.784 -0.392384 -0.727986 0
M  V30 1582 H 154.33 -1.37874 -0.989382 0
M  V30 1583 H 153.102 -2.97399 -2.54302 0
M  V30 1584 H 152.725 -1.64068 -3.6217 0
M  V30 1585 N 153.722 1.14298 -1.08507 0
M  V30 1586 C 154.971 1.84708 -0.810305 0
M  V30 1587 C 155.284 1.83903 0.666271 0
M  V30 1588 O 156.49 2.50112 1.05624 0
M  V30 1589 C 154.946 3.31572 -1.39957 0
M  V30 1590 C 154.554 3.40791 -2.90801 0
M  V30 1591 C 156.298 4.07087 -1.20334 0
M  V30 1592 C 154.205 4.81872 -3.4286 0
M  V30 1593 H 153.135 0.691985 -0.299454 0
M  V30 1594 H 155.786 1.28841 -1.30661 0
M  V30 1595 H 154.168 3.87183 -0.830976 0
M  V30 1596 H 155.342 2.95225 -3.53806 0
M  V30 1597 H 153.657 2.78732 -3.0935 0
M  V30 1598 H 156.254 5.11225 -1.56693 0
M  V30 1599 H 156.597 4.16054 -0.143237 0
M  V30 1600 H 157.13 3.57779 -1.73893 0
M  V30 1601 H 153.869 4.78094 -4.48449 0
M  V30 1602 H 153.389 5.27972 -2.84615 0
M  V30 1603 H 155.068 5.50765 -3.39509 0
M  V30 1604 N 155.201 0.870884 1.31352 0
M  V30 1605 C 156.447 0.492314 1.97352 0
M  V30 1606 C 156.802 -0.945174 1.67583 0
M  V30 1607 O 156.095 -1.65674 0.962423 0
M  V30 1608 C 156.289 0.687157 3.50732 0
M  V30 1609 C 156.118 2.14203 3.95407 0
M  V30 1610 C 154.888 2.78382 4.21701 0
M  V30 1611 C 157.086 3.1144 4.09279 0
M  V30 1612 N 155.068 4.14611 4.52737 0
M  V30 1613 C 156.439 4.32702 4.44037 0
M  V30 1614 C 158.494 3.07418 3.91661 0
M  V30 1615 C 157.197 5.50463 4.63015 0
M  V30 1616 C 159.223 4.24438 4.11833 0
M  V30 1617 C 158.585 5.44463 4.46923 0
M  V30 1618 H 154.684 0.229206 0.747655 0
M  V30 1619 H 157.268 1.12568 1.5886 0
M  V30 1620 H 155.439 0.083384 3.8831 0
M  V30 1621 H 157.171 0.276883 4.03752 0
M  V30 1622 H 153.926 2.29326 4.14375 0
M  V30 1623 H 154.35 4.84928 4.72413 0
M  V30 1624 H 158.992 2.15732 3.6362 0
M  V30 1625 H 156.71 6.42666 4.89904 0
M  V30 1626 H 160.296 4.2278 3.99685 0
M  V30 1627 H 159.176 6.33504 4.62214 0
M  V30 1628 N 156.679 -1.44442 0.630414 0
M  V30 1629 C 157.927 -2.01653 0.134351 0
M  V30 1630 C 158.248 -1.49836 -1.24796 0
M  V30 1631 O 157.518 -0.701684 -1.82902 0
M  V30 1632 H 156.098 -0.74554 0.0466769 0
M  V30 1633 H 158.76 -1.76952 0.816955 0
M  V30 1634 H 157.856 -3.11935 0.101498 0
M  V30 1635 N 158.157 -0.370918 -1.53173 0
M  V30 1636 C 159.089 0.507823 -2.23503 0
M  V30 1637 C 160.102 1.04182 -1.251 0
M  V30 1638 O 161.291 0.947286 -1.5129 0
M  V30 1639 C 158.391 1.71447 -2.92334 0
M  V30 1640 C 157.564 1.31105 -4.17289 0
M  V30 1641 C 156.623 2.38035 -4.69282 0
M  V30 1642 O 155.649 2.00204 -5.32829 0
M  V30 1643 N 156.851 3.69697 -4.47554 0
M  V30 1644 H 159.616 -0.0946382 -2.99551 0
M  V30 1645 H 157.177 -0.196358 -1.60705 0
M  V30 1646 H 159.169 2.42469 -3.24023 0
M  V30 1647 H 157.739 2.22368 -2.19707 0
M  V30 1648 H 156.959 0.430462 -3.91843 0
M  V30 1649 H 158.247 1.0179 -4.98514 0
M  V30 1650 H 157.645 4.03205 -3.9679 0
M  V30 1651 H 156.202 4.36807 -4.8378 0
M  V30 1652 N 159.635 1.57281 -0.100228 0
M  V30 1653 C 160.883 1.94153 0.561157 0
M  V30 1654 C 161.204 0.983157 1.68401 0
M  V30 1655 O 160.474 0.0361132 1.95867 0
M  V30 1656 H 159.054 0.716791 0.210283 0
M  V30 1657 H 161.716 1.94202 -0.164765 0
M  V30 1658 H 160.812 2.96709 0.968008 0
M  V30 1659 N 161.113 -0.173488 1.56642 0
M  V30 1660 C 162.341 -0.906095 1.86004 0
M  V30 1661 C 162.756 -1.75921 0.685355 0
M  V30 1662 O 162.113 -1.79198 -0.345578 0
M  V30 1663 C 162.164 -1.78462 3.14378 0
M  V30 1664 O 161.885 -0.965914 4.27319 0
M  V30 1665 C 163.386 -2.62707 3.57071 0
M  V30 1666 H 160.606 -0.263341 0.617165 0
M  V30 1667 H 163.15 -0.174236 2.03756 0
M  V30 1668 H 161.305 -2.46984 2.98459 0
M  V30 1669 H 161.719 -1.56655 5.00559 0
M  V30 1670 H 163.193 -3.19969 4.49804 0
M  V30 1671 H 163.67 -3.37472 2.81086 0
M  V30 1672 H 164.276 -1.99521 3.75595 0
M  V30 1673 N 162.591 -1.51276 -0.441967 0
M  V30 1674 C 163.524 -1.66933 -1.55591 0
M  V30 1675 C 164.502 -0.516958 -1.54163 0
M  V30 1676 O 165.686 -0.740209 -1.73358 0
M  V30 1677 C 162.813 -1.67866 -2.94174 0
M  V30 1678 C 161.859 -2.89013 -3.13646 0
M  V30 1679 S 162.692 -4.49897 -2.90436 0
M  V30 1680 C 163.848 -4.53568 -4.31308 0
M  V30 1681 H 164.081 -2.61155 -1.42076 0
M  V30 1682 H 161.614 -1.40902 -0.631341 0
M  V30 1683 H 163.572 -1.69089 -3.74058 0
M  V30 1684 H 162.233 -0.748296 -3.05056 0
M  V30 1685 H 161.426 -2.86054 -4.14957 0
M  V30 1686 H 161.028 -2.85509 -2.4158 0
M  V30 1687 H 163.32 -4.28924 -5.24434 0
M  V30 1688 H 164.263 -5.55355 -4.39303 0
M  V30 1689 H 164.671 -3.82943 -4.14747 0
M  V30 1690 N 164.069 0.697108 -1.41344 0
M  V30 1691 C 165.315 1.4593 -1.40827 0
M  V30 1692 C 165.648 1.94193 -0.0167098 0
M  V30 1693 O 164.923 1.69425 0.955263 0
M  V30 1694 C 165.206 2.67229 -2.41373 0
M  V30 1695 C 165.059 2.24741 -3.8963 0
M  V30 1696 C 166.378 3.69423 -2.39196 0
M  V30 1697 H 163.497 0.529303 -0.512842 0
M  V30 1698 H 166.139 0.794112 -1.72609 0
M  V30 1699 H 164.289 3.23982 -2.14401 0
M  V30 1700 H 165.961 1.73327 -4.27499 0
M  V30 1701 H 164.204 1.56542 -4.0457 0
M  V30 1702 H 164.875 3.1177 -4.55525 0
M  V30 1703 H 167.351 3.2234 -2.63128 0
M  V30 1704 H 166.227 4.51907 -3.11563 0
M  V30 1705 H 166.488 4.19012 -1.41001 0
M  V30 1706 N 165.547 1.27147 0.931209 0
M  V30 1707 C 166.775 1.16082 1.71267 0
M  V30 1708 C 167.19 -0.282772 1.8667 0
M  V30 1709 O 166.547 -1.19283 1.38122 0
M  V30 1710 C 166.598 1.8358 3.11417 0
M  V30 1711 O 166.319 3.22299 2.96741 0
M  V30 1712 C 167.82 1.78597 4.05732 0
M  V30 1713 H 165.04 0.403758 0.535929 0
M  V30 1714 H 167.584 1.67953 1.16671 0
M  V30 1715 H 165.739 1.35623 3.62885 0
M  V30 1716 H 166.153 3.55851 3.85319 0
M  V30 1717 H 167.627 2.30444 5.01597 0
M  V30 1718 H 168.104 0.754564 4.3267 0
M  V30 1719 H 168.71 2.26152 3.60188 0
M  V30 1720 N 167.025 -1.13721 1.09112 0
M  V30 1721 C 168.271 -1.85198 0.826414 0
M  V30 1722 C 168.604 -1.83129 -0.646319 0
M  V30 1723 O 167.879 -1.2671 -1.47563 0
M  V30 1724 C 168.162 -3.33507 1.35812 0
M  V30 1725 C 168.015 -3.44108 2.89672 0
M  V30 1726 C 169.334 -4.28838 0.989256 0
M  V30 1727 H 166.453 -0.67243 0.301675 0
M  V30 1728 H 169.095 -1.33499 1.35197 0
M  V30 1729 H 167.245 -3.77666 0.911082 0
M  V30 1730 H 168.917 -3.08684 3.428 0
M  V30 1731 H 167.16 -2.85087 3.26967 0
M  V30 1732 H 167.831 -4.48388 3.21951 0
M  V30 1733 H 170.307 -3.92734 1.37475 0
M  V30 1734 H 169.183 -5.31051 1.38838 0
M  V30 1735 H 169.444 -4.4198 -0.102924 0
M  V30 1736 N 168.503 -0.877838 -1.30888 0
M  V30 1737 C 169.728 -0.506629 -2.01117 0
M  V30 1738 C 170.153 0.895564 -1.65412 0
M  V30 1739 O 169.511 1.5923 -0.866922 0
M  V30 1740 C 169.559 -0.680223 -3.54126 0
M  V30 1741 O 168.663 0.277033 -4.11468 0
M  V30 1742 H 168.004 -0.200518 -0.633 0
M  V30 1743 H 170.534 -1.18342 -1.66902 0
M  V30 1744 H 170.544 -0.5765 -4.03907 0
M  V30 1745 H 169.219 -1.70261 -3.79452 0
M  V30 1746 H 167.796 0.127606 -3.72682 0
M  V30 1747 N 169.982 1.44106 -0.638065 0
M  V30 1748 C 171.207 2.0685 -0.150916 0
M  V30 1749 C 171.632 1.47417 1.16833 0
M  V30 1750 O 170.99 0.578264 1.71831 0
M  V30 1751 C 171.038 3.60555 -0.05708 0
M  V30 1752 O 170.142 4.00465 0.984972 0
M  V30 1753 H 169.483 0.658151 -0.0879399 0
M  V30 1754 H 172.013 1.84865 -0.876707 0
M  V30 1755 H 172.023 4.07789 0.131232 0
M  V30 1756 H 170.698 4.03193 -1.02021 0
M  V30 1757 H 169.275 3.64849 0.770672 0
M  V30 1758 N 171.46 0.379036 1.52974 0
M  V30 1759 C 172.423 -0.448865 2.24762 0
M  V30 1760 C 173.423 -0.998689 1.26027 0
M  V30 1761 O 174.613 -0.882313 1.50203 0
M  V30 1762 C 171.745 -1.62872 2.99476 0
M  V30 1763 H 172.938 0.179491 2.99362 0
M  V30 1764 H 170.491 0.13096 1.5575 0
M  V30 1765 H 171.226 -2.29479 2.29151 0
M  V30 1766 H 171.011 -1.24128 3.71934 0
M  V30 1767 H 172.501 -2.2151 3.5401 0
M  V30 1768 N 172.938 -1.57226 0.108567 0
M  V30 1769 C 174.163 -1.99604 -0.563303 0
M  V30 1770 C 174.588 -0.987563 -1.6009 0
M  V30 1771 O 173.946 0.0421687 -1.81251 0
M  V30 1772 C 173.994 -3.40902 -1.17552 0
M  V30 1773 O 173.098 -3.42896 -2.2912 0
M  V30 1774 H 172.439 -0.648704 -0.1417 0
M  V30 1775 H 174.969 -2.03679 0.193961 0
M  V30 1776 H 174.979 -3.78886 -1.51357 0
M  V30 1777 H 173.654 -4.1382 -0.415445 0
M  V30 1778 H 172.231 -3.1672 -1.96832 0
M  V30 1779 N 174.416 0.165178 -1.56732 0
M  V30 1780 C 175.644 0.896218 -1.86482 0
M  V30 1781 C 176.059 1.75555 -0.694675 0
M  V30 1782 O 175.416 1.79379 0.33607 0
M  V30 1783 C 175.467 1.76792 -3.1532 0
M  V30 1784 O 175.188 0.943239 -4.27825 0
M  V30 1785 C 176.689 2.6081 -3.58459 0
M  V30 1786 H 173.909 0.260064 -0.618553 0
M  V30 1787 H 176.453 0.163428 -2.03846 0
M  V30 1788 H 174.608 2.45398 -2.99764 0
M  V30 1789 H 175.022 1.53998 -5.01383 0
M  V30 1790 H 176.496 3.17579 -4.51495 0
M  V30 1791 H 176.973 3.35977 -2.82872 0
M  V30 1792 H 177.579 1.97526 -3.76648 0
M  V30 1793 N 175.894 1.51508 0.433938 0
M  V30 1794 C 176.841 1.73068 1.52696 0
M  V30 1795 C 177.811 0.572441 1.55924 0
M  V30 1796 O 178.996 0.807253 1.72882 0
M  V30 1797 C 176.136 1.86474 2.90381 0
M  V30 1798 C 175.249 3.14037 2.96656 0
M  V30 1799 C 174.384 3.18019 4.25485 0
M  V30 1800 C 173.423 4.39882 4.2564 0
M  V30 1801 N 172.56 4.41394 5.45999 0
M  V30 1802 H 177.4 2.66366 1.33615 0
M  V30 1803 H 174.937 1.32008 0.649018 0
M  V30 1804 H 176.895 1.92229 3.70275 0
M  V30 1805 H 175.525 0.965809 3.08013 0
M  V30 1806 H 174.577 3.17575 2.09404 0
M  V30 1807 H 175.889 4.0394 2.92633 0
M  V30 1808 H 175.043 3.22708 5.13755 0
M  V30 1809 H 173.782 2.2601 4.3217 0
M  V30 1810 H 172.787 4.35366 3.35763 0
M  V30 1811 H 174.012 5.33159 4.20617 0
M  V30 1812 H 171.958 3.52258 5.53399 0
M  V30 1813 H 171.875 5.25111 5.4387 0
M  V30 1814 H 173.143 4.50281 6.36292 0
M  V30 1815 N 177.372 -0.689602 1.41712 0
M  V30 1816 C 178.62 -1.4468 1.4111 0
M  V30 1817 C 178.941 -1.94986 0.0232196 0
M  V30 1818 O 178.211 -1.72097 -0.935913 0
M  V30 1819 H 176.791 -0.536847 0.519427 0
M  V30 1820 H 179.453 -0.815825 1.77004 0
M  V30 1821 H 178.549 -2.30706 2.10193 0
M  V30 1822 N 178.85 -1.27639 -0.924453 0
M  V30 1823 C 180.261 -1.12834 -1.48746 0
M  V30 1824 C 180.612 0.285505 -1.94112 0
M  V30 1825 O 179.737 1.17874 -1.81479 0
M  V30 1826 C 180.332 -2.04217 -2.70334 0
M  V30 1827 C 178.891 -1.93509 -3.22848 0
M  V30 1828 C 178.038 -1.96583 -1.95577 0
M  V30 1829 H 180.989 -1.40484 -0.738233 0
M  V30 1830 H 181.01 -1.59989 -3.4523 0
M  V30 1831 H 180.522 -3.07111 -2.37285 0
M  V30 1832 H 178.623 -0.936131 -3.60649 0
M  V30 1833 H 178.736 -2.79917 -3.88823 0
M  V30 1834 H 177.1 -1.4085 -2.12211 0
M  V30 1835 H 177.883 -3.01137 -1.64837 0
M  V30 1836 N 180.328 1.1314 -1.09713 0
M  V30 1837 C 181.553 1.88862 -0.857081 0
M  V30 1838 C 181.978 1.78729 0.586304 0
M  V30 1839 O 181.336 1.13692 1.41222 0
M  V30 1840 C 181.384 3.36325 -1.30069 0
M  V30 1841 O 180.488 4.09815 -0.461007 0
M  V30 1842 H 179.829 0.587108 -0.310162 0
M  V30 1843 H 182.359 1.43129 -1.46203 0
M  V30 1844 H 182.369 3.87157 -1.28738 0
M  V30 1845 H 181.044 3.43017 -2.35185 0
M  V30 1846 H 179.621 3.68986 -0.538888 0
M  V30 1847 N 181.806 0.884767 1.30421 0
M  V30 1848 C 183.052 0.503851 1.96441 0
M  V30 1849 C 183.385 -0.944518 1.69684 0
M  V30 1850 O 182.66 -1.66737 1.00145 0
M  V30 1851 C 182.943 0.779085 3.51571 0
M  V30 1852 C 182.796 2.27807 3.87846 0
M  V30 1853 C 184.115 0.255452 4.39358 0
M  V30 1854 H 181.234 0.184533 0.713524 0
M  V30 1855 H 183.876 1.10872 1.54297 0
M  V30 1856 H 182.026 0.264274 3.876 0
M  V30 1857 H 183.698 2.86127 3.61841 0
M  V30 1858 H 181.941 2.74479 3.35922 0
M  V30 1859 H 182.612 2.42125 4.96064 0
M  V30 1860 H 185.088 0.696079 4.10236 0
M  V30 1861 H 183.964 0.477361 5.4682 0
M  V30 1862 H 184.225 -0.843293 4.33983 0
M  V30 1863 N 183.284 -1.43765 0.645699 0
M  V30 1864 C 184.531 -2.01898 0.15604 0
M  V30 1865 C 184.859 -1.50887 -1.22733 0
M  V30 1866 O 184.114 -0.689271 -1.8316 0
M  V30 1867 C 184.413 -3.57238 0.107679 0
M  V30 1868 C 184.079 -4.27564 1.43178 0
M  V30 1869 C 182.741 -4.46492 1.7944 0
M  V30 1870 C 185.093 -4.67454 2.30513 0
M  V30 1871 C 182.421 -5.02573 3.02716 0
M  V30 1872 C 184.773 -5.24901 3.53074 0
M  V30 1873 C 183.437 -5.42046 3.89541 0
M  V30 1874 H 182.707 -0.738797 0.057099 0
M  V30 1875 H 185.354 -1.72341 0.834912 0
M  V30 1876 H 183.659 -3.86293 -0.654618 0
M  V30 1877 H 185.356 -3.99965 -0.287938 0
M  V30 1878 H 181.946 -4.13171 1.13963 0
M  V30 1879 H 186.13 -4.5253 2.0379 0
M  V30 1880 H 181.386 -5.14033 3.31028 0
M  V30 1881 H 185.56 -5.54758 4.20971 0
M  V30 1882 H 183.187 -5.85268 4.85145 0
M  V30 1883 N 184.763 -0.387143 -1.52771 0
M  V30 1884 C 186.174 0.0873634 -1.86495 0
M  V30 1885 C 186.525 1.46336 -1.30691 0
M  V30 1886 O 185.65 2.068 -0.637409 0
M  V30 1887 C 186.245 0.165305 -3.38396 0
M  V30 1888 C 184.804 0.584101 -3.7184 0
M  V30 1889 C 183.951 -0.255279 -2.76122 0
M  V30 1890 H 186.902 -0.605104 -1.46711 0
M  V30 1891 H 186.923 0.984848 -3.67534 0
M  V30 1892 H 186.435 -0.836301 -3.78982 0
M  V30 1893 H 184.536 1.59315 -3.36823 0
M  V30 1894 H 184.649 0.343749 -4.77865 0
M  V30 1895 H 183.013 0.279126 -2.53166 0
M  V30 1896 H 183.796 -1.25482 -3.19545 0
M  V30 1897 N 186.241 1.57166 -0.116904 0
M  V30 1898 C 187.171 2.18222 0.830759 0
M  V30 1899 C 188.152 1.12167 1.27877 0
M  V30 1900 O 189.337 1.40394 1.34176 0
M  V30 1901 C 186.467 2.77996 2.08172 0
M  V30 1902 C 185.421 3.89614 1.77157 0
M  V30 1903 C 184.747 4.36187 3.09265 0
M  V30 1904 C 186.047 5.1181 1.04151 0
M  V30 1905 H 187.741 2.97664 0.321992 0
M  V30 1906 H 185.287 1.4318 0.153434 0
M  V30 1907 H 187.24 3.19366 2.74924 0
M  V30 1908 H 185.964 1.9584 2.6137 0
M  V30 1909 H 184.623 3.48816 1.12796 0
M  V30 1910 H 184.271 3.50893 3.60393 0
M  V30 1911 H 183.971 5.11455 2.89288 0
M  V30 1912 H 185.495 4.80207 3.77139 0
M  V30 1913 H 186.909 5.50214 1.61052 0
M  V30 1914 H 185.306 5.92648 0.942762 0
M  V30 1915 H 186.376 4.84892 0.0279022 0
M  V30 1916 N 187.719 -0.156864 1.56817 0
M  V30 1917 C 188.682 -1.17781 1.96622 0
M  V30 1918 C 189.682 -1.36401 0.851555 0
M  V30 1919 O 190.872 -1.33561 1.11836 0
M  V30 1920 C 188.004 -2.54008 2.27361 0
M  V30 1921 H 189.197 -0.836564 2.87996 0
M  V30 1922 H 186.75 -0.39985 1.51099 0
M  V30 1923 H 187.485 -2.9312 1.38748 0
M  V30 1924 H 187.27 -2.41856 3.08623 0
M  V30 1925 H 188.76 -3.27558 2.59029 0
M  V30 1926 N 189.197 -1.51736 -0.425897 0
M  V30 1927 C 190.608 -1.5732 -1.00536 0
M  V30 1928 C 190.959 -0.403537 -1.92005 0
M  V30 1929 O 190.084 0.478256 -2.11049 0
M  V30 1930 C 190.679 -2.85119 -1.8301 0
M  V30 1931 C 189.238 -2.93236 -2.35987 0
M  V30 1932 C 188.385 -2.52098 -1.15508 0
M  V30 1933 H 191.336 -1.57348 -0.206739 0
M  V30 1934 H 191.357 -2.69526 -2.68581 0
M  V30 1935 H 190.869 -3.7023 -1.16411 0
M  V30 1936 H 188.97 -2.12581 -3.06007 0
M  V30 1937 H 189.083 -3.9713 -2.68001 0
M  V30 1938 H 187.447 -2.05558 -1.50393 0
M  V30 1939 H 188.23 -3.39565 -0.505014 0
M  V30 1940 N 190.675 0.682077 -1.42076 0
M  V30 1941 C 191.9 1.47558 -1.45744 0
M  V30 1942 C 192.325 1.87977 -0.0680981 0
M  V30 1943 O 191.683 1.55522 0.9318 0
M  V30 1944 C 191.731 2.70575 -2.38373 0
M  V30 1945 O 190.835 3.68573 -1.85007 0
M  V30 1946 H 190.176 0.443585 -0.494093 0
M  V30 1947 H 192.706 0.837238 -1.86686 0
M  V30 1948 H 192.716 3.18729 -2.54707 0
M  V30 1949 H 191.391 2.40495 -3.39315 0
M  V30 1950 H 189.968 3.2757 -1.78192 0
M  V30 1951 N 192.153 1.28127 0.917671 0
M  V30 1952 C 193.378 1.18007 1.70555 0
M  V30 1953 C 193.803 -0.258257 1.86319 0
M  V30 1954 O 193.161 -1.1869 1.37049 0
M  V30 1955 C 193.209 1.87948 3.07746 0
M  V30 1956 O 192.313 1.18427 3.9503 0
M  V30 1957 H 191.654 0.409867 0.522403 0
M  V30 1958 H 194.184 1.69379 1.1477 0
M  V30 1959 H 194.194 1.95701 3.58001 0
M  V30 1960 H 192.869 2.92573 2.95591 0
M  V30 1961 H 191.446 1.18811 3.53466 0
M  V30 1962 N 193.631 -1.12557 1.10312 0
M  V30 1963 C 194.578 -2.18247 0.750781 0
M  V30 1964 C 195.548 -1.63853 -0.272293 0
M  V30 1965 O 196.733 -1.90195 -0.151862 0
M  V30 1966 C 193.873 -3.44591 0.187379 0
M  V30 1967 C 192.986 -4.13046 1.2656 0
M  V30 1968 C 192.121 -5.27034 0.663978 0
M  V30 1969 C 191.16 -5.87353 1.72287 0
M  V30 1970 N 190.297 -6.92757 1.1416 0
M  V30 1971 H 195.137 -2.47732 1.65628 0
M  V30 1972 H 192.674 -1.21629 0.827337 0
M  V30 1973 H 194.632 -4.16904 -0.157148 0
M  V30 1974 H 193.262 -3.15527 -0.681355 0
M  V30 1975 H 192.314 -3.38924 1.72727 0
M  V30 1976 H 193.626 -4.53947 2.06721 0
M  V30 1977 H 192.78 -6.06104 0.268824 0
M  V30 1978 H 191.519 -4.87407 -0.169082 0
M  V30 1979 H 190.524 -5.06971 2.12746 0
M  V30 1980 H 191.749 -6.29051 2.55875 0
M  V30 1981 H 189.695 -6.5517 0.329984 0
M  V30 1982 H 189.612 -7.3225 1.88007 0
M  V30 1983 H 190.88 -7.75658 0.772956 0
M  V30 1984 N 195.109 -0.891671 -1.2995 0
M  V30 1985 C 196.334 -0.527932 -2.00568 0
M  V30 1986 C 196.759 0.877969 -1.66353 0
M  V30 1987 O 196.117 1.58301 -0.883762 0
M  V30 1988 C 196.165 -0.717745 -3.53385 0
M  V30 1989 O 195.269 0.233376 -4.11739 0
M  V30 1990 H 194.61 -0.20722 -0.630837 0
M  V30 1991 H 197.14 -1.20105 -1.65638 0
M  V30 1992 H 197.15 -0.619307 -4.03272 0
M  V30 1993 H 195.825 -1.74276 -3.77625 0
M  V30 1994 H 194.402 0.0880706 -3.72796 0
M  V30 1995 N 196.587 1.43421 -0.653314 0
M  V30 1996 C 197.815 2.06163 -0.174491 0
M  V30 1997 C 198.23 1.48969 1.1599 0
M  V30 1998 O 197.587 0.621042 1.71608 0
M  V30 1999 C 197.638 3.61417 -0.0774865 0
M  V30 2000 O 197.359 4.16485 -1.35912 0
M  V30 2001 C 198.86 4.41235 0.427402 0
M  V30 2002 H 196.08 0.664946 -0.0899353 0
M  V30 2003 H 198.624 1.83924 -0.893988 0
M  V30 2004 H 196.779 3.82841 0.59257 0
M  V30 2005 H 197.193 5.10153 -1.21839 0
M  V30 2006 H 198.667 5.5021 0.44423 0
M  V30 2007 H 199.144 4.14268 1.45873 0
M  V30 2008 H 199.75 4.2478 -0.210167 0
M  V30 2009 N 198.065 0.39524 1.52563 0
M  V30 2010 C 199.29 -0.187456 2.06551 0
M  V30 2011 C 199.715 -1.39249 1.26457 0
M  V30 2012 O 199.073 -1.78947 0.291151 0
M  V30 2013 C 199.121 -0.529985 3.56684 0
M  V30 2014 O 198.225 -1.62307 3.79118 0
M  V30 2015 H 197.566 -0.0202537 0.663691 0
M  V30 2016 H 200.096 0.564426 1.96661 0
M  V30 2017 H 200.106 -0.792598 4.00227 0
M  V30 2018 H 198.781 0.350987 4.14416 0
M  V30 2019 H 197.358 -1.3537 3.47461 0
M  V30 2020 N 199.544 -1.57102 0.125237 0
M  V30 2021 C 200.792 -1.95021 -0.530198 0
M  V30 2022 C 201.113 -1.00982 -1.66816 0
M  V30 2023 O 200.383 -0.0672693 -1.95784 0
M  V30 2024 H 198.963 -0.720046 -0.198853 0
M  V30 2025 H 201.625 -1.93916 0.19564 0
M  V30 2026 H 200.721 -2.98211 -0.920681 0
M  V30 2027 N 201.022 0.148545 -1.56898 0
M  V30 2028 C 202.27 0.859717 -1.82902 0
M  V30 2029 C 202.591 1.81775 -0.70588 0
M  V30 2030 O 201.861 1.93994 0.272586 0
M  V30 2031 H 200.441 0.320469 -0.674766 0
M  V30 2032 H 203.103 0.142918 -1.94375 0
M  V30 2033 H 202.199 1.4229 -2.77777 0
M  V30 2034 N 202.5 1.5196 0.417844 0
M  V30 2035 C 203.728 1.69426 1.18753 0
M  V30 2036 C 204.143 0.399955 1.84515 0
M  V30 2037 O 203.5 -0.623288 1.71527 0
M  V30 2038 C 203.551 2.82375 2.25714 0
M  V30 2039 O 203.272 4.06793 1.62638 0
M  V30 2040 C 204.773 3.11277 3.15628 0
M  V30 2041 H 201.993 0.568031 0.357186 0
M  V30 2042 H 204.537 1.98475 0.49273 0
M  V30 2043 H 202.692 2.5587 2.90877 0
M  V30 2044 H 203.106 4.69667 2.3348 0
M  V30 2045 H 204.58 3.93843 3.86771 0
M  V30 2046 H 205.057 2.24473 3.77503 0
M  V30 2047 H 205.663 3.39515 2.56144 0
M  V30 2048 N 203.978 -0.674533 1.42435 0
M  V30 2049 C 204.941 -1.76986 1.45632 0
M  V30 2050 C 205.941 -1.5708 0.343871 0
M  V30 2051 O 207.131 -1.63367 0.604709 0
M  V30 2052 C 204.263 -3.15623 1.28822 0
M  V30 2053 H 205.456 -1.75539 2.43158 0
M  V30 2054 H 203.009 -0.884189 1.28887 0
M  V30 2055 H 203.744 -3.22696 0.322193 0
M  V30 2056 H 203.529 -3.31475 2.09444 0
M  V30 2057 H 205.019 -3.95537 1.33942 0
M  V30 2058 N 205.456 -1.28612 -0.910864 0
M  V30 2059 C 206.419 -1.12803 -1.9952 0
M  V30 2060 C 207.419 -0.0668264 -1.60661 0
M  V30 2061 O 208.609 -0.312847 -1.71368 0
M  V30 2062 C 205.741 -0.72254 -3.33155 0
M  V30 2063 H 206.934 -2.09109 -2.14973 0
M  V30 2064 H 204.487 -1.11639 -1.09391 0
M  V30 2065 H 205.222 0.241152 -3.23402 0
M  V30 2066 H 205.007 -1.48916 -3.62721 0
M  V30 2067 H 206.497 -0.634666 -4.12749 0
M  V30 2068 N 206.934 1.1197 -1.10907 0
M  V30 2069 C 207.864 2.19928 -0.784473 0
M  V30 2070 C 208.845 1.6833 0.244726 0
M  V30 2071 O 210.03 1.93892 0.109418 0
M  V30 2072 C 207.16 3.46597 -0.220827 0
M  V30 2073 C 206.114 4.11376 -1.18127 0
M  V30 2074 C 205.44 5.32554 -0.478594 0
M  V30 2075 C 206.74 4.56945 -2.52979 0
M  V30 2076 H 208.434 2.47337 -1.68715 0
M  V30 2077 H 205.98 1.18879 -0.812642 0
M  V30 2078 H 207.933 4.21396 0.0184278 0
M  V30 2079 H 206.657 3.1863 0.717113 0
M  V30 2080 H 205.316 3.38564 -1.40606 0
M  V30 2081 H 204.964 5.00856 0.463976 0
M  V30 2082 H 204.664 5.76844 -1.11912 0
M  V30 2083 H 206.188 6.10096 -0.248 0
M  V30 2084 H 207.602 5.23093 -2.3462 0
M  V30 2085 H 205.999 5.1203 -3.12962 0
M  V30 2086 H 207.069 3.70676 -3.12614 0
M  V30 2087 N 208.412 0.89855 1.29475 0
M  V30 2088 C 209.66 0.522847 1.9522 0
M  V30 2089 C 209.981 -0.93371 1.71192 0
M  V30 2090 O 209.251 -1.65823 1.04305 0
M  V30 2091 H 207.831 0.190366 0.722336 0
M  V30 2092 H 210.493 1.14459 1.5775 0
M  V30 2093 H 209.589 0.704476 3.04045 0
M  V30 2094 N 209.89 -1.43072 0.660911 0
M  V30 2095 C 211.13 -2.03596 0.181146 0
M  V30 2096 C 211.494 -1.51057 -1.18515 0
M  V30 2097 O 212.695 -2.03275 -1.75877 0
M  V30 2098 C 210.966 -3.56845 0.19911 0
M  V30 2099 S 212.525 -4.38289 -0.211684 0
M  V30 2100 H 209.343 -0.706954 0.0757479 0
M  V30 2101 H 211.945 -1.75027 0.870965 0
M  V30 2102 H 210.649 -3.92583 1.1961 0
M  V30 2103 H 210.18 -3.90067 -0.510996 0
M  V30 2104 H 212.195 -4.74583 -1.44863 0
M  V30 2105 N 211.368 -0.403325 -1.52352 0
M  V30 2106 C 212.298 0.416205 -2.29761 0
M  V30 2107 C 213.279 1.05123 -1.33728 0
M  V30 2108 O 214.464 1.06134 -1.62632 0
M  V30 2109 C 211.594 1.53624 -3.11475 0
M  V30 2110 C 210.548 1.02653 -4.15507 0
M  V30 2111 C 209.874 2.23971 -4.85532 0
M  V30 2112 C 211.174 0.08463 -5.22231 0
M  V30 2113 H 212.868 -0.229701 -2.98518 0
M  V30 2114 H 210.414 -0.111913 -1.43564 0
M  V30 2115 H 212.367 2.1165 -3.64393 0
M  V30 2116 H 211.091 2.20994 -2.40477 0
M  V30 2117 H 209.75 0.46871 -3.63591 0
M  V30 2118 H 209.398 2.89883 -4.11068 0
M  V30 2119 H 209.098 1.90521 -5.55856 0
M  V30 2120 H 210.622 2.82614 -5.41259 0
M  V30 2121 H 212.036 0.573509 -5.70424 0
M  V30 2122 H 210.433 -0.160783 -5.99885 0
M  V30 2123 H 211.503 -0.86237 -4.7717 0
M  V30 2124 N 212.846 1.57033 -0.133567 0
M  V30 2125 C 214.092 1.95976 0.521649 0
M  V30 2126 C 214.425 1.01779 1.65393 0
M  V30 2127 O 213.7 0.0576581 1.94415 0
M  V30 2128 C 213.983 3.44738 1.04057 0
M  V30 2129 C 213.836 4.49711 -0.0892897 0
M  V30 2130 C 215.155 3.95682 1.92675 0
M  V30 2131 H 212.274 0.712579 0.188149 0
M  V30 2132 H 214.916 1.88813 -0.212076 0
M  V30 2133 H 213.066 3.50973 1.66583 0
M  V30 2134 H 214.738 4.55565 -0.725152 0
M  V30 2135 H 212.981 4.27261 -0.750378 0
M  V30 2136 H 213.652 5.51099 0.315284 0
M  V30 2137 H 216.128 3.91841 1.39998 0
M  V30 2138 H 215.004 5.00262 2.25897 0
M  V30 2139 H 215.265 3.37239 2.85872 0
M  V30 2140 N 214.325 -0.140222 1.56975 0
M  V30 2141 C 215.272 -1.17292 1.98774 0
M  V30 2142 C 216.242 -1.4232 0.856408 0
M  V30 2143 O 217.427 -1.54541 1.119 0
M  V30 2144 C 214.567 -2.49973 2.37923 0
M  V30 2145 C 213.68 -2.32062 3.64378 0
M  V30 2146 C 212.815 -3.57825 3.926 0
M  V30 2147 C 211.854 -3.3498 5.12303 0
M  V30 2148 N 210.991 -4.52891 5.36502 0
M  V30 2149 H 215.831 -0.809472 2.86795 0
M  V30 2150 H 213.368 -0.388237 1.41884 0
M  V30 2151 H 215.326 -3.27346 2.58652 0
M  V30 2152 H 213.956 -2.84252 1.52972 0
M  V30 2153 H 213.008 -1.45711 3.51387 0
M  V30 2154 H 214.32 -2.11145 4.51906 0
M  V30 2155 H 213.474 -4.43624 4.13863 0
M  V30 2156 H 212.213 -3.81753 3.03506 0
M  V30 2157 H 211.218 -2.4757 4.90906 0
M  V30 2158 H 212.443 -3.12444 6.02956 0
M  V30 2159 H 210.389 -4.76979 4.50363 0
M  V30 2160 H 210.306 -4.35001 6.18312 0
M  V30 2161 H 211.574 -5.39884 5.62268 0
M  V30 2162 N 215.803 -1.52179 -0.40978 0
M  V30 2163 C 217.08 -1.56769 -1.16974 0
M  V30 2164 C 217.46 -0.348322 -2.08206 0
M  V30 2165 O 216.808 0.664862 -2.18613 0
M  V30 2166 C 217.018 -2.89603 -1.9476 0
M  V30 2167 C 218.366 -3.42579 -2.50849 0
M  V30 2168 O 219.39 -2.91338 -2.04941 0
M  V30 2169 O 218.249 -4.32054 -3.34652 0
M  V30 2170 H 215.343 -0.631439 -0.534054 0
M  V30 2171 H 217.889 -1.64507 -0.416613 0
M  V30 2172 H 216.661 -3.698 -1.27921 0
M  V30 2173 H 216.284 -2.85155 -2.77079 0
M  V30 2174 N 217.281 0.66697 -1.42791 0
M  V30 2175 C 218.511 1.45294 -1.46878 0
M  V30 2176 C 218.919 1.89027 -0.0809861 0
M  V30 2177 O 218.262 1.59219 0.916246 0
M  V30 2178 C 218.324 2.72908 -2.34012 0
M  V30 2179 C 217.988 2.51203 -3.81767 0
M  V30 2180 C 218.985 2.15302 -4.73224 0
M  V30 2181 C 216.67 2.65954 -4.26115 0
M  V30 2182 C 218.664 1.94431 -6.07022 0
M  V30 2183 C 216.351 2.44699 -5.59969 0
M  V30 2184 C 217.349 2.08992 -6.5024 0
M  V30 2185 O 217.037 1.87948 -7.81621 0
M  V30 2186 H 216.769 0.453306 -0.501487 0
M  V30 2187 H 219.323 0.826232 -1.88049 0
M  V30 2188 H 217.553 3.38089 -1.87703 0
M  V30 2189 H 219.242 3.34816 -2.29462 0
M  V30 2190 H 220.008 2.03495 -4.40244 0
M  V30 2191 H 215.887 2.92724 -3.56137 0
M  V30 2192 H 219.431 1.66484 -6.77443 0
M  V30 2193 H 215.328 2.56105 -5.9252 0
M  V30 2194 H 216.096 2.02483 -7.93059 0
M  V30 2195 N 218.759 1.29093 0.90403 0
M  V30 2196 C 220.006 1.16813 1.65411 0
M  V30 2197 C 220.334 -0.28128 1.92455 0
M  V30 2198 O 219.589 -1.22006 1.53013 0
M  V30 2199 C 219.888 1.92224 3.01305 0
M  V30 2200 C 219.554 3.41968 2.93885 0
M  V30 2201 C 218.216 3.82807 2.91569 0
M  V30 2202 C 220.568 4.37409 2.83413 0
M  V30 2203 C 217.896 5.1741 2.76594 0
M  V30 2204 C 220.248 5.72097 2.69977 0
M  V30 2205 C 218.912 6.12199 2.66024 0
M  V30 2206 H 218.182 0.42745 0.605283 0
M  V30 2207 H 220.829 1.59981 1.05254 0
M  V30 2208 H 219.134 1.41635 3.65304 0
M  V30 2209 H 220.831 1.80131 3.58265 0
M  V30 2210 H 217.421 3.09504 2.96488 0
M  V30 2211 H 221.605 4.06813 2.84283 0
M  V30 2212 H 216.861 5.47596 2.71935 0
M  V30 2213 H 221.035 6.45704 2.60844 0
M  V30 2214 H 218.662 7.16448 2.54178 0
M  V30 2215 N 220.237 -1.11381 1.11499 0
M  V30 2216 C 221.648 -1.6465 0.880191 0
M  V30 2217 C 221.999 -1.87199 -0.587434 0
M  V30 2218 O 221.124 -1.60667 -1.44966 0
M  V30 2219 C 221.719 -2.99105 1.59128 0
M  V30 2220 C 220.278 -3.49279 1.40289 0
M  V30 2221 C 219.425 -2.24077 1.63354 0
M  V30 2222 H 222.376 -0.950123 1.27116 0
M  V30 2223 H 222.397 -3.66107 1.03664 0
M  V30 2224 H 221.909 -2.82661 2.65941 0
M  V30 2225 H 220.01 -3.70887 0.356888 0
M  V30 2226 H 220.123 -4.2803 2.15238 0
M  V30 2227 H 218.487 -2.31733 1.05698 0
M  V30 2228 H 219.27 -2.10175 2.71443 0
M  V30 2229 N 221.715 -0.905404 -1.28997 0
M  V30 2230 C 222.625 -0.392246 -2.31298 0
M  V30 2231 C 223.641 0.515889 -1.66176 0
M  V30 2232 O 224.817 0.404093 -1.97304 0
M  V30 2233 C 221.882 0.36686 -3.44754 0
M  V30 2234 C 220.943 -0.573485 -4.25452 0
M  V30 2235 C 220.176 0.149488 -5.33491 0
M  V30 2236 O 220.399 1.37255 -5.5364 0
M  V30 2237 O 219.333 -0.510919 -5.99728 0
M  V30 2238 H 223.159 -1.2411 -2.77183 0
M  V30 2239 H 220.744 -0.669926 -1.33538 0
M  V30 2240 H 222.626 0.795907 -4.13816 0
M  V30 2241 H 221.301 1.19169 -3.00966 0
M  V30 2242 H 220.208 -1.05176 -3.59011 0
M  V30 2243 H 221.541 -1.36489 -4.72897 0
M  V30 2244 N 223.193 1.4272 -0.668489 0
M  V30 2245 C 224.604 1.84793 -0.266151 0
M  V30 2246 C 224.955 1.55959 1.19043 0
M  V30 2247 O 224.08 1.01622 1.91055 0
M  V30 2248 C 224.675 3.35436 -0.476271 0
M  V30 2249 C 223.234 3.76182 -0.128113 0
M  V30 2250 C 222.381 2.66344 -0.771777 0
M  V30 2251 H 225.332 1.32656 -0.871098 0
M  V30 2252 H 225.353 3.79515 0.273561 0
M  V30 2253 H 224.865 3.5639 -1.53647 0
M  V30 2254 H 222.966 3.60836 0.928891 0
M  V30 2255 H 223.079 4.75766 -0.564231 0
M  V30 2256 H 221.443 2.53885 -0.203652 0
M  V30 2257 H 222.226 2.90123 -1.83531 0
M  V30 2258 N 224.671 0.411399 1.52136 0
M  V30 2259 C 225.917 -0.163888 2.02137 0
M  V30 2260 C 226.25 -1.44597 1.29636 0
M  V30 2261 O 225.525 -1.90272 0.403353 0
M  V30 2262 C 225.808 -0.40927 3.57767 0
M  V30 2263 C 225.661 0.889643 4.40914 0
M  V30 2264 C 226.98 -1.19042 4.23694 0
M  V30 2265 H 224.099 -0.0580896 0.734707 0
M  V30 2266 H 226.741 0.54531 1.82007 0
M  V30 2267 H 224.891 -1.0134 3.7505 0
M  V30 2268 H 226.563 1.52575 4.35337 0
M  V30 2269 H 224.806 1.50011 4.07037 0
M  V30 2270 H 225.477 0.672314 5.4789 0
M  V30 2271 H 227.953 -0.678942 4.10524 0
M  V30 2272 H 226.829 -1.33086 5.32522 0
M  V30 2273 H 227.09 -2.21166 3.82803 0
M  V30 2274 N 226.149 -1.5696 0.141893 0
M  V30 2275 C 227.377 -2.00322 -0.517579 0
M  V30 2276 C 227.792 -1.02193 -1.58752 0
M  V30 2277 O 227.149 -0.0181619 -1.82491 0
M  V30 2278 C 227.2 -3.43618 -1.12289 0
M  V30 2279 O 226.921 -4.37995 -0.0956929 0
M  V30 2280 C 228.422 -4.02231 -1.86347 0
M  V30 2281 H 225.642 -0.657243 -0.135177 0
M  V30 2282 H 228.186 -2.03146 0.234973 0
M  V30 2283 H 226.341 -3.41662 -1.82609 0
M  V30 2284 H 226.755 -5.21729 -0.538469 0
M  V30 2285 H 228.229 -5.04509 -2.23997 0
M  V30 2286 H 228.706 -3.42655 -2.74744 0
M  V30 2287 H 229.312 -4.07802 -1.20737 0
M  V30 2288 N 227.627 0.131896 -1.57047 0
M  V30 2289 C 228.873 0.843179 -1.84441 0
M  V30 2290 C 229.206 1.80129 -0.725749 0
M  V30 2291 O 228.481 1.92624 0.269469 0
M  V30 2292 C 228.764 1.60442 -3.22382 0
M  V30 2293 C 228.617 0.666782 -4.4483 0
M  V30 2294 C 229.936 2.56354 -3.5773 0
M  V30 2295 H 227.055 0.305081 -0.670891 0
M  V30 2296 H 229.697 0.107839 -1.89694 0
M  V30 2297 H 227.847 2.23128 -3.18035 0
M  V30 2298 H 229.519 0.0497646 -4.61273 0
M  V30 2299 H 227.762 -0.022609 -4.33794 0
M  V30 2300 H 228.433 1.23579 -5.37989 0
M  V30 2301 H 230.909 2.0378 -3.62785 0
M  V30 2302 H 229.785 3.06657 -4.5525 0
M  V30 2303 H 230.046 3.38419 -2.84473 0
M  V30 2304 N 229.106 1.52395 0.401703 0
M  V30 2305 C 230.331 1.70972 1.17403 0
M  V30 2306 C 230.756 0.421615 1.83314 0
M  V30 2307 O 230.114 -0.621564 1.70312 0
M  V30 2308 C 230.162 2.85151 2.20728 0
M  V30 2309 O 229.266 2.51238 3.27037 0
M  V30 2310 H 228.607 0.568927 0.342372 0
M  V30 2311 H 231.137 1.99131 0.469891 0
M  V30 2312 H 231.147 3.10279 2.64936 0
M  V30 2313 H 229.822 3.78603 1.7214 0
M  V30 2314 H 228.399 2.36808 2.88057 0
M  V30 2315 N 230.584 -0.659388 1.43143 0
M  V30 2316 C 231.83 -1.41984 1.45644 0
M  V30 2317 C 232.185 -1.92245 0.0771718 0
M  V30 2318 O 231.478 -1.68976 -0.903205 0
M  V30 2319 C 231.672 -2.62206 2.42864 0
M  V30 2320 C 231.501 -2.23711 3.90107 0
M  V30 2321 C 230.271 -2.12332 4.58523 0
M  V30 2322 C 232.469 -1.84384 4.80112 0
M  V30 2323 N 230.451 -1.67102 5.9072 0
M  V30 2324 C 231.822 -1.5019 6.01534 0
M  V30 2325 C 233.877 -1.71512 4.67427 0
M  V30 2326 C 232.58 -1.04414 7.11681 0
M  V30 2327 C 234.606 -1.27142 5.77572 0
M  V30 2328 C 233.968 -0.938808 6.98116 0
M  V30 2329 H 230.067 -0.515448 0.588079 0
M  V30 2330 H 232.651 -0.759409 1.79279 0
M  V30 2331 H 230.822 -3.25917 2.11265 0
M  V30 2332 H 232.554 -3.28877 2.35843 0
M  V30 2333 H 229.309 -2.31893 4.12944 0
M  V30 2334 H 229.733 -1.46866 6.60878 0
M  V30 2335 H 234.375 -1.95868 3.74694 0
M  V30 2336 H 232.093 -0.788061 8.04248 0
M  V30 2337 H 235.679 -1.17681 5.69774 0
M  V30 2338 H 234.559 -0.6007 7.81896 0
M  V30 2339 N 232.062 -1.29571 -0.897171 0
M  V30 2340 C 233.01 -1.14802 -2.02295 0
M  V30 2341 C 234.004 -0.0629637 -1.69283 0
M  V30 2342 O 235.21 -0.222945 -1.78614 0
M  V30 2343 H 231.585 -0.354692 -0.663097 0
M  V30 2344 H 233.556 -2.10108 -2.11889 0
M  V30 2345 C 232.305 -0.843966 -3.37302 0
M  V30 2346 H 231.628 -1.67093 -3.63208 0
M  V30 2347 H 233.068 -0.780672 -4.16751 0
M  V30 2348 C 231.527 0.452843 -3.33843 0
M  V30 2349 O 232.057 1.47813 -3.73516 0
M  V30 2350 N 230.263 0.459601 -2.86943 0
M  V30 2351 H 229.81 -0.375213 -2.54853 0
M  V30 2352 H 229.768 1.32726 -2.85011 0
M  V30 2353 N 233.54 1.10788 -1.12088 0
M  V30 2354 C 234.765 1.87002 -0.896949 0
M  V30 2355 C 235.19 1.79933 0.548261 0
M  V30 2356 O 234.548 1.16662 1.38779 0
M  V30 2357 C 234.596 3.3349 -1.37174 0
M  V30 2358 O 233.7 4.08745 -0.547831 0
M  V30 2359 H 233.041 0.580397 -0.322545 0
M  V30 2360 H 235.571 1.39996 -1.49206 0
M  V30 2361 H 235.581 3.84339 -1.36922 0
M  V30 2362 H 234.256 3.37951 -2.42408 0
M  V30 2363 H 232.833 3.6776 -0.617034 0
M  V30 2364 N 235.018 0.912232 1.28515 0
M  V30 2365 C 236.266 0.543523 1.94654 0
M  V30 2366 C 236.587 -0.9155 1.72173 0
M  V30 2367 O 235.857 -1.64708 1.06058 0
M  V30 2368 H 234.437 0.198017 0.720277 0
M  V30 2369 H 237.099 1.16126 1.56527 0
M  V30 2370 H 236.195 0.736684 3.03281 0
M  V30 2371 N 236.496 -1.42363 0.676048 0
M  V30 2372 C 237.459 -2.29199 0.00766941 0
M  V30 2373 C 238.459 -1.43389 -0.727745 0
M  V30 2374 O 239.649 -1.64764 -0.56556 0
M  V30 2375 C 236.781 -3.2591 -0.999785 0
M  V30 2376 H 237.974 -2.89794 0.771988 0
M  V30 2377 H 235.527 -1.50024 0.438468 0
M  V30 2378 H 236.262 -2.70256 -1.79255 0
M  V30 2379 H 236.047 -3.89202 -0.475829 0
M  V30 2380 H 237.537 -3.91028 -1.46583 0
M  V30 2381 N 237.974 -0.419461 -1.51915 0
M  V30 2382 C 238.904 0.391813 -2.30189 0
M  V30 2383 C 239.885 1.03699 -1.34836 0
M  V30 2384 O 241.07 1.04403 -1.63748 0
M  V30 2385 C 238.2 1.50312 -3.13087 0
M  V30 2386 C 237.154 0.9824 -4.16573 0
M  V30 2387 C 236.48 2.18809 -4.8788 0
M  V30 2388 C 237.78 0.0292356 -5.22292 0
M  V30 2389 H 239.474 -0.26135 -2.98257 0
M  V30 2390 H 237.02 -0.127134 -1.43438 0
M  V30 2391 H 238.973 2.07773 -3.66617 0
M  V30 2392 H 237.697 2.18431 -2.42807 0
M  V30 2393 H 236.356 0.430119 -3.64068 0
M  V30 2394 H 236.004 2.85507 -4.14119 0
M  V30 2395 H 235.704 1.84615 -5.57845 0
M  V30 2396 H 237.228 2.76858 -5.44226 0
M  V30 2397 H 238.642 0.512976 -5.71 0
M  V30 2398 H 237.039 -0.2244 -5.9968 0
M  V30 2399 H 238.109 -0.912931 -4.76228 0
M  V30 2400 N 239.452 1.56882 -0.150215 0
M  V30 2401 C 240.68 2.00593 0.506948 0
M  V30 2402 C 241.095 1.03033 1.58208 0
M  V30 2403 O 240.452 0.0278396 1.82479 0
M  V30 2404 C 240.503 3.44209 1.10465 0
M  V30 2405 O 240.224 4.3804 0.0724636 0
M  V30 2406 C 241.725 4.03214 1.84211 0
M  V30 2407 H 238.945 0.65795 0.13169 0
M  V30 2408 H 241.489 2.03018 -0.245743 0
M  V30 2409 H 239.644 3.42625 1.80795 0
M  V30 2410 H 240.058 5.22007 0.510793 0
M  V30 2411 H 241.532 5.0569 2.21318 0
M  V30 2412 H 242.009 3.44107 2.72923 0
M  V30 2413 H 242.615 4.08437 1.18572 0
M  V30 2414 N 240.93 -0.123565 1.57115 0
M  V30 2415 C 242.155 -0.850398 1.89164 0
M  V30 2416 C 242.58 -1.7286 0.741688 0
M  V30 2417 O 241.938 -1.78665 -0.307958 0
M  V30 2418 C 241.986 -1.66353 3.19936 0
M  V30 2419 O 241.09 -2.77004 3.0552 0
M  V30 2420 H 240.431 -0.235454 0.620852 0
M  V30 2421 H 242.961 -0.107335 2.04318 0
M  V30 2422 H 242.971 -2.05372 3.52543 0
M  V30 2423 H 241.646 -1.01881 4.03228 0
M  V30 2424 H 240.223 -2.41221 2.84371 0
M  V30 2425 N 242.408 -1.52605 -0.393616 0
M  V30 2426 C 243.656 -1.67093 -1.13685 0
M  V30 2427 C 243.977 -0.411011 -1.90619 0
M  V30 2428 O 243.247 0.574491 -1.87287 0
M  V30 2429 H 241.827 -0.615923 -0.422668 0
M  V30 2430 H 244.489 -1.89704 -0.447039 0
M  V30 2431 H 243.585 -2.51922 -1.84232 0
M  V30 2432 N 243.887 0.651787 -1.4349 0
M  V30 2433 C 245.133 1.41376 -1.45398 0
M  V30 2434 C 245.466 1.94041 -0.0784823 0
M  V30 2435 O 244.741 1.72379 0.900878 0
M  V30 2436 C 245.024 2.59414 -2.49752 0
M  V30 2437 C 244.877 2.12232 -3.96582 0
M  V30 2438 C 246.196 3.61626 -2.50827 0
M  V30 2439 H 243.315 0.512719 -0.529422 0
M  V30 2440 H 245.957 0.738796 -1.75048 0
M  V30 2441 H 244.107 3.16997 -2.246 0
M  V30 2442 H 245.779 1.59639 -4.32797 0
M  V30 2443 H 244.022 1.43592 -4.09346 0
M  V30 2444 H 244.693 2.9712 -4.65214 0
M  V30 2445 H 247.169 3.13805 -2.7325 0
M  V30 2446 H 246.045 4.41766 -3.25783 0
M  V30 2447 H 246.306 4.14314 -1.5426 0
M  V30 2448 N 245.365 1.30045 0.890287 0
M  V30 2449 C 246.315 1.12592 1.9826 0
M  V30 2450 C 247.299 0.0426021 1.60844 0
M  V30 2451 O 248.491 0.265346 1.75 0
M  V30 2452 C 245.62 0.814301 3.33503 0
M  V30 2453 C 244.706 1.93761 3.7725 0
M  V30 2454 N 245.097 3.18232 3.93143 0
M  V30 2455 C 243.395 1.83277 4.06602 0
M  V30 2456 C 244.096 3.9158 4.30163 0
M  V30 2457 N 243.072 3.19591 4.3973 0
M  V30 2458 H 246.874 2.07003 2.08631 0
M  V30 2459 H 244.388 1.21307 1.07974 0
M  V30 2460 H 246.385 0.67029 4.11476 0
M  V30 2461 H 245.045 -0.121797 3.24471 0
M  V30 2462 H 246.056 3.53581 3.78419 0
M  V30 2463 H 242.733 0.97001 4.06075 0
M  V30 2464 H 244.123 4.98744 4.50226 0
M  V30 2465 N 246.843 -1.10192 1.12674 0
M  V30 2466 C 248.071 -1.85983 0.906527 0
M  V30 2467 C 248.486 -1.80783 -0.544333 0
M  V30 2468 O 247.843 -1.19834 -1.37645 0
M  V30 2469 C 247.894 -3.34281 1.37618 0
M  V30 2470 O 247.615 -3.39401 2.77017 0
M  V30 2471 C 249.116 -4.26938 1.19325 0
M  V30 2472 H 246.336 -0.587716 0.323775 0
M  V30 2473 H 248.88 -1.39284 1.49734 0
M  V30 2474 H 247.035 -3.78436 0.828539 0
M  V30 2475 H 247.449 -4.31838 2.97684 0
M  V30 2476 H 248.923 -5.29181 1.57071 0
M  V30 2477 H 249.4 -4.38995 0.134097 0
M  V30 2478 H 250.006 -3.8859 1.72852 0
M  V30 2479 N 248.321 -0.919034 -1.28029 0
M  V30 2480 C 249.568 -0.554934 -1.94748 0
M  V30 2481 C 249.896 0.90231 -1.72304 0
M  V30 2482 O 249.151 1.65767 -1.04018 0
M  V30 2483 C 249.45 -0.816855 -3.4794 0
M  V30 2484 C 249.116 -2.25448 -3.90492 0
M  V30 2485 C 247.778 -2.64752 -4.01821 0
M  V30 2486 C 250.13 -3.18977 -4.12193 0
M  V30 2487 C 247.458 -3.96727 -4.32232 0
M  V30 2488 C 249.81 -4.50523 -4.44086 0
M  V30 2489 C 248.474 -4.89673 -4.53626 0
M  V30 2490 H 247.744 -0.203065 -0.712633 0
M  V30 2491 H 250.391 -1.16136 -1.52265 0
M  V30 2492 H 248.696 -0.127677 -3.91592 0
M  V30 2493 H 250.393 -0.514238 -3.97689 0
M  V30 2494 H 246.983 -1.93952 -3.82205 0
M  V30 2495 H 251.167 -2.89817 -4.02889 0
M  V30 2496 H 246.423 -4.26754 -4.37825 0
M  V30 2497 H 250.597 -5.23005 -4.59825 0
M  V30 2498 H 248.224 -5.91969 -4.76946 0
M  V30 2499 N 249.799 1.42003 -0.683588 0
M  V30 2500 C 251.21 1.84501 -0.285736 0
M  V30 2501 C 251.561 1.57213 1.17382 0
M  V30 2502 O 250.686 1.03642 1.89966 0
M  V30 2503 C 251.281 3.34912 -0.511821 0
M  V30 2504 C 249.84 3.76025 -0.168005 0
M  V30 2505 C 248.987 2.6551 -0.799983 0
M  V30 2506 H 251.938 1.31724 -0.885119 0
M  V30 2507 H 251.959 3.79784 0.233292 0
M  V30 2508 H 251.471 3.54741 -1.57418 0
M  V30 2509 H 249.572 3.61801 0.890567 0
M  V30 2510 H 249.685 4.75141 -0.614661 0
M  V30 2511 H 248.049 2.53654 -0.230568 0
M  V30 2512 H 248.832 2.8816 -1.86597 0
M  V30 2513 N 251.277 0.427512 1.51691 0
M  V30 2514 C 252.24 -0.377132 2.26076 0
M  V30 2515 C 253.24 -0.958089 1.29141 0
M  V30 2516 O 254.43 -0.83408 1.52934 0
M  V30 2517 C 251.562 -1.53262 3.04506 0
M  V30 2518 H 252.755 0.27464 2.9864 0
M  V30 2519 H 250.308 0.180445 1.55255 0
M  V30 2520 H 251.043 -2.22072 2.36335 0
M  V30 2521 H 250.828 -1.12232 3.75694 0
M  V30 2522 H 252.318 -2.10135 3.60878 0
M  V30 2523 N 252.755 -1.56801 0.158532 0
M  V30 2524 C 254.001 -1.96781 -0.490405 0
M  V30 2525 C 254.334 -1.04397 -1.63753 0
M  V30 2526 O 253.609 -0.0885805 -1.94298 0
M  V30 2527 C 253.892 -3.4635 -0.985594 0
M  V30 2528 C 253.745 -4.49512 0.160824 0
M  V30 2529 C 255.064 -3.98697 -1.86355 0
M  V30 2530 H 252.183 -0.715482 -0.176788 0
M  V30 2531 H 254.825 -1.88451 0.242088 0
M  V30 2532 H 252.975 -3.53579 -1.60978 0
M  V30 2533 H 254.647 -4.54353 0.797537 0
M  V30 2534 H 252.89 -4.26013 0.818256 0
M  V30 2535 H 253.561 -5.51531 -0.227569 0
M  V30 2536 H 256.037 -3.94019 -1.33746 0
M  V30 2537 H 254.913 -5.03792 -2.17909 0
M  V30 2538 H 255.174 -3.41744 -2.8047 0
M  V30 2539 N 254.233 0.115231 -1.57178 0
M  V30 2540 C 255.163 1.1423 -2.03651 0
M  V30 2541 C 256.144 1.42967 -0.921655 0
M  V30 2542 O 257.329 1.53343 -1.19162 0
M  V30 2543 C 254.459 2.4675 -2.44401 0
M  V30 2544 C 253.413 2.32467 -3.59365 0
M  V30 2545 C 252.739 3.69984 -3.86026 0
M  V30 2546 C 254.039 1.78203 -4.90959 0
M  V30 2547 H 255.733 0.755749 -2.89705 0
M  V30 2548 H 253.279 0.362093 -1.39373 0
M  V30 2549 H 255.232 3.18854 -2.75517 0
M  V30 2550 H 253.956 2.87302 -1.55322 0
M  V30 2551 H 252.615 1.62811 -3.28463 0
M  V30 2552 H 252.263 4.08028 -2.94147 0
M  V30 2553 H 251.963 3.61279 -4.63412 0
M  V30 2554 H 253.487 4.43587 -4.19599 0
M  V30 2555 H 254.901 2.40128 -5.20587 0
M  V30 2556 H 253.298 1.8031 -5.72371 0
M  V30 2557 H 254.368 0.739876 -4.79222 0
M  V30 2558 N 255.711 1.52812 0.385517 0
M  V30 2559 C 256.643 1.74096 1.49074 0
M  V30 2560 C 257.656 0.621462 1.50472 0
M  V30 2561 O 258.845 0.897245 1.54311 0
M  V30 2562 C 255.945 1.78774 2.87911 0
M  V30 2563 C 255.118 3.08134 3.10439 0
M  V30 2564 C 254.177 3.04313 4.29278 0
M  V30 2565 O 253.203 3.78168 4.25415 0
M  V30 2566 N 254.405 2.23741 5.35649 0
M  V30 2567 H 257.17 2.69455 1.31202 0
M  V30 2568 H 254.731 1.51343 0.575065 0
M  V30 2569 H 256.723 1.73721 3.65518 0
M  V30 2570 H 255.293 0.907869 2.99126 0
M  V30 2571 H 254.513 3.26649 2.20667 0
M  V30 2572 H 255.801 3.93662 3.22347 0
M  V30 2573 H 255.199 1.63211 5.41645 0
M  V30 2574 H 253.756 2.24524 6.11909 0
M  V30 2575 N 257.189 -0.644168 1.43834 0
M  V30 2576 C 258.414 -1.43642 1.49605 0
M  V30 2577 C 258.839 -1.8773 0.117913 0
M  V30 2578 O 258.197 -1.57938 -0.890239 0
M  V30 2579 C 258.245 -2.6416 2.45463 0
M  V30 2580 O 257.349 -3.63538 1.94714 0
M  V30 2581 H 256.69 -0.430329 0.50568 0
M  V30 2582 H 259.22 -0.787448 1.8884 0
M  V30 2583 H 259.23 -3.11864 2.63068 0
M  V30 2584 H 257.905 -2.31414 3.45572 0
M  V30 2585 H 256.482 -3.2273 1.86814 0
M  V30 2586 N 258.668 -1.30515 -0.883378 0
M  V30 2587 C 259.893 -1.22487 -1.67367 0
M  V30 2588 C 260.318 0.208767 -1.86938 0
M  V30 2589 O 259.676 1.15015 -1.40148 0
M  V30 2590 C 259.724 -1.96041 -3.02655 0
M  V30 2591 O 258.828 -1.28859 -3.91751 0
M  V30 2592 H 258.169 -0.423573 -0.511353 0
M  V30 2593 H 260.699 -1.72362 -1.10239 0
M  V30 2594 H 260.709 -2.05124 -3.52687 0
M  V30 2595 H 259.384 -3.00307 -2.8773 0
M  V30 2596 H 257.961 -1.28141 -3.50192 0
M  V30 2597 N 260.146 1.09593 -1.13257 0
M  V30 2598 C 261.394 1.81375 -0.891492 0
M  V30 2599 C 261.715 1.86049 0.584009 0
M  V30 2600 O 260.985 1.34481 1.42449 0
M  V30 2601 H 259.565 0.671708 -0.326828 0
M  V30 2602 H 262.227 1.3256 -1.42877 0
M  V30 2603 H 261.323 2.84612 -1.28071 0
M  V30 2604 N 261.624 0.925811 1.2754 0
M  V30 2605 C 262.554 0.440748 2.29303 0
M  V30 2606 C 263.535 -0.497971 1.62648 0
M  V30 2607 O 264.72 -0.403126 1.8997 0
M  V30 2608 C 261.85 -0.309048 3.45922 0
M  V30 2609 C 260.804 0.54166 4.24559 0
M  V30 2610 C 260.13 -0.337191 5.33636 0
M  V30 2611 C 261.43 1.80516 4.90114 0
M  V30 2612 H 263.124 1.29121 2.70126 0
M  V30 2613 H 260.67 0.622323 1.29858 0
M  V30 2614 H 262.623 -0.659315 4.1621 0
M  V30 2615 H 261.347 -1.19352 3.04011 0
M  V30 2616 H 260.006 0.874609 3.56014 0
M  V30 2617 H 259.654 -1.22056 4.87966 0
M  V30 2618 H 259.354 0.228497 5.87156 0
M  V30 2619 H 260.878 -0.683072 6.06767 0
M  V30 2620 H 262.292 1.52307 5.52698 0
M  V30 2621 H 260.689 2.3142 5.53683 0
M  V30 2622 H 261.759 2.52581 4.13921 0
M  V30 2623 N 263.102 -1.41638 0.69111 0
M  V30 2624 C 264.332 -2.0533 0.228758 0
M  V30 2625 C 264.74 -1.52089 -1.12541 0
M  V30 2626 O 264.083 -0.662145 -1.71351 0
M  V30 2627 C 264.145 -3.59349 0.10407 0
M  V30 2628 C 263.809 -4.35362 1.38956 0
M  V30 2629 C 264.806 -4.64942 2.32648 0
M  V30 2630 C 262.491 -4.74714 1.64169 0
M  V30 2631 C 264.485 -5.32828 3.49818 0
M  V30 2632 C 262.172 -5.42338 2.81625 0
M  V30 2633 C 263.17 -5.71322 3.74273 0
M  V30 2634 O 262.858 -6.37554 4.89673 0
M  V30 2635 H 262.59 -0.667796 0.104997 0
M  V30 2636 H 265.144 -1.82477 0.942938 0
M  V30 2637 H 263.374 -3.80924 -0.665839 0
M  V30 2638 H 265.063 -4.04633 -0.320519 0
M  V30 2639 H 265.829 -4.35025 2.14425 0
M  V30 2640 H 261.708 -4.51538 0.929202 0
M  V30 2641 H 265.252 -5.55368 4.22152 0
M  V30 2642 H 261.149 -5.71673 2.99768 0
M  V30 2643 H 261.917 -6.56049 4.8943 0
M  V30 2644 N 264.58 -0.43555 -1.51462 0
M  V30 2645 C 265.805 0.132627 -2.06976 0
M  V30 2646 C 266.23 1.35848 -1.30104 0
M  V30 2647 O 265.588 1.78112 -0.338493 0
M  V30 2648 C 265.636 0.43523 -3.57964 0
M  V30 2649 O 264.74 1.52198 -3.83288 0
M  V30 2650 H 264.081 0.00265 -0.663995 0
M  V30 2651 H 266.611 -0.616369 -1.95095 0
M  V30 2652 H 266.621 0.686206 -4.02188 0
M  V30 2653 H 265.296 -0.460739 -4.1334 0
M  V30 2654 H 263.873 1.2611 -3.50928 0
M  V30 2655 N 266.058 1.56714 -0.166846 0
M  V30 2656 C 266.988 2.20754 0.760913 0
M  V30 2657 C 267.969 1.16178 1.24244 0
M  V30 2658 O 269.154 1.44592 1.29641 0
M  V30 2659 C 266.284 2.84478 1.99223 0
M  V30 2660 C 265.238 3.95053 1.64672 0
M  V30 2661 C 264.564 4.45805 2.95232 0
M  V30 2662 C 265.864 5.14865 0.878155 0
M  V30 2663 H 267.558 2.98537 0.22713 0
M  V30 2664 H 265.104 1.43596 0.107805 0
M  V30 2665 H 267.057 3.27951 2.64624 0
M  V30 2666 H 265.781 2.04056 2.55007 0
M  V30 2667 H 264.44 3.52228 1.01641 0
M  V30 2668 H 264.088 3.62181 3.49047 0
M  V30 2669 H 263.788 5.204 2.7287 0
M  V30 2670 H 265.312 4.91962 3.6167 0
M  V30 2671 H 266.726 5.55059 1.43466 0
M  V30 2672 H 265.123 5.95348 0.753738 0
M  V30 2673 H 266.193 4.84735 -0.126377 0
M  V30 2674 N 267.536 -0.106894 1.57237 0
M  V30 2675 C 268.761 -0.830287 1.90055 0
M  V30 2676 C 269.186 -1.72064 0.75998 0
M  V30 2677 O 268.544 -1.78982 -0.288991 0
M  V30 2678 C 268.592 -1.6295 3.21683 0
M  V30 2679 O 267.696 -2.73748 3.08441 0
M  V30 2680 H 267.037 -0.228855 0.623315 0
M  V30 2681 H 269.567 -0.085658 2.04421 0
M  V30 2682 H 269.577 -2.01621 3.54701 0
M  V30 2683 H 268.252 -0.975989 4.04286 0
M  V30 2684 H 266.829 -2.38192 2.86913 0
M  V30 2685 N 269.014 -1.53014 -0.377408 0
M  V30 2686 C 270.239 -1.72818 -1.14668 0
M  V30 2687 C 270.664 -0.450725 -1.8262 0
M  V30 2688 O 270.022 0.59439 -1.7128 0
M  V30 2689 C 270.07 -2.88627 -2.16164 0
M  V30 2690 O 269.174 -2.56409 -3.22998 0
M  V30 2691 H 268.515 -0.574301 -0.333278 0
M  V30 2692 H 271.045 -1.99853 -0.438152 0
M  V30 2693 H 271.055 -3.14455 -2.59966 0
M  V30 2694 H 269.73 -3.81294 -1.66095 0
M  V30 2695 H 268.307 -2.4136 -2.84253 0
M  V30 2696 N 270.492 0.636531 -1.44174 0
M  V30 2697 C 271.738 1.39826 -1.4689 0
M  V30 2698 C 272.071 1.93947 -0.0990585 0
M  V30 2699 O 271.346 1.73325 0.882544 0
M  V30 2700 C 271.629 2.56751 -2.5249 0
M  V30 2701 C 271.482 2.08014 -3.98811 0
M  V30 2702 C 272.801 3.58946 -2.54649 0
M  V30 2703 H 269.92 0.507075 -0.53483 0
M  V30 2704 H 272.562 0.720188 -1.75822 0
M  V30 2705 H 270.712 3.14597 -2.2795 0
M  V30 2706 H 272.384 1.5504 -4.34466 0
M  V30 2707 H 270.627 1.39242 -4.10846 0
M  V30 2708 H 271.298 2.92169 -4.68339 0
M  V30 2709 H 273.774 3.1089 -2.76563 0
M  V30 2710 H 272.65 4.38286 -3.3045 0
M  V30 2711 H 272.911 4.12655 -1.58646 0
M  V30 2712 N 271.97 1.30982 0.876444 0
M  V30 2713 C 273.216 1.20474 1.63138 0
M  V30 2714 C 273.549 -0.238096 1.92735 0
M  V30 2715 O 272.824 -1.1692 1.55435 0
M  V30 2716 C 273.107 2.04244 2.96574 0
M  V30 2717 C 272.96 3.56793 2.73896 0
M  V30 2718 C 274.279 1.88684 3.97601 0
M  V30 2719 H 271.398 0.439001 0.591985 0
M  V30 2720 H 274.04 1.60704 1.01361 0
M  V30 2721 H 272.19 1.70063 3.493 0
M  V30 2722 H 273.862 4.01077 2.27892 0
M  V30 2723 H 272.105 3.80548 2.08245 0
M  V30 2724 H 272.776 4.10706 3.68815 0
M  V30 2725 H 275.252 2.18584 3.54062 0
M  V30 2726 H 274.128 2.4961 4.88862 0
M  V30 2727 H 274.389 0.848343 4.33884 0
M  V30 2728 N 273.449 -1.08991 1.13837 0
M  V30 2729 C 274.677 -1.85011 0.926202 0
M  V30 2730 C 275.092 -1.8135 -0.525127 0
M  V30 2731 O 274.449 -1.21287 -1.36366 0
M  V30 2732 C 274.5 -3.32802 1.41155 0
M  V30 2733 O 274.221 -3.36444 2.80601 0
M  V30 2734 C 275.722 -4.25649 1.23847 0
M  V30 2735 H 272.942 -0.584249 0.32999 0
M  V30 2736 H 275.486 -1.37688 1.51202 0
M  V30 2737 H 273.641 -3.77536 0.868631 0
M  V30 2738 H 274.055 -4.28657 3.02248 0
M  V30 2739 H 275.529 -5.27485 1.62675 0
M  V30 2740 H 276.006 -4.38828 0.18065 0
M  V30 2741 H 276.612 -3.86735 1.76964 0
M  V30 2742 N 274.927 -0.932562 -1.27047 0
M  V30 2743 C 276.173 -0.576412 -1.94436 0
M  V30 2744 C 276.506 0.880891 -1.73072 0
M  V30 2745 O 275.781 1.62905 -1.06264 0
M  V30 2746 C 276.064 -0.909031 -3.48437 0
M  V30 2747 C 275.917 -2.42044 -3.79123 0
M  V30 2748 C 277.236 -0.418341 -4.38107 0
M  V30 2749 H 274.355 -0.210888 -0.706184 0
M  V30 2750 H 276.997 -1.16522 -1.50075 0
M  V30 2751 H 275.147 -0.407947 -3.86352 0
M  V30 2752 H 276.819 -2.99359 -3.50973 0
M  V30 2753 H 275.062 -2.86758 -3.25503 0
M  V30 2754 H 275.733 -2.6037 -4.86736 0
M  V30 2755 H 278.209 -0.847856 -4.0737 0
M  V30 2756 H 277.085 -0.679981 -5.44672 0
M  V30 2757 H 277.346 0.681642 -4.36814 0
M  V30 2758 N 276.405 1.4127 -0.698611 0
M  V30 2759 C 277.816 1.84187 -0.305289 0
M  V30 2760 C 278.167 1.58449 1.15708 0
M  V30 2761 O 277.292 1.05651 1.88856 0
M  V30 2762 C 277.887 3.3435 -0.547314 0
M  V30 2763 C 276.446 3.75826 -0.207878 0
M  V30 2764 C 275.593 2.64647 -0.828099 0
M  V30 2765 H 278.544 1.30778 -0.89904 0
M  V30 2766 H 278.565 3.8001 0.192998 0
M  V30 2767 H 278.077 3.53051 -1.61172 0
M  V30 2768 H 276.178 3.62725 0.852143 0
M  V30 2769 H 276.291 4.74462 -0.665021 0
M  V30 2770 H 274.655 2.53395 -0.257458 0
M  V30 2771 H 275.438 2.86165 -1.89643 0
M  V30 2772 N 277.883 0.443576 1.51229 0
M  V30 2773 C 279.108 -0.121648 2.07043 0
M  V30 2774 C 279.533 -1.35156 1.30823 0
M  V30 2775 O 278.891 -1.7793 0.347934 0
M  V30 2776 C 278.939 -0.41624 3.5819 0
M  V30 2777 O 278.043 -1.50163 3.8409 0
M  V30 2778 H 277.384 0.000871367 0.663999 0
M  V30 2779 H 279.914 0.626706 1.94765 0
M  V30 2780 H 279.924 -0.664867 4.02546 0
M  V30 2781 H 278.599 0.482653 4.1309 0
M  V30 2782 H 277.176 -1.24248 3.51592 0
M  V30 2783 N 279.361 -1.56624 0.175154 0
M  V30 2784 C 280.586 -2.01813 -0.478137 0
M  V30 2785 C 281.011 -1.05457 -1.55757 0
M  V30 2786 O 280.369 -0.0347439 -1.81267 0
M  V30 2787 C 280.417 -3.45581 -1.02987 0
M  V30 2788 O 279.521 -3.52305 -2.14371 0
M  V30 2789 H 278.862 -0.65413 -0.114059 0
M  V30 2790 H 281.392 -2.02673 0.280173 0
M  V30 2791 H 281.402 -3.84965 -1.35151 0
M  V30 2792 H 280.077 -4.1521 -0.239556 0
M  V30 2793 H 278.654 -3.24783 -1.83222 0
M  V30 2794 N 280.839 0.0985539 -1.57292 0
M  V30 2795 C 282.064 0.820196 -1.90493 0
M  V30 2796 C 282.489 1.71658 -0.769094 0
M  V30 2797 O 281.847 1.79133 0.279495 0
M  V30 2798 C 281.895 1.61242 -3.22542 0
M  V30 2799 O 280.999 2.72108 -3.09888 0
M  V30 2800 H 280.34 0.225547 -0.62452 0
M  V30 2801 H 282.87 0.0748159 -2.04463 0
M  V30 2802 H 282.88 1.99737 -3.55766 0
M  V30 2803 H 281.555 0.954535 -4.04798 0
M  V30 2804 H 280.132 2.36667 -2.88172 0
M  V30 2805 N 282.317 1.53212 0.369288 0
M  V30 2806 C 283.247 1.82365 1.45826 0
M  V30 2807 C 284.228 0.676907 1.56051 0
M  V30 2808 O 285.413 0.926401 1.70679 0
M  V30 2809 C 282.543 2.01023 2.83208 0
M  V30 2810 C 281.497 3.1678 2.8781 0
M  V30 2811 C 280.823 3.20724 4.27832 0
M  V30 2812 C 282.123 4.55447 2.55667 0
M  V30 2813 H 283.817 2.73559 1.21678 0
M  V30 2814 H 281.363 1.3163 0.583911 0
M  V30 2815 H 283.316 2.20001 3.59413 0
M  V30 2816 H 282.04 1.06536 3.08736 0
M  V30 2817 H 280.699 2.97616 2.14056 0
M  V30 2818 H 280.347 2.23882 4.50429 0
M  V30 2819 H 280.047 3.98496 4.31827 0
M  V30 2820 H 281.571 3.41881 5.05915 0
M  V30 2821 H 282.985 4.74611 3.21586 0
M  V30 2822 H 281.382 5.35432 2.70984 0
M  V30 2823 H 282.452 4.60812 1.5093 0
M  V30 2824 N 283.795 -0.628877 1.44509 0
M  V30 2825 C 285.043 -1.38565 1.4712 0
M  V30 2826 C 285.364 -1.94712 0.105899 0
M  V30 2827 O 284.634 -1.75912 -0.862079 0
M  V30 2828 H 283.214 -0.514333 0.541729 0
M  V30 2829 H 285.876 -0.740018 1.80305 0
M  V30 2830 H 284.972 -2.21583 2.19789 0
M  V30 2831 N 285.273 -1.31445 -0.869486 0
M  V30 2832 C 286.501 -1.24122 -1.65534 0
M  V30 2833 C 286.916 0.193387 -1.87807 0
M  V30 2834 O 286.273 1.12557 -1.43656 0
M  V30 2835 C 286.324 -1.98229 -3.02304 0
M  V30 2836 O 286.045 -3.3609 -2.81026 0
M  V30 2837 C 287.546 -1.97751 -3.96749 0
M  V30 2838 H 284.766 -0.428868 -0.516055 0
M  V30 2839 H 287.31 -1.73328 -1.08525 0
M  V30 2840 H 285.465 -1.52782 -3.56001 0
M  V30 2841 H 285.879 -3.7383 -3.67902 0
M  V30 2842 H 287.353 -2.54114 -4.90031 0
M  V30 2843 H 287.83 -0.960137 -4.28577 0
M  V30 2844 H 288.436 -2.43079 -3.48988 0
M  V30 2845 N 286.751 1.08385 -1.14413 0
M  V30 2846 C 287.683 2.1519 -0.789036 0
M  V30 2847 C 288.696 1.61638 0.19417 0
M  V30 2848 O 289.885 1.78479 -0.0275711 0
M  V30 2849 C 286.985 3.38565 -0.15058 0
M  V30 2850 C 286.158 4.21501 -1.16857 0
M  V30 2851 C 285.217 5.23277 -0.553832 0
M  V30 2852 O 284.243 5.56041 -1.21686 0
M  V30 2853 N 285.445 5.76629 0.669296 0
M  V30 2854 H 288.21 2.46257 -1.70814 0
M  V30 2855 H 285.771 1.24198 -1.03858 0
M  V30 2856 H 287.763 4.03777 0.273181 0
M  V30 2857 H 286.333 3.05299 0.671667 0
M  V30 2858 H 285.553 3.52265 -1.76926 0
M  V30 2859 H 286.841 4.73731 -1.85624 0
M  V30 2860 H 286.239 5.52243 1.22654 0
M  V30 2861 H 284.796 6.43521 1.03556 0
M  V30 2862 N 288.23 0.939286 1.26551 0
M  V30 2863 C 289.458 0.602536 1.97932 0
M  V30 2864 C 289.873 -0.82206 1.69964 0
M  V30 2865 O 289.23 -1.54789 0.966784 0
M  V30 2866 C 289.281 0.832946 3.51773 0
M  V30 2867 O 289.002 2.20151 3.78768 0
M  V30 2868 C 290.503 0.506483 4.40397 0
M  V30 2869 H 287.723 0.227248 0.631347 0
M  V30 2870 H 290.267 1.25948 1.61113 0
M  V30 2871 H 288.422 0.222644 3.8676 0
M  V30 2872 H 288.836 2.26013 4.73306 0
M  V30 2873 H 290.31 0.718333 5.47306 0
M  V30 2874 H 290.787 -0.558451 4.35635 0
M  V30 2875 H 291.393 1.09543 4.10951 0
M  V30 2876 N 289.708 -1.40897 0.706093 0
M  V30 2877 C 290.938 -2.05075 0.250523 0
M  V30 2878 C 291.346 -1.53275 -1.10921 0
M  V30 2879 O 290.689 -0.680281 -1.7064 0
M  V30 2880 C 290.751 -3.59219 0.142178 0
M  V30 2881 C 290.415 -4.33864 1.43566 0
M  V30 2882 C 291.412 -4.62448 2.37566 0
M  V30 2883 C 289.097 -4.72946 1.69195 0
M  V30 2884 C 291.091 -5.29088 3.5545 0
M  V30 2885 C 288.778 -5.3932 2.87362 0
M  V30 2886 C 289.776 -5.6732 3.80312 0
M  V30 2887 O 289.464 -6.32325 4.96408 0
M  V30 2888 H 289.196 -0.666645 0.112074 0
M  V30 2889 H 291.75 -1.81467 0.962239 0
M  V30 2890 H 289.98 -3.81609 -0.6254 0
M  V30 2891 H 291.669 -4.0495 -0.277584 0
M  V30 2892 H 292.435 -4.32727 2.19027 0
M  V30 2893 H 288.314 -4.50527 0.977042 0
M  V30 2894 H 291.858 -5.50859 4.28018 0
M  V30 2895 H 287.755 -5.68461 3.05814 0
M  V30 2896 H 288.523 -6.50821 4.9636 0
M  V30 2897 N 291.186 -0.45159 -1.50991 0
M  V30 2898 C 292.435 0.111653 -2.01391 0
M  V30 2899 C 292.748 1.42529 -1.33959 0
M  V30 2900 O 293.954 2.07232 -1.75405 0
M  V30 2901 C 292.41 0.249514 -3.59034 0
M  V30 2902 C 292.018 -1.05453 -4.35412 0
M  V30 2903 C 293.762 0.765762 -4.17536 0
M  V30 2904 C 291.669 -0.881529 -5.84793 0
M  V30 2905 H 290.599 0.0455022 -0.752626 0
M  V30 2906 H 293.25 -0.583524 -1.73975 0
M  V30 2907 H 291.632 1.00803 -3.82955 0
M  V30 2908 H 292.806 -1.82248 -4.23229 0
M  V30 2909 H 291.121 -1.50039 -3.88429 0
M  V30 2910 H 293.718 0.911913 -5.26866 0
M  V30 2911 H 294.061 1.75201 -3.77638 0
M  V30 2912 H 294.594 0.0651744 -3.97747 0
M  V30 2913 H 291.333 -1.84057 -6.29129 0
M  V30 2914 H 290.853 -0.153625 -5.99603 0
M  V30 2915 H 292.532 -0.540363 -6.4474 0
M  V30 2916 N 292.664 1.56529 -0.183458 0
M  V30 2917 C 293.904 1.99141 0.460667 0
M  V30 2918 C 294.268 1.06736 1.59597 0
M  V30 2919 O 295.469 1.38538 2.30349 0
M  V30 2920 C 293.74 3.45358 0.919939 0
M  V30 2921 S 295.299 4.09999 1.56354 0
M  V30 2922 H 292.117 0.695479 0.147748 0
M  V30 2923 H 294.719 1.93429 -0.283782 0
M  V30 2924 H 293.423 4.10315 0.0834208 0
M  V30 2925 H 292.954 3.54862 1.69814 0
M  V30 2926 H 294.969 4.06046 2.85203 0
M  V30 2927 N 294.142 -0.090211 1.57342 0
M  V30 2928 C 295.09 -1.12792 2.03422 0
M  V30 2929 C 296.084 -1.41182 0.936166 0
M  V30 2930 O 297.29 -1.40805 1.12133 0
M  V30 2931 H 293.665 -0.380986 0.648347 0
M  V30 2932 H 295.636 -0.71299 2.89757 0
M  V30 2933 C 294.385 -2.43855 2.47851 0
M  V30 2934 H 293.708 -2.22855 3.31927 0
M  V30 2935 H 295.148 -3.14955 2.83865 0
M  V30 2936 C 293.607 -3.08503 1.3538 0
M  V30 2937 O 294.137 -3.95805 0.685641 0
M  V30 2938 N 292.343 -2.68831 1.10355 0
M  V30 2939 H 291.89 -1.97929 1.64869 0
M  V30 2940 H 291.848 -3.12412 0.353031 0
M  V30 2941 N 295.62 -1.53406 -0.361157 0
M  V30 2942 C 296.866 -1.70054 -1.10496 0
M  V30 2943 C 297.199 -0.453278 -1.88836 0
M  V30 2944 O 296.474 0.5495 -1.86576 0
M  V30 2945 C 296.757 -2.95317 -2.06058 0
M  V30 2946 C 296.61 -4.3021 -1.31298 0
M  V30 2947 C 297.929 -3.16193 -3.06121 0
M  V30 2948 H 295.048 -0.618799 -0.400321 0
M  V30 2949 H 297.69 -1.86052 -0.385318 0
M  V30 2950 H 295.84 -2.81809 -2.67425 0
M  V30 2951 H 297.512 -4.55538 -0.726807 0
M  V30 2952 H 295.755 -4.29421 -0.614853 0
M  V30 2953 H 296.426 -5.14 -2.01265 0
M  V30 2954 H 298.902 -3.28916 -2.5486 0
M  V30 2955 H 297.778 -4.05266 -3.70204 0
M  V30 2956 H 298.039 -2.31676 -3.76535 0
M  V30 2957 N 297.098 0.621204 -1.44841 0
M  V30 2958 C 298.046 1.75385 -1.52784 0
M  V30 2959 C 299.04 1.64639 -0.398779 0
M  V30 2960 O 300.246 1.70598 -0.574137 0
M  V30 2961 H 296.621 0.579193 -0.479625 0
M  V30 2962 H 298.592 1.6581 -2.48092 0
M  V30 2963 C 297.341 3.13742 -1.4987 0
M  V30 2964 H 296.664 3.22663 -2.36069 0
M  V30 2965 H 298.104 3.92861 -1.59487 0
M  V30 2966 C 296.563 3.36175 -0.220973 0
M  V30 2967 O 297.093 3.95469 0.704782 0
M  V30 2968 N 295.299 2.90348 -0.120963 0
M  V30 2969 H 294.846 2.42278 -0.875162 0
M  V30 2970 H 294.804 3.05732 0.733168 0
M  V30 2971 N 298.576 1.31904 0.862503 0
M  V30 2972 C 299.526 1.16772 1.95827 0
M  V30 2973 C 300.51 0.0767098 1.60717 0
M  V30 2974 O 301.702 0.302407 1.74398 0
M  V30 2975 C 298.831 0.884858 3.317 0
M  V30 2976 C 297.917 2.0172 3.73055 0
M  V30 2977 N 298.308 3.265 3.86305 0
M  V30 2978 C 296.606 1.91861 4.02623 0
M  V30 2979 C 297.307 4.00616 4.2176 0
M  V30 2980 N 296.283 3.28847 4.32852 0
M  V30 2981 H 300.085 2.11382 2.04193 0
M  V30 2982 H 297.599 1.2357 1.05377 0
M  V30 2983 H 299.596 0.757419 4.09962 0
M  V30 2984 H 298.256 -0.0529448 3.24657 0
M  V30 2985 H 299.267 3.61529 3.70833 0
M  V30 2986 H 295.944 1.05593 4.03926 0
M  V30 2987 H 297.334 5.08182 4.39546 0
M  V30 2988 N 300.054 -1.07777 1.14986 0
M  V30 2989 C 301.001 -2.14867 0.842672 0
M  V30 2990 C 301.971 -1.6486 -0.202552 0
M  V30 2991 O 303.156 -1.90668 -0.0710568 0
M  V30 2992 C 300.296 -3.43486 0.333363 0
M  V30 2993 C 299.409 -4.07306 1.43965 0
M  V30 2994 C 298.544 -5.23744 0.886914 0
M  V30 2995 C 297.583 -5.79517 1.97043 0
M  V30 2996 N 296.72 -6.87291 1.4344 0
M  V30 2997 H 301.56 -2.40485 1.75986 0
M  V30 2998 H 299.097 -1.1801 0.878179 0
M  V30 2999 H 301.055 -4.17195 0.0198163 0
M  V30 3000 H 299.685 -3.18133 -0.546916 0
M  V30 3001 H 298.737 -3.31293 1.86946 0
M  V30 3002 H 300.049 -4.44771 2.25788 0
M  V30 3003 H 299.203 -6.04419 0.525651 0
M  V30 3004 H 297.942 -4.87685 0.0377957 0
M  V30 3005 H 296.947 -4.97491 2.34057 0
M  V30 3006 H 298.172 -6.17632 2.82325 0
M  V30 3007 H 296.118 -6.5318 0.607567 0
M  V30 3008 H 296.035 -7.23617 2.18895 0
M  V30 3009 H 297.303 -7.71682 1.10124 0
M  V30 3010 N 301.532 -0.945985 -1.26051 0
M  V30 3011 C 302.943 -0.638096 -1.75457 0
M  V30 3012 C 303.294 0.846672 -1.76991 0
M  V30 3013 O 302.419 1.66262 -1.38513 0
M  V30 3014 C 303.014 -1.15157 -3.18629 0
M  V30 3015 C 301.573 -0.894004 -3.65629 0
M  V30 3016 C 300.72 -1.29967 -2.44957 0
M  V30 3017 H 303.671 -1.12376 -1.1206 0
M  V30 3018 H 303.692 -0.507615 -3.77099 0
M  V30 3019 H 303.204 -2.23222 -3.1748 0
M  V30 3020 H 301.305 0.172057 -3.72203 0
M  V30 3021 H 301.418 -1.52439 -4.54202 0
M  V30 3022 H 299.782 -0.718078 -2.44368 0
M  V30 3023 H 300.565 -2.38935 -2.46505 0
M  V30 3024 N 303.011 1.40521 -0.713556 0
M  V30 3025 C 304.236 2.05759 -0.26035 0
M  V30 3026 C 304.661 1.53403 1.08854 0
M  V30 3027 O 304.019 0.668535 1.68524 0
M  V30 3028 C 304.067 3.59745 -0.248122 0
M  V30 3029 O 303.171 4.05123 0.77131 0
M  V30 3030 H 302.512 0.652564 -0.122703 0
M  V30 3031 H 305.042 1.79958 -0.973467 0
M  V30 3032 H 305.052 4.07911 -0.0851129 0
M  V30 3033 H 303.727 3.97218 -1.2325 0
M  V30 3034 H 302.304 3.68422 0.57619 0
M  V30 3035 N 304.489 0.459591 1.5075 0
M  V30 3036 C 305.437 -0.354678 2.2988 0
M  V30 3037 C 306.431 -1.00086 1.36672 0
M  V30 3038 O 307.637 -0.933277 1.53915 0
M  V30 3039 H 304.012 -0.13321 0.740107 0
M  V30 3040 H 305.983 0.333269 2.96533 0
M  V30 3041 C 304.732 -1.43073 3.169 0
M  V30 3042 H 304.055 -0.942882 3.88523 0
M  V30 3043 H 305.495 -1.97328 3.75284 0
M  V30 3044 C 303.954 -2.42633 2.33732 0
M  V30 3045 O 304.484 -3.47658 2.01238 0
M  V30 3046 N 302.69 -2.14066 1.9653 0
M  V30 3047 H 302.237 -1.28685 2.23155 0
M  V30 3048 H 302.195 -2.80917 1.41185 0
M  V30 3049 N 305.967 -1.56429 0.191757 0
M  V30 3050 C 307.195 -2.01867 -0.453586 0
M  V30 3051 C 307.61 -1.07191 -1.5542 0
M  V30 3052 O 306.967 -0.0762108 -1.82341 0
M  V30 3053 C 307.018 -3.47017 -1.013 0
M  V30 3054 O 306.739 -4.38078 0.0437005 0
M  V30 3055 C 308.24 -4.07956 -1.73456 0
M  V30 3056 H 305.46 -0.661211 -0.114199 0
M  V30 3057 H 308.004 -2.02295 0.299483 0
M  V30 3058 H 306.159 -3.47298 -1.71647 0
M  V30 3059 H 306.573 -5.23178 -0.372212 0
M  V30 3060 H 308.047 -5.1138 -2.07833 0
M  V30 3061 H 308.524 -3.51222 -2.63704 0
M  V30 3062 H 309.13 -4.11437 -1.07702 0
M  V30 3063 N 307.445 0.0818655 -1.57387 0
M  V30 3064 C 308.392 1.09834 -2.0299 0
M  V30 3065 C 309.362 1.39043 -0.908639 0
M  V30 3066 O 310.547 1.50282 -1.17559 0
M  V30 3067 C 307.687 2.40971 -2.47037 0
M  V30 3068 C 306.8 2.18379 -3.7274 0
M  V30 3069 C 305.935 3.43008 -4.0561 0
M  V30 3070 C 304.974 3.15736 -5.24383 0
M  V30 3071 N 304.111 4.32667 -5.52941 0
M  V30 3072 H 308.951 0.702472 -2.89602 0
M  V30 3073 H 306.488 0.33531 -1.43227 0
M  V30 3074 H 308.446 3.1752 -2.70623 0
M  V30 3075 H 307.076 2.78379 -1.63417 0
M  V30 3076 H 306.128 1.32569 -3.56552 0
M  V30 3077 H 307.44 1.94227 -4.59431 0
M  V30 3078 H 306.594 4.27958 -4.30043 0
M  V30 3079 H 305.333 3.70225 -3.17466 0
M  V30 3080 H 304.338 2.2918 -4.99757 0
M  V30 3081 H 305.563 2.8985 -6.14136 0
M  V30 3082 H 303.509 4.59935 -4.67756 0
M  V30 3083 H 303.426 4.11753 -6.34031 0
M  V30 3084 H 304.694 5.18644 -5.81918 0
M  V30 3085 N 308.923 1.53595 0.353017 0
M  V30 3086 C 310.169 1.70638 1.09593 0
M  V30 3087 C 310.502 0.463286 1.88593 0
M  V30 3088 O 309.777 -0.539597 1.86865 0
M  V30 3089 C 310.06 2.96406 2.04489 0
M  V30 3090 C 309.913 4.30901 1.29014 0
M  V30 3091 C 311.232 3.17812 3.0444 0
M  V30 3092 H 308.351 0.620913 0.397034 0
M  V30 3093 H 310.993 1.86254 0.375446 0
M  V30 3094 H 309.143 2.83223 2.65927 0
M  V30 3095 H 310.815 4.55917 0.702638 0
M  V30 3096 H 309.058 4.29741 0.592071 0
M  V30 3097 H 309.729 5.1506 1.98537 0
M  V30 3098 H 312.205 3.30263 2.53112 0
M  V30 3099 H 311.081 4.07223 3.6805 0
M  V30 3100 H 311.342 2.33669 3.75301 0
M  V30 3101 N 310.401 -0.613514 1.45168 0
M  V30 3102 C 311.678 -1.37263 1.39349 0
M  V30 3103 C 312.058 -2.11012 0.0610848 0
M  V30 3104 O 311.406 -2.07502 -0.956825 0
M  V30 3105 C 311.616 -2.3244 2.60332 0
M  V30 3106 C 312.964 -2.9523 3.05163 0
M  V30 3107 O 313.988 -2.42762 2.60663 0
M  V30 3108 O 312.847 -3.90454 3.82372 0
M  V30 3109 H 309.941 -0.615188 0.552696 0
M  V30 3110 H 312.487 -0.637097 1.57287 0
M  V30 3111 H 311.259 -1.77164 3.48896 0
M  V30 3112 H 310.882 -3.13383 2.44698 0
M  V30 3113 N 311.879 -1.3236 -0.855495 0
M  V30 3114 C 312.826 -1.21225 -1.964 0
M  V30 3115 C 313.796 -0.0946204 -1.6583 0
M  V30 3116 O 314.981 -0.27002 -1.8888 0
M  V30 3117 C 312.121 -0.940419 -3.32039 0
M  V30 3118 C 311.234 -2.14276 -3.75113 0
M  V30 3119 C 310.369 -1.80648 -4.9954 0
M  V30 3120 C 309.408 -2.97208 -5.35102 0
M  V30 3121 N 308.545 -2.63678 -6.50706 0
M  V30 3122 H 313.385 -2.16042 -2.05255 0
M  V30 3123 H 310.922 -1.07451 -1.00463 0
M  V30 3124 H 312.88 -0.763311 -4.10158 0
M  V30 3125 H 311.51 -0.0290413 -3.22787 0
M  V30 3126 H 310.562 -2.43017 -2.92655 0
M  V30 3127 H 311.874 -3.01468 -3.97389 0
M  V30 3128 H 311.028 -1.59484 -5.85363 0
M  V30 3129 H 309.767 -0.906678 -4.79198 0
M  V30 3130 H 308.772 -3.19004 -4.47791 0
M  V30 3131 H 309.997 -3.87918 -5.57401 0
M  V30 3132 H 307.943 -1.76238 -6.31883 0
M  V30 3133 H 307.86 -3.444 -6.72997 0
M  V30 3134 H 309.128 -2.45942 -7.39684 0
M  V30 3135 N 313.357 1.07166 -1.15556 0
M  V30 3136 C 314.304 2.14417 -0.854055 0
M  V30 3137 C 315.274 1.64965 0.193806 0
M  V30 3138 O 316.459 1.90703 0.0609443 0
M  V30 3139 C 313.599 3.43304 -0.351574 0
M  V30 3140 C 312.712 4.06537 -1.46123 0
M  V30 3141 C 311.847 5.23266 -0.914677 0
M  V30 3142 C 310.886 5.78464 -2.00114 0
M  V30 3143 N 310.023 6.86521 -1.47083 0
M  V30 3144 H 314.863 2.39548 -1.77259 0
M  V30 3145 H 312.4 1.17543 -0.884425 0
M  V30 3146 H 314.358 4.17179 -0.0419409 0
M  V30 3147 H 312.988 3.18419 0.530037 0
M  V30 3148 H 312.04 3.30297 -1.88701 0
M  V30 3149 H 313.352 4.43567 -2.28144 0
M  V30 3150 H 312.506 6.04131 -0.557698 0
M  V30 3151 H 311.245 4.87658 -0.0636583 0
M  V30 3152 H 310.25 4.96243 -2.36692 0
M  V30 3153 H 311.475 6.16126 -2.85597 0
M  V30 3154 H 309.421 6.52849 -0.642198 0
M  V30 3155 H 309.338 7.22446 -2.22729 0
M  V30 3156 H 310.606 7.71087 -1.14215 0
M  V30 3157 N 314.835 0.952656 1.25548 0
M  V30 3158 C 316.081 0.607272 1.93494 0
M  V30 3159 C 316.414 -0.853245 1.74452 0
M  V30 3160 O 315.689 -1.61194 1.08843 0
M  V30 3161 C 315.972 0.96435 3.46947 0
M  V30 3162 C 315.825 2.48045 3.75225 0
M  V30 3163 C 317.144 0.487987 4.37386 0
M  V30 3164 H 314.263 0.222096 0.702739 0
M  V30 3165 H 316.905 1.18895 1.48203 0
M  V30 3166 H 315.055 0.469361 3.85654 0
M  V30 3167 H 316.727 3.04905 3.46166 0
M  V30 3168 H 314.97 2.919 3.209 0
M  V30 3169 H 315.641 2.6808 4.82532 0
M  V30 3170 H 318.117 0.912558 4.0597 0
M  V30 3171 H 316.993 0.766547 5.43521 0
M  V30 3172 H 317.254 -0.612063 4.37843 0
M  V30 3173 N 316.313 -1.40141 0.720998 0
M  V30 3174 C 317.223 -2.34486 0.0731031 0
M  V30 3175 C 318.239 -1.57587 -0.737723 0
M  V30 3176 O 319.415 -1.89949 -0.669429 0
M  V30 3177 C 316.48 -3.36528 -0.833656 0
M  V30 3178 C 315.541 -4.29298 -0.0121673 0
M  V30 3179 C 314.774 -5.26466 -0.875742 0
M  V30 3180 O 314.997 -5.29745 -2.11485 0
M  V30 3181 O 313.931 -6.01092 -0.31185 0
M  V30 3182 H 317.757 -2.9152 0.851444 0
M  V30 3183 H 315.342 -1.41427 0.481527 0
M  V30 3184 H 317.224 -3.99093 -1.35289 0
M  V30 3185 H 315.899 -2.81899 -1.59105 0
M  V30 3186 H 314.806 -3.70001 0.552262 0
M  V30 3187 H 316.139 -4.87094 0.707129 0
M  V30 3188 N 317.792 -0.46758 -1.50504 0
M  V30 3189 C 319.203 -0.0116166 -1.86696 0
M  V30 3190 C 319.554 1.39202 -1.38265 0
M  V30 3191 O 318.679 2.0313 -0.746132 0
M  V30 3192 C 319.274 -0.0143044 -3.38797 0
M  V30 3193 C 317.833 0.386175 -3.74414 0
M  V30 3194 C 316.98 -0.401287 -2.74381 0
M  V30 3195 H 319.931 -0.682022 -1.43297 0
M  V30 3196 H 319.952 0.788641 -3.72237 0
M  V30 3197 H 319.464 -1.03602 -3.74016 0
M  V30 3198 H 317.565 1.41237 -3.44794 0
M  V30 3199 H 317.678 0.0899596 -4.79016 0
M  V30 3200 H 316.042 0.144536 -2.5429 0
M  V30 3201 H 316.825 -1.42244 -3.12444 0
M  V30 3202 N 319.27 1.56325 -0.20005 0
M  V30 3203 C 320.217 2.1932 0.718833 0
M  V30 3204 C 321.187 1.14198 1.20615 0
M  V30 3205 O 322.372 1.42469 1.26914 0
M  V30 3206 C 319.512 2.86041 1.93066 0
M  V30 3207 C 318.625 4.05702 1.48425 0
M  V30 3208 C 317.76 4.60266 2.65196 0
M  V30 3209 C 316.799 5.72273 2.17185 0
M  V30 3210 N 315.936 6.21221 3.27152 0
M  V30 3211 H 320.776 2.97486 0.17489 0
M  V30 3212 H 318.313 1.46911 0.0745794 0
M  V30 3213 H 320.271 3.22897 2.64184 0
M  V30 3214 H 318.901 2.1043 2.44783 0
M  V30 3215 H 317.953 3.74475 0.668755 0
M  V30 3216 H 319.265 4.86699 1.09204 0
M  V30 3217 H 318.419 4.99453 3.4443 0
M  V30 3218 H 317.158 3.78386 3.07693 0
M  V30 3219 H 316.163 5.3261 1.36407 0
M  V30 3220 H 317.388 6.55974 1.75713 0
M  V30 3221 H 315.334 5.42263 3.69171 0
M  V30 3222 H 315.251 6.97284 2.92116 0
M  V30 3223 H 316.519 6.65063 4.06585 0
M  V30 3224 N 320.748 -0.0735177 1.57428 0
M  V30 3225 C 321.973 -0.789787 1.91774 0
M  V30 3226 C 322.398 -1.70413 0.796306 0
M  V30 3227 O 321.756 -1.79555 -0.250961 0
M  V30 3228 C 321.804 -1.5609 3.25067 0
M  V30 3229 O 320.908 -2.67144 3.14178 0
M  V30 3230 H 320.249 -0.215582 0.628029 0
M  V30 3231 H 322.779 -0.0422781 2.04556 0
M  V30 3232 H 322.789 -1.94052 3.58898 0
M  V30 3233 H 321.464 -0.890015 4.06265 0
M  V30 3234 H 320.041 -2.32052 2.91901 0
M  V30 3235 N 322.226 -1.5378 -0.344866 0
M  V30 3236 C 323.466 -1.72677 -1.09371 0
M  V30 3237 C 323.83 -0.479084 -1.85927 0
M  V30 3238 O 325.031 -0.54505 -2.63216 0
M  V30 3239 C 323.302 -2.95457 -2.01097 0
M  V30 3240 S 324.861 -3.35158 -2.83222 0
M  V30 3241 H 321.679 -0.607402 -0.369573 0
M  V30 3242 H 324.281 -1.91922 -0.372307 0
M  V30 3243 H 322.985 -3.84437 -1.43655 0
M  V30 3244 H 322.516 -2.78673 -2.77678 0
M  V30 3245 H 324.531 -2.88789 -4.03504 0
M  V30 3246 N 323.704 0.605807 -1.45491 0
M  V30 3247 C 324.981 1.36522 -1.40075 0
M  V30 3248 C 325.361 2.10976 -0.0722744 0
M  V30 3249 O 324.709 2.08007 0.945808 0
M  V30 3250 C 324.919 2.31056 -2.61561 0
M  V30 3251 C 326.267 2.93608 -3.06724 0
M  V30 3252 O 327.291 2.41376 -2.61946 0
M  V30 3253 O 326.15 3.88421 -3.84437 0
M  V30 3254 H 323.244 0.612248 -0.555951 0
M  V30 3255 H 325.79 0.628747 -1.57623 0
M  V30 3256 H 324.562 1.75311 -3.49831 0
M  V30 3257 H 324.185 3.12081 -2.46356 0
M  V30 3258 N 325.182 1.32811 0.848464 0
M  V30 3259 C 326.129 1.22265 1.95755 0
M  V30 3260 C 327.099 0.103413 1.65778 0
M  V30 3261 O 328.284 0.280033 1.88734 0
M  V30 3262 C 325.424 0.958014 3.31536 0
M  V30 3263 C 324.537 2.16262 3.73971 0
M  V30 3264 C 323.672 1.83295 4.98575 0
M  V30 3265 C 322.711 3.00041 5.33518 0
M  V30 3266 N 321.848 2.67125 6.49299 0
M  V30 3267 H 326.688 2.17128 2.04107 0
M  V30 3268 H 324.225 1.07982 0.998913 0
M  V30 3269 H 326.183 0.785052 4.09747 0
M  V30 3270 H 324.813 0.046159 3.22767 0
M  V30 3271 H 323.865 2.44565 2.91362 0
M  V30 3272 H 325.177 3.03572 3.95785 0
M  V30 3273 H 324.331 1.62586 5.84509 0
M  V30 3274 H 323.07 0.932078 4.7871 0
M  V30 3275 H 322.075 3.21374 4.46093 0
M  V30 3276 H 323.3 3.90869 5.55336 0
M  V30 3277 H 321.246 1.79586 6.3094 0
M  V30 3278 H 321.163 3.47965 6.71161 0
M  V30 3279 H 322.431 2.49861 7.3837 0
M  V30 3280 N 326.66 -1.06551 1.16123 0
M  V30 3281 C 327.888 -1.83005 0.965237 0
M  V30 3282 C 328.303 -1.82423 -0.486542 0
M  V30 3283 O 327.66 -1.24152 -1.33763 0
M  V30 3284 C 327.711 -3.29733 1.48183 0
M  V30 3285 O 327.432 -3.30416 2.87674 0
M  V30 3286 C 328.933 -4.22926 1.32848 0
M  V30 3287 H 326.153 -0.577118 0.342309 0
M  V30 3288 H 328.697 -1.3445 1.54089 0
M  V30 3289 H 326.852 -3.75609 0.948517 0
M  V30 3290 H 327.266 -4.22149 3.11272 0
M  V30 3291 H 328.74 -5.23916 1.73827 0
M  V30 3292 H 329.217 -4.38346 0.273692 0
M  V30 3293 H 329.823 -3.82894 1.85127 0
M  V30 3294 N 328.138 -0.959301 -1.25041 0
M  V30 3295 C 329.088 -0.453888 -2.23436 0
M  V30 3296 C 330.072 0.459461 -1.542 0
M  V30 3297 O 331.264 0.291752 -1.74579 0
M  V30 3298 C 328.393 0.262667 -3.42294 0
M  V30 3299 C 327.479 -0.669022 -4.1879 0
M  V30 3300 N 327.87 -1.80267 -4.72586 0
M  V30 3301 C 326.168 -0.47814 -4.4343 0
M  V30 3302 C 326.869 -2.38475 -5.3057 0
M  V30 3303 N 325.845 -1.67078 -5.17287 0
M  V30 3304 H 329.647 -1.319 -2.6264 0
M  V30 3305 H 327.161 -0.817358 -1.40332 0
M  V30 3306 H 329.158 0.641911 -4.11929 0
M  V30 3307 H 327.818 1.12432 -3.04613 0
M  V30 3308 H 328.829 -2.18442 -4.69578 0
M  V30 3309 H 325.506 0.340249 -4.16111 0
M  V30 3310 H 326.896 -3.34094 -5.8295 0
M  V30 3311 N 329.616 1.39756 -0.72842 0
M  V30 3312 C 330.844 2.04948 -0.283528 0
M  V30 3313 C 331.259 1.54908 1.0793 0
M  V30 3314 O 330.616 0.711135 1.68075 0
M  V30 3315 C 330.667 3.60498 -0.268957 0
M  V30 3316 O 330.388 4.08695 -1.57798 0
M  V30 3317 C 331.889 4.4288 0.192912 0
M  V30 3318 H 329.109 0.659243 -0.125056 0
M  V30 3319 H 331.653 1.78927 -0.990226 0
M  V30 3320 H 329.808 3.85444 0.388801 0
M  V30 3321 H 330.222 5.02977 -1.48709 0
M  V30 3322 H 331.696 5.51791 0.151952 0
M  V30 3323 H 332.173 4.21418 1.23708 0
M  V30 3324 H 332.779 4.23069 -0.435039 0
M  V30 3325 N 331.094 0.475555 1.50254 0
M  V30 3326 C 332.334 -0.0765802 2.04256 0
M  V30 3327 C 332.698 -1.36587 1.34937 0
M  V30 3328 O 333.899 -2.00066 1.79519 0
M  V30 3329 C 332.17 -0.251668 3.56513 0
M  V30 3330 S 333.729 -0.761716 4.32138 0
M  V30 3331 H 330.547 -0.0138456 0.710865 0
M  V30 3332 H 333.149 0.643714 1.84598 0
M  V30 3333 H 331.853 0.692404 4.04517 0
M  V30 3334 H 331.384 -0.997946 3.80532 0
M  V30 3335 H 333.399 -2.03451 4.52573 0
M  V30 3336 N 332.573 -1.56217 0.208337 0
M  V30 3337 C 333.984 -1.84243 -0.301904 0
M  V30 3338 C 334.335 -1.12939 -1.60434 0
M  V30 3339 O 333.46 -0.39461 -2.12772 0
M  V30 3340 C 334.055 -3.34231 -0.554543 0
M  V30 3341 C 332.614 -3.62621 -1.00912 0
M  V30 3342 C 331.761 -2.77224 -0.064933 0
M  V30 3343 H 334.712 -1.52712 0.431833 0
M  V30 3344 H 334.733 -3.5372 -1.40223 0
M  V30 3345 H 334.245 -3.86099 0.393561 0
M  V30 3346 H 332.346 -3.16197 -1.97104 0
M  V30 3347 H 332.459 -4.7071 -0.892674 0
M  V30 3348 H 330.823 -2.48256 -0.56929 0
M  V30 3349 H 331.606 -3.31887 0.877851 0
M  V30 3350 N 334.051 0.0651679 -1.57465 0
M  V30 3351 C 335.462 0.616213 -1.76238 0
M  V30 3352 C 335.813 1.7756 -0.834689 0
M  V30 3353 O 334.938 2.1639 -0.0204156 0
M  V30 3354 C 335.533 1.12462 -3.1959 0
M  V30 3355 C 334.092 1.62147 -3.39684 0
M  V30 3356 C 333.239 0.543739 -2.71917 0
M  V30 3357 H 336.19 -0.161022 -1.57881 0
M  V30 3358 H 336.211 1.99324 -3.24114 0
M  V30 3359 H 335.723 0.280592 -3.87084 0
M  V30 3360 H 333.824 2.48854 -2.77313 0
M  V30 3361 H 333.937 1.69385 -4.48158 0
M  V30 3362 H 332.301 0.990352 -2.34657 0
M  V30 3363 H 333.084 -0.290216 -3.42071 0
M  V30 3364 N 335.529 1.53961 0.336706 0
M  V30 3365 C 336.769 1.73254 1.08454 0
M  V30 3366 C 337.133 0.488937 1.8567 0
M  V30 3367 O 338.334 0.559001 2.62923 0
M  V30 3368 C 336.605 2.96519 1.99528 0
M  V30 3369 S 338.164 3.36655 2.81441 0
M  V30 3370 H 334.982 0.609353 0.366347 0
M  V30 3371 H 337.584 1.92117 0.362124 0
M  V30 3372 H 336.288 3.85193 1.41614 0
M  V30 3373 H 335.819 2.80142 2.76196 0
M  V30 3374 H 337.834 2.90925 4.01967 0
M  V30 3375 N 337.007 -0.598083 1.45811 0
M  V30 3376 C 338.418 -1.18011 1.44673 0
M  V30 3377 C 338.769 -1.95378 0.179364 0
M  V30 3378 O 337.894 -2.04124 -0.718509 0
M  V30 3379 C 338.489 -2.14677 2.62105 0
M  V30 3380 C 337.048 -2.68236 2.64057 0
M  V30 3381 C 336.195 -1.43816 2.37091 0
M  V30 3382 H 339.146 -0.38686 1.53913 0
M  V30 3383 H 339.167 -2.97878 2.36746 0
M  V30 3384 H 338.679 -1.5834 3.5433 0
M  V30 3385 H 336.78 -3.28486 1.75864 0
M  V30 3386 H 336.893 -3.12021 3.63566 0
M  V30 3387 H 335.257 -1.731 1.86838 0
M  V30 3388 H 336.04 -0.893333 3.31473 0
M  V30 3389 N 338.485 -1.33259 -0.841409 0
M  V30 3390 C 339.448 -1.23221 -1.9326 0
M  V30 3391 C 340.448 -0.151895 -1.60081 0
M  V30 3392 O 341.638 -0.403246 -1.69468 0
M  V30 3393 C 338.77 -0.898123 -3.28856 0
M  V30 3394 H 339.963 -2.2021 -2.03587 0
M  V30 3395 H 337.516 -1.17281 -1.03319 0
M  V30 3396 H 338.251 0.0693841 -3.24226 0
M  V30 3397 H 338.036 -1.67934 -3.54317 0
M  V30 3398 H 339.526 -0.852563 -4.08805 0
M  V30 3399 N 339.963 1.05934 -1.16686 0
M  V30 3400 C 341.374 1.60263 -0.957745 0
M  V30 3401 C 341.725 1.89789 0.49745 0
M  V30 3402 O 340.85 1.67401 1.37135 0
M  V30 3403 C 341.445 2.91172 -1.73218 0
M  V30 3404 C 340.004 3.42188 -1.56794 0
M  V30 3405 C 339.151 2.16028 -1.73859 0
M  V30 3406 H 342.102 0.888392 -1.31504 0
M  V30 3407 H 342.123 3.60744 -1.21014 0
M  V30 3408 H 341.635 2.6965 -2.79124 0
M  V30 3409 H 339.736 3.68762 -0.533437 0
M  V30 3410 H 339.849 4.17273 -2.35414 0
M  V30 3411 H 338.213 2.26426 -1.16633 0
M  V30 3412 H 338.996 1.96985 -2.81161 0
M  V30 3413 N 341.441 0.965919 1.2453 0
M  V30 3414 C 342.351 0.502154 2.29163 0
M  V30 3415 C 343.367 -0.436017 1.68448 0
M  V30 3416 O 344.543 -0.309497 1.99008 0
M  V30 3417 C 341.608 -0.201956 3.46111 0
M  V30 3418 C 340.669 0.775821 4.22232 0
M  V30 3419 C 339.902 0.105217 5.33596 0
M  V30 3420 O 340.125 -1.10683 5.59558 0
M  V30 3421 O 339.059 0.796475 5.96607 0
M  V30 3422 H 342.885 1.37194 2.70946 0
M  V30 3423 H 340.47 0.732875 1.30189 0
M  V30 3424 H 342.352 -0.597564 4.17142 0
M  V30 3425 H 341.027 -1.04673 3.06309 0
M  V30 3426 H 339.934 1.22185 3.53584 0
M  V30 3427 H 341.267 1.58896 4.65846 0
M  V30 3428 N 342.919 -1.39368 0.735821 0
M  V30 3429 C 343.849 -2.33234 0.111506 0
M  V30 3430 C 344.83 -1.53954 -0.723334 0
M  V30 3431 O 346.015 -1.82344 -0.668147 0
M  V30 3432 C 343.145 -3.38057 -0.795917 0
M  V30 3433 C 342.099 -4.2795 -0.065172 0
M  V30 3434 C 341.425 -5.23479 -1.08967 0
M  V30 3435 C 342.725 -5.10741 1.09273 0
M  V30 3436 H 344.419 -2.85692 0.895571 0
M  V30 3437 H 341.965 -1.37364 0.432109 0
M  V30 3438 H 343.918 -4.02675 -1.24221 0
M  V30 3439 H 342.642 -2.8404 -1.61211 0
M  V30 3440 H 341.301 -3.64813 0.361511 0
M  V30 3441 H 340.949 -4.65758 -1.89944 0
M  V30 3442 H 340.649 -5.84472 -0.605489 0
M  V30 3443 H 342.173 -5.90974 -1.53565 0
M  V30 3444 H 343.587 -5.68699 0.724841 0
M  V30 3445 H 341.984 -5.8088 1.50659 0
M  V30 3446 H 343.054 -4.45525 1.91404 0
M  V30 3447 N 344.397 -0.483516 -1.5 0
M  V30 3448 C 345.327 0.293829 -2.31644 0
M  V30 3449 C 346.308 0.978864 -1.39112 0
M  V30 3450 O 347.493 0.973644 -1.68029 0
M  V30 3451 C 344.623 1.36897 -3.19181 0
M  V30 3452 C 343.577 0.804833 -4.20365 0
M  V30 3453 C 342.903 1.9792 -4.96721 0
M  V30 3454 C 344.203 -0.192313 -5.21946 0
M  V30 3455 H 345.897 -0.387616 -2.9688 0
M  V30 3456 H 343.443 -0.187856 -1.42769 0
M  V30 3457 H 345.396 1.92037 -3.751 0
M  V30 3458 H 344.12 2.07936 -2.51853 0
M  V30 3459 H 342.779 0.275319 -3.65565 0
M  V30 3460 H 342.427 2.67686 -4.25856 0
M  V30 3461 H 342.127 1.60789 -5.65173 0
M  V30 3462 H 343.651 2.53526 -5.55479 0
M  V30 3463 H 345.065 0.270333 -5.72662 0
M  V30 3464 H 343.462 -0.478543 -5.98189 0
M  V30 3465 H 344.532 -1.11409 -4.71928 0
M  V30 3466 N 345.875 1.56104 -0.216619 0
M  V30 3467 C 347.123 1.97781 0.415593 0
M  V30 3468 C 347.444 1.10536 1.60645 0
M  V30 3469 O 346.714 0.181303 1.95059 0
M  V30 3470 H 345.294 0.730415 0.156534 0
M  V30 3471 H 347.956 1.92445 -0.308366 0
M  V30 3472 H 347.052 3.03072 0.74525 0
M  V30 3473 N 347.353 -0.0568162 1.57498 0
M  V30 3474 C 348.601 -0.751617 1.87604 0
M  V30 3475 C 348.922 -1.77351 0.81066 0
M  V30 3476 O 348.192 -1.95254 -0.159018 0
M  V30 3477 H 346.772 -0.280583 0.692302 0
M  V30 3478 H 349.434 -0.0293483 1.94878 0
M  V30 3479 H 348.53 -1.25852 2.856 0
M  V30 3480 N 348.832 -1.54138 -0.328536 0
M  V30 3481 C 350.243 -1.63395 -0.903272 0
M  V30 3482 C 350.594 -0.524828 -1.8905 0
M  V30 3483 O 349.719 0.343068 -2.13663 0
M  V30 3484 C 350.314 -2.9618 -1.64507 0
M  V30 3485 C 348.873 -3.0765 -2.1686 0
M  V30 3486 C 348.02 -2.58933 -0.992416 0
M  V30 3487 H 350.971 -1.58344 -0.106253 0
M  V30 3488 H 350.992 -2.86061 -2.50897 0
M  V30 3489 H 350.504 -3.76884 -0.926302 0
M  V30 3490 H 348.605 -2.31611 -2.91868 0
M  V30 3491 H 348.718 -4.1337 -2.42202 0
M  V30 3492 H 347.082 -2.14706 -1.37016 0
M  V30 3493 H 347.865 -3.42089 -0.288041 0
M  V30 3494 N 350.31 0.590341 -1.46126 0
M  V30 3495 C 351.535 1.37991 -1.54833 0
M  V30 3496 C 351.96 1.87163 -0.187506 0
M  V30 3497 O 351.318 1.61133 0.831008 0
M  V30 3498 C 351.366 2.54867 -2.55098 0
M  V30 3499 O 350.47 3.56061 -2.08073 0
M  V30 3500 H 349.811 0.411265 -0.521303 0
M  V30 3501 H 352.341 0.716819 -1.91632 0
M  V30 3502 H 352.351 3.01886 -2.74461 0
M  V30 3503 H 351.026 2.18429 -3.53923 0
M  V30 3504 H 349.603 3.15574 -1.98664 0
M  V30 3505 N 351.788 1.33704 0.83433 0
M  V30 3506 C 353.034 1.25603 1.59222 0
M  V30 3507 C 353.367 -0.176659 1.93395 0
M  V30 3508 O 352.642 -1.11915 1.59076 0
M  V30 3509 C 352.925 2.13576 2.89926 0
M  V30 3510 C 352.778 3.65326 2.62406 0
M  V30 3511 C 354.097 2.01238 3.91397 0
M  V30 3512 H 351.216 0.457613 0.577719 0
M  V30 3513 H 353.858 1.63848 0.961972 0
M  V30 3514 H 352.008 1.8109 3.43713 0
M  V30 3515 H 353.68 4.08124 2.15017 0
M  V30 3516 H 351.923 3.8698 1.96033 0
M  V30 3517 H 352.594 4.22232 3.55562 0
M  V30 3518 H 355.07 2.29738 3.46929 0
M  V30 3519 H 353.946 2.65036 4.80673 0
M  V30 3520 H 354.207 0.985951 4.30966 0
M  V30 3521 N 353.266 -1.05314 1.17247 0
M  V30 3522 C 354.513 -1.78293 0.960091 0
M  V30 3523 C 354.841 -1.87658 -0.51136 0
M  V30 3524 O 354.096 -1.3718 -1.39571 0
M  V30 3525 C 354.395 -3.2229 1.54479 0
M  V30 3526 C 354.061 -3.32987 3.04024 0
M  V30 3527 C 352.723 -3.35613 3.44844 0
M  V30 3528 C 355.075 -3.34102 4.00031 0
M  V30 3529 C 352.403 -3.36982 4.8027 0
M  V30 3530 C 354.755 -3.3701 5.35357 0
M  V30 3531 C 353.419 -3.37923 5.75642 0
M  V30 3532 H 352.689 -0.652422 0.351322 0
M  V30 3533 H 355.336 -1.23782 1.46117 0
M  V30 3534 H 353.641 -3.7972 0.965391 0
M  V30 3535 H 355.338 -3.77376 1.35603 0
M  V30 3536 H 351.928 -3.31655 2.71483 0
M  V30 3537 H 356.112 -3.31276 3.69554 0
M  V30 3538 H 351.368 -3.35999 5.10798 0
M  V30 3539 H 355.542 -3.36822 6.09528 0
M  V30 3540 H 353.169 -3.38738 6.80559 0
M  V30 3541 N 354.744 -0.972509 -1.24016 0
M  V30 3542 C 355.674 -0.525548 -2.27509 0
M  V30 3543 C 356.655 0.437262 -1.64384 0
M  V30 3544 O 357.84 0.332343 -1.91335 0
M  V30 3545 C 354.97 0.180448 -3.46831 0
M  V30 3546 C 353.924 -0.698859 -4.22256 0
M  V30 3547 C 353.25 0.138903 -5.3452 0
M  V30 3548 C 354.55 -1.98582 -4.83076 0
M  V30 3549 H 356.244 -1.39058 -2.65148 0
M  V30 3550 H 353.79 -0.67009 -1.27459 0
M  V30 3551 H 355.743 0.504387 -4.18371 0
M  V30 3552 H 354.467 1.07987 -3.08231 0
M  V30 3553 H 353.126 -1.00614 -3.52523 0
M  V30 3554 H 352.774 1.03862 -4.9216 0
M  V30 3555 H 352.474 -0.446259 -5.85903 0
M  V30 3556 H 353.998 0.457404 -6.08884 0
M  V30 3557 H 355.412 -1.72715 -5.46665 0
M  V30 3558 H 353.809 -2.5181 -5.44713 0
M  V30 3559 H 354.879 -2.67769 -4.04262 0
M  V30 3560 N 356.222 1.38976 -0.743202 0
M  V30 3561 C 357.469 2.00343 -0.294752 0
M  V30 3562 C 357.797 1.58983 1.12047 0
M  V30 3563 O 357.052 0.813809 1.77977 0
M  V30 3564 C 357.351 3.55647 -0.353517 0
M  V30 3565 C 357.017 4.16685 -1.72292 0
M  V30 3566 C 355.679 4.3307 -2.09771 0
M  V30 3567 C 358.031 4.50464 -2.62168 0
M  V30 3568 C 355.359 4.80526 -3.36618 0
M  V30 3569 C 357.711 4.99332 -3.88395 0
M  V30 3570 C 356.375 5.13924 -4.25956 0
M  V30 3571 H 355.645 0.733108 -0.107857 0
M  V30 3572 H 358.292 1.6618 -0.951651 0
M  V30 3573 H 356.597 3.89884 0.386954 0
M  V30 3574 H 358.294 4.00998 0.0117269 0
M  V30 3575 H 354.884 4.04339 -1.42155 0
M  V30 3576 H 359.068 4.37416 -2.3448 0
M  V30 3577 H 354.324 4.90008 -3.65653 0
M  V30 3578 H 358.498 5.2444 -4.58187 0
M  V30 3579 H 356.125 5.50457 -5.2431 0
M  V30 3580 N 357.7 0.491464 1.49741 0
M  V30 3581 C 359.111 0.0413169 1.86654 0
M  V30 3582 C 359.462 -1.36985 1.40462 0
M  V30 3583 O 358.587 -2.01917 0.778354 0
M  V30 3584 C 359.182 0.0682023 3.38731 0
M  V30 3585 C 357.741 -0.32656 3.74981 0
M  V30 3586 C 356.888 0.444888 2.73708 0
M  V30 3587 H 359.839 0.704733 1.42194 0
M  V30 3588 H 359.86 -0.729322 3.73445 0
M  V30 3589 H 359.372 1.09539 3.72321 0
M  V30 3590 H 357.473 -1.35734 3.46997 0
M  V30 3591 H 357.586 -0.013741 4.79098 0
M  V30 3592 H 355.95 -0.104062 2.54487 0
M  V30 3593 H 356.733 1.47197 3.10142 0
M  V30 3594 N 359.178 -1.55987 0.224894 0
M  V30 3595 C 360.589 -1.84553 -0.282345 0
M  V30 3596 C 360.94 -1.14634 -1.59227 0
M  V30 3597 O 360.065 -0.417155 -2.12341 0
M  V30 3598 C 360.66 -3.348 -0.519062 0
M  V30 3599 C 359.219 -3.63671 -0.970604 0
M  V30 3600 C 358.366 -2.77277 -0.0355261 0
M  V30 3601 H 361.317 -1.52245 0.448006 0
M  V30 3602 H 361.338 -3.55187 -1.36463 0
M  V30 3603 H 360.85 -3.8566 0.43449 0
M  V30 3604 H 358.951 -3.1827 -1.9374 0
M  V30 3605 H 359.064 -4.71631 -0.842698 0
M  V30 3606 H 357.428 -2.48846 -0.542927 0
M  V30 3607 H 358.211 -3.30937 0.913003 0
M  V30 3608 N 360.656 0.0484629 -1.57525 0
M  V30 3609 C 361.603 1.05504 -2.05275 0
M  V30 3610 C 362.573 1.37084 -0.937927 0
M  V30 3611 O 363.758 1.47754 -1.2072 0
M  V30 3612 C 360.898 2.35676 -2.52093 0
M  V30 3613 C 360.011 2.10423 -3.77288 0
M  V30 3614 C 359.146 3.34327 -4.12794 0
M  V30 3615 C 358.185 3.04542 -5.30962 0
M  V30 3616 N 357.322 4.20841 -5.61994 0
M  V30 3617 H 362.162 0.640885 -2.91027 0
M  V30 3618 H 359.699 0.304854 -1.43906 0
M  V30 3619 H 361.657 3.11709 -2.77297 0
M  V30 3620 H 360.287 2.7485 -1.69285 0
M  V30 3621 H 359.339 1.24976 -3.59284 0
M  V30 3622 H 360.651 1.84438 -4.63448 0
M  V30 3623 H 359.805 4.1874 -4.39024 0
M  V30 3624 H 358.544 3.63408 -3.25247 0
M  V30 3625 H 357.549 2.18528 -5.04505 0
M  V30 3626 H 358.774 2.76758 -6.20146 0
M  V30 3627 H 356.72 4.4991 -4.77406 0
M  V30 3628 H 356.637 3.98212 -6.42622 0
M  V30 3629 H 357.905 5.06184 -5.92789 0
M  V30 3630 N 362.134 1.5431 0.320358 0
M  V30 3631 C 363.545 1.63872 0.894594 0
M  V30 3632 C 363.896 0.534847 1.88769 0
M  V30 3633 O 363.021 -0.331732 2.13842 0
M  V30 3634 C 363.616 2.97049 1.62934 0
M  V30 3635 C 362.175 3.08796 2.15226 0
M  V30 3636 C 361.322 2.59456 0.978671 0
M  V30 3637 H 364.273 1.58398 0.0978544 0
M  V30 3638 H 364.294 2.87388 2.49376 0
M  V30 3639 H 363.806 3.7737 0.906302 0
M  V30 3640 H 361.907 2.33156 2.90636 0
M  V30 3641 H 362.02 4.14649 2.40006 0
M  V30 3642 H 360.384 2.1543 1.35875 0
M  V30 3643 H 361.167 3.42237 0.269895 0
M  V30 3644 N 363.613 -0.582584 1.46437 0
M  V30 3645 C 364.56 -1.69164 1.5701 0
M  V30 3646 C 365.53 -1.60847 0.414403 0
M  V30 3647 O 366.715 -1.80058 0.631171 0
M  V30 3648 C 363.855 -3.075 1.56646 0
M  V30 3649 C 362.968 -3.2644 2.82951 0
M  V30 3650 C 362.103 -4.55026 2.7409 0
M  V30 3651 C 361.142 -4.6731 3.95333 0
M  V30 3652 N 360.279 -5.87221 3.84858 0
M  V30 3653 H 365.119 -1.59464 2.51744 0
M  V30 3654 H 362.656 -0.777186 1.24893 0
M  V30 3655 H 364.614 -3.8757 1.5442 0
M  V30 3656 H 363.244 -3.16096 0.654439 0
M  V30 3657 H 362.296 -2.39974 2.95155 0
M  V30 3658 H 363.608 -3.31385 3.72808 0
M  V30 3659 H 362.762 -5.43324 2.6997 0
M  V30 3660 H 361.501 -4.52519 1.81873 0
M  V30 3661 H 360.506 -3.77429 3.99784 0
M  V30 3662 H 361.731 -4.71595 4.88646 0
M  V30 3663 H 359.677 -5.85712 2.95427 0
M  V30 3664 H 359.594 -5.93435 4.6837 0
M  V30 3665 H 360.862 -6.7795 3.84713 0
M  V30 3666 N 365.091 -1.34144 -0.827227 0
M  V30 3667 C 366.368 -1.16844 -1.56865 0
M  V30 3668 C 366.748 0.260654 -2.09485 0
M  V30 3669 O 366.096 1.26138 -1.9053 0
M  V30 3670 C 366.306 -2.21939 -2.6934 0
M  V30 3671 C 367.654 -2.56695 -3.3822 0
M  V30 3672 O 368.678 -2.20695 -2.79593 0
M  V30 3673 O 367.537 -3.18518 -4.44082 0
M  V30 3674 H 364.631 -0.452669 -0.692112 0
M  V30 3675 H 367.177 -1.45763 -0.868973 0
M  V30 3676 H 365.949 -3.17882 -2.28182 0
M  V30 3677 H 365.572 -1.94172 -3.46962 0
M  V30 3678 N 366.569 1.04691 -1.17803 0
M  V30 3679 C 367.797 1.81446 -0.99423 0
M  V30 3680 C 368.212 1.83174 0.457459 0
M  V30 3681 O 367.569 1.26265 1.31771 0
M  V30 3682 C 367.62 3.27334 -1.5341 0
M  V30 3683 O 367.341 3.25798 -2.92895 0
M  V30 3684 C 368.842 4.20759 -1.39559 0
M  V30 3685 H 366.062 0.571599 -0.351447 0
M  V30 3686 H 368.606 1.31982 -1.56208 0
M  V30 3687 H 366.761 3.74052 -1.00815 0
M  V30 3688 H 367.175 4.17144 -3.17949 0
M  V30 3689 H 368.649 5.21084 -1.82141 0
M  V30 3690 H 369.126 4.37856 -0.343394 0
M  V30 3691 H 369.732 3.79901 -1.91195 0
M  V30 3692 N 368.047 0.979072 1.23499 0
M  V30 3693 C 368.977 0.537606 2.27227 0
M  V30 3694 C 369.958 -0.428539 1.64613 0
M  V30 3695 O 371.143 -0.322191 1.91509 0
M  V30 3696 C 368.273 -0.162052 3.46922 0
M  V30 3697 C 367.227 0.721242 4.21879 0
M  V30 3698 C 366.553 -0.110555 5.34586 0
M  V30 3699 C 367.853 2.01141 4.82016 0
M  V30 3700 H 369.547 1.40462 2.64406 0
M  V30 3701 H 367.093 0.67684 1.27102 0
M  V30 3702 H 369.046 -0.482192 4.18632 0
M  V30 3703 H 367.77 -1.06351 3.08799 0
M  V30 3704 H 366.429 1.02482 3.51984 0
M  V30 3705 H 366.077 -1.0125 4.92704 0
M  V30 3706 H 365.777 0.477325 5.85658 0
M  V30 3707 H 367.301 -0.425107 6.09118 0
M  V30 3708 H 368.715 1.75612 5.45741 0
M  V30 3709 H 367.112 2.54695 5.43369 0
M  V30 3710 H 368.182 2.69909 4.02836 0
M  V30 3711 N 369.525 -1.3858 0.750561 0
M  V30 3712 C 370.458 -2.28095 0.0693139 0
M  V30 3713 C 371.436 -1.45217 -0.731491 0
M  V30 3714 O 372.62 -1.74587 -0.71076 0
M  V30 3715 C 369.747 -3.26282 -0.90871 0
M  V30 3716 C 368.793 -4.26056 -0.194507 0
M  V30 3717 S 369.626 -5.24026 1.10257 0
M  V30 3718 C 370.782 -6.2577 0.127542 0
M  V30 3719 H 371.015 -2.85526 0.8284 0
M  V30 3720 H 368.548 -1.44536 0.543014 0
M  V30 3721 H 370.506 -3.83367 -1.46766 0
M  V30 3722 H 369.167 -2.6784 -1.64075 0
M  V30 3723 H 368.36 -4.95249 -0.93512 0
M  V30 3724 H 367.962 -3.72852 0.292837 0
M  V30 3725 H 370.254 -6.73796 -0.707516 0
M  V30 3726 H 371.197 -7.03712 0.787044 0
M  V30 3727 H 371.605 -5.63938 -0.251803 0
M  V30 3728 N 371.003 -0.499398 -1.49478 0
M  V30 3729 C 372.252 0.0475259 -2.01644 0
M  V30 3730 C 372.565 1.38195 -1.38425 0
M  V30 3731 O 373.771 2.01547 -1.8191 0
M  V30 3732 C 372.227 0.135164 -3.59646 0
M  V30 3733 C 371.835 -1.19252 -4.31837 0
M  V30 3734 C 373.579 0.632538 -4.19761 0
M  V30 3735 C 371.486 -1.06713 -5.81693 0
M  V30 3736 H 370.416 0.0215349 -0.753692 0
M  V30 3737 H 373.067 -0.638577 -1.7203 0
M  V30 3738 H 371.449 0.885681 -3.85969 0
M  V30 3739 H 372.623 -1.9562 -4.17216 0
M  V30 3740 H 370.938 -1.62321 -3.83459 0
M  V30 3741 H 373.535 0.743833 -5.29501 0
M  V30 3742 H 373.878 1.63098 -3.83021 0
M  V30 3743 H 374.411 -0.0613987 -3.97753 0
M  V30 3744 H 371.15 -2.03979 -6.22955 0
M  V30 3745 H 370.67 -0.344307 -5.98811 0
M  V30 3746 H 372.349 -0.745208 -6.42694 0
M  V30 3747 N 372.481 1.55866 -0.233164 0
M  V30 3748 C 373.706 2.03449 0.402906 0
M  V30 3749 C 374.131 1.11166 1.51736 0
M  V30 3750 O 373.489 0.101996 1.81013 0
M  V30 3751 C 373.537 3.49165 0.9009 0
M  V30 3752 O 372.641 3.60019 2.01147 0
M  V30 3753 H 371.982 0.657913 0.0897025 0
M  V30 3754 H 374.512 2.01493 -0.355201 0
M  V30 3755 H 374.522 3.89716 1.2077 0
M  V30 3756 H 373.197 4.15813 0.0852889 0
M  V30 3757 H 371.774 3.3136 1.71042 0
M  V30 3758 N 373.959 -0.0401083 1.57549 0
M  V30 3759 C 375.375 -0.395556 1.54621 0
M  V30 3760 C 375.575 -1.77281 0.957799 0
M  V30 3761 O 374.631 -2.45888 0.574031 0
M  V30 3762 C 375.944 -0.307535 2.99123 0
M  V30 3763 C 377.492 -0.385425 3.10618 0
M  V30 3764 C 377.967 -0.326973 4.56831 0
M  V30 3765 N 379.458 -0.386102 4.61588 0
M  V30 3766 C 380.193 -0.363591 5.72246 0
M  V30 3767 N 379.689 -0.29402 6.92176 0
M  V30 3768 N 381.482 -0.412503 5.60584 0
M  V30 3769 H 373.633 0.861325 1.94152 0
M  V30 3770 H 375.896 0.326445 0.890021 0
M  V30 3771 H 375.602 0.638461 3.45856 0
M  V30 3772 H 375.476 -1.10552 3.60636 0
M  V30 3773 H 377.863 -1.32185 2.63839 0
M  V30 3774 H 377.944 0.44171 2.51957 0
M  V30 3775 H 377.588 0.605738 5.04275 0
M  V30 3776 H 377.518 -1.17207 5.13391 0
M  V30 3777 H 380.009 -0.442832 3.75296 0
M  V30 3778 H 380.322 -0.28164 7.72287 0
M  V30 3779 H 378.667 -0.260232 6.94513 0
M  V30 3780 H 381.858 -0.464769 4.65787 0
M  V30 3781 H 382.031 -0.391492 6.46816 0
M  V30 3782 N 375.437 -1.54477 -0.31217 0
M  V30 3783 C 376.665 -1.77205 -1.068 0
M  V30 3784 C 377.08 -0.526114 -1.81321 0
M  V30 3785 O 376.437 0.503647 -1.75413 0
M  V30 3786 C 376.488 -2.97253 -2.05725 0
M  V30 3787 O 376.209 -4.1703 -1.34228 0
M  V30 3788 C 377.71 -3.32281 -2.93435 0
M  V30 3789 H 374.93 -0.591287 -0.317208 0
M  V30 3790 H 377.474 -2.01398 -0.354834 0
M  V30 3791 H 375.629 -2.753 -2.72559 0
M  V30 3792 H 376.043 -4.84636 -2.00571 0
M  V30 3793 H 377.517 -4.19551 -3.58721 0
M  V30 3794 H 377.994 -2.49945 -3.61143 0
M  V30 3795 H 378.6 -3.56353 -2.32147 0
M  V30 3796 N 376.915 0.57481 -1.46744 0
M  V30 3797 C 378.326 1.15695 -1.46532 0
M  V30 3798 C 378.677 1.95068 -0.210425 0
M  V30 3799 O 377.802 2.05241 0.685944 0
M  V30 3800 C 378.397 2.1048 -2.65487 0
M  V30 3801 C 376.956 2.64002 -2.68291 0
M  V30 3802 C 376.103 1.40026 -2.39349 0
M  V30 3803 H 379.054 0.362325 -1.54509 0
M  V30 3804 H 379.075 2.94074 -2.41455 0
M  V30 3805 H 378.587 1.52683 -3.56805 0
M  V30 3806 H 376.688 3.25646 -1.81067 0
M  V30 3807 H 376.801 3.06197 -3.68483 0
M  V30 3808 H 375.165 1.70106 -1.89568 0
M  V30 3809 H 375.948 0.840485 -3.32852 0
M  V30 3810 N 378.394 1.34581 0.820102 0
M  V30 3811 C 379.304 1.28471 1.96297 0
M  V30 3812 C 380.32 0.191902 1.72939 0
M  V30 3813 O 381.496 0.418879 1.96996 0
M  V30 3814 C 378.561 1.04281 3.30645 0
M  V30 3815 C 377.622 2.22745 3.66992 0
M  V30 3816 C 376.855 1.997 4.9493 0
M  V30 3817 O 377.078 0.956656 5.6232 0
M  V30 3818 O 376.012 2.86723 5.2922 0
M  V30 3819 H 379.838 2.24624 2.04396 0
M  V30 3820 H 377.423 1.14816 0.955913 0
M  V30 3821 H 379.305 0.925841 4.11104 0
M  V30 3822 H 377.98 0.111697 3.23507 0
M  V30 3823 H 376.887 2.40003 2.86966 0
M  V30 3824 H 378.22 3.14257 3.78819 0
M  V30 3825 N 379.872 -1.04064 1.18357 0
M  V30 3826 C 381.118 -1.77528 0.980397 0
M  V30 3827 C 381.451 -1.87948 -0.48879 0
M  V30 3828 O 380.726 -1.3876 -1.36293 0
M  V30 3829 C 381.009 -3.20797 1.63588 0
M  V30 3830 C 380.862 -3.1832 3.17793 0
M  V30 3831 C 382.181 -4.18911 1.34914 0
M  V30 3832 H 379.3 -0.644443 0.357578 0
M  V30 3833 H 381.942 -1.2156 1.46024 0
M  V30 3834 H 380.092 -3.68586 1.22788 0
M  V30 3835 H 381.764 -2.78521 3.67728 0
M  V30 3836 H 380.007 -2.56351 3.49952 0
M  V30 3837 H 380.678 -4.19489 3.58794 0
M  V30 3838 H 383.154 -3.7967 1.70265 0
M  V30 3839 H 382.03 -5.17374 1.83346 0
M  V30 3840 H 382.291 -4.41262 0.272027 0
M  V30 3841 N 381.35 -0.985608 -1.22978 0
M  V30 3842 C 382.578 -0.675582 -1.95559 0
M  V30 3843 C 382.993 0.758413 -1.72897 0
M  V30 3844 O 382.35 1.51094 -1.02357 0
M  V30 3845 C 382.401 -0.96293 -3.48439 0
M  V30 3846 O 382.122 -2.34057 -3.70336 0
M  V30 3847 C 383.623 -0.669585 -4.38214 0
M  V30 3848 H 380.843 -0.250523 -0.622478 0
M  V30 3849 H 383.387 -1.3184 -1.56328 0
M  V30 3850 H 381.542 -0.366033 -3.85667 0
M  V30 3851 H 381.956 -2.43424 -4.64591 0
M  V30 3852 H 383.43 -0.920967 -5.44263 0
M  V30 3853 H 383.907 0.396383 -4.37408 0
M  V30 3854 H 384.513 -1.2472 -4.06602 0
M  V30 3855 N 382.828 1.3818 -0.7579 0
M  V30 3856 C 384.068 2.01864 -0.320968 0
M  V30 3857 C 384.432 1.58863 1.07827 0
M  V30 3858 O 385.633 2.14908 1.61456 0
M  V30 3859 C 383.904 3.54626 -0.44446 0
M  V30 3860 S 385.463 4.38706 -0.0907467 0
M  V30 3861 H 382.281 0.700056 -0.124268 0
M  V30 3862 H 384.883 1.68611 -0.989468 0
M  V30 3863 H 383.587 3.83411 -1.4637 0
M  V30 3864 H 383.118 3.92661 0.241073 0
M  V30 3865 H 385.133 4.83435 1.11826 0
M  V30 3866 N 384.306 0.507319 1.49211 0
M  V30 3867 C 385.552 -0.0350047 2.0277 0
M  V30 3868 C 385.885 -1.3606 1.38569 0
M  V30 3869 O 385.16 -1.87321 0.523542 0
M  V30 3870 C 385.443 -0.180916 3.59645 0
M  V30 3871 C 385.296 1.16825 4.34364 0
M  V30 3872 C 386.615 -0.918558 4.30407 0
M  V30 3873 H 383.734 -0.0112473 0.736914 0
M  V30 3874 H 386.376 0.659956 1.7817 0
M  V30 3875 H 384.526 -0.772826 3.80736 0
M  V30 3876 H 386.198 1.79952 4.24753 0
M  V30 3877 H 384.441 1.75594 3.96673 0
M  V30 3878 H 385.112 1.01939 5.42506 0
M  V30 3879 H 387.588 -0.41649 4.1401 0
M  V30 3880 H 386.464 -0.989505 5.39907 0
M  V30 3881 H 386.725 -1.96373 3.96093 0
M  V30 3882 N 385.784 -1.5574 0.241426 0
M  V30 3883 C 387.03 -1.99104 -0.385406 0
M  V30 3884 C 387.363 -1.1293 -1.57988 0
M  V30 3885 O 386.638 -0.191449 -1.93555 0
M  V30 3886 C 386.921 -3.51087 -0.800616 0
M  V30 3887 C 386.774 -4.48028 0.398874 0
M  V30 3888 C 388.093 -4.08015 -1.64959 0
M  V30 3889 H 385.212 -0.723848 -0.138614 0
M  V30 3890 H 387.854 -1.86903 0.341642 0
M  V30 3891 H 386.004 -3.61615 -1.4201 0
M  V30 3892 H 387.676 -4.49487 1.03726 0
M  V30 3893 H 385.919 -4.21077 1.04293 0
M  V30 3894 H 386.59 -5.51962 0.0651056 0
M  V30 3895 H 389.066 -4.00555 -1.12672 0
M  V30 3896 H 387.942 -5.14635 -1.90898 0
M  V30 3897 H 388.203 -3.56131 -2.61961 0
M  V30 3898 N 387.262 0.0317525 -1.57568 0
M  V30 3899 C 388.508 0.724175 -1.8943 0
M  V30 3900 C 388.841 1.75149 -0.838836 0
M  V30 3901 O 388.116 1.93948 0.146422 0
M  V30 3902 C 388.399 1.39615 -3.31933 0
M  V30 3903 C 388.252 0.382537 -4.4817 0
M  V30 3904 C 389.571 2.33084 -3.73309 0
M  V30 3905 H 386.69 0.261797 -0.688935 0
M  V30 3906 H 389.332 -0.013017 -1.89996 0
M  V30 3907 H 387.482 2.02451 -3.31581 0
M  V30 3908 H 389.154 -0.243689 -4.60656 0
M  V30 3909 H 387.397 -0.29844 -4.32772 0
M  V30 3910 H 388.068 0.891145 -5.44759 0
M  V30 3911 H 390.544 1.80295 -3.7501 0
M  V30 3912 H 389.42 2.77084 -4.73831 0
M  V30 3913 H 389.681 3.19643 -3.05419 0
M  V30 3914 N 388.74 1.54641 0.303973 0
M  V30 3915 C 390.017 1.64455 1.05896 0
M  V30 3916 C 390.397 0.490923 2.05312 0
M  V30 3917 O 389.745 -0.512685 2.22674 0
M  V30 3918 C 389.955 3.02331 1.74347 0
M  V30 3919 C 391.303 3.59045 2.26653 0
M  V30 3920 O 392.327 3.04764 1.84384 0
M  V30 3921 O 391.186 4.54081 3.04093 0
M  V30 3922 H 388.28 0.666729 0.489287 0
M  V30 3923 H 390.826 1.66986 0.302298 0
M  V30 3924 H 389.598 3.77734 1.02142 0
M  V30 3925 H 389.221 3.03565 2.56777 0
M  V30 3926 N 390.218 -0.567019 1.47046 0
M  V30 3927 C 391.464 -1.32658 1.53394 0
M  V30 3928 C 391.797 -1.93254 0.19148 0
M  V30 3929 O 391.072 -1.77338 -0.798844 0
M  V30 3930 C 391.355 -2.44412 2.64452 0
M  V30 3931 C 391.208 -1.88749 4.08282 0
M  V30 3932 C 392.527 -3.46387 2.71485 0
M  V30 3933 H 389.646 -0.48098 0.558415 0
M  V30 3934 H 392.288 -0.635481 1.79058 0
M  V30 3935 H 390.438 -3.03363 2.427 0
M  V30 3936 H 392.11 -1.34134 4.41368 0
M  V30 3937 H 390.353 -1.19481 4.17021 0
M  V30 3938 H 391.024 -2.69491 4.81745 0
M  V30 3939 H 393.5 -2.9734 2.91081 0
M  V30 3940 H 392.376 -4.2202 3.50985 0
M  V30 3941 H 392.637 -4.04616 1.78153 0
M  V30 3942 N 391.696 -1.35014 -0.812953 0
M  V30 3943 C 392.921 -1.31187 -1.60639 0
M  V30 3944 C 393.346 0.109382 -1.87782 0
M  V30 3945 O 392.704 1.07424 -1.46047 0
M  V30 3946 C 392.752 -2.11809 -2.91838 0
M  V30 3947 O 391.856 -1.49444 -3.8437 0
M  V30 3948 H 391.197 -0.450084 -0.488181 0
M  V30 3949 H 393.727 -1.77963 -1.00947 0
M  V30 3950 H 393.737 -2.23531 -3.41318 0
M  V30 3951 H 392.412 -3.15137 -2.71407 0
M  V30 3952 H 390.989 -1.46524 -3.42907 0
M  V30 3953 N 393.175 1.03435 -1.18907 0
M  V30 3954 C 394.125 2.09924 -0.889706 0
M  V30 3955 C 395.109 1.60261 0.143216 0
M  V30 3956 O 396.301 1.76892 -0.0617122 0
M  V30 3957 C 393.43 3.40669 -0.424168 0
M  V30 3958 C 392.516 3.97082 -1.48952 0
M  V30 3959 N 392.907 4.27227 -2.70759 0
M  V30 3960 C 391.205 4.25029 -1.35152 0
M  V30 3961 C 391.906 4.7246 -3.39347 0
M  V30 3962 N 390.882 4.7366 -2.66735 0
M  V30 3963 H 394.684 2.31116 -1.81555 0
M  V30 3964 H 392.198 1.21246 -1.08042 0
M  V30 3965 H 394.195 4.16461 -0.191176 0
M  V30 3966 H 392.855 3.20901 0.495263 0
M  V30 3967 H 393.866 4.16678 -3.0757 0
M  V30 3968 H 390.543 4.14554 -0.495126 0
M  V30 3969 H 391.933 5.04751 -4.43481 0
M  V30 3970 N 394.653 0.992116 1.22453 0
M  V30 3971 C 395.563 0.55065 2.28046 0
M  V30 3972 C 396.579 -0.400189 1.69335 0
M  V30 3973 O 397.755 -0.267215 1.99619 0
M  V30 3974 C 394.82 -0.128496 3.46462 0
M  V30 3975 C 393.881 0.865208 4.20491 0
M  V30 3976 C 393.114 0.218377 5.33253 0
M  V30 3977 O 393.337 -0.987894 5.6178 0
M  V30 3978 O 392.271 0.922845 5.94783 0
M  V30 3979 H 396.097 1.4291 2.67975 0
M  V30 3980 H 393.682 0.760326 1.28606 0
M  V30 3981 H 395.564 -0.508947 4.18315 0
M  V30 3982 H 394.239 -0.981526 3.0846 0
M  V30 3983 H 393.146 1.29658 3.50913 0
M  V30 3984 H 394.479 1.68741 4.62371 0
M  V30 3985 N 396.131 -1.37776 0.765217 0
M  V30 3986 C 397.408 -1.93975 0.251596 0
M  V30 3987 C 397.788 -1.69949 -1.25222 0
M  V30 3988 O 397.136 -1.04457 -2.03226 0
M  V30 3989 C 397.346 -3.43487 0.617895 0
M  V30 3990 C 398.694 -4.20564 0.584029 0
M  V30 3991 O 399.718 -3.5182 0.556888 0
M  V30 3992 O 398.577 -5.43138 0.605291 0
M  V30 3993 H 395.671 -0.82509 0.0561806 0
M  V30 3994 H 398.217 -1.47101 0.846128 0
M  V30 3995 H 396.989 -3.5453 1.65602 0
M  V30 3996 H 396.612 -3.976 -0.00403411 0
M  V30 3997 N 397.609 -0.515225 -1.4894 0
M  V30 3998 C 399.02 -0.0710067 -1.86565 0
M  V30 3999 C 399.371 1.34733 -1.42623 0
M  V30 4000 O 398.496 2.00653 -0.810379 0
M  V30 4001 C 399.091 -0.122083 -3.3858 0
M  V30 4002 C 397.65 0.266863 -3.75453 0
M  V30 4003 C 396.797 -0.488376 -2.72966 0
M  V30 4004 H 399.748 -0.727266 -1.41055 0
M  V30 4005 H 399.769 0.669818 -3.74558 0
M  V30 4006 H 399.281 -1.15448 -3.70531 0
M  V30 4007 H 397.382 1.30196 -3.49113 0
M  V30 4008 H 397.495 -0.0624811 -4.79059 0
M  V30 4009 H 395.859 0.0635622 -2.54621 0
M  V30 4010 H 396.642 -1.52113 -3.07761 0
M  V30 4011 N 399.087 1.5561 -0.249682 0
M  V30 4012 C 399.997 2.25143 0.659375 0
M  V30 4013 C 401.013 1.2685 1.19101 0
M  V30 4014 O 402.189 1.59732 1.22669 0
M  V30 4015 C 399.254 2.93945 1.8384 0
M  V30 4016 C 398.315 4.07655 1.34596 0
M  V30 4017 C 397.548 4.73167 2.46878 0
M  V30 4018 O 397.771 4.37768 3.65671 0
M  V30 4019 O 396.705 5.61623 2.16478 0
M  V30 4020 H 400.531 3.03545 0.0968698 0
M  V30 4021 H 398.116 1.49389 -0.018074 0
M  V30 4022 H 399.998 3.37271 2.52638 0
M  V30 4023 H 398.673 2.18481 2.38847 0
M  V30 4024 H 397.58 3.68839 0.625174 0
M  V30 4025 H 398.913 4.84946 0.841941 0
M  V30 4026 N 400.565 -0.0233959 1.57583 0
M  V30 4027 C 401.811 -0.714119 1.89811 0
M  V30 4028 C 402.144 -1.74702 0.848113 0
M  V30 4029 O 401.419 -1.94023 -0.136135 0
M  V30 4030 C 401.702 -1.37853 3.32669 0
M  V30 4031 C 401.555 -0.358764 4.48367 0
M  V30 4032 C 402.874 -2.31101 3.7454 0
M  V30 4033 H 399.993 -0.25814 0.690314 0
M  V30 4034 H 402.635 0.0230927 1.89986 0
M  V30 4035 H 400.785 -2.00689 3.3265 0
M  V30 4036 H 402.457 0.268115 4.6052 0
M  V30 4037 H 400.7 0.321387 4.32608 0
M  V30 4038 H 401.371 -0.862242 5.45224 0
M  V30 4039 H 403.847 -1.78304 3.75961 0
M  V30 4040 H 402.723 -2.74567 4.75294 0
M  V30 4041 H 402.984 -3.18018 3.0711 0
M  V30 4042 N 402.043 -1.548 -0.295768 0
M  V30 4043 C 402.99 -1.86113 -1.36494 0
M  V30 4044 C 403.96 -0.7105 -1.50137 0
M  V30 4045 O 405.145 -0.959626 -1.64912 0
M  V30 4046 C 402.285 -2.11861 -2.72413 0
M  V30 4047 C 401.398 -3.39471 -2.67177 0
M  V30 4048 C 400.533 -3.55035 -3.95125 0
M  V30 4049 C 399.572 -4.76418 -3.84308 0
M  V30 4050 N 398.709 -4.8876 -5.04042 0
M  V30 4051 H 403.549 -2.77314 -1.09091 0
M  V30 4052 H 401.086 -1.37315 -0.52753 0
M  V30 4053 H 403.044 -2.24786 -3.51464 0
M  V30 4054 H 401.674 -1.2392 -2.98066 0
M  V30 4055 H 400.726 -3.35139 -1.79962 0
M  V30 4056 H 402.038 -4.28646 -2.55076 0
M  V30 4057 H 401.192 -3.67653 -4.82614 0
M  V30 4058 H 399.931 -2.64002 -4.10066 0
M  V30 4059 H 398.936 -4.63827 -2.95202 0
M  V30 4060 H 400.161 -5.68863 -3.70906 0
M  V30 4061 H 398.107 -4.00652 -5.19436 0
M  V30 4062 H 398.024 -5.71945 -4.94384 0
M  V30 4063 H 399.292 -5.0574 -5.93167 0
M  V30 4064 N 403.521 0.559213 -1.47345 0
M  V30 4065 C 404.768 1.31648 -1.53867 0
M  V30 4066 C 405.096 1.93468 -0.200104 0
M  V30 4067 O 404.351 1.78295 0.806799 0
M  V30 4068 C 404.65 2.44853 -2.6035 0
M  V30 4069 C 404.316 2.00876 -4.03683 0
M  V30 4070 C 402.978 1.88599 -4.42701 0
M  V30 4071 C 405.33 1.67279 -4.93626 0
M  V30 4072 C 402.658 1.41017 -5.69501 0
M  V30 4073 C 405.01 1.21169 -6.20887 0
M  V30 4074 C 403.674 1.07487 -6.58789 0
M  V30 4075 H 402.944 0.481734 -0.56304 0
M  V30 4076 H 405.591 0.627301 -1.80934 0
M  V30 4077 H 403.896 3.19318 -2.27032 0
M  V30 4078 H 405.593 3.03039 -2.62619 0
M  V30 4079 H 402.183 2.11374 -3.72853 0
M  V30 4080 H 406.367 1.75638 -4.64182 0
M  V30 4081 H 401.623 1.29086 -5.97618 0
M  V30 4082 H 405.797 0.942345 -6.89995 0
M  V30 4083 H 403.424 0.703946 -7.56934 0
M  V30 4084 N 404.999 1.35443 0.805782 0
M  V30 4085 C 405.947 1.28465 1.93906 0
M  V30 4086 C 406.941 0.17943 1.68447 0
M  V30 4087 O 408.147 0.345459 1.76654 0
M  V30 4088 H 404.522 0.399528 0.637088 0
M  V30 4089 H 406.493 2.24206 1.96912 0
M  V30 4090 C 405.242 1.07432 3.30687 0
M  V30 4091 H 404.565 1.91716 3.50835 0
M  V30 4092 H 406.005 1.06591 4.10383 0
M  V30 4093 C 404.464 -0.22179 3.36169 0
M  V30 4094 O 404.994 -1.21731 3.82811 0
M  V30 4095 N 403.2 -0.260841 2.89427 0
M  V30 4096 H 402.747 0.549884 2.51663 0
M  V30 4097 H 402.705 -1.12777 2.93477 0
M  V30 4098 N 406.477 -1.02803 1.19454 0
M  V30 4099 C 407.723 -1.76598 1.0092 0
M  V30 4100 C 408.078 -1.86939 -0.455142 0
M  V30 4101 O 407.371 -1.37575 -1.33355 0
M  V30 4102 C 407.565 -3.18941 1.6128 0
M  V30 4103 C 407.394 -3.22476 3.13431 0
M  V30 4104 C 406.164 -3.30375 3.82336 0
M  V30 4105 C 408.362 -3.09451 4.10785 0
M  V30 4106 N 406.344 -3.23292 5.21877 0
M  V30 4107 C 407.715 -3.10012 5.36929 0
M  V30 4108 C 409.77 -2.93585 4.02135 0
M  V30 4109 C 408.473 -2.96334 6.55423 0
M  V30 4110 C 410.499 -2.81256 5.20239 0
M  V30 4111 C 409.861 -2.82472 6.45282 0
M  V30 4112 H 405.96 -0.657447 0.423424 0
M  V30 4113 H 408.544 -1.22369 1.5144 0
M  V30 4114 H 406.715 -3.71489 1.1336 0
M  V30 4115 H 408.447 -3.81102 1.36173 0
M  V30 4116 H 405.202 -3.3663 3.33132 0
M  V30 4117 H 405.626 -3.23156 5.94894 0
M  V30 4118 H 410.268 -2.91466 3.0628 0
M  V30 4119 H 407.986 -2.97203 7.51463 0
M  V30 4120 H 411.572 -2.70014 5.15348 0
M  V30 4121 H 410.452 -2.73036 7.35133 0
M  V30 4122 N 407.956 -0.998596 -1.21925 0
M  V30 4123 C 409.186 -0.695276 -1.94549 0
M  V30 4124 C 409.594 0.745079 -1.73911 0
M  V30 4125 O 408.937 1.51507 -1.03881 0
M  V30 4126 C 408.999 -0.928485 -3.47303 0
M  V30 4127 C 408.663 -2.35443 -3.91683 0
M  V30 4128 C 409.66 -3.33428 -3.98901 0
M  V30 4129 C 407.345 -2.69038 -4.24174 0
M  V30 4130 C 409.339 -4.63079 -4.37992 0
M  V30 4131 C 407.026 -3.98906 -4.62944 0
M  V30 4132 C 408.024 -4.95738 -4.69822 0
M  V30 4133 O 407.712 -6.23285 -5.07711 0
M  V30 4134 H 407.444 -0.255902 -0.625692 0
M  V30 4135 H 409.998 -1.33767 -1.5587 0
M  V30 4136 H 408.228 -0.228917 -3.86022 0
M  V30 4137 H 409.917 -0.619539 -4.01144 0
M  V30 4138 H 410.683 -3.08807 -3.73983 0
M  V30 4139 H 406.562 -1.94367 -4.18022 0
M  V30 4140 H 410.106 -5.38658 -4.43275 0
M  V30 4141 H 406.003 -4.23314 -4.87314 0
M  V30 4142 H 406.771 -6.27306 -5.25766 0
M  V30 4143 N 409.434 1.37368 -0.772513 0
M  V30 4144 C 410.68 1.99969 -0.337681 0
M  V30 4145 C 411.013 1.61184 1.08321 0
M  V30 4146 O 410.288 0.858395 1.74533 0
M  V30 4147 C 410.571 3.56858 -0.482121 0
M  V30 4148 C 410.424 4.0555 -1.94549 0
M  V30 4149 C 411.743 4.39955 0.113143 0
M  V30 4150 H 408.862 0.726464 -0.124171 0
M  V30 4151 H 411.504 1.63034 -0.975699 0
M  V30 4152 H 409.654 3.88452 0.0610361 0
M  V30 4153 H 411.326 3.84518 -2.54841 0
M  V30 4154 H 409.569 3.57715 -2.45403 0
M  V30 4155 H 410.24 5.14587 -1.9976 0
M  V30 4156 H 412.716 4.14623 -0.35031 0
M  V30 4157 H 411.592 5.48897 -0.0180514 0
M  V30 4158 H 411.853 4.25403 1.20354 0
M  V30 4159 N 410.912 0.523116 1.48665 0
M  V30 4160 C 412.189 -0.0775449 1.95446 0
M  V30 4161 C 412.569 -1.5197 1.4652 0
M  V30 4162 O 411.917 -2.17876 0.688657 0
M  V30 4163 C 412.127 0.0326135 3.48985 0
M  V30 4164 C 413.475 -0.130141 4.24401 0
M  V30 4165 O 414.499 -0.0415142 3.56176 0
M  V30 4166 O 413.358 -0.31491 5.45592 0
M  V30 4167 H 410.452 -0.0831012 0.822814 0
M  V30 4168 H 412.998 0.587227 1.59216 0
M  V30 4169 H 411.77 1.03748 3.77296 0
M  V30 4170 H 411.393 -0.671317 3.91892 0
M  V30 4171 N 412.39 -1.55475 0.257931 0
M  V30 4172 C 413.638 -1.98813 -0.363009 0
M  V30 4173 C 413.959 -1.14757 -1.57657 0
M  V30 4174 O 413.229 -0.232956 -1.9451 0
M  V30 4175 H 411.809 -0.734308 -0.137113 0
M  V30 4176 H 414.471 -1.9156 0.359281 0
M  V30 4177 H 413.567 -3.04941 -0.664634 0
M  V30 4178 N 413.868 0.0150385 -1.57593 0
M  V30 4179 C 415.114 0.704043 -1.90187 0
M  V30 4180 C 415.447 1.74249 -0.857366 0
M  V30 4181 O 414.722 1.94092 0.125843 0
M  V30 4182 C 415.005 1.36087 -3.33395 0
M  V30 4183 C 414.858 0.334981 -4.48551 0
M  V30 4184 C 416.177 2.29112 -3.7576 0
M  V30 4185 H 413.296 0.254475 -0.691673 0
M  V30 4186 H 415.938 -0.0331678 -1.89971 0
M  V30 4187 H 414.088 1.98922 -3.3371 0
M  V30 4188 H 415.76 -0.292534 -4.60372 0
M  V30 4189 H 414.003 -0.344325 -4.32431 0
M  V30 4190 H 414.674 0.833316 -5.45674 0
M  V30 4191 H 417.15 1.76308 -3.76902 0
M  V30 4192 H 416.026 2.72043 -4.76743 0
M  V30 4193 H 416.287 3.16385 -3.08793 0
M  V30 4194 N 415.346 1.54954 0.287554 0
M  V30 4195 C 416.256 1.8991 1.37736 0
M  V30 4196 C 417.272 0.794701 1.54792 0
M  V30 4197 O 418.448 1.09243 1.69198 0
M  V30 4198 C 415.513 2.15108 2.71899 0
M  V30 4199 C 414.574 3.38752 2.63715 0
M  V30 4200 C 413.807 3.62739 3.91479 0
M  V30 4201 O 414.03 2.89492 4.91478 0
M  V30 4202 O 412.964 4.56267 3.92561 0
M  V30 4203 H 416.79 2.82652 1.11092 0
M  V30 4204 H 414.375 1.41315 0.484807 0
M  V30 4205 H 416.257 2.32806 3.51254 0
M  V30 4206 H 414.932 1.25551 2.9836 0
M  V30 4207 H 413.839 3.26405 1.82786 0
M  V30 4208 H 415.172 4.28483 2.42205 0
M  V30 4209 N 416.824 -0.551391 1.4764 0
M  V30 4210 C 418.07 -1.31024 1.54792 0
M  V30 4211 C 418.403 -1.9304 0.211967 0
M  V30 4212 O 417.678 -1.78175 -0.77999 0
M  V30 4213 C 417.961 -2.41593 2.67029 0
M  V30 4214 C 417.814 -1.84408 4.10261 0
M  V30 4215 C 419.133 -3.43488 2.75143 0
M  V30 4216 H 416.252 -0.475031 0.563485 0
M  V30 4217 H 418.894 -0.616454 1.79722 0
M  V30 4218 H 417.044 -3.00772 2.45904 0
M  V30 4219 H 418.716 -1.29445 4.42766 0
M  V30 4220 H 416.959 -1.15051 4.18265 0
M  V30 4221 H 417.63 -2.64367 4.84576 0
M  V30 4222 H 420.106 -2.94236 2.94218 0
M  V30 4223 H 418.982 -4.18274 3.55441 0
M  V30 4224 H 419.243 -4.02703 1.82435 0
M  V30 4225 N 418.302 -1.35869 -0.798587 0
M  V30 4226 C 419.252 -1.25982 -1.90033 0
M  V30 4227 C 420.236 -0.153303 -1.60168 0
M  V30 4228 O 421.428 -0.38527 -1.72756 0
M  V30 4229 C 418.557 -1.04211 -3.27101 0
M  V30 4230 C 417.643 -2.19289 -3.63006 0
M  V30 4231 N 418.034 -3.44559 -3.70287 0
M  V30 4232 C 416.332 -2.10852 -3.93011 0
M  V30 4233 C 417.033 -4.20283 -4.02166 0
M  V30 4234 N 416.009 -3.49124 -4.16669 0
M  V30 4235 H 419.811 -2.20883 -1.93876 0
M  V30 4236 H 417.325 -1.28457 -0.993614 0
M  V30 4237 H 419.322 -0.952155 -4.05881 0
M  V30 4238 H 417.982 -0.102013 -3.2454 0
M  V30 4239 H 418.993 -3.7881 -3.53162 0
M  V30 4240 H 415.67 -1.24744 -3.98428 0
M  V30 4241 H 417.06 -5.28575 -4.14799 0
M  V30 4242 N 419.78 1.02168 -1.19998 0
M  V30 4243 C 420.728 2.12717 -0.940967 0
M  V30 4244 C 421.722 1.69069 0.105841 0
M  V30 4245 O 422.928 1.79946 -0.0440583 0
M  V30 4246 H 419.303 0.695108 -0.28693 0
M  V30 4247 H 421.274 2.3175 -1.87975 0
M  V30 4248 C 420.023 3.44027 -0.504049 0
M  V30 4249 H 419.346 3.78036 -1.30112 0
M  V30 4250 H 420.786 4.22452 -0.361991 0
M  V30 4251 C 419.245 3.27678 0.782878 0
M  V30 4252 O 419.775 3.56949 1.84256 0
M  V30 4253 N 417.981 2.80943 0.742921 0
M  V30 4254 H 417.528 2.57322 -0.119687 0
M  V30 4255 H 417.486 2.70385 1.60435 0
M  V30 4256 N 421.258 1.00505 1.21394 0
M  V30 4257 C 422.221 0.570459 2.21987 0
M  V30 4258 C 423.221 -0.353211 1.56873 0
M  V30 4259 O 424.411 -0.14349 1.73608 0
M  V30 4260 C 421.543 -0.168555 3.40483 0
M  V30 4261 H 422.736 1.46021 2.6195 0
M  V30 4262 H 420.289 0.793565 1.34656 0
M  V30 4263 H 421.024 -1.07374 3.06009 0
M  V30 4264 H 420.809 0.494823 3.88965 0
M  V30 4265 H 422.299 -0.460362 4.15055 0
M  V30 4266 N 422.737 -1.36956 0.779787 0
M  V30 4267 C 423.684 -2.30175 0.169697 0
M  V30 4268 C 424.654 -1.51501 -0.68094 0
M  V30 4269 O 425.839 -1.80042 -0.631629 0
M  V30 4270 C 422.979 -3.37985 -0.697131 0
M  V30 4271 C 422.092 -4.31661 0.170992 0
M  V30 4272 C 421.227 -5.2655 -0.701298 0
M  V30 4273 C 420.266 -6.11867 0.168869 0
M  V30 4274 N 419.403 -6.98973 -0.661855 0
M  V30 4275 H 424.243 -2.81767 0.970135 0
M  V30 4276 H 421.78 -1.38699 0.489994 0
M  V30 4277 H 423.738 -3.99128 -1.2146 0
M  V30 4278 H 422.368 -2.87739 -1.46309 0
M  V30 4279 H 421.42 -3.71756 0.80634 0
M  V30 4280 H 422.732 -4.91644 0.841875 0
M  V30 4281 H 421.886 -5.92937 -1.28494 0
M  V30 4282 H 420.625 -4.66998 -1.40584 0
M  V30 4283 H 419.63 -5.44452 0.764986 0
M  V30 4284 H 420.855 -6.73493 0.870863 0
M  V30 4285 H 418.801 -6.41941 -1.35086 0
M  V30 4286 H 418.718 -7.55984 -0.0484447 0
M  V30 4287 H 419.986 -7.6974 -1.22963 0
M  V30 4288 N 424.215 -0.530993 -1.48385 0
M  V30 4289 C 425.443 -0.00134122 -2.069 0
M  V30 4290 C 425.858 1.2805 -1.3874 0
M  V30 4291 O 425.215 1.76204 -0.475244 0
M  V30 4292 C 425.266 0.225256 -3.60798 0
M  V30 4293 O 424.987 -1.0058 -4.26398 0
M  V30 4294 C 426.488 0.795172 -4.3611 0
M  V30 4295 H 423.708 -0.0339704 -0.67014 0
M  V30 4296 H 426.252 -0.736926 -1.90761 0
M  V30 4297 H 424.407 0.910891 -3.76539 0
M  V30 4298 H 424.821 -0.787165 -5.1856 0
M  V30 4299 H 426.295 0.903143 -5.44562 0
M  V30 4300 H 426.772 1.80031 -4.00606 0
M  V30 4301 H 427.378 0.146069 -4.25049 0
M  V30 4302 N 425.693 1.55336 -0.266172 0
M  V30 4303 C 426.64 2.22172 0.625165 0
M  V30 4304 C 427.61 1.19211 1.15663 0
M  V30 4305 O 428.795 1.47723 1.20758 0
M  V30 4306 C 425.935 2.93972 1.8076 0
M  V30 4307 C 425.048 4.11632 1.31084 0
M  V30 4308 C 424.183 4.71099 2.45436 0
M  V30 4309 C 423.222 5.8097 1.92718 0
M  V30 4310 N 422.359 6.34538 3.00509 0
M  V30 4311 H 427.199 2.9796 0.0485582 0
M  V30 4312 H 424.736 1.47095 0.0122024 0
M  V30 4313 H 426.694 3.33811 2.50251 0
M  V30 4314 H 425.324 2.20623 2.35638 0
M  V30 4315 H 424.376 3.76975 0.509326 0
M  V30 4316 H 425.688 4.90893 0.884633 0
M  V30 4317 H 424.842 5.13612 3.22936 0
M  V30 4318 H 423.581 3.91096 2.91368 0
M  V30 4319 H 422.586 5.37916 1.13695 0
M  V30 4320 H 423.811 6.62836 1.47733 0
M  V30 4321 H 421.757 5.57433 3.45839 0
M  V30 4322 H 421.674 7.09046 2.62279 0
M  V30 4323 H 422.942 6.81709 3.78011 0
M  V30 4324 N 427.171 -0.0066808 1.57599 0
M  V30 4325 C 428.582 -0.550379 1.78403 0
M  V30 4326 C 428.933 -1.74339 0.900014 0
M  V30 4327 O 428.058 -2.16166 0.100713 0
M  V30 4328 C 428.653 -1.00523 3.23544 0
M  V30 4329 C 427.212 -1.49428 3.45468 0
M  V30 4330 C 426.359 -0.442444 2.73748 0
M  V30 4331 H 429.31 0.219508 1.57175 0
M  V30 4332 H 429.331 -1.87157 3.31289 0
M  V30 4333 H 428.843 -0.136735 3.87859 0
M  V30 4334 H 426.944 -2.3839 2.86358 0
M  V30 4335 H 427.057 -1.52635 4.54136 0
M  V30 4336 H 425.421 -0.902578 2.38171 0
M  V30 4337 H 426.204 0.416973 3.40758 0
M  V30 4338 N 428.649 -1.55105 -0.279332 0
M  V30 4339 C 430.065 -1.46803 -0.626187 0
M  V30 4340 C 430.265 -0.676939 -1.89789 0
M  V30 4341 O 429.321 -0.19326 -2.51759 0
M  V30 4342 C 430.634 -2.90962 -0.759034 0
M  V30 4343 C 432.182 -3.01138 -0.853504 0
M  V30 4344 C 432.657 -4.46539 -1.01818 0
M  V30 4345 N 434.148 -4.50341 -1.08386 0
M  V30 4346 C 434.883 -5.60053 -1.22996 0
M  V30 4347 N 434.379 -6.79645 -1.34366 0
M  V30 4348 N 436.172 -5.47783 -1.26056 0
M  V30 4349 H 428.323 -2.04996 0.555921 0
M  V30 4350 H 430.586 -0.929325 0.187239 0
M  V30 4351 H 430.292 -3.51544 0.104852 0
M  V30 4352 H 430.166 -3.39619 -1.64131 0
M  V30 4353 H 432.553 -2.40658 -1.70786 0
M  V30 4354 H 432.634 -2.55745 0.0532466 0
M  V30 4355 H 432.278 -5.0762 -0.168504 0
M  V30 4356 H 432.208 -4.89583 -1.93948 0
M  V30 4357 H 434.699 -3.64191 -1.00864 0
M  V30 4358 H 435.012 -7.59012 -1.4533 0
M  V30 4359 H 433.357 -6.82469 -1.31382 0
M  V30 4360 H 436.548 -4.53294 -1.168 0
M  V30 4361 H 436.721 -6.33331 -1.37098 0
M  V30 4362 N 430.127 0.543554 -1.4793 0
M  V30 4363 C 431.037 1.67657 -1.64098 0
M  V30 4364 C 432.053 1.65934 -0.523622 0
M  V30 4365 O 433.229 1.85133 -0.792943 0
M  V30 4366 C 430.294 3.04146 -1.66421 0
M  V30 4367 C 429.355 3.16831 -2.89684 0
M  V30 4368 C 428.588 4.46809 -2.91886 0
M  V30 4369 O 428.811 5.33095 -2.02895 0
M  V30 4370 O 427.745 4.63573 -3.83906 0
M  V30 4371 H 431.571 1.56957 -2.59997 0
M  V30 4372 H 429.156 0.715116 -1.31173 0
M  V30 4373 H 431.038 3.85346 -1.70548 0
M  V30 4374 H 429.713 3.152 -0.736923 0
M  V30 4375 H 428.62 2.34977 -2.91095 0
M  V30 4376 H 429.953 3.10687 -3.81752 0
M  V30 4377 N 431.605 1.3629 0.791371 0
M  V30 4378 C 432.515 1.32606 1.93527 0
M  V30 4379 C 433.531 0.228541 1.72493 0
M  V30 4380 O 434.707 0.460571 1.96063 0
M  V30 4381 C 431.772 1.11271 3.28359 0
M  V30 4382 C 430.833 2.3048 3.62185 0
M  V30 4383 C 430.066 2.10154 4.90583 0
M  V30 4384 O 430.289 1.07572 5.60165 0
M  V30 4385 O 429.223 2.97884 5.23019 0
M  V30 4386 H 433.049 2.28909 1.99585 0
M  V30 4387 H 430.634 1.16818 0.931344 0
M  V30 4388 H 432.516 1.01283 4.09047 0
M  V30 4389 H 431.191 0.180292 3.23198 0
M  V30 4390 H 430.098 2.46036 2.81811 0
M  V30 4391 H 431.431 3.22221 3.72068 0
M  V30 4392 N 433.083 -1.0153 1.20538 0
M  V30 4393 C 434.015 -2.10224 0.913155 0
M  V30 4394 C 435.028 -1.62495 -0.0995998 0
M  V30 4395 O 436.217 -1.78014 0.131582 0
M  V30 4396 C 433.317 -3.37111 0.347717 0
M  V30 4397 C 432.49 -4.13971 1.41233 0
M  V30 4398 C 431.549 -5.19158 0.857976 0
M  V30 4399 O 430.575 -5.48 1.53897 0
M  V30 4400 N 431.777 -5.7955 -0.331966 0
M  V30 4401 H 434.542 -2.35879 1.84881 0
M  V30 4402 H 432.103 -1.17931 1.10923 0
M  V30 4403 H 434.095 -4.04683 -0.0373026 0
M  V30 4404 H 432.665 -3.08696 -0.492527 0
M  V30 4405 H 431.885 -3.41351 1.97163 0
M  V30 4406 H 433.173 -4.62103 2.12928 0
M  V30 4407 H 432.571 -5.58455 -0.902478 0
M  V30 4408 H 431.128 -6.48464 -0.65861 0
M  V30 4409 N 434.561 -1.01147 -1.20859 0
M  V30 4410 C 435.791 -0.715872 -1.93801 0
M  V30 4411 C 436.199 0.726592 -1.74692 0
M  V30 4412 O 435.542 1.50397 -1.05482 0
M  V30 4413 C 435.604 -0.965269 -3.46299 0
M  V30 4414 C 435.268 -2.39584 -3.89164 0
M  V30 4415 C 436.265 -3.3764 -3.95342 0
M  V30 4416 C 433.95 -2.73522 -4.21297 0
M  V30 4417 C 435.944 -4.67698 -4.33056 0
M  V30 4418 C 433.631 -4.03794 -4.58687 0
M  V30 4419 C 434.629 -5.00693 -4.64538 0
M  V30 4420 O 434.317 -6.28635 -5.01072 0
M  V30 4421 H 434.049 -0.262524 -0.622942 0
M  V30 4422 H 436.603 -1.35413 -1.54443 0
M  V30 4423 H 434.833 -0.269847 -3.85757 0
M  V30 4424 H 436.522 -0.662051 -4.00464 0
M  V30 4425 H 437.288 -3.12757 -3.70686 0
M  V30 4426 H 433.167 -1.9879 -4.15937 0
M  V30 4427 H 436.711 -5.4333 -4.37537 0
M  V30 4428 H 432.608 -4.28459 -4.82797 0
M  V30 4429 H 433.376 -6.32847 -5.19083 0
M  V30 4430 N 436.039 1.36541 -0.78704 0
M  V30 4431 C 436.987 2.31965 -0.171724 0
M  V30 4432 C 437.981 1.55689 0.667631 0
M  V30 4433 O 439.187 1.70969 0.562981 0
M  V30 4434 H 435.562 0.751101 -0.0367545 0
M  V30 4435 H 437.533 2.81428 -0.992017 0
M  V30 4436 C 436.282 3.40968 0.680904 0
M  V30 4437 H 435.605 3.99775 0.0443961 0
M  V30 4438 H 437.045 4.10063 1.07815 0
M  V30 4439 C 435.504 2.82338 1.83813 0
M  V30 4440 O 436.034 2.74311 2.93456 0
M  V30 4441 N 434.24 2.39661 1.6435 0
M  V30 4442 H 433.787 2.46389 0.751668 0
M  V30 4443 H 433.745 2.00779 2.4194 0
M  V30 4444 N 437.518 0.538854 1.48102 0
M  V30 4445 C 438.743 0.0102694 2.07397 0
M  V30 4446 C 439.168 -1.26562 1.39153 0
M  V30 4447 O 438.526 -1.75357 0.460387 0
M  V30 4448 C 438.574 -0.187602 3.60112 0
M  V30 4449 O 437.678 -1.25432 3.92862 0
M  V30 4450 H 437.019 0.0430975 0.6626 0
M  V30 4451 H 439.549 0.749301 1.90385 0
M  V30 4452 H 439.559 -0.407517 4.0596 0
M  V30 4453 H 438.234 0.744386 4.09184 0
M  V30 4454 H 436.811 -1.01636 3.58782 0
M  V30 4455 N 438.996 -1.55193 0.274407 0
M  V30 4456 C 440.224 -2.03987 -0.345943 0
M  V30 4457 C 440.639 -1.15279 -1.4952 0
M  V30 4458 O 439.996 -0.172759 -1.8168 0
M  V30 4459 C 440.047 -3.51898 -0.827631 0
M  V30 4460 O 439.768 -4.37231 0.275855 0
M  V30 4461 C 441.269 -4.16577 -1.51587 0
M  V30 4462 H 438.489 -0.666335 -0.0789892 0
M  V30 4463 H 441.033 -2.00423 0.406294 0
M  V30 4464 H 439.188 -3.55909 -1.52996 0
M  V30 4465 H 439.602 -5.24415 -0.0943638 0
M  V30 4466 H 441.076 -5.21678 -1.80433 0
M  V30 4467 H 441.553 -3.64707 -2.44716 0
M  V30 4468 H 442.159 -4.16568 -0.857409 0
M  V30 4469 N 440.474 -0.00167713 -1.576 0
M  V30 4470 C 441.704 0.692754 -1.94639 0
M  V30 4471 C 442.112 1.67744 -0.87513 0
M  V30 4472 O 441.455 1.8305 0.154382 0
M  V30 4473 C 441.517 1.47881 -3.27676 0
M  V30 4474 C 441.181 0.655518 -4.52274 0
M  V30 4475 C 442.178 -0.0575214 -5.19868 0
M  V30 4476 C 439.863 0.600994 -4.98692 0
M  V30 4477 C 441.857 -0.814052 -6.3218 0
M  V30 4478 C 439.544 -0.15926 -6.10892 0
M  V30 4479 C 440.542 -0.865515 -6.77494 0
M  V30 4480 O 440.23 -1.61336 -7.87544 0
M  V30 4481 H 439.962 0.197792 -0.646417 0
M  V30 4482 H 442.516 -0.049423 -2.05341 0
M  V30 4483 H 440.746 2.2655 -3.13388 0
M  V30 4484 H 442.435 2.05874 -3.49816 0
M  V30 4485 H 443.201 -0.0245611 -4.84994 0
M  V30 4486 H 439.08 1.14025 -4.46676 0
M  V30 4487 H 442.624 -1.36584 -6.84098 0
M  V30 4488 H 438.521 -0.194035 -6.45208 0
M  V30 4489 H 439.289 -1.53025 -8.04068 0
M  V30 4490 N 441.952 1.55251 0.271103 0
M  V30 4491 C 443.368 1.47133 0.618393 0
M  V30 4492 C 443.568 0.686994 1.89427 0
M  V30 4493 O 442.624 0.206609 2.51653 0
M  V30 4494 C 443.937 2.91361 0.743593 0
M  V30 4495 C 445.485 3.01587 0.837522 0
M  V30 4496 C 445.96 4.47073 0.994483 0
M  V30 4497 N 447.451 4.50909 1.05996 0
M  V30 4498 C 448.186 5.60698 1.20024 0
M  V30 4499 N 447.682 6.80348 1.30759 0
M  V30 4500 N 449.475 5.48444 1.23149 0
M  V30 4501 H 441.626 2.04698 -0.566784 0
M  V30 4502 H 443.889 0.928319 -0.192165 0
M  V30 4503 H 443.595 3.51483 -0.123493 0
M  V30 4504 H 443.469 3.40484 1.62328 0
M  V30 4505 H 445.856 2.4156 1.69507 0
M  V30 4506 H 445.937 2.55713 -0.0668086 0
M  V30 4507 H 445.581 5.07703 0.141582 0
M  V30 4508 H 445.511 4.90605 1.91349 0
M  V30 4509 H 448.002 3.6472 0.989316 0
M  V30 4510 H 448.315 7.59772 1.41303 0
M  V30 4511 H 446.66 6.83156 1.27761 0
M  V30 4512 H 449.851 4.53907 1.14394 0
M  V30 4513 H 450.024 6.34049 1.33738 0
M  V30 4514 N 443.43 -0.535701 1.48216 0
M  V30 4515 C 444.676 -1.29375 1.56173 0
M  V30 4516 C 445.009 -1.92804 0.232429 0
M  V30 4517 O 444.284 -1.78992 -0.761048 0
M  V30 4518 C 444.567 -2.38747 2.69577 0
M  V30 4519 C 444.42 -1.80046 4.12193 0
M  V30 4520 C 445.739 -3.40551 2.78771 0
M  V30 4521 H 442.858 -0.469027 0.568491 0
M  V30 4522 H 445.5 -0.597358 1.80365 0
M  V30 4523 H 443.65 -2.98147 2.4908 0
M  V30 4524 H 445.322 -1.24742 4.44114 0
M  V30 4525 H 443.565 -1.10609 4.19462 0
M  V30 4526 H 444.236 -2.59212 4.87353 0
M  V30 4527 H 446.712 -2.91099 2.97322 0
M  V30 4528 H 445.588 -4.1448 3.59857 0
M  V30 4529 H 445.849 -4.00746 1.86696 0
M  V30 4530 N 444.908 -1.36708 -0.784132 0
M  V30 4531 C 446.154 -1.31426 -1.54451 0
M  V30 4532 C 446.487 0.10476 -1.93917 0
M  V30 4533 O 445.762 1.05934 -1.6312 0
M  V30 4534 C 446.045 -2.24189 -2.818 0
M  V30 4535 C 445.898 -3.74813 -2.48667 0
M  V30 4536 C 447.217 -2.15626 -3.83658 0
M  V30 4537 H 444.336 -0.478739 -0.560337 0
M  V30 4538 H 446.978 -1.67305 -0.900498 0
M  V30 4539 H 445.128 -1.93722 -3.36755 0
M  V30 4540 H 446.8 -4.15823 -1.99722 0
M  V30 4541 H 445.043 -3.93989 -1.81535 0
M  V30 4542 H 445.714 -4.35138 -3.39646 0
M  V30 4543 H 448.19 -2.42456 -3.38163 0
M  V30 4544 H 447.066 -2.82694 -4.70506 0
M  V30 4545 H 447.327 -1.14522 -4.27009 0
M  V30 4546 N 446.386 1.0089 -1.21074 0
M  V30 4547 C 447.611 1.78727 -1.05221 0
M  V30 4548 C 448.036 1.83932 0.393795 0
M  V30 4549 O 447.394 1.28004 1.28393 0
M  V30 4550 C 447.442 3.20665 -1.64944 0
M  V30 4551 O 446.546 4.02632 -0.892273 0
M  V30 4552 H 445.887 0.550973 -0.370574 0
M  V30 4553 H 448.417 1.26847 -1.60534 0
M  V30 4554 H 448.427 3.71352 -1.69002 0
M  V30 4555 H 447.102 3.16191 -2.70177 0
M  V30 4556 H 445.679 3.61207 -0.926492 0
M  V30 4557 N 447.864 1.01787 1.20321 0
M  V30 4558 C 449.11 0.708985 1.90003 0
M  V30 4559 C 449.443 -0.759572 1.78729 0
M  V30 4560 O 448.718 -1.55198 1.17234 0
M  V30 4561 C 449.001 1.1469 3.41348 0
M  V30 4562 C 448.854 2.67586 3.61549 0
M  V30 4563 C 450.173 0.71915 4.34185 0
M  V30 4564 H 447.292 0.259034 0.689978 0
M  V30 4565 H 449.934 1.26584 1.41692 0
M  V30 4566 H 448.084 0.673128 3.82624 0
M  V30 4567 H 449.756 3.22826 3.29517 0
M  V30 4568 H 447.999 3.085 3.04976 0
M  V30 4569 H 448.67 2.93281 4.67643 0
M  V30 4570 H 451.146 1.12647 4.00562 0
M  V30 4571 H 450.022 1.05358 5.38694 0
M  V30 4572 H 450.283 -0.379111 4.40472 0
M  V30 4573 N 449.342 -1.36122 0.79427 0
M  V30 4574 C 450.272 -2.32551 0.210328 0
M  V30 4575 C 451.253 -1.56884 -0.657386 0
M  V30 4576 O 452.438 -1.85014 -0.590207 0
M  V30 4577 C 449.568 -3.41128 -0.651819 0
M  V30 4578 C 448.522 -4.27842 0.116395 0
M  V30 4579 C 447.848 -5.2763 -0.86666 0
M  V30 4580 C 449.148 -5.05647 1.30837 0
M  V30 4581 H 450.842 -2.81636 1.01594 0
M  V30 4582 H 448.388 -1.35407 0.489981 0
M  V30 4583 H 450.341 -4.07581 -1.07031 0
M  V30 4584 H 449.065 -2.90622 -1.49019 0
M  V30 4585 H 447.724 -3.62952 0.515915 0
M  V30 4586 H 447.372 -4.73395 -1.70019 0
M  V30 4587 H 447.072 -5.86514 -0.35705 0
M  V30 4588 H 448.596 -5.96955 -1.28361 0
M  V30 4589 H 450.01 -5.65113 0.965393 0
M  V30 4590 H 448.407 -5.73967 1.75161 0
M  V30 4591 H 449.477 -4.37006 2.10128 0
M  V30 4592 N 450.82 -0.546701 -1.47814 0
M  V30 4593 C 452.048 -0.0232857 -2.06887 0
M  V30 4594 C 452.463 1.26571 -1.4009 0
M  V30 4595 O 451.82 1.7569 -0.493906 0
M  V30 4596 C 451.871 0.186975 -3.61016 0
M  V30 4597 O 451.592 -1.05097 -4.25307 0
M  V30 4598 C 453.093 0.748872 -4.36929 0
M  V30 4599 H 450.313 -0.0410763 -0.669742 0
M  V30 4600 H 452.857 -0.757117 -1.89968 0
M  V30 4601 H 451.012 0.870903 -3.77484 0
M  V30 4602 H 451.426 -0.842121 -5.17695 0
M  V30 4603 H 452.9 0.845334 -5.45489 0
M  V30 4604 H 453.377 1.75772 -4.02493 0
M  V30 4605 H 453.983 0.100979 -4.2518 0
M  V30 4606 N 452.299 1.55045 -0.282633 0
M  V30 4607 C 453.545 2.00056 0.332481 0
M  V30 4608 C 453.878 1.1708 1.54939 0
M  V30 4609 O 453.153 0.2427 1.9298 0
M  V30 4610 C 453.436 3.53086 0.70725 0
M  V30 4611 C 453.289 4.46813 -0.517521 0
M  V30 4612 C 454.608 4.12245 1.54084 0
M  V30 4613 H 451.727 0.727268 0.119373 0
M  V30 4614 H 454.369 1.85932 -0.391076 0
M  V30 4615 H 452.519 3.65253 1.32372 0
M  V30 4616 H 454.191 4.46579 -1.15607 0
M  V30 4617 H 452.434 4.18163 -1.1542 0
M  V30 4618 H 453.105 5.51595 -0.211426 0
M  V30 4619 H 455.581 4.03401 1.02013 0
M  V30 4620 H 454.457 5.19515 1.77186 0
M  V30 4621 H 454.718 3.62951 2.52427 0
M  V30 4622 N 453.777 0.010035 1.57597 0
M  V30 4623 C 454.707 -0.976857 2.12084 0
M  V30 4624 C 455.688 -1.35191 1.03235 0
M  V30 4625 O 456.873 -1.43389 1.3097 0
M  V30 4626 C 454.003 -2.26548 2.63236 0
M  V30 4627 C 452.957 -2.03175 3.76701 0
M  V30 4628 C 452.283 -3.38138 4.14206 0
M  V30 4629 C 453.583 -1.38625 5.03568 0
M  V30 4630 H 455.277 -0.523145 2.94794 0
M  V30 4631 H 452.823 -0.250195 1.4181 0
M  V30 4632 H 454.776 -2.95952 2.99984 0
M  V30 4633 H 453.5 -2.74051 1.77661 0
M  V30 4634 H 452.159 -1.36195 3.40362 0
M  V30 4635 H 451.807 -3.83363 3.25641 0
M  V30 4636 H 451.507 -3.23312 4.90656 0
M  V30 4637 H 453.031 -4.08841 4.53521 0
M  V30 4638 H 454.445 -1.98 5.38023 0
M  V30 4639 H 452.842 -1.34256 5.84889 0
M  V30 4640 H 453.912 -0.356722 4.83586 0
M  V30 4641 N 455.255 -1.55392 -0.262866 0
M  V30 4642 C 456.205 -1.85355 -1.32768 0
M  V30 4643 C 457.189 -0.713188 -1.44231 0
M  V30 4644 O 458.381 -0.974765 -1.47741 0
M  V30 4645 C 455.51 -2.13781 -2.68612 0
M  V30 4646 C 454.596 -3.34104 -2.61219 0
M  V30 4647 N 454.987 -4.53766 -2.2345 0
M  V30 4648 C 453.285 -3.36895 -2.92263 0
M  V30 4649 C 453.986 -5.35877 -2.26298 0
M  V30 4650 N 452.962 -4.74536 -2.65172 0
M  V30 4651 H 456.764 -2.75413 -1.02591 0
M  V30 4652 H 454.278 -1.55405 -0.471503 0
M  V30 4653 H 456.275 -2.33407 -3.45437 0
M  V30 4654 H 454.935 -1.25013 -2.99669 0
M  V30 4655 H 455.946 -4.79682 -1.95258 0
M  V30 4656 H 452.623 -2.58351 -3.27965 0
M  V30 4657 H 454.013 -6.41577 -1.99572 0
M  V30 4658 N 456.733 0.527833 -1.48498 0
M  V30 4659 C 457.665 1.6482 -1.5927 0
M  V30 4660 C 458.678 1.55659 -0.476869 0
M  V30 4661 O 459.867 1.62081 -0.747806 0
M  V30 4662 C 456.967 3.0348 -1.50842 0
M  V30 4663 C 456.14 3.381 -2.77502 0
M  V30 4664 C 455.199 4.5605 -2.62497 0
M  V30 4665 O 454.225 4.59165 -3.36387 0
M  V30 4666 N 455.427 5.54353 -1.72257 0
M  V30 4667 H 458.192 1.56015 -2.55889 0
M  V30 4668 H 455.753 0.715152 -1.45249 0
M  V30 4669 H 457.745 3.80264 -1.38496 0
M  V30 4670 H 456.315 3.06352 -0.621887 0
M  V30 4671 H 455.535 2.50473 -3.04396 0
M  V30 4672 H 456.823 3.58017 -3.61527 0
M  V30 4673 H 456.221 5.54617 -1.11431 0
M  V30 4674 H 454.778 6.30347 -1.65849 0
M  V30 4675 N 458.211 1.37122 0.776871 0
M  V30 4676 C 459.488 1.22586 1.52421 0
M  V30 4677 C 459.868 -0.182726 2.10308 0
M  V30 4678 O 459.216 -1.18979 1.9508 0
M  V30 4679 C 459.426 2.31782 2.60918 0
M  V30 4680 C 460.774 2.69071 3.2846 0
M  V30 4681 O 461.798 2.3092 2.71209 0
M  V30 4682 O 460.657 3.3478 4.31954 0
M  V30 4683 H 457.751 0.478045 0.674835 0
M  V30 4684 H 460.297 1.48888 0.814275 0
M  V30 4685 H 459.069 3.26131 2.16227 0
M  V30 4686 H 458.692 2.06916 3.39517 0
M  V30 4687 N 459.689 -1.00246 1.21608 0
M  V30 4688 C 460.935 -1.74417 1.04643 0
M  V30 4689 C 461.29 -1.87862 -0.415387 0
M  V30 4690 O 460.583 -1.40373 -1.30407 0
M  V30 4691 C 460.777 -3.15448 1.68009 0
M  V30 4692 C 460.606 -3.15755 3.20201 0
M  V30 4693 C 459.376 -3.2219 3.89258 0
M  V30 4694 C 461.574 -3.00668 4.17257 0
M  V30 4695 N 459.556 -3.1215 5.28617 0
M  V30 4696 C 460.927 -2.98553 5.43384 0
M  V30 4697 C 462.982 -2.84989 4.08272 0
M  V30 4698 C 461.685 -2.82364 6.61561 0
M  V30 4699 C 463.711 -2.70158 5.26088 0
M  V30 4700 C 463.073 -2.68721 6.51128 0
M  V30 4701 H 459.172 -0.648317 0.437274 0
M  V30 4702 H 461.756 -1.19129 1.54001 0
M  V30 4703 H 459.927 -3.69001 1.21215 0
M  V30 4704 H 461.659 -3.78128 1.44226 0
M  V30 4705 H 458.414 -3.29488 3.40198 0
M  V30 4706 H 458.838 -3.10465 6.01615 0
M  V30 4707 H 463.48 -2.84904 3.12393 0
M  V30 4708 H 461.198 -2.81196 7.57598 0
M  V30 4709 H 464.784 -2.59022 5.20959 0
M  V30 4710 H 463.664 -2.57382 7.40759 0
M  V30 4711 N 461.167 -1.02423 -1.1978 0
M  V30 4712 C 462.097 -0.62157 -2.25075 0
M  V30 4713 C 463.078 0.367148 -1.6609 0
M  V30 4714 O 464.263 0.250892 -1.92573 0
M  V30 4715 C 461.393 0.0331826 -3.47284 0
M  V30 4716 C 460.347 -0.877323 -4.18912 0
M  V30 4717 C 459.673 -0.0879296 -5.34628 0
M  V30 4718 C 460.973 -2.18892 -4.74219 0
M  V30 4719 H 462.667 -1.50179 -2.59011 0
M  V30 4720 H 460.213 -0.723547 -1.24502 0
M  V30 4721 H 462.166 0.326488 -4.20133 0
M  V30 4722 H 460.89 0.948164 -3.12534 0
M  V30 4723 H 459.549 -1.15475 -3.47938 0
M  V30 4724 H 459.197 0.828941 -4.96123 0
M  V30 4725 H 458.897 -0.694359 -5.83483 0
M  V30 4726 H 460.421 0.198743 -6.10276 0
M  V30 4727 H 461.835 -1.95746 -5.38847 0
M  V30 4728 H 460.232 -2.74686 -5.33542 0
M  V30 4729 H 461.302 -2.84674 -3.92541 0
M  V30 4730 N 462.645 1.35699 -0.801477 0
M  V30 4731 C 463.593 2.3177 -0.196317 0
M  V30 4732 C 464.587 1.56388 0.651081 0
M  V30 4733 O 465.793 1.71557 0.544815 0
M  V30 4734 H 462.168 0.750669 -0.0447189 0
M  V30 4735 H 464.139 2.8036 -1.02181 0
M  V30 4736 C 462.888 3.41671 0.644702 0
M  V30 4737 H 462.211 3.998 0.0019921 0
M  V30 4738 H 463.651 4.11184 1.0346 0
M  V30 4739 C 462.11 2.84271 1.80808 0
M  V30 4740 O 462.64 2.77408 2.9053 0
M  V30 4741 N 460.846 2.41391 1.61799 0
M  V30 4742 H 460.393 2.47173 0.725493 0
M  V30 4743 H 460.351 2.03334 2.39797 0
M  V30 4744 N 464.123 0.554532 1.47522 0
M  V30 4745 C 465.371 0.0294208 2.02079 0
M  V30 4746 C 465.692 -1.32411 1.43151 0
M  V30 4747 O 464.962 -1.863 0.605728 0
M  V30 4748 H 463.542 0.00788672 0.746958 0
M  V30 4749 H 466.204 0.723934 1.80956 0
M  V30 4750 H 465.3 -0.0606745 3.12041 0
M  V30 4751 N 465.601 -1.54893 0.290851 0
M  V30 4752 C 466.548 -2.23138 -0.58974 0
M  V30 4753 C 467.518 -1.21036 -1.13752 0
M  V30 4754 O 468.703 -1.49626 -1.18392 0
M  V30 4755 C 465.843 -2.96811 -1.76061 0
M  V30 4756 C 464.956 -4.13665 -1.24519 0
M  V30 4757 C 464.091 -4.74944 -2.3791 0
M  V30 4758 C 463.13 -5.83963 -1.83451 0
M  V30 4759 N 462.267 -6.39239 -2.90376 0
M  V30 4760 H 467.107 -2.98 -0.00114915 0
M  V30 4761 H 464.644 -1.47096 0.0112006 0
M  V30 4762 H 466.602 -3.37751 -2.44909 0
M  V30 4763 H 465.232 -2.24344 -2.32098 0
M  V30 4764 H 464.284 -3.77737 -0.449288 0
M  V30 4765 H 465.596 -4.92238 -0.806424 0
M  V30 4766 H 464.75 -5.18684 -3.14724 0
M  V30 4767 H 463.489 -3.95682 -2.85109 0
M  V30 4768 H 462.494 -5.39657 -1.05122 0
M  V30 4769 H 463.719 -6.65103 -1.37169 0
M  V30 4770 H 461.665 -5.62864 -3.36927 0
M  V30 4771 H 461.582 -7.13129 -2.50965 0
M  V30 4772 H 462.85 -6.87637 -3.67118 0
M  V30 4773 N 467.08 -0.0183926 -1.57589 0
M  V30 4774 C 467.99 0.982943 -2.13015 0
M  V30 4775 C 469.006 1.36443 -1.07979 0
M  V30 4776 O 470.182 1.44802 -1.3998 0
M  V30 4777 C 467.247 2.25024 -2.63752 0
M  V30 4778 C 466.308 1.93018 -3.83461 0
M  V30 4779 C 465.541 3.13706 -4.31769 0
M  V30 4780 O 465.764 4.2601 -3.79305 0
M  V30 4781 O 464.698 2.96629 -5.23732 0
M  V30 4782 H 468.524 0.541709 -2.9883 0
M  V30 4783 H 466.109 0.201565 -1.48034 0
M  V30 4784 H 467.991 2.99441 -2.96502 0
M  V30 4785 H 466.666 2.68349 -1.81026 0
M  V30 4786 H 465.573 1.16019 -3.55655 0
M  V30 4787 H 466.906 1.54516 -4.67317 0
M  V30 4788 N 468.558 1.5553 0.254621 0
M  V30 4789 C 469.788 1.80784 1.00004 0
M  V30 4790 C 470.196 0.59071 1.79742 0
M  V30 4791 O 469.539 -0.449988 1.78103 0
M  V30 4792 C 469.601 2.99268 1.99196 0
M  V30 4793 C 469.265 4.35595 1.38224 0
M  V30 4794 C 470.262 5.13884 0.788611 0
M  V30 4795 C 467.947 4.82281 1.40393 0
M  V30 4796 C 469.941 6.37004 0.224783 0
M  V30 4797 C 467.628 6.05351 0.836243 0
M  V30 4798 C 468.626 6.82551 0.24769 0
M  V30 4799 O 468.314 8.03297 -0.311249 0
M  V30 4800 H 468.046 0.60565 0.300274 0
M  V30 4801 H 470.6 2.03411 0.285143 0
M  V30 4802 H 468.83 2.72377 2.74496 0
M  V30 4803 H 470.519 3.11682 2.60018 0
M  V30 4804 H 471.285 4.78938 0.764423 0
M  V30 4805 H 467.164 4.22189 1.85142 0
M  V30 4806 H 470.708 6.97203 -0.235235 0
M  V30 4807 H 466.605 6.39776 0.857733 0
M  V30 4808 H 467.373 8.1825 -0.20237 0
M  V30 4809 N 470.036 -0.519951 1.48776 0
M  V30 4810 C 470.983 -1.62352 1.64044 0
M  V30 4811 C 471.953 -1.58945 0.482251 0
M  V30 4812 O 473.138 -1.77219 0.706971 0
M  V30 4813 C 470.278 -3.00579 1.69547 0
M  V30 4814 C 469.391 -3.14145 2.96541 0
M  V30 4815 C 468.526 -4.42991 2.93142 0
M  V30 4816 C 467.565 -4.50122 4.14797 0
M  V30 4817 N 466.702 -5.7037 4.09418 0
M  V30 4818 H 471.542 -1.48643 2.58281 0
M  V30 4819 H 469.079 -0.723516 1.28077 0
M  V30 4820 H 471.037 -3.80671 1.70719 0
M  V30 4821 H 469.667 -3.13036 0.787918 0
M  V30 4822 H 468.719 -2.27239 3.05068 0
M  V30 4823 H 470.031 -3.15275 3.86527 0
M  V30 4824 H 469.185 -5.31385 2.92772 0
M  V30 4825 H 467.924 -4.44398 2.00902 0
M  V30 4826 H 466.929 -3.60133 4.15433 0
M  V30 4827 H 468.154 -4.50445 5.08208 0
M  V30 4828 H 466.1 -5.72655 3.20004 0
M  V30 4829 H 466.017 -5.73036 4.93119 0
M  V30 4830 H 467.285 -6.61023 4.13121 0
M  V30 4831 N 471.514 -1.37532 -0.769588 0
M  V30 4832 C 472.754 -1.34261 -1.54122 0
M  V30 4833 C 473.118 0.0717222 -1.91866 0
M  V30 4834 O 474.319 0.22918 -2.67821 0
M  V30 4835 C 472.59 -2.2574 -2.77086 0
M  V30 4836 S 474.149 -2.40339 -3.67127 0
M  V30 4837 H 470.967 -0.476595 -0.527615 0
M  V30 4838 H 473.569 -1.73303 -0.90479 0
M  V30 4839 H 472.273 -3.27417 -2.4744 0
M  V30 4840 H 471.804 -1.87789 -3.45686 0
M  V30 4841 H 473.819 -1.61558 -4.69163 0
M  V30 4842 N 472.992 0.995999 -1.22138 0
M  V30 4843 C 473.939 2.08551 -0.988687 0
M  V30 4844 C 474.909 1.65864 0.0885021 0
M  V30 4845 O 476.094 1.90704 -0.0604589 0
M  V30 4846 C 473.234 3.40374 -0.569191 0
M  V30 4847 C 472.347 3.96421 -1.71681 0
M  V30 4848 C 471.482 5.1639 -1.2456 0
M  V30 4849 C 470.521 5.64567 -2.36497 0
M  V30 4850 N 469.658 6.75777 -1.90445 0
M  V30 4851 H 474.498 2.2779 -1.92135 0
M  V30 4852 H 472.035 1.1168 -0.957388 0
M  V30 4853 H 473.993 4.16068 -0.307166 0
M  V30 4854 H 472.623 3.21145 0.326462 0
M  V30 4855 H 471.675 3.17628 -2.09324 0
M  V30 4856 H 472.987 4.2816 -2.55891 0
M  V30 4857 H 472.141 5.99362 -0.940774 0
M  V30 4858 H 470.88 4.86266 -0.373662 0
M  V30 4859 H 469.885 4.80185 -2.67772 0
M  V30 4860 H 471.11 5.96716 -3.24202 0
M  V30 4861 H 469.056 6.47443 -1.05609 0
M  V30 4862 H 468.973 7.06818 -2.68223 0
M  V30 4863 H 470.241 7.62262 -1.63022 0
M  V30 4864 N 474.47 1.03057 1.19235 0
M  V30 4865 C 475.716 0.729098 1.89241 0
M  V30 4866 C 476.049 -0.740573 1.79525 0
M  V30 4867 O 475.324 -1.53946 1.18874 0
M  V30 4868 C 475.607 1.18304 3.40112 0
M  V30 4869 C 475.46 2.71406 3.5869 0
M  V30 4870 C 476.779 0.765161 4.33397 0
M  V30 4871 H 473.898 0.266338 0.687192 0
M  V30 4872 H 476.54 1.28079 1.40341 0
M  V30 4873 H 474.69 0.713672 3.81889 0
M  V30 4874 H 476.362 3.26303 3.26074 0
M  V30 4875 H 474.605 3.11717 3.01687 0
M  V30 4876 H 475.276 2.98225 4.64506 0
M  V30 4877 H 477.752 1.16889 3.99345 0
M  V30 4878 H 476.628 1.11065 5.37546 0
M  V30 4879 H 476.889 -0.332372 4.40849 0
M  V30 4880 N 475.948 -1.35272 0.808662 0
M  V30 4881 C 477.173 -2.03477 0.401475 0
M  V30 4882 C 477.598 -1.60537 -0.980279 0
M  V30 4883 O 476.956 -0.78304 -1.63518 0
M  V30 4884 C 477.004 -3.57181 0.495354 0
M  V30 4885 O 476.108 -4.09474 -0.490397 0
M  V30 4886 H 475.449 -0.642561 0.167366 0
M  V30 4887 H 477.979 -1.72824 1.09512 0
M  V30 4888 H 477.989 -4.06356 0.365912 0
M  V30 4889 H 476.664 -3.87784 1.5032 0
M  V30 4890 H 475.241 -3.71516 -0.321023 0
M  V30 4891 N 477.426 -0.562348 -1.47226 0
M  V30 4892 C 478.374 0.195476 -2.31777 0
M  V30 4893 C 479.368 0.90433 -1.43242 0
M  V30 4894 O 480.574 0.825031 -1.59979 0
M  V30 4895 H 476.949 0.0819095 -0.747526 0
M  V30 4896 H 478.92 -0.536753 -2.93533 0
M  V30 4897 C 477.669 1.20902 -3.26003 0
M  V30 4898 H 476.992 0.672997 -3.94095 0
M  V30 4899 H 478.432 1.71006 -3.87986 0
M  V30 4900 C 476.891 2.25955 -2.49891 0
M  V30 4901 O 477.421 3.32969 -2.2471 0
M  V30 4902 N 475.627 2.00019 -2.1081 0
M  V30 4903 H 475.174 1.13006 -2.31489 0
M  V30 4904 H 475.132 2.70523 -1.60201 0
M  V30 4905 N 478.904 1.54736 -0.299062 0
M  V30 4906 C 479.851 2.23448 0.577899 0
M  V30 4907 C 480.821 1.21637 1.13109 0
M  V30 4908 O 482.006 1.50252 1.17597 0
M  V30 4909 C 479.146 2.9774 1.74484 0
M  V30 4910 C 478.259 4.1432 1.22323 0
M  V30 4911 C 477.394 4.76199 2.35388 0
M  V30 4912 C 476.433 5.84927 1.80351 0
M  V30 4913 N 475.57 6.4077 2.86982 0
M  V30 4914 H 480.41 2.97996 -0.0146545 0
M  V30 4915 H 477.947 1.47088 -0.0190013 0
M  V30 4916 H 479.905 3.39045 2.43114 0
M  V30 4917 H 478.535 2.25572 2.30905 0
M  V30 4918 H 477.587 3.7797 0.429249 0
M  V30 4919 H 478.899 4.92659 0.780309 0
M  V30 4920 H 478.053 5.20346 3.11969 0
M  V30 4921 H 476.792 3.97188 2.83006 0
M  V30 4922 H 475.797 5.40207 1.02259 0
M  V30 4923 H 477.022 6.65821 1.3364 0
M  V30 4924 H 474.968 5.64643 3.33938 0
M  V30 4925 H 474.885 7.1445 2.4718 0
M  V30 4926 H 476.153 6.89574 3.63466 0
M  V30 4927 N 480.382 0.0267497 1.57577 0
M  V30 4928 C 481.345 -0.940916 2.08996 0
M  V30 4929 C 482.345 -1.25561 1.00455 0
M  V30 4930 O 483.535 -1.19634 1.26623 0
M  V30 4931 C 480.667 -2.25814 2.55384 0
M  V30 4932 H 481.86 -0.495628 2.95776 0
M  V30 4933 H 479.413 -0.221241 1.54726 0
M  V30 4934 H 480.148 -2.74976 1.71926 0
M  V30 4935 H 479.933 -2.04285 3.34679 0
M  V30 4936 H 481.423 -2.95178 2.95398 0
M  V30 4937 N 481.861 -1.55662 -0.24637 0
M  V30 4938 C 482.791 -1.93377 -1.30873 0
M  V30 4939 C 483.772 -0.798773 -1.50179 0
M  V30 4940 O 484.957 -1.0591 -1.62778 0
M  V30 4941 C 482.087 -2.22893 -2.66338 0
M  V30 4942 C 481.041 -3.38649 -2.61727 0
M  V30 4943 C 480.367 -3.53708 -4.00992 0
M  V30 4944 C 481.667 -4.74323 -2.18666 0
M  V30 4945 H 483.361 -2.82363 -0.995552 0
M  V30 4946 H 480.907 -1.35854 -0.477464 0
M  V30 4947 H 482.86 -2.47866 -3.40794 0
M  V30 4948 H 481.584 -1.30733 -2.99293 0
M  V30 4949 H 480.243 -3.13685 -1.89729 0
M  V30 4950 H 479.891 -2.58967 -4.31214 0
M  V30 4951 H 479.591 -4.31551 -3.98795 0
M  V30 4952 H 481.115 -3.81003 -4.77147 0
M  V30 4953 H 482.529 -4.98665 -2.82854 0
M  V30 4954 H 480.926 -5.55273 -2.27579 0
M  V30 4955 H 481.996 -4.71349 -1.13834 0
M  V30 4956 N 483.339 0.512053 -1.4905 0
M  V30 4957 C 484.75 1.09376 -1.51307 0
M  V30 4958 C 485.101 1.94 -0.292971 0
M  V30 4959 O 484.226 2.07965 0.598277 0
M  V30 4960 C 484.821 1.99031 -2.74176 0
M  V30 4961 C 483.38 2.52385 -2.79247 0
M  V30 4962 C 482.527 1.29749 -2.45073 0
M  V30 4963 H 485.478 0.296467 -1.55906 0
M  V30 4964 H 485.499 2.83569 -2.53711 0
M  V30 4965 H 485.011 1.37412 -3.62959 0
M  V30 4966 H 483.112 3.17673 -1.94716 0
M  V30 4967 H 483.225 2.90293 -3.81139 0
M  V30 4968 H 481.589 1.61912 -1.96612 0
M  V30 4969 H 482.372 0.698555 -3.36118 0
M  V30 4970 N 484.817 1.37938 0.762283 0
M  V30 4971 C 485.78 1.34279 1.85747 0
M  V30 4972 C 486.78 0.244969 1.58923 0
M  V30 4973 O 487.97 0.501365 1.66829 0
M  V30 4974 C 485.102 1.08833 3.23061 0
M  V30 4975 H 486.295 2.31705 1.90401 0
M  V30 4976 H 483.848 1.23105 0.963057 0
M  V30 4977 H 484.583 0.119767 3.24079 0
M  V30 4978 H 484.368 1.88306 3.43923 0
M  V30 4979 H 485.858 1.08946 4.03138 0
M  V30 4980 N 486.295 -0.989507 1.22664 0
M  V30 4981 C 487.706 -1.54406 1.04955 0
M  V30 4982 C 488.057 -1.92366 -0.385951 0
M  V30 4983 O 487.182 -1.75111 -1.27142 0
M  V30 4984 C 487.777 -2.80578 1.89899 0
M  V30 4985 C 486.336 -3.32464 1.76478 0
M  V30 4986 C 485.483 -2.05524 1.86159 0
M  V30 4987 H 488.434 -0.810211 1.3646 0
M  V30 4988 H 488.455 -3.53075 1.4184 0
M  V30 4989 H 487.967 -2.52918 2.94371 0
M  V30 4990 H 486.068 -3.65024 0.747528 0
M  V30 4991 H 486.181 -4.02838 2.59342 0
M  V30 4992 H 484.545 -2.19241 1.29636 0
M  V30 4993 H 485.328 -1.80258 2.92168 0
M  V30 4994 N 487.773 -1.03688 -1.18687 0
M  V30 4995 C 489.022 -0.733235 -1.879 0
M  V30 4996 C 489.335 0.741745 -1.8099 0
M  V30 4997 O 490.541 1.15875 -2.4553 0
M  V30 4998 C 488.997 -1.26127 -3.37076 0
M  V30 4999 C 488.605 -2.76461 -3.52524 0
M  V30 5000 C 490.349 -1.03398 -4.11715 0
M  V30 5001 C 488.256 -3.22642 -4.95637 0
M  V30 5002 H 487.186 -0.270584 -0.703776 0
M  V30 5003 H 489.837 -1.25222 -1.34133 0
M  V30 5004 H 488.219 -0.670165 -3.90288 0
M  V30 5005 H 489.393 -3.41296 -3.09602 0
M  V30 5006 H 487.708 -2.97559 -2.91286 0
M  V30 5007 H 490.305 -1.3542 -5.17267 0
M  V30 5008 H 490.648 0.0289246 -4.1629 0
M  V30 5009 H 491.181 -1.5895 -3.64664 0
M  V30 5010 H 487.92 -4.28296 -4.96228 0
M  V30 5011 H 487.44 -2.62539 -5.39289 0
M  V30 5012 H 489.119 -3.16444 -5.64333 0
M  V30 5013 N 489.251 1.34841 -0.815825 0
M  V30 5014 C 490.161 2.33425 -0.234462 0
M  V30 5015 C 491.177 1.62295 0.627413 0
M  V30 5016 O 492.353 1.94109 0.536987 0
M  V30 5017 C 489.418 3.41471 0.599849 0
M  V30 5018 C 488.479 4.28362 -0.283596 0
M  V30 5019 C 487.712 5.31248 0.51099 0
M  V30 5020 O 487.935 5.43056 1.7449 0
M  V30 5021 O 486.869 6.01812 -0.10297 0
M  V30 5022 H 490.695 2.84962 -1.05024 0
M  V30 5023 H 488.28 1.37774 -0.577809 0
M  V30 5024 H 490.162 4.07464 1.07475 0
M  V30 5025 H 488.837 2.9219 1.39308 0
M  V30 5026 H 487.744 3.65318 -0.805836 0
M  V30 5027 H 489.077 4.81066 -1.041 0
M  V30 5028 N 490.729 0.570148 1.46925 0
M  V30 5029 C 491.676 -0.170257 2.30171 0
M  V30 5030 C 492.646 -0.896099 1.39855 0
M  V30 5031 O 493.831 -0.889248 1.68811 0
M  V30 5032 C 490.971 -1.18605 3.24079 0
M  V30 5033 C 490.084 -0.464947 4.29491 0
M  V30 5034 C 489.219 -1.46716 5.10537 0
M  V30 5035 C 488.258 -0.731758 6.0771 0
M  V30 5036 N 487.395 -1.68142 6.81669 0
M  V30 5037 H 492.235 0.545713 2.92961 0
M  V30 5038 H 489.772 0.280938 1.44392 0
M  V30 5039 H 491.73 -1.78771 3.76957 0
M  V30 5040 H 490.36 -1.86989 2.63125 0
M  V30 5041 H 489.412 0.251506 3.79568 0
M  V30 5042 H 490.724 0.110548 4.98677 0
M  V30 5043 H 489.878 -2.14199 5.6763 0
M  V30 5044 H 488.617 -2.07658 4.41282 0
M  V30 5045 H 487.622 -0.0430787 5.49783 0
M  V30 5046 H 488.847 -0.127904 6.7898 0
M  V30 5047 H 486.793 -2.27918 6.15134 0
M  V30 5048 H 486.71 -1.15841 7.47072 0
M  V30 5049 H 487.978 -2.347 7.43328 0
M  V30 5050 N 492.207 -1.54576 0.307264 0
M  V30 5051 C 493.435 -2.04675 -0.302597 0
M  V30 5052 C 493.85 -1.18425 -1.47041 0
M  V30 5053 O 493.207 -0.211257 -1.81273 0
M  V30 5054 C 493.258 -3.53575 -0.752801 0
M  V30 5055 O 492.979 -4.36547 0.368536 0
M  V30 5056 C 494.48 -4.19699 -1.42717 0
M  V30 5057 H 491.7 -0.66786 -0.0648374 0
M  V30 5058 H 494.244 -1.99516 0.448716 0
M  V30 5059 H 492.399 -3.59074 -1.45412 0
M  V30 5060 H 492.813 -5.24497 0.0168937 0
M  V30 5061 H 494.287 -5.25388 -1.69327 0
M  V30 5062 H 494.764 -3.69815 -2.36925 0
M  V30 5063 H 495.37 -4.18293 -0.768856 0
M  V30 5064 N 493.685 -0.035106 -1.57561 0
M  V30 5065 C 494.934 0.641604 -1.91223 0
M  V30 5066 C 495.247 1.72944 -0.913761 0
M  V30 5067 O 496.453 2.46321 -1.14185 0
M  V30 5068 C 494.909 1.19249 -3.3957 0
M  V30 5069 C 494.517 0.137616 -4.47789 0
M  V30 5070 C 496.261 1.84537 -3.82291 0
M  V30 5071 C 494.168 0.700478 -5.87237 0
M  V30 5072 H 493.098 0.243417 -0.713627 0
M  V30 5073 H 495.749 -0.101382 -1.8322 0
M  V30 5074 H 494.131 1.98728 -3.42525 0
M  V30 5075 H 495.305 -0.635153 -4.56402 0
M  V30 5076 H 493.62 -0.416855 -4.14308 0
M  V30 5077 H 496.217 2.27616 -4.83834 0
M  V30 5078 H 496.56 2.69054 -3.17672 0
M  V30 5079 H 497.093 1.11739 -3.81784 0
M  V30 5080 H 493.832 -0.106693 -6.55413 0
M  V30 5081 H 493.352 1.4416 -5.82218 0
M  V30 5082 H 495.031 1.18837 -6.35993 0
M  V30 5083 N 495.163 1.55791 0.238111 0
M  V30 5084 C 496.388 1.8244 0.986432 0
M  V30 5085 C 496.813 0.613314 1.7782 0
M  V30 5086 O 496.171 -0.437767 1.75935 0
M  V30 5087 C 496.219 3.06917 1.893 0
M  V30 5088 O 495.323 2.84449 2.98601 0
M  V30 5089 H 494.664 0.601975 0.280218 0
M  V30 5090 H 497.194 2.02987 0.256437 0
M  V30 5091 H 497.204 3.36583 2.30598 0
M  V30 5092 H 495.879 3.947 1.31091 0
M  V30 5093 H 494.456 2.65972 2.61368 0
M  V30 5094 N 496.642 -0.504142 1.49319 0
M  V30 5095 C 497.589 -1.60603 1.65756 0
M  V30 5096 C 498.559 -1.58425 0.499082 0
M  V30 5097 O 499.744 -1.76459 0.725728 0
M  V30 5098 C 496.884 -2.98764 1.72726 0
M  V30 5099 C 495.997 -3.10982 2.99857 0
M  V30 5100 C 495.132 -4.39857 2.97824 0
M  V30 5101 C 494.171 -4.45697 4.19548 0
M  V30 5102 N 493.308 -5.65995 4.15444 0
M  V30 5103 H 498.148 -1.45895 2.59843 0
M  V30 5104 H 495.685 -0.709891 1.28837 0
M  V30 5105 H 497.643 -3.78839 1.74747 0
M  V30 5106 H 496.273 -3.12183 0.821075 0
M  V30 5107 H 495.325 -2.23991 3.07461 0
M  V30 5108 H 496.637 -3.11157 3.89849 0
M  V30 5109 H 495.791 -5.2825 2.98391 0
M  V30 5110 H 494.53 -4.42242 2.05604 0
M  V30 5111 H 493.535 -3.55707 4.19229 0
M  V30 5112 H 494.76 -4.4503 5.12957 0
M  V30 5113 H 492.706 -5.69229 3.26059 0
M  V30 5114 H 492.623 -5.67773 4.99169 0
M  V30 5115 H 493.891 -6.56604 4.20109 0
M  V30 5116 N 498.12 -1.38341 -0.754957 0
M  V30 5117 C 499.083 -1.35262 -1.85032 0
M  V30 5118 C 500.083 -0.253393 -1.58791 0
M  V30 5119 O 501.273 -0.510205 -1.66561 0
M  V30 5120 C 498.405 -1.10544 -3.22479 0
M  V30 5121 H 499.598 -2.32712 -1.8917 0
M  V30 5122 H 497.151 -1.23614 -0.956515 0
M  V30 5123 H 497.886 -0.136952 -3.24011 0
M  V30 5124 H 497.671 -1.90127 -3.4292 0
M  V30 5125 H 499.161 -1.11082 -4.02555 0
M  V30 5126 N 499.598 0.982988 -1.23187 0
M  V30 5127 C 500.545 2.07491 -1.01075 0
M  V30 5128 C 501.515 1.65949 0.070905 0
M  V30 5129 O 502.7 1.90629 -0.0806822 0
M  V30 5130 C 499.84 3.39751 -0.605261 0
M  V30 5131 C 498.953 3.94578 -1.75876 0
M  V30 5132 C 498.088 5.15039 -1.3003 0
M  V30 5133 C 497.127 5.62027 -2.42472 0
M  V30 5134 N 496.264 6.73719 -1.97602 0
M  V30 5135 H 501.104 2.25739 -1.9454 0
M  V30 5136 H 498.641 1.10659 -0.969179 0
M  V30 5137 H 500.599 4.15719 -0.351279 0
M  V30 5138 H 499.229 3.21473 0.292382 0
M  V30 5139 H 498.281 3.1539 -2.12681 0
M  V30 5140 H 499.593 4.25422 -2.60418 0
M  V30 5141 H 498.747 5.9833 -1.00429 0
M  V30 5142 H 497.486 4.85843 -0.425216 0
M  V30 5143 H 496.491 4.77318 -2.7285 0
M  V30 5144 H 497.716 5.93244 -3.30512 0
M  V30 5145 H 495.662 6.46287 -1.1247 0
M  V30 5146 H 495.579 7.03934 -2.75705 0
M  V30 5147 H 496.847 7.6049 -1.71098 0
M  V30 5148 N 501.076 1.04316 1.18135 0
M  V30 5149 C 502.324 0.746542 1.87806 0
M  V30 5150 C 502.645 -0.728082 1.80898 0
M  V30 5151 O 501.915 -1.52554 1.22899 0
M  V30 5152 H 500.495 0.273157 0.695265 0
M  V30 5153 H 503.157 1.32044 1.43354 0
M  V30 5154 H 502.253 1.05362 2.93778 0
M  V30 5155 N 502.554 -1.34406 0.822964 0
M  V30 5156 C 503.486 -2.28305 0.202375 0
M  V30 5157 C 504.499 -1.5103 -0.60777 0
M  V30 5158 O 505.688 -1.73057 -0.437444 0
M  V30 5159 C 502.788 -3.30836 -0.734911 0
M  V30 5160 C 501.961 -4.37388 0.0324177 0
M  V30 5161 C 501.02 -5.1968 -0.825803 0
M  V30 5162 O 500.046 -5.68556 -0.270771 0
M  V30 5163 N 501.248 -5.39393 -2.14558 0
M  V30 5164 H 504.013 -2.82201 1.00909 0
M  V30 5165 H 501.574 -1.4693 0.67993 0
M  V30 5166 H 503.566 -3.82786 -1.31365 0
M  V30 5167 H 502.136 -2.77334 -1.44238 0
M  V30 5168 H 501.356 -3.86152 0.792469 0
M  V30 5169 H 502.644 -5.05702 0.560633 0
M  V30 5170 H 502.042 -5.01357 -2.62025 0
M  V30 5171 H 500.599 -5.94461 -2.67318 0
M  V30 5172 N 504.032 -0.577932 -1.46621 0
M  V30 5173 C 505.443 -0.150071 -1.86096 0
M  V30 5174 C 505.794 1.28563 -1.48209 0
M  V30 5175 O 504.919 1.97036 -0.894754 0
M  V30 5176 C 505.514 -0.265576 -3.37758 0
M  V30 5177 C 504.073 0.10738 -3.76247 0
M  V30 5178 C 503.22 -0.603711 -2.70649 0
M  V30 5179 H 506.171 -0.786438 -1.37844 0
M  V30 5180 H 506.192 0.510352 -3.77062 0
M  V30 5181 H 505.704 -1.3106 -3.65301 0
M  V30 5182 H 503.805 1.15272 -3.54321 0
M  V30 5183 H 503.918 -0.26561 -4.78363 0
M  V30 5184 H 502.282 -0.0444884 -2.54661 0
M  V30 5185 H 503.065 -1.65029 -3.01032 0
M  V30 5186 N 505.51 1.54411 -0.315457 0
M  V30 5187 C 506.926 1.59556 0.037464 0
M  V30 5188 C 507.126 1.33217 1.5118 0
M  V30 5189 O 506.182 1.11264 2.26664 0
M  V30 5190 C 507.495 2.98372 -0.373477 0
M  V30 5191 C 509.043 3.11324 -0.323452 0
M  V30 5192 C 509.518 4.52472 -0.709433 0
M  V30 5193 N 511.009 4.58437 -0.662524 0
M  V30 5194 C 511.744 5.65751 -0.933474 0
M  V30 5195 N 511.24 6.81039 -1.27114 0
M  V30 5196 N 513.033 5.55489 -0.859573 0
M  V30 5197 H 505.184 1.6979 -1.27614 0
M  V30 5198 H 507.447 0.793732 -0.518356 0
M  V30 5199 H 507.153 3.22618 -1.40037 0
M  V30 5200 H 507.027 3.76264 0.265615 0
M  V30 5201 H 509.414 2.86818 0.694223 0
M  V30 5202 H 509.495 2.35555 -0.997367 0
M  V30 5203 H 509.139 4.7771 -1.72498 0
M  V30 5204 H 509.069 5.26598 -0.0132923 0
M  V30 5205 H 511.56 3.75636 -0.413065 0
M  V30 5206 H 511.873 7.58816 -1.46348 0
M  V30 5207 H 510.218 6.82555 -1.30932 0
M  V30 5208 H 513.409 4.64299 -0.595324 0
M  V30 5209 H 513.582 6.39036 -1.0741 0
M  V30 5210 N 506.988 0.0434614 1.5754 0
M  V30 5211 C 507.898 -0.94893 2.14552 0
M  V30 5212 C 508.914 -1.34707 1.10136 0
M  V30 5213 O 510.09 -1.42557 1.42266 0
M  V30 5214 C 507.155 -2.208 2.67298 0
M  V30 5215 C 506.216 -1.86893 3.86484 0
M  V30 5216 C 505.449 -3.06797 4.36705 0
M  V30 5217 O 505.672 -4.19921 3.86034 0
M  V30 5218 O 504.606 -2.8826 5.28384 0
M  V30 5219 H 508.432 -0.494099 2.99654 0
M  V30 5220 H 506.017 -0.177989 1.48336 0
M  V30 5221 H 507.899 -2.94686 3.01228 0
M  V30 5222 H 506.574 -2.65436 1.85272 0
M  V30 5223 H 505.481 -1.10347 3.57455 0
M  V30 5224 H 506.814 -1.47062 4.69716 0
M  V30 5225 N 508.466 -1.55915 -0.229846 0
M  V30 5226 C 509.877 -1.68809 -0.797531 0
M  V30 5227 C 510.228 -0.643995 -1.8533 0
M  V30 5228 O 509.353 0.206492 -2.15413 0
M  V30 5229 C 509.948 -3.06043 -1.45338 0
M  V30 5230 C 508.507 -3.20819 -1.96856 0
M  V30 5231 C 507.654 -2.6472 -0.825736 0
M  V30 5232 H 510.605 -1.58699 -0.00533733 0
M  V30 5233 H 510.626 -3.01438 -2.32196 0
M  V30 5234 H 510.138 -3.82012 -0.684743 0
M  V30 5235 H 508.239 -2.49704 -2.76548 0
M  V30 5236 H 508.352 -4.27937 -2.15423 0
M  V30 5237 H 506.716 -2.22985 -1.23084 0
M  V30 5238 H 507.499 -3.43229 -0.0699019 0
M  V30 5239 N 509.944 0.496216 -1.49584 0
M  V30 5240 C 510.876 1.61404 -1.62731 0
M  V30 5241 C 511.889 1.54613 -0.50978 0
M  V30 5242 O 513.078 1.60458 -0.782017 0
M  V30 5243 C 510.178 3.00212 -1.57245 0
M  V30 5244 C 509.351 3.32138 -2.84611 0
M  V30 5245 C 508.41 4.5038 -2.72112 0
M  V30 5246 O 507.436 4.51926 -3.46051 0
M  V30 5247 N 508.638 5.50575 -1.83977 0
M  V30 5248 H 511.403 1.50552 -2.59141 0
M  V30 5249 H 508.964 0.684182 -1.46733 0
M  V30 5250 H 510.956 3.77241 -1.4653 0
M  V30 5251 H 509.526 3.04964 -0.686729 0
M  V30 5252 H 508.746 2.4396 -3.09641 0
M  V30 5253 H 510.034 3.50268 -3.69039 0
M  V30 5254 H 509.432 5.52128 -1.23171 0
M  V30 5255 H 507.989 6.26687 -1.79182 0
M  V30 5256 N 511.423 1.38739 0.74761 0
M  V30 5257 C 512.669 1.35475 1.50912 0
M  V30 5258 C 513.002 -0.0533093 1.94127 0
M  V30 5259 O 512.277 -1.01572 1.65871 0
M  V30 5260 C 512.56 2.31582 2.75757 0
M  V30 5261 C 512.413 3.81274 2.38642 0
M  V30 5262 C 513.732 2.25722 3.77806 0
M  V30 5263 H 510.851 0.493427 0.547447 0
M  V30 5264 H 513.493 1.69634 0.855823 0
M  V30 5265 H 511.643 2.02582 3.31501 0
M  V30 5266 H 513.315 4.20972 1.88626 0
M  V30 5267 H 511.558 3.98664 1.71025 0
M  V30 5268 H 512.229 4.4399 3.27989 0
M  V30 5269 H 514.705 2.51336 3.31616 0
M  V30 5270 H 513.581 2.95069 4.62845 0
M  V30 5271 H 513.842 1.25803 4.23823 0
M  V30 5272 N 512.901 -0.976442 1.23707 0
M  V30 5273 C 514.131 -1.75087 1.09673 0
M  V30 5274 C 514.539 -1.85852 -0.354344 0
M  V30 5275 O 513.882 -1.33985 -1.25673 0
M  V30 5276 C 513.944 -3.19272 1.65245 0
M  V30 5277 C 513.608 -3.32004 3.14042 0
M  V30 5278 C 514.605 -3.18017 4.11292 0
M  V30 5279 C 512.29 -3.56525 3.53829 0
M  V30 5280 C 514.284 -3.28363 5.46312 0
M  V30 5281 C 511.971 -3.6651 4.88993 0
M  V30 5282 C 512.969 -3.52439 5.85043 0
M  V30 5283 O 512.657 -3.62063 7.1775 0
M  V30 5284 H 512.389 -0.556164 0.384262 0
M  V30 5285 H 514.943 -1.23518 1.64111 0
M  V30 5286 H 513.173 -3.72107 1.05231 0
M  V30 5287 H 514.862 -3.7849 1.46629 0
M  V30 5288 H 515.628 -2.98966 3.81896 0
M  V30 5289 H 511.507 -3.66547 2.79579 0
M  V30 5290 H 515.051 -3.17297 6.21263 0
M  V30 5291 H 510.948 -3.85072 5.18063 0
M  V30 5292 H 511.716 -3.78833 7.25553 0
M  V30 5293 N 514.379 -1.04941 -1.1758 0
M  V30 5294 C 515.607 -0.778294 -1.91703 0
M  V30 5295 C 516.022 0.665697 -1.76675 0
M  V30 5296 O 515.379 1.45456 -1.10222 0
M  V30 5297 C 515.43 -1.14628 -3.42845 0
M  V30 5298 O 515.151 -2.53359 -3.57409 0
M  V30 5299 C 516.652 -0.900931 -4.34049 0
M  V30 5300 H 513.872 -0.283167 -0.608323 0
M  V30 5301 H 516.416 -1.39942 -1.49119 0
M  V30 5302 H 514.571 -0.569953 -3.83184 0
M  V30 5303 H 514.985 -2.67709 -4.51035 0
M  V30 5304 H 516.459 -1.20817 -5.38616 0
M  V30 5305 H 516.936 0.163966 -4.38894 0
M  V30 5306 H 517.542 -1.46097 -3.99419 0
M  V30 5307 N 515.857 1.33968 -0.830081 0
M  V30 5308 C 516.787 2.31911 -0.271911 0
M  V30 5309 C 517.768 1.58571 0.61556 0
M  V30 5310 O 518.953 1.86514 0.540946 0
M  V30 5311 C 516.083 3.42737 0.561146 0
M  V30 5312 C 515.037 4.27383 -0.229789 0
M  V30 5313 C 514.363 5.29742 0.726463 0
M  V30 5314 C 515.663 5.02 -1.44197 0
M  V30 5315 H 517.357 2.78844 -1.09025 0
M  V30 5316 H 514.903 1.34061 -0.52571 0
M  V30 5317 H 516.856 4.10276 0.961867 0
M  V30 5318 H 515.58 2.94471 1.41261 0
M  V30 5319 H 514.239 3.61456 -0.611964 0
M  V30 5320 H 513.887 4.77736 1.57408 0
M  V30 5321 H 513.587 5.87255 0.20142 0
M  V30 5322 H 515.111 6.00149 1.12489 0
M  V30 5323 H 516.525 5.62355 -1.11488 0
M  V30 5324 H 514.922 5.69122 -1.90317 0
M  V30 5325 H 515.992 4.31281 -2.2164 0
M  V30 5326 N 517.335 0.585699 1.46312 0
M  V30 5327 C 518.746 0.159938 1.86014 0
M  V30 5328 C 519.097 -1.27775 1.48889 0
M  V30 5329 O 518.222 -1.96559 0.90519 0
M  V30 5330 C 518.817 0.283485 3.37612 0
M  V30 5331 C 517.376 -0.0874256 3.76298 0
M  V30 5332 C 516.523 0.618055 2.70325 0
M  V30 5333 H 519.474 0.793737 1.37425 0
M  V30 5334 H 519.495 -0.490348 3.77327 0
M  V30 5335 H 519.007 1.32995 3.64601 0
M  V30 5336 H 517.108 -1.13391 3.54927 0
M  V30 5337 H 517.221 0.290975 4.78216 0
M  V30 5338 H 515.585 0.057993 2.54634 0
M  V30 5339 H 516.368 1.66623 3.00153 0
M  V30 5340 N 518.813 -1.54241 0.323641 0
M  V30 5341 C 520.224 -1.85975 -0.164405 0
M  V30 5342 C 520.575 -1.24529 -1.51615 0
M  V30 5343 O 519.7 -0.551351 -2.09258 0
M  V30 5344 C 520.295 -3.37424 -0.305091 0
M  V30 5345 C 518.854 -3.69107 -0.737358 0
M  V30 5346 C 518.001 -2.76942 0.140884 0
M  V30 5347 H 520.952 -1.49088 0.543922 0
M  V30 5348 H 520.973 -3.63147 -1.13598 0
M  V30 5349 H 520.485 -3.82116 0.678876 0
M  V30 5350 H 518.586 -3.29947 -1.73107 0
M  V30 5351 H 518.699 -4.76035 -0.541053 0
M  V30 5352 H 517.063 -2.51795 -0.383572 0
M  V30 5353 H 517.846 -3.24461 1.12162 0
M  V30 5354 N 520.291 -0.0518155 -1.57515 0
M  V30 5355 C 521.516 0.634896 -1.97443 0
M  V30 5356 C 521.941 1.63546 -0.929207 0
M  V30 5357 O 521.299 1.80981 0.107484 0
M  V30 5358 C 521.347 1.29765 -3.36442 0
M  V30 5359 O 520.451 2.41333 -3.34413 0
M  V30 5360 H 519.792 0.164994 -0.643174 0
M  V30 5361 H 522.322 -0.120407 -2.04245 0
M  V30 5362 H 522.332 1.64918 -3.73184 0
M  V30 5363 H 521.007 0.564361 -4.12053 0
M  V30 5364 H 519.584 2.08122 -3.09418 0
M  V30 5365 N 521.769 1.56035 0.221574 0
M  V30 5366 C 523.185 1.49026 0.571271 0
M  V30 5367 C 523.385 0.746912 1.87146 0
M  V30 5368 O 522.441 0.286566 2.50869 0
M  V30 5369 C 523.754 2.93579 0.650522 0
M  V30 5370 C 525.302 3.04099 0.741151 0
M  V30 5371 C 525.777 4.5001 0.851747 0
M  V30 5372 N 527.268 4.54053 0.915968 0
M  V30 5373 C 528.003 5.64232 1.02125 0
M  V30 5374 N 527.499 6.84164 1.09049 0
M  V30 5375 N 529.292 5.52084 1.05639 0
M  V30 5376 H 521.443 2.02791 -0.63162 0
M  V30 5377 H 523.706 0.921736 -0.221602 0
M  V30 5378 H 523.412 3.50912 -0.235253 0
M  V30 5379 H 523.286 3.45476 1.51413 0
M  V30 5380 H 525.673 2.4683 1.61737 0
M  V30 5381 H 525.754 2.55371 -0.148128 0
M  V30 5382 H 525.398 5.07896 -0.0200117 0
M  V30 5383 H 525.328 4.96444 1.75644 0
M  V30 5384 H 527.819 3.67683 0.872782 0
M  V30 5385 H 528.132 7.63883 1.1706 0
M  V30 5386 H 526.477 6.86875 1.05962 0
M  V30 5387 H 529.668 4.57317 0.998953 0
M  V30 5388 H 529.841 6.37983 1.13498 0
M  V30 5389 N 523.247 -0.488276 1.49845 0
M  V30 5390 C 524.524 -1.24959 1.50481 0
M  V30 5391 C 524.904 -2.09735 0.239698 0
M  V30 5392 O 524.252 -2.14865 -0.777524 0
M  V30 5393 C 524.462 -2.0954 2.79095 0
M  V30 5394 C 525.81 -2.68305 3.29086 0
M  V30 5395 O 526.834 -2.19797 2.80299 0
M  V30 5396 O 525.693 -3.56643 4.14087 0
M  V30 5397 H 522.787 -0.566133 0.602845 0
M  V30 5398 H 525.333 -0.501504 1.6212 0
M  V30 5399 H 524.105 -1.46958 3.62656 0
M  V30 5400 H 523.728 -2.91517 2.70377 0
M  V30 5401 N 524.725 -1.39134 -0.740242 0
M  V30 5402 C 525.635 -1.39697 -1.88473 0
M  V30 5403 C 526.651 -0.292403 -1.71526 0
M  V30 5404 O 527.827 -0.533021 -1.94219 0
M  V30 5405 C 524.892 -1.23382 -3.24003 0
M  V30 5406 C 523.953 -2.43763 -3.53381 0
M  V30 5407 C 523.186 -2.28216 -4.82445 0
M  V30 5408 O 523.409 -1.28288 -5.55786 0
M  V30 5409 O 522.343 -3.1709 -5.11603 0
M  V30 5410 H 526.169 -2.36159 -1.90952 0
M  V30 5411 H 523.754 -1.20194 -0.887346 0
M  V30 5412 H 525.636 -1.16395 -4.05006 0
M  V30 5413 H 524.311 -0.300121 -3.22306 0
M  V30 5414 H 523.218 -2.56325 -2.72485 0
M  V30 5415 H 524.551 -3.35808 -3.59852 0
M  V30 5416 N 526.204 0.969867 -1.24223 0
M  V30 5417 C 527.134 2.08191 -1.05729 0
M  V30 5418 C 528.115 1.70075 0.0290765 0
M  V30 5419 O 529.3 1.93712 -0.137583 0
M  V30 5420 C 526.43 3.40991 -0.658995 0
M  V30 5421 C 525.384 3.93054 -1.69389 0
M  V30 5422 C 524.71 5.22171 -1.15072 0
M  V30 5423 C 526.01 4.21137 -3.08935 0
M  V30 5424 H 527.704 2.23921 -1.98746 0
M  V30 5425 H 525.25 1.07602 -0.956967 0
M  V30 5426 H 527.203 4.18221 -0.51662 0
M  V30 5427 H 525.927 3.25155 0.30686 0
M  V30 5428 H 524.586 3.17977 -1.82444 0
M  V30 5429 H 524.234 5.02694 -0.175539 0
M  V30 5430 H 523.934 5.57973 -1.84229 0
M  V30 5431 H 525.458 6.02013 -1.02042 0
M  V30 5432 H 526.872 4.8908 -2.99121 0
M  V30 5433 H 525.269 4.68163 -3.75425 0
M  V30 5434 H 526.339 3.27996 -3.57137 0
M  V30 5435 N 527.682 1.05563 1.17022 0
M  V30 5436 C 528.91 0.78845 1.91288 0
M  V30 5437 C 529.325 -0.656318 1.77025 0
M  V30 5438 O 528.682 -1.44869 1.10992 0
M  V30 5439 C 528.733 1.16444 3.42232 0
M  V30 5440 O 528.454 2.5525 3.5606 0
M  V30 5441 C 529.955 0.923937 4.33565 0
M  V30 5442 H 527.175 0.286389 0.606813 0
M  V30 5443 H 529.719 1.4073 1.48375 0
M  V30 5444 H 527.874 0.590266 3.82877 0
M  V30 5445 H 528.288 2.70097 4.49609 0
M  V30 5446 H 529.762 1.23672 5.37968 0
M  V30 5447 H 530.239 -0.140688 4.38975 0
M  V30 5448 H 530.845 1.48214 3.98639 0
M  V30 5449 N 529.16 -1.33526 0.837174 0
M  V30 5450 C 530.107 -2.29248 0.267169 0
M  V30 5451 C 531.077 -1.54252 -0.616071 0
M  V30 5452 O 532.262 -1.82559 -0.554699 0
M  V30 5453 C 529.402 -3.40638 -0.553152 0
M  V30 5454 C 528.515 -4.30548 0.353921 0
M  V30 5455 C 527.65 -5.29051 -0.477339 0
M  V30 5456 C 526.689 -6.106 0.42823 0
M  V30 5457 N 525.826 -7.01152 -0.364801 0
M  V30 5458 H 530.666 -2.77398 1.08877 0
M  V30 5459 H 528.203 -1.36496 0.54838 0
M  V30 5460 H 530.161 -4.03921 -1.04422 0
M  V30 5461 H 528.791 -2.93685 -1.33973 0
M  V30 5462 H 527.843 -3.68001 0.963289 0
M  V30 5463 H 529.155 -4.87631 1.04964 0
M  V30 5464 H 528.309 -5.97853 -1.0323 0
M  V30 5465 H 527.048 -4.72541 -1.2065 0
M  V30 5466 H 526.053 -5.40718 0.995219 0
M  V30 5467 H 527.278 -6.69193 1.15573 0
M  V30 5468 H 525.224 -6.47092 -1.07738 0
M  V30 5469 H 525.141 -7.5551 0.272238 0
M  V30 5470 H 526.409 -7.74263 -0.902054 0
M  V30 5471 N 530.638 -0.59345 -1.46 0
M  V30 5472 C 531.586 0.146268 -2.3214 0
M  V30 5473 C 532.58 0.873743 -1.45128 0
M  V30 5474 O 533.786 0.790912 -1.61693 0
M  V30 5475 H 530.161 0.0660349 -0.749095 0
M  V30 5476 H 532.132 -0.598895 -2.92328 0
M  V30 5477 C 530.881 1.1396 -3.28494 0
M  V30 5478 H 530.204 0.589252 -3.95434 0
M  V30 5479 H 531.644 1.62738 -3.91526 0
M  V30 5480 C 530.103 2.20604 -2.54628 0
M  V30 5481 O 530.633 3.28128 -2.31722 0
M  V30 5482 N 528.839 1.95502 -2.15005 0
M  V30 5483 H 528.386 1.0807 -2.33834 0
M  V30 5484 H 528.344 2.67064 -1.65904 0
M  V30 5485 N 532.116 1.54067 -0.331816 0
M  V30 5486 C 533.048 2.22139 0.564538 0
M  V30 5487 C 534.061 1.22408 1.07332 0
M  V30 5488 O 535.25 1.4883 0.985481 0
M  V30 5489 C 532.35 2.87876 1.78831 0
M  V30 5490 C 531.523 4.13817 1.41682 0
M  V30 5491 C 530.582 4.63072 2.49901 0
M  V30 5492 O 529.608 5.27562 2.13699 0
M  V30 5493 N 530.81 4.38001 3.80967 0
M  V30 5494 H 533.575 2.99694 -0.0183736 0
M  V30 5495 H 531.136 1.61153 -0.155396 0
M  V30 5496 H 533.128 3.17747 2.50637 0
M  V30 5497 H 531.698 2.13977 2.27887 0
M  V30 5498 H 530.918 3.9062 0.530044 0
M  V30 5499 H 532.206 4.95762 1.14443 0
M  V30 5500 H 531.604 3.864 4.13173 0
M  V30 5501 H 530.161 4.72507 4.48977 0
M  V30 5502 N 533.594 0.0601682 1.57485 0
M  V30 5503 C 534.84 -0.612501 1.93329 0
M  V30 5504 C 535.173 -1.6996 0.939526 0
M  V30 5505 O 534.448 -1.94472 -0.0330957 0
M  V30 5506 C 534.731 -1.20025 3.39508 0
M  V30 5507 C 534.584 -0.12059 4.49638 0
M  V30 5508 C 535.903 -2.10923 3.86264 0
M  V30 5509 H 533.022 -0.221185 0.703027 0
M  V30 5510 H 535.664 0.123768 1.89596 0
M  V30 5511 H 533.814 -1.82774 3.42821 0
M  V30 5512 H 535.486 0.51185 4.58452 0
M  V30 5513 H 533.729 0.550251 4.30296 0
M  V30 5514 H 534.4 -0.572019 5.49028 0
M  V30 5515 H 536.876 -1.58124 3.84884 0
M  V30 5516 H 535.752 -2.48987 4.8918 0
M  V30 5517 H 536.013 -3.01292 3.23536 0
M  V30 5518 N 535.072 -1.5615 -0.213296 0
M  V30 5519 C 536.297 -1.83986 -0.957282 0
M  V30 5520 C 536.722 -0.641526 -1.76822 0
M  V30 5521 O 536.08 0.409722 -1.7661 0
M  V30 5522 C 536.128 -3.09889 -1.84393 0
M  V30 5523 O 535.232 -2.89163 -2.94038 0
M  V30 5524 H 534.573 -0.606357 -0.270605 0
M  V30 5525 H 537.103 -2.03369 -0.224111 0
M  V30 5526 H 537.113 -3.40209 -2.25215 0
M  V30 5527 H 535.788 -3.96735 -1.24795 0
M  V30 5528 H 534.365 -2.70097 -2.57103 0
M  V30 5529 N 536.55 0.480323 -1.50102 0
M  V30 5530 C 537.48 1.58769 -1.71215 0
M  V30 5531 C 538.461 1.60583 -0.560997 0
M  V30 5532 O 539.646 1.76996 -0.799127 0
M  V30 5533 C 536.776 2.97148 -1.79778 0
M  V30 5534 C 535.73 3.10201 -2.94888 0
M  V30 5535 C 535.056 4.50137 -2.88584 0
M  V30 5536 C 536.356 2.88283 -4.35534 0
M  V30 5537 H 538.05 1.41354 -2.6393 0
M  V30 5538 H 535.596 0.678591 -1.27008 0
M  V30 5539 H 537.549 3.74536 -1.93133 0
M  V30 5540 H 536.273 3.15699 -0.836772 0
M  V30 5541 H 534.932 2.35244 -2.81169 0
M  V30 5542 H 534.58 4.65593 -1.90349 0
M  V30 5543 H 534.28 4.59808 -3.65856 0
M  V30 5544 H 535.804 5.29558 -3.03976 0
M  V30 5545 H 537.218 3.55427 -4.49827 0
M  V30 5546 H 535.615 3.09408 -5.14186 0
M  V30 5547 H 536.685 1.84219 -4.48544 0
M  V30 5548 N 538.028 1.39524 0.732853 0
M  V30 5549 C 539.256 1.40143 1.52209 0
M  V30 5550 C 539.671 -0.00348836 1.888 0
M  V30 5551 O 539.028 -0.975357 1.5425 0
M  V30 5552 C 539.079 2.27632 2.8083 0
M  V30 5553 O 538.8 3.62654 2.45792 0
M  V30 5554 C 540.301 2.36658 3.74844 0
M  V30 5555 H 537.521 0.478604 0.470297 0
M  V30 5556 H 540.065 1.83366 0.905388 0
M  V30 5557 H 538.22 1.87818 3.38826 0
M  V30 5558 H 538.634 4.08941 3.28431 0
M  V30 5559 H 540.108 3.02118 4.61984 0
M  V30 5560 H 540.585 1.38638 4.16745 0
M  V30 5561 H 541.191 2.76951 3.22766 0
M  V30 5562 N 539.506 -0.963266 1.24736 0
M  V30 5563 C 540.746 -1.72172 1.10165 0
M  V30 5564 C 541.11 -1.88731 -0.352784 0
M  V30 5565 O 542.311 -2.61549 -0.620107 0
M  V30 5566 C 540.582 -3.0724 1.82589 0
M  V30 5567 S 542.141 -3.98449 1.83803 0
M  V30 5568 H 538.959 -0.591901 0.393922 0
M  V30 5569 H 541.561 -1.14955 1.58132 0
M  V30 5570 H 540.265 -2.92851 2.87518 0
M  V30 5571 H 539.796 -3.69521 1.34973 0
M  V30 5572 H 541.811 -4.87805 0.908883 0
M  V30 5573 N 540.985 -1.06182 -1.16461 0
M  V30 5574 C 541.915 -0.692861 -2.22984 0
M  V30 5575 C 542.896 0.314122 -1.67174 0
M  V30 5576 O 544.081 0.189499 -1.93273 0
M  V30 5577 C 541.211 -0.07732 -3.47214 0
M  V30 5578 C 540.165 -1.01015 -4.15909 0
M  V30 5579 C 539.491 -0.257973 -5.34077 0
M  V30 5580 C 540.791 -2.33868 -4.67015 0
M  V30 5581 H 542.485 -1.58343 -2.54102 0
M  V30 5582 H 540.031 -0.76279 -1.22137 0
M  V30 5583 H 541.984 0.19266 -4.20959 0
M  V30 5584 H 540.708 0.848254 -3.15392 0
M  V30 5585 H 539.367 -1.26486 -3.44088 0
M  V30 5586 H 539.015 0.670684 -4.98509 0
M  V30 5587 H 538.715 -0.879638 -5.80979 0
M  V30 5588 H 540.239 0.00448788 -6.106 0
M  V30 5589 H 541.653 -2.1279 -5.32347 0
M  V30 5590 H 540.05 -2.91522 -5.24533 0
M  V30 5591 H 541.12 -2.97019 -3.83286 0
M  V30 5592 N 542.463 1.3308 -0.844243 0
M  V30 5593 C 543.709 1.97898 -0.443206 0
M  V30 5594 C 544.042 1.66699 0.99625 0
M  V30 5595 O 543.317 0.949704 1.69738 0
M  V30 5596 C 543.6 3.53801 -0.670606 0
M  V30 5597 C 543.453 3.94667 -2.15772 0
M  V30 5598 C 544.772 4.39936 -0.120226 0
M  V30 5599 H 541.891 0.718861 -0.162504 0
M  V30 5600 H 544.533 1.57633 -1.06075 0
M  V30 5601 H 542.683 3.88229 -0.14496 0
M  V30 5602 H 544.355 3.70469 -2.74865 0
M  V30 5603 H 542.598 3.44203 -2.6402 0
M  V30 5604 H 543.269 5.03275 -2.26757 0
M  V30 5605 H 545.745 4.12183 -0.5696 0
M  V30 5606 H 544.621 5.4803 -0.308984 0
M  V30 5607 H 544.882 4.31184 0.976347 0
M  V30 5608 N 543.941 0.601185 1.45683 0
M  V30 5609 C 544.888 -0.121396 2.30481 0
M  V30 5610 C 545.858 -0.866232 1.41724 0
M  V30 5611 O 547.043 -0.85324 1.70659 0
M  V30 5612 C 544.183 -1.11704 3.26521 0
M  V30 5613 C 543.296 -0.373741 4.3038 0
M  V30 5614 C 542.431 -1.35854 5.13534 0
M  V30 5615 C 541.47 -0.602689 6.09126 0
M  V30 5616 N 540.607 -1.53645 6.85082 0
M  V30 5617 H 545.447 0.607732 2.91737 0
M  V30 5618 H 542.984 0.311502 1.43764 0
M  V30 5619 H 544.942 -1.70735 3.80664 0
M  V30 5620 H 543.572 -1.81366 2.67032 0
M  V30 5621 H 542.624 0.331962 3.78949 0
M  V30 5622 H 543.936 0.2163 4.98331 0
M  V30 5623 H 543.09 -2.02111 5.72046 0
M  V30 5624 H 541.829 -1.98251 4.45587 0
M  V30 5625 H 540.834 0.0735482 5.49751 0
M  V30 5626 H 542.059 0.0161467 6.79098 0
M  V30 5627 H 540.005 -2.14819 6.1983 0
M  V30 5628 H 539.922 -0.999688 7.49361 0
M  V30 5629 H 541.19 -2.1888 7.48139 0
M  V30 5630 N 545.419 -1.53889 0.339982 0
M  V30 5631 C 546.667 -2.00458 -0.257112 0
M  V30 5632 C 546.988 -1.22953 -1.51353 0
M  V30 5633 O 546.258 -0.335734 -1.93002 0
M  V30 5634 H 544.838 -0.740544 -0.0979965 0
M  V30 5635 H 547.5 -1.89386 0.460317 0
M  V30 5636 H 546.596 -3.08035 -0.502057 0
M  V30 5637 N 546.897 -0.0685191 -1.57451 0
M  V30 5638 C 548.144 0.601348 -1.93365 0
M  V30 5639 C 548.472 1.69816 -0.948294 0
M  V30 5640 O 547.727 1.95666 0.0366199 0
M  V30 5641 C 548.026 1.22051 -3.35914 0
M  V30 5642 C 547.692 0.250165 -4.50205 0
M  V30 5643 C 546.354 -0.0167954 -4.81197 0
M  V30 5644 C 548.706 -0.413867 -5.19554 0
M  V30 5645 C 546.034 -0.95493 -5.78876 0
M  V30 5646 C 548.386 -1.3403 -6.18238 0
M  V30 5647 C 547.05 -1.61576 -6.47649 0
M  V30 5648 H 546.32 0.220049 -0.707573 0
M  V30 5649 H 548.967 -0.138697 -1.90997 0
M  V30 5650 H 547.272 2.03622 -3.34732 0
M  V30 5651 H 548.969 1.74605 -3.6099 0
M  V30 5652 H 545.559 0.468421 -4.26033 0
M  V30 5653 H 549.743 -0.220733 -4.95809 0
M  V30 5654 H 544.999 -1.17563 -5.99991 0
M  V30 5655 H 549.173 -1.86081 -6.71079 0
M  V30 5656 H 546.8 -2.34431 -7.2315 0
M  V30 5657 N 548.375 1.56261 0.205012 0
M  V30 5658 C 549.605 1.83874 0.942018 0
M  V30 5659 C 550.013 0.647595 1.77772 0
M  V30 5660 O 549.356 -0.393098 1.79445 0
M  V30 5661 C 549.418 3.05453 1.89575 0
M  V30 5662 C 549.082 4.39772 1.24296 0
M  V30 5663 C 550.079 5.16133 0.624724 0
M  V30 5664 C 547.764 4.86504 1.24978 0
M  V30 5665 C 549.758 6.37396 0.0220117 0
M  V30 5666 C 547.445 6.07705 0.643232 0
M  V30 5667 C 548.443 6.82993 0.0304164 0
M  V30 5668 O 548.131 8.019 -0.566654 0
M  V30 5669 H 547.863 0.614896 0.280854 0
M  V30 5670 H 550.417 2.04215 0.220285 0
M  V30 5671 H 548.647 2.80972 2.65691 0
M  V30 5672 H 550.336 3.19797 2.4997 0
M  V30 5673 H 551.102 4.81127 0.611666 0
M  V30 5674 H 546.981 4.27865 1.71616 0
M  V30 5675 H 550.525 6.96102 -0.456926 0
M  V30 5676 H 546.422 6.42181 0.653759 0
M  V30 5677 H 547.19 8.17192 -0.462588 0
M  V30 5678 N 549.853 -0.472356 1.50355 0
M  V30 5679 C 551.264 -1.05326 1.54154 0
M  V30 5680 C 551.615 -1.93155 0.344303 0
M  V30 5681 O 550.74 -2.09479 -0.542928 0
M  V30 5682 C 551.335 -1.91691 2.79356 0
M  V30 5683 C 549.894 -2.44892 2.8584 0
M  V30 5684 C 549.041 -1.23205 2.48426 0
M  V30 5685 H 551.992 -0.255027 1.56637 0
M  V30 5686 H 552.013 -2.76742 2.6114 0
M  V30 5687 H 551.525 -1.27741 3.66475 0
M  V30 5688 H 549.626 -3.12399 2.0307 0
M  V30 5689 H 549.739 -2.80086 3.88701 0
M  V30 5690 H 548.103 -1.56643 2.00836 0
M  V30 5691 H 548.886 -0.609194 3.37852 0
M  V30 5692 N 551.331 -1.39911 -0.725443 0
M  V30 5693 C 552.556 -1.41137 -1.5197 0
M  V30 5694 C 552.981 -0.010262 -1.88097 0
M  V30 5695 O 552.339 0.979184 -1.52583 0
M  V30 5696 C 552.387 -2.2994 -2.77777 0
M  V30 5697 O 551.491 -1.73586 -3.74088 0
M  V30 5698 H 550.832 -0.480219 -0.458569 0
M  V30 5699 H 553.362 -1.84023 -0.894249 0
M  V30 5700 H 553.372 -2.44785 -3.26411 0
M  V30 5701 H 552.047 -3.31759 -2.50816 0
M  V30 5702 H 550.624 -1.68035 -3.32894 0
M  V30 5703 N 552.809 0.956637 -1.25245 0
M  V30 5704 C 554.086 1.67716 -1.00651 0
M  V30 5705 C 554.466 2.0585 0.467866 0
M  V30 5706 O 553.814 1.77029 1.44475 0
M  V30 5707 C 554.024 2.90093 -1.94028 0
M  V30 5708 C 555.372 3.6209 -2.21756 0
M  V30 5709 O 556.396 3.00171 -1.9177 0
M  V30 5710 O 555.255 4.7358 -2.72735 0
M  V30 5711 H 552.349 0.733731 -0.381533 0
M  V30 5712 H 554.895 1.00974 -1.3639 0
M  V30 5713 H 553.667 2.58689 -2.93591 0
M  V30 5714 H 553.29 3.64566 -1.58674 0
M  V30 5715 N 554.287 1.06798 1.15896 0
M  V30 5716 C 555.536 0.782796 1.8589 0
M  V30 5717 C 555.849 -0.693498 1.82893 0
M  V30 5718 O 557.055 -1.09325 2.48516 0
M  V30 5719 C 555.511 1.3502 3.33613 0
M  V30 5720 C 555.119 2.8571 3.45071 0
M  V30 5721 C 556.863 1.14278 4.08829 0
M  V30 5722 C 554.77 3.35669 4.86909 0
M  V30 5723 H 553.7 0.289149 0.696354 0
M  V30 5724 H 556.351 1.28734 1.30766 0
M  V30 5725 H 554.733 0.773407 3.88374 0
M  V30 5726 H 555.907 3.49385 3.00445 0
M  V30 5727 H 554.222 3.05178 2.83294 0
M  V30 5728 H 556.819 1.49087 5.13495 0
M  V30 5729 H 557.162 0.0814575 4.1622 0
M  V30 5730 H 557.695 1.68563 3.60321 0
M  V30 5731 H 554.434 4.41302 4.84698 0
M  V30 5732 H 553.954 2.76745 5.32139 0
M  V30 5733 H 555.633 3.31296 5.55745 0
M  V30 5734 N 555.766 -1.3263 0.851289 0
M  V30 5735 C 556.729 -2.27247 0.298541 0
M  V30 5736 C 557.729 -1.51467 -0.539847 0
M  V30 5737 O 558.919 -1.7061 -0.351843 0
M  V30 5738 C 556.051 -3.35964 -0.578004 0
M  V30 5739 H 557.244 -2.7765 1.13359 0
M  V30 5740 H 554.797 -1.43245 0.625354 0
M  V30 5741 H 555.532 -2.90823 -1.435 0
M  V30 5742 H 555.317 -3.92094 0.0220539 0
M  V30 5743 H 556.807 -4.06472 -0.957626 0
M  V30 5744 N 557.244 -0.608902 -1.45362 0
M  V30 5745 C 558.49 -0.104762 -2.02529 0
M  V30 5746 C 558.823 1.26191 -1.47613 0
M  V30 5747 O 558.098 1.8327 -0.65134 0
M  V30 5748 C 558.381 -0.0672661 -3.60037 0
M  V30 5749 C 558.234 -1.4647 -4.25284 0
M  V30 5750 C 559.553 0.619877 -4.35713 0
M  V30 5751 H 556.672 -0.0395438 -0.735938 0
M  V30 5752 H 559.314 -0.781126 -1.73201 0
M  V30 5753 H 557.464 0.50871 -3.85155 0
M  V30 5754 H 559.136 -2.08785 -4.11347 0
M  V30 5755 H 557.379 -2.02502 -3.83634 0
M  V30 5756 H 558.05 -1.39069 -5.34195 0
M  V30 5757 H 560.526 0.130297 -4.15896 0
M  V30 5758 H 559.402 0.615224 -5.45441 0
M  V30 5759 H 559.663 1.68621 -4.0868 0
M  V30 5760 N 558.722 1.53707 -0.348139 0
M  V30 5761 C 559.632 2.28881 0.514857 0
M  V30 5762 C 560.648 1.34168 1.10793 0
M  V30 5763 O 561.824 1.6721 1.12262 0
M  V30 5764 C 558.889 3.05042 1.64774 0
M  V30 5765 C 557.95 4.15389 1.08398 0
M  V30 5766 C 557.183 4.87909 2.16287 0
M  V30 5767 O 557.406 4.60137 3.3709 0
M  V30 5768 O 556.34 5.74254 1.80323 0
M  V30 5769 H 560.166 3.03547 -0.0963699 0
M  V30 5770 H 557.751 1.48972 -0.113043 0
M  V30 5771 H 559.633 3.52656 2.30677 0
M  V30 5772 H 558.308 2.33228 2.24469 0
M  V30 5773 H 557.215 3.72068 0.389341 0
M  V30 5774 H 558.548 4.89318 0.531829 0
M  V30 5775 N 560.2 0.0768682 1.57412 0
M  V30 5776 C 561.446 -0.585926 1.94778 0
M  V30 5777 C 561.801 -1.66912 0.956982 0
M  V30 5778 O 561.094 -1.9159 -0.0199454 0
M  V30 5779 C 561.288 -1.20268 3.36557 0
M  V30 5780 C 561.117 -0.18076 4.49337 0
M  V30 5781 C 559.887 0.236362 5.04747 0
M  V30 5782 C 562.085 0.583978 5.10974 0
M  V30 5783 N 560.067 1.24846 6.01071 0
M  V30 5784 C 561.438 1.44841 6.02844 0
M  V30 5785 C 563.493 0.639492 4.93776 0
M  V30 5786 C 562.196 2.36343 6.79363 0
M  V30 5787 C 564.222 1.54204 5.70942 0
M  V30 5788 C 563.584 2.39414 6.62465 0
M  V30 5789 H 559.683 -0.185281 0.759734 0
M  V30 5790 H 562.267 0.155193 1.9408 0
M  V30 5791 H 560.438 -1.9137 3.37982 0
M  V30 5792 H 562.17 -1.82636 3.61146 0
M  V30 5793 H 558.925 -0.14777 4.73369 0
M  V30 5794 H 559.349 1.75217 6.53933 0
M  V30 5795 H 563.991 -0.00510074 4.228 0
M  V30 5796 H 561.709 3.01836 7.49614 0
M  V30 5797 H 565.295 1.5899 5.59655 0
M  V30 5798 H 564.175 3.0812 7.21132 0
M  V30 5799 N 561.678 -1.56367 -0.196722 0
M  V30 5800 C 562.588 -1.97617 -1.2643 0
M  V30 5801 C 563.604 -0.883598 -1.49895 0
M  V30 5802 O 564.78 -1.18921 -1.62541 0
M  V30 5803 C 561.845 -2.30595 -2.58895 0
M  V30 5804 C 560.906 -3.53551 -2.43516 0
M  V30 5805 C 560.139 -3.84946 -3.69665 0
M  V30 5806 O 560.362 -3.17655 -4.73763 0
M  V30 5807 O 559.296 -4.78379 -3.65291 0
M  V30 5808 H 563.122 -2.88648 -0.944233 0
M  V30 5809 H 560.707 -1.43901 -0.401592 0
M  V30 5810 H 562.589 -2.52889 -3.37083 0
M  V30 5811 H 561.264 -1.42732 -2.90533 0
M  V30 5812 H 560.171 -3.36507 -1.63445 0
M  V30 5813 H 561.504 -4.41875 -2.16812 0
M  V30 5814 N 563.156 0.464375 -1.50603 0
M  V30 5815 C 564.381 1.24372 -1.65971 0
M  V30 5816 C 564.806 1.84901 -0.345453 0
M  V30 5817 O 564.164 1.67596 0.691457 0
M  V30 5818 C 564.212 2.32331 -2.7578 0
M  V30 5819 O 563.316 3.37146 -2.375 0
M  V30 5820 H 562.657 0.365604 -0.554283 0
M  V30 5821 H 565.187 0.55183 -1.97018 0
M  V30 5822 H 565.197 2.77539 -2.99059 0
M  V30 5823 H 563.872 1.87648 -3.71162 0
M  V30 5824 H 562.449 2.97602 -2.24694 0
M  V30 5825 N 564.634 1.40294 0.718013 0
M  V30 5826 C 565.582 1.40536 1.85344 0
M  V30 5827 C 566.576 0.286192 1.66965 0
M  V30 5828 O 567.782 0.457105 1.74099 0
M  V30 5829 H 564.157 0.439236 0.61039 0
M  V30 5830 H 566.128 2.36275 1.82255 0
M  V30 5831 C 564.877 1.28245 3.23185 0
M  V30 5832 H 564.2 2.1364 3.37932 0
M  V30 5833 H 565.64 1.32474 4.02774 0
M  V30 5834 C 564.099 -0.0075503 3.36899 0
M  V30 5835 O 564.629 -0.971391 3.89778 0
M  V30 5836 N 562.835 -0.0762479 2.905 0
M  V30 5837 H 562.382 0.708819 2.47656 0
M  V30 5838 H 562.34 -0.938846 3.00055 0
M  V30 5839 N 566.112 -0.949982 1.2575 0
M  V30 5840 C 567.36 -1.6918 1.10555 0
M  V30 5841 C 567.681 -1.91773 -0.353298 0
M  V30 5842 O 566.951 -1.50814 -1.25027 0
M  V30 5843 H 565.531 -0.626952 0.406129 0
M  V30 5844 H 568.193 -1.1419 1.57945 0
M  V30 5845 H 567.289 -2.66915 1.61749 0
M  V30 5846 N 567.59 -1.07411 -1.15328 0
M  V30 5847 C 568.522 -0.652924 -2.19703 0
M  V30 5848 C 569.535 0.294869 -1.60107 0
M  V30 5849 O 570.724 0.0840932 -1.78302 0
M  V30 5850 C 567.824 0.061434 -3.38844 0
M  V30 5851 C 566.997 -0.902696 -4.27984 0
M  V30 5852 C 566.056 -0.225521 -5.25717 0
M  V30 5853 O 565.082 -0.86676 -5.62562 0
M  V30 5854 N 566.284 1.02858 -5.71315 0
M  V30 5855 H 569.049 -1.55081 -2.56457 0
M  V30 5856 H 566.61 -0.958883 -1.30449 0
M  V30 5857 H 568.602 0.525145 -4.01278 0
M  V30 5858 H 567.172 0.861269 -3.00501 0
M  V30 5859 H 566.392 -1.54551 -3.6264 0
M  V30 5860 H 567.68 -1.55636 -4.84412 0
M  V30 5861 H 567.078 1.56948 -5.43492 0
M  V30 5862 H 565.635 1.43596 -6.35786 0
M  V30 5863 N 569.068 1.32177 -0.85831 0
M  V30 5864 C 570.479 1.79381 -0.517621 0
M  V30 5865 C 570.83 1.70841 0.964769 0
M  V30 5866 O 569.955 1.26917 1.75274 0
M  V30 5867 C 570.55 3.25706 -0.932801 0
M  V30 5868 C 569.109 3.70851 -0.643953 0
M  V30 5869 C 568.256 2.53208 -1.13054 0
M  V30 5870 H 571.207 1.19424 -1.04516 0
M  V30 5871 H 571.228 3.79673 -0.250674 0
M  V30 5872 H 570.74 3.31889 -2.01174 0
M  V30 5873 H 568.841 3.70178 0.424112 0
M  V30 5874 H 568.954 4.63495 -1.21281 0
M  V30 5875 H 567.318 2.48676 -0.550679 0
M  V30 5876 H 568.101 2.62143 -2.21666 0
M  V30 5877 N 570.547 0.616602 1.45037 0
M  V30 5878 C 571.457 -0.0985401 2.34393 0
M  V30 5879 C 572.473 -0.850971 1.51771 0
M  V30 5880 O 573.649 -0.806521 1.84546 0
M  V30 5881 C 570.714 -1.07748 3.29532 0
M  V30 5882 C 569.775 -0.326022 4.2806 0
M  V30 5883 C 569.008 -1.25833 5.18654 0
M  V30 5884 O 569.231 -2.49652 5.12864 0
M  V30 5885 O 568.165 -0.750512 5.97203 0
M  V30 5886 H 571.991 0.636016 2.96966 0
M  V30 5887 H 569.576 0.376832 1.44569 0
M  V30 5888 H 571.458 -1.64107 3.88133 0
M  V30 5889 H 570.133 -1.79291 2.69512 0
M  V30 5890 H 569.04 0.280253 3.73049 0
M  V30 5891 H 570.373 0.349091 4.9096 0
M  V30 5892 N 572.025 -1.5352 0.356285 0
M  V30 5893 C 572.973 -2.26945 -0.50978 0
M  V30 5894 C 573.967 -1.29569 -1.09125 0
M  V30 5895 O 575.173 -1.47231 -1.03552 0
M  V30 5896 H 571.548 -0.729368 -0.183102 0
M  V30 5897 H 573.519 -2.98111 0.131374 0
M  V30 5898 C 572.268 -3.06466 -1.64237 0
M  V30 5899 H 571.591 -3.81233 -1.20423 0
M  V30 5900 H 573.031 -3.61035 -2.22327 0
M  V30 5901 C 571.49 -2.16737 -2.57928 0
M  V30 5902 O 572.02 -1.77195 -3.60507 0
M  V30 5903 N 570.226 -1.81558 -2.26903 0
M  V30 5904 H 569.773 -2.13913 -1.43524 0
M  V30 5905 H 569.731 -1.21806 -2.89846 0
M  V30 5906 N 573.503 -0.0852151 -1.57369 0
M  V30 5907 C 574.451 0.894856 -2.14698 0
M  V30 5908 C 575.445 1.29903 -1.08727 0
M  V30 5909 O 576.651 1.27471 -1.27088 0
M  V30 5910 H 573.026 0.306569 -0.686673 0
M  V30 5911 H 574.997 0.386542 -2.95886 0
M  V30 5912 C 573.746 2.14798 -2.73417 0
M  V30 5913 H 573.069 1.84585 -3.54638 0
M  V30 5914 H 574.509 2.81456 -3.1711 0
M  V30 5915 C 572.968 2.91546 -1.68828 0
M  V30 5916 O 573.498 3.85733 -1.12129 0
M  V30 5917 N 571.704 2.54901 -1.39549 0
M  V30 5918 H 571.251 1.7838 -1.85845 0
M  V30 5919 H 571.209 3.06553 -0.698054 0
M  V30 5920 N 574.981 1.5647 0.188427 0
M  V30 5921 C 576.211 1.84863 0.922463 0
M  V30 5922 C 576.619 0.666413 1.77075 0
M  V30 5923 O 575.962 -0.374044 1.79852 0
M  V30 5924 C 576.024 3.07447 1.86324 0
M  V30 5925 C 575.688 4.41066 1.19625 0
M  V30 5926 C 576.685 5.16767 0.569946 0
M  V30 5927 C 574.37 4.87802 1.19811 0
M  V30 5928 C 576.364 6.37384 -0.045594 0
M  V30 5929 C 574.051 6.08353 0.57874 0
M  V30 5930 C 575.049 6.82987 -0.0420259 0
M  V30 5931 O 574.737 8.01254 -0.651675 0
M  V30 5932 H 574.469 0.61784 0.274316 0
M  V30 5933 H 577.023 2.04437 0.198613 0
M  V30 5934 H 575.253 2.83774 2.62696 0
M  V30 5935 H 576.942 3.2243 2.46564 0
M  V30 5936 H 577.708 4.81749 0.560601 0
M  V30 5937 H 573.587 4.29662 1.67069 0
M  V30 5938 H 577.131 6.95578 -0.530731 0
M  V30 5939 H 573.028 6.42838 0.58561 0
M  V30 5940 H 573.796 8.16655 -0.549236 0
M  V30 5941 N 576.459 -0.456382 1.50847 0
M  V30 5942 C 577.406 -1.55249 1.70782 0
M  V30 5943 C 578.376 -1.56757 0.549231 0
M  V30 5944 O 579.561 -1.74061 0.7815 0
M  V30 5945 C 576.701 -2.93118 1.82143 0
M  V30 5946 C 575.814 -3.01285 3.09598 0
M  V30 5947 C 574.949 -4.30159 3.11667 0
M  V30 5948 C 573.988 -4.32124 4.33515 0
M  V30 5949 N 573.125 -5.52492 4.3324 0
M  V30 5950 H 577.965 -1.37555 2.64353 0
M  V30 5951 H 575.502 -0.668543 1.3103 0
M  V30 5952 H 577.46 -3.73088 1.86711 0
M  V30 5953 H 576.09 -3.09413 0.919978 0
M  V30 5954 H 575.142 -2.14096 3.14431 0
M  V30 5955 H 576.454 -2.98597 3.99551 0
M  V30 5956 H 575.608 -5.18489 3.15046 0
M  V30 5957 H 574.347 -4.35477 2.1957 0
M  V30 5958 H 573.352 -3.42189 4.30333 0
M  V30 5959 H 574.577 -4.28485 5.26856 0
M  V30 5960 H 572.523 -5.58567 3.44004 0
M  V30 5961 H 572.44 -5.51605 5.16979 0
M  V30 5962 H 573.708 -6.42906 4.40786 0
M  V30 5963 N 577.937 -1.40673 -0.710563 0
M  V30 5964 C 579.165 -1.42547 -1.4996 0
M  V30 5965 C 579.58 -0.0265485 -1.88781 0
M  V30 5966 O 578.937 0.950694 -1.55782 0
M  V30 5967 C 578.988 -2.32071 -2.77173 0
M  V30 5968 O 578.709 -3.66518 -2.39992 0
M  V30 5969 C 580.21 -2.42591 -3.71032 0
M  V30 5970 H 577.43 -0.486025 -0.462623 0
M  V30 5971 H 579.974 -1.84783 -0.876102 0
M  V30 5972 H 578.129 -1.93184 -3.35795 0
M  V30 5973 H 578.543 -4.14115 -3.21884 0
M  V30 5974 H 580.017 -3.09429 -4.57119 0
M  V30 5975 H 580.494 -1.4525 -4.14486 0
M  V30 5976 H 581.1 -2.82051 -3.18319 0
M  V30 5977 N 579.415 0.9433 -1.26252 0
M  V30 5978 C 580.643 1.72367 -1.14443 0
M  V30 5979 C 581.058 1.86392 0.300572 0
M  V30 5980 O 580.415 1.36978 1.20596 0
M  V30 5981 C 580.466 3.13155 -1.806 0
M  V30 5982 O 580.187 2.99803 -3.19452 0
M  V30 5983 C 581.688 4.07417 -1.74717 0
M  V30 5984 H 578.908 0.539758 -0.398626 0
M  V30 5985 H 581.452 1.18268 -1.66832 0
M  V30 5986 H 579.607 3.64162 -1.32154 0
M  V30 5987 H 580.021 3.88697 -3.52158 0
M  V30 5988 H 581.495 5.03773 -2.25647 0
M  V30 5989 H 581.972 4.3337 -0.713244 0
M  V30 5990 H 582.578 3.6233 -2.22704 0
M  V30 5991 N 580.893 1.08022 1.14757 0
M  V30 5992 C 582.304 0.829144 1.67279 0
M  V30 5993 C 582.655 -0.644721 1.85305 0
M  V30 5994 O 581.78 -1.49838 1.56133 0
M  V30 5995 C 582.375 1.49855 3.03857 0
M  V30 5996 C 580.934 1.29482 3.53428 0
M  V30 5997 C 580.081 1.56386 2.28995 0
M  V30 5998 H 583.032 1.24134 0.988762 0
M  V30 5999 H 583.053 0.923572 3.69121 0
M  V30 6000 H 582.565 2.57123 2.90705 0
M  V30 6001 H 580.666 0.242669 3.71809 0
M  V30 6002 H 580.779 2.01974 4.34446 0
M  V30 6003 H 579.143 0.985217 2.34874 0
M  V30 6004 H 579.926 2.64851 2.18423 0
M  V30 6005 N 582.371 -1.3172 0.865308 0
M  V30 6006 C 583.782 -1.79104 0.527126 0
M  V30 6007 C 584.133 -1.7135 -0.955695 0
M  V30 6008 O 583.258 -1.27845 -1.74598 0
M  V30 6009 C 583.853 -3.25207 0.950061 0
M  V30 6010 C 582.412 -3.70504 0.663611 0
M  V30 6011 C 581.559 -2.52605 1.14395 0
M  V30 6012 H 584.51 -1.18868 1.05148 0
M  V30 6013 H 584.531 -3.79535 0.270805 0
M  V30 6014 H 584.043 -3.30818 2.02931 0
M  V30 6015 H 582.144 -3.70398 -0.404474 0
M  V30 6016 H 582.257 -4.62845 1.23737 0
M  V30 6017 H 580.621 -2.4838 0.563859 0
M  V30 6018 H 581.404 -2.60964 2.23053 0
M  V30 6019 N 583.85 -0.624285 -1.44708 0
M  V30 6020 C 585.096 -0.126237 -2.02407 0
M  V30 6021 C 585.428 1.24618 -1.48943 0
M  V30 6022 O 584.704 1.82569 -0.670742 0
M  V30 6023 C 584.986 -0.105449 -3.59946 0
M  V30 6024 C 584.84 -1.50972 -4.23707 0
M  V30 6025 C 586.159 0.573629 -4.36346 0
M  V30 6026 H 583.278 -0.0473472 -0.735478 0
M  V30 6027 H 585.92 -0.799452 -1.72362 0
M  V30 6028 H 584.07 0.46783 -3.85673 0
M  V30 6029 H 585.742 -2.13136 -4.0911 0
M  V30 6030 H 583.985 -2.0656 -3.81465 0
M  V30 6031 H 584.656 -1.44727 -5.32689 0
M  V30 6032 H 587.132 0.0861787 -4.16011 0
M  V30 6033 H 586.008 0.557338 -5.46063 0
M  V30 6034 H 586.269 1.64276 -4.10446 0
M  V30 6035 N 585.328 1.53329 -0.364422 0
M  V30 6036 C 586.258 2.28627 0.474543 0
M  V30 6037 C 587.239 1.31009 1.08492 0
M  V30 6038 O 588.424 1.59878 1.10239 0
M  V30 6039 C 585.554 3.07465 1.61501 0
M  V30 6040 C 584.508 4.1276 1.13194 0
M  V30 6041 C 583.834 4.79674 2.36255 0
M  V30 6042 C 585.134 5.21847 0.217507 0
M  V30 6043 H 586.828 2.99005 -0.153656 0
M  V30 6044 H 584.374 1.43803 -0.0753406 0
M  V30 6045 H 586.327 3.58889 2.20855 0
M  V30 6046 H 585.051 2.34775 2.27042 0
M  V30 6047 H 583.71 3.62281 0.56109 0
M  V30 6048 H 583.358 4.03557 3.00251 0
M  V30 6049 H 583.058 5.50827 2.04606 0
M  V30 6050 H 584.582 5.33892 2.96297 0
M  V30 6051 H 585.996 5.6878 0.718493 0
M  V30 6052 H 584.393 6.00099 -0.00806408 0
M  V30 6053 H 585.463 4.7921 -0.740653 0
M  V30 6054 N 586.806 0.0935595 1.57322 0
M  V30 6055 C 588.083 -0.612692 1.85756 0
M  V30 6056 C 588.463 -1.86439 0.99013 0
M  V30 6057 O 587.811 -2.28416 0.0621362 0
M  V30 6058 C 588.021 -0.929547 3.36393 0
M  V30 6059 C 589.369 -1.29366 4.04413 0
M  V30 6060 O 590.393 -1.02061 3.41265 0
M  V30 6061 O 589.252 -1.80498 5.15832 0
M  V30 6062 H 586.346 -0.306444 0.768128 0
M  V30 6063 H 588.892 0.126141 1.69231 0
M  V30 6064 H 587.664 -0.0414766 3.91278 0
M  V30 6065 H 587.287 -1.72441 3.5826 0
M  V30 6066 N 588.284 -1.56567 -0.180126 0
M  V30 6067 C 589.509 -1.85975 -0.918041 0
M  V30 6068 C 589.934 -0.678888 -1.75422 0
M  V30 6069 O 589.292 0.372168 -1.77439 0
M  V30 6070 C 589.34 -3.13731 -1.77779 0
M  V30 6071 O 588.444 -2.95335 -2.87838 0
M  V30 6072 H 587.785 -0.61196 -0.257683 0
M  V30 6073 H 590.315 -2.03798 -0.180923 0
M  V30 6074 H 590.325 -3.4491 -2.17948 0
M  V30 6075 H 589 -3.99293 -1.16352 0
M  V30 6076 H 587.577 -2.7549 -2.51316 0
M  V30 6077 N 589.762 0.448376 -1.51087 0
M  V30 6078 C 591.039 1.20926 -1.53741 0
M  V30 6079 C 591.419 2.09025 -0.295222 0
M  V30 6080 O 590.767 2.16851 0.720283 0
M  V30 6081 C 590.977 2.02067 -2.84552 0
M  V30 6082 C 592.325 2.59486 -3.36084 0
M  V30 6083 O 593.349 2.12289 -2.86028 0
M  V30 6084 O 592.208 3.45539 -4.23397 0
M  V30 6085 H 589.302 0.549951 -0.617643 0
M  V30 6086 H 591.848 0.458344 -1.63393 0
M  V30 6087 H 590.62 1.37291 -3.66425 0
M  V30 6088 H 590.243 2.84246 -2.78011 0
M  V30 6089 N 591.24 1.41047 0.703093 0
M  V30 6090 C 592.488 1.39723 1.4602 0
M  V30 6091 C 592.809 0.00461257 1.94999 0
M  V30 6092 O 592.079 -0.952292 1.71196 0
M  V30 6093 H 590.659 0.514281 0.541779 0
M  V30 6094 H 593.321 1.76217 0.832678 0
M  V30 6095 H 592.417 2.07982 2.32701 0
M  V30 6096 N 592.718 -0.936591 1.26751 0
M  V30 6097 C 593.943 -1.72288 1.15462 0
M  V30 6098 C 594.368 -1.85915 -0.285887 0
M  V30 6099 O 593.726 -1.35272 -1.20711 0
M  V30 6100 C 593.774 -3.10503 1.83359 0
M  V30 6101 O 592.878 -3.96745 1.1255 0
M  V30 6102 H 592.219 -0.52843 0.402067 0
M  V30 6103 H 594.749 -1.17271 1.67656 0
M  V30 6104 H 594.759 -3.60867 1.90365 0
M  V30 6105 H 593.434 -2.99901 2.88153 0
M  V30 6106 H 592.011 -3.55191 1.13551 0
M  V30 6107 N 594.196 -1.08629 -1.14182 0
M  V30 6108 C 595.443 -0.817345 -1.85272 0
M  V30 6109 C 595.771 0.656917 -1.83071 0
M  V30 6110 O 595.026 1.49897 -1.25815 0
M  V30 6111 C 595.325 -1.28734 -3.3341 0
M  V30 6112 C 594.991 -2.76981 -3.55798 0
M  V30 6113 C 593.653 -3.17469 -3.61617 0
M  V30 6114 C 596.005 -3.72605 -3.64438 0
M  V30 6115 C 593.333 -4.52371 -3.736 0
M  V30 6116 C 595.685 -5.07286 -3.77947 0
M  V30 6117 C 594.349 -5.47376 -3.82016 0
M  V30 6118 H 593.619 -0.299088 -0.677958 0
M  V30 6119 H 596.266 -1.35962 -1.34857 0
M  V30 6120 H 594.571 -0.664702 -3.8612 0
M  V30 6121 H 596.268 -1.05598 -3.86846 0
M  V30 6122 H 592.858 -2.44644 -3.51919 0
M  V30 6123 H 597.042 -3.42443 -3.5923 0
M  V30 6124 H 592.298 -4.82882 -3.75013 0
M  V30 6125 H 596.472 -5.81243 -3.83575 0
M  V30 6126 H 594.099 -6.51906 -3.91054 0
M  V30 6127 N 595.674 1.31259 -0.872281 0
M  V30 6128 C 596.921 1.96622 -0.484365 0
M  V30 6129 C 597.249 1.68939 0.963841 0
M  V30 6130 O 596.504 0.97974 1.6941 0
M  V30 6131 C 596.803 3.50659 -0.690889 0
M  V30 6132 C 596.469 3.98366 -2.11224 0
M  V30 6133 C 595.131 4.11104 -2.50094 0
M  V30 6134 C 597.483 4.23425 -3.0391 0
M  V30 6135 C 594.811 4.46254 -3.80887 0
M  V30 6136 C 597.163 4.60039 -4.3422 0
M  V30 6137 C 595.827 4.70984 -4.73001 0
M  V30 6138 H 595.097 0.71949 -0.177242 0
M  V30 6139 H 597.744 1.56353 -1.10571 0
M  V30 6140 H 596.049 3.91798 0.0135782 0
M  V30 6141 H 597.746 3.99284 -0.370534 0
M  V30 6142 H 594.336 3.88949 -1.80047 0
M  V30 6143 H 598.52 4.13075 -2.75104 0
M  V30 6144 H 593.776 4.52926 -4.10692 0
M  V30 6145 H 597.95 4.78381 -5.06088 0
M  V30 6146 H 595.577 4.97977 -5.7439 0
M  V30 6147 N 597.152 0.631951 1.44375 0
M  V30 6148 C 598.082 -0.0593243 2.33425 0
M  V30 6149 C 599.063 -0.833964 1.48253 0
M  V30 6150 O 600.248 -0.799682 1.76971 0
M  V30 6151 C 597.378 -1.04096 3.31333 0
M  V30 6152 C 596.332 -0.377899 4.26328 0
M  V30 6153 C 595.658 -1.4695 5.14111 0
M  V30 6154 C 596.958 0.716371 5.17364 0
M  V30 6155 H 598.652 0.684287 2.91475 0
M  V30 6156 H 596.198 0.330518 1.40156 0
M  V30 6157 H 598.151 -1.53331 3.92514 0
M  V30 6158 H 596.875 -1.81547 2.71493 0
M  V30 6159 H 595.534 0.0938054 3.6648 0
M  V30 6160 H 595.182 -2.2349 4.50623 0
M  V30 6161 H 594.882 -1.03121 5.78481 0
M  V30 6162 H 596.406 -1.96363 5.78164 0
M  V30 6163 H 597.82 0.307089 5.72477 0
M  V30 6164 H 596.217 1.07784 5.90341 0
M  V30 6165 H 597.287 1.58316 4.58327 0
M  V30 6166 N 598.631 -1.53133 0.372548 0
M  V30 6167 C 599.861 -2.05476 -0.215202 0
M  V30 6168 C 600.269 -1.24534 -1.42436 0
M  V30 6169 O 599.612 -0.280771 -1.81542 0
M  V30 6170 C 599.674 -3.53276 -0.666068 0
M  V30 6171 C 599.338 -4.54998 0.427342 0
M  V30 6172 C 600.335 -5.03911 1.27944 0
M  V30 6173 C 598.02 -4.98828 0.589579 0
M  V30 6174 C 600.014 -5.95263 2.27905 0
M  V30 6175 C 597.701 -5.89984 1.59255 0
M  V30 6176 C 598.699 -6.38093 2.43571 0
M  V30 6177 O 598.387 -7.27451 3.42156 0
M  V30 6178 H 598.119 -0.67481 -0.040099 0
M  V30 6179 H 600.673 -1.98409 0.531312 0
M  V30 6180 H 598.903 -3.57904 -1.4643 0
M  V30 6181 H 600.592 -3.88442 -1.1776 0
M  V30 6182 H 601.358 -4.70792 1.16532 0
M  V30 6183 H 597.237 -4.60965 -0.0569456 0
M  V30 6184 H 600.781 -6.32736 2.93753 0
M  V30 6185 H 596.678 -6.22518 1.70711 0
M  V30 6186 H 597.446 -7.45467 3.37967 0
M  V30 6187 N 600.109 -0.101901 -1.5727 0
M  V30 6188 C 601.334 0.571759 -1.99363 0
M  V30 6189 C 601.759 1.60507 -0.980768 0
M  V30 6190 O 601.117 1.81231 0.0498517 0
M  V30 6191 C 601.165 1.18996 -3.404 0
M  V30 6192 O 600.269 2.30572 -3.41922 0
M  V30 6193 H 599.61 0.144449 -0.648098 0
M  V30 6194 H 602.14 -0.185325 -2.03759 0
M  V30 6195 H 602.15 1.52962 -3.78241 0
M  V30 6196 H 600.825 0.432984 -4.1364 0
M  V30 6197 H 599.402 1.98173 -3.15883 0
M  V30 6198 N 601.587 1.56661 0.17182 0
M  V30 6199 C 602.534 1.96371 1.21273 0
M  V30 6200 C 603.504 0.82756 1.44016 0
M  V30 6201 O 604.689 1.08764 1.56764 0
M  V30 6202 C 601.829 2.32838 2.54716 0
M  V30 6203 C 600.942 3.59628 2.39356 0
M  V30 6204 C 600.077 3.85311 3.65662 0
M  V30 6205 C 599.116 5.0545 3.45234 0
M  V30 6206 N 598.253 5.27268 4.63608 0
M  V30 6207 H 603.093 2.85106 0.86709 0
M  V30 6208 H 600.63 1.41073 0.416744 0
M  V30 6209 H 602.588 2.52004 3.3249 0
M  V30 6210 H 601.218 1.47214 2.87277 0
M  V30 6211 H 600.27 3.4838 1.52761 0
M  V30 6212 H 601.582 4.4756 2.20207 0
M  V30 6213 H 600.736 4.04841 4.51872 0
M  V30 6214 H 599.475 2.95753 3.8779 0
M  V30 6215 H 598.48 4.85819 2.5741 0
M  V30 6216 H 599.705 5.96538 3.24529 0
M  V30 6217 H 597.651 4.40662 4.85956 0
M  V30 6218 H 597.568 6.09422 4.4737 0
M  V30 6219 H 598.836 5.51277 5.51103 0
M  V30 6220 N 603.065 -0.440357 1.51323 0
M  V30 6221 C 603.995 -1.54174 1.75364 0
M  V30 6222 C 604.976 -1.59039 0.603375 0
M  V30 6223 O 606.161 -1.74815 0.845774 0
M  V30 6224 C 603.291 -2.92277 1.87593 0
M  V30 6225 C 602.245 -3.02274 3.03009 0
M  V30 6226 C 601.571 -4.42327 3.00418 0
M  V30 6227 C 602.871 -2.76634 4.43024 0
M  V30 6228 H 604.565 -1.34307 2.67585 0
M  V30 6229 H 602.111 -0.644678 1.28763 0
M  V30 6230 H 604.064 -3.69284 2.02995 0
M  V30 6231 H 602.788 -3.13369 0.920179 0
M  V30 6232 H 601.447 -2.27706 2.87307 0
M  V30 6233 H 601.095 -4.60382 2.02626 0
M  V30 6234 H 600.795 -4.49946 3.77918 0
M  V30 6235 H 602.319 -5.21312 3.17909 0
M  V30 6236 H 603.733 -3.43376 4.59093 0
M  V30 6237 H 602.13 -2.95666 5.22208 0
M  V30 6238 H 603.2 -1.72262 4.5327 0
M  V30 6239 N 604.543 -1.41418 -0.695603 0
M  V30 6240 C 605.771 -1.4413 -1.48439 0
M  V30 6241 C 606.186 -0.0465698 -1.88743 0
M  V30 6242 O 605.543 0.934117 -1.56782 0
M  V30 6243 C 605.594 -2.34998 -2.74696 0
M  V30 6244 O 605.315 -3.69043 -2.36091 0
M  V30 6245 C 606.816 -2.46513 -3.68438 0
M  V30 6246 H 604.036 -0.490905 -0.457442 0
M  V30 6247 H 606.58 -1.85702 -0.856454 0
M  V30 6248 H 604.735 -1.96735 -3.33728 0
M  V30 6249 H 605.149 -4.17505 -3.17474 0
M  V30 6250 H 606.623 -3.1426 -4.53811 0
M  V30 6251 H 607.1 -1.49638 -4.12922 0
M  V30 6252 H 607.706 -2.85412 -3.1531 0
M  V30 6253 N 606.021 0.929856 -1.27246 0
M  V30 6254 C 607.267 1.6798 -1.13625 0
M  V30 6255 C 607.6 1.91586 0.317589 0
M  V30 6256 O 606.875 1.50467 1.23247 0
M  V30 6257 C 607.158 3.04766 -1.91806 0
M  V30 6258 C 607.011 2.88415 -3.45162 0
M  V30 6259 C 608.33 4.05063 -1.72082 0
M  V30 6260 H 605.449 0.609632 -0.414147 0
M  V30 6261 H 608.091 1.0792 -1.56376 0
M  V30 6262 H 606.241 3.56034 -1.55474 0
M  V30 6263 H 607.913 2.44282 -3.91311 0
M  V30 6264 H 606.156 2.23802 -3.71611 0
M  V30 6265 H 606.827 3.85482 -3.95105 0
M  V30 6266 H 609.303 3.62798 -2.03757 0
M  V30 6267 H 608.179 4.98765 -2.29182 0
M  V30 6268 H 608.44 4.37021 -0.668206 0
M  V30 6269 N 607.499 1.09233 1.13605 0
M  V30 6270 C 608.776 0.739633 1.81077 0
M  V30 6271 C 609.156 -0.775595 1.96336 0
M  V30 6272 O 608.504 -1.69726 1.52988 0
M  V30 6273 C 608.714 1.47636 3.16235 0
M  V30 6274 C 610.062 1.64087 3.91613 0
M  V30 6275 O 611.086 1.43871 3.25852 0
M  V30 6276 O 609.945 1.97511 5.0956 0
M  V30 6277 H 607.039 0.265464 0.783236 0
M  V30 6278 H 609.585 1.19441 1.20549 0
M  V30 6279 H 608.357 2.50818 3.00344 0
M  V30 6280 H 607.98 1.01362 3.84462 0
M  V30 6281 N 608.977 -1.30795 0.87923 0
M  V30 6282 C 609.924 -2.28282 0.339968 0
M  V30 6283 C 610.894 -1.56134 -0.566685 0
M  V30 6284 O 612.079 -1.84231 -0.496338 0
M  V30 6285 C 609.219 -3.42225 -0.444501 0
M  V30 6286 C 608.332 -4.29204 0.490717 0
M  V30 6287 C 607.467 -5.30302 -0.308784 0
M  V30 6288 C 606.506 -6.08929 0.622272 0
M  V30 6289 N 605.643 -7.01957 -0.14155 0
M  V30 6290 H 610.483 -2.73794 1.17647 0
M  V30 6291 H 608.02 -1.34682 0.591527 0
M  V30 6292 H 609.978 -4.07038 -0.915186 0
M  V30 6293 H 608.608 -2.97799 -1.24562 0
M  V30 6294 H 607.66 -3.6475 1.07988 0
M  V30 6295 H 608.972 -4.84045 1.20425 0
M  V30 6296 H 608.126 -6.00835 -0.841575 0
M  V30 6297 H 606.865 -4.7614 -1.05556 0
M  V30 6298 H 605.87 -5.37278 1.16674 0
M  V30 6299 H 607.095 -6.65178 1.36804 0
M  V30 6300 H 605.041 -6.50192 -0.870966 0
M  V30 6301 H 604.958 -7.54261 0.51246 0
M  V30 6302 H 606.226 -7.76741 -0.655271 0
M  V30 6303 N 610.455 -0.639598 -1.44038 0
M  V30 6304 C 611.68 -0.153117 -2.06834 0
M  V30 6305 C 612.105 1.16676 -1.47541 0
M  V30 6306 O 611.463 1.71769 -0.580093 0
M  V30 6307 C 611.511 -0.0609169 -3.60549 0
M  V30 6308 O 610.615 0.98071 -4.00569 0
M  V30 6309 H 609.956 -0.0886402 -0.658057 0
M  V30 6310 H 612.486 -0.878674 -1.84771 0
M  V30 6311 H 612.496 0.126892 -4.07803 0
M  V30 6312 H 611.171 -1.0245 -4.03084 0
M  V30 6313 H 609.748 0.766789 -3.64931 0
M  V30 6314 N 611.933 1.52934 -0.380664 0
M  V30 6315 C 613.349 1.59571 -0.0302429 0
M  V30 6316 C 613.549 1.39509 1.45394 0
M  V30 6317 O 612.605 1.20777 2.21741 0
M  V30 6318 C 613.918 2.96519 -0.499691 0
M  V30 6319 C 615.466 3.09672 -0.455204 0
M  V30 6320 C 615.941 4.49056 -0.900703 0
M  V30 6321 N 617.432 4.55215 -0.856367 0
M  V30 6322 C 618.167 5.61282 -1.17259 0
M  V30 6323 N 617.663 6.75035 -1.55885 0
M  V30 6324 N 619.456 5.51343 -1.0944 0
M  V30 6325 H 611.607 1.64224 -1.347 0
M  V30 6326 H 613.87 0.771033 -0.551554 0
M  V30 6327 H 613.576 3.16388 -1.53595 0
M  V30 6328 H 613.45 3.77052 0.105789 0
M  V30 6329 H 615.837 2.89504 0.571949 0
M  V30 6330 H 615.918 2.31113 -1.09638 0
M  V30 6331 H 615.562 4.69964 -1.92604 0
M  V30 6332 H 615.492 5.26068 -0.236629 0
M  V30 6333 H 617.983 3.73546 -0.572013 0
M  V30 6334 H 618.296 7.51926 -1.784 0
M  V30 6335 H 616.641 6.76388 -1.59764 0
M  V30 6336 H 619.832 4.61356 -0.791713 0
M  V30 6337 H 620.005 6.33905 -1.34417 0
M  V30 6338 N 613.412 0.11024 1.57214 0
M  V30 6339 C 614.658 -0.544479 1.95977 0
M  V30 6340 C 615.013 -1.64845 0.992171 0
M  V30 6341 O 614.306 -1.91589 0.0206981 0
M  V30 6342 C 614.5 -1.13102 3.39032 0
M  V30 6343 C 614.329 -0.0854079 4.49619 0
M  V30 6344 C 613.099 0.343373 5.04132 0
M  V30 6345 C 615.297 0.692232 5.0962 0
M  V30 6346 N 613.279 1.37567 5.98288 0
M  V30 6347 C 614.65 1.57596 5.99636 0
M  V30 6348 C 616.705 0.744085 4.92309 0
M  V30 6349 C 615.408 2.50701 6.74197 0
M  V30 6350 C 617.434 1.6628 5.67543 0
M  V30 6351 C 616.796 2.53412 6.57238 0
M  V30 6352 H 612.895 -0.169124 0.763493 0
M  V30 6353 H 615.479 0.196326 1.93708 0
M  V30 6354 H 613.65 -1.84158 3.41965 0
M  V30 6355 H 615.382 -1.74934 3.64939 0
M  V30 6356 H 612.137 -0.0473277 4.73576 0
M  V30 6357 H 612.561 1.89048 6.50069 0
M  V30 6358 H 617.203 0.0845825 4.22715 0
M  V30 6359 H 614.921 3.17669 7.43043 0
M  V30 6360 H 618.507 1.70825 5.56156 0
M  V30 6361 H 617.387 3.23347 7.14434 0
M  V30 6362 N 614.89 -1.56749 -0.16351 0
M  V30 6363 C 615.822 -1.93587 -1.22705 0
M  V30 6364 C 616.835 -0.829824 -1.40063 0
M  V30 6365 O 618.024 -1.10826 -1.39928 0
M  V30 6366 C 615.124 -2.1803 -2.59454 0
M  V30 6367 C 614.297 -3.4928 -2.63292 0
M  V30 6368 C 613.356 -3.62457 -3.8146 0
M  V30 6369 O 612.382 -4.35004 -3.67096 0
M  V30 6370 N 613.584 -2.97888 -4.9824 0
M  V30 6371 H 616.349 -2.8542 -0.914081 0
M  V30 6372 H 613.91 -1.58 -0.353214 0
M  V30 6373 H 615.902 -2.24102 -3.36987 0
M  V30 6374 H 614.472 -1.32543 -2.8311 0
M  V30 6375 H 613.692 -3.54795 -1.71796 0
M  V30 6376 H 614.98 -4.35632 -2.62873 0
M  V30 6377 H 614.378 -2.38833 -5.12811 0
M  V30 6378 H 612.935 -3.09545 -5.73607 0
M  V30 6379 N 616.368 0.432326 -1.51554 0
M  V30 6380 C 617.3 1.54357 -1.6943 0
M  V30 6381 C 618.313 1.52311 -0.574897 0
M  V30 6382 O 619.502 1.56997 -0.849369 0
M  V30 6383 C 616.602 2.93273 -1.69836 0
M  V30 6384 C 615.775 3.19768 -2.98442 0
M  V30 6385 C 614.834 4.38433 -2.90969 0
M  V30 6386 O 613.86 4.36842 -3.64908 0
M  V30 6387 N 615.062 5.42276 -2.07163 0
M  V30 6388 H 617.827 1.39426 -2.65293 0
M  V30 6389 H 615.388 0.621331 -1.49503 0
M  V30 6390 H 617.38 3.70687 -1.62399 0
M  V30 6391 H 615.95 3.01777 -0.815456 0
M  V30 6392 H 615.17 2.30607 -3.19709 0
M  V30 6393 H 616.458 3.343 -3.83563 0
M  V30 6394 H 615.856 5.46407 -1.46477 0
M  V30 6395 H 614.413 6.18524 -2.05601 0
M  V30 6396 N 617.846 1.41785 0.688094 0
M  V30 6397 C 619.094 1.41264 1.4453 0
M  V30 6398 C 619.415 0.0252946 1.94984 0
M  V30 6399 O 618.685 -0.934081 1.72197 0
M  V30 6400 H 617.265 0.519998 0.536294 0
M  V30 6401 H 619.927 1.7709 0.813941 0
M  V30 6402 H 619.023 2.10439 2.30482 0
M  V30 6403 N 619.324 -0.923095 1.27737 0
M  V30 6404 C 620.272 -2.04567 1.10703 0
M  V30 6405 C 621.266 -1.69375 0.0288445 0
M  V30 6406 O 622.472 -1.79027 0.186913 0
M  V30 6407 H 618.847 -0.670109 0.34126 0
M  V30 6408 H 620.818 -2.1608 2.05796 0
M  V30 6409 C 619.567 -3.38934 0.775837 0
M  V30 6410 H 618.89 -3.66501 1.59741 0
M  V30 6411 H 620.33 -4.18239 0.696548 0
M  V30 6412 C 618.789 -3.32863 -0.520012 0
M  V30 6413 O 619.319 -3.70462 -1.55308 0
M  V30 6414 N 617.525 -2.85958 -0.51732 0
M  V30 6415 H 617.072 -2.55557 0.32379 0
M  V30 6416 H 617.03 -2.82279 -1.38441 0
M  V30 6417 N 620.802 -1.09834 -1.13024 0
M  V30 6418 C 622.048 -0.83819 -1.84668 0
M  V30 6419 C 622.381 0.634645 -1.83537 0
M  V30 6420 O 621.656 1.46753 -1.27647 0
M  V30 6421 C 621.939 -1.37933 -3.32636 0
M  V30 6422 C 621.792 -2.91857 -3.42257 0
M  V30 6423 C 623.111 -1.01654 -4.28199 0
M  V30 6424 H 620.23 -0.30595 -0.670495 0
M  V30 6425 H 622.872 -1.36044 -1.32635 0
M  V30 6426 H 621.022 -0.935111 -3.77078 0
M  V30 6427 H 622.694 -3.44759 -3.06495 0
M  V30 6428 H 620.937 -3.28776 -2.83 0
M  V30 6429 H 621.608 -3.24799 -4.46329 0
M  V30 6430 H 624.084 -1.39973 -3.9185 0
M  V30 6431 H 622.96 -1.42217 -5.30156 0
M  V30 6432 H 623.221 0.0747794 -4.42037 0
M  V30 6433 N 622.28 1.30327 -0.886154 0
M  V30 6434 C 623.527 1.96097 -0.505192 0
M  V30 6435 C 623.855 1.69952 0.945868 0
M  V30 6436 O 623.11 0.997653 1.68361 0
M  V30 6437 C 623.409 3.49906 -0.728042 0
M  V30 6438 C 623.075 3.96103 -2.15437 0
M  V30 6439 C 621.737 4.08428 -2.5444 0
M  V30 6440 C 624.089 4.20177 -3.08384 0
M  V30 6441 C 621.417 4.42189 -3.85598 0
M  V30 6442 C 623.769 4.55407 -4.39075 0
M  V30 6443 C 622.433 4.65941 -4.7797 0
M  V30 6444 H 621.703 0.71757 -0.184863 0
M  V30 6445 H 624.35 1.55171 -1.12223 0
M  V30 6446 H 622.655 3.9179 -0.027978 0
M  V30 6447 H 624.352 3.98869 -0.412862 0
M  V30 6448 H 620.942 3.87017 -1.84162 0
M  V30 6449 H 625.126 4.10134 -2.7947 0
M  V30 6450 H 620.382 4.48544 -4.15473 0
M  V30 6451 H 624.556 4.72986 -5.11133 0
M  V30 6452 H 622.183 4.91856 -5.79639 0
M  V30 6453 N 623.758 0.647228 1.43697 0
M  V30 6454 C 624.983 0.164083 2.0675 0
M  V30 6455 C 625.408 -1.15892 1.48158 0
M  V30 6456 O 624.766 -1.71459 0.589194 0
M  V30 6457 C 624.814 0.0800368 3.60511 0
M  V30 6458 O 623.918 -0.959453 4.01084 0
M  V30 6459 H 623.259 0.0921288 0.657578 0
M  V30 6460 H 625.789 0.88846 1.84303 0
M  V30 6461 H 625.799 -0.105263 4.07864 0
M  V30 6462 H 624.474 1.04586 4.02535 0
M  V30 6463 H 623.051 -0.747425 3.65333 0
M  V30 6464 N 625.236 -1.5273 0.388769 0
M  V30 6465 C 626.476 -2.03483 -0.193372 0
M  V30 6466 C 626.84 -1.26897 -1.44087 0
M  V30 6467 O 628.041 -1.67773 -2.10014 0
M  V30 6468 C 626.312 -3.54488 -0.455325 0
M  V30 6469 S 627.871 -4.27069 -1.00783 0
M  V30 6470 H 624.689 -0.708907 -0.0545131 0
M  V30 6471 H 627.291 -1.8798 0.536993 0
M  V30 6472 H 625.995 -4.07817 0.459722 0
M  V30 6473 H 625.526 -3.74196 -1.21413 0
M  V30 6474 H 627.541 -4.40185 -2.29023 0
M  V30 6475 N 626.714 -0.118576 -1.57153 0
M  V30 6476 C 627.939 0.550582 -1.99958 0
M  V30 6477 C 628.364 1.59458 -0.997736 0
M  V30 6478 O 627.722 1.81274 0.0306269 0
M  V30 6479 C 627.77 1.15379 -3.41643 0
M  V30 6480 O 626.874 2.26932 -3.44348 0
M  V30 6481 H 626.215 0.137567 -0.649593 0
M  V30 6482 H 628.745 -0.206926 -2.03551 0
M  V30 6483 H 628.755 1.48942 -3.79843 0
M  V30 6484 H 627.43 0.389087 -4.14076 0
M  V30 6485 H 626.007 1.94812 -3.17967 0
M  V30 6486 N 628.193 1.56834 0.155195 0
M  V30 6487 C 629.439 1.83169 0.870467 0
M  V30 6488 C 629.772 0.698929 1.81187 0
M  V30 6489 O 629.047 -0.298035 1.92203 0
M  V30 6490 C 629.33 3.19965 1.65211 0
M  V30 6491 C 629.183 4.43792 0.732744 0
M  V30 6492 C 630.502 3.53885 2.61636 0
M  V30 6493 H 627.621 0.666288 0.315006 0
M  V30 6494 H 630.263 1.89513 0.135988 0
M  V30 6495 H 628.413 3.14687 2.27825 0
M  V30 6496 H 630.085 4.61148 0.118236 0
M  V30 6497 H 628.328 4.3378 0.0417906 0
M  V30 6498 H 628.999 5.36095 1.31552 0
M  V30 6499 H 631.475 3.5972 2.09143 0
M  V30 6500 H 630.351 4.50648 3.13381 0
M  V30 6501 H 630.612 2.79418 3.42605 0
M  V30 6502 N 629.671 -0.424282 1.51781 0
M  V30 6503 C 630.604 -1.53633 1.68737 0
M  V30 6504 C 631.582 -1.53549 0.534915 0
M  V30 6505 O 632.766 -1.72483 0.760391 0
M  V30 6506 C 629.893 -2.92195 1.71288 0
M  V30 6507 C 628.939 -3.10251 2.92654 0
M  V30 6508 S 629.772 -2.85166 4.53256 0
M  V30 6509 C 630.928 -4.25986 4.58571 0
M  V30 6510 H 631.161 -1.39018 2.62795 0
M  V30 6511 H 628.694 -0.614854 1.41629 0
M  V30 6512 H 630.652 -3.72059 1.73443 0
M  V30 6513 H 629.313 -3.04162 0.783847 0
M  V30 6514 H 628.506 -4.1159 2.90877 0
M  V30 6515 H 628.108 -2.38231 2.88308 0
M  V30 6516 H 630.4 -5.19392 4.35015 0
M  V30 6517 H 631.343 -4.32792 5.60444 0
M  V30 6518 H 631.751 -4.1025 3.87757 0
M  V30 6519 N 631.149 -1.42148 -0.680565 0
M  V30 6520 C 632.099 -1.41634 -1.78672 0
M  V30 6521 C 633.083 -0.288494 -1.58293 0
M  V30 6522 O 634.275 -0.530295 -1.68869 0
M  V30 6523 C 631.404 -1.31558 -3.17092 0
M  V30 6524 C 630.49 -2.49265 -3.43115 0
M  V30 6525 N 630.881 -3.74702 -3.39753 0
M  V30 6526 C 629.179 -2.43401 -3.73727 0
M  V30 6527 C 629.88 -4.52854 -3.651 0
M  V30 6528 N 628.856 -3.83181 -3.85582 0
M  V30 6529 H 632.658 -2.3652 -1.74458 0
M  V30 6530 H 630.172 -1.36415 -0.881171 0
M  V30 6531 H 632.169 -1.29272 -3.96351 0
M  V30 6532 H 630.829 -0.376696 -3.22508 0
M  V30 6533 H 631.84 -4.07378 -3.19787 0
M  V30 6534 H 628.517 -1.58062 -3.86423 0
M  V30 6535 H 629.907 -5.61827 -3.6851 0
M  V30 6536 N 632.627 0.916307 -1.28225 0
M  V30 6537 C 633.537 2.05165 -1.13775 0
M  V30 6538 C 634.553 1.73879 -0.0649418 0
M  V30 6539 O 635.729 1.99531 -0.273722 0
M  V30 6540 C 632.794 3.37385 -0.798267 0
M  V30 6541 C 631.855 3.82296 -1.95316 0
M  V30 6542 C 631.088 5.08206 -1.62978 0
M  V30 6543 O 631.311 5.6781 -0.542948 0
M  V30 6544 O 630.245 5.48768 -2.47261 0
M  V30 6545 H 634.071 2.20273 -2.09078 0
M  V30 6546 H 631.656 1.0373 -1.07519 0
M  V30 6547 H 633.538 4.16773 -0.62278 0
M  V30 6548 H 632.213 3.23458 0.125139 0
M  V30 6549 H 631.12 3.03746 -2.18378 0
M  V30 6550 H 632.453 4.00782 -2.85718 0
M  V30 6551 N 634.105 1.10431 1.1244 0
M  V30 6552 C 635.068 0.756542 2.16354 0
M  V30 6553 C 636.068 -0.21899 1.59302 0
M  V30 6554 O 637.258 0.00415969 1.742 0
M  V30 6555 C 634.39 0.120612 3.40687 0
M  V30 6556 H 635.583 1.67696 2.48632 0
M  V30 6557 H 633.136 0.904832 1.27446 0
M  V30 6558 H 633.871 -0.810536 3.14008 0
M  V30 6559 H 633.656 0.822693 3.83372 0
M  V30 6560 H 635.146 -0.106945 4.17463 0
M  V30 6561 N 635.583 -1.29855 0.893053 0
M  V30 6562 C 636.513 -2.3035 0.382249 0
M  V30 6563 C 637.494 -1.61328 -0.539203 0
M  V30 6564 O 638.679 -1.88882 -0.451342 0
M  V30 6565 C 635.809 -3.45024 -0.396983 0
M  V30 6566 C 634.763 -4.258 0.433437 0
M  V30 6567 C 634.089 -5.32605 -0.472889 0
M  V30 6568 C 635.389 -4.94549 1.67984 0
M  V30 6569 H 637.083 -2.73325 1.22205 0
M  V30 6570 H 634.629 -1.314 0.589073 0
M  V30 6571 H 636.582 -4.14398 -0.765024 0
M  V30 6572 H 635.306 -3.00875 -1.2705 0
M  V30 6573 H 633.965 -3.58125 0.783723 0
M  V30 6574 H 633.613 -4.84702 -1.34435 0
M  V30 6575 H 633.313 -5.87547 0.0789958 0
M  V30 6576 H 634.837 -6.04832 -0.837269 0
M  V30 6577 H 636.251 -5.56395 1.38192 0
M  V30 6578 H 634.648 -5.59393 2.17254 0
M  V30 6579 H 635.718 -4.20215 2.41965 0
M  V30 6580 N 637.061 -0.65484 -1.43351 0
M  V30 6581 C 638.011 0.0581325 -2.27926 0
M  V30 6582 C 638.995 0.793188 -1.3999 0
M  V30 6583 O 640.187 0.675387 -1.63608 0
M  V30 6584 C 637.316 1.02272 -3.27712 0
M  V30 6585 C 636.402 0.286048 -4.23134 0
M  V30 6586 N 636.793 -0.698298 -5.00957 0
M  V30 6587 C 635.091 0.527272 -4.42872 0
M  V30 6588 C 635.792 -1.1357 -5.70506 0
M  V30 6589 N 634.768 -0.469631 -5.41568 0
M  V30 6590 H 638.57 -0.697182 -2.85511 0
M  V30 6591 H 636.084 -0.482252 -1.55074 0
M  V30 6592 H 638.081 1.5483 -3.87083 0
M  V30 6593 H 636.741 1.77807 -2.71688 0
M  V30 6594 H 637.752 -1.07708 -5.06576 0
M  V30 6595 H 634.429 1.26367 -3.97916 0
M  V30 6596 H 635.819 -1.95027 -6.42973 0
M  V30 6597 N 638.539 1.52521 -0.396863 0
M  V30 6598 C 639.487 2.28217 0.44943 0
M  V30 6599 C 640.481 1.32416 1.05652 0
M  V30 6600 O 641.687 1.49925 0.996124 0
M  V30 6601 H 638.062 0.733966 0.1637 0
M  V30 6602 H 640.033 2.97658 -0.210367 0
M  V30 6603 C 638.782 3.10713 1.56054 0
M  V30 6604 H 638.105 3.84291 1.10273 0
M  V30 6605 H 639.545 3.66803 2.12677 0
M  V30 6606 C 638.004 2.23499 2.52091 0
M  V30 6607 O 638.534 1.8669 3.55682 0
M  V30 6608 N 636.74 1.8751 2.2201 0
M  V30 6609 H 636.287 2.17643 1.37802 0
M  V30 6610 H 636.245 1.29448 2.86514 0
M  V30 6611 N 640.017 0.126909 1.57088 0
M  V30 6612 C 640.967 -0.831678 2.1229 0
M  V30 6613 C 641.951 -1.22292 1.04564 0
M  V30 6614 O 643.143 -1.19269 1.30782 0
M  V30 6615 C 640.272 -2.07866 2.73215 0
M  V30 6616 C 639.358 -1.71143 3.88035 0
M  V30 6617 N 639.749 -1.05136 4.94753 0
M  V30 6618 C 638.047 -2.00549 3.98367 0
M  V30 6619 C 638.748 -0.877257 5.75047 0
M  V30 6620 N 637.724 -1.40477 5.25135 0
M  V30 6621 H 641.526 -0.317926 2.92175 0
M  V30 6622 H 639.04 -0.0753052 1.62225 0
M  V30 6623 H 641.037 -2.77516 3.11111 0
M  V30 6624 H 639.697 -2.59778 1.94796 0
M  V30 6625 H 640.708 -0.71442 5.12949 0
M  V30 6626 H 637.385 -2.54452 3.30999 0
M  V30 6627 H 638.775 -0.358536 6.70943 0
M  V30 6628 N 641.495 -1.56914 -0.146875 0
M  V30 6629 C 642.725 -1.87243 -0.873126 0
M  V30 6630 C 643.133 -0.713127 -1.75246 0
M  V30 6631 O 642.476 0.326228 -1.8078 0
M  V30 6632 C 642.538 -3.12279 -1.78107 0
M  V30 6633 C 642.202 -4.44082 -1.07889 0
M  V30 6634 C 643.199 -5.18096 -0.432734 0
M  V30 6635 C 640.884 -4.90807 -1.06836 0
M  V30 6636 C 642.878 -6.37039 0.214569 0
M  V30 6637 C 640.565 -6.09674 -0.417243 0
M  V30 6638 C 641.563 -6.82636 0.223093 0
M  V30 6639 O 641.251 -7.99245 0.863884 0
M  V30 6640 H 640.983 -0.624896 -0.257839 0
M  V30 6641 H 643.537 -2.04892 -0.14434 0
M  V30 6642 H 641.767 -2.90639 -2.5508 0
M  V30 6643 H 643.456 -3.28854 -2.37929 0
M  V30 6644 H 644.222 -4.83066 -0.432677 0
M  V30 6645 H 640.101 -4.3394 -1.55618 0
M  V30 6646 H 643.645 -6.93927 0.714965 0
M  V30 6647 H 639.542 -6.44165 -0.414967 0
M  V30 6648 H 640.31 -8.14912 0.765564 0
M  V30 6649 N 642.974 0.416227 -1.52004 0
M  V30 6650 C 644.202 1.18573 -1.69553 0
M  V30 6651 C 644.617 1.84472 -0.401919 0
M  V30 6652 O 643.974 1.71593 0.621463 0
M  V30 6653 C 644.025 2.25413 -2.82615 0
M  V30 6654 O 643.746 1.62205 -4.06966 0
M  V30 6655 C 645.247 3.15297 -3.11613 0
M  V30 6656 H 642.467 0.356582 -0.56841 0
M  V30 6657 H 645.011 0.490618 -1.98528 0
M  V30 6658 H 643.166 2.90604 -2.56179 0
M  V30 6659 H 643.58 2.3298 -4.69916 0
M  V30 6660 H 645.054 3.86351 -3.94255 0
M  V30 6661 H 645.531 3.77264 -2.24874 0
M  V30 6662 H 646.137 2.55783 -3.39787 0
M  V30 6663 N 644.452 1.42507 0.673017 0
M  V30 6664 C 645.384 1.42074 1.79854 0
M  V30 6665 C 646.397 0.319569 1.59633 0
M  V30 6666 O 647.586 0.582769 1.68719 0
M  V30 6667 C 644.686 1.19886 3.16987 0
M  V30 6668 C 643.859 2.42471 3.64042 0
M  V30 6669 C 642.918 2.15802 4.79913 0
M  V30 6670 O 641.944 2.89015 4.90366 0
M  V30 6671 N 643.146 1.16225 5.68746 0
M  V30 6672 H 645.911 2.3909 1.8071 0
M  V30 6673 H 643.472 1.37409 0.856171 0
M  V30 6674 H 645.464 0.999591 3.92161 0
M  V30 6675 H 644.034 0.313879 3.1102 0
M  V30 6676 H 643.254 2.77954 2.79526 0
M  V30 6677 H 644.542 3.24097 3.92223 0
M  V30 6678 H 643.94 0.556756 5.62954 0
M  V30 6679 H 642.497 1.02285 6.43724 0
M  V30 6680 N 645.93 -0.909495 1.28709 0
M  V30 6681 C 646.877 -2.01245 1.13 0
M  V30 6682 C 647.847 -1.6608 0.0259684 0
M  V30 6683 O 649.032 -1.89835 0.191687 0
M  V30 6684 C 646.172 -3.35644 0.802315 0
M  V30 6685 C 645.285 -3.83653 1.98582 0
M  V30 6686 C 644.42 -5.06582 1.59837 0
M  V30 6687 C 643.459 -5.46934 2.74827 0
M  V30 6688 N 642.596 -6.61053 2.36546 0
M  V30 6689 H 647.436 -2.14013 2.0737 0
M  V30 6690 H 644.973 -1.0482 1.03205 0
M  V30 6691 H 646.931 -4.12963 0.593057 0
M  V30 6692 H 645.561 -3.22631 -0.104457 0
M  V30 6693 H 644.613 -3.02454 2.30708 0
M  V30 6694 H 645.925 -4.09515 2.84779 0
M  V30 6695 H 645.079 -5.91457 1.35143 0
M  V30 6696 H 643.818 -4.82537 0.707753 0
M  V30 6697 H 642.823 -4.60599 3.00215 0
M  V30 6698 H 644.048 -5.72965 3.64538 0
M  V30 6699 H 641.994 -6.3863 1.49959 0
M  V30 6700 H 641.911 -6.86662 3.16277 0
M  V30 6701 H 643.179 -7.49221 2.15146 0
M  V30 6702 N 647.408 -1.11026 -1.11852 0
M  V30 6703 C 648.633 -0.879064 -1.87849 0
M  V30 6704 C 649.058 0.565406 -1.79401 0
M  V30 6705 O 648.416 1.39886 -1.15333 0
M  V30 6706 C 648.464 -1.33985 -3.34784 0
M  V30 6707 O 647.568 -0.508803 -4.09249 0
M  V30 6708 H 646.909 -0.316992 -0.583448 0
M  V30 6709 H 649.439 -1.47863 -1.41413 0
M  V30 6710 H 649.449 -1.33248 -3.85628 0
M  V30 6711 H 648.124 -2.39172 -3.40249 0
M  V30 6712 H 646.701 -0.581913 -3.68332 0
M  V30 6713 N 648.886 1.2938 -0.899927 0
M  V30 6714 C 649.816 2.30144 -0.39446 0
M  V30 6715 C 650.797 1.61611 0.530639 0
M  V30 6716 O 651.982 1.89119 0.441319 0
M  V30 6717 C 649.112 3.45229 0.37868 0
M  V30 6718 C 648.066 4.25564 -0.456012 0
M  V30 6719 C 647.392 5.32848 0.444637 0
M  V30 6720 C 648.692 4.93651 -1.70605 0
M  V30 6721 H 650.386 2.72673 -1.23653 0
M  V30 6722 H 647.932 1.31086 -0.596034 0
M  V30 6723 H 649.885 4.14797 0.743037 0
M  V30 6724 H 648.609 3.01545 1.25453 0
M  V30 6725 H 647.268 3.57704 -0.802704 0
M  V30 6726 H 646.916 4.85408 1.31863 0
M  V30 6727 H 646.616 5.87497 -0.110154 0
M  V30 6728 H 648.14 6.05268 0.805182 0
M  V30 6729 H 649.554 5.55655 -1.41141 0
M  V30 6730 H 647.951 5.58233 -2.20217 0
M  V30 6731 H 649.021 4.18926 -2.4419 0
M  V30 6732 N 650.364 0.662433 1.43002 0
M  V30 6733 C 651.589 0.186003 2.06564 0
M  V30 6734 C 652.014 -1.14314 1.49379 0
M  V30 6735 O 651.372 -1.70824 0.607346 0
M  V30 6736 C 651.42 0.118269 3.60406 0
M  V30 6737 O 650.524 -0.916859 4.02079 0
M  V30 6738 H 649.865 0.0990981 0.656563 0
M  V30 6739 H 652.395 0.907958 1.8335 0
M  V30 6740 H 652.405 -0.0619981 4.07953 0
M  V30 6741 H 651.08 1.08849 4.01403 0
M  V30 6742 H 649.657 -0.708635 3.66105 0
M  V30 6743 N 651.842 -1.52309 0.404946 0
M  V30 6744 C 652.772 -2.29805 -0.41376 0
M  V30 6745 C 653.753 -1.3384 -1.0498 0
M  V30 6746 O 654.938 -1.62745 -1.05961 0
M  V30 6747 C 652.068 -3.11639 -1.53292 0
M  V30 6748 C 651.022 -4.15616 -1.02211 0
M  V30 6749 C 650.348 -4.8577 -2.23455 0
M  V30 6750 C 651.648 -5.2224 -0.0790725 0
M  V30 6751 H 653.342 -2.98493 0.232878 0
M  V30 6752 H 650.888 -1.43552 0.113441 0
M  V30 6753 H 652.841 -3.64618 -2.11262 0
M  V30 6754 H 651.565 -2.40712 -2.20738 0
M  V30 6755 H 650.224 -3.63641 -0.46484 0
M  V30 6756 H 649.872 -4.11376 -2.89445 0
M  V30 6757 H 649.572 -5.56058 -1.89929 0
M  V30 6758 H 651.096 -5.4156 -2.82038 0
M  V30 6759 H 652.51 -5.70485 -0.567438 0
M  V30 6760 H 650.907 -5.99867 0.167167 0
M  V30 6761 H 651.977 -4.77078 0.867447 0
M  V30 6762 N 653.32 -0.135238 -1.57019 0
M  V30 6763 C 654.545 0.529343 -2.00531 0
M  V30 6764 C 654.97 1.58391 -1.01459 0
M  V30 6765 O 654.328 1.81296 0.0113986 0
M  V30 6766 C 654.376 1.11748 -3.42848 0
M  V30 6767 O 653.48 2.23267 -3.46736 0
M  V30 6768 H 652.821 0.130669 -0.651016 0
M  V30 6769 H 655.351 -0.228503 -2.0332 0
M  V30 6770 H 655.361 1.44905 -3.81401 0
M  V30 6771 H 654.036 0.345147 -4.14465 0
M  V30 6772 H 652.613 1.91428 -3.20015 0
M  V30 6773 N 654.798 1.5699 0.138552 0
M  V30 6774 C 656.209 1.73171 0.697754 0
M  V30 6775 C 656.56 0.750952 1.8126 0
M  V30 6776 O 655.685 -0.080549 2.1625 0
M  V30 6777 C 656.28 3.13996 1.27248 0
M  V30 6778 C 654.839 3.3175 1.77816 0
M  V30 6779 C 653.986 2.69084 0.669991 0
M  V30 6780 H 656.937 1.5846 -0.0871979 0
M  V30 6781 H 656.958 3.14463 2.14227 0
M  V30 6782 H 656.47 3.85354 0.460855 0
M  V30 6783 H 654.571 2.65403 2.61519 0
M  V30 6784 H 654.684 4.39768 1.90107 0
M  V30 6785 H 653.048 2.29782 1.09874 0
M  V30 6786 H 653.831 3.43053 -0.130329 0
M  V30 6787 N 656.276 -0.40816 1.52223 0
M  V30 6788 C 657.524 -1.15274 1.66001 0
M  V30 6789 C 657.845 -1.91003 0.392803 0
M  V30 6790 O 657.115 -1.8673 -0.592336 0
M  V30 6791 H 655.695 -0.428526 0.611861 0
M  V30 6792 H 658.357 -0.46512 1.89269 0
M  V30 6793 H 657.453 -1.86628 2.50153 0
M  V30 6794 N 657.755 -1.42862 -0.66545 0
M  V30 6795 C 658.702 -1.4707 -1.77874 0
M  V30 6796 C 659.672 -0.321654 -1.62956 0
M  V30 6797 O 660.857 -0.52707 -1.83376 0
M  V30 6798 C 657.997 -1.38788 -3.15962 0
M  V30 6799 C 657.11 -2.63801 -3.42101 0
M  V30 6800 C 656.245 -2.47594 -4.69969 0
M  V30 6801 C 655.284 -3.67936 -4.89172 0
M  V30 6802 N 654.421 -3.50614 -6.08288 0
M  V30 6803 H 659.261 -2.42204 -1.73613 0
M  V30 6804 H 656.798 -1.20239 -0.847401 0
M  V30 6805 H 658.756 -1.31982 -3.95773 0
M  V30 6806 H 657.386 -0.472431 -3.19324 0
M  V30 6807 H 656.438 -2.80935 -2.56475 0
M  V30 6808 H 657.75 -3.53228 -3.52181 0
M  V30 6809 H 656.904 -2.38427 -5.57886 0
M  V30 6810 H 655.643 -1.55672 -4.62188 0
M  V30 6811 H 654.648 -3.77525 -3.99694 0
M  V30 6812 H 655.873 -4.60851 -4.98792 0
M  V30 6813 H 653.819 -2.61417 -6.01662 0
M  V30 6814 H 653.736 -4.33634 -6.19272 0
M  V30 6815 H 655.004 -3.45276 -6.98859 0
M  V30 6816 O 659.272 0.808226 -1.39821 0
M  V30 6817 H 659.963 1.45282 -1.28112 0
M  V30 END ATOM
M  V30 BEGIN BOND
M  V30 END BOND
M  V30 END CTAB
M  END
$$$$
