drugbank_target|P45510 Dihydroxyacetone kinase (DB01775; DB04395)
 OpenBabel12092119523D

  0  0  0     0  0            999 V3000
M  V30 BEGIN CTAB
M  V30 COUNTS 8162 8227 0 0 0
M  V30 BEGIN ATOM
M  V30 1 H -0.908 1.98254 -0.117106 0
M  V30 2 N 0 1.576 0 0
M  V30 3 C 0.933 2.03868 1.02534 0
M  V30 4 C 1.911 0.928543 1.3348 0
M  V30 5 O 3.095 1.19667 1.45644 0
M  V30 6 C 0.222 2.43627 2.35294 0
M  V30 7 C -0.732 3.65373 2.2001 0
M  V30 8 S 0.101 5.13292 1.52614 0
M  V30 9 C 1.257 5.56322 2.86805 0
M  V30 10 H 1.49 2.90518 0.631377 0
M  V30 11 H -0.977 1.52953 0.210867 0
M  V30 12 H 0.981 2.67203 3.11629 0
M  V30 13 H -0.358 1.57376 2.7183 0
M  V30 14 H -1.165 3.90944 3.18086 0
M  V30 15 H -1.563 3.418 1.51819 0
M  V30 16 H 0.729 5.58782 3.83104 0
M  V30 17 H 1.672 6.56266 2.65933 0
M  V30 18 H 2.08 4.83886 2.90714 0
M  V30 19 N 1.4781 -0.272755 1.55222 0
M  V30 20 C 2.7031 -1.02683 1.80197 0
M  V30 21 C 3.1281 -1.79142 0.573551 0
M  V30 22 O 2.4861 -1.74917 -0.476849 0
M  V30 23 C 2.5341 -1.9609 3.02624 0
M  V30 24 O 1.6381 -3.04863 2.77727 0
M  V30 25 H 0.9791 -0.293557 0.595584 0
M  V30 26 H 3.5091 -0.30159 2.02365 0
M  V30 27 H 3.5191 -2.38039 3.31363 0
M  V30 28 H 2.1941 -1.39851 3.91682 0
M  V30 29 H 0.7711 -2.67228 2.60084 0
M  V30 30 N 2.9562 -1.48159 -0.537278 0
M  V30 31 C 3.8882 -1.58218 -1.65831 0
M  V30 32 C 4.9012 -0.466948 -1.5596 0
M  V30 33 O 6.0902 -0.73747 -1.62553 0
M  V30 34 C 3.1902 -1.48906 -3.04434 0
M  V30 35 C 2.3632 -2.75343 -3.3986 0
M  V30 36 C 1.4222 -2.59588 -4.57712 0
M  V30 37 O 0.4482 -3.33457 -4.61297 0
M  V30 38 N 1.6502 -1.68724 -5.55439 0
M  V30 39 H 4.4152 -2.54891 -1.57641 0
M  V30 40 H 1.9762 -1.4479 -0.724386 0
M  V30 41 H 3.9682 -1.36072 -3.81139 0
M  V30 42 H 2.5382 -0.602368 -3.06741 0
M  V30 43 H 1.7582 -3.02795 -2.52406 0
M  V30 44 H 3.0462 -3.5924 -3.60311 0
M  V30 45 H 2.4442 -1.07898 -5.55315 0
M  V30 46 H 1.0012 -1.61832 -6.3139 0
M  V30 47 N 4.4343 0.785586 -1.36625 0
M  V30 48 C 5.6813 1.54362 -1.31067 0
M  V30 49 C 6.0093 1.94195 0.10893 0
M  V30 50 O 5.2643 1.63262 1.07908 0
M  V30 51 C 5.5633 2.83007 -2.1827 0
M  V30 52 C 5.2293 2.62294 -3.6676 0
M  V30 53 C 3.8913 2.56353 -4.0723 0
M  V30 54 C 6.2433 2.43371 -4.6089 0
M  V30 55 C 3.5713 2.29461 -5.39967 0
M  V30 56 C 5.9233 2.18005 -5.93849 0
M  V30 57 C 4.5873 2.105 -6.3344 0
M  V30 58 H 3.8573 0.564851 -0.479609 0
M  V30 59 H 6.5043 0.906028 -1.68711 0
M  V30 60 H 4.8093 3.51253 -1.73576 0
M  V30 61 H 6.5063 3.40817 -2.11292 0
M  V30 62 H 3.0963 2.67774 -3.34656 0
M  V30 63 H 7.2803 2.46959 -4.30494 0
M  V30 64 H 2.5363 2.22135 -5.69619 0
M  V30 65 H 6.7103 2.02359 -6.66351 0
M  V30 66 H 4.3373 1.89425 -7.36222 0
M  V30 67 N 5.9124 1.20967 1.01018 0
M  V30 68 C 7.1594 1.02374 1.74716 0
M  V30 69 C 7.4874 -0.443375 1.89379 0
M  V30 70 O 6.7424 -1.34535 1.42123 0
M  V30 71 C 7.0414 1.65997 3.16512 0
M  V30 72 C 6.7074 3.15831 3.2181 0
M  V30 73 C 5.3694 3.56719 3.22963 0
M  V30 74 C 7.7214 4.11816 3.19464 0
M  V30 75 C 5.0494 4.92107 3.19449 0
M  V30 76 C 7.4014 5.47158 3.17491 0
M  V30 77 C 6.0654 5.87451 3.16951 0
M  V30 78 H 5.3354 0.374614 0.639332 0
M  V30 79 H 7.9824 1.50485 1.18434 0
M  V30 80 H 6.2874 1.10166 3.75993 0
M  V30 81 H 7.9844 1.49119 3.72242 0
M  V30 82 H 4.5744 2.83263 3.21652 0
M  V30 83 H 8.7584 3.81257 3.17737 0
M  V30 84 H 4.0144 5.22579 3.17366 0
M  V30 85 H 8.1884 6.21274 3.14629 0
M  V30 86 H 5.8154 6.92329 3.13983 0
M  V30 87 N 7.3905 -1.2043 1.01659 0
M  V30 88 C 8.6375 -1.89797 0.705917 0
M  V30 89 C 8.9655 -1.78848 -0.764439 0
M  V30 90 O 8.2205 -1.16694 -1.57102 0
M  V30 91 C 8.5195 -3.40464 1.08714 0
M  V30 92 C 8.1855 -3.71614 2.5537 0
M  V30 93 C 6.8475 -3.79826 2.95441 0
M  V30 94 C 9.1995 -3.85915 3.50313 0
M  V30 95 C 6.5275 -3.99797 4.29394 0
M  V30 96 C 8.8795 -4.07396 4.83954 0
M  V30 97 C 7.5435 -4.13837 5.23732 0
M  V30 98 H 6.8135 -0.694518 0.258313 0
M  V30 99 H 9.4605 -1.42691 1.27717 0
M  V30 100 H 7.7655 -3.89385 0.434309 0
M  V30 101 H 9.4625 -3.92433 0.824461 0
M  V30 102 H 6.0525 -3.65822 2.23321 0
M  V30 103 H 10.2365 -3.78926 3.20513 0
M  V30 104 H 5.4925 -4.03018 4.59768 0
M  V30 105 H 9.6665 -4.17404 5.57447 0
M  V30 106 H 7.2935 -4.29064 6.27541 0
M  V30 107 N 8.8686 -0.792821 -1.36206 0
M  V30 108 C 9.8166 -0.181555 -2.3189 0
M  V30 109 C 10.8106 0.661025 -1.55971 0
M  V30 110 O 12.0166 0.555728 -1.71206 0
M  V30 111 H 8.3916 -0.0399382 -0.750939 0
M  V30 112 H 10.3626 -1.00394 -2.81005 0
M  V30 113 C 9.1116 0.666444 -3.41253 0
M  V30 114 H 8.4346 0.0274489 -3.99791 0
M  V30 115 H 9.8746 1.06076 -4.10517 0
M  V30 116 C 8.3336 1.82614 -2.83114 0
M  V30 117 O 8.8636 2.9229 -2.75553 0
M  V30 118 N 7.0696 1.63333 -2.40356 0
M  V30 119 H 6.6166 0.741217 -2.46706 0
M  V30 120 H 6.5746 2.41087 -2.01803 0
M  V30 121 N 10.3467 1.47872 -0.545128 0
M  V30 122 C 11.2787 2.27869 0.246621 0
M  V30 123 C 12.2917 1.36282 0.890561 0
M  V30 124 O 13.4807 1.61207 0.766449 0
M  V30 125 C 10.5807 3.10159 1.36582 0
M  V30 126 C 9.7537 4.29627 0.820954 0
M  V30 127 C 8.8127 4.93607 1.82314 0
M  V30 128 O 7.8387 5.52366 1.37406 0
M  V30 129 N 9.0407 4.87211 3.15603 0
M  V30 130 H 11.8057 2.96459 -0.439539 0
M  V30 131 H 9.3667 1.57367 -0.380421 0
M  V30 132 H 11.3587 3.49829 2.03474 0
M  V30 133 H 9.9287 2.43891 1.9554 0
M  V30 134 H 9.1487 3.94192 -0.0244032 0
M  V30 135 H 10.4367 5.06928 0.436063 0
M  V30 136 H 9.8347 4.40651 3.54744 0
M  V30 137 H 8.3917 5.30937 3.78087 0
M  V30 138 N 11.8248 0.280983 1.55075 0
M  V30 139 C 13.2408 -0.0729964 1.59433 0
M  V30 140 C 13.4408 -1.5411 1.29817 0
M  V30 141 O 12.4968 -2.29086 1.06187 0
M  V30 142 C 13.8098 0.306921 2.9913 0
M  V30 143 C 15.3578 0.254023 3.11968 0
M  V30 144 C 15.8328 0.608467 4.5394 0
M  V30 145 N 17.3238 0.560241 4.59799 0
M  V30 146 C 18.0588 0.80722 5.6769 0
M  V30 147 N 17.5548 1.11912 6.83701 0
M  V30 148 N 19.3478 0.735623 5.57266 0
M  V30 149 H 11.4988 1.238 1.7259 0
M  V30 150 H 13.7618 0.500547 0.805082 0
M  V30 151 H 13.4678 1.32816 3.25657 0
M  V30 152 H 13.3418 -0.349363 3.75579 0
M  V30 153 H 15.7288 -0.75794 2.852 0
M  V30 154 H 15.8098 0.944649 2.37718 0
M  V30 155 H 15.4538 1.61814 4.81434 0
M  V30 156 H 15.3838 -0.104013 5.26497 0
M  V30 157 H 17.8748 0.329288 3.76463 0
M  V30 158 H 18.1878 1.29409 7.61888 0
M  V30 159 H 16.5328 1.15695 6.85303 0
M  V30 160 H 19.7238 0.491752 4.6551 0
M  V30 161 H 19.8968 0.931482 6.4127 0
M  V30 162 N 13.3029 -1.57598 0.00835791 0
M  V30 163 C 14.5309 -1.95214 -0.68549 0
M  V30 164 C 14.9459 -0.883706 -1.66841 0
M  V30 165 O 14.3029 0.136565 -1.81988 0
M  V30 166 C 14.3539 -3.32865 -1.41007 0
M  V30 167 O 14.0749 -4.35609 -0.466552 0
M  V30 168 C 15.5759 -3.84991 -2.19765 0
M  V30 169 H 12.7959 -0.643422 -0.190392 0
M  V30 170 H 15.3399 -2.04406 0.0619607 0
M  V30 171 H 13.4949 -3.24956 -2.10908 0
M  V30 172 H 13.9089 -5.15288 -0.978699 0
M  V30 173 H 15.3829 -4.8371 -2.65948 0
M  V30 174 H 15.8599 -3.18137 -3.02796 0
M  V30 175 H 16.4659 -3.96103 -1.54864 0
M  V30 176 N 14.781 0.264519 -1.55364 0
M  V30 177 C 15.731 1.32966 -1.85214 0
M  V30 178 C 16.715 1.44306 -0.711653 0
M  V30 179 O 17.907 1.47844 -0.973192 0
M  V30 180 C 15.036 2.68839 -2.13495 0
M  V30 181 C 14.122 2.61575 -3.33825 0
M  V30 182 N 14.513 2.23933 -4.53528 0
M  V30 183 C 12.811 2.92621 -3.36584 0
M  V30 184 C 13.512 2.26868 -5.35636 0
M  V30 185 N 12.488 2.65677 -4.74254 0
M  V30 186 H 16.29 1.02884 -2.75304 0
M  V30 187 H 13.804 0.473157 -1.55354 0
M  V30 188 H 15.801 3.45685 -2.33039 0
M  V30 189 H 14.461 2.99802 -1.24694 0
M  V30 190 H 15.472 1.95769 -4.79474 0
M  V30 191 H 12.149 3.2824 -2.58002 0
M  V30 192 H 13.539 2.00254 -6.41364 0
M  V30 193 N 16.2591 1.48442 0.529413 0
M  V30 194 C 17.1891 1.65902 1.64313 0
M  V30 195 C 18.1701 0.507897 1.6234 0
M  V30 196 O 19.3551 0.740503 1.79528 0
M  V30 197 C 16.4851 1.69911 3.02898 0
M  V30 198 C 15.4391 2.8453 3.19729 0
M  V30 199 C 14.7651 2.73629 4.59381 0
M  V30 200 C 16.0651 4.25821 3.02447 0
M  V30 201 H 17.7591 2.5914 1.49955 0
M  V30 202 H 15.3051 1.24709 0.719982 0
M  V30 203 H 17.2581 1.80715 3.80684 0
M  V30 204 H 15.9821 0.732524 3.18279 0
M  V30 205 H 14.6411 2.73283 2.44361 0
M  V30 206 H 14.2891 1.74938 4.71599 0
M  V30 207 H 13.9891 3.50541 4.71588 0
M  V30 208 H 15.5131 2.86401 5.39265 0
M  V30 209 H 16.9271 4.37898 3.70024 0
M  V30 210 H 15.3241 5.03735 3.26146 0
M  V30 211 H 16.3941 4.42244 1.98867 0
M  V30 212 N 17.7372 -0.778329 1.37039 0
M  V30 213 C 18.9832 -1.53892 1.32079 0
M  V30 214 C 19.3162 -1.9396 -0.0965386 0
M  V30 215 O 18.5912 -1.63568 -1.05242 0
M  V30 216 C 18.8742 -2.80847 2.25382 0
M  V30 217 C 18.7272 -2.47076 3.75864 0
M  V30 218 C 20.0462 -3.82741 2.1725 0
M  V30 219 H 17.1652 -0.558303 0.48111 0
M  V30 220 H 19.8072 -0.893397 1.67685 0
M  V30 221 H 17.9572 -3.35931 1.95148 0
M  V30 222 H 19.6292 -1.97957 4.16666 0
M  V30 223 H 17.8722 -1.79863 3.94755 0
M  V30 224 H 18.5432 -3.37798 4.36574 0
M  V30 225 H 21.0192 -3.37133 2.43887 0
M  V30 226 H 19.8952 -4.69303 2.84686 0
M  V30 227 H 20.1562 -4.2652 1.16331 0
M  V30 228 N 19.2153 -1.21501 -1.00376 0
M  V30 229 C 20.4403 -1.05977 -1.78279 0
M  V30 230 C 20.8653 0.385994 -1.84097 0
M  V30 231 O 20.2233 1.27849 -1.28547 0
M  V30 232 C 20.2713 -1.66302 -3.19963 0
M  V30 233 O 19.3753 -0.909333 -4.0225 0
M  V30 234 H 18.7163 -0.372906 -0.549397 0
M  V30 235 H 21.2463 -1.6107 -1.26165 0
M  V30 236 H 21.2563 -1.70574 -3.70632 0
M  V30 237 H 19.9313 -2.71515 -3.15043 0
M  V30 238 H 18.5083 -0.941795 -3.60811 0
M  V30 239 N 20.6934 1.19889 -1.02296 0
M  V30 240 C 21.9704 1.85148 -0.630832 0
M  V30 241 C 22.3504 1.91385 0.890782 0
M  V30 242 O 21.6984 1.42642 1.78509 0
M  V30 243 C 21.9084 3.24442 -1.28602 0
M  V30 244 C 23.2564 4.00663 -1.4055 0
M  V30 245 O 24.2804 3.33818 -1.24273 0
M  V30 246 O 23.1394 5.20387 -1.66913 0
M  V30 247 H 20.2334 0.797613 -0.218499 0
M  V30 248 H 22.7794 1.27427 -1.12074 0
M  V30 249 H 21.5514 3.14704 -2.32545 0
M  V30 250 H 21.1744 3.89802 -0.7836 0
M  V30 251 N 22.1715 0.800033 1.35784 0
M  V30 252 C 23.4175 0.377901 1.99248 0
M  V30 253 C 23.7505 -1.05052 1.63333 0
M  V30 254 O 23.0255 -1.72768 0.893385 0
M  V30 255 C 23.3085 0.553922 3.55814 0
M  V30 256 C 23.1615 2.0268 4.01548 0
M  V30 257 C 24.4805 -0.0244802 4.40093 0
M  V30 258 H 21.5995 0.138782 0.723815 0
M  V30 259 H 24.2415 1.00835 1.61035 0
M  V30 260 H 22.3915 0.0172398 3.88496 0
M  V30 261 H 24.0635 2.62536 3.79305 0
M  V30 262 H 22.3065 2.5256 3.52698 0
M  V30 263 H 22.9775 2.10087 5.10458 0
M  V30 264 H 25.4535 0.433775 4.13833 0
M  V30 265 H 24.3295 0.128637 5.48749 0
M  V30 266 H 24.5905 -1.11758 4.27741 0
M  V30 267 N 23.6496 -1.47581 0.552962 0
M  V30 268 C 24.8986 -2.01684 0.0251995 0
M  V30 269 C 25.2116 -1.43317 -1.33115 0
M  V30 270 O 26.4176 -1.89057 -1.94858 0
M  V30 271 C 24.8736 -3.599 -0.00542052 0
M  V30 272 C 24.4816 -4.27257 1.34742 0
M  V30 273 C 26.2256 -4.21768 -0.4808 0
M  V30 274 C 24.1326 -5.77467 1.27614 0
M  V30 275 H 23.0626 -0.753979 0.00565033 0
M  V30 276 H 25.7136 -1.69616 0.70018 0
M  V30 277 H 24.0956 -3.88911 -0.745961 0
M  V30 278 H 25.2696 -4.09893 2.10534 0
M  V30 279 H 23.5846 -3.77358 1.76039 0
M  V30 280 H 26.1816 -5.31838 -0.55246 0
M  V30 281 H 26.5246 -3.88651 -1.49184 0
M  V30 282 H 27.0576 -3.97273 0.204752 0
M  V30 283 H 23.7966 -6.15196 2.26304 0
M  V30 284 H 23.3166 -5.9718 0.55996 0
M  V30 285 H 24.9956 -6.3959 0.976421 0
M  V30 286 N 25.1277 -0.289203 -1.54924 0
M  V30 287 C 26.4047 0.376032 -1.91951 0
M  V30 288 C 26.7847 1.72622 -1.21511 0
M  V30 289 O 26.1327 2.25853 -0.346767 0
M  V30 290 C 26.3427 0.502378 -3.45365 0
M  V30 291 C 27.6907 0.778741 -4.17398 0
M  V30 292 O 28.7147 0.586647 -3.51336 0
M  V30 293 O 27.5737 1.14698 -5.34328 0
M  V30 294 H 24.6677 0.208167 -0.800372 0
M  V30 295 H 27.2137 -0.336394 -1.66332 0
M  V30 296 H 25.9857 -0.447255 -3.88736 0
M  V30 297 H 25.6087 1.26373 -3.76982 0
M  V30 298 N 26.6058 1.57591 -0.0167156 0
M  V30 299 C 27.8538 1.90906 0.663285 0
M  V30 300 C 28.1748 0.892509 1.73376 0
M  V30 301 O 27.4448 -0.0677623 1.95783 0
M  V30 302 H 26.0248 0.704637 0.247983 0
M  V30 303 H 28.6868 1.94803 -0.0615909 0
M  V30 304 H 27.7828 2.9116 1.12393 0
M  V30 305 N 28.0839 -0.256276 1.55502 0
M  V30 306 C 29.0469 -1.30047 1.88734 0
M  V30 307 C 30.0469 -1.4154 0.763086 0
M  V30 308 O 31.2369 -1.40403 1.03115 0
M  V30 309 C 28.3689 -2.67953 2.10747 0
M  V30 310 H 29.5619 -1.01802 2.82093 0
M  V30 311 H 27.1149 -0.495134 1.4825 0
M  V30 312 H 27.8499 -3.01351 1.19825 0
M  V30 313 H 27.6349 -2.60993 2.92617 0
M  V30 314 H 29.1249 -3.43368 2.37673 0
M  V30 315 N 29.562 -1.4872 -0.521534 0
M  V30 316 C 30.811 -1.56419 -1.27341 0
M  V30 317 C 31.124 -0.246805 -1.94037 0
M  V30 318 O 32.33 -0.202122 -2.70747 0
M  V30 319 C 30.786 -2.75896 -2.31105 0
M  V30 320 C 30.394 -4.14311 -1.70441 0
M  V30 321 C 32.138 -2.92913 -3.07249 0
M  V30 322 C 30.045 -5.25038 -2.72194 0
M  V30 323 H 28.975 -0.582344 -0.478949 0
M  V30 324 H 31.626 -1.75071 -0.549779 0
M  V30 325 H 30.008 -2.50697 -3.06541 0
M  V30 326 H 31.182 -4.49564 -1.01136 0
M  V30 327 H 29.497 -4.02482 -1.06759 0
M  V30 328 H 32.094 -3.72805 -3.83302 0
M  V30 329 H 32.437 -2.02689 -3.63625 0
M  V30 330 H 32.97 -3.18054 -2.38928 0
M  V30 331 H 29.709 -6.17255 -2.20627 0
M  V30 332 H 29.229 -4.94263 -3.39801 0
M  V30 333 H 30.908 -5.53508 -3.35019 0
M  V30 334 N 31.0401 0.771051 -1.3745 0
M  V30 335 C 32.2891 1.52491 -1.3202 0
M  V30 336 C 32.6021 1.9538 0.0927347 0
M  V30 337 O 33.8081 2.70159 0.269503 0
M  V30 338 C 32.2641 2.75366 -2.31736 0
M  V30 339 C 31.8721 2.39573 -3.78562 0
M  V30 340 C 33.6161 3.53307 -2.35318 0
M  V30 341 C 31.5231 3.58954 -4.70007 0
M  V30 342 H 30.4531 0.572506 -0.490666 0
M  V30 343 H 33.1041 0.844474 -1.62914 0
M  V30 344 H 31.4861 3.45303 -1.93861 0
M  V30 345 H 32.6601 1.77415 -4.25277 0
M  V30 346 H 30.9751 1.74805 -3.77932 0
M  V30 347 H 33.5721 4.42039 -3.00842 0
M  V30 348 H 33.9151 3.93217 -1.36698 0
M  V30 349 H 34.4481 2.90367 -2.71904 0
M  V30 350 H 31.1871 3.24125 -5.69757 0
M  V30 351 H 30.7071 4.20214 -4.27996 0
M  V30 352 H 32.3861 4.25758 -4.87175 0
M  V30 353 N 32.5182 1.22032 0.997298 0
M  V30 354 C 33.4812 0.987909 2.06816 0
M  V30 355 C 34.4812 -0.0440084 1.6074 0
M  V30 356 O 35.6712 0.194053 1.73116 0
M  V30 357 C 32.8032 0.49132 3.37341 0
M  V30 358 H 33.9962 1.93803 2.28868 0
M  V30 359 H 31.5492 1.03838 1.16822 0
M  V30 360 H 32.2842 -0.463364 3.20973 0
M  V30 361 H 32.0692 1.23575 3.72118 0
M  V30 362 H 33.5592 0.348824 4.16141 0
M  V30 363 N 33.9963 -1.19345 1.0293 0
M  V30 364 C 35.2213 -1.93538 0.745511 0
M  V30 365 C 35.6463 -1.75007 -0.689511 0
M  V30 366 O 35.0043 -1.05265 -1.47611 0
M  V30 367 C 35.0523 -3.43336 1.10239 0
M  V30 368 O 34.1563 -4.11806 0.221289 0
M  V30 369 H 33.4973 -0.604193 0.275404 0
M  V30 370 H 36.0273 -1.5141 1.37609 0
M  V30 371 H 36.0373 -3.94004 1.05947 0
M  V30 372 H 34.7123 -3.56146 2.14786 0
M  V30 373 H 33.2893 -3.715 0.322842 0
M  V30 374 N 35.4744 -0.807222 -1.35358 0
M  V30 375 C 36.8854 -0.44876 -1.81226 0
M  V30 376 C 37.2364 1.02929 -1.67033 0
M  V30 377 O 36.3614 1.79991 -1.20133 0
M  V30 378 C 36.9564 -0.807774 -3.2903 0
M  V30 379 C 35.5154 -0.501901 -3.73039 0
M  V30 380 C 34.6624 -1.03304 -2.57339 0
M  V30 381 H 37.6134 -0.998808 -1.23327 0
M  V30 382 H 37.6344 -0.10554 -3.80354 0
M  V30 383 H 37.1464 -1.88357 -3.39328 0
M  V30 384 H 35.2474 0.565128 -3.68289 0
M  V30 385 H 35.3604 -1.03497 -4.67787 0
M  V30 386 H 33.7244 -0.455339 -2.50597 0
M  V30 387 H 34.5074 -2.11496 -2.70415 0
M  V30 388 N 36.9525 1.47285 -0.560781 0
M  V30 389 C 38.1985 2.03347 -0.0463654 0
M  V30 390 C 38.5535 1.42702 1.2905 0
M  V30 391 O 37.8465 0.574619 1.8278 0
M  V30 392 C 38.0405 3.57258 0.100784 0
M  V30 393 C 37.8695 4.32827 -1.22027 0
M  V30 394 C 36.6395 4.72588 -1.78854 0
M  V30 395 C 38.8375 4.67739 -2.13834 0
M  V30 396 N 36.8195 5.32816 -3.04927 0
M  V30 397 C 38.1905 5.28307 -3.24487 0
M  V30 398 C 40.2455 4.49667 -2.13784 0
M  V30 399 C 38.9485 5.72711 -4.35194 0
M  V30 400 C 40.9745 4.95073 -3.23506 0
M  V30 401 C 40.3365 5.55693 -4.32879 0
M  V30 402 H 36.4355 0.779755 -0.0592166 0
M  V30 403 H 39.0195 1.79723 -0.748857 0
M  V30 404 H 37.1905 3.80642 0.772404 0
M  V30 405 H 38.9225 3.9996 0.617589 0
M  V30 406 H 35.6775 4.54656 -1.32609 0
M  V30 407 H 36.1015 5.67471 -3.69197 0
M  V30 408 H 40.7435 4.02154 -1.30507 0
M  V30 409 H 38.4615 6.19214 -5.1923 0
M  V30 410 H 42.0475 4.82859 -3.24559 0
M  V30 411 H 40.9275 5.90188 -5.1638 0
M  V30 412 N 38.4306 0.297415 1.54768 0
M  V30 413 C 39.3786 -0.596051 2.24833 0
M  V30 414 C 40.3726 -1.13992 1.25308 0
M  V30 415 O 41.5786 -1.09098 1.4317 0
M  V30 416 H 37.9536 -0.210814 0.721846 0
M  V30 417 H 39.9246 0.0174667 2.98395 0
M  V30 418 C 38.6736 -1.75818 2.99972 0
M  V30 419 H 37.9966 -1.3489 3.76357 0
M  V30 420 H 39.4366 -2.35949 3.52284 0
M  V30 421 C 37.8956 -2.66014 2.06732 0
M  V30 422 O 38.4256 -3.67009 1.63302 0
M  V30 423 N 36.6316 -2.33669 1.72763 0
M  V30 424 H 36.1786 -1.51586 2.08277 0
M  V30 425 H 36.1366 -2.94285 1.10652 0
M  V30 426 N 39.9087 -1.5758 0.0250728 0
M  V30 427 C 40.8567 -2.11125 -0.97617 0
M  V30 428 C 41.8507 -1.03689 -1.33959 0
M  V30 429 O 43.0567 -1.22128 -1.3223 0
M  V30 430 H 39.4317 -0.674468 -0.332561 0
M  V30 431 H 41.4027 -2.94194 -0.499223 0
M  V30 432 C 40.1517 -2.65017 -2.2508 0
M  V30 433 H 39.4747 -3.47333 -1.9799 0
M  V30 434 H 40.9147 -3.06133 -2.93357 0
M  V30 435 C 39.3737 -1.57574 -2.97779 0
M  V30 436 O 39.9037 -0.973203 -3.89733 0
M  V30 437 N 38.1097 -1.29716 -2.60043 0
M  V30 438 H 37.6567 -1.789 -1.85345 0
M  V30 439 H 37.6147 -0.58051 -3.08994 0
M  V30 440 N 41.3868 0.248026 -1.55636 0
M  V30 441 C 42.3168 1.31079 -1.93237 0
M  V30 442 C 43.2978 1.50264 -0.797174 0
M  V30 443 O 44.4828 1.62891 -1.05737 0
M  V30 444 C 41.6128 2.66575 -2.22609 0
M  V30 445 C 40.5668 2.62087 -3.3837 0
M  V30 446 C 39.8928 4.01369 -3.53281 0
M  V30 447 C 41.1928 2.19171 -4.7409 0
M  V30 448 H 42.8868 0.998556 -2.82257 0
M  V30 449 H 40.4328 0.47891 -1.35803 0
M  V30 450 H 42.3858 3.41057 -2.47503 0
M  V30 451 H 41.1098 2.99432 -1.30414 0
M  V30 452 H 39.7688 1.90063 -3.13483 0
M  V30 453 H 39.4168 4.31489 -2.58508 0
M  V30 454 H 39.1168 3.99254 -4.31127 0
M  V30 455 H 40.6408 4.77552 -3.80495 0
M  V30 456 H 42.0548 2.83384 -4.98363 0
M  V30 457 H 40.4518 2.2817 -5.5503 0
M  V30 458 H 41.5218 1.14336 -4.71227 0
M  V30 459 N 42.8649 1.48995 0.513639 0
M  V30 460 C 43.8279 1.64229 1.59879 0
M  V30 461 C 44.8279 0.514696 1.5234 0
M  V30 462 O 46.0179 0.78087 1.55718 0
M  V30 463 C 43.1499 1.62783 2.99524 0
M  V30 464 H 44.3429 2.61004 1.47705 0
M  V30 465 H 41.8959 1.37837 0.736936 0
M  V30 466 H 42.6309 0.675461 3.17188 0
M  V30 467 H 42.4159 2.4466 3.06404 0
M  V30 468 H 43.9059 1.76669 3.78388 0
M  V30 469 N 44.343 -0.763751 1.37857 0
M  V30 470 C 45.759 -1.06542 1.18832 0
M  V30 471 C 45.959 -2.01478 0.0299722 0
M  V30 472 O 45.015 -2.4458 -0.627447 0
M  V30 473 C 46.328 -1.65525 2.51042 0
M  V30 474 C 47.876 -1.77745 2.57635 0
M  V30 475 C 48.351 -2.4014 3.89996 0
M  V30 476 N 49.842 -2.47582 3.91481 0
M  V30 477 C 50.577 -2.96732 4.9065 0
M  V30 478 N 50.073 -3.45993 6.00217 0
M  V30 479 N 51.866 -2.95679 4.78048 0
M  V30 480 H 44.017 -0.133556 2.1198 0
M  V30 481 H 46.28 -0.121879 0.940133 0
M  V30 482 H 45.986 -1.03236 3.36207 0
M  V30 483 H 45.86 -2.64719 2.68707 0
M  V30 484 H 48.247 -2.39164 1.72872 0
M  V30 485 H 48.328 -0.772836 2.43846 0
M  V30 486 H 47.972 -1.79358 4.75177 0
M  V30 487 H 47.902 -3.41223 4.01092 0
M  V30 488 H 50.393 -2.1273 3.12337 0
M  V30 489 H 50.706 -3.81922 6.7183 0
M  V30 490 H 49.051 -3.44077 6.03851 0
M  V30 491 H 52.242 -2.56499 3.91568 0
M  V30 492 H 52.415 -3.33672 5.55488 0
M  V30 493 N 45.8211 -1.22559 -0.990812 0
M  V30 494 C 46.7511 -1.0218 -2.09956 0
M  V30 495 C 47.7321 0.0579394 -1.70001 0
M  V30 496 O 48.9171 -0.104684 -1.93918 0
M  V30 497 C 46.0471 -0.601023 -3.4206 0
M  V30 498 C 45.0011 -1.62694 -3.95872 0
M  V30 499 C 44.3271 -1.06193 -5.24049 0
M  V30 500 C 45.6271 -3.01743 -4.2632 0
M  V30 501 H 47.3211 -1.94916 -2.27262 0
M  V30 502 H 44.8671 -0.938566 -1.09211 0
M  V30 503 H 46.8201 -0.445561 -4.19038 0
M  V30 504 H 45.5441 0.362005 -3.24588 0
M  V30 505 H 44.2031 -1.77021 -3.21028 0
M  V30 506 H 43.8511 -0.0901903 -5.02919 0
M  V30 507 H 43.5511 -1.74732 -5.61019 0
M  V30 508 H 45.0751 -0.918092 -6.03658 0
M  V30 509 H 46.4891 -2.90777 -4.94087 0
M  V30 510 H 44.8861 -3.67425 -4.74467 0
M  V30 511 H 45.9561 -3.51518 -3.34011 0
M  V30 512 N 47.2992 1.18797 -1.03562 0
M  V30 513 C 48.2092 2.25913 -0.632505 0
M  V30 514 C 49.2252 1.70668 0.338882 0
M  V30 515 O 50.4012 2.00453 0.195076 0
M  V30 516 C 47.4662 3.467 0.00350942 0
M  V30 517 C 46.5272 4.17098 -1.01624 0
M  V30 518 C 45.7602 5.32119 -0.410478 0
M  V30 519 O 45.9832 5.64976 0.784725 0
M  V30 520 O 44.9172 5.9107 -1.13667 0
M  V30 521 H 48.7432 2.62648 -1.52478 0
M  V30 522 H 46.3282 1.25781 -0.806195 0
M  V30 523 H 48.2102 4.19878 0.35781 0
M  V30 524 H 46.8852 3.11798 0.869686 0
M  V30 525 H 45.7922 3.4601 -1.42224 0
M  V30 526 H 47.1252 4.55987 -1.85301 0
M  V30 527 N 48.7773 0.814389 1.34928 0
M  V30 528 C 50.0023 0.410097 2.03305 0
M  V30 529 C 50.4273 -0.973464 1.60951 0
M  V30 530 O 49.7853 -1.63185 0.789964 0
M  V30 531 C 49.8333 0.51049 3.56968 0
M  V30 532 O 48.9373 -0.473035 4.09678 0
M  V30 533 H 48.2783 0.170088 0.641846 0
M  V30 534 H 50.8083 1.10244 1.72358 0
M  V30 535 H 50.8183 0.383135 4.06197 0
M  V30 536 H 49.4933 1.51963 3.87144 0
M  V30 537 H 48.0703 -0.305272 3.71648 0
M  V30 538 N 50.2554 -1.46986 0.568584 0
M  V30 539 C 51.5324 -1.95592 -0.0174074 0
M  V30 540 C 51.9124 -1.51124 -1.47393 0
M  V30 541 O 51.2604 -0.755329 -2.15655 0
M  V30 542 C 51.4704 -3.48719 0.139913 0
M  V30 543 C 52.8184 -4.246 0.000426376 0
M  V30 544 O 53.8424 -3.56135 0.0680316 0
M  V30 545 O 52.7014 -5.46302 -0.146988 0
M  V30 546 H 49.7954 -0.82498 -0.0577599 0
M  V30 547 H 52.3414 -1.57335 0.635909 0
M  V30 548 H 51.1134 -3.73927 1.15301 0
M  V30 549 H 50.7364 -3.93771 -0.550491 0
M  V30 550 N 51.7335 -0.305618 -1.54608 0
M  V30 551 C 53.1445 0.186098 -1.8577 0
M  V30 552 C 53.4955 1.53058 -1.22751 0
M  V30 553 O 52.6205 2.09888 -0.526893 0
M  V30 554 C 53.2155 0.344449 -3.37044 0
M  V30 555 C 51.7745 0.780384 -3.68221 0
M  V30 556 C 50.9215 -0.108554 -2.77087 0
M  V30 557 H 53.8725 -0.526485 -1.49712 0
M  V30 558 H 53.8935 1.17828 -3.61796 0
M  V30 559 H 53.4055 -0.634235 -3.82883 0
M  V30 560 H 51.5065 1.76945 -3.27904 0
M  V30 561 H 51.6195 0.596572 -4.75371 0
M  V30 562 H 49.9835 0.412931 -2.5133 0
M  V30 563 H 50.7665 -1.08368 -3.25747 0
M  V30 564 N 53.2116 1.57565 -0.0334293 0
M  V30 565 C 54.1746 2.09393 0.932048 0
M  V30 566 C 55.1746 1.00986 1.25134 0
M  V30 567 O 56.3646 1.27129 1.19096 0
M  V30 568 C 53.4966 2.56338 2.2473 0
M  V30 569 H 54.6896 2.95984 0.483085 0
M  V30 570 H 52.2426 1.54819 0.21468 0
M  V30 571 H 52.9776 1.7309 2.74245 0
M  V30 572 H 52.7626 3.35542 2.02865 0
M  V30 573 H 54.2526 2.96646 2.93923 0
M  V30 574 N 54.6897 -0.239769 1.55765 0
M  V30 575 C 55.9387 -0.964754 1.77131 0
M  V30 576 C 56.2517 -1.86213 0.59868 0
M  V30 577 O 57.4577 -2.6244 0.695522 0
M  V30 578 C 55.9137 -1.76552 3.1362 0
M  V30 579 C 55.5217 -0.915185 4.38553 0
M  V30 580 C 57.2657 -2.48281 3.44321 0
M  V30 581 C 55.1727 -1.71225 5.66071 0
M  V30 582 H 54.1027 -0.363953 0.660344 0
M  V30 583 H 56.7537 -0.219181 1.82186 0
M  V30 584 H 55.1357 -2.55331 3.02691 0
M  V30 585 H 56.3097 -0.169217 4.60489 0
M  V30 586 H 54.6247 -0.310889 4.15238 0
M  V30 587 H 57.2217 -3.08382 4.36812 0
M  V30 588 H 57.5647 -3.20256 2.65973 0
M  V30 589 H 58.0977 -1.76507 3.56497 0
M  V30 590 H 54.8367 -1.03612 6.4726 0
M  V30 591 H 54.3567 -2.43331 5.48224 0
M  V30 592 H 56.0357 -2.27758 6.05587 0
M  V30 593 N 56.1678 -1.49265 -0.50573 0
M  V30 594 C 57.5838 -1.35923 -0.836486 0
M  V30 595 C 57.7838 -0.388704 -1.97715 0
M  V30 596 O 56.8398 0.181336 -2.51848 0
M  V30 597 C 58.1528 -2.76531 -1.18115 0
M  V30 598 C 59.7008 -2.85197 -1.28964 0
M  V30 599 C 60.1758 -4.26561 -1.66761 0
M  V30 600 N 61.6668 -4.2935 -1.73819 0
M  V30 601 C 62.4018 -5.35693 -2.045 0
M  V30 602 N 61.8978 -6.52287 -2.33438 0
M  V30 603 N 63.6908 -5.23105 -2.05711 0
M  V30 604 H 55.8418 -2.10965 0.246519 0
M  V30 605 H 58.1048 -0.9468 0.0476887 0
M  V30 606 H 57.8108 -3.49226 -0.416398 0
M  V30 607 H 57.6848 -3.11599 -2.1257 0
M  V30 608 H 60.0718 -2.12742 -2.04511 0
M  V30 609 H 60.1528 -2.53718 -0.325704 0
M  V30 610 H 59.7968 -4.99541 -0.917656 0
M  V30 611 H 59.7268 -4.55502 -2.64246 0
M  V30 612 H 62.2178 -3.4526 -1.53635 0
M  V30 613 H 62.5308 -7.29158 -2.56024 0
M  V30 614 H 60.8758 -6.55521 -2.30905 0
M  V30 615 H 64.0668 -4.31026 -1.82577 0
M  V30 616 H 64.2398 -6.06078 -2.29289 0
M  V30 617 N 57.6459 0.756429 -1.3826 0
M  V30 618 C 58.8949 1.51082 -1.3363 0
M  V30 619 C 59.2079 1.95467 0.0720068 0
M  V30 620 O 60.4139 2.7043 0.240834 0
M  V30 621 C 58.8699 2.72893 -2.34644 0
M  V30 622 C 58.4779 2.35544 -3.81081 0
M  V30 623 C 60.2219 3.50791 -2.39052 0
M  V30 624 C 58.1289 3.53948 -4.73787 0
M  V30 625 H 57.0589 0.56727 -0.49671 0
M  V30 626 H 59.7099 0.827147 -1.638 0
M  V30 627 H 58.0919 3.43227 -1.97513 0
M  V30 628 H 59.2659 1.72894 -4.27135 0
M  V30 629 H 57.5809 1.70786 -3.79764 0
M  V30 630 H 60.1779 4.38823 -3.05513 0
M  V30 631 H 60.5209 3.91745 -1.40861 0
M  V30 632 H 61.0539 2.87467 -2.74968 0
M  V30 633 H 57.7929 3.18064 -5.73163 0
M  V30 634 H 57.3129 4.15651 -4.32428 0
M  V30 635 H 58.9919 4.20566 -4.91663 0
M  V30 636 N 59.124 1.23083 0.984299 0
M  V30 637 C 60.37 1.06214 1.72761 0
M  V30 638 C 60.703 -0.400584 1.90024 0
M  V30 639 O 59.978 -1.29672 1.44967 0
M  V30 640 C 60.261 1.78375 3.12817 0
M  V30 641 C 60.114 3.32296 3.03149 0
M  V30 642 C 61.433 1.54309 4.12161 0
M  V30 643 H 58.552 0.387251 0.627061 0
M  V30 644 H 61.194 1.51536 1.14616 0
M  V30 645 H 59.344 1.39848 3.62457 0
M  V30 646 H 61.016 3.8032 2.61064 0
M  V30 647 H 59.259 3.6153 2.39747 0
M  V30 648 H 59.93 3.77972 4.02295 0
M  V30 649 H 62.406 1.87791 3.71314 0
M  V30 650 H 61.282 2.07281 5.08258 0
M  V30 651 H 61.543 0.477572 4.39513 0
M  V30 652 N 60.6021 -1.18246 1.0419 0
M  V30 653 C 61.8481 -1.88536 0.747122 0
M  V30 654 C 62.1811 -1.80223 -0.723409 0
M  V30 655 O 61.4561 -1.20337 -1.52804 0
M  V30 656 C 61.7391 -3.38968 1.21544 0
M  V30 657 C 61.5921 -3.56084 2.74816 0
M  V30 658 C 62.9111 -4.32648 0.806482 0
M  V30 659 H 60.0301 -0.684619 0.272883 0
M  V30 660 H 62.6721 -1.39113 1.29413 0
M  V30 661 H 60.8221 -3.8119 0.750081 0
M  V30 662 H 62.4941 -3.22946 3.29399 0
M  V30 663 H 60.7371 -2.98699 3.14582 0
M  V30 664 H 61.4081 -4.61639 3.02644 0
M  V30 665 H 63.8841 -3.98211 1.20695 0
M  V30 666 H 62.7601 -5.36462 1.1619 0
M  V30 667 H 63.0211 -4.41146 -0.29029 0
M  V30 668 N 62.0802 -0.821533 -1.34494 0
M  V30 669 C 63.4962 -0.507117 -1.51329 0
M  V30 670 C 63.6962 0.968964 -1.76673 0
M  V30 671 O 62.7522 1.75348 -1.81685 0
M  V30 672 C 64.0652 -1.36544 -2.67911 0
M  V30 673 C 65.6132 -1.36242 -2.81793 0
M  V30 674 C 66.0882 -2.2052 -4.01416 0
M  V30 675 N 67.5792 -2.18136 -4.08621 0
M  V30 676 C 68.3142 -2.80095 -5.00334 0
M  V30 677 N 67.8102 -3.51039 -5.9728 0
M  V30 678 N 69.6032 -2.69656 -4.93196 0
M  V30 679 H 61.7542 -1.77729 -1.16302 0
M  V30 680 H 64.0172 -0.757291 -0.570276 0
M  V30 681 H 63.7232 -2.41361 -2.55808 0
M  V30 682 H 63.5972 -1.02917 -3.62888 0
M  V30 683 H 65.9842 -0.322041 -2.93338 0
M  V30 684 H 66.0652 -1.73866 -1.87628 0
M  V30 685 H 65.7092 -3.24607 -3.90631 0
M  V30 686 H 65.6392 -1.80247 -4.94791 0
M  V30 687 H 68.1302 -1.6653 -3.39229 0
M  V30 688 H 68.4432 -3.95565 -6.63889 0
M  V30 689 H 66.7882 -3.55145 -5.97409 0
M  V30 690 H 69.9792 -2.13808 -4.16418 0
M  V30 691 H 70.1522 -3.1823 -5.64476 0
M  V30 692 N 63.5583 1.46682 -0.576371 0
M  V30 693 C 64.9743 1.57822 -0.237562 0
M  V30 694 C 65.1743 1.57237 1.26011 0
M  V30 695 O 64.2303 1.48596 2.04146 0
M  V30 696 C 65.5433 2.87499 -0.881168 0
M  V30 697 C 67.0913 3.01119 -0.85417 0
M  V30 698 C 67.5663 4.33524 -1.4772 0
M  V30 699 N 69.0573 4.40207 -1.44125 0
M  V30 700 C 69.7923 5.4126 -1.89276 0
M  V30 701 N 69.2883 6.49021 -2.42371 0
M  V30 702 N 71.0813 5.32422 -1.80231 0
M  V30 703 H 63.2323 1.45306 -1.54919 0
M  V30 704 H 65.4953 0.692733 -0.647167 0
M  V30 705 H 65.2013 2.9372 -1.93447 0
M  V30 706 H 65.0753 3.75224 -0.385592 0
M  V30 707 H 67.4623 2.94485 0.190491 0
M  V30 708 H 67.5433 2.14887 -1.3877 0
M  V30 709 H 67.1873 4.40916 -2.52103 0
M  V30 710 H 67.1173 5.1852 -0.918947 0
M  V30 711 H 69.6083 3.62931 -1.05307 0
M  V30 712 H 69.9213 7.2233 -2.74698 0
M  V30 713 H 68.2663 6.49858 -2.46393 0
M  V30 714 H 71.4573 4.47137 -1.38514 0
M  V30 715 H 71.6303 6.11034 -2.15735 0
M  V30 716 N 65.0364 0.313813 1.54444 0
M  V30 717 C 66.3134 -0.345447 1.92525 0
M  V30 718 C 66.6934 -1.70667 1.24242 0
M  V30 719 O 66.0414 -2.25273 0.382654 0
M  V30 720 C 66.2514 -0.44737 3.46121 0
M  V30 721 C 67.5994 -0.712238 4.18584 0
M  V30 722 O 68.6234 -0.530678 3.52225 0
M  V30 723 O 67.4824 -1.06183 5.36085 0
M  V30 724 H 64.5764 -0.195407 0.803583 0
M  V30 725 H 67.1224 0.362813 1.65776 0
M  V30 726 H 65.8944 0.509043 3.87975 0
M  V30 727 H 65.5174 -1.20359 3.78945 0
M  V30 728 N 66.5145 -1.57545 0.0417849 0
M  V30 729 C 67.4445 -2.14009 -0.933929 0
M  V30 730 C 68.4255 -1.05938 -1.33083 0
M  V30 731 O 69.6105 -1.33833 -1.40721 0
M  V30 732 C 66.7405 -2.67747 -2.21199 0
M  V30 733 C 65.6945 -3.80718 -1.95544 0
M  V30 734 C 65.0205 -4.20935 -3.29724 0
M  V30 735 C 66.3205 -5.06258 -1.28452 0
M  V30 736 H 68.0145 -2.95788 -0.463645 0
M  V30 737 H 65.5605 -1.42285 -0.221573 0
M  V30 738 H 67.5135 -3.05886 -2.89848 0
M  V30 739 H 66.2375 -1.83147 -2.70416 0
M  V30 740 H 64.8965 -3.43037 -1.2931 0
M  V30 741 H 64.5445 -3.33298 -3.76724 0
M  V30 742 H 64.2445 -4.9707 -3.13361 0
M  V30 743 H 65.7685 -4.61666 -3.9962 0
M  V30 744 H 67.1825 -5.41903 -1.8712 0
M  V30 745 H 65.5795 -5.87475 -1.22445 0
M  V30 746 H 66.6495 -4.84207 -0.259219 0
M  V30 747 N 67.9926 0.231505 -1.5589 0
M  V30 748 C 68.9406 1.30649 -1.92441 0
M  V30 749 C 69.9346 1.49037 -0.805254 0
M  V30 750 O 71.1406 1.50329 -0.990007 0
M  V30 751 H 67.5156 0.437812 -0.611412 0
M  V30 752 H 69.4866 0.970973 -2.82161 0
M  V30 753 C 68.2356 2.65179 -2.24889 0
M  V30 754 H 67.5586 2.51835 -3.10514 0
M  V30 755 H 68.9986 3.39234 -2.54355 0
M  V30 756 C 67.4576 3.19439 -1.07054 0
M  V30 757 O 67.9876 4.00371 -0.326499 0
M  V30 758 N 66.1936 2.77675 -0.85703 0
M  V30 759 H 65.7406 2.11969 -1.46379 0
M  V30 760 H 65.6986 3.14321 -0.0703223 0
M  V30 761 N 69.4707 1.49531 0.497807 0
M  V30 762 C 70.4177 1.66436 1.59899 0
M  V30 763 C 71.3877 0.505793 1.58212 0
M  V30 764 O 72.5727 0.733202 1.7615 0
M  V30 765 C 69.7127 1.7399 2.98029 0
M  V30 766 C 68.8257 3.01172 3.09708 0
M  V30 767 C 67.9607 2.99686 4.38591 0
M  V30 768 C 66.9997 4.21434 4.43914 0
M  V30 769 N 66.1367 4.1784 5.64229 0
M  V30 770 H 70.9767 2.60459 1.44793 0
M  V30 771 H 68.5137 1.29137 0.704423 0
M  V30 772 H 70.4717 1.76352 3.78095 0
M  V30 773 H 69.1017 0.834301 3.11832 0
M  V30 774 H 68.1537 3.08408 2.22685 0
M  V30 775 H 69.4657 3.91165 3.09502 0
M  V30 776 H 68.6197 3.00628 5.2698 0
M  V30 777 H 67.3587 2.07477 4.41367 0
M  V30 778 H 66.3637 4.20733 3.53926 0
M  V30 779 H 67.5887 5.14839 4.42851 0
M  V30 780 H 65.5347 3.28469 5.67841 0
M  V30 781 H 65.4517 5.01571 5.65652 0
M  V30 782 H 66.7197 4.22889 6.54817 0
M  V30 783 N 70.9488 -0.749086 1.3866 0
M  V30 784 C 71.8968 -1.88428 1.36373 0
M  V30 785 C 72.8908 -1.67561 0.248929 0
M  V30 786 O 74.0968 -1.75074 0.41821 0
M  V30 787 H 70.4718 -0.620023 0.42553 0
M  V30 788 H 72.4428 -1.87473 2.32156 0
M  V30 789 C 71.1918 -3.25961 1.21014 0
M  V30 790 H 70.5148 -3.42607 2.06059 0
M  V30 791 H 71.9548 -4.05625 1.23469 0
M  V30 792 C 70.4138 -3.36799 -0.0825941 0
M  V30 793 O 70.9438 -3.87517 -1.05797 0
M  V30 794 N 69.1498 -2.90258 -0.140939 0
M  V30 795 H 68.6968 -2.49174 0.653477 0
M  V30 796 H 68.6548 -2.97889 -1.00545 0
M  V30 797 N 72.4269 -1.23603 -0.977757 0
M  V30 798 C 73.3749 -1.01704 -2.09187 0
M  V30 799 C 74.3689 0.0448214 -1.69341 0
M  V30 800 O 75.5749 -0.108902 -1.7967 0
M  V30 801 H 71.9499 -0.311803 -0.684312 0
M  V30 802 H 73.9209 -1.96207 -2.24823 0
M  V30 803 C 72.6699 -0.627746 -3.41986 0
M  V30 804 H 71.9929 -1.43656 -3.73099 0
M  V30 805 H 73.4329 -0.514053 -4.20872 0
M  V30 806 C 71.8919 0.664238 -3.30287 0
M  V30 807 O 72.4219 1.71268 -3.6336 0
M  V30 808 N 70.6279 0.641156 -2.83439 0
M  V30 809 H 70.1749 -0.212376 -2.56723 0
M  V30 810 H 70.1329 1.50583 -2.75993 0
M  V30 811 N 73.905 1.17692 -1.04816 0
M  V30 812 C 75.151 1.88137 -0.75711 0
M  V30 813 C 75.484 1.80604 0.713841 0
M  V30 814 O 74.759 1.21146 1.52164 0
M  V30 815 C 75.042 3.38318 -1.2334 0
M  V30 816 C 74.895 3.54622 -2.76701 0
M  V30 817 C 76.214 4.32214 -0.829415 0
M  V30 818 H 73.333 0.683163 -0.27651 0
M  V30 819 H 75.975 1.38424 -1.30149 0
M  V30 820 H 74.125 3.80787 -0.770286 0
M  V30 821 H 75.797 3.21194 -3.31107 0
M  V30 822 H 74.04 2.97026 -3.16161 0
M  V30 823 H 74.711 4.60028 -3.05088 0
M  V30 824 H 77.187 3.97565 -1.22805 0
M  V30 825 H 76.063 5.35838 -1.19033 0
M  V30 826 H 76.324 4.41294 0.266891 0
M  V30 827 N 75.3831 0.828654 1.34056 0
M  V30 828 C 76.3461 0.259927 2.27721 0
M  V30 829 C 77.3461 -0.565478 1.50529 0
M  V30 830 O 78.5361 -0.38075 1.69988 0
M  V30 831 C 75.6681 -0.634944 3.34935 0
M  V30 832 H 76.8611 1.0863 2.79534 0
M  V30 833 H 74.4141 0.600951 1.44285 0
M  V30 834 H 75.1491 -1.48416 2.88346 0
M  V30 835 H 74.9341 -0.0444999 3.92075 0
M  V30 836 H 76.4241 -1.02648 4.04788 0
M  V30 837 N 76.8612 -1.46375 0.584142 0
M  V30 838 C 78.1072 -2.02678 0.0703716 0
M  V30 839 C 78.4402 -1.4545 -1.28678 0
M  V30 840 O 77.7152 -0.62014 -1.84349 0
M  V30 841 C 77.9982 -3.60099 0.00614674 0
M  V30 842 C 77.8512 -4.27709 1.3923 0
M  V30 843 C 79.1702 -4.34598 -0.693742 0
M  V30 844 H 76.2892 -0.736504 0.027047 0
M  V30 845 H 78.9312 -1.74501 0.751615 0
M  V30 846 H 77.0812 -3.84236 -0.574009 0
M  V30 847 H 78.7532 -4.14832 2.01773 0
M  V30 848 H 76.9962 -3.87016 1.95962 0
M  V30 849 H 77.6672 -5.36478 1.29982 0
M  V30 850 H 80.1432 -4.15615 -0.200869 0
M  V30 851 H 79.0192 -5.44318 -0.707714 0
M  V30 852 H 79.2802 -4.05759 -1.75533 0
M  V30 853 N 78.3393 -0.321999 -1.54275 0
M  V30 854 C 79.5883 0.281931 -1.9972 0
M  V30 855 C 79.9013 1.53369 -1.21397 0
M  V30 856 O 81.1073 2.21352 -1.57211 0
M  V30 857 C 79.5633 0.5529 -3.55628 0
M  V30 858 C 79.1713 -0.681721 -4.42783 0
M  V30 859 C 80.9153 1.11687 -4.09544 0
M  V30 860 C 78.8223 -0.382742 -5.9016 0
M  V30 861 H 77.7523 0.109124 -0.746062 0
M  V30 862 H 80.4033 -0.43398 -1.78294 0
M  V30 863 H 78.7853 1.32896 -3.73035 0
M  V30 864 H 79.9593 -1.45723 -4.37151 0
M  V30 865 H 78.2743 -1.1658 -3.99748 0
M  V30 866 H 80.8713 1.35515 -5.17242 0
M  V30 867 H 81.2143 2.06575 -3.61431 0
M  V30 868 H 81.7473 0.402032 -3.95763 0
M  V30 869 H 78.4863 -1.30076 -6.42464 0
M  V30 870 H 78.0063 0.355094 -5.98748 0
M  V30 871 H 79.6853 0.00800157 -6.47 0
M  V30 872 N 79.8174 1.5752 -0.0501392 0
M  V30 873 C 81.0424 1.97376 0.636997 0
M  V30 874 C 81.4674 0.927466 1.63645 0
M  V30 875 O 80.8254 -0.10941 1.8097 0
M  V30 876 C 80.8734 3.36304 1.30123 0
M  V30 877 O 79.9774 3.34156 2.41689 0
M  V30 878 H 79.3184 0.642998 0.165679 0
M  V30 879 H 81.8484 2.04258 -0.118233 0
M  V30 880 H 81.8584 3.73008 1.65315 0
M  V30 881 H 80.5334 4.11993 0.568746 0
M  V30 882 H 79.1104 3.09196 2.08451 0
M  V30 883 N 81.2955 -0.223234 1.56011 0
M  V30 884 C 82.5435 -0.946003 1.78592 0
M  V30 885 C 82.8645 -1.84936 0.618349 0
M  V30 886 O 82.1345 -1.92473 -0.364833 0
M  V30 887 H 80.7145 -0.352298 0.658707 0
M  V30 888 H 83.3765 -0.235494 1.93472 0
M  V30 889 H 82.4725 -1.55381 2.70672 0
M  V30 890 N 82.7736 -1.49793 -0.48987 0
M  V30 891 C 84.0216 -1.59525 -1.24081 0
M  V30 892 C 84.3426 -0.288953 -1.92847 0
M  V30 893 O 83.6126 0.692436 -1.83254 0
M  V30 894 H 82.1926 -0.587796 -0.460983 0
M  V30 895 H 84.8546 -1.86477 -0.566778 0
M  V30 896 H 83.9506 -2.39696 -1.99881 0
M  V30 897 N 84.2517 0.741722 -1.39055 0
M  V30 898 C 85.4997 1.49818 -1.35643 0
M  V30 899 C 85.8207 1.94938 0.0491642 0
M  V30 900 O 85.0907 1.68505 0.999141 0
M  V30 901 H 83.6707 0.555755 -0.499144 0
M  V30 902 H 86.3327 0.880957 -1.73854 0
M  V30 903 H 85.4287 2.38348 -2.01486 0
M  V30 904 N 85.7298 1.2412 0.971189 0
M  V30 905 C 86.9548 1.10667 1.75407 0
M  V30 906 C 87.3798 -0.337048 1.85056 0
M  V30 907 O 86.7378 -1.24396 1.31892 0
M  V30 908 C 86.7858 1.74726 3.15441 0
M  V30 909 O 85.8898 1.01566 3.99697 0
M  V30 910 H 85.2308 0.387341 0.539317 0
M  V30 911 H 87.7608 1.64358 1.2185 0
M  V30 912 H 87.7708 1.80341 3.6598 0
M  V30 913 H 86.4458 2.79773 3.07734 0
M  V30 914 H 85.0228 1.03713 3.58187 0
M  V30 915 N 87.2079 -1.17134 1.05439 0
M  V30 916 C 88.4559 -1.87085 0.764429 0
M  V30 917 C 88.7769 -1.81584 -0.710787 0
M  V30 918 O 88.0469 -1.24349 -1.51374 0
M  V30 919 H 86.6269 -0.692627 0.279779 0
M  V30 920 H 89.2889 -1.42087 1.33406 0
M  V30 921 H 88.3849 -2.92759 1.0816 0
M  V30 922 N 88.686 -0.835752 -1.33615 0
M  V30 923 C 89.636 -0.238856 -2.26745 0
M  V30 924 C 90.62 0.604343 -1.49119 0
M  V30 925 O 91.812 0.456822 -1.71003 0
M  V30 926 C 88.941 0.587725 -3.38232 0
M  V30 927 C 88.027 -0.266811 -4.2326 0
M  V30 928 N 88.418 -1.34403 -4.87616 0
M  V30 929 C 86.716 -0.0533131 -4.45968 0
M  V30 930 C 87.417 -1.86819 -5.50884 0
M  V30 931 N 86.393 -1.17013 -5.30857 0
M  V30 932 H 90.195 -1.06266 -2.74016 0
M  V30 933 H 87.709 -0.679881 -1.47483 0
M  V30 934 H 89.706 1.03161 -4.03935 0
M  V30 935 H 88.366 1.40954 -2.9251 0
M  V30 936 H 89.377 -1.7269 -4.88261 0
M  V30 937 H 86.054 0.735312 -4.10974 0
M  V30 938 H 87.444 -2.7701 -6.1214 0
M  V30 939 N 90.1641 1.46063 -0.591896 0
M  V30 940 C 91.0741 2.34192 0.13831 0
M  V30 941 C 92.0901 1.50305 0.876608 0
M  V30 942 O 93.2661 1.8315 0.837728 0
M  V30 943 C 90.3311 3.27656 1.13326 0
M  V30 944 C 89.3921 4.27445 0.39863 0
M  V30 945 C 88.6251 5.16443 1.34618 0
M  V30 946 O 88.8481 5.08553 2.58321 0
M  V30 947 O 87.7821 5.95843 0.851768 0
M  V30 948 H 91.6081 2.98002 -0.58552 0
M  V30 949 H 89.1931 1.45188 -0.352239 0
M  V30 950 H 91.0751 3.85291 1.70671 0
M  V30 951 H 89.7501 2.6643 1.83839 0
M  V30 952 H 88.6571 3.73471 -0.216895 0
M  V30 953 H 89.9901 4.91482 -0.265709 0
M  V30 954 N 91.6422 0.330177 1.54103 0
M  V30 955 C 93.0532 -0.15652 1.86043 0
M  V30 956 C 93.4042 -1.51086 1.2517 0
M  V30 957 O 92.5292 -2.09023 0.560217 0
M  V30 958 C 93.1242 -0.290784 3.3755 0
M  V30 959 C 91.6832 -0.721705 3.69416 0
M  V30 960 C 90.8302 0.152622 2.7688 0
M  V30 961 H 93.7812 0.550237 1.48856 0
M  V30 962 H 93.8022 -1.12058 3.63625 0
M  V30 963 H 93.3142 0.695068 3.81825 0
M  V30 964 H 91.4152 -1.71706 3.30678 0
M  V30 965 H 91.5282 -0.520869 4.7626 0
M  V30 966 H 89.8922 -0.372894 2.51956 0
M  V30 967 H 90.6752 1.13536 3.23982 0
M  V30 968 N 93.1203 -1.57491 0.0584922 0
M  V30 969 C 94.0833 -2.1085 -0.898617 0
M  V30 970 C 95.0833 -1.02964 -1.23511 0
M  V30 971 O 96.2733 -1.29007 -1.17059 0
M  V30 972 C 93.4053 -2.59881 -2.20623 0
M  V30 973 H 94.5983 -2.96715 -0.435936 0
M  V30 974 H 92.1513 -1.55141 -0.190023 0
M  V30 975 H 92.8863 -1.77431 -2.71457 0
M  V30 976 H 92.6713 -3.38727 -1.97501 0
M  V30 977 H 94.1613 -3.01285 -2.89166 0
M  V30 978 N 94.5984 0.214957 -1.56127 0
M  V30 979 C 95.5484 1.27006 -1.8935 0
M  V30 980 C 96.5324 1.41969 -0.757202 0
M  V30 981 O 97.7244 1.44673 -1.01973 0
M  V30 982 C 94.8534 2.61911 -2.2194 0
M  V30 983 C 93.9394 2.50822 -3.41978 0
M  V30 984 N 94.3304 2.09391 -4.60423 0
M  V30 985 C 92.6284 2.81765 -3.45723 0
M  V30 986 C 93.3294 2.09712 -5.42582 0
M  V30 987 N 92.3054 2.50454 -4.82466 0
M  V30 988 H 96.1074 0.940734 -2.78437 0
M  V30 989 H 93.6214 0.423492 -1.56781 0
M  V30 990 H 95.6184 3.38096 -2.43919 0
M  V30 991 H 94.2784 2.95684 -1.34169 0
M  V30 992 H 95.2894 1.80416 -4.85459 0
M  V30 993 H 91.9664 3.19865 -2.68314 0
M  V30 994 H 93.3564 1.79748 -6.4741 0
M  V30 995 N 96.0765 1.50051 0.48192 0
M  V30 996 C 97.3225 1.60736 1.2366 0
M  V30 997 C 97.6555 0.301786 1.91841 0
M  V30 998 O 96.9305 -0.696025 1.8162 0
M  V30 999 C 97.2135 2.78009 2.28874 0
M  V30 1000 C 97.0665 4.18416 1.65069 0
M  V30 1001 C 98.3855 2.90867 3.30279 0
M  V30 1002 H 95.5045 0.585031 0.448228 0
M  V30 1003 H 98.1465 1.82402 0.531946 0
M  V30 1004 H 96.2965 2.59667 2.88973 0
M  V30 1005 H 97.9685 4.48322 1.0865 0
M  V30 1006 H 96.2115 4.23177 0.954148 0
M  V30 1007 H 96.8825 4.96381 2.41474 0
M  V30 1008 H 99.3585 3.07623 2.80191 0
M  V30 1009 H 98.2345 3.74566 4.01238 0
M  V30 1010 H 98.4955 2.01021 3.93755 0
M  V30 1011 N 97.5546 -0.734337 1.39446 0
M  V30 1012 C 98.8026 -1.49096 1.36436 0
M  V30 1013 C 99.1236 -1.94961 -0.0388255 0
M  V30 1014 O 98.3936 -1.69033 -0.990191 0
M  V30 1015 H 96.9736 -0.5531 0.502085 0
M  V30 1016 H 99.6356 -0.871725 1.74319 0
M  V30 1017 H 98.7316 -2.37276 2.02747 0
M  V30 1018 N 99.0327 -1.24633 -0.964593 0
M  V30 1019 C 100.28 -1.08788 -1.70796 0
M  V30 1020 C 100.608 0.372783 -1.90894 0
M  V30 1021 O 99.8627 1.29167 -1.47018 0
M  V30 1022 C 100.162 -1.7763 -3.10133 0
M  V30 1023 C 99.8277 -3.27557 -3.09866 0
M  V30 1024 C 98.4897 -3.6846 -3.09501 0
M  V30 1025 C 100.842 -4.23389 -3.03959 0
M  V30 1026 C 98.1697 -5.03624 -3.00965 0
M  V30 1027 C 100.522 -5.58565 -2.96965 0
M  V30 1028 C 99.1857 -5.98809 -2.9493 0
M  V30 1029 H 98.4557 -0.398084 -0.624988 0
M  V30 1030 H 101.103 -1.54777 -1.12767 0
M  V30 1031 H 99.4077 -1.24044 -3.71645 0
M  V30 1032 H 101.105 -1.62832 -3.66451 0
M  V30 1033 H 97.6947 -2.95006 -3.10917 0
M  V30 1034 H 101.879 -3.92787 -3.03368 0
M  V30 1035 H 97.1347 -5.33998 -2.97752 0
M  V30 1036 H 101.309 -6.32523 -2.91354 0
M  V30 1037 H 98.9357 -7.03505 -2.88071 0
M  V30 1038 N 100.511 1.16574 -1.06058 0
M  V30 1039 C 101.76 1.86385 -0.770944 0
M  V30 1040 C 102.073 1.82448 0.705129 0
M  V30 1041 O 103.279 2.47815 1.10905 0
M  V30 1042 C 101.735 3.34466 -1.32893 0
M  V30 1043 C 101.343 3.46883 -2.83507 0
M  V30 1044 C 103.087 4.09548 -1.11672 0
M  V30 1045 C 100.994 4.89036 -3.32562 0
M  V30 1046 H 99.9238 0.698181 -0.284709 0
M  V30 1047 H 102.575 1.31583 -1.27899 0
M  V30 1048 H 100.957 3.88859 -0.748662 0
M  V30 1049 H 102.131 3.02663 -3.47465 0
M  V30 1050 H 100.446 2.85232 -3.03368 0
M  V30 1051 H 103.043 5.14434 -1.45814 0
M  V30 1052 H 103.386 4.16264 -0.0549535 0
M  V30 1053 H 103.919 3.61387 -1.66265 0
M  V30 1054 H 100.658 4.87499 -4.38207 0
M  V30 1055 H 100.178 5.3389 -2.73351 0
M  V30 1056 H 101.857 5.57843 -3.2775 0
M  V30 1057 N 101.989 0.842826 1.3317 0
M  V30 1058 C 103.237 0.439577 1.97262 0
M  V30 1059 C 103.558 -1.00548 1.67078 0
M  V30 1060 O 102.828 -1.70098 0.971779 0
M  V30 1061 H 101.408 0.159558 0.72976 0
M  V30 1062 H 104.07 1.07665 1.62463 0
M  V30 1063 H 103.166 0.574886 3.0676 0
M  V30 1064 N 103.467 -1.45747 0.599634 0
M  V30 1065 C 104.414 -2.30467 -0.123849 0
M  V30 1066 C 105.384 -1.41632 -0.86774 0
M  V30 1067 O 106.569 -1.70568 -0.855056 0
M  V30 1068 C 103.709 -3.26402 -1.12051 0
M  V30 1069 C 102.822 -4.3034 -0.37832 0
M  V30 1070 C 101.957 -5.13389 -1.364 0
M  V30 1071 C 100.996 -6.09061 -0.609171 0
M  V30 1072 N 100.133 -6.84918 -1.54374 0
M  V30 1073 H 104.973 -2.91802 0.604627 0
M  V30 1074 H 102.51 -1.43797 0.309972 0
M  V30 1075 H 104.468 -3.80482 -1.7114 0
M  V30 1076 H 103.098 -2.66839 -1.8165 0
M  V30 1077 H 102.15 -3.78984 0.327929 0
M  V30 1078 H 103.462 -4.98354 0.210997 0
M  V30 1079 H 102.616 -5.7183 -2.02719 0
M  V30 1080 H 101.355 -4.45376 -1.98725 0
M  V30 1081 H 100.36 -5.49758 0.0676979 0
M  V30 1082 H 101.585 -6.79099 0.00891991 0
M  V30 1083 H 99.531 -6.19601 -2.15478 0
M  V30 1084 H 99.448 -7.49254 -1.00766 0
M  V30 1085 H 100.716 -7.47906 -2.19676 0
M  V30 1086 N 104.945 -0.338344 -1.53925 0
M  V30 1087 C 106.193 0.259245 -2.0043 0
M  V30 1088 C 106.514 1.51484 -1.22791 0
M  V30 1089 O 105.784 1.93037 -0.33368 0
M  V30 1090 H 104.364 0.0987845 -0.740439 0
M  V30 1091 H 107.026 -0.458302 -1.89435 0
M  V30 1092 H 106.122 0.505334 -3.07982 0
M  V30 1093 N 106.423 1.57458 -0.0668435 0
M  V30 1094 C 107.356 2.08033 0.93795 0
M  V30 1095 C 108.334 0.984321 1.29421 0
M  V30 1096 O 109.518 1.25736 1.40437 0
M  V30 1097 C 106.645 2.53388 2.24749 0
M  V30 1098 C 105.691 3.74376 2.04315 0
M  V30 1099 S 106.524 5.19303 1.30706 0
M  V30 1100 C 107.68 5.67986 2.62951 0
M  V30 1101 H 107.913 2.92935 0.50759 0
M  V30 1102 H 105.446 1.5371 0.145804 0
M  V30 1103 H 107.404 2.8018 3.00016 0
M  V30 1104 H 106.065 1.68763 2.64911 0
M  V30 1105 H 105.258 4.04083 3.01218 0
M  V30 1106 H 104.86 3.47931 1.37186 0
M  V30 1107 H 107.152 5.74528 3.5906 0
M  V30 1108 H 108.095 6.66955 2.3786 0
M  V30 1109 H 108.503 4.95781 2.69929 0
M  V30 1110 N 107.901 -0.206675 1.56239 0
M  V30 1111 C 108.831 -1.25909 1.96645 0
M  V30 1112 C 109.812 -1.48097 0.836734 0
M  V30 1113 O 110.997 -1.6003 1.10019 0
M  V30 1114 C 108.127 -2.6058 2.29599 0
M  V30 1115 C 107.081 -2.53024 3.452 0
M  V30 1116 C 106.407 -3.91861 3.63798 0
M  V30 1117 C 107.707 -2.06524 4.79734 0
M  V30 1118 H 109.401 -0.923369 2.84806 0
M  V30 1119 H 106.947 -0.442735 1.37025 0
M  V30 1120 H 108.9 -3.34375 2.56459 0
M  V30 1121 H 107.624 -2.95869 1.38307 0
M  V30 1122 H 106.283 -1.81684 3.18412 0
M  V30 1123 H 105.931 -4.24483 2.69857 0
M  V30 1124 H 105.631 -3.87683 4.4156 0
M  V30 1125 H 107.155 -4.67296 3.93022 0
M  V30 1126 H 108.569 -2.70072 5.05702 0
M  V30 1127 H 106.966 -2.13374 5.60885 0
M  V30 1128 H 108.036 -1.01802 4.74093 0
M  V30 1129 N 109.379 -1.50304 -0.473955 0
M  V30 1130 C 110.607 -1.64902 -1.24959 0
M  V30 1131 C 111.022 -0.331198 -1.85872 0
M  V30 1132 O 110.379 0.68652 -1.69095 0
M  V30 1133 C 110.43 -2.73803 -2.36038 0
M  V30 1134 O 110.151 -4.00477 -1.77624 0
M  V30 1135 C 111.652 -2.99349 -3.26964 0
M  V30 1136 H 108.872 -0.554383 -0.378022 0
M  V30 1137 H 111.416 -1.9651 -0.566054 0
M  V30 1138 H 109.571 -2.44898 -3.00173 0
M  V30 1139 H 109.985 -4.60678 -2.5075 0
M  V30 1140 H 111.459 -3.79217 -4.01121 0
M  V30 1141 H 111.936 -2.10307 -3.85574 0
M  V30 1142 H 112.542 -3.29774 -2.68569 0
M  V30 1143 N 110.857 0.726932 -1.39834 0
M  V30 1144 C 111.82 1.82269 -1.38962 0
M  V30 1145 C 112.82 1.58248 -0.285334 0
M  V30 1146 O 114.01 1.65499 -0.54366 0
M  V30 1147 C 111.142 3.20186 -1.17019 0
M  V30 1148 H 112.335 1.84443 -2.36476 0
M  V30 1149 H 109.888 0.931416 -1.25516 0
M  V30 1150 H 110.623 3.23669 -0.202204 0
M  V30 1151 H 110.408 3.3902 -1.96998 0
M  V30 1152 H 111.898 4.00235 -1.1917 0
M  V30 1153 N 112.336 1.25143 0.95797 0
M  V30 1154 C 113.299 1.05321 2.03569 0
M  V30 1155 C 114.299 0.007152 1.60798 0
M  V30 1156 O 115.489 0.24903 1.72411 0
M  V30 1157 C 112.621 0.598394 3.35607 0
M  V30 1158 H 113.814 2.00986 2.22586 0
M  V30 1159 H 111.367 1.07502 1.13459 0
M  V30 1160 H 112.102 -0.361014 3.22284 0
M  V30 1161 H 111.887 1.35351 3.67998 0
M  V30 1162 H 113.377 0.48104 4.1482 0
M  V30 1163 N 113.814 -1.1601 1.06675 0
M  V30 1164 C 115.06 -1.86909 0.786945 0
M  V30 1165 C 115.393 -1.81717 -0.685018 0
M  V30 1166 O 114.668 -1.23551 -1.50218 0
M  V30 1167 C 114.951 -3.36313 1.28707 0
M  V30 1168 C 114.804 -3.50175 2.82308 0
M  V30 1169 C 116.123 -4.3084 0.898071 0
M  V30 1170 H 113.242 -0.678677 0.287343 0
M  V30 1171 H 115.884 -1.36336 1.32334 0
M  V30 1172 H 114.034 -3.79513 0.830768 0
M  V30 1173 H 115.706 -3.15886 3.36175 0
M  V30 1174 H 113.949 -2.91959 3.20847 0
M  V30 1175 H 114.62 -4.55116 3.12368 0
M  V30 1176 H 117.096 -3.95561 1.29114 0
M  V30 1177 H 115.972 -5.33876 1.27543 0
M  V30 1178 H 116.233 -4.41662 -0.196651 0
M  V30 1179 N 115.292 -0.849877 -1.32721 0
M  V30 1180 C 116.532 -0.457146 -1.99222 0
M  V30 1181 C 116.896 0.968038 -1.6581 0
M  V30 1182 O 118.097 1.46507 -2.25364 0
M  V30 1183 C 116.368 -0.683966 -3.50794 0
M  V30 1184 S 117.927 -0.388095 -4.3708 0
M  V30 1185 H 114.745 -0.171464 -0.690015 0
M  V30 1186 H 117.347 -1.10155 -1.61512 0
M  V30 1187 H 116.051 -1.72038 -3.726 0
M  V30 1188 H 115.582 -0.0258086 -3.93392 0
M  V30 1189 H 117.597 0.787791 -4.89906 0
M  V30 1190 N 116.77 1.45427 -0.607355 0
M  V30 1191 C 118.018 2.01841 -0.102253 0
M  V30 1192 C 118.339 1.47832 1.27164 0
M  V30 1193 O 117.609 0.672497 1.83995 0
M  V30 1194 H 116.189 0.746188 -0.0348101 0
M  V30 1195 H 118.851 1.78229 -0.7887 0
M  V30 1196 H 117.947 3.12057 -0.0518585 0
M  V30 1197 N 118.248 0.346503 1.53744 0
M  V30 1198 C 119.525 -0.304532 1.93215 0
M  V30 1199 C 119.905 -1.67993 1.27834 0
M  V30 1200 O 119.253 -2.24411 0.430352 0
M  V30 1201 C 119.463 -0.373852 3.46992 0
M  V30 1202 C 120.811 -0.62329 4.2 0
M  V30 1203 O 121.835 -0.455847 3.53271 0
M  V30 1204 O 120.694 -0.947879 5.38217 0
M  V30 1205 H 117.788 -0.178318 0.807547 0
M  V30 1206 H 120.334 0.397895 1.64969 0
M  V30 1207 H 119.106 0.591224 3.86808 0
M  V30 1208 H 118.729 -1.12294 3.81413 0
M  V30 1209 N 119.726 -1.57421 0.075193 0
M  V30 1210 C 120.972 -1.93905 -0.594025 0
M  V30 1211 C 121.305 -0.955701 -1.69056 0
M  V30 1212 O 120.58 0.0145373 -1.94495 0
M  V30 1213 C 120.863 -3.40638 -1.1678 0
M  V30 1214 C 120.716 -4.49733 -0.0776792 0
M  V30 1215 C 122.035 -3.88259 -2.07228 0
M  V30 1216 H 119.154 -0.705105 -0.214466 0
M  V30 1217 H 121.796 -1.8947 0.141854 0
M  V30 1218 H 119.946 -3.44549 -1.79494 0
M  V30 1219 H 121.618 -4.57942 0.555573 0
M  V30 1220 H 119.861 -4.29751 0.591286 0
M  V30 1221 H 120.532 -5.49549 -0.519603 0
M  V30 1222 H 123.008 -3.86376 -1.54445 0
M  V30 1223 H 121.884 -4.91533 -2.44308 0
M  V30 1224 H 122.145 -3.26396 -2.98191 0
M  V30 1225 N 121.204 0.198386 -1.56346 0
M  V30 1226 C 122.451 0.919286 -1.80431 0
M  V30 1227 C 122.779 1.83393 -0.647866 0
M  V30 1228 O 122.034 1.92236 0.366556 0
M  V30 1229 C 122.333 1.77031 -3.10475 0
M  V30 1230 C 121.999 1.00693 -4.39513 0
M  V30 1231 C 120.661 0.796145 -4.74568 0
M  V30 1232 C 123.013 0.469559 -5.19081 0
M  V30 1233 C 120.341 0.0364588 -5.86689 0
M  V30 1234 C 122.693 -0.2769 -6.31994 0
M  V30 1235 C 121.357 -0.49873 -6.65634 0
M  V30 1236 H 120.627 0.336391 -0.660244 0
M  V30 1237 H 123.274 0.185872 -1.90596 0
M  V30 1238 H 121.579 2.5723 -2.95533 0
M  V30 1239 H 123.276 2.33065 -3.26315 0
M  V30 1240 H 119.866 1.18122 -4.12001 0
M  V30 1241 H 124.05 0.619816 -4.92414 0
M  V30 1242 H 119.306 -0.145412 -6.11227 0
M  V30 1243 H 123.48 -0.700684 -6.92866 0
M  V30 1244 H 121.107 -1.0893 -7.52355 0
M  V30 1245 N 122.682 1.50554 0.465978 0
M  V30 1246 C 123.645 1.69233 1.54574 0
M  V30 1247 C 124.645 0.562901 1.50626 0
M  V30 1248 O 125.835 0.830016 1.53155 0
M  V30 1249 C 122.967 1.7223 2.94193 0
M  V30 1250 H 124.16 2.65571 1.39327 0
M  V30 1251 H 121.713 1.40111 0.692711 0
M  V30 1252 H 122.448 0.77603 3.14878 0
M  V30 1253 H 122.233 2.54285 2.98466 0
M  V30 1254 H 123.723 1.88618 3.72576 0
M  V30 1255 N 124.16 -0.719506 1.40217 0
M  V30 1256 C 125.385 -1.51371 1.4178 0
M  V30 1257 C 125.81 -1.88091 0.0182355 0
M  V30 1258 O 125.168 -1.52997 -0.972707 0
M  V30 1259 C 125.216 -2.768 2.31115 0
M  V30 1260 O 124.32 -3.73349 1.7517 0
M  V30 1261 H 123.661 -0.456529 0.482159 0
M  V30 1262 H 126.191 -0.88644 1.844 0
M  V30 1263 H 126.201 -3.25371 2.46167 0
M  V30 1264 H 124.876 -2.49407 3.3282 0
M  V30 1265 H 123.453 -3.32179 1.69444 0
M  V30 1266 N 125.638 -1.25649 -0.95132 0
M  V30 1267 C 127.049 -1.09654 -1.51106 0
M  V30 1268 C 127.4 0.326615 -1.93462 0
M  V30 1269 O 126.525 1.21697 -1.78938 0
M  V30 1270 C 127.12 -1.98437 -2.74605 0
M  V30 1271 C 125.679 -1.86618 -3.2688 0
M  V30 1272 C 124.826 -1.9239 -1.99703 0
M  V30 1273 H 127.777 -1.38887 -0.767865 0
M  V30 1274 H 127.798 -1.5263 -3.48546 0
M  V30 1275 H 127.31 -3.02009 -2.43746 0
M  V30 1276 H 125.411 -0.859421 -3.62553 0
M  V30 1277 H 125.524 -2.71607 -3.94673 0
M  V30 1278 H 123.888 -1.36317 -2.15151 0
M  V30 1279 H 124.671 -2.97573 -1.71188 0
M  V30 1280 N 127.117 1.15442 -1.07289 0
M  V30 1281 C 128.342 1.90638 -0.816828 0
M  V30 1282 C 128.767 1.77445 0.624083 0
M  V30 1283 O 128.125 1.10671 1.43602 0
M  V30 1284 C 128.173 3.39008 -1.22906 0
M  V30 1285 O 127.277 4.10701 -0.373975 0
M  V30 1286 H 126.618 0.593555 -0.297638 0
M  V30 1287 H 129.148 1.46198 -1.43134 0
M  V30 1288 H 129.158 3.89801 -1.20497 0
M  V30 1289 H 127.833 3.47929 -2.27856 0
M  V30 1290 H 126.41 3.70046 -0.460499 0
M  V30 1291 N 128.595 0.856903 1.32268 0
M  V30 1292 C 129.841 0.462069 1.97466 0
M  V30 1293 C 130.174 -0.980298 1.67642 0
M  V30 1294 O 129.449 -1.68824 0.965858 0
M  V30 1295 C 129.732 0.704336 3.53145 0
M  V30 1296 C 129.585 2.19529 3.9259 0
M  V30 1297 C 130.904 0.1622 4.39801 0
M  V30 1298 H 128.023 0.169357 0.717278 0
M  V30 1299 H 130.665 1.07574 1.56614 0
M  V30 1300 H 128.815 0.181999 3.88073 0
M  V30 1301 H 130.487 2.78387 3.67829 0
M  V30 1302 H 128.73 2.67292 3.41668 0
M  V30 1303 H 129.401 2.31549 5.01088 0
M  V30 1304 H 131.877 0.608905 4.11621 0
M  V30 1305 H 130.753 0.361265 5.4771 0
M  V30 1306 H 131.014 -0.935158 4.32096 0
M  V30 1307 N 130.073 -1.45103 0.615059 0
M  V30 1308 C 131.35 -1.95549 0.0448276 0
M  V30 1309 C 131.73 -1.55737 -1.4251 0
M  V30 1310 O 131.078 -0.823556 -2.13143 0
M  V30 1311 C 131.288 -3.48098 0.250785 0
M  V30 1312 C 132.636 -4.24384 0.135509 0
M  V30 1313 O 133.66 -3.55738 0.181299 0
M  V30 1314 O 132.519 -5.46493 0.0268878 0
M  V30 1315 H 129.613 -0.8264 -0.0314845 0
M  V30 1316 H 132.159 -1.55232 0.685642 0
M  V30 1317 H 130.931 -3.7007 1.27139 0
M  V30 1318 H 130.554 -3.95323 -0.424937 0
M  V30 1319 N 131.551 -0.354651 -1.53558 0
M  V30 1320 C 132.514 0.484566 -2.24019 0
M  V30 1321 C 133.514 1.01861 -1.24422 0
M  V30 1322 O 134.704 0.906097 -1.4878 0
M  V30 1323 C 131.836 1.67615 -2.96847 0
M  V30 1324 H 133.029 -0.131843 -2.9961 0
M  V30 1325 H 130.582 -0.106165 -1.55939 0
M  V30 1326 H 131.317 2.33095 -2.25471 0
M  V30 1327 H 131.102 1.30029 -3.69912 0
M  V30 1328 H 132.592 2.27114 -3.50441 0
M  V30 1329 N 133.029 1.57378 -0.0835403 0
M  V30 1330 C 134.275 1.94217 0.583733 0
M  V30 1331 C 134.608 0.964653 1.68547 0
M  V30 1332 O 133.883 -0.00422258 1.945 0
M  V30 1333 C 134.166 3.41253 1.14972 0
M  V30 1334 C 134.019 4.49768 0.0538277 0
M  V30 1335 C 135.338 3.89352 2.05166 0
M  V30 1336 H 132.457 0.706233 0.210724 0
M  V30 1337 H 135.099 1.89392 -0.1519 0
M  V30 1338 H 133.249 3.45496 1.77665 0
M  V30 1339 H 134.921 4.57641 -0.579851 0
M  V30 1340 H 133.164 4.29432 -0.614068 0
M  V30 1341 H 133.835 5.49817 0.490452 0
M  V30 1342 H 136.311 3.87189 1.52393 0
M  V30 1343 H 135.187 4.92822 2.41698 0
M  V30 1344 H 135.448 3.27973 2.96456 0
M  V30 1345 N 134.507 -0.190092 1.56449 0
M  V30 1346 C 135.437 -1.23816 1.97969 0
M  V30 1347 C 136.418 -1.47201 0.852395 0
M  V30 1348 O 137.603 -1.58854 1.1171 0
M  V30 1349 C 134.733 -2.5813 2.3235 0
M  V30 1350 C 133.687 -2.49348 3.47864 0
M  V30 1351 C 133.013 -3.8798 3.67934 0
M  V30 1352 C 134.313 -2.01424 4.81898 0
M  V30 1353 H 136.007 -0.89311 2.85769 0
M  V30 1354 H 133.553 -0.428177 1.37487 0
M  V30 1355 H 135.506 -3.31637 2.59991 0
M  V30 1356 H 134.23 -2.94386 1.41438 0
M  V30 1357 H 132.889 -1.78297 3.20321 0
M  V30 1358 H 132.537 -4.21597 2.74344 0
M  V30 1359 H 132.237 -3.82978 4.45648 0
M  V30 1360 H 133.761 -4.63101 3.97957 0
M  V30 1361 H 135.175 -2.64693 5.08538 0
M  V30 1362 H 133.572 -2.07413 5.63116 0
M  V30 1363 H 134.642 -0.967677 4.75146 0
M  V30 1364 N 135.985 -1.50799 -0.457987 0
M  V30 1365 C 137.213 -1.66218 -1.23203 0
M  V30 1366 C 137.628 -0.350894 -1.85511 0
M  V30 1367 O 136.985 0.668546 -1.69814 0
M  V30 1368 C 137.036 -2.76291 -2.33121 0
M  V30 1369 O 136.757 -4.02338 -1.73366 0
M  V30 1370 C 138.258 -3.028 -3.2377 0
M  V30 1371 H 135.478 -0.558361 -0.372121 0
M  V30 1372 H 138.022 -1.97099 -0.545179 0
M  V30 1373 H 136.177 -2.48068 -2.97558 0
M  V30 1374 H 136.591 -4.63312 -2.4585 0
M  V30 1375 H 138.065 -3.8345 -3.97077 0
M  V30 1376 H 138.542 -2.14385 -3.83322 0
M  V30 1377 H 139.148 -3.32604 -2.65056 0
M  V30 1378 N 137.463 0.71206 -1.40597 0
M  V30 1379 C 138.426 1.80785 -1.40888 0
M  V30 1380 C 139.426 1.57937 -0.302103 0
M  V30 1381 O 140.616 1.64913 -0.561182 0
M  V30 1382 C 137.748 3.18927 -1.20409 0
M  V30 1383 H 138.941 1.81924 -2.38419 0
M  V30 1384 H 136.494 0.91805 -1.26497 0
M  V30 1385 H 137.229 3.23436 -0.236522 0
M  V30 1386 H 137.014 3.36911 -2.00582 0
M  V30 1387 H 138.504 3.98949 -1.23408 0
M  V30 1388 N 138.941 1.26152 0.944643 0
M  V30 1389 C 140.19 1.10883 1.68487 0
M  V30 1390 C 140.503 -0.348153 1.92477 0
M  V30 1391 O 141.709 -0.621459 2.64292 0
M  V30 1392 C 140.165 1.93624 3.03377 0
M  V30 1393 C 139.773 3.43875 2.87148 0
M  V30 1394 C 141.517 1.86954 3.81115 0
M  V30 1395 C 139.424 4.18875 4.1749 0
M  V30 1396 H 138.354 0.41135 0.631907 0
M  V30 1397 H 141.005 1.50433 1.05082 0
M  V30 1398 H 139.387 1.46904 3.67743 0
M  V30 1399 H 140.561 3.98338 2.31653 0
M  V30 1400 H 138.876 3.51744 2.22856 0
M  V30 1401 H 141.473 2.40275 4.77673 0
M  V30 1402 H 141.816 0.839518 4.07747 0
M  V30 1403 H 142.349 2.31477 3.23517 0
M  V30 1404 H 139.088 5.22332 3.96043 0
M  V30 1405 H 138.608 3.69193 4.72712 0
M  V30 1406 H 140.287 4.27134 4.85968 0
M  V30 1407 N 140.419 -1.14872 1.07899 0
M  V30 1408 C 141.351 -2.19425 0.662231 0
M  V30 1409 C 142.364 -1.60231 -0.288079 0
M  V30 1410 O 143.553 -1.78336 -0.076534 0
M  V30 1411 C 140.653 -3.38867 -0.0470695 0
M  V30 1412 C 139.826 -4.27597 0.920831 0
M  V30 1413 C 138.885 -5.25616 0.247805 0
M  V30 1414 O 137.911 -5.62189 0.890599 0
M  V30 1415 N 139.113 -5.71746 -1.00435 0
M  V30 1416 H 141.878 -2.55797 1.56166 0
M  V30 1417 H 139.439 -1.30042 0.964404 0
M  V30 1418 H 141.431 -4.01497 -0.50813 0
M  V30 1419 H 140.001 -3.00864 -0.848523 0
M  V30 1420 H 139.221 -3.61982 1.56087 0
M  V30 1421 H 140.509 -4.83748 1.57688 0
M  V30 1422 H 139.907 -5.44153 -1.54642 0
M  V30 1423 H 138.464 -6.36389 -1.40899 0
M  V30 1424 N 141.898 -0.863906 -1.31812 0
M  V30 1425 C 142.861 -0.320212 -2.26952 0
M  V30 1426 C 143.861 0.525369 -1.51975 0
M  V30 1427 O 145.051 0.335547 -1.70938 0
M  V30 1428 C 142.183 0.545919 -3.365 0
M  V30 1429 H 143.376 -1.16004 -2.76556 0
M  V30 1430 H 140.929 -0.638995 -1.42641 0
M  V30 1431 H 141.664 1.40718 -2.92179 0
M  V30 1432 H 141.449 -0.0594674 -3.92055 0
M  V30 1433 H 142.939 0.918796 -4.07367 0
M  V30 1434 N 143.376 1.44774 -0.622745 0
M  V30 1435 C 144.622 2.0242 -0.124083 0
M  V30 1436 C 144.955 1.4881 1.24777 0
M  V30 1437 O 144.23 0.668799 1.8264 0
M  V30 1438 C 144.513 3.59957 -0.101619 0
M  V30 1439 C 144.366 4.23867 -1.50521 0
M  V30 1440 C 145.685 4.36284 0.578272 0
M  V30 1441 H 142.804 0.735528 -0.0465645 0
M  V30 1442 H 145.446 1.72447 -0.797617 0
M  V30 1443 H 143.596 3.85623 0.471934 0
M  V30 1444 H 145.268 4.09336 -2.12701 0
M  V30 1445 H 143.511 3.81684 -2.06154 0
M  V30 1446 H 144.182 5.32843 -1.4416 0
M  V30 1447 H 146.658 4.16001 0.0906057 0
M  V30 1448 H 145.534 5.46004 0.563149 0
M  V30 1449 H 145.795 4.10271 1.64713 0
M  V30 1450 N 144.854 0.36279 1.53368 0
M  V30 1451 C 146.082 -0.228613 2.05633 0
M  V30 1452 C 146.497 -1.42676 1.23649 0
M  V30 1453 O 145.854 -1.80394 0.27647 0
M  V30 1454 C 145.905 -0.624845 3.56059 0
M  V30 1455 O 145.626 0.525675 4.34935 0
M  V30 1456 C 147.127 -1.27493 4.24571 0
M  V30 1457 H 144.347 -0.0407183 0.669763 0
M  V30 1458 H 146.891 0.520352 1.97769 0
M  V30 1459 H 145.046 -1.32373 3.64083 0
M  V30 1460 H 145.46 0.205969 5.24095 0
M  V30 1461 H 146.934 -1.50277 5.31151 0
M  V30 1462 H 147.411 -2.23439 3.78116 0
M  V30 1463 H 148.017 -0.617558 4.20792 0
M  V30 1464 N 146.332 -1.57332 0.0918853 0
M  V30 1465 C 147.58 -1.93853 -0.571446 0
M  V30 1466 C 147.901 -0.974212 -1.6892 0
M  V30 1467 O 147.171 -0.0257254 -1.95883 0
M  V30 1468 H 145.751 -0.715666 -0.214082 0
M  V30 1469 H 148.413 -1.94287 0.154464 0
M  V30 1470 H 147.509 -2.96191 -0.983729 0
M  V30 1471 N 147.81 0.181792 -1.56548 0
M  V30 1472 C 148.72 1.24538 -1.98815 0
M  V30 1473 C 149.736 1.49045 -0.897861 0
M  V30 1474 O 150.912 1.61399 -1.20467 0
M  V30 1475 C 147.977 2.56683 -2.33055 0
M  V30 1476 C 147.038 2.40131 -3.55859 0
M  V30 1477 C 146.271 3.65975 -3.88456 0
M  V30 1478 O 146.494 4.70711 -3.22161 0
M  V30 1479 O 145.428 3.6071 -4.81842 0
M  V30 1480 H 149.254 0.916647 -2.89536 0
M  V30 1481 H 146.839 0.387842 -1.44278 0
M  V30 1482 H 148.721 3.34655 -2.56094 0
M  V30 1483 H 147.396 2.89157 -1.45498 0
M  V30 1484 H 146.303 1.60226 -3.38051 0
M  V30 1485 H 147.636 2.12585 -4.43924 0
M  V30 1486 N 149.288 1.51039 0.449983 0
M  V30 1487 C 150.251 1.70863 1.5277 0
M  V30 1488 C 151.251 0.578846 1.5002 0
M  V30 1489 O 152.441 0.846213 1.52266 0
M  V30 1490 C 149.573 1.75341 2.9235 0
M  V30 1491 H 150.766 2.67034 1.36502 0
M  V30 1492 H 148.319 1.40838 0.677812 0
M  V30 1493 H 149.054 0.809383 3.14037 0
M  V30 1494 H 148.839 2.57436 2.95752 0
M  V30 1495 H 150.329 1.92559 3.70555 0
M  V30 1496 N 150.766 -0.704594 1.40972 0
M  V30 1497 C 152.014 -1.46169 1.39568 0
M  V30 1498 C 152.335 -1.95 0.00253745 0
M  V30 1499 O 151.605 -1.71095 -0.954114 0
M  V30 1500 H 150.185 -0.542326 0.513704 0
M  V30 1501 H 152.847 -0.834553 1.76128 0
M  V30 1502 H 151.943 -2.32922 2.07735 0
M  V30 1503 N 152.244 -1.26651 -0.937939 0
M  V30 1504 C 153.484 -1.13611 -1.69917 0
M  V30 1505 C 153.848 0.314687 -1.89404 0
M  V30 1506 O 155.049 0.567285 -2.62746 0
M  V30 1507 C 153.32 -1.88742 -3.03498 0
M  V30 1508 S 154.879 -1.91794 -3.94665 0
M  V30 1509 H 151.697 -0.405767 -0.583844 0
M  V30 1510 H 154.299 -1.60416 -1.11745 0
M  V30 1511 H 153.003 -2.9336 -2.86999 0
M  V30 1512 H 152.534 -1.42391 -3.66727 0
M  V30 1513 H 154.549 -1.00698 -4.85875 0
M  V30 1514 N 153.722 1.14298 -1.08507 0
M  V30 1515 C 154.652 2.21542 -0.737646 0
M  V30 1516 C 155.633 1.67773 0.280377 0
M  V30 1517 O 156.818 1.93616 0.150521 0
M  V30 1518 C 153.948 3.46988 -0.147259 0
M  V30 1519 C 152.902 4.13789 -1.09374 0
M  V30 1520 C 152.228 5.33449 -0.365524 0
M  V30 1521 C 153.528 4.62208 -2.4323 0
M  V30 1522 H 155.222 2.5086 -1.6343 0
M  V30 1523 H 152.768 1.20576 -0.787243 0
M  V30 1524 H 154.721 4.21262 0.107808 0
M  V30 1525 H 153.445 3.17037 0.784538 0
M  V30 1526 H 152.104 3.4147 -1.33393 0
M  V30 1527 H 151.752 4.99759 0.57011 0
M  V30 1528 H 151.452 5.79088 -0.996512 0
M  V30 1529 H 152.976 6.10485 -0.118534 0
M  V30 1530 H 154.39 5.27952 -2.23472 0
M  V30 1531 H 152.787 5.18553 -3.02031 0
M  V30 1532 H 153.857 3.77224 -3.04681 0
M  V30 1533 N 155.201 0.870884 1.31352 0
M  V30 1534 C 156.131 0.343096 2.30966 0
M  V30 1535 C 157.112 -0.566507 1.60389 0
M  V30 1536 O 158.297 -0.483336 1.88089 0
M  V30 1537 C 155.427 -0.455487 3.443 0
M  V30 1538 C 154.381 0.361103 4.26474 0
M  V30 1539 C 153.707 -0.563221 5.31725 0
M  V30 1540 C 155.007 1.59566 4.97329 0
M  V30 1541 H 156.701 1.17548 2.75359 0
M  V30 1542 H 154.247 0.566686 1.32381 0
M  V30 1543 H 156.2 -0.83525 4.13039 0
M  V30 1544 H 154.924 -1.32139 2.98675 0
M  V30 1545 H 153.583 0.722825 3.59403 0
M  V30 1546 H 153.231 -1.42643 4.82351 0
M  V30 1547 H 152.931 -0.0207409 5.87596 0
M  V30 1548 H 154.455 -0.939808 6.03324 0
M  V30 1549 H 155.869 1.28728 5.58661 0
M  V30 1550 H 154.266 2.07728 5.63 0
M  V30 1551 H 155.336 2.34798 4.24262 0
M  V30 1552 N 156.679 -1.44442 0.630414 0
M  V30 1553 C 157.928 -2.01267 0.132073 0
M  V30 1554 C 158.241 -1.50172 -1.25331 0
M  V30 1555 O 159.447 -1.9912 -1.84562 0
M  V30 1556 C 157.903 -3.59422 0.185362 0
M  V30 1557 C 157.511 -4.19514 1.57201 0
M  V30 1558 C 159.255 -4.23724 -0.256553 0
M  V30 1559 C 157.162 -5.69891 1.58045 0
M  V30 1560 H 156.092 -0.752619 0.0456092 0
M  V30 1561 H 158.743 -1.65666 0.789106 0
M  V30 1562 H 157.125 -3.92318 -0.538759 0
M  V30 1563 H 158.299 -3.98156 2.31966 0
M  V30 1564 H 156.614 -3.67496 1.95795 0
M  V30 1565 H 159.211 -5.34019 -0.269767 0
M  V30 1566 H 159.554 -3.96013 -1.28372 0
M  V30 1567 H 160.087 -3.95629 0.41505 0
M  V30 1568 H 156.826 -6.02336 2.58597 0
M  V30 1569 H 156.346 -5.93373 0.875725 0
M  V30 1570 H 158.025 -6.33515 1.31408 0
M  V30 1571 N 158.157 -0.370918 -1.53173 0
M  V30 1572 C 159.403 0.217423 -2.01631 0
M  V30 1573 C 159.736 1.47983 -1.25756 0
M  V30 1574 O 159.011 1.91274 -0.352764 0
M  V30 1575 C 159.294 0.503982 -3.56556 0
M  V30 1576 C 159.147 -0.77243 -4.43118 0
M  V30 1577 C 160.466 1.30234 -4.20389 0
M  V30 1578 H 157.585 0.0775486 -0.732909 0
M  V30 1579 H 160.227 -0.496863 -1.83388 0
M  V30 1580 H 158.377 1.11248 -3.72231 0
M  V30 1581 H 160.049 -1.4098 -4.39229 0
M  V30 1582 H 158.292 -1.39167 -4.10871 0
M  V30 1583 H 158.963 -0.526815 -5.4948 0
M  V30 1584 H 161.439 0.787546 -4.08579 0
M  V30 1585 H 160.315 1.47158 -5.28806 0
M  V30 1586 H 160.576 2.31237 -3.76805 0
M  V30 1587 N 159.635 1.57281 -0.100228 0
M  V30 1588 C 160.582 2.14305 0.856858 0
M  V30 1589 C 161.552 1.06296 1.27634 0
M  V30 1590 O 162.737 1.34109 1.35718 0
M  V30 1591 C 159.877 2.73184 2.10866 0
M  V30 1592 C 158.99 3.95442 1.73925 0
M  V30 1593 C 158.125 4.42468 2.93931 0
M  V30 1594 C 157.164 5.57303 2.5314 0
M  V30 1595 N 156.301 5.99158 3.65997 0
M  V30 1596 H 161.141 2.95772 0.363726 0
M  V30 1597 H 158.678 1.46139 0.167858 0
M  V30 1598 H 160.636 3.05442 2.84185 0
M  V30 1599 H 159.266 1.94437 2.57671 0
M  V30 1600 H 158.318 3.69464 0.905554 0
M  V30 1601 H 159.63 4.78769 1.39935 0
M  V30 1602 H 158.784 4.76537 3.75496 0
M  V30 1603 H 157.523 3.58052 3.31134 0
M  V30 1604 H 156.528 5.22857 1.70003 0
M  V30 1605 H 157.753 6.43471 2.17075 0
M  V30 1606 H 155.699 5.17687 4.02909 0
M  V30 1607 H 155.616 6.77295 3.35869 0
M  V30 1608 H 156.884 6.3786 4.48057 0
M  V30 1609 N 161.113 -0.173488 1.56642 0
M  V30 1610 C 162.061 -1.23417 1.97157 0
M  V30 1611 C 163.055 -1.45946 0.860013 0
M  V30 1612 O 164.261 -1.46551 1.04512 0
M  V30 1613 H 160.636 -0.414818 0.62724 0
M  V30 1614 H 162.607 -0.865582 2.8557 0
M  V30 1615 C 161.356 -2.5665 2.34576 0
M  V30 1616 H 160.679 -2.40137 3.19647 0
M  V30 1617 H 162.119 -3.2956 2.6677 0
M  V30 1618 C 160.578 -3.15245 1.18836 0
M  V30 1619 O 161.108 -3.98883 0.474869 0
M  V30 1620 N 159.314 -2.74303 0.959497 0
M  V30 1621 H 158.861 -2.0639 1.54146 0
M  V30 1622 H 158.819 -3.13844 0.186932 0
M  V30 1623 N 162.591 -1.51276 -0.441967 0
M  V30 1624 C 163.821 -1.67273 -1.21257 0
M  V30 1625 C 164.229 -0.367624 -1.85594 0
M  V30 1626 O 163.572 0.663349 -1.71305 0
M  V30 1627 C 163.634 -2.72807 -2.34129 0
M  V30 1628 C 163.298 -4.1554 -1.90198 0
M  V30 1629 C 164.295 -5.00471 -1.40801 0
M  V30 1630 C 161.98 -4.61616 -1.9803 0
M  V30 1631 C 163.974 -6.29536 -0.998174 0
M  V30 1632 C 161.661 -5.90679 -1.56658 0
M  V30 1633 C 162.659 -6.74466 -1.07633 0
M  V30 1634 O 162.347 -8.01116 -0.668459 0
M  V30 1635 H 162.079 -0.564614 -0.371734 0
M  V30 1636 H 164.633 -1.9843 -0.530521 0
M  V30 1637 H 162.863 -2.36954 -3.05597 0
M  V30 1638 H 164.552 -2.77729 -2.96009 0
M  V30 1639 H 165.318 -4.66079 -1.34148 0
M  V30 1640 H 161.197 -3.96526 -2.35135 0
M  V30 1641 H 164.741 -6.94885 -0.61482 0
M  V30 1642 H 160.638 -6.24586 -1.62979 0
M  V30 1643 H 161.406 -8.14633 -0.794722 0
M  V30 1644 N 164.069 0.697108 -1.41344 0
M  V30 1645 C 165.297 1.48593 -1.43972 0
M  V30 1646 C 165.712 1.88747 -0.0445612 0
M  V30 1647 O 165.069 1.56682 0.935785 0
M  V30 1648 C 165.12 2.74946 -2.34706 0
M  V30 1649 O 164.841 2.36484 -3.68791 0
M  V30 1650 C 166.342 3.687 -2.46121 0
M  V30 1651 H 163.562 0.457964 -0.490418 0
M  V30 1652 H 166.106 0.858429 -1.8561 0
M  V30 1653 H 164.261 3.33937 -1.9638 0
M  V30 1654 H 164.675 3.17918 -4.17167 0
M  V30 1655 H 166.149 4.54145 -3.13777 0
M  V30 1656 H 166.626 4.13081 -1.49199 0
M  V30 1657 H 167.232 3.15613 -2.85076 0
M  V30 1658 N 165.547 1.27147 0.931209 0
M  V30 1659 C 166.795 1.13055 1.6752 0
M  V30 1660 C 167.116 -0.324791 1.92276 0
M  V30 1661 O 166.386 -1.22775 1.52654 0
M  V30 1662 H 164.966 0.415391 0.620854 0
M  V30 1663 H 167.628 1.59623 1.11833 0
M  V30 1664 H 166.724 1.65694 2.64485 0
M  V30 1665 N 167.025 -1.13721 1.09112 0
M  V30 1666 C 168.302 -1.81155 0.737706 0
M  V30 1667 C 168.682 -1.96253 -0.777683 0
M  V30 1668 O 168.03 -1.52807 -1.69889 0
M  V30 1669 C 168.24 -3.16392 1.47299 0
M  V30 1670 C 169.588 -3.91787 1.63671 0
M  V30 1671 O 170.612 -3.26005 1.43524 0
M  V30 1672 O 169.471 -5.0977 1.96969 0
M  V30 1673 H 166.565 -0.783518 0.26463 0
M  V30 1674 H 169.111 -1.20676 1.19312 0
M  V30 1675 H 167.883 -3.0061 2.50498 0
M  V30 1676 H 167.506 -3.8457 1.00953 0
M  V30 1677 N 168.503 -0.877838 -1.30888 0
M  V30 1678 C 169.919 -0.570844 -1.49042 0
M  V30 1679 C 170.119 0.893159 -1.80624 0
M  V30 1680 O 169.175 1.67485 -1.88958 0
M  V30 1681 C 170.488 -1.47784 -2.61878 0
M  V30 1682 C 172.036 -1.48071 -2.75761 0
M  V30 1683 C 172.511 -2.37347 -3.91702 0
M  V30 1684 N 174.002 -2.35271 -3.99001 0
M  V30 1685 C 174.737 -3.01063 -4.88004 0
M  V30 1686 N 174.233 -3.76055 -5.81854 0
M  V30 1687 N 176.026 -2.90332 -4.81315 0
M  V30 1688 H 168.177 -1.82502 -1.0866 0
M  V30 1689 H 170.44 -0.780797 -0.537644 0
M  V30 1690 H 170.146 -2.51993 -2.45341 0
M  V30 1691 H 170.02 -1.18215 -3.58197 0
M  V30 1692 H 172.407 -0.446166 -2.91708 0
M  V30 1693 H 172.488 -1.81668 -1.80085 0
M  V30 1694 H 172.132 -3.40883 -3.76512 0
M  V30 1695 H 172.062 -2.01071 -4.86701 0
M  V30 1696 H 174.553 -1.80768 -3.3186 0
M  V30 1697 H 174.866 -4.23366 -6.46514 0
M  V30 1698 H 173.211 -3.80163 -5.81808 0
M  V30 1699 H 176.402 -2.31278 -4.06974 0
M  V30 1700 H 176.575 -3.41885 -5.50471 0
M  V30 1701 N 169.982 1.44106 -0.638065 0
M  V30 1702 C 170.912 2.33448 0.0494287 0
M  V30 1703 C 171.893 1.48606 0.827672 0
M  V30 1704 O 173.078 1.77308 0.792173 0
M  V30 1705 C 170.208 3.31771 1.02691 0
M  V30 1706 C 169.162 4.26485 0.359823 0
M  V30 1707 C 168.488 5.14729 1.44769 0
M  V30 1708 C 169.788 5.17056 -0.738296 0
M  V30 1709 H 171.482 2.91183 -0.696636 0
M  V30 1710 H 169.028 1.40014 -0.336456 0
M  V30 1711 H 170.981 3.93161 1.51666 0
M  V30 1712 H 169.705 2.7226 1.80395 0
M  V30 1713 H 168.364 3.66437 -0.10934 0
M  V30 1714 H 168.012 4.51566 2.21578 0
M  V30 1715 H 167.712 5.78913 1.00668 0
M  V30 1716 H 169.236 5.78991 1.93911 0
M  V30 1717 H 170.65 5.72342 -0.331354 0
M  V30 1718 H 169.047 5.89879 -1.10286 0
M  V30 1719 H 170.117 4.57652 -1.60258 0
M  V30 1720 N 171.46 0.379036 1.52974 0
M  V30 1721 C 172.408 -0.476033 2.27677 0
M  V30 1722 C 173.402 -1.0719 1.31174 0
M  V30 1723 O 174.608 -1.01355 1.48752 0
M  V30 1724 H 170.983 -0.172255 0.732006 0
M  V30 1725 H 172.954 0.175615 2.97883 0
M  V30 1726 C 171.703 -1.5967 3.0887 0
M  V30 1727 H 171.026 -1.1475 3.82978 0
M  V30 1728 H 172.466 -2.16943 3.64296 0
M  V30 1729 C 170.925 -2.54682 2.20542 0
M  V30 1730 O 171.455 -3.57836 1.82527 0
M  V30 1731 N 169.661 -2.24183 1.84907 0
M  V30 1732 H 169.208 -1.40333 2.1602 0
M  V30 1733 H 169.166 -2.88006 1.26096 0
M  V30 1734 N 172.938 -1.57226 0.108567 0
M  V30 1735 C 174.185 -1.94833 -0.551943 0
M  V30 1736 C 174.513 -0.991204 -1.67348 0
M  V30 1737 O 173.768 -0.0131878 -1.95696 0
M  V30 1738 C 174.067 -3.38911 -1.13463 0
M  V30 1739 C 173.733 -4.50696 -0.135509 0
M  V30 1740 C 172.395 -4.80998 0.139252 0
M  V30 1741 C 174.747 -5.18333 0.545957 0
M  V30 1742 C 172.075 -5.76259 1.10194 0
M  V30 1743 C 174.427 -6.14627 1.49721 0
M  V30 1744 C 173.091 -6.43327 1.78006 0
M  V30 1745 H 172.361 -0.712944 -0.20197 0
M  V30 1746 H 175.008 -1.90582 0.18726 0
M  V30 1747 H 173.313 -3.39805 -1.95037 0
M  V30 1748 H 175.01 -3.65317 -1.65362 0
M  V30 1749 H 171.6 -4.27087 -0.359846 0
M  V30 1750 H 175.784 -4.95087 0.346842 0
M  V30 1751 H 171.04 -5.96804 1.32795 0
M  V30 1752 H 175.214 -6.66126 2.03099 0
M  V30 1753 H 172.841 -7.1695 2.52759 0
M  V30 1754 N 174.416 0.165178 -1.56732 0
M  V30 1755 C 175.664 0.879068 -1.8198 0
M  V30 1756 C 175.985 1.82514 -0.686561 0
M  V30 1757 O 175.255 1.93694 0.293146 0
M  V30 1758 H 173.835 0.327608 -0.671329 0
M  V30 1759 H 176.497 0.163526 -1.94213 0
M  V30 1760 H 175.593 1.45228 -2.76252 0
M  V30 1761 N 175.894 1.51508 0.433938 0
M  V30 1762 C 176.824 1.76016 1.53429 0
M  V30 1763 C 177.805 0.610112 1.58782 0
M  V30 1764 O 178.99 0.853177 1.74455 0
M  V30 1765 C 176.12 1.88831 2.9148 0
M  V30 1766 C 175.074 3.04288 3.00987 0
M  V30 1767 C 174.4 3.0229 4.4105 0
M  V30 1768 C 175.7 4.44193 2.74754 0
M  V30 1769 H 177.394 2.68152 1.33171 0
M  V30 1770 H 174.94 1.29035 0.639214 0
M  V30 1771 H 176.893 2.04559 3.6842 0
M  V30 1772 H 175.617 0.933455 3.12976 0
M  V30 1773 H 174.276 2.8827 2.26486 0
M  V30 1774 H 173.924 2.04576 4.59519 0
M  V30 1775 H 173.624 3.79822 4.4834 0
M  V30 1776 H 175.148 3.20116 5.1996 0
M  V30 1777 H 176.562 4.60544 3.41426 0
M  V30 1778 H 174.959 5.23457 2.9345 0
M  V30 1779 H 176.029 4.53996 1.70339 0
M  V30 1780 N 177.372 -0.689602 1.41712 0
M  V30 1781 C 178.335 -1.78521 1.43746 0
M  V30 1782 C 179.335 -1.57436 0.327191 0
M  V30 1783 O 180.525 -1.64 0.587348 0
M  V30 1784 C 177.657 -3.16971 1.25467 0
M  V30 1785 H 178.85 -1.78108 2.41283 0
M  V30 1786 H 176.403 -0.89781 1.27942 0
M  V30 1787 H 177.138 -3.23019 0.287948 0
M  V30 1788 H 176.923 -3.33678 2.05917 0
M  V30 1789 H 178.413 -3.96935 1.2974 0
M  V30 1790 N 178.85 -1.27639 -0.924453 0
M  V30 1791 C 179.813 -1.10681 -2.00705 0
M  V30 1792 C 180.813 -0.0497823 -1.60723 0
M  V30 1793 O 182.003 -0.294654 -1.7169 0
M  V30 1794 C 179.135 -0.687164 -3.33902 0
M  V30 1795 H 180.328 -2.06817 -2.17179 0
M  V30 1796 H 177.881 -1.10473 -1.10569 0
M  V30 1797 H 178.616 0.275439 -3.23128 0
M  V30 1798 H 178.401 -1.45061 -3.6428 0
M  V30 1799 H 179.891 -0.590853 -4.13399 0
M  V30 1800 N 180.328 1.1314 -1.09713 0
M  V30 1801 C 181.238 2.22242 -0.751367 0
M  V30 1802 C 182.254 1.72224 0.247938 0
M  V30 1803 O 183.43 2.01205 0.0885463 0
M  V30 1804 C 180.495 3.46231 -0.180274 0
M  V30 1805 C 179.556 4.11125 -1.2359 0
M  V30 1806 C 178.789 5.29195 -0.691966 0
M  V30 1807 O 179.012 5.68342 0.48414 0
M  V30 1808 O 177.946 5.84214 -1.44838 0
M  V30 1809 H 181.772 2.54197 -1.66186 0
M  V30 1810 H 179.357 1.21331 -0.871735 0
M  V30 1811 H 181.239 4.21185 0.134739 0
M  V30 1812 H 179.914 3.1597 0.703185 0
M  V30 1813 H 178.821 3.37985 -1.60366 0
M  V30 1814 H 180.154 4.45524 -2.09211 0
M  V30 1815 N 181.806 0.884767 1.30421 0
M  V30 1816 C 182.753 0.349642 2.28136 0
M  V30 1817 C 183.723 -0.560061 1.56373 0
M  V30 1818 O 184.908 -0.488524 1.8444 0
M  V30 1819 C 182.048 -0.42999 3.42411 0
M  V30 1820 C 181.161 0.508907 4.28992 0
M  V30 1821 C 180.296 -0.286301 5.30428 0
M  V30 1822 C 179.335 0.648079 6.08659 0
M  V30 1823 N 178.472 -0.111792 7.02011 0
M  V30 1824 H 183.312 1.18807 2.73293 0
M  V30 1825 H 180.849 0.597231 1.3443 0
M  V30 1826 H 182.807 -0.897923 4.07423 0
M  V30 1827 H 181.437 -1.23299 2.98324 0
M  V30 1828 H 180.489 1.09533 3.64289 0
M  V30 1829 H 181.801 1.22475 4.8353 0
M  V30 1830 H 180.955 -0.816098 6.01186 0
M  V30 1831 H 179.694 -1.03536 4.76583 0
M  V30 1832 H 178.699 1.18951 5.36778 0
M  V30 1833 H 179.924 1.39623 6.64592 0
M  V30 1834 H 177.87 -0.843395 6.50556 0
M  V30 1835 H 177.787 0.544429 7.54037 0
M  V30 1836 H 179.055 -0.622339 7.77012 0
M  V30 1837 N 183.284 -1.43765 0.645699 0
M  V30 1838 C 184.247 -2.29163 -0.0409488 0
M  V30 1839 C 185.247 -1.41813 -0.757996 0
M  V30 1840 O 186.437 -1.63527 -0.600382 0
M  V30 1841 C 183.569 -3.23716 -1.06869 0
M  V30 1842 H 184.762 -2.91366 0.710345 0
M  V30 1843 H 182.315 -1.5092 0.406547 0
M  V30 1844 H 183.05 -2.66393 -1.84947 0
M  V30 1845 H 182.835 -3.88105 -0.558277 0
M  V30 1846 H 184.325 -3.87831 -1.54845 0
M  V30 1847 N 184.763 -0.387143 -1.52771 0
M  V30 1848 C 186.179 -0.037007 -1.59557 0
M  V30 1849 C 186.379 1.44801 -1.40124 0
M  V30 1850 O 185.435 2.21227 -1.21716 0
M  V30 1851 C 186.748 -0.512256 -2.96305 0
M  V30 1852 C 188.296 -0.468328 -3.09476 0
M  V30 1853 C 188.771 -0.919731 -4.4867 0
M  V30 1854 N 190.262 -0.875656 -4.54848 0
M  V30 1855 C 190.997 -1.19637 -5.6078 0
M  V30 1856 N 190.493 -1.58745 -6.74368 0
M  V30 1857 N 192.286 -1.11776 -5.50874 0
M  V30 1858 H 184.437 -1.35395 -1.63652 0
M  V30 1859 H 186.7 -0.554818 -0.768688 0
M  V30 1860 H 186.406 -1.54935 -3.15734 0
M  V30 1861 H 186.28 0.089805 -3.77093 0
M  V30 1862 H 188.667 0.559671 -2.89744 0
M  V30 1863 H 188.748 -1.10616 -2.30646 0
M  V30 1864 H 188.392 -1.94595 -4.69143 0
M  V30 1865 H 188.322 -0.258927 -5.25963 0
M  V30 1866 H 190.813 -0.587843 -3.733 0
M  V30 1867 H 191.126 -1.81586 -7.51163 0
M  V30 1868 H 189.471 -1.6263 -6.75705 0
M  V30 1869 H 192.662 -0.811264 -4.61016 0
M  V30 1870 H 192.835 -1.37103 -6.3333 0
M  V30 1871 N 186.241 1.57166 -0.116904 0
M  V30 1872 C 187.657 1.5779 0.239693 0
M  V30 1873 C 187.857 1.1295 1.66867 0
M  V30 1874 O 186.913 0.81592 2.38954 0
M  V30 1875 C 188.226 3.00699 0.00828202 0
M  V30 1876 C 189.774 3.12912 0.0743438 0
M  V30 1877 C 190.249 4.57817 -0.129348 0
M  V30 1878 N 191.74 4.63139 -0.075247 0
M  V30 1879 C 192.475 5.73023 -0.207788 0
M  V30 1880 N 191.971 6.91665 -0.396382 0
M  V30 1881 N 193.764 5.61906 -0.14751 0
M  V30 1882 H 185.915 1.84615 -1.05029 0
M  V30 1883 H 188.178 0.85311 -0.41341 0
M  V30 1884 H 187.884 3.37784 -0.979531 0
M  V30 1885 H 187.758 3.69848 0.741077 0
M  V30 1886 H 190.145 2.75686 1.05268 0
M  V30 1887 H 190.226 2.4631 -0.690297 0
M  V30 1888 H 189.87 4.95742 -1.10465 0
M  V30 1889 H 189.8 5.22507 0.655253 0
M  V30 1890 H 192.291 3.7784 0.0670898 0
M  V30 1891 H 192.604 7.71255 -0.488437 0
M  V30 1892 H 190.949 6.93654 -0.432329 0
M  V30 1893 H 194.14 4.681 -0.00115036 0
M  V30 1894 H 194.313 6.47501 -0.254247 0
M  V30 1895 N 187.719 -0.156864 1.56817 0
M  V30 1896 C 188.649 -1.19589 2.00551 0
M  V30 1897 C 189.63 -1.4536 0.883426 0
M  V30 1898 O 190.815 -1.56449 1.15054 0
M  V30 1899 C 187.945 -2.53143 2.37773 0
M  V30 1900 C 186.899 -2.41913 3.53075 0
M  V30 1901 C 186.225 -3.80088 3.76081 0
M  V30 1902 C 187.525 -1.91157 4.86062 0
M  V30 1903 H 189.219 -0.832293 2.87599 0
M  V30 1904 H 186.765 -0.398918 1.38364 0
M  V30 1905 H 188.718 -3.26047 2.66967 0
M  V30 1906 H 187.442 -2.91319 1.4765 0
M  V30 1907 H 186.101 -1.71462 3.24031 0
M  V30 1908 H 185.749 -4.15683 2.83225 0
M  V30 1909 H 185.449 -3.73439 4.53671 0
M  V30 1910 H 186.973 -4.54556 4.0769 0
M  V30 1911 H 188.387 -2.53846 5.14038 0
M  V30 1912 H 186.784 -1.95422 5.67389 0
M  V30 1913 H 187.854 -0.866673 4.77092 0
M  V30 1914 N 189.197 -1.51736 -0.425897 0
M  V30 1915 C 190.445 -1.64644 -1.17204 0
M  V30 1916 C 190.766 -0.370486 -1.91448 0
M  V30 1917 O 190.036 0.614088 -1.86026 0
M  V30 1918 H 188.616 -0.606819 -0.435638 0
M  V30 1919 H 191.278 -1.88713 -0.487177 0
M  V30 1920 H 190.374 -2.47958 -1.89534 0
M  V30 1921 N 190.675 0.682077 -1.42076 0
M  V30 1922 C 191.905 1.46844 -1.45329 0
M  V30 1923 C 192.313 1.89102 -0.0609328 0
M  V30 1924 O 191.656 1.58238 0.933082 0
M  V30 1925 C 191.718 2.75375 -2.31104 0
M  V30 1926 C 191.382 2.55238 -3.79081 0
M  V30 1927 C 192.379 2.20309 -4.70914 0
M  V30 1928 C 190.064 2.70459 -4.2327 0
M  V30 1929 C 192.058 2.00859 -6.04925 0
M  V30 1930 C 189.745 2.50624 -5.57343 0
M  V30 1931 C 190.743 2.15876 -6.47986 0
M  V30 1932 O 190.431 1.96227 -7.79583 0
M  V30 1933 H 190.163 0.4586 -0.496651 0
M  V30 1934 H 192.717 0.846131 -1.87162 0
M  V30 1935 H 190.947 3.40061 -1.84107 0
M  V30 1936 H 192.636 3.37231 -2.25898 0
M  V30 1937 H 193.402 2.08153 -4.38061 0
M  V30 1938 H 189.281 2.96485 -3.53012 0
M  V30 1939 H 192.825 1.7366 -6.75639 0
M  V30 1940 H 188.722 2.62375 -5.89771 0
M  V30 1941 H 189.49 2.10883 -7.90867 0
M  V30 1942 N 192.153 1.28127 0.917671 0
M  V30 1943 C 193.101 1.11569 2.04096 0
M  V30 1944 C 194.095 0.0360242 1.69362 0
M  V30 1945 O 195.301 0.194501 1.78946 0
M  V30 1946 H 191.676 0.344097 0.668656 0
M  V30 1947 H 193.647 2.06711 2.15205 0
M  V30 1948 C 192.396 0.790197 3.38602 0
M  V30 1949 H 191.719 1.61293 3.6582 0
M  V30 1950 H 193.159 0.714271 4.1794 0
M  V30 1951 C 191.618 -0.505897 3.3308 0
M  V30 1952 O 192.148 -1.53736 3.71117 0
M  V30 1953 N 190.354 -0.505193 2.86175 0
M  V30 1954 H 189.901 0.334621 2.55417 0
M  V30 1955 H 189.859 -1.37243 2.82863 0
M  V30 1956 N 193.631 -1.12557 1.10312 0
M  V30 1957 C 194.877 -1.84311 0.846011 0
M  V30 1958 C 195.21 -1.83805 -0.626859 0
M  V30 1959 O 194.485 -1.28268 -1.46211 0
M  V30 1960 C 194.768 -3.32048 1.39341 0
M  V30 1961 C 194.621 -3.41016 2.93305 0
M  V30 1962 C 195.94 -4.27764 1.03468 0
M  V30 1963 H 193.059 -0.669192 0.30879 0
M  V30 1964 H 195.701 -1.32057 1.36605 0
M  V30 1965 H 193.851 -3.76678 0.951087 0
M  V30 1966 H 195.523 -3.05031 3.46055 0
M  V30 1967 H 193.766 -2.81603 3.29973 0
M  V30 1968 H 194.437 -4.44948 3.26689 0
M  V30 1969 H 196.913 -3.91253 1.41633 0
M  V30 1970 H 195.789 -5.29549 1.44463 0
M  V30 1971 H 196.05 -4.42064 -0.0560404 0
M  V30 1972 N 195.109 -0.891671 -1.2995 0
M  V30 1973 C 196.019 -0.367691 -2.31701 0
M  V30 1974 C 197.035 0.533486 -1.6562 0
M  V30 1975 O 198.211 0.424997 -1.96865 0
M  V30 1976 C 195.276 0.403406 -3.44345 0
M  V30 1977 C 194.337 -0.528328 -4.26037 0
M  V30 1978 C 193.57 0.206063 -5.33302 0
M  V30 1979 O 193.793 1.43119 -5.52153 0
M  V30 1980 O 192.727 -0.447281 -6.00236 0
M  V30 1981 H 196.553 -1.21163 -2.78484 0
M  V30 1982 H 194.138 -0.655725 -1.34241 0
M  V30 1983 H 196.02 0.839753 -4.12948 0
M  V30 1984 H 194.695 1.22354 -2.99685 0
M  V30 1985 H 193.602 -1.01362 -3.60106 0
M  V30 1986 H 194.935 -1.31465 -4.74318 0
M  V30 1987 N 196.587 1.43421 -0.653314 0
M  V30 1988 C 197.52 2.2803 0.0879804 0
M  V30 1989 C 198.498 1.39833 0.82979 0
M  V30 1990 O 199.682 1.69275 0.829341 0
M  V30 1991 C 196.809 3.19247 1.13132 0
M  V30 1992 C 195.855 4.23704 0.487546 0
M  V30 1993 S 196.688 5.30377 -0.738961 0
M  V30 1994 C 197.844 6.25162 0.30384 0
M  V30 1995 H 198.077 2.90554 -0.629739 0
M  V30 1996 H 195.61 1.47934 -0.442156 0
M  V30 1997 H 197.568 3.72346 1.72827 0
M  V30 1998 H 196.229 2.55901 1.82136 0
M  V30 1999 H 195.422 4.87631 1.27407 0
M  V30 2000 H 195.024 3.73983 -0.0352915 0
M  V30 2001 H 197.316 6.67321 1.17 0
M  V30 2002 H 198.259 7.07463 -0.300402 0
M  V30 2003 H 198.667 5.60864 0.63969 0
M  V30 2004 N 198.065 0.39524 1.52563 0
M  V30 2005 C 198.995 -0.428384 2.29537 0
M  V30 2006 C 199.976 -1.05831 1.33169 0
M  V30 2007 O 201.161 -1.06995 1.62067 0
M  V30 2008 C 198.291 -1.55274 3.10656 0
M  V30 2009 C 197.245 -1.04855 4.14957 0
M  V30 2010 C 196.571 -2.26543 4.84337 0
M  V30 2011 C 197.871 -0.112324 5.22179 0
M  V30 2012 H 199.565 0.213867 2.98635 0
M  V30 2013 H 197.111 0.104298 1.43622 0
M  V30 2014 H 199.064 -2.1358 3.63265 0
M  V30 2015 H 197.788 -2.22266 2.39302 0
M  V30 2016 H 196.447 -0.487985 3.63338 0
M  V30 2017 H 196.095 -2.92059 4.09525 0
M  V30 2018 H 195.795 -1.93466 5.54837 0
M  V30 2019 H 197.319 -2.85481 5.39753 0
M  V30 2020 H 198.733 -0.603752 5.70112 0
M  V30 2021 H 197.13 0.128968 5.99961 0
M  V30 2022 H 198.2 0.837052 4.77621 0
M  V30 2023 N 199.544 -1.57102 0.125237 0
M  V30 2024 C 200.793 -1.94582 -0.531095 0
M  V30 2025 C 201.106 -1.01126 -1.6743 0
M  V30 2026 O 202.312 -1.28097 -2.39381 0
M  V30 2027 C 200.768 -3.45839 -0.996164 0
M  V30 2028 C 200.376 -4.47842 0.118926 0
M  V30 2029 C 202.12 -3.92227 -1.62352 0
M  V30 2030 C 200.027 -5.90284 -0.363192 0
M  V30 2031 H 198.957 -0.726391 -0.20217 0
M  V30 2032 H 201.608 -1.82339 0.206092 0
M  V30 2033 H 199.99 -3.53338 -1.78796 0
M  V30 2034 H 201.164 -4.52018 0.895358 0
M  V30 2035 H 199.479 -4.11243 0.653324 0
M  V30 2036 H 202.076 -4.96069 -1.99548 0
M  V30 2037 H 202.419 -3.32552 -2.50429 0
M  V30 2038 H 202.952 -3.87554 -0.897019 0
M  V30 2039 H 199.691 -6.53728 0.481679 0
M  V30 2040 H 199.211 -5.89515 -1.10597 0
M  V30 2041 H 200.89 -6.41752 -0.822377 0
M  V30 2042 N 201.022 0.148545 -1.56898 0
M  V30 2043 C 202.268 0.862694 -1.83536 0
M  V30 2044 C 202.601 1.80889 -0.706604 0
M  V30 2045 O 201.876 1.92328 0.289885 0
M  V30 2046 C 202.159 1.63853 -3.20662 0
M  V30 2047 C 202.012 0.713925 -4.44098 0
M  V30 2048 C 203.331 2.60133 -3.54991 0
M  V30 2049 H 200.45 0.312179 -0.667618 0
M  V30 2050 H 203.092 0.127953 -1.89569 0
M  V30 2051 H 201.242 2.26489 -3.1565 0
M  V30 2052 H 202.914 0.098686 -4.61194 0
M  V30 2053 H 201.157 0.0234019 -4.33794 0
M  V30 2054 H 201.828 1.29278 -5.36648 0
M  V30 2055 H 204.304 2.07616 -3.60603 0
M  V30 2056 H 203.18 3.11468 -4.51972 0
M  V30 2057 H 203.441 3.41417 -2.80868 0
M  V30 2058 N 202.5 1.5196 0.417844 0
M  V30 2059 C 203.748 1.65263 1.16329 0
M  V30 2060 C 204.069 0.380634 1.91249 0
M  V30 2061 O 203.339 -0.604214 1.86349 0
M  V30 2062 H 201.919 0.60912 0.432414 0
M  V30 2063 H 204.581 1.88969 0.477162 0
M  V30 2064 H 203.677 2.4896 1.88217 0
M  V30 2065 N 203.978 -0.674533 1.42435 0
M  V30 2066 C 205.255 -1.4305 1.33402 0
M  V30 2067 C 205.635 -2.11081 -0.0284674 0
M  V30 2068 O 204.983 -2.03257 -1.04397 0
M  V30 2069 C 205.193 -2.43272 2.50239 0
M  V30 2070 C 206.541 -3.07907 2.92367 0
M  V30 2071 O 207.565 -2.53599 2.50132 0
M  V30 2072 O 206.424 -4.0632 3.65467 0
M  V30 2073 H 203.518 -0.638076 0.526106 0
M  V30 2074 H 206.064 -0.703235 1.54443 0
M  V30 2075 H 204.836 -1.91803 3.41068 0
M  V30 2076 H 204.459 -3.23479 2.31186 0
M  V30 2077 N 205.456 -1.28612 -0.910864 0
M  V30 2078 C 206.733 -1.06632 -1.63979 0
M  V30 2079 C 207.113 0.393351 -2.07403 0
M  V30 2080 O 206.461 1.37999 -1.82122 0
M  V30 2081 C 206.671 -2.0436 -2.8291 0
M  V30 2082 C 208.019 -2.34666 -3.5386 0
M  V30 2083 O 209.043 -2.02467 -2.93062 0
M  V30 2084 O 207.902 -2.89631 -4.63439 0
M  V30 2085 H 204.996 -0.407737 -0.7195 0
M  V30 2086 H 207.542 -1.39942 -0.959914 0
M  V30 2087 H 206.314 -3.02727 -2.47936 0
M  V30 2088 H 205.937 -1.71714 -3.58609 0
M  V30 2089 N 206.934 1.1197 -1.10907 0
M  V30 2090 C 208.183 1.82947 -0.849302 0
M  V30 2091 C 208.496 1.85275 0.627112 0
M  V30 2092 O 209.702 2.52296 1.00295 0
M  V30 2093 C 208.158 3.28529 -1.46959 0
M  V30 2094 C 207.766 3.34546 -2.97965 0
M  V30 2095 C 209.51 4.04443 -1.28942 0
M  V30 2096 C 207.417 4.74491 -3.53004 0
M  V30 2097 H 206.347 0.685477 -0.314065 0
M  V30 2098 H 208.998 1.2604 -1.33365 0
M  V30 2099 H 207.38 3.85333 -0.912917 0
M  V30 2100 H 208.554 2.87654 -3.59989 0
M  V30 2101 H 206.869 2.72108 -3.15192 0
M  V30 2102 H 209.466 5.07787 -1.67502 0
M  V30 2103 H 209.809 4.15656 -0.231456 0
M  V30 2104 H 210.342 3.5401 -1.81443 0
M  V30 2105 H 207.081 4.68474 -4.58489 0
M  V30 2106 H 206.601 5.21816 -2.9575 0
M  V30 2107 H 208.28 5.4344 -3.51115 0
M  V30 2108 N 208.412 0.89855 1.29475 0
M  V30 2109 C 209.637 0.538561 2.00285 0
M  V30 2110 C 210.062 -0.869135 1.66816 0
M  V30 2111 O 209.42 -1.57831 0.892145 0
M  V30 2112 C 209.468 0.736475 3.52999 0
M  V30 2113 O 208.572 -0.211537 4.11857 0
M  V30 2114 H 207.913 0.210563 0.62973 0
M  V30 2115 H 210.443 1.20982 1.64998 0
M  V30 2116 H 210.453 0.640685 4.02938 0
M  V30 2117 H 209.128 1.76276 3.76696 0
M  V30 2118 H 207.705 -0.0682991 3.72837 0
M  V30 2119 N 209.89 -1.43072 0.660911 0
M  V30 2120 C 210.82 -2.33497 -0.0122829 0
M  V30 2121 C 211.801 -1.49903 -0.803925 0
M  V30 2122 O 212.986 -1.78546 -0.763864 0
M  V30 2123 C 210.116 -3.33363 -0.973994 0
M  V30 2124 C 209.07 -4.27003 -0.291928 0
M  V30 2125 C 208.396 -5.16967 -1.36562 0
M  V30 2126 C 209.696 -5.15816 0.820462 0
M  V30 2127 H 211.39 -2.90038 0.742873 0
M  V30 2128 H 208.936 -1.39461 0.358688 0
M  V30 2129 H 210.889 -3.95524 -1.45392 0
M  V30 2130 H 209.613 -2.75095 -1.7604 0
M  V30 2131 H 208.272 -3.66217 0.167623 0
M  V30 2132 H 207.92 -4.55034 -2.14366 0
M  V30 2133 H 207.62 -5.80441 -0.914454 0
M  V30 2134 H 209.144 -5.82003 -1.84675 0
M  V30 2135 H 210.558 -5.71742 0.422366 0
M  V30 2136 H 208.955 -5.8805 1.19656 0
M  V30 2137 H 210.025 -4.55045 1.67518 0
M  V30 2138 N 211.368 -0.403325 -1.52352 0
M  V30 2139 C 212.779 0.0675782 -1.86578 0
M  V30 2140 C 213.13 1.44941 -1.32236 0
M  V30 2141 O 212.255 2.06112 -0.659307 0
M  V30 2142 C 212.85 0.129404 -3.38553 0
M  V30 2143 C 211.409 0.544629 -3.72439 0
M  V30 2144 C 210.556 -0.284551 -2.75836 0
M  V30 2145 H 213.507 -0.620631 -1.46061 0
M  V30 2146 H 213.528 0.94581 -3.68558 0
M  V30 2147 H 213.04 -0.87645 -3.78074 0
M  V30 2148 H 211.141 1.55734 -3.38493 0
M  V30 2149 H 211.254 0.293046 -4.78203 0
M  V30 2150 H 209.618 0.252258 -2.53448 0
M  V30 2151 H 210.401 -1.28865 -3.18196 0
M  V30 2152 N 212.846 1.57033 -0.133567 0
M  V30 2153 C 214.123 1.87256 0.56522 0
M  V30 2154 C 214.503 1.03726 1.83859 0
M  V30 2155 O 213.851 0.120247 2.28183 0
M  V30 2156 C 214.061 3.3865 0.843636 0
M  V30 2157 C 215.409 4.07574 1.19032 0
M  V30 2158 O 216.433 3.43752 0.933429 0
M  V30 2159 O 215.292 5.20259 1.67312 0
M  V30 2160 H 212.386 0.775678 0.286796 0
M  V30 2161 H 214.932 1.68855 -0.169168 0
M  V30 2162 H 213.704 3.91257 -0.0581149 0
M  V30 2163 H 213.327 3.62532 1.63268 0
M  V30 2164 N 214.325 -0.140222 1.56975 0
M  V30 2165 C 215.273 -1.19207 1.99731 0
M  V30 2166 C 216.267 -1.44089 0.890777 0
M  V30 2167 O 217.473 -1.44301 1.07597 0
M  V30 2168 H 213.848 -0.40142 0.635898 0
M  V30 2169 H 215.819 -0.804813 2.87342 0
M  V30 2170 C 214.568 -2.51617 2.39967 0
M  V30 2171 H 213.891 -2.33303 3.24669 0
M  V30 2172 H 215.331 -3.23827 2.73701 0
M  V30 2173 C 213.79 -3.12654 1.25496 0
M  V30 2174 O 214.32 -3.97786 0.559371 0
M  V30 2175 N 212.526 -2.72206 1.01746 0
M  V30 2176 H 212.073 -2.03074 1.58489 0
M  V30 2177 H 212.031 -3.13377 0.253461 0
M  V30 2178 N 215.803 -1.52179 -0.40978 0
M  V30 2179 C 216.75 -1.75475 -1.49924 0
M  V30 2180 C 217.72 -0.597175 -1.54994 0
M  V30 2181 O 218.905 -0.834655 -1.71575 0
M  V30 2182 C 216.045 -1.9107 -2.87378 0
M  V30 2183 C 215.158 -3.18717 -2.91622 0
M  V30 2184 C 214.293 -3.24747 -4.20372 0
M  V30 2185 C 213.332 -4.46598 -4.18588 0
M  V30 2186 N 212.469 -4.50025 -5.38908 0
M  V30 2187 H 217.309 -2.68458 -1.29361 0
M  V30 2188 H 214.846 -1.33024 -0.627934 0
M  V30 2189 H 216.804 -1.98096 -3.6717 0
M  V30 2190 H 215.434 -1.01469 -3.06437 0
M  V30 2191 H 214.486 -3.20866 -2.04326 0
M  V30 2192 H 215.798 -4.08544 -2.86169 0
M  V30 2193 H 214.952 -3.30841 -5.08556 0
M  V30 2194 H 213.691 -2.32857 -4.28519 0
M  V30 2195 H 212.696 -4.40652 -3.28794 0
M  V30 2196 H 213.921 -5.39783 -4.12081 0
M  V30 2197 H 211.867 -3.61017 -5.47725 0
M  V30 2198 H 211.784 -5.33697 -5.35447 0
M  V30 2199 H 213.052 -4.60347 -6.29048 0
M  V30 2200 N 217.281 0.66697 -1.42791 0
M  V30 2201 C 218.231 1.77313 -1.43332 0
M  V30 2202 C 219.215 1.5801 -0.303586 0
M  V30 2203 O 220.407 1.68356 -0.546385 0
M  V30 2204 C 217.536 3.15822 -1.34578 0
M  V30 2205 C 216.622 3.40721 -2.52528 0
M  V30 2206 N 217.013 3.36162 -3.77927 0
M  V30 2207 C 215.311 3.71387 -2.46956 0
M  V30 2208 C 216.012 3.60762 -4.56318 0
M  V30 2209 N 214.988 3.81908 -3.86843 0
M  V30 2210 H 218.79 1.72193 -2.38174 0
M  V30 2211 H 216.304 0.868114 -1.3725 0
M  V30 2212 H 218.301 3.951 -1.33048 0
M  V30 2213 H 216.961 3.22133 -0.407453 0
M  V30 2214 H 217.972 3.15885 -4.10411 0
M  V30 2215 H 214.649 3.84897 -1.61743 0
M  V30 2216 H 216.039 3.63132 -5.65318 0
M  V30 2217 N 218.759 1.29093 0.90403 0
M  V30 2218 C 220.17 1.15186 1.46932 0
M  V30 2219 C 220.521 -0.254587 1.94541 0
M  V30 2220 O 219.646 -1.14972 1.83332 0
M  V30 2221 C 220.241 2.08492 2.67051 0
M  V30 2222 C 218.8 1.98621 3.19729 0
M  V30 2223 C 217.947 1.9967 1.92425 0
M  V30 2224 H 220.898 1.41641 0.715789 0
M  V30 2225 H 220.919 1.65461 3.42641 0
M  V30 2226 H 220.431 3.10847 2.3237 0
M  V30 2227 H 218.532 0.993389 3.59114 0
M  V30 2228 H 218.645 2.86068 3.8432 0
M  V30 2229 H 217.009 1.44208 2.09943 0
M  V30 2230 H 217.792 3.03721 1.60026 0
M  V30 2231 N 220.237 -1.11381 1.11499 0
M  V30 2232 C 221.653 -1.35143 0.849031 0
M  V30 2233 C 221.853 -1.94515 -0.525938 0
M  V30 2234 O 220.909 -2.1785 -1.27662 0
M  V30 2235 C 222.222 -2.28249 1.95762 0
M  V30 2236 C 223.77 -2.41812 1.98736 0
M  V30 2237 C 224.245 -3.3824 3.088 0
M  V30 2238 N 225.736 -3.45803 3.08179 0
M  V30 2239 C 226.471 -4.20358 3.89982 0
M  V30 2240 N 225.967 -4.97884 4.8175 0
M  V30 2241 N 227.76 -4.15877 3.78157 0
M  V30 2242 H 219.911 -0.712062 2.00109 0
M  V30 2243 H 222.174 -0.376025 0.870235 0
M  V30 2244 H 221.88 -1.91817 2.94787 0
M  V30 2245 H 221.754 -3.28473 1.85433 0
M  V30 2246 H 224.141 -2.77518 1.00338 0
M  V30 2247 H 224.222 -1.41437 2.13141 0
M  V30 2248 H 223.866 -3.03261 4.07425 0
M  V30 2249 H 223.796 -4.38471 2.91635 0
M  V30 2250 H 226.287 -2.90506 2.41691 0
M  V30 2251 H 226.6 -5.52142 5.40702 0
M  V30 2252 H 224.945 -4.97043 4.85771 0
M  V30 2253 H 228.136 -3.544 3.05808 0
M  V30 2254 H 228.309 -4.73723 4.42143 0
M  V30 2255 N 221.715 -0.905404 -1.28997 0
M  V30 2256 C 222.963 -0.533192 -1.9494 0
M  V30 2257 C 223.284 0.924618 -1.71685 0
M  V30 2258 O 222.554 1.65268 -1.05183 0
M  V30 2259 H 221.134 -0.194194 -0.721317 0
M  V30 2260 H 223.796 -1.15294 -1.57141 0
M  V30 2261 H 222.892 -0.72059 -3.03667 0
M  V30 2262 N 223.193 1.4272 -0.668489 0
M  V30 2263 C 224.442 2.00846 -0.185389 0
M  V30 2264 C 224.755 1.53442 1.21305 0
M  V30 2265 O 225.961 2.03944 1.79218 0
M  V30 2266 C 224.417 3.58805 -0.280591 0
M  V30 2267 C 224.025 4.15198 -1.68268 0
M  V30 2268 C 225.769 4.24255 0.14412 0
M  V30 2269 C 223.676 5.655 -1.73099 0
M  V30 2270 H 222.606 0.751145 -0.0655475 0
M  V30 2271 H 225.257 1.63516 -0.832752 0
M  V30 2272 H 223.639 3.93608 0.434553 0
M  V30 2273 H 224.813 3.91866 -2.42441 0
M  V30 2274 H 223.128 3.62176 -2.05469 0
M  V30 2275 H 225.725 5.34547 0.128086 0
M  V30 2276 H 226.068 3.99277 1.17827 0
M  V30 2277 H 226.601 3.94389 -0.519798 0
M  V30 2278 H 223.34 5.95268 -2.74475 0
M  V30 2279 H 222.86 5.90842 -1.03274 0
M  V30 2280 H 224.539 6.29808 -1.48158 0
M  V30 2281 N 224.671 0.411399 1.52136 0
M  V30 2282 C 225.634 -0.401089 2.25663 0
M  V30 2283 C 226.634 -0.971732 1.28117 0
M  V30 2284 O 227.824 -0.850254 1.52041 0
M  V30 2285 C 224.956 -1.56483 3.02863 0
M  V30 2286 H 226.149 0.24295 2.98914 0
M  V30 2287 H 223.702 0.163968 1.55438 0
M  V30 2288 H 224.437 -2.24567 2.33967 0
M  V30 2289 H 224.222 -1.16211 3.74483 0
M  V30 2290 H 225.712 -2.13951 3.58629 0
M  V30 2291 N 226.149 -1.5696 0.141893 0
M  V30 2292 C 227.397 -1.95573 -0.509484 0
M  V30 2293 C 227.718 -1.02746 -1.65736 0
M  V30 2294 O 226.988 -0.0880311 -1.95702 0
M  V30 2295 H 225.568 -0.722115 -0.191205 0
M  V30 2296 H 228.23 -1.93697 0.216196 0
M  V30 2297 H 227.326 -2.99171 -0.889 0
M  V30 2298 N 227.627 0.131896 -1.57047 0
M  V30 2299 C 228.855 0.856461 -1.88341 0
M  V30 2300 C 229.27 1.74042 -0.731757 0
M  V30 2301 O 228.627 1.80051 0.297945 0
M  V30 2302 C 228.678 1.70064 -3.18999 0
M  V30 2303 O 228.399 0.852278 -4.2973 0
M  V30 2304 C 229.9 2.53148 -3.63911 0
M  V30 2305 H 227.12 0.246885 -0.62393 0
M  V30 2306 H 229.664 0.120152 -2.04147 0
M  V30 2307 H 227.819 2.38984 -3.04902 0
M  V30 2308 H 228.233 1.43329 -5.04537 0
M  V30 2309 H 229.707 3.07931 -4.58129 0
M  V30 2310 H 230.184 3.29901 -2.89935 0
M  V30 2311 H 230.79 1.89492 -3.80753 0
M  V30 2312 N 229.106 1.52395 0.401703 0
M  V30 2313 C 230.355 1.66044 1.14509 0
M  V30 2314 C 230.668 0.400216 1.91462 0
M  V30 2315 O 231.874 0.416632 2.68284 0
M  V30 2316 C 230.33 2.93388 2.0845 0
M  V30 2317 C 229.938 4.26545 1.36978 0
M  V30 2318 C 231.682 3.16402 2.83001 0
M  V30 2319 C 229.589 5.45007 2.29611 0
M  V30 2320 H 228.519 0.618562 0.431158 0
M  V30 2321 H 231.17 1.78886 0.40892 0
M  V30 2322 H 229.552 2.74263 2.8565 0
M  V30 2323 H 230.726 4.56179 0.650916 0
M  V30 2324 H 229.041 4.09692 0.74438 0
M  V30 2325 H 231.638 4.02085 3.52465 0
M  V30 2326 H 231.981 2.30943 3.46368 0
M  V30 2327 H 232.514 3.36034 2.12898 0
M  V30 2328 H 229.253 6.32835 1.70879 0
M  V30 2329 H 228.773 5.19702 2.9945 0
M  V30 2330 H 230.452 5.7838 2.89974 0
M  V30 2331 N 230.584 -0.659388 1.43143 0
M  V30 2332 C 231.514 -1.78422 1.50625 0
M  V30 2333 C 232.495 -1.66216 0.361443 0
M  V30 2334 O 233.68 -1.85404 0.577834 0
M  V30 2335 C 230.81 -3.16815 1.42287 0
M  V30 2336 C 229.764 -3.43777 2.54954 0
M  V30 2337 C 229.09 -4.81905 2.31671 0
M  V30 2338 C 230.39 -3.39134 3.97222 0
M  V30 2339 H 232.084 -1.72417 2.44771 0
M  V30 2340 H 229.63 -0.828084 1.17808 0
M  V30 2341 H 231.583 -3.95253 1.46127 0
M  V30 2342 H 230.307 -3.23534 0.446435 0
M  V30 2343 H 228.966 -2.67707 2.50457 0
M  V30 2344 H 228.614 -4.85294 1.32284 0
M  V30 2345 H 228.314 -5.00906 3.07192 0
M  V30 2346 H 229.838 -5.62609 2.37284 0
M  V30 2347 H 231.252 -4.07518 4.03239 0
M  V30 2348 H 229.649 -3.69671 4.72719 0
M  V30 2349 H 230.719 -2.37426 4.22797 0
M  V30 2350 N 232.062 -1.29571 -0.897171 0
M  V30 2351 C 233.308 -1.17863 -1.65034 0
M  V30 2352 C 233.641 0.268729 -1.92332 0
M  V30 2353 O 232.916 1.19378 -1.53555 0
M  V30 2354 C 233.199 -1.995 -2.99786 0
M  V30 2355 C 233.052 -3.5239 -2.79538 0
M  V30 2356 C 234.371 -1.82335 -4.00552 0
M  V30 2357 H 231.49 -0.429528 -0.598895 0
M  V30 2358 H 234.132 -1.59072 -1.03905 0
M  V30 2359 H 232.282 -1.64485 -3.51962 0
M  V30 2360 H 233.954 -3.97401 -2.34244 0
M  V30 2361 H 232.197 -3.77187 -2.14273 0
M  V30 2362 H 232.868 -4.04787 -3.75302 0
M  V30 2363 H 235.344 -2.12924 -3.57495 0
M  V30 2364 H 234.22 -2.41801 -4.92771 0
M  V30 2365 H 234.481 -0.779209 -4.35179 0
M  V30 2366 N 233.54 1.10788 -1.12088 0
M  V30 2367 C 234.49 2.15158 -0.754401 0
M  V30 2368 C 235.474 1.59026 0.244846 0
M  V30 2369 O 236.666 1.76927 0.0509097 0
M  V30 2370 C 233.795 3.42677 -0.206657 0
M  V30 2371 C 232.881 4.05751 -1.23398 0
M  V30 2372 N 233.272 4.43582 -2.43041 0
M  V30 2373 C 231.57 4.32764 -1.07848 0
M  V30 2374 C 232.271 4.93085 -3.08613 0
M  V30 2375 N 231.247 4.89664 -2.36072 0
M  V30 2376 H 235.049 2.42195 -1.6649 0
M  V30 2377 H 232.563 1.27872 -1.00112 0
M  V30 2378 H 234.56 4.16834 0.0740646 0
M  V30 2379 H 233.22 3.17101 0.698342 0
M  V30 2380 H 234.231 4.35395 -2.80449 0
M  V30 2381 H 230.908 4.16863 -0.230483 0
M  V30 2382 H 232.298 5.31933 -4.10483 0
M  V30 2383 N 235.018 0.912232 1.28515 0
M  V30 2384 C 235.965 0.397954 2.27343 0
M  V30 2385 C 236.935 -0.526766 1.57526 0
M  V30 2386 O 238.12 -0.449292 1.85435 0
M  V30 2387 C 235.26 -0.357263 3.43246 0
M  V30 2388 C 234.373 0.599788 4.27816 0
M  V30 2389 C 233.508 -0.173725 5.30916 0
M  V30 2390 C 232.547 0.777039 6.07148 0
M  V30 2391 N 231.684 0.0371398 7.0209 0
M  V30 2392 H 236.524 1.24577 2.70711 0
M  V30 2393 H 234.061 0.625612 1.33133 0
M  V30 2394 H 236.019 -0.8113 4.09236 0
M  V30 2395 H 234.649 -1.16943 3.00872 0
M  V30 2396 H 233.701 1.17235 3.61884 0
M  V30 2397 H 235.013 1.32704 4.80823 0
M  V30 2398 H 234.167 -0.688394 6.02782 0
M  V30 2399 H 232.906 -0.934041 4.78672 0
M  V30 2400 H 231.911 1.3031 5.34134 0
M  V30 2401 H 233.136 1.53689 6.61481 0
M  V30 2402 H 231.082 -0.705213 6.52198 0
M  V30 2403 H 230.999 0.704249 7.52713 0
M  V30 2404 H 232.267 -0.457383 7.78157 0
M  V30 2405 N 236.496 -1.42363 0.676048 0
M  V30 2406 C 237.745 -2.00745 0.196037 0
M  V30 2407 C 238.058 -1.54083 -1.20489 0
M  V30 2408 O 239.264 -2.04891 -1.78134 0
M  V30 2409 C 237.72 -3.58651 0.299616 0
M  V30 2410 C 237.328 -4.143 1.70468 0
M  V30 2411 C 239.072 -4.24326 -0.121619 0
M  V30 2412 C 236.979 -5.64574 1.76096 0
M  V30 2413 H 235.909 -0.750787 0.0695301 0
M  V30 2414 H 238.56 -1.63072 0.841412 0
M  V30 2415 H 236.942 -3.93833 -0.413673 0
M  V30 2416 H 238.116 -3.90575 2.44515 0
M  V30 2417 H 236.431 -3.61081 2.07387 0
M  V30 2418 H 239.028 -5.34607 -0.0997362 0
M  V30 2419 H 239.371 -3.99897 -1.15708 0
M  V30 2420 H 239.904 -3.94108 0.540706 0
M  V30 2421 H 236.643 -5.93804 2.77628 0
M  V30 2422 H 236.163 -5.90286 1.06406 0
M  V30 2423 H 237.842 -6.29013 1.51496 0
M  V30 2424 N 237.974 -0.419461 -1.51915 0
M  V30 2425 C 238.937 0.389116 -2.25873 0
M  V30 2426 C 239.937 0.964924 -1.28631 0
M  V30 2427 O 241.127 0.842179 -1.52489 0
M  V30 2428 C 238.259 1.54874 -3.03689 0
M  V30 2429 H 239.452 -0.258799 -2.98781 0
M  V30 2430 H 237.005 -0.172209 -1.55348 0
M  V30 2431 H 237.74 2.23323 -2.35154 0
M  V30 2432 H 237.525 1.14223 -3.75094 0
M  V30 2433 H 239.015 2.12046 -3.59759 0
M  V30 2434 N 239.452 1.56882 -0.150215 0
M  V30 2435 C 240.7 1.9584 0.499105 0
M  V30 2436 C 241.021 1.03623 1.65188 0
M  V30 2437 O 240.291 0.0984084 1.95653 0
M  V30 2438 H 238.871 0.723119 0.187373 0
M  V30 2439 H 241.533 1.9358 -0.226466 0
M  V30 2440 H 240.629 2.99638 0.873122 0
M  V30 2441 N 240.93 -0.123565 1.57115 0
M  V30 2442 C 242.16 -0.845233 1.88519 0
M  V30 2443 C 242.568 -1.74168 0.739064 0
M  V30 2444 O 241.911 -1.81244 -0.299355 0
M  V30 2445 C 241.973 -1.73452 3.14888 0
M  V30 2446 C 241.637 -1.01285 4.45635 0
M  V30 2447 C 242.634 -0.355774 5.18681 0
M  V30 2448 C 240.319 -0.99538 4.92339 0
M  V30 2449 C 242.313 0.309114 6.3665 0
M  V30 2450 C 240 -0.32669 6.10226 0
M  V30 2451 C 240.998 0.324406 6.82229 0
M  V30 2452 O 240.686 0.982437 7.97874 0
M  V30 2453 H 240.418 -0.248534 0.628655 0
M  V30 2454 H 242.972 -0.113907 2.05084 0
M  V30 2455 H 241.202 -2.50737 2.94394 0
M  V30 2456 H 242.891 -2.33021 3.32349 0
M  V30 2457 H 243.657 -0.360918 4.83655 0
M  V30 2458 H 239.536 -1.49159 4.36202 0
M  V30 2459 H 243.08 0.8179 6.92789 0
M  V30 2460 H 238.977 -0.319294 6.4471 0
M  V30 2461 H 239.745 0.886454 8.13686 0
M  V30 2462 N 242.408 -1.52605 -0.393616 0
M  V30 2463 C 243.655 -1.67424 -1.1391 0
M  V30 2464 C 243.983 -0.411859 -1.90089 0
M  V30 2465 O 243.238 0.605626 -1.86093 0
M  V30 2466 C 243.537 -2.85721 -2.14705 0
M  V30 2467 C 243.203 -4.23342 -1.55218 0
M  V30 2468 C 241.865 -4.60771 -1.3872 0
M  V30 2469 C 244.217 -5.09041 -1.11924 0
M  V30 2470 C 241.545 -5.81563 -0.774689 0
M  V30 2471 C 243.897 -6.30452 -0.520853 0
M  V30 2472 C 242.561 -6.66617 -0.343134 0
M  V30 2473 H 241.831 -0.612648 -0.416826 0
M  V30 2474 H 244.478 -1.8674 -0.424315 0
M  V30 2475 H 242.783 -2.60803 -2.92385 0
M  V30 2476 H 244.48 -2.94382 -2.72288 0
M  V30 2477 H 241.07 -3.93855 -1.69045 0
M  V30 2478 H 245.254 -4.80695 -1.23473 0
M  V30 2479 H 240.51 -6.08196 -0.625154 0
M  V30 2480 H 244.684 -6.96175 -0.177065 0
M  V30 2481 H 242.311 -7.60083 0.133571 0
M  V30 2482 N 243.887 0.651787 -1.4349 0
M  V30 2483 C 244.85 1.74647 -1.48429 0
M  V30 2484 C 245.85 1.56513 -0.368817 0
M  V30 2485 O 247.04 1.62385 -0.630623 0
M  V30 2486 C 244.172 3.13533 -1.33827 0
M  V30 2487 H 245.365 1.71649 -2.4592 0
M  V30 2488 H 242.918 0.863573 -1.30277 0
M  V30 2489 H 243.653 3.22142 -0.37349 0
M  V30 2490 H 243.438 3.28101 -2.14691 0
M  V30 2491 H 244.928 3.93356 -1.40218 0
M  V30 2492 N 245.365 1.30045 0.890287 0
M  V30 2493 C 246.275 1.17885 2.02831 0
M  V30 2494 C 247.291 0.0999609 1.73713 0
M  V30 2495 O 248.467 0.313867 1.98939 0
M  V30 2496 C 245.532 0.866079 3.35708 0
M  V30 2497 C 244.593 2.02979 3.78283 0
M  V30 2498 C 243.826 1.73184 5.0482 0
M  V30 2499 O 244.049 0.657237 5.66601 0
M  V30 2500 O 242.983 2.58267 5.43674 0
M  V30 2501 H 246.809 2.13474 2.16015 0
M  V30 2502 H 244.394 1.09587 1.01543 0
M  V30 2503 H 246.276 0.706623 4.15433 0
M  V30 2504 H 244.951 -0.0599443 3.23644 0
M  V30 2505 H 243.858 2.24454 2.99285 0
M  V30 2506 H 245.191 2.93734 3.94944 0
M  V30 2507 N 246.843 -1.10192 1.12674 0
M  V30 2508 C 248.259 -1.34235 0.863317 0
M  V30 2509 C 248.459 -1.95062 -0.505277 0
M  V30 2510 O 247.515 -2.19192 -1.25345 0
M  V30 2511 C 248.828 -2.2616 1.98172 0
M  V30 2512 C 250.376 -2.3969 2.0129 0
M  V30 2513 C 250.851 -3.34946 3.1237 0
M  V30 2514 N 252.342 -3.42515 3.11829 0
M  V30 2515 C 253.077 -4.16199 3.94419 0
M  V30 2516 N 252.573 -4.92747 4.87004 0
M  V30 2517 N 254.366 -4.11843 3.82547 0
M  V30 2518 H 246.517 -0.690798 2.00853 0
M  V30 2519 H 248.78 -0.366774 0.874174 0
M  V30 2520 H 248.486 -1.8868 2.96804 0
M  V30 2521 H 248.36 -3.26488 1.88906 0
M  V30 2522 H 250.747 -2.76438 1.03276 0
M  V30 2523 H 250.828 -1.39169 2.14629 0
M  V30 2524 H 250.472 -2.98923 4.10619 0
M  V30 2525 H 250.402 -4.35353 2.96269 0
M  V30 2526 H 252.893 -2.87926 2.44759 0
M  V30 2527 H 253.206 -5.46376 5.46528 0
M  V30 2528 H 251.551 -4.91862 4.91016 0
M  V30 2529 H 254.742 -3.51136 3.0955 0
M  V30 2530 H 254.915 -4.69007 4.47142 0
M  V30 2531 N 248.321 -0.919034 -1.28029 0
M  V30 2532 C 249.569 -0.553838 -1.94363 0
M  V30 2533 C 249.89 0.906357 -1.72656 0
M  V30 2534 O 249.16 1.64143 -1.0693 0
M  V30 2535 H 247.74 -0.201834 -0.719216 0
M  V30 2536 H 250.402 -1.16954 -1.55909 0
M  V30 2537 H 249.498 -0.752758 -3.02886 0
M  V30 2538 N 249.799 1.42003 -0.683588 0
M  V30 2539 C 251.029 2.05448 -0.217866 0
M  V30 2540 C 251.437 1.51491 1.13346 0
M  V30 2541 O 250.78 0.653048 1.717 0
M  V30 2542 C 250.842 3.59399 -0.0850118 0
M  V30 2543 C 250.506 4.36093 -1.36645 0
M  V30 2544 C 251.503 4.66169 -2.30179 0
M  V30 2545 C 249.188 4.75578 -1.61649 0
M  V30 2546 C 251.182 5.34676 -3.46988 0
M  V30 2547 C 248.869 5.43824 -2.78745 0
M  V30 2548 C 249.867 5.73299 -3.71238 0
M  V30 2549 O 249.555 6.40142 -4.86285 0
M  V30 2550 H 249.287 0.668344 -0.101454 0
M  V30 2551 H 251.841 1.82974 -0.933248 0
M  V30 2552 H 250.071 3.80566 0.686031 0
M  V30 2553 H 251.76 4.04457 0.341973 0
M  V30 2554 H 252.526 4.36156 -2.12115 0
M  V30 2555 H 248.405 4.52025 -0.905243 0
M  V30 2556 H 251.949 5.57599 -4.19201 0
M  V30 2557 H 247.846 5.73254 -2.96732 0
M  V30 2558 H 248.614 6.58636 -4.85944 0
M  V30 2559 N 251.277 0.427512 1.51691 0
M  V30 2560 C 252.225 -0.403359 2.29076 0
M  V30 2561 C 253.219 -1.02962 1.34518 0
M  V30 2562 O 254.425 -0.965715 1.51901 0
M  V30 2563 H 250.8 -0.148879 0.737115 0
M  V30 2564 H 252.771 0.270295 2.97173 0
M  V30 2565 C 251.52 -1.49763 3.13794 0
M  V30 2566 H 250.843 -1.02508 3.86435 0
M  V30 2567 H 252.283 -2.05244 3.71014 0
M  V30 2568 C 250.742 -2.47536 2.28533 0
M  V30 2569 O 251.272 -3.51848 1.93819 0
M  V30 2570 N 249.478 -2.18187 1.91945 0
M  V30 2571 H 249.025 -1.33389 2.20375 0
M  V30 2572 H 248.983 -2.83848 1.35195 0
M  V30 2573 N 252.755 -1.56801 0.158532 0
M  V30 2574 C 253.685 -2.20347 -0.772609 0
M  V30 2575 C 254.666 -1.15518 -1.24859 0
M  V30 2576 O 255.851 -1.43902 -1.30406 0
M  V30 2577 C 252.981 -2.83417 -2.00729 0
M  V30 2578 C 251.935 -3.94174 -1.66765 0
M  V30 2579 C 251.261 -4.44233 -2.97592 0
M  V30 2580 C 252.561 -5.14392 -0.905447 0
M  V30 2581 H 254.255 -2.98413 -0.242959 0
M  V30 2582 H 251.801 -1.43537 -0.115419 0
M  V30 2583 H 253.754 -3.26543 -2.6636 0
M  V30 2584 H 252.478 -2.02701 -2.56086 0
M  V30 2585 H 251.137 -3.51684 -1.03508 0
M  V30 2586 H 250.785 -3.60325 -3.50963 0
M  V30 2587 H 250.485 -5.18945 -2.75626 0
M  V30 2588 H 252.009 -4.90037 -3.64274 0
M  V30 2589 H 253.423 -5.5429 -1.46408 0
M  V30 2590 H 251.82 -5.9494 -0.7853 0
M  V30 2591 H 252.89 -4.84795 0.100668 0
M  V30 2592 N 254.233 0.115231 -1.57178 0
M  V30 2593 C 255.196 1.12526 -1.99676 0
M  V30 2594 C 256.196 1.34095 -0.88742 0
M  V30 2595 O 257.386 1.30548 -1.15337 0
M  V30 2596 C 254.518 2.4789 -2.34015 0
M  V30 2597 H 255.711 0.759912 -2.90113 0
M  V30 2598 H 253.264 0.359648 -1.52106 0
M  V30 2599 H 253.999 2.89339 -1.4647 0
M  V30 2600 H 253.784 2.33588 -3.14927 0
M  V30 2601 H 255.274 3.20575 -2.67622 0
M  V30 2602 N 255.711 1.52812 0.385517 0
M  V30 2603 C 256.939 1.71907 1.15133 0
M  V30 2604 C 257.354 0.439004 1.83625 0
M  V30 2605 O 256.711 -0.586765 1.7281 0
M  V30 2606 C 256.762 2.87099 2.19673 0
M  V30 2607 O 256.483 4.10151 1.53973 0
M  V30 2608 C 257.984 3.17902 3.08955 0
M  V30 2609 H 255.204 0.575479 0.345057 0
M  V30 2610 H 257.748 1.99476 0.45052 0
M  V30 2611 H 255.903 2.61982 2.85384 0
M  V30 2612 H 256.317 4.74514 2.23465 0
M  V30 2613 H 257.791 4.01959 3.7833 0
M  V30 2614 H 258.268 2.3243 3.72657 0
M  V30 2615 H 258.874 3.44871 2.48885 0
M  V30 2616 N 257.189 -0.644168 1.43834 0
M  V30 2617 C 258.435 -1.40603 1.46146 0
M  V30 2618 C 258.768 -1.93997 0.0887717 0
M  V30 2619 O 258.043 -1.72854 -0.891724 0
M  V30 2620 C 258.326 -2.58086 2.51124 0
M  V30 2621 C 258.179 -2.10126 3.97702 0
M  V30 2622 C 259.498 -3.60291 2.52742 0
M  V30 2623 H 256.617 -0.509905 0.532134 0
M  V30 2624 H 259.259 -0.729502 1.75437 0
M  V30 2625 H 257.409 -3.15801 2.26278 0
M  V30 2626 H 259.081 -1.57342 4.33637 0
M  V30 2627 H 257.324 -1.41419 4.10101 0
M  V30 2628 H 257.995 -2.94649 4.66783 0
M  V30 2629 H 260.471 -3.12352 2.7491 0
M  V30 2630 H 259.347 -4.40032 3.28121 0
M  V30 2631 H 259.608 -4.1349 1.56455 0
M  V30 2632 N 258.668 -1.30515 -0.883378 0
M  V30 2633 C 259.598 -1.19607 -2.00541 0
M  V30 2634 C 260.579 -0.086346 -1.69881 0
M  V30 2635 O 261.764 -0.268654 -1.92333 0
M  V30 2636 C 258.894 -0.888758 -3.35736 0
M  V30 2637 C 257.848 -1.95659 -3.8066 0
M  V30 2638 C 257.174 -1.50224 -5.13164 0
M  V30 2639 C 258.474 -3.36788 -3.99213 0
M  V30 2640 H 260.168 -2.13476 -2.09925 0
M  V30 2641 H 257.714 -1.02775 -1.00863 0
M  V30 2642 H 259.667 -0.799094 -4.13754 0
M  V30 2643 H 258.391 0.0856125 -3.26488 0
M  V30 2644 H 257.05 -2.03591 -3.04871 0
M  V30 2645 H 256.698 -0.516092 -5.00345 0
M  V30 2646 H 256.398 -2.2165 -5.44192 0
M  V30 2647 H 257.922 -1.42639 -5.93706 0
M  V30 2648 H 259.336 -3.31605 -4.67665 0
M  V30 2649 H 257.733 -4.06314 -4.41621 0
M  V30 2650 H 258.803 -3.78561 -3.03017 0
M  V30 2651 N 260.146 1.09593 -1.13257 0
M  V30 2652 C 261.562 1.33775 -0.870423 0
M  V30 2653 C 261.762 1.95327 0.494926 0
M  V30 2654 O 260.818 2.19853 1.2418 0
M  V30 2655 C 262.131 2.25106 -1.99369 0
M  V30 2656 C 263.679 2.3862 -2.02558 0
M  V30 2657 C 264.154 3.33285 -3.14142 0
M  V30 2658 N 265.645 3.40857 -3.13641 0
M  V30 2659 C 266.38 4.14101 -3.96621 0
M  V30 2660 N 265.876 4.90157 -4.8961 0
M  V30 2661 N 267.669 4.09808 -3.84726 0
M  V30 2662 H 259.82 0.680136 -2.01216 0
M  V30 2663 H 262.083 0.362133 -0.876107 0
M  V30 2664 H 261.789 1.87103 -2.97801 0
M  V30 2665 H 261.663 3.25481 -1.90635 0
M  V30 2666 H 264.05 2.75887 -1.0474 0
M  V30 2667 H 264.131 1.38028 -2.15364 0
M  V30 2668 H 263.775 2.96741 -4.12198 0
M  V30 2669 H 263.705 4.33776 -2.98574 0
M  V30 2670 H 266.196 2.86624 -2.46282 0
M  V30 2671 H 266.509 5.4347 -5.49418 0
M  V30 2672 H 264.854 4.89251 -4.93617 0
M  V30 2673 H 268.045 3.4949 -3.11408 0
M  V30 2674 H 268.218 4.66629 -4.49623 0
M  V30 2675 N 261.624 0.925811 1.2754 0
M  V30 2676 C 262.534 0.428993 2.30644 0
M  V30 2677 C 263.55 -0.489387 1.66976 0
M  V30 2678 O 264.726 -0.372653 1.97922 0
M  V30 2679 C 261.791 -0.311967 3.45294 0
M  V30 2680 C 260.852 0.641098 4.24486 0
M  V30 2681 C 260.085 -0.0645955 5.33661 0
M  V30 2682 O 260.308 -1.28429 5.55754 0
M  V30 2683 O 259.242 0.606265 5.98839 0
M  V30 2684 H 263.068 1.28504 2.75173 0
M  V30 2685 H 260.653 0.691086 1.32455 0
M  V30 2686 H 262.535 -0.729972 4.15029 0
M  V30 2687 H 261.21 -1.14365 3.02824 0
M  V30 2688 H 260.117 1.10874 3.57292 0
M  V30 2689 H 261.45 1.43995 4.70666 0
M  V30 2690 N 263.102 -1.41638 0.69111 0
M  V30 2691 C 264.065 -2.29178 0.0319786 0
M  V30 2692 C 265.065 -1.44153 -0.712496 0
M  V30 2693 O 266.255 -1.65354 -0.548053 0
M  V30 2694 C 263.387 -3.26952 -0.965161 0
M  V30 2695 H 264.58 -2.88959 0.802681 0
M  V30 2696 H 262.133 -1.4955 0.454356 0
M  V30 2697 H 262.868 -2.72142 -1.76378 0
M  V30 2698 H 262.653 -3.89685 -0.434522 0
M  V30 2699 H 264.143 -3.92561 -1.42428 0
M  V30 2700 N 264.58 -0.43555 -1.51462 0
M  V30 2701 C 265.512 0.41257 -2.25456 0
M  V30 2702 C 266.525 0.987822 -1.29406 0
M  V30 2703 O 267.714 0.882266 -1.55172 0
M  V30 2704 C 264.814 1.58894 -2.99342 0
M  V30 2705 C 263.987 1.13288 -4.22474 0
M  V30 2706 C 263.046 2.17917 -4.78956 0
M  V30 2707 O 262.072 1.77425 -5.40841 0
M  V30 2708 N 263.274 3.50382 -4.62832 0
M  V30 2709 H 266.039 -0.221603 -2.9888 0
M  V30 2710 H 263.6 -0.264342 -1.59727 0
M  V30 2711 H 265.592 2.28508 -3.34015 0
M  V30 2712 H 264.162 2.12849 -2.28941 0
M  V30 2713 H 263.382 0.263881 -3.93316 0
M  V30 2714 H 264.67 0.805542 -5.02383 0
M  V30 2715 H 264.068 3.86013 -4.13534 0
M  V30 2716 H 262.625 4.15895 -5.01871 0
M  V30 2717 N 266.058 1.56714 -0.166846 0
M  V30 2718 C 267.288 2.00828 0.48494 0
M  V30 2719 C 267.696 1.04612 1.57648 0
M  V30 2720 O 267.039 0.0383201 1.8366 0
M  V30 2721 C 267.101 3.4137 1.12723 0
M  V30 2722 C 266.765 4.56654 0.177886 0
M  V30 2723 C 267.762 5.16402 -0.60207 0
M  V30 2724 C 265.447 5.02244 0.0750139 0
M  V30 2725 C 267.441 6.20167 -1.47215 0
M  V30 2726 C 265.128 6.05859 -0.798649 0
M  V30 2727 C 266.126 6.64691 -1.57082 0
M  V30 2728 O 265.814 7.66297 -2.42989 0
M  V30 2729 H 265.546 0.663587 0.128953 0
M  V30 2730 H 268.1 2.03692 -0.264365 0
M  V30 2731 H 266.33 3.35406 1.92457 0
M  V30 2732 H 268.019 3.69466 1.68076 0
M  V30 2733 H 268.785 4.82065 -0.53274 0
M  V30 2734 H 264.664 4.56167 0.665812 0
M  V30 2735 H 268.208 6.66016 -2.07531 0
M  V30 2736 H 264.105 6.39621 -0.869199 0
M  V30 2737 H 264.873 7.83601 -2.36455 0
M  V30 2738 N 267.536 -0.106894 1.57237 0
M  V30 2739 C 268.499 -1.11466 2.0027 0
M  V30 2740 C 269.499 -1.33623 0.894519 0
M  V30 2741 O 270.689 -1.29935 1.16028 0
M  V30 2742 C 267.821 -2.46646 2.35327 0
M  V30 2743 H 269.014 -0.744516 2.90512 0
M  V30 2744 H 266.567 -0.351576 1.52295 0
M  V30 2745 H 267.302 -2.88558 1.48003 0
M  V30 2746 H 267.087 -2.31915 3.16161 0
M  V30 2747 H 268.577 -3.19151 2.69318 0
M  V30 2748 N 269.014 -1.53014 -0.377408 0
M  V30 2749 C 269.977 -1.77957 -1.44444 0
M  V30 2750 C 270.977 -0.649763 -1.47087 0
M  V30 2751 O 272.167 -0.917897 -1.48055 0
M  V30 2752 C 269.299 -1.89089 -2.83651 0
M  V30 2753 H 270.492 -2.73243 -1.23606 0
M  V30 2754 H 268.045 -1.43912 -0.609844 0
M  V30 2755 H 268.78 -0.958293 -3.09818 0
M  V30 2756 H 268.565 -2.71254 -2.83132 0
M  V30 2757 H 270.055 -2.1002 -3.60945 0
M  V30 2758 N 270.492 0.636531 -1.44174 0
M  V30 2759 C 271.717 1.42847 -1.50364 0
M  V30 2760 C 272.142 1.87665 -0.127867 0
M  V30 2761 O 271.5 1.58408 0.88185 0
M  V30 2762 C 271.548 2.62854 -2.4686 0
M  V30 2763 O 270.652 3.62501 -1.9664 0
M  V30 2764 H 269.993 0.427642 -0.507955 0
M  V30 2765 H 272.523 0.777422 -1.89255 0
M  V30 2766 H 272.533 3.10465 -2.64718 0
M  V30 2767 H 271.208 2.29578 -3.46795 0
M  V30 2768 H 269.785 3.21735 -1.88523 0
M  V30 2769 N 271.97 1.30982 0.876444 0
M  V30 2770 C 272.918 1.18006 2.00443 0
M  V30 2771 C 273.912 0.0898871 1.69161 0
M  V30 2772 O 275.118 0.251333 1.78237 0
M  V30 2773 H 271.493 0.365196 0.65737 0
M  V30 2774 H 273.464 2.13453 2.0852 0
M  V30 2775 C 272.213 0.897521 3.35916 0
M  V30 2776 H 271.536 1.7285 3.60504 0
M  V30 2777 H 272.976 0.846874 4.15456 0
M  V30 2778 C 271.435 -0.399674 3.34521 0
M  V30 2779 O 271.965 -1.41852 3.7582 0
M  V30 2780 N 270.171 -0.413893 2.87637 0
M  V30 2781 H 269.718 0.41571 2.54224 0
M  V30 2782 H 269.676 -1.28175 2.87086 0
M  V30 2783 N 273.449 -1.08991 1.13837 0
M  V30 2784 C 274.677 -1.85011 0.926202 0
M  V30 2785 C 275.092 -1.8135 -0.525127 0
M  V30 2786 O 274.449 -1.21287 -1.36366 0
M  V30 2787 C 274.5 -3.32802 1.41155 0
M  V30 2788 O 274.221 -3.36444 2.80601 0
M  V30 2789 C 275.722 -4.25649 1.23847 0
M  V30 2790 H 272.942 -0.584249 0.32999 0
M  V30 2791 H 275.486 -1.37688 1.51202 0
M  V30 2792 H 273.641 -3.77536 0.868631 0
M  V30 2793 H 274.055 -4.28657 3.02248 0
M  V30 2794 H 275.529 -5.27485 1.62675 0
M  V30 2795 H 276.006 -4.38828 0.18065 0
M  V30 2796 H 276.612 -3.86735 1.76964 0
M  V30 2797 N 274.927 -0.932562 -1.27047 0
M  V30 2798 C 276.174 -0.575559 -1.94148 0
M  V30 2799 C 276.502 0.883984 -1.73251 0
M  V30 2800 O 275.757 1.64655 -1.0577 0
M  V30 2801 C 276.056 -0.853713 -3.47054 0
M  V30 2802 C 275.722 -2.29577 -3.88079 0
M  V30 2803 C 274.384 -2.68999 -3.9899 0
M  V30 2804 C 276.736 -3.23331 -4.08787 0
M  V30 2805 C 274.064 -4.01289 -4.28 0
M  V30 2806 C 276.416 -4.55207 -4.39282 0
M  V30 2807 C 275.08 -4.94457 -4.48407 0
M  V30 2808 H 274.35 -0.210612 -0.710439 0
M  V30 2809 H 276.997 -1.17744 -1.51025 0
M  V30 2810 H 275.302 -0.169204 -3.91434 0
M  V30 2811 H 276.999 -0.55639 -3.97121 0
M  V30 2812 H 273.589 -1.97994 -3.80127 0
M  V30 2813 H 277.773 -2.94074 -3.99793 0
M  V30 2814 H 273.029 -4.31374 -4.33275 0
M  V30 2815 H 277.203 -5.27852 -4.54252 0
M  V30 2816 H 274.83 -5.96994 -4.7064 0
M  V30 2817 N 276.405 1.4127 -0.698611 0
M  V30 2818 C 277.63 2.06024 -0.238512 0
M  V30 2819 C 278.055 1.5224 1.10475 0
M  V30 2820 O 277.413 0.650623 1.69223 0
M  V30 2821 C 277.461 3.59988 -0.209952 0
M  V30 2822 O 276.565 4.04282 0.814235 0
M  V30 2823 H 275.906 0.653829 -0.115775 0
M  V30 2824 H 278.436 1.8098 -0.954326 0
M  V30 2825 H 278.446 4.07979 -0.0418436 0
M  V30 2826 H 277.121 3.98503 -1.1903 0
M  V30 2827 H 275.698 3.6779 0.615234 0
M  V30 2828 N 277.883 0.443576 1.51229 0
M  V30 2829 C 278.813 -0.355142 2.30783 0
M  V30 2830 C 279.794 -1.0154 1.36468 0
M  V30 2831 O 280.979 -1.01785 1.65389 0
M  V30 2832 C 278.109 -1.45312 3.15439 0
M  V30 2833 C 277.063 -0.916002 4.18083 0
M  V30 2834 C 276.389 -2.1102 4.91299 0
M  V30 2835 C 277.689 0.0538602 5.22272 0
M  V30 2836 H 279.383 0.308767 2.97804 0
M  V30 2837 H 276.929 0.149937 1.43217 0
M  V30 2838 H 278.882 -2.01914 3.69876 0
M  V30 2839 H 277.606 -2.14541 2.46252 0
M  V30 2840 H 276.265 -0.372145 3.64706 0
M  V30 2841 H 275.913 -2.78882 4.18609 0
M  V30 2842 H 275.613 -1.75717 5.60712 0
M  V30 2843 H 277.137 -2.68164 5.48562 0
M  V30 2844 H 278.551 -0.422069 5.71744 0
M  V30 2845 H 276.948 0.319776 5.99247 0
M  V30 2846 H 278.018 0.98858 4.74716 0
M  V30 2847 N 279.361 -1.56624 0.175154 0
M  V30 2848 C 280.609 -1.96609 -0.467885 0
M  V30 2849 C 280.93 -1.06238 -1.63519 0
M  V30 2850 O 280.2 -0.129523 -1.95471 0
M  V30 2851 H 278.78 -0.726008 -0.175845 0
M  V30 2852 H 281.442 -1.93195 0.257234 0
M  V30 2853 H 280.538 -3.00989 -0.825342 0
M  V30 2854 N 280.839 0.0985539 -1.57292 0
M  V30 2855 C 282.085 0.803867 -1.86188 0
M  V30 2856 C 282.418 1.78549 -0.763794 0
M  V30 2857 O 281.693 1.93153 0.22855 0
M  V30 2858 C 281.976 1.53568 -3.25713 0
M  V30 2859 C 281.829 0.572277 -4.46145 0
M  V30 2860 C 283.148 2.48708 -3.63087 0
M  V30 2861 H 280.267 0.290781 -0.677211 0
M  V30 2862 H 282.909 0.0675783 -1.8988 0
M  V30 2863 H 281.059 2.16332 -3.22696 0
M  V30 2864 H 282.731 -0.0480894 -4.61275 0
M  V30 2865 H 280.974 -0.114618 -4.33649 0
M  V30 2866 H 281.645 1.12139 -5.40489 0
M  V30 2867 H 284.121 1.96039 -3.67026 0
M  V30 2868 H 282.997 2.96932 -4.61652 0
M  V30 2869 H 283.258 3.32309 -2.91588 0
M  V30 2870 N 282.317 1.53212 0.369288 0
M  V30 2871 C 283.28 1.7872 1.43498 0
M  V30 2872 C 284.28 0.657554 1.46741 0
M  V30 2873 O 285.47 0.925736 1.47566 0
M  V30 2874 C 282.602 1.90591 2.82645 0
M  V30 2875 H 283.795 2.73894 1.22156 0
M  V30 2876 H 281.348 1.44233 0.602203 0
M  V30 2877 H 282.083 0.974709 3.09306 0
M  V30 2878 H 281.868 2.72751 2.8169 0
M  V30 2879 H 283.358 2.11931 3.59826 0
M  V30 2880 N 283.795 -0.628877 1.44509 0
M  V30 2881 C 284.725 -1.75187 1.54376 0
M  V30 2882 C 285.706 -1.65411 0.396618 0
M  V30 2883 O 286.891 -1.84137 0.617031 0
M  V30 2884 C 284.021 -3.13725 1.48976 0
M  V30 2885 C 282.975 -3.38291 2.62189 0
M  V30 2886 C 282.301 -4.76883 2.41841 0
M  V30 2887 C 283.601 -3.30632 4.04326 0
M  V30 2888 H 285.295 -1.67187 2.48373 0
M  V30 2889 H 282.841 -0.802909 1.19538 0
M  V30 2890 H 284.794 -3.92064 1.54478 0
M  V30 2891 H 283.518 -3.22515 0.514961 0
M  V30 2892 H 282.177 -2.62334 2.56079 0
M  V30 2893 H 281.825 -4.82378 1.42548 0
M  V30 2894 H 281.525 -4.94278 3.17747 0
M  V30 2895 H 283.049 -5.57449 2.49165 0
M  V30 2896 H 284.463 -3.98873 4.11793 0
M  V30 2897 H 282.86 -3.59561 4.80454 0
M  V30 2898 H 283.93 -2.28404 4.27738 0
M  V30 2899 N 285.273 -1.31445 -0.869486 0
M  V30 2900 C 286.498 -1.24256 -1.66058 0
M  V30 2901 C 286.923 0.188928 -1.87149 0
M  V30 2902 O 286.281 1.13522 -1.4136 0
M  V30 2903 C 286.329 -1.9924 -3.00559 0
M  V30 2904 O 285.433 -1.33007 -3.90362 0
M  V30 2905 H 284.774 -0.428973 -0.506831 0
M  V30 2906 H 287.304 -1.73521 -1.08404 0
M  V30 2907 H 287.314 -2.08854 -3.50491 0
M  V30 2908 H 285.989 -3.03342 -2.84528 0
M  V30 2909 H 284.566 -1.31848 -3.48813 0
M  V30 2910 N 286.751 1.08385 -1.14413 0
M  V30 2911 C 287.976 1.85057 -0.936413 0
M  V30 2912 C 288.401 1.81055 0.509971 0
M  V30 2913 O 287.759 1.1958 1.36273 0
M  V30 2914 C 287.807 3.30505 -1.44217 0
M  V30 2915 O 286.911 4.07491 -0.634409 0
M  V30 2916 H 286.252 0.573425 -0.334784 0
M  V30 2917 H 288.782 1.36799 -1.52142 0
M  V30 2918 H 288.792 3.81348 -1.45043 0
M  V30 2919 H 287.467 3.32734 -2.49522 0
M  V30 2920 H 286.044 3.66368 -0.694902 0
M  V30 2921 N 288.23 0.939286 1.26551 0
M  V30 2922 C 289.47 0.5933 1.956 0
M  V30 2923 C 289.834 -0.851515 1.72085 0
M  V30 2924 O 291.035 -1.30634 2.34921 0
M  V30 2925 C 289.306 0.923996 3.45249 0
M  V30 2926 S 290.865 0.688269 4.33369 0
M  V30 2927 H 287.683 0.218591 0.676564 0
M  V30 2928 H 290.285 1.2102 1.5354 0
M  V30 2929 H 288.989 1.97297 3.59864 0
M  V30 2930 H 288.52 0.296746 3.92279 0
M  V30 2931 H 290.535 -0.448434 4.9417 0
M  V30 2932 N 289.708 -1.40897 0.706093 0
M  V30 2933 C 290.658 -2.27987 0.0240746 0
M  V30 2934 C 291.642 -1.42759 -0.742204 0
M  V30 2935 O 292.834 -1.65936 -0.615966 0
M  V30 2936 C 289.963 -3.31186 -0.903907 0
M  V30 2937 C 289.049 -4.2389 -0.133318 0
M  V30 2938 N 289.44 -4.98113 0.878444 0
M  V30 2939 C 287.738 -4.44485 -0.367269 0
M  V30 2940 C 288.439 -5.6604 1.34064 0
M  V30 2941 N 287.415 -5.39522 0.664565 0
M  V30 2942 H 291.217 -2.82812 0.799658 0
M  V30 2943 H 288.731 -1.53235 0.537845 0
M  V30 2944 H 290.728 -3.92413 -1.40775 0
M  V30 2945 H 289.388 -2.77922 -1.67897 0
M  V30 2946 H 290.399 -5.02364 1.25901 0
M  V30 2947 H 287.076 -4.02213 -1.1194 0
M  V30 2948 H 288.466 -6.35524 2.1808 0
M  V30 2949 N 291.186 -0.45159 -1.50991 0
M  V30 2950 C 292.116 0.342898 -2.30969 0
M  V30 2951 C 293.097 1.00815 -1.37005 0
M  V30 2952 O 294.282 1.00907 -1.65926 0
M  V30 2953 C 291.412 1.43637 -3.16205 0
M  V30 2954 C 290.366 0.893818 -4.18563 0
M  V30 2955 C 289.692 2.08411 -4.92411 0
M  V30 2956 C 290.992 -0.0815568 -5.22236 0
M  V30 2957 H 292.686 -0.324556 -2.97636 0
M  V30 2958 H 290.232 -0.157531 -1.43136 0
M  V30 2959 H 292.185 1.9995 -3.70942 0
M  V30 2960 H 290.909 2.13232 -2.47386 0
M  V30 2961 H 289.568 0.352798 -3.64898 0
M  V30 2962 H 289.216 2.76658 -4.20082 0
M  V30 2963 H 288.916 1.72741 -5.61636 0
M  V30 2964 H 290.44 2.65251 -5.49976 0
M  V30 2965 H 291.854 0.391742 -5.7196 0
M  V30 2966 H 290.251 -0.351551 -5.99069 0
M  V30 2967 H 291.321 -1.01374 -4.74185 0
M  V30 2968 N 292.664 1.56529 -0.183458 0
M  V30 2969 C 294.075 1.83739 0.331177 0
M  V30 2970 C 294.426 1.10373 1.62211 0
M  V30 2971 O 293.551 0.36071 2.13373 0
M  V30 2972 C 294.146 3.33306 0.607646 0
M  V30 2973 C 292.705 3.60969 1.06668 0
M  V30 2974 C 291.852 2.77086 0.109029 0
M  V30 2975 H 294.803 1.53379 -0.407484 0
M  V30 2976 H 294.824 3.51444 1.45832 0
M  V30 2977 H 294.336 3.86677 -0.332086 0
M  V30 2978 H 292.437 3.13021 2.0211 0
M  V30 2979 H 292.55 4.69231 0.967447 0
M  V30 2980 H 290.914 2.47319 0.608714 0
M  V30 2981 H 291.697 3.33241 -0.82494 0
M  V30 2982 N 294.142 -0.090211 1.57342 0
M  V30 2983 C 295.074 -1.13541 1.99101 0
M  V30 2984 C 296.087 -1.3604 0.894258 0
M  V30 2985 O 297.276 -1.34606 1.17233 0
M  V30 2986 C 294.376 -2.49001 2.29895 0
M  V30 2987 C 293.549 -2.46712 3.61182 0
M  V30 2988 C 292.608 -3.64136 3.79857 0
M  V30 2989 O 291.634 -3.46405 4.51655 0
M  V30 2990 N 292.836 -4.83802 3.20806 0
M  V30 2991 H 295.601 -0.779942 2.89373 0
M  V30 2992 H 293.162 -0.279125 1.59476 0
M  V30 2993 H 295.154 -3.26166 2.39578 0
M  V30 2994 H 293.724 -2.76619 1.45605 0
M  V30 2995 H 292.944 -1.55058 3.62423 0
M  V30 2996 H 294.232 -2.42265 4.4742 0
M  V30 2997 H 293.63 -5.01112 2.62494 0
M  V30 2998 H 292.187 -5.58543 3.35966 0
M  V30 2999 N 295.62 -1.53406 -0.361157 0
M  V30 3000 C 296.53 -1.83122 -1.4664 0
M  V30 3001 C 297.546 -0.719943 -1.58407 0
M  V30 3002 O 298.722 -1.01046 -1.74218 0
M  V30 3003 C 295.787 -2.01891 -2.81853 0
M  V30 3004 C 294.848 -3.25784 -2.79577 0
M  V30 3005 C 294.081 -3.43648 -4.0834 0
M  V30 3006 O 294.304 -2.65714 -5.0473 0
M  V30 3007 O 293.238 -4.37018 -4.13883 0
M  V30 3008 H 297.064 -2.7703 -1.24451 0
M  V30 3009 H 294.649 -1.38841 -0.551678 0
M  V30 3010 H 296.531 -2.15782 -3.61962 0
M  V30 3011 H 295.206 -1.11173 -3.0401 0
M  V30 3012 H 294.113 -3.17312 -1.98151 0
M  V30 3013 H 295.446 -4.16439 -2.62373 0
M  V30 3014 N 297.098 0.621204 -1.44841 0
M  V30 3015 C 298.326 1.40752 -1.51646 0
M  V30 3016 C 298.741 1.88246 -0.144549 0
M  V30 3017 O 298.098 1.61422 0.851416 0
M  V30 3018 C 298.149 2.62119 -2.4895 0
M  V30 3019 O 297.87 2.16602 -3.80808 0
M  V30 3020 C 299.371 3.55135 -2.65319 0
M  V30 3021 H 296.591 0.431325 -0.514004 0
M  V30 3022 H 299.135 0.758835 -1.899 0
M  V30 3023 H 297.29 3.23058 -2.13805 0
M  V30 3024 H 297.704 2.95358 -4.33433 0
M  V30 3025 H 299.178 4.36874 -3.37409 0
M  V30 3026 H 299.655 4.04592 -1.70886 0
M  V30 3027 H 300.261 3.00058 -3.01405 0
M  V30 3028 N 298.576 1.31904 0.862503 0
M  V30 3029 C 299.853 1.12644 1.59908 0
M  V30 3030 C 300.233 -0.316104 2.0872 0
M  V30 3031 O 299.581 -1.31145 1.87118 0
M  V30 3032 C 299.791 2.1472 2.7513 0
M  V30 3033 C 301.139 2.47637 3.44907 0
M  V30 3034 O 302.163 2.13205 2.85346 0
M  V30 3035 O 301.022 3.06632 4.52371 0
M  V30 3036 H 298.116 0.43416 0.703871 0
M  V30 3037 H 300.662 1.43408 0.907314 0
M  V30 3038 H 299.434 3.1172 2.3653 0
M  V30 3039 H 299.057 1.84905 3.51989 0
M  V30 3040 N 300.054 -1.07777 1.14986 0
M  V30 3041 C 301.017 -2.13041 0.845358 0
M  V30 3042 C 302.017 -1.60071 -0.152931 0
M  V30 3043 O 303.207 -1.74033 0.0761879 0
M  V30 3044 C 300.339 -3.39896 0.261383 0
M  V30 3045 H 301.532 -2.41485 1.77834 0
M  V30 3046 H 299.085 -1.23595 0.956757 0
M  V30 3047 H 299.82 -3.17091 -0.68 0
M  V30 3048 H 299.605 -3.79642 0.980514 0
M  V30 3049 H 301.095 -4.17548 0.0657687 0
M  V30 3050 N 301.532 -0.945985 -1.26051 0
M  V30 3051 C 302.495 -0.463897 -2.24456 0
M  V30 3052 C 303.495 0.427655 -1.55009 0
M  V30 3053 O 304.685 0.226157 -1.72726 0
M  V30 3054 C 301.817 0.330812 -3.39291 0
M  V30 3055 H 303.01 -1.33357 -2.68619 0
M  V30 3056 H 300.563 -0.728416 -1.38289 0
M  V30 3057 H 301.298 1.21852 -3.00537 0
M  V30 3058 H 301.083 -0.308679 -3.90883 0
M  V30 3059 H 302.573 0.657865 -4.12386 0
M  V30 3060 N 303.011 1.40521 -0.713556 0
M  V30 3061 C 304.422 1.83853 -0.324807 0
M  V30 3062 C 304.773 1.59667 1.14021 0
M  V30 3063 O 303.898 1.07649 1.87725 0
M  V30 3064 C 304.493 3.33751 -0.582746 0
M  V30 3065 C 303.052 3.75584 -0.247727 0
M  V30 3066 C 302.199 2.63753 -0.856121 0
M  V30 3067 H 305.15 1.29817 -0.91286 0
M  V30 3068 H 305.171 3.80194 0.152682 0
M  V30 3069 H 304.683 3.51322 -1.64908 0
M  V30 3070 H 302.784 3.63608 0.813624 0
M  V30 3071 H 302.897 4.7373 -0.715307 0
M  V30 3072 H 301.261 2.53108 -0.28432 0
M  V30 3073 H 302.044 2.84137 -1.92668 0
M  V30 3074 N 304.489 0.459591 1.5075 0
M  V30 3075 C 305.905 0.113092 1.59199 0
M  V30 3076 C 306.105 -1.37951 1.46874 0
M  V30 3077 O 305.161 -2.15168 1.32132 0
M  V30 3078 C 306.474 0.653043 2.93523 0
M  V30 3079 C 308.022 0.615449 3.0689 0
M  V30 3080 C 308.497 1.13275 4.43771 0
M  V30 3081 N 309.988 1.09167 4.50152 0
M  V30 3082 C 310.723 1.46256 5.54434 0
M  V30 3083 N 310.219 1.90739 6.66026 0
M  V30 3084 N 312.012 1.37932 5.44914 0
M  V30 3085 H 304.163 1.43049 1.57005 0
M  V30 3086 H 306.426 0.590861 0.741341 0
M  V30 3087 H 306.132 1.69822 3.07983 0
M  V30 3088 H 306.006 0.0902132 3.77092 0
M  V30 3089 H 308.393 -0.420793 2.92084 0
M  V30 3090 H 308.474 1.21495 2.25106 0
M  V30 3091 H 308.118 2.16757 4.59324 0
M  V30 3092 H 308.048 0.509576 5.24129 0
M  V30 3093 H 310.539 0.76528 3.7007 0
M  V30 3094 H 310.852 2.17218 7.41644 0
M  V30 3095 H 309.197 1.94683 6.67176 0
M  V30 3096 H 312.388 1.0303 4.56621 0
M  V30 3097 H 312.561 1.67164 6.26067 0
M  V30 3098 N 305.967 -1.56429 0.191757 0
M  V30 3099 C 306.917 -2.15548 -0.743184 0
M  V30 3100 C 307.901 -1.09531 -1.17863 0
M  V30 3101 O 309.093 -1.35602 -1.13759 0
M  V30 3102 C 306.222 -2.81577 -1.96391 0
M  V30 3103 C 305.308 -3.9478 -1.54951 0
M  V30 3104 N 305.699 -4.98677 -0.845876 0
M  V30 3105 C 303.997 -4.06319 -1.83905 0
M  V30 3106 C 304.698 -5.78183 -0.638724 0
M  V30 3107 N 303.674 -5.30495 -1.18643 0
M  V30 3108 H 307.476 -2.9324 -0.196839 0
M  V30 3109 H 304.99 -1.62398 -0.0081603 0
M  V30 3110 H 306.987 -3.22321 -2.64415 0
M  V30 3111 H 305.647 -2.05371 -2.51501 0
M  V30 3112 H 306.658 -5.15464 -0.501704 0
M  V30 3113 H 303.335 -3.41238 -2.40548 0
M  V30 3114 H 304.725 -6.71851 -0.0807929 0
M  V30 3115 N 307.445 0.0818655 -1.57387 0
M  V30 3116 C 308.395 1.10501 -1.99433 0
M  V30 3117 C 309.379 1.35041 -0.874798 0
M  V30 3118 O 310.571 1.35511 -1.13868 0
M  V30 3119 C 307.7 2.42159 -2.43339 0
M  V30 3120 C 306.786 2.20937 -3.62005 0
M  V30 3121 N 307.177 1.69616 -4.76512 0
M  V30 3122 C 305.475 2.51451 -3.68359 0
M  V30 3123 C 306.176 1.62973 -5.58404 0
M  V30 3124 N 305.152 2.08664 -5.01956 0
M  V30 3125 H 308.954 0.701373 -2.85408 0
M  V30 3126 H 306.468 0.289096 -1.59806 0
M  V30 3127 H 308.465 3.16208 -2.71695 0
M  V30 3128 H 307.125 2.83249 -1.58746 0
M  V30 3129 H 308.136 1.38624 -4.99003 0
M  V30 3130 H 304.813 2.95975 -2.94457 0
M  V30 3131 H 306.203 1.24233 -6.60315 0
M  V30 3132 N 308.923 1.53595 0.353017 0
M  V30 3133 C 310.334 1.61937 0.929153 0
M  V30 3134 C 310.685 0.494686 1.89861 0
M  V30 3135 O 309.81 -0.377017 2.1309 0
M  V30 3136 C 310.405 2.93526 1.69199 0
M  V30 3137 C 308.964 3.04161 2.21727 0
M  V30 3138 C 308.111 2.57322 1.03348 0
M  V30 3139 H 311.062 1.58155 0.131431 0
M  V30 3140 H 311.083 2.82034 2.55416 0
M  V30 3141 H 310.595 3.75362 0.986144 0
M  V30 3142 H 308.696 2.26938 2.95516 0
M  V30 3143 H 308.809 4.09465 2.48748 0
M  V30 3144 H 307.173 2.12499 1.40414 0
M  V30 3145 H 307.956 3.41588 0.342428 0
M  V30 3146 N 310.401 -0.613514 1.45168 0
M  V30 3147 C 311.649 -1.36997 1.48581 0
M  V30 3148 C 311.97 -1.94589 0.126545 0
M  V30 3149 O 311.24 -1.76816 -0.843372 0
M  V30 3150 H 309.82 -0.508558 0.547154 0
M  V30 3151 H 312.482 -0.720853 1.81079 0
M  V30 3152 H 311.578 -2.1924 2.22127 0
M  V30 3153 N 311.879 -1.3236 -0.855495 0
M  V30 3154 C 312.829 -1.17809 -1.95205 0
M  V30 3155 C 313.813 -0.0852319 -1.60674 0
M  V30 3156 O 315.005 -0.311651 -1.74235 0
M  V30 3157 C 312.134 -0.902437 -3.31226 0
M  V30 3158 C 311.22 -2.03695 -3.7198 0
M  V30 3159 N 311.611 -3.28544 -3.84568 0
M  V30 3160 C 309.909 -1.93993 -4.016 0
M  V30 3161 C 310.61 -4.02847 -4.19629 0
M  V30 3162 N 309.586 -3.31138 -4.31102 0
M  V30 3163 H 313.388 -2.12462 -2.0307 0
M  V30 3164 H 310.902 -1.24127 -1.0472 0
M  V30 3165 H 312.899 -0.77915 -4.09554 0
M  V30 3166 H 311.559 0.0357267 -3.2468 0
M  V30 3167 H 312.57 -3.6349 -3.68911 0
M  V30 3168 H 309.247 -1.07733 -4.03361 0
M  V30 3169 H 310.637 -5.10506 -4.36845 0
M  V30 3170 N 313.357 1.07166 -1.15556 0
M  V30 3171 C 314.32 2.12589 -0.856644 0
M  V30 3172 C 315.32 1.6015 0.14444 0
M  V30 3173 O 316.51 1.7399 -0.0854163 0
M  V30 3174 C 313.642 3.39753 -0.279405 0
M  V30 3175 H 314.835 2.40539 -1.79112 0
M  V30 3176 H 312.388 1.23086 -0.963298 0
M  V30 3177 H 313.123 3.17447 0.663174 0
M  V30 3178 H 312.908 3.79117 -1.00063 0
M  V30 3179 H 314.398 4.17507 -0.0879113 0
M  V30 3180 N 314.835 0.952656 1.25548 0
M  V30 3181 C 315.745 0.47782 2.29682 0
M  V30 3182 C 316.761 -0.453859 1.67977 0
M  V30 3183 O 317.937 -0.330587 1.98668 0
M  V30 3184 C 315.002 -0.238655 3.45878 0
M  V30 3185 C 314.063 0.730994 4.23031 0
M  V30 3186 C 313.296 0.0486165 5.33678 0
M  V30 3187 O 313.519 -1.16612 5.58353 0
M  V30 3188 O 312.453 0.733152 5.97418 0
M  V30 3189 H 316.279 1.34312 2.72386 0
M  V30 3190 H 313.864 0.719026 1.30959 0
M  V30 3191 H 315.746 -0.641774 4.16484 0
M  V30 3192 H 314.421 -1.07916 3.05181 0
M  V30 3193 H 313.328 1.18428 3.5486 0
M  V30 3194 H 314.661 1.53946 4.67506 0
M  V30 3195 N 316.313 -1.40141 0.720998 0
M  V30 3196 C 317.243 -2.33339 0.0867621 0
M  V30 3197 C 318.224 -1.53178 -0.739622 0
M  V30 3198 O 319.409 -1.81625 -0.687449 0
M  V30 3199 C 316.539 -3.37194 -0.831728 0
M  V30 3200 C 315.493 -4.27857 -0.110558 0
M  V30 3201 C 314.819 -5.22294 -1.14513 0
M  V30 3202 C 316.119 -5.11872 1.0385 0
M  V30 3203 H 317.813 -2.86626 0.865219 0
M  V30 3204 H 315.359 -1.37814 0.417516 0
M  V30 3205 H 317.312 -4.01335 -1.28485 0
M  V30 3206 H 316.036 -2.82314 -1.64214 0
M  V30 3207 H 314.695 -3.65176 0.322797 0
M  V30 3208 H 314.343 -4.63717 -1.94874 0
M  V30 3209 H 314.043 -5.83797 -0.667446 0
M  V30 3210 H 315.567 -5.89312 -1.59824 0
M  V30 3211 H 316.981 -5.69436 0.664482 0
M  V30 3212 H 315.378 -5.82445 1.4449 0
M  V30 3213 H 316.448 -4.4753 1.86668 0
M  V30 3214 N 317.792 -0.46758 -1.50504 0
M  V30 3215 C 319.04 0.0884469 -2.01906 0
M  V30 3216 C 319.361 1.40532 -1.35188 0
M  V30 3217 O 318.631 1.89515 -0.496079 0
M  V30 3218 H 317.211 0.0356765 -0.746148 0
M  V30 3219 H 319.873 -0.6172 -1.84869 0
M  V30 3220 H 318.969 0.2425 -3.11156 0
M  V30 3221 N 319.27 1.56325 -0.20005 0
M  V30 3222 C 320.203 2.15234 0.758267 0
M  V30 3223 C 321.181 1.09046 1.20614 0
M  V30 3224 O 322.365 1.37186 1.29276 0
M  V30 3225 C 319.492 2.71524 2.02466 0
M  V30 3226 C 318.538 3.90345 1.71852 0
M  V30 3227 S 319.371 5.28513 0.862249 0
M  V30 3228 C 320.527 5.88227 2.13868 0
M  V30 3229 H 320.76 2.96183 0.2575 0
M  V30 3230 H 318.293 1.54393 0.0150099 0
M  V30 3231 H 320.251 3.04598 2.75191 0
M  V30 3232 H 318.912 1.90607 2.49655 0
M  V30 3233 H 318.105 4.28158 2.65888 0
M  V30 3234 H 317.707 3.58306 1.07205 0
M  V30 3235 H 319.999 6.02891 3.09076 0
M  V30 3236 H 320.942 6.84714 1.80479 0
M  V30 3237 H 321.35 5.16874 2.2694 0
M  V30 3238 N 320.748 -0.0735177 1.57428 0
M  V30 3239 C 321.996 -0.771472 1.86796 0
M  V30 3240 C 322.317 -1.78201 0.791804 0
M  V30 3241 O 321.587 -1.95074 -0.179718 0
M  V30 3242 H 320.167 -0.28791 0.689287 0
M  V30 3243 H 322.829 -0.0500161 1.94836 0
M  V30 3244 H 321.925 -1.28874 2.8425 0
M  V30 3245 N 322.226 -1.5378 -0.344866 0
M  V30 3246 C 323.475 -1.7018 -1.08267 0
M  V30 3247 C 323.788 -0.471 -1.89845 0
M  V30 3248 O 324.994 -0.515917 -2.66553 0
M  V30 3249 C 323.45 -3.00923 -1.97417 0
M  V30 3250 C 323.058 -4.31335 -1.21053 0
M  V30 3251 C 324.802 -3.26688 -2.71063 0
M  V30 3252 C 322.709 -5.53153 -2.09225 0
M  V30 3253 H 321.639 -0.634138 -0.407903 0
M  V30 3254 H 324.29 -1.8028 -0.342246 0
M  V30 3255 H 322.672 -2.84676 -2.75274 0
M  V30 3256 H 323.846 -4.58281 -0.481159 0
M  V30 3257 H 322.161 -4.12173 -0.591813 0
M  V30 3258 H 324.758 -4.1489 -3.37299 0
M  V30 3259 H 325.101 -2.43639 -3.37558 0
M  V30 3260 H 325.634 -3.43705 -2.0028 0
M  V30 3261 H 322.373 -6.38741 -1.47274 0
M  V30 3262 H 321.893 -5.30458 -2.79955 0
M  V30 3263 H 323.572 -5.88744 -2.68308 0
M  V30 3264 N 323.704 0.605807 -1.45491 0
M  V30 3265 C 324.654 1.71074 -1.50724 0
M  V30 3266 C 325.638 1.5658 -0.37033 0
M  V30 3267 O 326.83 1.65887 -0.617299 0
M  V30 3268 C 323.959 3.0983 -1.47852 0
M  V30 3269 C 323.045 3.29704 -2.66751 0
M  V30 3270 N 323.436 3.19831 -3.91844 0
M  V30 3271 C 321.734 3.60579 -2.62486 0
M  V30 3272 C 322.435 3.41083 -4.71208 0
M  V30 3273 N 321.411 3.65157 -4.02693 0
M  V30 3274 H 325.213 1.61937 -2.45263 0
M  V30 3275 H 322.727 0.80912 -1.40808 0
M  V30 3276 H 324.724 3.89101 -1.49686 0
M  V30 3277 H 323.384 3.20115 -0.543714 0
M  V30 3278 H 324.395 2.98194 -4.23439 0
M  V30 3279 H 321.072 3.7769 -1.77922 0
M  V30 3280 H 322.462 3.38828 -5.80211 0
M  V30 3281 N 325.182 1.32811 0.848464 0
M  V30 3282 C 326.43 1.23479 1.59991 0
M  V30 3283 C 326.751 -0.201853 1.93952 0
M  V30 3284 O 326.021 -1.12818 1.60153 0
M  V30 3285 H 324.601 0.454034 0.593179 0
M  V30 3286 H 327.263 1.66412 1.01455 0
M  V30 3287 H 326.359 1.82178 2.53412 0
M  V30 3288 N 326.66 -1.06551 1.16123 0
M  V30 3289 C 327.57 -2.17484 0.879662 0
M  V30 3290 C 328.586 -1.73377 -0.147104 0
M  V30 3291 O 329.762 -2.01379 0.0289128 0
M  V30 3292 C 326.827 -3.44591 0.381829 0
M  V30 3293 C 325.888 -4.0322 1.4735 0
M  V30 3294 C 325.121 -5.24261 0.999324 0
M  V30 3295 O 325.344 -5.70198 -0.151957 0
M  V30 3296 O 324.278 -5.74775 1.78653 0
M  V30 3297 H 328.104 -2.44075 1.80724 0
M  V30 3298 H 325.689 -1.16042 0.940992 0
M  V30 3299 H 327.571 -4.21254 0.111053 0
M  V30 3300 H 326.246 -3.19532 -0.51777 0
M  V30 3301 H 325.153 -3.2806 1.79798 0
M  V30 3302 H 326.486 -4.32568 2.34831 0
M  V30 3303 N 328.138 -0.959301 -1.25041 0
M  V30 3304 C 329.549 -0.65667 -1.74771 0
M  V30 3305 C 329.9 0.827852 -1.77879 0
M  V30 3306 O 329.025 1.64783 -1.40269 0
M  V30 3307 C 329.62 -1.1853 -3.1739 0
M  V30 3308 C 328.179 -0.932734 -3.6466 0
M  V30 3309 C 327.326 -1.32558 -2.43564 0
M  V30 3310 H 330.277 -1.13558 -1.10862 0
M  V30 3311 H 330.298 -0.547582 -3.76539 0
M  V30 3312 H 329.81 -2.26576 -3.15095 0
M  V30 3313 H 327.911 0.13257 -3.72364 0
M  V30 3314 H 328.024 -1.57248 -4.52559 0
M  V30 3315 H 326.388 -0.743956 -2.43593 0
M  V30 3316 H 327.171 -2.41537 -2.43957 0
M  V30 3317 N 329.616 1.39756 -0.72842 0
M  V30 3318 C 330.864 2.00248 -0.272946 0
M  V30 3319 C 331.185 1.58077 1.14178 0
M  V30 3320 O 330.455 0.826014 1.77634 0
M  V30 3321 H 329.035 0.740554 -0.0979247 0
M  V30 3322 H 331.697 1.70903 -0.936912 0
M  V30 3323 H 330.793 3.10495 -0.316142 0
M  V30 3324 N 331.094 0.475555 1.50254 0
M  V30 3325 C 332.057 -0.305016 2.27161 0
M  V30 3326 C 333.057 -0.916519 1.32123 0
M  V30 3327 O 334.247 -0.785003 1.5551 0
M  V30 3328 C 331.379 -1.43496 3.09227 0
M  V30 3329 H 332.572 0.369511 2.97615 0
M  V30 3330 H 330.125 0.229747 1.54602 0
M  V30 3331 H 330.86 -2.14441 2.43281 0
M  V30 3332 H 330.645 -1.00223 3.79075 0
M  V30 3333 H 332.135 -1.98548 3.67381 0
M  V30 3334 N 332.573 -1.56217 0.208337 0
M  V30 3335 C 333.798 -2.02782 -0.435222 0
M  V30 3336 C 334.223 -1.08738 -1.53485 0
M  V30 3337 O 333.581 -0.0731855 -1.81152 0
M  V30 3338 C 333.629 -3.47687 -0.956335 0
M  V30 3339 O 332.733 -3.56773 -2.06849 0
M  V30 3340 H 332.074 -0.656403 -0.100158 0
M  V30 3341 H 334.604 -2.02033 0.3231 0
M  V30 3342 H 334.614 -3.87745 -1.26955 0
M  V30 3343 H 333.289 -4.15624 -0.15143 0
M  V30 3344 H 331.866 -3.28597 -1.76292 0
M  V30 3345 N 334.051 0.0651679 -1.57465 0
M  V30 3346 C 335.297 0.764193 -1.87851 0
M  V30 3347 C 335.63 1.76889 -0.801495 0
M  V30 3348 O 334.905 1.93594 0.187528 0
M  V30 3349 C 335.188 1.46625 -3.28897 0
M  V30 3350 C 335.041 0.477515 -4.47258 0
M  V30 3351 C 336.36 2.4095 -3.68281 0
M  V30 3352 H 333.479 0.276351 -0.683227 0
M  V30 3353 H 336.121 0.0272868 -1.8998 0
M  V30 3354 H 334.271 2.09438 -3.27212 0
M  V30 3355 H 335.943 -0.145922 -4.61069 0
M  V30 3356 H 334.186 -0.206576 -4.33308 0
M  V30 3357 H 334.857 1.0065 -5.42746 0
M  V30 3358 H 337.333 1.88209 -3.71102 0
M  V30 3359 H 336.209 2.87072 -4.67847 0
M  V30 3360 H 336.47 3.26049 -2.98571 0
M  V30 3361 N 335.529 1.53961 0.336706 0
M  V30 3362 C 336.778 1.70751 1.07363 0
M  V30 3363 C 337.091 0.481061 1.89592 0
M  V30 3364 O 338.297 0.530046 2.66276 0
M  V30 3365 C 336.753 3.01965 1.95818 0
M  V30 3366 C 336.361 4.31971 1.18764 0
M  V30 3367 C 338.105 3.28121 2.69327 0
M  V30 3368 C 336.012 5.54255 2.06289 0
M  V30 3369 H 334.942 0.636292 0.404535 0
M  V30 3370 H 337.593 1.80459 0.332681 0
M  V30 3371 H 335.975 2.86132 2.7376 0
M  V30 3372 H 337.149 4.5853 0.456849 0
M  V30 3373 H 335.464 4.12481 0.569946 0
M  V30 3374 H 338.061 4.16673 3.35094 0
M  V30 3375 H 338.404 2.45426 3.36261 0
M  V30 3376 H 338.937 3.44762 1.98454 0
M  V30 3377 H 335.676 6.39513 1.43885 0
M  V30 3378 H 335.196 5.31935 2.77138 0
M  V30 3379 H 336.875 5.90159 2.65182 0
M  V30 3380 N 337.007 -0.598083 1.45811 0
M  V30 3381 C 338.284 -1.35777 1.40797 0
M  V30 3382 C 338.664 -2.10935 0.083462 0
M  V30 3383 O 338.012 -2.08505 -0.934763 0
M  V30 3384 C 338.222 -2.29666 2.62783 0
M  V30 3385 C 339.57 -2.91977 3.08277 0
M  V30 3386 O 340.594 -2.39984 2.63223 0
M  V30 3387 O 339.453 -3.86376 3.86491 0
M  V30 3388 H 336.547 -0.609291 0.55919 0
M  V30 3389 H 339.093 -0.620379 1.57954 0
M  V30 3390 H 337.865 -1.73454 3.50756 0
M  V30 3391 H 337.488 -3.1077 2.48008 0
M  V30 3392 N 338.485 -1.33259 -0.841409 0
M  V30 3393 C 339.713 -1.27605 -1.62864 0
M  V30 3394 C 340.128 0.153507 -1.88175 0
M  V30 3395 O 339.485 1.09485 -1.46011 0
M  V30 3396 C 339.536 -2.04596 -2.98031 0
M  V30 3397 O 339.257 -3.41975 -2.73834 0
M  V30 3398 C 340.758 -2.06122 -3.92465 0
M  V30 3399 H 337.978 -0.439718 -0.506842 0
M  V30 3400 H 340.522 -1.75591 -1.04824 0
M  V30 3401 H 338.677 -1.60299 -3.5268 0
M  V30 3402 H 339.091 -3.81549 -3.59889 0
M  V30 3403 H 340.565 -2.64451 -4.84531 0
M  V30 3404 H 341.042 -1.05083 -4.26444 0
M  V30 3405 H 341.648 -2.50427 -3.43753 0
M  V30 3406 N 339.963 1.05934 -1.16686 0
M  V30 3407 C 340.895 2.13468 -0.834503 0
M  V30 3408 C 341.908 1.62013 0.15984 0
M  V30 3409 O 343.097 1.7838 -0.0654228 0
M  V30 3410 C 340.197 3.3817 -0.222361 0
M  V30 3411 C 339.37 4.18928 -1.25771 0
M  V30 3412 C 338.429 5.21985 -0.664703 0
M  V30 3413 O 337.455 5.53334 -1.33453 0
M  V30 3414 N 338.657 5.77919 0.546834 0
M  V30 3415 H 341.422 2.42578 -1.75999 0
M  V30 3416 H 338.983 1.21967 -1.06469 0
M  V30 3417 H 340.975 4.04266 0.187472 0
M  V30 3418 H 339.545 3.06655 0.606758 0
M  V30 3419 H 338.765 3.48433 -1.84358 0
M  V30 3420 H 340.053 4.69687 -1.95631 0
M  V30 3421 H 339.451 5.54721 1.10912 0
M  V30 3422 H 338.008 6.45573 0.898829 0
M  V30 3423 N 341.441 0.965919 1.2453 0
M  V30 3424 C 342.389 0.486506 2.27455 0
M  V30 3425 C 343.383 -0.449041 1.6334 0
M  V30 3426 O 344.589 -0.324527 1.7705 0
M  V30 3427 H 340.964 0.138857 0.739069 0
M  V30 3428 H 342.935 1.3666 2.65267 0
M  V30 3429 C 341.684 -0.209481 3.47068 0
M  V30 3430 H 341.007 0.50129 3.96645 0
M  V30 3431 H 342.447 -0.508775 4.20936 0
M  V30 3432 C 340.906 -1.43586 3.0477 0
M  V30 3433 O 341.436 -2.53299 3.11773 0
M  V30 3434 N 339.642 -1.30126 2.59838 0
M  V30 3435 H 339.189 -0.408583 2.54339 0
M  V30 3436 H 339.147 -2.12294 2.31902 0
M  V30 3437 N 342.919 -1.39368 0.735821 0
M  V30 3438 C 344.144 -2.05319 0.293052 0
M  V30 3439 C 344.569 -1.55115 -1.064 0
M  V30 3440 O 343.927 -0.695261 -1.67439 0
M  V30 3441 C 343.975 -3.59305 0.305323 0
M  V30 3442 O 343.079 -4.06299 -0.706761 0
M  V30 3443 H 342.42 -0.650529 0.13307 0
M  V30 3444 H 344.95 -1.78386 1.00197 0
M  V30 3445 H 344.96 -4.07724 0.149997 0
M  V30 3446 H 343.635 -3.95207 1.29553 0
M  V30 3447 H 342.212 -3.69292 -0.517504 0
M  V30 3448 N 344.397 -0.483516 -1.5 0
M  V30 3449 C 345.36 0.292965 -2.2732 0
M  V30 3450 C 346.36 0.909499 -1.32608 0
M  V30 3451 O 347.55 0.776745 -1.55924 0
M  V30 3452 C 344.682 1.41854 -3.09984 0
M  V30 3453 H 345.875 -0.385289 -2.97415 0
M  V30 3454 H 343.428 -0.237942 -1.54478 0
M  V30 3455 H 344.163 2.13148 -2.44414 0
M  V30 3456 H 343.948 0.982114 -3.79601 0
M  V30 3457 H 345.438 1.96597 -3.68429 0
M  V30 3458 N 345.875 1.56104 -0.216619 0
M  V30 3459 C 346.807 2.17339 0.72776 0
M  V30 3460 C 347.82 1.14109 1.16116 0
M  V30 3461 O 349.009 1.4111 1.09317 0
M  V30 3462 C 346.109 2.73818 1.99693 0
M  V30 3463 C 345.282 4.02168 1.71988 0
M  V30 3464 C 344.341 4.43259 2.83562 0
M  V30 3465 O 343.367 5.10257 2.52244 0
M  V30 3466 N 344.569 4.08535 4.12407 0
M  V30 3467 H 347.334 2.99005 0.203983 0
M  V30 3468 H 344.895 1.61861 -0.0354289 0
M  V30 3469 H 346.887 2.9828 2.73516 0
M  V30 3470 H 345.457 1.96483 2.43132 0
M  V30 3471 H 344.677 3.85612 0.818337 0
M  V30 3472 H 345.965 4.85907 1.50903 0
M  V30 3473 H 345.363 3.54687 4.40696 0
M  V30 3474 H 343.92 4.37901 4.8279 0
M  V30 3475 N 347.353 -0.0568162 1.57498 0
M  V30 3476 C 348.599 -0.75422 1.88253 0
M  V30 3477 C 348.932 -1.76461 0.810865 0
M  V30 3478 O 348.207 -1.93691 -0.177259 0
M  V30 3479 C 348.49 -1.44878 3.2967 0
M  V30 3480 C 348.343 -0.453789 4.47505 0
M  V30 3481 C 349.662 -2.38994 3.69554 0
M  V30 3482 H 346.781 -0.272724 0.684683 0
M  V30 3483 H 349.423 -0.0172113 1.89992 0
M  V30 3484 H 347.573 -2.077 3.28318 0
M  V30 3485 H 349.245 0.170371 4.60985 0
M  V30 3486 H 347.488 0.229552 4.33192 0
M  V30 3487 H 348.159 -0.977699 5.43273 0
M  V30 3488 H 350.635 -1.86239 3.72095 0
M  V30 3489 H 349.511 -2.84587 4.69363 0
M  V30 3490 H 349.772 -3.24461 3.00296 0
M  V30 3491 N 348.832 -1.54138 -0.328536 0
M  V30 3492 C 350.078 -1.7236 -1.06865 0
M  V30 3493 C 350.411 -0.493231 -1.87832 0
M  V30 3494 O 349.686 0.5098 -1.877 0
M  V30 3495 C 349.969 -2.99621 -1.99747 0
M  V30 3496 C 349.822 -4.32899 -1.22143 0
M  V30 3497 C 351.141 -3.22615 -2.99345 0
M  V30 3498 H 348.26 -0.627151 -0.387105 0
M  V30 3499 H 350.902 -1.86827 -0.345767 0
M  V30 3500 H 349.052 -2.87418 -2.61387 0
M  V30 3501 H 350.724 -4.56978 -0.630017 0
M  V30 3502 H 348.967 -4.30628 -0.523628 0
M  V30 3503 H 349.638 -5.18154 -1.90318 0
M  V30 3504 H 352.114 -3.34248 -2.47826 0
M  V30 3505 H 350.99 -4.13027 -3.61524 0
M  V30 3506 H 351.251 -2.3961 -3.71536 0
M  V30 3507 N 350.31 0.590341 -1.46126 0
M  V30 3508 C 351.258 1.72105 -1.5647 0
M  V30 3509 C 352.252 1.63756 -0.433612 0
M  V30 3510 O 353.458 1.69342 -0.610194 0
M  V30 3511 H 349.833 0.568889 -0.491802 0
M  V30 3512 H 351.804 1.6051 -2.51553 0
M  V30 3513 C 350.553 3.10493 -1.56491 0
M  V30 3514 H 349.876 3.17583 -2.4286 0
M  V30 3515 H 351.316 3.8939 -1.67785 0
M  V30 3516 C 349.775 3.3563 -0.292231 0
M  V30 3517 O 350.305 3.96875 0.620739 0
M  V30 3518 N 348.511 2.90026 -0.182523 0
M  V30 3519 H 348.058 2.40367 -0.926356 0
M  V30 3520 H 348.016 3.07218 0.668152 0
M  V30 3521 N 351.788 1.33704 0.83433 0
M  V30 3522 C 352.718 1.26967 1.95963 0
M  V30 3523 C 353.699 0.149337 1.69443 0
M  V30 3524 O 354.884 0.339852 1.91203 0
M  V30 3525 C 352.014 1.01275 3.32206 0
M  V30 3526 C 350.968 2.09652 3.73136 0
M  V30 3527 C 350.294 1.69166 5.07235 0
M  V30 3528 C 351.594 3.51372 3.86439 0
M  V30 3529 H 353.288 2.2112 2.01857 0
M  V30 3530 H 350.834 1.06447 0.969793 0
M  V30 3531 H 352.787 0.952106 4.10503 0
M  V30 3532 H 351.511 0.0356203 3.26581 0
M  V30 3533 H 350.17 2.14766 2.97104 0
M  V30 3534 H 349.818 0.701437 4.98085 0
M  V30 3535 H 349.518 2.41694 5.35591 0
M  V30 3536 H 351.042 1.64576 5.88003 0
M  V30 3537 H 352.456 3.48734 4.55036 0
M  V30 3538 H 350.853 4.22425 4.26236 0
M  V30 3539 H 351.923 3.89546 2.88759 0
M  V30 3540 N 353.266 -1.05314 1.17247 0
M  V30 3541 C 354.199 -2.12512 0.831507 0
M  V30 3542 C 355.177 -1.61351 -0.201168 0
M  V30 3543 O 356.361 -1.88317 -0.0829831 0
M  V30 3544 C 353.488 -3.37848 0.24015 0
M  V30 3545 C 352.534 -4.07832 1.24801 0
M  V30 3546 S 353.367 -4.56537 2.79882 0
M  V30 3547 C 354.523 -5.85122 2.22223 0
M  V30 3548 H 354.756 -2.41106 1.7394 0
M  V30 3549 H 352.289 -1.17896 0.996988 0
M  V30 3550 H 354.247 -4.10391 -0.0945588 0
M  V30 3551 H 352.908 -3.07392 -0.645668 0
M  V30 3552 H 352.101 -4.97883 0.78287 0
M  V30 3553 H 351.703 -3.41348 1.52831 0
M  V30 3554 H 353.995 -6.58408 1.59703 0
M  V30 3555 H 354.938 -6.36381 3.10523 0
M  V30 3556 H 355.346 -5.39626 1.65722 0
M  V30 3557 N 354.744 -0.972509 -1.24016 0
M  V30 3558 C 355.99 -0.637978 -1.92504 0
M  V30 3559 C 356.323 0.825383 -1.75787 0
M  V30 3560 O 355.598 1.59442 -1.11393 0
M  V30 3561 C 355.881 -1.01942 -3.45369 0
M  V30 3562 C 355.734 -2.53983 -3.71231 0
M  V30 3563 C 357.053 -0.55751 -4.36555 0
M  V30 3564 H 354.172 -0.233248 -0.699117 0
M  V30 3565 H 356.814 -1.21238 -1.46292 0
M  V30 3566 H 354.964 -0.530656 -3.84859 0
M  V30 3567 H 356.636 -3.10374 -3.41271 0
M  V30 3568 H 354.879 -2.96968 -3.16216 0
M  V30 3569 H 355.55 -2.75723 -4.78206 0
M  V30 3570 H 358.026 -0.977029 -4.04467 0
M  V30 3571 H 356.902 -0.85292 -5.42233 0
M  V30 3572 H 357.163 0.542328 -4.38761 0
M  V30 3573 N 356.222 1.38976 -0.743202 0
M  V30 3574 C 357.499 1.94351 -0.220705 0
M  V30 3575 C 357.879 1.67935 1.2791 0
M  V30 3576 O 357.227 1.01211 2.04862 0
M  V30 3577 C 357.437 3.44426 -0.563171 0
M  V30 3578 C 358.785 4.2144 -0.517046 0
M  V30 3579 O 359.809 3.52661 -0.500846 0
M  V30 3580 O 358.668 5.44032 -0.518806 0
M  V30 3581 H 355.762 0.825879 -0.043047 0
M  V30 3582 H 358.308 1.48429 -0.822618 0
M  V30 3583 H 357.08 3.5712 -1.59941 0
M  V30 3584 H 356.703 3.97543 0.0672883 0
M  V30 3585 N 357.7 0.491464 1.49741 0
M  V30 3586 C 358.647 -0.292027 2.28945 0
M  V30 3587 C 359.617 -0.968973 1.34908 0
M  V30 3588 O 360.802 -0.97748 1.6386 0
M  V30 3589 C 357.942 -1.35617 3.17336 0
M  V30 3590 C 357.055 -0.691957 4.26422 0
M  V30 3591 C 356.19 -1.73572 5.02042 0
M  V30 3592 C 355.229 -1.05286 6.02977 0
M  V30 3593 N 354.366 -2.0404 6.71798 0
M  V30 3594 H 359.206 0.389654 2.95442 0
M  V30 3595 H 356.743 0.204003 1.45679 0
M  V30 3596 H 358.701 -1.98502 3.66951 0
M  V30 3597 H 357.331 -2.00674 2.52844 0
M  V30 3598 H 356.383 0.0499523 3.80367 0
M  V30 3599 H 357.695 -0.153946 4.98562 0
M  V30 3600 H 356.849 -2.43987 5.55478 0
M  V30 3601 H 355.588 -2.30757 4.29654 0
M  V30 3602 H 354.593 -0.334446 5.48782 0
M  V30 3603 H 355.818 -0.487636 6.77347 0
M  V30 3604 H 353.764 -2.60205 6.02187 0
M  V30 3605 H 353.681 -1.55279 7.39881 0
M  V30 3606 H 354.949 -2.73772 7.29842 0
M  V30 3607 N 359.178 -1.55987 0.224894 0
M  V30 3608 C 360.108 -2.23426 -0.678457 0
M  V30 3609 C 361.089 -1.20709 -1.19847 0
M  V30 3610 O 362.274 -1.49304 -1.24186 0
M  V30 3611 C 359.404 -2.91676 -1.88527 0
M  V30 3612 C 358.358 -4.00893 -1.49896 0
M  V30 3613 C 357.684 -4.56455 -2.78483 0
M  V30 3614 C 358.984 -5.17769 -0.686461 0
M  V30 3615 H 360.678 -2.99175 -0.116173 0
M  V30 3616 H 358.224 -1.43897 -0.054436 0
M  V30 3617 H 360.177 -3.37547 -2.5227 0
M  V30 3618 H 358.901 -2.1338 -2.47258 0
M  V30 3619 H 357.56 -3.55758 -0.884985 0
M  V30 3620 H 357.208 -3.74886 -3.35365 0
M  V30 3621 H 356.908 -5.30169 -2.53368 0
M  V30 3622 H 358.432 -5.05047 -3.43162 0
M  V30 3623 H 359.846 -5.60001 -1.22767 0
M  V30 3624 H 358.243 -5.97735 -0.532259 0
M  V30 3625 H 359.313 -4.83932 0.306196 0
M  V30 3626 N 360.656 0.0484629 -1.57525 0
M  V30 3627 C 361.586 1.0549 -2.08313 0
M  V30 3628 C 362.567 1.38929 -0.981463 0
M  V30 3629 O 363.752 1.48151 -1.25558 0
M  V30 3630 C 360.882 2.36162 -2.54646 0
M  V30 3631 C 359.836 2.17016 -3.68901 0
M  V30 3632 C 359.162 3.53278 -4.01371 0
M  V30 3633 C 360.462 1.57219 -4.98076 0
M  V30 3634 H 362.156 0.632195 -2.92649 0
M  V30 3635 H 359.702 0.302654 -1.40784 0
M  V30 3636 H 361.655 3.06882 -2.88793 0
M  V30 3637 H 360.379 2.80456 -1.67368 0
M  V30 3638 H 359.038 1.48733 -3.35073 0
M  V30 3639 H 358.686 3.95185 -3.11188 0
M  V30 3640 H 358.386 3.41299 -4.78318 0
M  V30 3641 H 359.91 4.25391 -4.38035 0
M  V30 3642 H 361.324 2.17832 -5.30304 0
M  V30 3643 H 359.721 1.55871 -5.79503 0
M  V30 3644 H 360.791 0.535956 -4.81929 0
M  V30 3645 N 362.134 1.5431 0.320358 0
M  V30 3646 C 363.097 1.83195 1.3774 0
M  V30 3647 C 364.097 0.703906 1.44575 0
M  V30 3648 O 365.287 0.972214 1.44546 0
M  V30 3649 C 362.419 1.99487 2.76438 0
M  V30 3650 H 363.612 2.77642 1.1338 0
M  V30 3651 H 361.165 1.46076 0.556012 0
M  V30 3652 H 361.9 1.07262 3.06048 0
M  V30 3653 H 361.685 2.81575 2.7287 0
M  V30 3654 H 363.175 2.23271 3.52902 0
M  V30 3655 N 363.613 -0.582584 1.46437 0
M  V30 3656 C 364.576 -1.67366 1.56592 0
M  V30 3657 C 365.576 -1.54575 0.443072 0
M  V30 3658 O 366.766 -1.59191 0.707381 0
M  V30 3659 C 363.898 -3.06791 1.48634 0
M  V30 3660 H 365.091 -1.5972 2.5383 0
M  V30 3661 H 362.644 -0.800432 1.34249 0
M  V30 3662 H 363.379 -3.19993 0.526763 0
M  V30 3663 H 363.164 -3.17484 2.30101 0
M  V30 3664 H 364.654 -3.86218 1.58826 0
M  V30 3665 N 365.091 -1.34144 -0.827227 0
M  V30 3666 C 366.021 -1.28005 -1.95287 0
M  V30 3667 C 367.002 -0.158321 -1.69362 0
M  V30 3668 O 368.187 -0.349987 -1.9102 0
M  V30 3669 C 365.317 -1.03036 -3.31664 0
M  V30 3670 C 364.271 -2.11628 -3.72019 0
M  V30 3671 C 363.597 -1.71854 -5.0633 0
M  V30 3672 C 364.897 -3.53417 -3.8457 0
M  V30 3673 H 366.591 -2.22187 -2.00682 0
M  V30 3674 H 364.137 -1.0696 -0.964135 0
M  V30 3675 H 366.09 -0.973863 -4.09993 0
M  V30 3676 H 364.814 -0.0529391 -3.26557 0
M  V30 3677 H 363.473 -2.16339 -2.95961 0
M  V30 3678 H 363.121 -0.727841 -4.97706 0
M  V30 3679 H 362.821 -2.44531 -5.34302 0
M  V30 3680 H 364.345 -1.67692 -5.87122 0
M  V30 3681 H 365.759 -3.51142 -4.5318 0
M  V30 3682 H 364.156 -4.24679 -4.2399 0
M  V30 3683 H 365.226 -3.91072 -2.86689 0
M  V30 3684 N 366.569 1.04691 -1.17803 0
M  V30 3685 C 367.98 1.59238 -0.974689 0
M  V30 3686 C 368.331 1.90306 0.477292 0
M  V30 3687 O 367.456 1.68846 1.35352 0
M  V30 3688 C 368.051 2.89318 -1.76296 0
M  V30 3689 C 366.61 3.40506 -1.60414 0
M  V30 3690 C 365.757 2.14172 -1.76141 0
M  V30 3691 H 368.708 0.874395 -1.32439 0
M  V30 3692 H 368.729 3.5944 -1.24833 0
M  V30 3693 H 368.241 2.66675 -2.81968 0
M  V30 3694 H 366.342 3.68175 -0.572519 0
M  V30 3695 H 366.455 4.14753 -2.39827 0
M  V30 3696 H 364.819 2.25176 -1.19028 0
M  V30 3697 H 365.602 1.93992 -2.83235 0
M  V30 3698 N 368.047 0.979072 1.23499 0
M  V30 3699 C 368.957 0.526431 2.28617 0
M  V30 3700 C 369.973 -0.418126 1.68901 0
M  V30 3701 O 371.149 -0.288372 1.99325 0
M  V30 3702 C 368.214 -0.165235 3.46306 0
M  V30 3703 C 367.275 0.82056 4.21385 0
M  V30 3704 C 366.508 0.161807 5.33455 0
M  V30 3705 O 366.731 -1.04742 5.60701 0
M  V30 3706 O 365.665 0.859708 5.95729 0
M  V30 3707 H 369.491 1.4006 2.69475 0
M  V30 3708 H 367.076 0.746643 1.29405 0
M  V30 3709 H 368.958 -0.553287 4.17752 0
M  V30 3710 H 367.633 -1.01419 3.07402 0
M  V30 3711 H 366.54 1.25929 3.52268 0
M  V30 3712 H 367.873 1.63828 4.64135 0
M  V30 3713 N 369.525 -1.3858 0.750561 0
M  V30 3714 C 370.753 -2.04471 0.316098 0
M  V30 3715 C 371.168 -1.56606 -1.05452 0
M  V30 3716 O 370.525 -0.737784 -1.66922 0
M  V30 3717 C 370.576 -3.60025 0.326275 0
M  V30 3718 O 370.297 -4.06133 1.6428 0
M  V30 3719 C 371.798 -4.43131 -0.122429 0
M  V30 3720 H 369.018 -0.65717 0.135528 0
M  V30 3721 H 371.562 -1.77329 1.01857 0
M  V30 3722 H 369.717 -3.86014 -0.327431 0
M  V30 3723 H 370.131 -5.00547 1.56693 0
M  V30 3724 H 371.605 -5.51963 -0.0641473 0
M  V30 3725 H 372.082 -4.23333 -1.16988 0
M  V30 3726 H 372.688 -4.22323 0.50229 0
M  V30 3727 N 371.003 -0.499398 -1.49478 0
M  V30 3728 C 372.251 0.0455996 -2.02049 0
M  V30 3729 C 372.572 1.37633 -1.38138 0
M  V30 3730 O 371.842 1.8842 -0.536166 0
M  V30 3731 H 370.422 0.0198416 -0.746736 0
M  V30 3732 H 373.084 -0.656274 -1.83519 0
M  V30 3733 H 372.18 0.176445 -3.11601 0
M  V30 3734 N 372.481 1.55866 -0.233164 0
M  V30 3735 C 373.897 1.59133 0.121988 0
M  V30 3736 C 374.097 1.25016 1.58029 0
M  V30 3737 O 373.153 0.990922 2.32243 0
M  V30 3738 C 374.466 2.99932 -0.214792 0
M  V30 3739 C 376.014 3.12601 -0.157971 0
M  V30 3740 C 376.489 4.55597 -0.46859 0
M  V30 3741 N 377.98 4.61305 -0.418585 0
M  V30 3742 C 378.715 5.69903 -0.63227 0
M  V30 3743 N 378.211 6.86819 -0.90835 0
M  V30 3744 N 380.004 5.59264 -0.563913 0
M  V30 3745 H 372.155 1.76315 -1.18434 0
M  V30 3746 H 374.418 0.820093 -0.475553 0
M  V30 3747 H 374.124 3.29588 -1.22739 0
M  V30 3748 H 373.998 3.74327 0.464691 0
M  V30 3749 H 376.385 2.82735 0.845283 0
M  V30 3750 H 376.466 2.40511 -0.871102 0
M  V30 3751 H 376.11 4.86182 -1.46934 0
M  V30 3752 H 376.04 5.25928 0.265865 0
M  V30 3753 H 378.531 3.77297 -0.213368 0
M  V30 3754 H 378.844 7.65507 -1.05919 0
M  V30 3755 H 377.189 6.88536 -0.945673 0
M  V30 3756 H 380.38 4.66802 -0.348372 0
M  V30 3757 H 380.553 6.43831 -0.733847 0
M  V30 3758 N 373.959 -0.0401083 1.57549 0
M  V30 3759 C 374.889 -1.04384 2.08869 0
M  V30 3760 C 375.87 -1.38407 0.988817 0
M  V30 3761 O 377.055 -1.47483 1.26342 0
M  V30 3762 C 374.185 -2.34808 2.55895 0
M  V30 3763 C 373.139 -2.15057 3.70047 0
M  V30 3764 C 372.465 -3.51145 4.03239 0
M  V30 3765 C 373.765 -1.54576 4.98902 0
M  V30 3766 H 375.459 -0.616666 2.92981 0
M  V30 3767 H 373.005 -0.295184 1.40942 0
M  V30 3768 H 374.958 -3.05346 2.90417 0
M  V30 3769 H 373.682 -2.79565 1.68853 0
M  V30 3770 H 372.341 -1.46954 3.35857 0
M  V30 3771 H 371.989 -3.93529 3.13279 0
M  V30 3772 H 371.689 -3.38758 4.80122 0
M  V30 3773 H 373.213 -4.23062 4.40285 0
M  V30 3774 H 374.627 -2.15017 5.31451 0
M  V30 3775 H 373.024 -1.52796 5.80322 0
M  V30 3776 H 374.094 -0.51039 4.82206 0
M  V30 3777 N 375.437 -1.54477 -0.31217 0
M  V30 3778 C 376.4 -1.83923 -1.36766 0
M  V30 3779 C 377.4 -0.711563 -1.44199 0
M  V30 3780 O 378.59 -0.979866 -1.44029 0
M  V30 3781 C 375.722 -2.0095 -2.75376 0
M  V30 3782 H 376.915 -2.78239 -1.11906 0
M  V30 3783 H 374.468 -1.46369 -0.548257 0
M  V30 3784 H 375.203 -1.08883 -3.05475 0
M  V30 3785 H 374.988 -2.83018 -2.71373 0
M  V30 3786 H 376.478 -2.2514 -3.51713 0
M  V30 3787 N 376.915 0.57481 -1.46744 0
M  V30 3788 C 378.161 1.3347 -1.52688 0
M  V30 3789 C 378.494 1.93353 -0.181229 0
M  V30 3790 O 377.769 1.76912 0.808237 0
M  V30 3791 C 378.052 2.45811 -2.63152 0
M  V30 3792 C 377.905 1.90912 -4.07275 0
M  V30 3793 C 379.224 3.47822 -2.69644 0
M  V30 3794 H 376.343 0.483935 -0.555856 0
M  V30 3795 H 378.985 0.644968 -1.78718 0
M  V30 3796 H 377.135 3.04646 -2.41088 0
M  V30 3797 H 378.807 1.36473 -4.4065 0
M  V30 3798 H 377.05 1.21691 -4.16382 0
M  V30 3799 H 377.721 2.72042 -4.80309 0
M  V30 3800 H 380.197 2.9888 -2.895 0
M  V30 3801 H 379.073 4.23876 -3.48742 0
M  V30 3802 H 379.334 4.05555 -1.76005 0
M  V30 3803 N 378.394 1.34581 0.820102 0
M  V30 3804 C 379.327 1.20735 1.93644 0
M  V30 3805 C 380.305 0.0983343 1.62302 0
M  V30 3806 O 381.489 0.263997 1.86642 0
M  V30 3807 C 378.616 0.856037 3.27704 0
M  V30 3808 C 377.662 1.97521 3.78005 0
M  V30 3809 S 378.495 3.58906 3.97425 0
M  V30 3810 C 379.651 3.25822 5.34407 0
M  V30 3811 H 379.884 2.15231 2.05093 0
M  V30 3812 H 377.417 1.1964 0.97599 0
M  V30 3813 H 379.375 0.660133 4.05157 0
M  V30 3814 H 378.036 -0.0706253 3.14021 0
M  V30 3815 H 377.229 1.68321 4.75062 0
M  V30 3816 H 376.831 2.12875 3.07507 0
M  V30 3817 H 379.123 2.77812 6.17922 0
M  V30 3818 H 380.066 4.22029 5.68592 0
M  V30 3819 H 380.474 2.61932 5.00052 0
M  V30 3820 N 379.872 -1.04064 1.18357 0
M  V30 3821 C 381.121 -1.76662 0.973313 0
M  V30 3822 C 381.434 -1.89154 -0.497991 0
M  V30 3823 O 382.64 -2.58606 -0.826762 0
M  V30 3824 C 381.096 -3.17624 1.69242 0
M  V30 3825 C 380.704 -3.13225 3.20303 0
M  V30 3826 C 382.448 -3.946 1.56497 0
M  V30 3827 C 380.355 -4.49046 3.84853 0
M  V30 3828 H 379.285 -0.662214 0.36054 0
M  V30 3829 H 381.936 -1.16553 1.41731 0
M  V30 3830 H 380.318 -3.78129 1.1762 0
M  V30 3831 H 381.492 -2.62172 3.78949 0
M  V30 3832 H 379.807 -2.49749 3.33189 0
M  V30 3833 H 382.404 -4.95042 2.02084 0
M  V30 3834 H 382.747 -4.13074 0.517243 0
M  V30 3835 H 383.28 -3.4067 2.05399 0
M  V30 3836 H 380.019 -4.35777 4.89672 0
M  V30 3837 H 379.539 -5.00203 3.30994 0
M  V30 3838 H 381.218 -5.17961 3.87718 0
M  V30 3839 N 381.35 -0.985608 -1.22978 0
M  V30 3840 C 382.298 -0.522631 -2.26652 0
M  V30 3841 C 383.292 0.422998 -1.64034 0
M  V30 3842 O 384.498 0.296319 -1.77544 0
M  V30 3843 H 380.873 -0.150597 -0.736766 0
M  V30 3844 H 382.844 -1.40863 -2.63059 0
M  V30 3845 C 381.593 0.154238 -3.47358 0
M  V30 3846 H 380.916 -0.564329 -3.95797 0
M  V30 3847 H 382.356 0.441744 -4.21693 0
M  V30 3848 C 380.815 1.38719 -3.07016 0
M  V30 3849 O 381.345 2.48307 -3.15764 0
M  V30 3850 N 379.551 1.25975 -2.61875 0
M  V30 3851 H 379.098 0.368068 -2.54957 0
M  V30 3852 H 379.056 2.08578 -2.3525 0
M  V30 3853 N 382.828 1.3818 -0.7579 0
M  V30 3854 C 383.776 2.32277 -0.122482 0
M  V30 3855 C 384.77 1.54238 0.700505 0
M  V30 3856 O 385.976 1.69737 0.599119 0
M  V30 3857 H 382.351 0.751712 -0.0208143 0
M  V30 3858 H 384.322 2.83469 -0.932099 0
M  V30 3859 C 383.071 3.39447 0.753076 0
M  V30 3860 H 382.394 3.99591 0.129184 0
M  V30 3861 H 383.834 4.07684 1.16489 0
M  V30 3862 C 382.293 2.78375 1.8976 0
M  V30 3863 O 382.823 2.68025 2.99208 0
M  V30 3864 N 381.029 2.36121 1.69397 0
M  V30 3865 H 380.576 2.4474 0.803762 0
M  V30 3866 H 380.534 1.95602 2.46145 0
M  V30 3867 N 384.306 0.507319 1.49211 0
M  V30 3868 C 385.236 -0.256939 2.32082 0
M  V30 3869 C 386.217 -0.956609 1.40652 0
M  V30 3870 O 387.402 -0.946788 1.69557 0
M  V30 3871 C 384.532 -1.31802 3.21318 0
M  V30 3872 C 383.486 -0.737855 4.21592 0
M  V30 3873 C 382.812 -1.89992 4.99807 0
M  V30 3874 C 384.112 0.275325 5.21574 0
M  V30 3875 H 385.806 0.434798 2.96226 0
M  V30 3876 H 383.352 0.210546 1.42452 0
M  V30 3877 H 385.305 -1.86045 3.78107 0
M  V30 3878 H 384.029 -2.03903 2.5513 0
M  V30 3879 H 382.688 -0.217126 3.65956 0
M  V30 3880 H 382.336 -2.60877 4.30061 0
M  V30 3881 H 382.036 -1.51777 5.6766 0
M  V30 3882 H 383.56 -2.44657 5.59442 0
M  V30 3883 H 384.974 -0.179193 5.7302 0
M  V30 3884 H 383.371 0.573649 5.97352 0
M  V30 3885 H 384.441 1.18903 4.70096 0
M  V30 3886 N 385.784 -1.5574 0.241426 0
M  V30 3887 C 387.032 -1.98417 -0.384075 0
M  V30 3888 C 387.353 -1.13078 -1.58866 0
M  V30 3889 O 386.623 -0.212312 -1.94746 0
M  V30 3890 H 385.203 -0.732813 -0.144894 0
M  V30 3891 H 387.865 -1.9193 0.338943 0
M  V30 3892 H 386.961 -3.04219 -0.696939 0
M  V30 3893 N 387.262 0.0317525 -1.57568 0
M  V30 3894 C 388.51 0.721676 -1.88776 0
M  V30 3895 C 388.831 1.76039 -0.838772 0
M  V30 3896 O 388.101 1.95482 0.127935 0
M  V30 3897 H 386.681 0.269534 -0.696678 0
M  V30 3898 H 389.343 -0.00165879 -1.949 0
M  V30 3899 H 388.439 1.21293 -2.87566 0
M  V30 3900 N 388.74 1.54641 0.303973 0
M  V30 3901 C 389.986 1.74038 1.04109 0
M  V30 3902 C 390.319 0.523051 1.87024 0
M  V30 3903 O 389.594 -0.479874 1.88487 0
M  V30 3904 C 389.877 3.02761 1.94955 0
M  V30 3905 C 389.73 4.34787 1.1524 0
M  V30 3906 C 391.049 3.27336 2.94175 0
M  V30 3907 H 388.168 0.63323 0.377079 0
M  V30 3908 H 390.81 1.87354 0.316001 0
M  V30 3909 H 388.96 2.9154 2.56782 0
M  V30 3910 H 390.632 4.57922 0.557236 0
M  V30 3911 H 388.875 4.31407 0.455053 0
M  V30 3912 H 389.546 5.21116 1.8205 0
M  V30 3913 H 392.022 3.38148 2.42477 0
M  V30 3914 H 390.898 4.18726 3.54908 0
M  V30 3915 H 391.159 2.45491 3.67677 0
M  V30 3916 N 390.218 -0.567019 1.47046 0
M  V30 3917 C 391.443 -1.3551 1.57009 0
M  V30 3918 C 391.868 -1.86841 0.217259 0
M  V30 3919 O 391.226 -1.62435 -0.805268 0
M  V30 3920 C 391.274 -2.50777 2.5912 0
M  V30 3921 O 390.378 -3.52706 2.13711 0
M  V30 3922 H 389.719 -0.402919 0.52778 0
M  V30 3923 H 392.249 -0.686241 1.92748 0
M  V30 3924 H 392.259 -2.97481 2.79229 0
M  V30 3925 H 390.934 -2.12771 3.57353 0
M  V30 3926 H 389.511 -3.12374 2.03659 0
M  V30 3927 N 391.696 -1.35014 -0.812953 0
M  V30 3928 C 392.942 -1.2812 -1.57204 0
M  V30 3929 C 393.275 0.145869 -1.93651 0
M  V30 3930 O 392.55 1.0937 -1.60836 0
M  V30 3931 C 392.833 -2.18162 -2.86492 0
M  V30 3932 C 392.686 -3.69454 -2.56561 0
M  V30 3933 C 394.005 -2.07439 -3.88145 0
M  V30 3934 H 391.124 -0.466746 -0.570366 0
M  V30 3935 H 393.766 -1.65357 -0.935783 0
M  V30 3936 H 391.916 -1.86535 -3.40789 0
M  V30 3937 H 393.588 -4.11493 -2.08497 0
M  V30 3938 H 391.831 -3.9005 -1.89851 0
M  V30 3939 H 392.502 -4.27835 -3.48799 0
M  V30 3940 H 394.978 -2.35228 -3.4323 0
M  V30 3941 H 393.854 -2.7265 -4.76396 0
M  V30 3942 H 394.115 -1.05439 -4.29343 0
M  V30 3943 N 393.175 1.03435 -1.18907 0
M  V30 3944 C 394.138 2.09756 -0.923844 0
M  V30 3945 C 395.138 1.60528 0.093416 0
M  V30 3946 O 396.328 1.73631 -0.140727 0
M  V30 3947 C 393.46 3.38692 -0.387354 0
M  V30 3948 H 394.653 2.34719 -1.86674 0
M  V30 3949 H 392.206 1.19959 -1.00197 0
M  V30 3950 H 392.941 3.19396 0.561845 0
M  V30 3951 H 392.726 3.75742 -1.12074 0
M  V30 3952 H 394.216 4.17016 -0.220694 0
M  V30 3953 N 394.653 0.992116 1.22453 0
M  V30 3954 C 395.563 0.55065 2.28046 0
M  V30 3955 C 396.579 -0.400189 1.69335 0
M  V30 3956 O 397.755 -0.267215 1.99619 0
M  V30 3957 C 394.82 -0.128496 3.46462 0
M  V30 3958 C 393.881 0.865208 4.20491 0
M  V30 3959 C 393.114 0.218377 5.33253 0
M  V30 3960 O 393.337 -0.987894 5.6178 0
M  V30 3961 O 392.271 0.922845 5.94783 0
M  V30 3962 H 396.097 1.4291 2.67975 0
M  V30 3963 H 393.682 0.760326 1.28606 0
M  V30 3964 H 395.564 -0.508947 4.18315 0
M  V30 3965 H 394.239 -0.981526 3.0846 0
M  V30 3966 H 393.146 1.29658 3.50913 0
M  V30 3967 H 394.479 1.68741 4.62371 0
M  V30 3968 N 396.131 -1.37776 0.765217 0
M  V30 3969 C 397.064 -2.28008 0.0935025 0
M  V30 3970 C 398.042 -1.45985 -0.716047 0
M  V30 3971 O 399.226 -1.75331 -0.692203 0
M  V30 3972 C 396.353 -3.27228 -0.874052 0
M  V30 3973 C 395.399 -4.26239 -0.149307 0
M  V30 3974 S 396.232 -5.22827 1.15809 0
M  V30 3975 C 397.388 -6.256 0.193906 0
M  V30 3976 H 397.621 -2.84631 0.858637 0
M  V30 3977 H 395.154 -1.43952 0.558313 0
M  V30 3978 H 397.112 -3.84902 -1.42691 0
M  V30 3979 H 395.773 -2.69565 -1.61225 0
M  V30 3980 H 394.966 -4.96213 -0.88254 0
M  V30 3981 H 394.568 -3.7252 0.332366 0
M  V30 3982 H 396.86 -6.74508 -0.636011 0
M  V30 3983 H 397.803 -7.02838 0.861638 0
M  V30 3984 H 398.211 -5.64173 -0.191975 0
M  V30 3985 N 397.609 -0.515225 -1.4894 0
M  V30 3986 C 398.572 0.244681 -2.2789 0
M  V30 3987 C 399.572 0.881166 -1.34507 0
M  V30 3988 O 400.762 0.743497 -1.57537 0
M  V30 3989 C 397.894 1.35247 -3.12923 0
M  V30 3990 H 399.087 -0.448289 -2.96531 0
M  V30 3991 H 396.64 -0.270656 -1.53939 0
M  V30 3992 H 397.375 2.07916 -2.48881 0
M  V30 3993 H 397.16 0.901374 -3.81599 0
M  V30 3994 H 398.65 1.88737 -3.72516 0
M  V30 3995 N 399.087 1.5561 -0.249682 0
M  V30 3996 C 400.336 1.98187 0.37479 0
M  V30 3997 C 400.649 1.14111 1.58865 0
M  V30 3998 O 401.855 1.46714 2.28445 0
M  V30 3999 C 400.311 3.52661 0.718192 0
M  V30 4000 C 399.919 4.45481 -0.474428 0
M  V30 4001 C 401.663 4.03888 1.3067 0
M  V30 4002 C 399.57 5.91303 -0.107026 0
M  V30 4003 H 398.5 0.740159 0.143808 0
M  V30 4004 H 401.151 1.80125 -0.350336 0
M  V30 4005 H 399.533 3.66429 1.50152 0
M  V30 4006 H 400.707 4.43473 -1.25172 0
M  V30 4007 H 399.022 4.04751 -0.978052 0
M  V30 4008 H 401.619 5.10358 1.59496 0
M  V30 4009 H 401.962 3.51401 2.23211 0
M  V30 4010 H 402.495 3.93457 0.586211 0
M  V30 4011 H 399.234 6.47833 -0.999642 0
M  V30 4012 H 398.754 5.9644 0.634013 0
M  V30 4013 H 400.433 6.46258 0.309807 0
M  V30 4014 N 400.565 -0.0233959 1.57583 0
M  V30 4015 C 401.814 -0.712133 1.8871 0
M  V30 4016 C 402.127 -1.76217 0.848944 0
M  V30 4017 O 403.333 -2.50389 1.04964 0
M  V30 4018 C 401.789 -1.3177 3.3491 0
M  V30 4019 C 401.397 -0.303715 4.46969 0
M  V30 4020 C 403.141 -1.98598 3.75179 0
M  V30 4021 C 401.048 -0.917945 5.84233 0
M  V30 4022 H 399.978 -0.269735 0.704101 0
M  V30 4023 H 402.629 0.0333114 1.8347 0
M  V30 4024 H 401.011 -2.11304 3.34913 0
M  V30 4025 H 402.185 0.465325 4.58445 0
M  V30 4026 H 400.5 0.2628 4.1557 0
M  V30 4027 H 403.097 -2.45416 4.75053 0
M  V30 4028 H 403.44 -2.80659 3.07468 0
M  V30 4029 H 403.973 -1.25831 3.77374 0
M  V30 4030 H 400.712 -0.136633 6.55358 0
M  V30 4031 H 400.232 -1.65669 5.76467 0
M  V30 4032 H 401.911 -1.4236 6.31144 0
M  V30 4033 N 402.043 -1.548 -0.295768 0
M  V30 4034 C 403.271 -1.78327 -1.04914 0
M  V30 4035 C 403.686 -0.545316 -1.80753 0
M  V30 4036 O 403.043 0.485013 -1.75937 0
M  V30 4037 C 403.094 -2.99418 -2.02561 0
M  V30 4038 O 402.815 -4.18431 -1.29798 0
M  V30 4039 C 404.316 -3.35375 -2.89895 0
M  V30 4040 H 401.536 -0.594618 -0.310918 0
M  V30 4041 H 404.08 -2.01763 -0.333454 0
M  V30 4042 H 402.235 -2.78175 -2.69624 0
M  V30 4043 H 402.649 -4.86736 -1.95419 0
M  V30 4044 H 404.123 -4.23332 -3.54251 0
M  V30 4045 H 404.6 -2.53761 -3.58472 0
M  V30 4046 H 405.206 -3.58796 -2.28355 0
M  V30 4047 N 403.521 0.559213 -1.47345 0
M  V30 4048 C 404.937 0.884943 -1.32819 0
M  V30 4049 C 405.137 1.98988 -0.317173 0
M  V30 4050 O 404.193 2.51031 0.272011 0
M  V30 4051 C 405.506 1.28007 -2.72093 0
M  V30 4052 C 407.054 1.39161 -2.80363 0
M  V30 4053 C 407.529 1.82031 -4.20272 0
M  V30 4054 N 409.02 1.89185 -4.22804 0
M  V30 4055 C 409.755 2.2368 -5.27973 0
M  V30 4056 N 409.251 2.56802 -6.43447 0
M  V30 4057 N 411.044 2.24436 -5.15349 0
M  V30 4058 H 403.195 -0.170304 -2.11716 0
M  V30 4059 H 405.458 -0.0135247 -0.947904 0
M  V30 4060 H 405.164 0.542027 -3.47498 0
M  V30 4061 H 405.038 2.23665 -3.03733 0
M  V30 4062 H 407.425 2.12048 -2.05231 0
M  V30 4063 H 407.506 0.41696 -2.52379 0
M  V30 4064 H 407.15 1.09715 -4.95908 0
M  V30 4065 H 407.08 2.80495 -4.45679 0
M  V30 4066 H 409.571 1.65982 -3.39497 0
M  V30 4067 H 409.884 2.82144 -7.19454 0
M  V30 4068 H 408.229 2.54387 -6.46771 0
M  V30 4069 H 411.42 1.97998 -4.24163 0
M  V30 4070 H 411.593 2.50989 -5.97418 0
M  V30 4071 N 404.999 1.35443 0.805782 0
M  V30 4072 C 405.909 1.30546 1.94923 0
M  V30 4073 C 406.925 0.210233 1.72725 0
M  V30 4074 O 408.101 0.43975 1.9654 0
M  V30 4075 C 405.166 1.07782 3.29521 0
M  V30 4076 C 404.227 2.26625 3.64609 0
M  V30 4077 C 403.46 2.04938 4.92784 0
M  V30 4078 O 403.683 1.01624 5.61274 0
M  V30 4079 O 402.617 2.9232 5.26149 0
M  V30 4080 H 406.443 2.26779 2.02002 0
M  V30 4081 H 404.028 1.15823 0.943682 0
M  V30 4082 H 405.91 0.969392 4.10098 0
M  V30 4083 H 404.585 0.146003 3.23371 0
M  V30 4084 H 403.492 2.43033 2.84404 0
M  V30 4085 H 404.825 3.18257 3.75464 0
M  V30 4086 N 406.477 -1.02803 1.19454 0
M  V30 4087 C 407.407 -2.12999 0.956758 0
M  V30 4088 C 408.388 -1.69743 -0.110188 0
M  V30 4089 O 409.573 -1.94148 0.0450038 0
M  V30 4090 C 406.703 -3.43746 0.495553 0
M  V30 4091 C 405.657 -4.00688 1.50443 0
M  V30 4092 C 404.983 -5.27067 0.900275 0
M  V30 4093 C 406.283 -4.35397 2.8849 0
M  V30 4094 H 407.977 -2.33148 1.87836 0
M  V30 4095 H 405.523 -1.12045 0.904539 0
M  V30 4096 H 407.476 -4.2021 0.316493 0
M  V30 4097 H 406.2 -3.23321 -0.461646 0
M  V30 4098 H 404.859 -3.2632 1.67065 0
M  V30 4099 H 404.507 -5.02959 -0.064503 0
M  V30 4100 H 404.207 -5.66127 1.57397 0
M  V30 4101 H 405.731 -6.06196 0.73203 0
M  V30 4102 H 407.145 -5.02795 2.75446 0
M  V30 4103 H 405.542 -4.85541 3.52661 0
M  V30 4104 H 406.612 -3.44662 3.41081 0
M  V30 4105 N 407.956 -0.998596 -1.21925 0
M  V30 4106 C 408.919 -0.558679 -2.22287 0
M  V30 4107 C 409.919 0.361525 -1.56683 0
M  V30 4108 O 411.109 0.152695 -1.73529 0
M  V30 4109 C 408.241 0.18661 -3.40389 0
M  V30 4110 H 409.434 -1.4463 -2.62721 0
M  V30 4111 H 406.987 -0.786413 -1.35075 0
M  V30 4112 H 407.722 1.08996 -3.05435 0
M  V30 4113 H 407.507 -0.474188 -3.89222 0
M  V30 4114 H 408.997 0.482367 -4.14805 0
M  V30 4115 N 409.434 1.37368 -0.772513 0
M  V30 4116 C 410.659 2.0447 -0.347386 0
M  V30 4117 C 411.084 1.57882 1.0225 0
M  V30 4118 O 410.442 0.73941 1.65537 0
M  V30 4119 C 410.49 3.58369 -0.400479 0
M  V30 4120 O 409.594 4.0803 0.598789 0
M  V30 4121 H 408.935 0.646773 -0.15027 0
M  V30 4122 H 411.465 1.75667 -1.04892 0
M  V30 4123 H 411.475 4.07183 -0.258045 0
M  V30 4124 H 410.15 3.91633 -1.39986 0
M  V30 4125 H 408.727 3.70534 0.419411 0
M  V30 4126 N 410.912 0.523116 1.48665 0
M  V30 4127 C 412.137 -0.0117284 2.07397 0
M  V30 4128 C 412.562 -1.28031 1.37803 0
M  V30 4129 O 411.92 -1.75836 0.441762 0
M  V30 4130 C 411.968 -0.225786 3.59892 0
M  V30 4131 O 411.072 -1.29592 3.91509 0
M  V30 4132 H 410.413 0.0360673 0.66302 0
M  V30 4133 H 412.943 0.729066 1.9117 0
M  V30 4134 H 412.953 -0.450552 4.05505 0
M  V30 4135 H 411.628 0.700944 4.09951 0
M  V30 4136 H 410.205 -1.05436 3.57684 0
M  V30 4137 N 412.39 -1.55475 0.257931 0
M  V30 4138 C 413.801 -1.8511 -0.243135 0
M  V30 4139 C 414.152 -1.17986 -1.5676 0
M  V30 4140 O 413.277 -0.462102 -2.11409 0
M  V30 4141 C 413.872 -3.35826 -0.447929 0
M  V30 4142 C 412.431 -3.65647 -0.893245 0
M  V30 4143 C 411.578 -2.7729 0.0232965 0
M  V30 4144 H 414.529 -1.51261 0.480199 0
M  V30 4145 H 414.55 -3.58002 -1.28898 0
M  V30 4146 H 414.062 -3.84652 0.516196 0
M  V30 4147 H 412.163 -3.22308 -1.86945 0
M  V30 4148 H 412.276 -4.73312 -0.742469 0
M  V30 4149 H 410.64 -2.49942 -0.490021 0
M  V30 4150 H 411.423 -3.28926 0.982994 0
M  V30 4151 N 413.868 0.0150385 -1.57593 0
M  V30 4152 C 414.798 1.01047 -2.10503 0
M  V30 4153 C 415.779 1.36816 -1.01071 0
M  V30 4154 O 416.964 1.45455 -1.28672 0
M  V30 4155 C 414.094 2.30708 -2.59598 0
M  V30 4156 C 413.048 2.09142 -3.73421 0
M  V30 4157 C 412.374 3.44685 -4.08774 0
M  V30 4158 C 413.674 1.46619 -5.01298 0
M  V30 4159 H 415.368 0.569978 -2.93925 0
M  V30 4160 H 412.914 0.272724 -1.41394 0
M  V30 4161 H 414.867 3.00687 -2.95238 0
M  V30 4162 H 413.591 2.76843 -1.73279 0
M  V30 4163 H 412.25 1.41592 -3.38153 0
M  V30 4164 H 411.898 3.88495 -3.195 0
M  V30 4165 H 411.598 3.31077 -4.8545 0
M  V30 4166 H 413.122 4.16004 -4.4696 0
M  V30 4167 H 414.536 2.06535 -5.34805 0
M  V30 4168 H 412.933 1.43544 -5.82679 0
M  V30 4169 H 414.003 0.433611 -4.82957 0
M  V30 4170 N 415.346 1.54954 0.287554 0
M  V30 4171 C 416.296 1.8322 1.357 0
M  V30 4172 C 417.28 0.690152 1.45347 0
M  V30 4173 O 418.472 0.951137 1.49273 0
M  V30 4174 C 415.601 2.09481 2.71979 0
M  V30 4175 C 414.687 3.29906 2.66502 0
M  V30 4176 N 415.078 4.50154 2.30641 0
M  V30 4177 C 413.376 3.32203 2.97585 0
M  V30 4178 C 414.077 5.32209 2.34794 0
M  V30 4179 N 413.053 4.70258 2.72688 0
M  V30 4180 H 416.855 2.73746 1.0696 0
M  V30 4181 H 414.369 1.54635 0.496167 0
M  V30 4182 H 416.366 2.27882 3.49107 0
M  V30 4183 H 415.026 1.2023 3.0162 0
M  V30 4184 H 416.037 4.76515 2.02865 0
M  V30 4185 H 412.714 2.53101 3.32034 0
M  V30 4186 H 414.104 6.38321 2.09753 0
M  V30 4187 N 416.824 -0.551391 1.4764 0
M  V30 4188 C 418.049 -1.33837 1.58437 0
M  V30 4189 C 418.474 -1.866 0.237063 0
M  V30 4190 O 417.832 -1.6328 -0.787994 0
M  V30 4191 C 417.88 -2.48014 2.61766 0
M  V30 4192 O 416.984 -3.50419 2.1744 0
M  V30 4193 H 416.325 -0.397299 0.532024 0
M  V30 4194 H 418.855 -0.665759 1.93465 0
M  V30 4195 H 418.865 -2.94503 2.82369 0
M  V30 4196 H 417.54 -2.08969 3.5959 0
M  V30 4197 H 416.117 -3.10196 2.06961 0
M  V30 4198 N 418.302 -1.35869 -0.798587 0
M  V30 4199 C 419.718 -1.16082 -1.09532 0
M  V30 4200 C 419.918 0.0213124 -2.01489 0
M  V30 4201 O 418.974 0.689488 -2.42904 0
M  V30 4202 C 420.287 -2.46748 -1.7186 0
M  V30 4203 C 421.835 -2.53028 -1.84244 0
M  V30 4204 C 422.31 -3.83758 -2.49988 0
M  V30 4205 N 423.801 -3.85053 -2.57465 0
M  V30 4206 C 424.536 -4.8294 -3.09122 0
M  V30 4207 N 424.032 -5.91217 -3.61157 0
M  V30 4208 N 425.825 -4.70369 -3.0775 0
M  V30 4209 H 417.976 -2.11571 -0.187461 0
M  V30 4210 H 420.239 -0.936726 -0.145765 0
M  V30 4211 H 419.945 -3.33471 -1.11759 0
M  V30 4212 H 419.819 -2.61883 -2.71472 0
M  V30 4213 H 422.206 -1.66729 -2.43486 0
M  V30 4214 H 422.287 -2.418 -0.834643 0
M  V30 4215 H 421.931 -4.70459 -1.91393 0
M  V30 4216 H 421.861 -3.92278 -3.5132 0
M  V30 4217 H 424.352 -3.06822 -2.20609 0
M  V30 4218 H 424.665 -6.61892 -3.98896 0
M  V30 4219 H 423.01 -5.94899 -3.59333 0
M  V30 4220 H 426.201 -3.84914 -2.66381 0
M  V30 4221 H 426.374 -5.46816 -3.47701 0
M  V30 4222 N 419.78 1.02168 -1.19998 0
M  V30 4223 C 421.029 1.75091 -1.0013 0
M  V30 4224 C 421.342 1.89923 0.467835 0
M  V30 4225 O 422.548 2.59888 0.785515 0
M  V30 4226 C 421.004 3.14892 -1.74273 0
M  V30 4227 C 420.612 3.0809 -3.25245 0
M  V30 4228 C 422.356 3.9206 -1.62755 0
M  V30 4229 C 420.263 4.42867 -3.91948 0
M  V30 4230 H 419.193 0.656394 -0.37103 0
M  V30 4231 H 421.844 1.14284 -1.43567 0
M  V30 4232 H 420.226 3.7621 -1.2362 0
M  V30 4233 H 421.4 2.5611 -3.83072 0
M  V30 4234 H 419.715 2.44416 -3.3712 0
M  V30 4235 H 422.312 4.91764 -2.09934 0
M  V30 4236 H 422.655 4.12199 -0.582894 0
M  V30 4237 H 423.188 3.37359 -2.10793 0
M  V30 4238 H 419.927 4.27931 -4.96543 0
M  V30 4239 H 419.447 4.94874 -3.3891 0
M  V30 4240 H 421.126 5.11728 -3.95909 0
M  V30 4241 N 421.258 1.00505 1.21394 0
M  V30 4242 C 422.535 0.603277 1.86064 0
M  V30 4243 C 422.915 -0.919095 1.90042 0
M  V30 4244 O 422.263 -1.80607 1.39977 0
M  V30 4245 C 422.473 1.23772 3.26315 0
M  V30 4246 C 423.821 1.34586 4.02705 0
M  V30 4247 O 424.845 1.19304 3.35626 0
M  V30 4248 O 423.704 1.59169 5.22807 0
M  V30 4249 H 420.798 0.206634 0.800769 0
M  V30 4250 H 423.344 1.1017 1.29076 0
M  V30 4251 H 422.116 2.27848 3.18121 0
M  V30 4252 H 421.739 0.725648 3.90922 0
M  V30 4253 N 422.737 -1.36956 0.779787 0
M  V30 4254 C 423.983 -2.00237 0.357324 0
M  V30 4255 C 424.338 -1.60787 -1.05666 0
M  V30 4256 O 423.631 -0.847836 -1.71821 0
M  V30 4257 C 423.825 -3.54585 0.447686 0
M  V30 4258 C 423.654 -4.09025 1.86891 0
M  V30 4259 C 422.424 -4.39612 2.49138 0
M  V30 4260 C 424.622 -4.29461 2.82963 0
M  V30 4261 N 422.604 -4.79816 3.82949 0
M  V30 4262 C 423.975 -4.72363 4.01588 0
M  V30 4263 C 426.03 -4.1161 2.80145 0
M  V30 4264 C 424.733 -4.99284 5.17791 0
M  V30 4265 C 426.759 -4.39672 3.95528 0
M  V30 4266 C 426.121 -4.82822 5.12896 0
M  V30 4267 H 422.22 -0.76148 0.177968 0
M  V30 4268 H 424.804 -1.6613 1.01533 0
M  V30 4269 H 422.975 -3.87982 -0.180184 0
M  V30 4270 H 424.707 -4.047 0.0023955 0
M  V30 4271 H 421.462 -4.28975 2.00693 0
M  V30 4272 H 421.886 -5.04216 4.51769 0
M  V30 4273 H 426.528 -3.77415 1.90572 0
M  V30 4274 H 424.246 -5.32365 6.07958 0
M  V30 4275 H 427.832 -4.27441 3.94697 0
M  V30 4276 H 426.712 -5.04118 6.00695 0
M  V30 4277 N 424.215 -0.530993 -1.48385 0
M  V30 4278 C 425.145 0.219985 -2.32461 0
M  V30 4279 C 426.126 0.934111 -1.42156 0
M  V30 4280 O 427.311 0.919694 -1.71042 0
M  V30 4281 C 424.441 1.26674 -3.23375 0
M  V30 4282 C 423.395 0.67069 -4.22712 0
M  V30 4283 C 422.721 1.82017 -5.02766 0
M  V30 4284 C 424.021 -0.358268 -5.2107 0
M  V30 4285 H 425.715 -0.48187 -2.95497 0
M  V30 4286 H 423.261 -0.233182 -1.42099 0
M  V30 4287 H 425.214 1.80006 -3.81019 0
M  V30 4288 H 423.938 1.99818 -2.58341 0
M  V30 4289 H 422.597 0.158878 -3.66256 0
M  V30 4290 H 422.245 2.54002 -4.34157 0
M  V30 4291 H 421.945 1.42727 -5.70003 0
M  V30 4292 H 423.469 2.35725 -5.63264 0
M  V30 4293 H 424.883 0.0880081 -5.73232 0
M  V30 4294 H 423.28 -0.66861 -5.96364 0
M  V30 4295 H 424.35 -1.26367 -4.68145 0
M  V30 4296 N 425.693 1.55336 -0.266172 0
M  V30 4297 C 426.942 1.98574 0.353749 0
M  V30 4298 C 427.255 1.15789 1.57646 0
M  V30 4299 O 428.461 1.49129 2.26876 0
M  V30 4300 C 426.917 3.53403 0.680747 0
M  V30 4301 C 426.525 4.44953 -0.52165 0
M  V30 4302 C 428.269 4.05251 1.26379 0
M  V30 4303 C 426.176 5.91156 -0.169736 0
M  V30 4304 H 425.106 0.741643 0.135949 0
M  V30 4305 H 427.757 1.79743 -0.369421 0
M  V30 4306 H 426.139 3.68001 1.46257 0
M  V30 4307 H 427.313 4.42121 -1.29869 0
M  V30 4308 H 425.628 4.03691 -1.02093 0
M  V30 4309 H 428.225 5.12021 1.54074 0
M  V30 4310 H 428.568 3.53749 2.19471 0
M  V30 4311 H 429.101 3.94057 0.544447 0
M  V30 4312 H 425.84 6.46736 -1.0683 0
M  V30 4313 H 425.36 5.97079 0.570717 0
M  V30 4314 H 427.039 6.4655 0.241245 0
M  V30 4315 N 427.171 -0.0066808 1.57599 0
M  V30 4316 C 428.419 -0.691552 1.899 0
M  V30 4317 C 428.74 -1.74682 0.866672 0
M  V30 4318 O 428.01 -1.95661 -0.0968189 0
M  V30 4319 H 426.59 -0.258416 0.700878 0
M  V30 4320 H 429.252 0.0326655 1.94873 0
M  V30 4321 H 428.348 -1.16702 2.8946 0
M  V30 4322 N 428.649 -1.55105 -0.279332 0
M  V30 4323 C 430.06 -1.66186 -0.850832 0
M  V30 4324 C 430.411 -0.584707 -1.87285 0
M  V30 4325 O 429.536 0.274919 -2.14647 0
M  V30 4326 C 430.131 -3.01264 -1.55001 0
M  V30 4327 C 428.69 -3.14394 -2.06963 0
M  V30 4328 C 427.837 -2.61959 -0.909536 0
M  V30 4329 H 430.788 -1.58602 -0.0558235 0
M  V30 4330 H 430.809 -2.93899 -2.41669 0
M  V30 4331 H 430.321 -3.7964 -0.805931 0
M  V30 4332 H 428.422 -2.4078 -2.84352 0
M  V30 4333 H 428.535 -4.20867 -2.28928 0
M  V30 4334 H 426.899 -2.18957 -1.30116 0
M  V30 4335 H 427.682 -3.42833 -0.179062 0
M  V30 4336 N 430.127 0.543554 -1.4793 0
M  V30 4337 C 431.09 1.63156 -1.60975 0
M  V30 4338 C 432.09 1.53346 -0.483899 0
M  V30 4339 O 433.28 1.5726 -0.749339 0
M  V30 4340 C 430.412 3.02743 -1.56716 0
M  V30 4341 H 431.605 1.52934 -2.57975 0
M  V30 4342 H 429.158 0.764557 -1.36324 0
M  V30 4343 H 429.893 3.18484 -0.611418 0
M  V30 4344 H 429.678 3.11272 -2.38438 0
M  V30 4345 H 431.168 3.81871 -1.6901 0
M  V30 4346 N 431.605 1.3629 0.791371 0
M  V30 4347 C 432.83 1.33726 1.58531 0
M  V30 4348 C 433.255 -0.0794933 1.87932 0
M  V30 4349 O 432.613 -1.05087 1.47738 0
M  V30 4350 C 432.661 2.16425 2.88431 0
M  V30 4351 O 431.765 1.5554 3.81944 0
M  V30 4352 H 431.106 0.457793 0.480959 0
M  V30 4353 H 433.636 1.79547 0.981031 0
M  V30 4354 H 433.646 2.28933 3.37718 0
M  V30 4355 H 432.321 3.19415 2.66359 0
M  V30 4356 H 430.898 1.51961 3.40532 0
M  V30 4357 N 433.083 -1.0153 1.20538 0
M  V30 4358 C 434.013 -2.11972 0.979295 0
M  V30 4359 C 434.994 -1.6985 -0.0921787 0
M  V30 4360 O 436.179 -1.94089 0.0655932 0
M  V30 4361 C 433.309 -3.43201 0.531984 0
M  V30 4362 C 432.263 -3.9907 1.54685 0
M  V30 4363 C 431.589 -5.26082 0.956127 0
M  V30 4364 C 432.889 -4.32313 2.93092 0
M  V30 4365 H 434.583 -2.31143 1.90298 0
M  V30 4366 H 432.129 -1.11079 0.916372 0
M  V30 4367 H 434.082 -4.1985 0.361044 0
M  V30 4368 H 432.806 -3.23792 -0.427327 0
M  V30 4369 H 431.465 -3.2453 1.70517 0
M  V30 4370 H 431.113 -5.02999 -0.0111538 0
M  V30 4371 H 430.813 -5.64426 1.63393 0
M  V30 4372 H 432.337 -6.05386 0.796284 0
M  V30 4373 H 433.751 -4.99845 2.80763 0
M  V30 4374 H 432.148 -4.81774 3.57791 0
M  V30 4375 H 433.218 -3.41025 3.44717 0
M  V30 4376 N 434.561 -1.01147 -1.20859 0
M  V30 4377 C 435.807 -0.698899 -1.90377 0
M  V30 4378 C 436.14 0.76904 -1.78324 0
M  V30 4379 O 435.415 1.55817 -1.16409 0
M  V30 4380 C 435.698 -1.12878 -3.41951 0
M  V30 4381 C 435.551 -2.65665 -3.62963 0
M  V30 4382 C 436.87 -0.696114 -4.3456 0
M  V30 4383 H 433.989 -0.255372 -0.691342 0
M  V30 4384 H 436.631 -1.25831 -1.42361 0
M  V30 4385 H 434.781 -0.652827 -3.82976 0
M  V30 4386 H 436.453 -3.21074 -3.31224 0
M  V30 4387 H 434.696 -3.06878 -3.06608 0
M  V30 4388 H 435.367 -2.90797 -4.69192 0
M  V30 4389 H 437.843 -1.10521 -4.01154 0
M  V30 4390 H 436.719 -1.025 -5.39245 0
M  V30 4391 H 436.98 0.402465 -4.40264 0
M  V30 4392 N 436.039 1.36541 -0.78704 0
M  V30 4393 C 437.267 2.03561 -0.370199 0
M  V30 4394 C 437.682 1.59347 1.01263 0
M  V30 4395 O 437.039 0.781781 1.64907 0
M  V30 4396 C 437.09 3.59033 -0.421614 0
M  V30 4397 O 436.811 4.01634 -1.7499 0
M  V30 4398 C 438.312 4.433 0.00489763 0
M  V30 4399 H 435.532 0.653346 -0.152904 0
M  V30 4400 H 438.076 1.74566 -1.06522 0
M  V30 4401 H 436.231 3.86746 0.224971 0
M  V30 4402 H 436.645 4.96217 -1.69909 0
M  V30 4403 H 438.119 5.51939 -0.0822184 0
M  V30 4404 H 438.596 4.26285 1.05723 0
M  V30 4405 H 439.202 4.20843 -0.614085 0
M  V30 4406 N 437.518 0.538854 1.48102 0
M  V30 4407 C 438.481 -0.208395 2.28251 0
M  V30 4408 C 439.481 -0.859656 1.35892 0
M  V30 4409 O 440.671 -0.71834 1.58699 0
M  V30 4410 C 437.803 -1.30252 3.15035 0
M  V30 4411 H 438.996 0.495407 2.9578 0
M  V30 4412 H 436.549 0.295112 1.53489 0
M  V30 4413 H 437.284 -2.0393 2.52157 0
M  V30 4414 H 437.069 -0.840551 3.82985 0
M  V30 4415 H 438.559 -1.82787 3.75471 0
M  V30 4416 N 438.996 -1.55193 0.274407 0
M  V30 4417 C 439.926 -2.25471 -0.607032 0
M  V30 4418 C 440.907 -1.24461 -1.15946 0
M  V30 4419 O 442.092 -1.53179 -1.19373 0
M  V30 4420 C 439.222 -2.97526 -1.79153 0
M  V30 4421 C 438.176 -4.05459 -1.37067 0
M  V30 4422 C 437.502 -4.65084 -2.6382 0
M  V30 4423 C 438.802 -5.19691 -0.521389 0
M  V30 4424 H 440.496 -2.99393 -0.0209343 0
M  V30 4425 H 438.042 -1.43997 -0.00862866 0
M  V30 4426 H 439.995 -3.45402 -2.41404 0
M  V30 4427 H 438.719 -2.21138 -2.40344 0
M  V30 4428 H 437.378 -3.58393 -0.771355 0
M  V30 4429 H 437.026 -3.85365 -3.23268 0
M  V30 4430 H 436.726 -5.37961 -2.36372 0
M  V30 4431 H 438.25 -5.15708 -3.26921 0
M  V30 4432 H 439.664 -5.63623 -1.04889 0
M  V30 4433 H 438.061 -5.99126 -0.341825 0
M  V30 4434 H 439.131 -4.82713 0.46 0
M  V30 4435 N 440.474 -0.00167713 -1.576 0
M  V30 4436 C 441.751 0.719951 -1.81868 0
M  V30 4437 C 442.131 1.91895 -0.879747 0
M  V30 4438 O 441.479 2.28389 0.0711423 0
M  V30 4439 C 441.689 1.12409 -3.30402 0
M  V30 4440 C 443.037 1.52724 -3.96182 0
M  V30 4441 O 444.061 1.21784 -3.34734 0
M  V30 4442 O 442.92 2.10265 -5.04431 0
M  V30 4443 H 440.014 0.350707 -0.748955 0
M  V30 4444 H 442.56 -0.0272597 -1.69678 0
M  V30 4445 H 441.332 0.269532 -3.90371 0
M  V30 4446 H 440.955 1.93035 -3.47596 0
M  V30 4447 N 441.952 1.55251 0.271103 0
M  V30 4448 C 442.885 1.83191 1.36075 0
M  V30 4449 C 443.863 0.685091 1.47463 0
M  V30 4450 O 445.047 0.928292 1.64058 0
M  V30 4451 C 442.174 1.99521 2.73696 0
M  V30 4452 C 441.22 3.22081 2.79582 0
M  V30 4453 S 442.053 4.79388 2.38636 0
M  V30 4454 C 443.209 4.98693 3.78228 0
M  V30 4455 H 443.442 2.75327 1.12171 0
M  V30 4456 H 440.975 1.47046 0.470833 0
M  V30 4457 H 442.933 2.09613 3.52948 0
M  V30 4458 H 441.594 1.0827 2.9485 0
M  V30 4459 H 440.787 3.304 3.80594 0
M  V30 4460 H 440.389 3.10589 2.08352 0
M  V30 4461 H 442.681 4.84551 4.73515 0
M  V30 4462 H 443.624 6.00738 3.7486 0
M  V30 4463 H 444.032 4.26665 3.69618 0
M  V30 4464 N 443.43 -0.535701 1.48216 0
M  V30 4465 C 444.377 -1.64083 1.62312 0
M  V30 4466 C 445.347 -1.59448 0.465365 0
M  V30 4467 O 446.532 -1.77959 0.688135 0
M  V30 4468 C 443.672 -3.0236 1.66349 0
M  V30 4469 C 442.785 -3.17273 2.93193 0
M  V30 4470 C 441.92 -4.46075 2.88427 0
M  V30 4471 C 440.959 -4.54496 4.1 0
M  V30 4472 N 440.096 -5.7468 4.03345 0
M  V30 4473 H 444.936 -1.51374 2.5669 0
M  V30 4474 H 442.473 -0.737059 1.27302 0
M  V30 4475 H 444.431 -3.82461 1.66672 0
M  V30 4476 H 443.061 -3.13854 0.754672 0
M  V30 4477 H 442.113 -2.30462 3.02641 0
M  V30 4478 H 443.425 -3.19357 3.83162 0
M  V30 4479 H 442.579 -5.3446 2.87119 0
M  V30 4480 H 441.318 -4.46504 1.96177 0
M  V30 4481 H 440.323 -3.64519 4.11589 0
M  V30 4482 H 441.548 -4.5581 5.03402 0
M  V30 4483 H 439.494 -5.76017 3.13912 0
M  V30 4484 H 439.411 -5.78234 4.87013 0
M  V30 4485 H 440.679 -6.65367 4.06087 0
M  V30 4486 N 444.908 -1.36708 -0.784132 0
M  V30 4487 C 446.156 -1.30972 -1.53918 0
M  V30 4488 C 446.477 0.109086 -1.94695 0
M  V30 4489 O 445.747 1.05048 -1.65353 0
M  V30 4490 H 444.327 -0.481819 -0.570841 0
M  V30 4491 H 446.989 -1.71063 -0.934002 0
M  V30 4492 H 446.085 -1.94061 -2.44431 0
M  V30 4493 N 446.386 1.0089 -1.21074 0
M  V30 4494 C 447.633 1.74607 -1.0256 0
M  V30 4495 C 447.961 1.89426 0.44136 0
M  V30 4496 O 447.216 1.42266 1.34384 0
M  V30 4497 C 447.515 3.16335 -1.66334 0
M  V30 4498 C 447.181 3.21474 -3.16173 0
M  V30 4499 C 445.843 3.22583 -3.57062 0
M  V30 4500 C 448.195 3.19025 -4.12156 0
M  V30 4501 C 445.523 3.18925 -4.92446 0
M  V30 4502 C 447.875 3.16909 -5.47496 0
M  V30 4503 C 446.539 3.16326 -5.87787 0
M  V30 4504 H 445.809 0.638933 -0.375294 0
M  V30 4505 H 448.456 1.18274 -1.50611 0
M  V30 4506 H 446.761 3.75876 -1.10566 0
M  V30 4507 H 448.458 3.72083 -1.49516 0
M  V30 4508 H 445.048 3.2135 -2.83605 0
M  V30 4509 H 449.232 3.17332 -3.81595 0
M  V30 4510 H 444.488 3.16809 -5.22917 0
M  V30 4511 H 448.662 3.13968 -6.21609 0
M  V30 4512 H 446.289 3.13246 -6.92662 0
M  V30 4513 N 447.864 1.01787 1.20321 0
M  V30 4514 C 449.089 0.727009 1.9424 0
M  V30 4515 C 449.514 -0.706179 1.74341 0
M  V30 4516 O 448.872 -1.48609 1.03852 0
M  V30 4517 C 448.92 1.06958 3.44372 0
M  V30 4518 O 448.024 0.181983 4.11998 0
M  V30 4519 H 447.365 0.269626 0.606793 0
M  V30 4520 H 449.895 1.36158 1.52716 0
M  V30 4521 H 449.905 1.02182 3.94997 0
M  V30 4522 H 448.58 2.11378 3.58179 0
M  V30 4523 H 447.157 0.287378 3.71791 0
M  V30 4524 N 449.342 -1.36122 0.79427 0
M  V30 4525 C 450.272 -2.32551 0.210328 0
M  V30 4526 C 451.253 -1.56884 -0.657386 0
M  V30 4527 O 452.438 -1.85014 -0.590207 0
M  V30 4528 C 449.568 -3.41128 -0.651819 0
M  V30 4529 C 448.522 -4.27842 0.116395 0
M  V30 4530 C 447.848 -5.2763 -0.86666 0
M  V30 4531 C 449.148 -5.05647 1.30837 0
M  V30 4532 H 450.842 -2.81636 1.01594 0
M  V30 4533 H 448.388 -1.35407 0.489981 0
M  V30 4534 H 450.341 -4.07581 -1.07031 0
M  V30 4535 H 449.065 -2.90622 -1.49019 0
M  V30 4536 H 447.724 -3.62952 0.515915 0
M  V30 4537 H 447.372 -4.73395 -1.70019 0
M  V30 4538 H 447.072 -5.86514 -0.35705 0
M  V30 4539 H 448.596 -5.96955 -1.28361 0
M  V30 4540 H 450.01 -5.65113 0.965393 0
M  V30 4541 H 448.407 -5.73967 1.75161 0
M  V30 4542 H 449.477 -4.37006 2.10128 0
M  V30 4543 N 450.82 -0.546701 -1.47814 0
M  V30 4544 C 452.048 -0.0232857 -2.06887 0
M  V30 4545 C 452.463 1.26571 -1.4009 0
M  V30 4546 O 451.82 1.7569 -0.493906 0
M  V30 4547 C 451.871 0.186975 -3.61016 0
M  V30 4548 O 451.592 -1.05097 -4.25307 0
M  V30 4549 C 453.093 0.748872 -4.36929 0
M  V30 4550 H 450.313 -0.0410763 -0.669742 0
M  V30 4551 H 452.857 -0.757117 -1.89968 0
M  V30 4552 H 451.012 0.870903 -3.77484 0
M  V30 4553 H 451.426 -0.842121 -5.17695 0
M  V30 4554 H 452.9 0.845334 -5.45489 0
M  V30 4555 H 453.377 1.75772 -4.02493 0
M  V30 4556 H 453.983 0.100979 -4.2518 0
M  V30 4557 N 452.299 1.55045 -0.282633 0
M  V30 4558 C 453.262 2.21515 0.588539 0
M  V30 4559 C 454.262 1.19535 1.07554 0
M  V30 4560 O 455.452 1.44391 0.974514 0
M  V30 4561 C 452.584 2.88704 1.8128 0
M  V30 4562 H 453.777 2.99899 0.00806397 0
M  V30 4563 H 451.33 1.56265 -0.0333067 0
M  V30 4564 H 452.065 2.14352 2.43359 0
M  V30 4565 H 451.85 3.63443 1.47144 0
M  V30 4566 H 453.34 3.39465 2.43214 0
M  V30 4567 N 453.777 0.010035 1.57597 0
M  V30 4568 C 455.026 -0.671945 1.90178 0
M  V30 4569 C 455.339 -1.74376 0.886131 0
M  V30 4570 O 456.545 -2.48107 1.10252 0
M  V30 4571 C 455.001 -1.24636 3.3763 0
M  V30 4572 C 454.609 -0.208838 4.47513 0
M  V30 4573 C 456.353 -1.90595 3.79307 0
M  V30 4574 C 454.26 -0.793814 5.86048 0
M  V30 4575 H 453.19 -0.25474 0.709665 0
M  V30 4576 H 455.841 0.0722206 1.83358 0
M  V30 4577 H 454.223 -2.04152 3.3932 0
M  V30 4578 H 455.397 0.562463 4.57354 0
M  V30 4579 H 453.712 0.350889 4.14919 0
M  V30 4580 H 456.309 -2.35284 4.80151 0
M  V30 4581 H 456.652 -2.74074 3.13352 0
M  V30 4582 H 457.185 -1.17798 3.79958 0
M  V30 4583 H 453.924 0.00240855 6.555 0
M  V30 4584 H 453.444 -1.53404 5.79851 0
M  V30 4585 H 455.123 -1.2894 6.34022 0
M  V30 4586 N 455.255 -1.55392 -0.262866 0
M  V30 4587 C 456.501 -1.76737 -0.99458 0
M  V30 4588 C 456.834 -0.572453 -1.85571 0
M  V30 4589 O 456.109 0.429732 -1.89693 0
M  V30 4590 C 456.392 -3.07824 -1.8686 0
M  V30 4591 C 456.245 -4.3769 -1.03672 0
M  V30 4592 C 457.564 -3.35021 -2.85393 0
M  V30 4593 H 454.683 -0.643005 -0.360157 0
M  V30 4594 H 457.325 -1.88126 -0.266216 0
M  V30 4595 H 455.475 -2.98245 -2.48962 0
M  V30 4596 H 457.147 -4.59238 -0.43563 0
M  V30 4597 H 455.39 -4.32461 -0.340513 0
M  V30 4598 H 456.061 -5.25759 -1.6817 0
M  V30 4599 H 458.537 -3.44458 -2.33426 0
M  V30 4600 H 457.413 -4.27989 -3.43681 0
M  V30 4601 H 457.674 -2.55153 -3.61039 0
M  V30 4602 N 456.733 0.527833 -1.48498 0
M  V30 4603 C 457.663 1.64136 -1.66077 0
M  V30 4604 C 458.644 1.62286 -0.509625 0
M  V30 4605 O 459.829 1.79449 -0.742413 0
M  V30 4606 C 456.959 3.02717 -1.70234 0
M  V30 4607 C 455.913 3.19426 -2.8487 0
M  V30 4608 C 455.239 4.5909 -2.74118 0
M  V30 4609 C 456.539 3.01993 -4.26142 0
M  V30 4610 H 458.233 1.4968 -2.593 0
M  V30 4611 H 455.779 0.718654 -1.24785 0
M  V30 4612 H 457.732 3.80491 -1.8112 0
M  V30 4613 H 456.456 3.18201 -0.735911 0
M  V30 4614 H 455.115 2.4407 -2.73542 0
M  V30 4615 H 454.763 4.71413 -1.7544 0
M  V30 4616 H 454.463 4.71214 -3.51042 0
M  V30 4617 H 455.987 5.3896 -2.86974 0
M  V30 4618 H 457.401 3.69558 -4.38292 0
M  V30 4619 H 455.798 3.2561 -5.04082 0
M  V30 4620 H 456.868 1.98396 -4.42456 0
M  V30 4621 N 458.211 1.37122 0.776871 0
M  V30 4622 C 459.121 1.34651 1.9211 0
M  V30 4623 C 460.137 0.246824 1.7224 0
M  V30 4624 O 461.313 0.48134 1.95563 0
M  V30 4625 C 458.378 1.14748 3.2716 0
M  V30 4626 C 457.439 2.34308 3.5972 0
M  V30 4627 C 456.672 2.15345 4.88326 0
M  V30 4628 O 456.895 1.13507 5.58992 0
M  V30 4629 O 455.829 3.03414 5.1983 0
M  V30 4630 H 459.655 2.31013 1.97146 0
M  V30 4631 H 457.24 1.17799 0.918901 0
M  V30 4632 H 459.122 1.05616 4.0795 0
M  V30 4633 H 457.797 0.214562 3.22988 0
M  V30 4634 H 456.704 2.49011 2.79185 0
M  V30 4635 H 458.037 3.26149 3.68629 0
M  V30 4636 N 459.689 -1.00246 1.21608 0
M  V30 4637 C 460.599 -2.12515 0.993709 0
M  V30 4638 C 461.615 -1.73913 -0.0549939 0
M  V30 4639 O 462.791 -2.00943 0.135619 0
M  V30 4640 C 459.856 -3.42083 0.563953 0
M  V30 4641 C 458.917 -3.94843 1.68516 0
M  V30 4642 C 458.15 -5.18226 1.27582 0
M  V30 4643 O 458.373 -5.70201 0.150506 0
M  V30 4644 O 457.307 -5.64497 2.0887 0
M  V30 4645 H 461.133 -2.34152 1.93407 0
M  V30 4646 H 458.718 -1.10891 1.00118 0
M  V30 4647 H 460.6 -4.20073 0.334194 0
M  V30 4648 H 459.275 -3.21828 -0.347665 0
M  V30 4649 H 458.182 -3.18068 1.96935 0
M  V30 4650 H 459.515 -4.19512 2.5743 0
M  V30 4651 N 461.167 -1.02423 -1.1978 0
M  V30 4652 C 462.392 -0.7373 -1.93852 0
M  V30 4653 C 462.817 0.696923 -1.74713 0
M  V30 4654 O 462.175 1.48056 -1.04638 0
M  V30 4655 C 462.223 -1.08783 -3.438 0
M  V30 4656 O 461.327 -0.20383 -4.11896 0
M  V30 4657 H 460.668 -0.27284 -0.605355 0
M  V30 4658 H 463.198 -1.36966 -1.51992 0
M  V30 4659 H 463.208 -1.04276 -3.9445 0
M  V30 4660 H 461.883 -2.13274 -3.57053 0
M  V30 4661 H 460.46 -0.307091 -3.71633 0
M  V30 4662 N 462.645 1.35699 -0.801477 0
M  V30 4663 C 463.894 1.98165 -0.375979 0
M  V30 4664 C 464.207 1.64306 1.06127 0
M  V30 4665 O 465.413 2.20097 1.58964 0
M  V30 4666 C 463.869 3.54497 -0.621305 0
M  V30 4667 C 463.477 3.9727 -2.07076 0
M  V30 4668 C 465.221 4.23697 -0.26091 0
M  V30 4669 C 463.128 5.46427 -2.26211 0
M  V30 4670 H 462.058 0.741478 -0.136844 0
M  V30 4671 H 464.709 1.54834 -0.984814 0
M  V30 4672 H 463.091 3.95958 0.0574112 0
M  V30 4673 H 464.265 3.66974 -2.78687 0
M  V30 4674 H 462.58 3.40943 -2.39054 0
M  V30 4675 H 465.177 5.33334 -0.381994 0
M  V30 4676 H 465.52 4.0869 0.792344 0
M  V30 4677 H 466.053 3.87639 -0.893339 0
M  V30 4678 H 462.792 5.66396 -3.29963 0
M  V30 4679 H 462.312 5.78309 -1.59119 0
M  V30 4680 H 463.991 6.12819 -2.07513 0
M  V30 4681 N 464.123 0.554532 1.47522 0
M  V30 4682 C 465.033 -0.197865 2.33764 0
M  V30 4683 C 466.049 -0.914576 1.48025 0
M  V30 4684 O 467.225 -0.884067 1.80959 0
M  V30 4685 C 464.29 -1.21628 3.24665 0
M  V30 4686 C 463.351 -0.507283 4.26292 0
M  V30 4687 C 462.584 -1.47718 5.1285 0
M  V30 4688 O 462.807 -2.7118 5.01814 0
M  V30 4689 O 461.741 -1.00313 5.93482 0
M  V30 4690 H 465.567 0.50949 2.99396 0
M  V30 4691 H 463.152 0.315176 1.46038 0
M  V30 4692 H 465.034 -1.80421 3.80823 0
M  V30 4693 H 463.709 -1.9056 2.61665 0
M  V30 4694 H 462.616 0.121778 3.73902 0
M  V30 4695 H 463.949 0.140544 4.91999 0
M  V30 4696 N 465.601 -1.54893 0.290851 0
M  V30 4697 C 466.548 -2.23138 -0.58974 0
M  V30 4698 C 467.518 -1.21036 -1.13752 0
M  V30 4699 O 468.703 -1.49626 -1.18392 0
M  V30 4700 C 465.843 -2.96811 -1.76061 0
M  V30 4701 C 464.956 -4.13665 -1.24519 0
M  V30 4702 C 464.091 -4.74944 -2.3791 0
M  V30 4703 C 463.13 -5.83963 -1.83451 0
M  V30 4704 N 462.267 -6.39239 -2.90376 0
M  V30 4705 H 467.107 -2.98 -0.00114915 0
M  V30 4706 H 464.644 -1.47096 0.0112006 0
M  V30 4707 H 466.602 -3.37751 -2.44909 0
M  V30 4708 H 465.232 -2.24344 -2.32098 0
M  V30 4709 H 464.284 -3.77737 -0.449288 0
M  V30 4710 H 465.596 -4.92238 -0.806424 0
M  V30 4711 H 464.75 -5.18684 -3.14724 0
M  V30 4712 H 463.489 -3.95682 -2.85109 0
M  V30 4713 H 462.494 -5.39657 -1.05122 0
M  V30 4714 H 463.719 -6.65103 -1.37169 0
M  V30 4715 H 461.665 -5.62864 -3.36927 0
M  V30 4716 H 461.582 -7.13129 -2.50965 0
M  V30 4717 H 462.85 -6.87637 -3.67118 0
M  V30 4718 N 467.08 -0.0183926 -1.57589 0
M  V30 4719 C 468.043 0.951986 -2.08494 0
M  V30 4720 C 469.043 1.26092 -0.997874 0
M  V30 4721 O 470.233 1.20304 -1.25987 0
M  V30 4722 C 467.365 2.27165 -2.54182 0
M  V30 4723 H 468.558 0.511307 -2.95509 0
M  V30 4724 H 466.111 0.229444 -1.54607 0
M  V30 4725 H 466.846 2.75884 -1.70465 0
M  V30 4726 H 466.631 2.06057 -3.33591 0
M  V30 4727 H 468.121 2.9674 -2.93828 0
M  V30 4728 N 468.558 1.5553 0.254621 0
M  V30 4729 C 469.488 1.9268 1.31897 0
M  V30 4730 C 470.469 0.790797 1.506 0
M  V30 4731 O 471.654 1.05045 1.63337 0
M  V30 4732 C 468.784 2.21477 2.67517 0
M  V30 4733 C 467.738 3.37256 2.63519 0
M  V30 4734 C 467.064 3.51576 4.02862 0
M  V30 4735 C 468.364 4.73157 2.21179 0
M  V30 4736 H 470.058 2.81832 1.01051 0
M  V30 4737 H 467.604 1.35599 0.484662 0
M  V30 4738 H 469.557 2.46055 3.42104 0
M  V30 4739 H 468.281 1.29144 2.99982 0
M  V30 4740 H 466.94 3.12675 1.9139 0
M  V30 4741 H 466.588 2.56676 4.32581 0
M  V30 4742 H 466.288 4.2943 4.01078 0
M  V30 4743 H 467.812 3.78467 4.79161 0
M  V30 4744 H 469.226 4.97158 2.85494 0
M  V30 4745 H 467.623 5.54058 2.30521 0
M  V30 4746 H 468.693 4.70739 1.16332 0
M  V30 4747 N 470.036 -0.519951 1.48776 0
M  V30 4748 C 470.966 -1.63253 1.66945 0
M  V30 4749 C 471.947 -1.62014 0.518224 0
M  V30 4750 O 473.132 -1.79053 0.751919 0
M  V30 4751 C 470.262 -3.0181 1.71836 0
M  V30 4752 C 469.216 -3.17911 2.8656 0
M  V30 4753 C 468.542 -4.5763 2.76548 0
M  V30 4754 C 469.842 -2.99729 4.27738 0
M  V30 4755 H 471.536 -1.48302 2.6009 0
M  V30 4756 H 469.082 -0.712026 1.25165 0
M  V30 4757 H 471.035 -3.79525 1.83135 0
M  V30 4758 H 469.759 -3.17806 0.752775 0
M  V30 4759 H 468.418 -2.42616 2.74833 0
M  V30 4760 H 468.066 -4.70476 1.77937 0
M  V30 4761 H 467.766 -4.69346 3.53536 0
M  V30 4762 H 469.29 -5.37431 2.89828 0
M  V30 4763 H 470.704 -3.67228 4.40246 0
M  V30 4764 H 469.101 -3.22932 5.05801 0
M  V30 4765 H 470.171 -1.96047 4.43502 0
M  V30 4766 N 471.514 -1.37532 -0.769588 0
M  V30 4767 C 472.742 -1.36059 -1.55871 0
M  V30 4768 C 473.157 0.053544 -1.88724 0
M  V30 4769 O 472.514 1.01591 -1.5161 0
M  V30 4770 C 472.565 -2.20107 -2.86767 0
M  V30 4771 O 472.286 -3.56009 -2.55321 0
M  V30 4772 C 473.787 -2.26636 -3.80987 0
M  V30 4773 H 471.007 -0.465967 -0.482821 0
M  V30 4774 H 473.551 -1.80901 -0.953686 0
M  V30 4775 H 471.706 -1.78768 -3.43687 0
M  V30 4776 H 472.12 -4.0009 -3.39158 0
M  V30 4777 H 473.594 -2.89763 -4.69831 0
M  V30 4778 H 474.071 -1.2754 -4.20274 0
M  V30 4779 H 474.677 -2.68296 -3.29996 0
M  V30 4780 N 472.992 0.995999 -1.22138 0
M  V30 4781 C 473.902 2.11985 -1.00496 0
M  V30 4782 C 474.918 1.7394 0.0457701 0
M  V30 4783 O 476.094 2.00868 -0.146273 0
M  V30 4784 C 473.159 3.41779 -0.582086 0
M  V30 4785 C 472.22 3.93943 -1.70608 0
M  V30 4786 C 471.453 5.17542 -1.30328 0
M  V30 4787 O 471.676 5.70114 -0.180743 0
M  V30 4788 O 470.61 5.63382 -2.11861 0
M  V30 4789 H 474.436 2.33123 -1.94647 0
M  V30 4790 H 472.021 1.10358 -1.00705 0
M  V30 4791 H 473.903 4.1989 -0.356467 0
M  V30 4792 H 472.578 3.22007 0.330592 0
M  V30 4793 H 471.485 3.17019 -1.98619 0
M  V30 4794 H 472.818 4.18141 -2.59651 0
M  V30 4795 N 474.47 1.03057 1.19235 0
M  V30 4796 C 475.716 0.729098 1.89241 0
M  V30 4797 C 476.049 -0.740573 1.79525 0
M  V30 4798 O 475.324 -1.53946 1.18874 0
M  V30 4799 C 475.607 1.18304 3.40112 0
M  V30 4800 C 475.46 2.71406 3.5869 0
M  V30 4801 C 476.779 0.765161 4.33397 0
M  V30 4802 H 473.898 0.266338 0.687192 0
M  V30 4803 H 476.54 1.28079 1.40341 0
M  V30 4804 H 474.69 0.713672 3.81889 0
M  V30 4805 H 476.362 3.26303 3.26074 0
M  V30 4806 H 474.605 3.11717 3.01687 0
M  V30 4807 H 475.276 2.98225 4.64506 0
M  V30 4808 H 477.752 1.16889 3.99345 0
M  V30 4809 H 476.628 1.11065 5.37546 0
M  V30 4810 H 476.889 -0.332372 4.40849 0
M  V30 4811 N 475.948 -1.35272 0.808662 0
M  V30 4812 C 476.858 -2.33546 0.222079 0
M  V30 4813 C 477.874 -1.6196 -0.636011 0
M  V30 4814 O 479.05 -1.93822 -0.547274 0
M  V30 4815 C 476.115 -3.41148 -0.61795 0
M  V30 4816 C 475.176 -4.28507 0.260875 0
M  V30 4817 C 474.409 -5.3097 -0.539156 0
M  V30 4818 O 474.632 -5.42123 -1.77367 0
M  V30 4819 O 473.566 -6.01858 0.0710526 0
M  V30 4820 H 477.392 -2.85515 1.03512 0
M  V30 4821 H 474.977 -1.38079 0.570495 0
M  V30 4822 H 476.859 -4.06889 -1.09634 0
M  V30 4823 H 475.534 -2.91447 -1.40855 0
M  V30 4824 H 474.441 -3.6574 0.786451 0
M  V30 4825 H 475.774 -4.81611 1.01547 0
M  V30 4826 N 477.426 -0.562348 -1.47226 0
M  V30 4827 C 478.654 -0.0452275 -2.06851 0
M  V30 4828 C 479.069 1.25078 -1.41424 0
M  V30 4829 O 478.426 1.75156 -0.512513 0
M  V30 4830 C 478.477 0.148674 -3.61194 0
M  V30 4831 O 478.198 -1.09602 -4.24169 0
M  V30 4832 C 479.699 0.702488 -4.37699 0
M  V30 4833 H 476.919 -0.0481775 -0.669268 0
M  V30 4834 H 479.463 -0.777223 -1.89155 0
M  V30 4835 H 477.618 0.830817 -3.78386 0
M  V30 4836 H 478.032 -0.896982 -5.16773 0
M  V30 4837 H 479.506 0.78743 -5.46355 0
M  V30 4838 H 479.983 1.71493 -4.04335 0
M  V30 4839 H 480.589 0.0558772 -4.25263 0
M  V30 4840 N 478.904 1.54736 -0.299062 0
M  V30 4841 C 480.129 2.04975 0.316254 0
M  V30 4842 C 480.554 1.17501 1.46885 0
M  V30 4843 O 479.912 0.178678 1.80417 0
M  V30 4844 C 479.96 3.52672 0.751997 0
M  V30 4845 O 479.064 3.68226 1.85697 0
M  V30 4846 H 478.405 0.661126 0.0617175 0
M  V30 4847 H 480.935 1.99805 -0.440341 0
M  V30 4848 H 480.945 3.94488 1.04133 0
M  V30 4849 H 479.62 4.158 -0.0911482 0
M  V30 4850 H 478.197 3.38316 1.56834 0
M  V30 4851 N 480.382 0.0267497 1.57577 0
M  V30 4852 C 481.33 -0.973923 2.11229 0
M  V30 4853 C 482.324 -1.33849 1.03831 0
M  V30 4854 O 483.53 -1.321 1.22269 0
M  V30 4855 H 479.905 -0.331844 0.674821 0
M  V30 4856 H 481.876 -0.496092 2.94247 0
M  V30 4857 C 480.625 -2.24798 2.65257 0
M  V30 4858 H 479.948 -1.9762 3.47543 0
M  V30 4859 H 481.388 -2.93031 3.06445 0
M  V30 4860 C 479.847 -2.97611 1.57891 0
M  V30 4861 O 480.377 -3.89629 0.97735 0
M  V30 4862 N 478.583 -2.59905 1.29992 0
M  V30 4863 H 478.13 -1.85154 1.79097 0
M  V30 4864 H 478.088 -3.08932 0.583798 0
M  V30 4865 N 481.861 -1.55662 -0.24637 0
M  V30 4866 C 483.107 -1.78698 -0.971525 0
M  V30 4867 C 483.462 -0.59577 -1.82944 0
M  V30 4868 O 482.755 0.41097 -1.87141 0
M  V30 4869 C 482.949 -3.04885 -1.86494 0
M  V30 4870 C 482.778 -4.36165 -1.09501 0
M  V30 4871 C 481.548 -4.98929 -0.799895 0
M  V30 4872 C 483.746 -5.12126 -0.472334 0
M  V30 4873 N 481.728 -6.139 -0.00595299 0
M  V30 4874 C 483.099 -6.1972 0.18616 0
M  V30 4875 C 485.154 -4.96426 -0.382854 0
M  V30 4876 C 483.857 -7.13321 0.925542 0
M  V30 4877 C 485.883 -5.90405 0.342999 0
M  V30 4878 C 485.245 -6.97407 0.990128 0
M  V30 4879 H 481.344 -0.705852 -0.336597 0
M  V30 4880 H 483.928 -1.93157 -0.244615 0
M  V30 4881 H 482.099 -2.91753 -2.56388 0
M  V30 4882 H 483.831 -3.16212 -2.5257 0
M  V30 4883 H 480.586 -4.60365 -1.11181 0
M  V30 4884 H 481.01 -6.75938 0.379127 0
M  V30 4885 H 485.652 -4.13777 -0.868834 0
M  V30 4886 H 483.37 -7.9547 1.42312 0
M  V30 4887 H 486.956 -5.80333 0.412907 0
M  V30 4888 H 485.836 -7.68874 1.54282 0
M  V30 4889 N 483.339 0.512053 -1.4905 0
M  V30 4890 C 484.75 1.09376 -1.51307 0
M  V30 4891 C 485.101 1.94 -0.292971 0
M  V30 4892 O 484.226 2.07965 0.598277 0
M  V30 4893 C 484.821 1.99031 -2.74176 0
M  V30 4894 C 483.38 2.52385 -2.79247 0
M  V30 4895 C 482.527 1.29749 -2.45073 0
M  V30 4896 H 485.478 0.296467 -1.55906 0
M  V30 4897 H 485.499 2.83569 -2.53711 0
M  V30 4898 H 485.011 1.37412 -3.62959 0
M  V30 4899 H 483.112 3.17673 -1.94716 0
M  V30 4900 H 483.225 2.90293 -3.81139 0
M  V30 4901 H 481.589 1.61912 -1.96612 0
M  V30 4902 H 482.372 0.698555 -3.36118 0
M  V30 4903 N 484.817 1.37938 0.762283 0
M  V30 4904 C 486.045 1.36883 1.55147 0
M  V30 4905 C 486.46 -0.0435348 1.8875 0
M  V30 4906 O 485.817 -1.00786 1.52146 0
M  V30 4907 C 485.868 2.21624 2.85596 0
M  V30 4908 O 485.589 3.57358 2.5343 0
M  V30 4909 C 487.09 2.28653 3.7978 0
M  V30 4910 H 484.31 0.468521 0.480343 0
M  V30 4911 H 486.854 1.81404 0.944079 0
M  V30 4912 H 485.009 1.80588 3.42734 0
M  V30 4913 H 485.423 4.01883 3.37032 0
M  V30 4914 H 486.897 2.9225 4.68288 0
M  V30 4915 H 487.374 1.29767 4.19592 0
M  V30 4916 H 487.98 2.70043 3.28568 0
M  V30 4917 N 486.295 -0.989507 1.22664 0
M  V30 4918 C 487.706 -1.54406 1.04955 0
M  V30 4919 C 488.057 -1.92366 -0.385951 0
M  V30 4920 O 487.182 -1.75111 -1.27142 0
M  V30 4921 C 487.777 -2.80578 1.89899 0
M  V30 4922 C 486.336 -3.32464 1.76478 0
M  V30 4923 C 485.483 -2.05524 1.86159 0
M  V30 4924 H 488.434 -0.810211 1.3646 0
M  V30 4925 H 488.455 -3.53075 1.4184 0
M  V30 4926 H 487.967 -2.52918 2.94371 0
M  V30 4927 H 486.068 -3.65024 0.747528 0
M  V30 4928 H 486.181 -4.02838 2.59342 0
M  V30 4929 H 484.545 -2.19241 1.29636 0
M  V30 4930 H 485.328 -1.80258 2.92168 0
M  V30 4931 N 487.773 -1.03688 -1.18687 0
M  V30 4932 C 489.019 -0.739123 -1.88851 0
M  V30 4933 C 489.352 0.731042 -1.79915 0
M  V30 4934 O 488.627 1.53313 -1.19688 0
M  V30 4935 C 488.91 -1.20106 -3.3948 0
M  V30 4936 C 488.763 -2.73304 -3.57246 0
M  V30 4937 C 490.082 -0.788134 -4.32986 0
M  V30 4938 H 487.201 -0.269978 -0.68577 0
M  V30 4939 H 489.843 -1.28822 -1.3966 0
M  V30 4940 H 487.993 -0.733915 -3.81505 0
M  V30 4941 H 489.665 -3.28027 -3.24339 0
M  V30 4942 H 487.908 -3.13313 -3.00029 0
M  V30 4943 H 488.579 -3.00684 -4.62918 0
M  V30 4944 H 491.055 -1.19005 -3.98719 0
M  V30 4945 H 489.931 -1.13915 -5.36949 0
M  V30 4946 H 490.192 0.308988 -4.41019 0
M  V30 4947 N 489.251 1.34841 -0.815825 0
M  V30 4948 C 490.662 1.80937 -0.46029 0
M  V30 4949 C 491.013 1.67685 1.01863 0
M  V30 4950 O 490.138 1.21277 1.79223 0
M  V30 4951 C 490.733 3.28509 -0.828708 0
M  V30 4952 C 489.292 3.72712 -0.525644 0
M  V30 4953 C 488.439 2.56676 -1.04941 0
M  V30 4954 H 491.39 1.22688 -1.00664 0
M  V30 4955 H 491.411 3.80279 -0.129757 0
M  V30 4956 H 490.923 3.38122 -1.90513 0
M  V30 4957 H 489.024 3.68642 0.541666 0
M  V30 4958 H 489.137 4.67119 -1.06474 0
M  V30 4959 H 487.501 2.50302 -0.471286 0
M  V30 4960 H 488.284 2.69063 -2.13214 0
M  V30 4961 N 490.729 0.570148 1.46925 0
M  V30 4962 C 492.14 0.1402 1.86173 0
M  V30 4963 C 492.491 -1.29347 1.47526 0
M  V30 4964 O 491.616 -1.97508 0.884292 0
M  V30 4965 C 492.211 0.247661 3.37894 0
M  V30 4966 C 490.77 -0.127332 3.76185 0
M  V30 4967 C 489.917 0.589349 2.70965 0
M  V30 4968 H 492.868 0.779117 1.38259 0
M  V30 4969 H 492.889 -0.530341 3.76786 0
M  V30 4970 H 492.401 1.29121 3.65991 0
M  V30 4971 H 490.502 -1.17149 3.53704 0
M  V30 4972 H 490.615 0.240238 4.78497 0
M  V30 4973 H 488.979 0.0309824 2.54681 0
M  V30 4974 H 489.762 1.6343 3.01903 0
M  V30 4975 N 492.207 -1.54576 0.307264 0
M  V30 4976 C 493.623 -1.59534 -0.0459251 0
M  V30 4977 C 493.823 -1.32414 -1.51884 0
M  V30 4978 O 492.879 -1.1006 -2.27251 0
M  V30 4979 C 494.192 -2.98566 0.357649 0
M  V30 4980 C 495.74 -3.11491 0.306937 0
M  V30 4981 C 496.215 -4.52842 0.685427 0
M  V30 4982 N 497.706 -4.58782 0.638203 0
M  V30 4983 C 498.441 -5.66238 0.903458 0
M  V30 4984 N 497.937 -6.81703 1.23501 0
M  V30 4985 N 499.73 -5.55937 0.830102 0
M  V30 4986 H 491.881 -1.70464 1.26712 0
M  V30 4987 H 494.144 -0.79647 0.514139 0
M  V30 4988 H 493.85 -3.23356 1.38325 0
M  V30 4989 H 493.724 -3.76117 -0.285565 0
M  V30 4990 H 496.111 -2.86446 -0.709424 0
M  V30 4991 H 496.192 -2.36081 0.984861 0
M  V30 4992 H 495.836 -4.78618 1.69963 0
M  V30 4993 H 495.766 -5.26598 -0.0146346 0
M  V30 4994 H 498.257 -3.75849 0.393138 0
M  V30 4995 H 498.57 -7.59582 1.42322 0
M  V30 4996 H 496.915 -6.8324 1.27311 0
M  V30 4997 H 500.106 -4.64608 0.570693 0
M  V30 4998 H 500.279 -6.39597 1.04019 0
M  V30 4999 N 493.685 -0.035106 -1.57561 0
M  V30 5000 C 494.595 0.960295 -2.14046 0
M  V30 5001 C 495.611 1.3529 -1.0942 0
M  V30 5002 O 496.787 1.43309 -1.41508 0
M  V30 5003 C 493.852 2.22214 -2.66124 0
M  V30 5004 C 492.913 1.8894 -3.85487 0
M  V30 5005 C 492.146 3.09109 -4.35072 0
M  V30 5006 O 492.369 4.21963 -3.83802 0
M  V30 5007 O 491.303 2.91058 -5.26848 0
M  V30 5008 H 495.129 0.509983 -2.99387 0
M  V30 5009 H 492.714 0.185853 -1.48239 0
M  V30 5010 H 494.596 2.96279 -2.99661 0
M  V30 5011 H 493.271 2.66414 -1.83862 0
M  V30 5012 H 492.178 1.12241 -3.56865 0
M  V30 5013 H 493.511 1.49551 -4.6893 0
M  V30 5014 N 495.163 1.55791 0.238111 0
M  V30 5015 C 496.412 1.77234 0.962868 0
M  V30 5016 C 496.725 0.600661 1.86149 0
M  V30 5017 O 497.931 0.698315 2.62366 0
M  V30 5018 C 496.387 3.13808 1.76218 0
M  V30 5019 C 495.995 4.3865 0.910518 0
M  V30 5020 C 497.739 3.44585 2.47914 0
M  V30 5021 C 495.646 5.66252 1.70623 0
M  V30 5022 H 494.576 0.660731 0.36325 0
M  V30 5023 H 497.227 1.8221 0.217242 0
M  V30 5024 H 495.609 3.02963 2.55009 0
M  V30 5025 H 496.783 4.60507 0.164316 0
M  V30 5026 H 495.098 4.15271 0.30647 0
M  V30 5027 H 497.695 4.3714 3.07917 0
M  V30 5028 H 498.038 2.66314 3.19973 0
M  V30 5029 H 498.571 3.56685 1.76127 0
M  V30 5030 H 495.31 6.47369 1.02923 0
M  V30 5031 H 494.83 5.48483 2.42748 0
M  V30 5032 H 496.509 6.05829 2.27114 0
M  V30 5033 N 496.642 -0.504142 1.49319 0
M  V30 5034 C 497.87 -1.28256 1.62351 0
M  V30 5035 C 498.285 -1.86502 0.293682 0
M  V30 5036 O 497.642 -1.67678 -0.720449 0
M  V30 5037 C 497.693 -2.41507 2.68992 0
M  V30 5038 O 497.414 -1.85656 3.96817 0
M  V30 5039 C 498.915 -3.32929 2.927 0
M  V30 5040 H 496.135 -0.389115 0.546654 0
M  V30 5041 H 498.679 -0.605531 1.95329 0
M  V30 5042 H 496.834 -3.05046 2.38801 0
M  V30 5043 H 497.248 -2.59981 4.55533 0
M  V30 5044 H 498.722 -4.0868 3.71058 0
M  V30 5045 H 499.199 -3.89733 2.02496 0
M  V30 5046 H 499.805 -2.75158 3.24296 0
M  V30 5047 N 498.12 -1.38341 -0.754957 0
M  V30 5048 C 499.36 -1.35888 -1.52689 0
M  V30 5049 C 499.724 0.0513682 -1.91931 0
M  V30 5050 O 500.925 0.200761 -2.68049 0
M  V30 5051 C 499.196 -2.28666 -2.74676 0
M  V30 5052 S 500.755 -2.4422 -3.64558 0
M  V30 5053 H 497.573 -0.482165 -0.522531 0
M  V30 5054 H 500.175 -1.74253 -0.886358 0
M  V30 5055 H 498.879 -3.30023 -2.43953 0
M  V30 5056 H 498.41 -1.91445 -3.43675 0
M  V30 5057 H 500.425 -1.66525 -4.67423 0
M  V30 5058 N 499.598 0.982988 -1.23187 0
M  V30 5059 C 500.844 1.72648 -1.06398 0
M  V30 5060 C 501.177 1.90066 0.398561 0
M  V30 5061 O 500.452 1.45105 1.29518 0
M  V30 5062 C 500.735 3.12627 -1.78707 0
M  V30 5063 C 500.588 3.02795 -3.32618 0
M  V30 5064 C 501.907 4.11997 -1.54747 0
M  V30 5065 H 499.026 0.626649 -0.387918 0
M  V30 5066 H 501.668 1.14455 -1.51658 0
M  V30 5067 H 499.818 3.62308 -1.40234 0
M  V30 5068 H 501.49 2.60659 -3.80598 0
M  V30 5069 H 499.733 2.39362 -3.61785 0
M  V30 5070 H 500.404 4.01893 -3.78399 0
M  V30 5071 H 502.88 3.71114 -1.88186 0
M  V30 5072 H 501.756 5.08037 -2.07821 0
M  V30 5073 H 502.017 4.39462 -0.482249 0
M  V30 5074 N 501.076 1.04316 1.18135 0
M  V30 5075 C 502.322 0.749128 1.88457 0
M  V30 5076 C 502.655 -0.72149 1.803 0
M  V30 5077 O 501.93 -1.52676 1.205 0
M  V30 5078 C 502.213 1.21905 3.38838 0
M  V30 5079 C 502.066 2.75195 3.55792 0
M  V30 5080 C 503.385 0.811085 4.32561 0
M  V30 5081 H 500.504 0.273611 0.684329 0
M  V30 5082 H 503.146 1.29561 1.38975 0
M  V30 5083 H 501.296 0.754137 3.8111 0
M  V30 5084 H 502.968 3.29743 3.22595 0
M  V30 5085 H 501.211 3.14899 2.98364 0
M  V30 5086 H 501.882 3.03135 4.61317 0
M  V30 5087 H 504.358 1.21118 3.98082 0
M  V30 5088 H 503.234 1.16761 5.36338 0
M  V30 5089 H 503.495 -0.285596 4.41177 0
M  V30 5090 N 502.554 -1.34406 0.822964 0
M  V30 5091 C 503.779 -2.0304 0.423034 0
M  V30 5092 C 504.204 -1.61568 -0.963196 0
M  V30 5093 O 503.562 -0.800339 -1.62678 0
M  V30 5094 C 503.61 -3.56636 0.53321 0
M  V30 5095 O 502.714 -4.09971 -0.446939 0
M  V30 5096 H 502.055 -0.64075 0.174171 0
M  V30 5097 H 504.585 -1.71653 1.11339 0
M  V30 5098 H 504.595 -4.05945 0.408991 0
M  V30 5099 H 503.27 -3.86168 1.54425 0
M  V30 5100 H 501.847 -3.71835 -0.281601 0
M  V30 5101 N 504.032 -0.577932 -1.46621 0
M  V30 5102 C 505.257 -0.0652536 -2.07297 0
M  V30 5103 C 505.682 1.22828 -1.4246 0
M  V30 5104 O 505.04 1.74075 -0.506718 0
M  V30 5105 C 505.088 0.0920589 -3.60482 0
M  V30 5106 O 504.192 1.14972 -3.96049 0
M  V30 5107 H 503.533 -0.06065 -0.661224 0
M  V30 5108 H 506.063 -0.799515 -1.88332 0
M  V30 5109 H 506.073 0.299741 -4.06897 0
M  V30 5110 H 504.748 -0.852612 -4.07067 0
M  V30 5111 H 503.325 0.920879 -3.61351 0
M  V30 5112 N 505.51 1.54411 -0.315457 0
M  V30 5113 C 506.46 2.20772 0.569549 0
M  V30 5114 C 507.444 1.18551 1.08787 0
M  V30 5115 O 508.636 1.44213 1.02624 0
M  V30 5116 C 505.765 2.96293 1.73394 0
M  V30 5117 C 504.851 4.05844 1.2309 0
M  V30 5118 N 505.242 5.03822 0.446927 0
M  V30 5119 C 503.54 4.19648 1.51035 0
M  V30 5120 C 504.241 5.8143 0.17725 0
M  V30 5121 N 503.217 5.38245 0.761118 0
M  V30 5122 H 507.019 2.93877 -0.0368076 0
M  V30 5123 H 504.533 1.61949 -0.120915 0
M  V30 5124 H 506.53 3.42313 2.37965 0
M  V30 5125 H 505.19 2.24708 2.34386 0
M  V30 5126 H 506.201 5.17821 0.0905027 0
M  V30 5127 H 502.878 3.59274 2.1267 0
M  V30 5128 H 504.268 6.70369 -0.45335 0
M  V30 5129 N 506.988 0.0434614 1.5754 0
M  V30 5130 C 507.951 -0.918696 2.09982 0
M  V30 5131 C 508.951 -1.24488 1.01781 0
M  V30 5132 O 510.141 -1.18284 1.27885 0
M  V30 5133 C 507.273 -2.23093 2.57764 0
M  V30 5134 H 508.466 -0.464229 2.96285 0
M  V30 5135 H 506.019 -0.204818 1.54952 0
M  V30 5136 H 506.754 -2.73137 1.74832 0
M  V30 5137 H 506.539 -2.00724 3.36827 0
M  V30 5138 H 508.029 -2.92028 2.98512 0
M  V30 5139 N 508.466 -1.55915 -0.229846 0
M  V30 5140 C 509.691 -1.8296 -0.976743 0
M  V30 5141 C 510.116 -0.622735 -1.77493 0
M  V30 5142 O 509.474 0.428431 -1.76165 0
M  V30 5143 C 509.522 -3.07916 -1.8767 0
M  V30 5144 O 508.626 -2.86028 -2.97088 0
M  V30 5145 H 507.967 -0.603453 -0.277021 0
M  V30 5146 H 510.497 -2.0312 -0.245669 0
M  V30 5147 H 510.507 -3.37802 -2.2881 0
M  V30 5148 H 509.182 -3.95389 -1.28996 0
M  V30 5149 H 507.759 -2.67355 -2.59954 0
M  V30 5150 N 509.944 0.496216 -1.49584 0
M  V30 5151 C 510.907 1.57952 -1.66084 0
M  V30 5152 C 511.907 1.51729 -0.53244 0
M  V30 5153 O 513.097 1.54796 -0.79899 0
M  V30 5154 C 510.229 2.97604 -1.66268 0
M  V30 5155 H 511.422 1.44649 -2.6271 0
M  V30 5156 H 508.975 0.7208 -1.38687 0
M  V30 5157 H 509.71 3.16378 -0.712432 0
M  V30 5158 H 509.495 3.03528 -2.4822 0
M  V30 5159 H 510.985 3.76301 -1.81073 0
M  V30 5160 N 511.423 1.38739 0.74761 0
M  V30 5161 C 512.839 1.20067 1.05148 0
M  V30 5162 C 513.039 0.0534835 2.01429 0
M  V30 5163 O 512.095 -0.59886 2.45296 0
M  V30 5164 C 513.408 2.52957 1.62584 0
M  V30 5165 C 514.956 2.59692 1.74726 0
M  V30 5166 C 515.431 3.92772 2.35573 0
M  V30 5167 N 516.922 3.94343 2.42997 0
M  V30 5168 C 517.657 4.9408 2.90985 0
M  V30 5169 N 517.153 6.04214 3.38965 0
M  V30 5170 N 518.946 4.81466 2.9008 0
M  V30 5171 H 511.097 2.12121 0.108808 0
M  V30 5172 H 513.36 0.941491 0.110899 0
M  V30 5173 H 513.066 3.37389 0.993051 0
M  V30 5174 H 512.94 2.71779 2.61565 0
M  V30 5175 H 515.327 1.75651 2.3713 0
M  V30 5176 H 515.408 2.44731 0.744326 0
M  V30 5177 H 515.052 4.77238 1.738 0
M  V30 5178 H 514.982 4.05046 3.36519 0
M  V30 5179 H 517.473 3.14799 2.0907 0
M  V30 5180 H 517.786 6.76241 3.74056 0
M  V30 5181 H 516.131 6.07825 3.37007 0
M  V30 5182 H 519.322 3.94535 2.51912 0
M  V30 5183 H 519.495 5.59344 3.27166 0
M  V30 5184 N 512.901 -0.976442 1.23707 0
M  V30 5185 C 514.147 -1.72081 1.07312 0
M  V30 5186 C 514.48 -1.90275 -0.388476 0
M  V30 5187 O 513.755 -1.4579 -1.28746 0
M  V30 5188 C 514.038 -3.11675 1.80363 0
M  V30 5189 C 513.891 -3.01027 3.3422 0
M  V30 5190 C 515.21 -4.1117 1.5693 0
M  V30 5191 H 512.329 -0.624583 0.391236 0
M  V30 5192 H 514.971 -1.13649 1.52263 0
M  V30 5193 H 513.121 -3.61559 1.42153 0
M  V30 5194 H 514.793 -2.58637 3.81975 0
M  V30 5195 H 513.036 -2.3744 3.63049 0
M  V30 5196 H 513.707 -3.9988 3.80525 0
M  V30 5197 H 516.183 -3.7011 1.90151 0
M  V30 5198 H 515.059 -5.06928 2.10513 0
M  V30 5199 H 515.32 -4.392 0.505548 0
M  V30 5200 N 514.379 -1.04941 -1.1758 0
M  V30 5201 C 515.289 -0.658826 -2.25159 0
M  V30 5202 C 516.305 0.318941 -1.71052 0
M  V30 5203 O 517.481 0.171669 -2.00667 0
M  V30 5204 C 514.546 -0.0369522 -3.4668 0
M  V30 5205 C 513.607 -1.06484 -4.15884 0
M  V30 5206 C 512.84 -0.472551 -5.31604 0
M  V30 5207 O 513.063 0.718736 -5.65854 0
M  V30 5208 O 511.997 -1.20557 -5.89703 0
M  V30 5209 H 515.823 -1.55533 -2.60851 0
M  V30 5210 H 513.408 -0.820819 -1.24832 0
M  V30 5211 H 515.29 0.308784 -4.20267 0
M  V30 5212 H 513.965 0.833238 -3.12792 0
M  V30 5213 H 512.872 -1.46253 -3.44327 0
M  V30 5214 H 514.205 -1.9061 -4.53794 0
M  V30 5215 N 515.857 1.33968 -0.830081 0
M  V30 5216 C 517.104 1.98063 -0.421566 0
M  V30 5217 C 517.432 1.65787 1.0171 0
M  V30 5218 O 516.687 0.925348 1.72441 0
M  V30 5219 C 516.986 3.52679 -0.57898 0
M  V30 5220 C 516.652 4.04884 -1.98443 0
M  V30 5221 C 515.314 4.18852 -2.36888 0
M  V30 5222 C 517.666 4.32879 -2.90285 0
M  V30 5223 C 514.994 4.58145 -3.66497 0
M  V30 5224 C 517.346 4.7362 -4.19364 0
M  V30 5225 C 516.01 4.85794 -4.57778 0
M  V30 5226 H 515.28 0.724765 -0.154262 0
M  V30 5227 H 517.927 1.59792 -1.05541 0
M  V30 5228 H 516.232 3.91556 0.138219 0
M  V30 5229 H 517.929 4.00261 -0.243317 0
M  V30 5230 H 514.519 3.9448 -1.67581 0
M  V30 5231 H 518.703 4.21619 -2.61823 0
M  V30 5232 H 513.959 4.65762 -3.96075 0
M  V30 5233 H 518.133 4.9424 -4.90612 0
M  V30 5234 H 515.76 5.15998 -5.58256 0
M  V30 5235 N 517.335 0.585699 1.46312 0
M  V30 5236 C 518.267 -0.183687 2.28463 0
M  V30 5237 C 519.28 -0.85264 1.38686 0
M  V30 5238 O 520.469 -0.721701 1.6326 0
M  V30 5239 C 517.569 -1.27977 3.13808 0
M  V30 5240 C 516.742 -0.702164 4.31727 0
M  V30 5241 C 515.801 -1.68633 4.98447 0
M  V30 5242 O 514.827 -1.22121 5.55945 0
M  V30 5243 N 516.029 -3.02047 4.95729 0
M  V30 5244 H 518.794 0.521127 2.95134 0
M  V30 5245 H 516.355 0.423673 1.56258 0
M  V30 5246 H 518.347 -1.9375 3.55307 0
M  V30 5247 H 516.917 -1.8874 2.4919 0
M  V30 5248 H 516.137 0.1331 3.93975 0
M  V30 5249 H 517.425 -0.296101 5.07938 0
M  V30 5250 H 516.823 -3.42457 4.50266 0
M  V30 5251 H 515.38 -3.63301 5.41161 0
M  V30 5252 N 518.813 -1.54241 0.323641 0
M  V30 5253 C 520.224 -1.85975 -0.164405 0
M  V30 5254 C 520.575 -1.24529 -1.51615 0
M  V30 5255 O 519.7 -0.551351 -2.09258 0
M  V30 5256 C 520.295 -3.37424 -0.305091 0
M  V30 5257 C 518.854 -3.69107 -0.737358 0
M  V30 5258 C 518.001 -2.76942 0.140884 0
M  V30 5259 H 520.952 -1.49088 0.543922 0
M  V30 5260 H 520.973 -3.63147 -1.13598 0
M  V30 5261 H 520.485 -3.82116 0.678876 0
M  V30 5262 H 518.586 -3.29947 -1.73107 0
M  V30 5263 H 518.699 -4.76035 -0.541053 0
M  V30 5264 H 517.063 -2.51795 -0.383572 0
M  V30 5265 H 517.846 -3.24461 1.12162 0
M  V30 5266 N 520.291 -0.0518155 -1.57515 0
M  V30 5267 C 521.516 0.634896 -1.97443 0
M  V30 5268 C 521.941 1.63546 -0.929207 0
M  V30 5269 O 521.299 1.80981 0.107484 0
M  V30 5270 C 521.347 1.29765 -3.36442 0
M  V30 5271 O 520.451 2.41333 -3.34413 0
M  V30 5272 H 519.792 0.164994 -0.643174 0
M  V30 5273 H 522.322 -0.120407 -2.04245 0
M  V30 5274 H 522.332 1.64918 -3.73184 0
M  V30 5275 H 521.007 0.564361 -4.12053 0
M  V30 5276 H 519.584 2.08122 -3.09418 0
M  V30 5277 N 521.769 1.56035 0.221574 0
M  V30 5278 C 522.732 1.91584 1.2581 0
M  V30 5279 C 523.732 0.794425 1.39805 0
M  V30 5280 O 524.922 1.06217 1.38071 0
M  V30 5281 C 522.054 2.16663 2.63192 0
M  V30 5282 H 523.247 2.8429 0.954935 0
M  V30 5283 H 520.8 1.49316 0.461988 0
M  V30 5284 H 521.535 1.26508 2.98607 0
M  V30 5285 H 521.32 2.98358 2.5441 0
M  V30 5286 H 522.81 2.45262 3.37988 0
M  V30 5287 N 523.247 -0.488276 1.49845 0
M  V30 5288 C 524.195 -1.60917 1.67954 0
M  V30 5289 C 525.189 -1.6038 0.54539 0
M  V30 5290 O 526.395 -1.64736 0.7254 0
M  V30 5291 H 522.77 -0.533658 0.529824 0
M  V30 5292 H 524.741 -1.428 2.62013 0
M  V30 5293 C 523.49 -2.98975 1.77509 0
M  V30 5294 H 522.813 -3.00099 2.6416 0
M  V30 5295 H 524.253 -3.76906 1.9421 0
M  V30 5296 C 522.712 -3.3282 0.522745 0
M  V30 5297 O 523.242 -4.00208 -0.345866 0
M  V30 5298 N 521.448 -2.8808 0.381882 0
M  V30 5299 H 520.995 -2.33415 1.08974 0
M  V30 5300 H 520.953 -3.11091 -0.454929 0
M  V30 5301 N 524.725 -1.39134 -0.740242 0
M  V30 5302 C 525.688 -1.37217 -1.83587 0
M  V30 5303 C 526.688 -0.270221 -1.58513 0
M  V30 5304 O 527.878 -0.527843 -1.6601 0
M  V30 5305 C 525.01 -1.13959 -3.21288 0
M  V30 5306 H 526.203 -2.34705 -1.86691 0
M  V30 5307 H 523.756 -1.24622 -0.94335 0
M  V30 5308 H 524.491 -0.17131 -3.23847 0
M  V30 5309 H 524.276 -1.93754 -3.40884 0
M  V30 5310 H 525.766 -1.15346 -4.01354 0
M  V30 5311 N 526.204 0.969867 -1.24223 0
M  V30 5312 C 527.134 2.08191 -1.05729 0
M  V30 5313 C 528.115 1.70075 0.0290765 0
M  V30 5314 O 529.3 1.93712 -0.137583 0
M  V30 5315 C 526.43 3.40991 -0.658995 0
M  V30 5316 C 525.384 3.93054 -1.69389 0
M  V30 5317 C 524.71 5.22171 -1.15072 0
M  V30 5318 C 526.01 4.21137 -3.08935 0
M  V30 5319 H 527.704 2.23921 -1.98746 0
M  V30 5320 H 525.25 1.07602 -0.956967 0
M  V30 5321 H 527.203 4.18221 -0.51662 0
M  V30 5322 H 525.927 3.25155 0.30686 0
M  V30 5323 H 524.586 3.17977 -1.82444 0
M  V30 5324 H 524.234 5.02694 -0.175539 0
M  V30 5325 H 523.934 5.57973 -1.84229 0
M  V30 5326 H 525.458 6.02013 -1.02042 0
M  V30 5327 H 526.872 4.8908 -2.99121 0
M  V30 5328 H 525.269 4.68163 -3.75425 0
M  V30 5329 H 526.339 3.27996 -3.57137 0
M  V30 5330 N 527.682 1.05563 1.17022 0
M  V30 5331 C 528.928 0.769074 1.87652 0
M  V30 5332 C 529.261 -0.702326 1.81055 0
M  V30 5333 O 528.536 -1.5139 1.22112 0
M  V30 5334 C 528.819 1.25492 3.37526 0
M  V30 5335 C 528.672 2.78953 3.52853 0
M  V30 5336 C 529.991 0.856919 4.31677 0
M  V30 5337 H 527.11 0.280854 0.681388 0
M  V30 5338 H 529.752 1.31027 1.37593 0
M  V30 5339 H 527.902 0.794516 3.80289 0
M  V30 5340 H 529.574 3.33146 3.19079 0
M  V30 5341 H 527.817 3.18046 2.95007 0
M  V30 5342 H 528.488 3.08011 4.58076 0
M  V30 5343 H 530.964 1.25334 3.96775 0
M  V30 5344 H 529.84 1.22443 5.35069 0
M  V30 5345 H 530.101 -0.238787 4.41455 0
M  V30 5346 N 529.16 -1.33526 0.837174 0
M  V30 5347 C 530.123 -2.27551 0.274421 0
M  V30 5348 C 531.123 -1.50886 -0.555881 0
M  V30 5349 O 532.313 -1.70227 -0.369918 0
M  V30 5350 C 529.445 -3.35332 -0.613605 0
M  V30 5351 H 530.638 -2.78837 1.10408 0
M  V30 5352 H 528.191 -1.439 0.610126 0
M  V30 5353 H 528.926 -2.89285 -1.46577 0
M  V30 5354 H 528.711 -3.92095 -0.0195341 0
M  V30 5355 H 530.201 -4.05433 -1.00068 0
M  V30 5356 N 530.638 -0.59345 -1.46 0
M  V30 5357 C 531.886 -0.082988 -2.0193 0
M  V30 5358 C 532.207 1.28569 -1.46612 0
M  V30 5359 O 531.477 1.84629 -0.654909 0
M  V30 5360 H 530.057 -0.0276882 -0.746487 0
M  V30 5361 H 532.719 -0.771657 -1.78973 0
M  V30 5362 H 531.815 -0.022079 -3.12092 0
M  V30 5363 N 532.116 1.54067 -0.331816 0
M  V30 5364 C 533.365 1.99895 0.269209 0
M  V30 5365 C 533.678 1.22371 1.52593 0
M  V30 5366 O 534.884 1.58618 2.20347 0
M  V30 5367 C 533.34 3.55972 0.530244 0
M  V30 5368 C 532.948 4.4234 -0.709901 0
M  V30 5369 C 534.692 4.10247 1.09077 0
M  V30 5370 C 532.599 5.89905 -0.420312 0
M  V30 5371 H 531.529 0.746741 0.104371 0
M  V30 5372 H 534.18 1.78014 -0.445324 0
M  V30 5373 H 532.562 3.73873 1.30518 0
M  V30 5374 H 533.736 4.36215 -1.48504 0
M  V30 5375 H 532.051 3.98997 -1.19123 0
M  V30 5376 H 534.648 5.18095 1.32219 0
M  V30 5377 H 534.991 3.62739 2.0427 0
M  V30 5378 H 535.524 3.96011 0.376824 0
M  V30 5379 H 532.263 6.41623 -1.34164 0
M  V30 5380 H 531.783 5.98962 0.316962 0
M  V30 5381 H 533.462 6.46991 -0.0331956 0
M  V30 5382 N 533.594 0.0601682 1.57485 0
M  V30 5383 C 534.84 -0.612501 1.93329 0
M  V30 5384 C 535.173 -1.6996 0.939526 0
M  V30 5385 O 534.448 -1.94472 -0.0330957 0
M  V30 5386 C 534.731 -1.20025 3.39508 0
M  V30 5387 C 534.584 -0.12059 4.49638 0
M  V30 5388 C 535.903 -2.10923 3.86264 0
M  V30 5389 H 533.022 -0.221185 0.703027 0
M  V30 5390 H 535.664 0.123768 1.89596 0
M  V30 5391 H 533.814 -1.82774 3.42821 0
M  V30 5392 H 535.486 0.51185 4.58452 0
M  V30 5393 H 533.729 0.550251 4.30296 0
M  V30 5394 H 534.4 -0.572019 5.49028 0
M  V30 5395 H 536.876 -1.58124 3.84884 0
M  V30 5396 H 535.752 -2.48987 4.8918 0
M  V30 5397 H 536.013 -3.01292 3.23536 0
M  V30 5398 N 535.072 -1.5615 -0.213296 0
M  V30 5399 C 535.982 -1.96265 -1.28519 0
M  V30 5400 C 536.998 -0.86765 -1.50824 0
M  V30 5401 O 538.174 -1.17191 -1.63793 0
M  V30 5402 C 535.239 -2.27836 -2.61327 0
M  V30 5403 C 534.3 -3.50949 -2.47252 0
M  V30 5404 C 533.533 -3.81004 -3.73727 0
M  V30 5405 O 533.756 -3.12612 -4.77106 0
M  V30 5406 O 532.69 -4.74477 -3.70344 0
M  V30 5407 H 536.516 -2.87631 -0.974795 0
M  V30 5408 H 534.101 -1.43467 -0.416832 0
M  V30 5409 H 535.983 -2.49299 -3.39747 0
M  V30 5410 H 534.658 -1.39643 -2.9203 0
M  V30 5411 H 533.565 -3.34754 -1.67004 0
M  V30 5412 H 534.898 -4.39551 -2.21486 0
M  V30 5413 N 536.55 0.480323 -1.50102 0
M  V30 5414 C 537.48 1.58769 -1.71215 0
M  V30 5415 C 538.461 1.60583 -0.560997 0
M  V30 5416 O 539.646 1.76996 -0.799127 0
M  V30 5417 C 536.776 2.97148 -1.79778 0
M  V30 5418 C 535.73 3.10201 -2.94888 0
M  V30 5419 C 535.056 4.50137 -2.88584 0
M  V30 5420 C 536.356 2.88283 -4.35534 0
M  V30 5421 H 538.05 1.41354 -2.6393 0
M  V30 5422 H 535.596 0.678591 -1.27008 0
M  V30 5423 H 537.549 3.74536 -1.93133 0
M  V30 5424 H 536.273 3.15699 -0.836772 0
M  V30 5425 H 534.932 2.35244 -2.81169 0
M  V30 5426 H 534.58 4.65593 -1.90349 0
M  V30 5427 H 534.28 4.59808 -3.65856 0
M  V30 5428 H 535.804 5.29558 -3.03976 0
M  V30 5429 H 537.218 3.55427 -4.49827 0
M  V30 5430 H 535.615 3.09408 -5.14186 0
M  V30 5431 H 536.685 1.84219 -4.48544 0
M  V30 5432 N 538.028 1.39524 0.732853 0
M  V30 5433 C 539.274 1.37068 1.49467 0
M  V30 5434 C 539.607 -0.0327166 1.94172 0
M  V30 5435 O 538.882 -0.998071 1.66939 0
M  V30 5436 C 539.165 2.34494 2.73285 0
M  V30 5437 C 539.018 3.83784 2.34585 0
M  V30 5438 C 540.337 2.29717 3.75391 0
M  V30 5439 H 537.456 0.499206 0.542183 0
M  V30 5440 H 540.098 1.70532 0.837783 0
M  V30 5441 H 538.248 2.06087 3.29333 0
M  V30 5442 H 539.92 4.22949 1.84151 0
M  V30 5443 H 538.163 4.00455 1.66787 0
M  V30 5444 H 538.834 4.47444 3.23262 0
M  V30 5445 H 541.31 2.54839 3.28932 0
M  V30 5446 H 540.186 2.99962 4.59689 0
M  V30 5447 H 540.447 1.30291 4.22465 0
M  V30 5448 N 539.506 -0.963266 1.24736 0
M  V30 5449 C 540.734 -1.74166 1.11686 0
M  V30 5450 C 541.149 -1.8589 -0.330187 0
M  V30 5451 O 540.506 -1.35042 -1.2276 0
M  V30 5452 C 540.557 -3.15989 1.75595 0
M  V30 5453 O 540.278 -3.04847 3.14642 0
M  V30 5454 C 541.779 -4.10145 1.68213 0
M  V30 5455 H 538.999 -0.546031 0.389989 0
M  V30 5456 H 541.543 -1.20907 1.64929 0
M  V30 5457 H 539.698 -3.66219 1.26343 0
M  V30 5458 H 540.112 -3.9425 3.4593 0
M  V30 5459 H 541.586 -5.07299 2.17604 0
M  V30 5460 H 542.063 -4.3445 0.644208 0
M  V30 5461 H 542.669 -3.65827 2.16912 0
M  V30 5462 N 540.985 -1.06182 -1.16461 0
M  V30 5463 C 541.948 -0.675723 -2.19013 0
M  V30 5464 C 542.948 0.277963 -1.58379 0
M  V30 5465 O 544.138 0.0604962 -1.74095 0
M  V30 5466 C 541.27 0.00591459 -3.40899 0
M  V30 5467 H 542.463 -1.58353 -2.54685 0
M  V30 5468 H 540.016 -0.856908 -1.30716 0
M  V30 5469 H 540.751 0.92652 -3.10783 0
M  V30 5470 H 540.536 -0.67984 -3.86161 0
M  V30 5471 H 542.026 0.26181 -4.16778 0
M  V30 5472 N 542.463 1.3308 -0.844243 0
M  V30 5473 C 543.691 2.01808 -0.456203 0
M  V30 5474 C 544.106 1.63498 0.944131 0
M  V30 5475 O 543.463 0.85102 1.61443 0
M  V30 5476 C 543.514 3.56922 -0.573513 0
M  V30 5477 O 543.235 3.93851 -1.91868 0
M  V30 5478 C 544.736 4.42922 -0.183125 0
M  V30 5479 H 541.956 0.646273 -0.180477 0
M  V30 5480 H 544.5 1.69891 -1.1383 0
M  V30 5481 H 542.655 3.87352 0.0607367 0
M  V30 5482 H 543.069 4.88564 -1.90802 0
M  V30 5483 H 544.543 5.51093 -0.316241 0
M  V30 5484 H 545.02 4.30386 0.875477 0
M  V30 5485 H 545.626 4.1786 -0.792027 0
M  V30 5486 N 543.941 0.601185 1.45683 0
M  V30 5487 C 544.871 -0.108824 2.33246 0
M  V30 5488 C 545.852 -0.865223 1.46451 0
M  V30 5489 O 547.037 -0.83704 1.75235 0
M  V30 5490 C 544.167 -1.11101 3.2905 0
M  V30 5491 C 543.121 -0.468244 4.25431 0
M  V30 5492 C 542.447 -1.57822 5.10878 0
M  V30 5493 C 543.747 0.606469 5.18767 0
M  V30 5494 H 545.441 0.622306 2.92861 0
M  V30 5495 H 542.987 0.300714 1.40825 0
M  V30 5496 H 544.94 -1.61622 3.89174 0
M  V30 5497 H 543.664 -1.87265 2.67581 0
M  V30 5498 H 542.323 0.0160484 3.66596 0
M  V30 5499 H 541.971 -2.32998 4.45781 0
M  V30 5500 H 541.671 -1.15369 5.76163 0
M  V30 5501 H 543.195 -2.08583 5.73869 0
M  V30 5502 H 544.609 0.185589 5.73 0
M  V30 5503 H 543.006 0.952381 5.92494 0
M  V30 5504 H 544.076 1.48559 4.61582 0
M  V30 5505 N 545.419 -1.53889 0.339982 0
M  V30 5506 C 546.644 -2.05741 -0.261798 0
M  V30 5507 C 547.069 -1.21354 -1.43718 0
M  V30 5508 O 546.427 -0.22645 -1.7988 0
M  V30 5509 C 546.475 -3.54542 -0.658228 0
M  V30 5510 O 545.579 -3.7302 -1.75869 0
M  V30 5511 H 544.92 -0.662529 -0.0441672 0
M  V30 5512 H 547.45 -1.98568 0.493161 0
M  V30 5513 H 547.46 -3.9711 -0.936368 0
M  V30 5514 H 546.135 -4.15412 0.201358 0
M  V30 5515 H 544.712 -3.42355 -1.47809 0
M  V30 5516 N 546.897 -0.0685191 -1.57451 0
M  V30 5517 C 548.174 0.642167 -1.84758 0
M  V30 5518 C 548.554 1.87991 -0.960344 0
M  V30 5519 O 547.902 2.28485 -0.0257894 0
M  V30 5520 C 548.112 0.982946 -3.34872 0
M  V30 5521 C 549.46 1.35784 -4.02303 0
M  V30 5522 O 550.484 1.07477 -3.39598 0
M  V30 5523 O 549.343 1.88681 -5.12895 0
M  V30 5524 H 546.437 0.318625 -0.763156 0
M  V30 5525 H 548.983 -0.0992015 -1.6941 0
M  V30 5526 H 547.755 0.10372 -3.91163 0
M  V30 5527 H 547.378 1.78119 -3.55471 0
M  V30 5528 N 548.375 1.56261 0.205012 0
M  V30 5529 C 549.305 1.96779 1.257 0
M  V30 5530 C 550.286 0.838309 1.48008 0
M  V30 5531 O 551.471 1.10189 1.59913 0
M  V30 5532 C 548.601 2.29876 2.60335 0
M  V30 5533 C 547.555 3.45469 2.52656 0
M  V30 5534 C 546.881 3.64215 3.91473 0
M  V30 5535 C 548.181 4.79954 2.06014 0
M  V30 5536 H 549.875 2.84904 0.920338 0
M  V30 5537 H 547.421 1.37072 0.441277 0
M  V30 5538 H 549.374 2.56814 3.34102 0
M  V30 5539 H 548.098 1.38622 2.95722 0
M  V30 5540 H 546.757 3.18605 1.81345 0
M  V30 5541 H 546.405 2.70309 4.24196 0
M  V30 5542 H 546.105 4.41973 3.87213 0
M  V30 5543 H 547.629 3.93519 4.66878 0
M  V30 5544 H 549.043 5.05989 2.69533 0
M  V30 5545 H 547.44 5.61111 2.12777 0
M  V30 5546 H 548.51 4.74201 1.01297 0
M  V30 5547 N 549.853 -0.472356 1.50355 0
M  V30 5548 C 550.763 -1.59637 1.7191 0
M  V30 5549 C 551.779 -1.63247 0.602195 0
M  V30 5550 O 552.955 -1.81139 0.880369 0
M  V30 5551 C 550.02 -2.9586 1.80742 0
M  V30 5552 C 549.081 -3.02649 3.04471 0
M  V30 5553 C 548.314 -4.32374 3.12872 0
M  V30 5554 O 548.537 -5.22807 2.28099 0
M  V30 5555 O 547.471 -4.44728 4.05587 0
M  V30 5556 H 551.297 -1.44373 2.67189 0
M  V30 5557 H 548.882 -0.651717 1.34436 0
M  V30 5558 H 550.764 -3.7677 1.88739 0
M  V30 5559 H 549.439 -3.11325 0.88647 0
M  V30 5560 H 548.346 -2.20821 3.01975 0
M  V30 5561 H 549.679 -2.92119 3.9614 0
M  V30 5562 N 551.331 -1.39911 -0.725443 0
M  V30 5563 C 552.559 -1.40949 -1.51463 0
M  V30 5564 C 552.974 -0.0065242 -1.88799 0
M  V30 5565 O 552.331 0.967163 -1.54765 0
M  V30 5566 C 552.382 -2.29119 -2.79619 0
M  V30 5567 O 552.103 -3.63952 -2.43866 0
M  V30 5568 C 553.604 -2.38642 -3.73584 0
M  V30 5569 H 550.824 -0.481091 -0.467752 0
M  V30 5570 H 553.368 -1.83843 -0.895651 0
M  V30 5571 H 551.523 -1.89612 -3.37826 0
M  V30 5572 H 551.937 -4.10677 -3.26258 0
M  V30 5573 H 553.411 -3.04563 -4.60375 0
M  V30 5574 H 553.888 -1.40846 -4.16004 0
M  V30 5575 H 554.494 -2.78659 -3.21293 0
M  V30 5576 N 552.809 0.956637 -1.25245 0
M  V30 5577 C 553.759 2.03841 -1.02141 0
M  V30 5578 C 554.743 1.60848 0.0410058 0
M  V30 5579 O 555.935 1.76142 -0.174084 0
M  V30 5580 C 553.064 3.37282 -0.639963 0
M  V30 5581 C 552.15 3.86805 -1.73903 0
M  V30 5582 N 552.541 4.09143 -2.97381 0
M  V30 5583 C 550.839 4.15574 -1.61909 0
M  V30 5584 C 551.54 4.49923 -3.68707 0
M  V30 5585 N 550.516 4.55737 -2.96318 0
M  V30 5586 H 554.318 2.19102 -1.95886 0
M  V30 5587 H 551.832 1.1413 -1.15534 0
M  V30 5588 H 553.829 4.14403 -0.455643 0
M  V30 5589 H 552.489 3.23401 0.29018 0
M  V30 5590 H 553.5 3.96275 -3.33447 0
M  V30 5591 H 550.177 4.10566 -0.757764 0
M  V30 5592 H 551.567 4.75526 -4.74684 0
M  V30 5593 N 554.287 1.06798 1.15896 0
M  V30 5594 C 555.217 0.704677 2.22613 0
M  V30 5595 C 556.198 -0.305252 1.67339 0
M  V30 5596 O 557.383 -0.179247 1.93371 0
M  V30 5597 C 554.513 0.0957325 3.47168 0
M  V30 5598 C 553.467 1.0322 4.15367 0
M  V30 5599 C 552.793 0.286293 5.33933 0
M  V30 5600 C 554.093 2.36341 4.65768 0
M  V30 5601 H 555.787 1.59688 2.53259 0
M  V30 5602 H 553.333 0.769257 1.21731 0
M  V30 5603 H 555.286 -0.170333 4.21056 0
M  V30 5604 H 554.01 -0.831516 3.15838 0
M  V30 5605 H 552.669 1.28309 3.43413 0
M  V30 5606 H 552.317 -0.644237 4.98857 0
M  V30 5607 H 552.017 0.910436 5.80504 0
M  V30 5608 H 553.541 0.0278938 6.10594 0
M  V30 5609 H 554.955 2.1561 5.31211 0
M  V30 5610 H 553.352 2.94299 5.2298 0
M  V30 5611 H 554.422 2.99047 3.81705 0
M  V30 5612 N 555.766 -1.3263 0.851289 0
M  V30 5613 C 556.714 -2.30882 0.282202 0
M  V30 5614 C 557.708 -1.58697 -0.592589 0
M  V30 5615 O 558.914 -1.73461 -0.480768 0
M  V30 5616 H 555.289 -0.748492 0.0725487 0
M  V30 5617 H 557.26 -2.76374 1.12516 0
M  V30 5618 C 556.009 -3.43828 -0.517449 0
M  V30 5619 H 555.332 -3.99532 0.146392 0
M  V30 5620 H 556.772 -4.1474 -0.88128 0
M  V30 5621 C 555.231 -2.90786 -1.70133 0
M  V30 5622 O 555.761 -2.88 -2.80034 0
M  V30 5623 N 553.967 -2.4723 -1.52728 0
M  V30 5624 H 553.514 -2.49695 -0.633257 0
M  V30 5625 H 553.472 -2.12094 -2.32085 0
M  V30 5626 N 557.244 -0.608902 -1.45362 0
M  V30 5627 C 558.207 0.0992563 -2.28985 0
M  V30 5628 C 559.207 0.793841 -1.39838 0
M  V30 5629 O 560.397 0.641804 -1.61946 0
M  V30 5630 C 557.529 1.15073 -3.20891 0
M  V30 5631 H 558.722 -0.635964 -2.93079 0
M  V30 5632 H 556.275 -0.368007 -1.51906 0
M  V30 5633 H 557.01 1.91667 -2.616 0
M  V30 5634 H 556.795 0.656867 -3.86559 0
M  V30 5635 H 558.285 1.64665 -3.83765 0
M  V30 5636 N 558.722 1.53707 -0.348139 0
M  V30 5637 C 559.652 2.28111 0.498766 0
M  V30 5638 C 560.633 1.29851 1.09876 0
M  V30 5639 O 561.818 1.587 1.11928 0
M  V30 5640 C 558.948 3.05735 1.64753 0
M  V30 5641 C 557.902 4.11537 1.17565 0
M  V30 5642 C 557.228 4.77142 2.4133 0
M  V30 5643 C 558.528 5.21587 0.272844 0
M  V30 5644 H 560.222 2.99152 -0.121934 0
M  V30 5645 H 557.768 1.43875 -0.0600842 0
M  V30 5646 H 559.721 3.56526 2.24649 0
M  V30 5647 H 558.445 2.32354 2.2952 0
M  V30 5648 H 557.104 3.61665 0.599483 0
M  V30 5649 H 556.752 4.0035 3.04514 0
M  V30 5650 H 556.452 5.48626 2.10436 0
M  V30 5651 H 557.976 5.30719 3.01943 0
M  V30 5652 H 559.39 5.67986 0.778779 0
M  V30 5653 H 557.787 6.00074 0.0555849 0
M  V30 5654 H 558.857 4.79969 -0.689785 0
M  V30 5655 N 560.2 0.0768682 1.57412 0
M  V30 5656 C 561.477 -0.632359 1.85096 0
M  V30 5657 C 561.857 -1.87479 0.9703 0
M  V30 5658 O 561.205 -2.28469 0.0379062 0
M  V30 5659 C 561.415 -0.965174 3.35388 0
M  V30 5660 C 562.763 -1.33648 4.03018 0
M  V30 5661 O 563.787 -1.05675 3.40164 0
M  V30 5662 O 562.646 -1.85959 5.13889 0
M  V30 5663 H 559.74 -0.314574 0.764835 0
M  V30 5664 H 562.286 0.108184 1.69355 0
M  V30 5665 H 561.058 -0.0829745 3.91212 0
M  V30 5666 H 560.681 -1.76231 3.5641 0
M  V30 5667 N 561.678 -1.56367 -0.196722 0
M  V30 5668 C 562.641 -1.93561 -1.22746 0
M  V30 5669 C 563.641 -0.816566 -1.38524 0
M  V30 5670 O 564.831 -1.084 -1.36363 0
M  V30 5671 C 561.963 -2.20823 -2.59712 0
M  V30 5672 H 563.156 -2.85774 -0.909586 0
M  V30 5673 H 560.709 -1.50032 -0.438174 0
M  V30 5674 H 561.444 -1.31243 -2.96557 0
M  V30 5675 H 561.229 -3.02368 -2.49632 0
M  V30 5676 H 562.719 -2.50608 -3.34044 0
M  V30 5677 N 563.156 0.464375 -1.50603 0
M  V30 5678 C 564.103 1.56152 -1.69956 0
M  V30 5679 C 565.073 1.57046 -0.54091 0
M  V30 5680 O 566.258 1.74473 -0.772258 0
M  V30 5681 C 563.398 2.94079 -1.80586 0
M  V30 5682 C 562.511 3.02923 -3.07996 0
M  V30 5683 C 561.646 4.31806 -3.09382 0
M  V30 5684 C 560.685 4.34417 -4.31218 0
M  V30 5685 N 559.822 5.54782 -4.30304 0
M  V30 5686 H 564.662 1.38955 -2.6362 0
M  V30 5687 H 562.199 0.675482 -1.30674 0
M  V30 5688 H 564.157 3.74073 -1.8473 0
M  V30 5689 H 562.787 3.09896 -0.903556 0
M  V30 5690 H 561.839 2.1576 -3.13292 0
M  V30 5691 H 563.151 3.00712 -3.97962 0
M  V30 5692 H 562.305 5.20153 -3.12292 0
M  V30 5693 H 561.044 4.36636 -2.17257 0
M  V30 5694 H 560.049 3.44467 -4.28512 0
M  V30 5695 H 561.274 4.31273 -5.24576 0
M  V30 5696 H 559.22 5.60384 -3.41037 0
M  V30 5697 H 559.137 5.54339 -5.14047 0
M  V30 5698 H 560.405 6.45235 -4.3737 0
M  V30 5699 N 564.634 1.40294 0.718013 0
M  V30 5700 C 565.88 1.38645 1.48005 0
M  V30 5701 C 566.213 -0.0121202 1.94196 0
M  V30 5702 O 565.488 -0.980309 1.67989 0
M  V30 5703 C 565.771 2.37379 2.70782 0
M  V30 5704 C 565.624 3.8625 2.30501 0
M  V30 5705 C 566.943 2.33685 3.72933 0
M  V30 5706 H 564.062 0.504928 0.536858 0
M  V30 5707 H 566.704 1.71411 0.819649 0
M  V30 5708 H 564.854 2.09568 3.27129 0
M  V30 5709 H 566.526 4.24879 1.79655 0
M  V30 5710 H 564.769 4.02202 1.6253 0
M  V30 5711 H 565.44 4.50847 3.18498 0
M  V30 5712 H 567.916 2.58314 3.2621 0
M  V30 5713 H 566.792 3.0482 4.56482 0
M  V30 5714 H 567.053 1.34765 4.21059 0
M  V30 5715 N 566.112 -0.949982 1.2575 0
M  V30 5716 C 567.36 -1.6918 1.10555 0
M  V30 5717 C 567.681 -1.91773 -0.353298 0
M  V30 5718 O 566.951 -1.50814 -1.25027 0
M  V30 5719 H 565.531 -0.626952 0.406129 0
M  V30 5720 H 568.193 -1.1419 1.57945 0
M  V30 5721 H 567.289 -2.66915 1.61749 0
M  V30 5722 N 567.59 -1.07411 -1.15328 0
M  V30 5723 C 568.867 -0.710732 -1.82231 0
M  V30 5724 C 569.247 0.806732 -1.95077 0
M  V30 5725 O 568.595 1.72139 -1.50268 0
M  V30 5726 C 568.805 -1.42586 -3.18544 0
M  V30 5727 C 570.153 -1.57836 -3.94174 0
M  V30 5728 O 571.177 -1.38669 -3.281 0
M  V30 5729 O 570.036 -1.8938 -5.12638 0
M  V30 5730 H 567.13 -0.25297 -0.78736 0
M  V30 5731 H 569.676 -1.17508 -1.22434 0
M  V30 5732 H 568.448 -2.46008 -3.04296 0
M  V30 5733 H 568.071 -0.952332 -3.86026 0
M  V30 5734 N 569.068 1.32177 -0.85831 0
M  V30 5735 C 570.316 1.96735 -0.462568 0
M  V30 5736 C 570.637 1.6824 0.985911 0
M  V30 5737 O 569.907 0.991564 1.68952 0
M  V30 5738 H 568.487 0.727849 -0.168064 0
M  V30 5739 H 571.149 1.61195 -1.09554 0
M  V30 5740 H 570.245 3.06068 -0.610647 0
M  V30 5741 N 570.547 0.616602 1.45037 0
M  V30 5742 C 571.824 0.0469086 1.95544 0
M  V30 5743 C 572.204 -1.42345 1.55888 0
M  V30 5744 O 571.552 -2.13055 0.825824 0
M  V30 5745 C 571.762 0.254489 3.48071 0
M  V30 5746 C 573.11 0.140025 4.24369 0
M  V30 5747 O 574.134 0.185084 3.55719 0
M  V30 5748 O 572.993 0.0327034 5.4649 0
M  V30 5749 H 570.087 -0.0306051 0.826433 0
M  V30 5750 H 572.633 0.687293 1.55159 0
M  V30 5751 H 571.405 1.27532 3.69934 0
M  V30 5752 H 571.028 -0.42073 3.95368 0
M  V30 5753 N 572.025 -1.5352 0.356285 0
M  V30 5754 C 573.253 -2.05534 -0.237328 0
M  V30 5755 C 573.668 -1.23043 -1.43199 0
M  V30 5756 O 573.025 -0.268821 -1.80509 0
M  V30 5757 C 573.076 -3.55791 -0.639933 0
M  V30 5758 O 572.797 -4.35154 0.507233 0
M  V30 5759 C 574.298 -4.24027 -1.29292 0
M  V30 5760 H 571.518 -0.669585 -0.0435572 0
M  V30 5761 H 574.062 -1.97988 0.511963 0
M  V30 5762 H 572.217 -3.63518 -1.33915 0
M  V30 5763 H 572.631 -5.24178 0.18375 0
M  V30 5764 H 574.105 -5.30509 -1.52527 0
M  V30 5765 H 574.582 -3.77166 -2.25039 0
M  V30 5766 H 575.188 -4.20527 -0.63539 0
M  V30 5767 N 573.503 -0.0852151 -1.57369 0
M  V30 5768 C 574.751 0.579658 -1.93609 0
M  V30 5769 C 575.072 1.69332 -0.967043 0
M  V30 5770 O 574.342 1.95892 -0.0174215 0
M  V30 5771 H 572.922 0.217113 -0.714752 0
M  V30 5772 H 575.584 -0.146226 -1.94351 0
M  V30 5773 H 574.68 0.996276 -2.95771 0
M  V30 5774 N 574.981 1.5647 0.188427 0
M  V30 5775 C 576.206 1.85486 0.927891 0
M  V30 5776 C 576.631 0.669575 1.75779 0
M  V30 5777 O 575.989 -0.381573 1.77239 0
M  V30 5778 C 576.037 3.12784 1.7944 0
M  V30 5779 O 575.141 2.93805 2.894 0
M  V30 5780 H 574.482 0.610585 0.260925 0
M  V30 5781 H 577.012 2.037 0.191729 0
M  V30 5782 H 577.022 3.43749 2.19774 0
M  V30 5783 H 575.697 3.98671 1.18468 0
M  V30 5784 H 574.274 2.74153 2.52774 0
M  V30 5785 N 576.459 -0.456382 1.50847 0
M  V30 5786 C 577.687 -1.23026 1.66349 0
M  V30 5787 C 578.102 -1.85473 0.352868 0
M  V30 5788 O 577.459 -1.69885 -0.666739 0
M  V30 5789 C 577.51 -2.32827 2.76539 0
M  V30 5790 O 577.231 -1.72938 4.02522 0
M  V30 5791 C 578.732 -3.23448 3.03144 0
M  V30 5792 H 575.952 -0.371527 0.558756 0
M  V30 5793 H 578.496 -0.543082 1.97157 0
M  V30 5794 H 576.651 -2.97294 2.48384 0
M  V30 5795 H 577.065 -2.45357 4.63573 0
M  V30 5796 H 578.539 -3.96669 3.83872 0
M  V30 5797 H 579.016 -3.83094 2.14793 0
M  V30 5798 H 579.622 -2.64702 3.32886 0
M  V30 5799 N 577.937 -1.40673 -0.710563 0
M  V30 5800 C 579.184 -1.39222 -1.47049 0
M  V30 5801 C 579.512 0.0037691 -1.945 0
M  V30 5802 O 578.767 0.989224 -1.68857 0
M  V30 5803 C 579.066 -2.33253 -2.70791 0
M  V30 5804 C 578.732 -3.80406 -2.42079 0
M  V30 5805 C 577.394 -4.20496 -2.33959 0
M  V30 5806 C 579.746 -4.73375 -2.18094 0
M  V30 5807 C 577.074 -5.51584 -1.99929 0
M  V30 5808 C 579.426 -6.04768 -1.85576 0
M  V30 5809 C 578.09 -6.43895 -1.75941 0
M  V30 5810 H 577.36 -0.509449 -0.538092 0
M  V30 5811 H 580.007 -1.73363 -0.81348 0
M  V30 5812 H 578.312 -1.92314 -3.41354 0
M  V30 5813 H 580.009 -2.29412 -3.28894 0
M  V30 5814 H 576.599 -3.48645 -2.49288 0
M  V30 5815 H 580.783 -4.43217 -2.23321 0
M  V30 5816 H 576.039 -5.80797 -1.91011 0
M  V30 5817 H 580.213 -6.76318 -1.66033 0
M  V30 5818 H 577.84 -7.45387 -1.4934 0
M  V30 5819 N 579.415 0.9433 -1.26252 0
M  V30 5820 C 580.378 2.02326 -1.07689 0
M  V30 5821 C 581.378 1.60779 -0.0259174 0
M  V30 5822 O 582.568 1.72108 -0.269134 0
M  V30 5823 C 579.7 3.34886 -0.63752 0
M  V30 5824 H 580.893 2.20225 -2.0357 0
M  V30 5825 H 578.446 1.12197 -1.08819 0
M  V30 5826 H 579.181 3.22684 0.323377 0
M  V30 5827 H 578.966 3.66393 -1.39637 0
M  V30 5828 H 580.456 4.14231 -0.529418 0
M  V30 5829 N 580.893 1.08022 1.14757 0
M  V30 5830 C 581.856 0.71048 2.1791 0
M  V30 5831 C 582.856 -0.252731 1.58801 0
M  V30 5832 O 584.046 -0.0327915 1.74169 0
M  V30 5833 C 581.178 0.0483203 3.40866 0
M  V30 5834 H 582.371 1.62384 2.52134 0
M  V30 5835 H 579.924 0.877595 1.29337 0
M  V30 5836 H 580.659 -0.876959 3.12218 0
M  V30 5837 H 580.444 0.741189 3.85031 0
M  V30 5838 H 581.934 -0.195471 4.17142 0
M  V30 5839 N 582.371 -1.3172 0.865308 0
M  V30 5840 C 583.334 -2.26918 0.322627 0
M  V30 5841 C 584.334 -1.52031 -0.523751 0
M  V30 5842 O 585.524 -1.70973 -0.333727 0
M  V30 5843 C 582.656 -3.36558 -0.542338 0
M  V30 5844 H 583.849 -2.76432 1.16298 0
M  V30 5845 H 581.402 -1.42573 0.640512 0
M  V30 5846 H 582.137 -2.92329 -1.40407 0
M  V30 5847 H 581.922 -3.92048 0.0636395 0
M  V30 5848 H 583.412 -4.07465 -0.91446 0
M  V30 5849 N 583.85 -0.624285 -1.44708 0
M  V30 5850 C 584.812 0.0749638 -2.29077 0
M  V30 5851 C 585.812 0.778965 -1.40673 0
M  V30 5852 O 587.003 0.624591 -1.62618 0
M  V30 5853 C 584.135 1.11663 -3.22094 0
M  V30 5854 H 585.327 -0.667013 -2.92388 0
M  V30 5855 H 582.88 -0.384098 -1.51507 0
M  V30 5856 H 583.615 1.88881 -2.63618 0
M  V30 5857 H 583.401 0.61583 -3.87234 0
M  V30 5858 H 584.891 1.60585 -3.8549 0
M  V30 5859 N 585.328 1.53329 -0.364422 0
M  V30 5860 C 586.744 1.59594 -0.0133165 0
M  V30 5861 C 586.944 1.37959 1.46865 0
M  V30 5862 O 586 1.18418 2.2301 0
M  V30 5863 C 587.313 2.97032 -0.468213 0
M  V30 5864 C 588.861 3.10138 -0.422334 0
M  V30 5865 C 589.336 4.49986 -0.853024 0
M  V30 5866 N 590.827 4.56098 -0.808037 0
M  V30 5867 C 591.562 5.62495 -1.11299 0
M  V30 5868 N 591.058 6.7665 -1.48717 0
M  V30 5869 N 592.851 5.52473 -1.03586 0
M  V30 5870 H 585.002 1.65644 -1.32951 0
M  V30 5871 H 587.265 0.77684 -0.543345 0
M  V30 5872 H 586.971 3.18 -1.5023 0
M  V30 5873 H 586.845 3.76918 0.145775 0
M  V30 5874 H 589.232 2.88881 0.602622 0
M  V30 5875 H 589.313 2.32263 -1.0718 0
M  V30 5876 H 588.957 4.7198 -1.87609 0
M  V30 5877 H 588.887 5.26289 -0.180819 0
M  V30 5878 H 591.378 3.74131 -0.532361 0
M  V30 5879 H 591.691 7.53776 -1.70415 0
M  V30 5880 H 590.036 6.78044 -1.52581 0
M  V30 5881 H 593.227 4.6217 -0.742736 0
M  V30 5882 H 593.4 6.35295 -1.27686 0
M  V30 5883 N 586.806 0.0935595 1.57322 0
M  V30 5884 C 587.716 -0.880192 2.17462 0
M  V30 5885 C 588.732 -1.31135 1.14366 0
M  V30 5886 O 589.908 -1.37958 1.46729 0
M  V30 5887 C 586.973 -2.12184 2.74188 0
M  V30 5888 C 586.034 -1.74503 3.92234 0
M  V30 5889 C 585.267 -2.92748 4.46245 0
M  V30 5890 O 585.49 -4.07427 3.99198 0
M  V30 5891 O 584.424 -2.71303 5.37288 0
M  V30 5892 H 588.25 -0.398516 3.01074 0
M  V30 5893 H 585.835 -0.130707 1.48827 0
M  V30 5894 H 587.717 -2.84953 3.10451 0
M  V30 5895 H 586.392 -2.59407 1.93623 0
M  V30 5896 H 585.299 -0.989186 3.60785 0
M  V30 5897 H 586.632 -1.32044 4.74157 0
M  V30 5898 N 588.284 -1.56567 -0.180126 0
M  V30 5899 C 589.533 -1.80685 -0.896426 0
M  V30 5900 C 589.846 -0.669335 -1.83791 0
M  V30 5901 O 591.052 -0.795209 -2.59593 0
M  V30 5902 C 589.508 -3.20132 -1.6445 0
M  V30 5903 C 589.116 -4.41727 -0.747088 0
M  V30 5904 C 590.86 -3.53549 -2.34955 0
M  V30 5905 C 588.767 -5.72195 -1.49489 0
M  V30 5906 H 587.697 -0.673758 -0.338477 0
M  V30 5907 H 590.348 -1.8289 -0.149467 0
M  V30 5908 H 588.73 -3.12218 -2.43589 0
M  V30 5909 H 589.904 -4.608 0.00671129 0
M  V30 5910 H 588.219 -4.16122 -0.152134 0
M  V30 5911 H 590.816 -4.48267 -2.91481 0
M  V30 5912 H 591.159 -2.78006 -3.09868 0
M  V30 5913 H 591.692 -3.62976 -1.62768 0
M  V30 5914 H 588.431 -6.50743 -0.788251 0
M  V30 5915 H 587.951 -5.57115 -2.22224 0
M  V30 5916 H 589.63 -6.1384 -2.04472 0
M  V30 5917 N 589.762 0.448376 -1.51087 0
M  V30 5918 C 590.725 1.52588 -1.71025 0
M  V30 5919 C 591.725 1.49958 -0.580442 0
M  V30 5920 O 592.915 1.52176 -0.847833 0
M  V30 5921 C 590.047 2.92163 -1.75652 0
M  V30 5922 H 591.24 1.36218 -2.67179 0
M  V30 5923 H 588.793 0.676313 -1.4091 0
M  V30 5924 H 589.528 3.13951 -0.812724 0
M  V30 5925 H 589.313 2.95478 -2.57751 0
M  V30 5926 H 590.803 3.70349 -1.92953 0
M  V30 5927 N 591.24 1.41047 0.703093 0
M  V30 5928 C 592.465 1.43537 1.49706 0
M  V30 5929 C 592.89 0.0401853 1.88057 0
M  V30 5930 O 592.248 -0.954785 1.54122 0
M  V30 5931 C 592.296 2.3433 2.74084 0
M  V30 5932 O 591.4 1.79515 3.71279 0
M  V30 5933 H 590.741 0.487454 0.450871 0
M  V30 5934 H 593.271 1.85422 0.86486 0
M  V30 5935 H 593.281 2.49947 3.22476 0
M  V30 5936 H 591.956 3.35708 2.45506 0
M  V30 5937 H 590.533 1.7331 3.30179 0
M  V30 5938 N 592.718 -0.936591 1.26751 0
M  V30 5939 C 593.648 -2.05315 1.11212 0
M  V30 5940 C 594.629 -1.70092 0.0160262 0
M  V30 5941 O 595.814 -1.93279 0.188894 0
M  V30 5942 C 592.944 -3.39123 0.749171 0
M  V30 5943 C 591.898 -3.88425 1.79751 0
M  V30 5944 C 591.224 -5.18936 1.28876 0
M  V30 5945 C 592.524 -4.12798 3.19992 0
M  V30 5946 H 594.218 -2.18573 2.04613 0
M  V30 5947 H 591.764 -1.05027 0.985159 0
M  V30 5948 H 593.717 -4.16704 0.627323 0
M  V30 5949 H 592.441 -3.25855 -0.220543 0
M  V30 5950 H 591.1 -3.13028 1.90811 0
M  V30 5951 H 590.748 -5.02051 0.308757 0
M  V30 5952 H 590.448 -5.52892 1.98958 0
M  V30 5953 H 591.972 -5.99096 1.17967 0
M  V30 5954 H 593.386 -4.80977 3.11983 0
M  V30 5955 H 591.783 -4.58044 3.87705 0
M  V30 5956 H 592.853 -3.18412 3.65707 0
M  V30 5957 N 594.196 -1.08629 -1.14182 0
M  V30 5958 C 595.126 -0.740003 -2.21464 0
M  V30 5959 C 596.107 0.278591 -1.67803 0
M  V30 5960 O 597.292 0.148461 -1.93632 0
M  V30 5961 C 594.422 -0.150952 -3.46972 0
M  V30 5962 C 593.376 -1.09815 -4.13672 0
M  V30 5963 C 592.702 -0.3712 -5.3341 0
M  V30 5964 C 594.002 -2.43722 -4.61949 0
M  V30 5965 H 595.696 -1.63697 -2.50686 0
M  V30 5966 H 593.242 -0.788526 -1.20492 0
M  V30 5967 H 595.195 0.103325 -4.21273 0
M  V30 5968 H 593.919 0.781164 -3.1712 0
M  V30 5969 H 592.578 -1.33756 -3.41328 0
M  V30 5970 H 592.226 0.564792 -4.99819 0
M  V30 5971 H 591.926 -1.00267 -5.78982 0
M  V30 5972 H 593.45 -0.12503 -6.10472 0
M  V30 5973 H 594.864 -2.24034 -5.27714 0
M  V30 5974 H 593.261 -3.02582 -5.18232 0
M  V30 5975 H 594.331 -3.05082 -3.76899 0
M  V30 5976 N 595.674 1.31259 -0.872281 0
M  V30 5977 C 596.624 2.26 -0.301295 0
M  V30 5978 C 597.608 1.50729 0.562991 0
M  V30 5979 O 598.8 1.72198 0.40949 0
M  V30 5980 C 595.929 3.39724 0.494227 0
M  V30 5981 C 595.015 4.22363 -0.383432 0
M  V30 5982 N 595.406 4.83724 -1.47799 0
M  V30 5983 C 593.704 4.45652 -0.176278 0
M  V30 5984 C 594.405 5.45523 -2.01939 0
M  V30 5985 N 593.381 5.27428 -1.31608 0
M  V30 5986 H 597.183 2.70981 -1.13782 0
M  V30 5987 H 594.697 1.45552 -0.720294 0
M  V30 5988 H 596.694 4.06626 0.919828 0
M  V30 5989 H 595.354 2.96286 1.32834 0
M  V30 5990 H 596.365 4.83313 -1.8609 0
M  V30 5991 H 593.042 4.12845 0.621698 0
M  V30 5992 H 594.432 6.04268 -2.93786 0
M  V30 5993 N 597.152 0.631951 1.44375 0
M  V30 5994 C 598.568 0.297642 1.568 0
M  V30 5995 C 598.768 -1.19916 1.61934 0
M  V30 5996 O 597.824 -1.98324 1.56281 0
M  V30 5997 C 599.137 0.990286 2.83926 0
M  V30 5998 C 600.685 0.968507 2.97639 0
M  V30 5999 C 601.16 1.64163 4.27568 0
M  V30 6000 N 602.651 1.60826 4.34384 0
M  V30 6001 C 603.386 2.09802 5.33639 0
M  V30 6002 N 602.882 2.66973 6.39294 0
M  V30 6003 N 604.675 2.00426 5.25153 0
M  V30 6004 H 596.826 1.60353 1.39286 0
M  V30 6005 H 599.089 0.673142 0.667521 0
M  V30 6006 H 598.795 2.04519 2.8612 0
M  V30 6007 H 598.669 0.528563 3.73478 0
M  V30 6008 H 601.056 -0.0779247 2.94997 0
M  V30 6009 H 601.137 1.46873 2.09433 0
M  V30 6010 H 600.781 2.68752 4.3097 0
M  V30 6011 H 600.711 1.11624 5.14634 0
M  V30 6012 H 603.202 1.19087 3.58646 0
M  V30 6013 H 603.515 3.02074 7.11316 0
M  V30 6014 H 601.86 2.71024 6.39977 0
M  V30 6015 H 605.051 1.55483 4.41523 0
M  V30 6016 H 605.224 2.38906 6.02352 0
M  V30 6017 N 598.631 -1.53133 0.372548 0
M  V30 6018 C 599.563 -2.23557 -0.505444 0
M  V30 6019 C 600.576 -1.25211 -1.04049 0
M  V30 6020 O 601.765 -1.51391 -0.945675 0
M  V30 6021 C 598.865 -2.92516 -1.71136 0
M  V30 6022 C 598.038 -4.17428 -1.30661 0
M  V30 6023 C 597.097 -4.69535 -2.37536 0
M  V30 6024 O 596.123 -5.33042 -1.99637 0
M  V30 6025 N 597.325 -4.47947 -3.6922 0
M  V30 6026 H 600.09 -2.9954 0.0978259 0
M  V30 6027 H 597.651 -1.60684 0.198068 0
M  V30 6028 H 599.643 -3.24281 -2.42124 0
M  V30 6029 H 598.213 -2.19944 -2.22134 0
M  V30 6030 H 597.433 -3.91888 -0.426292 0
M  V30 6031 H 598.721 -4.98622 -1.01259 0
M  V30 6032 H 598.119 -3.97219 -4.02783 0
M  V30 6033 H 596.676 -4.84245 -4.36292 0
M  V30 6034 N 600.109 -0.101901 -1.5727 0
M  V30 6035 C 601.041 0.884723 -2.11436 0
M  V30 6036 C 602.054 1.24149 -1.05314 0
M  V30 6037 O 603.243 1.19341 -1.3274 0
M  V30 6038 C 600.343 2.19179 -2.58484 0
M  V30 6039 C 599.516 2.00933 -3.88516 0
M  V30 6040 C 598.575 3.15213 -4.2134 0
M  V30 6041 O 597.601 2.88877 -4.90448 0
M  V30 6042 N 598.803 4.41174 -3.77288 0
M  V30 6043 H 601.568 0.422058 -2.96713 0
M  V30 6044 H 599.129 0.0830128 -1.61687 0
M  V30 6045 H 601.121 2.94593 -2.77484 0
M  V30 6046 H 599.691 2.56847 -1.7818 0
M  V30 6047 H 598.911 1.09809 -3.78597 0
M  V30 6048 H 600.199 1.86026 -4.73573 0
M  V30 6049 H 599.597 4.6545 -3.21516 0
M  V30 6050 H 598.154 5.13515 -4.01429 0
M  V30 6051 N 601.587 1.56661 0.17182 0
M  V30 6052 C 602.517 1.99401 1.21498 0
M  V30 6053 C 603.498 0.869516 1.46197 0
M  V30 6054 O 604.683 1.13556 1.57539 0
M  V30 6055 C 601.813 2.35346 2.55401 0
M  V30 6056 C 600.767 3.5075 2.45272 0
M  V30 6057 C 600.093 3.72437 3.8366 0
M  V30 6058 C 601.393 4.84216 1.95787 0
M  V30 6059 H 603.087 2.86792 0.859699 0
M  V30 6060 H 600.633 1.37977 0.412103 0
M  V30 6061 H 602.586 2.63843 3.2858 0
M  V30 6062 H 601.31 1.44864 2.92715 0
M  V30 6063 H 599.969 3.2238 1.74547 0
M  V30 6064 H 599.617 2.79246 4.18367 0
M  V30 6065 H 599.317 4.50087 3.77751 0
M  V30 6066 H 600.841 4.03334 4.58426 0
M  V30 6067 H 602.255 5.11592 2.5874 0
M  V30 6068 H 600.652 5.65498 2.00827 0
M  V30 6069 H 601.722 4.76243 0.912159 0
M  V30 6070 N 603.065 -0.440357 1.51323 0
M  V30 6071 C 604.476 -1.02032 1.56353 0
M  V30 6072 C 604.827 -1.92382 0.385197 0
M  V30 6073 O 603.952 -2.10583 -0.498373 0
M  V30 6074 C 604.547 -1.85723 2.83359 0
M  V30 6075 C 603.106 -2.38774 2.90971 0
M  V30 6076 C 602.253 -1.17908 2.50984 0
M  V30 6077 H 605.204 -0.221744 1.57143 0
M  V30 6078 H 605.225 -2.71141 2.66951 0
M  V30 6079 H 604.737 -1.19939 3.69102 0
M  V30 6080 H 602.838 -3.08021 2.09651 0
M  V30 6081 H 602.951 -2.71778 3.94555 0
M  V30 6082 H 601.315 -1.52347 2.04114 0
M  V30 6083 H 602.098 -0.537393 3.39068 0
M  V30 6084 N 604.543 -1.41418 -0.695603 0
M  V30 6085 C 605.473 -1.46035 -1.82197 0
M  V30 6086 C 606.454 -0.319025 -1.67082 0
M  V30 6087 O 607.639 -0.530462 -1.86815 0
M  V30 6088 C 604.769 -1.34179 -3.20333 0
M  V30 6089 C 603.723 -2.46123 -3.50154 0
M  V30 6090 C 603.049 -2.19332 -4.87645 0
M  V30 6091 C 604.349 -3.88463 -3.49133 0
M  V30 6092 H 606.043 -2.40303 -1.78591 0
M  V30 6093 H 603.589 -1.15663 -0.857797 0
M  V30 6094 H 605.542 -1.36021 -3.98844 0
M  V30 6095 H 604.266 -0.363952 -3.24566 0
M  V30 6096 H 602.925 -2.43563 -2.73994 0
M  V30 6097 H 602.573 -1.19891 -4.88503 0
M  V30 6098 H 602.273 -2.94344 -5.08562 0
M  V30 6099 H 603.797 -2.22889 -5.68465 0
M  V30 6100 H 605.211 -3.92738 -4.17648 0
M  V30 6101 H 603.608 -4.63158 -3.81582 0
M  V30 6102 H 604.678 -4.16617 -2.48109 0
M  V30 6103 N 606.021 0.929856 -1.27246 0
M  V30 6104 C 606.969 2.05151 -1.09616 0
M  V30 6105 C 607.963 1.69388 -0.0198617 0
M  V30 6106 O 609.169 1.79124 -0.177417 0
M  V30 6107 H 605.544 0.671909 -0.337701 0
M  V30 6108 H 607.515 2.17168 -2.04648 0
M  V30 6109 C 606.264 3.3934 -0.757851 0
M  V30 6110 H 605.587 3.67343 -1.57795 0
M  V30 6111 H 607.027 4.18603 -0.674358 0
M  V30 6112 C 605.486 3.32582 0.537658 0
M  V30 6113 O 606.016 3.69633 1.57271 0
M  V30 6114 N 604.222 2.8568 0.532478 0
M  V30 6115 H 603.769 2.55725 -0.310233 0
M  V30 6116 H 603.727 2.81541 1.39936 0
M  V30 6117 N 607.499 1.09233 1.13605 0
M  V30 6118 C 608.447 0.724572 2.21027 0
M  V30 6119 C 609.441 -0.273595 1.67176 0
M  V30 6120 O 610.647 -0.135266 1.79491 0
M  V30 6121 H 607.022 0.216319 0.720215 0
M  V30 6122 H 608.993 1.63975 2.49309 0
M  V30 6123 C 607.742 0.159126 3.47336 0
M  V30 6124 H 607.065 0.918387 3.89109 0
M  V30 6125 H 608.505 -0.0602851 4.23957 0
M  V30 6126 C 606.964 -1.10514 3.18258 0
M  V30 6127 O 607.494 -2.18869 3.36837 0
M  V30 6128 N 605.7 -1.01886 2.72154 0
M  V30 6129 H 605.247 -0.137027 2.57235 0
M  V30 6130 H 605.205 -1.8655 2.53074 0
M  V30 6131 N 608.977 -1.30795 0.87923 0
M  V30 6132 C 609.907 -2.30742 0.357796 0
M  V30 6133 C 610.888 -1.60747 -0.556283 0
M  V30 6134 O 612.073 -1.88393 -0.47135 0
M  V30 6135 C 609.203 -3.44583 -0.433555 0
M  V30 6136 C 608.157 -4.26235 0.388251 0
M  V30 6137 C 607.483 -5.32073 -0.529352 0
M  V30 6138 C 608.783 -4.96303 1.62729 0
M  V30 6139 H 610.477 -2.74605 1.19299 0
M  V30 6140 H 608.023 -1.32017 0.575104 0
M  V30 6141 H 609.976 -4.13563 -0.808934 0
M  V30 6142 H 608.7 -2.99511 -1.30234 0
M  V30 6143 H 607.359 -3.58936 0.745695 0
M  V30 6144 H 607.007 -4.83249 -1.39569 0
M  V30 6145 H 606.707 -5.87598 0.0166741 0
M  V30 6146 H 608.231 -6.0391 -0.901373 0
M  V30 6147 H 609.645 -5.5783 1.32283 0
M  V30 6148 H 608.042 -5.61666 2.11309 0
M  V30 6149 H 609.112 -4.22758 2.37494 0
M  V30 6150 N 610.455 -0.639598 -1.44038 0
M  V30 6151 C 611.418 0.0506628 -2.29144 0
M  V30 6152 C 612.418 0.764001 -1.41491 0
M  V30 6153 O 613.608 0.607309 -1.63271 0
M  V30 6154 C 610.74 1.0824 -3.2326 0
M  V30 6155 H 611.933 -0.697987 -2.91664 0
M  V30 6156 H 609.486 -0.400146 -1.51091 0
M  V30 6157 H 610.221 1.86075 -2.65606 0
M  V30 6158 H 610.006 0.574725 -3.87865 0
M  V30 6159 H 611.496 1.56487 -3.87171 0
M  V30 6160 N 611.933 1.52934 -0.380664 0
M  V30 6161 C 613.161 2.05886 0.204599 0
M  V30 6162 C 613.576 1.25305 1.41223 0
M  V30 6163 O 612.933 0.297504 1.80059 0
M  V30 6164 C 612.984 3.56764 0.583249 0
M  V30 6165 O 612.705 4.34292 -0.576398 0
M  V30 6166 C 614.206 4.2603 1.2253 0
M  V30 6167 H 611.426 0.670193 0.0328991 0
M  V30 6168 H 613.97 1.97148 -0.543397 0
M  V30 6169 H 612.125 3.65603 1.28115 0
M  V30 6170 H 612.539 5.23819 -0.267119 0
M  V30 6171 H 614.013 5.32868 1.44068 0
M  V30 6172 H 614.49 3.80698 2.19011 0
M  V30 6173 H 615.096 4.21485 0.568407 0
M  V30 6174 N 613.412 0.11024 1.57214 0
M  V30 6175 C 614.342 -0.840002 2.17867 0
M  V30 6176 C 615.323 -1.28352 1.11624 0
M  V30 6177 O 616.508 -1.3477 1.39824 0
M  V30 6178 C 613.638 -2.09349 2.77111 0
M  V30 6179 C 612.592 -1.78807 3.8886 0
M  V30 6180 C 611.918 -3.11112 4.34872 0
M  V30 6181 C 613.218 -1.0632 5.11364 0
M  V30 6182 H 614.912 -0.334608 2.97524 0
M  V30 6183 H 612.458 -0.159502 1.43114 0
M  V30 6184 H 614.411 -2.76275 3.18198 0
M  V30 6185 H 613.135 -2.62198 1.9473 0
M  V30 6186 H 611.794 -1.14273 3.48335 0
M  V30 6187 H 611.442 -3.61877 3.49362 0
M  V30 6188 H 611.142 -2.91453 5.10224 0
M  V30 6189 H 612.666 -3.79171 4.78604 0
M  V30 6190 H 614.08 -1.63383 5.49526 0
M  V30 6191 H 612.477 -0.967876 5.92243 0
M  V30 6192 H 613.547 -0.0484569 4.84876 0
M  V30 6193 N 614.89 -1.56749 -0.16351 0
M  V30 6194 C 616.137 -1.82434 -0.878866 0
M  V30 6195 C 616.465 -0.688557 -1.81904 0
M  V30 6196 O 615.72 0.323644 -1.93005 0
M  V30 6197 C 616.019 -3.14342 -1.70071 0
M  V30 6198 C 615.685 -4.41647 -0.908775 0
M  V30 6199 C 614.347 -4.76224 -0.690236 0
M  V30 6200 C 616.699 -5.19998 -0.353815 0
M  V30 6201 C 614.027 -5.86624 0.0942374 0
M  V30 6202 C 616.379 -6.3122 0.41761 0
M  V30 6203 C 615.043 -6.64358 0.646879 0
M  V30 6204 H 614.313 -0.667574 -0.3216 0
M  V30 6205 H 616.96 -1.90963 -0.14337 0
M  V30 6206 H 615.265 -3.0119 -2.50583 0
M  V30 6207 H 616.962 -3.31426 -2.25738 0
M  V30 6208 H 613.552 -4.1453 -1.08916 0
M  V30 6209 H 617.736 -4.93673 -0.509975 0
M  V30 6210 H 612.992 -6.10751 0.281529 0
M  V30 6211 H 617.166 -6.91133 0.854849 0
M  V30 6212 H 614.793 -7.49742 1.25662 0
M  V30 6213 N 616.368 0.432326 -1.51554 0
M  V30 6214 C 617.331 1.50765 -1.72634 0
M  V30 6215 C 618.331 1.49334 -0.596314 0
M  V30 6216 O 619.521 1.51268 -0.863925 0
M  V30 6217 C 616.653 2.90284 -1.7874 0
M  V30 6218 H 617.846 1.33377 -2.68609 0
M  V30 6219 H 615.399 0.661329 -1.4162 0
M  V30 6220 H 616.134 3.13071 -0.845977 0
M  V30 6221 H 615.919 2.92727 -2.6087 0
M  V30 6222 H 617.409 3.68282 -1.96871 0
M  V30 6223 N 617.846 1.41785 0.688094 0
M  V30 6224 C 618.776 1.47 1.8142 0
M  V30 6225 C 619.757 0.327881 1.6691 0
M  V30 6226 O 620.942 0.540362 1.86531 0
M  V30 6227 C 618.072 1.35876 3.19617 0
M  V30 6228 C 617.026 2.47976 3.48844 0
M  V30 6229 C 616.352 2.21915 4.86475 0
M  V30 6230 C 617.652 3.90309 3.47068 0
M  V30 6231 H 619.346 2.41247 1.77314 0
M  V30 6232 H 616.892 1.16116 0.851651 0
M  V30 6233 H 618.845 1.38134 3.98117 0
M  V30 6234 H 617.569 0.38116 3.24368 0
M  V30 6235 H 616.228 2.45013 2.72698 0
M  V30 6236 H 615.876 1.2248 4.8786 0
M  V30 6237 H 615.576 2.97037 5.06994 0
M  V30 6238 H 617.1 2.25901 5.67275 0
M  V30 6239 H 618.514 3.94947 4.1556 0
M  V30 6240 H 616.911 4.65175 3.7912 0
M  V30 6241 H 617.981 4.17927 2.45896 0
M  V30 6242 N 619.324 -0.923095 1.27737 0
M  V30 6243 C 620.573 -1.66581 1.13727 0
M  V30 6244 C 620.886 -1.9304 -0.315433 0
M  V30 6245 O 622.092 -2.65309 -0.57651 0
M  V30 6246 C 620.548 -3.00047 1.98745 0
M  V30 6247 C 620.156 -2.8127 3.48699 0
M  V30 6248 C 621.9 -3.77887 1.93395 0
M  V30 6249 C 619.807 -4.1032 4.25901 0
M  V30 6250 H 618.737 -0.624834 0.422017 0
M  V30 6251 H 621.388 -1.02514 1.52194 0
M  V30 6252 H 619.77 -3.65197 1.53125 0
M  V30 6253 H 620.944 -2.24859 4.02213 0
M  V30 6254 H 619.259 -2.16854 3.55476 0
M  V30 6255 H 621.856 -4.73526 2.48348 0
M  V30 6256 H 622.199 -4.06264 0.908605 0
M  V30 6257 H 622.732 -3.19541 2.36935 0
M  V30 6258 H 619.471 -3.8712 5.28978 0
M  V30 6259 H 618.991 -4.66377 3.77163 0
M  V30 6260 H 620.67 -4.78648 4.35321 0
M  V30 6261 N 620.802 -1.09834 -1.13024 0
M  V30 6262 C 622.05 -0.835297 -1.8403 0
M  V30 6263 C 622.371 0.640944 -1.84165 0
M  V30 6264 O 621.641 1.46517 -1.30037 0
M  V30 6265 H 620.221 -0.306018 -0.681441 0
M  V30 6266 H 622.883 -1.38734 -1.36891 0
M  V30 6267 H 621.979 -1.19258 -2.88416 0
M  V30 6268 N 622.28 1.30327 -0.886154 0
M  V30 6269 C 623.19 2.31854 -0.357866 0
M  V30 6270 C 624.206 1.65392 0.540502 0
M  V30 6271 O 625.382 1.96683 0.433339 0
M  V30 6272 C 622.447 3.44171 0.417999 0
M  V30 6273 C 621.508 4.26257 -0.510263 0
M  V30 6274 C 620.741 5.3321 0.228669 0
M  V30 6275 O 620.964 5.51542 1.45458 0
M  V30 6276 O 619.898 6.0042 -0.421832 0
M  V30 6277 H 623.724 2.78995 -1.19982 0
M  V30 6278 H 621.309 1.34518 -0.650028 0
M  V30 6279 H 623.191 4.12588 0.857251 0
M  V30 6280 H 621.866 2.99164 1.23623 0
M  V30 6281 H 620.773 3.60533 -0.99835 0
M  V30 6282 H 622.106 4.74871 -1.29454 0
M  V30 6283 N 623.758 0.647228 1.43697 0
M  V30 6284 C 625.174 0.314256 1.56476 0
M  V30 6285 C 625.374 -1.18191 1.63196 0
M  V30 6286 O 624.43 -1.96655 1.58376 0
M  V30 6287 C 625.743 1.02034 2.82859 0
M  V30 6288 C 627.291 1.00002 2.96595 0
M  V30 6289 C 627.766 1.68689 4.25803 0
M  V30 6290 N 629.257 1.65424 4.32654 0
M  V30 6291 C 629.992 2.1545 5.31384 0
M  V30 6292 N 629.488 2.73738 6.36427 0
M  V30 6293 N 631.281 2.05985 5.22998 0
M  V30 6294 H 623.432 1.61821 1.37578 0
M  V30 6295 H 625.695 0.680184 0.660344 0
M  V30 6296 H 625.401 2.07542 2.83935 0
M  V30 6297 H 625.275 0.568146 3.72897 0
M  V30 6298 H 627.662 -0.0466319 2.95063 0
M  V30 6299 H 627.743 1.49086 2.07863 0
M  V30 6300 H 627.387 2.73308 4.28095 0
M  V30 6301 H 627.317 1.17076 5.13421 0
M  V30 6302 H 629.808 1.22884 3.57363 0
M  V30 6303 H 630.121 3.09602 7.08072 0
M  V30 6304 H 628.466 2.77796 6.37067 0
M  V30 6305 H 631.657 1.60157 4.39849 0
M  V30 6306 H 631.83 2.45281 5.99784 0
M  V30 6307 N 625.236 -1.5273 0.388769 0
M  V30 6308 C 626.166 -2.29353 -0.438111 0
M  V30 6309 C 627.147 -1.32719 -1.06394 0
M  V30 6310 O 628.332 -1.61612 -1.07681 0
M  V30 6311 C 625.462 -3.09995 -1.56589 0
M  V30 6312 C 624.416 -4.14509 -1.06613 0
M  V30 6313 C 623.742 -4.83372 -2.28594 0
M  V30 6314 C 625.042 -5.22127 -0.134459 0
M  V30 6315 H 626.736 -2.98723 0.201206 0
M  V30 6316 H 624.282 -1.43665 0.0982089 0
M  V30 6317 H 626.235 -3.62357 -2.15118 0
M  V30 6318 H 624.959 -2.38357 -2.23279 0
M  V30 6319 H 623.618 -3.63128 -0.503383 0
M  V30 6320 H 623.266 -4.08283 -2.93792 0
M  V30 6321 H 622.966 -5.54012 -1.95817 0
M  V30 6322 H 624.49 -5.38538 -2.87766 0
M  V30 6323 H 625.904 -5.69851 -0.627914 0
M  V30 6324 H 624.301 -6.00011 0.103534 0
M  V30 6325 H 625.371 -4.77971 0.816798 0
M  V30 6326 N 626.714 -0.118576 -1.57153 0
M  V30 6327 C 627.942 0.54726 -1.99531 0
M  V30 6328 C 628.357 1.60251 -0.998246 0
M  V30 6329 O 627.714 1.82498 0.00893106 0
M  V30 6330 C 627.765 1.17378 -3.41913 0
M  V30 6331 O 627.486 0.160703 -4.37805 0
M  V30 6332 C 628.987 1.92297 -3.9942 0
M  V30 6333 H 626.207 0.144919 -0.655164 0
M  V30 6334 H 628.751 -0.20479 -2.03472 0
M  V30 6335 H 626.906 1.87661 -3.38913 0
M  V30 6336 H 627.32 0.61586 -5.20872 0
M  V30 6337 H 628.794 2.31462 -5.01128 0
M  V30 6338 H 629.271 2.79801 -3.38538 0
M  V30 6339 H 629.877 1.26777 -4.05965 0
M  V30 6340 N 628.193 1.56834 0.155195 0
M  V30 6341 C 629.439 1.83169 0.870467 0
M  V30 6342 C 629.772 0.698929 1.81187 0
M  V30 6343 O 629.047 -0.298035 1.92203 0
M  V30 6344 C 629.33 3.19965 1.65211 0
M  V30 6345 C 629.183 4.43792 0.732744 0
M  V30 6346 C 630.502 3.53885 2.61636 0
M  V30 6347 H 627.621 0.666288 0.315006 0
M  V30 6348 H 630.263 1.89513 0.135988 0
M  V30 6349 H 628.413 3.14687 2.27825 0
M  V30 6350 H 630.085 4.61148 0.118236 0
M  V30 6351 H 628.328 4.3378 0.0417906 0
M  V30 6352 H 628.999 5.36095 1.31552 0
M  V30 6353 H 631.475 3.5972 2.09143 0
M  V30 6354 H 630.351 4.50648 3.13381 0
M  V30 6355 H 630.612 2.79418 3.42605 0
M  V30 6356 N 629.671 -0.424282 1.51781 0
M  V30 6357 C 630.917 -1.17434 1.6534 0
M  V30 6358 C 631.25 -1.90549 0.374806 0
M  V30 6359 O 630.525 -1.84145 -0.626179 0
M  V30 6360 C 630.808 -2.18093 2.86544 0
M  V30 6361 C 630.661 -1.48975 4.24413 0
M  V30 6362 C 631.98 -3.18934 3.03264 0
M  V30 6363 H 629.099 -0.425566 0.601716 0
M  V30 6364 H 631.741 -0.461921 1.84299 0
M  V30 6365 H 629.891 -2.78849 2.7051 0
M  V30 6366 H 631.563 -0.914551 4.52143 0
M  V30 6367 H 629.806 -0.791893 4.26511 0
M  V30 6368 H 630.477 -2.22347 5.05238 0
M  V30 6369 H 632.953 -2.68243 3.18096 0
M  V30 6370 H 631.829 -3.86645 3.89611 0
M  V30 6371 H 632.09 -3.85793 2.15908 0
M  V30 6372 N 631.149 -1.42148 -0.680565 0
M  V30 6373 C 632.082 -1.39602 -1.80517 0
M  V30 6374 C 633.06 -0.261098 -1.6049 0
M  V30 6375 O 634.244 -0.450404 -1.8304 0
M  V30 6376 C 631.371 -1.18134 -3.1743 0
M  V30 6377 C 630.417 -2.34543 -3.56219 0
M  V30 6378 S 631.25 -3.97063 -3.59306 0
M  V30 6379 C 632.406 -3.77926 -4.98921 0
M  V30 6380 H 632.639 -2.3477 -1.82402 0
M  V30 6381 H 630.172 -1.28851 -0.850691 0
M  V30 6382 H 632.13 -1.06434 -3.96462 0
M  V30 6383 H 630.791 -0.245611 -3.13138 0
M  V30 6384 H 629.984 -2.15255 -4.55721 0
M  V30 6385 H 629.586 -2.42728 -2.84533 0
M  V30 6386 H 631.878 -3.3856 -5.86842 0
M  V30 6387 H 632.821 -4.77084 -5.23256 0
M  V30 6388 H 633.229 -3.10904 -4.71167 0
M  V30 6389 N 632.627 0.916307 -1.28225 0
M  V30 6390 C 633.875 1.6619 -1.15002 0
M  V30 6391 C 634.196 1.92642 0.302329 0
M  V30 6392 O 633.466 1.54076 1.20985 0
M  V30 6393 H 632.046 0.615964 -0.422608 0
M  V30 6394 H 634.708 1.09963 -1.60917 0
M  V30 6395 H 633.804 2.62533 -1.68769 0
M  V30 6396 N 634.105 1.10431 1.1244 0
M  V30 6397 C 635.353 0.845045 1.83585 0
M  V30 6398 C 635.674 -0.631168 1.84503 0
M  V30 6399 O 634.944 -1.45825 1.30813 0
M  V30 6400 H 633.524 0.309628 0.679809 0
M  V30 6401 H 636.186 1.39458 1.36153 0
M  V30 6402 H 635.282 1.20786 2.8778 0
M  V30 6403 N 635.583 -1.29855 0.893053 0
M  V30 6404 C 636.808 -2.00512 0.530066 0
M  V30 6405 C 637.233 -1.66446 -0.876199 0
M  V30 6406 O 636.591 -0.885446 -1.58207 0
M  V30 6407 C 636.639 -3.53308 0.721505 0
M  V30 6408 O 635.743 -4.11764 -0.228994 0
M  V30 6409 H 635.084 -0.630617 0.207891 0
M  V30 6410 H 637.614 -1.6551 1.20282 0
M  V30 6411 H 637.624 -4.03206 0.623599 0
M  V30 6412 H 636.299 -3.77439 1.74678 0
M  V30 6413 H 634.876 -3.72805 -0.0841034 0
M  V30 6414 N 637.061 -0.65484 -1.43351 0
M  V30 6415 C 638.286 -0.175046 -2.0666 0
M  V30 6416 C 638.711 1.15104 -1.4877 0
M  V30 6417 O 638.069 1.71144 -0.598279 0
M  V30 6418 C 638.117 -0.0991544 -3.60464 0
M  V30 6419 O 637.221 0.938169 -4.01587 0
M  V30 6420 H 636.562 -0.0956148 -0.65708 0
M  V30 6421 H 639.092 -0.898222 -1.83829 0
M  V30 6422 H 639.102 0.083632 -4.07914 0
M  V30 6423 H 637.777 -1.06719 -4.01975 0
M  V30 6424 H 636.354 0.72804 -3.65724 0
M  V30 6425 N 638.539 1.52521 -0.396863 0
M  V30 6426 C 639.787 2.01274 0.182536 0
M  V30 6427 C 640.108 1.28485 1.46685 0
M  V30 6428 O 639.378 0.407134 1.91623 0
M  V30 6429 H 637.958 0.743671 0.0704442 0
M  V30 6430 H 640.62 1.87547 -0.530289 0
M  V30 6431 H 639.716 3.09687 0.387385 0
M  V30 6432 N 640.017 0.126909 1.57088 0
M  V30 6433 C 641.263 -0.529952 1.95753 0
M  V30 6434 C 641.596 -1.65823 1.01077 0
M  V30 6435 O 640.871 -1.94437 0.0494162 0
M  V30 6436 C 641.154 -1.05517 3.44294 0
M  V30 6437 C 641.007 0.0702253 4.49745 0
M  V30 6438 C 642.326 -1.9435 3.94862 0
M  V30 6439 H 639.445 -0.191168 0.711775 0
M  V30 6440 H 642.087 0.204071 1.88901 0
M  V30 6441 H 640.237 -1.68069 3.50264 0
M  V30 6442 H 641.909 0.705834 4.55868 0
M  V30 6443 H 640.152 0.732259 4.27575 0
M  V30 6444 H 640.823 -0.338642 5.5096 0
M  V30 6445 H 643.299 -1.41658 3.91244 0
M  V30 6446 H 642.175 -2.28015 4.993 0
M  V30 6447 H 642.436 -2.87299 3.36024 0
M  V30 6448 N 641.495 -1.56914 -0.146875 0
M  V30 6449 C 642.425 -2.01308 -1.1831 0
M  V30 6450 C 643.406 -0.892664 -1.44795 0
M  V30 6451 O 644.591 -1.16048 -1.55713 0
M  V30 6452 C 641.721 -2.3938 -2.51624 0
M  V30 6453 C 640.675 -3.54608 -2.3966 0
M  V30 6454 C 640.001 -3.78493 -3.77686 0
M  V30 6455 C 641.301 -4.87269 -1.88058 0
M  V30 6456 H 642.995 -2.88123 -0.813964 0
M  V30 6457 H 640.541 -1.38615 -0.3901 0
M  V30 6458 H 642.494 -2.69037 -3.24341 0
M  V30 6459 H 641.218 -1.49502 -2.90373 0
M  V30 6460 H 639.877 -3.25116 -1.69396 0
M  V30 6461 H 639.525 -2.85866 -4.13871 0
M  V30 6462 H 639.225 -4.56039 -3.70543 0
M  V30 6463 H 640.749 -4.10576 -4.51951 0
M  V30 6464 H 642.163 -5.15644 -2.50568 0
M  V30 6465 H 640.56 -5.68622 -1.91805 0
M  V30 6466 H 641.63 -4.77634 -0.836277 0
M  V30 6467 N 642.974 0.416227 -1.52004 0
M  V30 6468 C 643.907 1.52736 -1.6955 0
M  V30 6469 C 644.885 1.53264 -0.54305 0
M  V30 6470 O 646.069 1.72077 -0.769527 0
M  V30 6471 C 643.196 2.91283 -1.72835 0
M  V30 6472 C 642.242 3.08695 -2.94295 0
M  V30 6473 S 643.075 2.82758 -4.54762 0
M  V30 6474 C 644.231 4.23548 -4.60823 0
M  V30 6475 H 644.464 1.37623 -2.63528 0
M  V30 6476 H 641.997 0.607335 -1.41954 0
M  V30 6477 H 643.955 3.71134 -1.75413 0
M  V30 6478 H 642.616 3.03742 -0.799966 0
M  V30 6479 H 641.809 4.10042 -2.93056 0
M  V30 6480 H 641.411 2.36699 -2.89568 0
M  V30 6481 H 643.703 5.17078 -4.37763 0
M  V30 6482 H 644.646 4.29813 -5.62731 0
M  V30 6483 H 645.054 4.08188 -3.89927 0
M  V30 6484 N 644.452 1.42507 0.673017 0
M  V30 6485 C 645.677 1.4668 1.46627 0
M  V30 6486 C 646.102 0.080066 1.8793 0
M  V30 6487 O 645.46 -0.921879 1.56112 0
M  V30 6488 C 645.508 2.40091 2.69051 0
M  V30 6489 O 644.612 1.8735 3.67387 0
M  V30 6490 H 643.953 0.496908 0.44043 0
M  V30 6491 H 646.483 1.87215 0.825334 0
M  V30 6492 H 646.493 2.56731 3.17101 0
M  V30 6493 H 645.168 3.4084 2.3833 0
M  V30 6494 H 643.745 1.80274 3.26429 0
M  V30 6495 N 645.93 -0.909495 1.28709 0
M  V30 6496 C 647.179 -1.65365 1.15487 0
M  V30 6497 C 647.492 -1.93364 -0.294941 0
M  V30 6498 O 648.698 -2.65905 -0.548338 0
M  V30 6499 C 647.154 -2.97923 2.01916 0
M  V30 6500 C 646.762 -2.77556 3.51663 0
M  V30 6501 C 648.506 -3.75814 1.97393 0
M  V30 6502 C 646.413 -4.0578 4.30229 0
M  V30 6503 H 645.343 -0.620323 0.42862 0
M  V30 6504 H 647.994 -1.00894 1.53273 0
M  V30 6505 H 646.376 -3.63552 1.5699 0
M  V30 6506 H 647.55 -2.2058 4.04575 0
M  V30 6507 H 645.865 -2.13072 3.57756 0
M  V30 6508 H 648.462 -4.70866 2.53357 0
M  V30 6509 H 648.805 -4.05277 0.951643 0
M  V30 6510 H 649.338 -3.1701 2.40311 0
M  V30 6511 H 646.077 -3.81488 5.33055 0
M  V30 6512 H 645.597 -4.62351 3.82089 0
M  V30 6513 H 647.276 -4.74004 4.40374 0
M  V30 6514 N 647.408 -1.11026 -1.11852 0
M  V30 6515 C 648.655 -0.85646 -1.83497 0
M  V30 6516 C 648.983 0.617938 -1.84423 0
M  V30 6517 O 648.238 1.47194 -1.28966 0
M  V30 6518 C 648.537 -1.35777 -3.30604 0
M  V30 6519 C 648.203 -2.84465 -3.49843 0
M  V30 6520 C 646.865 -3.25068 -3.54802 0
M  V30 6521 C 649.217 -3.80251 -3.56453 0
M  V30 6522 C 646.545 -4.60194 -3.63921 0
M  V30 6523 C 648.897 -5.15188 -3.67102 0
M  V30 6524 C 647.561 -5.55356 -3.70319 0
M  V30 6525 H 646.831 -0.313401 -0.671462 0
M  V30 6526 H 649.478 -1.38792 -1.31943 0
M  V30 6527 H 647.783 -0.746455 -3.84624 0
M  V30 6528 H 649.48 -1.13779 -3.8452 0
M  V30 6529 H 646.07 -2.52054 -3.46651 0
M  V30 6530 H 650.254 -3.49986 -3.51886 0
M  V30 6531 H 645.51 -4.90728 -3.64686 0
M  V30 6532 H 649.684 -5.89248 -3.71159 0
M  V30 6533 H 647.311 -6.60054 -3.77138 0
M  V30 6534 N 648.886 1.2938 -0.899927 0
M  V30 6535 C 650.133 1.9555 -0.525963 0
M  V30 6536 C 650.461 1.70945 0.927789 0
M  V30 6537 O 649.716 1.01545 1.67293 0
M  V30 6538 C 650.015 3.49114 -0.765113 0
M  V30 6539 C 649.681 3.93796 -2.19626 0
M  V30 6540 C 648.343 4.05707 -2.58758 0
M  V30 6541 C 650.695 4.16883 -3.12823 0
M  V30 6542 C 648.023 4.38074 -3.90267 0
M  V30 6543 C 650.375 4.50725 -4.4388 0
M  V30 6544 C 649.039 4.60845 -4.82885 0
M  V30 6545 H 648.309 0.715569 -0.192463 0
M  V30 6546 H 650.956 1.53972 -1.13863 0
M  V30 6547 H 649.261 3.91738 -0.069531 0
M  V30 6548 H 650.958 3.98409 -0.455144 0
M  V30 6549 H 647.548 3.85042 -1.88256 0
M  V30 6550 H 651.732 4.07147 -2.83804 0
M  V30 6551 H 646.988 4.44112 -4.20207 0
M  V30 6552 H 651.162 4.67538 -5.16121 0
M  V30 6553 H 648.789 4.85681 -5.84823 0
M  V30 6554 N 650.364 0.662433 1.43002 0
M  V30 6555 C 651.592 0.187615 2.06048 0
M  V30 6556 C 652.007 -1.15039 1.49705 0
M  V30 6557 O 651.364 -1.71209 0.631956 0
M  V30 6558 C 651.415 0.100498 3.6136 0
M  V30 6559 O 651.136 1.38562 4.15611 0
M  V30 6560 C 652.637 -0.399298 4.41498 0
M  V30 6561 H 649.857 0.0941675 0.664359 0
M  V30 6562 H 652.401 0.905681 1.83351 0
M  V30 6563 H 650.556 -0.568181 3.83211 0
M  V30 6564 H 650.97 1.25084 5.09366 0
M  V30 6565 H 652.444 -0.409187 5.50481 0
M  V30 6566 H 652.921 -1.43232 4.15188 0
M  V30 6567 H 653.527 0.23721 4.24638 0
M  V30 6568 N 651.842 -1.52309 0.404946 0
M  V30 6569 C 652.805 -2.25491 -0.410651 0
M  V30 6570 C 653.805 -1.27704 -0.977154 0
M  V30 6571 O 654.995 -1.51679 -0.856691 0
M  V30 6572 C 652.127 -3.02197 -1.57765 0
M  V30 6573 H 653.32 -2.99015 0.230277 0
M  V30 6574 H 650.873 -1.55506 0.157377 0
M  V30 6575 H 651.608 -2.33013 -2.25556 0
M  V30 6576 H 651.393 -3.73987 -1.17797 0
M  V30 6577 H 652.883 -3.57719 -2.15469 0
M  V30 6578 N 653.32 -0.135238 -1.57019 0
M  V30 6579 C 654.283 0.794707 -2.14981 0
M  V30 6580 C 655.283 1.18342 -1.08866 0
M  V30 6581 O 656.473 1.10627 -1.34563 0
M  V30 6582 C 653.605 2.07685 -2.70333 0
M  V30 6583 H 654.798 0.290696 -2.98488 0
M  V30 6584 H 652.351 0.114128 -1.55883 0
M  V30 6585 H 653.086 2.6248 -1.9046 0
M  V30 6586 H 652.871 1.80745 -3.47957 0
M  V30 6587 H 654.361 2.74127 -3.1503 0
M  V30 6588 N 654.798 1.5699 0.138552 0
M  V30 6589 C 656.046 1.83446 0.848053 0
M  V30 6590 C 656.367 0.71744 1.81322 0
M  V30 6591 O 655.637 -0.260228 1.94164 0
M  V30 6592 H 654.217 0.676792 0.316166 0
M  V30 6593 H 656.879 1.94462 0.130538 0
M  V30 6594 H 655.975 2.78677 1.40518 0
M  V30 6595 N 656.276 -0.40816 1.52223 0
M  V30 6596 C 657.208 -1.51642 1.71864 0
M  V30 6597 C 658.221 -1.51378 0.599056 0
M  V30 6598 O 659.41 -1.55626 0.874239 0
M  V30 6599 C 656.51 -2.90534 1.74481 0
M  V30 6600 C 655.683 -3.14979 3.03491 0
M  V30 6601 C 654.742 -4.33749 2.97907 0
M  V30 6602 O 653.768 -4.30982 3.71811 0
M  V30 6603 N 654.97 -5.38912 2.15764 0
M  V30 6604 H 657.735 -1.35188 2.67478 0
M  V30 6605 H 655.296 -0.597468 1.50472 0
M  V30 6606 H 657.288 -3.68056 1.68275 0
M  V30 6607 H 655.858 -3.00441 0.863363 0
M  V30 6608 H 655.078 -2.25492 3.23337 0
M  V30 6609 H 656.366 -3.28156 3.88833 0
M  V30 6610 H 655.764 -5.44008 1.55152 0
M  V30 6611 H 654.321 -6.15174 2.15415 0
M  V30 6612 N 657.755 -1.42862 -0.66545 0
M  V30 6613 C 658.702 -1.4707 -1.77874 0
M  V30 6614 C 659.672 -0.321654 -1.62956 0
M  V30 6615 O 660.857 -0.52707 -1.83376 0
M  V30 6616 C 657.997 -1.38788 -3.15962 0
M  V30 6617 C 657.11 -2.63801 -3.42101 0
M  V30 6618 C 656.245 -2.47594 -4.69969 0
M  V30 6619 C 655.284 -3.67936 -4.89172 0
M  V30 6620 N 654.421 -3.50614 -6.08288 0
M  V30 6621 H 659.261 -2.42204 -1.73613 0
M  V30 6622 H 656.798 -1.20239 -0.847401 0
M  V30 6623 H 658.756 -1.31982 -3.95773 0
M  V30 6624 H 657.386 -0.472431 -3.19324 0
M  V30 6625 H 656.438 -2.80935 -2.56475 0
M  V30 6626 H 657.75 -3.53228 -3.52181 0
M  V30 6627 H 656.904 -2.38427 -5.57886 0
M  V30 6628 H 655.643 -1.55672 -4.62188 0
M  V30 6629 H 654.648 -3.77525 -3.99694 0
M  V30 6630 H 655.873 -4.60851 -4.98792 0
M  V30 6631 H 653.819 -2.61417 -6.01662 0
M  V30 6632 H 653.736 -4.33634 -6.19272 0
M  V30 6633 H 655.004 -3.45276 -6.98859 0
M  V30 6634 N 659.233 0.902656 -1.29189 0
M  V30 6635 C 660.163 2.02294 -1.16616 0
M  V30 6636 C 661.144 1.6999 -0.0611175 0
M  V30 6637 O 662.329 1.9271 -0.240072 0
M  V30 6638 C 659.459 3.37018 -0.83882 0
M  V30 6639 C 658.413 3.83522 -1.89986 0
M  V30 6640 C 657.739 5.15337 -1.42589 0
M  V30 6641 C 659.039 4.04169 -3.30824 0
M  V30 6642 H 660.733 2.13071 -2.10336 0
M  V30 6643 H 658.279 1.02378 -1.01266 0
M  V30 6644 H 660.232 4.14895 -0.737584 0
M  V30 6645 H 658.956 3.26325 0.134071 0
M  V30 6646 H 657.615 3.07859 -1.99043 0
M  V30 6647 H 657.263 5.01056 -0.441759 0
M  V30 6648 H 656.963 5.47423 -2.13547 0
M  V30 6649 H 658.487 5.95758 -1.3381 0
M  V30 6650 H 659.901 4.72537 -3.24626 0
M  V30 6651 H 658.298 4.47604 -3.99713 0
M  V30 6652 H 659.368 3.08604 -3.74021 0
M  V30 6653 N 660.711 1.11618 1.11262 0
M  V30 6654 C 661.621 0.78898 2.20935 0
M  V30 6655 C 662.637 -0.21867 1.7262 0
M  V30 6656 O 663.813 -0.0543826 2.01327 0
M  V30 6657 C 660.878 0.239014 3.45875 0
M  V30 6658 C 659.939 1.3055 4.08968 0
M  V30 6659 C 659.172 0.781687 5.27944 0
M  V30 6660 O 659.395 -0.387605 5.69082 0
M  V30 6661 O 658.329 1.54734 5.81671 0
M  V30 6662 H 662.155 1.70477 2.51339 0
M  V30 6663 H 659.74 0.892203 1.19834 0
M  V30 6664 H 661.622 -0.0632312 4.21353 0
M  V30 6665 H 660.297 -0.649454 3.17118 0
M  V30 6666 H 659.204 1.66079 3.35214 0
M  V30 6667 H 660.537 2.16743 4.41909 0
M  V30 6668 N 662.189 -1.289 0.906776 0
M  V30 6669 C 663.121 -2.26556 0.347159 0
M  V30 6670 C 664.134 -1.54589 -0.51049 0
M  V30 6671 O 665.323 -1.75489 -0.326501 0
M  V30 6672 C 662.423 -3.3484 -0.523024 0
M  V30 6673 C 661.596 -4.36296 0.310515 0
M  V30 6674 C 660.655 -5.23879 -0.493634 0
M  V30 6675 O 659.681 -5.69127 0.0913569 0
M  V30 6676 N 660.883 -5.51946 -1.7982 0
M  V30 6677 H 663.648 -2.75212 1.18652 0
M  V30 6678 H 661.209 -1.42309 0.771996 0
M  V30 6679 H 663.201 -3.90366 -1.06756 0
M  V30 6680 H 661.771 -2.85946 -1.26309 0
M  V30 6681 H 660.991 -3.80331 1.03644 0
M  V30 6682 H 662.279 -5.01113 0.881106 0
M  V30 6683 H 661.677 -5.17006 -2.2961 0
M  V30 6684 H 660.234 -6.10258 -2.28971 0
M  V30 6685 N 663.667 -0.670007 -1.42649 0
M  V30 6686 C 664.915 -0.18991 -2.01206 0
M  V30 6687 C 665.236 1.20617 -1.53221 0
M  V30 6688 O 664.506 1.80898 -0.751856 0
M  V30 6689 H 663.086 -0.0672189 -0.743969 0
M  V30 6690 H 665.748 -0.865442 -1.74631 0
M  V30 6691 H 664.844 -0.187481 -3.11536 0
M  V30 6692 N 665.145 1.52092 -0.413018 0
M  V30 6693 C 666.108 2.25706 0.398687 0
M  V30 6694 C 667.108 1.28221 0.970368 0
M  V30 6695 O 668.298 1.52131 0.848635 0
M  V30 6696 C 665.43 3.03029 1.5616 0
M  V30 6697 H 666.623 2.98888 -0.246131 0
M  V30 6698 H 664.176 1.5542 -0.165622 0
M  V30 6699 H 664.911 2.34205 2.24317 0
M  V30 6700 H 664.696 3.74606 1.15812 0
M  V30 6701 H 666.186 3.58857 2.13569 0
M  V30 6702 N 666.623 0.143563 1.56945 0
M  V30 6703 C 667.571 -0.814556 2.17871 0
M  V30 6704 C 668.565 -1.25778 1.13474 0
M  V30 6705 O 669.771 -1.22666 1.31731 0
M  V30 6706 H 666.146 -0.280873 0.697578 0
M  V30 6707 H 668.117 -0.276459 2.97117 0
M  V30 6708 C 666.866 -2.04503 2.81201 0
M  V30 6709 H 666.189 -1.71296 3.61245 0
M  V30 6710 H 667.629 -2.69493 3.27337 0
M  V30 6711 C 666.088 -2.85079 1.79532 0
M  V30 6712 O 666.618 -3.81306 1.26368 0
M  V30 6713 N 664.824 -2.49546 1.48913 0
M  V30 6714 H 664.371 -1.71359 1.92338 0
M  V30 6715 H 664.329 -3.03751 0.811348 0
M  V30 6716 N 668.101 -1.57061 -0.130224 0
M  V30 6717 C 669.347 -1.8453 -0.841216 0
M  V30 6718 C 669.68 -0.727666 -1.80052 0
M  V30 6719 O 668.955 0.267419 -1.92653 0
M  V30 6720 C 669.238 -3.22553 -1.60099 0
M  V30 6721 C 669.091 -4.44901 -0.662048 0
M  V30 6722 C 670.41 -3.58003 -2.55973 0
M  V30 6723 H 667.529 -0.671215 -0.304366 0
M  V30 6724 H 670.171 -1.89705 -0.105821 0
M  V30 6725 H 668.321 -3.18272 -2.22789 0
M  V30 6726 H 669.993 -4.61278 -0.0448559 0
M  V30 6727 H 668.236 -4.33791 0.0272253 0
M  V30 6728 H 668.907 -5.3812 -1.23006 0
M  V30 6729 H 671.383 -3.63002 -2.03393 0
M  V30 6730 H 670.259 -4.55576 -3.06172 0
M  V30 6731 H 670.52 -2.84833 -3.38116 0
M  V30 6732 N 669.579 0.400081 -1.52437 0
M  V30 6733 C 670.825 1.14788 -1.67187 0
M  V30 6734 C 671.158 1.89928 -0.405074 0
M  V30 6735 O 670.433 1.85118 0.596804 0
M  V30 6736 C 670.716 2.13507 -2.89977 0
M  V30 6737 C 670.569 1.42204 -4.2673 0
M  V30 6738 C 671.888 3.14069 -3.083 0
M  V30 6739 H 669.007 0.415939 -0.608411 0
M  V30 6740 H 671.649 0.432542 -1.85011 0
M  V30 6741 H 669.799 2.7451 -2.74912 0
M  V30 6742 H 671.471 0.842503 -4.53541 0
M  V30 6743 H 669.714 0.723939 -4.27717 0
M  V30 6744 H 670.385 2.14281 -5.08712 0
M  V30 6745 H 672.861 2.63148 -3.22323 0
M  V30 6746 H 671.737 3.80398 -3.95713 0
M  V30 6747 H 671.998 3.82309 -2.22018 0
M  V30 6748 N 671.057 1.43213 0.657864 0
M  V30 6749 C 671.967 1.50448 1.80007 0
M  V30 6750 C 672.983 0.39191 1.69529 0
M  V30 6751 O 674.159 0.645349 1.90781 0
M  V30 6752 C 671.224 1.42062 3.16258 0
M  V30 6753 C 670.285 2.63951 3.38568 0
M  V30 6754 C 669.518 2.55956 4.68318 0
M  V30 6755 O 669.741 1.60473 5.47361 0
M  V30 6756 O 668.675 3.46378 4.92245 0
M  V30 6757 H 672.501 2.4689 1.76858 0
M  V30 6758 H 670.086 1.25163 0.81576 0
M  V30 6759 H 671.968 1.3981 3.97531 0
M  V30 6760 H 670.643 0.487524 3.20008 0
M  V30 6761 H 669.55 2.71776 2.57077 0
M  V30 6762 H 670.883 3.56217 3.39662 0
M  V30 6763 N 672.536 -0.895792 1.29666 0
M  V30 6764 C 673.499 -1.98189 1.15124 0
M  V30 6765 C 674.499 -1.60572 0.0855717 0
M  V30 6766 O 675.689 -1.70991 0.332826 0
M  V30 6767 C 672.821 -3.32289 0.761372 0
M  V30 6768 H 674.014 -2.12518 2.11603 0
M  V30 6769 H 671.567 -1.0808 1.12908 0
M  V30 6770 H 672.302 -3.23662 -0.203393 0
M  V30 6771 H 672.087 -3.60958 1.53139 0
M  V30 6772 H 673.577 -4.1198 0.682792 0
M  V30 6773 N 674.014 -1.12206 -1.10668 0
M  V30 6774 C 674.944 -0.810086 -2.18997 0
M  V30 6775 C 675.925 0.225065 -1.68604 0
M  V30 6776 O 677.11 0.086783 -1.94006 0
M  V30 6777 C 674.24 -0.261262 -3.46316 0
M  V30 6778 C 673.194 -1.2292 -4.09969 0
M  V30 6779 C 672.52 -0.540713 -5.31959 0
M  V30 6780 C 673.82 -2.58295 -4.53962 0
M  V30 6781 H 675.514 -1.7159 -2.45352 0
M  V30 6782 H 673.06 -0.82646 -1.17922 0
M  V30 6783 H 675.013 -0.0307522 -4.21389 0
M  V30 6784 H 673.737 0.679879 -3.19445 0
M  V30 6785 H 672.396 -1.44548 -3.369 0
M  V30 6786 H 672.044 0.405492 -5.01363 0
M  V30 6787 H 671.744 -1.18637 -5.75499 0
M  V30 6788 H 673.268 -0.319184 -6.09765 0
M  V30 6789 H 674.682 -2.40709 -5.20319 0
M  V30 6790 H 673.079 -3.18916 -5.08343 0
M  V30 6791 H 674.149 -3.16918 -3.67002 0
M  V30 6792 N 675.492 1.28418 -0.913599 0
M  V30 6793 C 676.44 2.29272 -0.392037 0
M  V30 6794 C 677.434 1.61344 0.516198 0
M  V30 6795 O 678.64 1.75557 0.39746 0
M  V30 6796 H 675.015 0.744178 -0.108178 0
M  V30 6797 H 676.986 2.70691 -1.25574 0
M  V30 6798 C 675.735 3.45905 0.352815 0
M  V30 6799 H 675.058 3.98378 -0.336848 0
M  V30 6800 H 676.498 4.18473 0.682398 0
M  V30 6801 C 674.957 2.98572 1.56065 0
M  V30 6802 O 675.487 3.01033 2.65974 0
M  V30 6803 N 673.693 2.54235 1.40759 0
M  V30 6804 H 673.24 2.52432 0.513403 0
M  V30 6805 H 673.198 2.22925 2.21702 0
M  V30 6806 N 676.97 0.677563 1.42291 0
M  V30 6807 C 678.198 0.209459 2.05837 0
M  V30 6808 C 678.613 -1.13444 1.50917 0
M  V30 6809 O 677.97 -1.70529 0.65008 0
M  V30 6810 C 678.021 0.138819 3.61233 0
M  V30 6811 O 677.742 1.42962 4.14118 0
M  V30 6812 C 679.243 -0.352449 4.41897 0
M  V30 6813 H 676.463 0.101209 0.663323 0
M  V30 6814 H 679.007 0.925077 1.8238 0
M  V30 6815 H 677.162 -0.527505 3.83792 0
M  V30 6816 H 677.576 1.3048 5.08011 0
M  V30 6817 H 679.05 -0.350778 5.50884 0
M  V30 6818 H 679.527 -1.3882 4.16684 0
M  V30 6819 H 680.133 0.282236 4.24362 0
M  V30 6820 N 678.448 -1.51871 0.421078 0
M  V30 6821 C 679.696 -2.01539 -0.150492 0
M  V30 6822 C 680.017 -1.30803 -1.44623 0
M  V30 6823 O 679.287 -0.437568 -1.90951 0
M  V30 6824 H 677.867 -0.744698 -0.0586041 0
M  V30 6825 H 680.529 -1.8668 0.560059 0
M  V30 6826 H 679.625 -3.10264 -0.338068 0
M  V30 6827 N 679.926 -0.151884 -1.56866 0
M  V30 6828 C 680.856 0.781943 -2.20018 0
M  V30 6829 C 681.837 1.25347 -1.14987 0
M  V30 6830 O 683.022 1.31015 -1.43348 0
M  V30 6831 C 680.152 2.01928 -2.82564 0
M  V30 6832 C 679.106 1.68434 -3.93464 0
M  V30 6833 C 678.432 2.99472 -4.42968 0
M  V30 6834 C 679.732 0.927244 -5.14003 0
M  V30 6835 H 681.426 0.255607 -2.98307 0
M  V30 6836 H 678.972 0.121502 -1.43486 0
M  V30 6837 H 680.925 2.67741 -3.25411 0
M  V30 6838 H 679.649 2.56943 -2.01614 0
M  V30 6839 H 678.308 1.04998 -3.51242 0
M  V30 6840 H 677.956 3.52488 -3.58834 0
M  V30 6841 H 677.656 2.77823 -5.17772 0
M  V30 6842 H 679.18 3.66348 -4.88489 0
M  V30 6843 H 680.594 1.48756 -5.53665 0
M  V30 6844 H 678.991 0.810513 -5.94601 0
M  V30 6845 H 680.061 -0.0801163 -4.84834 0
M  V30 6846 N 681.404 1.57128 0.121893 0
M  V30 6847 C 682.367 1.99197 1.13372 0
M  V30 6848 C 683.367 0.881728 1.3447 0
M  V30 6849 O 684.557 1.14783 1.31036 0
M  V30 6850 C 681.689 2.32963 2.4888 0
M  V30 6851 H 682.882 2.89788 0.772204 0
M  V30 6852 H 680.435 1.51952 0.366093 0
M  V30 6853 H 681.17 1.45243 2.89957 0
M  V30 6854 H 680.955 3.13934 2.34921 0
M  V30 6855 H 682.445 2.66261 3.21706 0
M  V30 6856 N 682.882 -0.391992 1.52647 0
M  V30 6857 C 683.814 -1.49811 1.73463 0
M  V30 6858 C 684.827 -1.50734 0.615078 0
M  V30 6859 O 686.016 -1.5469 0.890696 0
M  V30 6860 C 683.116 -2.88667 1.77552 0
M  V30 6861 C 682.289 -3.11743 3.06815 0
M  V30 6862 C 681.348 -4.30564 3.02491 0
M  V30 6863 O 680.374 -4.27014 3.76361 0
M  V30 6864 N 681.576 -5.36593 2.21468 0
M  V30 6865 H 684.341 -1.32343 2.68897 0
M  V30 6866 H 681.902 -0.581475 1.51098 0
M  V30 6867 H 683.894 -3.66251 1.7217 0
M  V30 6868 H 682.464 -2.99508 0.895181 0
M  V30 6869 H 681.684 -2.2205 3.25711 0
M  V30 6870 H 682.972 -3.24013 3.92292 0
M  V30 6871 H 682.37 -5.42332 1.60913 0
M  V30 6872 H 680.927 -6.12855 2.21928 0
M  V30 6873 N 684.36 -1.4356 -0.65026 0
M  V30 6874 C 685.293 -1.434 -1.77515 0
M  V30 6875 C 686.271 -0.295082 -1.599 0
M  V30 6876 O 687.455 -0.489128 -1.82043 0
M  V30 6877 C 684.582 -1.2484 -3.14853 0
M  V30 6878 C 683.628 -2.42046 -3.51163 0
M  V30 6879 S 684.461 -4.04595 -3.50803 0
M  V30 6880 C 685.617 -3.88424 -4.90793 0
M  V30 6881 H 685.85 -2.38586 -1.77381 0
M  V30 6882 H 683.383 -1.30627 -0.823169 0
M  V30 6883 H 685.341 -1.14819 -3.94115 0
M  V30 6884 H 684.002 -0.311977 -3.12547 0
M  V30 6885 H 683.195 -2.24873 -4.51052 0
M  V30 6886 H 682.797 -2.48708 -2.79321 0
M  V30 6887 H 685.089 -3.50932 -5.79528 0
M  V30 6888 H 686.032 -4.88076 -5.13018 0
M  V30 6889 H 686.44 -3.20829 -4.64467 0
M  V30 6890 N 685.838 0.888903 -1.30139 0
M  V30 6891 C 686.785 1.99422 -1.16188 0
M  V30 6892 C 687.755 1.66017 -0.0523869 0
M  V30 6893 O 688.94 1.89506 -0.221864 0
M  V30 6894 C 686.08 3.34325 -0.855612 0
M  V30 6895 C 685.193 3.80445 -2.0466 0
M  V30 6896 C 684.328 5.03975 -1.67876 0
M  V30 6897 C 683.367 5.42492 -2.83493 0
M  V30 6898 N 682.504 6.57206 -2.47032 0
M  V30 6899 H 687.344 2.10687 -2.10749 0
M  V30 6900 H 684.881 1.03165 -1.04859 0
M  V30 6901 H 686.839 4.11968 -0.658681 0
M  V30 6902 H 685.469 3.22756 0.0531155 0
M  V30 6903 H 684.521 2.98745 -2.3549 0
M  V30 6904 H 685.833 4.04933 -2.91257 0
M  V30 6905 H 684.987 5.89232 -1.44535 0
M  V30 6906 H 683.726 4.8135 -0.784431 0
M  V30 6907 H 682.731 4.55764 -3.07505 0
M  V30 6908 H 683.956 5.67093 -3.73607 0
M  V30 6909 H 681.902 6.36164 -1.601 0
M  V30 6910 H 681.819 6.81543 -3.27161 0
M  V30 6911 H 683.087 7.45704 -2.27038 0
M  V30 6912 N 687.317 1.12792 1.10072 0
M  V30 6913 C 688.564 0.885545 1.82111 0
M  V30 6914 C 688.892 -0.588519 1.85383 0
M  V30 6915 O 688.147 -1.45124 1.31292 0
M  V30 6916 C 688.446 1.4102 3.28403 0
M  V30 6917 C 688.112 2.89995 3.45273 0
M  V30 6918 C 686.774 3.30671 3.49585 0
M  V30 6919 C 689.126 3.85874 3.50358 0
M  V30 6920 C 686.454 4.65925 3.56553 0
M  V30 6921 C 688.806 5.20963 3.58859 0
M  V30 6922 C 687.47 5.61177 3.61437 0
M  V30 6923 H 686.74 0.324044 0.666391 0
M  V30 6924 H 689.387 1.40874 1.29718 0
M  V30 6925 H 687.692 0.807551 3.83387 0
M  V30 6926 H 689.389 1.19882 3.82661 0
M  V30 6927 H 685.979 2.57537 3.42597 0
M  V30 6928 H 690.163 3.5554 3.46273 0
M  V30 6929 H 685.419 4.96468 3.56833 0
M  V30 6930 H 689.593 5.95079 3.61738 0
M  V30 6931 H 687.22 6.6597 3.66589 0
M  V30 6932 N 688.795 -1.27931 0.920396 0
M  V30 6933 C 690.025 -1.98516 0.572256 0
M  V30 6934 C 690.433 -1.68912 -0.852375 0
M  V30 6935 O 689.776 -0.94203 -1.57707 0
M  V30 6936 C 689.838 -3.5243 0.709485 0
M  V30 6937 C 689.502 -4.0564 2.10489 0
M  V30 6938 C 690.499 -4.1897 3.07831 0
M  V30 6939 C 688.184 -4.40168 2.41986 0
M  V30 6940 C 690.178 -4.66093 4.34783 0
M  V30 6941 C 687.865 -4.86983 3.69176 0
M  V30 6942 C 688.863 -4.99903 4.65388 0
M  V30 6943 O 688.551 -5.45694 5.90316 0
M  V30 6944 H 688.283 -0.64047 0.216274 0
M  V30 6945 H 690.837 -1.6393 1.23758 0
M  V30 6946 H 689.067 -3.86698 -0.0129263 0
M  V30 6947 H 690.756 -4.04233 0.367474 0
M  V30 6948 H 691.522 -3.92562 2.84816 0
M  V30 6949 H 687.401 -4.29358 1.67846 0
M  V30 6950 H 690.945 -4.76092 5.09884 0
M  V30 6951 H 686.842 -5.12832 3.92012 0
M  V30 6952 H 687.61 -5.63965 5.932 0
M  V30 6953 N 690.273 -0.685099 -1.4193 0
M  V30 6954 C 691.521 -0.21124 -2.00993 0
M  V30 6955 C 691.842 1.18985 -1.54491 0
M  V30 6956 O 691.112 1.8009 -0.771 0
M  V30 6957 H 689.692 -0.0751059 -0.743215 0
M  V30 6958 H 692.354 -0.883915 -1.73704 0
M  V30 6959 H 691.45 -0.220513 -3.1132 0
M  V30 6960 N 691.751 1.51645 -0.429126 0
M  V30 6961 C 692.999 2.01616 0.139802 0
M  V30 6962 C 693.32 1.31568 1.43927 0
M  V30 6963 O 692.59 0.447688 1.90716 0
M  V30 6964 H 691.17 0.744998 0.054654 0
M  V30 6965 H 693.832 1.8638 -0.569952 0
M  V30 6966 H 692.928 3.10439 0.321609 0
M  V30 6967 N 693.229 0.160201 1.56784 0
M  V30 6968 C 694.192 -0.760405 2.16219 0
M  V30 6969 C 695.192 -1.16595 1.10735 0
M  V30 6970 O 696.382 -1.08472 1.36306 0
M  V30 6971 C 693.514 -2.03358 2.73603 0
M  V30 6972 H 694.707 -0.243173 2.98912 0
M  V30 6973 H 692.26 -0.0893139 1.56045 0
M  V30 6974 H 692.995 -2.59416 1.94612 0
M  V30 6975 H 692.78 -1.75186 3.50788 0
M  V30 6976 H 694.27 -2.69081 3.19351 0
M  V30 6977 N 694.707 -1.5719 -0.113559 0
M  V30 6978 C 695.984 -1.76117 -0.850999 0
M  V30 6979 C 696.364 -0.737085 -1.97814 0
M  V30 6980 O 695.712 0.237942 -2.27258 0
M  V30 6981 C 695.922 -3.21298 -1.36266 0
M  V30 6982 C 697.27 -3.83955 -1.81283 0
M  V30 6983 O 698.294 -3.24934 -1.45933 0
M  V30 6984 O 697.153 -4.87707 -2.46585 0
M  V30 6985 H 694.247 -0.721308 -0.404529 0
M  V30 6986 H 696.793 -1.69423 -0.0968756 0
M  V30 6987 H 695.565 -3.87355 -0.554235 0
M  V30 6988 H 695.188 -3.32552 -2.17933 0
M  V30 6989 N 696.185 0.383891 -1.52853 0
M  V30 6990 C 697.095 1.49343 -1.80925 0
M  V30 6991 C 698.111 1.59458 -0.696348 0
M  V30 6992 O 699.287 1.75698 -0.984481 0
M  V30 6993 C 696.352 2.84819 -1.97684 0
M  V30 6994 C 695.413 2.84382 -3.21598 0
M  V30 6995 C 694.646 4.13397 -3.37548 0
M  V30 6996 O 694.869 5.08619 -2.58192 0
M  V30 6997 O 693.803 4.20325 -4.30826 0
M  V30 6998 H 697.629 1.2855 -2.75152 0
M  V30 6999 H 695.214 0.572229 -1.38007 0
M  V30 7000 H 697.096 3.65125 -2.10385 0
M  V30 7001 H 695.771 3.05627 -1.06647 0
M  V30 7002 H 694.678 2.0284 -3.14336 0
M  V30 7003 H 696.011 2.68526 -4.12498 0
M  V30 7004 N 697.663 1.43903 0.642637 0
M  V30 7005 C 698.911 1.45791 1.39962 0
M  V30 7006 C 699.232 0.0873144 1.94804 0
M  V30 7007 O 698.502 -0.878825 1.75081 0
M  V30 7008 H 697.082 0.536797 0.519479 0
M  V30 7009 H 699.744 1.7959 0.757189 0
M  V30 7010 H 698.84 2.17665 2.2367 0
M  V30 7011 N 699.141 -0.881989 1.30609 0
M  V30 7012 C 700.418 -1.61563 1.10258 0
M  V30 7013 C 700.798 -2.08228 -0.347053 0
M  V30 7014 O 700.146 -1.85151 -1.33908 0
M  V30 7015 C 700.356 -2.78287 2.10612 0
M  V30 7016 C 701.704 -3.48545 2.4249 0
M  V30 7017 O 702.728 -2.88479 2.08945 0
M  V30 7018 O 701.587 -4.56873 2.99883 0
M  V30 7019 H 698.681 -0.710238 0.423663 0
M  V30 7020 H 701.227 -0.928503 1.42045 0
M  V30 7021 H 699.999 -2.41131 3.08174 0
M  V30 7022 H 699.622 -3.54695 1.79659 0
M  V30 7023 N 700.619 -1.13374 -1.09472 0
M  V30 7024 C 702.035 -0.871846 -1.33682 0
M  V30 7025 C 702.235 0.492847 -1.9538 0
M  V30 7026 O 701.291 1.23946 -2.19985 0
M  V30 7027 C 702.604 -1.99608 -2.24893 0
M  V30 7028 C 704.152 -2.02812 -2.38404 0
M  V30 7029 C 704.627 -3.14497 -3.3295 0
M  V30 7030 N 706.118 -3.14004 -3.40523 0
M  V30 7031 C 706.853 -3.97061 -4.13679 0
M  V30 7032 N 706.349 -4.90131 -4.89636 0
M  V30 7033 N 708.142 -3.85162 -4.09398 0
M  V30 7034 H 700.293 -2.01288 -0.677995 0
M  V30 7035 H 702.556 -0.876492 -0.361201 0
M  V30 7036 H 702.262 -2.98 -1.86786 0
M  V30 7037 H 702.136 -1.90981 -3.25278 0
M  V30 7038 H 704.523 -1.05034 -2.75775 0
M  V30 7039 H 704.604 -2.15511 -1.37799 0
M  V30 7040 H 704.248 -4.12514 -2.96302 0
M  V30 7041 H 704.178 -2.99035 -4.33458 0
M  V30 7042 H 706.669 -2.46587 -2.86362 0
M  V30 7043 H 706.982 -5.49996 -5.42885 0
M  V30 7044 H 705.327 -4.94138 -4.88726 0
M  V30 7045 H 708.518 -3.11779 -3.49158 0
M  V30 7046 H 708.691 -4.5012 -4.6615 0
M  V30 7047 N 702.098 1.27442 -0.927168 0
M  V30 7048 C 703.326 1.98498 -0.583622 0
M  V30 7049 C 703.741 1.69171 0.838241 0
M  V30 7050 O 703.098 0.951969 1.55704 0
M  V30 7051 C 703.149 3.52552 -0.799341 0
M  V30 7052 O 702.87 3.80851 -2.16527 0
M  V30 7053 C 704.371 4.4086 -0.464436 0
M  V30 7054 H 701.591 0.633487 -0.221213 0
M  V30 7055 H 704.135 1.62308 -1.24404 0
M  V30 7056 H 702.29 3.86955 -0.185728 0
M  V30 7057 H 702.704 4.75441 -2.21487 0
M  V30 7058 H 704.178 5.47967 -0.666075 0
M  V30 7059 H 704.655 4.35082 0.599995 0
M  V30 7060 H 705.261 4.11977 -1.05617 0
M  V30 7061 N 703.576 0.692616 1.41565 0
M  V30 7062 C 704.509 -0.025063 2.28186 0
M  V30 7063 C 705.487 -0.790912 1.42068 0
M  V30 7064 O 706.671 -0.782344 1.71498 0
M  V30 7065 C 703.798 -1.04285 3.22246 0
M  V30 7066 C 702.844 -0.370515 4.24888 0
M  V30 7067 S 703.677 0.884942 5.28137 0
M  V30 7068 C 704.833 -0.131324 6.25762 0
M  V30 7069 H 705.066 0.709626 2.88707 0
M  V30 7070 H 702.599 0.482783 1.46658 0
M  V30 7071 H 704.557 -1.62493 3.7697 0
M  V30 7072 H 703.218 -1.7501 2.60827 0
M  V30 7073 H 702.411 -1.13911 4.90959 0
M  V30 7074 H 702.013 0.138411 3.73744 0
M  V30 7075 H 704.305 -0.985527 6.70294 0
M  V30 7076 H 705.248 0.495384 7.06365 0
M  V30 7077 H 705.656 -0.484777 5.62415 0
M  V30 7078 N 705.054 -1.51416 0.437162 0
M  V30 7079 C 706.303 -2.01275 -0.130865 0
M  V30 7080 C 706.616 -1.32593 -1.438 0
M  V30 7081 O 707.822 -1.7342 -2.08897 0
M  V30 7082 C 706.278 -3.5878 -0.283763 0
M  V30 7083 C 705.886 -4.36399 1.01293 0
M  V30 7084 C 707.63 -4.16786 -0.805569 0
M  V30 7085 C 705.537 -5.85608 0.825687 0
M  V30 7086 H 704.467 -0.752157 -0.0526818 0
M  V30 7087 H 707.118 -1.74524 0.566896 0
M  V30 7088 H 705.5 -3.81976 -1.04452 0
M  V30 7089 H 706.674 -4.24948 1.78201 0
M  V30 7090 H 704.989 -3.89843 1.46326 0
M  V30 7091 H 707.586 -5.25972 -0.962146 0
M  V30 7092 H 707.929 -3.75949 -1.78796 0
M  V30 7093 H 708.462 -3.97666 -0.103125 0
M  V30 7094 H 705.201 -6.30857 1.78045 0
M  V30 7095 H 704.721 -5.99723 0.0964029 0
M  V30 7096 H 706.4 -6.45226 0.478815 0
M  V30 7097 N 706.532 -0.168513 -1.56696 0
M  V30 7098 C 707.809 0.523367 -1.88468 0
M  V30 7099 C 708.189 1.81503 -1.07796 0
M  V30 7100 O 707.537 2.27859 -0.171045 0
M  V30 7101 C 707.747 0.767991 -3.40445 0
M  V30 7102 C 709.095 1.09924 -4.10124 0
M  V30 7103 O 710.119 0.856625 -3.45746 0
M  V30 7104 O 708.978 1.55681 -5.23856 0
M  V30 7105 H 706.072 0.269447 -0.781874 0
M  V30 7106 H 708.618 -0.206739 -1.68436 0
M  V30 7107 H 707.39 -0.145254 -3.9103 0
M  V30 7108 H 707.013 1.55151 -3.66079 0
M  V30 7109 N 708.01 1.57248 0.105221 0
M  V30 7110 C 708.973 2.00388 1.11252 0
M  V30 7111 C 709.973 0.89594 1.33527 0
M  V30 7112 O 711.163 1.16166 1.29811 0
M  V30 7113 C 708.295 2.35589 2.46395 0
M  V30 7114 H 709.488 2.90591 0.741424 0
M  V30 7115 H 707.041 1.52332 0.349956 0
M  V30 7116 H 707.776 1.4831 2.884 0
M  V30 7117 H 707.561 3.16408 2.31578 0
M  V30 7118 H 709.051 2.69658 3.18864 0
M  V30 7119 N 709.488 -0.375779 1.53054 0
M  V30 7120 C 710.418 -1.46598 1.81745 0
M  V30 7121 C 711.399 -1.56337 0.670286 0
M  V30 7122 O 712.584 -1.71071 0.919158 0
M  V30 7123 C 709.714 -2.84058 1.99821 0
M  V30 7124 C 708.668 -2.8915 3.15557 0
M  V30 7125 C 707.994 -4.29187 3.18908 0
M  V30 7126 C 709.294 -2.57595 4.54359 0
M  V30 7127 H 710.988 -1.22837 2.73041 0
M  V30 7128 H 708.534 -0.589485 1.31381 0
M  V30 7129 H 710.487 -3.60342 2.18475 0
M  V30 7130 H 709.211 -3.09184 1.05226 0
M  V30 7131 H 707.87 -2.15316 2.96706 0
M  V30 7132 H 707.518 -4.51374 2.2197 0
M  V30 7133 H 707.218 -4.33512 3.96662 0
M  V30 7134 H 708.742 -5.07359 3.39734 0
M  V30 7135 H 710.156 -3.23595 4.73243 0
M  V30 7136 H 708.553 -2.73252 5.34279 0
M  V30 7137 H 709.623 -1.52882 4.60169 0
M  V30 7138 N 710.966 -1.44241 -0.634997 0
M  V30 7139 C 711.898 -1.46793 -1.76024 0
M  V30 7140 C 712.911 -0.361781 -1.58729 0
M  V30 7141 O 714.1 -0.627297 -1.67114 0
M  V30 7142 C 711.2 -1.28248 -3.13697 0
M  V30 7143 C 710.373 -2.52038 -3.57485 0
M  V30 7144 C 709.432 -2.2845 -4.74022 0
M  V30 7145 O 708.458 -3.01915 -4.82531 0
M  V30 7146 N 709.66 -1.31264 -5.65464 0
M  V30 7147 H 712.425 -2.43797 -1.74307 0
M  V30 7148 H 709.986 -1.39631 -0.819438 0
M  V30 7149 H 711.978 -1.10321 -3.89373 0
M  V30 7150 H 710.548 -0.39623 -3.10079 0
M  V30 7151 H 709.768 -2.85268 -2.72059 0
M  V30 7152 H 711.056 -3.34382 -3.83492 0
M  V30 7153 H 710.454 -0.705817 -5.6128 0
M  V30 7154 H 709.011 -1.19316 -6.40786 0
M  V30 7155 N 712.444 0.87505 -1.31075 0
M  V30 7156 C 713.855 1.4433 -1.18431 0
M  V30 7157 C 714.206 1.9506 0.211189 0
M  V30 7158 O 713.331 1.85847 1.10859 0
M  V30 7159 C 713.926 2.62341 -2.14389 0
M  V30 7160 C 712.485 3.15225 -2.05694 0
M  V30 7161 C 711.632 1.87929 -2.03907 0
M  V30 7162 H 714.583 0.684061 -1.432 0
M  V30 7163 H 714.604 3.3887 -1.73053 0
M  V30 7164 H 714.116 2.25388 -3.15946 0
M  V30 7165 H 712.217 3.56812 -1.07314 0
M  V30 7166 H 712.33 3.77853 -2.94558 0
M  V30 7167 H 710.694 2.06679 -1.48849 0
M  V30 7168 H 711.477 1.53221 -3.07211 0
M  V30 7169 N 713.922 1.13953 1.08869 0
M  V30 7170 C 714.885 0.824991 2.13838 0
M  V30 7171 C 715.885 -0.168198 1.59918 0
M  V30 7172 O 717.075 0.0595778 1.74098 0
M  V30 7173 C 714.207 0.228938 3.4013 0
M  V30 7174 H 715.4 1.75521 2.43171 0
M  V30 7175 H 712.953 0.94492 1.24503 0
M  V30 7176 H 713.688 -0.710227 3.16427 0
M  V30 7177 H 713.473 0.944243 3.80561 0
M  V30 7178 H 714.963 0.0259223 4.17592 0
M  V30 7179 N 715.4 -1.26948 0.933913 0
M  V30 7180 C 716.33 -2.29017 0.45534 0
M  V30 7181 C 717.311 -1.62961 -0.487605 0
M  V30 7182 O 718.496 -1.90223 -0.391022 0
M  V30 7183 C 715.626 -3.46112 -0.287015 0
M  V30 7184 C 714.58 -4.24205 0.568682 0
M  V30 7185 C 713.906 -5.3384 -0.303206 0
M  V30 7186 C 715.206 -4.88954 1.83633 0
M  V30 7187 H 716.9 -2.69298 1.30839 0
M  V30 7188 H 714.446 -1.29459 0.630579 0
M  V30 7189 H 716.399 -4.16622 -0.6328 0
M  V30 7190 H 715.123 -3.04765 -1.17414 0
M  V30 7191 H 713.782 -3.5545 0.897261 0
M  V30 7192 H 713.43 -4.88734 -1.18947 0
M  V30 7193 H 713.13 -5.86998 0.265879 0
M  V30 7194 H 714.654 -6.0719 -0.644423 0
M  V30 7195 H 716.068 -5.51717 1.55823 0
M  V30 7196 H 714.465 -5.52198 2.34941 0
M  V30 7197 H 715.535 -4.12305 2.55211 0
M  V30 7198 N 716.879 -0.700114 -1.41195 0
M  V30 7199 C 718.107 -0.242179 -2.05478 0
M  V30 7200 C 718.522 1.11029 -1.52702 0
M  V30 7201 O 717.879 1.69473 -0.677127 0
M  V30 7202 C 717.93 -0.196271 -3.60967 0
M  V30 7203 O 717.651 -1.49532 -4.11791 0
M  V30 7204 C 719.152 0.282102 -4.42401 0
M  V30 7205 H 716.372 -0.111749 -0.661629 0
M  V30 7206 H 718.916 -0.953975 -1.80885 0
M  V30 7207 H 717.071 0.46638 -3.84582 0
M  V30 7208 H 717.485 -1.38545 -5.05871 0
M  V30 7209 H 718.959 0.263093 -5.51373 0
M  V30 7210 H 719.436 1.32174 -4.1884 0
M  V30 7211 H 720.042 -0.349712 -4.2386 0
M  V30 7212 N 718.357 1.51182 -0.445186 0
M  V30 7213 C 719.582 2.07056 0.119445 0
M  V30 7214 C 720.007 1.30966 1.35016 0
M  V30 7215 O 719.365 0.349827 1.77893 0
M  V30 7216 C 719.413 3.58234 0.412428 0
M  V30 7217 O 718.517 3.84249 1.49754 0
M  V30 7218 H 717.858 0.663998 -0.00157797 0
M  V30 7219 H 720.388 1.94699 -0.628779 0
M  V30 7220 H 720.398 4.02617 0.660583 0
M  V30 7221 H 719.073 4.13038 -0.487049 0
M  V30 7222 H 717.65 3.51724 1.23873 0
M  V30 7223 N 719.835 0.176821 1.56605 0
M  V30 7224 C 720.765 -0.746841 2.21234 0
M  V30 7225 C 721.746 -1.23502 1.16967 0
M  V30 7226 O 722.931 -1.28718 1.45414 0
M  V30 7227 C 720.061 -1.97407 2.8574 0
M  V30 7228 C 719.015 -1.62153 3.96094 0
M  V30 7229 C 718.341 -2.92387 4.47676 0
M  V30 7230 C 719.641 -0.845353 5.15413 0
M  V30 7231 H 721.335 -0.208116 2.98676 0
M  V30 7232 H 718.881 -0.0986594 1.43662 0
M  V30 7233 H 720.834 -2.62531 3.2963 0
M  V30 7234 H 719.558 -2.53703 2.05676 0
M  V30 7235 H 718.217 -0.993964 3.52868 0
M  V30 7236 H 717.865 -3.46734 3.64396 0
M  V30 7237 H 717.565 -2.69551 5.22127 0
M  V30 7238 H 719.089 -3.5853 4.94255 0
M  V30 7239 H 720.503 -1.39929 5.55961 0
M  V30 7240 H 718.9 -0.715814 5.95815 0
M  V30 7241 H 719.97 0.157239 4.84645 0
M  V30 7242 N 721.313 -1.57302 -0.09688 0
M  V30 7243 C 722.243 -2.0497 -1.11846 0
M  V30 7244 C 723.224 -0.938278 -1.41882 0
M  V30 7245 O 724.409 -1.20943 -1.51942 0
M  V30 7246 C 721.539 -2.47264 -2.43881 0
M  V30 7247 C 720.493 -3.62053 -2.28257 0
M  V30 7248 C 719.819 -3.90318 -3.65453 0
M  V30 7249 C 721.119 -4.93005 -1.72461 0
M  V30 7250 H 722.813 -2.90567 -0.721888 0
M  V30 7251 H 720.359 -1.39786 -0.345803 0
M  V30 7252 H 722.312 -2.7922 -3.15617 0
M  V30 7253 H 721.036 -1.58664 -2.8547 0
M  V30 7254 H 719.695 -3.30341 -1.58967 0
M  V30 7255 H 719.343 -2.98889 -4.04567 0
M  V30 7256 H 719.043 -4.67597 -3.55846 0
M  V30 7257 H 720.567 -4.24747 -4.3866 0
M  V30 7258 H 721.981 -5.23354 -2.34036 0
M  V30 7259 H 720.378 -5.74436 -1.73618 0
M  V30 7260 H 721.448 -4.80053 -0.683898 0
M  V30 7261 N 722.791 0.367657 -1.53252 0
M  V30 7262 C 723.754 1.43308 -1.78873 0
M  V30 7263 C 724.754 1.46671 -0.659115 0
M  V30 7264 O 725.944 1.47468 -0.927306 0
M  V30 7265 C 723.076 2.82442 -1.90892 0
M  V30 7266 H 724.269 1.21864 -2.74024 0
M  V30 7267 H 721.822 0.600668 -1.44297 0
M  V30 7268 H 722.557 3.09202 -0.978 0
M  V30 7269 H 722.342 2.81399 -2.73051 0
M  V30 7270 H 723.832 3.59601 -2.12314 0
M  V30 7271 N 724.269 1.44576 0.627338 0
M  V30 7272 C 725.201 1.47724 1.75243 0
M  V30 7273 C 726.214 0.370193 1.58535 0
M  V30 7274 O 727.403 0.636151 1.66779 0
M  V30 7275 C 724.503 1.2991 3.13012 0
M  V30 7276 C 723.676 2.5393 3.56143 0
M  V30 7277 C 722.735 2.30961 4.72804 0
M  V30 7278 O 721.761 3.04469 4.80923 0
M  V30 7279 N 722.963 1.34261 5.6476 0
M  V30 7280 H 725.728 2.44718 1.73012 0
M  V30 7281 H 723.289 1.40064 0.812022 0
M  V30 7282 H 725.281 1.12385 3.88782 0
M  V30 7283 H 723.851 0.412668 3.09864 0
M  V30 7284 H 723.071 2.86707 2.70542 0
M  V30 7285 H 724.359 3.36411 3.81713 0
M  V30 7286 H 723.757 0.735573 5.60897 0
M  V30 7287 H 722.314 1.22713 6.40144 0
M  V30 7288 N 725.747 -0.868086 1.31537 0
M  V30 7289 C 727.158 -1.437 1.19195 0
M  V30 7290 C 727.509 -1.95169 -0.200842 0
M  V30 7291 O 726.634 -1.86432 -1.09872 0
M  V30 7292 C 727.229 -2.612 2.15778 0
M  V30 7293 C 725.788 -3.1413 2.07363 0
M  V30 7294 C 724.935 -1.86845 2.049 0
M  V30 7295 H 727.886 -0.676457 1.43561 0
M  V30 7296 H 727.907 -3.37948 1.74847 0
M  V30 7297 H 727.419 -2.23709 3.17137 0
M  V30 7298 H 725.52 -3.56238 1.09204 0
M  V30 7299 H 725.633 -3.76285 2.96557 0
M  V30 7300 H 723.997 -2.05886 1.49943 0
M  V30 7301 H 724.78 -1.51589 3.08019 0
M  V30 7302 N 727.225 -1.14528 -1.08264 0
M  V30 7303 C 728.172 -0.833556 -2.15222 0
M  V30 7304 C 729.142 0.209539 -1.64773 0
M  V30 7305 O 730.327 0.0791388 -1.90636 0
M  V30 7306 C 727.467 -0.318799 -3.43624 0
M  V30 7307 C 726.58 -1.42237 -4.07913 0
M  V30 7308 C 725.715 -0.864704 -5.24115 0
M  V30 7309 C 724.754 -1.94585 -5.80347 0
M  V30 7310 N 723.891 -1.40525 -6.87893 0
M  V30 7311 H 728.731 -1.74965 -2.41228 0
M  V30 7312 H 726.268 -0.873169 -1.18381 0
M  V30 7313 H 728.226 -0.00213088 -4.172 0
M  V30 7314 H 726.856 0.560397 -3.17898 0
M  V30 7315 H 725.908 -1.8554 -3.32083 0
M  V30 7316 H 727.22 -2.23901 -4.45724 0
M  V30 7317 H 726.374 -0.500025 -6.04636 0
M  V30 7318 H 725.113 -0.0171219 -4.87697 0
M  V30 7319 H 724.118 -2.31946 -4.98479 0
M  V30 7320 H 725.343 -2.79704 -6.18823 0
M  V30 7321 H 723.289 -0.579873 -6.53432 0
M  V30 7322 H 723.206 -2.15825 -7.24538 0
M  V30 7323 H 724.474 -1.06852 -7.72142 0
M  V30 7324 N 728.703 1.26451 -0.940633 0
M  V30 7325 C 729.651 2.28389 -0.440581 0
M  V30 7326 C 730.645 1.62402 0.481859 0
M  V30 7327 O 731.851 1.76361 0.360132 0
M  V30 7328 H 728.226 0.741716 -0.123938 0
M  V30 7329 H 730.197 2.67967 -1.31288 0
M  V30 7330 C 728.946 3.46576 0.279364 0
M  V30 7331 H 728.269 3.97574 -0.421274 0
M  V30 7332 H 729.709 4.19826 0.59348 0
M  V30 7333 C 728.168 3.01815 1.49697 0
M  V30 7334 O 728.698 3.06607 2.59529 0
M  V30 7335 N 726.904 2.57163 1.35334 0
M  V30 7336 H 726.451 2.53464 0.459743 0
M  V30 7337 H 726.409 2.27578 2.16923 0
M  V30 7338 N 730.181 0.707592 1.40822 0
M  V30 7339 C 731.111 0.0644925 2.33411 0
M  V30 7340 C 732.092 -0.754205 1.52466 0
M  V30 7341 O 733.277 -0.704749 1.80961 0
M  V30 7342 C 730.407 -0.863865 3.36385 0
M  V30 7343 C 729.361 -0.15138 4.27732 0
M  V30 7344 C 728.687 -1.19491 5.21177 0
M  V30 7345 C 729.987 0.989607 5.12839 0
M  V30 7346 H 731.681 0.837829 2.87438 0
M  V30 7347 H 729.227 0.404346 1.38207 0
M  V30 7348 H 731.18 -1.32309 4.0009 0
M  V30 7349 H 729.904 -1.66901 2.80734 0
M  V30 7350 H 728.563 0.287937 3.65467 0
M  V30 7351 H 728.211 -1.9929 4.61836 0
M  V30 7352 H 727.911 -0.723123 5.83134 0
M  V30 7353 H 729.435 -1.6544 5.8776 0
M  V30 7354 H 730.849 0.610114 5.70044 0
M  V30 7355 H 729.246 1.38926 5.83798 0
M  V30 7356 H 730.316 1.82389 4.49291 0
M  V30 7357 N 731.66 -1.50943 0.453197 0
M  V30 7358 C 732.592 -2.25922 -0.38623 0
M  V30 7359 C 733.605 -1.3055 -0.972652 0
M  V30 7360 O 734.794 -1.56191 -0.864097 0
M  V30 7361 C 731.894 -3.01176 -1.5539 0
M  V30 7362 C 731.067 -4.23768 -1.0835 0
M  V30 7363 C 730.126 -4.81466 -2.12313 0
M  V30 7364 O 729.152 -5.42875 -1.71101 0
M  V30 7365 N 730.354 -4.66889 -3.44956 0
M  V30 7366 H 733.119 -2.98601 0.256468 0
M  V30 7367 H 730.68 -1.59408 0.282965 0
M  V30 7368 H 732.672 -3.36659 -2.24594 0
M  V30 7369 H 731.242 -2.31409 -2.10163 0
M  V30 7370 H 730.462 -3.93597 -0.217961 0
M  V30 7371 H 731.75 -5.03289 -0.746857 0
M  V30 7372 H 731.148 -4.18011 -3.81161 0
M  V30 7373 H 729.705 -5.06691 -4.1001 0
M  V30 7374 N 733.138 -0.185124 -1.56509 0
M  V30 7375 C 734.101 0.72591 -2.17401 0
M  V30 7376 C 735.101 1.14819 -1.12575 0
M  V30 7377 O 736.291 1.0629 -1.38015 0
M  V30 7378 C 733.423 1.98979 -2.76803 0
M  V30 7379 H 734.616 0.195588 -2.99262 0
M  V30 7380 H 732.169 0.0644772 -1.56167 0
M  V30 7381 H 732.904 2.56287 -1.98714 0
M  V30 7382 H 732.689 1.69583 -3.53531 0
M  V30 7383 H 734.179 2.63966 -3.23592 0
M  V30 7384 N 734.616 1.57351 0.0885366 0
M  V30 7385 C 735.579 2.01557 1.09121 0
M  V30 7386 C 736.579 0.910052 1.3257 0
M  V30 7387 O 737.769 1.17537 1.28572 0
M  V30 7388 C 734.901 2.38189 2.43883 0
M  V30 7389 H 736.094 2.91361 0.710562 0
M  V30 7390 H 733.647 1.52694 0.333779 0
M  V30 7391 H 734.382 1.5136 2.86811 0
M  V30 7392 H 734.167 3.18846 2.28209 0
M  V30 7393 H 735.657 2.73025 3.15986 0
M  V30 7394 N 736.094 -0.359525 1.53444 0
M  V30 7395 C 737.341 -1.10152 1.6992 0
M  V30 7396 C 737.669 -1.89125 0.4541 0
M  V30 7397 O 736.924 -1.87396 -0.564023 0
M  V30 7398 C 737.223 -2.08287 2.90433 0
M  V30 7399 C 736.889 -1.45749 4.26694 0
M  V30 7400 C 735.551 -1.28421 4.63747 0
M  V30 7401 C 737.903 -1.00557 5.11408 0
M  V30 7402 C 735.231 -0.644951 5.83144 0
M  V30 7403 C 737.583 -0.380288 6.31456 0
M  V30 7404 C 736.247 -0.194557 6.67216 0
M  V30 7405 H 735.517 -0.403076 0.621781 0
M  V30 7406 H 738.164 -0.382612 1.87639 0
M  V30 7407 H 736.469 -2.86503 2.67251 0
M  V30 7408 H 738.166 -2.65662 3.00374 0
M  V30 7409 H 734.756 -1.6023 3.97523 0
M  V30 7410 H 738.94 -1.12735 4.83326 0
M  V30 7411 H 734.196 -0.48952 6.09437 0
M  V30 7412 H 738.37 -0.0219455 6.96397 0
M  V30 7413 H 735.997 0.30285 7.59597 0
M  V30 7414 N 737.572 -1.44907 -0.619662 0
M  V30 7415 C 738.849 -1.38766 -1.37852 0
M  V30 7416 C 739.229 -0.0521393 -2.11036 0
M  V30 7417 O 738.577 0.965613 -2.07095 0
M  V30 7418 C 738.787 -2.59344 -2.33541 0
M  V30 7419 C 740.135 -3.03909 -2.96521 0
M  V30 7420 O 741.159 -2.59631 -2.43865 0
M  V30 7421 O 740.018 -3.80713 -3.92071 0
M  V30 7422 H 737.112 -0.550083 -0.617525 0
M  V30 7423 H 739.658 -1.57015 -0.643759 0
M  V30 7424 H 738.43 -3.48142 -1.78642 0
M  V30 7425 H 738.053 -2.43367 -3.14417 0
M  V30 7426 N 739.05 0.861098 -1.31996 0
M  V30 7427 C 740.013 1.95068 -1.20338 0
M  V30 7428 C 741.013 1.60289 -0.128114 0
M  V30 7429 O 742.203 1.70048 -0.378044 0
M  V30 7430 C 739.335 3.30153 -0.849205 0
M  V30 7431 H 740.528 2.06833 -2.17164 0
M  V30 7432 H 738.081 1.05049 -1.15734 0
M  V30 7433 H 738.816 3.24087 0.117508 0
M  V30 7434 H 738.601 3.56771 -1.62655 0
M  V30 7435 H 740.091 4.10025 -0.791782 0
M  V30 7436 N 740.528 1.15101 1.07655 0
M  V30 7437 C 741.491 0.847625 2.12951 0
M  V30 7438 C 742.491 -0.151227 1.60087 0
M  V30 7439 O 743.681 0.0780399 1.74025 0
M  V30 7440 C 740.813 0.265 3.39868 0
M  V30 7441 H 742.006 1.7809 2.41296 0
M  V30 7442 H 739.559 0.958072 1.23494 0
M  V30 7443 H 740.294 -0.676625 3.17163 0
M  V30 7444 H 740.079 0.984554 3.79538 0
M  V30 7445 H 741.569 0.0702121 4.17541 0
M  V30 7446 N 742.006 -1.2595 0.947325 0
M  V30 7447 C 742.938 -2.25336 0.41906 0
M  V30 7448 C 743.951 -1.56135 -0.461051 0
M  V30 7449 O 745.14 -1.76438 -0.270505 0
M  V30 7450 C 742.24 -3.36334 -0.416233 0
M  V30 7451 C 741.413 -4.35088 0.449162 0
M  V30 7452 C 740.472 -5.25185 -0.326716 0
M  V30 7453 O 739.498 -5.68548 0.272374 0
M  V30 7454 N 740.7 -5.57388 -1.6217 0
M  V30 7455 H 743.465 -2.71298 1.27348 0
M  V30 7456 H 741.026 -1.39781 0.81688 0
M  V30 7457 H 743.018 -3.93564 -0.942826 0
M  V30 7458 H 741.588 -2.89819 -1.17148 0
M  V30 7459 H 740.808 -3.76841 1.15692 0
M  V30 7460 H 742.096 -4.98056 1.04008 0
M  V30 7461 H 741.494 -5.2405 -2.13046 0
M  V30 7462 H 740.051 -6.17234 -2.0944 0
M  V30 7463 N 743.484 -0.715051 -1.40445 0
M  V30 7464 C 744.447 -0.0708726 -2.2909 0
M  V30 7465 C 745.447 0.687926 -1.45342 0
M  V30 7466 O 746.637 0.519908 -1.66261 0
M  V30 7467 C 743.769 0.909528 -3.28543 0
M  V30 7468 H 744.962 -0.851611 -2.87555 0
M  V30 7469 H 742.515 -0.479674 -1.48758 0
M  V30 7470 H 743.25 1.71734 -2.75096 0
M  V30 7471 H 743.035 0.368318 -3.90366 0
M  V30 7472 H 744.525 1.35744 -3.94922 0
M  V30 7473 N 744.962 1.50701 -0.461195 0
M  V30 7474 C 746.21 2.01867 0.0970051 0
M  V30 7475 C 746.531 1.34591 1.41104 0
M  V30 7476 O 745.801 0.488041 1.89723 0
M  V30 7477 H 744.381 0.74599 0.0388392 0
M  V30 7478 H 747.043 1.85129 -0.609357 0
M  V30 7479 H 746.139 3.11051 0.255688 0
M  V30 7480 N 746.441 0.193421 1.56409 0
M  V30 7481 C 747.404 -0.714371 2.17783 0
M  V30 7482 C 748.404 -1.1422 1.13183 0
M  V30 7483 O 749.594 -1.05557 1.38576 0
M  V30 7484 C 746.726 -1.97509 2.77855 0
M  V30 7485 H 747.919 -0.179714 2.99361 0
M  V30 7486 H 745.472 -0.0561944 1.56199 0
M  V30 7487 H 746.207 -2.5523 2.0007 0
M  V30 7488 H 745.992 -1.67706 3.54425 0
M  V30 7489 H 747.482 -2.62246 3.24987 0
M  V30 7490 N 747.919 -1.57396 -0.0801906 0
M  V30 7491 C 748.829 -2.06451 -1.11423 0
M  V30 7492 C 749.845 -0.992352 -1.42928 0
M  V30 7493 O 751.021 -1.30651 -1.53272 0
M  V30 7494 C 748.086 -2.49164 -2.41077 0
M  V30 7495 C 747.147 -3.70641 -2.16619 0
M  V30 7496 C 746.38 -4.11307 -3.40092 0
M  V30 7497 O 746.603 -3.51922 -4.48895 0
M  V30 7498 O 745.537 -5.04157 -3.288 0
M  V30 7499 H 749.363 -2.94857 -0.727519 0
M  V30 7500 H 746.948 -1.46484 -0.293743 0
M  V30 7501 H 748.83 -2.77196 -3.17396 0
M  V30 7502 H 747.505 -1.6389 -2.79145 0
M  V30 7503 H 746.412 -3.47703 -1.38033 0
M  V30 7504 H 747.745 -4.5674 -1.83437 0
M  V30 7505 N 749.397 0.351382 -1.53633 0
M  V30 7506 C 750.813 0.693987 -1.43722 0
M  V30 7507 C 751.013 1.9274 -0.587669 0
M  V30 7508 O 750.069 2.52387 -0.0756082 0
M  V30 7509 C 751.382 0.893937 -2.87105 0
M  V30 7510 C 752.93 0.993051 -2.96829 0
M  V30 7511 C 753.405 1.22537 -4.41303 0
M  V30 7512 N 754.896 1.29275 -4.44795 0
M  V30 7513 C 755.631 1.48988 -5.53706 0
M  V30 7514 N 755.127 1.65924 -6.72637 0
M  V30 7515 N 756.92 1.51472 -5.41306 0
M  V30 7516 H 749.071 -0.459688 -2.07366 0
M  V30 7517 H 751.334 -0.143684 -0.937048 0
M  V30 7518 H 751.04 0.0592517 -3.5165 0
M  V30 7519 H 750.914 1.79795 -3.31592 0
M  V30 7520 H 753.301 1.81827 -2.32429 0
M  V30 7521 H 753.382 0.0661119 -2.55715 0
M  V30 7522 H 753.026 0.405117 -5.06282 0
M  V30 7523 H 752.956 2.16575 -4.80003 0
M  V30 7524 H 755.447 1.17743 -3.59089 0
M  V30 7525 H 755.76 1.80578 -7.51406 0
M  V30 7526 H 754.105 1.63075 -6.75597 0
M  V30 7527 H 757.296 1.37818 -4.47352 0
M  V30 7528 H 757.469 1.66493 -6.26246 0
M  V30 7529 N 750.875 1.45233 0.611969 0
M  V30 7530 C 752.103 1.52539 1.39784 0
M  V30 7531 C 752.518 0.156533 1.8815 0
M  V30 7532 O 751.875 -0.84112 1.61961 0
M  V30 7533 C 751.926 2.50614 2.60528 0
M  V30 7534 O 751.647 3.8218 2.14173 0
M  V30 7535 C 753.148 2.67574 3.53439 0
M  V30 7536 H 750.368 0.51674 0.428043 0
M  V30 7537 H 752.912 1.90379 0.746727 0
M  V30 7538 H 751.067 2.15858 3.2169 0
M  V30 7539 H 751.481 4.35305 2.92592 0
M  V30 7540 H 752.955 3.40184 4.34717 0
M  V30 7541 H 753.432 1.73458 4.03496 0
M  V30 7542 H 754.038 3.0331 2.98133 0
M  V30 7543 N 752.353 -0.854086 1.3245 0
M  V30 7544 C 753.593 -1.62216 1.2436 0
M  V30 7545 C 753.957 -1.91042 -0.191564 0
M  V30 7546 O 755.158 -2.65864 -0.396211 0
M  V30 7547 C 753.429 -2.9066 2.0797 0
M  V30 7548 S 754.988 -3.81438 2.16911 0
M  V30 7549 H 751.806 -0.556386 0.442669 0
M  V30 7550 H 754.408 -1.01139 1.67305 0
M  V30 7551 H 753.112 -2.6743 3.11302 0
M  V30 7552 H 752.643 -3.56753 1.65805 0
M  V30 7553 H 754.658 -4.78347 1.31903 0
M  V30 7554 N 753.831 -1.1567 -1.07043 0
M  V30 7555 C 754.761 -0.879348 -2.16309 0
M  V30 7556 C 755.742 0.171311 -1.69235 0
M  V30 7557 O 756.927 0.0250175 -1.94184 0
M  V30 7558 C 754.057 -0.371307 -3.45309 0
M  V30 7559 C 753.011 -1.359 -4.05851 0
M  V30 7560 C 752.337 -0.709678 -5.29969 0
M  V30 7561 C 753.637 -2.72606 -4.45514 0
M  V30 7562 H 755.331 -1.79308 -2.39768 0
M  V30 7563 H 752.877 -0.863558 -1.15233 0
M  V30 7564 H 754.83 -0.164798 -4.21078 0
M  V30 7565 H 753.554 0.577906 -3.21446 0
M  V30 7566 H 752.213 -1.55193 -3.32131 0
M  V30 7567 H 751.861 0.245782 -5.02399 0
M  V30 7568 H 751.561 -1.36886 -5.71433 0
M  V30 7569 H 753.085 -0.513015 -6.08441 0
M  V30 7570 H 754.499 -2.57141 -5.12398 0
M  V30 7571 H 752.896 -3.34927 -4.97939 0
M  V30 7572 H 753.966 -3.28434 -3.56734 0
M  V30 7573 N 755.309 1.25446 -0.953992 0
M  V30 7574 C 756.534 1.97755 -0.625129 0
M  V30 7575 C 756.959 1.70437 0.795787 0
M  V30 7576 O 756.317 0.95992 1.53803 0
M  V30 7577 C 756.365 3.49463 -0.889251 0
M  V30 7578 O 755.469 4.12387 0.0322757 0
M  V30 7579 H 754.81 0.61998 -0.237742 0
M  V30 7580 H 757.34 1.59582 -1.28041 0
M  V30 7581 H 757.35 3.99772 -0.815263 0
M  V30 7582 H 756.025 3.68676 -1.92487 0
M  V30 7583 H 754.602 3.72782 -0.0938625 0
M  V30 7584 N 756.787 0.722489 1.40064 0
M  V30 7585 C 758.012 0.273446 2.05589 0
M  V30 7586 C 758.437 -1.07875 1.54093 0
M  V30 7587 O 757.795 -1.68095 0.679252 0
M  V30 7588 C 757.843 0.271023 3.5958 0
M  V30 7589 O 756.947 -0.745499 4.05606 0
M  V30 7590 H 756.288 0.126856 0.65177 0
M  V30 7591 H 758.818 0.984906 1.79334 0
M  V30 7592 H 758.828 0.111084 4.07849 0
M  V30 7593 H 757.503 1.25776 3.96425 0
M  V30 7594 H 756.08 -0.552719 3.68781 0
M  V30 7595 N 758.265 -1.50454 0.469181 0
M  V30 7596 C 759.212 -2.28486 -0.325982 0
M  V30 7597 C 760.182 -1.33455 -0.988893 0
M  V30 7598 O 761.367 -1.6239 -1.0017 0
M  V30 7599 C 758.507 -3.15288 -1.40313 0
M  V30 7600 C 757.62 -4.25348 -0.755183 0
M  V30 7601 C 756.755 -4.9941 -1.81006 0
M  V30 7602 C 755.794 -6.01348 -1.14226 0
M  V30 7603 N 754.931 -6.68695 -2.1399 0
M  V30 7604 H 759.771 -2.95987 0.345753 0
M  V30 7605 H 757.308 -1.45965 0.182355 0
M  V30 7606 H 759.266 -3.63964 -2.03927 0
M  V30 7607 H 757.896 -2.49837 -2.04405 0
M  V30 7608 H 756.948 -3.80399 -0.00651901 0
M  V30 7609 H 758.26 -4.98279 -0.227941 0
M  V30 7610 H 757.414 -5.51794 -2.52206 0
M  V30 7611 H 756.153 -4.26181 -2.3711 0
M  V30 7612 H 755.158 -5.48225 -0.415876 0
M  V30 7613 H 756.383 -6.76548 -0.588135 0
M  V30 7614 H 754.329 -5.98258 -2.69115 0
M  V30 7615 H 754.246 -7.37495 -1.66246 0
M  V30 7616 H 755.514 -7.25697 -2.84576 0
M  V30 7617 N 759.743 -0.201713 -1.56304 0
M  V30 7618 C 760.706 0.702811 -2.18159 0
M  V30 7619 C 761.706 1.13619 -1.13787 0
M  V30 7620 O 762.896 1.0482 -1.39134 0
M  V30 7621 C 760.028 1.96032 -2.78898 0
M  V30 7622 H 761.221 0.163836 -2.99452 0
M  V30 7623 H 758.774 0.04791 -1.56227 0
M  V30 7624 H 759.509 2.54165 -2.01421 0
M  V30 7625 H 759.294 1.65824 -3.55309 0
M  V30 7626 H 760.784 2.60519 -3.26373 0
M  V30 7627 N 761.222 1.57436 0.0718424 0
M  V30 7628 C 762.17 2.04725 1.10411 0
M  V30 7629 C 763.164 0.952579 1.4008 0
M  V30 7630 O 764.37 1.13769 1.39487 0
M  V30 7631 H 760.745 0.652749 0.373393 0
M  V30 7632 H 762.716 2.90569 0.679126 0
M  V30 7633 C 761.465 2.5068 2.40946 0
M  V30 7634 H 760.788 3.34505 2.18967 0
M  V30 7635 H 762.228 2.87521 3.11621 0
M  V30 7636 C 760.687 1.38971 3.06902 0
M  V30 7637 O 761.217 0.731786 3.94978 0
M  V30 7638 N 759.423 1.13485 2.67525 0
M  V30 7639 H 758.97 1.67168 1.95991 0
M  V30 7640 H 758.928 0.389467 3.11978 0
M  V30 7641 N 762.7 -0.34323 1.53817 0
M  V30 7642 C 763.663 -1.40444 1.8113 0
M  V30 7643 C 764.663 -1.45604 0.682366 0
M  V30 7644 O 765.853 -1.45974 0.950649 0
M  V30 7645 C 762.985 -2.79369 1.95361 0
M  V30 7646 H 764.178 -1.17489 2.75928 0
M  V30 7647 H 761.731 -0.577636 1.45234 0
M  V30 7648 H 762.466 -3.07607 1.02707 0
M  V30 7649 H 762.251 -2.7702 2.77493 0
M  V30 7650 H 763.741 -3.56178 2.18008 0
M  V30 7651 N 764.178 -1.45556 -0.604258 0
M  V30 7652 C 765.426 -1.4945 -1.36048 0
M  V30 7653 C 765.747 -0.138933 -1.94504 0
M  V30 7654 O 765.017 0.832097 -1.7735 0
M  V30 7655 H 763.597 -0.550381 -0.505064 0
M  V30 7656 H 766.259 -1.81535 -0.709308 0
M  V30 7657 H 765.355 -2.23519 -2.17821 0
M  V30 7658 N 765.656 0.84705 -1.32902 0
M  V30 7659 C 767.072 1.13645 -1.12058 0
M  V30 7660 C 767.272 2.01281 0.093937 0
M  V30 7661 O 766.328 2.4026 0.776608 0
M  V30 7662 C 767.641 1.80644 -2.40392 0
M  V30 7663 C 769.189 1.93246 -2.46221 0
M  V30 7664 C 769.664 2.6366 -3.74496 0
M  V30 7665 N 771.155 2.71179 -3.75521 0
M  V30 7666 C 771.89 3.26332 -4.71482 0
M  V30 7667 N 771.386 3.82236 -5.77813 0
M  V30 7668 N 773.179 3.24507 -4.58968 0
M  V30 7669 H 765.33 0.263612 -2.10758 0
M  V30 7670 H 767.593 0.17944 -0.930863 0
M  V30 7671 H 767.299 1.23708 -3.29225 0
M  V30 7672 H 767.173 2.80736 -2.51926 0
M  V30 7673 H 769.56 2.49338 -1.57843 0
M  V30 7674 H 769.641 0.921272 -2.38634 0
M  V30 7675 H 769.285 2.08229 -4.63253 0
M  V30 7676 H 769.215 3.65234 -3.79357 0
M  V30 7677 H 771.706 2.31527 -2.9867 0
M  V30 7678 H 772.019 4.22499 -6.47082 0
M  V30 7679 H 770.364 3.80546 -5.81558 0
M  V30 7680 H 773.555 2.80085 -3.7506 0
M  V30 7681 H 773.728 3.67188 -5.33926 0
M  V30 7682 N 767.134 1.16236 1.06428 0
M  V30 7683 C 768.097 0.870163 2.1204 0
M  V30 7684 C 769.097 -0.134239 1.60239 0
M  V30 7685 O 770.287 0.0964932 1.73933 0
M  V30 7686 C 767.419 0.301033 3.39568 0
M  V30 7687 H 768.612 1.8064 2.39394 0
M  V30 7688 H 766.165 0.971116 1.2247 0
M  V30 7689 H 766.9 -0.642948 3.17863 0
M  V30 7690 H 766.685 1.02475 3.78472 0
M  V30 7691 H 768.175 0.114494 4.17443 0
M  V30 7692 N 768.612 -1.24939 0.960631 0
M  V30 7693 C 769.837 -1.9742 0.635608 0
M  V30 7694 C 770.262 -1.70857 -0.786737 0
M  V30 7695 O 769.62 -0.968063 -1.53291 0
M  V30 7696 C 769.668 -3.48987 0.907771 0
M  V30 7697 O 768.772 -4.12399 -0.0104053 0
M  V30 7698 H 768.113 -0.61871 0.241027 0
M  V30 7699 H 770.643 -1.58901 1.28886 0
M  V30 7700 H 770.653 -3.99334 0.836453 0
M  V30 7701 H 769.328 -3.6765 1.94439 0
M  V30 7702 H 767.905 -3.72727 0.113631 0
M  V30 7703 N 770.09 -0.729906 -1.39679 0
M  V30 7704 C 771.32 -0.285295 -2.04621 0
M  V30 7705 C 771.728 1.08304 -1.55135 0
M  V30 7706 O 771.071 1.6946 -0.709146 0
M  V30 7707 C 771.133 -0.203129 -3.58926 0
M  V30 7708 C 770.797 -1.50909 -4.31365 0
M  V30 7709 C 771.794 -2.45381 -4.58349 0
M  V30 7710 C 769.479 -1.77198 -4.70007 0
M  V30 7711 C 771.473 -3.64379 -5.22979 0
M  V30 7712 C 769.16 -2.96474 -5.34365 0
M  V30 7713 C 770.158 -3.89886 -5.60783 0
M  V30 7714 O 769.846 -5.07069 -6.23808 0
M  V30 7715 H 769.578 -0.123373 -0.664647 0
M  V30 7716 H 772.132 -0.992901 -1.79807 0
M  V30 7717 H 770.362 0.560538 -3.82616 0
M  V30 7718 H 772.051 0.208811 -4.05363 0
M  V30 7719 H 772.817 -2.2634 -4.28947 0
M  V30 7720 H 768.696 -1.05337 -4.48804 0
M  V30 7721 H 772.24 -4.37307 -5.43515 0
M  V30 7722 H 768.137 -3.15419 -5.63188 0
M  V30 7723 H 768.905 -5.07335 -6.42303 0
M  V30 7724 N 771.568 1.50203 -0.477153 0
M  V30 7725 C 772.498 2.31517 0.303646 0
M  V30 7726 C 773.479 1.38696 0.984753 0
M  V30 7727 O 774.664 1.67615 0.980758 0
M  V30 7728 C 771.794 3.18598 1.38249 0
M  V30 7729 C 770.748 4.2002 0.822645 0
M  V30 7730 C 770.074 4.95878 2.00024 0
M  V30 7731 C 771.374 5.22023 -0.170185 0
M  V30 7732 H 773.068 2.97042 -0.375027 0
M  V30 7733 H 770.614 1.42848 -0.181802 0
M  V30 7734 H 772.567 3.74282 1.93625 0
M  V30 7735 H 771.291 2.5097 2.09002 0
M  V30 7736 H 769.95 3.65445 0.290813 0
M  V30 7737 H 769.598 4.24717 2.69489 0
M  V30 7738 H 769.298 5.64487 1.63183 0
M  V30 7739 H 770.822 5.54399 2.55878 0
M  V30 7740 H 772.236 5.72543 0.294606 0
M  V30 7741 H 770.633 5.98386 -0.453181 0
M  V30 7742 H 771.703 4.72396 -1.09408 0
M  V30 7743 N 773.046 0.209999 1.56195 0
M  V30 7744 C 774.271 -0.433064 2.02828 0
M  V30 7745 C 774.696 -1.5337 1.08901 0
M  V30 7746 O 774.054 -1.81144 0.0751132 0
M  V30 7747 C 774.102 -0.952635 3.47789 0
M  V30 7748 O 773.206 -2.0647 3.56993 0
M  V30 7749 H 772.547 -0.0994594 0.656509 0
M  V30 7750 H 775.077 0.32525 2.01998 0
M  V30 7751 H 775.087 -1.26542 3.8788 0
M  V30 7752 H 773.762 -0.147007 4.1564 0
M  V30 7753 H 772.339 -1.75942 3.28784 0
M  V30 7754 N 774.524 -1.57472 -0.0634922 0
M  V30 7755 C 775.749 -1.92273 -0.77756 0
M  V30 7756 C 776.174 -0.807141 -1.69902 0
M  V30 7757 O 775.532 0.239523 -1.79711 0
M  V30 7758 C 775.58 -3.26054 -1.54017 0
M  V30 7759 O 774.684 -3.15873 -2.65138 0
M  V30 7760 H 774.025 -0.629389 -0.211579 0
M  V30 7761 H 776.555 -2.04579 -0.0292523 0
M  V30 7762 H 776.565 -3.60127 -1.91763 0
M  V30 7763 H 775.24 -4.06824 -0.864128 0
M  V30 7764 H 773.817 -2.93373 -2.30189 0
M  V30 7765 N 776.003 0.335068 -1.53997 0
M  V30 7766 C 776.913 1.43511 -1.85585 0
M  V30 7767 C 777.929 1.57162 -0.746726 0
M  V30 7768 O 779.105 1.72477 -1.03988 0
M  V30 7769 C 776.17 2.78386 -2.06646 0
M  V30 7770 C 775.231 2.74007 -3.30483 0
M  V30 7771 C 774.464 4.02449 -3.50529 0
M  V30 7772 O 774.687 5.00147 -2.74242 0
M  V30 7773 O 773.621 4.06405 -4.4398 0
M  V30 7774 H 777.447 1.19731 -2.79102 0
M  V30 7775 H 775.032 0.528033 -1.39758 0
M  V30 7776 H 776.914 3.58247 -2.21894 0
M  V30 7777 H 775.589 3.0208 -1.16317 0
M  V30 7778 H 774.496 1.92736 -3.2063 0
M  V30 7779 H 775.829 2.55267 -4.20832 0
M  V30 7780 N 777.481 1.45874 0.596531 0
M  V30 7781 C 778.706 1.54247 1.38646 0
M  V30 7782 C 779.131 0.179571 1.87241 0
M  V30 7783 O 778.489 -0.837831 1.6078 0
M  V30 7784 C 778.537 2.54015 2.55946 0
M  V30 7785 O 777.641 2.06561 3.5694 0
M  V30 7786 H 776.982 0.519555 0.413471 0
M  V30 7787 H 779.512 1.91327 0.724936 0
M  V30 7788 H 779.522 2.73179 3.03047 0
M  V30 7789 H 778.197 3.52994 2.19928 0
M  V30 7790 H 776.774 1.97324 3.16414 0
M  V30 7791 N 778.959 -0.83999 1.33349 0
M  V30 7792 C 779.889 -1.965 1.26135 0
M  V30 7793 C 780.87 -1.69505 0.142152 0
M  V30 7794 O 782.055 -1.91346 0.331743 0
M  V30 7795 C 779.185 -3.32632 0.99866 0
M  V30 7796 C 778.139 -3.74021 2.08068 0
M  V30 7797 C 777.465 -5.07947 1.67014 0
M  V30 7798 C 778.765 -3.87925 3.49731 0
M  V30 7799 H 780.459 -2.02793 2.20262 0
M  V30 7800 H 778.005 -0.974297 1.06035 0
M  V30 7801 H 779.958 -4.10903 0.934696 0
M  V30 7802 H 778.682 -3.26593 0.0217759 0
M  V30 7803 H 777.341 -2.98012 2.13505 0
M  V30 7804 H 776.989 -4.98378 0.680316 0
M  V30 7805 H 776.689 -5.36611 2.39422 0
M  V30 7806 H 778.213 -5.88695 1.62082 0
M  V30 7807 H 779.627 -4.5651 3.46802 0
M  V30 7808 H 778.024 -4.28023 4.20614 0
M  V30 7809 H 779.094 -2.90407 3.88319 0
M  V30 7810 N 780.437 -1.16799 -1.0581 0
M  V30 7811 C 781.367 -0.902241 -2.15364 0
M  V30 7812 C 782.348 0.153351 -1.69407 0
M  V30 7813 O 783.533 0.00442032 -1.94199 0
M  V30 7814 C 780.663 -0.407911 -3.44896 0
M  V30 7815 C 779.617 -1.40197 -4.04387 0
M  V30 7816 C 778.943 -0.765848 -5.29187 0
M  V30 7817 C 780.243 -2.77316 -4.42598 0
M  V30 7818 H 781.937 -1.81841 -2.37853 0
M  V30 7819 H 779.483 -0.875731 -1.14311 0
M  V30 7820 H 781.436 -0.20945 -4.20879 0
M  V30 7821 H 780.16 0.54378 -3.22041 0
M  V30 7822 H 778.819 -1.58707 -3.30466 0
M  V30 7823 H 778.467 0.192482 -5.02632 0
M  V30 7824 H 778.167 -1.42939 -5.69949 0
M  V30 7825 H 779.691 -0.577519 -6.07863 0
M  V30 7826 H 781.105 -2.62561 -5.09642 0
M  V30 7827 H 779.502 -3.4019 -4.94359 0
M  V30 7828 H 780.572 -3.32199 -3.53231 0
M  V30 7829 N 781.915 1.24427 -0.967243 0
M  V30 7830 C 783.163 1.92107 -0.627638 0
M  V30 7831 C 783.484 1.75991 0.83978 0
M  V30 7832 O 782.754 1.13118 1.59941 0
M  V30 7833 H 781.334 0.710986 -0.229145 0
M  V30 7834 H 783.996 1.51331 -1.22821 0
M  V30 7835 H 783.092 2.99791 -0.867844 0
M  V30 7836 N 783.393 0.737304 1.3929 0
M  V30 7837 C 784.341 0.0879867 2.32434 0
M  V30 7838 C 785.335 -0.723324 1.53181 0
M  V30 7839 O 786.541 -0.624251 1.68829 0
M  V30 7840 H 782.916 0.00965277 0.751938 0
M  V30 7841 H 784.887 0.889915 2.84821 0
M  V30 7842 C 783.636 -0.803384 3.38291 0
M  V30 7843 H 782.959 -0.18849 3.99355 0
M  V30 7844 H 784.399 -1.22528 4.0591 0
M  V30 7845 C 782.858 -1.93872 2.75527 0
M  V30 7846 O 783.388 -3.03154 2.63553 0
M  V30 7847 N 781.594 -1.72883 2.3358 0
M  V30 7848 H 781.141 -0.840005 2.43519 0
M  V30 7849 H 781.099 -2.49021 1.91927 0
M  V30 7850 N 784.871 -1.49948 0.485112 0
M  V30 7851 C 785.804 -2.25531 -0.348027 0
M  V30 7852 C 786.782 -1.29433 -0.984172 0
M  V30 7853 O 787.966 -1.58687 -1.01738 0
M  V30 7854 C 785.093 -3.04225 -1.48878 0
M  V30 7855 C 784.139 -4.15355 -0.968616 0
M  V30 7856 S 784.972 -5.35347 0.127934 0
M  V30 7857 C 786.128 -6.17593 -1.01637 0
M  V30 7858 H 786.361 -2.95847 0.293529 0
M  V30 7859 H 783.894 -1.52018 0.27018 0
M  V30 7860 H 785.852 -3.50153 -2.14251 0
M  V30 7861 H 784.513 -2.33407 -2.1019 0
M  V30 7862 H 783.706 -4.69873 -1.82305 0
M  V30 7863 H 783.308 -3.71936 -0.392377 0
M  V30 7864 H 785.6 -6.49576 -1.92503 0
M  V30 7865 H 786.543 -7.0626 -0.510149 0
M  V30 7866 H 786.951 -5.49877 -1.27653 0
M  V30 7867 N 786.349 -0.21828 -1.56081 0
M  V30 7868 C 787.626 0.463143 -1.90038 0
M  V30 7869 C 788.006 1.77982 -1.13515 0
M  V30 7870 O 787.354 2.27199 -0.24345 0
M  V30 7871 C 787.564 0.659292 -3.42716 0
M  V30 7872 C 788.912 0.968203 -4.13414 0
M  V30 7873 O 789.936 0.746195 -3.48296 0
M  V30 7874 O 788.795 1.38936 -5.28544 0
M  V30 7875 H 785.889 0.244435 -0.790051 0
M  V30 7876 H 788.435 -0.260221 -1.67693 0
M  V30 7877 H 787.207 -0.269584 -3.9037 0
M  V30 7878 H 786.83 1.43426 -3.7083 0
M  V30 7879 N 787.827 1.57504 0.0551401 0
M  V30 7880 C 789.238 1.76626 0.604979 0
M  V30 7881 C 789.589 0.845978 1.77024 0
M  V30 7882 O 788.714 0.0341936 2.16373 0
M  V30 7883 C 789.309 3.203 1.10425 0
M  V30 7884 C 787.868 3.4071 1.59981 0
M  V30 7885 C 787.015 2.72258 0.526414 0
M  V30 7886 H 789.966 1.57775 -0.171072 0
M  V30 7887 H 789.987 3.25377 1.97256 0
M  V30 7888 H 789.499 3.87255 0.255939 0
M  V30 7889 H 787.6 2.78892 2.47083 0
M  V30 7890 H 787.713 4.49227 1.66528 0
M  V30 7891 H 786.077 2.35283 0.97539 0
M  V30 7892 H 786.86 3.41879 -0.311991 0
M  V30 7893 N 789.305 -0.326896 1.54172 0
M  V30 7894 C 790.553 -1.06313 1.71878 0
M  V30 7895 C 790.874 -1.88652 0.493498 0
M  V30 7896 O 790.144 -1.89608 -0.492522 0
M  V30 7897 H 788.724 -0.39549 0.633716 0
M  V30 7898 H 791.386 -0.364139 1.91468 0
M  V30 7899 H 790.482 -1.73105 2.59694 0
M  V30 7900 N 790.784 -1.46188 -0.588786 0
M  V30 7901 C 791.747 -1.55882 -1.68029 0
M  V30 7902 C 792.747 -0.436515 -1.54762 0
M  V30 7903 O 793.937 -0.700626 -1.59489 0
M  V30 7904 C 791.069 -1.47332 -3.07418 0
M  V30 7905 H 792.262 -2.5315 -1.60795 0
M  V30 7906 H 789.815 -1.33908 -0.806116 0
M  V30 7907 H 790.55 -0.513193 -3.20214 0
M  V30 7908 H 790.335 -2.28753 -3.18456 0
M  V30 7909 H 791.825 -1.57187 -3.86887 0
M  V30 7910 N 792.262 0.832906 -1.33792 0
M  V30 7911 C 793.194 1.95042 -1.2038 0
M  V30 7912 C 794.207 1.62253 -0.133299 0
M  V30 7913 O 795.396 1.74315 -0.384261 0
M  V30 7914 C 792.496 3.287 -0.825215 0
M  V30 7915 C 791.669 3.89581 -1.98861 0
M  V30 7916 C 790.728 5.01602 -1.59003 0
M  V30 7917 O 789.754 5.20431 -2.30522 0
M  V30 7918 N 790.956 5.78356 -0.498446 0
M  V30 7919 H 793.721 2.07083 -2.16649 0
M  V30 7920 H 791.282 1.00896 -1.26616 0
M  V30 7921 H 793.274 4.01074 -0.540559 0
M  V30 7922 H 791.844 3.12565 0.0469796 0
M  V30 7923 H 791.064 3.09723 -2.43856 0
M  V30 7924 H 792.352 4.26989 -2.76691 0
M  V30 7925 H 791.75 5.65618 0.0963297 0
M  V30 7926 H 790.307 6.51226 -0.273485 0
M  V30 7927 N 793.74 1.17359 1.05189 0
M  V30 7928 C 795.156 0.920861 1.30355 0
M  V30 7929 C 795.356 -0.419993 1.97074 0
M  V30 7930 O 794.412 -1.15696 2.24434 0
M  V30 7931 C 795.725 2.07818 2.1733 0
M  V30 7932 C 797.273 2.1152 2.30712 0
M  V30 7933 C 797.748 3.26637 3.21048 0
M  V30 7934 N 799.239 3.26426 3.28634 0
M  V30 7935 C 799.974 4.12141 3.98657 0
M  V30 7936 N 799.47 5.07966 4.71107 0
M  V30 7937 N 801.263 4.00091 3.94821 0
M  V30 7938 H 793.414 2.03666 0.602821 0
M  V30 7939 H 795.677 0.889294 0.328421 0
M  V30 7940 H 795.383 3.04727 1.75597 0
M  V30 7941 H 795.257 2.02922 3.17966 0
M  V30 7942 H 797.644 1.15196 2.71687 0
M  V30 7943 H 797.725 2.20477 1.29706 0
M  V30 7944 H 797.369 4.23227 2.80788 0
M  V30 7945 H 797.299 3.14917 4.2206 0
M  V30 7946 H 799.79 2.57045 2.77013 0
M  V30 7947 H 800.103 5.69766 5.22099 0
M  V30 7948 H 798.448 5.11936 4.7005 0
M  V30 7949 H 801.639 3.24523 3.37346 0
M  V30 7950 H 801.812 4.6711 4.49123 0
M  V30 7951 N 795.218 -1.23913 0.973828 0
M  V30 7952 C 796.148 -2.27453 0.527969 0
M  V30 7953 C 797.129 -1.6443 -0.435513 0
M  V30 7954 O 798.314 -1.9137 -0.330306 0
M  V30 7955 C 795.444 -3.4685 -0.176757 0
M  V30 7956 C 794.398 -4.22181 0.703352 0
M  V30 7957 C 793.724 -5.34534 -0.133215 0
M  V30 7958 C 795.024 -4.82865 1.99096 0
M  V30 7959 H 796.718 -2.65 1.3934 0
M  V30 7960 H 794.264 -1.27388 0.671446 0
M  V30 7961 H 796.217 -4.18424 -0.499934 0
M  V30 7962 H 794.941 -3.08346 -1.07659 0
M  V30 7963 H 793.6 -3.52416 1.00989 0
M  V30 7964 H 793.248 -4.92271 -1.03338 0
M  V30 7965 H 792.948 -5.85855 0.452494 0
M  V30 7966 H 794.472 -6.08933 -0.450924 0
M  V30 7967 H 795.886 -5.46481 1.73297 0
M  V30 7968 H 794.283 -5.44444 2.52389 0
M  V30 7969 H 795.353 -4.03977 2.68199 0
M  V30 7970 N 796.696 -0.74468 -1.38897 0
M  V30 7971 C 797.659 -0.11945 -2.28889 0
M  V30 7972 C 798.659 0.656942 -1.46768 0
M  V30 7973 O 799.849 0.484525 -1.67326 0
M  V30 7974 C 796.981 0.839635 -3.30398 0
M  V30 7975 H 798.174 -0.912414 -2.85683 0
M  V30 7976 H 795.727 -0.511119 -1.47707 0
M  V30 7977 H 796.462 1.6586 -2.78677 0
M  V30 7978 H 796.247 0.285432 -3.9106 0
M  V30 7979 H 797.737 1.27337 -3.97712 0
M  V30 7980 N 798.174 1.49689 -0.493057 0
M  V30 7981 C 799.107 2.25712 0.336062 0
M  V30 7982 C 800.085 1.29953 0.977294 0
M  V30 7983 O 801.269 1.59225 1.00895 0
M  V30 7984 C 798.396 3.0501 1.47263 0
M  V30 7985 C 797.442 4.15863 0.946575 0
M  V30 7986 S 798.275 5.35272 -0.156323 0
M  V30 7987 C 799.431 6.18123 0.983601 0
M  V30 7988 H 799.664 2.95688 -0.309215 0
M  V30 7989 H 797.197 1.51872 -0.278238 0
M  V30 7990 H 799.155 3.51284 2.12391 0
M  V30 7991 H 797.816 2.34519 2.08949 0
M  V30 7992 H 797.009 4.70834 1.7981 0
M  V30 7993 H 796.611 3.72139 0.372647 0
M  V30 7994 H 798.903 6.50588 1.89056 0
M  V30 7995 H 799.846 7.06521 0.472687 0
M  V30 7996 H 800.254 5.50547 1.24735 0
M  V30 7997 N 799.652 0.226554 1.55963 0
M  V30 7998 C 800.898 -0.404387 1.98727 0
M  V30 7999 C 801.231 -1.59059 1.11418 0
M  V30 8000 O 800.506 -1.93729 0.172971 0
M  V30 8001 C 800.789 -0.834081 3.50307 0
M  V30 8002 C 800.642 0.356104 4.48388 0
M  V30 8003 C 801.961 -1.68845 4.06423 0
M  V30 8004 H 799.08 -0.145515 0.722492 0
M  V30 8005 H 801.722 0.323791 1.87221 0
M  V30 8006 H 799.872 -1.45454 3.60244 0
M  V30 8007 H 801.544 0.99432 4.50456 0
M  V30 8008 H 799.787 1.0027 4.22053 0
M  V30 8009 H 800.458 0.0124333 5.51999 0
M  V30 8010 H 802.934 -1.16489 3.99461 0
M  V30 8011 H 801.81 -1.958 5.1279 0
M  V30 8012 H 802.071 -2.65347 3.53615 0
M  V30 8013 N 801.13 -1.57531 -0.0467866 0
M  V30 8014 C 802.377 -1.88451 -0.74112 0
M  V30 8015 C 802.705 -0.821592 -1.76296 0
M  V30 8016 O 801.96 0.179585 -1.94874 0
M  V30 8017 C 802.259 -3.26091 -1.46285 0
M  V30 8018 C 801.925 -4.47171 -0.578669 0
M  V30 8019 C 800.587 -4.80032 -0.335083 0
M  V30 8020 C 802.939 -5.2119 0.0328809 0
M  V30 8021 C 800.267 -5.84309 0.529121 0
M  V30 8022 C 802.619 -6.26383 0.884684 0
M  V30 8023 C 801.283 -6.57729 1.1379 0
M  V30 8024 H 800.553 -0.68959 -0.271195 0
M  V30 8025 H 803.2 -1.915 -0.00132378 0
M  V30 8026 H 801.505 -3.18948 -2.27551 0
M  V30 8027 H 803.202 -3.47258 -2.00532 0
M  V30 8028 H 799.792 -4.21467 -0.778666 0
M  V30 8029 H 803.976 -4.96096 -0.142375 0
M  V30 8030 H 799.232 -6.06981 0.733794 0
M  V30 8031 H 803.406 -6.82888 1.36516 0
M  V30 8032 H 801.033 -7.38355 1.80929 0
M  V30 8033 N 802.608 0.318715 -1.54344 0
M  V30 8034 C 803.555 1.39242 -1.84066 0
M  V30 8035 C 804.525 1.51175 -0.688134 0
M  V30 8036 O 805.71 1.66318 -0.935039 0
M  V30 8037 C 802.85 2.75528 -2.07794 0
M  V30 8038 C 801.963 2.72187 -3.35467 0
M  V30 8039 C 801.098 4.00352 -3.4913 0
M  V30 8040 C 800.137 3.91338 -4.7066 0
M  V30 8041 N 799.274 5.11242 -4.81224 0
M  V30 8042 H 804.114 1.13196 -2.75664 0
M  V30 8043 H 801.651 0.547857 -1.36517 0
M  V30 8044 H 803.609 3.54763 -2.19543 0
M  V30 8045 H 802.239 2.99873 -1.19482 0
M  V30 8046 H 801.291 1.84917 -3.3243 0
M  V30 8047 H 802.603 2.61411 -4.24812 0
M  V30 8048 H 801.757 4.88019 -3.60448 0
M  V30 8049 H 800.496 4.1394 -2.57886 0
M  V30 8050 H 799.501 3.02055 -4.59394 0
M  V30 8051 H 800.726 3.7931 -5.63294 0
M  V30 8052 H 798.672 5.25327 -3.92897 0
M  V30 8053 H 798.589 5.0282 -5.64543 0
M  V30 8054 H 799.857 6.0061 -4.96879 0
M  V30 8055 N 804.086 1.46499 0.581025 0
M  V30 8056 C 805.049 1.5677 1.672 0
M  V30 8057 C 806.049 0.444716 1.54528 0
M  V30 8058 O 807.239 0.709074 1.59116 0
M  V30 8059 C 804.371 1.4896 3.06633 0
M  V30 8060 H 805.564 2.54 1.5945 0
M  V30 8061 H 803.117 1.34334 0.799003 0
M  V30 8062 H 803.852 0.530168 3.19937 0
M  V30 8063 H 803.637 2.30439 3.17239 0
M  V30 8064 H 805.127 1.59237 3.86048 0
M  V30 8065 N 805.565 -0.825799 1.34232 0
M  V30 8066 C 806.495 -1.95151 1.28212 0
M  V30 8067 C 807.476 -1.69345 0.160123 0
M  V30 8068 O 808.661 -1.90983 0.352019 0
M  V30 8069 C 805.791 -3.31554 1.03388 0
M  V30 8070 C 804.745 -3.71793 2.12023 0
M  V30 8071 C 804.071 -5.06147 1.72392 0
M  V30 8072 C 805.371 -3.84193 3.53826 0
M  V30 8073 H 807.065 -2.00445 2.22401 0
M  V30 8074 H 804.611 -0.962996 1.07063 0
M  V30 8075 H 806.564 -4.09889 0.978225 0
M  V30 8076 H 805.288 -3.26551 0.0564142 0
M  V30 8077 H 803.947 -2.95731 2.16654 0
M  V30 8078 H 803.595 -4.97628 0.733137 0
M  V30 8079 H 803.295 -5.34041 2.451 0
M  V30 8080 H 804.819 -5.86943 1.68317 0
M  V30 8081 H 806.233 -4.52806 3.51624 0
M  V30 8082 H 804.63 -4.23538 4.2513 0
M  V30 8083 H 805.7 -2.86272 3.91377 0
M  V30 8084 N 807.043 -1.17915 -1.04565 0
M  V30 8085 C 808.006 -0.903787 -2.10628 0
M  V30 8086 C 809.006 0.10873 -1.60432 0
M  V30 8087 O 810.196 -0.124152 -1.73757 0
M  V30 8088 C 807.328 -0.355017 -3.39046 0
M  V30 8089 H 808.521 -1.84425 -2.3649 0
M  V30 8090 H 806.074 -0.990477 -1.2091 0
M  V30 8091 H 806.809 0.592297 -3.18845 0
M  V30 8092 H 806.594 -1.08484 -3.76794 0
M  V30 8093 H 808.084 -0.180891 -4.17208 0
M  V30 8094 N 808.521 1.23394 -0.980386 0
M  V30 8095 C 809.431 2.28561 -0.528864 0
M  V30 8096 C 810.447 1.68946 0.416329 0
M  V30 8097 O 811.623 1.99355 0.286251 0
M  V30 8098 C 808.688 3.46323 0.16155 0
M  V30 8099 C 807.749 4.21297 -0.825044 0
M  V30 8100 C 806.982 5.33437 -0.167483 0
M  V30 8101 O 807.205 5.60812 1.04146 0
M  V30 8102 O 806.139 5.95637 -0.866047 0
M  V30 8103 H 809.965 2.69326 -1.40346 0
M  V30 8104 H 807.55 1.29325 -0.748019 0
M  V30 8105 H 809.432 4.17811 0.548841 0
M  V30 8106 H 808.107 3.0751 1.01092 0
M  V30 8107 H 807.014 3.52134 -1.26303 0
M  V30 8108 H 808.347 4.6396 -1.64322 0
M  V30 8109 N 809.999 0.752036 1.385 0
M  V30 8110 C 811.224 0.316993 2.04963 0
M  V30 8111 C 811.649 -1.04582 1.56346 0
M  V30 8112 O 811.007 -1.66616 0.714755 0
M  V30 8113 C 811.055 0.347235 3.58924 0
M  V30 8114 O 810.159 -0.659296 4.07096 0
M  V30 8115 H 809.5 0.140652 0.648932 0
M  V30 8116 H 812.03 1.02272 1.77205 0
M  V30 8117 H 812.04 0.19757 4.07521 0
M  V30 8118 H 810.715 1.34157 3.93668 0
M  V30 8119 H 809.292 -0.474371 3.6987 0
M  V30 8120 N 811.477 -1.49425 0.500989 0
M  V30 8121 C 812.387 -2.32899 -0.282011 0
M  V30 8122 C 813.403 -1.44632 -0.967346 0
M  V30 8123 O 814.579 -1.77654 -0.94873 0
M  V30 8124 C 811.644 -3.20069 -1.33253 0
M  V30 8125 C 810.705 -4.24186 -0.660636 0
M  V30 8126 C 809.938 -5.07191 -1.6611 0
M  V30 8127 O 810.161 -4.91712 -2.89094 0
M  V30 8128 O 809.095 -5.8948 -1.21643 0
M  V30 8129 H 812.921 -3.01038 0.401224 0
M  V30 8130 H 810.506 -1.47079 0.262323 0
M  V30 8131 H 812.388 -3.74071 -1.94033 0
M  V30 8132 H 811.063 -2.54625 -1.9987 0
M  V30 8133 H 809.97 -3.74098 -0.0130959 0
M  V30 8134 H 811.303 -4.92186 -0.0369179 0
M  V30 8135 N 812.955 -0.234822 -1.55841 0
M  V30 8136 C 813.885 0.664217 -2.23854 0
M  V30 8137 C 814.866 1.19076 -1.2147 0
M  V30 8138 O 816.051 1.23232 -1.50091 0
M  V30 8139 C 813.181 1.86666 -2.9287 0
M  V30 8140 C 812.135 1.47341 -4.01839 0
M  V30 8141 C 811.461 2.75571 -4.58219 0
M  V30 8142 C 812.761 0.653479 -5.18196 0
M  V30 8143 H 814.455 0.0971213 -2.99242 0
M  V30 8144 H 812.001 0.0452724 -1.43929 0
M  V30 8145 H 813.954 2.50116 -3.39146 0
M  V30 8146 H 812.678 2.45894 -2.1495 0
M  V30 8147 H 811.337 0.862314 -3.56314 0
M  V30 8148 H 810.985 3.32971 -3.77014 0
M  V30 8149 H 810.685 2.49987 -5.31771 0
M  V30 8150 H 812.209 3.39939 -5.07221 0
M  V30 8151 H 813.623 1.19198 -5.60771 0
M  V30 8152 H 812.02 0.494188 -5.98062 0
M  V30 8153 H 813.09 -0.337004 -4.83728 0
M  V30 8154 N 814.433 1.57553 0.0384317 0
M  V30 8155 C 815.681 1.88468 0.729672 0
M  V30 8156 C 816.002 0.831302 1.76393 0
M  V30 8157 O 815.272 -0.13622 1.95426 0
M  V30 8158 H 813.852 0.695529 0.272485 0
M  V30 8159 H 816.514 1.94899 0.0066032 0
M  V30 8160 H 815.61 2.8705 1.22511 0
M  V30 8161 O 815.95 -0.181452 1.60477 0
M  V30 8162 H 816.641 -0.819067 1.75531 0
M  V30 END ATOM
M  V30 BEGIN BOND
M  V30 END BOND
M  V30 END CTAB
M  END
$$$$
