drugbank_target|Q9Y468 Lethal(3)malignant brain tumor-like protein 1 (DB03814)
 OpenBabel12092120283D

  0  0  0     0  0            999 V3000
M  V30 BEGIN CTAB
M  V30 COUNTS 11503 11684 0 0 0
M  V30 BEGIN ATOM
M  V30 1 H -0.908 1.98254 -0.117106 0
M  V30 2 N 0 1.576 0 0
M  V30 3 C 0.933 2.03868 1.02534 0
M  V30 4 C 1.911 0.928543 1.3348 0
M  V30 5 O 3.095 1.19667 1.45644 0
M  V30 6 C 0.222 2.43627 2.35294 0
M  V30 7 C -0.732 3.65373 2.2001 0
M  V30 8 S 0.101 5.13292 1.52614 0
M  V30 9 C 1.257 5.56322 2.86805 0
M  V30 10 H 1.49 2.90518 0.631377 0
M  V30 11 H -0.977 1.52953 0.210867 0
M  V30 12 H 0.981 2.67203 3.11629 0
M  V30 13 H -0.358 1.57376 2.7183 0
M  V30 14 H -1.165 3.90944 3.18086 0
M  V30 15 H -1.563 3.418 1.51819 0
M  V30 16 H 0.729 5.58782 3.83104 0
M  V30 17 H 1.672 6.56266 2.65933 0
M  V30 18 H 2.08 4.83886 2.90714 0
M  V30 19 N 1.4781 -0.272755 1.55222 0
M  V30 20 C 2.8941 -0.619959 1.47067 0
M  V30 21 C 3.0941 -1.895 0.684978 0
M  V30 22 O 2.1501 -2.51675 0.203931 0
M  V30 23 C 3.4631 -0.746693 2.91282 0
M  V30 24 C 5.0111 -0.840731 3.01497 0
M  V30 25 C 5.4861 -0.99924 4.46967 0
M  V30 26 N 6.9771 -1.06476 4.50796 0
M  V30 27 C 7.7121 -1.20621 5.6057 0
M  V30 28 N 7.2081 -1.31483 6.80209 0
M  V30 29 N 9.0011 -1.23733 5.48312 0
M  V30 30 H 1.1521 0.564606 2.04758 0
M  V30 31 H 3.4151 0.191177 0.928523 0
M  V30 32 H 3.1211 0.119753 3.51496 0
M  V30 33 H 2.9951 -1.6269 3.40311 0
M  V30 34 H 5.3821 -1.69764 2.41379 0
M  V30 35 H 5.4631 0.0640874 2.5572 0
M  V30 36 H 5.1071 -0.146984 5.07687 0
M  V30 37 H 5.0371 -1.91871 4.90401 0
M  V30 38 H 7.5281 -0.993196 3.64615 0
M  V30 39 H 7.8411 -1.42111 7.59621 0
M  V30 40 H 6.1861 -1.28487 6.8302 0
M  V30 41 H 9.3771 -1.14877 4.53785 0
M  V30 42 H 9.5501 -1.34412 6.33906 0
M  V30 43 N 2.9562 -1.48159 -0.537278 0
M  V30 44 C 4.3722 -1.34118 -0.865129 0
M  V30 45 C 4.5722 -0.346678 -1.98495 0
M  V30 46 O 3.6282 0.234715 -2.51407 0
M  V30 47 C 4.9412 -2.73963 -1.23954 0
M  V30 48 C 6.4892 -2.82397 -1.34984 0
M  V30 49 C 6.9642 -4.22928 -1.75772 0
M  V30 50 N 8.4552 -4.25566 -1.82887 0
M  V30 51 C 9.1902 -5.31235 -2.15817 0
M  V30 52 N 8.6862 -6.47189 -2.47222 0
M  V30 53 N 10.4792 -5.18624 -2.16761 0
M  V30 54 H 2.6302 -2.1144 0.201715 0
M  V30 55 H 4.8932 -0.947598 0.0275949 0
M  V30 56 H 4.5992 -3.48264 -0.490381 0
M  V30 57 H 4.4732 -3.0702 -2.19132 0
M  V30 58 H 6.8602 -2.08356 -2.08978 0
M  V30 59 H 6.9412 -2.5297 -0.379448 0
M  V30 60 H 6.5852 -4.97482 -1.02341 0
M  V30 61 H 6.5152 -4.49794 -2.73848 0
M  V30 62 H 9.0062 -3.41924 -1.60924 0
M  V30 63 H 9.3192 -7.23564 -2.71433 0
M  V30 64 H 7.6642 -6.50476 -2.44757 0
M  V30 65 H 10.8552 -4.27056 -1.91679 0
M  V30 66 H 11.0282 -6.01078 -2.42093 0
M  V30 67 N 4.4343 0.785586 -1.36625 0
M  V30 68 C 5.8503 1.08419 -1.17122 0
M  V30 69 C 6.0503 2.015 0.00208491 0
M  V30 70 O 5.1063 2.43551 0.666278 0
M  V30 71 C 6.4193 1.69498 -2.48377 0
M  V30 72 C 7.9673 1.81821 -2.54775 0
M  V30 73 C 8.4423 2.46315 -3.86126 0
M  V30 74 N 9.9333 2.53779 -3.87492 0
M  V30 75 C 10.6683 3.045 -4.85868 0
M  V30 76 N 10.1643 3.55499 -5.94637 0
M  V30 77 N 11.9573 3.03247 -4.73284 0
M  V30 78 H 4.1083 0.167264 -2.1174 0
M  V30 79 H 6.3713 0.13682 -0.938075 0
M  V30 80 H 6.0773 1.08571 -3.34522 0
M  V30 81 H 5.9513 2.6896 -2.64462 0
M  V30 82 H 8.3383 2.41884 -1.69045 0
M  V30 83 H 8.4193 0.811532 -2.42586 0
M  V30 84 H 8.0633 1.86895 -4.72263 0
M  V30 85 H 7.9933 3.47561 -3.95612 0
M  V30 86 H 10.4843 2.17672 -3.08913 0
M  V30 87 H 10.7973 3.92562 -6.65669 0
M  V30 88 H 9.1423 3.5364 -5.98301 0
M  V30 89 H 12.3333 2.62696 -3.87438 0
M  V30 90 H 12.5063 3.42467 -5.50109 0
M  V30 91 N 5.9124 1.20967 1.01018 0
M  V30 92 C 6.8224 0.980157 2.13143 0
M  V30 93 C 7.8384 -0.0660665 1.73875 0
M  V30 94 O 9.0144 0.122821 2.01025 0
M  V30 95 C 6.0794 0.54216 3.42435 0
M  V30 96 C 5.1404 1.65999 3.95908 0
M  V30 97 C 4.3734 1.2428 5.19028 0
M  V30 98 O 4.5964 0.114196 5.70286 0
M  V30 99 O 3.5304 2.05271 5.65816 0
M  V30 100 H 7.3564 1.91913 2.35379 0
M  V30 101 H 4.9414 0.994099 1.11526 0
M  V30 102 H 6.8234 0.30744 4.20277 0
M  V30 103 H 5.4984 -0.36815 3.216 0
M  V30 104 H 4.4054 1.94906 3.19316 0
M  V30 105 H 5.7384 2.54753 4.21143 0
M  V30 106 N 7.3905 -1.2043 1.01659 0
M  V30 107 C 8.6385 -1.89423 0.704522 0
M  V30 108 C 8.9595 -1.79231 -0.768197 0
M  V30 109 O 8.2295 -1.1947 -1.55254 0
M  V30 110 H 6.8095 -0.701178 0.257602 0
M  V30 111 H 9.4715 -1.4626 1.28818 0
M  V30 112 H 8.5675 -2.96052 0.987916 0
M  V30 113 N 8.8686 -0.792821 -1.36206 0
M  V30 114 C 9.8186 -0.166598 -2.27391 0
M  V30 115 C 10.8026 0.651479 -1.47121 0
M  V30 116 O 11.9946 0.510994 -1.69463 0
M  V30 117 C 9.1236 0.695033 -3.36191 0
M  V30 118 C 8.2096 -0.132019 -4.23894 0
M  V30 119 N 8.6006 -1.18822 -4.91645 0
M  V30 120 C 6.8986 0.0885952 -4.45912 0
M  V30 121 C 7.5996 -1.69198 -5.56549 0
M  V30 122 N 6.5756 -1.00065 -5.34311 0
M  V30 123 H 10.3776 -0.974947 -2.77258 0
M  V30 124 H 7.8916 -0.632616 -1.49572 0
M  V30 125 H 9.8886 1.1596 -4.00448 0
M  V30 126 H 8.5486 1.50189 -2.87877 0
M  V30 127 H 9.5596 -1.57069 -4.93507 0
M  V30 128 H 6.2366 0.865688 -4.08426 0
M  V30 129 H 7.6266 -2.57395 -6.20643 0
M  V30 130 N 10.3467 1.47872 -0.545128 0
M  V30 131 C 11.5947 2.02093 -0.016553 0
M  V30 132 C 11.9157 1.42305 1.3332 0
M  V30 133 O 11.1857 0.593853 1.86682 0
M  V30 134 H 9.7657 0.746993 -0.00313038 0
M  V30 135 H 12.4277 1.81414 -0.712397 0
M  V30 136 H 11.5237 3.11996 0.0805422 0
M  V30 137 N 11.8248 0.280983 1.55075 0
M  V30 138 C 13.0528 -0.337293 2.04132 0
M  V30 139 C 13.4678 -1.4903 1.15912 0
M  V30 140 O 12.8248 -1.81606 0.180459 0
M  V30 141 C 12.8758 -0.812706 3.52246 0
M  V30 142 O 12.5968 0.294387 4.3711 0
M  V30 143 C 14.0978 -1.4982 4.17216 0
M  V30 144 H 11.3178 -0.0761638 0.666663 0
M  V30 145 H 13.8618 0.414787 2.00249 0
M  V30 146 H 12.0168 -1.51486 3.56554 0
M  V30 147 H 12.4308 -0.0721325 5.2445 0
M  V30 148 H 13.9048 -1.7822 5.22438 0
M  V30 149 H 14.3818 -2.43168 3.65741 0
M  V30 150 H 14.9878 -0.839742 4.16927 0
M  V30 151 N 13.3029 -1.57598 0.00835791 0
M  V30 152 C 14.5799 -1.82172 -0.712235 0
M  V30 153 C 14.9599 -0.887873 -1.9152 0
M  V30 154 O 14.3079 0.06146 -2.28417 0
M  V30 155 C 14.5179 -3.30875 -1.11008 0
M  V30 156 C 15.8659 -3.96826 -1.51044 0
M  V30 157 O 16.8899 -3.35248 -1.20364 0
M  V30 158 O 15.7489 -5.05318 -2.08125 0
M  V30 159 H 12.8429 -0.750435 -0.347529 0
M  V30 160 H 15.3889 -1.69665 0.0344523 0
M  V30 161 H 14.1609 -3.90481 -0.252982 0
M  V30 162 H 13.7839 -3.48412 -1.9156 0
M  V30 163 N 14.781 0.264519 -1.55364 0
M  V30 164 C 16.006 1.01726 -1.80739 0
M  V30 165 C 16.431 1.78836 -0.583044 0
M  V30 166 O 15.789 1.75167 0.467566 0
M  V30 167 C 15.837 1.94482 -3.03659 0
M  V30 168 O 14.941 3.03386 -2.7934 0
M  V30 169 H 14.282 0.290395 -0.597132 0
M  V30 170 H 16.812 0.290854 -2.02522 0
M  V30 171 H 16.822 2.36278 -3.32621 0
M  V30 172 H 15.497 1.37772 -3.92418 0
M  V30 173 H 14.074 2.65844 -2.61498 0
M  V30 174 N 16.2591 1.48442 0.529413 0
M  V30 175 C 17.1691 1.6569 1.66084 0
M  V30 176 C 18.1851 0.539432 1.65427 0
M  V30 177 O 19.3611 0.810572 1.84368 0
M  V30 178 C 16.4261 1.69315 3.02545 0
M  V30 179 C 15.4871 2.92694 3.14052 0
M  V30 180 C 14.7201 2.96137 4.44003 0
M  V30 181 O 14.9431 2.07973 5.31134 0
M  V30 182 O 13.8771 3.88312 4.59888 0
M  V30 183 H 17.7031 2.61483 1.54469 0
M  V30 184 H 15.2881 1.3185 0.702567 0
M  V30 185 H 17.1701 1.74217 3.83701 0
M  V30 186 H 15.8451 0.766966 3.14483 0
M  V30 187 H 14.7521 2.93324 2.32189 0
M  V30 188 H 16.0851 3.84699 3.0703 0
M  V30 189 N 17.7372 -0.778329 1.37039 0
M  V30 190 C 18.6702 -1.8984 1.26633 0
M  V30 191 C 19.6482 -1.61923 0.148197 0
M  V30 192 O 20.8322 -1.85742 0.321265 0
M  V30 193 C 17.9592 -3.24916 0.956403 0
M  V30 194 C 17.0052 -3.71752 2.09051 0
M  V30 195 S 17.8382 -3.86201 3.70957 0
M  V30 196 C 18.9942 -5.24135 3.42101 0
M  V30 197 H 19.2272 -1.98377 2.21436 0
M  V30 198 H 16.7602 -0.938738 1.22585 0
M  V30 199 H 18.7182 -4.02936 0.784409 0
M  V30 200 H 17.3792 -3.14089 0.0259713 0
M  V30 201 H 16.5722 -4.69661 1.8285 0
M  V30 202 H 16.1742 -3.00815 2.2223 0
M  V30 203 H 18.4662 -6.09086 2.96682 0
M  V30 204 H 19.4092 -5.55346 4.39314 0
M  V30 205 H 19.8172 -4.91761 2.77185 0
M  V30 206 N 19.2153 -1.21501 -1.00376 0
M  V30 207 C 20.4633 -1.03095 -1.73827 0
M  V30 208 C 20.7843 0.436341 -1.90055 0
M  V30 209 O 20.0543 1.31466 -1.45236 0
M  V30 210 H 18.6343 -0.378487 -0.644016 0
M  V30 211 H 21.2963 -1.52831 -1.20949 0
M  V30 212 H 20.3923 -1.49991 -2.73695 0
M  V30 213 N 20.6934 1.19889 -1.02296 0
M  V30 214 C 21.6254 2.22334 -0.556787 0
M  V30 215 C 22.6384 1.58674 0.364199 0
M  V30 216 O 23.8274 1.77768 0.161533 0
M  V30 217 C 20.9274 3.38257 0.208694 0
M  V30 218 C 20.1004 4.31504 -0.71577 0
M  V30 219 C 19.1594 5.262 0.00325597 0
M  V30 220 O 18.1854 5.65798 -0.621357 0
M  V30 221 N 19.3874 5.66303 1.27599 0
M  V30 222 H 22.1524 2.62957 -1.43784 0
M  V30 223 H 19.7134 1.34495 -0.901261 0
M  V30 224 H 21.7054 3.98616 0.699111 0
M  V30 225 H 20.2754 2.96472 0.991102 0
M  V30 226 H 19.4954 3.69016 -1.38638 0
M  V30 227 H 20.7834 4.9072 -1.34428 0
M  V30 228 H 20.1814 5.36155 1.80429 0
M  V30 229 H 18.7384 6.28942 1.71102 0
M  V30 230 N 22.1715 0.800033 1.35784 0
M  V30 231 C 23.4195 0.376597 1.9856 0
M  V30 232 C 23.7405 -1.05812 1.63795 0
M  V30 233 O 23.0105 -1.73103 0.917171 0
M  V30 234 H 21.5905 0.136261 0.734467 0
M  V30 235 H 24.2525 1.02442 1.65806 0
M  V30 236 H 23.3485 0.477002 3.08433 0
M  V30 237 N 23.6496 -1.47581 0.552962 0
M  V30 238 C 25.0606 -1.86324 0.118463 0
M  V30 239 C 25.4116 -1.46006 -1.3106 0
M  V30 240 O 24.5366 -0.861182 -1.98526 0
M  V30 241 C 25.1316 -3.3816 0.20821 0
M  V30 242 C 23.6906 -3.7601 -0.171226 0
M  V30 243 C 22.8376 -2.71634 0.557686 0
M  V30 244 H 25.7886 -1.39159 0.762928 0
M  V30 245 H 25.8096 -3.76141 -0.574278 0
M  V30 246 H 25.3216 -3.67473 1.24841 0
M  V30 247 H 23.4226 -3.52313 -1.21269 0
M  V30 248 H 23.5356 -4.78745 0.184379 0
M  V30 249 H 21.8996 -2.547 0.00125792 0
M  V30 250 H 22.6826 -3.0379 1.59896 0
M  V30 251 N 25.1277 -0.289203 -1.54924 0
M  V30 252 C 26.3737 0.323998 -2.00195 0
M  V30 253 C 26.7067 1.54441 -1.17735 0
M  V30 254 O 25.9817 1.92875 -0.250878 0
M  V30 255 C 26.2647 0.692276 -3.53383 0
M  V30 256 C 26.1177 -0.536457 -4.46589 0
M  V30 257 C 27.4367 1.52335 -4.12895 0
M  V30 258 H 24.5557 0.116289 -0.727768 0
M  V30 259 H 27.1977 -0.398954 -1.85764 0
M  V30 260 H 25.3477 1.30822 -3.65811 0
M  V30 261 H 27.0197 -1.17499 -4.46085 0
M  V30 262 H 25.2627 -1.17192 -4.1767 0
M  V30 263 H 25.9337 -0.234806 -5.515 0
M  V30 264 H 28.4097 1.00302 -4.0383 0
M  V30 265 H 27.2857 1.74982 -5.20262 0
M  V30 266 H 27.5467 2.50886 -3.64018 0
M  V30 267 N 26.6058 1.57591 -0.0167156 0
M  V30 268 C 28.0218 1.55946 0.339557 0
M  V30 269 C 28.2218 1.02109 1.73713 0
M  V30 270 O 27.2778 0.662303 2.43659 0
M  V30 271 C 28.5908 3.00037 0.199499 0
M  V30 272 C 30.1388 3.11805 0.273193 0
M  V30 273 C 30.6138 4.57713 0.162068 0
M  V30 274 N 32.1048 4.6268 0.219444 0
M  V30 275 C 32.8398 5.73185 0.157054 0
M  V30 276 N 32.3358 6.92786 0.0442936 0
M  V30 277 N 34.1288 5.61707 0.21014 0
M  V30 278 H 26.2798 1.90921 -0.930758 0
M  V30 279 H 28.5428 0.877674 -0.358319 0
M  V30 280 H 28.2488 3.4333 -0.76273 0
M  V30 281 H 28.1228 3.64387 0.974786 0
M  V30 282 H 30.5098 2.68433 1.22587 0
M  V30 283 H 30.5908 2.50201 -0.532256 0
M  V30 284 H 30.2348 5.01763 -0.78714 0
M  V30 285 H 30.1648 5.17283 0.986222 0
M  V30 286 H 32.6558 3.76649 0.307246 0
M  V30 287 H 32.9688 7.728 0.00304069 0
M  V30 288 H 31.3138 6.94999 0.00968457 0
M  V30 289 H 34.5048 4.6716 0.296546 0
M  V30 290 H 34.6778 6.47807 0.158054 0
M  V30 291 N 28.0839 -0.256276 1.55502 0
M  V30 292 C 28.9939 -1.33882 1.92647 0
M  V30 293 C 30.0099 -1.53159 0.825727 0
M  V30 294 O 31.1859 -1.66963 1.12629 0
M  V30 295 C 28.2509 -2.6751 2.20543 0
M  V30 296 C 27.3119 -2.56836 3.43997 0
M  V30 297 C 26.5449 -3.84092 3.70553 0
M  V30 298 O 26.7679 -4.85545 2.99336 0
M  V30 299 O 25.7019 -3.83288 4.64084 0
M  V30 300 H 29.5279 -1.05374 2.84833 0
M  V30 301 H 27.1129 -0.456237 1.42263 0
M  V30 302 H 28.9949 -3.46492 2.39835 0
M  V30 303 H 27.6699 -2.9577 1.31536 0
M  V30 304 H 26.5769 -1.76172 3.30021 0
M  V30 305 H 27.9099 -2.33523 4.33275 0
M  V30 306 N 29.562 -1.4872 -0.521534 0
M  V30 307 C 30.787 -1.61101 -1.30618 0
M  V30 308 C 31.212 -0.274611 -1.86085 0
M  V30 309 O 30.57 0.754937 -1.64834 0
M  V30 310 C 30.618 -2.66709 -2.4269 0
M  V30 311 O 29.722 -2.24456 -3.45967 0
M  V30 312 H 29.063 -0.539921 -0.386499 0
M  V30 313 H 31.593 -1.94767 -0.626645 0
M  V30 314 H 31.603 -2.88245 -2.88754 0
M  V30 315 H 30.278 -3.63727 -2.01682 0
M  V30 316 H 28.855 -2.13168 -3.05964 0
M  V30 317 N 31.0401 0.771051 -1.3745 0
M  V30 318 C 31.9721 1.89352 -1.29146 0
M  V30 319 C 32.9851 1.61477 -0.207124 0
M  V30 320 O 34.1741 1.72382 -0.463324 0
M  V30 321 C 31.2741 3.24596 -0.974195 0
M  V30 322 C 30.4471 3.80111 -2.16413 0
M  V30 323 C 29.5061 4.93832 -1.81703 0
M  V30 324 O 28.5321 5.09382 -2.54006 0
M  V30 325 N 29.7341 5.75483 -0.761573 0
M  V30 326 H 32.4991 1.96991 -2.25864 0
M  V30 327 H 30.0601 0.950191 -1.31084 0
M  V30 328 H 32.0521 3.98193 -0.722828 0
M  V30 329 H 30.6221 3.12454 -0.0955527 0
M  V30 330 H 29.8421 2.98284 -2.57721 0
M  V30 331 H 31.1301 4.13932 -2.95867 0
M  V30 332 H 30.5281 5.65469 -0.161609 0
M  V30 333 H 29.0851 6.49302 -0.570064 0
M  V30 334 N 32.5182 1.22032 0.997298 0
M  V30 335 C 33.7432 1.06921 1.77715 0
M  V30 336 C 34.1682 -0.376226 1.84299 0
M  V30 337 O 33.5262 -1.27165 1.29223 0
M  V30 338 C 33.5742 1.67996 3.19076 0
M  V30 339 O 32.6782 0.930653 4.01762 0
M  V30 340 H 32.0192 0.375814 0.547412 0
M  V30 341 H 34.5492 1.61737 1.25309 0
M  V30 342 H 34.5592 1.72538 3.69723 0
M  V30 343 H 33.2342 2.73182 3.13599 0
M  V30 344 H 31.8112 0.960917 3.60307 0
M  V30 345 N 33.9963 -1.19345 1.0293 0
M  V30 346 C 35.2213 -1.93538 0.745511 0
M  V30 347 C 35.6463 -1.75007 -0.689511 0
M  V30 348 O 35.0043 -1.05265 -1.47611 0
M  V30 349 C 35.0523 -3.43336 1.10239 0
M  V30 350 O 34.1563 -4.11806 0.221289 0
M  V30 351 H 33.4973 -0.604193 0.275404 0
M  V30 352 H 36.0273 -1.5141 1.37609 0
M  V30 353 H 36.0373 -3.94004 1.05947 0
M  V30 354 H 34.7123 -3.56146 2.14786 0
M  V30 355 H 33.2893 -3.715 0.322842 0
M  V30 356 N 35.4744 -0.807222 -1.35358 0
M  V30 357 C 36.7514 -0.311126 -1.9311 0
M  V30 358 C 37.1314 1.19937 -1.73719 0
M  V30 359 O 36.4794 1.99918 -1.10657 0
M  V30 360 C 36.6894 -0.723226 -3.41424 0
M  V30 361 C 38.0374 -0.713078 -4.18569 0
M  V30 362 O 39.0614 -0.664811 -3.49941 0
M  V30 363 O 37.9204 -0.772022 -5.41019 0
M  V30 364 H 35.0144 -0.081526 -0.822972 0
M  V30 365 H 37.5604 -0.890962 -1.4443 0
M  V30 366 H 36.3324 -1.76426 -3.4927 0
M  V30 367 H 35.9554 -0.118232 -3.97424 0
M  V30 368 N 36.9525 1.47285 -0.560781 0
M  V30 369 C 38.3635 1.86258 -0.128343 0
M  V30 370 C 38.7145 1.46699 1.30284 0
M  V30 371 O 37.8395 0.871698 1.98067 0
M  V30 372 C 38.4345 3.38044 -0.22614 0
M  V30 373 C 36.9935 3.76096 0.151283 0
M  V30 374 C 36.1405 2.71335 -0.572084 0
M  V30 375 H 39.0915 1.38752 -0.770297 0
M  V30 376 H 39.1125 3.76441 0.554322 0
M  V30 377 H 38.6245 3.66806 -1.26788 0
M  V30 378 H 36.7255 3.52951 1.19399 0
M  V30 379 H 36.8385 4.78641 -0.209765 0
M  V30 380 H 35.2025 2.54696 -0.0147653 0
M  V30 381 H 35.9855 3.02938 -1.61504 0
M  V30 382 N 38.4306 0.297415 1.54768 0
M  V30 383 C 39.8416 -0.195947 1.85669 0
M  V30 384 C 40.1926 -1.53707 1.21937 0
M  V30 385 O 39.3176 -2.10164 0.515754 0
M  V30 386 C 39.9126 -0.362318 3.36857 0
M  V30 387 C 38.4716 -0.799901 3.67802 0
M  V30 388 C 37.6186 0.0938578 2.77141 0
M  V30 389 H 40.5696 0.518538 1.4999 0
M  V30 390 H 40.5906 -1.19745 3.61167 0
M  V30 391 H 40.1026 0.613921 3.83214 0
M  V30 392 H 38.2036 -1.78682 3.26961 0
M  V30 393 H 38.3166 -0.621773 4.75048 0
M  V30 394 H 36.6806 -0.426254 2.51108 0
M  V30 395 H 37.4636 1.06639 3.26318 0
M  V30 396 N 39.9087 -1.5758 0.0250728 0
M  V30 397 C 40.8717 -2.08896 -0.943139 0
M  V30 398 C 41.8717 -1.00321 -1.25668 0
M  V30 399 O 43.0617 -1.26495 -1.19769 0
M  V30 400 C 40.1937 -2.55143 -2.26086 0
M  V30 401 H 41.3867 -2.95723 -0.498775 0
M  V30 402 H 38.9397 -1.54703 -0.222888 0
M  V30 403 H 39.6747 -1.71633 -2.75159 0
M  V30 404 H 39.4597 -3.34461 -2.04641 0
M  V30 405 H 40.9497 -2.95083 -2.95492 0
M  V30 406 N 41.3868 0.248026 -1.55636 0
M  V30 407 C 42.3168 1.31079 -1.93237 0
M  V30 408 C 43.2978 1.50264 -0.797174 0
M  V30 409 O 44.4828 1.62891 -1.05737 0
M  V30 410 C 41.6128 2.66575 -2.22609 0
M  V30 411 C 40.5668 2.62087 -3.3837 0
M  V30 412 C 39.8928 4.01369 -3.53281 0
M  V30 413 C 41.1928 2.19171 -4.7409 0
M  V30 414 H 42.8868 0.998556 -2.82257 0
M  V30 415 H 40.4328 0.47891 -1.35803 0
M  V30 416 H 42.3858 3.41057 -2.47503 0
M  V30 417 H 41.1098 2.99432 -1.30414 0
M  V30 418 H 39.7688 1.90063 -3.13483 0
M  V30 419 H 39.4168 4.31489 -2.58508 0
M  V30 420 H 39.1168 3.99254 -4.31127 0
M  V30 421 H 40.6408 4.77552 -3.80495 0
M  V30 422 H 42.0548 2.83384 -4.98363 0
M  V30 423 H 40.4518 2.2817 -5.5503 0
M  V30 424 H 41.5218 1.14336 -4.71227 0
M  V30 425 N 42.8649 1.48995 0.513639 0
M  V30 426 C 43.7969 1.60836 1.63293 0
M  V30 427 C 44.8099 0.491701 1.55197 0
M  V30 428 O 45.9989 0.763238 1.6136 0
M  V30 429 C 43.0989 1.53731 3.02027 0
M  V30 430 C 42.2719 2.80715 3.35437 0
M  V30 431 C 41.3309 2.66837 4.53525 0
M  V30 432 O 40.3569 3.40753 4.55934 0
M  V30 433 N 41.5589 1.77539 5.52684 0
M  V30 434 H 44.3239 2.57366 1.53566 0
M  V30 435 H 41.8849 1.45925 0.701259 0
M  V30 436 H 43.8769 1.42118 3.78926 0
M  V30 437 H 42.4469 0.651092 3.05744 0
M  V30 438 H 41.6669 3.06772 2.47557 0
M  V30 439 H 42.9549 3.64927 3.54551 0
M  V30 440 H 42.3529 1.16719 5.53528 0
M  V30 441 H 40.9099 1.71856 6.28736 0
M  V30 442 N 44.343 -0.763751 1.37857 0
M  V30 443 C 45.59 -1.52257 1.33506 0
M  V30 444 C 45.918 -1.94343 -0.078022 0
M  V30 445 O 45.173 -1.64958 -1.05297 0
M  V30 446 C 45.472 -2.79499 2.22745 0
M  V30 447 C 45.138 -2.56426 3.70886 0
M  V30 448 C 43.8 -2.49842 4.11257 0
M  V30 449 C 46.152 -2.36008 4.64704 0
M  V30 450 C 43.48 -2.20841 5.43549 0
M  V30 451 C 45.832 -2.0853 5.97242 0
M  V30 452 C 44.496 -2.00396 6.36709 0
M  V30 453 H 43.766 -0.557149 0.488534 0
M  V30 454 H 46.413 -0.879073 1.70131 0
M  V30 455 H 44.718 -3.48447 1.79142 0
M  V30 456 H 46.415 -3.37413 2.16688 0
M  V30 457 H 43.005 -2.62416 3.38874 0
M  V30 458 H 47.189 -2.40079 4.34368 0
M  V30 459 H 42.445 -2.13045 5.73081 0
M  V30 460 H 46.619 -1.91732 6.69486 0
M  V30 461 H 44.246 -1.77688 7.39142 0
M  V30 462 N 45.8211 -1.22559 -0.990812 0
M  V30 463 C 47.2371 -0.985996 -1.255 0
M  V30 464 C 47.4371 0.319173 -1.98956 0
M  V30 465 O 46.4931 1.04127 -2.3003 0
M  V30 466 C 47.8061 -2.18607 -2.06474 0
M  V30 467 C 49.3541 -2.22985 -2.19651 0
M  V30 468 C 49.8291 -3.4255 -3.04012 0
M  V30 469 N 51.3201 -3.42725 -3.11599 0
M  V30 470 C 52.0551 -4.31892 -3.7717 0
M  V30 471 N 51.5511 -5.31279 -4.44651 0
M  V30 472 N 53.3441 -4.19662 -3.73952 0
M  V30 473 H 45.4951 -2.06469 -0.49841 0
M  V30 474 H 47.7581 -0.904853 -0.282747 0
M  V30 475 H 47.4641 -3.13267 -1.59865 0
M  V30 476 H 47.3381 -2.18838 -3.07229 0
M  V30 477 H 49.7251 -1.28871 -2.65474 0
M  V30 478 H 49.8061 -2.26791 -1.18319 0
M  V30 479 H 49.4501 -4.36965 -2.58889 0
M  V30 480 H 49.3801 -3.35984 -4.0549 0
M  V30 481 H 51.8711 -2.70807 -2.63575 0
M  V30 482 H 52.1841 -5.95593 -4.92431 0
M  V30 483 H 50.5291 -5.3519 -4.43392 0
M  V30 484 H 53.7201 -3.41268 -3.20396 0
M  V30 485 H 53.8931 -4.89358 -4.24774 0
M  V30 486 N 47.2992 1.18797 -1.03562 0
M  V30 487 C 48.5482 1.87978 -0.731235 0
M  V30 488 C 48.8612 1.80911 0.743671 0
M  V30 489 O 50.0672 2.45407 1.16137 0
M  V30 490 C 48.5232 3.3721 -1.25768 0
M  V30 491 C 48.1312 3.52818 -2.76085 0
M  V30 492 C 49.8752 4.11825 -1.0296 0
M  V30 493 C 47.7822 4.9598 -3.22114 0
M  V30 494 H 46.7122 0.704063 -0.269835 0
M  V30 495 H 49.3632 1.34266 -1.25079 0
M  V30 496 H 47.7452 3.90359 -0.666011 0
M  V30 497 H 48.9192 3.09965 -3.40966 0
M  V30 498 H 47.2342 2.91602 -2.97249 0
M  V30 499 H 49.8312 5.17411 -1.34869 0
M  V30 500 H 50.1742 4.16287 0.0333546 0
M  V30 501 H 50.7072 3.64833 -1.58562 0
M  V30 502 H 47.4462 4.96684 -4.27768 0
M  V30 503 H 46.9662 5.39569 -2.61965 0
M  V30 504 H 48.6452 5.6467 -3.15844 0
M  V30 505 N 48.7773 0.814389 1.34928 0
M  V30 506 C 50.0023 0.410097 2.03305 0
M  V30 507 C 50.4273 -0.973464 1.60951 0
M  V30 508 O 49.7853 -1.63185 0.789964 0
M  V30 509 C 49.8333 0.51049 3.56968 0
M  V30 510 O 48.9373 -0.473035 4.09678 0
M  V30 511 H 48.2783 0.170088 0.641846 0
M  V30 512 H 50.8083 1.10244 1.72358 0
M  V30 513 H 50.8183 0.383135 4.06197 0
M  V30 514 H 49.4933 1.51963 3.87144 0
M  V30 515 H 48.0703 -0.305272 3.71648 0
M  V30 516 N 50.2554 -1.46986 0.568584 0
M  V30 517 C 51.1654 -2.33942 -0.17555 0
M  V30 518 C 52.1814 -1.48891 -0.90041 0
M  V30 519 O 53.3574 -1.81794 -0.86676 0
M  V30 520 C 50.4224 -3.25811 -1.18524 0
M  V30 521 C 49.4834 -4.26757 -0.466582 0
M  V30 522 C 48.7164 -5.14236 -1.42817 0
M  V30 523 O 48.9394 -5.04379 -2.66379 0
M  V30 524 O 47.8734 -5.94412 -0.946453 0
M  V30 525 H 51.6994 -2.98896 0.538036 0
M  V30 526 H 49.2844 -1.4573 0.329097 0
M  V30 527 H 51.1664 -3.82527 -1.76779 0
M  V30 528 H 49.8414 -2.63471 -1.88055 0
M  V30 529 H 48.7484 -3.73769 0.157451 0
M  V30 530 H 50.0814 -4.91843 0.187485 0
M  V30 531 N 51.7335 -0.305618 -1.54608 0
M  V30 532 C 52.9635 0.304333 -2.04346 0
M  V30 533 C 53.3715 1.47715 -1.18224 0
M  V30 534 O 52.7145 1.82591 -0.201577 0
M  V30 535 C 52.7765 0.819031 -3.50046 0
M  V30 536 C 52.4405 -0.22912 -4.56425 0
M  V30 537 C 53.4375 -1.05914 -5.08997 0
M  V30 538 C 51.1225 -0.372148 -5.0092 0
M  V30 539 C 53.1165 -2.01809 -6.04609 0
M  V30 540 C 50.8035 -1.33454 -5.9635 0
M  V30 541 C 51.8015 -2.15599 -6.48079 0
M  V30 542 O 51.4895 -3.10205 -7.41639 0
M  V30 543 H 51.2215 0.0693996 -0.672428 0
M  V30 544 H 53.7755 -0.444548 -2.00532 0
M  V30 545 H 52.0055 1.61852 -3.51199 0
M  V30 546 H 53.6945 1.34537 -3.82955 0
M  V30 547 H 54.4605 -0.959538 -4.75413 0
M  V30 548 H 50.3395 0.257304 -4.60281 0
M  V30 549 H 53.8835 -2.65966 -6.44909 0
M  V30 550 H 49.7805 -1.43485 -6.29351 0
M  V30 551 H 50.5485 -3.05237 -7.59455 0
M  V30 552 N 53.2116 1.57565 -0.0334293 0
M  V30 553 C 54.1586 2.10478 0.946981 0
M  V30 554 C 55.1286 1.00787 1.32027 0
M  V30 555 O 56.3136 1.28232 1.41284 0
M  V30 556 C 53.4536 2.63994 2.22263 0
M  V30 557 C 52.5666 3.87709 1.90541 0
M  V30 558 C 51.7016 4.29604 3.12433 0
M  V30 559 C 50.7406 5.46065 2.76549 0
M  V30 560 N 49.8776 5.83096 3.9108 0
M  V30 561 H 54.7176 2.93963 0.488846 0
M  V30 562 H 52.2546 1.45296 0.22969 0
M  V30 563 H 54.2126 2.93114 2.96884 0
M  V30 564 H 52.8426 1.83333 2.65685 0
M  V30 565 H 51.8946 3.65291 1.06144 0
M  V30 566 H 53.2066 4.72403 1.60116 0
M  V30 567 H 52.3606 4.60182 3.9537 0
M  V30 568 H 51.0996 3.43685 3.46023 0
M  V30 569 H 50.1046 5.15176 1.92026 0
M  V30 570 H 51.3296 6.33685 2.44171 0
M  V30 571 H 49.2756 5.00132 4.24504 0
M  V30 572 H 49.1926 6.6244 3.64293 0
M  V30 573 H 50.4606 6.18282 4.74708 0
M  V30 574 N 54.6897 -0.239769 1.55765 0
M  V30 575 C 56.1007 -0.808263 1.68297 0
M  V30 576 C 56.4517 -1.85736 0.632181 0
M  V30 577 O 55.5767 -2.15277 -0.220204 0
M  V30 578 C 56.1717 -1.47284 3.05111 0
M  V30 579 C 54.7307 -1.98895 3.19559 0
M  V30 580 C 53.8777 -0.842575 2.64189 0
M  V30 581 H 56.8287 -0.0154422 1.58692 0
M  V30 582 H 56.8497 -2.34111 2.99954 0
M  V30 583 H 56.3617 -0.709053 3.81568 0
M  V30 584 H 54.4627 -2.78132 2.47938 0
M  V30 585 H 54.5757 -2.18143 4.26556 0
M  V30 586 H 52.9397 -1.24501 2.22197 0
M  V30 587 H 53.7227 -0.0917552 3.43177 0
M  V30 588 N 56.1678 -1.49265 -0.50573 0
M  V30 589 C 57.0978 -1.68495 -1.61653 0
M  V30 590 C 58.0788 -0.53366 -1.61512 0
M  V30 591 O 59.2638 -0.76897 -1.78327 0
M  V30 592 C 56.3938 -1.74709 -3.00157 0
M  V30 593 C 55.3478 -2.89581 -3.15162 0
M  V30 594 C 54.6738 -2.80903 -4.5497 0
M  V30 595 C 55.9738 -4.30578 -2.95634 0
M  V30 596 H 57.6678 -2.61493 -1.45814 0
M  V30 597 H 55.2138 -1.25838 -0.70005 0
M  V30 598 H 57.1668 -1.86748 -3.77761 0
M  V30 599 H 55.8908 -0.783067 -3.17074 0
M  V30 600 H 54.5498 -2.77136 -2.39982 0
M  V30 601 H 54.1978 -1.82419 -4.68756 0
M  V30 602 H 53.8978 -3.57999 -4.65951 0
M  V30 603 H 55.4218 -2.94944 -5.34641 0
M  V30 604 H 56.8358 -4.4373 -3.63011 0
M  V30 605 H 55.2328 -5.0886 -3.18091 0
M  V30 606 H 56.3028 -4.45352 -1.91806 0
M  V30 607 N 57.6459 0.756429 -1.3826 0
M  V30 608 C 58.5939 1.89149 -1.35372 0
M  V30 609 C 59.5879 1.67691 -0.24004 0
M  V30 610 O 60.7939 1.75294 -0.408919 0
M  V30 611 H 57.1689 0.622271 -0.422236 0
M  V30 612 H 59.1399 1.88701 -2.31159 0
M  V30 613 C 57.8889 3.26599 -1.19284 0
M  V30 614 H 57.2119 3.43695 -2.0424 0
M  V30 615 H 58.6519 4.06274 -1.21316 0
M  V30 616 C 57.1109 3.3675 0.100454 0
M  V30 617 O 57.6409 3.86951 1.07851 0
M  V30 618 N 55.8469 2.90179 0.15633 0
M  V30 619 H 55.3939 2.49517 -0.640253 0
M  V30 620 H 55.3519 2.97352 1.02123 0
M  V30 621 N 59.124 1.23083 0.984299 0
M  V30 622 C 60.057 0.951786 2.07404 0
M  V30 623 C 61.035 -0.10848 1.62238 0
M  V30 624 O 62.219 0.0249467 1.88483 0
M  V30 625 C 59.346 0.433142 3.35919 0
M  V30 626 C 58.392 1.47941 4.0002 0
M  V30 627 S 59.225 3.05556 4.39768 0
M  V30 628 C 60.381 2.55351 5.71442 0
M  V30 629 H 60.614 1.87456 2.30754 0
M  V30 630 H 58.147 1.06284 1.11996 0
M  V30 631 H 60.105 0.140506 4.10259 0
M  V30 632 H 58.766 -0.468656 3.10584 0
M  V30 633 H 57.959 1.06658 4.92585 0
M  V30 634 H 57.561 1.7212 3.3204 0
M  V30 635 H 59.853 1.97128 6.48187 0
M  V30 636 H 60.796 3.46441 6.17563 0
M  V30 637 H 61.204 1.96339 5.29255 0
M  V30 638 N 60.6021 -1.18246 1.0419 0
M  V30 639 C 61.5651 -2.20128 0.638452 0
M  V30 640 C 62.5651 -1.57885 -0.304805 0
M  V30 641 O 63.7551 -1.73967 -0.0900369 0
M  V30 642 C 60.8871 -3.4084 -0.0637751 0
M  V30 643 H 62.0801 -2.57336 1.54007 0
M  V30 644 H 59.6331 -1.32152 0.834598 0
M  V30 645 H 60.3681 -3.09166 -0.979136 0
M  V30 646 H 60.1531 -3.8726 0.614198 0
M  V30 647 H 61.6431 -4.16274 -0.332512 0
M  V30 648 N 62.0802 -0.821533 -1.34494 0
M  V30 649 C 63.3282 -0.408139 -1.97936 0
M  V30 650 C 63.6492 1.03193 -1.65457 0
M  V30 651 O 62.9192 1.71622 -0.944595 0
M  V30 652 H 61.4992 -0.147928 -0.732206 0
M  V30 653 H 64.1612 -1.05067 -1.64155 0
M  V30 654 H 63.2572 -0.52601 -3.07635 0
M  V30 655 N 63.5583 1.46682 -0.576371 0
M  V30 656 C 64.8043 2.02712 -0.0596221 0
M  V30 657 C 65.1373 1.44765 1.29448 0
M  V30 658 O 64.4123 0.610355 1.84675 0
M  V30 659 C 64.6953 3.60098 0.0129503 0
M  V30 660 C 64.5483 4.28441 -1.3696 0
M  V30 661 C 65.8673 4.34224 0.71678 0
M  V30 662 H 62.9863 0.736637 -0.0231407 0
M  V30 663 H 65.6283 1.74898 -0.742351 0
M  V30 664 H 63.7783 3.83926 0.594378 0
M  V30 665 H 65.4503 4.15896 -1.9957 0
M  V30 666 H 63.6933 3.8805 -1.93907 0
M  V30 667 H 64.3643 5.3716 -1.27135 0
M  V30 668 H 66.8403 4.15503 0.222908 0
M  V30 669 H 65.7163 5.43936 0.73657 0
M  V30 670 H 65.9773 4.04823 1.77682 0
M  V30 671 N 65.0364 0.313813 1.54444 0
M  V30 672 C 65.9464 -0.565714 2.27677 0
M  V30 673 C 66.9624 -1.13754 1.31666 0
M  V30 674 O 68.1384 -1.15959 1.64668 0
M  V30 675 C 65.2034 -1.71528 3.01296 0
M  V30 676 C 64.2644 -1.17624 4.12872 0
M  V30 677 C 63.4974 -2.27102 4.8297 0
M  V30 678 O 63.7204 -3.47256 4.52514 0
M  V30 679 O 62.6544 -1.9307 5.70094 0
M  V30 680 H 66.4804 0.0287296 3.03686 0
M  V30 681 H 64.0654 0.0798312 1.49187 0
M  V30 682 H 65.9474 -2.38476 3.4743 0
M  V30 683 H 64.6224 -2.29608 2.2817 0
M  V30 684 H 63.5294 -0.472124 3.71109 0
M  V30 685 H 64.8624 -0.640695 4.88012 0
M  V30 686 N 66.5145 -1.57545 0.0417849 0
M  V30 687 C 67.4465 -2.07904 -0.964799 0
M  V30 688 C 68.4595 -1.00497 -1.28079 0
M  V30 689 O 69.6485 -1.28087 -1.24322 0
M  V30 690 C 66.7485 -2.49928 -2.28887 0
M  V30 691 C 65.9215 -3.80562 -2.15619 0
M  V30 692 C 64.9805 -4.08999 -3.31069 0
M  V30 693 O 64.0065 -4.79061 -3.0739 0
M  V30 694 N 65.2085 -3.6017 -4.55256 0
M  V30 695 H 67.9735 -2.94886 -0.535029 0
M  V30 696 H 65.5345 -1.61252 -0.144681 0
M  V30 697 H 67.5265 -2.66034 -3.04972 0
M  V30 698 H 66.0965 -1.68245 -2.63463 0
M  V30 699 H 65.3165 -3.74129 -1.24183 0
M  V30 700 H 66.6045 -4.66126 -2.03971 0
M  V30 701 H 66.0025 -3.03512 -4.77386 0
M  V30 702 H 64.5595 -3.81532 -5.28466 0
M  V30 703 N 67.9926 0.231505 -1.5589 0
M  V30 704 C 69.4036 0.799327 -1.68724 0
M  V30 705 C 69.7546 1.85398 -0.642022 0
M  V30 706 O 68.8796 2.1539 0.208784 0
M  V30 707 C 69.4746 1.45664 -3.05888 0
M  V30 708 C 68.0336 1.97197 -3.20609 0
M  V30 709 C 67.1806 0.828552 -2.64632 0
M  V30 710 H 70.1316 0.00702616 -1.58698 0
M  V30 711 H 70.1526 2.32517 -3.01191 0
M  V30 712 H 69.6646 0.688808 -3.81939 0
M  V30 713 H 67.7656 2.76813 -2.4941 0
M  V30 714 H 67.8786 2.15878 -4.27707 0
M  V30 715 H 66.2426 1.23321 -2.22854 0
M  V30 716 H 67.0256 0.0735544 -3.43221 0
M  V30 717 N 69.4707 1.49531 0.497807 0
M  V30 718 C 70.8817 1.52344 1.07927 0
M  V30 719 C 71.2327 0.311469 1.93712 0
M  V30 720 O 70.3577 -0.578405 2.08527 0
M  V30 721 C 70.9527 2.76062 1.96405 0
M  V30 722 C 69.5117 2.81643 2.49709 0
M  V30 723 C 68.6587 2.46299 1.27404 0
M  V30 724 H 71.6097 1.56182 0.281576 0
M  V30 725 H 71.6307 2.56405 2.81135 0
M  V30 726 H 71.1427 3.64254 1.33943 0
M  V30 727 H 69.2437 1.97739 3.15801 0
M  V30 728 H 69.3567 3.83891 2.86643 0
M  V30 729 H 67.7207 1.98148 1.60029 0
M  V30 730 H 68.5037 3.36769 0.66645 0
M  V30 731 N 70.9488 -0.749086 1.3866 0
M  V30 732 C 72.1738 -1.54344 1.38538 0
M  V30 733 C 72.5988 -1.88088 -0.0216655 0
M  V30 734 O 71.9568 -1.50899 -1.00494 0
M  V30 735 C 72.0048 -2.8164 2.25192 0
M  V30 736 O 71.1088 -3.7698 1.67212 0
M  V30 737 H 70.4498 -0.466654 0.472367 0
M  V30 738 H 72.9798 -0.925355 1.82478 0
M  V30 739 H 72.9898 -3.30519 2.3921 0
M  V30 740 H 71.6648 -2.56411 3.27454 0
M  V30 741 H 70.2418 -3.35699 1.6236 0
M  V30 742 N 72.4269 -1.23603 -0.977757 0
M  V30 743 C 73.8379 -1.06424 -1.53398 0
M  V30 744 C 74.1889 0.367578 -1.92726 0
M  V30 745 O 73.3139 1.25465 -1.76316 0
M  V30 746 C 73.9089 -1.92568 -2.78753 0
M  V30 747 C 72.4679 -1.79642 -3.30765 0
M  V30 748 C 71.6149 -1.88111 -2.03739 0
M  V30 749 H 74.5659 -1.37227 -0.797152 0
M  V30 750 H 74.5869 -1.45203 -3.51705 0
M  V30 751 H 74.0989 -2.96771 -2.50098 0
M  V30 752 H 72.1999 -0.782325 -3.64294 0
M  V30 753 H 72.3129 -2.63174 -4.00345 0
M  V30 754 H 70.6769 -1.31723 -2.17994 0
M  V30 755 H 71.4599 -2.93875 -1.77461 0
M  V30 756 N 73.905 1.17692 -1.04816 0
M  V30 757 C 74.815 2.25229 -0.65643 0
M  V30 758 C 75.831 1.71018 0.320761 0
M  V30 759 O 77.007 2.00649 0.173805 0
M  V30 760 C 74.072 3.46684 -0.0332629 0
M  V30 761 C 73.133 4.15997 -1.06042 0
M  V30 762 C 72.366 5.31654 -0.466893 0
M  V30 763 O 72.589 5.65777 0.724758 0
M  V30 764 O 71.523 5.89831 -1.1993 0
M  V30 765 H 75.349 2.61016 -1.55255 0
M  V30 766 H 72.934 1.24919 -0.81949 0
M  V30 767 H 74.816 4.20234 0.313256 0
M  V30 768 H 73.491 3.12703 0.836566 0
M  V30 769 H 72.398 3.44482 -1.45886 0
M  V30 770 H 73.731 4.53996 -1.90127 0
M  V30 771 N 75.3831 0.828654 1.34056 0
M  V30 772 C 76.3131 0.269443 2.3194 0
M  V30 773 C 77.2941 -0.617247 1.58506 0
M  V30 774 O 78.4791 -0.542931 1.86456 0
M  V30 775 C 75.6091 -0.564793 3.42677 0
M  V30 776 C 74.5631 0.225241 4.27407 0
M  V30 777 C 73.8891 -0.7321 5.29664 0
M  V30 778 C 75.1891 1.43663 5.02154 0
M  V30 779 H 76.8831 1.08728 2.7896 0
M  V30 780 H 74.4291 0.524283 1.34117 0
M  V30 781 H 76.3821 -0.966233 4.10173 0
M  V30 782 H 75.1061 -1.41574 2.9432 0
M  V30 783 H 73.7651 0.608117 3.61521 0
M  V30 784 H 73.4131 -1.57916 4.77568 0
M  V30 785 H 73.1131 -0.20767 5.87233 0
M  V30 786 H 74.6371 -1.13128 6.00029 0
M  V30 787 H 76.0511 1.1089 5.62473 0
M  V30 788 H 74.4481 1.89711 5.69324 0
M  V30 789 H 75.5181 2.21181 4.31517 0
M  V30 790 N 76.8612 -1.46375 0.584142 0
M  V30 791 C 78.2772 -1.57694 0.245929 0
M  V30 792 C 78.4772 -1.57903 -1.25175 0
M  V30 793 O 77.5332 -1.49676 -2.03355 0
M  V30 794 C 78.8462 -2.87028 0.896402 0
M  V30 795 C 80.3942 -3.00662 0.870127 0
M  V30 796 C 80.8692 -4.32734 1.50017 0
M  V30 797 N 82.3602 -4.39436 1.46458 0
M  V30 798 C 83.0952 -5.40248 1.92144 0
M  V30 799 N 82.5912 -6.47726 2.4581 0
M  V30 800 N 84.3842 -5.31459 1.83052 0
M  V30 801 H 76.5352 -1.44483 1.55687 0
M  V30 802 H 78.7982 -0.689291 0.650831 0
M  V30 803 H 78.5042 -2.9269 1.95002 0
M  V30 804 H 78.3782 -3.75014 0.405486 0
M  V30 805 H 80.7652 -2.94581 -0.174871 0
M  V30 806 H 80.8462 -2.14148 1.39908 0
M  V30 807 H 80.4902 -4.39573 2.54437 0
M  V30 808 H 80.4202 -5.18025 0.946432 0
M  V30 809 H 82.9112 -3.62367 1.07231 0
M  V30 810 H 83.2242 -7.20863 2.78525 0
M  V30 811 H 81.5692 -6.48542 2.49836 0
M  V30 812 H 84.7602 -4.46396 1.40883 0
M  V30 813 H 84.9332 -6.09881 2.18973 0
M  V30 814 N 78.3393 -0.321999 -1.54275 0
M  V30 815 C 79.2713 0.578671 -2.21775 0
M  V30 816 C 80.2843 1.08109 -1.21722 0
M  V30 817 O 81.4733 0.994938 -1.482 0
M  V30 818 C 78.5733 1.80661 -2.86731 0
M  V30 819 C 77.7463 1.44314 -4.12907 0
M  V30 820 C 76.8053 2.52845 -4.61472 0
M  V30 821 O 75.8313 2.17054 -5.2619 0
M  V30 822 N 77.0333 3.83748 -4.35566 0
M  V30 823 H 79.7983 0.000709447 -2.997 0
M  V30 824 H 77.3593 -0.145132 -1.61248 0
M  V30 825 H 79.3513 2.52655 -3.16145 0
M  V30 826 H 77.9213 2.29245 -2.12521 0
M  V30 827 H 77.1413 0.554906 -3.90275 0
M  V30 828 H 78.4293 1.17598 -4.95023 0
M  V30 829 H 77.8273 4.15625 -3.83761 0
M  V30 830 H 76.3843 4.51977 -4.69638 0
M  V30 831 N 79.8174 1.5752 -0.0501392 0
M  V30 832 C 80.7274 2.14952 0.939827 0
M  V30 833 C 81.7434 1.10706 1.34239 0
M  V30 834 O 82.9194 1.42869 1.41952 0
M  V30 835 C 79.9844 2.68232 2.19665 0
M  V30 836 C 79.0454 3.87272 1.85253 0
M  V30 837 C 78.2784 4.38002 3.04943 0
M  V30 838 O 78.5014 3.87811 4.18281 0
M  V30 839 O 77.4354 5.29602 2.86017 0
M  V30 840 H 81.2614 2.9986 0.481392 0
M  V30 841 H 78.8464 1.4841 0.171699 0
M  V30 842 H 80.7284 3.02475 2.93406 0
M  V30 843 H 79.4034 1.86395 2.64648 0
M  V30 844 H 78.3104 3.5792 1.0883 0
M  V30 845 H 79.6434 4.70336 1.4507 0
M  V30 846 N 81.2955 -0.223234 1.56011 0
M  V30 847 C 82.5435 -0.946003 1.78592 0
M  V30 848 C 82.8645 -1.84936 0.618349 0
M  V30 849 O 82.1345 -1.92473 -0.364833 0
M  V30 850 H 80.7145 -0.352298 0.658707 0
M  V30 851 H 83.3765 -0.235494 1.93472 0
M  V30 852 H 82.4725 -1.55381 2.70672 0
M  V30 853 N 82.7736 -1.49793 -0.48987 0
M  V30 854 C 84.0196 -1.60078 -1.24511 0
M  V30 855 C 84.3526 -0.291608 -1.91998 0
M  V30 856 O 83.6276 0.705647 -1.81248 0
M  V30 857 C 83.9106 -2.76791 -2.30345 0
M  V30 858 C 83.7636 -4.17535 -1.67286 0
M  V30 859 C 85.0826 -2.89111 -3.31817 0
M  V30 860 H 82.2016 -0.582645 -0.451324 0
M  V30 861 H 84.8436 -1.82117 -0.541612 0
M  V30 862 H 82.9936 -2.5813 -2.90346 0
M  V30 863 H 84.6656 -4.4774 -1.11026 0
M  V30 864 H 82.9086 -4.22665 -0.976577 0
M  V30 865 H 83.5796 -4.95094 -2.44103 0
M  V30 866 H 86.0556 -3.06133 -2.81819 0
M  V30 867 H 84.9316 -3.72433 -4.03219 0
M  V30 868 H 85.1926 -1.9893 -3.94815 0
M  V30 869 N 84.2517 0.741722 -1.39055 0
M  V30 870 C 85.4797 1.53098 -1.39171 0
M  V30 871 C 85.8947 1.88794 0.0155099 0
M  V30 872 O 85.2517 1.53626 0.985159 0
M  V30 873 C 85.3027 2.82274 -2.2584 0
M  V30 874 O 85.0237 2.48097 -3.61081 0
M  V30 875 C 86.5247 3.76343 -2.34266 0
M  V30 876 H 83.7447 0.473335 -0.4756 0
M  V30 877 H 86.2887 0.917045 -1.82785 0
M  V30 878 H 84.4437 3.40015 -1.85656 0
M  V30 879 H 84.8577 3.31029 -4.06842 0
M  V30 880 H 86.3317 4.63898 -2.9917 0
M  V30 881 H 86.8087 4.17619 -1.35982 0
M  V30 882 H 87.4147 3.24523 -2.74891 0
M  V30 883 N 85.7298 1.2412 0.971189 0
M  V30 884 C 86.6398 1.04747 2.09917 0
M  V30 885 C 87.6558 -0.0107162 1.73997 0
M  V30 886 O 88.8318 0.186714 2.00533 0
M  V30 887 C 85.8968 0.650828 3.40537 0
M  V30 888 C 84.9578 1.7851 3.90426 0
M  V30 889 C 84.1908 1.40729 5.14812 0
M  V30 890 O 84.4138 0.29557 5.69634 0
M  V30 891 O 83.3478 2.23168 5.58999 0
M  V30 892 H 87.1738 1.99304 2.29154 0
M  V30 893 H 84.7588 1.02908 1.08307 0
M  V30 894 H 86.6408 0.440992 4.19086 0
M  V30 895 H 85.3158 -0.265649 3.22608 0
M  V30 896 H 84.2228 2.04966 3.12953 0
M  V30 897 H 85.5558 2.68023 4.12825 0
M  V30 898 N 87.2079 -1.17134 1.05439 0
M  V30 899 C 88.4379 -1.91094 0.785274 0
M  V30 900 C 88.8459 -1.77198 -0.663142 0
M  V30 901 O 88.1889 -1.10835 -1.46497 0
M  V30 902 C 88.2509 -3.42594 1.08949 0
M  V30 903 C 87.9149 -3.80274 2.53458 0
M  V30 904 C 88.9119 -3.82912 3.51673 0
M  V30 905 C 86.5969 -4.11162 2.88532 0
M  V30 906 C 88.5909 -4.15913 4.83006 0
M  V30 907 C 86.2779 -4.43831 4.20068 0
M  V30 908 C 87.2759 -4.46185 5.17115 0
M  V30 909 O 86.9639 -4.78083 6.46291 0
M  V30 910 H 86.6959 -0.613073 0.284811 0
M  V30 911 H 89.2499 -1.49461 1.40893 0
M  V30 912 H 87.4799 -3.84534 0.408741 0
M  V30 913 H 89.1689 -3.97817 0.805991 0
M  V30 914 H 89.9349 -3.5917 3.25917 0
M  V30 915 H 85.8139 -4.085 2.13656 0
M  V30 916 H 89.3579 -4.17665 5.5875 0
M  V30 917 H 85.2549 -4.67037 4.45586 0
M  V30 918 H 86.0229 -4.9593 6.51149 0
M  V30 919 N 88.686 -0.835752 -1.33615 0
M  V30 920 C 89.596 -0.269088 -2.33052 0
M  V30 921 C 90.612 0.603251 -1.63208 0
M  V30 922 O 91.788 0.508112 -1.94885 0
M  V30 923 C 88.853 0.549091 -3.42324 0
M  V30 924 C 87.914 -0.347156 -4.27894 0
M  V30 925 C 87.147 0.43207 -5.31948 0
M  V30 926 O 87.37 1.66409 -5.45586 0
M  V30 927 O 86.304 -0.192298 -6.01593 0
M  V30 928 H 90.13 -1.09243 -2.83372 0
M  V30 929 H 87.715 -0.598198 -1.36901 0
M  V30 930 H 89.597 1.01414 -4.09015 0
M  V30 931 H 88.272 1.34955 -2.94226 0
M  V30 932 H 87.179 -0.859979 -3.64081 0
M  V30 933 H 88.512 -1.1123 -4.79467 0
M  V30 934 N 90.1641 1.46063 -0.591896 0
M  V30 935 C 91.4411 1.95595 -0.0137119 0
M  V30 936 C 91.8211 1.5345 1.4497 0
M  V30 937 O 91.1691 0.789543 2.14426 0
M  V30 938 C 91.3791 3.48453 -0.195373 0
M  V30 939 C 92.7271 4.24546 -0.0679765 0
M  V30 940 O 93.7511 3.55982 -0.124681 0
M  V30 941 O 92.6101 5.46467 0.0600579 0
M  V30 942 H 89.7041 0.825795 0.0446279 0
M  V30 943 H 92.2501 1.56303 -0.660859 0
M  V30 944 H 91.0221 3.72045 -1.21235 0
M  V30 945 H 90.6451 3.94597 0.487775 0
M  V30 946 N 91.6422 0.330177 1.54103 0
M  V30 947 C 92.8902 -0.269871 2.0029 0
M  V30 948 C 93.2112 -1.52133 1.21986 0
M  V30 949 O 92.4812 -1.93212 0.323438 0
M  V30 950 H 91.0612 -0.10271 0.739905 0
M  V30 951 H 93.7232 0.448249 1.89675 0
M  V30 952 H 92.8192 -0.52166 3.07709 0
M  V30 953 N 93.1203 -1.57491 0.0584922 0
M  V30 954 C 94.3683 -1.92597 -0.612436 0
M  V30 955 C 94.6893 -0.938162 -1.70949 0
M  V30 956 O 93.9593 0.0158301 -1.95894 0
M  V30 957 H 92.5393 -0.710964 -0.229214 0
M  V30 958 H 95.2013 -1.94571 0.113218 0
M  V30 959 H 94.2973 -2.94038 -1.04633 0
M  V30 960 N 94.5984 0.214957 -1.56127 0
M  V30 961 C 95.5614 1.24997 -1.92116 0
M  V30 962 C 96.5614 1.39467 -0.800344 0
M  V30 963 O 97.7514 1.37619 -1.06802 0
M  V30 964 C 94.8834 2.62271 -2.17777 0
M  V30 965 H 96.0764 0.942875 -2.84693 0
M  V30 966 H 93.6294 0.455654 -1.49511 0
M  V30 967 H 94.3644 2.98068 -1.27773 0
M  V30 968 H 94.1494 2.53143 -2.99434 0
M  V30 969 H 95.6394 3.36946 -2.46693 0
M  V30 970 N 96.0765 1.50051 0.48192 0
M  V30 971 C 97.4875 1.5348 1.06305 0
M  V30 972 C 97.8385 0.331997 1.93371 0
M  V30 973 O 96.9635 -0.556256 2.09129 0
M  V30 974 C 97.5585 2.7813 1.93466 0
M  V30 975 C 96.1175 2.84275 2.46707 0
M  V30 976 C 95.2645 2.47637 1.24785 0
M  V30 977 H 98.2155 1.56472 0.264995 0
M  V30 978 H 98.2365 2.59372 2.78399 0
M  V30 979 H 97.7485 3.65654 1.30072 0
M  V30 980 H 95.8495 2.01077 3.13686 0
M  V30 981 H 95.9625 3.8691 2.82555 0
M  V30 982 H 94.3265 1.99835 1.57918 0
M  V30 983 H 95.1095 3.37457 0.630694 0
M  V30 984 N 97.5546 -0.734337 1.39446 0
M  V30 985 C 98.5176 -1.83004 1.37994 0
M  V30 986 C 99.5176 -1.58397 0.276938 0
M  V30 987 O 100.708 -1.65785 0.534875 0
M  V30 988 C 97.8396 -3.20802 1.1532 0
M  V30 989 H 99.0326 -1.85694 2.35494 0
M  V30 990 H 96.5856 -0.938059 1.25021 0
M  V30 991 H 97.3206 -3.23772 0.185036 0
M  V30 992 H 97.1056 -3.4006 1.95197 0
M  V30 993 H 98.5956 -4.00862 1.17046 0
M  V30 994 N 99.0327 -1.24633 -0.964593 0
M  V30 995 C 100.281 -1.08573 -1.70459 0
M  V30 996 C 100.602 0.375655 -1.91347 0
M  V30 997 O 99.8717 1.26779 -1.49345 0
M  V30 998 H 98.4517 -0.398784 -0.631649 0
M  V30 999 H 101.114 -1.56601 -1.16026 0
M  V30 1000 H 100.21 -1.58623 -2.68785 0
M  V30 1001 N 100.511 1.16574 -1.06058 0
M  V30 1002 C 101.788 1.83048 -0.689416 0
M  V30 1003 C 102.168 1.94122 0.829443 0
M  V30 1004 O 101.516 1.48249 1.7388 0
M  V30 1005 C 101.726 3.20186 -1.38859 0
M  V30 1006 C 103.074 3.95989 -1.53226 0
M  V30 1007 O 104.098 3.29696 -1.3483 0
M  V30 1008 O 102.957 5.14813 -1.83384 0
M  V30 1009 H 100.051 0.790258 -0.243764 0
M  V30 1010 H 102.597 1.23797 -1.16071 0
M  V30 1011 H 101.369 3.07146 -2.4244 0
M  V30 1012 H 100.992 3.87112 -0.907216 0
M  V30 1013 N 101.989 0.842826 1.3317 0
M  V30 1014 C 103.237 0.439577 1.97262 0
M  V30 1015 C 103.558 -1.00548 1.67078 0
M  V30 1016 O 102.828 -1.70098 0.971779 0
M  V30 1017 H 101.408 0.159558 0.72976 0
M  V30 1018 H 104.07 1.07665 1.62463 0
M  V30 1019 H 103.166 0.574886 3.0676 0
M  V30 1020 N 103.467 -1.45747 0.599634 0
M  V30 1021 C 104.377 -2.34262 -0.125888 0
M  V30 1022 C 105.393 -1.50768 -0.868625 0
M  V30 1023 O 106.569 -1.83592 -0.828003 0
M  V30 1024 C 103.634 -3.28252 -1.11587 0
M  V30 1025 C 102.695 -4.27651 -0.375956 0
M  V30 1026 C 101.928 -5.1715 -1.31877 0
M  V30 1027 O 102.151 -5.09916 -2.55621 0
M  V30 1028 O 101.085 -5.96286 -0.820157 0
M  V30 1029 H 104.911 -2.97688 0.601315 0
M  V30 1030 H 102.496 -1.44999 0.359934 0
M  V30 1031 H 104.378 -3.86191 -1.68626 0
M  V30 1032 H 103.053 -2.67401 -1.82424 0
M  V30 1033 H 101.96 -3.7335 0.236698 0
M  V30 1034 H 103.293 -4.91334 0.29177 0
M  V30 1035 N 104.945 -0.338344 -1.53925 0
M  V30 1036 C 105.908 0.508299 -2.23493 0
M  V30 1037 C 106.908 1.03175 -1.23335 0
M  V30 1038 O 108.098 0.921826 -1.47811 0
M  V30 1039 C 105.23 1.70754 -2.95052 0
M  V30 1040 H 106.423 -0.100058 -2.99733 0
M  V30 1041 H 103.976 -0.0896198 -1.56043 0
M  V30 1042 H 104.711 2.35474 -2.22986 0
M  V30 1043 H 104.496 1.33946 -3.68512 0
M  V30 1044 H 105.986 2.30818 -3.48013 0
M  V30 1045 N 106.423 1.57458 -0.0668435 0
M  V30 1046 C 107.671 1.92919 0.602214 0
M  V30 1047 C 107.992 0.947215 1.70449 0
M  V30 1048 O 107.262 -0.00544117 1.95899 0
M  V30 1049 H 105.842 0.71217 0.22544 0
M  V30 1050 H 108.504 1.94508 -0.123535 0
M  V30 1051 H 107.6 2.94589 1.03073 0
M  V30 1052 N 107.901 -0.206675 1.56239 0
M  V30 1053 C 109.312 -0.772383 1.69974 0
M  V30 1054 C 109.663 -1.84353 0.671436 0
M  V30 1055 O 108.788 -2.15695 -0.174491 0
M  V30 1056 C 109.383 -1.40779 3.08167 0
M  V30 1057 C 107.942 -1.92072 3.23706 0
M  V30 1058 C 107.089 -0.786347 2.65917 0
M  V30 1059 H 110.04 0.0182223 1.5869 0
M  V30 1060 H 110.061 -2.27696 3.04852 0
M  V30 1061 H 109.573 -0.627958 3.82986 0
M  V30 1062 H 107.674 -2.7281 2.53782 0
M  V30 1063 H 107.787 -2.09046 4.31087 0
M  V30 1064 H 106.151 -1.1976 2.24788 0
M  V30 1065 H 106.934 -0.0189416 3.43295 0
M  V30 1066 N 109.379 -1.50304 -0.473955 0
M  V30 1067 C 110.311 -1.65109 -1.58971 0
M  V30 1068 C 111.324 -0.532676 -1.53839 0
M  V30 1069 O 112.513 -0.805751 -1.59279 0
M  V30 1070 C 109.613 -1.61684 -2.97845 0
M  V30 1071 C 108.786 -2.8951 -3.27876 0
M  V30 1072 C 107.845 -2.78768 -4.4629 0
M  V30 1073 O 106.871 -3.52722 -4.46739 0
M  V30 1074 N 108.073 -1.9213 -5.47783 0
M  V30 1075 H 110.838 -2.61347 -1.46689 0
M  V30 1076 H 108.399 -1.47732 -0.662324 0
M  V30 1077 H 110.391 -1.52114 -3.75024 0
M  V30 1078 H 108.961 -0.731925 -3.03911 0
M  V30 1079 H 108.181 -3.13228 -2.39336 0
M  V30 1080 H 109.469 -3.74199 -3.4475 0
M  V30 1081 H 108.867 -1.31353 -5.50239 0
M  V30 1082 H 107.424 -1.88466 -6.23958 0
M  V30 1083 N 110.857 0.726932 -1.39834 0
M  V30 1084 C 111.789 1.85147 -1.35104 0
M  V30 1085 C 112.802 1.60736 -0.258392 0
M  V30 1086 O 113.991 1.70821 -0.517931 0
M  V30 1087 C 111.091 3.21332 -1.07697 0
M  V30 1088 C 110.264 3.73033 -2.28396 0
M  V30 1089 C 109.323 4.87802 -1.97322 0
M  V30 1090 O 108.349 5.01043 -2.70083 0
M  V30 1091 N 109.551 5.72768 -0.944273 0
M  V30 1092 H 112.316 1.89706 -2.32017 0
M  V30 1093 H 109.877 0.908006 -1.3404 0
M  V30 1094 H 111.869 3.95691 -0.849144 0
M  V30 1095 H 110.439 3.11992 -0.194909 0
M  V30 1096 H 109.659 2.89934 -2.6708 0
M  V30 1097 H 110.947 4.0431 -3.08887 0
M  V30 1098 H 110.345 5.64669 -0.341427 0
M  V30 1099 H 108.902 6.4716 -0.776346 0
M  V30 1100 N 112.336 1.25143 0.95797 0
M  V30 1101 C 113.299 1.05321 2.03569 0
M  V30 1102 C 114.299 0.007152 1.60798 0
M  V30 1103 O 115.489 0.24903 1.72411 0
M  V30 1104 C 112.621 0.598394 3.35607 0
M  V30 1105 H 113.814 2.00986 2.22586 0
M  V30 1106 H 111.367 1.07502 1.13459 0
M  V30 1107 H 112.102 -0.361014 3.22284 0
M  V30 1108 H 111.887 1.35351 3.67998 0
M  V30 1109 H 113.377 0.48104 4.1482 0
M  V30 1110 N 113.814 -1.1601 1.06675 0
M  V30 1111 C 114.724 -2.24156 0.692179 0
M  V30 1112 C 115.74 -1.71507 -0.293513 0
M  V30 1113 O 116.916 -2.009 -0.141861 0
M  V30 1114 C 113.981 -3.46587 0.0884131 0
M  V30 1115 C 113.042 -4.14257 1.12646 0
M  V30 1116 C 112.275 -5.30844 0.551416 0
M  V30 1117 O 112.498 -5.66858 -0.634656 0
M  V30 1118 O 111.432 -5.87848 1.29298 0
M  V30 1119 H 115.258 -2.58513 1.59388 0
M  V30 1120 H 112.843 -1.23599 0.83926 0
M  V30 1121 H 114.725 -4.20679 -0.246361 0
M  V30 1122 H 113.4 -3.13994 -0.786712 0
M  V30 1123 H 112.307 -3.42118 1.51348 0
M  V30 1124 H 113.64 -4.50914 1.97325 0
M  V30 1125 N 115.292 -0.849877 -1.32721 0
M  V30 1126 C 116.569 -0.372405 -1.92022 0
M  V30 1127 C 116.949 1.1435 -1.77447 0
M  V30 1128 O 116.297 1.96296 -1.16962 0
M  V30 1129 C 116.507 -0.831482 -3.3895 0
M  V30 1130 C 117.855 -0.845882 -4.16089 0
M  V30 1131 O 118.879 -0.775806 -3.47649 0
M  V30 1132 O 117.738 -0.943753 -5.38289 0
M  V30 1133 H 114.832 -0.107667 -0.819961 0
M  V30 1134 H 117.378 -0.93646 -1.41522 0
M  V30 1135 H 116.15 -1.87448 -3.4348 0
M  V30 1136 H 115.773 -0.24461 -3.96847 0
M  V30 1137 N 116.77 1.45427 -0.607355 0
M  V30 1138 C 117.72 2.27612 0.133038 0
M  V30 1139 C 118.704 1.37307 0.838785 0
M  V30 1140 O 119.896 1.61299 0.728813 0
M  V30 1141 C 117.025 3.24173 1.12991 0
M  V30 1142 C 116.111 4.21965 0.425011 0
M  V30 1143 N 116.502 5.02982 -0.533217 0
M  V30 1144 C 114.8 4.40899 0.672593 0
M  V30 1145 C 115.501 5.73931 -0.947518 0
M  V30 1146 N 114.477 5.42819 -0.291321 0
M  V30 1147 H 118.279 2.87649 -0.602935 0
M  V30 1148 H 115.793 1.56576 -0.431006 0
M  V30 1149 H 117.79 3.81783 1.67473 0
M  V30 1150 H 116.45 2.65696 1.86644 0
M  V30 1151 H 117.461 5.09843 -0.90995 0
M  V30 1152 H 114.138 3.93547 1.39382 0
M  V30 1153 H 115.528 6.49037 -1.73782 0
M  V30 1154 N 118.248 0.346503 1.53744 0
M  V30 1155 C 119.659 -0.136779 1.86198 0
M  V30 1156 C 120.01 -1.49749 1.26766 0
M  V30 1157 O 119.135 -2.08417 0.582355 0
M  V30 1158 C 119.73 -0.254966 3.37839 0
M  V30 1159 C 118.289 -0.682482 3.70161 0
M  V30 1160 C 117.436 0.181981 2.76702 0
M  V30 1161 H 120.387 0.565994 1.48264 0
M  V30 1162 H 120.408 -1.08195 3.64793 0
M  V30 1163 H 119.92 0.735526 3.81066 0
M  V30 1164 H 118.021 -1.68189 3.3248 0
M  V30 1165 H 118.134 -0.470326 4.76786 0
M  V30 1166 H 116.498 -0.34615 2.52337 0
M  V30 1167 H 117.281 1.16966 3.2276 0
M  V30 1168 N 119.726 -1.57421 0.075193 0
M  V30 1169 C 120.658 -2.09904 -0.920483 0
M  V30 1170 C 121.671 -1.03191 -1.25918 0
M  V30 1171 O 122.86 -1.30695 -1.21577 0
M  V30 1172 C 119.96 -2.54726 -2.23534 0
M  V30 1173 C 119.133 -3.8505 -2.07498 0
M  V30 1174 C 118.192 -4.15929 -3.22319 0
M  V30 1175 O 117.218 -4.85474 -2.9716 0
M  V30 1176 N 118.42 -3.69745 -4.47514 0
M  V30 1177 H 121.185 -2.95954 -0.472359 0
M  V30 1178 H 118.746 -1.61523 -0.110444 0
M  V30 1179 H 120.738 -2.72443 -2.9926 0
M  V30 1180 H 119.308 -1.73795 -2.59835 0
M  V30 1181 H 118.528 -3.76679 -1.16219 0
M  V30 1182 H 119.816 -4.70348 -1.94038 0
M  V30 1183 H 119.214 -3.13569 -4.7084 0
M  V30 1184 H 117.771 -3.92655 -5.20255 0
M  V30 1185 N 121.204 0.198386 -1.56346 0
M  V30 1186 C 122.152 1.26538 -1.95169 0
M  V30 1187 C 123.146 1.47295 -0.836685 0
M  V30 1188 O 124.352 1.48195 -1.02167 0
M  V30 1189 H 120.727 0.424744 -0.620561 0
M  V30 1190 H 122.698 0.910904 -2.84157 0
M  V30 1191 C 121.447 2.6035 -2.30463 0
M  V30 1192 H 120.77 2.45192 -3.15786 0
M  V30 1193 H 122.21 3.33762 -2.61494 0
M  V30 1194 C 120.669 3.17096 -1.13806 0
M  V30 1195 O 121.199 3.99588 -0.41135 0
M  V30 1196 N 119.405 2.75795 -0.915736 0
M  V30 1197 H 118.952 2.08816 -1.50843 0
M  V30 1198 H 118.91 3.14101 -0.136979 0
M  V30 1199 N 122.682 1.50554 0.465978 0
M  V30 1200 C 124.093 1.54599 1.04671 0
M  V30 1201 C 124.444 0.352488 1.93008 0
M  V30 1202 O 123.569 -0.534044 2.09707 0
M  V30 1203 C 124.164 2.80166 1.90505 0
M  V30 1204 C 122.723 2.86876 2.43678 0
M  V30 1205 C 121.87 2.48947 1.22151 0
M  V30 1206 H 124.821 1.56744 0.248384 0
M  V30 1207 H 124.842 2.62311 2.75633 0
M  V30 1208 H 124.354 3.67013 1.26186 0
M  V30 1209 H 122.455 2.04393 3.11536 0
M  V30 1210 H 122.568 3.89885 2.78436 0
M  V30 1211 H 120.932 2.01498 1.5579 0
M  V30 1212 H 121.715 3.38107 0.594866 0
M  V30 1213 N 124.16 -0.719506 1.40217 0
M  V30 1214 C 125.571 -1.29848 1.34151 0
M  V30 1215 C 125.922 -1.96196 0.0131349 0
M  V30 1216 O 125.047 -1.973 -0.88892 0
M  V30 1217 C 125.642 -2.36118 2.42968 0
M  V30 1218 C 124.201 -2.8965 2.40374 0
M  V30 1219 C 123.348 -1.63393 2.24049 0
M  V30 1220 H 126.299 -0.51591 1.5008 0
M  V30 1221 H 126.32 -3.16871 2.10649 0
M  V30 1222 H 125.832 -1.878 3.39636 0
M  V30 1223 H 123.933 -3.42208 1.47392 0
M  V30 1224 H 124.046 -3.4171 3.35814 0
M  V30 1225 H 122.41 -1.88312 1.71495 0
M  V30 1226 H 123.193 -1.17104 3.2271 0
M  V30 1227 N 125.638 -1.25649 -0.95132 0
M  V30 1228 C 126.548 -1.08073 -2.08224 0
M  V30 1229 C 127.564 -0.0169666 -1.73992 0
M  V30 1230 O 128.74 -0.218593 -2.0021 0
M  V30 1231 C 125.805 -0.704922 -3.39458 0
M  V30 1232 C 124.866 -1.84699 -3.87537 0
M  V30 1233 C 124.099 -1.48902 -5.12508 0
M  V30 1234 O 124.322 -0.386156 -5.69091 0
M  V30 1235 O 123.256 -2.32033 -5.55378 0
M  V30 1236 H 127.082 -2.02924 -2.25954 0
M  V30 1237 H 124.667 -1.04618 -1.06656 0
M  V30 1238 H 126.549 -0.507609 -4.18332 0
M  V30 1239 H 125.224 0.214291 -3.2299 0
M  V30 1240 H 124.131 -2.09919 -3.09653 0
M  V30 1241 H 125.464 -2.74557 -4.08509 0
M  V30 1242 N 127.117 1.15442 -1.07289 0
M  V30 1243 C 128.394 1.82306 -0.708792 0
M  V30 1244 C 128.774 1.94991 0.808807 0
M  V30 1245 O 128.122 1.50085 1.72298 0
M  V30 1246 C 128.332 3.18695 -1.42247 0
M  V30 1247 C 129.68 3.94341 -1.57417 0
M  V30 1248 O 130.704 3.28247 -1.38319 0
M  V30 1249 O 129.563 5.12839 -1.88834 0
M  V30 1250 H 126.657 0.787628 -0.252132 0
M  V30 1251 H 129.203 1.22559 -1.17377 0
M  V30 1252 H 127.975 3.04557 -2.45684 0
M  V30 1253 H 127.598 3.86128 -0.948223 0
M  V30 1254 N 128.595 0.856903 1.32268 0
M  V30 1255 C 130.006 0.515711 1.79436 0
M  V30 1256 C 130.357 -0.966586 1.70738 0
M  V30 1257 O 129.482 -1.75409 1.26731 0
M  V30 1258 C 130.077 0.929335 3.25805 0
M  V30 1259 C 128.636 0.640006 3.70919 0
M  V30 1260 C 127.783 1.12784 2.53328 0
M  V30 1261 H 130.734 1.04389 1.19535 0
M  V30 1262 H 130.755 0.246633 3.797 0
M  V30 1263 H 130.267 2.00821 3.32103 0
M  V30 1264 H 128.368 -0.428051 3.70133 0
M  V30 1265 H 128.481 1.20788 4.63624 0
M  V30 1266 H 126.845 0.548033 2.48734 0
M  V30 1267 H 127.628 2.21387 2.62379 0
M  V30 1268 N 130.073 -1.45103 0.615059 0
M  V30 1269 C 131.021 -2.32331 -0.111791 0
M  V30 1270 C 132.015 -1.46409 -0.852102 0
M  V30 1271 O 133.221 -1.62849 -0.766821 0
M  V30 1272 H 129.596 -0.749993 -0.0549072 0
M  V30 1273 H 131.567 -2.91407 0.642225 0
M  V30 1274 C 130.316 -3.3015 -1.09071 0
M  V30 1275 H 129.639 -3.96265 -0.530485 0
M  V30 1276 H 131.079 -3.93898 -1.56908 0
M  V30 1277 C 129.538 -2.57875 -2.168 0
M  V30 1278 O 130.068 -2.36567 -3.24652 0
M  V30 1279 N 128.274 -2.17884 -1.92289 0
M  V30 1280 H 127.821 -2.35413 -1.04587 0
M  V30 1281 H 127.779 -1.6985 -2.64572 0
M  V30 1282 N 131.551 -0.354651 -1.53558 0
M  V30 1283 C 132.483 0.5315 -2.22952 0
M  V30 1284 C 133.496 1.05503 -1.23988 0
M  V30 1285 O 134.685 0.963279 -1.50277 0
M  V30 1286 C 131.785 1.74538 -2.90499 0
M  V30 1287 C 130.958 1.35524 -4.15875 0
M  V30 1288 C 130.017 2.42999 -4.66731 0
M  V30 1289 O 129.043 2.05844 -5.30676 0
M  V30 1290 N 130.245 3.74423 -4.43608 0
M  V30 1291 H 133.01 -0.0628615 -2.99634 0
M  V30 1292 H 130.571 -0.179302 -1.60904 0
M  V30 1293 H 132.563 2.45892 -3.21433 0
M  V30 1294 H 131.133 2.24686 -2.17336 0
M  V30 1295 H 130.353 0.471998 -3.91364 0
M  V30 1296 H 131.641 1.07071 -4.97406 0
M  V30 1297 H 131.039 4.07391 -3.92491 0
M  V30 1298 H 129.596 4.41913 -4.7912 0
M  V30 1299 N 133.029 1.57378 -0.0835403 0
M  V30 1300 C 134.306 1.85363 0.624507 0
M  V30 1301 C 134.686 0.978239 1.87066 0
M  V30 1302 O 134.034 0.0475908 2.2845 0
M  V30 1303 C 134.244 3.35795 0.950947 0
M  V30 1304 C 135.592 4.03581 1.31939 0
M  V30 1305 O 136.616 3.40609 1.04232 0
M  V30 1306 O 135.475 5.14672 1.83779 0
M  V30 1307 H 132.569 0.766162 0.311329 0
M  V30 1308 H 135.115 1.69307 -0.115362 0
M  V30 1309 H 133.887 3.91244 0.0663899 0
M  V30 1310 H 133.51 3.57154 1.74719 0
M  V30 1311 N 134.507 -0.190092 1.56449 0
M  V30 1312 C 135.918 -0.754312 1.70784 0
M  V30 1313 C 136.269 -1.83631 0.690951 0
M  V30 1314 O 135.394 -2.15868 -0.151604 0
M  V30 1315 C 135.989 -1.37503 3.09642 0
M  V30 1316 C 134.548 -1.88628 3.25725 0
M  V30 1317 C 133.695 -0.758098 2.66736 0
M  V30 1318 H 136.646 0.0350524 1.58661 0
M  V30 1319 H 136.667 -2.2445 3.0725 0
M  V30 1320 H 136.179 -0.587302 3.83631 0
M  V30 1321 H 134.28 -2.70103 2.56661 0
M  V30 1322 H 134.393 -2.04462 4.3328 0
M  V30 1323 H 132.757 -1.17369 2.26046 0
M  V30 1324 H 133.54 0.0174705 3.43296 0
M  V30 1325 N 135.985 -1.50799 -0.457987 0
M  V30 1326 C 137.396 -1.55152 -1.0385 0
M  V30 1327 C 137.747 -0.362719 -1.92818 0
M  V30 1328 O 136.872 0.522915 -2.09987 0
M  V30 1329 C 137.467 -2.81173 -1.89017 0
M  V30 1330 C 136.026 -2.88164 -2.42154 0
M  V30 1331 C 135.173 -2.49591 -1.20829 0
M  V30 1332 H 138.124 -1.56874 -0.240068 0
M  V30 1333 H 138.145 -2.63769 -2.74238 0
M  V30 1334 H 137.657 -3.67677 -1.24238 0
M  V30 1335 H 135.758 -2.06042 -3.10447 0
M  V30 1336 H 135.871 -3.91356 -2.76364 0
M  V30 1337 H 134.235 -2.02322 -1.54719 0
M  V30 1338 H 135.018 -3.38418 -0.576927 0
M  V30 1339 N 137.463 0.71206 -1.40597 0
M  V30 1340 C 138.373 1.8562 -1.43466 0
M  V30 1341 C 139.389 1.70902 -0.326902 0
M  V30 1342 O 140.565 1.93105 -0.572043 0
M  V30 1343 C 137.63 3.21451 -1.29884 0
M  V30 1344 C 136.691 3.48398 -2.50833 0
M  V30 1345 C 135.924 4.77749 -2.3789 0
M  V30 1346 O 136.147 5.53089 -1.39459 0
M  V30 1347 O 135.081 5.05111 -3.27333 0
M  V30 1348 H 138.907 1.86155 -2.39958 0
M  V30 1349 H 136.492 0.86295 -1.21957 0
M  V30 1350 H 138.374 4.02579 -1.24531 0
M  V30 1351 H 137.049 3.21636 -0.364997 0
M  V30 1352 H 135.956 2.67265 -2.61763 0
M  V30 1353 H 137.289 3.53014 -3.4299 0
M  V30 1354 N 138.941 1.26152 0.944643 0
M  V30 1355 C 140.218 1.02247 1.66748 0
M  V30 1356 C 140.598 -0.448202 2.06287 0
M  V30 1357 O 139.946 -1.42779 1.78399 0
M  V30 1358 C 140.156 1.96788 2.88228 0
M  V30 1359 C 141.504 2.25201 3.59958 0
M  V30 1360 O 142.528 1.94626 2.98327 0
M  V30 1361 O 141.387 2.77242 4.70956 0
M  V30 1362 H 138.481 0.388517 0.730057 0
M  V30 1363 H 141.027 1.37348 0.99668 0
M  V30 1364 H 139.799 2.96047 2.55875 0
M  V30 1365 H 139.422 1.62145 3.63035 0
M  V30 1366 N 140.419 -1.14872 1.07899 0
M  V30 1367 C 141.696 -1.81928 0.71845 0
M  V30 1368 C 142.076 -1.95417 -0.798455 0
M  V30 1369 O 141.424 -1.50997 -1.715 0
M  V30 1370 C 141.634 -3.17937 1.43935 0
M  V30 1371 C 142.982 -3.93501 1.59506 0
M  V30 1372 O 144.006 -3.27509 1.40058 0
M  V30 1373 O 142.865 -5.1183 1.91551 0
M  V30 1374 H 139.959 -0.78628 0.256305 0
M  V30 1375 H 142.505 -1.21934 1.18026 0
M  V30 1376 H 141.277 -3.0325 2.47295 0
M  V30 1377 H 140.9 -3.85619 0.968687 0
M  V30 1378 N 141.898 -0.863906 -1.31812 0
M  V30 1379 C 143.123 -0.48527 -2.01643 0
M  V30 1380 C 143.548 0.913058 -1.64453 0
M  V30 1381 O 142.906 1.6014 -0.849985 0
M  V30 1382 C 142.954 -0.642625 -3.54828 0
M  V30 1383 O 142.058 0.320659 -4.11151 0
M  V30 1384 H 141.399 -0.193793 -0.635091 0
M  V30 1385 H 143.929 -1.16565 -1.68148 0
M  V30 1386 H 143.939 -0.533628 -4.04495 0
M  V30 1387 H 142.614 -1.66227 -3.81237 0
M  V30 1388 H 141.191 0.167126 -3.72525 0
M  V30 1389 N 143.376 1.44774 -0.622745 0
M  V30 1390 C 144.604 2.06487 -0.130722 0
M  V30 1391 C 145.019 1.46476 1.19123 0
M  V30 1392 O 144.376 0.584502 1.72887 0
M  V30 1393 C 144.427 3.615 -0.000807207 0
M  V30 1394 O 144.148 4.19274 -1.27048 0
M  V30 1395 C 145.649 4.40229 0.520898 0
M  V30 1396 H 142.869 0.666704 -0.0758106 0
M  V30 1397 H 145.413 1.85779 -0.854774 0
M  V30 1398 H 143.568 3.81498 0.673643 0
M  V30 1399 H 143.982 5.12622 -1.1099 0
M  V30 1400 H 145.456 5.49144 0.560838 0
M  V30 1401 H 145.933 4.1108 1.54627 0
M  V30 1402 H 146.539 4.25131 -0.120018 0
M  V30 1403 N 144.854 0.36279 1.53368 0
M  V30 1404 C 146.094 -0.227882 2.03126 0
M  V30 1405 C 146.458 -1.4622 1.24434 0
M  V30 1406 O 147.659 -2.12831 1.64184 0
M  V30 1407 C 145.93 -0.515427 3.53664 0
M  V30 1408 S 147.489 -1.08017 4.25297 0
M  V30 1409 H 144.307 -0.0665377 0.70788 0
M  V30 1410 H 146.909 0.50501 1.88865 0
M  V30 1411 H 145.613 0.390436 4.08539 0
M  V30 1412 H 145.144 -1.27747 3.72081 0
M  V30 1413 H 147.159 -2.36462 4.36234 0
M  V30 1414 N 146.332 -1.57332 0.0918853 0
M  V30 1415 C 147.264 -2.10869 -0.898168 0
M  V30 1416 C 148.277 -1.04521 -1.24817 0
M  V30 1417 O 149.466 -1.31977 -1.20184 0
M  V30 1418 C 146.566 -2.57083 -2.2082 0
M  V30 1419 C 145.739 -3.87229 -2.03402 0
M  V30 1420 C 144.798 -4.19324 -3.17889 0
M  V30 1421 O 143.824 -4.88598 -2.91994 0
M  V30 1422 N 145.026 -3.74471 -4.43567 0
M  V30 1423 H 147.791 -2.96439 -0.440943 0
M  V30 1424 H 145.352 -1.61631 -0.0933064 0
M  V30 1425 H 147.344 -2.75602 -2.96354 0
M  V30 1426 H 145.914 -1.76541 -2.57977 0
M  V30 1427 H 145.134 -3.7789 -1.12218 0
M  V30 1428 H 146.422 -4.72379 -1.89038 0
M  V30 1429 H 145.82 -3.18546 -4.67488 0
M  V30 1430 H 144.377 -3.98151 -5.16061 0
M  V30 1431 N 147.81 0.181792 -1.56548 0
M  V30 1432 C 149.05 0.906711 -1.83189 0
M  V30 1433 C 149.414 1.79882 -0.671312 0
M  V30 1434 O 150.615 2.56054 -0.81792 0
M  V30 1435 C 148.886 1.69023 -3.14906 0
M  V30 1436 S 150.445 2.46535 -3.62996 0
M  V30 1437 H 147.263 0.303877 -0.642791 0
M  V30 1438 H 149.865 0.169107 -1.94767 0
M  V30 1439 H 148.569 1.02571 -3.97376 0
M  V30 1440 H 148.1 2.46941 -3.06241 0
M  V30 1441 H 150.115 3.71014 -3.29489 0
M  V30 1442 N 149.288 1.51039 0.449983 0
M  V30 1443 C 150.22 1.67617 1.56324 0
M  V30 1444 C 151.233 0.557083 1.52972 0
M  V30 1445 O 152.422 0.830989 1.57977 0
M  V30 1446 C 149.522 1.66402 2.95235 0
M  V30 1447 C 148.695 2.9469 3.23229 0
M  V30 1448 C 147.754 2.85832 4.41799 0
M  V30 1449 O 146.78 3.59785 4.41071 0
M  V30 1450 N 147.982 2.00821 5.44657 0
M  V30 1451 H 150.747 2.63648 1.42512 0
M  V30 1452 H 148.308 1.48767 0.638737 0
M  V30 1453 H 150.3 1.58062 3.72557 0
M  V30 1454 H 148.87 0.780182 3.02708 0
M  V30 1455 H 148.09 3.16996 2.34323 0
M  V30 1456 H 149.378 3.79636 3.38754 0
M  V30 1457 H 148.776 1.40091 5.48079 0
M  V30 1458 H 147.333 1.98368 6.20881 0
M  V30 1459 N 150.766 -0.704594 1.40972 0
M  V30 1460 C 151.729 -1.80035 1.41845 0
M  V30 1461 C 152.729 -1.57774 0.310474 0
M  V30 1462 O 153.919 -1.64613 0.56992 0
M  V30 1463 C 151.051 -3.18284 1.22098 0
M  V30 1464 H 152.244 -1.80658 2.3938 0
M  V30 1465 H 149.797 -0.911329 1.26982 0
M  V30 1466 H 150.532 -3.23306 0.253672 0
M  V30 1467 H 150.317 -3.35843 2.02366 0
M  V30 1468 H 151.807 -3.98289 1.25522 0
M  V30 1469 N 152.244 -1.26651 -0.937939 0
M  V30 1470 C 153.484 -1.13611 -1.69917 0
M  V30 1471 C 153.848 0.314687 -1.89404 0
M  V30 1472 O 155.049 0.567285 -2.62746 0
M  V30 1473 C 153.32 -1.88742 -3.03498 0
M  V30 1474 S 154.879 -1.91794 -3.94665 0
M  V30 1475 H 151.697 -0.405767 -0.583844 0
M  V30 1476 H 154.299 -1.60416 -1.11745 0
M  V30 1477 H 153.003 -2.9336 -2.86999 0
M  V30 1478 H 152.534 -1.42391 -3.66727 0
M  V30 1479 H 154.549 -1.00698 -4.85875 0
M  V30 1480 N 153.722 1.14298 -1.08507 0
M  V30 1481 C 154.97 1.84993 -0.813763 0
M  V30 1482 C 155.291 1.83405 0.662393 0
M  V30 1483 O 154.561 1.28319 1.48024 0
M  V30 1484 H 153.141 0.684966 -0.298045 0
M  V30 1485 H 155.803 1.385 -1.37126 0
M  V30 1486 H 154.899 2.89788 -1.15884 0
M  V30 1487 N 155.201 0.870884 1.31352 0
M  V30 1488 C 156.612 0.534714 1.78879 0
M  V30 1489 C 156.963 -0.948423 1.71754 0
M  V30 1490 O 156.088 -1.74055 1.28584 0
M  V30 1491 C 156.683 0.963839 3.24801 0
M  V30 1492 C 155.242 0.679311 3.70219 0
M  V30 1493 C 154.389 1.15465 2.52117 0
M  V30 1494 H 157.34 1.05651 1.18421 0
M  V30 1495 H 157.361 0.286892 3.79417 0
M  V30 1496 H 156.873 2.04332 3.29955 0
M  V30 1497 H 154.974 -0.388769 3.70566 0
M  V30 1498 H 155.087 1.25698 4.62317 0
M  V30 1499 H 153.451 0.574383 2.48139 0
M  V30 1500 H 154.234 2.24157 2.60016 0
M  V30 1501 N 156.679 -1.44442 0.630414 0
M  V30 1502 C 157.629 -2.27794 -0.0968103 0
M  V30 1503 C 158.613 -1.38624 -0.816834 0
M  V30 1504 O 159.805 -1.62438 -0.70306 0
M  V30 1505 C 156.934 -3.25929 -1.07819 0
M  V30 1506 C 156.02 -4.22588 -0.357826 0
M  V30 1507 N 156.411 -5.0207 0.613169 0
M  V30 1508 C 154.709 -4.41914 -0.602365 0
M  V30 1509 C 155.41 -5.72351 1.03871 0
M  V30 1510 N 154.386 -5.42287 0.377642 0
M  V30 1511 H 158.188 -2.86653 0.648621 0
M  V30 1512 H 155.702 -1.55871 0.455862 0
M  V30 1513 H 157.699 -3.84399 -1.61378 0
M  V30 1514 H 156.359 -2.68631 -1.82393 0
M  V30 1515 H 157.37 -5.08331 0.990947 0
M  V30 1516 H 154.047 -3.95714 -1.33103 0
M  V30 1517 H 155.437 -6.4619 1.84086 0
M  V30 1518 N 158.157 -0.370918 -1.53173 0
M  V30 1519 C 159.089 0.507823 -2.23503 0
M  V30 1520 C 160.102 1.04182 -1.251 0
M  V30 1521 O 161.291 0.947286 -1.5129 0
M  V30 1522 C 158.391 1.71447 -2.92334 0
M  V30 1523 C 157.564 1.31105 -4.17289 0
M  V30 1524 C 156.623 2.38035 -4.69282 0
M  V30 1525 O 155.649 2.00204 -5.32829 0
M  V30 1526 N 156.851 3.69697 -4.47554 0
M  V30 1527 H 159.616 -0.0946382 -2.99551 0
M  V30 1528 H 157.177 -0.196358 -1.60705 0
M  V30 1529 H 159.169 2.42469 -3.24023 0
M  V30 1530 H 157.739 2.22368 -2.19707 0
M  V30 1531 H 156.959 0.430462 -3.91843 0
M  V30 1532 H 158.247 1.0179 -4.98514 0
M  V30 1533 H 157.645 4.03205 -3.9679 0
M  V30 1534 H 156.202 4.36807 -4.8378 0
M  V30 1535 N 159.635 1.57281 -0.100228 0
M  V30 1536 C 160.598 2.13158 0.842398 0
M  V30 1537 C 161.598 1.06202 1.20738 0
M  V30 1538 O 162.788 1.32066 1.13597 0
M  V30 1539 C 159.92 2.65639 2.13655 0
M  V30 1540 H 161.113 2.97766 0.357114 0
M  V30 1541 H 158.666 1.5559 0.148823 0
M  V30 1542 H 159.401 1.84566 2.66657 0
M  V30 1543 H 159.186 3.43844 1.88451 0
M  V30 1544 H 160.676 3.08846 2.81077 0
M  V30 1545 N 161.113 -0.173488 1.56642 0
M  V30 1546 C 162.076 -1.19859 1.95362 0
M  V30 1547 C 163.076 -1.37296 0.83704 0
M  V30 1548 O 164.266 -1.34739 1.10413 0
M  V30 1549 C 161.398 -2.56405 2.24654 0
M  V30 1550 H 162.591 -0.867062 2.87092 0
M  V30 1551 H 160.144 -0.415853 1.50666 0
M  V30 1552 H 160.879 -2.94576 1.35631 0
M  V30 1553 H 160.664 -2.45115 3.06041 0
M  V30 1554 H 162.154 -3.30287 2.5554 0
M  V30 1555 N 162.591 -1.51276 -0.441967 0
M  V30 1556 C 163.839 -1.63392 -1.18943 0
M  V30 1557 C 164.16 -0.350159 -1.9183 0
M  V30 1558 O 163.43 0.633784 -1.85364 0
M  V30 1559 H 162.01 -0.602164 -0.442049 0
M  V30 1560 H 164.672 -1.88186 -0.507165 0
M  V30 1561 H 163.768 -2.45934 -1.92154 0
M  V30 1562 N 164.069 0.697108 -1.41344 0
M  V30 1563 C 165.48 1.27697 -1.36199 0
M  V30 1564 C 165.831 1.9615 -0.0443463 0
M  V30 1565 O 164.956 1.98689 0.857419 0
M  V30 1566 C 165.551 2.32223 -2.46694 0
M  V30 1567 C 164.11 2.8579 -2.44952 0
M  V30 1568 C 163.257 1.59807 -2.26621 0
M  V30 1569 H 166.208 0.491968 -1.50882 0
M  V30 1570 H 166.229 3.1348 -2.15664 0
M  V30 1571 H 165.741 1.82373 -3.42581 0
M  V30 1572 H 163.842 3.3982 -1.52817 0
M  V30 1573 H 163.955 3.36325 -3.41207 0
M  V30 1574 H 162.319 1.8556 -1.7447 0
M  V30 1575 H 163.102 1.11956 -3.24532 0
M  V30 1576 N 165.547 1.27147 0.931209 0
M  V30 1577 C 166.824 1.0401 1.65654 0
M  V30 1578 C 167.204 -0.426297 2.06751 0
M  V30 1579 O 166.552 -1.40879 1.79904 0
M  V30 1580 C 166.762 1.99834 2.86125 0
M  V30 1581 C 168.11 2.29007 3.57549 0
M  V30 1582 O 169.134 1.97779 2.96246 0
M  V30 1583 O 167.993 2.82222 4.67989 0
M  V30 1584 H 165.087 0.396239 0.725895 0
M  V30 1585 H 167.633 1.38397 0.982056 0
M  V30 1586 H 166.405 2.98744 2.52721 0
M  V30 1587 H 166.028 1.65987 3.61295 0
M  V30 1588 N 167.025 -1.13721 1.09112 0
M  V30 1589 C 167.955 -2.21148 0.749385 0
M  V30 1590 C 168.936 -1.6792 -0.271475 0
M  V30 1591 O 170.121 -1.93693 -0.140251 0
M  V30 1592 C 167.251 -3.46905 0.165659 0
M  V30 1593 C 166.205 -4.13203 1.11567 0
M  V30 1594 C 165.531 -5.33248 0.393809 0
M  V30 1595 C 166.831 -4.60912 2.45678 0
M  V30 1596 H 168.525 -2.4999 1.64758 0
M  V30 1597 H 166.071 -1.20156 0.793626 0
M  V30 1598 H 168.024 -4.21313 -0.085466 0
M  V30 1599 H 166.748 -3.17449 -0.767714 0
M  V30 1600 H 165.407 -3.40758 1.35202 0
M  V30 1601 H 165.055 -5.00054 -0.543599 0
M  V30 1602 H 164.755 -5.78552 1.02721 0
M  V30 1603 H 166.279 -6.10413 0.150908 0
M  V30 1604 H 167.693 -5.26759 2.26269 0
M  V30 1605 H 166.09 -5.16944 3.04776 0
M  V30 1606 H 167.16 -3.75603 3.06677 0
M  V30 1607 N 168.503 -0.877838 -1.30888 0
M  V30 1608 C 169.751 -0.491723 -1.96027 0
M  V30 1609 C 170.072 0.960827 -1.69685 0
M  V30 1610 O 169.342 1.67462 -1.01654 0
M  V30 1611 H 167.922 -0.17885 -0.725273 0
M  V30 1612 H 170.584 -1.11935 -1.59551 0
M  V30 1613 H 169.68 -0.656016 -3.05128 0
M  V30 1614 N 169.982 1.44106 -0.638065 0
M  V30 1615 C 171.207 2.0685 -0.150916 0
M  V30 1616 C 171.632 1.47417 1.16833 0
M  V30 1617 O 170.99 0.578264 1.71831 0
M  V30 1618 C 171.038 3.60555 -0.05708 0
M  V30 1619 O 170.142 4.00465 0.984972 0
M  V30 1620 H 169.483 0.658151 -0.0879399 0
M  V30 1621 H 172.013 1.84865 -0.876707 0
M  V30 1622 H 172.023 4.07789 0.131232 0
M  V30 1623 H 170.698 4.03193 -1.02021 0
M  V30 1624 H 169.275 3.64849 0.770672 0
M  V30 1625 N 171.46 0.379036 1.52974 0
M  V30 1626 C 172.685 -0.209353 2.06341 0
M  V30 1627 C 173.11 -1.40583 1.24972 0
M  V30 1628 O 172.468 -1.79246 0.272155 0
M  V30 1629 C 172.516 -0.567786 3.56102 0
M  V30 1630 O 171.62 -1.66318 3.77375 0
M  V30 1631 H 170.961 -0.0272919 0.663439 0
M  V30 1632 H 173.491 0.543536 1.97248 0
M  V30 1633 H 173.501 -0.835003 3.99364 0
M  V30 1634 H 172.176 0.307013 4.14765 0
M  V30 1635 H 170.753 -1.39048 3.46006 0
M  V30 1636 N 172.938 -1.57226 0.108567 0
M  V30 1637 C 173.886 -2.16002 -0.862885 0
M  V30 1638 C 174.88 -1.10644 -1.28274 0
M  V30 1639 O 176.086 -1.28966 -1.2557 0
M  V30 1640 H 172.461 -0.691148 -0.296342 0
M  V30 1641 H 174.432 -2.96427 -0.342575 0
M  V30 1642 C 173.181 -2.76576 -2.10716 0
M  V30 1643 H 172.504 -3.5734 -1.793 0
M  V30 1644 H 173.944 -3.21253 -2.76717 0
M  V30 1645 C 172.403 -1.73137 -2.89007 0
M  V30 1646 O 172.933 -1.17842 -3.84026 0
M  V30 1647 N 171.139 -1.43317 -2.52801 0
M  V30 1648 H 170.686 -1.88473 -1.75601 0
M  V30 1649 H 170.644 -0.743485 -3.05483 0
M  V30 1650 N 174.416 0.165178 -1.56732 0
M  V30 1651 C 175.693 0.908443 -1.73224 0
M  V30 1652 C 176.073 2.0013 -0.67165 0
M  V30 1653 O 175.421 2.26353 0.31253 0
M  V30 1654 C 175.631 1.46756 -3.16644 0
M  V30 1655 C 176.979 1.93809 -3.77787 0
M  V30 1656 O 178.003 1.56537 -3.1996 0
M  V30 1657 O 176.862 2.62486 -4.79336 0
M  V30 1658 H 173.956 0.428025 -0.707618 0
M  V30 1659 H 176.502 0.152526 -1.69013 0
M  V30 1660 H 175.274 0.68129 -3.85323 0
M  V30 1661 H 174.897 2.28749 -3.25207 0
M  V30 1662 N 175.894 1.51508 0.433938 0
M  V30 1663 C 177.142 1.6402 1.18075 0
M  V30 1664 C 177.463 0.360328 1.91642 0
M  V30 1665 O 176.733 -0.623945 1.85698 0
M  V30 1666 H 175.313 0.6045 0.43885 0
M  V30 1667 H 177.975 1.88452 0.497178 0
M  V30 1668 H 177.071 2.46949 1.90847 0
M  V30 1669 N 177.372 -0.689602 1.41712 0
M  V30 1670 C 178.612 -1.46184 1.42862 0
M  V30 1671 C 178.976 -1.91962 0.0382204 0
M  V30 1672 O 180.177 -2.68694 -0.0755019 0
M  V30 1673 C 178.448 -2.6371 2.4123 0
M  V30 1674 S 180.007 -3.52768 2.6096 0
M  V30 1675 H 176.825 -0.49947 0.506015 0
M  V30 1676 H 179.427 -0.804107 1.78198 0
M  V30 1677 H 178.131 -2.28293 3.41044 0
M  V30 1678 H 177.662 -3.3437 2.07269 0
M  V30 1679 H 179.677 -4.59146 1.88148 0
M  V30 1680 N 178.85 -1.27639 -0.924453 0
M  V30 1681 C 180.261 -1.12834 -1.48746 0
M  V30 1682 C 180.612 0.285505 -1.94112 0
M  V30 1683 O 179.737 1.17874 -1.81479 0
M  V30 1684 C 180.332 -2.04217 -2.70334 0
M  V30 1685 C 178.891 -1.93509 -3.22848 0
M  V30 1686 C 178.038 -1.96583 -1.95577 0
M  V30 1687 H 180.989 -1.40484 -0.738233 0
M  V30 1688 H 181.01 -1.59989 -3.4523 0
M  V30 1689 H 180.522 -3.07111 -2.37285 0
M  V30 1690 H 178.623 -0.936131 -3.60649 0
M  V30 1691 H 178.736 -2.79917 -3.88823 0
M  V30 1692 H 177.1 -1.4085 -2.12211 0
M  V30 1693 H 177.883 -3.01137 -1.64837 0
M  V30 1694 N 180.328 1.1314 -1.09713 0
M  V30 1695 C 181.26 2.18343 -0.697056 0
M  V30 1696 C 182.273 1.60669 0.262551 0
M  V30 1697 O 183.462 1.78435 0.0481527 0
M  V30 1698 C 180.562 3.38899 -0.00684728 0
M  V30 1699 C 179.735 4.26078 -0.988741 0
M  V30 1700 C 178.794 5.25155 -0.331394 0
M  V30 1701 O 177.82 5.60701 -0.979926 0
M  V30 1702 N 179.022 5.73271 0.913261 0
M  V30 1703 H 181.787 2.5328 -1.60216 0
M  V30 1704 H 179.348 1.28491 -0.984971 0
M  V30 1705 H 181.34 4.02255 0.444191 0
M  V30 1706 H 179.91 3.02175 0.800551 0
M  V30 1707 H 179.13 3.59453 -1.61826 0
M  V30 1708 H 180.418 4.81178 -1.65364 0
M  V30 1709 H 179.816 5.46544 1.45966 0
M  V30 1710 H 178.373 6.3855 1.30757 0
M  V30 1711 N 181.806 0.884767 1.30421 0
M  V30 1712 C 182.736 0.367574 2.30589 0
M  V30 1713 C 183.717 -0.549464 1.60981 0
M  V30 1714 O 184.902 -0.46336 1.88591 0
M  V30 1715 C 182.032 -0.418944 3.44764 0
M  V30 1716 C 180.986 0.406316 4.26067 0
M  V30 1717 C 180.312 -0.506793 5.32293 0
M  V30 1718 C 181.612 1.64832 4.95608 0
M  V30 1719 H 183.306 1.20462 2.74097 0
M  V30 1720 H 180.852 0.580695 1.31772 0
M  V30 1721 H 182.805 -0.791395 4.13902 0
M  V30 1722 H 181.529 -1.28964 3.0006 0
M  V30 1723 H 180.188 0.760903 3.58617 0
M  V30 1724 H 179.836 -1.37519 4.83836 0
M  V30 1725 H 179.536 0.0415828 5.87585 0
M  V30 1726 H 181.06 -0.875764 6.04287 0
M  V30 1727 H 182.474 1.34646 5.57264 0
M  V30 1728 H 180.871 2.13688 5.60765 0
M  V30 1729 H 181.941 2.39284 4.21748 0
M  V30 1730 N 183.284 -1.43765 0.645699 0
M  V30 1731 C 184.531 -2.01898 0.15604 0
M  V30 1732 C 184.859 -1.50887 -1.22733 0
M  V30 1733 O 184.114 -0.689271 -1.8316 0
M  V30 1734 C 184.413 -3.57238 0.107679 0
M  V30 1735 C 184.079 -4.27564 1.43178 0
M  V30 1736 C 182.741 -4.46492 1.7944 0
M  V30 1737 C 185.093 -4.67454 2.30513 0
M  V30 1738 C 182.421 -5.02573 3.02716 0
M  V30 1739 C 184.773 -5.24901 3.53074 0
M  V30 1740 C 183.437 -5.42046 3.89541 0
M  V30 1741 H 182.707 -0.738797 0.057099 0
M  V30 1742 H 185.354 -1.72341 0.834912 0
M  V30 1743 H 183.659 -3.86293 -0.654618 0
M  V30 1744 H 185.356 -3.99965 -0.287938 0
M  V30 1745 H 181.946 -4.13171 1.13963 0
M  V30 1746 H 186.13 -4.5253 2.0379 0
M  V30 1747 H 181.386 -5.14033 3.31028 0
M  V30 1748 H 185.56 -5.54758 4.20971 0
M  V30 1749 H 183.187 -5.85268 4.85145 0
M  V30 1750 N 184.763 -0.387143 -1.52771 0
M  V30 1751 C 185.695 0.484089 -2.2403 0
M  V30 1752 C 186.708 1.02849 -1.26198 0
M  V30 1753 O 187.897 0.931186 -1.52286 0
M  V30 1754 C 184.997 1.68337 -2.94136 0
M  V30 1755 C 184.17 1.26672 -4.18656 0
M  V30 1756 C 183.229 2.33045 -4.7178 0
M  V30 1757 O 182.255 1.94541 -5.34923 0
M  V30 1758 N 183.457 3.64929 -4.5145 0
M  V30 1759 H 186.222 -0.126404 -2.99433 0
M  V30 1760 H 183.783 -0.213392 -1.60488 0
M  V30 1761 H 185.775 2.39019 -3.26577 0
M  V30 1762 H 184.345 2.20025 -2.22053 0
M  V30 1763 H 183.565 0.388878 -3.92277 0
M  V30 1764 H 184.853 0.964964 -4.99566 0
M  V30 1765 H 184.251 3.98974 -4.01044 0
M  V30 1766 H 182.808 4.31651 -4.88386 0
M  V30 1767 N 186.241 1.57166 -0.116904 0
M  V30 1768 C 187.151 2.18745 0.847812 0
M  V30 1769 C 188.167 1.163 1.29423 0
M  V30 1770 O 189.343 1.48761 1.35765 0
M  V30 1771 C 186.408 2.77307 2.0809 0
M  V30 1772 C 185.469 3.94781 1.68661 0
M  V30 1773 C 184.702 4.50541 2.86091 0
M  V30 1774 O 184.925 4.05202 4.01456 0
M  V30 1775 O 183.859 5.41256 2.63298 0
M  V30 1776 H 187.685 3.01632 0.353778 0
M  V30 1777 H 185.27 1.49005 0.108599 0
M  V30 1778 H 187.152 3.14647 2.80313 0
M  V30 1779 H 185.827 1.97452 2.56504 0
M  V30 1780 H 184.734 3.62214 0.935518 0
M  V30 1781 H 186.067 4.76065 1.24991 0
M  V30 1782 N 187.719 -0.156864 1.56817 0
M  V30 1783 C 189.135 -0.50916 1.5126 0
M  V30 1784 C 189.335 -1.83897 0.823658 0
M  V30 1785 O 188.391 -2.49469 0.390055 0
M  V30 1786 C 189.704 -0.52857 2.96018 0
M  V30 1787 C 191.252 -0.614771 3.06903 0
M  V30 1788 C 191.727 -0.664938 4.53147 0
M  V30 1789 N 193.218 -0.727433 4.57452 0
M  V30 1790 C 193.953 -0.787067 5.67973 0
M  V30 1791 N 193.449 -0.806649 6.88088 0
M  V30 1792 N 195.242 -0.827195 5.5598 0
M  V30 1793 H 187.393 0.714935 2.00006 0
M  V30 1794 H 189.656 0.259526 0.911784 0
M  V30 1795 H 189.362 0.380154 3.49639 0
M  V30 1796 H 189.236 -1.36998 3.51442 0
M  V30 1797 H 191.623 -1.51392 2.53307 0
M  V30 1798 H 191.704 0.253597 2.5454 0
M  V30 1799 H 191.348 0.230011 5.07379 0
M  V30 1800 H 191.278 -1.54966 5.03282 0
M  V30 1801 H 193.769 -0.719998 3.70978 0
M  V30 1802 H 194.082 -0.853727 7.6807 0
M  V30 1803 H 192.427 -0.774687 6.90669 0
M  V30 1804 H 195.618 -0.808998 4.61056 0
M  V30 1805 H 195.791 -0.870206 6.4213 0
M  V30 1806 N 189.197 -1.51736 -0.425897 0
M  V30 1807 C 190.422 -1.69082 -1.20108 0
M  V30 1808 C 190.847 -0.392398 -1.83962 0
M  V30 1809 O 190.205 0.64858 -1.69302 0
M  V30 1810 C 190.253 -2.81604 -2.25237 0
M  V30 1811 O 189.357 -2.46004 -3.30992 0
M  V30 1812 H 188.698 -0.563408 -0.35138 0
M  V30 1813 H 191.228 -1.98358 -0.501512 0
M  V30 1814 H 191.238 -3.06025 -2.69838 0
M  V30 1815 H 189.913 -3.75817 -1.78142 0
M  V30 1816 H 188.49 -2.32195 -2.91787 0
M  V30 1817 N 190.675 0.682077 -1.42076 0
M  V30 1818 C 191.921 1.44428 -1.42367 0
M  V30 1819 C 192.254 1.94164 -0.0373056 0
M  V30 1820 O 191.529 1.70429 0.937239 0
M  V30 1821 C 191.812 2.64654 -2.44194 0
M  V30 1822 C 191.665 2.20596 -3.91991 0
M  V30 1823 C 192.984 3.66865 -2.431 0
M  V30 1824 H 190.103 0.523834 -0.518428 0
M  V30 1825 H 192.745 0.77576 -1.73442 0
M  V30 1826 H 190.895 3.2169 -2.17826 0
M  V30 1827 H 192.567 1.68783 -4.29313 0
M  V30 1828 H 190.81 1.52242 -4.06208 0
M  V30 1829 H 191.481 3.06921 -4.58807 0
M  V30 1830 H 193.957 3.19531 -2.66532 0
M  V30 1831 H 192.833 4.48577 -3.16339 0
M  V30 1832 H 193.094 4.17493 -1.45437 0
M  V30 1833 N 192.153 1.28127 0.917671 0
M  V30 1834 C 193.402 1.14432 1.66097 0
M  V30 1835 C 193.715 -0.307247 1.93172 0
M  V30 1836 O 194.921 -0.565259 2.65551 0
M  V30 1837 C 193.377 2.00015 2.99202 0
M  V30 1838 C 192.985 3.49889 2.79789 0
M  V30 1839 C 194.729 1.94996 3.77064 0
M  V30 1840 C 192.636 4.27636 4.08511 0
M  V30 1841 H 191.566 0.424662 0.62304 0
M  V30 1842 H 194.217 1.52628 1.01868 0
M  V30 1843 H 192.599 1.54672 3.64544 0
M  V30 1844 H 193.773 4.03162 2.23152 0
M  V30 1845 H 192.088 3.56392 2.15345 0
M  V30 1846 H 194.685 2.50354 4.72469 0
M  V30 1847 H 195.028 0.925819 4.05875 0
M  V30 1848 H 195.561 2.38287 3.18534 0
M  V30 1849 H 192.3 5.30615 3.84874 0
M  V30 1850 H 191.82 3.79137 4.64774 0
M  V30 1851 H 193.499 4.37346 4.76799 0
M  V30 1852 N 193.631 -1.12557 1.10312 0
M  V30 1853 C 194.877 -1.84311 0.846011 0
M  V30 1854 C 195.21 -1.83805 -0.626859 0
M  V30 1855 O 194.485 -1.28268 -1.46211 0
M  V30 1856 C 194.768 -3.32048 1.39341 0
M  V30 1857 C 194.621 -3.41016 2.93305 0
M  V30 1858 C 195.94 -4.27764 1.03468 0
M  V30 1859 H 193.059 -0.669192 0.30879 0
M  V30 1860 H 195.701 -1.32057 1.36605 0
M  V30 1861 H 193.851 -3.76678 0.951087 0
M  V30 1862 H 195.523 -3.05031 3.46055 0
M  V30 1863 H 193.766 -2.81603 3.29973 0
M  V30 1864 H 194.437 -4.44948 3.26689 0
M  V30 1865 H 196.913 -3.91253 1.41633 0
M  V30 1866 H 195.789 -5.29549 1.44463 0
M  V30 1867 H 196.05 -4.42064 -0.0560404 0
M  V30 1868 N 195.109 -0.891671 -1.2995 0
M  V30 1869 C 196.019 -0.367691 -2.31701 0
M  V30 1870 C 197.035 0.533486 -1.6562 0
M  V30 1871 O 198.211 0.424997 -1.96865 0
M  V30 1872 C 195.276 0.403406 -3.44345 0
M  V30 1873 C 194.337 -0.528328 -4.26037 0
M  V30 1874 C 193.57 0.206063 -5.33302 0
M  V30 1875 O 193.793 1.43119 -5.52153 0
M  V30 1876 O 192.727 -0.447281 -6.00236 0
M  V30 1877 H 196.553 -1.21163 -2.78484 0
M  V30 1878 H 194.138 -0.655725 -1.34241 0
M  V30 1879 H 196.02 0.839753 -4.12948 0
M  V30 1880 H 194.695 1.22354 -2.99685 0
M  V30 1881 H 193.602 -1.01362 -3.60106 0
M  V30 1882 H 194.935 -1.31465 -4.74318 0
M  V30 1883 N 196.587 1.43421 -0.653314 0
M  V30 1884 C 197.535 2.32546 0.0501531 0
M  V30 1885 C 198.529 1.48617 0.812985 0
M  V30 1886 O 199.735 1.64825 0.723375 0
M  V30 1887 H 196.11 0.751185 0.0350032 0
M  V30 1888 H 198.081 2.89602 -0.719261 0
M  V30 1889 C 196.83 3.32925 1.00279 0
M  V30 1890 H 196.153 3.97532 0.425236 0
M  V30 1891 H 197.593 3.9792 1.46409 0
M  V30 1892 C 196.052 2.63532 2.09886 0
M  V30 1893 O 196.582 2.45092 3.18265 0
M  V30 1894 N 194.788 2.22905 1.86445 0
M  V30 1895 H 194.335 2.38103 0.98309 0
M  V30 1896 H 194.293 1.76805 2.59976 0
M  V30 1897 N 198.065 0.39524 1.52563 0
M  V30 1898 C 199.29 -0.187456 2.06551 0
M  V30 1899 C 199.715 -1.39249 1.26457 0
M  V30 1900 O 199.073 -1.78947 0.291151 0
M  V30 1901 C 199.121 -0.529985 3.56684 0
M  V30 1902 O 198.225 -1.62307 3.79118 0
M  V30 1903 H 197.566 -0.0202537 0.663691 0
M  V30 1904 H 200.096 0.564426 1.96661 0
M  V30 1905 H 200.106 -0.792598 4.00227 0
M  V30 1906 H 198.781 0.350987 4.14416 0
M  V30 1907 H 197.358 -1.3537 3.47461 0
M  V30 1908 N 199.544 -1.57102 0.125237 0
M  V30 1909 C 200.769 -2.0019 -0.542101 0
M  V30 1910 C 201.194 -1.00449 -1.59034 0
M  V30 1911 O 200.552 0.0229423 -1.81285 0
M  V30 1912 C 200.6 -3.42129 -1.13929 0
M  V30 1913 O 199.704 -3.45307 -2.2547 0
M  V30 1914 H 199.045 -0.650171 -0.134812 0
M  V30 1915 H 201.575 -2.03461 0.215553 0
M  V30 1916 H 201.585 -3.80471 -1.4733 0
M  V30 1917 H 200.26 -4.14237 -0.371531 0
M  V30 1918 H 198.837 -3.1879 -1.93462 0
M  V30 1919 N 201.022 0.148545 -1.56898 0
M  V30 1920 C 202.27 0.859717 -1.82902 0
M  V30 1921 C 202.591 1.81775 -0.70588 0
M  V30 1922 O 201.861 1.93994 0.272586 0
M  V30 1923 H 200.441 0.320469 -0.674766 0
M  V30 1924 H 203.103 0.142918 -1.94375 0
M  V30 1925 H 202.199 1.4229 -2.77777 0
M  V30 1926 N 202.5 1.5196 0.417844 0
M  V30 1927 C 203.725 1.69717 1.1921 0
M  V30 1928 C 204.15 0.402148 1.83751 0
M  V30 1929 O 203.508 -0.639593 1.69643 0
M  V30 1930 C 203.556 2.82794 2.2374 0
M  V30 1931 O 202.66 2.47756 3.29683 0
M  V30 1932 H 202.001 0.565263 0.348387 0
M  V30 1933 H 204.531 1.98621 0.490985 0
M  V30 1934 H 204.541 3.07452 2.68212 0
M  V30 1935 H 203.216 3.76756 1.76146 0
M  V30 1936 H 201.793 2.33739 2.90552 0
M  V30 1937 N 203.978 -0.674533 1.42435 0
M  V30 1938 C 205.206 -1.46283 1.46317 0
M  V30 1939 C 205.621 -1.88653 0.0745836 0
M  V30 1940 O 204.978 -1.58151 -0.91074 0
M  V30 1941 C 205.029 -2.71178 2.3905 0
M  V30 1942 O 204.75 -2.30586 3.72507 0
M  V30 1943 C 206.251 -3.64738 2.51955 0
M  V30 1944 H 203.471 -0.450104 0.497642 0
M  V30 1945 H 206.015 -0.828792 1.86953 0
M  V30 1946 H 204.17 -3.3077 2.01667 0
M  V30 1947 H 204.584 -3.11241 4.22172 0
M  V30 1948 H 206.058 -4.49096 3.20962 0
M  V30 1949 H 206.535 -4.10656 1.55752 0
M  V30 1950 H 207.141 -3.11038 2.90061 0
M  V30 1951 N 205.456 -1.28612 -0.910864 0
M  V30 1952 C 206.681 -1.1891 -1.69927 0
M  V30 1953 C 207.106 0.248372 -1.86453 0
M  V30 1954 O 206.464 1.17961 -1.37676 0
M  V30 1955 C 206.512 -1.89578 -3.06745 0
M  V30 1956 O 205.616 -1.20521 -3.94396 0
M  V30 1957 H 204.957 -0.412632 -0.520222 0
M  V30 1958 H 207.487 -1.69985 -1.1387 0
M  V30 1959 H 207.497 -1.97597 -3.56958 0
M  V30 1960 H 206.172 -2.94136 -2.94035 0
M  V30 1961 H 204.749 -1.20684 -3.52831 0
M  V30 1962 N 206.934 1.1197 -1.10907 0
M  V30 1963 C 207.897 2.16031 -0.765707 0
M  V30 1964 C 208.897 1.59393 0.212235 0
M  V30 1965 O 210.087 1.74196 -0.0115441 0
M  V30 1966 C 207.219 3.40632 -0.135053 0
M  V30 1967 H 208.412 2.47919 -1.68748 0
M  V30 1968 H 205.965 1.27061 -0.910226 0
M  V30 1969 H 206.7 3.14348 0.797218 0
M  V30 1970 H 206.485 3.8302 -0.838937 0
M  V30 1971 H 207.975 4.17505 0.0892469 0
M  V30 1972 N 208.412 0.89855 1.29475 0
M  V30 1973 C 209.637 0.538561 2.00285 0
M  V30 1974 C 210.062 -0.869135 1.66816 0
M  V30 1975 O 209.42 -1.57831 0.892145 0
M  V30 1976 C 209.468 0.736475 3.52999 0
M  V30 1977 O 208.572 -0.211537 4.11857 0
M  V30 1978 H 207.913 0.210563 0.62973 0
M  V30 1979 H 210.443 1.20982 1.64998 0
M  V30 1980 H 210.453 0.640685 4.02938 0
M  V30 1981 H 209.128 1.76276 3.76696 0
M  V30 1982 H 207.705 -0.0682991 3.72837 0
M  V30 1983 N 209.89 -1.43072 0.660911 0
M  V30 1984 C 210.8 -2.34585 -0.0264163 0
M  V30 1985 C 211.816 -1.54316 -0.803898 0
M  V30 1986 O 212.992 -1.86939 -0.749391 0
M  V30 1987 C 210.057 -3.32689 -0.975639 0
M  V30 1988 C 209.118 -4.2886 -0.194236 0
M  V30 1989 C 208.351 -5.22278 -1.09825 0
M  V30 1990 O 208.574 -5.20299 -2.33763 0
M  V30 1991 O 207.508 -5.99228 -0.566513 0
M  V30 1992 H 211.334 -2.94869 0.727034 0
M  V30 1993 H 208.919 -1.43342 0.42111 0
M  V30 1994 H 210.801 -3.92995 -1.52094 0
M  V30 1995 H 209.476 -2.74898 -1.70918 0
M  V30 1996 H 208.383 -3.72011 0.394835 0
M  V30 1997 H 209.716 -4.89655 0.499899 0
M  V30 1998 N 211.368 -0.403325 -1.52352 0
M  V30 1999 C 212.298 0.416205 -2.29761 0
M  V30 2000 C 213.279 1.05123 -1.33728 0
M  V30 2001 O 214.464 1.06134 -1.62632 0
M  V30 2002 C 211.594 1.53624 -3.11475 0
M  V30 2003 C 210.548 1.02653 -4.15507 0
M  V30 2004 C 209.874 2.23971 -4.85532 0
M  V30 2005 C 211.174 0.08463 -5.22231 0
M  V30 2006 H 212.868 -0.229701 -2.98518 0
M  V30 2007 H 210.414 -0.111913 -1.43564 0
M  V30 2008 H 212.367 2.1165 -3.64393 0
M  V30 2009 H 211.091 2.20994 -2.40477 0
M  V30 2010 H 209.75 0.46871 -3.63591 0
M  V30 2011 H 209.398 2.89883 -4.11068 0
M  V30 2012 H 209.098 1.90521 -5.55856 0
M  V30 2013 H 210.622 2.82614 -5.41259 0
M  V30 2014 H 212.036 0.573509 -5.70424 0
M  V30 2015 H 210.433 -0.160783 -5.99885 0
M  V30 2016 H 211.503 -0.86237 -4.7717 0
M  V30 2017 N 212.846 1.57033 -0.133567 0
M  V30 2018 C 213.776 2.1909 0.807567 0
M  V30 2019 C 214.757 1.13517 1.26681 0
M  V30 2020 O 215.942 1.41809 1.32679 0
M  V30 2021 C 213.072 2.80188 2.05212 0
M  V30 2022 C 212.026 3.91471 1.73015 0
M  V30 2023 C 211.352 4.39443 3.04622 0
M  V30 2024 C 212.652 5.12886 0.987168 0
M  V30 2025 H 214.346 2.97988 0.290403 0
M  V30 2026 H 211.892 1.43335 0.138239 0
M  V30 2027 H 213.845 3.22264 2.71521 0
M  V30 2028 H 212.569 1.98601 2.59278 0
M  V30 2029 H 211.228 3.49993 1.0909 0
M  V30 2030 H 210.876 3.54695 3.56651 0
M  V30 2031 H 210.576 5.14495 2.83847 0
M  V30 2032 H 212.1 4.8418 3.72024 0
M  V30 2033 H 213.514 5.51891 1.55208 0
M  V30 2034 H 211.911 5.93615 0.87985 0
M  V30 2035 H 212.981 4.84894 -0.0235286 0
M  V30 2036 N 214.325 -0.140222 1.56975 0
M  V30 2037 C 215.272 -1.17292 1.98774 0
M  V30 2038 C 216.242 -1.4232 0.856408 0
M  V30 2039 O 217.427 -1.54541 1.119 0
M  V30 2040 C 214.567 -2.49973 2.37923 0
M  V30 2041 C 213.68 -2.32062 3.64378 0
M  V30 2042 C 212.815 -3.57825 3.926 0
M  V30 2043 C 211.854 -3.3498 5.12303 0
M  V30 2044 N 210.991 -4.52891 5.36502 0
M  V30 2045 H 215.831 -0.809472 2.86795 0
M  V30 2046 H 213.368 -0.388237 1.41884 0
M  V30 2047 H 215.326 -3.27346 2.58652 0
M  V30 2048 H 213.956 -2.84252 1.52972 0
M  V30 2049 H 213.008 -1.45711 3.51387 0
M  V30 2050 H 214.32 -2.11145 4.51906 0
M  V30 2051 H 213.474 -4.43624 4.13863 0
M  V30 2052 H 212.213 -3.81753 3.03506 0
M  V30 2053 H 211.218 -2.4757 4.90906 0
M  V30 2054 H 212.443 -3.12444 6.02956 0
M  V30 2055 H 210.389 -4.76979 4.50363 0
M  V30 2056 H 210.306 -4.35001 6.18312 0
M  V30 2057 H 211.574 -5.39884 5.62268 0
M  V30 2058 N 215.803 -1.52179 -0.40978 0
M  V30 2059 C 217.214 -1.58377 -0.988615 0
M  V30 2060 C 217.565 -0.423879 -1.91566 0
M  V30 2061 O 216.69 0.455844 -2.11544 0
M  V30 2062 C 217.285 -2.87044 -1.79976 0
M  V30 2063 C 215.844 -2.95722 -2.32863 0
M  V30 2064 C 214.991 -2.53309 -1.12828 0
M  V30 2065 H 217.942 -1.57558 -0.190039 0
M  V30 2066 H 217.963 -2.7236 -2.65707 0
M  V30 2067 H 217.475 -3.71444 -1.12478 0
M  V30 2068 H 215.576 -2.15814 -3.03735 0
M  V30 2069 H 215.689 -3.99951 -2.63773 0
M  V30 2070 H 214.053 -2.07142 -1.48204 0
M  V30 2071 H 214.836 -3.40082 -0.46897 0
M  V30 2072 N 217.281 0.66697 -1.42791 0
M  V30 2073 C 218.214 1.79177 -1.41318 0
M  V30 2074 C 219.192 1.60234 -0.276401 0
M  V30 2075 O 220.376 1.82602 -0.46785 0
M  V30 2076 C 217.503 3.16289 -1.21157 0
M  V30 2077 C 216.549 3.53964 -2.37932 0
M  V30 2078 S 217.382 3.55501 -4.00474 0
M  V30 2079 C 218.538 4.95292 -3.8267 0
M  V30 2080 H 218.771 1.80153 -2.365 0
M  V30 2081 H 216.304 0.838357 -1.29657 0
M  V30 2082 H 218.262 3.95428 -1.10212 0
M  V30 2083 H 216.923 3.1289 -0.275481 0
M  V30 2084 H 216.116 4.53646 -2.19594 0
M  V30 2085 H 215.718 2.82204 -2.45432 0
M  V30 2086 H 218.01 5.83584 -3.44145 0
M  V30 2087 H 218.953 5.18679 -4.82055 0
M  V30 2088 H 219.361 4.68179 -3.15386 0
M  V30 2089 N 218.759 1.29093 0.90403 0
M  V30 2090 C 219.706 1.13853 2.00764 0
M  V30 2091 C 220.676 0.0330084 1.66067 0
M  V30 2092 O 221.861 0.199733 1.89752 0
M  V30 2093 C 219.001 0.816537 3.35301 0
M  V30 2094 C 218.114 2.00206 3.82807 0
M  V30 2095 C 217.249 1.61983 5.059 0
M  V30 2096 C 216.288 2.77143 5.45764 0
M  V30 2097 N 215.425 2.39346 6.60044 0
M  V30 2098 H 220.265 2.08276 2.13132 0
M  V30 2099 H 217.802 1.03648 1.04381 0
M  V30 2100 H 219.76 0.610557 4.12708 0
M  V30 2101 H 218.39 -0.090779 3.22672 0
M  V30 2102 H 217.442 2.31988 3.01473 0
M  V30 2103 H 218.754 2.86512 4.08304 0
M  V30 2104 H 217.908 1.37649 5.90879 0
M  V30 2105 H 216.647 0.728202 4.82233 0
M  V30 2106 H 215.652 3.02165 4.59322 0
M  V30 2107 H 216.877 3.66964 5.71414 0
M  V30 2108 H 214.823 1.52665 6.37989 0
M  V30 2109 H 214.74 3.19185 6.85315 0
M  V30 2110 H 216.008 2.1832 7.48303 0
M  V30 2111 N 220.237 -1.11381 1.11499 0
M  V30 2112 C 221.184 -2.17439 0.773887 0
M  V30 2113 C 222.154 -1.64132 -0.254899 0
M  V30 2114 O 223.339 -1.90345 -0.13168 0
M  V30 2115 C 220.479 -3.44373 0.223917 0
M  V30 2116 C 219.592 -4.1168 1.30934 0
M  V30 2117 C 218.727 -5.263 0.71984 0
M  V30 2118 C 217.766 -5.85493 1.78507 0
M  V30 2119 N 216.903 -6.91507 1.21502 0
M  V30 2120 H 221.743 -2.45962 1.68246 0
M  V30 2121 H 219.28 -1.20744 0.840191 0
M  V30 2122 H 221.238 -4.17047 -0.112921 0
M  V30 2123 H 219.868 -3.16232 -0.647851 0
M  V30 2124 H 218.92 -3.37073 1.76312 0
M  V30 2125 H 220.232 -4.51729 2.11524 0
M  V30 2126 H 219.386 -6.05785 0.333094 0
M  V30 2127 H 218.125 -4.87559 -0.117377 0
M  V30 2128 H 217.13 -5.04686 2.18111 0
M  V30 2129 H 218.355 -6.26301 2.62533 0
M  V30 2130 H 216.301 -6.54783 0.399455 0
M  V30 2131 H 216.218 -7.30214 1.95763 0
M  V30 2132 H 217.486 -7.74795 0.855181 0
M  V30 2133 N 221.715 -0.905404 -1.28997 0
M  V30 2134 C 223.131 -0.60233 -1.47798 0
M  V30 2135 C 223.331 0.854645 -1.82478 0
M  V30 2136 O 222.387 1.63439 -1.92468 0
M  V30 2137 C 223.7 -1.53306 -2.58685 0
M  V30 2138 C 225.248 -1.53887 -2.72558 0
M  V30 2139 C 225.723 -2.45602 -3.86579 0
M  V30 2140 N 227.214 -2.43681 -3.93921 0
M  V30 2141 C 227.949 -3.11347 -4.81509 0
M  V30 2142 N 227.445 -3.88313 -5.73746 0
M  V30 2143 N 229.238 -3.00476 -4.75048 0
M  V30 2144 H 221.389 -1.84765 -1.04764 0
M  V30 2145 H 223.652 -0.792025 -0.520961 0
M  V30 2146 H 223.358 -2.57141 -2.39941 0
M  V30 2147 H 223.232 -1.25787 -3.55609 0
M  V30 2148 H 225.619 -0.507941 -2.90696 0
M  V30 2149 H 225.7 -1.85447 -1.76191 0
M  V30 2150 H 225.344 -3.48792 -3.69197 0
M  V30 2151 H 225.274 -2.11349 -4.82327 0
M  V30 2152 H 227.765 -1.87767 -3.27951 0
M  V30 2153 H 228.078 -4.36985 -6.37389 0
M  V30 2154 H 226.423 -3.92419 -5.73614 0
M  V30 2155 H 229.614 -2.39858 -4.01977 0
M  V30 2156 H 229.787 -3.53485 -5.43095 0
M  V30 2157 N 223.193 1.4272 -0.668489 0
M  V30 2158 C 224.14 2.30796 0.0137489 0
M  V30 2159 C 225.11 1.4561 0.799177 0
M  V30 2160 O 226.295 1.74453 0.772702 0
M  V30 2161 C 223.435 3.31377 0.963507 0
M  V30 2162 C 222.548 4.31655 0.172569 0
M  V30 2163 C 221.683 5.19312 1.1175 0
M  V30 2164 C 220.722 6.11274 0.317886 0
M  V30 2165 N 219.859 6.91504 1.2152 0
M  V30 2166 H 224.699 2.88585 -0.743161 0
M  V30 2167 H 222.236 1.42154 -0.378226 0
M  V30 2168 H 224.194 3.88214 1.52792 0
M  V30 2169 H 222.824 2.75202 1.68712 0
M  V30 2170 H 221.876 3.76988 -0.508374 0
M  V30 2171 H 223.188 4.96779 -0.448527 0
M  V30 2172 H 222.342 5.80851 1.75206 0
M  V30 2173 H 221.081 4.5435 1.77249 0
M  V30 2174 H 220.086 5.48809 -0.329918 0
M  V30 2175 H 221.311 6.78283 -0.332917 0
M  V30 2176 H 219.257 6.29176 1.85671 0
M  V30 2177 H 219.174 7.53209 0.649036 0
M  V30 2178 H 220.442 7.57535 1.83742 0
M  V30 2179 N 224.671 0.411399 1.52136 0
M  V30 2180 C 226.087 0.0623865 1.59478 0
M  V30 2181 C 226.287 -1.42554 1.4241 0
M  V30 2182 O 225.343 -2.19263 1.2522 0
M  V30 2183 C 226.656 0.559331 2.95452 0
M  V30 2184 C 228.204 0.517503 3.08692 0
M  V30 2185 C 228.679 0.990994 4.4715 0
M  V30 2186 N 230.17 0.947908 4.53397 0
M  V30 2187 C 230.905 1.28544 5.58806 0
M  V30 2188 N 230.401 1.69454 6.71757 0
M  V30 2189 N 232.194 1.20526 5.49026 0
M  V30 2190 H 224.345 1.37982 1.61477 0
M  V30 2191 H 226.608 0.566977 0.759764 0
M  V30 2192 H 226.314 1.59938 3.1323 0
M  V30 2193 H 226.188 -0.0298014 3.77188 0
M  V30 2194 H 228.575 -0.513505 2.90598 0
M  V30 2195 H 228.656 1.14272 2.28857 0
M  V30 2196 H 228.3 2.02034 4.65988 0
M  V30 2197 H 228.23 0.34257 5.25485 0
M  V30 2198 H 230.721 0.647157 3.72317 0
M  V30 2199 H 231.034 1.93513 7.48179 0
M  V30 2200 H 229.379 1.73359 6.73032 0
M  V30 2201 H 232.57 0.884505 4.59667 0
M  V30 2202 H 232.743 1.47161 6.31069 0
M  V30 2203 N 226.149 -1.5696 0.141893 0
M  V30 2204 C 227.565 -1.58151 -0.21456 0
M  V30 2205 C 227.765 -1.1559 -1.65049 0
M  V30 2206 O 226.821 -0.853832 -2.37626 0
M  V30 2207 C 228.134 -3.00674 0.0395576 0
M  V30 2208 C 229.682 -3.1299 -0.0245529 0
M  V30 2209 C 230.157 -4.57554 0.202167 0
M  V30 2210 N 231.648 -4.62961 0.148919 0
M  V30 2211 C 232.383 -5.7262 0.298924 0
M  V30 2212 N 231.879 -6.90947 0.50637 0
M  V30 2213 N 233.672 -5.61601 0.236886 0
M  V30 2214 H 225.823 -1.8292 1.07953 0
M  V30 2215 H 228.086 -0.846425 0.42693 0
M  V30 2216 H 227.792 -3.36183 1.03315 0
M  V30 2217 H 227.666 -3.70981 -0.682143 0
M  V30 2218 H 230.053 -2.77326 -1.00869 0
M  V30 2219 H 230.134 -2.4518 0.729396 0
M  V30 2220 H 229.778 -4.93922 1.18338 0
M  V30 2221 H 229.708 -5.23484 -0.572044 0
M  V30 2222 H 232.199 -3.77899 -0.00697015 0
M  V30 2223 H 232.512 -7.7038 0.611076 0
M  V30 2224 H 230.857 -6.92878 0.542628 0
M  V30 2225 H 234.048 -4.68039 0.0756209 0
M  V30 2226 H 234.221 -6.47015 0.357227 0
M  V30 2227 N 227.627 0.131896 -1.57047 0
M  V30 2228 C 228.537 1.1815 -2.02676 0
M  V30 2229 C 229.553 1.46113 -0.944824 0
M  V30 2230 O 230.729 1.57485 -1.25541 0
M  V30 2231 C 227.794 2.49139 -2.41103 0
M  V30 2232 C 226.855 2.28688 -3.63318 0
M  V30 2233 C 226.088 3.53431 -3.99903 0
M  V30 2234 O 226.311 4.60223 -3.36973 0
M  V30 2235 O 225.245 3.45198 -4.93074 0
M  V30 2236 H 229.071 0.824069 -2.92306 0
M  V30 2237 H 226.656 0.341745 -1.45439 0
M  V30 2238 H 228.538 3.26338 -2.66611 0
M  V30 2239 H 227.213 2.84382 -1.54624 0
M  V30 2240 H 226.12 1.4939 -3.42977 0
M  V30 2241 H 227.453 1.98355 -4.50462 0
M  V30 2242 N 229.106 1.52395 0.401703 0
M  V30 2243 C 230.336 1.70429 1.1678 0
M  V30 2244 C 230.744 0.416702 1.84554 0
M  V30 2245 O 230.087 -0.617697 1.73003 0
M  V30 2246 C 230.149 2.78919 2.26814 0
M  V30 2247 C 229.813 4.20437 1.79113 0
M  V30 2248 C 230.81 5.04028 1.27482 0
M  V30 2249 C 228.495 4.66704 1.85722 0
M  V30 2250 C 230.489 6.31961 0.830913 0
M  V30 2251 C 228.176 5.94625 1.40942 0
M  V30 2252 C 229.174 6.77082 0.897128 0
M  V30 2253 O 228.862 8.02607 0.455822 0
M  V30 2254 H 228.594 0.574272 0.356634 0
M  V30 2255 H 231.148 1.99767 0.477724 0
M  V30 2256 H 229.378 2.44973 2.99207 0
M  V30 2257 H 231.067 2.8548 2.88541 0
M  V30 2258 H 231.833 4.69471 1.21744 0
M  V30 2259 H 227.712 4.0262 2.24539 0
M  V30 2260 H 231.256 6.96271 0.430368 0
M  V30 2261 H 227.153 6.28688 1.46362 0
M  V30 2262 H 227.921 8.16453 0.578457 0
M  V30 2263 N 230.584 -0.659388 1.43143 0
M  V30 2264 C 231.516 -1.7849 1.43784 0
M  V30 2265 C 232.529 -1.5932 0.334787 0
M  V30 2266 O 233.718 -1.68155 0.598842 0
M  V30 2267 C 230.818 -3.15828 1.22906 0
M  V30 2268 C 229.991 -3.61711 2.45934 0
M  V30 2269 C 229.05 -4.77831 2.20371 0
M  V30 2270 O 228.076 -4.87586 2.93681 0
M  V30 2271 N 229.278 -5.67611 1.21647 0
M  V30 2272 H 232.043 -1.7842 2.40803 0
M  V30 2273 H 229.604 -0.84302 1.3822 0
M  V30 2274 H 231.596 -3.91189 1.03697 0
M  V30 2275 H 230.166 -3.10707 0.343542 0
M  V30 2276 H 229.386 -2.76861 2.80609 0
M  V30 2277 H 230.674 -3.89112 3.27825 0
M  V30 2278 H 230.072 -5.62397 0.610449 0
M  V30 2279 H 228.629 -6.42719 1.08423 0
M  V30 2280 N 232.062 -1.29571 -0.897171 0
M  V30 2281 C 233.287 -1.20705 -1.68656 0
M  V30 2282 C 233.712 0.228582 -1.86706 0
M  V30 2283 O 233.07 1.16494 -1.3892 0
M  V30 2284 C 233.118 -1.9282 -3.04717 0
M  V30 2285 O 232.222 -1.24697 -3.93096 0
M  V30 2286 H 231.563 -0.418126 -0.515816 0
M  V30 2287 H 234.093 -1.71183 -1.12061 0
M  V30 2288 H 234.103 -2.01372 -3.54843 0
M  V30 2289 H 232.778 -2.97239 -2.90899 0
M  V30 2290 H 231.355 -1.2442 -3.51531 0
M  V30 2291 N 233.54 1.10788 -1.12088 0
M  V30 2292 C 234.951 1.64181 -0.88891 0
M  V30 2293 C 235.302 1.87508 0.577498 0
M  V30 2294 O 234.427 1.61434 1.44112 0
M  V30 2295 C 235.022 2.98257 -1.60712 0
M  V30 2296 C 233.581 3.4853 -1.42139 0
M  V30 2297 C 232.728 2.23208 -1.6454 0
M  V30 2298 H 235.679 0.943368 -1.27618 0
M  V30 2299 H 235.7 3.65552 -1.05604 0
M  V30 2300 H 235.212 2.81246 -2.67436 0
M  V30 2301 H 233.313 3.70692 -0.376552 0
M  V30 2302 H 233.426 4.26882 -2.17505 0
M  V30 2303 H 231.79 2.31169 -1.06925 0
M  V30 2304 H 232.573 2.08733 -2.72554 0
M  V30 2305 N 235.018 0.912232 1.28515 0
M  V30 2306 C 236.243 0.559774 1.99703 0
M  V30 2307 C 236.668 -0.851393 1.67729 0
M  V30 2308 O 236.026 -1.56875 0.908834 0
M  V30 2309 C 236.074 0.773874 3.52198 0
M  V30 2310 O 235.178 -0.167842 4.12058 0
M  V30 2311 H 234.519 0.21723 0.627461 0
M  V30 2312 H 237.049 1.22725 1.63706 0
M  V30 2313 H 237.059 0.683386 4.02236 0
M  V30 2314 H 235.734 1.80261 3.74805 0
M  V30 2315 H 234.311 -0.0287509 3.72889 0
M  V30 2316 N 236.496 -1.42363 0.676048 0
M  V30 2317 C 237.406 -2.346 -0.00153389 0
M  V30 2318 C 238.422 -1.5516 -0.787485 0
M  V30 2319 O 239.598 -1.87723 -0.729521 0
M  V30 2320 C 236.663 -3.33705 -0.940298 0
M  V30 2321 C 235.724 -4.29042 -0.148739 0
M  V30 2322 C 234.957 -5.23413 -1.04279 0
M  V30 2323 O 235.18 -5.22749 -2.28232 0
M  V30 2324 O 234.114 -5.99795 -0.502925 0
M  V30 2325 H 237.94 -2.94082 0.758268 0
M  V30 2326 H 235.525 -1.42888 0.436289 0
M  V30 2327 H 237.407 -3.94586 -1.47917 0
M  V30 2328 H 236.082 -2.76695 -1.67993 0
M  V30 2329 H 234.989 -3.71571 0.43427 0
M  V30 2330 H 236.322 -4.89097 0.551805 0
M  V30 2331 N 237.974 -0.419461 -1.51915 0
M  V30 2332 C 238.884 0.407528 -2.31033 0
M  V30 2333 C 239.9 1.04413 -1.3919 0
M  V30 2334 O 241.076 1.0434 -1.72265 0
M  V30 2335 C 238.141 1.50365 -3.12396 0
M  V30 2336 C 237.202 0.889029 -4.19994 0
M  V30 2337 C 236.435 1.93291 -4.97468 0
M  V30 2338 O 236.658 3.15259 -4.75361 0
M  V30 2339 O 235.592 1.53339 -5.8204 0
M  V30 2340 H 239.418 -0.237865 -3.02767 0
M  V30 2341 H 237.003 -0.182413 -1.48282 0
M  V30 2342 H 238.885 2.13975 -3.63032 0
M  V30 2343 H 237.56 2.13345 -2.43445 0
M  V30 2344 H 236.467 0.215353 -3.7348 0
M  V30 2345 H 237.8 0.302991 -4.91267 0
M  V30 2346 N 239.452 1.56882 -0.150215 0
M  V30 2347 C 240.362 2.20494 0.801222 0
M  V30 2348 C 241.378 1.19019 1.26927 0
M  V30 2349 O 242.554 1.51607 1.32579 0
M  V30 2350 C 239.619 2.81659 2.02161 0
M  V30 2351 C 238.68 3.9827 1.60249 0
M  V30 2352 C 237.913 4.56508 2.7647 0
M  V30 2353 O 238.136 4.13627 3.92771 0
M  V30 2354 O 237.07 5.46719 2.51757 0
M  V30 2355 H 240.896 3.02315 0.289717 0
M  V30 2356 H 238.481 1.49202 0.0769684 0
M  V30 2357 H 240.363 3.20522 2.73576 0
M  V30 2358 H 239.038 2.02849 2.52258 0
M  V30 2359 H 237.945 3.64117 0.858477 0
M  V30 2360 H 239.278 4.78609 1.14864 0
M  V30 2361 N 240.93 -0.123565 1.57115 0
M  V30 2362 C 242.155 -0.850398 1.89164 0
M  V30 2363 C 242.58 -1.7286 0.741688 0
M  V30 2364 O 241.938 -1.78665 -0.307958 0
M  V30 2365 C 241.986 -1.66353 3.19936 0
M  V30 2366 O 241.09 -2.77004 3.0552 0
M  V30 2367 H 240.431 -0.235454 0.620852 0
M  V30 2368 H 242.961 -0.107335 2.04318 0
M  V30 2369 H 242.971 -2.05372 3.52543 0
M  V30 2370 H 241.646 -1.01881 4.03228 0
M  V30 2371 H 240.223 -2.41221 2.84371 0
M  V30 2372 N 242.408 -1.52605 -0.393616 0
M  V30 2373 C 243.318 -1.79971 -1.50492 0
M  V30 2374 C 244.334 -0.686181 -1.59899 0
M  V30 2375 O 245.51 -0.973274 -1.76322 0
M  V30 2376 C 242.575 -1.95867 -2.86072 0
M  V30 2377 C 241.636 -3.19781 -2.86424 0
M  V30 2378 C 240.869 -3.34909 -4.15538 0
M  V30 2379 O 241.092 -2.54948 -5.10253 0
M  V30 2380 O 240.026 -4.28141 -4.23059 0
M  V30 2381 H 243.852 -2.74328 -1.30299 0
M  V30 2382 H 241.437 -1.3764 -0.581005 0
M  V30 2383 H 243.319 -2.08056 -3.66457 0
M  V30 2384 H 241.994 -1.04699 -3.063 0
M  V30 2385 H 240.901 -3.13038 -2.04837 0
M  V30 2386 H 242.234 -4.1078 -2.71147 0
M  V30 2387 N 243.887 0.651787 -1.4349 0
M  V30 2388 C 245.298 1.233 -1.40193 0
M  V30 2389 C 245.649 1.9591 -0.106727 0
M  V30 2390 O 244.774 2.01316 0.793773 0
M  V30 2391 C 245.369 2.24257 -2.53957 0
M  V30 2392 C 243.928 2.77852 -2.5392 0
M  V30 2393 C 243.075 1.52517 -2.3159 0
M  V30 2394 H 246.026 0.443717 -1.52371 0
M  V30 2395 H 246.047 3.0646 -2.25528 0
M  V30 2396 H 245.559 1.71382 -3.4821 0
M  V30 2397 H 243.66 3.34786 -1.63551 0
M  V30 2398 H 243.773 3.25299 -3.51735 0
M  V30 2399 H 242.137 1.79915 -1.80285 0
M  V30 2400 H 242.92 1.01574 -3.27929 0
M  V30 2401 N 245.365 1.30045 0.890287 0
M  V30 2402 C 246.275 1.17885 2.02831 0
M  V30 2403 C 247.291 0.0999609 1.73713 0
M  V30 2404 O 248.467 0.313867 1.98939 0
M  V30 2405 C 245.532 0.866079 3.35708 0
M  V30 2406 C 244.593 2.02979 3.78283 0
M  V30 2407 C 243.826 1.73184 5.0482 0
M  V30 2408 O 244.049 0.657237 5.66601 0
M  V30 2409 O 242.983 2.58267 5.43674 0
M  V30 2410 H 246.809 2.13474 2.16015 0
M  V30 2411 H 244.394 1.09587 1.01543 0
M  V30 2412 H 246.276 0.706623 4.15433 0
M  V30 2413 H 244.951 -0.0599443 3.23644 0
M  V30 2414 H 243.858 2.24454 2.99285 0
M  V30 2415 H 245.191 2.93734 3.94944 0
M  V30 2416 N 246.843 -1.10192 1.12674 0
M  V30 2417 C 247.806 -2.14786 0.799979 0
M  V30 2418 C 248.806 -1.59711 -0.18685 0
M  V30 2419 O 249.996 -1.74156 0.0392558 0
M  V30 2420 C 247.128 -3.40374 0.189228 0
M  V30 2421 H 248.321 -2.45203 1.72671 0
M  V30 2422 H 245.874 -1.25597 0.930326 0
M  V30 2423 H 246.609 -3.15577 -0.747107 0
M  V30 2424 H 246.394 -3.81637 0.899766 0
M  V30 2425 H 247.884 -4.17594 -0.0228143 0
M  V30 2426 N 248.321 -0.919034 -1.28029 0
M  V30 2427 C 249.254 -0.355887 -2.25408 0
M  V30 2428 C 250.232 0.542874 -1.5327 0
M  V30 2429 O 251.416 0.485338 -1.82145 0
M  V30 2430 C 248.543 0.490759 -3.35126 0
M  V30 2431 C 247.589 -0.343358 -4.25116 0
M  V30 2432 S 248.422 -1.75344 -5.05979 0
M  V30 2433 C 249.578 -0.914244 -6.19187 0
M  V30 2434 H 249.811 -1.18123 -2.72826 0
M  V30 2435 H 247.344 -0.720636 -1.36551 0
M  V30 2436 H 249.302 0.973404 -3.98792 0
M  V30 2437 H 247.963 1.29054 -2.86363 0
M  V30 2438 H 247.156 0.304266 -5.03081 0
M  V30 2439 H 246.758 -0.759851 -3.662 0
M  V30 2440 H 249.05 -0.146282 -6.77342 0
M  V30 2441 H 249.993 -1.66661 -6.88208 0
M  V30 2442 H 250.401 -0.460082 -5.62622 0
M  V30 2443 N 249.799 1.42003 -0.683588 0
M  V30 2444 C 250.709 2.34597 -0.0109075 0
M  V30 2445 C 251.725 1.55576 0.779245 0
M  V30 2446 O 252.901 1.88107 0.719555 0
M  V30 2447 C 249.966 3.34199 0.922588 0
M  V30 2448 C 249.027 4.29115 0.125984 0
M  V30 2449 C 248.26 5.23959 1.01502 0
M  V30 2450 O 248.483 5.23952 2.25456 0
M  V30 2451 O 247.417 6.00053 0.47111 0
M  V30 2452 H 251.243 2.93675 -0.773853 0
M  V30 2453 H 248.828 1.42654 -0.443861 0
M  V30 2454 H 250.71 3.95365 1.45823 0
M  V30 2455 H 249.385 2.77582 1.66523 0
M  V30 2456 H 248.292 3.71335 -0.453969 0
M  V30 2457 H 249.625 4.88798 -0.577736 0
M  V30 2458 N 251.277 0.427512 1.51691 0
M  V30 2459 C 252.224 -0.388867 2.275 0
M  V30 2460 C 253.194 -1.02532 1.30677 0
M  V30 2461 O 254.379 -1.0461 1.59566 0
M  V30 2462 C 251.519 -1.48954 3.11298 0
M  V30 2463 C 250.632 -0.872194 4.23104 0
M  V30 2464 C 249.767 -1.94709 4.94228 0
M  V30 2465 C 248.806 -1.30766 5.97969 0
M  V30 2466 N 247.943 -2.32349 6.62539 0
M  V30 2467 H 252.783 0.263997 2.96828 0
M  V30 2468 H 250.32 0.142033 1.46413 0
M  V30 2469 H 252.278 -2.13887 3.58201 0
M  V30 2470 H 250.908 -2.11217 2.44105 0
M  V30 2471 H 249.96 -0.111419 3.80237 0
M  V30 2472 H 251.272 -0.365264 4.97461 0
M  V30 2473 H 250.426 -2.67327 5.44629 0
M  V30 2474 H 249.165 -2.48773 4.1948 0
M  V30 2475 H 248.17 -0.566902 5.4687 0
M  V30 2476 H 249.395 -0.774483 6.74669 0
M  V30 2477 H 247.341 -2.85511 5.90609 0
M  V30 2478 H 247.258 -1.8652 7.3263 0
M  V30 2479 H 248.526 -3.04481 7.17574 0
M  V30 2480 N 252.755 -1.56801 0.158532 0
M  V30 2481 C 253.687 -2.14488 -0.807923 0
M  V30 2482 C 254.7 -1.09721 -1.20271 0
M  V30 2483 O 255.889 -1.36956 -1.14478 0
M  V30 2484 C 252.989 -2.66217 -2.09718 0
M  V30 2485 C 252.162 -3.95507 -1.86796 0
M  V30 2486 C 251.221 -4.3243 -2.99818 0
M  V30 2487 O 250.247 -5.00543 -2.71008 0
M  V30 2488 N 251.449 -3.92947 -4.27285 0
M  V30 2489 H 254.214 -2.98042 -0.314816 0
M  V30 2490 H 251.775 -1.61881 -0.0246692 0
M  V30 2491 H 253.767 -2.87924 -2.84398 0
M  V30 2492 H 252.337 -1.87324 -2.50257 0
M  V30 2493 H 251.557 -3.82309 -0.96089 0
M  V30 2494 H 252.845 -4.79972 -1.68833 0
M  V30 2495 H 252.243 -3.38087 -4.53557 0
M  V30 2496 H 250.8 -4.19681 -4.9871 0
M  V30 2497 N 254.233 0.115231 -1.57178 0
M  V30 2498 C 255.143 1.15994 -2.03918 0
M  V30 2499 C 256.159 1.45103 -0.960268 0
M  V30 2500 O 257.335 1.56144 -1.27204 0
M  V30 2501 C 254.4 2.46568 -2.43732 0
M  V30 2502 C 253.461 2.24822 -3.65723 0
M  V30 2503 C 252.694 3.4917 -4.03629 0
M  V30 2504 O 252.917 4.56623 -3.41835 0
M  V30 2505 O 251.851 3.39949 -4.96708 0
M  V30 2506 H 255.677 0.793019 -2.93164 0
M  V30 2507 H 253.262 0.3263 -1.45793 0
M  V30 2508 H 255.144 3.23492 -2.70057 0
M  V30 2509 H 253.819 2.82726 -1.57631 0
M  V30 2510 H 252.726 1.45744 -3.44542 0
M  V30 2511 H 254.059 1.93566 -4.52541 0
M  V30 2512 N 255.711 1.52812 0.385517 0
M  V30 2513 C 256.621 1.80766 1.49535 0
M  V30 2514 C 257.637 0.694651 1.59532 0
M  V30 2515 O 258.813 0.982611 1.75803 0
M  V30 2516 C 255.878 1.97381 2.85029 0
M  V30 2517 C 254.939 3.21295 2.84724 0
M  V30 2518 C 254.172 3.37108 4.13756 0
M  V30 2519 O 254.395 2.5765 5.08893 0
M  V30 2520 O 253.329 4.30378 4.20783 0
M  V30 2521 H 257.155 2.75015 1.28842 0
M  V30 2522 H 254.74 1.37946 0.573697 0
M  V30 2523 H 256.622 2.09996 3.65349 0
M  V30 2524 H 255.297 1.06322 3.05741 0
M  V30 2525 H 254.204 3.1412 2.03174 0
M  V30 2526 H 255.537 4.12212 2.68965 0
M  V30 2527 N 257.189 -0.644168 1.43834 0
M  V30 2528 C 258.437 -1.40117 1.45642 0
M  V30 2529 C 258.758 -1.94814 0.0852413 0
M  V30 2530 O 258.028 -1.74988 -0.880688 0
M  V30 2531 H 256.608 -0.52005 0.536243 0
M  V30 2532 H 259.27 -0.7591 1.7951 0
M  V30 2533 H 258.366 -2.23902 2.17427 0
M  V30 2534 N 258.668 -1.30515 -0.883378 0
M  V30 2535 C 259.615 -1.17032 -1.98927 0
M  V30 2536 C 260.585 -0.0594241 -1.65994 0
M  V30 2537 O 261.77 -0.229895 -1.8941 0
M  V30 2538 C 258.91 -0.869777 -3.33959 0
M  V30 2539 C 258.023 -2.06271 -3.79574 0
M  V30 2540 C 257.158 -1.70011 -5.03259 0
M  V30 2541 C 256.197 -2.8579 -5.41286 0
M  V30 2542 N 255.334 -2.49816 -6.56153 0
M  V30 2543 H 260.174 -2.1164 -2.09792 0
M  V30 2544 H 257.711 -1.05296 -1.02719 0
M  V30 2545 H 259.669 -0.676138 -4.11685 0
M  V30 2546 H 258.299 0.0394332 -3.22776 0
M  V30 2547 H 257.351 -2.36755 -2.97744 0
M  V30 2548 H 258.663 -2.92971 -4.03694 0
M  V30 2549 H 257.817 -1.47032 -5.88614 0
M  V30 2550 H 256.556 -0.804829 -4.81013 0
M  V30 2551 H 255.561 -3.09434 -4.54456 0
M  V30 2552 H 256.786 -3.76008 -5.65504 0
M  V30 2553 H 254.732 -1.62795 -6.35479 0
M  V30 2554 H 254.649 -3.30048 -6.8015 0
M  V30 2555 H 255.917 -2.30197 -7.44735 0
M  V30 2556 N 260.146 1.09593 -1.13257 0
M  V30 2557 C 261.423 1.78293 -0.804432 0
M  V30 2558 C 261.803 1.99004 0.70431 0
M  V30 2559 O 261.151 1.59007 1.641 0
M  V30 2560 C 261.361 3.10707 -1.5894 0
M  V30 2561 C 262.709 3.85443 -1.78099 0
M  V30 2562 O 263.733 3.20454 -1.55525 0
M  V30 2563 O 262.592 5.02108 -2.15753 0
M  V30 2564 H 259.686 0.773156 -0.293528 0
M  V30 2565 H 262.232 1.16164 -1.23709 0
M  V30 2566 H 261.004 2.91106 -2.61482 0
M  V30 2567 H 260.627 3.80558 -1.15157 0
M  V30 2568 N 261.624 0.925811 1.2754 0
M  V30 2569 C 263.035 0.610102 1.7645 0
M  V30 2570 C 263.386 -0.874723 1.75622 0
M  V30 2571 O 262.511 -1.68444 1.35851 0
M  V30 2572 C 263.106 1.10073 3.20421 0
M  V30 2573 C 261.665 0.835723 3.67005 0
M  V30 2574 C 260.812 1.26054 2.46993 0
M  V30 2575 H 263.763 1.10579 1.13833 0
M  V30 2576 H 263.784 0.447557 3.77859 0
M  V30 2577 H 263.296 2.18143 3.20991 0
M  V30 2578 H 261.397 -0.231249 3.71882 0
M  V30 2579 H 261.51 1.45193 4.56569 0
M  V30 2580 H 259.874 0.679111 2.45479 0
M  V30 2581 H 260.657 2.34984 2.50275 0
M  V30 2582 N 263.102 -1.41638 0.69111 0
M  V30 2583 C 264.012 -2.34588 0.0233487 0
M  V30 2584 C 265.028 -1.55987 -0.770984 0
M  V30 2585 O 266.204 -1.88486 -0.709569 0
M  V30 2586 C 263.269 -3.34684 -0.904851 0
M  V30 2587 C 262.33 -4.29176 -0.103225 0
M  V30 2588 C 261.563 -5.2449 -0.987216 0
M  V30 2589 O 261.786 -5.2514 -2.22674 0
M  V30 2590 O 260.72 -6.00295 -0.439281 0
M  V30 2591 H 264.546 -2.93261 0.789416 0
M  V30 2592 H 262.131 -1.42417 0.45142 0
M  V30 2593 H 264.013 -3.96133 -1.43724 0
M  V30 2594 H 262.688 -2.78461 -1.65049 0
M  V30 2595 H 261.595 -3.71089 0.473655 0
M  V30 2596 H 262.928 -4.88484 0.60365 0
M  V30 2597 N 264.58 -0.43555 -1.51462 0
M  V30 2598 C 265.828 0.131254 -2.01673 0
M  V30 2599 C 266.149 1.43368 -1.32177 0
M  V30 2600 O 265.419 1.90524 -0.455769 0
M  V30 2601 H 263.999 0.0514954 -0.745223 0
M  V30 2602 H 266.661 -0.577847 -1.86137 0
M  V30 2603 H 265.757 0.308446 -3.10572 0
M  V30 2604 N 266.058 1.56714 -0.166846 0
M  V30 2605 C 266.99 2.14914 0.796537 0
M  V30 2606 C 268.003 1.10357 1.19688 0
M  V30 2607 O 269.192 1.37561 1.13751 0
M  V30 2608 C 266.292 2.67326 2.08303 0
M  V30 2609 C 265.465 3.96493 1.84696 0
M  V30 2610 C 264.524 4.34014 2.97521 0
M  V30 2611 O 263.55 5.01973 2.6835 0
M  V30 2612 N 264.752 3.95208 4.25196 0
M  V30 2613 H 267.517 2.98205 0.299006 0
M  V30 2614 H 265.078 1.61892 0.0160839 0
M  V30 2615 H 267.07 2.89428 2.82867 0
M  V30 2616 H 265.64 1.88649 2.4926 0
M  V30 2617 H 264.86 3.82814 0.940602 0
M  V30 2618 H 266.148 4.8086 1.66285 0
M  V30 2619 H 265.546 3.40487 4.51758 0
M  V30 2620 H 264.103 4.2232 4.96477 0
M  V30 2621 N 267.536 -0.106894 1.57237 0
M  V30 2622 C 268.947 -0.662723 1.74542 0
M  V30 2623 C 269.298 -1.7971 0.787319 0
M  V30 2624 O 268.423 -2.16368 -0.0369636 0
M  V30 2625 C 269.018 -1.20896 3.16496 0
M  V30 2626 C 267.577 -1.71096 3.35266 0
M  V30 2627 C 266.724 -0.615642 2.7038 0
M  V30 2628 H 269.675 0.119106 1.58252 0
M  V30 2629 H 269.696 -2.07847 3.18716 0
M  V30 2630 H 269.208 -0.383122 3.86204 0
M  V30 2631 H 267.309 -2.56119 2.70618 0
M  V30 2632 H 267.422 -1.81208 4.43509 0
M  V30 2633 H 265.786 -1.05222 2.31949 0
M  V30 2634 H 266.569 0.199419 3.4272 0
M  V30 2635 N 269.014 -1.53014 -0.377408 0
M  V30 2636 C 270.242 -1.72515 -1.14219 0
M  V30 2637 C 270.657 -0.448735 -1.8339 0
M  V30 2638 O 270.014 0.577592 -1.73119 0
M  V30 2639 C 270.065 -2.8826 -2.18148 0
M  V30 2640 O 269.786 -4.10962 -1.51795 0
M  V30 2641 C 271.287 -3.19536 -3.07264 0
M  V30 2642 H 268.507 -0.577301 -0.342001 0
M  V30 2643 H 271.051 -1.99712 -0.439935 0
M  V30 2644 H 269.206 -2.63492 -2.83991 0
M  V30 2645 H 269.62 -4.75693 -2.20945 0
M  V30 2646 H 271.094 -4.03959 -3.76193 0
M  V30 2647 H 271.571 -2.34403 -3.71419 0
M  V30 2648 H 272.177 -3.46186 -2.47053 0
M  V30 2649 N 270.492 0.636531 -1.44174 0
M  V30 2650 C 271.455 1.73063 -1.50273 0
M  V30 2651 C 272.455 1.56113 -0.385397 0
M  V30 2652 O 273.645 1.61707 -0.64781 0
M  V30 2653 C 270.777 3.12096 -1.37145 0
M  V30 2654 H 271.97 1.69031 -2.47727 0
M  V30 2655 H 269.523 0.849706 -1.31186 0
M  V30 2656 H 270.258 3.21728 -0.407636 0
M  V30 2657 H 270.043 3.25805 -2.18159 0
M  V30 2658 H 271.533 3.91846 -1.44382 0
M  V30 2659 N 271.97 1.30982 0.876444 0
M  V30 2660 C 273.195 1.23373 1.66715 0
M  V30 2661 C 273.62 -0.19885 1.87046 0
M  V30 2662 O 272.978 -1.1427 1.40756 0
M  V30 2663 C 273.026 1.97644 3.01611 0
M  V30 2664 O 272.13 1.30935 3.91062 0
M  V30 2665 H 271.471 0.426279 0.509099 0
M  V30 2666 H 274.001 1.72944 1.09323 0
M  V30 2667 H 274.011 2.06992 3.51594 0
M  V30 2668 H 272.686 3.01829 2.86133 0
M  V30 2669 H 271.263 1.29996 3.49507 0
M  V30 2670 N 273.449 -1.08991 1.13837 0
M  V30 2671 C 274.677 -1.85011 0.926202 0
M  V30 2672 C 275.092 -1.8135 -0.525127 0
M  V30 2673 O 274.449 -1.21287 -1.36366 0
M  V30 2674 C 274.5 -3.32802 1.41155 0
M  V30 2675 O 274.221 -3.36444 2.80601 0
M  V30 2676 C 275.722 -4.25649 1.23847 0
M  V30 2677 H 272.942 -0.584249 0.32999 0
M  V30 2678 H 275.486 -1.37688 1.51202 0
M  V30 2679 H 273.641 -3.77536 0.868631 0
M  V30 2680 H 274.055 -4.28657 3.02248 0
M  V30 2681 H 275.529 -5.27485 1.62675 0
M  V30 2682 H 276.006 -4.38828 0.18065 0
M  V30 2683 H 276.612 -3.86735 1.76964 0
M  V30 2684 N 274.927 -0.932562 -1.27047 0
M  V30 2685 C 276.338 -0.619451 -1.76124 0
M  V30 2686 C 276.689 0.865397 -1.76083 0
M  V30 2687 O 275.814 1.67722 -1.36742 0
M  V30 2688 C 276.409 -1.11771 -3.19832 0
M  V30 2689 C 274.968 -0.855174 -3.66557 0
M  V30 2690 C 274.115 -1.27362 -2.46321 0
M  V30 2691 H 277.066 -1.11181 -1.13245 0
M  V30 2692 H 277.087 -0.46759 -3.77616 0
M  V30 2693 H 276.599 -2.19842 -3.1983 0
M  V30 2694 H 274.7 0.211524 -3.71999 0
M  V30 2695 H 274.813 -1.47613 -4.55793 0
M  V30 2696 H 273.177 -0.692119 -2.45116 0
M  V30 2697 H 273.96 -2.36307 -2.49025 0
M  V30 2698 N 276.405 1.4127 -0.698611 0
M  V30 2699 C 277.315 2.34573 -0.0357891 0
M  V30 2700 C 278.331 1.56393 0.762701 0
M  V30 2701 O 279.507 1.8886 0.699564 0
M  V30 2702 C 276.572 3.35159 0.887089 0
M  V30 2703 C 275.633 4.29225 0.0804634 0
M  V30 2704 C 274.866 5.25006 0.959387 0
M  V30 2705 O 275.089 5.26314 2.19886 0
M  V30 2706 O 274.023 6.00519 0.407439 0
M  V30 2707 H 277.849 2.92838 -0.804957 0
M  V30 2708 H 275.434 1.42175 -0.458966 0
M  V30 2709 H 277.316 3.9689 1.41621 0
M  V30 2710 H 275.991 2.79333 1.6357 0
M  V30 2711 H 274.898 3.70833 -0.493328 0
M  V30 2712 H 276.231 4.88157 -0.629547 0
M  V30 2713 N 277.883 0.443576 1.51229 0
M  V30 2714 C 279.108 -0.121648 2.07043 0
M  V30 2715 C 279.533 -1.35156 1.30823 0
M  V30 2716 O 278.891 -1.7793 0.347934 0
M  V30 2717 C 278.939 -0.41624 3.5819 0
M  V30 2718 O 278.043 -1.50163 3.8409 0
M  V30 2719 H 277.384 0.000871367 0.663999 0
M  V30 2720 H 279.914 0.626706 1.94765 0
M  V30 2721 H 279.924 -0.664867 4.02546 0
M  V30 2722 H 278.599 0.482653 4.1309 0
M  V30 2723 H 277.176 -1.24248 3.51592 0
M  V30 2724 N 279.361 -1.56624 0.175154 0
M  V30 2725 C 280.271 -2.21741 -0.766042 0
M  V30 2726 C 281.287 -1.21023 -1.25018 0
M  V30 2727 O 282.463 -1.53697 -1.3015 0
M  V30 2728 C 279.528 -2.84839 -1.97655 0
M  V30 2729 C 278.589 -4.00769 -1.53892 0
M  V30 2730 C 277.822 -4.60849 -2.69173 0
M  V30 2731 O 278.045 -4.19823 -3.86141 0
M  V30 2732 O 276.979 -5.50655 -2.43028 0
M  V30 2733 H 280.805 -3.02738 -0.241585 0
M  V30 2734 H 278.39 -1.49305 -0.053222 0
M  V30 2735 H 280.272 -3.24834 -2.68442 0
M  V30 2736 H 278.947 -2.06836 -2.48999 0
M  V30 2737 H 277.854 -3.65436 -0.80044 0
M  V30 2738 H 279.187 -4.80376 -1.07236 0
M  V30 2739 N 280.839 0.0985539 -1.57292 0
M  V30 2740 C 281.749 1.13824 -2.05137 0
M  V30 2741 C 282.765 1.44076 -0.975604 0
M  V30 2742 O 283.941 1.54786 -1.28853 0
M  V30 2743 C 281.006 2.43969 -2.46333 0
M  V30 2744 C 280.067 2.2093 -3.68087 0
M  V30 2745 C 279.3 3.44869 -4.0731 0
M  V30 2746 O 279.523 4.52972 -3.46659 0
M  V30 2747 O 278.457 3.34661 -5.00285 0
M  V30 2748 H 282.283 0.761881 -2.93988 0
M  V30 2749 H 279.868 0.310818 -1.46131 0
M  V30 2750 H 281.75 3.20609 -2.73473 0
M  V30 2751 H 280.425 2.81038 -1.60621 0
M  V30 2752 H 279.332 1.42081 -3.46069 0
M  V30 2753 H 280.665 1.88755 -4.54568 0
M  V30 2754 N 282.317 1.53212 0.369288 0
M  V30 2755 C 283.563 1.70413 1.11046 0
M  V30 2756 C 283.918 0.448509 1.87099 0
M  V30 2757 O 283.211 -0.558382 1.83283 0
M  V30 2758 C 283.405 2.89101 2.10132 0
M  V30 2759 C 283.234 4.26084 1.43814 0
M  V30 2760 C 282.004 4.90994 1.19384 0
M  V30 2761 C 284.202 5.06754 0.877802 0
M  V30 2762 N 282.184 6.11911 0.49377 0
M  V30 2763 C 283.555 6.1924 0.306891 0
M  V30 2764 C 285.61 4.91814 0.776129 0
M  V30 2765 C 284.313 7.1842 -0.355774 0
M  V30 2766 C 286.339 5.91263 0.127252 0
M  V30 2767 C 285.701 7.03069 -0.432801 0
M  V30 2768 H 281.8 0.676872 0.391623 0
M  V30 2769 H 284.384 1.90603 0.397334 0
M  V30 2770 H 282.555 2.70456 2.78761 0
M  V30 2771 H 284.287 2.95142 2.76899 0
M  V30 2772 H 281.042 4.50074 1.47413 0
M  V30 2773 H 281.466 6.76813 0.159207 0
M  V30 2774 H 286.108 4.05564 1.19489 0
M  V30 2775 H 283.826 8.04264 -0.786499 0
M  V30 2776 H 287.412 5.81779 0.0495613 0
M  V30 2777 H 286.292 7.78702 -0.926958 0
M  V30 2778 N 283.795 -0.628877 1.44509 0
M  V30 2779 C 285.02 -1.42048 1.5112 0
M  V30 2780 C 285.445 -1.87594 0.137818 0
M  V30 2781 O 284.803 -1.58873 -0.873437 0
M  V30 2782 C 284.851 -2.61541 2.48251 0
M  V30 2783 O 283.955 -3.61453 1.98559 0
M  V30 2784 H 283.296 -0.424942 0.510216 0
M  V30 2785 H 285.826 -0.767374 1.89664 0
M  V30 2786 H 285.836 -3.09057 2.66361 0
M  V30 2787 H 284.511 -2.27736 3.48007 0
M  V30 2788 H 283.088 -3.20731 1.90227 0
M  V30 2789 N 285.273 -1.31445 -0.869486 0
M  V30 2790 C 286.498 -1.24256 -1.66058 0
M  V30 2791 C 286.923 0.188928 -1.87149 0
M  V30 2792 O 286.281 1.13522 -1.4136 0
M  V30 2793 C 286.329 -1.9924 -3.00559 0
M  V30 2794 O 285.433 -1.33007 -3.90362 0
M  V30 2795 H 284.774 -0.428973 -0.506831 0
M  V30 2796 H 287.304 -1.73521 -1.08404 0
M  V30 2797 H 287.314 -2.08854 -3.50491 0
M  V30 2798 H 285.989 -3.03342 -2.84528 0
M  V30 2799 H 284.566 -1.31848 -3.48813 0
M  V30 2800 N 286.751 1.08385 -1.14413 0
M  V30 2801 C 287.976 1.85057 -0.936413 0
M  V30 2802 C 288.401 1.81055 0.509971 0
M  V30 2803 O 287.759 1.1958 1.36273 0
M  V30 2804 C 287.807 3.30505 -1.44217 0
M  V30 2805 O 286.911 4.07491 -0.634409 0
M  V30 2806 H 286.252 0.573425 -0.334784 0
M  V30 2807 H 288.782 1.36799 -1.52142 0
M  V30 2808 H 288.792 3.81348 -1.45043 0
M  V30 2809 H 287.467 3.32734 -2.49522 0
M  V30 2810 H 286.044 3.66368 -0.694902 0
M  V30 2811 N 288.23 0.939286 1.26551 0
M  V30 2812 C 289.162 0.404704 2.25599 0
M  V30 2813 C 290.175 -0.470983 1.55838 0
M  V30 2814 O 291.364 -0.281734 1.76263 0
M  V30 2815 C 288.464 -0.43764 3.36062 0
M  V30 2816 C 287.637 0.421449 4.35365 0
M  V30 2817 C 286.696 -0.36015 5.24966 0
M  V30 2818 O 285.722 0.236167 5.6871 0
M  V30 2819 N 286.924 -1.65715 5.56344 0
M  V30 2820 H 289.689 1.25618 2.72103 0
M  V30 2821 H 287.25 0.807963 1.40298 0
M  V30 2822 H 289.242 -0.967866 3.92956 0
M  V30 2823 H 287.812 -1.18991 2.89067 0
M  V30 2824 H 287.032 1.1329 3.7757 0
M  V30 2825 H 288.32 1.00835 4.98708 0
M  V30 2826 H 287.718 -2.16378 5.22682 0
M  V30 2827 H 286.275 -2.13366 6.15888 0
M  V30 2828 N 289.708 -1.40897 0.706093 0
M  V30 2829 C 291.119 -1.84023 0.315052 0
M  V30 2830 C 291.47 -1.5906 -1.14866 0
M  V30 2831 O 290.595 -1.06651 -1.88293 0
M  V30 2832 C 291.19 -3.34055 0.565038 0
M  V30 2833 C 289.749 -3.7571 0.227806 0
M  V30 2834 C 288.896 -2.64204 0.842122 0
M  V30 2835 H 291.847 -1.303 0.905963 0
M  V30 2836 H 291.868 -3.80107 -0.172843 0
M  V30 2837 H 291.38 -3.52192 1.63042 0
M  V30 2838 H 289.481 -3.63172 -0.832895 0
M  V30 2839 H 289.594 -4.74103 0.690174 0
M  V30 2840 H 287.958 -2.53255 0.270893 0
M  V30 2841 H 288.741 -2.85155 1.91158 0
M  V30 2842 N 291.186 -0.45159 -1.50991 0
M  V30 2843 C 292.149 0.341117 -2.26647 0
M  V30 2844 C 293.149 0.937422 -1.30649 0
M  V30 2845 O 294.339 0.809644 -1.54241 0
M  V30 2846 C 291.471 1.48398 -3.06905 0
M  V30 2847 H 292.664 -0.322117 -2.98165 0
M  V30 2848 H 290.217 -0.205122 -1.54948 0
M  V30 2849 H 290.952 2.18284 -2.39838 0
M  V30 2850 H 290.737 1.06241 -3.77432 0
M  V30 2851 H 292.227 2.04367 -3.64176 0
M  V30 2852 N 292.664 1.56529 -0.183458 0
M  V30 2853 C 293.892 2.01623 0.464285 0
M  V30 2854 C 294.307 1.06366 1.55986 0
M  V30 2855 O 293.664 0.0665398 1.82379 0
M  V30 2856 C 293.715 3.46475 1.03139 0
M  V30 2857 O 293.436 4.38095 -0.0204675 0
M  V30 2858 C 294.937 4.0703 1.75617 0
M  V30 2859 H 292.157 0.660596 0.117704 0
M  V30 2860 H 294.701 2.02451 -0.288751 0
M  V30 2861 H 292.856 3.46383 1.73486 0
M  V30 2862 H 293.27 5.22973 0.399952 0
M  V30 2863 H 294.744 5.10271 2.10542 0
M  V30 2864 H 295.221 3.49819 2.65563 0
M  V30 2865 H 295.827 4.1086 1.09882 0
M  V30 2866 N 294.142 -0.090211 1.57342 0
M  V30 2867 C 295.39 -0.791241 1.85967 0
M  V30 2868 C 295.711 -1.7903 0.772859 0
M  V30 2869 O 294.981 -1.94872 -0.200398 0
M  V30 2870 H 293.561 -0.295205 0.686195 0
M  V30 2871 H 296.223 -0.0706782 1.94772 0
M  V30 2872 H 295.319 -1.31882 2.82867 0
M  V30 2873 N 295.62 -1.53406 -0.361157 0
M  V30 2874 C 296.53 -1.83122 -1.4664 0
M  V30 2875 C 297.546 -0.719943 -1.58407 0
M  V30 2876 O 298.722 -1.01046 -1.74218 0
M  V30 2877 C 295.787 -2.01891 -2.81853 0
M  V30 2878 C 294.848 -3.25784 -2.79577 0
M  V30 2879 C 294.081 -3.43648 -4.0834 0
M  V30 2880 O 294.304 -2.65714 -5.0473 0
M  V30 2881 O 293.238 -4.37018 -4.13883 0
M  V30 2882 H 297.064 -2.7703 -1.24451 0
M  V30 2883 H 294.649 -1.38841 -0.551678 0
M  V30 2884 H 296.531 -2.15782 -3.61962 0
M  V30 2885 H 295.206 -1.11173 -3.0401 0
M  V30 2886 H 294.113 -3.17312 -1.98151 0
M  V30 2887 H 295.446 -4.16439 -2.62373 0
M  V30 2888 N 297.098 0.621204 -1.44841 0
M  V30 2889 C 298.045 1.73267 -1.5247 0
M  V30 2890 C 299.015 1.6189 -0.371611 0
M  V30 2891 O 300.2 1.81668 -0.58321 0
M  V30 2892 C 297.34 3.11545 -1.48438 0
M  V30 2893 C 296.453 3.33827 -2.74196 0
M  V30 2894 C 295.588 4.62133 -2.61929 0
M  V30 2895 C 294.627 4.77627 -3.82804 0
M  V30 2896 N 293.764 5.97219 -3.69153 0
M  V30 2897 H 298.604 1.66082 -2.47428 0
M  V30 2898 H 296.141 0.810026 -1.22788 0
M  V30 2899 H 298.099 3.91528 -1.4409 0
M  V30 2900 H 296.729 3.1772 -0.570402 0
M  V30 2901 H 295.781 2.47715 -2.88689 0
M  V30 2902 H 297.093 3.41153 -3.6389 0
M  V30 2903 H 296.247 5.50291 -2.5547 0
M  V30 2904 H 294.986 4.57182 -1.69811 0
M  V30 2905 H 293.991 3.87896 -3.89637 0
M  V30 2906 H 295.216 4.84385 -4.75971 0
M  V30 2907 H 293.162 5.93339 -2.79794 0
M  V30 2908 H 293.079 6.05644 -4.52472 0
M  V30 2909 H 294.347 6.87912 -3.66603 0
M  V30 2910 N 298.576 1.31904 0.862503 0
M  V30 2911 C 299.523 1.20182 1.9704 0
M  V30 2912 C 300.493 0.0858247 1.65878 0
M  V30 2913 O 301.678 0.26 1.8902 0
M  V30 2914 C 298.818 0.922797 3.32533 0
M  V30 2915 C 297.931 2.12284 3.76244 0
M  V30 2916 C 297.066 1.77996 5.00491 0
M  V30 2917 C 296.105 2.94366 5.36671 0
M  V30 2918 N 295.242 2.60223 6.52095 0
M  V30 2919 H 300.082 2.14951 2.06398 0
M  V30 2920 H 297.619 1.06917 1.01031 0
M  V30 2921 H 299.577 0.741548 4.10557 0
M  V30 2922 H 298.207 0.0119227 3.22798 0
M  V30 2923 H 297.259 2.41461 2.9394 0
M  V30 2924 H 298.571 2.99357 3.98982 0
M  V30 2925 H 297.725 1.56377 5.862 0
M  V30 2926 H 296.464 0.881252 4.79672 0
M  V30 2927 H 295.469 3.16625 4.49476 0
M  V30 2928 H 296.694 3.84957 5.59451 0
M  V30 2929 H 294.64 1.72884 6.32809 0
M  V30 2930 H 294.557 3.40827 6.74814 0
M  V30 2931 H 295.825 2.42016 7.40978 0
M  V30 2932 N 300.054 -1.07777 1.14986 0
M  V30 2933 C 300.964 -2.18404 0.856546 0
M  V30 2934 C 301.98 -1.73211 -0.165485 0
M  V30 2935 O 303.156 -2.01399 0.00755219 0
M  V30 2936 C 300.221 -3.44977 0.34526 0
M  V30 2937 C 299.282 -4.0476 1.43065 0
M  V30 2938 C 298.515 -5.25291 0.943663 0
M  V30 2939 O 298.738 -5.70004 -0.212426 0
M  V30 2940 O 297.672 -5.76638 1.72547 0
M  V30 2941 H 301.498 -2.45978 1.78125 0
M  V30 2942 H 299.083 -1.17033 0.928631 0
M  V30 2943 H 300.965 -4.21348 0.0663671 0
M  V30 2944 H 299.64 -3.18965 -0.551631 0
M  V30 2945 H 298.547 -3.29949 1.76309 0
M  V30 2946 H 299.88 -4.35035 2.30229 0
M  V30 2947 N 301.532 -0.945985 -1.26051 0
M  V30 2948 C 302.772 -0.603665 -1.95282 0
M  V30 2949 C 303.136 0.842377 -1.72534 0
M  V30 2950 O 304.337 1.29387 -2.35611 0
M  V30 2951 C 302.608 -0.942292 -3.44754 0
M  V30 2952 S 304.167 -0.711242 -4.32997 0
M  V30 2953 H 300.985 -0.222176 -0.675395 0
M  V30 2954 H 303.587 -1.21832 -1.52896 0
M  V30 2955 H 302.291 -1.99203 -3.58812 0
M  V30 2956 H 301.822 -0.317546 -3.92116 0
M  V30 2957 H 303.837 0.422221 -4.944 0
M  V30 2958 N 303.011 1.40521 -0.713556 0
M  V30 2959 C 304.257 2.01714 -0.261382 0
M  V30 2960 C 304.612 1.55562 1.13217 0
M  V30 2961 O 303.905 0.764893 1.7567 0
M  V30 2962 C 304.099 3.56317 -0.278 0
M  V30 2963 C 303.928 4.17476 -1.67163 0
M  V30 2964 C 302.698 4.50998 -2.2788 0
M  V30 2965 C 304.896 4.42472 -2.6215 0
M  V30 2966 N 302.878 4.9754 -3.5962 0
M  V30 2967 C 304.249 4.90985 -3.78594 0
M  V30 2968 C 306.304 4.24508 -2.60188 0
M  V30 2969 C 305.007 5.2342 -4.9338 0
M  V30 2970 C 307.033 4.58043 -3.741 0
M  V30 2971 C 306.395 5.06743 -4.89276 0
M  V30 2972 H 302.494 0.769104 -0.141434 0
M  V30 2973 H 305.078 1.70785 -0.934915 0
M  V30 2974 H 303.249 3.8668 0.36509 0
M  V30 2975 H 304.981 4.0425 0.190695 0
M  V30 2976 H 301.736 4.38062 -1.79997 0
M  V30 2977 H 302.16 5.25196 -4.27198 0
M  V30 2978 H 306.802 3.86078 -1.72348 0
M  V30 2979 H 304.52 5.60765 -5.81866 0
M  V30 2980 H 308.106 4.45785 -3.73854 0
M  V30 2981 H 306.986 5.32204 -5.75959 0
M  V30 2982 N 304.489 0.459591 1.5075 0
M  V30 2983 C 305.714 -0.0996819 2.0716 0
M  V30 2984 C 306.139 -1.33761 1.32249 0
M  V30 2985 O 305.497 -1.77551 0.366786 0
M  V30 2986 C 305.545 -0.378226 3.58611 0
M  V30 2987 O 304.649 -1.46081 3.85661 0
M  V30 2988 H 303.99 0.00791392 0.663953 0
M  V30 2989 H 306.52 0.647329 1.9409 0
M  V30 2990 H 306.53 -0.622135 4.03229 0
M  V30 2991 H 305.205 0.526439 4.12555 0
M  V30 2992 H 303.782 -1.20511 3.5289 0
M  V30 2993 N 305.967 -1.56429 0.191757 0
M  V30 2994 C 307.213 -1.98541 -0.441943 0
M  V30 2995 C 307.568 -1.07646 -1.59468 0
M  V30 2996 O 306.861 -0.120191 -1.91223 0
M  V30 2997 C 307.055 -3.44449 -0.953384 0
M  V30 2998 C 306.884 -4.49456 0.148262 0
M  V30 2999 C 305.654 -5.01668 0.604781 0
M  V30 3000 C 307.852 -5.05336 0.95602 0
M  V30 3001 N 305.834 -5.90334 1.6846 0
M  V30 3002 C 307.205 -5.9064 1.88531 0
M  V30 3003 C 309.26 -4.87779 0.998811 0
M  V30 3004 C 307.963 -6.60264 2.85383 0
M  V30 3005 C 309.989 -5.58139 1.95537 0
M  V30 3006 C 309.351 -6.43187 2.8721 0
M  V30 3007 H 305.45 -0.771247 -0.129236 0
M  V30 3008 H 308.034 -1.92426 0.296682 0
M  V30 3009 H 306.205 -3.5107 -1.66146 0
M  V30 3010 H 307.937 -3.73533 -1.55741 0
M  V30 3011 H 304.692 -4.73183 0.198736 0
M  V30 3012 H 305.116 -6.39371 2.22561 0
M  V30 3013 H 309.758 -4.21705 0.304048 0
M  V30 3014 H 307.476 -7.25538 3.55837 0
M  V30 3015 H 311.062 -5.46532 1.99484 0
M  V30 3016 H 309.942 -6.96674 3.60022 0
M  V30 3017 N 307.445 0.0818655 -1.57387 0
M  V30 3018 C 308.355 1.11642 -2.06333 0
M  V30 3019 C 309.371 1.43033 -0.99083 0
M  V30 3020 O 310.547 1.53411 -1.30488 0
M  V30 3021 C 307.612 2.41342 -2.48907 0
M  V30 3022 C 306.673 2.17014 -3.7041 0
M  V30 3023 C 305.906 3.4053 -4.10944 0
M  V30 3024 O 306.129 4.4927 -3.51444 0
M  V30 3025 O 305.063 3.29336 -5.03807 0
M  V30 3026 H 308.889 0.730657 -2.9478 0
M  V30 3027 H 306.474 0.295301 -1.46452 0
M  V30 3028 H 308.356 3.17691 -2.76858 0
M  V30 3029 H 307.031 2.79319 -1.63593 0
M  V30 3030 H 305.938 1.38403 -3.47556 0
M  V30 3031 H 307.271 1.83923 -4.56545 0
M  V30 3032 N 308.923 1.53595 0.353017 0
M  V30 3033 C 310.148 1.7462 1.11904 0
M  V30 3034 C 310.573 0.479721 1.8188 0
M  V30 3035 O 309.931 -0.567066 1.72204 0
M  V30 3036 C 309.979 2.92029 2.11545 0
M  V30 3037 O 309.083 2.61516 3.18878 0
M  V30 3038 H 308.424 0.579531 0.324099 0
M  V30 3039 H 310.954 2.00525 0.406301 0
M  V30 3040 H 310.964 3.18551 2.5493 0
M  V30 3041 H 309.639 3.83888 1.60008 0
M  V30 3042 H 308.216 2.45852 2.80377 0
M  V30 3043 N 310.401 -0.613514 1.45168 0
M  V30 3044 C 311.631 -1.39743 1.52169 0
M  V30 3045 C 312.039 -1.88596 0.151086 0
M  V30 3046 O 311.382 -1.6251 -0.856521 0
M  V30 3047 C 311.444 -2.64035 2.43979 0
M  V30 3048 C 311.108 -2.36861 3.90827 0
M  V30 3049 C 312.105 -1.97591 4.80889 0
M  V30 3050 C 309.79 -2.49956 4.35692 0
M  V30 3051 C 311.784 -1.71768 6.1382 0
M  V30 3052 C 309.471 -2.23747 5.68665 0
M  V30 3053 C 310.469 -1.84714 6.57548 0
M  V30 3054 O 310.157 -1.58809 7.88058 0
M  V30 3055 H 309.889 -0.434382 0.517966 0
M  V30 3056 H 312.443 -0.75587 1.90986 0
M  V30 3057 H 310.673 -3.3089 2.00122 0
M  V30 3058 H 312.362 -3.26069 2.41731 0
M  V30 3059 H 313.128 -1.87015 4.47493 0
M  V30 3060 H 309.007 -2.79305 3.66756 0
M  V30 3061 H 312.551 -1.41227 6.83155 0
M  V30 3062 H 308.448 -2.33938 6.01617 0
M  V30 3063 H 309.216 -1.7291 8.00028 0
M  V30 3064 N 311.879 -1.3236 -0.855495 0
M  V30 3065 C 312.809 -1.23833 -1.97958 0
M  V30 3066 C 313.79 -0.122361 -1.69659 0
M  V30 3067 O 314.975 -0.30939 -1.9172 0
M  V30 3068 C 312.105 -0.959772 -3.33775 0
M  V30 3069 C 311.059 -2.03689 -3.76424 0
M  V30 3070 C 310.385 -1.61075 -5.09862 0
M  V30 3071 C 311.685 -3.4518 -3.9198 0
M  V30 3072 H 313.379 -2.1788 -2.0535 0
M  V30 3073 H 310.925 -1.04891 -0.986605 0
M  V30 3074 H 312.878 -0.886678 -4.11966 0
M  V30 3075 H 311.602 0.0163404 -3.26596 0
M  V30 3076 H 310.261 -2.10012 -3.00484 0
M  V30 3077 H 309.909 -0.622107 -4.99138 0
M  V30 3078 H 309.609 -2.33143 -5.39368 0
M  V30 3079 H 311.133 -1.55201 -5.90546 0
M  V30 3080 H 312.547 -3.4145 -4.60526 0
M  V30 3081 H 310.944 -4.1559 -4.32903 0
M  V30 3082 H 312.014 -3.84903 -2.94919 0
M  V30 3083 N 313.357 1.07166 -1.15556 0
M  V30 3084 C 314.267 2.17947 -0.868116 0
M  V30 3085 C 315.283 1.73297 0.156297 0
M  V30 3086 O 316.459 2.01392 -0.0182327 0
M  V30 3087 C 313.524 3.44789 -0.36355 0
M  V30 3088 C 312.585 4.03996 -1.45209 0
M  V30 3089 C 311.818 5.24783 -0.971508 0
M  V30 3090 O 312.041 5.70109 0.182194 0
M  V30 3091 O 310.975 5.75715 -1.75603 0
M  V30 3092 H 314.801 2.4503 -1.79427 0
M  V30 3093 H 312.386 1.16539 -0.934824 0
M  V30 3094 H 314.268 4.21307 -0.0887113 0
M  V30 3095 H 312.943 3.19253 0.534708 0
M  V30 3096 H 311.85 3.29009 -1.78056 0
M  V30 3097 H 313.183 4.33808 -2.32533 0
M  V30 3098 N 314.835 0.952656 1.25548 0
M  V30 3099 C 315.745 0.47782 2.29682 0
M  V30 3100 C 316.761 -0.453859 1.67977 0
M  V30 3101 O 317.937 -0.330587 1.98668 0
M  V30 3102 C 315.002 -0.238655 3.45878 0
M  V30 3103 C 314.063 0.730994 4.23031 0
M  V30 3104 C 313.296 0.0486165 5.33678 0
M  V30 3105 O 313.519 -1.16612 5.58353 0
M  V30 3106 O 312.453 0.733152 5.97418 0
M  V30 3107 H 316.279 1.34312 2.72386 0
M  V30 3108 H 313.864 0.719026 1.30959 0
M  V30 3109 H 315.746 -0.641774 4.16484 0
M  V30 3110 H 314.421 -1.07916 3.05181 0
M  V30 3111 H 313.328 1.18428 3.5486 0
M  V30 3112 H 314.661 1.53946 4.67506 0
M  V30 3113 N 316.313 -1.40141 0.720998 0
M  V30 3114 C 317.245 -2.29177 0.0324669 0
M  V30 3115 C 318.258 -1.46105 -0.718126 0
M  V30 3116 O 319.447 -1.69335 -0.564608 0
M  V30 3117 C 316.547 -3.24473 -0.978292 0
M  V30 3118 C 315.72 -4.36423 -0.292115 0
M  V30 3119 C 314.779 -5.12122 -1.20901 0
M  V30 3120 O 313.805 -5.64981 -0.691766 0
M  V30 3121 N 315.007 -5.21992 -2.53978 0
M  V30 3122 H 317.772 -2.88909 0.796984 0
M  V30 3123 H 315.333 -1.51569 0.569068 0
M  V30 3124 H 317.325 -3.71987 -1.59398 0
M  V30 3125 H 315.895 -2.65871 -1.64413 0
M  V30 3126 H 315.115 -3.90967 0.503847 0
M  V30 3127 H 316.403 -5.08467 0.183971 0
M  V30 3128 H 315.801 -4.8054 -2.98493 0
M  V30 3129 H 314.358 -5.72995 -3.10677 0
M  V30 3130 N 317.792 -0.46758 -1.50504 0
M  V30 3131 C 318.739 0.328413 -2.28452 0
M  V30 3132 C 319.709 0.990313 -1.33349 0
M  V30 3133 O 320.894 1.00343 -1.62284 0
M  V30 3134 C 318.034 1.40648 -3.15138 0
M  V30 3135 C 317.147 0.759709 -4.25267 0
M  V30 3136 C 316.282 1.81537 -4.99217 0
M  V30 3137 C 315.321 1.14866 -6.01226 0
M  V30 3138 N 314.458 2.14702 -6.68467 0
M  V30 3139 H 319.298 -0.342603 -2.96024 0
M  V30 3140 H 316.835 -0.180801 -1.45985 0
M  V30 3141 H 318.793 2.04315 -3.63746 0
M  V30 3142 H 317.423 2.04671 -2.49619 0
M  V30 3143 H 316.475 0.0105671 -3.80399 0
M  V30 3144 H 317.787 0.233243 -4.98254 0
M  V30 3145 H 316.941 2.52793 -5.51526 0
M  V30 3146 H 315.68 2.37564 -4.25928 0
M  V30 3147 H 314.685 0.42171 -5.4818 0
M  V30 3148 H 315.91 0.595334 -6.76485 0
M  V30 3149 H 313.856 2.69752 -5.97972 0
M  V30 3150 H 313.773 1.6703 -7.37317 0
M  V30 3151 H 315.041 2.85348 -7.25394 0
M  V30 3152 N 319.27 1.56325 -0.20005 0
M  V30 3153 C 320.233 2.18084 0.705132 0
M  V30 3154 C 321.233 1.13666 1.1374 0
M  V30 3155 O 322.423 1.39023 1.04968 0
M  V30 3156 C 319.555 2.78689 1.96329 0
M  V30 3157 H 320.748 2.99435 0.167023 0
M  V30 3158 H 318.301 1.56221 0.0495725 0
M  V30 3159 H 319.036 2.0115 2.5438 0
M  V30 3160 H 318.821 3.55133 1.66202 0
M  V30 3161 H 320.311 3.26096 2.60866 0
M  V30 3162 N 320.748 -0.0735177 1.57428 0
M  V30 3163 C 321.997 -0.771809 1.86349 0
M  V30 3164 C 322.31 -1.78828 0.792452 0
M  V30 3165 O 323.516 -2.53602 0.96945 0
M  V30 3166 C 321.972 -1.42358 3.30548 0
M  V30 3167 C 321.58 -0.445761 4.45777 0
M  V30 3168 C 323.324 -2.10434 3.6867 0
M  V30 3169 C 321.231 -1.10335 5.81016 0
M  V30 3170 H 320.161 -0.291999 0.695164 0
M  V30 3171 H 322.812 -0.0250749 1.83483 0
M  V30 3172 H 321.194 -2.21852 3.28021 0
M  V30 3173 H 322.368 0.319239 4.59693 0
M  V30 3174 H 320.683 0.130457 4.16196 0
M  V30 3175 H 323.28 -2.60405 4.67004 0
M  V30 3176 H 323.623 -2.90298 2.98383 0
M  V30 3177 H 324.156 -1.37773 3.7318 0
M  V30 3178 H 320.895 -0.345061 6.54591 0
M  V30 3179 H 320.415 -1.83925 5.70904 0
M  V30 3180 H 322.094 -1.62367 6.26295 0
M  V30 3181 N 322.226 -1.5378 -0.344866 0
M  V30 3182 C 323.454 -1.74899 -1.10534 0
M  V30 3183 C 323.869 -0.487534 -1.82397 0
M  V30 3184 O 323.226 0.540741 -1.74305 0
M  V30 3185 C 323.277 -2.92822 -2.11984 0
M  V30 3186 O 322.998 -4.14089 -1.43044 0
M  V30 3187 C 324.499 -3.25982 -3.00417 0
M  V30 3188 H 321.719 -0.584426 -0.329678 0
M  V30 3189 H 324.263 -2.006 -0.397474 0
M  V30 3190 H 322.418 -2.69457 -2.78338 0
M  V30 3191 H 322.832 -4.80272 -2.10805 0
M  V30 3192 H 324.306 -4.11848 -3.67539 0
M  V30 3193 H 324.783 -2.42228 -3.66363 0
M  V30 3194 H 325.389 -3.51349 -2.39654 0
M  V30 3195 N 323.704 0.605807 -1.45491 0
M  V30 3196 C 324.667 1.69836 -1.5391 0
M  V30 3197 C 325.667 1.55261 -0.418424 0
M  V30 3198 O 326.857 1.60296 -0.681965 0
M  V30 3199 C 323.989 3.09117 -1.43734 0
M  V30 3200 H 325.182 1.63738 -2.51257 0
M  V30 3201 H 322.735 0.821689 -1.32959 0
M  V30 3202 H 323.47 3.20791 -0.475788 0
M  V30 3203 H 323.255 3.21104 -2.25021 0
M  V30 3204 H 324.745 3.88696 -1.52661 0
M  V30 3205 N 325.182 1.32811 0.848464 0
M  V30 3206 C 326.593 1.21315 1.41914 0
M  V30 3207 C 326.944 -0.171847 1.95446 0
M  V30 3208 O 326.069 -1.07093 1.88043 0
M  V30 3209 C 326.664 2.19631 2.57968 0
M  V30 3210 C 325.223 2.12003 3.11017 0
M  V30 3211 C 324.37 2.07651 1.83783 0
M  V30 3212 H 327.321 1.44549 0.655071 0
M  V30 3213 H 327.342 1.79845 3.35315 0
M  V30 3214 H 326.854 3.20423 2.18976 0
M  V30 3215 H 324.955 1.14481 3.54577 0
M  V30 3216 H 325.068 3.02111 3.71841 0
M  V30 3217 H 323.432 1.52983 2.03638 0
M  V30 3218 H 324.215 3.10235 1.47 0
M  V30 3219 N 326.66 -1.06551 1.16123 0
M  V30 3220 C 327.906 -1.79567 0.94252 0
M  V30 3221 C 328.239 -1.86869 -0.528547 0
M  V30 3222 O 327.514 -1.35838 -1.39206 0
M  V30 3223 C 327.797 -3.24195 1.56747 0
M  V30 3224 C 327.65 -3.24989 3.10969 0
M  V30 3225 C 328.969 -4.21678 1.25998 0
M  V30 3226 H 326.088 -0.651883 0.343828 0
M  V30 3227 H 328.73 -1.2463 1.43413 0
M  V30 3228 H 326.88 -3.71107 1.14942 0
M  V30 3229 H 328.552 -2.86258 3.61737 0
M  V30 3230 H 326.795 -2.63716 3.44436 0
M  V30 3231 H 327.466 -4.27005 3.49815 0
M  V30 3232 H 329.942 -3.83196 1.62174 0
M  V30 3233 H 328.818 -5.21146 1.7233 0
M  V30 3234 H 329.079 -4.4174 0.178367 0
M  V30 3235 N 328.138 -0.959301 -1.25041 0
M  V30 3236 C 329.363 -0.633507 -1.97488 0
M  V30 3237 C 329.788 0.788555 -1.70773 0
M  V30 3238 O 329.146 1.53394 -0.966431 0
M  V30 3239 C 329.194 -0.904057 -3.49083 0
M  V30 3240 O 328.298 0.0147939 -4.12397 0
M  V30 3241 H 327.639 -0.240368 -0.618966 0
M  V30 3242 H 330.169 -1.28717 -1.59038 0
M  V30 3243 H 330.179 -0.832203 -3.99423 0
M  V30 3244 H 328.854 -1.94048 -3.67856 0
M  V30 3245 H 327.431 -0.109664 -3.72739 0
M  V30 3246 N 329.616 1.39756 -0.72842 0
M  V30 3247 C 330.546 2.33289 -0.0991354 0
M  V30 3248 C 331.527 1.53568 0.731489 0
M  V30 3249 O 332.712 1.81987 0.677807 0
M  V30 3250 C 329.842 3.3763 0.813834 0
M  V30 3251 C 328.796 4.2791 0.0878663 0
M  V30 3252 C 328.122 5.22894 1.11741 0
M  V30 3253 C 329.422 5.11314 -1.06563 0
M  V30 3254 H 331.116 2.86163 -0.880408 0
M  V30 3255 H 328.662 1.37591 -0.424819 0
M  V30 3256 H 330.615 4.0201 1.26355 0
M  V30 3257 H 329.339 2.83181 1.62715 0
M  V30 3258 H 327.998 3.65 -0.342159 0
M  V30 3259 H 327.646 4.64744 1.92412 0
M  V30 3260 H 327.346 5.84143 0.636477 0
M  V30 3261 H 328.87 5.90151 1.56697 0
M  V30 3262 H 330.284 5.69076 -0.694671 0
M  V30 3263 H 328.681 5.81671 -1.47577 0
M  V30 3264 H 329.751 4.46534 -1.89038 0
M  V30 3265 N 331.094 0.475555 1.50254 0
M  V30 3266 C 332.341 -0.0778919 2.0235 0
M  V30 3267 C 332.669 -1.39319 1.35722 0
M  V30 3268 O 331.924 -1.89888 0.473395 0
M  V30 3269 C 332.223 -0.305114 3.56095 0
M  V30 3270 C 331.889 0.92903 4.41225 0
M  V30 3271 C 330.551 1.26739 4.6421 0
M  V30 3272 C 332.903 1.75054 4.90923 0
M  V30 3273 C 330.231 2.42724 5.34137 0
M  V30 3274 C 332.583 2.9017 5.62125 0
M  V30 3275 C 331.247 3.24416 5.83362 0
M  V30 3276 H 330.517 -0.0285027 0.740452 0
M  V30 3277 H 333.164 0.630543 1.80821 0
M  V30 3278 H 331.469 -1.09584 3.76163 0
M  V30 3279 H 333.166 -0.747377 3.93974 0
M  V30 3280 H 329.756 0.655428 4.23559 0
M  V30 3281 H 333.94 1.50231 4.73016 0
M  V30 3282 H 329.196 2.69525 5.48786 0
M  V30 3283 H 333.37 3.54169 5.99614 0
M  V30 3284 H 330.997 4.14396 6.37323 0
M  V30 3285 N 332.573 -1.56217 0.208337 0
M  V30 3286 C 333.505 -2.1695 -0.739276 0
M  V30 3287 C 334.518 -1.13492 -1.1672 0
M  V30 3288 O 335.707 -1.40529 -1.10063 0
M  V30 3289 C 332.807 -2.72755 -2.01142 0
M  V30 3290 C 331.98 -4.0125 -1.74118 0
M  V30 3291 C 331.039 -4.41749 -2.85909 0
M  V30 3292 O 330.065 -5.08912 -2.54946 0
M  V30 3293 N 331.267 -4.06342 -4.14568 0
M  V30 3294 H 334.032 -2.98893 -0.219837 0
M  V30 3295 H 331.593 -1.61878 0.0268445 0
M  V30 3296 H 333.585 -2.96826 -2.75094 0
M  V30 3297 H 332.155 -1.95191 -2.4417 0
M  V30 3298 H 331.375 -3.85173 -0.838775 0
M  V30 3299 H 332.663 -4.851 -1.53477 0
M  V30 3300 H 332.061 -3.52345 -4.42571 0
M  V30 3301 H 330.618 -4.35335 -4.85105 0
M  V30 3302 N 334.051 0.0651679 -1.57465 0
M  V30 3303 C 335.328 0.79644 -1.78651 0
M  V30 3304 C 335.708 1.95454 -0.797566 0
M  V30 3305 O 335.056 2.27882 0.167946 0
M  V30 3306 C 335.266 1.26322 -3.25337 0
M  V30 3307 C 336.614 1.6939 -3.89348 0
M  V30 3308 O 337.638 1.35872 -3.29268 0
M  V30 3309 O 336.497 2.31471 -4.95059 0
M  V30 3310 H 333.591 0.382157 -0.733407 0
M  V30 3311 H 336.137 0.0447311 -1.69641 0
M  V30 3312 H 334.909 0.434859 -3.88876 0
M  V30 3313 H 334.532 2.07604 -3.39096 0
M  V30 3314 N 335.529 1.53961 0.336706 0
M  V30 3315 C 336.754 1.75797 1.10046 0
M  V30 3316 C 337.179 0.498985 1.81361 0
M  V30 3317 O 336.537 -0.548769 1.72795 0
M  V30 3318 C 336.585 2.94257 2.08436 0
M  V30 3319 O 335.689 2.64883 3.16087 0
M  V30 3320 H 335.03 0.582936 0.317934 0
M  V30 3321 H 337.56 2.00945 0.38501 0
M  V30 3322 H 337.57 3.21237 2.51537 0
M  V30 3323 H 336.245 3.85564 1.55927 0
M  V30 3324 H 334.822 2.48812 2.77753 0
M  V30 3325 N 337.007 -0.598083 1.45811 0
M  V30 3326 C 337.939 -1.72231 1.51225 0
M  V30 3327 C 338.952 -1.57757 0.402059 0
M  V30 3328 O 340.141 -1.65464 0.669624 0
M  V30 3329 C 337.241 -3.10331 1.3619 0
M  V30 3330 C 336.414 -3.50955 2.61054 0
M  V30 3331 C 335.473 -4.68055 2.40439 0
M  V30 3332 O 334.499 -4.74691 3.14097 0
M  V30 3333 N 335.701 -5.61941 1.45612 0
M  V30 3334 H 338.466 -1.68046 2.48154 0
M  V30 3335 H 336.027 -0.783637 1.41671 0
M  V30 3336 H 338.019 -3.86439 1.20195 0
M  V30 3337 H 336.589 -3.0897 0.475015 0
M  V30 3338 H 335.809 -2.64711 2.92099 0
M  V30 3339 H 337.097 -3.74858 3.44034 0
M  V30 3340 H 336.495 -5.59301 0.848431 0
M  V30 3341 H 335.052 -6.37542 1.35585 0
M  V30 3342 N 338.485 -1.33259 -0.841409 0
M  V30 3343 C 339.448 -1.23221 -1.9326 0
M  V30 3344 C 340.448 -0.151895 -1.60081 0
M  V30 3345 O 341.638 -0.403246 -1.69468 0
M  V30 3346 C 338.77 -0.898123 -3.28856 0
M  V30 3347 H 339.963 -2.2021 -2.03587 0
M  V30 3348 H 337.516 -1.17281 -1.03319 0
M  V30 3349 H 338.251 0.0693841 -3.24226 0
M  V30 3350 H 338.036 -1.67934 -3.54317 0
M  V30 3351 H 339.526 -0.852563 -4.08805 0
M  V30 3352 N 339.963 1.05934 -1.16686 0
M  V30 3353 C 341.209 1.79065 -0.95203 0
M  V30 3354 C 341.542 1.87147 0.518629 0
M  V30 3355 O 340.817 1.36574 1.38484 0
M  V30 3356 C 341.1 3.23359 -1.58464 0
M  V30 3357 C 340.953 3.23336 -3.12689 0
M  V30 3358 C 342.272 4.21004 -1.28232 0
M  V30 3359 H 339.391 0.65005 -0.34728 0
M  V30 3360 H 342.033 1.23868 -1.44072 0
M  V30 3361 H 340.183 3.70493 -1.16908 0
M  V30 3362 H 341.855 2.84336 -3.6325 0
M  V30 3363 H 340.098 2.61886 -3.4583 0
M  V30 3364 H 340.769 4.25144 -3.52075 0
M  V30 3365 H 343.245 3.8233 -1.64203 0
M  V30 3366 H 342.121 5.20225 -1.75092 0
M  V30 3367 H 342.382 4.41639 -0.201791 0
M  V30 3368 N 341.441 0.965919 1.2453 0
M  V30 3369 C 342.669 0.644385 1.96609 0
M  V30 3370 C 343.084 -0.785823 1.71669 0
M  V30 3371 O 342.441 -1.52703 0.999399 0
M  V30 3372 C 342.492 0.907375 3.49927 0
M  V30 3373 O 342.213 2.28136 3.74013 0
M  V30 3374 C 343.714 0.599784 4.39224 0
M  V30 3375 H 340.934 0.240588 0.626385 0
M  V30 3376 H 343.478 1.29337 1.58405 0
M  V30 3377 H 341.633 0.304631 3.862 0
M  V30 3378 H 342.047 2.36002 4.68405 0
M  V30 3379 H 343.521 0.834263 5.45659 0
M  V30 3380 H 343.998 -0.465921 4.36722 0
M  V30 3381 H 344.604 1.18235 4.08535 0
M  V30 3382 N 342.919 -1.39368 0.735821 0
M  V30 3383 C 343.869 -2.27885 0.0724287 0
M  V30 3384 C 344.853 -1.44301 -0.711756 0
M  V30 3385 O 346.045 -1.67206 -0.58063 0
M  V30 3386 C 343.174 -3.33029 -0.833454 0
M  V30 3387 C 342.26 -4.24078 -0.0433749 0
M  V30 3388 N 342.651 -4.96138 0.983903 0
M  V30 3389 C 340.949 -4.45164 -0.272905 0
M  V30 3390 C 341.65 -5.63069 1.4604 0
M  V30 3391 N 340.626 -5.37991 0.778857 0
M  V30 3392 H 344.428 -2.81052 0.859467 0
M  V30 3393 H 341.942 -1.5206 0.570227 0
M  V30 3394 H 343.939 -3.95311 -1.32419 0
M  V30 3395 H 342.599 -2.81421 -1.61964 0
M  V30 3396 H 343.61 -4.9958 1.36528 0
M  V30 3397 H 340.287 -4.04497 -1.03383 0
M  V30 3398 H 341.677 -6.30755 2.31511 0
M  V30 3399 N 344.397 -0.483516 -1.5 0
M  V30 3400 C 345.345 0.318061 -2.30415 0
M  V30 3401 C 346.339 0.978988 -1.38247 0
M  V30 3402 O 347.545 0.908673 -1.55381 0
M  V30 3403 H 343.92 0.121419 -0.742133 0
M  V30 3404 H 345.891 -0.380403 -2.95965 0
M  V30 3405 C 344.64 1.38013 -3.19136 0
M  V30 3406 H 343.963 0.880952 -3.89973 0
M  V30 3407 H 345.403 1.91332 -3.78375 0
M  V30 3408 C 343.862 2.38884 -2.37563 0
M  V30 3409 O 344.392 3.44412 -2.06744 0
M  V30 3410 N 342.598 2.10912 -1.99911 0
M  V30 3411 H 342.145 1.25118 -2.25174 0
M  V30 3412 H 342.103 2.78635 -1.45636 0
M  V30 3413 N 345.875 1.56104 -0.216619 0
M  V30 3414 C 346.822 2.2007 0.695531 0
M  V30 3415 C 347.792 1.15471 1.19397 0
M  V30 3416 O 348.977 1.43807 1.25396 0
M  V30 3417 C 346.117 2.88073 1.90021 0
M  V30 3418 C 345.23 4.07253 1.44113 0
M  V30 3419 C 344.365 4.63052 2.603 0
M  V30 3420 C 343.404 5.74545 2.11103 0
M  V30 3421 N 342.541 6.24656 3.20545 0
M  V30 3422 H 347.381 2.97655 0.143327 0
M  V30 3423 H 344.918 1.46982 0.0589934 0
M  V30 3424 H 346.876 3.25681 2.60745 0
M  V30 3425 H 345.506 2.13015 2.42538 0
M  V30 3426 H 344.558 3.75164 0.628999 0
M  V30 3427 H 345.87 4.8783 1.04036 0
M  V30 3428 H 345.024 5.03078 3.39113 0
M  V30 3429 H 343.763 3.81628 3.03663 0
M  V30 3430 H 342.768 5.34027 1.3075 0
M  V30 3431 H 343.993 6.57801 1.68746 0
M  V30 3432 H 341.939 5.46148 3.63399 0
M  V30 3433 H 341.856 7.00343 2.84704 0
M  V30 3434 H 343.124 6.69338 3.99508 0
M  V30 3435 N 347.353 -0.0568162 1.57498 0
M  V30 3436 C 348.301 -1.08452 2.05769 0
M  V30 3437 C 349.295 -1.39164 0.965903 0
M  V30 3438 O 350.501 -1.38395 1.15095 0
M  V30 3439 H 346.876 -0.367148 0.656282 0
M  V30 3440 H 348.847 -0.651368 2.91204 0
M  V30 3441 C 347.596 -2.38543 2.52968 0
M  V30 3442 H 346.919 -2.15765 3.36579 0
M  V30 3443 H 348.359 -3.08863 2.90481 0
M  V30 3444 C 346.818 -3.05562 1.41893 0
M  V30 3445 O 347.348 -3.94262 0.769442 0
M  V30 3446 N 345.554 -2.6643 1.16032 0
M  V30 3447 H 345.101 -1.94387 1.6903 0
M  V30 3448 H 345.059 -3.11593 0.419219 0
M  V30 3449 N 348.832 -1.54138 -0.328536 0
M  V30 3450 C 350.08 -1.71765 -1.06496 0
M  V30 3451 C 350.401 -0.49149 -1.88704 0
M  V30 3452 O 349.671 0.494539 -1.89555 0
M  V30 3453 H 348.251 -0.633295 -0.396164 0
M  V30 3454 H 350.913 -1.91429 -0.366176 0
M  V30 3455 H 350.009 -2.5951 -1.73381 0
M  V30 3456 N 350.31 0.590341 -1.46126 0
M  V30 3457 C 351.557 1.34882 -1.5104 0
M  V30 3458 C 351.885 1.93849 -0.159021 0
M  V30 3459 O 351.14 1.76544 0.844436 0
M  V30 3460 C 351.439 2.5032 -2.55097 0
M  V30 3461 C 351.105 2.09394 -3.99331 0
M  V30 3462 C 349.767 1.97947 -4.38601 0
M  V30 3463 C 352.119 1.77712 -4.89967 0
M  V30 3464 C 349.447 1.53065 -5.66381 0
M  V30 3465 C 351.799 1.34312 -6.18177 0
M  V30 3466 C 350.463 1.21436 -6.56361 0
M  V30 3467 H 349.733 0.493568 -0.552695 0
M  V30 3468 H 352.38 0.665539 -1.79563 0
M  V30 3469 H 350.685 3.24062 -2.20207 0
M  V30 3470 H 352.382 3.08541 -2.56132 0
M  V30 3471 H 348.972 2.19235 -3.68285 0
M  V30 3472 H 353.156 1.85445 -4.60352 0
M  V30 3473 H 348.412 1.41733 -5.94745 0
M  V30 3474 H 352.586 1.08849 -6.87841 0
M  V30 3475 H 350.213 0.864345 -7.5527 0
M  V30 3476 N 351.788 1.33704 0.83433 0
M  V30 3477 C 352.735 1.24335 1.94447 0
M  V30 3478 C 353.705 0.120991 1.65659 0
M  V30 3479 O 354.89 0.300035 1.88426 0
M  V30 3480 C 352.03 0.993124 3.30501 0
M  V30 3481 C 351.143 2.20217 3.71657 0
M  V30 3482 C 350.278 1.88572 4.96602 0
M  V30 3483 C 349.317 3.05683 5.30306 0
M  V30 3484 N 348.454 2.73997 6.46429 0
M  V30 3485 H 353.294 2.1928 2.01792 0
M  V30 3486 H 350.831 1.09035 0.987404 0
M  V30 3487 H 352.789 0.828467 4.08892 0
M  V30 3488 H 351.419 0.0803902 3.227 0
M  V30 3489 H 350.471 2.47642 2.88752 0
M  V30 3490 H 351.783 3.07752 3.92543 0
M  V30 3491 H 350.937 1.68776 5.82752 0
M  V30 3492 H 349.676 0.982799 4.77695 0
M  V30 3493 H 348.681 3.26088 4.42659 0
M  V30 3494 H 349.906 3.96737 5.51159 0
M  V30 3495 H 347.852 1.86268 6.28999 0
M  V30 3496 H 347.769 3.55064 6.67432 0
M  V30 3497 H 349.037 2.57679 7.35678 0
M  V30 3498 N 353.266 -1.05314 1.17247 0
M  V30 3499 C 354.196 -2.1498 0.911362 0
M  V30 3500 C 355.177 -1.69471 -0.146169 0
M  V30 3501 O 356.362 -1.942 0.003812 0
M  V30 3502 C 353.492 -3.4472 0.422528 0
M  V30 3503 C 352.446 -4.03789 1.4191 0
M  V30 3504 C 351.772 -5.28858 0.788274 0
M  V30 3505 C 353.072 -4.41418 2.7919 0
M  V30 3506 H 354.766 -2.3708 1.82848 0
M  V30 3507 H 352.312 -1.13938 0.880569 0
M  V30 3508 H 354.265 -4.20787 0.227289 0
M  V30 3509 H 352.989 -3.22269 -0.530123 0
M  V30 3510 H 351.648 -3.2979 1.60106 0
M  V30 3511 H 351.296 -5.02709 -0.171173 0
M  V30 3512 H 350.996 -5.69338 1.45353 0
M  V30 3513 H 352.52 -6.07612 0.603282 0
M  V30 3514 H 353.934 -5.08524 2.64719 0
M  V30 3515 H 352.331 -4.92913 3.42282 0
M  V30 3516 H 353.401 -3.51819 3.33693 0
M  V30 3517 N 354.744 -0.972509 -1.24016 0
M  V30 3518 C 355.992 -0.635776 -1.91839 0
M  V30 3519 C 356.313 0.832312 -1.76345 0
M  V30 3520 O 355.583 1.5946 -1.13795 0
M  V30 3521 H 354.163 -0.232157 -0.710009 0
M  V30 3522 H 356.825 -1.23462 -1.50809 0
M  V30 3523 H 355.921 -0.880545 -2.99421 0
M  V30 3524 N 356.222 1.38976 -0.743202 0
M  V30 3525 C 357.155 2.28128 -0.0572165 0
M  V30 3526 C 358.133 1.44827 0.739182 0
M  V30 3527 O 359.317 1.74207 0.720009 0
M  V30 3528 C 356.444 3.25796 0.926001 0
M  V30 3529 C 355.49 4.25947 0.217099 0
M  V30 3530 S 356.323 5.24604 -1.07477 0
M  V30 3531 C 357.479 6.25829 -0.0943545 0
M  V30 3532 H 357.712 2.85961 -0.813246 0
M  V30 3533 H 355.245 1.44822 -0.535341 0
M  V30 3534 H 357.203 3.82583 1.48797 0
M  V30 3535 H 355.864 2.66966 1.65493 0
M  V30 3536 H 355.057 4.94746 0.961372 0
M  V30 3537 H 354.659 3.73002 -0.273059 0
M  V30 3538 H 356.951 6.73411 0.743239 0
M  V30 3539 H 357.894 7.0412 -0.749713 0
M  V30 3540 H 358.302 5.63797 0.281706 0
M  V30 3541 N 357.7 0.491464 1.49741 0
M  V30 3542 C 358.647 -0.292027 2.28945 0
M  V30 3543 C 359.617 -0.968973 1.34908 0
M  V30 3544 O 360.802 -0.97748 1.6386 0
M  V30 3545 C 357.942 -1.35617 3.17336 0
M  V30 3546 C 357.055 -0.691957 4.26422 0
M  V30 3547 C 356.19 -1.73572 5.02042 0
M  V30 3548 C 355.229 -1.05286 6.02977 0
M  V30 3549 N 354.366 -2.0404 6.71798 0
M  V30 3550 H 359.206 0.389654 2.95442 0
M  V30 3551 H 356.743 0.204003 1.45679 0
M  V30 3552 H 358.701 -1.98502 3.66951 0
M  V30 3553 H 357.331 -2.00674 2.52844 0
M  V30 3554 H 356.383 0.0499523 3.80367 0
M  V30 3555 H 357.695 -0.153946 4.98562 0
M  V30 3556 H 356.849 -2.43987 5.55478 0
M  V30 3557 H 355.588 -2.30757 4.29654 0
M  V30 3558 H 354.593 -0.334446 5.48782 0
M  V30 3559 H 355.818 -0.487636 6.77347 0
M  V30 3560 H 353.764 -2.60205 6.02187 0
M  V30 3561 H 353.681 -1.55279 7.39881 0
M  V30 3562 H 354.949 -2.73772 7.29842 0
M  V30 3563 N 359.178 -1.55987 0.224894 0
M  V30 3564 C 360.108 -2.23426 -0.678457 0
M  V30 3565 C 361.089 -1.20709 -1.19847 0
M  V30 3566 O 362.274 -1.49304 -1.24186 0
M  V30 3567 C 359.404 -2.91676 -1.88527 0
M  V30 3568 C 358.358 -4.00893 -1.49896 0
M  V30 3569 C 357.684 -4.56455 -2.78483 0
M  V30 3570 C 358.984 -5.17769 -0.686461 0
M  V30 3571 H 360.678 -2.99175 -0.116173 0
M  V30 3572 H 358.224 -1.43897 -0.054436 0
M  V30 3573 H 360.177 -3.37547 -2.5227 0
M  V30 3574 H 358.901 -2.1338 -2.47258 0
M  V30 3575 H 357.56 -3.55758 -0.884985 0
M  V30 3576 H 357.208 -3.74886 -3.35365 0
M  V30 3577 H 356.908 -5.30169 -2.53368 0
M  V30 3578 H 358.432 -5.05047 -3.43162 0
M  V30 3579 H 359.846 -5.60001 -1.22767 0
M  V30 3580 H 358.243 -5.97735 -0.532259 0
M  V30 3581 H 359.313 -4.83932 0.306196 0
M  V30 3582 N 360.656 0.0484629 -1.57525 0
M  V30 3583 C 361.566 1.07241 -2.08654 0
M  V30 3584 C 362.582 1.409 -1.02095 0
M  V30 3585 O 363.758 1.50609 -1.33712 0
M  V30 3586 C 360.823 2.36008 -2.5397 0
M  V30 3587 C 359.884 2.09108 -3.7493 0
M  V30 3588 C 359.117 3.31736 -4.18075 0
M  V30 3589 O 359.34 4.41714 -3.60895 0
M  V30 3590 O 358.274 3.18576 -5.10679 0
M  V30 3591 H 362.1 0.667965 -2.96263 0
M  V30 3592 H 359.685 0.26417 -1.47046 0
M  V30 3593 H 361.567 3.11747 -2.83535 0
M  V30 3594 H 360.242 2.75786 -1.69481 0
M  V30 3595 H 359.149 1.31 -3.50414 0
M  V30 3596 H 360.482 1.74198 -4.60343 0
M  V30 3597 N 362.134 1.5431 0.320358 0
M  V30 3598 C 363.382 1.72327 1.05583 0
M  V30 3599 C 363.703 0.50149 1.88441 0
M  V30 3600 O 362.973 -0.48448 1.89815 0
M  V30 3601 H 361.553 0.635387 0.3928 0
M  V30 3602 H 364.215 1.91621 0.356019 0
M  V30 3603 H 363.311 2.60426 1.72003 0
M  V30 3604 N 363.613 -0.582584 1.46437 0
M  V30 3605 C 364.862 -1.337 1.5102 0
M  V30 3606 C 365.175 -1.94891 0.166359 0
M  V30 3607 O 366.381 -2.71351 0.0899954 0
M  V30 3608 C 364.837 -2.42315 2.66104 0
M  V30 3609 C 364.445 -1.87427 4.06909 0
M  V30 3610 C 366.189 -3.19099 2.79958 0
M  V30 3611 C 364.096 -2.93672 5.13333 0
M  V30 3612 H 363.026 -0.502619 0.562041 0
M  V30 3613 H 365.677 -0.621701 1.72647 0
M  V30 3614 H 364.059 -3.16645 2.37807 0
M  V30 3615 H 365.233 -1.19639 4.44998 0
M  V30 3616 H 363.548 -1.2331 3.97723 0
M  V30 3617 H 366.145 -3.9839 3.56636 0
M  V30 3618 H 366.488 -3.71695 1.87479 0
M  V30 3619 H 367.021 -2.51875 3.07902 0
M  V30 3620 H 363.76 -2.45962 6.07604 0
M  V30 3621 H 363.28 -3.59948 4.79789 0
M  V30 3622 H 364.959 -3.5762 5.39182 0
M  V30 3623 N 365.091 -1.34144 -0.827227 0
M  V30 3624 C 366.368 -1.16844 -1.56865 0
M  V30 3625 C 366.748 0.260654 -2.09485 0
M  V30 3626 O 366.096 1.26138 -1.9053 0
M  V30 3627 C 366.306 -2.21939 -2.6934 0
M  V30 3628 C 367.654 -2.56695 -3.3822 0
M  V30 3629 O 368.678 -2.20695 -2.79593 0
M  V30 3630 O 367.537 -3.18518 -4.44082 0
M  V30 3631 H 364.631 -0.452669 -0.692112 0
M  V30 3632 H 367.177 -1.45763 -0.868973 0
M  V30 3633 H 365.949 -3.17882 -2.28182 0
M  V30 3634 H 365.572 -1.94172 -3.46962 0
M  V30 3635 N 366.569 1.04691 -1.17803 0
M  V30 3636 C 367.98 1.59238 -0.974689 0
M  V30 3637 C 368.331 1.90306 0.477292 0
M  V30 3638 O 367.456 1.68846 1.35352 0
M  V30 3639 C 368.051 2.89318 -1.76296 0
M  V30 3640 C 366.61 3.40506 -1.60414 0
M  V30 3641 C 365.757 2.14172 -1.76141 0
M  V30 3642 H 368.708 0.874395 -1.32439 0
M  V30 3643 H 368.729 3.5944 -1.24833 0
M  V30 3644 H 368.241 2.66675 -2.81968 0
M  V30 3645 H 366.342 3.68175 -0.572519 0
M  V30 3646 H 366.455 4.14753 -2.39827 0
M  V30 3647 H 364.819 2.25176 -1.19028 0
M  V30 3648 H 365.602 1.93992 -2.83235 0
M  V30 3649 N 368.047 0.979072 1.23499 0
M  V30 3650 C 368.979 0.476271 2.24197 0
M  V30 3651 C 369.992 -0.421166 1.57258 0
M  V30 3652 O 371.181 -0.225515 1.7707 0
M  V30 3653 C 368.281 -0.330503 3.37285 0
M  V30 3654 C 367.454 0.559744 4.33804 0
M  V30 3655 C 366.513 -0.192954 5.25846 0
M  V30 3656 O 365.539 0.416978 5.67671 0
M  V30 3657 N 366.741 -1.47932 5.61334 0
M  V30 3658 H 369.506 1.34211 2.67969 0
M  V30 3659 H 367.067 0.852189 1.37657 0
M  V30 3660 H 369.059 -0.842361 3.95836 0
M  V30 3661 H 367.629 -1.09734 2.92707 0
M  V30 3662 H 366.849 1.25245 3.73775 0
M  V30 3663 H 368.137 1.1665 4.95248 0
M  V30 3664 H 367.535 -1.9964 5.29302 0
M  V30 3665 H 366.092 -1.93664 6.22364 0
M  V30 3666 N 369.525 -1.3858 0.750561 0
M  V30 3667 C 370.475 -2.27795 0.0965949 0
M  V30 3668 C 371.459 -1.45048 -0.696411 0
M  V30 3669 O 372.651 -1.67812 -0.562863 0
M  V30 3670 C 369.78 -3.33894 -0.798085 0
M  V30 3671 C 368.866 -4.241 0.0016067 0
M  V30 3672 N 369.257 -4.95067 1.03647 0
M  V30 3673 C 367.555 -4.45429 -0.225674 0
M  V30 3674 C 368.256 -5.61489 1.52004 0
M  V30 3675 N 367.232 -5.37135 0.835874 0
M  V30 3676 H 371.034 -2.80125 0.889228 0
M  V30 3677 H 368.548 -1.51446 0.586323 0
M  V30 3678 H 370.545 -3.96693 -1.28219 0
M  V30 3679 H 369.205 -2.83123 -1.5897 0
M  V30 3680 H 370.216 -4.98104 1.41819 0
M  V30 3681 H 366.893 -4.05571 -0.990872 0
M  V30 3682 H 368.283 -6.28264 2.38188 0
M  V30 3683 N 371.003 -0.499398 -1.49478 0
M  V30 3684 C 372.414 -0.051215 -1.8663 0
M  V30 3685 C 372.765 1.36238 -1.41186 0
M  V30 3686 O 371.89 2.01502 -0.789051 0
M  V30 3687 C 372.485 -0.0861651 -3.3869 0
M  V30 3688 C 371.044 0.30667 -3.75149 0
M  V30 3689 C 370.191 -0.459397 -2.73468 0
M  V30 3690 H 373.142 -0.712264 -1.41818 0
M  V30 3691 H 373.163 0.709507 -3.73826 0
M  V30 3692 H 372.675 -1.11512 -3.71735 0
M  V30 3693 H 370.776 1.33892 -3.47712 0
M  V30 3694 H 370.889 -0.0116669 -4.79099 0
M  V30 3695 H 369.253 0.0905645 -2.54539 0
M  V30 3696 H 370.036 -1.4884 -3.09357 0
M  V30 3697 N 372.481 1.55866 -0.233164 0
M  V30 3698 C 373.706 2.03449 0.402906 0
M  V30 3699 C 374.131 1.11166 1.51736 0
M  V30 3700 O 373.489 0.101996 1.81013 0
M  V30 3701 C 373.537 3.49165 0.9009 0
M  V30 3702 O 372.641 3.60019 2.01147 0
M  V30 3703 H 371.982 0.657913 0.0897025 0
M  V30 3704 H 374.512 2.01493 -0.355201 0
M  V30 3705 H 374.522 3.89716 1.2077 0
M  V30 3706 H 373.197 4.15813 0.0852889 0
M  V30 3707 H 371.774 3.3136 1.71042 0
M  V30 3708 N 373.959 -0.0401083 1.57549 0
M  V30 3709 C 374.892 -1.07689 2.01192 0
M  V30 3710 C 375.87 -1.358 0.894273 0
M  V30 3711 O 377.054 -1.48642 1.15921 0
M  V30 3712 C 374.181 -2.41418 2.3756 0
M  V30 3713 C 373.227 -2.29237 3.59656 0
M  V30 3714 S 374.06 -1.65628 5.09242 0
M  V30 3715 C 375.216 -3.0087 5.48843 0
M  V30 3716 H 375.449 -0.705108 2.88817 0
M  V30 3717 H 372.982 -0.249724 1.52367 0
M  V30 3718 H 374.94 -3.18329 2.59186 0
M  V30 3719 H 373.601 -2.75747 1.50407 0
M  V30 3720 H 372.794 -3.27932 3.82722 0
M  V30 3721 H 372.396 -1.60469 3.37825 0
M  V30 3722 H 374.688 -3.97201 5.48851 0
M  V30 3723 H 375.631 -2.82549 6.49286 0
M  V30 3724 H 376.039 -3.02934 4.76331 0
M  V30 3725 N 375.437 -1.54477 -0.31217 0
M  V30 3726 C 376.667 -1.76948 -1.06645 0
M  V30 3727 C 377.075 -0.523593 -1.81811 0
M  V30 3728 O 376.418 0.51578 -1.76311 0
M  V30 3729 C 376.48 -2.91668 -2.10166 0
M  V30 3730 C 376.144 -4.30165 -1.54296 0
M  V30 3731 C 377.141 -5.10603 -0.978793 0
M  V30 3732 C 374.826 -4.76738 -1.58196 0
M  V30 3733 C 376.82 -6.3573 -0.461048 0
M  V30 3734 C 374.507 -6.01831 -1.06034 0
M  V30 3735 C 375.505 -6.81161 -0.500844 0
M  V30 3736 O 375.193 -8.03899 0.0128958 0
M  V30 3737 H 374.925 -0.594088 -0.322546 0
M  V30 3738 H 377.479 -2.02213 -0.360441 0
M  V30 3739 H 375.709 -2.62001 -2.84416 0
M  V30 3740 H 377.398 -3.01817 -2.71406 0
M  V30 3741 H 378.164 -4.75771 -0.941651 0
M  V30 3742 H 374.043 -4.15027 -2.00683 0
M  V30 3743 H 377.587 -6.97596 -0.0236894 0
M  V30 3744 H 373.484 -6.36152 -1.09459 0
M  V30 3745 H 374.252 -8.18437 -0.101457 0
M  V30 3746 N 376.915 0.57481 -1.46744 0
M  V30 3747 C 378.162 1.33272 -1.52462 0
M  V30 3748 C 378.49 1.93669 -0.179572 0
M  V30 3749 O 377.745 1.7743 0.825664 0
M  V30 3750 C 378.044 2.476 -2.57738 0
M  V30 3751 C 377.71 2.05146 -4.01529 0
M  V30 3752 C 376.372 1.93284 -4.40676 0
M  V30 3753 C 378.724 1.72506 -4.91824 0
M  V30 3754 C 376.052 1.47049 -5.67973 0
M  V30 3755 C 378.404 1.27748 -6.19567 0
M  V30 3756 C 377.068 1.14468 -6.57612 0
M  V30 3757 H 376.338 0.487678 -0.557899 0
M  V30 3758 H 378.985 0.646456 -1.80259 0
M  V30 3759 H 377.29 3.21708 -2.23632 0
M  V30 3760 H 378.987 3.05807 -2.5939 0
M  V30 3761 H 375.577 2.15316 -3.7059 0
M  V30 3762 H 379.761 1.80552 -4.62293 0
M  V30 3763 H 375.017 1.35417 -5.96215 0
M  V30 3764 H 379.191 1.01547 -6.88957 0
M  V30 3765 H 376.818 0.78419 -7.56145 0
M  V30 3766 N 378.394 1.34581 0.820102 0
M  V30 3767 C 379.643 1.26437 1.57151 0
M  V30 3768 C 379.956 -0.163111 1.94919 0
M  V30 3769 O 381.162 -0.366722 2.69012 0
M  V30 3770 C 379.618 2.21658 2.83541 0
M  V30 3771 C 379.226 3.69679 2.53065 0
M  V30 3772 C 380.97 2.22428 3.61561 0
M  V30 3773 C 378.877 4.56761 3.75664 0
M  V30 3774 H 377.807 0.469707 0.589823 0
M  V30 3775 H 380.458 1.59763 0.902656 0
M  V30 3776 H 378.84 1.81287 3.52067 0
M  V30 3777 H 380.014 4.18605 1.92631 0
M  V30 3778 H 378.329 3.71384 1.88316 0
M  V30 3779 H 380.926 2.8471 4.52597 0
M  V30 3780 H 381.269 1.22434 3.97889 0
M  V30 3781 H 381.802 2.61259 2.99981 0
M  V30 3782 H 378.541 5.57702 3.44454 0
M  V30 3783 H 378.061 4.12568 4.35371 0
M  V30 3784 H 379.74 4.71509 4.43044 0
M  V30 3785 N 379.872 -1.04064 1.18357 0
M  V30 3786 C 380.802 -2.14001 0.934113 0
M  V30 3787 C 381.783 -1.69616 -0.128186 0
M  V30 3788 O 382.968 -1.94185 0.0244093 0
M  V30 3789 C 380.098 -3.44253 0.459066 0
M  V30 3790 C 379.052 -4.02261 1.46185 0
M  V30 3791 C 378.378 -5.27992 0.844322 0
M  V30 3792 C 379.678 -4.38432 2.83856 0
M  V30 3793 H 381.372 -2.35127 1.85352 0
M  V30 3794 H 378.918 -1.12998 0.892604 0
M  V30 3795 H 380.871 -4.20522 0.271907 0
M  V30 3796 H 379.595 -3.22813 -0.495912 0
M  V30 3797 H 378.254 -3.28074 1.63595 0
M  V30 3798 H 377.902 -5.02862 -0.117845 0
M  V30 3799 H 377.602 -5.67765 1.51384 0
M  V30 3800 H 379.126 -6.06938 0.667693 0
M  V30 3801 H 380.54 -5.05688 2.70098 0
M  V30 3802 H 378.937 -4.89254 3.47491 0
M  V30 3803 H 380.007 -3.4826 3.37406 0
M  V30 3804 N 381.35 -0.985608 -1.22978 0
M  V30 3805 C 382.578 -0.675582 -1.95559 0
M  V30 3806 C 382.993 0.758413 -1.72897 0
M  V30 3807 O 382.35 1.51094 -1.02357 0
M  V30 3808 C 382.401 -0.96293 -3.48439 0
M  V30 3809 O 382.122 -2.34057 -3.70336 0
M  V30 3810 C 383.623 -0.669585 -4.38214 0
M  V30 3811 H 380.843 -0.250523 -0.622478 0
M  V30 3812 H 383.387 -1.3184 -1.56328 0
M  V30 3813 H 381.542 -0.366033 -3.85667 0
M  V30 3814 H 381.956 -2.43424 -4.64591 0
M  V30 3815 H 383.43 -0.920967 -5.44263 0
M  V30 3816 H 383.907 0.396383 -4.37408 0
M  V30 3817 H 384.513 -1.2472 -4.06602 0
M  V30 3818 N 382.828 1.3818 -0.7579 0
M  V30 3819 C 384.074 2.00316 -0.316453 0
M  V30 3820 C 384.407 1.60026 1.10025 0
M  V30 3821 O 383.682 0.839835 1.75434 0
M  V30 3822 C 383.965 3.57349 -0.444245 0
M  V30 3823 C 383.818 4.07591 -1.90236 0
M  V30 3824 C 385.137 4.3981 0.1598 0
M  V30 3825 H 382.256 0.727741 -0.116459 0
M  V30 3826 H 384.898 1.6406 -0.958352 0
M  V30 3827 H 383.048 3.88365 0.102233 0
M  V30 3828 H 384.72 3.87199 -2.50748 0
M  V30 3829 H 382.963 3.60297 -2.41595 0
M  V30 3830 H 383.634 5.16677 -1.94291 0
M  V30 3831 H 386.11 4.14971 -0.306314 0
M  V30 3832 H 384.986 5.48885 0.0401675 0
M  V30 3833 H 385.247 4.24102 1.24859 0
M  V30 3834 N 384.306 0.507319 1.49211 0
M  V30 3835 C 385.269 -0.256763 2.27757 0
M  V30 3836 C 386.269 -0.888287 1.34038 0
M  V30 3837 O 387.459 -0.751841 1.5714 0
M  V30 3838 C 384.591 -1.36905 3.12202 0
M  V30 3839 H 385.784 0.432557 2.96764 0
M  V30 3840 H 383.337 0.262488 1.5408 0
M  V30 3841 H 384.072 -2.09233 2.47775 0
M  V30 3842 H 383.857 -0.921599 3.81115 0
M  V30 3843 H 385.347 -1.9071 3.7151 0
M  V30 3844 N 385.784 -1.5574 0.241426 0
M  V30 3845 C 386.694 -2.2479 -0.671305 0
M  V30 3846 C 387.71 -1.26217 -1.19772 0
M  V30 3847 O 388.886 -1.59079 -1.23514 0
M  V30 3848 C 385.951 -2.92966 -1.85396 0
M  V30 3849 C 385.012 -4.06935 -1.36756 0
M  V30 3850 C 384.245 -4.71851 -2.49384 0
M  V30 3851 O 384.468 -4.35823 -3.67987 0
M  V30 3852 O 383.402 -5.60467 -2.19454 0
M  V30 3853 H 387.228 -3.0349 -0.112966 0
M  V30 3854 H 384.813 -1.49397 0.0101513 0
M  V30 3855 H 386.695 -3.35927 -2.54423 0
M  V30 3856 H 385.37 -2.17211 -2.40002 0
M  V30 3857 H 384.277 -3.68503 -0.644726 0
M  V30 3858 H 385.61 -4.84492 -0.867647 0
M  V30 3859 N 387.262 0.0317525 -1.57568 0
M  V30 3860 C 388.508 0.724175 -1.8943 0
M  V30 3861 C 388.841 1.75149 -0.838836 0
M  V30 3862 O 388.116 1.93948 0.146422 0
M  V30 3863 C 388.399 1.39615 -3.31933 0
M  V30 3864 C 388.252 0.382537 -4.4817 0
M  V30 3865 C 389.571 2.33084 -3.73309 0
M  V30 3866 H 386.69 0.261797 -0.688935 0
M  V30 3867 H 389.332 -0.013017 -1.89996 0
M  V30 3868 H 387.482 2.02451 -3.31581 0
M  V30 3869 H 389.154 -0.243689 -4.60656 0
M  V30 3870 H 387.397 -0.29844 -4.32772 0
M  V30 3871 H 388.068 0.891145 -5.44759 0
M  V30 3872 H 390.544 1.80295 -3.7501 0
M  V30 3873 H 389.42 2.77084 -4.73831 0
M  V30 3874 H 389.681 3.19643 -3.05419 0
M  V30 3875 N 388.74 1.54641 0.303973 0
M  V30 3876 C 389.98 1.75516 1.04755 0
M  V30 3877 C 390.344 0.528211 1.84591 0
M  V30 3878 O 391.545 0.614645 2.61678 0
M  V30 3879 C 389.816 3.00685 1.93193 0
M  V30 3880 S 391.375 3.42549 2.74237 0
M  V30 3881 H 388.193 0.616987 0.353339 0
M  V30 3882 H 390.795 1.92842 0.321292 0
M  V30 3883 H 389.499 3.8811 1.33411 0
M  V30 3884 H 389.03 2.85937 2.70191 0
M  V30 3885 H 391.045 2.99386 3.95705 0
M  V30 3886 N 390.218 -0.567019 1.47046 0
M  V30 3887 C 391.466 -1.322 1.52864 0
M  V30 3888 C 391.787 -1.94088 0.188388 0
M  V30 3889 O 391.057 -1.7941 -0.786693 0
M  V30 3890 H 389.637 -0.490894 0.563056 0
M  V30 3891 H 392.299 -0.662879 1.83281 0
M  V30 3892 H 391.395 -2.12062 2.2899 0
M  V30 3893 N 391.696 -1.35014 -0.812953 0
M  V30 3894 C 392.926 -1.30841 -1.59888 0
M  V30 3895 C 393.334 0.117576 -1.88834 0
M  V30 3896 O 392.677 1.07807 -1.48739 0
M  V30 3897 C 392.739 -2.0412 -2.95931 0
M  V30 3898 C 392.403 -3.53336 -2.89832 0
M  V30 3899 C 393.4 -4.48052 -2.63714 0
M  V30 3900 C 391.085 -3.95894 -3.0915 0
M  V30 3901 C 393.079 -5.833 -2.56982 0
M  V30 3902 C 390.766 -5.31239 -3.0204 0
M  V30 3903 C 391.764 -6.24754 -2.75991 0
M  V30 3904 O 391.452 -7.57617 -2.68833 0
M  V30 3905 H 391.184 -0.451215 -0.50337 0
M  V30 3906 H 393.738 -1.78354 -1.01877 0
M  V30 3907 H 391.968 -1.51235 -3.559 0
M  V30 3908 H 393.657 -1.93107 -3.57022 0
M  V30 3909 H 394.423 -4.16492 -2.48515 0
M  V30 3910 H 390.302 -3.23495 -3.28438 0
M  V30 3911 H 393.846 -6.56263 -2.36569 0
M  V30 3912 H 389.743 -5.62415 -3.16796 0
M  V30 3913 H 390.511 -7.67469 -2.84487 0
M  V30 3914 N 393.175 1.03435 -1.18907 0
M  V30 3915 C 394.591 1.28973 -0.940111 0
M  V30 3916 C 394.791 1.97676 0.390691 0
M  V30 3917 O 393.847 2.26127 1.12352 0
M  V30 3918 C 395.16 2.14221 -2.11021 0
M  V30 3919 C 396.708 2.27547 -2.14922 0
M  V30 3920 C 397.183 3.16164 -3.31367 0
M  V30 3921 N 398.674 3.23752 -3.31269 0
M  V30 3922 C 399.409 3.92495 -4.18014 0
M  V30 3923 N 398.905 4.63515 -5.14904 0
M  V30 3924 N 400.698 3.88838 -4.05908 0
M  V30 3925 H 392.849 0.57252 -2.04538 0
M  V30 3926 H 395.112 0.315184 -0.894071 0
M  V30 3927 H 394.818 1.71054 -3.073 0
M  V30 3928 H 394.692 3.14919 -2.0762 0
M  V30 3929 H 397.079 2.69947 -1.19217 0
M  V30 3930 H 397.16 1.26418 -2.22378 0
M  V30 3931 H 396.804 2.74474 -4.27348 0
M  V30 3932 H 396.734 4.17339 -3.21148 0
M  V30 3933 H 399.225 2.73167 -2.61129 0
M  V30 3934 H 399.538 5.13583 -5.77453 0
M  V30 3935 H 397.883 4.62398 -5.18857 0
M  V30 3936 H 401.074 3.32491 -3.29495 0
M  V30 3937 H 401.247 4.4214 -4.73726 0
M  V30 3938 N 394.653 0.992116 1.22453 0
M  V30 3939 C 395.583 0.561677 2.26644 0
M  V30 3940 C 396.564 -0.411055 1.65059 0
M  V30 3941 O 397.749 -0.301861 1.9184 0
M  V30 3942 C 394.879 -0.125247 3.47074 0
M  V30 3943 C 393.833 0.765948 4.21091 0
M  V30 3944 C 393.159 -0.0538484 5.34673 0
M  V30 3945 C 394.459 2.06242 4.79856 0
M  V30 3946 H 396.153 1.43259 2.62902 0
M  V30 3947 H 393.699 0.690283 1.26377 0
M  V30 3948 H 395.652 -0.437764 4.1912 0
M  V30 3949 H 394.376 -1.03069 3.0991 0
M  V30 3950 H 393.035 1.0621 3.50878 0
M  V30 3951 H 392.683 -0.960188 4.9375 0
M  V30 3952 H 392.383 0.539415 5.85119 0
M  V30 3953 H 393.907 -0.360477 6.09535 0
M  V30 3954 H 395.321 1.8139 5.43848 0
M  V30 3955 H 393.718 2.60444 5.40638 0
M  V30 3956 H 394.788 2.74167 3.99951 0
M  V30 3957 N 396.131 -1.37776 0.765217 0
M  V30 3958 C 397.547 -1.53297 0.444108 0
M  V30 3959 C 397.747 -1.72515 -1.04119 0
M  V30 3960 O 396.803 -1.74278 -1.82711 0
M  V30 3961 C 398.116 -2.73328 1.25349 0
M  V30 3962 C 399.664 -2.87185 1.24473 0
M  V30 3963 C 400.139 -4.10191 2.03733 0
M  V30 3964 N 401.63 -4.17291 2.01053 0
M  V30 3965 C 402.365 -5.11488 2.59166 0
M  V30 3966 N 401.861 -6.11285 3.26041 0
M  V30 3967 N 403.654 -5.03924 2.49032 0
M  V30 3968 H 395.805 -1.23552 1.72768 0
M  V30 3969 H 398.068 -0.601103 0.733062 0
M  V30 3970 H 397.774 -2.6557 2.30577 0
M  V30 3971 H 397.648 -3.66834 0.87823 0
M  V30 3972 H 400.035 -2.94418 0.20047 0
M  V30 3973 H 400.116 -1.94657 1.65959 0
M  V30 3974 H 399.76 -4.0372 3.08176 0
M  V30 3975 H 399.69 -5.01821 1.59633 0
M  V30 3976 H 402.181 -3.45825 1.5236 0
M  V30 3977 H 402.494 -6.79678 3.67774 0
M  V30 3978 H 400.839 -6.11583 3.30138 0
M  V30 3979 H 404.03 -4.24902 1.96407 0
M  V30 3980 H 404.203 -5.77152 2.94617 0
M  V30 3981 N 397.609 -0.515225 -1.4894 0
M  V30 3982 C 398.539 0.244628 -2.32215 0
M  V30 3983 C 399.52 0.949136 -1.41157 0
M  V30 3984 O 400.705 0.937783 -1.70057 0
M  V30 3985 C 397.835 1.30096 -3.22013 0
M  V30 3986 C 396.789 0.715486 -4.21977 0
M  V30 3987 C 396.115 1.87339 -5.00808 0
M  V30 3988 C 397.415 -0.302982 -5.2142 0
M  V30 3989 H 399.109 -0.450501 -2.95991 0
M  V30 3990 H 396.655 -0.218098 -1.42339 0
M  V30 3991 H 398.608 1.84037 -3.79089 0
M  V30 3992 H 397.332 2.02547 -2.56207 0
M  V30 3993 H 395.991 0.197715 -3.66066 0
M  V30 3994 H 395.639 2.58592 -4.31438 0
M  V30 3995 H 395.339 1.48764 -5.68457 0
M  V30 3996 H 396.863 2.41686 -5.60732 0
M  V30 3997 H 398.277 0.148802 -5.73107 0
M  V30 3998 H 396.674 -0.60532 -5.97039 0
M  V30 3999 H 397.744 -1.21395 -4.69459 0
M  V30 4000 N 399.087 1.5561 -0.249682 0
M  V30 4001 C 400.037 2.18157 0.662673 0
M  V30 4002 C 401.021 1.1383 1.13717 0
M  V30 4003 O 402.213 1.39731 1.08648 0
M  V30 4004 C 399.342 2.88672 1.85805 0
M  V30 4005 C 398.428 4.00258 1.40193 0
M  V30 4006 N 398.819 5.01473 0.660213 0
M  V30 4007 C 397.117 4.12864 1.68698 0
M  V30 4008 C 397.818 5.80155 0.423695 0
M  V30 4009 N 396.794 5.34533 0.988721 0
M  V30 4010 H 400.596 2.93769 0.0878688 0
M  V30 4011 H 398.11 1.62316 -0.0521183 0
M  V30 4012 H 400.107 3.31912 2.5227 0
M  V30 4013 H 398.767 2.14564 2.43705 0
M  V30 4014 H 399.778 5.16971 0.310047 0
M  V30 4015 H 396.455 3.4993 2.27717 0
M  V30 4016 H 397.845 6.71688 -0.168616 0
M  V30 4017 N 400.565 -0.0233959 1.57583 0
M  V30 4018 C 401.812 -0.713063 1.8953 0
M  V30 4019 C 402.14 -1.75056 0.847673 0
M  V30 4020 O 401.395 -1.95119 -0.150636 0
M  V30 4021 C 401.694 -1.41428 3.28227 0
M  V30 4022 C 401.36 -0.512222 4.47981 0
M  V30 4023 C 400.022 -0.263785 4.80476 0
M  V30 4024 C 402.374 0.110248 5.21083 0
M  V30 4025 C 399.702 0.615804 5.83459 0
M  V30 4026 C 402.054 0.977573 6.25001 0
M  V30 4027 C 400.718 1.23542 6.55968 0
M  V30 4028 H 399.988 -0.260928 0.69354 0
M  V30 4029 H 402.635 0.0271047 1.91481 0
M  V30 4030 H 400.94 -2.22791 3.22291 0
M  V30 4031 H 402.637 -1.95355 3.50196 0
M  V30 4032 H 399.227 -0.716013 4.22577 0
M  V30 4033 H 403.411 -0.0687137 4.96252 0
M  V30 4034 H 398.667 0.82382 6.05824 0
M  V30 4035 H 402.841 1.46638 6.80786 0
M  V30 4036 H 400.468 1.91871 7.35588 0
M  V30 4037 N 402.043 -1.548 -0.295768 0
M  V30 4038 C 403.32 -1.65014 -1.05023 0
M  V30 4039 C 403.7 -0.501805 -2.05049 0
M  V30 4040 O 403.048 0.500869 -2.22943 0
M  V30 4041 C 403.258 -3.03252 -1.72741 0
M  V30 4042 C 404.606 -3.60242 -2.24746 0
M  V30 4043 O 405.63 -3.05737 -1.82765 0
M  V30 4044 O 404.489 -4.55687 -3.01681 0
M  V30 4045 H 401.583 -0.669314 -0.485744 0
M  V30 4046 H 404.129 -1.67144 -0.293438 0
M  V30 4047 H 402.901 -3.7827 -1.00138 0
M  V30 4048 H 402.524 -3.04922 -2.55163 0
M  V30 4049 N 403.521 0.559213 -1.47345 0
M  V30 4050 C 404.769 1.31388 -1.53563 0
M  V30 4051 C 405.09 1.93985 -0.198678 0
M  V30 4052 O 404.36 1.79825 0.777167 0
M  V30 4053 H 402.94 0.487901 -0.565652 0
M  V30 4054 H 405.602 0.65315 -1.8363 0
M  V30 4055 H 404.698 2.10844 -2.30111 0
M  V30 4056 N 404.999 1.35443 0.805782 0
M  V30 4057 C 406.229 1.31687 1.59192 0
M  V30 4058 C 406.637 -0.10756 1.88894 0
M  V30 4059 O 405.98 -1.07017 1.49309 0
M  V30 4060 C 406.042 2.05686 2.94845 0
M  V30 4061 C 405.706 3.54868 2.87954 0
M  V30 4062 C 406.703 4.49444 2.61335 0
M  V30 4063 C 404.388 3.97528 3.07046 0
M  V30 4064 C 406.382 5.84655 2.53885 0
M  V30 4065 C 404.069 5.32833 2.99219 0
M  V30 4066 C 405.067 6.26209 2.72674 0
M  V30 4067 O 404.755 7.59032 2.64811 0
M  V30 4068 H 404.487 0.453878 0.50097 0
M  V30 4069 H 407.041 1.78892 1.0093 0
M  V30 4070 H 405.271 1.5312 3.55093 0
M  V30 4071 H 406.96 1.94998 3.55993 0
M  V30 4072 H 407.726 4.17804 2.46303 0
M  V30 4073 H 403.605 3.25233 3.26718 0
M  V30 4074 H 407.149 6.57508 2.33086 0
M  V30 4075 H 403.046 5.64087 3.13809 0
M  V30 4076 H 403.814 7.68967 2.80413 0
M  V30 4077 N 406.477 -1.02803 1.19454 0
M  V30 4078 C 407.702 -1.80378 1.02364 0
M  V30 4079 C 408.127 -1.83282 -0.423007 0
M  V30 4080 O 407.485 -1.25945 -1.30413 0
M  V30 4081 C 407.533 -3.23248 1.59821 0
M  V30 4082 O 406.637 -4.04 0.828105 0
M  V30 4083 H 405.978 -0.556799 0.361761 0
M  V30 4084 H 408.508 -1.29385 1.58495 0
M  V30 4085 H 408.518 -3.73994 1.63073 0
M  V30 4086 H 407.193 -3.2045 2.65113 0
M  V30 4087 H 405.77 -3.62635 0.86891 0
M  V30 4088 N 407.956 -0.998596 -1.21925 0
M  V30 4089 C 408.866 -0.562736 -2.27751 0
M  V30 4090 C 409.882 0.391203 -1.69545 0
M  V30 4091 O 411.058 0.256625 -1.99758 0
M  V30 4092 C 408.123 0.11012 -3.46525 0
M  V30 4093 C 407.184 -0.887495 -4.20026 0
M  V30 4094 C 406.417 -0.246654 -5.3313 0
M  V30 4095 O 406.64 0.958088 -5.62296 0
M  V30 4096 O 405.574 -0.954374 -5.94286 0
M  V30 4097 H 409.4 -1.44329 -2.67213 0
M  V30 4098 H 406.985 -0.767135 -1.28201 0
M  V30 4099 H 408.867 0.486756 -4.18579 0
M  V30 4100 H 407.542 0.965154 -3.08976 0
M  V30 4101 H 406.449 -1.31517 -3.5022 0
M  V30 4102 H 407.782 -1.71191 -4.6147 0
M  V30 4103 N 409.434 1.37368 -0.772513 0
M  V30 4104 C 410.674 2.01512 -0.342361 0
M  V30 4105 C 411.038 1.59997 1.06136 0
M  V30 4106 O 412.239 2.16609 1.59167 0
M  V30 4107 C 410.51 3.54134 -0.482048 0
M  V30 4108 S 412.069 4.38585 -0.137272 0
M  V30 4109 H 408.887 0.698699 -0.131686 0
M  V30 4110 H 411.489 1.67552 -1.0073 0
M  V30 4111 H 410.193 3.81837 -1.50428 0
M  V30 4112 H 409.724 3.92894 0.199413 0
M  V30 4113 H 411.739 4.84594 1.06692 0
M  V30 4114 N 410.912 0.523116 1.48665 0
M  V30 4115 C 411.862 -0.263106 2.26477 0
M  V30 4116 C 412.846 -0.916005 1.32281 0
M  V30 4117 O 414.038 -0.819946 1.56863 0
M  V30 4118 C 411.167 -1.31361 3.17174 0
M  V30 4119 C 410.253 -0.665849 4.1884 0
M  V30 4120 N 410.644 0.244434 5.05209 0
M  V30 4121 C 408.942 -0.923863 4.36326 0
M  V30 4122 C 409.643 0.617443 5.78414 0
M  V30 4123 N 408.619 -0.0198686 5.43596 0
M  V30 4124 H 412.421 0.437295 2.90629 0
M  V30 4125 H 409.935 0.340675 1.58787 0
M  V30 4126 H 411.932 -1.89052 3.71571 0
M  V30 4127 H 410.592 -2.01546 2.54576 0
M  V30 4128 H 411.603 0.616621 5.14216 0
M  V30 4129 H 408.28 -1.6168 3.84923 0
M  V30 4130 H 409.67 1.36346 6.57921 0
M  V30 4131 N 412.39 -1.55475 0.257931 0
M  V30 4132 C 413.667 -1.91155 -0.414629 0
M  V30 4133 C 414.047 -1.18008 -1.75035 0
M  V30 4134 O 413.395 -0.301193 -2.26506 0
M  V30 4135 C 413.605 -3.44283 -0.571859 0
M  V30 4136 C 414.953 -4.15744 -0.862678 0
M  V30 4137 O 415.977 -3.50083 -0.657314 0
M  V30 4138 O 414.836 -5.31909 -1.2544 0
M  V30 4139 H 411.93 -0.796016 -0.22425 0
M  V30 4140 H 414.476 -1.66976 0.302814 0
M  V30 4141 H 413.248 -3.89558 0.368844 0
M  V30 4142 H 412.871 -3.7436 -1.33943 0
M  V30 4143 N 413.868 0.0150385 -1.57593 0
M  V30 4144 C 415.115 0.703001 -1.89906 0
M  V30 4145 C 415.443 1.74604 -0.856944 0
M  V30 4146 O 414.698 1.95197 0.140287 0
M  V30 4147 C 414.997 1.39686 -3.28972 0
M  V30 4148 C 414.663 0.488457 -4.48246 0
M  V30 4149 C 413.325 0.2383 -4.8061 0
M  V30 4150 C 415.677 -0.137881 -5.21018 0
M  V30 4151 C 413.005 -0.646738 -5.83125 0
M  V30 4152 C 415.357 -1.0107 -6.24474 0
M  V30 4153 C 414.021 -1.27019 -6.55303 0
M  V30 4154 H 413.291 0.257246 -0.694914 0
M  V30 4155 H 415.938 -0.037259 -1.91464 0
M  V30 4156 H 414.243 2.21079 -3.23468 0
M  V30 4157 H 415.94 1.93495 -3.51227 0
M  V30 4158 H 412.53 0.693593 -4.22951 0
M  V30 4159 H 416.714 0.0423953 -4.96282 0
M  V30 4160 H 411.97 -0.855937 -6.05379 0
M  V30 4161 H 416.144 -1.50247 -6.79999 0
M  V30 4162 H 413.771 -1.95769 -7.3456 0
M  V30 4163 N 415.346 1.54954 0.287554 0
M  V30 4164 C 416.592 1.76059 1.01856 0
M  V30 4165 C 416.947 0.547056 1.84459 0
M  V30 4166 O 416.24 -0.460442 1.85985 0
M  V30 4167 C 416.434 2.99833 1.94512 0
M  V30 4168 C 416.263 4.33108 1.21026 0
M  V30 4169 C 415.033 4.96632 0.931896 0
M  V30 4170 C 417.231 5.10694 0.607949 0
M  V30 4171 N 415.213 6.13668 0.168716 0
M  V30 4172 C 416.584 6.19996 -0.0217865 0
M  V30 4173 C 418.639 4.95236 0.514338 0
M  V30 4174 C 417.342 7.15524 -0.736092 0
M  V30 4175 C 419.368 5.91106 -0.186343 0
M  V30 4176 C 418.73 6.99786 -0.804875 0
M  V30 4177 H 414.829 0.696679 0.355193 0
M  V30 4178 H 417.413 1.92441 0.295741 0
M  V30 4179 H 415.584 2.84853 2.64033 0
M  V30 4180 H 417.316 3.09405 2.60865 0
M  V30 4181 H 414.071 4.57255 1.23348 0
M  V30 4182 H 414.495 6.76705 -0.199781 0
M  V30 4183 H 419.137 4.11328 0.978234 0
M  V30 4184 H 416.855 7.98964 -1.21172 0
M  V30 4185 H 420.441 5.81224 -0.258897 0
M  V30 4186 H 419.321 7.72694 -1.33843 0
M  V30 4187 N 416.824 -0.551391 1.4764 0
M  V30 4188 C 418.07 -1.31024 1.54792 0
M  V30 4189 C 418.403 -1.9304 0.211967 0
M  V30 4190 O 417.678 -1.78175 -0.77999 0
M  V30 4191 C 417.961 -2.41593 2.67029 0
M  V30 4192 C 417.814 -1.84408 4.10261 0
M  V30 4193 C 419.133 -3.43488 2.75143 0
M  V30 4194 H 416.252 -0.475031 0.563485 0
M  V30 4195 H 418.894 -0.616454 1.79722 0
M  V30 4196 H 417.044 -3.00772 2.45904 0
M  V30 4197 H 418.716 -1.29445 4.42766 0
M  V30 4198 H 416.959 -1.15051 4.18265 0
M  V30 4199 H 417.63 -2.64367 4.84576 0
M  V30 4200 H 420.106 -2.94236 2.94218 0
M  V30 4201 H 418.982 -4.18274 3.55441 0
M  V30 4202 H 419.243 -4.02703 1.82435 0
M  V30 4203 N 418.302 -1.35869 -0.798587 0
M  V30 4204 C 419.25 -1.29491 -1.93222 0
M  V30 4205 C 420.244 -0.18836 -1.6835 0
M  V30 4206 O 421.45 -0.354822 -1.76468 0
M  V30 4207 H 417.825 -0.402901 -0.63496 0
M  V30 4208 H 419.796 -2.25247 -1.9572 0
M  V30 4209 C 418.545 -1.09184 -3.30112 0
M  V30 4210 H 417.868 -1.93574 -3.49813 0
M  V30 4211 H 419.308 -1.08766 -4.09812 0
M  V30 4212 C 417.767 0.203959 -3.36282 0
M  V30 4213 O 418.297 1.19699 -3.83451 0
M  V30 4214 N 416.503 0.245488 -2.89561 0
M  V30 4215 H 416.05 -0.563223 -2.51367 0
M  V30 4216 H 416.008 1.11219 -2.94071 0
M  V30 4217 N 419.78 1.02168 -1.19998 0
M  V30 4218 C 420.743 2.08765 -0.94604 0
M  V30 4219 C 421.743 1.60618 0.0763846 0
M  V30 4220 O 422.933 1.73472 -0.159135 0
M  V30 4221 C 420.065 3.38262 -0.423255 0
M  V30 4222 H 421.258 2.32726 -1.89153 0
M  V30 4223 H 418.811 1.1889 -1.01464 0
M  V30 4224 H 419.546 3.19974 0.527938 0
M  V30 4225 H 419.331 3.74532 -1.16053 0
M  V30 4226 H 420.821 4.16759 -0.264911 0
M  V30 4227 N 421.258 1.00505 1.21394 0
M  V30 4228 C 422.206 0.558623 2.25792 0
M  V30 4229 C 423.2 -0.396848 1.64686 0
M  V30 4230 O 424.406 -0.268035 1.77993 0
M  V30 4231 H 420.781 0.1623 0.734277 0
M  V30 4232 H 422.752 1.4503 2.60785 0
M  V30 4233 C 421.501 -0.0989574 3.47559 0
M  V30 4234 H 420.824 0.627225 3.94849 0
M  V30 4235 H 422.264 -0.3746 4.22342 0
M  V30 4236 C 420.723 -1.33817 3.09184 0
M  V30 4237 O 421.253 -2.43252 3.19674 0
M  V30 4238 N 419.459 -1.21793 2.63846 0
M  V30 4239 H 419.006 -0.32746 2.5551 0
M  V30 4240 H 418.964 -2.04809 2.38539 0
M  V30 4241 N 422.737 -1.36956 0.779787 0
M  V30 4242 C 423.962 -2.04283 0.358224 0
M  V30 4243 C 424.387 -1.58422 -1.01411 0
M  V30 4244 O 423.745 -0.748179 -1.65142 0
M  V30 4245 C 423.793 -3.58152 0.419479 0
M  V30 4246 O 422.897 -4.08342 -0.577142 0
M  V30 4247 H 422.238 -0.645967 0.153698 0
M  V30 4248 H 424.768 -1.75108 1.05822 0
M  V30 4249 H 424.778 -4.07041 0.279636 0
M  V30 4250 H 423.453 -3.90886 1.42061 0
M  V30 4251 H 422.03 -3.70751 -0.399755 0
M  V30 4252 N 424.215 -0.530993 -1.48385 0
M  V30 4253 C 425.626 -0.0907905 -1.86479 0
M  V30 4254 C 425.977 1.33213 -1.44044 0
M  V30 4255 O 425.102 1.99783 -0.831615 0
M  V30 4256 C 425.697 -0.157987 -3.38431 0
M  V30 4257 C 424.256 0.227026 -3.75715 0
M  V30 4258 C 423.403 -0.5173 -2.72432 0
M  V30 4259 H 426.354 -0.742186 -1.40276 0
M  V30 4260 H 426.375 0.630053 -3.75247 0
M  V30 4261 H 425.887 -1.19372 -3.69286 0
M  V30 4262 H 423.988 1.26486 -3.50474 0
M  V30 4263 H 424.101 -0.113288 -4.78966 0
M  V30 4264 H 422.465 0.0365527 -2.54674 0
M  V30 4265 H 423.248 -1.55368 -3.0613 0
M  V30 4266 N 425.693 1.55336 -0.266172 0
M  V30 4267 C 426.97 1.91372 0.404486 0
M  V30 4268 C 427.35 1.18935 1.74407 0
M  V30 4269 O 426.698 0.3132 2.26343 0
M  V30 4270 C 426.908 3.44581 0.553593 0
M  V30 4271 C 428.256 4.16196 0.840618 0
M  V30 4272 O 429.28 3.50426 0.638739 0
M  V30 4273 O 428.139 5.32567 1.22618 0
M  V30 4274 H 425.233 0.797194 0.220025 0
M  V30 4275 H 427.779 1.66813 -0.311664 0
M  V30 4276 H 426.551 3.89357 -0.389498 0
M  V30 4277 H 426.174 3.75065 1.31955 0
M  V30 4278 N 427.171 -0.0066808 1.57599 0
M  V30 4279 C 428.42 -0.692078 1.89455 0
M  V30 4280 C 428.733 -1.75306 0.867586 0
M  V30 4281 O 429.939 -2.49262 1.07614 0
M  V30 4282 C 428.395 -1.2821 3.36289 0
M  V30 4283 C 428.003 -0.256291 4.47266 0
M  V30 4284 C 429.747 -1.94608 3.77264 0
M  V30 4285 C 427.654 -0.855927 5.85173 0
M  V30 4286 H 426.584 -0.262252 0.706923 0
M  V30 4287 H 429.235 0.052769 1.83424 0
M  V30 4288 H 427.617 -2.0774 3.37135 0
M  V30 4289 H 428.791 0.513923 4.57925 0
M  V30 4290 H 427.106 0.306862 4.15268 0
M  V30 4291 H 429.703 -2.40364 4.77629 0
M  V30 4292 H 430.046 -2.77382 3.10427 0
M  V30 4293 H 430.579 -1.21822 3.78688 0
M  V30 4294 H 427.318 -0.0671161 6.55466 0
M  V30 4295 H 426.838 -1.59546 5.78191 0
M  V30 4296 H 428.517 -1.35658 6.32618 0
M  V30 4297 N 428.649 -1.55105 -0.279332 0
M  V30 4298 C 429.599 -1.83937 -1.34727 0
M  V30 4299 C 430.583 -0.69785 -1.44979 0
M  V30 4300 O 431.775 -0.95904 -1.48766 0
M  V30 4301 C 428.904 -2.1092 -2.70864 0
M  V30 4302 C 427.99 -3.31314 -2.64748 0
M  V30 4303 N 428.381 -4.51371 -2.2825 0
M  V30 4304 C 426.679 -3.33777 -2.95819 0
M  V30 4305 C 427.38 -5.33447 -2.31969 0
M  V30 4306 N 426.356 -4.71697 -2.7019 0
M  V30 4307 H 430.158 -2.74309 -1.05506 0
M  V30 4308 H 427.672 -1.54896 -0.487959 0
M  V30 4309 H 429.669 -2.2973 -3.47893 0
M  V30 4310 H 428.329 -1.21828 -3.00979 0
M  V30 4311 H 429.34 -4.77584 -2.00335 0
M  V30 4312 H 426.017 -2.54858 -3.30687 0
M  V30 4313 H 427.407 -6.39424 -2.06365 0
M  V30 4314 N 430.127 0.543554 -1.4793 0
M  V30 4315 C 431.538 1.12561 -1.48953 0
M  V30 4316 C 431.889 1.94578 -0.251754 0
M  V30 4317 O 431.014 2.0665 0.642255 0
M  V30 4318 C 431.609 2.04801 -2.69892 0
M  V30 4319 C 430.168 2.58251 -2.73831 0
M  V30 4320 C 429.315 1.34918 -2.42265 0
M  V30 4321 H 432.266 0.32947 -1.55242 0
M  V30 4322 H 432.287 2.88886 -2.47639 0
M  V30 4323 H 431.799 1.4508 -3.59963 0
M  V30 4324 H 429.9 3.21732 -1.87934 0
M  V30 4325 H 430.013 2.98312 -3.74895 0
M  V30 4326 H 428.377 1.66046 -1.93134 0
M  V30 4327 H 429.16 0.769693 -3.3456 0
M  V30 4328 N 431.605 1.3629 0.791371 0
M  V30 4329 C 432.568 1.30309 1.88553 0
M  V30 4330 C 433.568 0.211204 1.59407 0
M  V30 4331 O 434.758 0.465865 1.67855 0
M  V30 4332 C 431.89 1.01956 3.25297 0
M  V30 4333 H 433.083 2.27614 1.95273 0
M  V30 4334 H 430.636 1.21035 0.988953 0
M  V30 4335 H 431.371 0.050998 3.2426 0
M  V30 4336 H 431.156 1.80968 3.4784 0
M  V30 4337 H 432.646 1.0037 4.05359 0
M  V30 4338 N 433.083 -1.0153 1.20538 0
M  V30 4339 C 434.331 -1.74803 1.01432 0
M  V30 4340 C 434.652 -1.8963 -0.454456 0
M  V30 4341 O 433.922 -1.43975 -1.32846 0
M  V30 4342 H 432.502 -0.647598 0.372324 0
M  V30 4343 H 435.164 -1.22402 1.5167 0
M  V30 4344 H 434.26 -2.75114 1.47373 0
M  V30 4345 N 434.561 -1.01147 -1.20859 0
M  V30 4346 C 435.807 -0.708598 -1.90658 0
M  V30 4347 C 436.162 0.753069 -1.7705 0
M  V30 4348 O 435.455 1.53952 -1.14059 0
M  V30 4349 C 435.649 -1.0727 -3.40922 0
M  V30 4350 C 435.478 -2.56821 -3.69152 0
M  V30 4351 C 434.248 -3.23524 -3.8815 0
M  V30 4352 C 436.446 -3.54997 -3.72131 0
M  V30 4353 N 434.428 -4.62359 -4.03853 0
M  V30 4354 C 435.799 -4.79371 -3.93196 0
M  V30 4355 C 437.854 -3.49042 -3.55069 0
M  V30 4356 C 436.557 -5.98512 -3.98969 0
M  V30 4357 C 438.583 -4.67579 -3.6211 0
M  V30 4358 C 437.945 -5.9076 -3.83643 0
M  V30 4359 H 434.044 -0.31088 -0.71755 0
M  V30 4360 H 436.628 -1.29526 -1.45366 0
M  V30 4361 H 434.799 -0.51443 -3.84978 0
M  V30 4362 H 436.531 -0.723891 -3.98173 0
M  V30 4363 H 433.286 -2.73958 -3.86321 0
M  V30 4364 H 433.71 -5.34427 -4.15592 0
M  V30 4365 H 438.352 -2.54808 -3.37391 0
M  V30 4366 H 436.07 -6.93132 -4.15444 0
M  V30 4367 H 439.656 -4.64581 -3.50222 0
M  V30 4368 H 438.536 -6.8095 -3.88944 0
M  V30 4369 N 436.039 1.36541 -0.78704 0
M  V30 4370 C 437.286 1.99304 -0.358341 0
M  V30 4371 C 437.614 1.62467 1.06933 0
M  V30 4372 O 436.869 0.870019 1.75297 0
M  V30 4373 C 437.168 3.54343 -0.466485 0
M  V30 4374 C 436.834 4.10993 -1.85461 0
M  V30 4375 C 435.496 4.26177 -2.23443 0
M  V30 4376 C 437.848 4.41895 -2.76366 0
M  V30 4377 C 435.176 4.69573 -3.51736 0
M  V30 4378 C 437.528 4.86722 -4.04084 0
M  V30 4379 C 436.192 5.00112 -4.42091 0
M  V30 4380 H 435.462 0.729306 -0.131126 0
M  V30 4381 H 438.109 1.63068 -1.00404 0
M  V30 4382 H 436.414 3.90918 0.262719 0
M  V30 4383 H 438.111 4.00833 -0.115854 0
M  V30 4384 H 434.701 3.99612 -1.54946 0
M  V30 4385 H 438.885 4.29735 -2.48277 0
M  V30 4386 H 434.141 4.78127 -3.81057 0
M  V30 4387 H 438.315 5.09598 -4.7464 0
M  V30 4388 H 435.942 5.33498 -5.41557 0
M  V30 4389 N 437.518 0.538854 1.48102 0
M  V30 4390 C 438.428 -0.222648 2.33541 0
M  V30 4391 C 439.444 -0.930225 1.47047 0
M  V30 4392 O 440.62 -0.903211 1.80011 0
M  V30 4393 C 437.685 -1.25064 3.23357 0
M  V30 4394 C 436.746 -0.552469 4.2573 0
M  V30 4395 C 435.979 -1.53149 5.11254 0
M  V30 4396 O 436.202 -2.76487 4.9891 0
M  V30 4397 O 435.136 -1.06602 5.92385 0
M  V30 4398 H 438.962 0.477707 2.99919 0
M  V30 4399 H 436.547 0.299669 1.46364 0
M  V30 4400 H 438.429 -1.8445 3.78888 0
M  V30 4401 H 437.104 -1.93325 2.59629 0
M  V30 4402 H 436.011 0.082114 3.7401 0
M  V30 4403 H 437.344 0.0883526 4.92121 0
M  V30 4404 N 438.996 -1.55193 0.274407 0
M  V30 4405 C 439.943 -2.225 -0.613374 0
M  V30 4406 C 440.913 -1.19823 -1.15029 0
M  V30 4407 O 442.098 -1.48362 -1.19973 0
M  V30 4408 C 439.238 -2.94927 -1.79199 0
M  V30 4409 C 438.351 -4.12322 -1.28899 0
M  V30 4410 C 437.486 -4.72394 -2.42934 0
M  V30 4411 C 436.525 -5.81984 -1.89634 0
M  V30 4412 N 435.662 -6.36123 -2.9714 0
M  V30 4413 H 440.502 -2.97982 -0.032756 0
M  V30 4414 H 438.039 -1.47099 -0.00440146 0
M  V30 4415 H 439.997 -3.35134 -2.48478 0
M  V30 4416 H 438.627 -2.2187 -2.34465 0
M  V30 4417 H 437.679 -3.7724 -0.489327 0
M  V30 4418 H 438.991 -4.91355 -0.858587 0
M  V30 4419 H 438.145 -5.15317 -3.20208 0
M  V30 4420 H 436.884 -3.92636 -2.8929 0
M  V30 4421 H 435.889 -5.38511 -1.1084 0
M  V30 4422 H 437.114 -6.6361 -1.44215 0
M  V30 4423 H 435.06 -5.59259 -3.42878 0
M  V30 4424 H 434.977 -7.10427 -2.58515 0
M  V30 4425 H 436.245 -6.83704 -3.74391 0
M  V30 4426 N 440.474 -0.00167713 -1.576 0
M  V30 4427 C 441.702 0.693759 -1.94922 0
M  V30 4428 C 442.117 1.67215 -0.876626 0
M  V30 4429 O 441.474 1.81929 0.144279 0
M  V30 4430 C 441.525 1.42416 -3.32265 0
M  V30 4431 O 441.246 0.485014 -4.35407 0
M  V30 4432 C 442.747 2.21395 -3.84056 0
M  V30 4433 H 439.967 0.193118 -0.642609 0
M  V30 4434 H 442.511 -0.0532952 -2.04431 0
M  V30 4435 H 440.666 2.12284 -3.24059 0
M  V30 4436 H 441.08 1.00053 -5.14868 0
M  V30 4437 H 442.554 2.67996 -4.82578 0
M  V30 4438 H 443.031 3.04142 -3.16851 0
M  V30 4439 H 443.637 1.56542 -3.95443 0
M  V30 4440 N 441.952 1.55251 0.271103 0
M  V30 4441 C 443.2 1.75599 1.00047 0
M  V30 4442 C 443.521 0.561188 1.8675 0
M  V30 4443 O 442.791 -0.423846 1.9126 0
M  V30 4444 H 441.371 0.647562 0.372387 0
M  V30 4445 H 444.033 1.92656 0.294876 0
M  V30 4446 H 443.129 2.65766 1.6363 0
M  V30 4447 N 443.43 -0.535701 1.48216 0
M  V30 4448 C 444.38 -1.63688 1.58714 0
M  V30 4449 C 445.364 -1.54635 0.444615 0
M  V30 4450 O 446.556 -1.62753 0.695742 0
M  V30 4451 C 443.685 -3.02423 1.62466 0
M  V30 4452 C 442.771 -3.16601 2.82178 0
M  V30 4453 N 443.162 -3.00771 4.06658 0
M  V30 4454 C 441.46 -3.47645 2.79391 0
M  V30 4455 C 442.161 -3.18213 4.86945 0
M  V30 4456 N 441.137 -3.45528 4.19656 0
M  V30 4457 H 444.939 -1.5005 2.5271 0
M  V30 4458 H 442.453 -0.741018 1.44508 0
M  V30 4459 H 444.45 -3.81517 1.6808 0
M  V30 4460 H 443.11 -3.17157 0.695826 0
M  V30 4461 H 444.121 -2.77652 4.37184 0
M  V30 4462 H 440.798 -3.68771 1.95739 0
M  V30 4463 H 442.188 -3.1076 5.95716 0
M  V30 4464 N 444.908 -1.36708 -0.784132 0
M  V30 4465 C 445.855 -1.31466 -1.89698 0
M  V30 4466 C 446.825 -0.18239 -1.65096 0
M  V30 4467 O 448.01 -0.369762 -1.87183 0
M  V30 4468 C 445.15 -1.1151 -3.26588 0
M  V30 4469 C 444.263 -2.33859 -3.63227 0
M  V30 4470 C 443.398 -2.06873 -4.89262 0
M  V30 4471 C 442.437 -3.25154 -5.18595 0
M  V30 4472 N 441.574 -2.978 -6.35814 0
M  V30 4473 H 446.414 -2.26619 -1.93515 0
M  V30 4474 H 443.951 -1.12625 -0.946256 0
M  V30 4475 H 445.909 -0.979653 -4.05535 0
M  V30 4476 H 444.539 -0.200103 -3.22179 0
M  V30 4477 H 443.591 -2.58188 -2.79362 0
M  V30 4478 H 444.903 -3.22109 -3.8085 0
M  V30 4479 H 444.057 -1.90289 -5.76086 0
M  V30 4480 H 442.796 -1.15942 -4.73718 0
M  V30 4481 H 441.801 -3.42292 -4.30251 0
M  V30 4482 H 443.026 -4.1692 -5.36055 0
M  V30 4483 H 440.972 -2.09485 -6.21653 0
M  V30 4484 H 440.889 -3.7959 -6.53794 0
M  V30 4485 H 442.157 -2.84805 -7.25607 0
M  V30 4486 N 446.386 1.0089 -1.21074 0
M  V30 4487 C 447.316 2.1145 -0.990523 0
M  V30 4488 C 448.297 1.69897 0.0831699 0
M  V30 4489 O 449.482 1.94052 -0.0758853 0
M  V30 4490 C 446.612 3.42914 -0.550177 0
M  V30 4491 C 445.566 3.98244 -1.56799 0
M  V30 4492 C 444.892 5.25568 -0.984013 0
M  V30 4493 C 446.192 4.30752 -2.95381 0
M  V30 4494 H 447.886 2.3013 -1.91521 0
M  V30 4495 H 445.432 1.10592 -0.92225 0
M  V30 4496 H 447.385 4.19653 -0.383305 0
M  V30 4497 H 446.109 3.24014 0.41015 0
M  V30 4498 H 444.768 3.23621 -1.72236 0
M  V30 4499 H 444.416 5.02998 -0.0155216 0
M  V30 4500 H 444.116 5.63551 -1.66384 0
M  V30 4501 H 445.64 6.04955 -0.828378 0
M  V30 4502 H 447.054 4.98349 -2.8341 0
M  V30 4503 H 445.451 4.79869 -3.60341 0
M  V30 4504 H 446.521 3.39192 -3.46521 0
M  V30 4505 N 447.864 1.01787 1.20321 0
M  V30 4506 C 448.796 0.547357 2.22568 0
M  V30 4507 C 449.809 -0.370922 1.58518 0
M  V30 4508 O 450.998 -0.169067 1.77698 0
M  V30 4509 C 448.098 -0.223031 3.38165 0
M  V30 4510 C 447.271 0.697472 4.31803 0
M  V30 4511 C 446.33 -0.025562 5.26194 0
M  V30 4512 O 445.356 0.597367 5.66057 0
M  V30 4513 N 446.558 -1.29999 5.65757 0
M  V30 4514 H 449.323 1.42668 2.63564 0
M  V30 4515 H 446.884 0.895552 1.34876 0
M  V30 4516 H 448.876 -0.716002 3.98316 0
M  V30 4517 H 447.446 -1.00366 2.9605 0
M  V30 4518 H 446.666 1.37073 3.69601 0
M  V30 4519 H 447.954 1.32347 4.91286 0
M  V30 4520 H 447.352 -1.827 5.35385 0
M  V30 4521 H 445.909 -1.73766 6.28211 0
M  V30 4522 N 449.342 -1.36122 0.79427 0
M  V30 4523 C 450.753 -1.81646 0.431446 0
M  V30 4524 C 451.104 -1.66043 -1.04518 0
M  V30 4525 O 450.229 -1.1841 -1.8113 0
M  V30 4526 C 450.824 -3.29785 0.776341 0
M  V30 4527 C 449.383 -3.73501 0.466282 0
M  V30 4528 C 448.53 -2.58313 1.00844 0
M  V30 4529 H 451.481 -1.24274 0.986995 0
M  V30 4530 H 451.502 -3.80437 0.0692413 0
M  V30 4531 H 451.014 -3.4111 1.8511 0
M  V30 4532 H 449.115 -3.67733 -0.600245 0
M  V30 4533 H 449.228 -4.68754 0.990288 0
M  V30 4534 H 447.592 -2.5102 0.431406 0
M  V30 4535 H 448.375 -2.72421 2.08906 0
M  V30 4536 N 450.82 -0.546701 -1.47814 0
M  V30 4537 C 452.231 -0.110564 -1.86372 0
M  V30 4538 C 452.582 1.31678 -1.45449 0
M  V30 4539 O 451.707 1.98889 -0.852758 0
M  V30 4540 C 452.302 -0.193873 -3.38245 0
M  V30 4541 C 450.861 0.187164 -3.75934 0
M  V30 4542 C 450.008 -0.546166 -2.71868 0
M  V30 4543 H 452.959 -0.757022 -1.39481 0
M  V30 4544 H 452.98 0.590218 -3.75895 0
M  V30 4545 H 452.492 -1.23282 -3.67999 0
M  V30 4546 H 450.593 1.22762 -3.51796 0
M  V30 4547 H 450.706 -0.164083 -4.78819 0
M  V30 4548 H 449.07 0.00953904 -2.54698 0
M  V30 4549 H 449.853 -1.58606 -3.04465 0
M  V30 4550 N 452.299 1.55045 -0.282633 0
M  V30 4551 C 453.246 2.22822 0.601566 0
M  V30 4552 C 454.216 1.20431 1.14392 0
M  V30 4553 O 455.401 1.48996 1.19184 0
M  V30 4554 C 452.541 2.95873 1.77632 0
M  V30 4555 C 451.654 4.12999 1.26711 0
M  V30 4556 C 450.789 4.73676 2.40426 0
M  V30 4557 C 449.828 5.82981 1.86545 0
M  V30 4558 N 448.965 6.3769 2.93762 0
M  V30 4559 H 453.805 2.97995 0.0169528 0
M  V30 4560 H 451.342 1.471 -0.00339964 0
M  V30 4561 H 453.3 3.36447 2.46697 0
M  V30 4562 H 451.93 2.2311 2.33285 0
M  V30 4563 H 450.982 3.77494 0.469314 0
M  V30 4564 H 452.294 4.91803 0.832518 0
M  V30 4565 H 451.448 5.17008 3.17471 0
M  V30 4566 H 450.187 3.94164 2.87203 0
M  V30 4567 H 449.192 5.39092 1.07983 0
M  V30 4568 H 450.417 6.64366 1.40694 0
M  V30 4569 H 448.363 5.61069 3.39908 0
M  V30 4570 H 448.28 7.11788 2.54744 0
M  V30 4571 H 449.548 6.8568 3.7076 0
M  V30 4572 N 453.777 0.010035 1.57597 0
M  V30 4573 C 455.025 -0.671371 1.90623 0
M  V30 4574 C 455.346 -1.73753 0.885151 0
M  V30 4575 O 454.616 -1.95752 -0.0760611 0
M  V30 4576 H 453.196 -0.250968 0.703579 0
M  V30 4577 H 455.858 0.0533325 1.94827 0
M  V30 4578 H 454.954 -1.13626 2.90681 0
M  V30 4579 N 455.255 -1.55392 -0.262866 0
M  V30 4580 C 456.485 -1.80251 -1.00961 0
M  V30 4581 C 456.893 -0.58117 -1.80053 0
M  V30 4582 O 456.236 0.459427 -1.77862 0
M  V30 4583 C 456.298 -2.98207 -2.00781 0
M  V30 4584 C 455.962 -4.34856 -1.40533 0
M  V30 4585 C 456.959 -5.13459 -0.815853 0
M  V30 4586 C 454.644 -4.8153 -1.42948 0
M  V30 4587 C 456.638 -6.36875 -0.258562 0
M  V30 4588 C 454.325 -6.04899 -0.868334 0
M  V30 4589 C 455.323 -6.8241 -0.283884 0
M  V30 4590 O 455.011 -8.03451 0.268644 0
M  V30 4591 H 454.743 -0.604049 -0.303482 0
M  V30 4592 H 457.297 -2.03257 -0.295926 0
M  V30 4593 H 455.527 -2.70917 -2.75936 0
M  V30 4594 H 457.216 -3.10299 -2.61667 0
M  V30 4595 H 457.982 -4.78526 -0.789812 0
M  V30 4596 H 453.861 -4.21201 -1.87378 0
M  V30 4597 H 457.405 -6.97318 0.198257 0
M  V30 4598 H 453.302 -6.39312 -0.891649 0
M  V30 4599 H 454.07 -8.18346 0.158974 0
M  V30 4600 N 456.733 0.527833 -1.48498 0
M  V30 4601 C 457.68 1.6322 -1.6318 0
M  V30 4602 C 458.65 1.59199 -0.473815 0
M  V30 4603 O 459.835 1.77591 -0.697563 0
M  V30 4604 C 456.975 3.01474 -1.67951 0
M  V30 4605 C 456.088 3.15713 -2.94871 0
M  V30 4606 C 455.223 4.44539 -2.90789 0
M  V30 4607 C 454.262 4.52315 -4.12404 0
M  V30 4608 N 453.399 5.72533 -4.06387 0
M  V30 4609 H 458.239 1.50011 -2.57489 0
M  V30 4610 H 455.776 0.730298 -1.27691 0
M  V30 4611 H 457.734 3.81572 -1.68698 0
M  V30 4612 H 456.364 3.1345 -0.771306 0
M  V30 4613 H 455.416 2.28854 -3.03859 0
M  V30 4614 H 456.728 3.1732 -3.8485 0
M  V30 4615 H 455.882 5.3293 -2.89949 0
M  V30 4616 H 454.621 4.45457 -1.98542 0
M  V30 4617 H 453.626 3.62331 -4.13517 0
M  V30 4618 H 454.851 4.53134 -5.05812 0
M  V30 4619 H 452.797 5.74344 -3.16962 0
M  V30 4620 H 452.714 5.75643 -4.90073 0
M  V30 4621 H 453.982 6.63204 -4.0961 0
M  V30 4622 N 458.211 1.37122 0.776871 0
M  V30 4623 C 459.121 1.34651 1.9211 0
M  V30 4624 C 460.137 0.246824 1.7224 0
M  V30 4625 O 461.313 0.48134 1.95563 0
M  V30 4626 C 458.378 1.14748 3.2716 0
M  V30 4627 C 457.439 2.34308 3.5972 0
M  V30 4628 C 456.672 2.15345 4.88326 0
M  V30 4629 O 456.895 1.13507 5.58992 0
M  V30 4630 O 455.829 3.03414 5.1983 0
M  V30 4631 H 459.655 2.31013 1.97146 0
M  V30 4632 H 457.24 1.17799 0.918901 0
M  V30 4633 H 459.122 1.05616 4.0795 0
M  V30 4634 H 457.797 0.214562 3.22988 0
M  V30 4635 H 456.704 2.49011 2.79185 0
M  V30 4636 H 458.037 3.26149 3.68629 0
M  V30 4637 N 459.689 -1.00246 1.21608 0
M  V30 4638 C 460.599 -2.12515 0.993709 0
M  V30 4639 C 461.615 -1.73913 -0.0549939 0
M  V30 4640 O 462.791 -2.00943 0.135619 0
M  V30 4641 C 459.856 -3.42083 0.563953 0
M  V30 4642 C 458.917 -3.94843 1.68516 0
M  V30 4643 C 458.15 -5.18226 1.27582 0
M  V30 4644 O 458.373 -5.70201 0.150506 0
M  V30 4645 O 457.307 -5.64497 2.0887 0
M  V30 4646 H 461.133 -2.34152 1.93407 0
M  V30 4647 H 458.718 -1.10891 1.00118 0
M  V30 4648 H 460.6 -4.20073 0.334194 0
M  V30 4649 H 459.275 -3.21828 -0.347665 0
M  V30 4650 H 458.182 -3.18068 1.96935 0
M  V30 4651 H 459.515 -4.19512 2.5743 0
M  V30 4652 N 461.167 -1.02423 -1.1978 0
M  V30 4653 C 462.077 -0.610919 -2.26506 0
M  V30 4654 C 463.093 0.355152 -1.70337 0
M  V30 4655 O 464.269 0.214195 -2.00258 0
M  V30 4656 C 461.334 0.0365921 -3.46681 0
M  V30 4657 C 460.395 -0.976389 -4.18049 0
M  V30 4658 C 459.628 -0.359683 -5.32487 0
M  V30 4659 O 459.851 0.838601 -5.64202 0
M  V30 4660 O 458.785 -1.08022 -5.92127 0
M  V30 4661 H 462.611 -1.49965 -2.64091 0
M  V30 4662 H 460.196 -0.794156 -1.26545 0
M  V30 4663 H 462.078 0.39786 -4.19518 0
M  V30 4664 H 460.753 0.899398 -3.10954 0
M  V30 4665 H 459.66 -1.38916 -3.47352 0
M  V30 4666 H 460.993 -1.80941 -4.57735 0
M  V30 4667 N 462.645 1.35699 -0.801477 0
M  V30 4668 C 463.892 1.98913 -0.379459 0
M  V30 4669 C 464.22 1.63592 1.05204 0
M  V30 4670 O 463.475 0.888563 1.74365 0
M  V30 4671 C 463.774 3.53828 -0.504041 0
M  V30 4672 C 463.44 4.09002 -1.8981 0
M  V30 4673 C 462.102 4.23783 -2.27951 0
M  V30 4674 C 464.454 4.38939 -2.81038 0
M  V30 4675 C 461.782 4.65816 -3.56696 0
M  V30 4676 C 464.134 4.82409 -4.09224 0
M  V30 4677 C 462.798 4.95395 -4.4737 0
M  V30 4678 H 462.068 0.727874 -0.138854 0
M  V30 4679 H 464.715 1.61994 -1.02128 0
M  V30 4680 H 463.02 3.91175 0.221242 0
M  V30 4681 H 464.717 4.00687 -0.158361 0
M  V30 4682 H 461.307 3.97946 -1.59176 0
M  V30 4683 H 465.491 4.27077 -2.52821 0
M  V30 4684 H 460.747 4.74059 -3.86106 0
M  V30 4685 H 464.921 5.04535 -4.80018 0
M  V30 4686 H 462.548 5.27724 -5.47185 0
M  V30 4687 N 464.123 0.554532 1.47522 0
M  V30 4688 C 465.348 0.0322661 2.07375 0
M  V30 4689 C 465.773 -1.25079 1.40488 0
M  V30 4690 O 465.131 -1.74859 0.47896 0
M  V30 4691 C 465.179 -0.149397 3.6029 0
M  V30 4692 O 464.283 -1.21259 3.9417 0
M  V30 4693 H 463.624 0.0501228 0.662106 0
M  V30 4694 H 466.154 0.769452 1.8958 0
M  V30 4695 H 466.164 -0.364437 4.06369 0
M  V30 4696 H 464.839 0.787743 4.08372 0
M  V30 4697 H 463.416 -0.97825 3.5984 0
M  V30 4698 N 465.601 -1.54893 0.290851 0
M  V30 4699 C 466.847 -2.00949 -0.314784 0
M  V30 4700 C 467.202 -1.1757 -1.52299 0
M  V30 4701 O 466.495 -0.241558 -1.90071 0
M  V30 4702 C 466.689 -3.49815 -0.732397 0
M  V30 4703 C 466.518 -4.47603 0.433799 0
M  V30 4704 C 465.288 -4.96806 0.922599 0
M  V30 4705 C 467.486 -4.98233 1.27546 0
M  V30 4706 N 465.468 -5.78426 2.05662 0
M  V30 4707 C 466.839 -5.77455 2.25712 0
M  V30 4708 C 468.894 -4.80439 1.307 0
M  V30 4709 C 467.597 -6.40778 3.26796 0
M  V30 4710 C 469.623 -5.44574 2.30637 0
M  V30 4711 C 468.985 -6.23619 3.27533 0
M  V30 4712 H 465.084 -0.777905 -0.0799257 0
M  V30 4713 H 467.668 -1.9015 0.418458 0
M  V30 4714 H 465.839 -3.60925 -1.43483 0
M  V30 4715 H 467.571 -3.82681 -1.31671 0
M  V30 4716 H 464.326 -4.70961 0.49926 0
M  V30 4717 H 464.75 -6.23923 2.62772 0
M  V30 4718 H 469.392 -4.18918 0.571622 0
M  V30 4719 H 467.11 -7.01439 4.01258 0
M  V30 4720 H 470.696 -5.32739 2.33838 0
M  V30 4721 H 469.576 -6.72367 4.03599 0
M  V30 4722 N 467.08 -0.0183926 -1.57589 0
M  V30 4723 C 468.305 0.676634 -1.96052 0
M  V30 4724 C 468.73 1.6548 -0.894307 0
M  V30 4725 O 468.088 1.80712 0.145849 0
M  V30 4726 C 468.136 1.36872 -3.33614 0
M  V30 4727 O 467.24 2.48372 -3.29219 0
M  V30 4728 H 466.581 0.1786 -0.63953 0
M  V30 4729 H 469.111 -0.077056 -2.04455 0
M  V30 4730 H 469.121 1.72797 -3.69601 0
M  V30 4731 H 467.796 0.651636 -4.10763 0
M  V30 4732 H 466.373 2.14639 -3.04934 0
M  V30 4733 N 468.558 1.5553 0.254621 0
M  V30 4734 C 469.49 1.86104 1.33783 0
M  V30 4735 C 470.503 0.746752 1.44663 0
M  V30 4736 O 471.692 1.0248 1.46151 0
M  V30 4737 C 468.792 2.02532 2.71724 0
M  V30 4738 C 467.965 3.33335 2.83208 0
M  V30 4739 C 467.024 3.396 4.01943 0
M  V30 4740 O 466.05 4.12862 3.91834 0
M  V30 4741 N 467.252 2.68332 5.1476 0
M  V30 4742 H 470.017 2.79605 1.07893 0
M  V30 4743 H 467.578 1.55672 0.444732 0
M  V30 4744 H 469.57 2.04074 3.4948 0
M  V30 4745 H 468.14 1.15811 2.90356 0
M  V30 4746 H 467.36 3.44176 1.92189 0
M  V30 4747 H 468.648 4.19565 2.87824 0
M  V30 4748 H 468.046 2.08528 5.25864 0
M  V30 4749 H 466.603 2.75575 5.90679 0
M  V30 4750 N 470.036 -0.519951 1.48776 0
M  V30 4751 C 471.266 -1.29783 1.60748 0
M  V30 4752 C 471.674 -1.87253 0.27072 0
M  V30 4753 O 471.017 -1.67628 -0.751438 0
M  V30 4754 C 471.079 -2.47984 2.60277 0
M  V30 4755 C 470.743 -2.11526 4.051 0
M  V30 4756 C 471.74 -1.66608 4.92481 0
M  V30 4757 C 469.425 -2.21742 4.50706 0
M  V30 4758 C 471.419 -1.32384 6.23501 0
M  V30 4759 C 469.106 -1.87129 5.81744 0
M  V30 4760 C 470.104 -1.42523 6.67964 0
M  V30 4761 O 469.792 -1.0837 7.96562 0
M  V30 4762 H 469.524 -0.400562 0.544542 0
M  V30 4763 H 472.078 -0.632879 1.95407 0
M  V30 4764 H 470.308 -3.17493 2.2076 0
M  V30 4765 H 471.997 -3.10036 2.61978 0
M  V30 4766 H 472.763 -1.58178 4.58481 0
M  V30 4767 H 468.642 -2.55415 3.83776 0
M  V30 4768 H 472.186 -0.974949 6.90754 0
M  V30 4769 H 468.083 -1.95204 6.15277 0
M  V30 4770 H 468.851 -1.21681 8.09405 0
M  V30 4771 N 471.514 -1.37532 -0.769588 0
M  V30 4772 C 472.444 -1.36172 -1.89682 0
M  V30 4773 C 473.425 -0.23001 -1.68538 0
M  V30 4774 O 474.61 -0.43069 -1.89364 0
M  V30 4775 C 471.74 -1.1701 -3.26995 0
M  V30 4776 C 470.694 -2.27216 -3.62708 0
M  V30 4777 C 470.02 -1.93174 -4.98586 0
M  V30 4778 C 471.32 -3.6941 -3.69234 0
M  V30 4779 H 473.014 -2.30499 -1.91078 0
M  V30 4780 H 470.56 -1.10953 -0.917902 0
M  V30 4781 H 472.513 -1.14688 -4.05493 0
M  V30 4782 H 471.237 -0.191395 -3.26039 0
M  V30 4783 H 469.896 -2.28697 -2.86519 0
M  V30 4784 H 469.544 -0.938281 -4.94171 0
M  V30 4785 H 469.244 -2.66973 -5.23449 0
M  V30 4786 H 470.768 -1.92443 -5.79481 0
M  V30 4787 H 472.182 -3.70047 -4.37879 0
M  V30 4788 H 470.579 -4.4228 -4.05597 0
M  V30 4789 H 471.649 -4.0288 -2.69844 0
M  V30 4790 N 472.992 0.995999 -1.22138 0
M  V30 4791 C 474.408 1.25917 -0.980667 0
M  V30 4792 C 474.608 1.98819 0.327604 0
M  V30 4793 O 473.664 2.29587 1.05101 0
M  V30 4794 C 474.977 2.07399 -2.17729 0
M  V30 4795 C 476.525 2.20594 -2.22052 0
M  V30 4796 C 477 3.05462 -3.41258 0
M  V30 4797 N 478.491 3.13049 -3.41401 0
M  V30 4798 C 479.226 3.78997 -4.30289 0
M  V30 4799 N 478.722 4.46899 -5.2939 0
M  V30 4800 N 480.515 3.75728 -4.18073 0
M  V30 4801 H 472.666 0.507158 -2.06256 0
M  V30 4802 H 474.929 0.28658 -0.903646 0
M  V30 4803 H 474.635 1.61191 -3.12586 0
M  V30 4804 H 474.509 3.08154 -2.17534 0
M  V30 4805 H 476.896 2.66017 -1.27745 0
M  V30 4806 H 476.977 1.1928 -2.26287 0
M  V30 4807 H 476.621 2.60739 -4.35864 0
M  V30 4808 H 476.551 4.06911 -3.34262 0
M  V30 4809 H 479.042 2.64721 -2.69688 0
M  V30 4810 H 479.355 4.94952 -5.935 0
M  V30 4811 H 477.7 4.45657 -5.33306 0
M  V30 4812 H 480.891 3.2184 -3.39907 0
M  V30 4813 H 481.064 4.26845 -4.87553 0
M  V30 4814 N 474.47 1.03057 1.19235 0
M  V30 4815 C 475.695 0.74757 1.93458 0
M  V30 4816 C 476.12 -0.687648 1.7508 0
M  V30 4817 O 475.478 -1.47499 1.05422 0
M  V30 4818 C 475.526 1.10604 3.43219 0
M  V30 4819 O 474.63 0.225671 4.11782 0
M  V30 4820 H 473.971 0.276047 0.603899 0
M  V30 4821 H 476.501 1.3777 1.51263 0
M  V30 4822 H 476.511 1.06366 3.93891 0
M  V30 4823 H 475.186 2.15165 3.55917 0
M  V30 4824 H 473.763 0.326795 3.71465 0
M  V30 4825 N 475.948 -1.35272 0.808662 0
M  V30 4826 C 477.176 -2.02946 0.402537 0
M  V30 4827 C 477.591 -1.60937 -0.987147 0
M  V30 4828 O 476.948 -0.807917 -1.63643 0
M  V30 4829 C 476.999 -3.58317 0.47868 0
M  V30 4830 O 476.72 -3.98799 1.81358 0
M  V30 4831 C 478.221 -4.43251 0.0656281 0
M  V30 4832 H 475.441 -0.650831 0.163279 0
M  V30 4833 H 477.985 -1.72849 1.09286 0
M  V30 4834 H 476.14 -3.87055 -0.163415 0
M  V30 4835 H 476.554 -4.93451 1.77781 0
M  V30 4836 H 478.028 -5.51738 0.170017 0
M  V30 4837 H 478.505 -4.27913 -0.989278 0
M  V30 4838 H 479.111 -4.19813 0.68096 0
M  V30 4839 N 477.426 -0.562348 -1.47226 0
M  V30 4840 C 478.842 -0.222492 -1.58042 0
M  V30 4841 C 479.042 1.27505 -1.56028 0
M  V30 4842 O 478.098 2.05555 -1.46641 0
M  V30 4843 C 479.411 -0.853694 -2.88327 0
M  V30 4844 C 480.959 -0.825397 -3.01921 0
M  V30 4845 C 481.434 -1.43576 -4.34914 0
M  V30 4846 N 482.925 -1.39918 -4.41562 0
M  V30 4847 C 483.66 -1.84103 -5.43041 0
M  V30 4848 N 483.156 -2.36167 -6.51304 0
M  V30 4849 N 484.949 -1.75142 -5.34118 0
M  V30 4850 H 477.1 -1.53525 -1.46778 0
M  V30 4851 H 479.363 -0.640527 -0.698877 0
M  V30 4852 H 479.069 -1.90635 -2.95552 0
M  V30 4853 H 478.943 -0.34977 -3.75575 0
M  V30 4854 H 481.33 0.218583 -2.94289 0
M  V30 4855 H 481.411 -1.36713 -2.16202 0
M  V30 4856 H 481.055 -2.47884 -4.43301 0
M  V30 4857 H 480.985 -0.869427 -5.19373 0
M  V30 4858 H 483.476 -1.0184 -3.63919 0
M  V30 4859 H 483.789 -2.67793 -7.24919 0
M  V30 4860 H 482.134 -2.40181 -6.52179 0
M  V30 4861 H 485.325 -1.34241 -4.48439 0
M  V30 4862 H 485.498 -2.09895 -6.13065 0
M  V30 4863 N 478.904 1.54736 -0.299062 0
M  V30 4864 C 479.867 2.22127 0.565012 0
M  V30 4865 C 480.867 1.20669 1.06281 0
M  V30 4866 O 482.057 1.45417 0.959145 0
M  V30 4867 C 479.189 2.90611 1.78208 0
M  V30 4868 H 480.382 2.99891 -0.0237448 0
M  V30 4869 H 477.935 1.5622 -0.0498788 0
M  V30 4870 H 478.67 2.16921 2.41072 0
M  V30 4871 H 478.455 3.64984 1.43281 0
M  V30 4872 H 479.945 3.42026 2.396 0
M  V30 4873 N 480.382 0.0267497 1.57577 0
M  V30 4874 C 481.314 -0.984594 2.06974 0
M  V30 4875 C 482.327 -1.29032 0.992705 0
M  V30 4876 O 483.516 -1.25539 1.26895 0
M  V30 4877 C 480.616 -2.31262 2.47732 0
M  V30 4878 C 479.789 -2.1924 3.78487 0
M  V30 4879 C 478.848 -3.34956 4.05821 0
M  V30 4880 O 477.874 -3.11948 4.76106 0
M  V30 4881 N 479.076 -4.58672 3.55809 0
M  V30 4882 H 481.841 -0.563143 2.94362 0
M  V30 4883 H 479.402 -0.160061 1.61107 0
M  V30 4884 H 481.394 -3.07496 2.63112 0
M  V30 4885 H 479.964 -2.65056 1.65723 0
M  V30 4886 H 479.184 -1.27747 3.72927 0
M  V30 4887 H 480.472 -2.08409 4.64158 0
M  V30 4888 H 479.87 -4.8026 2.98942 0
M  V30 4889 H 478.427 -5.32083 3.76472 0
M  V30 4890 N 481.861 -1.55662 -0.24637 0
M  V30 4891 C 482.824 -1.89558 -1.28842 0
M  V30 4892 C 483.824 -0.772082 -1.41052 0
M  V30 4893 O 485.014 -1.04007 -1.39743 0
M  V30 4894 C 482.146 -2.12449 -2.66605 0
M  V30 4895 H 483.339 -2.82735 -1.00004 0
M  V30 4896 H 480.892 -1.48562 -0.485684 0
M  V30 4897 H 481.627 -1.21742 -3.00582 0
M  V30 4898 H 481.412 -2.94273 -2.59125 0
M  V30 4899 H 482.902 -2.39854 -3.41847 0
M  V30 4900 N 483.339 0.512053 -1.4905 0
M  V30 4901 C 484.302 1.59704 -1.64399 0
M  V30 4902 C 485.302 1.52285 -0.516317 0
M  V30 4903 O 486.492 1.55635 -0.782527 0
M  V30 4904 C 483.624 2.9935 -1.63102 0
M  V30 4905 H 484.817 1.47428 -2.61161 0
M  V30 4906 H 482.37 0.735469 -1.37915 0
M  V30 4907 H 483.105 3.17116 -0.678836 0
M  V30 4908 H 482.89 3.06144 -2.44986 0
M  V30 4909 H 484.38 3.782 -1.77072 0
M  V30 4910 N 484.817 1.37938 0.762283 0
M  V30 4911 C 486.228 1.30094 1.33912 0
M  V30 4912 C 486.579 -0.0472026 1.96143 0
M  V30 4913 O 485.704 -0.94917 1.94473 0
M  V30 4914 C 486.299 2.35592 2.43478 0
M  V30 4915 C 484.858 2.31353 2.96905 0
M  V30 4916 C 484.005 2.18919 1.70205 0
M  V30 4917 H 486.956 1.48423 0.561816 0
M  V30 4918 H 486.977 2.00806 3.23199 0
M  V30 4919 H 486.489 3.33701 1.98155 0
M  V30 4920 H 484.59 1.36799 3.46579 0
M  V30 4921 H 484.703 3.25147 3.51875 0
M  V30 4922 H 483.067 1.65624 1.93496 0
M  V30 4923 H 483.85 3.18956 1.26973 0
M  V30 4924 N 486.295 -0.989507 1.22664 0
M  V30 4925 C 487.242 -2.08024 0.999733 0
M  V30 4926 C 488.212 -1.65909 -0.0797047 0
M  V30 4927 O 489.397 -1.90669 0.0705715 0
M  V30 4928 C 486.537 -3.40067 0.587234 0
M  V30 4929 C 485.65 -3.95505 1.73781 0
M  V30 4930 C 484.785 -5.15722 1.27297 0
M  V30 4931 C 483.824 -5.63305 2.39488 0
M  V30 4932 N 482.961 -6.74758 1.94026 0
M  V30 4933 H 487.801 -2.26768 1.9334 0
M  V30 4934 H 485.338 -1.11171 0.963297 0
M  V30 4935 H 487.296 -4.15899 0.329227 0
M  V30 4936 H 485.926 -3.21314 -0.309426 0
M  V30 4937 H 484.978 -3.16513 2.11006 0
M  V30 4938 H 486.29 -4.26797 2.58158 0
M  V30 4939 H 485.444 -5.98854 0.972546 0
M  V30 4940 H 484.183 -4.86061 0.399445 0
M  V30 4941 H 483.188 -4.78759 2.70315 0
M  V30 4942 H 484.413 -5.94988 3.27362 0
M  V30 4943 H 482.359 -6.46874 1.09041 0
M  V30 4944 H 482.276 -7.05386 2.71968 0
M  V30 4945 H 483.544 -7.61387 1.67062 0
M  V30 4946 N 487.773 -1.03688 -1.18687 0
M  V30 4947 C 488.723 -0.595067 -2.20098 0
M  V30 4948 C 489.707 0.360465 -1.5681 0
M  V30 4949 O 490.899 0.180136 -1.76081 0
M  V30 4950 C 488.028 0.0444495 -3.43271 0
M  V30 4951 C 487.114 -0.934002 -4.13687 0
M  V30 4952 N 487.505 -2.09957 -4.60165 0
M  V30 4953 C 485.803 -0.759177 -4.39491 0
M  V30 4954 C 486.504 -2.71735 -5.1433 0
M  V30 4955 N 485.48 -1.99638 -5.05614 0
M  V30 4956 H 489.282 -1.48336 -2.5372 0
M  V30 4957 H 486.796 -0.904949 -1.3485 0
M  V30 4958 H 488.793 0.37864 -4.15177 0
M  V30 4959 H 487.453 0.928325 -3.11147 0
M  V30 4960 H 488.464 -2.47863 -4.54735 0
M  V30 4961 H 485.141 0.0749292 -4.17433 0
M  V30 4962 H 486.531 -3.70492 -5.60523 0
M  V30 4963 N 489.251 1.34841 -0.815825 0
M  V30 4964 C 490.181 2.32187 -0.247298 0
M  V30 4965 C 491.162 1.5791 0.632344 0
M  V30 4966 O 492.347 1.8593 0.560698 0
M  V30 4967 C 489.477 3.42122 0.597466 0
M  V30 4968 C 488.431 4.27602 -0.184446 0
M  V30 4969 C 487.757 5.28942 0.782609 0
M  V30 4970 C 489.057 5.03502 -1.38865 0
M  V30 4971 H 490.751 2.79985 -1.06061 0
M  V30 4972 H 488.297 1.34611 -0.511461 0
M  V30 4973 H 490.25 4.09232 1.00533 0
M  V30 4974 H 488.974 2.92956 1.44376 0
M  V30 4975 H 487.633 3.62085 -0.573592 0
M  V30 4976 H 487.281 4.7604 1.62466 0
M  V30 4977 H 486.981 5.87008 0.263695 0
M  V30 4978 H 488.505 5.98922 1.18848 0
M  V30 4979 H 489.919 5.63506 -1.05518 0
M  V30 4980 H 488.316 5.71108 -1.8427 0
M  V30 4981 H 489.386 4.33608 -2.17054 0
M  V30 4982 N 490.729 0.570148 1.46925 0
M  V30 4983 C 491.976 0.0509529 2.02436 0
M  V30 4984 C 492.304 -1.30405 1.44308 0
M  V30 4985 O 491.559 -1.86493 0.593198 0
M  V30 4986 C 491.858 -0.0780336 3.57315 0
M  V30 4987 C 491.524 1.20775 4.34424 0
M  V30 4988 C 490.186 1.56004 4.5521 0
M  V30 4989 C 492.538 2.0592 4.78797 0
M  V30 4990 C 489.866 2.76201 5.17619 0
M  V30 4991 C 492.218 3.25332 5.42533 0
M  V30 4992 C 490.882 3.60859 5.61549 0
M  V30 4993 H 490.152 0.018645 0.740765 0
M  V30 4994 H 492.799 0.744262 1.76445 0
M  V30 4995 H 491.104 -0.854394 3.82371 0
M  V30 4996 H 492.801 -0.495312 3.97929 0
M  V30 4997 H 489.391 0.923469 4.18533 0
M  V30 4998 H 493.575 1.80008 4.62505 0
M  V30 4999 H 488.831 3.0388 5.30535 0
M  V30 5000 H 493.005 3.91586 5.75876 0
M  V30 5001 H 490.632 4.54088 6.09678 0
M  V30 5002 N 492.207 -1.54576 0.307264 0
M  V30 5003 C 493.453 -2.0056 -0.300612 0
M  V30 5004 C 493.786 -1.1953 -1.53057 0
M  V30 5005 O 493.061 -0.27337 -1.92569 0
M  V30 5006 C 493.344 -3.54167 -0.650987 0
M  V30 5007 C 493.197 -4.45933 0.588539 0
M  V30 5008 C 494.516 -4.14645 -1.47506 0
M  V30 5009 H 491.635 -0.729075 -0.107788 0
M  V30 5010 H 494.277 -1.85286 0.420606 0
M  V30 5011 H 492.427 -3.67313 -1.26544 0
M  V30 5012 H 494.099 -4.44683 1.22697 0
M  V30 5013 H 492.342 -4.16274 1.22058 0
M  V30 5014 H 493.013 -5.51189 0.299153 0
M  V30 5015 H 495.489 -4.04973 -0.955821 0
M  V30 5016 H 494.365 -5.22269 -1.68899 0
M  V30 5017 H 494.626 -3.66921 -2.4662 0
M  V30 5018 N 493.685 -0.035106 -1.57561 0
M  V30 5019 C 494.91 0.655802 -1.96759 0
M  V30 5020 C 495.335 1.64523 -0.911809 0
M  V30 5021 O 494.693 1.80857 0.126673 0
M  V30 5022 C 494.741 1.33326 -3.35047 0
M  V30 5023 O 493.845 2.44866 -3.31835 0
M  V30 5024 H 493.186 0.171807 -0.641388 0
M  V30 5025 H 495.716 -0.0987369 -2.04362 0
M  V30 5026 H 495.726 1.68867 -3.71413 0
M  V30 5027 H 494.401 0.608033 -4.11431 0
M  V30 5028 H 492.978 2.11392 -3.07193 0
M  V30 5029 N 495.163 1.55791 0.238111 0
M  V30 5030 C 496.095 1.87513 1.31802 0
M  V30 5031 C 497.108 0.762053 1.43863 0
M  V30 5032 O 498.297 1.04024 1.45056 0
M  V30 5033 C 495.397 2.05402 2.69561 0
M  V30 5034 C 494.57 3.3632 2.79656 0
M  V30 5035 C 493.629 3.43844 3.98319 0
M  V30 5036 O 492.655 4.16994 3.87433 0
M  V30 5037 N 493.857 2.73777 5.11885 0
M  V30 5038 H 496.622 2.80734 1.04922 0
M  V30 5039 H 494.183 1.56135 0.428196 0
M  V30 5040 H 496.175 2.07769 3.47296 0
M  V30 5041 H 494.745 1.18884 2.89111 0
M  V30 5042 H 493.965 3.46195 1.88528 0
M  V30 5043 H 495.253 4.22594 2.83358 0
M  V30 5044 H 494.651 2.14094 5.23622 0
M  V30 5045 H 493.208 2.81825 5.87723 0
M  V30 5046 N 496.642 -0.504142 1.49319 0
M  V30 5047 C 497.867 -1.28729 1.62615 0
M  V30 5048 C 498.292 -1.85752 0.296309 0
M  V30 5049 O 497.65 -1.65704 -0.735649 0
M  V30 5050 C 497.698 -2.39561 2.69524 0
M  V30 5051 O 496.802 -3.43324 2.28478 0
M  V30 5052 H 496.143 -0.380172 0.544395 0
M  V30 5053 H 498.673 -0.603872 1.95485 0
M  V30 5054 H 498.683 -2.8537 2.91595 0
M  V30 5055 H 497.358 -1.97423 3.66056 0
M  V30 5056 H 495.935 -3.03455 2.16725 0
M  V30 5057 N 498.12 -1.38341 -0.754957 0
M  V30 5058 C 499.07 -1.31964 -1.85929 0
M  V30 5059 C 500.054 -0.204181 -1.59599 0
M  V30 5060 O 501.246 -0.440036 -1.71443 0
M  V30 5061 C 498.375 -1.14565 -3.2362 0
M  V30 5062 C 497.461 -2.30727 -3.55846 0
M  V30 5063 N 497.852 -3.56165 -3.59138 0
M  V30 5064 C 496.15 -2.23249 -3.86104 0
M  V30 5065 C 496.851 -4.32865 -3.88591 0
M  V30 5066 N 495.827 -3.62203 -4.05351 0
M  V30 5067 H 499.629 -2.2694 -1.8675 0
M  V30 5068 H 497.143 -1.31553 -0.952243 0
M  V30 5069 H 499.14 -1.0808 -4.02647 0
M  V30 5070 H 497.8 -0.205212 -3.24051 0
M  V30 5071 H 498.811 -3.89854 -3.40932 0
M  V30 5072 H 495.488 -1.37357 -3.94258 0
M  V30 5073 H 496.878 -5.41504 -3.97773 0
M  V30 5074 N 499.598 0.982988 -1.23187 0
M  V30 5075 C 500.823 1.76455 -1.08988 0
M  V30 5076 C 501.248 1.84726 0.354691 0
M  V30 5077 O 500.606 1.30699 1.25649 0
M  V30 5078 C 500.654 3.17094 -1.71708 0
M  V30 5079 O 499.758 4.00648 -0.977477 0
M  V30 5080 H 499.099 0.542988 -0.382177 0
M  V30 5081 H 501.629 1.23413 -1.63188 0
M  V30 5082 H 501.639 3.67684 -1.76841 0
M  V30 5083 H 500.314 3.10389 -2.76823 0
M  V30 5084 H 498.891 3.59161 -1.0029 0
M  V30 5085 N 501.076 1.04316 1.18135 0
M  V30 5086 C 502.487 0.775505 1.69832 0
M  V30 5087 C 502.838 -0.703348 1.8316 0
M  V30 5088 O 501.963 -1.54729 1.51287 0
M  V30 5089 C 502.558 1.40112 3.0847 0
M  V30 5090 C 501.117 1.18172 3.57368 0
M  V30 5091 C 500.264 1.49022 2.33854 0
M  V30 5092 H 503.215 1.20925 1.02775 0
M  V30 5093 H 503.236 0.805672 3.71873 0
M  V30 5094 H 502.748 2.47744 2.98738 0
M  V30 5095 H 500.849 0.124258 3.72393 0
M  V30 5096 H 500.962 1.8805 4.40652 0
M  V30 5097 H 499.326 0.909995 2.37889 0
M  V30 5098 H 500.109 2.57768 2.26738 0
M  V30 5099 N 502.554 -1.34406 0.822964 0
M  V30 5100 C 503.965 -1.8069 0.469879 0
M  V30 5101 C 504.316 -1.68223 -1.00972 0
M  V30 5102 O 503.441 -1.22226 -1.78577 0
M  V30 5103 C 504.036 -3.28064 0.846118 0
M  V30 5104 C 502.595 -3.72428 0.545402 0
M  V30 5105 C 501.742 -2.56116 1.06301 0
M  V30 5106 H 504.693 -1.22153 1.01313 0
M  V30 5107 H 504.714 -3.80205 0.149922 0
M  V30 5108 H 504.226 -3.37107 1.92304 0
M  V30 5109 H 502.327 -3.68924 -0.522109 0
M  V30 5110 H 502.44 -4.66548 1.0895 0
M  V30 5111 H 500.804 -2.50048 0.484554 0
M  V30 5112 H 501.587 -2.67928 2.14638 0
M  V30 5113 N 504.032 -0.577932 -1.46621 0
M  V30 5114 C 505.443 -0.150071 -1.86096 0
M  V30 5115 C 505.794 1.28563 -1.48209 0
M  V30 5116 O 504.919 1.97036 -0.894754 0
M  V30 5117 C 505.514 -0.265576 -3.37758 0
M  V30 5118 C 504.073 0.10738 -3.76247 0
M  V30 5119 C 503.22 -0.603711 -2.70649 0
M  V30 5120 H 506.171 -0.786438 -1.37844 0
M  V30 5121 H 506.192 0.510352 -3.77062 0
M  V30 5122 H 505.704 -1.3106 -3.65301 0
M  V30 5123 H 503.805 1.15272 -3.54321 0
M  V30 5124 H 503.918 -0.26561 -4.78363 0
M  V30 5125 H 502.282 -0.0444884 -2.54661 0
M  V30 5126 H 503.065 -1.65029 -3.01032 0
M  V30 5127 N 505.51 1.54411 -0.315457 0
M  V30 5128 C 506.44 2.27002 0.547039 0
M  V30 5129 C 507.421 1.27492 1.12605 0
M  V30 5130 O 508.606 1.5629 1.15269 0
M  V30 5131 C 505.736 3.02171 1.71201 0
M  V30 5132 C 504.69 4.0895 1.26268 0
M  V30 5133 C 504.016 4.71915 2.51396 0
M  V30 5134 C 505.316 5.20891 0.383419 0
M  V30 5135 H 507.01 2.99343 -0.0584517 0
M  V30 5136 H 504.556 1.4397 -0.0295527 0
M  V30 5137 H 506.509 3.51681 2.32161 0
M  V30 5138 H 505.233 2.27433 2.34397 0
M  V30 5139 H 503.892 3.60312 0.676062 0
M  V30 5140 H 503.54 3.93801 3.12937 0
M  V30 5141 H 503.24 5.44039 2.22026 0
M  V30 5142 H 504.764 5.24195 3.13133 0
M  V30 5143 H 506.178 5.66206 0.899082 0
M  V30 5144 H 504.575 5.99821 0.182857 0
M  V30 5145 H 505.645 4.81324 -0.587821 0
M  V30 5146 N 506.988 0.0434614 1.5754 0
M  V30 5147 C 508.236 -0.630786 1.92004 0
M  V30 5148 C 508.557 -1.71836 0.921807 0
M  V30 5149 O 507.827 -1.9587 -0.034522 0
M  V30 5150 H 506.407 -0.235988 0.708745 0
M  V30 5151 H 509.069 0.0946462 1.9467 0
M  V30 5152 H 508.165 -1.07434 2.93026 0
M  V30 5153 N 508.466 -1.55915 -0.229846 0
M  V30 5154 C 509.713 -1.78542 -0.955452 0
M  V30 5155 C 510.041 -0.610785 -1.84661 0
M  V30 5156 O 509.296 0.405213 -1.91459 0
M  V30 5157 C 509.595 -3.06845 -1.8325 0
M  V30 5158 C 509.261 -4.37395 -1.09528 0
M  V30 5159 C 507.923 -4.72868 -0.891598 0
M  V30 5160 C 510.275 -5.18029 -0.574046 0
M  V30 5161 C 507.603 -5.86496 -0.154655 0
M  V30 5162 C 509.955 -6.32423 0.149513 0
M  V30 5163 C 508.619 -6.66504 0.364519 0
M  V30 5164 H 507.889 -0.653333 -0.349625 0
M  V30 5165 H 510.536 -1.90183 -0.224235 0
M  V30 5166 H 508.841 -2.90291 -2.63132 0
M  V30 5167 H 510.538 -3.21553 -2.39592 0
M  V30 5168 H 507.128 -4.09538 -1.26399 0
M  V30 5169 H 511.312 -4.91066 -0.718899 0
M  V30 5170 H 506.568 -6.11396 0.0222356 0
M  V30 5171 H 510.742 -6.94137 0.560947 0
M  V30 5172 H 508.369 -7.54397 0.937495 0
M  V30 5173 N 509.944 0.496216 -1.49584 0
M  V30 5174 C 510.876 1.61404 -1.62731 0
M  V30 5175 C 511.889 1.54613 -0.50978 0
M  V30 5176 O 513.078 1.60458 -0.782017 0
M  V30 5177 C 510.178 3.00212 -1.57245 0
M  V30 5178 C 509.351 3.32138 -2.84611 0
M  V30 5179 C 508.41 4.5038 -2.72112 0
M  V30 5180 O 507.436 4.51926 -3.46051 0
M  V30 5181 N 508.638 5.50575 -1.83977 0
M  V30 5182 H 511.403 1.50552 -2.59141 0
M  V30 5183 H 508.964 0.684182 -1.46733 0
M  V30 5184 H 510.956 3.77241 -1.4653 0
M  V30 5185 H 509.526 3.04964 -0.686729 0
M  V30 5186 H 508.746 2.4396 -3.09641 0
M  V30 5187 H 510.034 3.50268 -3.69039 0
M  V30 5188 H 509.432 5.52128 -1.23171 0
M  V30 5189 H 507.989 6.26687 -1.79182 0
M  V30 5190 N 511.423 1.38739 0.74761 0
M  V30 5191 C 512.669 1.35475 1.50912 0
M  V30 5192 C 513.002 -0.0533093 1.94127 0
M  V30 5193 O 512.277 -1.01572 1.65871 0
M  V30 5194 C 512.56 2.31582 2.75757 0
M  V30 5195 C 512.413 3.81274 2.38642 0
M  V30 5196 C 513.732 2.25722 3.77806 0
M  V30 5197 H 510.851 0.493427 0.547447 0
M  V30 5198 H 513.493 1.69634 0.855823 0
M  V30 5199 H 511.643 2.02582 3.31501 0
M  V30 5200 H 513.315 4.20972 1.88626 0
M  V30 5201 H 511.558 3.98664 1.71025 0
M  V30 5202 H 512.229 4.4399 3.27989 0
M  V30 5203 H 514.705 2.51336 3.31616 0
M  V30 5204 H 513.581 2.95069 4.62845 0
M  V30 5205 H 513.842 1.25803 4.23823 0
M  V30 5206 N 512.901 -0.976442 1.23707 0
M  V30 5207 C 514.149 -1.71487 1.06942 0
M  V30 5208 C 514.47 -1.9098 -0.393897 0
M  V30 5209 O 513.74 -1.48128 -1.28198 0
M  V30 5210 H 512.32 -0.635425 0.392739 0
M  V30 5211 H 514.982 -1.17515 1.55487 0
M  V30 5212 H 514.078 -2.70286 1.56051 0
M  V30 5213 N 514.379 -1.04941 -1.1758 0
M  V30 5214 C 515.312 -0.592518 -2.20373 0
M  V30 5215 C 516.29 0.377561 -1.58156 0
M  V30 5216 O 517.474 0.28978 -1.86259 0
M  V30 5217 C 514.601 0.133215 -3.38438 0
M  V30 5218 C 513.647 -0.791484 -4.19092 0
M  V30 5219 S 514.48 -2.27925 -4.84572 0
M  V30 5220 C 515.636 -1.56462 -6.06028 0
M  V30 5221 H 515.869 -1.46342 -2.58788 0
M  V30 5222 H 513.402 -0.861148 -1.28155 0
M  V30 5223 H 515.36 0.545746 -4.06856 0
M  V30 5224 H 514.021 0.980124 -2.98416 0
M  V30 5225 H 513.214 -0.230039 -5.03475 0
M  V30 5226 H 512.816 -1.14326 -3.56098 0
M  V30 5227 H 515.108 -0.862539 -6.71987 0
M  V30 5228 H 516.051 -2.38583 -6.66696 0
M  V30 5229 H 516.459 -1.05313 -5.5459 0
M  V30 5230 N 515.857 1.33968 -0.830081 0
M  V30 5231 C 516.804 2.29387 -0.255008 0
M  V30 5232 C 517.774 1.53923 0.624243 0
M  V30 5233 O 518.959 1.82262 0.564372 0
M  V30 5234 C 516.099 3.4034 0.571209 0
M  V30 5235 C 515.212 4.30729 -0.331083 0
M  V30 5236 C 514.347 5.2879 0.505389 0
M  V30 5237 C 513.386 6.10819 -0.395843 0
M  V30 5238 N 512.523 7.00948 0.401979 0
M  V30 5239 H 517.363 2.77972 -1.07404 0
M  V30 5240 H 514.9 1.36785 -0.541133 0
M  V30 5241 H 516.858 4.03361 1.06562 0
M  V30 5242 H 515.488 2.9297 1.35529 0
M  V30 5243 H 514.54 3.68507 -0.943759 0
M  V30 5244 H 515.852 4.88181 -1.02377 0
M  V30 5245 H 515.006 5.97297 1.06399 0
M  V30 5246 H 513.745 4.71894 1.23155 0
M  V30 5247 H 512.75 5.41238 -0.966529 0
M  V30 5248 H 513.975 6.69797 -1.12023 0
M  V30 5249 H 511.921 6.46512 1.11168 0
M  V30 5250 H 511.838 7.55643 -0.232167 0
M  V30 5251 H 513.106 7.73774 0.943102 0
M  V30 5252 N 517.335 0.585699 1.46312 0
M  V30 5253 C 518.265 -0.133556 2.33118 0
M  V30 5254 C 519.246 -0.880707 1.45525 0
M  V30 5255 O 520.431 -0.855579 1.74337 0
M  V30 5256 C 517.561 -1.14585 3.27853 0
M  V30 5257 C 516.515 -0.513341 4.2491 0
M  V30 5258 C 515.841 -1.63231 5.09175 0
M  V30 5259 C 517.141 0.551413 5.19381 0
M  V30 5260 H 518.835 0.59121 2.93505 0
M  V30 5261 H 516.381 0.285761 1.41136 0
M  V30 5262 H 518.334 -1.65741 3.87438 0
M  V30 5263 H 517.058 -1.90093 2.65579 0
M  V30 5264 H 515.717 -0.0228349 3.66593 0
M  V30 5265 H 515.365 -2.37713 4.43285 0
M  V30 5266 H 515.065 -1.21473 5.74907 0
M  V30 5267 H 516.589 -2.14658 5.71624 0
M  V30 5268 H 518.003 0.124804 5.73164 0
M  V30 5269 H 516.4 0.889486 5.93471 0
M  V30 5270 H 517.47 1.43655 4.63132 0
M  V30 5271 N 518.813 -1.54241 0.323641 0
M  V30 5272 C 519.723 -2.28033 -0.551205 0
M  V30 5273 C 520.739 -1.32388 -1.12913 0
M  V30 5274 O 521.915 -1.65403 -1.14908 0
M  V30 5275 C 518.98 -3.02382 -1.69606 0
M  V30 5276 C 518.041 -4.13612 -1.14993 0
M  V30 5277 C 517.274 -4.84407 -2.24022 0
M  V30 5278 O 517.497 -4.54716 -3.44368 0
M  V30 5279 O 516.431 -5.71312 -1.89436 0
M  V30 5280 H 520.257 -3.03662 0.048066 0
M  V30 5281 H 517.842 -1.49133 0.0893289 0
M  V30 5282 H 519.724 -3.48941 -2.36259 0
M  V30 5283 H 518.399 -2.29628 -2.28151 0
M  V30 5284 H 517.306 -3.71402 -0.448484 0
M  V30 5285 H 518.639 -4.8841 -0.609608 0
M  V30 5286 N 520.291 -0.0518155 -1.57515 0
M  V30 5287 C 521.254 0.907547 -2.10467 0
M  V30 5288 C 522.254 1.23947 -1.02439 0
M  V30 5289 O 523.444 1.17604 -1.2851 0
M  V30 5290 C 520.576 2.21723 -2.58944 0
M  V30 5291 H 521.769 0.44851 -2.96527 0
M  V30 5292 H 519.322 0.196598 -1.55059 0
M  V30 5293 H 520.057 2.72206 -1.76279 0
M  V30 5294 H 519.842 1.98935 -3.37886 0
M  V30 5295 H 521.332 2.90441 -3.00056 0
M  V30 5296 N 521.769 1.56035 0.221574 0
M  V30 5297 C 523.015 1.79312 0.947372 0
M  V30 5298 C 523.348 0.621453 1.83988 0
M  V30 5299 O 522.623 -0.379287 1.90766 0
M  V30 5300 C 522.906 3.1267 1.78633 0
M  V30 5301 C 522.759 4.40284 0.920312 0
M  V30 5302 C 524.078 3.4247 2.7641 0
M  V30 5303 H 521.197 0.652328 0.342982 0
M  V30 5304 H 523.839 1.88765 0.216244 0
M  V30 5305 H 521.989 3.04741 2.40967 0
M  V30 5306 H 523.661 4.60232 0.313718 0
M  V30 5307 H 521.904 4.33212 0.225734 0
M  V30 5308 H 522.575 5.30033 1.54171 0
M  V30 5309 H 525.051 3.50526 2.24211 0
M  V30 5310 H 523.927 4.3695 3.32213 0
M  V30 5311 H 524.188 2.64635 3.54148 0
M  V30 5312 N 523.247 -0.488276 1.49845 0
M  V30 5313 C 524.524 -1.24959 1.50481 0
M  V30 5314 C 524.904 -2.09735 0.239698 0
M  V30 5315 O 524.252 -2.14865 -0.777524 0
M  V30 5316 C 524.462 -2.0954 2.79095 0
M  V30 5317 C 525.81 -2.68305 3.29086 0
M  V30 5318 O 526.834 -2.19797 2.80299 0
M  V30 5319 O 525.693 -3.56643 4.14087 0
M  V30 5320 H 522.787 -0.566133 0.602845 0
M  V30 5321 H 525.333 -0.501504 1.6212 0
M  V30 5322 H 524.105 -1.46958 3.62656 0
M  V30 5323 H 523.728 -2.91517 2.70377 0
M  V30 5324 N 524.725 -1.39134 -0.740242 0
M  V30 5325 C 526.141 -1.20623 -1.0451 0
M  V30 5326 C 526.341 -0.0641651 -2.01398 0
M  V30 5327 O 525.397 0.585843 -2.4561 0
M  V30 5328 C 526.71 -2.53815 -1.6124 0
M  V30 5329 C 528.258 -2.60615 -1.73346 0
M  V30 5330 C 528.733 -3.94015 -2.33486 0
M  V30 5331 N 530.224 -3.95627 -2.40902 0
M  V30 5332 C 530.959 -4.95616 -2.88361 0
M  V30 5333 N 530.455 -6.06003 -3.35756 0
M  V30 5334 N 532.248 -4.82998 -2.87523 0
M  V30 5335 H 524.399 -2.12176 -0.0975576 0
M  V30 5336 H 526.662 -0.942066 -0.105904 0
M  V30 5337 H 526.368 -3.37911 -0.975144 0
M  V30 5338 H 526.242 -2.73162 -2.6012 0
M  V30 5339 H 528.629 -1.76906 -2.36195 0
M  V30 5340 H 528.71 -2.45123 -0.731336 0
M  V30 5341 H 528.354 -4.78153 -1.71267 0
M  V30 5342 H 528.284 -4.06825 -3.34366 0
M  V30 5343 H 530.775 -3.15903 -2.07398 0
M  V30 5344 H 531.088 -6.78215 -3.70464 0
M  V30 5345 H 529.433 -6.09604 -3.33778 0
M  V30 5346 H 532.624 -3.95866 -2.49816 0
M  V30 5347 H 532.797 -5.61072 -3.24196 0
M  V30 5348 N 526.204 0.969867 -1.24223 0
M  V30 5349 C 527.137 2.06279 -0.975926 0
M  V30 5350 C 528.115 1.62353 0.0895385 0
M  V30 5351 O 529.299 1.88442 -0.0469418 0
M  V30 5352 C 526.426 3.35391 -0.472315 0
M  V30 5353 C 525.472 3.98266 -1.526 0
M  V30 5354 S 526.305 4.36172 -3.10667 0
M  V30 5355 C 527.461 5.68423 -2.62003 0
M  V30 5356 H 527.694 2.28551 -1.90137 0
M  V30 5357 H 525.227 1.10748 -1.07584 0
M  V30 5358 H 527.185 4.10068 -0.188376 0
M  V30 5359 H 525.846 3.1111 0.432378 0
M  V30 5360 H 525.039 4.91307 -1.12399 0
M  V30 5361 H 524.641 3.30009 -1.75983 0
M  V30 5362 H 526.933 6.45842 -2.0468 0
M  V30 5363 H 527.876 6.13478 -3.53625 0
M  V30 5364 H 528.284 5.26928 -2.02502 0
M  V30 5365 N 527.682 1.05563 1.17022 0
M  V30 5366 C 528.63 0.653887 2.2322 0
M  V30 5367 C 529.624 -0.326642 1.66221 0
M  V30 5368 O 530.83 -0.192301 1.7897 0
M  V30 5369 H 527.205 0.193297 0.726733 0
M  V30 5370 H 529.176 1.5596 2.54399 0
M  V30 5371 C 527.925 0.0485434 3.47666 0
M  V30 5372 H 527.248 0.79413 3.91834 0
M  V30 5373 H 528.688 -0.195133 4.23551 0
M  V30 5374 C 527.147 -1.20583 3.14581 0
M  V30 5375 O 527.677 -2.29475 3.29703 0
M  V30 5376 N 525.883 -1.10493 2.68774 0
M  V30 5377 H 525.43 -0.218795 2.56669 0
M  V30 5378 H 525.388 -1.94507 2.47011 0
M  V30 5379 N 529.16 -1.33526 0.837174 0
M  V30 5380 C 530.571 -1.80182 0.489017 0
M  V30 5381 C 530.922 -1.69285 -0.991826 0
M  V30 5382 O 530.047 -1.24113 -1.77271 0
M  V30 5383 C 530.642 -3.27149 0.880866 0
M  V30 5384 C 529.201 -3.71828 0.584872 0
M  V30 5385 C 528.348 -2.54974 1.09011 0
M  V30 5386 H 531.299 -1.21071 1.02603 0
M  V30 5387 H 531.32 -3.80024 0.190239 0
M  V30 5388 H 530.832 -3.35048 1.95869 0
M  V30 5389 H 528.933 -3.69457 -0.48295 0
M  V30 5390 H 529.046 -4.65366 1.13892 0
M  V30 5391 H 527.41 -2.4952 0.511047 0
M  V30 5392 H 528.193 -2.65637 2.17467 0
M  V30 5393 N 530.638 -0.59345 -1.46 0
M  V30 5394 C 531.863 -0.0872365 -2.07216 0
M  V30 5395 C 532.288 1.2131 -1.43755 0
M  V30 5396 O 531.646 1.73528 -0.525152 0
M  V30 5397 C 531.694 0.0538197 -3.6056 0
M  V30 5398 O 530.798 1.10765 -3.97247 0
M  V30 5399 H 530.139 -0.0676598 -0.660544 0
M  V30 5400 H 532.669 -0.819445 -1.87473 0
M  V30 5401 H 532.679 0.256567 -4.07193 0
M  V30 5402 H 531.354 -0.895739 -4.0614 0
M  V30 5403 H 529.931 0.882501 -3.62307 0
M  V30 5404 N 532.116 1.54067 -0.331816 0
M  V30 5405 C 533.046 2.27569 0.522932 0
M  V30 5406 C 534.027 1.28679 1.11247 0
M  V30 5407 O 535.212 1.57504 1.13605 0
M  V30 5408 C 532.342 3.0397 1.67987 0
M  V30 5409 C 531.296 4.10267 1.21924 0
M  V30 5410 C 530.622 4.74555 2.46377 0
M  V30 5411 C 531.922 5.21268 0.32815 0
M  V30 5412 H 533.616 2.99264 -0.0901977 0
M  V30 5413 H 531.162 1.4393 -0.044821 0
M  V30 5414 H 533.115 3.54123 2.28418 0
M  V30 5415 H 531.839 2.29906 2.31971 0
M  V30 5416 H 530.498 3.61009 0.637809 0
M  V30 5417 H 530.146 3.97098 3.08743 0
M  V30 5418 H 529.846 5.46363 2.16243 0
M  V30 5419 H 531.37 5.27487 3.07555 0
M  V30 5420 H 532.784 5.67128 0.838978 0
M  V30 5421 H 531.181 5.99982 0.119228 0
M  V30 5422 H 532.251 4.80673 -0.638839 0
M  V30 5423 N 533.594 0.0601682 1.57485 0
M  V30 5424 C 534.84 -0.612501 1.93329 0
M  V30 5425 C 535.173 -1.6996 0.939526 0
M  V30 5426 O 534.448 -1.94472 -0.0330957 0
M  V30 5427 C 534.731 -1.20025 3.39508 0
M  V30 5428 C 534.584 -0.12059 4.49638 0
M  V30 5429 C 535.903 -2.10923 3.86264 0
M  V30 5430 H 533.022 -0.221185 0.703027 0
M  V30 5431 H 535.664 0.123768 1.89596 0
M  V30 5432 H 533.814 -1.82774 3.42821 0
M  V30 5433 H 535.486 0.51185 4.58452 0
M  V30 5434 H 533.729 0.550251 4.30296 0
M  V30 5435 H 534.4 -0.572019 5.49028 0
M  V30 5436 H 536.876 -1.58124 3.84884 0
M  V30 5437 H 535.752 -2.48987 4.8918 0
M  V30 5438 H 536.013 -3.01292 3.23536 0
M  V30 5439 N 535.072 -1.5615 -0.213296 0
M  V30 5440 C 536.312 -1.81325 -0.943435 0
M  V30 5441 C 536.676 -0.634934 -1.81198 0
M  V30 5442 O 537.877 -0.766166 -2.5765 0
M  V30 5443 C 536.148 -3.11437 -1.75334 0
M  V30 5444 S 537.707 -3.57955 -2.53799 0
M  V30 5445 H 534.525 -0.636538 -0.316766 0
M  V30 5446 H 537.127 -1.94387 -0.208313 0
M  V30 5447 H 535.831 -3.95228 -1.10556 0
M  V30 5448 H 535.362 -3.01204 -2.53061 0
M  V30 5449 H 537.377 -3.21947 -3.77577 0
M  V30 5450 N 536.55 0.480323 -1.50102 0
M  V30 5451 C 537.796 1.23489 -1.60867 0
M  V30 5452 C 538.129 1.91809 -0.303827 0
M  V30 5453 O 537.404 1.81694 0.694092 0
M  V30 5454 C 537.687 2.28578 -2.78252 0
M  V30 5455 C 537.54 1.64624 -4.18592 0
M  V30 5456 C 538.859 3.2997 -2.91218 0
M  V30 5457 H 535.978 0.447605 -0.585507 0
M  V30 5458 H 538.62 0.530005 -1.82458 0
M  V30 5459 H 536.77 2.88697 -2.59974 0
M  V30 5460 H 538.442 1.08173 -4.48438 0
M  V30 5461 H 536.685 0.949645 -4.23278 0
M  V30 5462 H 537.356 2.40946 -4.96638 0
M  V30 5463 H 539.832 2.79864 -3.07921 0
M  V30 5464 H 538.708 4.00839 -3.74993 0
M  V30 5465 H 538.969 3.93541 -2.0144 0
M  V30 5466 N 538.028 1.39524 0.732853 0
M  V30 5467 C 538.991 1.38189 1.82857 0
M  V30 5468 C 539.991 0.278624 1.58368 0
M  V30 5469 O 541.181 0.536639 1.65728 0
M  V30 5470 C 538.313 1.15661 3.2068 0
M  V30 5471 H 539.506 2.35692 1.85444 0
M  V30 5472 H 537.059 1.2512 0.936728 0
M  V30 5473 H 537.794 0.188482 3.23752 0
M  V30 5474 H 537.579 1.95559 3.39852 0
M  V30 5475 H 539.069 1.17472 4.00737 0
M  V30 5476 N 539.506 -0.963266 1.24736 0
M  V30 5477 C 540.731 -1.74699 1.11781 0
M  V30 5478 C 541.156 -1.85267 -0.325258 0
M  V30 5479 O 540.514 -1.32681 -1.23553 0
M  V30 5480 C 540.562 -3.14322 1.76731 0
M  V30 5481 O 539.666 -3.99043 1.04109 0
M  V30 5482 H 539.007 -0.53684 0.390767 0
M  V30 5483 H 541.537 -1.20801 1.65131 0
M  V30 5484 H 541.547 -3.64824 1.82668 0
M  V30 5485 H 540.222 -3.05946 2.81726 0
M  V30 5486 H 538.799 -3.5752 1.05991 0
M  V30 5487 N 540.985 -1.06182 -1.16461 0
M  V30 5488 C 542.231 -0.779015 -1.87241 0
M  V30 5489 C 542.564 0.692715 -1.81425 0
M  V30 5490 O 541.839 1.5074 -1.22913 0
M  V30 5491 C 542.122 -1.2728 -3.36856 0
M  V30 5492 C 541.975 -2.80821 -3.51368 0
M  V30 5493 C 543.294 -0.879799 -4.31216 0
M  V30 5494 H 540.413 -0.284464 -0.679889 0
M  V30 5495 H 543.055 -1.31755 -1.36896 0
M  V30 5496 H 541.205 -0.814673 -3.79862 0
M  V30 5497 H 542.877 -3.34833 -3.17308 0
M  V30 5498 H 541.12 -3.19606 -2.93316 0
M  V30 5499 H 541.791 -3.10435 -4.56436 0
M  V30 5500 H 544.267 -1.27436 -3.96105 0
M  V30 5501 H 543.143 -1.25278 -5.34412 0
M  V30 5502 H 543.404 0.215372 -4.41575 0
M  V30 5503 N 542.463 1.3308 -0.844243 0
M  V30 5504 C 543.691 2.01808 -0.456203 0
M  V30 5505 C 544.106 1.63498 0.944131 0
M  V30 5506 O 543.463 0.85102 1.61443 0
M  V30 5507 C 543.514 3.56922 -0.573513 0
M  V30 5508 O 543.235 3.93851 -1.91868 0
M  V30 5509 C 544.736 4.42922 -0.183125 0
M  V30 5510 H 541.956 0.646273 -0.180477 0
M  V30 5511 H 544.5 1.69891 -1.1383 0
M  V30 5512 H 542.655 3.87352 0.0607367 0
M  V30 5513 H 543.069 4.88564 -1.90802 0
M  V30 5514 H 544.543 5.51093 -0.316241 0
M  V30 5515 H 545.02 4.30386 0.875477 0
M  V30 5516 H 545.626 4.1786 -0.792027 0
M  V30 5517 N 543.941 0.601185 1.45683 0
M  V30 5518 C 545.218 0.0261659 1.95582 0
M  V30 5519 C 545.598 -1.4399 1.5437 0
M  V30 5520 O 544.946 -2.13919 0.80318 0
M  V30 5521 C 545.156 0.217557 3.48321 0
M  V30 5522 C 546.504 0.0950076 4.24494 0
M  V30 5523 O 547.528 0.147345 3.55895 0
M  V30 5524 O 546.387 -0.025261 5.46494 0
M  V30 5525 H 543.481 -0.0393688 0.826062 0
M  V30 5526 H 546.027 0.670798 1.55879 0
M  V30 5527 H 544.799 1.23601 3.71266 0
M  V30 5528 H 544.422 -0.46264 3.94899 0
M  V30 5529 N 545.419 -1.53889 0.339982 0
M  V30 5530 C 546.665 -2.01152 -0.258003 0
M  V30 5531 C 546.998 -1.22749 -1.50487 0
M  V30 5532 O 546.273 -0.314156 -1.91946 0
M  V30 5533 C 546.556 -3.55468 -0.575717 0
M  V30 5534 C 546.409 -4.44584 0.682996 0
M  V30 5535 C 547.728 -4.1768 -1.38677 0
M  V30 5536 H 544.847 -0.731198 -0.0922992 0
M  V30 5537 H 547.489 -1.84352 0.459814 0
M  V30 5538 H 545.639 -3.69914 -1.18725 0
M  V30 5539 H 547.311 -4.41981 1.32102 0
M  V30 5540 H 545.554 -4.13592 1.3086 0
M  V30 5541 H 546.225 -5.5043 0.416001 0
M  V30 5542 H 548.701 -4.0691 -0.869705 0
M  V30 5543 H 547.577 -5.25734 -1.57783 0
M  V30 5544 H 547.838 -3.72069 -2.38782 0
M  V30 5545 N 546.897 -0.0685191 -1.57451 0
M  V30 5546 C 548.143 0.602239 -1.93652 0
M  V30 5547 C 548.476 1.6946 -0.948526 0
M  V30 5548 O 547.751 1.94487 0.022782 0
M  V30 5549 C 548.034 1.18223 -3.4014 0
M  V30 5550 C 547.887 0.0967431 -4.49696 0
M  V30 5551 C 549.206 2.08872 -3.87377 0
M  V30 5552 H 546.325 0.217453 -0.70419 0
M  V30 5553 H 548.967 -0.133821 -1.89528 0
M  V30 5554 H 547.117 1.80953 -3.43785 0
M  V30 5555 H 548.789 -0.536155 -4.58174 0
M  V30 5556 H 547.032 -0.573063 -4.29998 0
M  V30 5557 H 547.703 0.542894 -5.49324 0
M  V30 5558 H 550.179 1.56081 -3.85717 0
M  V30 5559 H 549.055 2.46389 -4.90493 0
M  V30 5560 H 549.316 2.99572 -3.25129 0
M  V30 5561 N 548.375 1.56261 0.205012 0
M  V30 5562 C 549.652 1.70856 0.952233 0
M  V30 5563 C 550.032 0.620501 2.01775 0
M  V30 5564 O 549.38 -0.370035 2.25484 0
M  V30 5565 C 549.59 3.12807 1.54767 0
M  V30 5566 C 550.938 3.72733 2.0336 0
M  V30 5567 O 551.962 3.15873 1.64629 0
M  V30 5568 O 550.821 4.72501 2.746 0
M  V30 5569 H 547.915 0.696496 0.445895 0
M  V30 5570 H 550.461 1.6857 0.195489 0
M  V30 5571 H 549.233 3.83465 0.779132 0
M  V30 5572 H 548.856 3.1928 2.36951 0
M  V30 5573 N 549.853 -0.472356 1.50355 0
M  V30 5574 C 551.078 -1.25251 1.65309 0
M  V30 5575 C 551.503 -1.85081 0.335643 0
M  V30 5576 O 550.861 -1.67227 -0.700335 0
M  V30 5577 C 550.909 -2.3379 2.74544 0
M  V30 5578 O 550.013 -3.38401 2.35709 0
M  V30 5579 H 549.354 -0.368539 0.552336 0
M  V30 5580 H 551.884 -0.562271 1.96722 0
M  V30 5581 H 551.894 -2.79121 2.97583 0
M  V30 5582 H 550.569 -1.89614 3.70161 0
M  V30 5583 H 549.146 -2.9879 2.23112 0
M  V30 5584 N 551.331 -1.39911 -0.725443 0
M  V30 5585 C 552.747 -1.21725 -1.03224 0
M  V30 5586 C 552.947 -0.0855224 -2.01318 0
M  V30 5587 O 552.003 0.55976 -2.46217 0
M  V30 5588 C 553.316 -2.55511 -1.58539 0
M  V30 5589 C 554.864 -2.62439 -1.70572 0
M  V30 5590 C 555.339 -3.9647 -2.29294 0
M  V30 5591 N 556.83 -3.98159 -2.36692 0
M  V30 5592 C 557.565 -4.98647 -2.83088 0
M  V30 5593 N 557.061 -6.0953 -3.2931 0
M  V30 5594 N 558.854 -4.8602 -2.82384 0
M  V30 5595 H 551.005 -2.12267 -0.075048 0
M  V30 5596 H 553.268 -0.943136 -0.0959066 0
M  V30 5597 H 552.974 -3.38926 -0.939249 0
M  V30 5598 H 552.848 -2.75905 -2.57208 0
M  V30 5599 H 555.235 -1.79401 -2.34306 0
M  V30 5600 H 555.316 -2.45885 -0.705297 0
M  V30 5601 H 554.96 -4.79942 -1.66186 0
M  V30 5602 H 554.89 -4.10349 -3.30032 0
M  V30 5603 H 557.381 -3.18085 -2.04035 0
M  V30 5604 H 557.694 -6.82106 -3.6325 0
M  V30 5605 H 556.039 -6.1311 -3.27294 0
M  V30 5606 H 559.23 -3.98493 -2.45603 0
M  V30 5607 H 559.403 -5.64478 -3.18226 0
M  V30 5608 N 552.809 0.956637 -1.25245 0
M  V30 5609 C 554.056 1.701 -1.09874 0
M  V30 5610 C 554.384 1.91128 0.36062 0
M  V30 5611 O 553.639 1.47837 1.28229 0
M  V30 5612 C 553.938 3.08996 -1.79601 0
M  V30 5613 C 553.604 3.07774 -3.29523 0
M  V30 5614 C 552.266 3.07149 -3.70423 0
M  V30 5615 C 554.618 3.01257 -4.25316 0
M  V30 5616 C 551.946 2.97752 -5.0553 0
M  V30 5617 C 554.298 2.93403 -5.60444 0
M  V30 5618 C 552.962 2.91111 -6.00675 0
M  V30 5619 H 552.232 0.62244 -0.402056 0
M  V30 5620 H 554.879 1.1178 -1.55491 0
M  V30 5621 H 553.184 3.70848 -1.26408 0
M  V30 5622 H 554.881 3.65407 -1.65162 0
M  V30 5623 H 551.471 3.09032 -2.9698 0
M  V30 5624 H 555.655 3.00861 -3.9471 0
M  V30 5625 H 550.911 2.94346 -5.35883 0
M  V30 5626 H 555.085 2.87321 -6.34366 0
M  V30 5627 H 552.712 2.83586 -7.05325 0
M  V30 5628 N 554.287 1.06798 1.15896 0
M  V30 5629 C 555.217 0.704677 2.22613 0
M  V30 5630 C 556.198 -0.305252 1.67339 0
M  V30 5631 O 557.383 -0.179247 1.93371 0
M  V30 5632 C 554.513 0.0957325 3.47168 0
M  V30 5633 C 553.467 1.0322 4.15367 0
M  V30 5634 C 552.793 0.286293 5.33933 0
M  V30 5635 C 554.093 2.36341 4.65768 0
M  V30 5636 H 555.787 1.59688 2.53259 0
M  V30 5637 H 553.333 0.769257 1.21731 0
M  V30 5638 H 555.286 -0.170333 4.21056 0
M  V30 5639 H 554.01 -0.831516 3.15838 0
M  V30 5640 H 552.669 1.28309 3.43413 0
M  V30 5641 H 552.317 -0.644237 4.98857 0
M  V30 5642 H 552.017 0.910436 5.80504 0
M  V30 5643 H 553.541 0.0278938 6.10594 0
M  V30 5644 H 554.955 2.1561 5.31211 0
M  V30 5645 H 553.352 2.94299 5.2298 0
M  V30 5646 H 554.422 2.99047 3.81705 0
M  V30 5647 N 555.766 -1.3263 0.851289 0
M  V30 5648 C 557.012 -1.9766 0.453694 0
M  V30 5649 C 557.345 -1.67225 -0.987396 0
M  V30 5650 O 556.62 -0.958693 -1.69232 0
M  V30 5651 C 556.903 -3.5344 0.68936 0
M  V30 5652 C 556.756 -3.93517 2.17862 0
M  V30 5653 C 558.075 -4.39866 0.143555 0
M  V30 5654 H 555.194 -0.717989 0.166314 0
M  V30 5655 H 557.836 -1.57068 1.06909 0
M  V30 5656 H 555.986 -3.88147 0.165546 0
M  V30 5657 H 557.658 -3.69006 2.76826 0
M  V30 5658 H 555.901 -3.42798 2.65841 0
M  V30 5659 H 556.572 -5.02065 2.29422 0
M  V30 5660 H 559.048 -4.11875 0.591451 0
M  V30 5661 H 557.924 -5.47858 0.338043 0
M  V30 5662 H 558.185 -4.31696 -0.953466 0
M  V30 5663 N 557.244 -0.608902 -1.45362 0
M  V30 5664 C 558.194 0.130616 -2.27626 0
M  V30 5665 C 559.178 0.837323 -1.37396 0
M  V30 5666 O 560.37 0.727096 -1.61376 0
M  V30 5667 C 557.499 1.12646 -3.24293 0
M  V30 5668 C 556.585 0.42052 -4.2201 0
M  V30 5669 N 556.976 -0.538569 -5.02925 0
M  V30 5670 C 555.274 0.667901 -4.40971 0
M  V30 5671 C 555.975 -0.953625 -5.7383 0
M  V30 5672 N 554.951 -0.297097 -5.42788 0
M  V30 5673 H 558.753 -0.605996 -2.87585 0
M  V30 5674 H 556.267 -0.432672 -1.5653 0
M  V30 5675 H 558.264 1.67066 -3.81961 0
M  V30 5676 H 556.924 1.86361 -2.65894 0
M  V30 5677 H 557.935 -0.915375 -5.09746 0
M  V30 5678 H 554.612 1.38963 -3.93695 0
M  V30 5679 H 556.002 -1.74473 -6.48852 0
M  V30 5680 N 558.722 1.53707 -0.348139 0
M  V30 5681 C 559.969 2.00988 0.246966 0
M  V30 5682 C 560.297 1.23586 1.50189 0
M  V30 5683 O 559.552 0.312817 1.93184 0
M  V30 5684 C 559.851 3.52292 0.602061 0
M  V30 5685 C 559.517 4.47453 -0.556509 0
M  V30 5686 C 558.179 4.73188 -0.874446 0
M  V30 5687 C 560.531 5.03851 -1.33354 0
M  V30 5688 C 557.859 5.52577 -1.9717 0
M  V30 5689 C 560.211 5.84437 -2.42108 0
M  V30 5690 C 558.875 6.08465 -2.74456 0
M  V30 5691 H 558.145 0.735469 0.0903712 0
M  V30 5692 H 560.792 1.85464 -0.477001 0
M  V30 5693 H 559.097 3.65672 1.40681 0
M  V30 5694 H 560.794 3.86337 1.07447 0
M  V30 5695 H 557.384 4.27558 -0.298652 0
M  V30 5696 H 561.568 4.8393 -1.10117 0
M  V30 5697 H 556.824 5.69418 -2.22651 0
M  V30 5698 H 560.998 6.27151 -3.02745 0
M  V30 5699 H 558.625 6.69768 -3.59604 0
M  V30 5700 N 560.2 0.0768682 1.57412 0
M  V30 5701 C 561.477 -0.632359 1.85096 0
M  V30 5702 C 561.857 -1.87479 0.9703 0
M  V30 5703 O 561.205 -2.28469 0.0379062 0
M  V30 5704 C 561.415 -0.965174 3.35388 0
M  V30 5705 C 562.763 -1.33648 4.03018 0
M  V30 5706 O 563.787 -1.05675 3.40164 0
M  V30 5707 O 562.646 -1.85959 5.13889 0
M  V30 5708 H 559.74 -0.314574 0.764835 0
M  V30 5709 H 562.286 0.108184 1.69355 0
M  V30 5710 H 561.058 -0.0829745 3.91212 0
M  V30 5711 H 560.681 -1.76231 3.5641 0
M  V30 5712 N 561.678 -1.56367 -0.196722 0
M  V30 5713 C 562.626 -1.95304 -1.2633 0
M  V30 5714 C 563.62 -0.838252 -1.47206 0
M  V30 5715 O 564.826 -1.02325 -1.48087 0
M  V30 5716 H 561.201 -0.621013 -0.424083 0
M  V30 5717 H 563.172 -2.84254 -0.907879 0
M  V30 5718 C 561.921 -2.3074 -2.60104 0
M  V30 5719 H 561.244 -3.16047 -2.44856 0
M  V30 5720 H 562.684 -2.61849 -3.33484 0
M  V30 5721 C 561.143 -1.14143 -3.16975 0
M  V30 5722 O 561.673 -0.415602 -3.99544 0
M  V30 5723 N 559.879 -0.91867 -2.75697 0
M  V30 5724 H 559.426 -1.51065 -2.08656 0
M  V30 5725 H 559.384 -0.140321 -3.14087 0
M  V30 5726 N 563.156 0.464375 -1.50603 0
M  V30 5727 C 564.402 1.21485 -1.63135 0
M  V30 5728 C 564.757 1.89538 -0.33063 0
M  V30 5729 O 564.05 1.79432 0.671903 0
M  V30 5730 C 564.244 2.278 -2.75394 0
M  V30 5731 C 564.073 1.70178 -4.16257 0
M  V30 5732 C 562.843 1.49854 -4.82568 0
M  V30 5733 C 565.041 1.19298 -5.00272 0
M  V30 5734 N 563.023 0.875458 -6.07626 0
M  V30 5735 C 564.394 0.693527 -6.16109 0
M  V30 5736 C 566.449 1.08216 -4.85998 0
M  V30 5737 C 565.152 0.0941808 -7.19238 0
M  V30 5738 C 567.178 0.496745 -5.8931 0
M  V30 5739 C 566.54 0.00770448 -7.044 0
M  V30 5740 H 562.639 0.433184 -0.651057 0
M  V30 5741 H 565.223 0.515748 -1.87745 0
M  V30 5742 H 563.394 2.95129 -2.52495 0
M  V30 5743 H 565.126 2.94814 -2.77249 0
M  V30 5744 H 561.881 1.75269 -4.39975 0
M  V30 5745 H 562.305 0.582135 -6.74493 0
M  V30 5746 H 566.947 1.44617 -3.97298 0
M  V30 5747 H 564.665 -0.28202 -8.07608 0
M  V30 5748 H 568.251 0.413275 -5.8033 0
M  V30 5749 H 567.131 -0.438188 -7.82975 0
M  V30 5750 N 564.634 1.40294 0.718013 0
M  V30 5751 C 565.911 1.2894 1.47084 0
M  V30 5752 C 566.291 -0.0933625 2.10893 0
M  V30 5753 O 565.639 -1.10598 1.99951 0
M  V30 5754 C 565.849 2.4264 2.50852 0
M  V30 5755 C 567.197 2.8276 3.16752 0
M  V30 5756 O 568.221 2.42215 2.61171 0
M  V30 5757 O 567.08 3.528 4.17366 0
M  V30 5758 H 564.174 0.506236 0.653952 0
M  V30 5759 H 566.72 1.52208 0.750394 0
M  V30 5760 H 565.492 3.35009 2.022 0
M  V30 5761 H 565.115 2.21129 3.30435 0
M  V30 5762 N 566.112 -0.949982 1.2575 0
M  V30 5763 C 567.389 -1.6718 1.01539 0
M  V30 5764 C 567.769 -2.06095 -0.456942 0
M  V30 5765 O 567.117 -1.77792 -1.43534 0
M  V30 5766 C 567.327 -2.8906 1.95564 0
M  V30 5767 C 568.675 -3.60909 2.23673 0
M  V30 5768 O 569.699 -2.9915 1.9336 0
M  V30 5769 O 568.558 -4.72127 2.75243 0
M  V30 5770 H 565.652 -0.731697 0.385419 0
M  V30 5771 H 568.198 -1.00249 1.36924 0
M  V30 5772 H 566.97 -2.57128 2.94959 0
M  V30 5773 H 566.593 -3.63719 1.60605 0
M  V30 5774 N 567.59 -1.07411 -1.15328 0
M  V30 5775 C 568.818 -0.818782 -1.90009 0
M  V30 5776 C 569.233 0.628072 -1.78047 0
M  V30 5777 O 568.59 1.43085 -1.13282 0
M  V30 5778 C 568.641 -1.21874 -3.40337 0
M  V30 5779 O 568.362 -2.60883 -3.51954 0
M  V30 5780 C 569.863 -0.992796 -4.3204 0
M  V30 5781 H 567.083 -0.296007 -0.60218 0
M  V30 5782 H 569.627 -1.43073 -1.46117 0
M  V30 5783 H 567.782 -0.651103 -3.81889 0
M  V30 5784 H 568.196 -2.77216 -4.45255 0
M  V30 5785 H 569.67 -1.32215 -5.35932 0
M  V30 5786 H 570.147 0.0708331 -4.39143 0
M  V30 5787 H 570.753 -1.54537 -3.9623 0
M  V30 5788 N 569.068 1.32177 -0.85831 0
M  V30 5789 C 570.298 2.01021 -0.476889 0
M  V30 5790 C 570.706 1.64653 0.931995 0
M  V30 5791 O 570.049 0.865713 1.62022 0
M  V30 5792 C 570.111 3.55413 -0.540528 0
M  V30 5793 C 569.775 4.1522 -1.90895 0
M  V30 5794 C 570.772 4.3318 -2.87491 0
M  V30 5795 C 568.457 4.51212 -2.20709 0
M  V30 5796 C 570.451 4.86306 -4.1205 0
M  V30 5797 C 568.138 5.04042 -3.45521 0
M  V30 5798 C 569.136 5.21538 -4.41007 0
M  V30 5799 O 568.824 5.73238 -5.63608 0
M  V30 5800 H 568.556 0.650059 -0.18547 0
M  V30 5801 H 571.11 1.69648 -1.15796 0
M  V30 5802 H 569.34 3.86196 0.19741 0
M  V30 5803 H 571.029 4.05526 -0.174191 0
M  V30 5804 H 571.795 4.05704 -2.65762 0
M  V30 5805 H 567.674 4.36878 -1.4717 0
M  V30 5806 H 571.218 4.99877 -4.86589 0
M  V30 5807 H 567.115 5.30952 -3.67098 0
M  V30 5808 H 567.883 5.91625 -5.65617 0
M  V30 5809 N 570.547 0.616602 1.45037 0
M  V30 5810 C 571.824 0.0469086 1.95544 0
M  V30 5811 C 572.204 -1.42345 1.55888 0
M  V30 5812 O 571.552 -2.13055 0.825824 0
M  V30 5813 C 571.762 0.254489 3.48071 0
M  V30 5814 C 573.11 0.140025 4.24369 0
M  V30 5815 O 574.134 0.185084 3.55719 0
M  V30 5816 O 572.993 0.0327034 5.4649 0
M  V30 5817 H 570.087 -0.0306051 0.826433 0
M  V30 5818 H 572.633 0.687293 1.55159 0
M  V30 5819 H 571.405 1.27532 3.69934 0
M  V30 5820 H 571.028 -0.42073 3.95368 0
M  V30 5821 N 572.025 -1.5352 0.356285 0
M  V30 5822 C 573.255 -2.05236 -0.236983 0
M  V30 5823 C 573.663 -1.23016 -1.43749 0
M  V30 5824 O 573.006 -0.2615 -1.81829 0
M  V30 5825 C 573.068 -3.52549 -0.7035 0
M  V30 5826 C 572.732 -4.55425 0.379059 0
M  V30 5827 C 573.729 -5.0524 1.22592 0
M  V30 5828 C 571.414 -4.99425 0.536638 0
M  V30 5829 C 573.408 -5.97647 2.21578 0
M  V30 5830 C 571.095 -5.9164 1.52988 0
M  V30 5831 C 572.093 -6.4064 2.3679 0
M  V30 5832 O 571.781 -7.31039 3.34421 0
M  V30 5833 H 571.513 -0.674346 -0.047254 0
M  V30 5834 H 574.067 -1.98962 0.510238 0
M  V30 5835 H 572.297 -3.56331 -1.50217 0
M  V30 5836 H 573.986 -3.87171 -1.21873 0
M  V30 5837 H 574.752 -4.72002 1.11532 0
M  V30 5838 H 570.631 -4.60879 -0.105834 0
M  V30 5839 H 574.175 -6.35816 2.87025 0
M  V30 5840 H 570.072 -6.24293 1.64099 0
M  V30 5841 H 570.84 -7.49009 3.30041 0
M  V30 5842 N 573.503 -0.0852151 -1.57369 0
M  V30 5843 C 574.749 0.575588 -1.95086 0
M  V30 5844 C 575.104 1.66402 -0.96582 0
M  V30 5845 O 574.397 1.91598 0.00978463 0
M  V30 5846 C 574.591 1.18482 -3.3719 0
M  V30 5847 C 574.42 0.156928 -4.49426 0
M  V30 5848 C 573.19 -0.263126 -5.04614 0
M  V30 5849 C 575.388 -0.611068 -5.10657 0
M  V30 5850 N 573.37 -1.28032 -6.00401 0
M  V30 5851 C 574.741 -1.48036 -6.02068 0
M  V30 5852 C 576.796 -0.665669 -4.9343 0
M  V30 5853 C 575.499 -2.39943 -6.781 0
M  V30 5854 C 577.525 -1.5723 -5.70116 0
M  V30 5855 C 576.887 -2.42924 -6.61186 0
M  V30 5856 H 572.986 0.181249 -0.760705 0
M  V30 5857 H 575.57 -0.165484 -1.93995 0
M  V30 5858 H 573.741 1.89575 -3.38992 0
M  V30 5859 H 575.473 1.80718 -3.62109 0
M  V30 5860 H 572.228 0.122664 -4.73441 0
M  V30 5861 H 572.652 -1.78682 -6.52994 0
M  V30 5862 H 577.294 -0.0173214 -4.22796 0
M  V30 5863 H 575.012 -3.05807 -7.48002 0
M  V30 5864 H 578.598 -1.61956 -5.58804 0
M  V30 5865 H 577.478 -3.1194 -7.19488 0
M  V30 5866 N 574.981 1.5647 0.188427 0
M  V30 5867 C 576.221 1.82803 0.914469 0
M  V30 5868 C 576.585 0.663681 1.80165 0
M  V30 5869 O 577.786 0.807059 2.56398 0
M  V30 5870 C 576.057 3.14187 1.70357 0
M  V30 5871 S 577.616 3.61947 2.48072 0
M  V30 5872 H 574.434 0.641497 0.306599 0
M  V30 5873 H 577.036 1.94694 0.177361 0
M  V30 5874 H 575.74 3.96937 1.04255 0
M  V30 5875 H 575.271 3.05192 2.48237 0
M  V30 5876 H 577.286 3.27913 3.72407 0
M  V30 5877 N 576.459 -0.456382 1.50847 0
M  V30 5878 C 577.736 -1.21739 1.53098 0
M  V30 5879 C 578.116 -2.09179 0.284132 0
M  V30 5880 O 577.464 -2.16466 -0.731773 0
M  V30 5881 C 577.674 -2.03573 2.83477 0
M  V30 5882 C 579.022 -2.61264 3.34703 0
M  V30 5883 O 580.046 -2.13802 2.84898 0
M  V30 5884 O 578.905 -3.47779 4.21559 0
M  V30 5885 H 575.999 -0.553219 0.614718 0
M  V30 5886 H 578.545 -0.467003 1.63148 0
M  V30 5887 H 577.317 -1.39232 3.65691 0
M  V30 5888 H 576.94 -2.85716 2.76499 0
M  V30 5889 N 577.937 -1.40673 -0.710563 0
M  V30 5890 C 579.348 -1.34975 -1.28991 0
M  V30 5891 C 579.699 -0.0256272 -1.96183 0
M  V30 5892 O 578.824 0.876339 -1.97862 0
M  V30 5893 C 579.419 -2.44467 -2.34567 0
M  V30 5894 C 577.978 -2.42213 -2.88114 0
M  V30 5895 C 577.125 -2.25085 -1.61963 0
M  V30 5896 H 580.076 -1.50406 -0.506343 0
M  V30 5897 H 580.097 -2.12663 -3.15523 0
M  V30 5898 H 579.609 -3.40825 -1.85634 0
M  V30 5899 H 577.71 -1.49568 -3.41263 0
M  V30 5900 H 577.823 -3.37983 -3.39565 0
M  V30 5901 H 576.187 -1.72691 -1.87216 0
M  V30 5902 H 576.97 -3.23449 -1.15047 0
M  V30 5903 N 579.415 0.9433 -1.26252 0
M  V30 5904 C 580.64 1.72898 -1.14547 0
M  V30 5905 C 581.065 1.85761 0.295743 0
M  V30 5906 O 580.423 1.3463 1.21427 0
M  V30 5907 C 580.471 3.11471 -1.8171 0
M  V30 5908 O 579.575 3.97336 -1.10445 0
M  V30 5909 H 578.916 0.530555 -0.399259 0
M  V30 5910 H 581.446 1.18159 -1.67032 0
M  V30 5911 H 581.456 3.61872 -1.88449 0
M  V30 5912 H 580.131 3.01425 -2.86558 0
M  V30 5913 H 578.708 3.55788 -1.11666 0
M  V30 5914 N 580.893 1.08022 1.14757 0
M  V30 5915 C 582.118 0.82895 1.90114 0
M  V30 5916 C 582.543 -0.612772 1.77839 0
M  V30 5917 O 581.901 -1.42895 1.11583 0
M  V30 5918 C 581.949 1.25062 3.38219 0
M  V30 5919 O 581.053 0.400119 4.10454 0
M  V30 5920 H 580.394 0.301412 0.591648 0
M  V30 5921 H 582.924 1.44062 1.45284 0
M  V30 5922 H 582.934 1.22977 3.89025 0
M  V30 5923 H 581.609 2.30067 3.46471 0
M  V30 5924 H 580.186 0.484052 3.69745 0
M  V30 5925 N 582.371 -1.3172 0.865308 0
M  V30 5926 C 583.782 -1.79104 0.527126 0
M  V30 5927 C 584.133 -1.7135 -0.955695 0
M  V30 5928 O 583.258 -1.27845 -1.74598 0
M  V30 5929 C 583.853 -3.25207 0.950061 0
M  V30 5930 C 582.412 -3.70504 0.663611 0
M  V30 5931 C 581.559 -2.52605 1.14395 0
M  V30 5932 H 584.51 -1.18868 1.05148 0
M  V30 5933 H 584.531 -3.79535 0.270805 0
M  V30 5934 H 584.043 -3.30818 2.02931 0
M  V30 5935 H 582.144 -3.70398 -0.404474 0
M  V30 5936 H 582.257 -4.62845 1.23737 0
M  V30 5937 H 580.621 -2.4838 0.563859 0
M  V30 5938 H 581.404 -2.60964 2.23053 0
M  V30 5939 N 583.85 -0.624285 -1.44708 0
M  V30 5940 C 585.08 -0.132726 -2.06173 0
M  V30 5941 C 585.488 1.19513 -1.46674 0
M  V30 5942 O 584.831 1.74254 -0.581491 0
M  V30 5943 C 584.893 0.0636732 -3.59444 0
M  V30 5944 C 584.557 -1.18496 -4.4137 0
M  V30 5945 C 585.553 -2.10706 -4.75288 0
M  V30 5946 C 583.239 -1.41846 -4.81856 0
M  V30 5947 C 585.233 -3.24582 -5.48567 0
M  V30 5948 C 582.92 -2.5602 -5.54885 0
M  V30 5949 C 583.918 -3.47215 -5.88159 0
M  V30 5950 O 583.606 -4.59399 -6.59703 0
M  V30 5951 H 583.338 -0.0737313 -0.671967 0
M  V30 5952 H 585.892 -0.856789 -1.86677 0
M  V30 5953 H 584.122 0.842809 -3.77404 0
M  V30 5954 H 585.811 0.508924 -4.02697 0
M  V30 5955 H 586.577 -1.93898 -4.44554 0
M  V30 5956 H 582.456 -0.717556 -4.55381 0
M  V30 5957 H 586 -3.95785 -5.74456 0
M  V30 5958 H 581.897 -2.72774 -5.85034 0
M  V30 5959 H 582.665 -4.58293 -6.78166 0
M  V30 5960 N 585.328 1.53329 -0.364422 0
M  V30 5961 C 586.577 2.00421 0.226747 0
M  V30 5962 C 586.89 1.25581 1.49963 0
M  V30 5963 O 588.096 1.63256 2.16933 0
M  V30 5964 C 586.552 3.57017 0.454618 0
M  V30 5965 C 586.16 4.40734 -0.803568 0
M  V30 5966 C 587.904 4.12468 1.00351 0
M  V30 5967 C 585.811 5.8888 -0.545345 0
M  V30 5968 H 584.741 0.748787 0.0885082 0
M  V30 5969 H 587.392 1.7703 -0.482983 0
M  V30 5970 H 585.774 3.76558 1.22558 0
M  V30 5971 H 586.948 4.32967 -1.57723 0
M  V30 5972 H 585.263 3.96381 -1.27559 0
M  V30 5973 H 587.86 5.20783 1.212 0
M  V30 5974 H 588.203 3.6699 1.9653 0
M  V30 5975 H 588.736 3.96721 0.29274 0
M  V30 5976 H 585.475 6.38633 -1.47743 0
M  V30 5977 H 584.995 5.99499 0.189842 0
M  V30 5978 H 586.674 6.46776 -0.170425 0
M  V30 5979 N 586.806 0.0935595 1.57322 0
M  V30 5980 C 587.756 -0.876521 2.10478 0
M  V30 5981 C 588.74 -1.24482 1.01946 0
M  V30 5982 O 589.932 -1.22016 1.28223 0
M  V30 5983 C 587.061 -2.13615 2.68745 0
M  V30 5984 C 586.147 -1.79335 3.84317 0
M  V30 5985 N 586.538 -1.15606 4.92411 0
M  V30 5986 C 584.836 -2.08954 3.94023 0
M  V30 5987 C 585.537 -0.999036 5.73057 0
M  V30 5988 N 584.513 -1.51585 5.22037 0
M  V30 5989 H 588.315 -0.379829 2.91435 0
M  V30 5990 H 585.829 -0.109699 1.62029 0
M  V30 5991 H 587.826 -2.84053 3.05155 0
M  V30 5992 H 586.486 -2.63851 1.89242 0
M  V30 5993 H 587.497 -0.823063 5.11318 0
M  V30 5994 H 584.174 -2.61416 3.25527 0
M  V30 5995 H 585.564 -0.500772 6.70031 0
M  V30 5996 N 588.284 -1.56567 -0.180126 0
M  V30 5997 C 589.695 -1.7126 -0.743422 0
M  V30 5998 C 590.046 -0.70263 -1.83187 0
M  V30 5999 O 589.171 0.137856 -2.1596 0
M  V30 6000 C 589.766 -3.10512 -1.35528 0
M  V30 6001 C 588.325 -3.26919 -1.8655 0
M  V30 6002 C 587.472 -2.67213 -0.741099 0
M  V30 6003 H 590.423 -1.58636 0.0451543 0
M  V30 6004 H 590.444 -3.08673 -2.22489 0
M  V30 6005 H 589.956 -3.83997 -0.562862 0
M  V30 6006 H 588.057 -2.58376 -2.68464 0
M  V30 6007 H 588.17 -4.34574 -2.01699 0
M  V30 6008 H 586.534 -2.26788 -1.15927 0
M  V30 6009 H 587.317 -3.43277 0.0393291 0
M  V30 6010 N 589.762 0.448376 -1.51087 0
M  V30 6011 C 591.008 1.20049 -1.6345 0
M  V30 6012 C 591.341 1.91121 -0.344444 0
M  V30 6013 O 590.616 1.83125 0.655396 0
M  V30 6014 C 590.899 2.22624 -2.83038 0
M  V30 6015 C 590.752 1.55708 -4.21989 0
M  V30 6016 C 592.071 3.23718 -2.98152 0
M  V30 6017 H 589.19 0.435085 -0.59487 0
M  V30 6018 H 591.832 0.491183 -1.83541 0
M  V30 6019 H 589.982 2.83117 -2.66039 0
M  V30 6020 H 591.654 0.986367 -4.50631 0
M  V30 6021 H 589.897 0.859647 -4.25197 0
M  V30 6022 H 590.568 2.30357 -5.01637 0
M  V30 6023 H 593.044 2.73269 -3.13788 0
M  V30 6024 H 591.92 3.92795 -3.83411 0
M  V30 6025 H 592.181 3.89179 -2.09743 0
M  V30 6026 N 591.24 1.41047 0.703093 0
M  V30 6027 C 592.488 1.39723 1.4602 0
M  V30 6028 C 592.809 0.00461257 1.94999 0
M  V30 6029 O 592.079 -0.952292 1.71196 0
M  V30 6030 H 590.659 0.514281 0.541779 0
M  V30 6031 H 593.321 1.76217 0.832678 0
M  V30 6032 H 592.417 2.07982 2.32701 0
M  V30 6033 N 592.718 -0.936591 1.26751 0
M  V30 6034 C 593.964 -1.68625 1.13741 0
M  V30 6035 C 594.319 -1.898 -0.315221 0
M  V30 6036 O 593.612 -1.47088 -1.22783 0
M  V30 6037 C 593.806 -3.06099 1.84494 0
M  V30 6038 C 593.635 -2.98338 3.36488 0
M  V30 6039 C 592.405 -3.01104 4.05789 0
M  V30 6040 C 594.603 -2.78128 4.32608 0
M  V30 6041 N 592.585 -2.8369 5.4442 0
M  V30 6042 C 593.956 -2.69329 5.58446 0
M  V30 6043 C 596.011 -2.62946 4.22804 0
M  V30 6044 C 594.714 -2.46899 6.75598 0
M  V30 6045 C 596.74 -2.41892 5.39669 0
M  V30 6046 C 596.102 -2.33829 6.64457 0
M  V30 6047 H 592.201 -0.624227 0.471025 0
M  V30 6048 H 594.785 -1.10798 1.601 0
M  V30 6049 H 592.956 -3.62057 1.40604 0
M  V30 6050 H 594.688 -3.69951 1.64067 0
M  V30 6051 H 591.443 -3.10992 3.57185 0
M  V30 6052 H 591.867 -2.78138 6.17226 0
M  V30 6053 H 596.509 -2.67944 3.27056 0
M  V30 6054 H 594.227 -2.40642 7.71438 0
M  V30 6055 H 597.813 -2.31043 5.33957 0
M  V30 6056 H 596.693 -2.17754 7.53361 0
M  V30 6057 N 594.196 -1.08629 -1.14182 0
M  V30 6058 C 595.436 -0.826884 -1.86928 0
M  V30 6059 C 595.8 0.635808 -1.81167 0
M  V30 6060 O 597.001 1.0108 -2.49071 0
M  V30 6061 C 595.272 -1.33721 -3.31442 0
M  V30 6062 S 596.831 -1.21045 -4.21774 0
M  V30 6063 H 593.649 -0.299286 -0.644941 0
M  V30 6064 H 596.251 -1.38802 -1.37674 0
M  V30 6065 H 594.955 -2.39617 -3.33184 0
M  V30 6066 H 594.486 -0.771839 -3.85754 0
M  V30 6067 H 596.501 -0.156168 -4.95954 0
M  V30 6068 N 595.674 1.31259 -0.872281 0
M  V30 6069 C 596.606 2.27396 -0.28697 0
M  V30 6070 C 597.619 1.53181 0.551297 0
M  V30 6071 O 598.808 1.74561 0.372914 0
M  V30 6072 C 595.908 3.33335 0.611617 0
M  V30 6073 C 595.081 4.36966 -0.194729 0
M  V30 6074 C 594.14 5.22387 0.632358 0
M  V30 6075 O 593.166 5.69169 0.0595691 0
M  V30 6076 N 594.368 5.46985 1.94391 0
M  V30 6077 H 597.133 2.78261 -1.11314 0
M  V30 6078 H 594.694 1.44306 -0.733994 0
M  V30 6079 H 596.686 3.87398 1.17068 0
M  V30 6080 H 595.256 2.82496 1.33846 0
M  V30 6081 H 594.476 3.82945 -0.935241 0
M  V30 6082 H 595.764 5.03273 -0.747935 0
M  V30 6083 H 595.162 5.10737 2.43237 0
M  V30 6084 H 593.719 6.03973 2.45071 0
M  V30 6085 N 597.152 0.631951 1.44375 0
M  V30 6086 C 598.099 -0.0724807 2.30686 0
M  V30 6087 C 599.069 -0.835975 1.43529 0
M  V30 6088 O 600.254 -0.816849 1.7243 0
M  V30 6089 C 597.394 -1.04753 3.28817 0
M  V30 6090 C 596.507 -0.282367 4.31076 0
M  V30 6091 C 595.642 -1.2493 5.163 0
M  V30 6092 C 594.681 -0.473349 6.10267 0
M  V30 6093 N 593.818 -1.39079 6.88187 0
M  V30 6094 H 598.658 0.669477 2.90383 0
M  V30 6095 H 596.195 0.341927 1.43071 0
M  V30 6096 H 598.153 -1.62623 3.842 0
M  V30 6097 H 596.783 -1.75661 2.70819 0
M  V30 6098 H 595.835 0.412268 3.78159 0
M  V30 6099 H 597.147 0.321955 4.9776 0
M  V30 6100 H 596.301 -1.89931 5.76204 0
M  V30 6101 H 595.04 -1.88755 4.49692 0
M  V30 6102 H 594.045 0.190142 5.49471 0
M  V30 6103 H 595.27 0.16019 6.78911 0
M  V30 6104 H 593.216 -2.01623 6.24247 0
M  V30 6105 H 593.133 -0.840513 7.51313 0
M  V30 6106 H 594.401 -2.02961 7.52613 0
M  V30 6107 N 598.631 -1.53133 0.372548 0
M  V30 6108 C 599.563 -2.23557 -0.505444 0
M  V30 6109 C 600.576 -1.25211 -1.04049 0
M  V30 6110 O 601.765 -1.51391 -0.945675 0
M  V30 6111 C 598.865 -2.92516 -1.71136 0
M  V30 6112 C 598.038 -4.17428 -1.30661 0
M  V30 6113 C 597.097 -4.69535 -2.37536 0
M  V30 6114 O 596.123 -5.33042 -1.99637 0
M  V30 6115 N 597.325 -4.47947 -3.6922 0
M  V30 6116 H 600.09 -2.9954 0.0978259 0
M  V30 6117 H 597.651 -1.60684 0.198068 0
M  V30 6118 H 599.643 -3.24281 -2.42124 0
M  V30 6119 H 598.213 -2.19944 -2.22134 0
M  V30 6120 H 597.433 -3.91888 -0.426292 0
M  V30 6121 H 598.721 -4.98622 -1.01259 0
M  V30 6122 H 598.119 -3.97219 -4.02783 0
M  V30 6123 H 596.676 -4.84245 -4.36292 0
M  V30 6124 N 600.109 -0.101901 -1.5727 0
M  V30 6125 C 601.357 0.559091 -1.94213 0
M  V30 6126 C 601.678 1.68297 -0.984948 0
M  V30 6127 O 600.948 1.95863 -0.0381975 0
M  V30 6128 H 599.528 0.20952 -0.717015 0
M  V30 6129 H 602.19 -0.166831 -1.94185 0
M  V30 6130 H 601.286 0.96485 -2.96811 0
M  V30 6131 N 601.587 1.56661 0.17182 0
M  V30 6132 C 602.534 1.96371 1.21273 0
M  V30 6133 C 603.504 0.82756 1.44016 0
M  V30 6134 O 604.689 1.08764 1.56764 0
M  V30 6135 C 601.829 2.32838 2.54716 0
M  V30 6136 C 600.942 3.59628 2.39356 0
M  V30 6137 C 600.077 3.85311 3.65662 0
M  V30 6138 C 599.116 5.0545 3.45234 0
M  V30 6139 N 598.253 5.27268 4.63608 0
M  V30 6140 H 603.093 2.85106 0.86709 0
M  V30 6141 H 600.63 1.41073 0.416744 0
M  V30 6142 H 602.588 2.52004 3.3249 0
M  V30 6143 H 601.218 1.47214 2.87277 0
M  V30 6144 H 600.27 3.4838 1.52761 0
M  V30 6145 H 601.582 4.4756 2.20207 0
M  V30 6146 H 600.736 4.04841 4.51872 0
M  V30 6147 H 599.475 2.95753 3.8779 0
M  V30 6148 H 598.48 4.85819 2.5741 0
M  V30 6149 H 599.705 5.96538 3.24529 0
M  V30 6150 H 597.651 4.40662 4.85956 0
M  V30 6151 H 597.568 6.09422 4.4737 0
M  V30 6152 H 598.836 5.51277 5.51103 0
M  V30 6153 N 603.065 -0.440357 1.51323 0
M  V30 6154 C 604.476 -1.02032 1.56353 0
M  V30 6155 C 604.827 -1.92382 0.385197 0
M  V30 6156 O 603.952 -2.10583 -0.498373 0
M  V30 6157 C 604.547 -1.85723 2.83359 0
M  V30 6158 C 603.106 -2.38774 2.90971 0
M  V30 6159 C 602.253 -1.17908 2.50984 0
M  V30 6160 H 605.204 -0.221744 1.57143 0
M  V30 6161 H 605.225 -2.71141 2.66951 0
M  V30 6162 H 604.737 -1.19939 3.69102 0
M  V30 6163 H 602.838 -3.08021 2.09651 0
M  V30 6164 H 602.951 -2.71778 3.94555 0
M  V30 6165 H 601.315 -1.52347 2.04114 0
M  V30 6166 H 602.098 -0.537393 3.39068 0
M  V30 6167 N 604.543 -1.41418 -0.695603 0
M  V30 6168 C 605.473 -1.46035 -1.82197 0
M  V30 6169 C 606.454 -0.319025 -1.67082 0
M  V30 6170 O 607.639 -0.530462 -1.86815 0
M  V30 6171 C 604.769 -1.34179 -3.20333 0
M  V30 6172 C 603.723 -2.46123 -3.50154 0
M  V30 6173 C 603.049 -2.19332 -4.87645 0
M  V30 6174 C 604.349 -3.88463 -3.49133 0
M  V30 6175 H 606.043 -2.40303 -1.78591 0
M  V30 6176 H 603.589 -1.15663 -0.857797 0
M  V30 6177 H 605.542 -1.36021 -3.98844 0
M  V30 6178 H 604.266 -0.363952 -3.24566 0
M  V30 6179 H 602.925 -2.43563 -2.73994 0
M  V30 6180 H 602.573 -1.19891 -4.88503 0
M  V30 6181 H 602.273 -2.94344 -5.08562 0
M  V30 6182 H 603.797 -2.22889 -5.68465 0
M  V30 6183 H 605.211 -3.92738 -4.17648 0
M  V30 6184 H 603.608 -4.63158 -3.81582 0
M  V30 6185 H 604.678 -4.16617 -2.48109 0
M  V30 6186 N 606.021 0.929856 -1.27246 0
M  V30 6187 C 607.249 1.71144 -1.16265 0
M  V30 6188 C 607.664 1.867 0.280786 0
M  V30 6189 O 607.021 1.38249 1.19136 0
M  V30 6190 C 607.072 3.11222 -1.83911 0
M  V30 6191 O 606.793 2.96398 -3.22614 0
M  V30 6192 C 608.294 4.05541 -1.79028 0
M  V30 6193 H 605.514 0.535499 -0.404328 0
M  V30 6194 H 608.058 1.16492 -1.68077 0
M  V30 6195 H 606.213 3.6274 -1.36009 0
M  V30 6196 H 606.627 3.8494 -3.56261 0
M  V30 6197 H 608.101 5.01351 -2.30978 0
M  V30 6198 H 608.578 4.32589 -0.759168 0
M  V30 6199 H 609.184 3.59947 -2.26535 0
M  V30 6200 N 607.499 1.09233 1.13605 0
M  V30 6201 C 608.91 0.846839 1.6639 0
M  V30 6202 C 609.261 -0.625031 1.85978 0
M  V30 6203 O 608.386 -1.48173 1.57714 0
M  V30 6204 C 608.981 1.5307 3.0225 0
M  V30 6205 C 607.54 1.33223 3.52035 0
M  V30 6206 C 606.687 1.58806 2.27323 0
M  V30 6207 H 609.638 1.25175 0.975541 0
M  V30 6208 H 609.659 0.96267 3.68121 0
M  V30 6209 H 609.171 2.60192 2.87961 0
M  V30 6210 H 607.272 0.282091 3.71531 0
M  V30 6211 H 607.385 2.0657 4.32279 0
M  V30 6212 H 605.749 1.01007 2.33815 0
M  V30 6213 H 606.532 2.67153 2.15602 0
M  V30 6214 N 608.977 -1.30795 0.87923 0
M  V30 6215 C 610.388 -1.78535 0.546093 0
M  V30 6216 C 610.739 -1.72354 -0.937467 0
M  V30 6217 O 609.864 -1.2969 -1.73233 0
M  V30 6218 C 610.459 -3.24181 0.9845 0
M  V30 6219 C 609.018 -3.69779 0.702871 0
M  V30 6220 C 608.165 -2.51377 1.17068 0
M  V30 6221 H 611.116 -1.17746 1.06403 0
M  V30 6222 H 611.137 -3.79227 0.311045 0
M  V30 6223 H 610.649 -3.28647 2.06429 0
M  V30 6224 H 608.75 -3.70806 -0.365166 0
M  V30 6225 H 608.863 -4.61507 1.28639 0
M  V30 6226 H 607.227 -2.47768 0.590172 0
M  V30 6227 H 608.01 -2.58584 2.25808 0
M  V30 6228 N 610.455 -0.639598 -1.44038 0
M  V30 6229 C 611.387 0.0987684 -2.28987 0
M  V30 6230 C 612.4 0.80058 -1.41755 0
M  V30 6231 O 613.589 0.660611 -1.65826 0
M  V30 6232 C 610.689 1.16242 -3.18341 0
M  V30 6233 C 609.862 0.541447 -4.34036 0
M  V30 6234 C 608.921 1.50017 -5.04362 0
M  V30 6235 O 607.947 1.01403 -5.60095 0
M  V30 6236 N 609.149 2.83441 -5.06598 0
M  V30 6237 H 611.914 -0.630305 -2.92997 0
M  V30 6238 H 609.475 -0.481376 -1.54578 0
M  V30 6239 H 611.467 1.80429 -3.62253 0
M  V30 6240 H 610.037 1.79362 -2.56024 0
M  V30 6241 H 609.257 -0.27923 -3.9321 0
M  V30 6242 H 610.545 0.107379 -5.08687 0
M  V30 6243 H 609.943 3.2551 -4.62666 0
M  V30 6244 H 608.5 3.42966 -5.54272 0
M  V30 6245 N 611.933 1.52934 -0.380664 0
M  V30 6246 C 613.21 1.93845 0.261417 0
M  V30 6247 C 613.59 1.31544 1.65104 0
M  V30 6248 O 612.938 0.480234 2.23397 0
M  V30 6249 C 613.148 3.47739 0.296466 0
M  V30 6250 C 614.496 4.21284 0.529578 0
M  V30 6251 O 615.52 3.54199 0.377041 0
M  V30 6252 O 614.379 5.40195 0.827753 0
M  V30 6253 H 611.473 0.811318 0.160285 0
M  V30 6254 H 614.019 1.64042 -0.434544 0
M  V30 6255 H 612.791 3.85395 -0.67724 0
M  V30 6256 H 612.414 3.8382 1.0377 0
M  V30 6257 N 613.412 0.11024 1.57214 0
M  V30 6258 C 614.642 -0.557025 1.98949 0
M  V30 6259 C 615.05 -1.61317 0.988606 0
M  V30 6260 O 614.393 -1.83679 -0.0279159 0
M  V30 6261 C 614.455 -1.24956 3.37085 0
M  V30 6262 C 614.119 -0.342398 4.55716 0
M  V30 6263 C 615.116 0.415511 5.18237 0
M  V30 6264 C 612.801 -0.256029 5.01647 0
M  V30 6265 C 614.795 1.24761 6.25071 0
M  V30 6266 C 612.482 0.579713 6.08344 0
M  V30 6267 C 613.48 1.33017 6.69922 0
M  V30 6268 O 613.168 2.15205 7.74559 0
M  V30 6269 H 612.9 -0.152792 0.658506 0
M  V30 6270 H 615.454 0.19076 2.04512 0
M  V30 6271 H 613.684 -2.04424 3.2825 0
M  V30 6272 H 615.373 -1.81286 3.63167 0
M  V30 6273 H 616.139 0.358605 4.83672 0
M  V30 6274 H 612.018 -0.829831 4.5347 0
M  V30 6275 H 615.562 1.83386 6.73064 0
M  V30 6276 H 611.459 0.638044 6.42339 0
M  V30 6277 H 612.227 2.08052 7.91617 0
M  V30 6278 N 614.89 -1.56749 -0.16351 0
M  V30 6279 C 616.301 -1.72039 -0.725216 0
M  V30 6280 C 616.652 -0.72202 -1.82432 0
M  V30 6281 O 615.777 0.114942 -2.16095 0
M  V30 6282 C 616.372 -3.11932 -1.32227 0
M  V30 6283 C 614.931 -3.28879 -1.83072 0
M  V30 6284 C 614.078 -2.67984 -0.712716 0
M  V30 6285 H 617.029 -1.58579 0.0619772 0
M  V30 6286 H 617.05 -3.11015 -2.19202 0
M  V30 6287 H 616.562 -3.84572 -0.522103 0
M  V30 6288 H 614.663 -2.61209 -2.65708 0
M  V30 6289 H 614.776 -4.36688 -1.97079 0
M  V30 6290 H 613.14 -2.28005 -1.13515 0
M  V30 6291 H 613.923 -3.43216 0.0757361 0
M  V30 6292 N 616.368 0.432326 -1.51554 0
M  V30 6293 C 617.645 1.19288 -1.55015 0
M  V30 6294 C 618.025 2.08701 -0.317375 0
M  V30 6295 O 617.373 2.17602 0.697243 0
M  V30 6296 C 617.583 1.99037 -2.86679 0
M  V30 6297 C 618.931 2.55907 -3.38817 0
M  V30 6298 O 619.955 2.09243 -2.88263 0
M  V30 6299 O 618.814 3.41029 -4.27038 0
M  V30 6300 H 615.908 0.543369 -0.623441 0
M  V30 6301 H 618.454 0.440988 -1.6387 0
M  V30 6302 H 617.226 1.33397 -3.6786 0
M  V30 6303 H 616.849 2.81281 -2.8101 0
M  V30 6304 N 617.846 1.41785 0.688094 0
M  V30 6305 C 619.257 1.3701 1.26828 0
M  V30 6306 C 619.608 0.056835 1.96118 0
M  V30 6307 O 618.733 -0.84475 1.99231 0
M  V30 6308 C 619.328 2.48168 2.30648 0
M  V30 6309 C 617.887 2.46766 2.84224 0
M  V30 6310 C 617.034 2.27633 1.58361 0
M  V30 6311 H 619.985 1.51192 0.482351 0
M  V30 6312 H 620.006 2.17655 3.121 0
M  V30 6313 H 619.518 3.43735 1.80188 0
M  V30 6314 H 617.619 1.54978 3.3884 0
M  V30 6315 H 617.732 3.43342 3.34145 0
M  V30 6316 H 616.096 1.75648 1.84445 0
M  V30 6317 H 616.879 3.25238 1.09887 0
M  V30 6318 N 619.324 -0.923095 1.27737 0
M  V30 6319 C 620.601 -1.64989 1.05062 0
M  V30 6320 C 620.981 -2.07018 -0.413124 0
M  V30 6321 O 620.329 -1.80797 -1.39731 0
M  V30 6322 C 620.539 -2.84847 2.01652 0
M  V30 6323 C 621.887 -3.56083 2.31279 0
M  V30 6324 O 622.911 -2.94981 1.99662 0
M  V30 6325 O 621.77 -4.66182 2.85196 0
M  V30 6326 H 618.864 -0.723357 0.400853 0
M  V30 6327 H 621.41 -0.973224 1.3902 0
M  V30 6328 H 620.182 -2.50814 3.00347 0
M  V30 6329 H 619.805 -3.60231 1.68284 0
M  V30 6330 N 620.802 -1.09834 -1.13024 0
M  V30 6331 C 621.75 -0.736283 -2.20639 0
M  V30 6332 C 622.744 0.264725 -1.67319 0
M  V30 6333 O 623.95 0.125745 -1.7956 0
M  V30 6334 H 620.325 -0.220136 -0.719058 0
M  V30 6335 H 622.296 -1.65295 -2.48436 0
M  V30 6336 C 621.045 -0.177544 -3.47246 0
M  V30 6337 H 620.368 -0.939009 -3.88616 0
M  V30 6338 H 621.808 0.0378007 -4.23983 0
M  V30 6339 C 620.267 1.08824 -3.1884 0
M  V30 6340 O 620.797 2.1708 -3.37993 0
M  V30 6341 N 619.003 1.00442 -2.7269 0
M  V30 6342 H 618.55 0.123383 -2.57304 0
M  V30 6343 H 618.508 1.85206 -2.5406 0
M  V30 6344 N 622.28 1.30327 -0.886154 0
M  V30 6345 C 623.527 1.96097 -0.505192 0
M  V30 6346 C 623.855 1.69952 0.945868 0
M  V30 6347 O 623.11 0.997653 1.68361 0
M  V30 6348 C 623.409 3.49906 -0.728042 0
M  V30 6349 C 623.075 3.96103 -2.15437 0
M  V30 6350 C 621.737 4.08428 -2.5444 0
M  V30 6351 C 624.089 4.20177 -3.08384 0
M  V30 6352 C 621.417 4.42189 -3.85598 0
M  V30 6353 C 623.769 4.55407 -4.39075 0
M  V30 6354 C 622.433 4.65941 -4.7797 0
M  V30 6355 H 621.703 0.71757 -0.184863 0
M  V30 6356 H 624.35 1.55171 -1.12223 0
M  V30 6357 H 622.655 3.9179 -0.027978 0
M  V30 6358 H 624.352 3.98869 -0.412862 0
M  V30 6359 H 620.942 3.87017 -1.84162 0
M  V30 6360 H 625.126 4.10134 -2.7947 0
M  V30 6361 H 620.382 4.48544 -4.15473 0
M  V30 6362 H 624.556 4.72986 -5.11133 0
M  V30 6363 H 622.183 4.91856 -5.79639 0
M  V30 6364 N 623.758 0.647228 1.43697 0
M  V30 6365 C 624.998 0.16171 2.03759 0
M  V30 6366 C 625.362 -1.19951 1.49919 0
M  V30 6367 O 626.563 -1.77808 2.01588 0
M  V30 6368 C 624.834 0.16505 3.57019 0
M  V30 6369 S 626.393 -0.253497 4.38067 0
M  V30 6370 H 623.211 0.0689985 0.707644 0
M  V30 6371 H 625.813 0.854224 1.7585 0
M  V30 6372 H 624.517 1.15858 3.93707 0
M  V30 6373 H 624.048 -0.548194 3.89562 0
M  V30 6374 H 626.063 -1.49385 4.73179 0
M  V30 6375 N 625.236 -1.5273 0.388769 0
M  V30 6376 C 626.482 -2.02545 -0.186351 0
M  V30 6377 C 626.837 -1.27017 -1.44514 0
M  V30 6378 O 626.13 -0.361948 -1.8815 0
M  V30 6379 C 626.324 -3.53765 -0.508445 0
M  V30 6380 C 626.153 -4.43938 0.71758 0
M  V30 6381 C 624.923 -4.89933 1.23668 0
M  V30 6382 C 627.121 -4.89113 1.58974 0
M  V30 6383 N 625.103 -5.64176 2.42031 0
M  V30 6384 C 626.474 -5.61931 2.61979 0
M  V30 6385 C 628.529 -4.71155 1.60989 0
M  V30 6386 C 627.232 -6.18698 3.66886 0
M  V30 6387 C 629.258 -5.28804 2.64803 0
M  V30 6388 C 628.62 -6.01527 3.6653 0
M  V30 6389 H 624.719 -0.781413 -0.0302921 0
M  V30 6390 H 627.303 -1.87104 0.538539 0
M  V30 6391 H 625.474 -3.6932 -1.20239 0
M  V30 6392 H 627.206 -3.9028 -1.07067 0
M  V30 6393 H 623.961 -4.66833 0.797763 0
M  V30 6394 H 624.385 -6.05949 3.01919 0
M  V30 6395 H 629.027 -4.14435 0.836881 0
M  V30 6396 H 626.745 -6.74501 4.45055 0
M  V30 6397 H 630.331 -5.1679 2.67245 0
M  V30 6398 H 629.211 -6.45339 4.45542 0
M  V30 6399 N 626.714 -0.118576 -1.57153 0
M  V30 6400 C 627.624 0.845484 -2.18835 0
M  V30 6401 C 628.64 1.29299 -1.16438 0
M  V30 6402 O 629.816 1.35607 -1.48905 0
M  V30 6403 C 626.881 2.07795 -2.77529 0
M  V30 6404 C 625.942 1.6824 -3.9496 0
M  V30 6405 C 625.175 2.85612 -4.50845 0
M  V30 6406 O 625.398 4.01025 -4.05629 0
M  V30 6407 O 624.332 2.62721 -5.41536 0
M  V30 6408 H 628.158 0.350568 -3.0167 0
M  V30 6409 H 625.743 0.107013 -1.49016 0
M  V30 6410 H 627.625 2.79978 -3.14945 0
M  V30 6411 H 626.3 2.56294 -1.97725 0
M  V30 6412 H 625.207 0.931663 -3.62313 0
M  V30 6413 H 626.54 1.24484 -4.76198 0
M  V30 6414 N 628.193 1.56834 0.155195 0
M  V30 6415 C 629.14 1.97646 1.19184 0
M  V30 6416 C 630.11 0.842788 1.4313 0
M  V30 6417 O 631.295 1.1042 1.55602 0
M  V30 6418 C 628.435 2.35527 2.52232 0
M  V30 6419 C 627.548 3.62147 2.35529 0
M  V30 6420 C 626.683 3.89167 3.61555 0
M  V30 6421 C 625.722 5.09084 3.39853 0
M  V30 6422 N 624.859 5.32156 4.5799 0
M  V30 6423 H 629.699 2.8601 0.836802 0
M  V30 6424 H 627.236 1.41507 0.401758 0
M  V30 6425 H 629.194 2.55516 3.29799 0
M  V30 6426 H 627.824 1.50253 2.85699 0
M  V30 6427 H 626.876 3.4998 1.49057 0
M  V30 6428 H 628.188 4.49871 2.15448 0
M  V30 6429 H 627.342 4.09611 4.47553 0
M  V30 6430 H 626.081 2.9985 3.84632 0
M  V30 6431 H 625.086 4.88522 2.52243 0
M  V30 6432 H 626.311 5.99947 3.18183 0
M  V30 6433 H 624.257 4.45791 4.81255 0
M  V30 6434 H 624.174 6.14133 4.40882 0
M  V30 6435 H 625.442 5.57091 5.45225 0
M  V30 6436 N 629.671 -0.424282 1.51781 0
M  V30 6437 C 630.901 -1.19297 1.68677 0
M  V30 6438 C 631.309 -1.85152 0.389258 0
M  V30 6439 O 630.652 -1.72067 -0.643311 0
M  V30 6440 C 630.714 -2.30929 2.75521 0
M  V30 6441 C 630.378 -1.85335 4.17732 0
M  V30 6442 C 631.375 -1.34951 5.0208 0
M  V30 6443 C 629.06 -1.92629 4.63896 0
M  V30 6444 C 631.054 -0.924636 6.30658 0
M  V30 6445 C 628.741 -1.49754 5.92467 0
M  V30 6446 C 629.739 -0.997543 6.75676 0
M  V30 6447 O 629.427 -0.57492 8.01842 0
M  V30 6448 H 629.159 -0.36512 0.568914 0
M  V30 6449 H 631.713 -0.507327 1.99036 0
M  V30 6450 H 629.943 -3.02811 2.40505 0
M  V30 6451 H 631.632 -2.92748 2.81165 0
M  V30 6452 H 632.398 -1.287 4.67612 0
M  V30 6453 H 628.277 -2.30491 3.99243 0
M  V30 6454 H 631.821 -0.533682 6.95556 0
M  V30 6455 H 627.718 -1.55679 6.26446 0
M  V30 6456 H 628.486 -0.699597 8.15505 0
M  V30 6457 N 631.149 -1.42148 -0.680565 0
M  V30 6458 C 632.079 -1.4796 -1.80638 0
M  V30 6459 C 633.06 -0.336728 -1.66734 0
M  V30 6460 O 634.245 -0.550247 -1.86242 0
M  V30 6461 C 631.375 -1.37569 -3.18892 0
M  V30 6462 C 630.329 -2.49823 -3.47524 0
M  V30 6463 C 629.655 -2.24491 -4.85291 0
M  V30 6464 C 630.955 -3.92144 -3.44994 0
M  V30 6465 H 632.649 -2.42184 -1.76032 0
M  V30 6466 H 630.195 -1.16566 -0.845481 0
M  V30 6467 H 632.148 -1.40243 -3.97379 0
M  V30 6468 H 630.872 -0.398357 -3.24162 0
M  V30 6469 H 629.531 -2.46455 -2.71395 0
M  V30 6470 H 629.179 -1.25066 -4.87204 0
M  V30 6471 H 628.879 -2.99722 -5.05411 0
M  V30 6472 H 630.403 -2.28906 -5.66069 0
M  V30 6473 H 631.817 -3.97145 -4.13459 0
M  V30 6474 H 630.214 -4.67179 -3.76648 0
M  V30 6475 H 631.284 -4.19225 -2.43676 0
M  V30 6476 N 632.627 0.916307 -1.28225 0
M  V30 6477 C 633.537 2.05165 -1.13775 0
M  V30 6478 C 634.553 1.73879 -0.0649418 0
M  V30 6479 O 635.729 1.99531 -0.273722 0
M  V30 6480 C 632.794 3.37385 -0.798267 0
M  V30 6481 C 631.855 3.82296 -1.95316 0
M  V30 6482 C 631.088 5.08206 -1.62978 0
M  V30 6483 O 631.311 5.6781 -0.542948 0
M  V30 6484 O 630.245 5.48768 -2.47261 0
M  V30 6485 H 634.071 2.20273 -2.09078 0
M  V30 6486 H 631.656 1.0373 -1.07519 0
M  V30 6487 H 633.538 4.16773 -0.62278 0
M  V30 6488 H 632.213 3.23458 0.125139 0
M  V30 6489 H 631.12 3.03746 -2.18378 0
M  V30 6490 H 632.453 4.00782 -2.85718 0
M  V30 6491 N 634.105 1.10431 1.1244 0
M  V30 6492 C 635.015 0.765502 2.21759 0
M  V30 6493 C 636.031 -0.236966 1.72379 0
M  V30 6494 O 637.207 -0.0757329 2.01258 0
M  V30 6495 C 634.272 0.202316 3.46109 0
M  V30 6496 C 633.333 1.26205 4.1033 0
M  V30 6497 C 632.566 0.725648 5.28744 0
M  V30 6498 O 632.789 -0.447942 5.68638 0
M  V30 6499 O 631.723 1.48555 5.83279 0
M  V30 6500 H 635.549 1.67801 2.53133 0
M  V30 6501 H 633.134 0.879443 1.20773 0
M  V30 6502 H 635.016 -0.107918 4.21262 0
M  V30 6503 H 633.691 -0.683052 3.16411 0
M  V30 6504 H 632.598 1.62514 3.36957 0
M  V30 6505 H 633.931 2.12044 4.44183 0
M  V30 6506 N 635.583 -1.29855 0.893053 0
M  V30 6507 C 636.811 -1.99976 0.530788 0
M  V30 6508 C 637.226 -1.66889 -0.882799 0
M  V30 6509 O 636.583 -0.910352 -1.58173 0
M  V30 6510 C 636.634 -3.54547 0.705587 0
M  V30 6511 O 636.355 -3.86458 2.06353 0
M  V30 6512 C 637.856 -4.41937 0.347387 0
M  V30 6513 H 635.076 -0.639129 0.204339 0
M  V30 6514 H 637.62 -1.65549 1.20057 0
M  V30 6515 H 635.775 -3.87311 0.0830685 0
M  V30 6516 H 636.189 -4.81146 2.08803 0
M  V30 6517 H 637.663 -5.4954 0.520557 0
M  V30 6518 H 638.14 -4.33339 -0.715139 0
M  V30 6519 H 638.746 -4.14633 0.946567 0
M  V30 6520 N 637.061 -0.65484 -1.43351 0
M  V30 6521 C 638.309 -0.168559 -2.01396 0
M  V30 6522 C 638.63 1.22235 -1.51933 0
M  V30 6523 O 637.9 1.81685 -0.732627 0
M  V30 6524 H 636.48 -0.0593244 -0.744641 0
M  V30 6525 H 639.142 -0.846871 -1.75539 0
M  V30 6526 H 638.238 -0.154428 -3.11718 0
M  V30 6527 N 638.539 1.52521 -0.396863 0
M  V30 6528 C 639.502 2.2527 0.422604 0
M  V30 6529 C 640.502 1.27184 0.983913 0
M  V30 6530 O 641.692 1.51222 0.864723 0
M  V30 6531 C 638.824 3.01356 1.59365 0
M  V30 6532 H 640.017 2.99133 -0.214416 0
M  V30 6533 H 637.57 1.55587 -0.149128 0
M  V30 6534 H 638.305 2.31813 2.26789 0
M  V30 6535 H 638.09 3.73357 1.19779 0
M  V30 6536 H 639.58 3.56571 2.17363 0
M  V30 6537 N 640.017 0.126909 1.57088 0
M  V30 6538 C 641.242 -0.53997 2.00248 0
M  V30 6539 C 641.667 -1.58927 1.00618 0
M  V30 6540 O 641.025 -1.81288 -0.0210131 0
M  V30 6541 C 641.073 -1.13565 3.4225 0
M  V30 6542 O 640.177 -2.25103 3.45547 0
M  V30 6543 H 639.518 -0.13412 0.650314 0
M  V30 6544 H 642.048 0.217718 2.03438 0
M  V30 6545 H 642.058 -1.46925 3.80627 0
M  V30 6546 H 640.733 -0.367122 4.14277 0
M  V30 6547 H 639.31 -1.93123 3.18995 0
M  V30 6548 N 641.495 -1.56914 -0.146875 0
M  V30 6549 C 642.458 -1.97368 -1.16526 0
M  V30 6550 C 643.458 -0.860223 -1.35856 0
M  V30 6551 O 644.648 -1.12684 -1.32846 0
M  V30 6552 C 641.78 -2.28974 -2.52555 0
M  V30 6553 H 642.973 -2.88523 -0.818209 0
M  V30 6554 H 640.526 -1.5135 -0.390221 0
M  V30 6555 H 641.261 -1.40611 -2.92231 0
M  V30 6556 H 641.046 -3.10157 -2.39886 0
M  V30 6557 H 642.536 -2.61109 -3.25902 0
M  V30 6558 N 642.974 0.416227 -1.52004 0
M  V30 6559 C 644.22 1.16555 -1.6596 0
M  V30 6560 C 644.553 1.90347 -0.384906 0
M  V30 6561 O 643.828 1.84474 0.616405 0
M  V30 6562 C 644.111 2.1657 -2.87696 0
M  V30 6563 C 643.964 1.46722 -4.25197 0
M  V30 6564 C 645.283 3.17321 -3.04951 0
M  V30 6565 H 642.402 0.422369 -0.603965 0
M  V30 6566 H 645.044 0.452141 -1.84542 0
M  V30 6567 H 643.194 2.77411 -2.71985 0
M  V30 6568 H 644.866 0.89056 -4.52622 0
M  V30 6569 H 643.109 0.769263 -4.26925 0
M  V30 6570 H 643.78 2.19665 -5.0641 0
M  V30 6571 H 646.256 2.66552 -3.19514 0
M  V30 6572 H 645.132 3.84573 -3.91656 0
M  V30 6573 H 645.393 3.84643 -2.17951 0
M  V30 6574 N 644.452 1.42507 0.673017 0
M  V30 6575 C 645.863 1.38347 1.25367 0
M  V30 6576 C 646.214 0.0776327 1.96046 0
M  V30 6577 O 645.339 -0.823571 2.00116 0
M  V30 6578 C 645.934 2.506 2.28002 0
M  V30 6579 C 644.493 2.49767 2.81591 0
M  V30 6580 C 643.64 2.293 1.55938 0
M  V30 6581 H 646.591 1.51695 0.466288 0
M  V30 6582 H 646.612 2.20953 3.09774 0
M  V30 6583 H 646.124 3.45627 1.76532 0
M  V30 6584 H 644.225 1.58563 3.37177 0
M  V30 6585 H 644.338 3.46867 3.30485 0
M  V30 6586 H 642.702 1.77594 1.82572 0
M  V30 6587 H 643.485 3.26385 1.06431 0
M  V30 6588 N 645.93 -0.909495 1.28709 0
M  V30 6589 C 647.158 -1.69272 1.18973 0
M  V30 6590 C 647.573 -1.87123 -0.251048 0
M  V30 6591 O 646.93 -1.40127 -1.16922 0
M  V30 6592 C 646.981 -3.08257 1.88839 0
M  V30 6593 O 646.702 -2.91228 3.27289 0
M  V30 6594 C 648.203 -4.02642 1.85457 0
M  V30 6595 H 645.423 -0.528999 0.412797 0
M  V30 6596 H 647.967 -1.13803 1.69909 0
M  V30 6597 H 646.122 -3.6053 1.41762 0
M  V30 6598 H 646.536 -3.79223 3.6234 0
M  V30 6599 H 648.01 -4.97613 2.38925 0
M  V30 6600 H 648.487 -4.31327 0.827893 0
M  V30 6601 H 649.093 -3.56298 2.32233 0
M  V30 6602 N 647.408 -1.11026 -1.11852 0
M  V30 6603 C 648.654 -0.867633 -1.83967 0
M  V30 6604 C 649.009 0.600309 -1.82795 0
M  V30 6605 O 648.302 1.43731 -1.26696 0
M  V30 6606 C 648.496 -1.35777 -3.30604 0
M  V30 6607 C 648.325 -2.87183 -3.46058 0
M  V30 6608 C 647.095 -3.55256 -3.59334 0
M  V30 6609 C 649.293 -3.85258 -3.40706 0
M  V30 6610 N 647.275 -4.94923 -3.63215 0
M  V30 6611 C 648.646 -5.1097 -3.51155 0
M  V30 6612 C 650.701 -3.77879 -3.2421 0
M  V30 6613 C 649.404 -6.30171 -3.46809 0
M  V30 6614 C 651.43 -4.96586 -3.2118 0
M  V30 6615 C 650.792 -6.21149 -3.32196 0
M  V30 6616 H 646.891 -0.370574 -0.688621 0
M  V30 6617 H 649.475 -1.41379 -1.33865 0
M  V30 6618 H 647.646 -0.83885 -3.79233 0
M  V30 6619 H 649.378 -1.05874 -3.90606 0
M  V30 6620 H 646.133 -3.05714 -3.61713 0
M  V30 6621 H 646.557 -5.67726 -3.68804 0
M  V30 6622 H 651.199 -2.82485 -3.14582 0
M  V30 6623 H 648.917 -7.25847 -3.55206 0
M  V30 6624 H 652.503 -4.92591 -3.09589 0
M  V30 6625 H 651.383 -7.11463 -3.29834 0
M  V30 6626 N 648.886 1.2938 -0.899927 0
M  V30 6627 C 649.849 2.25983 -0.382677 0
M  V30 6628 C 650.849 1.53366 0.483259 0
M  V30 6629 O 652.039 1.71798 0.28828 0
M  V30 6630 C 649.171 3.37878 0.452915 0
M  V30 6631 H 650.364 2.73252 -1.23586 0
M  V30 6632 H 647.917 1.40825 -0.678088 0
M  V30 6633 H 648.652 2.95949 1.32608 0
M  V30 6634 H 648.437 3.91742 -0.167562 0
M  V30 6635 H 649.927 4.09746 0.806107 0
M  V30 6636 N 650.364 0.662433 1.43002 0
M  V30 6637 C 651.611 0.179591 2.01702 0
M  V30 6638 C 651.939 -1.20964 1.52309 0
M  V30 6639 O 651.194 -1.82343 0.7106 0
M  V30 6640 C 651.493 0.149363 3.57088 0
M  V30 6641 C 651.159 1.48158 4.25864 0
M  V30 6642 C 649.821 1.84638 4.44367 0
M  V30 6643 C 652.173 2.35953 4.64732 0
M  V30 6644 C 649.501 3.08561 4.99006 0
M  V30 6645 C 651.853 3.59176 5.20745 0
M  V30 6646 C 650.517 3.95841 5.37463 0
M  V30 6647 H 649.787 0.0657172 0.73808 0
M  V30 6648 H 652.434 0.854968 1.71355 0
M  V30 6649 H 650.739 -0.609491 3.8703 0
M  V30 6650 H 652.436 -0.241241 4.00274 0
M  V30 6651 H 649.026 1.18777 4.11813 0
M  V30 6652 H 653.21 2.09058 4.50121 0
M  V30 6653 H 648.466 3.37005 5.10135 0
M  V30 6654 H 652.64 4.27417 5.49807 0
M  V30 6655 H 650.267 4.91942 5.79566 0
M  V30 6656 N 651.842 -1.52309 0.404946 0
M  V30 6657 C 652.789 -2.26898 -0.422597 0
M  V30 6658 C 653.759 -1.2914 -1.04461 0
M  V30 6659 O 654.944 -1.57996 -1.06967 0
M  V30 6660 C 652.084 -3.09053 -1.53559 0
M  V30 6661 C 651.197 -4.21762 -0.934908 0
M  V30 6662 C 650.332 -4.91283 -2.02025 0
M  V30 6663 C 649.371 -5.95962 -1.39628 0
M  V30 6664 N 648.508 -6.59017 -2.42159 0
M  V30 6665 H 653.348 -2.97188 0.219903 0
M  V30 6666 H 650.885 -1.46607 0.120282 0
M  V30 6667 H 652.843 -3.54987 -2.19181 0
M  V30 6668 H 651.473 -2.40942 -2.14818 0
M  V30 6669 H 650.525 -3.80029 -0.167854 0
M  V30 6670 H 651.837 -4.96864 -0.439073 0
M  V30 6671 H 650.991 -5.40601 -2.75383 0
M  V30 6672 H 649.73 -4.15741 -2.54973 0
M  V30 6673 H 648.735 -5.45968 -0.648023 0
M  V30 6674 H 649.96 -6.73445 -0.874553 0
M  V30 6675 H 647.906 -5.86306 -2.94247 0
M  V30 6676 H 647.823 -7.2978 -1.97376 0
M  V30 6677 H 649.091 -7.12974 -3.15099 0
M  V30 6678 N 653.32 -0.135238 -1.57019 0
M  V30 6679 C 654.566 0.519563 -1.96032 0
M  V30 6680 C 654.899 1.65284 -1.01955 0
M  V30 6681 O 654.174 1.94408 -0.059727 0
M  V30 6682 C 654.457 1.0369 -3.44848 0
M  V30 6683 C 654.31 -0.0940754 -4.49702 0
M  V30 6684 C 655.629 1.92254 -3.95887 0
M  V30 6685 H 652.748 0.18739 -0.712779 0
M  V30 6686 H 655.39 -0.214086 -1.8879 0
M  V30 6687 H 653.54 1.66209 -3.5115 0
M  V30 6688 H 655.212 -0.73 -4.55487 0
M  V30 6689 H 653.455 -0.754924 -4.27181 0
M  V30 6690 H 654.126 0.309419 -5.51132 0
M  V30 6691 H 656.602 1.39581 -3.9199 0
M  V30 6692 H 655.478 2.25364 -5.00502 0
M  V30 6693 H 655.739 2.85513 -3.37543 0
M  V30 6694 N 654.798 1.5699 0.138552 0
M  V30 6695 C 656.214 1.51844 0.491472 0
M  V30 6696 C 656.414 0.845063 1.82923 0
M  V30 6697 O 655.47 0.419143 2.48997 0
M  V30 6698 C 656.783 2.96615 0.493987 0
M  V30 6699 C 658.331 3.076 0.578913 0
M  V30 6700 C 658.806 4.53893 0.612009 0
M  V30 6701 N 660.297 4.5827 0.673997 0
M  V30 6702 C 661.032 5.68852 0.720729 0
M  V30 6703 N 660.528 6.88982 0.726292 0
M  V30 6704 N 662.321 5.56908 0.762253 0
M  V30 6705 H 654.472 1.99158 -0.738228 0
M  V30 6706 H 656.735 0.908693 -0.270149 0
M  V30 6707 H 656.441 3.49172 -0.420933 0
M  V30 6708 H 656.315 3.53017 1.32887 0
M  V30 6709 H 658.702 2.55057 1.48425 0
M  V30 6710 H 658.783 2.54227 -0.283286 0
M  V30 6711 H 658.427 5.07076 -0.289208 0
M  V30 6712 H 658.357 5.05057 1.49082 0
M  V30 6713 H 660.848 3.71793 0.676654 0
M  V30 6714 H 661.161 7.69014 0.764032 0
M  V30 6715 H 659.506 6.91526 0.69403 0
M  V30 6716 H 662.697 4.61969 0.755135 0
M  V30 6717 H 662.87 6.43102 0.795207 0
M  V30 6718 N 656.276 -0.40816 1.52223 0
M  V30 6719 C 657.687 -0.986929 1.58482 0
M  V30 6720 C 658.038 -1.91521 0.425917 0
M  V30 6721 O 657.163 -2.11593 -0.453593 0
M  V30 6722 C 657.758 -1.7967 2.87235 0
M  V30 6723 C 656.317 -2.32549 2.9597 0
M  V30 6724 C 655.464 -1.12558 2.53428 0
M  V30 6725 H 658.415 -0.188362 1.57578 0
M  V30 6726 H 658.436 -2.65417 2.72642 0
M  V30 6727 H 657.948 -1.12082 3.71563 0
M  V30 6728 H 656.049 -3.03505 2.16137 0
M  V30 6729 H 656.162 -2.63348 4.00231 0
M  V30 6730 H 654.526 -1.47984 2.07299 0
M  V30 6731 H 655.309 -0.465351 3.40131 0
M  V30 6732 N 657.755 -1.42862 -0.66545 0
M  V30 6733 C 659.166 -1.3901 -1.24632 0
M  V30 6734 C 659.517 -0.0880285 -1.96002 0
M  V30 6735 O 658.642 0.812947 -2.0055 0
M  V30 6736 C 659.237 -2.51806 -2.2667 0
M  V30 6737 C 657.796 -2.51257 -2.80262 0
M  V30 6738 C 656.943 -2.30124 -1.5472 0
M  V30 6739 H 659.894 -1.5194 -0.458237 0
M  V30 6740 H 659.915 -2.22593 -3.08598 0
M  V30 6741 H 659.427 -3.46558 -1.74697 0
M  V30 6742 H 657.528 -1.60349 -3.36332 0
M  V30 6743 H 657.641 -3.48614 -3.28641 0
M  V30 6744 H 656.005 -1.7856 -1.81627 0
M  V30 6745 H 656.788 -3.26945 -1.04699 0
M  V30 6746 N 659.233 0.902656 -1.29189 0
M  V30 6747 C 660.183 1.99326 -1.10695 0
M  V30 6748 C 661.167 1.60877 -0.0272521 0
M  V30 6749 O 662.359 1.75245 -0.248635 0
M  V30 6750 C 659.488 3.34265 -0.78244 0
M  V30 6751 C 658.574 3.79081 -1.90153 0
M  V30 6752 N 658.965 3.96162 -3.14466 0
M  V30 6753 C 657.263 4.08333 -1.79389 0
M  V30 6754 C 657.964 4.3388 -3.87458 0
M  V30 6755 N 656.94 4.42759 -3.15381 0
M  V30 6756 H 660.742 2.10597 -2.05003 0
M  V30 6757 H 658.256 1.09127 -1.20271 0
M  V30 6758 H 660.253 4.12097 -0.630996 0
M  V30 6759 H 658.913 3.2434 0.152754 0
M  V30 6760 H 659.924 3.81775 -3.49954 0
M  V30 6761 H 656.601 4.06982 -0.931217 0
M  V30 6762 H 657.991 4.54965 -4.94425 0
M  V30 6763 N 660.711 1.11618 1.11262 0
M  V30 6764 C 661.936 0.889013 1.8738 0
M  V30 6765 C 662.361 -0.555884 1.79698 0
M  V30 6766 O 661.719 -1.39272 1.16073 0
M  V30 6767 C 661.767 1.35759 3.34069 0
M  V30 6768 O 660.871 0.530499 4.08974 0
M  V30 6769 H 660.212 0.320082 0.581759 0
M  V30 6770 H 662.742 1.48611 1.40627 0
M  V30 6771 H 662.752 1.35291 3.84916 0
M  V30 6772 H 661.427 2.40973 3.38976 0
M  V30 6773 H 660.004 0.601439 3.68018 0
M  V30 6774 N 662.189 -1.289 0.906776 0
M  V30 6775 C 663.436 -1.95269 0.536326 0
M  V30 6776 C 663.764 -1.71435 -0.918711 0
M  V30 6777 O 663.019 -1.02431 -1.66752 0
M  V30 6778 C 663.318 -3.48704 0.783617 0
M  V30 6779 C 662.984 -3.92626 2.21711 0
M  V30 6780 C 661.646 -4.04329 2.60906 0
M  V30 6781 C 663.998 -4.15218 3.15029 0
M  V30 6782 C 661.326 -4.35998 3.92584 0
M  V30 6783 C 663.678 -4.48365 4.46264 0
M  V30 6784 C 662.342 -4.58278 4.85322 0
M  V30 6785 H 661.612 -0.714538 0.196256 0
M  V30 6786 H 664.259 -1.53366 1.14678 0
M  V30 6787 H 662.564 -3.91696 0.0903048 0
M  V30 6788 H 664.261 -3.98162 0.476267 0
M  V30 6789 H 660.851 -3.84038 1.90296 0
M  V30 6790 H 665.035 -4.05636 2.8596 0
M  V30 6791 H 660.291 -4.41878 4.22557 0
M  V30 6792 H 664.465 -4.64795 5.18593 0
M  V30 6793 H 662.092 -4.82573 5.87391 0
M  V30 6794 N 663.667 -0.670007 -1.42649 0
M  V30 6795 C 664.597 -0.00258501 -2.335 0
M  V30 6796 C 665.578 0.794364 -1.50412 0
M  V30 6797 O 666.763 0.75248 -1.79029 0
M  V30 6798 C 663.893 0.952748 -3.33976 0
M  V30 6799 C 662.847 0.264733 -4.2718 0
M  V30 6800 C 662.173 1.33267 -5.17826 0
M  V30 6801 C 663.473 -0.853289 -5.15283 0
M  V30 6802 H 665.167 -0.761326 -2.89559 0
M  V30 6803 H 662.713 -0.367561 -1.3923 0
M  V30 6804 H 664.666 1.4287 -3.96442 0
M  V30 6805 H 663.39 1.74285 -2.7621 0
M  V30 6806 H 662.049 -0.190938 -3.66102 0
M  V30 6807 H 661.697 2.11464 -4.5639 0
M  V30 6808 H 661.397 0.877476 -5.81011 0
M  V30 6809 H 662.921 1.80965 -5.83167 0
M  V30 6810 H 664.335 -0.458763 -5.71462 0
M  V30 6811 H 662.732 -1.23398 -5.87276 0
M  V30 6812 H 663.802 -1.70412 -4.53969 0
M  V30 6813 N 665.145 1.52092 -0.413018 0
M  V30 6814 C 666.391 2.02154 0.161737 0
M  V30 6815 C 666.724 1.29789 1.44459 0
M  V30 6816 O 665.999 0.405378 1.90229 0
M  V30 6817 C 666.282 3.5781 0.405463 0
M  V30 6818 C 666.135 4.40819 -0.894335 0
M  V30 6819 C 667.454 4.23821 1.18591 0
M  V30 6820 H 664.573 0.734769 0.0573077 0
M  V30 6821 H 667.215 1.81948 -0.547247 0
M  V30 6822 H 665.365 3.75158 1.0094 0
M  V30 6823 H 667.037 4.35175 -1.53039 0
M  V30 6824 H 665.28 4.06877 -1.50444 0
M  V30 6825 H 665.951 5.47819 -0.678144 0
M  V30 6826 H 668.427 4.10596 0.674573 0
M  V30 6827 H 667.303 5.32663 1.3252 0
M  V30 6828 H 667.564 3.83038 2.20758 0
M  V30 6829 N 666.623 0.143563 1.56945 0
M  V30 6830 C 667.571 -0.814556 2.17871 0
M  V30 6831 C 668.565 -1.25778 1.13474 0
M  V30 6832 O 669.771 -1.22666 1.31731 0
M  V30 6833 H 666.146 -0.280873 0.697578 0
M  V30 6834 H 668.117 -0.276459 2.97117 0
M  V30 6835 C 666.866 -2.04503 2.81201 0
M  V30 6836 H 666.189 -1.71296 3.61245 0
M  V30 6837 H 667.629 -2.69493 3.27337 0
M  V30 6838 C 666.088 -2.85079 1.79532 0
M  V30 6839 O 666.618 -3.81306 1.26368 0
M  V30 6840 N 664.824 -2.49546 1.48913 0
M  V30 6841 H 664.371 -1.71359 1.92338 0
M  V30 6842 H 664.329 -3.03751 0.811348 0
M  V30 6843 N 668.101 -1.57061 -0.130224 0
M  V30 6844 C 669.034 -1.94698 -1.19029 0
M  V30 6845 C 670.012 -0.815074 -1.40696 0
M  V30 6846 O 671.196 -1.07223 -1.55034 0
M  V30 6847 C 668.323 -2.23352 -2.5462 0
M  V30 6848 C 667.369 -3.45945 -2.49448 0
M  V30 6849 S 668.202 -4.98927 -1.94505 0
M  V30 6850 C 669.358 -5.30721 -3.31792 0
M  V30 6851 H 669.591 -2.84308 -0.869272 0
M  V30 6852 H 667.124 -1.50688 -0.336531 0
M  V30 6853 H 669.082 -2.40539 -3.32643 0
M  V30 6854 H 667.743 -1.34376 -2.83905 0
M  V30 6855 H 666.936 -3.63324 -3.49302 0
M  V30 6856 H 666.538 -3.28086 -1.79543 0
M  V30 6857 H 668.83 -5.25215 -4.27966 0
M  V30 6858 H 669.773 -6.32048 -3.19251 0
M  V30 6859 H 670.181 -4.5821 -3.29703 0
M  V30 6860 N 669.579 0.400081 -1.52437 0
M  V30 6861 C 670.526 1.48803 -1.76426 0
M  V30 6862 C 671.496 1.5461 -0.607032 0
M  V30 6863 O 672.681 1.71041 -0.845563 0
M  V30 6864 C 669.821 2.86156 -1.92896 0
M  V30 6865 C 668.934 2.89587 -3.20567 0
M  V30 6866 C 668.069 4.18296 -3.27417 0
M  V30 6867 C 667.108 4.15736 -4.49255 0
M  V30 6868 N 666.245 5.36032 -4.53447 0
M  V30 6869 H 671.085 1.27649 -2.69276 0
M  V30 6870 H 668.622 0.619451 -1.33421 0
M  V30 6871 H 670.58 3.65901 -2.00429 0
M  V30 6872 H 669.21 3.05785 -1.03418 0
M  V30 6873 H 668.262 2.02278 -3.22161 0
M  V30 6874 H 669.574 2.83562 -4.10358 0
M  V30 6875 H 668.728 5.06439 -3.34072 0
M  V30 6876 H 667.467 4.27028 -2.35581 0
M  V30 6877 H 666.472 3.25982 -4.42737 0
M  V30 6878 H 667.697 4.08636 -5.42396 0
M  V30 6879 H 665.643 5.45415 -3.64498 0
M  V30 6880 H 665.56 5.32038 -5.37096 0
M  V30 6881 H 666.828 6.26104 -4.64343 0
M  V30 6882 N 671.057 1.43213 0.657864 0
M  V30 6883 C 671.987 1.50815 1.78262 0
M  V30 6884 C 672.968 0.363211 1.66177 0
M  V30 6885 O 674.153 0.579806 1.85343 0
M  V30 6886 C 671.283 1.42625 3.16663 0
M  V30 6887 C 670.237 2.5532 3.43505 0
M  V30 6888 C 669.563 2.32184 4.81658 0
M  V30 6889 C 670.863 3.97583 3.38711 0
M  V30 6890 H 672.557 2.44954 1.72157 0
M  V30 6891 H 670.103 1.17896 0.82683 0
M  V30 6892 H 672.056 1.46548 3.95097 0
M  V30 6893 H 670.78 0.449877 3.23487 0
M  V30 6894 H 669.439 2.50742 2.6744 0
M  V30 6895 H 669.087 1.32801 4.85153 0
M  V30 6896 H 668.787 3.07724 5.00579 0
M  V30 6897 H 670.311 2.37883 5.62356 0
M  V30 6898 H 671.725 4.03673 4.07089 0
M  V30 6899 H 670.122 4.73112 3.69168 0
M  V30 6900 H 671.192 4.23049 2.36976 0
M  V30 6901 N 672.536 -0.895792 1.29666 0
M  V30 6902 C 673.446 -2.03329 1.17024 0
M  V30 6903 C 674.462 -1.73753 0.0925962 0
M  V30 6904 O 675.638 -1.99071 0.305431 0
M  V30 6905 C 672.703 -3.36072 0.851841 0
M  V30 6906 C 671.764 -3.7914 2.01373 0
M  V30 6907 C 670.997 -5.05549 1.71043 0
M  V30 6908 O 671.22 -5.66874 0.633213 0
M  V30 6909 O 670.154 -5.44764 2.5596 0
M  V30 6910 H 673.98 -2.16918 2.12556 0
M  V30 6911 H 671.565 -1.02007 1.09156 0
M  V30 6912 H 673.447 -4.15729 0.689006 0
M  V30 6913 H 672.122 -3.23616 -0.0736634 0
M  V30 6914 H 671.029 -3.00233 2.23183 0
M  V30 6915 H 672.362 -3.96186 2.92058 0
M  V30 6916 N 674.014 -1.12206 -1.10668 0
M  V30 6917 C 674.977 -0.790867 -2.15123 0
M  V30 6918 C 675.977 0.193618 -1.5963 0
M  V30 6919 O 677.167 -0.0318728 -1.74171 0
M  V30 6920 C 674.299 -0.174797 -3.40452 0
M  V30 6921 H 675.492 -1.7163 -2.45933 0
M  V30 6922 H 673.045 -0.924993 -1.2599 0
M  V30 6923 H 673.78 0.760478 -3.15257 0
M  V30 6924 H 673.565 -0.88358 -3.82015 0
M  V30 6925 H 675.055 0.0405162 -4.1758 0
M  V30 6926 N 675.492 1.28418 -0.913599 0
M  V30 6927 C 676.738 1.9527 -0.547484 0
M  V30 6928 C 677.071 1.71745 0.906486 0
M  V30 6929 O 676.346 1.03834 1.64465 0
M  V30 6930 C 676.629 3.49748 -0.857205 0
M  V30 6931 C 676.482 3.82675 -2.3639 0
M  V30 6932 C 677.801 4.3868 -0.353258 0
M  V30 6933 H 674.92 0.709236 -0.200381 0
M  V30 6934 H 677.562 1.51789 -1.14281 0
M  V30 6935 H 675.712 3.86915 -0.350548 0
M  V30 6936 H 677.384 3.55378 -2.94116 0
M  V30 6937 H 675.627 3.29724 -2.81894 0
M  V30 6938 H 676.298 4.90547 -2.53115 0
M  V30 6939 H 678.774 4.08584 -0.787288 0
M  V30 6940 H 677.65 5.45621 -0.599049 0
M  V30 6941 H 677.911 4.35753 0.746413 0
M  V30 6942 N 676.97 0.677563 1.42291 0
M  V30 6943 C 678.247 0.129803 1.95169 0
M  V30 6944 C 678.627 -1.35605 1.61786 0
M  V30 6945 O 677.975 -2.09361 0.915444 0
M  V30 6946 C 678.185 0.401889 3.46678 0
M  V30 6947 C 679.533 0.319889 4.23393 0
M  V30 6948 O 680.557 0.33579 3.54614 0
M  V30 6949 O 679.416 0.264459 5.4586 0
M  V30 6950 H 676.51 0.00447433 0.826988 0
M  V30 6951 H 679.056 0.752483 1.52105 0
M  V30 6952 H 677.828 1.43108 3.64192 0
M  V30 6953 H 677.451 -0.252662 3.96796 0
M  V30 6954 N 678.448 -1.51871 0.421078 0
M  V30 6955 C 679.864 -1.59435 0.0725398 0
M  V30 6956 C 680.064 -1.43315 -1.41644 0
M  V30 6957 O 679.12 -1.26614 -2.18461 0
M  V30 6958 C 680.433 -2.9509 0.578132 0
M  V30 6959 C 681.981 -3.08356 0.537149 0
M  V30 6960 C 682.456 -4.4651 1.01945 0
M  V30 6961 N 683.947 -4.52784 0.976758 0
M  V30 6962 C 684.682 -5.57976 1.32099 0
M  V30 6963 N 684.178 -6.70664 1.73727 0
M  V30 6964 N 685.971 -5.48248 1.2402 0
M  V30 6965 H 678.122 -1.60595 1.39007 0
M  V30 6966 H 680.385 -0.756138 0.571803 0
M  V30 6967 H 680.091 -3.12205 1.61929 0
M  V30 6968 H 679.965 -3.772 -0.00578374 0
M  V30 6969 H 682.352 -2.90919 -0.494991 0
M  V30 6970 H 682.433 -2.28125 1.15727 0
M  V30 6971 H 682.077 -4.64692 2.04997 0
M  V30 6972 H 682.007 -5.25256 0.376023 0
M  V30 6973 H 684.498 -3.71898 0.670851 0
M  V30 6974 H 684.811 -7.46932 1.98274 0
M  V30 6975 H 683.156 -6.71914 1.77641 0
M  V30 6976 H 686.347 -4.59095 0.913756 0
M  V30 6977 H 686.52 -6.30119 1.51176 0
M  V30 6978 N 679.926 -0.151884 -1.56866 0
M  V30 6979 C 681.342 0.204486 -1.58285 0
M  V30 6980 C 681.542 1.6431 -1.16639 0
M  V30 6981 O 680.598 2.37077 -0.868946 0
M  V30 6982 C 681.911 -0.0587019 -3.00643 0
M  V30 6983 C 683.459 0.00462303 -3.13 0
M  V30 6984 C 683.934 -0.231297 -4.57416 0
M  V30 6985 N 685.425 -0.178394 -4.62856 0
M  V30 6986 C 686.16 -0.335379 -5.72418 0
M  V30 6987 N 685.656 -0.550355 -6.90611 0
M  V30 6988 N 687.449 -0.272641 -5.61438 0
M  V30 6989 H 679.6 -1.09116 -1.82229 0
M  V30 6990 H 681.863 -0.432311 -0.843689 0
M  V30 6991 H 681.569 -1.05453 -3.35518 0
M  V30 6992 H 681.443 0.658508 -3.71407 0
M  V30 6993 H 683.83 0.991009 -2.77962 0
M  V30 6994 H 683.911 -0.744992 -2.44711 0
M  V30 6995 H 683.555 -1.2148 -4.93158 0
M  V30 6996 H 683.485 0.5387 -5.23837 0
M  V30 6997 H 685.976 -0.0170923 -3.77896 0
M  V30 6998 H 686.289 -0.660116 -7.69976 0
M  V30 6999 H 684.634 -0.586736 -6.92519 0
M  V30 7000 H 687.825 -0.105421 -4.67981 0
M  V30 7001 H 687.998 -0.398418 -6.46774 0
M  V30 7002 N 681.404 1.57128 0.121893 0
M  V30 7003 C 682.352 2.01109 1.16868 0
M  V30 7004 C 683.346 0.907532 1.43039 0
M  V30 7005 O 684.552 1.09274 1.43036 0
M  V30 7006 H 680.927 0.640539 0.393971 0
M  V30 7007 H 682.898 2.88261 0.771224 0
M  V30 7008 C 681.647 2.42887 2.48799 0
M  V30 7009 H 680.97 3.2737 2.29498 0
M  V30 7010 H 682.41 2.77461 3.20611 0
M  V30 7011 C 680.869 1.29137 3.11168 0
M  V30 7012 O 681.399 0.605756 3.97106 0
M  V30 7013 N 679.605 1.04916 2.71 0
M  V30 7014 H 679.152 1.60848 2.01211 0
M  V30 7015 H 679.11 0.290016 3.1306 0
M  V30 7016 N 682.882 -0.391992 1.52647 0
M  V30 7017 C 684.293 -0.970064 1.5952 0
M  V30 7018 C 684.644 -1.91059 0.446207 0
M  V30 7019 O 683.769 -2.12062 -0.431125 0
M  V30 7020 C 684.364 -1.76614 2.89125 0
M  V30 7021 C 682.923 -2.29396 2.9842 0
M  V30 7022 C 682.07 -1.09864 2.54608 0
M  V30 7023 H 685.021 -0.171638 1.57769 0
M  V30 7024 H 685.042 -2.62511 2.75442 0
M  V30 7025 H 684.554 -1.08135 3.72731 0
M  V30 7026 H 682.655 -3.01196 2.19344 0
M  V30 7027 H 682.768 -2.59088 4.03002 0
M  V30 7028 H 681.132 -1.45777 2.08857 0
M  V30 7029 H 681.915 -0.429249 3.40606 0
M  V30 7030 N 684.36 -1.4356 -0.65026 0
M  V30 7031 C 685.323 -1.48615 -1.74489 0
M  V30 7032 C 686.323 -0.370483 -1.56474 0
M  V30 7033 O 687.513 -0.632351 -1.62317 0
M  V30 7034 C 684.645 -1.34161 -3.13391 0
M  V30 7035 H 685.838 -2.46103 -1.71387 0
M  V30 7036 H 683.391 -1.30369 -0.862186 0
M  V30 7037 H 684.126 -0.376918 -3.22102 0
M  V30 7038 H 683.911 -2.1504 -3.27872 0
M  V30 7039 H 685.401 -1.40637 -3.93206 0
M  V30 7040 N 685.838 0.888903 -1.30139 0
M  V30 7041 C 686.768 2.01046 -1.18755 0
M  V30 7042 C 687.749 1.69916 -0.0791438 0
M  V30 7043 O 688.934 1.92445 -0.260498 0
M  V30 7044 C 686.064 3.36109 -0.874518 0
M  V30 7045 C 685.018 3.81486 -1.94043 0
M  V30 7046 C 684.344 5.13796 -1.48047 0
M  V30 7047 C 685.644 4.00637 -3.35093 0
M  V30 7048 H 687.338 2.10828 -2.12584 0
M  V30 7049 H 684.884 1.01298 -1.02346 0
M  V30 7050 H 686.837 4.14089 -0.781548 0
M  V30 7051 H 685.561 3.26449 0.0994519 0
M  V30 7052 H 684.22 3.05731 -2.02297 0
M  V30 7053 H 683.868 5.0056 -0.494878 0
M  V30 7054 H 683.568 5.45127 -2.19341 0
M  V30 7055 H 685.092 5.94305 -1.40121 0
M  V30 7056 H 686.506 4.69067 -3.2962 0
M  V30 7057 H 684.903 4.43339 -4.04438 0
M  V30 7058 H 685.973 3.0462 -3.77273 0
M  V30 7059 N 687.317 1.12792 1.10072 0
M  V30 7060 C 688.566 0.880232 1.81479 0
M  V30 7061 C 688.879 -0.595575 1.86312 0
M  V30 7062 O 690.085 -0.959979 2.53962 0
M  V30 7063 C 688.541 1.52514 3.25987 0
M  V30 7064 C 688.149 3.036 3.29441 0
M  V30 7065 C 689.893 1.35788 4.02196 0
M  V30 7066 C 687.8 3.61007 4.68431 0
M  V30 7067 H 686.73 0.325654 0.680048 0
M  V30 7068 H 689.381 1.35485 1.23758 0
M  V30 7069 H 687.763 0.978188 3.83728 0
M  V30 7070 H 688.937 3.64819 2.81502 0
M  V30 7071 H 687.252 3.19765 2.66719 0
M  V30 7072 H 689.849 1.76096 5.0487 0
M  V30 7073 H 690.192 0.301972 4.15203 0
M  V30 7074 H 690.725 1.87426 3.50879 0
M  V30 7075 H 687.464 4.66375 4.60625 0
M  V30 7076 H 686.984 3.04564 5.16721 0
M  V30 7077 H 688.663 3.60289 5.37402 0
M  V30 7078 N 688.795 -1.27931 0.920396 0
M  V30 7079 C 690.211 -1.47085 0.619537 0
M  V30 7080 C 690.411 -1.83463 -0.833291 0
M  V30 7081 O 689.467 -1.94363 -1.61181 0
M  V30 7082 C 690.78 -2.56878 1.56314 0
M  V30 7083 C 692.328 -2.70743 1.57058 0
M  V30 7084 C 692.803 -3.83687 2.50097 0
M  V30 7085 N 694.294 -3.9105 2.48262 0
M  V30 7086 C 695.029 -4.77842 3.16945 0
M  V30 7087 N 694.525 -5.69176 3.94982 0
M  V30 7088 N 696.318 -4.71509 3.06 0
M  V30 7089 H 688.469 -1.02601 1.85975 0
M  V30 7090 H 690.732 -0.511682 0.798051 0
M  V30 7091 H 690.438 -2.36923 2.59923 0
M  V30 7092 H 690.312 -3.54117 1.29928 0
M  V30 7093 H 692.699 -2.90083 0.541832 0
M  V30 7094 H 692.78 -1.74015 1.8749 0
M  V30 7095 H 692.424 -3.65101 3.53077 0
M  V30 7096 H 692.354 -4.79827 2.16964 0
M  V30 7097 H 694.845 -3.25738 1.91581 0
M  V30 7098 H 695.158 -6.32245 4.44394 0
M  V30 7099 H 693.503 -5.68995 3.99086 0
M  V30 7100 H 696.694 -3.99151 2.44533 0
M  V30 7101 H 696.867 -5.38933 3.59799 0
M  V30 7102 N 690.273 -0.685099 -1.4193 0
M  V30 7103 C 691.519 -0.211971 -2.01689 0
M  V30 7104 C 691.852 1.18189 -1.54094 0
M  V30 7105 O 691.127 1.79559 -0.747572 0
M  V30 7106 C 691.41 -0.258019 -3.59174 0
M  V30 7107 C 691.263 -1.68807 -4.16922 0
M  V30 7108 C 692.582 0.388044 -4.38386 0
M  V30 7109 H 689.701 -0.0784987 -0.732808 0
M  V30 7110 H 692.343 -0.871837 -1.68816 0
M  V30 7111 H 690.493 0.303832 -3.8731 0
M  V30 7112 H 692.165 -2.30296 -3.99702 0
M  V30 7113 H 690.408 -2.22553 -3.72361 0
M  V30 7114 H 691.079 -1.6719 -5.26072 0
M  V30 7115 H 693.555 -0.0903432 -4.16002 0
M  V30 7116 H 692.431 0.325232 -5.47936 0
M  V30 7117 H 692.692 1.4672 -4.17044 0
M  V30 7118 N 691.751 1.51645 -0.429126 0
M  V30 7119 C 692.714 2.26116 0.374726 0
M  V30 7120 C 693.714 1.29242 0.956714 0
M  V30 7121 O 694.904 1.53022 0.832452 0
M  V30 7122 C 692.036 3.04669 1.52937 0
M  V30 7123 H 693.229 2.9861 -0.277818 0
M  V30 7124 H 690.782 1.55236 -0.182097 0
M  V30 7125 H 691.517 2.36571 2.21821 0
M  V30 7126 H 691.302 3.75814 1.11833 0
M  V30 7127 H 692.792 3.61102 2.09751 0
M  V30 7128 N 693.229 0.160201 1.56784 0
M  V30 7129 C 694.454 -0.497373 2.01348 0
M  V30 7130 C 694.879 -1.56757 1.03966 0
M  V30 7131 O 694.237 -1.81292 0.0174455 0
M  V30 7132 C 694.285 -1.0628 3.44582 0
M  V30 7133 O 693.389 -2.17723 3.50244 0
M  V30 7134 H 692.73 -0.120295 0.653012 0
M  V30 7135 H 695.26 0.260821 2.02931 0
M  V30 7136 H 695.27 -1.38819 3.83658 0
M  V30 7137 H 693.945 -0.279166 4.14962 0
M  V30 7138 H 692.522 -1.86313 3.2302 0
M  V30 7139 N 694.707 -1.5719 -0.113559 0
M  V30 7140 C 695.953 -1.85412 -0.821597 0
M  V30 7141 C 696.286 -0.746722 -1.7927 0
M  V30 7142 O 695.561 0.246971 -1.92926 0
M  V30 7143 C 695.844 -3.24233 -1.56669 0
M  V30 7144 C 695.697 -4.45578 -0.614823 0
M  V30 7145 C 697.016 -3.60697 -2.52161 0
M  V30 7146 H 694.135 -0.674406 -0.29723 0
M  V30 7147 H 696.777 -1.89807 -0.085694 0
M  V30 7148 H 694.927 -3.20617 -2.19401 0
M  V30 7149 H 696.599 -4.613 0.00407137 0
M  V30 7150 H 694.842 -4.33738 0.0732332 0
M  V30 7151 H 695.513 -5.39395 -1.17292 0
M  V30 7152 H 697.989 -3.65139 -1.99532 0
M  V30 7153 H 696.865 -4.58798 -3.01323 0
M  V30 7154 H 697.126 -2.88403 -3.35076 0
M  V30 7155 N 696.185 0.383891 -1.52853 0
M  V30 7156 C 697.095 1.49343 -1.80925 0
M  V30 7157 C 698.111 1.59458 -0.696348 0
M  V30 7158 O 699.287 1.75698 -0.984481 0
M  V30 7159 C 696.352 2.84819 -1.97684 0
M  V30 7160 C 695.413 2.84382 -3.21598 0
M  V30 7161 C 694.646 4.13397 -3.37548 0
M  V30 7162 O 694.869 5.08619 -2.58192 0
M  V30 7163 O 693.803 4.20325 -4.30826 0
M  V30 7164 H 697.629 1.2855 -2.75152 0
M  V30 7165 H 695.214 0.572229 -1.38007 0
M  V30 7166 H 697.096 3.65125 -2.10385 0
M  V30 7167 H 695.771 3.05627 -1.06647 0
M  V30 7168 H 694.678 2.0284 -3.14336 0
M  V30 7169 H 696.011 2.68526 -4.12498 0
M  V30 7170 N 697.663 1.43903 0.642637 0
M  V30 7171 C 698.94 1.36556 1.40043 0
M  V30 7172 C 699.32 0.0185588 2.11092 0
M  V30 7173 O 698.668 -0.998438 2.05532 0
M  V30 7174 C 698.878 2.55596 2.37638 0
M  V30 7175 C 700.226 2.99153 3.01318 0
M  V30 7176 O 701.25 2.55719 2.47965 0
M  V30 7177 O 700.109 3.74427 3.98078 0
M  V30 7178 H 697.203 0.540189 0.626198 0
M  V30 7179 H 699.749 1.55971 0.668657 0
M  V30 7180 H 698.521 3.45256 1.84158 0
M  V30 7181 H 698.144 2.38334 3.18249 0
M  V30 7182 N 699.141 -0.881989 1.30609 0
M  V30 7183 C 700.387 -1.63647 1.19781 0
M  V30 7184 C 700.72 -1.92632 -0.246265 0
M  V30 7185 O 699.995 -1.54938 -1.17577 0
M  V30 7186 C 700.278 -2.97437 2.02985 0
M  V30 7187 C 700.131 -2.75406 3.55628 0
M  V30 7188 C 701.45 -3.98397 1.86997 0
M  V30 7189 H 698.569 -0.593841 0.436488 0
M  V30 7190 H 701.211 -1.02041 1.60273 0
M  V30 7191 H 699.361 -3.50018 1.68581 0
M  V30 7192 H 701.033 -2.2959 4.00107 0
M  V30 7193 H 699.276 -2.09856 3.79662 0
M  V30 7194 H 699.947 -3.70552 4.09139 0
M  V30 7195 H 702.423 -3.54986 2.17081 0
M  V30 7196 H 701.299 -4.89916 2.47536 0
M  V30 7197 H 701.56 -4.3424 0.829943 0
M  V30 7198 N 700.619 -1.13374 -1.09472 0
M  V30 7199 C 701.529 -0.824029 -2.19652 0
M  V30 7200 C 702.545 0.19118 -1.72947 0
M  V30 7201 O 703.721 0.0223464 -2.01388 0
M  V30 7202 C 700.786 -0.294009 -3.45451 0
M  V30 7203 C 699.847 -1.3704 -4.0684 0
M  V30 7204 C 699.08 -0.86558 -5.26634 0
M  V30 7205 O 699.303 0.29702 -5.69626 0
M  V30 7206 O 698.237 -1.63968 -5.79136 0
M  V30 7207 H 702.063 -1.74454 -2.48595 0
M  V30 7208 H 699.648 -0.911155 -1.18399 0
M  V30 7209 H 701.53 -0.00381039 -4.214 0
M  V30 7210 H 700.205 0.598921 -3.18111 0
M  V30 7211 H 699.112 -1.71391 -3.3253 0
M  V30 7212 H 700.445 -2.23746 -4.38405 0
M  V30 7213 N 702.098 1.27442 -0.927168 0
M  V30 7214 C 703.375 1.89473 -0.485742 0
M  V30 7215 C 703.755 1.83922 1.03614 0
M  V30 7216 O 703.103 1.28409 1.89007 0
M  V30 7217 C 703.313 3.33417 -1.03123 0
M  V30 7218 C 704.661 4.10333 -1.0914 0
M  V30 7219 O 705.685 3.4243 -0.98082 0
M  V30 7220 O 704.544 5.31737 -1.26165 0
M  V30 7221 H 701.638 0.812124 -0.156154 0
M  V30 7222 H 704.184 1.35713 -1.01882 0
M  V30 7223 H 702.956 3.31747 -2.07508 0
M  V30 7224 H 702.579 3.94695 -0.479767 0
M  V30 7225 N 703.576 0.692616 1.41565 0
M  V30 7226 C 704.526 0.00231847 2.28 0
M  V30 7227 C 705.51 -0.755793 1.42044 0
M  V30 7228 O 706.702 -0.631772 1.65341 0
M  V30 7229 C 703.831 -0.935468 3.30309 0
M  V30 7230 C 702.917 -0.173761 4.23744 0
M  V30 7231 N 703.308 0.830872 4.98929 0
M  V30 7232 C 701.606 -0.409666 4.44115 0
M  V30 7233 C 702.307 1.28656 5.67294 0
M  V30 7234 N 701.283 0.613053 5.40132 0
M  V30 7235 H 705.085 0.772635 2.83562 0
M  V30 7236 H 702.599 0.523198 1.53741 0
M  V30 7237 H 704.596 -1.44513 3.91052 0
M  V30 7238 H 703.256 -1.70542 2.76307 0
M  V30 7239 H 704.267 1.21101 5.03542 0
M  V30 7240 H 700.944 -1.15773 4.01127 0
M  V30 7241 H 702.334 2.12006 6.37576 0
M  V30 7242 N 705.054 -1.51416 0.437162 0
M  V30 7243 C 706.47 -1.59349 0.0894459 0
M  V30 7244 C 706.67 -1.44809 -1.40116 0
M  V30 7245 O 705.726 -1.28924 -2.17106 0
M  V30 7246 C 707.039 -2.9446 0.609398 0
M  V30 7247 C 708.587 -3.07769 0.569824 0
M  V30 7248 C 709.062 -4.45404 1.06675 0
M  V30 7249 N 710.553 -4.51723 1.02473 0
M  V30 7250 C 711.288 -5.56544 1.3801 0
M  V30 7251 N 710.784 -6.68784 1.80831 0
M  V30 7252 N 712.577 -5.46901 1.29828 0
M  V30 7253 H 704.728 -1.59112 1.40703 0
M  V30 7254 H 706.991 -0.750031 0.579791 0
M  V30 7255 H 706.697 -3.1047 1.65231 0
M  V30 7256 H 706.571 -3.77184 0.0342236 0
M  V30 7257 H 708.958 -2.91428 -0.464107 0
M  V30 7258 H 709.039 -2.26885 1.1814 0
M  V30 7259 H 708.683 -4.62492 2.09914 0
M  V30 7260 H 708.613 -5.24827 0.431712 0
M  V30 7261 H 711.104 -3.71165 0.710258 0
M  V30 7262 H 711.417 -7.44787 2.06185 0
M  V30 7263 H 709.762 -6.69992 1.84757 0
M  V30 7264 H 712.953 -4.581 0.962397 0
M  V30 7265 H 713.126 -6.2848 1.57851 0
M  V30 7266 N 706.532 -0.168513 -1.56696 0
M  V30 7267 C 707.781 0.477233 -1.95973 0
M  V30 7268 C 708.094 1.64578 -1.05704 0
M  V30 7269 O 709.3 2.35758 -1.3465 0
M  V30 7270 C 707.756 0.900413 -3.48455 0
M  V30 7271 C 707.364 -0.242382 -4.47344 0
M  V30 7272 C 709.108 1.51474 -3.96555 0
M  V30 7273 C 707.015 0.200272 -5.91061 0
M  V30 7274 H 705.945 0.182061 -0.73169 0
M  V30 7275 H 708.596 -0.256297 -1.81701 0
M  V30 7276 H 706.978 1.68984 -3.58135 0
M  V30 7277 H 708.152 -1.01967 -4.49377 0
M  V30 7278 H 706.467 -0.766484 -4.09285 0
M  V30 7279 H 709.064 1.85792 -5.01384 0
M  V30 7280 H 709.407 2.41163 -3.39332 0
M  V30 7281 H 709.94 0.789802 -3.89881 0
M  V30 7282 H 706.679 -0.661775 -6.52151 0
M  V30 7283 H 706.199 0.942979 -5.92341 0
M  V30 7284 H 707.878 0.645088 -6.43776 0
M  V30 7285 N 708.01 1.57248 0.105221 0
M  V30 7286 C 708.957 2.01338 1.12835 0
M  V30 7287 C 709.927 0.887897 1.40377 0
M  V30 7288 O 711.112 1.15315 1.5201 0
M  V30 7289 C 708.252 2.43432 2.44611 0
M  V30 7290 C 707.365 3.69457 2.23888 0
M  V30 7291 C 706.5 4.00473 3.48991 0
M  V30 7292 C 705.539 5.19638 3.23485 0
M  V30 7293 N 704.676 5.46457 4.40828 0
M  V30 7294 H 709.516 2.88527 0.745386 0
M  V30 7295 H 707.053 1.42714 0.356535 0
M  V30 7296 H 709.011 2.65879 3.21503 0
M  V30 7297 H 707.641 1.59266 2.80774 0
M  V30 7298 H 706.693 3.54545 1.37847 0
M  V30 7299 H 708.005 4.56497 2.01026 0
M  V30 7300 H 707.159 4.23642 4.34295 0
M  V30 7301 H 705.898 3.11935 3.74897 0
M  V30 7302 H 704.903 4.96299 2.36574 0
M  V30 7303 H 706.128 6.09766 2.98935 0
M  V30 7304 H 704.074 4.60876 4.66829 0
M  V30 7305 H 703.991 6.27849 4.2112 0
M  V30 7306 H 705.259 5.74155 5.27225 0
M  V30 7307 N 709.488 -0.375779 1.53054 0
M  V30 7308 C 710.737 -1.11674 1.67964 0
M  V30 7309 C 711.05 -1.90755 0.432655 0
M  V30 7310 O 712.256 -2.67538 0.462109 0
M  V30 7311 C 710.712 -2.0344 2.96884 0
M  V30 7312 C 710.32 -1.29719 4.28809 0
M  V30 7313 C 712.064 -2.7759 3.2116 0
M  V30 7314 C 709.971 -2.20327 5.48826 0
M  V30 7315 H 708.901 -0.420597 0.625791 0
M  V30 7316 H 711.552 -0.378499 1.79554 0
M  V30 7317 H 709.934 -2.80953 2.79072 0
M  V30 7318 H 711.108 -0.573394 4.57219 0
M  V30 7319 H 709.423 -0.674735 4.10897 0
M  V30 7320 H 712.02 -3.4559 4.0801 0
M  V30 7321 H 712.363 -3.42399 2.36789 0
M  V30 7322 H 712.896 -2.07164 3.396 0
M  V30 7323 H 709.635 -1.60113 6.35645 0
M  V30 7324 H 709.155 -2.90585 5.2471 0
M  V30 7325 H 710.834 -2.80116 5.83219 0
M  V30 7326 N 710.966 -1.44241 -0.634997 0
M  V30 7327 C 711.916 -1.47247 -1.74076 0
M  V30 7328 C 712.9 -0.338708 -1.57295 0
M  V30 7329 O 714.092 -0.583751 -1.67097 0
M  V30 7330 C 711.221 -1.41579 -3.12746 0
M  V30 7331 C 710.307 -2.60055 -3.35011 0
M  V30 7332 N 710.698 -3.85321 -3.27661 0
M  V30 7333 C 708.996 -2.55168 -3.65794 0
M  V30 7334 C 709.697 -4.64241 -3.50508 0
M  V30 7335 N 708.673 -3.95254 -3.73196 0
M  V30 7336 H 712.475 -2.4195 -1.66845 0
M  V30 7337 H 709.989 -1.3915 -0.837326 0
M  V30 7338 H 711.986 -1.41816 -3.92038 0
M  V30 7339 H 710.646 -0.479108 -3.21146 0
M  V30 7340 H 711.657 -4.17345 -3.06665 0
M  V30 7341 H 708.334 -1.70276 -3.81198 0
M  V30 7342 H 709.724 -5.73267 -3.50449 0
M  V30 7343 N 712.444 0.87505 -1.31075 0
M  V30 7344 C 713.691 1.62768 -1.20469 0
M  V30 7345 C 714.019 1.93034 0.23834 0
M  V30 7346 O 713.274 1.55693 1.18567 0
M  V30 7347 C 713.573 2.96948 -1.98888 0
M  V30 7348 C 713.239 2.86195 -3.4843 0
M  V30 7349 C 711.901 2.82969 -3.89207 0
M  V30 7350 C 714.253 2.73599 -4.43614 0
M  V30 7351 C 711.581 2.64999 -5.23443 0
M  V30 7352 C 713.933 2.57166 -5.77969 0
M  V30 7353 C 712.597 2.52321 -6.17973 0
M  V30 7354 H 711.867 0.595611 -0.440827 0
M  V30 7355 H 714.514 1.01665 -1.62285 0
M  V30 7356 H 712.819 3.62058 -1.49737 0
M  V30 7357 H 714.516 3.54164 -1.88067 0
M  V30 7358 H 711.106 2.8952 -3.16032 0
M  V30 7359 H 715.29 2.7515 -4.13045 0
M  V30 7360 H 710.546 2.5967 -5.53517 0
M  V30 7361 H 714.72 2.46396 -6.51354 0
M  V30 7362 H 712.347 2.38156 -7.21932 0
M  V30 7363 N 713.922 1.13953 1.08869 0
M  V30 7364 C 715.199 0.815768 1.77777 0
M  V30 7365 C 715.579 -0.691624 1.99449 0
M  V30 7366 O 714.927 -1.63085 1.60049 0
M  V30 7367 C 715.137 1.60916 3.09689 0
M  V30 7368 C 716.485 1.80549 3.84301 0
M  V30 7369 O 717.509 1.57562 3.19457 0
M  V30 7370 O 716.368 2.18946 5.00724 0
M  V30 7371 H 713.462 0.298445 0.771271 0
M  V30 7372 H 716.008 1.24446 1.15374 0
M  V30 7373 H 714.78 2.6333 2.89435 0
M  V30 7374 H 714.403 1.17578 3.79817 0
M  V30 7375 N 715.4 -1.26948 0.933913 0
M  V30 7376 C 716.648 -1.93704 0.576484 0
M  V30 7377 C 716.969 -1.73702 -0.886145 0
M  V30 7378 O 716.239 -1.08838 -1.62884 0
M  V30 7379 H 714.819 -0.716812 0.210214 0
M  V30 7380 H 717.481 -1.54534 1.18766 0
M  V30 7381 H 716.577 -3.01987 0.788055 0
M  V30 7382 N 716.879 -0.700114 -1.41195 0
M  V30 7383 C 718.125 -0.242122 -2.01954 0
M  V30 7384 C 718.48 1.14697 -1.54475 0
M  V30 7385 O 717.773 1.76392 -0.748095 0
M  V30 7386 C 717.967 -0.243986 -3.56566 0
M  V30 7387 C 717.796 -1.63172 -4.19053 0
M  V30 7388 C 716.566 -2.23566 -4.53152 0
M  V30 7389 C 718.764 -2.57916 -4.44954 0
M  V30 7390 N 716.746 -3.54856 -5.00949 0
M  V30 7391 C 718.117 -3.73892 -4.94576 0
M  V30 7392 C 720.172 -2.56125 -4.26971 0
M  V30 7393 C 718.875 -4.88363 -5.28104 0
M  V30 7394 C 720.901 -3.69712 -4.61592 0
M  V30 7395 C 720.263 -4.84418 -5.11389 0
M  V30 7396 H 716.362 -0.134088 -0.770418 0
M  V30 7397 H 718.946 -0.918576 -1.71669 0
M  V30 7398 H 717.117 0.401971 -3.86314 0
M  V30 7399 H 718.849 0.229261 -4.0405 0
M  V30 7400 H 715.604 -1.75809 -4.39759 0
M  V30 7401 H 716.028 -4.22167 -5.29249 0
M  V30 7402 H 720.67 -1.68656 -3.87705 0
M  V30 7403 H 718.388 -5.76488 -5.66292 0
M  V30 7404 H 721.974 -3.69583 -4.49332 0
M  V30 7405 H 720.854 -5.70855 -5.37675 0
M  V30 7406 N 718.357 1.51182 -0.445186 0
M  V30 7407 C 719.582 2.07056 0.119445 0
M  V30 7408 C 720.007 1.30966 1.35016 0
M  V30 7409 O 719.365 0.349827 1.77893 0
M  V30 7410 C 719.413 3.58234 0.412428 0
M  V30 7411 O 718.517 3.84249 1.49754 0
M  V30 7412 H 717.858 0.663998 -0.00157797 0
M  V30 7413 H 720.388 1.94699 -0.628779 0
M  V30 7414 H 720.398 4.02617 0.660583 0
M  V30 7415 H 719.073 4.13038 -0.487049 0
M  V30 7416 H 717.65 3.51724 1.23873 0
M  V30 7417 N 719.835 0.176821 1.56605 0
M  V30 7418 C 720.785 -0.763718 2.14829 0
M  V30 7419 C 721.769 -1.18903 1.08401 0
M  V30 7420 O 722.961 -1.15048 1.3451 0
M  V30 7421 C 720.09 -1.99069 2.7969 0
M  V30 7422 C 719.176 -1.58711 3.93283 0
M  V30 7423 N 719.567 -0.893423 4.97847 0
M  V30 7424 C 717.865 -1.87774 4.04545 0
M  V30 7425 C 718.566 -0.693866 5.77547 0
M  V30 7426 N 717.542 -1.23699 5.29339 0
M  V30 7427 H 721.344 -0.224811 2.93039 0
M  V30 7428 H 718.858 -0.0236563 1.62383 0
M  V30 7429 H 720.855 -2.67478 3.19783 0
M  V30 7430 H 719.515 -2.53449 2.02962 0
M  V30 7431 H 720.526 -0.550868 5.14962 0
M  V30 7432 H 717.203 -2.43793 3.38927 0
M  V30 7433 H 718.593 -0.144899 6.71744 0
M  V30 7434 N 721.313 -1.57302 -0.09688 0
M  V30 7435 C 722.561 -1.8563 -0.799117 0
M  V30 7436 C 722.882 -0.765263 -1.79356 0
M  V30 7437 O 722.152 0.208657 -1.94786 0
M  V30 7438 H 720.732 -0.684937 -0.298111 0
M  V30 7439 H 723.394 -1.9474 -0.0789341 0
M  V30 7440 H 722.49 -2.82305 -1.3308 0
M  V30 7441 N 722.791 0.367657 -1.53252 0
M  V30 7442 C 724.021 1.12955 -1.72988 0
M  V30 7443 C 724.429 1.8358 -0.457708 0
M  V30 7444 O 723.772 1.74336 0.579006 0
M  V30 7445 C 723.834 2.20545 -2.83902 0
M  V30 7446 C 723.498 1.69704 -4.24323 0
M  V30 7447 C 724.495 1.16223 -5.06743 0
M  V30 7448 C 722.18 1.7528 -4.70725 0
M  V30 7449 C 724.174 0.689935 -6.33655 0
M  V30 7450 C 721.861 1.27662 -5.97617 0
M  V30 7451 C 722.859 0.746083 -6.78913 0
M  V30 7452 O 722.547 0.276925 -8.03423 0
M  V30 7453 H 722.279 0.343753 -0.582074 0
M  V30 7454 H 724.833 0.433106 -2.00782 0
M  V30 7455 H 723.063 2.93676 -2.51577 0
M  V30 7456 H 724.752 2.82111 -2.91836 0
M  V30 7457 H 725.518 1.11256 -4.72067 0
M  V30 7458 H 721.397 2.15515 -4.07522 0
M  V30 7459 H 724.941 0.275164 -6.97057 0
M  V30 7460 H 720.838 1.32322 -6.31792 0
M  V30 7461 H 721.606 0.396445 -8.17539 0
M  V30 7462 N 724.269 1.44576 0.627338 0
M  V30 7463 C 725.546 1.38033 1.38586 0
M  V30 7464 C 725.926 0.0409468 2.1106 0
M  V30 7465 O 725.274 -0.976582 2.0658 0
M  V30 7466 C 725.484 2.58102 2.34913 0
M  V30 7467 C 726.832 3.02332 2.98129 0
M  V30 7468 O 727.856 2.58334 2.45238 0
M  V30 7469 O 726.715 3.78628 3.94085 0
M  V30 7470 H 723.809 0.546801 0.620434 0
M  V30 7471 H 726.355 1.56672 0.652077 0
M  V30 7472 H 725.127 3.4719 1.80485 0
M  V30 7473 H 724.75 2.41696 3.15703 0
M  V30 7474 N 725.747 -0.868086 1.31537 0
M  V30 7475 C 726.994 -1.62127 1.2133 0
M  V30 7476 C 727.322 -1.93158 -0.2281 0
M  V30 7477 O 726.577 -1.5632 -1.1774 0
M  V30 7478 C 726.876 -2.95889 2.0046 0
M  V30 7479 C 726.542 -2.84343 3.49943 0
M  V30 7480 C 725.204 -2.80901 3.90702 0
M  V30 7481 C 727.556 -2.71243 4.45058 0
M  V30 7482 C 724.884 -2.6222 5.24841 0
M  V30 7483 C 727.236 -2.54098 5.79325 0
M  V30 7484 C 725.9 -2.4904 6.19302 0
M  V30 7485 H 725.17 -0.593265 0.443979 0
M  V30 7486 H 727.817 -1.00803 1.62822 0
M  V30 7487 H 726.122 -3.61259 1.51655 0
M  V30 7488 H 727.819 -3.53161 1.89942 0
M  V30 7489 H 724.409 -2.8784 3.17563 0
M  V30 7490 H 728.593 -2.72956 4.14498 0
M  V30 7491 H 723.849 -2.56731 5.54887 0
M  V30 7492 H 728.023 -2.42938 6.52652 0
M  V30 7493 H 725.65 -2.34324 7.23185 0
M  V30 7494 N 727.225 -1.14528 -1.08264 0
M  V30 7495 C 728.471 -0.925721 -1.81113 0
M  V30 7496 C 728.826 0.54185 -1.84612 0
M  V30 7497 O 728.119 1.39628 -1.31205 0
M  V30 7498 C 728.313 -1.46226 -3.26117 0
M  V30 7499 C 728.142 -2.98047 -3.36746 0
M  V30 7500 C 726.912 -3.66508 -3.4785 0
M  V30 7501 C 729.11 -3.95903 -3.28277 0
M  V30 7502 N 727.092 -5.06227 -3.47285 0
M  V30 7503 C 728.463 -5.21883 -3.34721 0
M  V30 7504 C 730.518 -3.88002 -3.12024 0
M  V30 7505 C 729.221 -6.40886 -3.26585 0
M  V30 7506 C 731.247 -5.06553 -3.05219 0
M  V30 7507 C 730.609 -6.31403 -3.12266 0
M  V30 7508 H 726.708 -0.392294 -0.676483 0
M  V30 7509 H 729.292 -1.45567 -1.293 0
M  V30 7510 H 727.463 -0.959076 -3.76373 0
M  V30 7511 H 729.195 -1.18247 -3.8704 0
M  V30 7512 H 725.95 -3.17067 -3.51804 0
M  V30 7513 H 726.374 -5.79172 -3.50555 0
M  V30 7514 H 731.016 -2.9235 -3.05436 0
M  V30 7515 H 728.734 -7.36781 -3.31934 0
M  V30 7516 H 732.32 -5.02191 -2.93761 0
M  V30 7517 H 731.2 -7.21596 -3.07032 0
M  V30 7518 N 728.703 1.26451 -0.940633 0
M  V30 7519 C 729.952 1.93071 -0.583656 0
M  V30 7520 C 730.265 1.74618 0.881366 0
M  V30 7521 O 731.471 2.35689 1.34769 0
M  V30 7522 C 729.927 3.45927 -0.993106 0
M  V30 7523 C 729.535 3.73115 -2.4797 0
M  V30 7524 C 731.279 4.18554 -0.707998 0
M  V30 7525 C 729.186 5.19408 -2.82788 0
M  V30 7526 H 728.116 0.722824 -0.214572 0
M  V30 7527 H 730.767 1.43538 -1.1432 0
M  V30 7528 H 729.149 3.94341 -0.362099 0
M  V30 7529 H 730.323 3.35408 -3.15971 0
M  V30 7530 H 728.638 3.13719 -2.73805 0
M  V30 7531 H 731.235 5.26293 -0.94447 0
M  V30 7532 H 731.578 4.14782 0.355225 0
M  V30 7533 H 732.111 3.76003 -1.2987 0
M  V30 7534 H 728.85 5.28281 -3.88071 0
M  V30 7535 H 728.37 5.58214 -2.19449 0
M  V30 7536 H 730.049 5.87407 -2.71224 0
M  V30 7537 N 730.181 0.707592 1.40822 0
M  V30 7538 C 731.458 0.171172 1.9485 0
M  V30 7539 C 731.838 -1.32143 1.64625 0
M  V30 7540 O 731.186 -2.07372 0.959647 0
M  V30 7541 C 731.396 0.475334 3.45748 0
M  V30 7542 C 732.744 0.409625 4.22619 0
M  V30 7543 O 733.768 0.410934 3.53822 0
M  V30 7544 O 732.627 0.380185 5.45176 0
M  V30 7545 H 729.721 0.022015 0.826707 0
M  V30 7546 H 732.267 0.784577 1.50474 0
M  V30 7547 H 731.039 1.50801 3.61075 0
M  V30 7548 H 730.662 -0.168439 3.97243 0
M  V30 7549 N 731.66 -1.50943 0.453197 0
M  V30 7550 C 732.623 -2.26684 -0.338705 0
M  V30 7551 C 733.623 -1.30748 -0.936032 0
M  V30 7552 O 734.813 -1.54327 -0.808002 0
M  V30 7553 C 731.945 -3.07063 -1.48071 0
M  V30 7554 H 733.138 -2.98131 0.325289 0
M  V30 7555 H 730.691 -1.54926 0.206771 0
M  V30 7556 H 731.426 -2.4007 -2.18029 0
M  V30 7557 H 731.211 -3.77545 -1.0584 0
M  V30 7558 H 732.701 -3.64393 -2.0398 0
M  V30 7559 N 733.138 -0.185124 -1.56509 0
M  V30 7560 C 734.415 0.503348 -1.89013 0
M  V30 7561 C 734.795 1.80349 -1.09715 0
M  V30 7562 O 734.143 2.27665 -0.195203 0
M  V30 7563 C 734.353 0.731839 -3.41241 0
M  V30 7564 C 735.701 1.05568 -4.11267 0
M  V30 7565 O 736.725 0.819906 -3.46635 0
M  V30 7566 O 735.584 1.50116 -5.25478 0
M  V30 7567 H 732.678 0.261139 -0.784688 0
M  V30 7568 H 735.224 -0.224592 -1.68207 0
M  V30 7569 H 733.996 -0.18672 -3.90854 0
M  V30 7570 H 733.619 1.5126 -3.67704 0
M  V30 7571 N 734.616 1.57351 0.0885366 0
M  V30 7572 C 735.566 1.98963 1.11346 0
M  V30 7573 C 736.55 0.869065 1.35411 0
M  V30 7574 O 737.742 1.13292 1.35992 0
M  V30 7575 C 734.871 2.4231 2.43189 0
M  V30 7576 C 733.957 3.61065 2.22469 0
M  V30 7577 N 734.348 4.75789 1.71635 0
M  V30 7578 C 732.646 3.6729 2.5301 0
M  V30 7579 C 733.347 5.57708 1.65339 0
M  V30 7580 N 732.323 5.01067 2.1079 0
M  V30 7581 H 736.125 2.85109 0.713465 0
M  V30 7582 H 733.639 1.59682 0.295868 0
M  V30 7583 H 735.636 2.70352 3.17357 0
M  V30 7584 H 734.296 1.57544 2.83919 0
M  V30 7585 H 735.307 4.98411 1.40738 0
M  V30 7586 H 731.984 2.932 2.9722 0
M  V30 7587 H 733.374 6.59782 1.27031 0
M  V30 7588 N 736.094 -0.359525 1.53444 0
M  V30 7589 C 737.505 -0.936009 1.61542 0
M  V30 7590 C 737.856 -1.90069 0.486633 0
M  V30 7591 O 736.981 -2.12929 -0.386047 0
M  V30 7592 C 737.576 -1.70441 2.92806 0
M  V30 7593 C 736.135 -2.23015 3.03218 0
M  V30 7594 C 735.282 -1.04438 2.56881 0
M  V30 7595 H 738.233 -0.138134 1.58098 0
M  V30 7596 H 738.254 -2.56609 2.80948 0
M  V30 7597 H 737.766 -1.00205 3.74941 0
M  V30 7598 H 735.867 -2.96475 2.25684 0
M  V30 7599 H 735.98 -2.50481 4.08407 0
M  V30 7600 H 734.344 -1.41314 2.11902 0
M  V30 7601 H 735.127 -0.356905 3.4144 0
M  V30 7602 N 737.572 -1.44907 -0.619662 0
M  V30 7603 C 738.849 -1.38766 -1.37852 0
M  V30 7604 C 739.229 -0.0521393 -2.11036 0
M  V30 7605 O 738.577 0.965613 -2.07095 0
M  V30 7606 C 738.787 -2.59344 -2.33541 0
M  V30 7607 C 740.135 -3.03909 -2.96521 0
M  V30 7608 O 741.159 -2.59631 -2.43865 0
M  V30 7609 O 740.018 -3.80713 -3.92071 0
M  V30 7610 H 737.112 -0.550083 -0.617525 0
M  V30 7611 H 739.658 -1.57015 -0.643759 0
M  V30 7612 H 738.43 -3.48142 -1.78642 0
M  V30 7613 H 738.053 -2.43367 -3.14417 0
M  V30 7614 N 739.05 0.861098 -1.31996 0
M  V30 7615 C 740.299 1.60965 -1.21545 0
M  V30 7616 C 740.612 1.94325 0.222972 0
M  V30 7617 O 741.818 2.67757 0.449272 0
M  V30 7618 C 740.274 2.90223 -2.12834 0
M  V30 7619 C 739.882 2.64313 -3.61722 0
M  V30 7620 C 741.626 3.68229 -2.11205 0
M  V30 7621 C 739.533 3.89532 -4.44993 0
M  V30 7622 H 738.463 0.603988 -0.451348 0
M  V30 7623 H 741.114 0.951358 -1.56912 0
M  V30 7624 H 739.496 3.57475 -1.70375 0
M  V30 7625 H 740.67 2.05413 -4.12483 0
M  V30 7626 H 738.985 1.99647 -3.65418 0
M  V30 7627 H 741.582 4.61138 -2.70658 0
M  V30 7628 H 741.925 4.01466 -1.1014 0
M  V30 7629 H 742.458 3.07873 -2.51911 0
M  V30 7630 H 739.197 3.61441 -5.46846 0
M  V30 7631 H 738.717 4.47851 -3.98985 0
M  V30 7632 H 740.396 4.57334 -4.57663 0
M  V30 7633 N 740.528 1.15101 1.07655 0
M  V30 7634 C 741.478 0.813448 2.12995 0
M  V30 7635 C 742.462 -0.200899 1.59641 0
M  V30 7636 O 743.654 -0.00209918 1.77 0
M  V30 7637 C 740.783 0.301078 3.41977 0
M  V30 7638 C 739.869 1.3454 4.02194 0
M  V30 7639 N 740.26 2.55181 4.36711 0
M  V30 7640 C 738.558 1.19742 4.29625 0
M  V30 7641 C 739.259 3.22094 4.84387 0
M  V30 7642 N 738.235 2.49486 4.82968 0
M  V30 7643 H 742.037 1.73105 2.37511 0
M  V30 7644 H 739.551 1.03601 1.25063 0
M  V30 7645 H 741.548 0.040914 4.1688 0
M  V30 7646 H 740.208 -0.610629 3.18907 0
M  V30 7647 H 741.219 2.92349 4.27496 0
M  V30 7648 H 737.896 0.345353 4.16069 0
M  V30 7649 H 739.286 4.24996 5.20411 0
M  V30 7650 N 742.006 -1.2595 0.947325 0
M  V30 7651 C 743.417 -1.75389 0.639963 0
M  V30 7652 C 743.768 -1.77081 -0.844788 0
M  V30 7653 O 742.893 -1.3869 -1.66114 0
M  V30 7654 C 743.488 -3.18506 1.15496 0
M  V30 7655 C 742.047 -3.65534 0.897894 0
M  V30 7656 C 741.194 -2.44818 1.30228 0
M  V30 7657 H 744.145 -1.1194 1.12495 0
M  V30 7658 H 744.166 -3.77045 0.511627 0
M  V30 7659 H 743.678 -3.17243 2.23559 0
M  V30 7660 H 741.779 -3.72221 -0.168096 0
M  V30 7661 H 741.892 -4.54039 1.52922 0
M  V30 7662 H 740.256 -2.44291 0.720678 0
M  V30 7663 H 741.039 -2.46251 2.39198 0
M  V30 7664 N 743.484 -0.715051 -1.40445 0
M  V30 7665 C 744.447 -0.0708726 -2.2909 0
M  V30 7666 C 745.447 0.687926 -1.45342 0
M  V30 7667 O 746.637 0.519908 -1.66261 0
M  V30 7668 C 743.769 0.909528 -3.28543 0
M  V30 7669 H 744.962 -0.851611 -2.87555 0
M  V30 7670 H 742.515 -0.479674 -1.48758 0
M  V30 7671 H 743.25 1.71734 -2.75096 0
M  V30 7672 H 743.035 0.368318 -3.90366 0
M  V30 7673 H 744.525 1.35744 -3.94922 0
M  V30 7674 N 744.962 1.50701 -0.461195 0
M  V30 7675 C 746.21 2.01867 0.0970051 0
M  V30 7676 C 746.531 1.34591 1.41104 0
M  V30 7677 O 745.801 0.488041 1.89723 0
M  V30 7678 H 744.381 0.74599 0.0388392 0
M  V30 7679 H 747.043 1.85129 -0.609357 0
M  V30 7680 H 746.139 3.11051 0.255688 0
M  V30 7681 N 746.441 0.193421 1.56409 0
M  V30 7682 C 747.687 -0.43983 1.98588 0
M  V30 7683 C 748.042 -1.59353 1.07816 0
M  V30 7684 O 747.335 -1.9121 0.122226 0
M  V30 7685 C 747.529 -0.949718 3.44551 0
M  V30 7686 C 747.358 0.153045 4.49439 0
M  V30 7687 C 746.128 0.610119 5.01603 0
M  V30 7688 C 748.326 0.961397 5.05234 0
M  V30 7689 N 746.308 1.69088 5.90155 0
M  V30 7690 C 747.679 1.8916 5.90439 0
M  V30 7691 C 749.734 1.004 4.87672 0
M  V30 7692 C 748.437 2.86086 6.5996 0
M  V30 7693 C 750.463 1.96131 5.57931 0
M  V30 7694 C 749.825 2.87895 6.42881 0
M  V30 7695 H 745.924 -0.128415 0.771384 0
M  V30 7696 H 748.508 0.29873 1.92395 0
M  V30 7697 H 746.679 -1.65772 3.51246 0
M  V30 7698 H 748.411 -1.55344 3.73698 0
M  V30 7699 H 745.166 0.203771 4.73161 0
M  V30 7700 H 745.59 2.23241 6.39134 0
M  V30 7701 H 750.232 0.308536 4.21673 0
M  V30 7702 H 747.95 3.56609 7.25159 0
M  V30 7703 H 751.536 2.00066 5.46319 0
M  V30 7704 H 750.416 3.60763 6.9629 0
M  V30 7705 N 747.919 -1.57396 -0.0801906 0
M  V30 7706 C 749.159 -1.88668 -0.786367 0
M  V30 7707 C 749.523 -0.786216 -1.75165 0
M  V30 7708 O 750.724 -0.981769 -2.50229 0
M  V30 7709 C 748.995 -3.25176 -1.48308 0
M  V30 7710 S 750.554 -3.78177 -2.22549 0
M  V30 7711 H 747.372 -0.661094 -0.261679 0
M  V30 7712 H 749.974 -1.95453 -0.0428196 0
M  V30 7713 H 748.678 -4.03176 -0.766629 0
M  V30 7714 H 748.209 -3.21567 -2.26623 0
M  V30 7715 H 750.224 -3.52789 -3.48934 0
M  V30 7716 N 749.397 0.351382 -1.53633 0
M  V30 7717 C 750.622 1.11718 -1.74739 0
M  V30 7718 C 751.047 1.81829 -0.481657 0
M  V30 7719 O 750.405 1.72264 0.565233 0
M  V30 7720 C 750.453 2.11234 -2.92254 0
M  V30 7721 O 749.557 3.186 -2.61855 0
M  V30 7722 H 748.898 0.323482 -0.579875 0
M  V30 7723 H 751.428 0.404167 -2.00568 0
M  V30 7724 H 751.438 2.54591 -3.18822 0
M  V30 7725 H 750.113 1.59599 -3.84058 0
M  V30 7726 H 748.69 2.80115 -2.4615 0
M  V30 7727 N 750.875 1.45233 0.611969 0
M  V30 7728 C 751.822 1.5357 1.72293 0
M  V30 7729 C 752.792 0.381912 1.6165 0
M  V30 7730 O 753.977 0.594765 1.81293 0
M  V30 7731 C 751.117 1.50419 3.10593 0
M  V30 7732 C 750.23 2.76316 3.32074 0
M  V30 7733 C 749.365 2.64866 4.60456 0
M  V30 7734 C 748.404 3.85838 4.7518 0
M  V30 7735 N 747.541 3.72949 5.94856 0
M  V30 7736 H 752.381 2.4848 1.64504 0
M  V30 7737 H 749.918 1.23302 0.802191 0
M  V30 7738 H 751.876 1.4658 3.90602 0
M  V30 7739 H 750.506 0.590621 3.17351 0
M  V30 7740 H 749.558 2.90261 2.45872 0
M  V30 7741 H 750.87 3.66055 3.38829 0
M  V30 7742 H 750.024 2.58969 5.48653 0
M  V30 7743 H 748.763 1.72719 4.56092 0
M  V30 7744 H 747.768 3.92099 3.85407 0
M  V30 7745 H 748.993 4.79045 4.81344 0
M  V30 7746 H 746.939 2.83567 5.91545 0
M  V30 7747 H 746.856 4.56319 6.02751 0
M  V30 7748 H 748.124 3.70976 6.85563 0
M  V30 7749 N 752.353 -0.854086 1.3245 0
M  V30 7750 C 753.581 -1.64074 1.26045 0
M  V30 7751 C 753.996 -1.8802 -0.171456 0
M  V30 7752 O 753.353 -1.4496 -1.10873 0
M  V30 7753 C 753.404 -2.9997 2.01743 0
M  V30 7754 O 753.125 -2.77084 3.39346 0
M  V30 7755 C 754.626 -3.94414 2.02368 0
M  V30 7756 H 751.846 -0.511015 0.434862 0
M  V30 7757 H 754.39 -1.06494 1.74583 0
M  V30 7758 H 752.545 -3.54193 1.56926 0
M  V30 7759 H 752.959 -3.63514 3.78098 0
M  V30 7760 H 754.433 -4.87032 2.59815 0
M  V30 7761 H 754.91 -4.27427 1.01009 0
M  V30 7762 H 755.516 -3.46127 2.47135 0
M  V30 7763 N 753.831 -1.1567 -1.07043 0
M  V30 7764 C 755.079 -0.931673 -1.79344 0
M  V30 7765 C 755.4 0.542421 -1.87304 0
M  V30 7766 O 754.67 1.39418 -1.37621 0
M  V30 7767 H 753.25 -0.34171 -0.664262 0
M  V30 7768 H 755.912 -1.45795 -1.29344 0
M  V30 7769 H 755.008 -1.34379 -2.81689 0
M  V30 7770 N 755.309 1.25446 -0.953992 0
M  V30 7771 C 756.259 2.23627 -0.444413 0
M  V30 7772 C 757.243 1.54004 0.465993 0
M  V30 7773 O 758.435 1.74454 0.29915 0
M  V30 7774 C 755.564 3.42179 0.277175 0
M  V30 7775 C 754.65 4.1907 -0.651263 0
M  V30 7776 N 755.041 4.73346 -1.78262 0
M  V30 7777 C 753.339 4.43628 -0.459338 0
M  V30 7778 C 754.04 5.31576 -2.36224 0
M  V30 7779 N 753.016 5.17991 -1.64884 0
M  V30 7780 H 756.818 2.63197 -1.30785 0
M  V30 7781 H 754.332 1.40677 -0.811402 0
M  V30 7782 H 756.329 4.11653 0.659367 0
M  V30 7783 H 754.989 3.04134 1.13723 0
M  V30 7784 H 756 4.705 -2.1645 0
M  V30 7785 H 752.677 4.15963 0.357885 0
M  V30 7786 H 754.067 5.84361 -3.3162 0
M  V30 7787 N 756.787 0.722489 1.40064 0
M  V30 7788 C 758.198 0.336507 1.83642 0
M  V30 7789 C 758.549 -1.13002 1.6039 0
M  V30 7790 O 757.674 -1.87036 1.08842 0
M  V30 7791 C 758.269 0.603985 3.33373 0
M  V30 7792 C 756.828 0.271637 3.75419 0
M  V30 7793 C 755.975 0.872898 2.63203 0
M  V30 7794 H 758.926 0.921108 1.29233 0
M  V30 7795 H 758.947 -0.128471 3.80283 0
M  V30 7796 H 758.459 1.67141 3.50265 0
M  V30 7797 H 756.56 -0.790455 3.64119 0
M  V30 7798 H 756.673 0.745457 4.73265 0
M  V30 7799 H 755.037 0.300431 2.52922 0
M  V30 7800 H 755.82 1.94473 2.82905 0
M  V30 7801 N 758.265 -1.50454 0.469181 0
M  V30 7802 C 759.195 -2.31353 -0.31592 0
M  V30 7803 C 760.176 -1.38172 -0.992094 0
M  V30 7804 O 761.361 -1.67093 -0.989633 0
M  V30 7805 C 758.491 -3.1786 -1.39937 0
M  V30 7806 C 757.445 -4.19578 -0.844909 0
M  V30 7807 C 756.771 -4.9481 -2.0265 0
M  V30 7808 C 758.071 -5.22106 0.142499 0
M  V30 7809 H 759.765 -2.97237 0.359269 0
M  V30 7810 H 757.311 -1.42942 0.174224 0
M  V30 7811 H 759.264 -3.7325 -1.95607 0
M  V30 7812 H 757.988 -2.49858 -2.1033 0
M  V30 7813 H 756.647 -3.65285 -0.310189 0
M  V30 7814 H 756.295 -4.23282 -2.71737 0
M  V30 7815 H 755.995 -5.63613 -1.66174 0
M  V30 7816 H 757.519 -5.53035 -2.58815 0
M  V30 7817 H 758.933 -5.72378 -0.324966 0
M  V30 7818 H 757.33 -5.98618 0.421441 0
M  V30 7819 H 758.4 -4.7297 1.06901 0
M  V30 7820 N 759.743 -0.201713 -1.56304 0
M  V30 7821 C 760.675 0.748466 -2.16635 0
M  V30 7822 C 761.688 1.172 -1.12996 0
M  V30 7823 O 762.877 1.10658 -1.40061 0
M  V30 7824 C 759.977 2.02296 -2.719 0
M  V30 7825 C 759.15 1.75818 -4.00508 0
M  V30 7826 C 758.209 2.87779 -4.40533 0
M  V30 7827 O 757.235 2.57101 -5.07826 0
M  V30 7828 N 758.437 4.16287 -4.04581 0
M  V30 7829 H 761.202 0.232505 -2.98797 0
M  V30 7830 H 758.763 -0.0199822 -1.61888 0
M  V30 7831 H 760.755 2.7635 -2.95657 0
M  V30 7832 H 759.325 2.44996 -1.94154 0
M  V30 7833 H 758.545 0.855095 -3.84814 0
M  V30 7834 H 759.833 1.55532 -4.84445 0
M  V30 7835 H 759.231 4.44061 -3.50466 0
M  V30 7836 H 757.788 4.86946 -4.33274 0
M  V30 7837 N 761.222 1.57436 0.0718424 0
M  V30 7838 C 762.633 1.75975 0.623678 0
M  V30 7839 C 762.984 0.827155 1.77912 0
M  V30 7840 O 762.109 0.0112425 2.16397 0
M  V30 7841 C 762.704 3.1911 1.13816 0
M  V30 7842 C 761.263 3.38994 1.63586 0
M  V30 7843 C 760.41 2.71684 0.555261 0
M  V30 7844 H 763.361 1.57948 -0.154328 0
M  V30 7845 H 763.382 3.23267 2.00696 0
M  V30 7846 H 762.894 3.86962 0.296998 0
M  V30 7847 H 760.995 2.76256 2.50027 0
M  V30 7848 H 761.108 4.47436 1.71283 0
M  V30 7849 H 759.472 2.34236 1.00029 0
M  V30 7850 H 760.255 3.42191 -0.275712 0
M  V30 7851 N 762.7 -0.34323 1.53817 0
M  V30 7852 C 764.111 -0.918823 1.62525 0
M  V30 7853 C 764.462 -1.89542 0.506765 0
M  V30 7854 O 763.587 -2.13326 -0.363441 0
M  V30 7855 C 764.182 -1.67326 2.94597 0
M  V30 7856 C 762.741 -2.19786 3.05567 0
M  V30 7857 C 761.888 -1.01708 2.57974 0
M  V30 7858 H 764.839 -0.121358 1.58235 0
M  V30 7859 H 764.86 -2.53615 2.83654 0
M  V30 7860 H 764.372 -0.962223 3.75983 0
M  V30 7861 H 762.473 -2.94065 2.28816 0
M  V30 7862 H 762.586 -2.46135 4.1104 0
M  V30 7863 H 760.95 -1.39058 2.13389 0
M  V30 7864 H 761.733 -0.320671 3.41799 0
M  V30 7865 N 764.178 -1.45556 -0.604258 0
M  V30 7866 C 765.108 -1.57327 -1.72541 0
M  V30 7867 C 766.089 -0.424637 -1.64714 0
M  V30 7868 O 767.274 -0.648196 -1.83063 0
M  V30 7869 C 764.404 -1.54279 -3.11152 0
M  V30 7870 C 763.358 -2.67893 -3.33792 0
M  V30 7871 C 762.684 -2.499 -4.72709 0
M  V30 7872 C 763.984 -4.0988 -3.23722 0
M  V30 7873 H 765.678 -2.51175 -1.62947 0
M  V30 7874 H 763.224 -1.20884 -0.782504 0
M  V30 7875 H 765.177 -1.6111 -3.89386 0
M  V30 7876 H 763.901 -0.569627 -3.21594 0
M  V30 7877 H 762.56 -2.60495 -2.57949 0
M  V30 7878 H 762.208 -1.50715 -4.79889 0
M  V30 7879 H 761.908 -3.26091 -4.88813 0
M  V30 7880 H 763.432 -2.5859 -5.5314 0
M  V30 7881 H 764.846 -4.18503 -3.91826 0
M  V30 7882 H 763.243 -4.86487 -3.51355 0
M  V30 7883 H 764.313 -4.31553 -2.21111 0
M  V30 7884 N 765.656 0.84705 -1.32902 0
M  V30 7885 C 766.904 1.5986 -1.2365 0
M  V30 7886 C 767.225 1.93974 0.199789 0
M  V30 7887 O 766.495 1.60273 1.12648 0
M  V30 7888 H 765.075 0.592696 -0.454665 0
M  V30 7889 H 767.737 1.01278 -1.66519 0
M  V30 7890 H 766.833 2.53218 -1.82448 0
M  V30 7891 N 767.134 1.16236 1.06428 0
M  V30 7892 C 768.545 0.950942 1.60667 0
M  V30 7893 C 768.896 -0.505491 1.89576 0
M  V30 7894 O 768.021 -1.37843 1.66818 0
M  V30 7895 C 768.616 1.71982 2.91904 0
M  V30 7896 C 767.175 1.55342 3.4285 0
M  V30 7897 C 766.322 1.72942 2.16763 0
M  V30 7898 H 769.273 1.31126 0.893959 0
M  V30 7899 H 769.294 1.19483 3.61253 0
M  V30 7900 H 768.806 2.77978 2.70831 0
M  V30 7901 H 766.907 0.5178 3.68985 0
M  V30 7902 H 767.02 2.33643 4.18267 0
M  V30 7903 H 765.384 1.15673 2.26918 0
M  V30 7904 H 766.167 2.80324 1.98175 0
M  V30 7905 N 768.612 -1.24939 0.960631 0
M  V30 7906 C 770.028 -1.45039 0.666018 0
M  V30 7907 C 770.228 -1.86021 -0.774501 0
M  V30 7908 O 769.284 -1.99392 -1.54916 0
M  V30 7909 C 770.597 -2.51775 1.64408 0
M  V30 7910 C 772.145 -2.6561 1.65592 0
M  V30 7911 C 772.62 -3.75536 2.62177 0
M  V30 7912 N 774.111 -3.82954 2.60577 0
M  V30 7913 C 774.846 -4.67517 3.31987 0
M  V30 7914 N 774.342 -5.56321 4.1289 0
M  V30 7915 N 776.135 -4.61535 3.20845 0
M  V30 7916 H 768.286 -0.96632 1.89145 0
M  V30 7917 H 770.549 -0.486034 0.813926 0
M  V30 7918 H 770.255 -2.28534 2.67329 0
M  V30 7919 H 770.129 -3.49804 1.41128 0
M  V30 7920 H 772.516 -2.88212 0.633846 0
M  V30 7921 H 772.597 -1.67962 1.92931 0
M  V30 7922 H 772.241 -3.53684 3.64514 0
M  V30 7923 H 772.171 -4.72682 2.32119 0
M  V30 7924 H 774.662 -3.19478 2.01847 0
M  V30 7925 H 774.975 -6.17787 4.64283 0
M  V30 7926 H 773.32 -5.5601 4.16987 0
M  V30 7927 H 776.511 -3.91169 2.57108 0
M  V30 7928 H 776.684 -5.27214 3.76762 0
M  V30 7929 N 770.09 -0.729906 -1.39679 0
M  V30 7930 C 771 -0.0880322 -2.34435 0
M  V30 7931 C 772.016 0.727674 -1.58053 0
M  V30 7932 O 773.192 0.657321 -1.90371 0
M  V30 7933 C 770.257 0.812211 -3.37052 0
M  V30 7934 C 769.318 -0.0151681 -4.29297 0
M  V30 7935 C 768.551 0.842202 -5.27013 0
M  V30 7936 O 768.774 2.08108 -5.31081 0
M  V30 7937 O 767.708 0.27357 -6.01278 0
M  V30 7938 H 771.534 -0.869989 -2.90972 0
M  V30 7939 H 769.119 -0.490522 -1.41118 0
M  V30 7940 H 771.001 1.32745 -3.99946 0
M  V30 7941 H 769.676 1.57307 -2.82907 0
M  V30 7942 H 768.583 -0.575811 -3.69642 0
M  V30 7943 H 769.916 -0.738129 -4.86634 0
M  V30 7944 N 771.568 1.50203 -0.477153 0
M  V30 7945 C 772.979 1.86685 -0.0235041 0
M  V30 7946 C 773.33 1.39148 1.38319 0
M  V30 7947 O 772.455 0.759051 2.02651 0
M  V30 7948 C 773.05 3.38781 -0.0358767 0
M  V30 7949 C 771.609 3.74652 0.362327 0
M  V30 7950 C 770.756 2.7412 -0.41875 0
M  V30 7951 H 773.707 1.4286 -0.691133 0
M  V30 7952 H 773.728 3.72732 0.764924 0
M  V30 7953 H 773.24 3.73349 -1.05981 0
M  V30 7954 H 771.341 3.45686 1.39039 0
M  V30 7955 H 771.454 4.79063 0.059457 0
M  V30 7956 H 769.818 2.54376 0.128341 0
M  V30 7957 H 770.601 3.11532 -1.44231 0
M  V30 7958 N 773.046 0.209999 1.56195 0
M  V30 7959 C 774.271 -0.433064 2.02828 0
M  V30 7960 C 774.696 -1.5337 1.08901 0
M  V30 7961 O 774.054 -1.81144 0.0751132 0
M  V30 7962 C 774.102 -0.952635 3.47789 0
M  V30 7963 O 773.206 -2.0647 3.56993 0
M  V30 7964 H 772.547 -0.0994594 0.656509 0
M  V30 7965 H 775.077 0.32525 2.01998 0
M  V30 7966 H 775.087 -1.26542 3.8788 0
M  V30 7967 H 773.762 -0.147007 4.1564 0
M  V30 7968 H 772.339 -1.75942 3.28784 0
M  V30 7969 N 774.524 -1.57472 -0.0634922 0
M  V30 7970 C 775.749 -1.92273 -0.77756 0
M  V30 7971 C 776.174 -0.807141 -1.69902 0
M  V30 7972 O 775.532 0.239523 -1.79711 0
M  V30 7973 C 775.58 -3.26054 -1.54017 0
M  V30 7974 O 774.684 -3.15873 -2.65138 0
M  V30 7975 H 774.025 -0.629389 -0.211579 0
M  V30 7976 H 776.555 -2.04579 -0.0292523 0
M  V30 7977 H 776.565 -3.60127 -1.91763 0
M  V30 7978 H 775.24 -4.06824 -0.864128 0
M  V30 7979 H 773.817 -2.93373 -2.30189 0
M  V30 7980 N 776.003 0.335068 -1.53997 0
M  V30 7981 C 776.966 1.39481 -1.81872 0
M  V30 7982 C 777.966 1.4524 -0.690078 0
M  V30 7983 O 779.156 1.45467 -0.958377 0
M  V30 7984 C 776.288 2.78329 -1.9684 0
M  V30 7985 H 777.481 1.16024 -2.76547 0
M  V30 7986 H 775.034 0.569926 -1.45539 0
M  V30 7987 H 775.769 3.07058 -1.04337 0
M  V30 7988 H 775.554 2.75544 -2.78958 0
M  V30 7989 H 777.044 3.55016 -2.19894 0
M  V30 7990 N 777.481 1.45874 0.596531 0
M  V30 7991 C 778.706 1.54247 1.38646 0
M  V30 7992 C 779.131 0.179571 1.87241 0
M  V30 7993 O 778.489 -0.837831 1.6078 0
M  V30 7994 C 778.537 2.54015 2.55946 0
M  V30 7995 O 777.641 2.06561 3.5694 0
M  V30 7996 H 776.982 0.519555 0.413471 0
M  V30 7997 H 779.512 1.91327 0.724936 0
M  V30 7998 H 779.522 2.73179 3.03047 0
M  V30 7999 H 778.197 3.52994 2.19928 0
M  V30 8000 H 776.774 1.97324 3.16414 0
M  V30 8001 N 778.959 -0.83999 1.33349 0
M  V30 8002 C 780.37 -1.41139 1.22216 0
M  V30 8003 C 780.721 -1.95551 -0.159398 0
M  V30 8004 O 779.846 -1.88721 -1.05893 0
M  V30 8005 C 780.441 -2.56564 2.21269 0
M  V30 8006 C 779 -3.09661 2.13979 0
M  V30 8007 C 778.147 -1.82457 2.08818 0
M  V30 8008 H 781.098 -0.645853 1.44964 0
M  V30 8009 H 781.119 -3.34163 1.81976 0
M  V30 8010 H 780.631 -2.16932 3.21811 0
M  V30 8011 H 778.732 -3.53841 1.16736 0
M  V30 8012 H 778.845 -3.6991 3.04472 0
M  V30 8013 H 777.209 -2.0266 1.54276 0
M  V30 8014 H 777.992 -1.45022 3.11165 0
M  V30 8015 N 780.437 -1.16799 -1.0581 0
M  V30 8016 C 781.685 -0.950642 -1.78346 0
M  V30 8017 C 782.006 0.522524 -1.87869 0
M  V30 8018 O 781.276 1.3795 -1.39092 0
M  V30 8019 H 779.856 -0.348736 -0.6606 0
M  V30 8020 H 782.518 -1.47158 -1.27791 0
M  V30 8021 H 781.614 -1.37359 -2.80248 0
M  V30 8022 N 781.915 1.24427 -0.967243 0
M  V30 8023 C 783.163 1.92107 -0.627638 0
M  V30 8024 C 783.484 1.75991 0.83978 0
M  V30 8025 O 782.754 1.13118 1.59941 0
M  V30 8026 H 781.334 0.710986 -0.229145 0
M  V30 8027 H 783.996 1.51331 -1.22821 0
M  V30 8028 H 783.092 2.99791 -0.867844 0
M  V30 8029 N 783.393 0.737304 1.3929 0
M  V30 8030 C 784.633 0.290966 2.02318 0
M  V30 8031 C 784.997 -1.10174 1.57244 0
M  V30 8032 O 786.198 -1.64628 2.12488 0
M  V30 8033 C 784.469 0.391767 3.55246 0
M  V30 8034 S 786.028 0.0256103 4.38793 0
M  V30 8035 H 782.846 0.113862 0.701824 0
M  V30 8036 H 785.448 0.964329 1.70062 0
M  V30 8037 H 784.152 1.40662 3.85542 0
M  V30 8038 H 783.683 -0.299338 3.9226 0
M  V30 8039 H 785.698 -1.18991 4.81722 0
M  V30 8040 N 784.871 -1.49948 0.485112 0
M  V30 8041 C 786.282 -1.8667 0.0334041 0
M  V30 8042 C 786.633 -1.3988 -1.37579 0
M  V30 8043 O 785.758 -0.769788 -2.02245 0
M  V30 8044 C 786.353 -3.38757 0.0538426 0
M  V30 8045 C 784.912 -3.74839 -0.342453 0
M  V30 8046 C 784.059 -2.73894 0.433281 0
M  V30 8047 H 787.01 -1.42492 0.698699 0
M  V30 8048 H 787.031 -3.73132 -0.745146 0
M  V30 8049 H 786.543 -3.72782 1.07959 0
M  V30 8050 H 784.644 -3.46419 -1.37203 0
M  V30 8051 H 784.757 -4.79088 -0.0340503 0
M  V30 8052 H 783.121 -2.54441 -0.114849 0
M  V30 8053 H 783.904 -3.10763 1.45881 0
M  V30 8054 N 786.349 -0.21828 -1.56081 0
M  V30 8055 C 787.76 0.290166 -1.84431 0
M  V30 8056 C 788.111 1.59712 -1.13958 0
M  V30 8057 O 787.236 2.12516 -0.40815 0
M  V30 8058 C 787.831 0.53325 -3.34577 0
M  V30 8059 C 786.39 0.986011 -3.63256 0
M  V30 8060 C 785.537 0.0472798 -2.7726 0
M  V30 8061 H 788.488 -0.441548 -1.52434 0
M  V30 8062 H 788.509 1.37967 -3.54606 0
M  V30 8063 H 788.021 -0.418137 -3.85841 0
M  V30 8064 H 786.122 1.95087 -3.17446 0
M  V30 8065 H 786.235 0.862684 -4.71269 0
M  V30 8066 H 784.599 0.553471 -2.48614 0
M  V30 8067 H 785.382 -0.898966 -3.31321 0
M  V30 8068 N 787.827 1.57504 0.0551401 0
M  V30 8069 C 788.757 2.07864 1.06372 0
M  V30 8070 C 789.738 0.975565 1.39344 0
M  V30 8071 O 790.923 1.24929 1.48682 0
M  V30 8072 C 788.053 2.53643 2.3724 0
M  V30 8073 C 787.007 3.67978 2.18578 0
M  V30 8074 C 786.333 3.9987 3.54976 0
M  V30 8075 C 787.633 4.97405 1.59329 0
M  V30 8076 H 789.327 2.92379 0.644595 0
M  V30 8077 H 786.873 1.40654 0.308619 0
M  V30 8078 H 788.826 2.8749 3.08103 0
M  V30 8079 H 787.55 1.66177 2.81163 0
M  V30 8080 H 786.209 3.3444 1.50152 0
M  V30 8081 H 785.857 3.0951 3.965 0
M  V30 8082 H 785.557 4.76867 3.43324 0
M  V30 8083 H 787.081 4.36228 4.27244 0
M  V30 8084 H 788.495 5.29375 2.20078 0
M  V30 8085 H 786.892 5.78837 1.58327 0
M  V30 8086 H 787.962 4.81697 0.55638 0
M  V30 8087 N 789.305 -0.326896 1.54172 0
M  V30 8088 C 790.53 -1.08924 1.76494 0
M  V30 8089 C 790.955 -1.81039 0.510523 0
M  V30 8090 O 790.313 -1.73141 -0.537756 0
M  V30 8091 C 790.361 -2.06558 2.95578 0
M  V30 8092 O 789.465 -3.14394 2.6689 0
M  V30 8093 H 788.806 -0.314216 0.584948 0
M  V30 8094 H 791.336 -0.372207 2.01186 0
M  V30 8095 H 791.346 -2.49487 3.22832 0
M  V30 8096 H 790.021 -1.53469 3.86549 0
M  V30 8097 H 788.598 -2.76164 2.50576 0
M  V30 8098 N 790.784 -1.46188 -0.588786 0
M  V30 8099 C 792.014 -1.54519 -1.3714 0
M  V30 8100 C 792.422 -0.183075 -1.88312 0
M  V30 8101 O 791.765 0.828815 -1.6394 0
M  V30 8102 C 791.827 -2.48426 -2.59856 0
M  V30 8103 C 791.491 -3.94791 -2.30193 0
M  V30 8104 C 792.488 -4.84173 -1.894 0
M  V30 8105 C 790.173 -4.39872 -2.42525 0
M  V30 8106 C 792.167 -6.16647 -1.61325 0
M  V30 8107 C 789.854 -5.72381 -2.14063 0
M  V30 8108 C 790.852 -6.60589 -1.73527 0
M  V30 8109 O 790.54 -7.9064 -1.4541 0
M  V30 8110 H 790.272 -0.525264 -0.425527 0
M  V30 8111 H 792.826 -1.92242 -0.723344 0
M  V30 8112 H 791.056 -2.05709 -3.27446 0
M  V30 8113 H 792.745 -2.4723 -3.21919 0
M  V30 8114 H 793.511 -4.50603 -1.79393 0
M  V30 8115 H 789.39 -3.71444 -2.7304 0
M  V30 8116 H 792.934 -6.85454 -1.29611 0
M  V30 8117 H 788.831 -6.05501 -2.23693 0
M  V30 8118 H 789.599 -8.02847 -1.59306 0
M  V30 8119 N 792.262 0.832906 -1.33792 0
M  V30 8120 C 793.678 1.1245 -1.13257 0
M  V30 8121 C 793.878 2.01369 0.0725832 0
M  V30 8122 O 792.934 2.41071 0.751082 0
M  V30 8123 C 794.247 1.78084 -2.42294 0
M  V30 8124 C 795.795 1.90624 -2.48257 0
M  V30 8125 C 796.27 2.59673 -3.77271 0
M  V30 8126 N 797.761 2.67181 -3.78376 0
M  V30 8127 C 798.496 3.21313 -4.74916 0
M  V30 8128 N 797.992 3.76086 -5.81835 0
M  V30 8129 N 799.785 3.19621 -4.62384 0
M  V30 8130 H 791.936 0.241244 -2.11026 0
M  V30 8131 H 794.199 0.169557 -0.932713 0
M  V30 8132 H 793.905 1.20209 -3.30519 0
M  V30 8133 H 793.779 2.78049 -2.5489 0
M  V30 8134 H 796.166 2.4765 -1.60478 0
M  V30 8135 H 796.247 0.89591 -2.39598 0
M  V30 8136 H 795.891 2.03304 -4.65435 0
M  V30 8137 H 795.821 3.61189 -3.8321 0
M  V30 8138 H 798.312 2.28346 -3.01108 0
M  V30 8139 H 798.625 4.15612 -6.51526 0
M  V30 8140 H 796.97 3.74357 -5.85561 0
M  V30 8141 H 800.161 2.76091 -3.7801 0
M  V30 8142 H 800.334 3.61504 -5.37791 0
M  V30 8143 N 793.74 1.17359 1.05189 0
M  V30 8144 C 794.965 0.98709 1.82404 0
M  V30 8145 C 795.39 -0.459848 1.82392 0
M  V30 8146 O 794.748 -1.32924 1.23292 0
M  V30 8147 C 794.796 1.53276 3.26403 0
M  V30 8148 O 793.9 0.746541 4.05587 0
M  V30 8149 H 793.241 0.35047 0.563974 0
M  V30 8150 H 795.771 1.55856 1.32552 0
M  V30 8151 H 795.781 1.55504 3.77203 0
M  V30 8152 H 794.456 2.58603 3.25726 0
M  V30 8153 H 793.033 0.795671 3.64312 0
M  V30 8154 N 795.218 -1.23913 0.973828 0
M  V30 8155 C 796.148 -2.27453 0.527969 0
M  V30 8156 C 797.129 -1.6443 -0.435513 0
M  V30 8157 O 798.314 -1.9137 -0.330306 0
M  V30 8158 C 795.444 -3.4685 -0.176757 0
M  V30 8159 C 794.398 -4.22181 0.703352 0
M  V30 8160 C 793.724 -5.34534 -0.133215 0
M  V30 8161 C 795.024 -4.82865 1.99096 0
M  V30 8162 H 796.718 -2.65 1.3934 0
M  V30 8163 H 794.264 -1.27388 0.671446 0
M  V30 8164 H 796.217 -4.18424 -0.499934 0
M  V30 8165 H 794.941 -3.08346 -1.07659 0
M  V30 8166 H 793.6 -3.52416 1.00989 0
M  V30 8167 H 793.248 -4.92271 -1.03338 0
M  V30 8168 H 792.948 -5.85855 0.452494 0
M  V30 8169 H 794.472 -6.08933 -0.450924 0
M  V30 8170 H 795.886 -5.46481 1.73297 0
M  V30 8171 H 794.283 -5.44444 2.52389 0
M  V30 8172 H 795.353 -4.03977 2.68199 0
M  V30 8173 N 796.696 -0.74468 -1.38897 0
M  V30 8174 C 798.107 -0.36568 -1.83084 0
M  V30 8175 C 798.458 1.10436 -1.62168 0
M  V30 8176 O 797.583 1.85281 -1.11804 0
M  V30 8177 C 798.178 -0.656946 -3.3237 0
M  V30 8178 C 796.737 -0.331329 -3.74939 0
M  V30 8179 C 795.884 -0.914661 -2.61781 0
M  V30 8180 H 798.835 -0.941551 -1.27752 0
M  V30 8181 H 798.856 0.0679546 -3.80439 0
M  V30 8182 H 798.368 -1.72693 -3.47561 0
M  V30 8183 H 796.469 0.732426 -3.6533 0
M  V30 8184 H 796.582 -0.820655 -4.72019 0
M  V30 8185 H 794.946 -0.34063 -2.52412 0
M  V30 8186 H 795.729 -1.98949 -2.79775 0
M  V30 8187 N 798.174 1.49689 -0.493057 0
M  V30 8188 C 799.124 2.25901 0.308682 0
M  V30 8189 C 800.108 1.30408 0.94247 0
M  V30 8190 O 801.3 1.55179 0.851384 0
M  V30 8191 C 798.429 3.14463 1.37725 0
M  V30 8192 C 797.515 4.17414 0.7501 0
M  V30 8193 N 797.906 5.05599 -0.142597 0
M  V30 8194 C 796.204 4.34377 1.01159 0
M  V30 8195 C 796.905 5.7954 -0.500782 0
M  V30 8196 N 795.881 5.43446 0.129386 0
M  V30 8197 H 799.683 2.91451 -0.378652 0
M  V30 8198 H 797.197 1.59441 -0.308614 0
M  V30 8199 H 799.194 3.67687 1.965 0
M  V30 8200 H 797.854 2.50464 2.06635 0
M  V30 8201 H 798.865 5.15354 -0.512894 0
M  V30 8202 H 795.542 3.81588 1.69402 0
M  V30 8203 H 796.932 6.60534 -1.23063 0
M  V30 8204 N 799.652 0.226554 1.55963 0
M  V30 8205 C 800.88 -0.408507 2.02827 0
M  V30 8206 C 801.295 -1.52994 1.10627 0
M  V30 8207 O 800.652 -1.82126 0.116809 0
M  V30 8208 C 800.703 -0.93545 3.49187 0
M  V30 8209 O 800.424 0.141273 4.37872 0
M  V30 8210 C 801.925 -1.64325 4.11719 0
M  V30 8211 H 799.145 -0.099442 0.66359 0
M  V30 8212 H 801.689 0.344471 2.01578 0
M  V30 8213 H 799.844 -1.63868 3.51036 0
M  V30 8214 H 800.258 -0.25558 5.23877 0
M  V30 8215 H 801.732 -1.9639 5.15883 0
M  V30 8216 H 802.209 -2.55815 3.57009 0
M  V30 8217 H 802.815 -0.9851 4.13734 0
M  V30 8218 N 801.13 -1.57531 -0.0467866 0
M  V30 8219 C 802.546 -1.54451 -0.402107 0
M  V30 8220 C 802.746 -0.950275 -1.77685 0
M  V30 8221 O 801.802 -0.563602 -2.4613 0
M  V30 8222 C 803.115 -2.9899 -0.320212 0
M  V30 8223 C 804.663 -3.10452 -0.398588 0
M  V30 8224 C 805.138 -4.56689 -0.346335 0
M  V30 8225 N 806.629 -4.6142 -0.405666 0
M  V30 8226 C 807.364 -5.72087 -0.387845 0
M  V30 8227 N 806.86 -6.92045 -0.32336 0
M  V30 8228 N 808.653 -5.60404 -0.436263 0
M  V30 8229 H 800.804 -1.94515 0.853087 0
M  V30 8230 H 803.067 -0.891397 0.322669 0
M  V30 8231 H 802.773 -3.46124 0.623794 0
M  V30 8232 H 802.647 -3.60164 -1.1208 0
M  V30 8233 H 805.034 -2.63276 -1.33302 0
M  V30 8234 H 805.115 -2.52142 0.431026 0
M  V30 8235 H 804.759 -5.04527 0.584356 0
M  V30 8236 H 804.689 -5.12889 -1.19382 0
M  V30 8237 H 807.18 -3.75105 -0.458737 0
M  V30 8238 H 807.493 -7.7216 -0.314375 0
M  V30 8239 H 805.838 -6.94396 -0.28967 0
M  V30 8240 H 809.029 -4.65586 -0.48451 0
M  V30 8241 H 809.202 -6.46645 -0.418907 0
M  V30 8242 N 802.608 0.318715 -1.54344 0
M  V30 8243 C 803.836 1.0755 -1.7675 0
M  V30 8244 C 804.251 1.81543 -0.518422 0
M  V30 8245 O 803.608 1.75198 0.511078 0
M  V30 8246 C 803.659 2.06983 -2.96378 0
M  V30 8247 O 803.38 1.35995 -4.16458 0
M  V30 8248 C 804.881 2.94841 -3.31034 0
M  V30 8249 H 802.101 0.319711 -0.589937 0
M  V30 8250 H 804.645 0.363369 -2.01246 0
M  V30 8251 H 802.8 2.73724 -2.74142 0
M  V30 8252 H 803.214 2.02623 -4.83781 0
M  V30 8253 H 804.688 3.60496 -4.18027 0
M  V30 8254 H 805.165 3.62199 -2.48412 0
M  V30 8255 H 805.771 2.33656 -3.55366 0
M  V30 8256 N 804.086 1.46499 0.581025 0
M  V30 8257 C 805.311 1.55708 1.37002 0
M  V30 8258 C 805.736 0.19942 1.8704 0
M  V30 8259 O 805.094 -0.820731 1.61659 0
M  V30 8260 C 805.142 2.56716 2.53238 0
M  V30 8261 O 804.246 2.10336 3.54729 0
M  V30 8262 H 803.587 0.523912 0.407937 0
M  V30 8263 H 806.117 1.92085 0.704602 0
M  V30 8264 H 806.127 2.76378 3.00132 0
M  V30 8265 H 804.802 3.55307 2.16171 0
M  V30 8266 H 803.379 2.00669 3.14303 0
M  V30 8267 N 805.565 -0.825799 1.34232 0
M  V30 8268 C 806.512 -1.93651 1.2557 0
M  V30 8269 C 807.482 -1.65578 0.131536 0
M  V30 8270 O 808.667 -1.88231 0.312027 0
M  V30 8271 C 805.807 -3.29862 1.01415 0
M  V30 8272 C 804.92 -3.70247 2.22579 0
M  V30 8273 C 804.055 -4.95392 1.91731 0
M  V30 8274 C 803.094 -5.28349 3.09053 0
M  V30 8275 N 802.231 -6.44671 2.78107 0
M  V30 8276 H 807.071 -2.00392 2.20561 0
M  V30 8277 H 804.608 -0.980441 1.09662 0
M  V30 8278 H 806.566 -4.08356 0.854485 0
M  V30 8279 H 805.196 -3.22642 0.100936 0
M  V30 8280 H 804.248 -2.87169 2.49476 0
M  V30 8281 H 805.56 -3.90575 3.10246 0
M  V30 8282 H 804.714 -5.81665 1.72484 0
M  V30 8283 H 803.453 -4.77059 1.0132 0
M  V30 8284 H 802.458 -4.40574 3.289 0
M  V30 8285 H 803.683 -5.48622 4.00239 0
M  V30 8286 H 801.629 -6.278 1.9027 0
M  V30 8287 H 801.546 -6.65158 3.59306 0
M  V30 8288 H 802.814 -7.34022 2.62358 0
M  V30 8289 N 807.043 -1.17915 -1.04565 0
M  V30 8290 C 808.273 -0.994716 -1.81077 0
M  V30 8291 C 808.681 0.460146 -1.83519 0
M  V30 8292 O 808.024 1.33136 -1.26572 0
M  V30 8293 C 808.086 -1.46698 -3.28207 0
M  V30 8294 C 807.75 -2.94523 -3.49436 0
M  V30 8295 C 808.747 -3.92414 -3.41038 0
M  V30 8296 C 806.432 -3.32841 -3.76194 0
M  V30 8297 C 808.426 -5.2662 -3.59096 0
M  V30 8298 C 806.113 -4.67212 -3.93899 0
M  V30 8299 C 807.111 -5.6391 -3.8535 0
M  V30 8300 O 806.799 -6.95849 -4.02554 0
M  V30 8301 H 806.531 -0.351797 -0.577248 0
M  V30 8302 H 809.085 -1.56772 -1.32709 0
M  V30 8303 H 807.315 -0.837592 -3.7752 0
M  V30 8304 H 809.004 -1.24724 -3.86263 0
M  V30 8305 H 809.77 -3.64157 -3.20336 0
M  V30 8306 H 805.649 -2.58139 -3.81949 0
M  V30 8307 H 809.193 -6.02082 -3.52339 0
M  V30 8308 H 805.09 -4.95172 -4.14095 0
M  V30 8309 H 805.858 -7.02679 -4.19743 0
M  V30 8310 N 808.521 1.23394 -0.980386 0
M  V30 8311 C 809.746 1.96384 -0.666935 0
M  V30 8312 C 810.171 1.72087 0.759456 0
M  V30 8313 O 809.529 0.992328 1.51732 0
M  V30 8314 C 809.577 3.47499 -0.963177 0
M  V30 8315 O 808.681 4.12363 -0.0552051 0
M  V30 8316 H 808.022 0.614797 -0.250839 0
M  V30 8317 H 810.552 1.56831 -1.31398 0
M  V30 8318 H 810.562 3.97953 -0.899877 0
M  V30 8319 H 809.237 3.6451 -2.00264 0
M  V30 8320 H 807.814 3.72499 -0.172914 0
M  V30 8321 N 809.999 0.752036 1.385 0
M  V30 8322 C 811.246 0.307503 2.00152 0
M  V30 8323 C 811.574 -1.11033 1.59693 0
M  V30 8324 O 810.829 -1.77455 0.825125 0
M  V30 8325 C 811.128 0.376155 3.55415 0
M  V30 8326 C 810.794 1.74942 4.15579 0
M  V30 8327 C 809.456 2.12525 4.31725 0
M  V30 8328 C 811.808 2.65031 4.48785 0
M  V30 8329 C 809.136 3.39671 4.78373 0
M  V30 8330 C 811.488 3.91567 4.96848 0
M  V30 8331 C 810.152 4.2922 5.11201 0
M  V30 8332 H 809.422 0.112523 0.732407 0
M  V30 8333 H 812.069 0.962213 1.65571 0
M  V30 8334 H 810.374 -0.362121 3.90123 0
M  V30 8335 H 812.071 0.0138065 4.00998 0
M  V30 8336 H 808.661 1.44726 4.03426 0
M  V30 8337 H 812.845 2.3726 4.35914 0
M  V30 8338 H 808.101 3.68765 4.8767 0
M  V30 8339 H 812.275 4.61517 5.21512 0
M  V30 8340 H 809.902 5.27805 5.47107 0
M  V30 8341 N 811.477 -1.49425 0.500989 0
M  V30 8342 C 812.427 -2.26061 -0.296698 0
M  V30 8343 C 813.411 -1.30906 -0.935541 0
M  V30 8344 O 814.603 -1.55628 -0.843142 0
M  V30 8345 C 811.732 -3.15189 -1.36055 0
M  V30 8346 C 810.818 -4.17806 -0.727952 0
M  V30 8347 N 811.209 -5.05516 0.169408 0
M  V30 8348 C 809.507 -4.34907 -0.988535 0
M  V30 8349 C 810.208 -5.79267 0.531509 0
M  V30 8350 N 809.184 -5.43507 -0.100564 0
M  V30 8351 H 812.986 -2.91246 0.394103 0
M  V30 8352 H 810.5 -1.59275 0.317065 0
M  V30 8353 H 812.497 -3.68724 -1.94547 0
M  V30 8354 H 811.157 -2.51556 -2.05303 0
M  V30 8355 H 812.168 -5.15075 0.540218 0
M  V30 8356 H 808.845 -3.82481 -1.67376 0
M  V30 8357 H 810.235 -6.59872 1.26564 0
M  V30 8358 N 812.955 -0.234822 -1.55841 0
M  V30 8359 C 813.905 0.68346 -2.17515 0
M  V30 8360 C 814.889 1.14798 -1.1274 0
M  V30 8361 O 816.081 1.09976 -1.38688 0
M  V30 8362 C 813.21 1.88551 -2.86886 0
M  V30 8363 C 812.296 1.44006 -3.98903 0
M  V30 8364 N 812.687 0.708034 -5.0082 0
M  V30 8365 C 810.985 1.7263 -4.11236 0
M  V30 8366 C 811.686 0.479036 -5.79724 0
M  V30 8367 N 810.662 1.03968 -5.33565 0
M  V30 8368 H 814.464 0.115897 -2.93671 0
M  V30 8369 H 811.978 -0.0366273 -1.62359 0
M  V30 8370 H 813.975 2.55425 -3.2949 0
M  V30 8371 H 812.635 2.45742 -2.12229 0
M  V30 8372 H 813.646 0.359363 -5.16652 0
M  V30 8373 H 810.323 2.31046 -3.47741 0
M  V30 8374 H 811.713 -0.104514 -6.71819 0
M  V30 8375 N 814.433 1.57553 0.0384317 0
M  V30 8376 C 815.849 1.54663 0.39391 0
M  V30 8377 C 816.049 0.959685 1.77179 0
M  V30 8378 O 815.105 0.576647 2.45827 0
M  V30 8379 C 816.418 2.99156 0.304352 0
M  V30 8380 C 817.966 3.10659 0.382119 0
M  V30 8381 C 818.441 4.56866 0.322111 0
M  V30 8382 N 819.932 4.61629 0.38119 0
M  V30 8383 C 820.667 5.72284 0.357501 0
M  V30 8384 N 820.163 6.92207 0.286654 0
M  V30 8385 N 821.956 5.60628 0.406538 0
M  V30 8386 H 814.107 1.9406 -0.86339 0
M  V30 8387 H 816.37 0.889673 -0.327392 0
M  V30 8388 H 816.076 3.45788 -0.642141 0
M  V30 8389 H 815.95 3.60753 1.10168 0
M  V30 8390 H 818.337 2.6398 1.31904 0
M  V30 8391 H 818.418 2.5191 -0.444391 0
M  V30 8392 H 818.062 5.0421 -0.611104 0
M  V30 8393 H 817.992 5.13515 1.1666 0
M  V30 8394 H 820.483 3.75343 0.438838 0
M  V30 8395 H 820.796 7.72316 0.273421 0
M  V30 8396 H 819.141 6.9454 0.252841 0
M  V30 8397 H 822.332 4.65836 0.459812 0
M  V30 8398 H 822.505 6.46858 0.384608 0
M  V30 8399 N 815.911 -0.310526 1.54511 0
M  V30 8400 C 816.858 -1.38264 1.84802 0
M  V30 8401 C 817.828 -1.50808 0.696141 0
M  V30 8402 O 819.013 -1.6582 0.943846 0
M  V30 8403 C 816.153 -2.74422 2.09252 0
M  V30 8404 C 815.266 -2.70405 3.36906 0
M  V30 8405 C 814.401 -3.98495 3.51248 0
M  V30 8406 C 813.44 -3.88836 4.72729 0
M  V30 8407 N 812.577 -5.08683 4.83928 0
M  V30 8408 H 817.417 -1.11732 2.76261 0
M  V30 8409 H 814.954 -0.540609 1.36806 0
M  V30 8410 H 816.912 -3.53593 2.21422 0
M  V30 8411 H 815.542 -2.99235 1.2107 0
M  V30 8412 H 814.594 -1.83151 3.33406 0
M  V30 8413 H 815.906 -2.59155 4.26193 0
M  V30 8414 H 815.06 -4.861 3.63031 0
M  V30 8415 H 813.799 -4.12567 2.60077 0
M  V30 8416 H 812.804 -2.99615 4.60989 0
M  V30 8417 H 814.029 -3.76318 5.65298 0
M  V30 8418 H 811.975 -5.23236 3.95677 0
M  V30 8419 H 811.892 -4.99819 5.67201 0
M  V30 8420 H 813.16 -5.97966 5.00057 0
M  V30 8421 N 817.389 -1.46805 -0.573248 0
M  V30 8422 C 818.629 -1.5417 -1.34205 0
M  V30 8423 C 818.993 -0.192675 -1.91031 0
M  V30 8424 O 820.194 -0.141111 -2.68429 0
M  V30 8425 C 818.465 -2.61682 -2.43428 0
M  V30 8426 S 820.024 -2.88519 -3.30609 0
M  V30 8427 H 816.842 -0.544592 -0.4571 0
M  V30 8428 H 819.444 -1.84094 -0.658001 0
M  V30 8429 H 818.148 -3.58319 -2.00088 0
M  V30 8430 H 817.679 -2.33521 -3.16594 0
M  V30 8431 H 819.694 -2.2451 -4.42504 0
M  V30 8432 N 818.867 0.818669 -1.34668 0
M  V30 8433 C 820.278 1.39177 -1.24446 0
M  V30 8434 C 820.629 1.9578 0.128268 0
M  V30 8435 O 819.754 1.90382 1.02877 0
M  V30 8436 C 820.349 2.53012 -2.25323 0
M  V30 8437 C 818.908 3.06218 -2.18878 0
M  V30 8438 C 818.055 1.79112 -2.11694 0
M  V30 8439 H 821.006 0.622709 -1.45973 0
M  V30 8440 H 821.027 3.31226 -1.8727 0
M  V30 8441 H 820.539 2.11784 -3.25221 0
M  V30 8442 H 818.64 3.51939 -1.22351 0
M  V30 8443 H 818.753 3.65019 -3.10319 0
M  V30 8444 H 817.117 2.0018 -1.57481 0
M  V30 8445 H 817.9 1.40053 -3.13433 0
M  V30 8446 N 820.346 1.18468 1.03938 0
M  V30 8447 C 821.574 1.00576 1.80809 0
M  V30 8448 C 821.989 -0.445786 1.83462 0
M  V30 8449 O 821.346 -1.30964 1.27101 0
M  V30 8450 C 821.397 1.55491 3.26351 0
M  V30 8451 O 821.118 2.94963 3.23926 0
M  V30 8452 C 822.619 1.42236 4.19862 0
M  V30 8453 H 819.839 0.35508 0.56935 0
M  V30 8454 H 822.383 1.57046 1.30984 0
M  V30 8455 H 820.538 1.03195 3.73403 0
M  V30 8456 H 820.952 3.20598 4.15111 0
M  V30 8457 H 822.426 1.85455 5.19914 0
M  V30 8458 H 822.903 0.371267 4.37628 0
M  V30 8459 H 823.509 1.9361 3.78675 0
M  V30 8460 N 821.824 -1.22873 0.986916 0
M  V30 8461 C 823.235 -1.73264 0.695438 0
M  V30 8462 C 823.586 -1.79679 -0.788023 0
M  V30 8463 O 822.711 -1.43905 -1.61618 0
M  V30 8464 C 823.306 -3.14671 1.2557 0
M  V30 8465 C 821.865 -3.62492 1.01373 0
M  V30 8466 C 821.012 -2.40551 1.37951 0
M  V30 8467 H 823.963 -1.08304 1.15999 0
M  V30 8468 H 823.984 -3.75226 0.631322 0
M  V30 8469 H 823.496 -3.0997 2.33539 0
M  V30 8470 H 821.597 -3.72567 -0.0495917 0
M  V30 8471 H 821.71 -4.48944 1.67289 0
M  V30 8472 H 820.074 -2.41875 0.798033 0
M  V30 8473 H 820.857 -2.38516 2.46911 0
M  V30 8474 N 823.302 -0.75937 -1.38099 0
M  V30 8475 C 824.55 -0.317485 -1.99591 0
M  V30 8476 C 824.871 1.10628 -1.60581 0
M  V30 8477 O 824.141 1.7575 -0.865378 0
M  V30 8478 H 822.721 -0.114397 -0.738189 0
M  V30 8479 H 825.383 -0.974749 -1.68774 0
M  V30 8480 H 824.479 -0.385227 -3.09713 0
M  V30 8481 N 824.78 1.49157 -0.508906 0
M  V30 8482 C 826.02 2.04376 0.0310623 0
M  V30 8483 C 826.384 1.37946 1.33547 0
M  V30 8484 O 827.585 1.83931 1.96017 0
M  V30 8485 C 825.856 3.56985 0.172191 0
M  V30 8486 S 827.415 4.33728 0.665267 0
M  V30 8487 H 824.233 0.710997 -0.00199266 0
M  V30 8488 H 826.835 1.83119 -0.684674 0
M  V30 8489 H 825.539 4.02874 -0.78234 0
M  V30 8490 H 825.07 3.82661 0.912933 0
M  V30 8491 H 827.085 4.56992 1.9332 0
M  V30 8492 N 826.258 0.243083 1.55714 0
M  V30 8493 C 827.535 -0.432851 1.90751 0
M  V30 8494 C 827.915 -1.76153 1.16333 0
M  V30 8495 O 827.263 -2.26783 0.279565 0
M  V30 8496 C 827.473 -0.604685 3.43722 0
M  V30 8497 C 828.821 -0.90231 4.14902 0
M  V30 8498 O 829.845 -0.690689 3.49439 0
M  V30 8499 O 828.704 -1.3051 5.30688 0
M  V30 8500 H 825.798 -0.231835 0.79384 0
M  V30 8501 H 828.344 0.286867 1.67258 0
M  V30 8502 H 827.116 0.331655 3.89892 0
M  V30 8503 H 826.739 -1.37509 3.73065 0
M  V30 8504 N 827.736 -1.57571 -0.0300757 0
M  V30 8505 C 828.984 -1.88852 -0.719666 0
M  V30 8506 C 829.305 -0.840645 -1.75949 0
M  V30 8507 O 828.575 0.125854 -1.95495 0
M  V30 8508 H 827.155 -0.696965 -0.268792 0
M  V30 8509 H 829.817 -1.949 0.00373285 0
M  V30 8510 H 828.913 -2.87695 -1.20987 0
M  V30 8511 N 829.214 0.302327 -1.54673 0
M  V30 8512 C 830.439 1.06103 -1.78205 0
M  V30 8513 C 830.864 1.80204 -0.53926 0
M  V30 8514 O 830.222 1.73975 0.510142 0
M  V30 8515 C 830.27 2.01829 -2.98827 0
M  V30 8516 O 829.374 3.10108 -2.71858 0
M  V30 8517 H 828.715 0.30487 -0.589873 0
M  V30 8518 H 831.245 0.340153 -2.01753 0
M  V30 8519 H 831.255 2.44319 -3.2676 0
M  V30 8520 H 829.93 1.473 -3.88942 0
M  V30 8521 H 828.507 2.72142 -2.54937 0
M  V30 8522 N 830.692 1.47107 0.565454 0
M  V30 8523 C 831.94 1.53005 1.32038 0
M  V30 8524 C 832.261 0.190453 1.94068 0
M  V30 8525 O 831.531 -0.784783 1.79494 0
M  V30 8526 H 830.111 0.563578 0.490294 0
M  V30 8527 H 832.773 1.83351 0.660928 0
M  V30 8528 H 831.869 2.29215 2.11818 0
M  V30 8529 N 832.17 -0.811516 1.35101 0
M  V30 8530 C 833.12 -1.91227 1.24163 0
M  V30 8531 C 834.104 -1.60307 0.138012 0
M  V30 8532 O 835.296 -1.73116 0.368767 0
M  V30 8533 C 832.425 -3.2808 1.01085 0
M  V30 8534 C 831.511 -3.65082 2.15815 0
M  V30 8535 N 831.902 -3.73558 3.4101 0
M  V30 8536 C 830.2 -3.95005 2.07092 0
M  V30 8537 C 830.901 -4.06158 4.16426 0
M  V30 8538 N 829.877 -4.19982 3.45132 0
M  V30 8539 H 833.679 -1.95975 2.19023 0
M  V30 8540 H 831.193 -1.00583 1.27503 0
M  V30 8541 H 833.19 -4.06771 0.913382 0
M  V30 8542 H 831.85 -3.24622 0.0710406 0
M  V30 8543 H 832.861 -3.56761 3.75423 0
M  V30 8544 H 829.538 -3.99601 1.20937 0
M  V30 8545 H 830.928 -4.19824 5.24592 0
M  V30 8546 N 833.648 -1.19017 -1.03309 0
M  V30 8547 C 834.894 -0.991681 -1.769 0
M  V30 8548 C 835.227 0.476813 -1.88255 0
M  V30 8549 O 834.502 1.35407 -1.39625 0
M  V30 8550 C 834.785 -1.65627 -3.19749 0
M  V30 8551 C 834.638 -3.19813 -3.1629 0
M  V30 8552 C 835.957 -1.37579 -4.18043 0
M  V30 8553 H 833.076 -0.361674 -0.642153 0
M  V30 8554 H 835.718 -1.46795 -1.20628 0
M  V30 8555 H 833.868 -1.25132 -3.67796 0
M  V30 8556 H 835.54 -3.69494 -2.76174 0
M  V30 8557 H 833.783 -3.51578 -2.54117 0
M  V30 8558 H 834.454 -3.61457 -4.17196 0
M  V30 8559 H 836.93 -1.72679 -3.78578 0
M  V30 8560 H 835.806 -1.86636 -5.16196 0
M  V30 8561 H 836.067 -0.300118 -4.4108 0
M  V30 8562 N 835.127 1.22348 -0.993418 0
M  V30 8563 C 836.355 1.95125 -0.688021 0
M  V30 8564 C 836.77 1.73377 0.747388 0
M  V30 8565 O 836.127 1.03317 1.50439 0
M  V30 8566 C 836.178 3.47819 -0.985097 0
M  V30 8567 O 835.899 3.68838 -2.3641 0
M  V30 8568 C 837.4 4.37779 -0.697474 0
M  V30 8569 H 834.62 0.62087 -0.254481 0
M  V30 8570 H 837.164 1.55485 -1.32833 0
M  V30 8571 H 835.319 3.85426 -0.390583 0
M  V30 8572 H 835.733 4.63032 -2.46377 0
M  V30 8573 H 837.207 5.43666 -0.955604 0
M  V30 8574 H 837.684 4.37651 0.368524 0
M  V30 8575 H 838.29 4.05799 -1.27306 0
M  V30 8576 N 836.605 0.766683 1.37694 0
M  V30 8577 C 837.853 0.328065 1.9942 0
M  V30 8578 C 838.174 -1.09775 1.61166 0
M  V30 8579 O 837.444 -1.75288 0.874686 0
M  V30 8580 H 836.024 0.11831 0.737572 0
M  V30 8581 H 838.686 0.983686 1.68255 0
M  V30 8582 H 837.782 0.401647 3.09505 0
M  V30 8583 N 838.083 -1.48885 0.516809 0
M  V30 8584 C 839.03 -2.29408 -0.253125 0
M  V30 8585 C 840 -1.36533 -0.945935 0
M  V30 8586 O 841.185 -1.65495 -0.949527 0
M  V30 8587 C 838.325 -3.19592 -1.30211 0
M  V30 8588 C 837.438 -4.27535 -0.61948 0
M  V30 8589 C 836.573 -5.04916 -1.65026 0
M  V30 8590 C 835.612 -6.04677 -0.950368 0
M  V30 8591 N 834.749 -6.75164 -1.92608 0
M  V30 8592 H 839.589 -2.94738 0.439744 0
M  V30 8593 H 837.126 -1.45311 0.2287 0
M  V30 8594 H 839.084 -3.70267 -1.92245 0
M  V30 8595 H 837.714 -2.56213 -1.96353 0
M  V30 8596 H 836.766 -3.80228 0.114505 0
M  V30 8597 H 838.078 -4.98752 -0.0693016 0
M  V30 8598 H 837.232 -5.59539 -2.34523 0
M  V30 8599 H 835.971 -4.33508 -2.23432 0
M  V30 8600 H 834.976 -5.4927 -0.241252 0
M  V30 8601 H 836.201 -6.78077 -0.372599 0
M  V30 8602 H 834.147 -6.06517 -2.49946 0
M  V30 8603 H 834.064 -7.4241 -1.42699 0
M  V30 8604 H 835.332 -7.34384 -2.61345 0
M  V30 8605 N 839.561 -0.251338 -1.55583 0
M  V30 8606 C 840.808 0.372169 -1.99051 0
M  V30 8607 C 841.136 1.57623 -1.13953 0
M  V30 8608 O 840.391 1.94762 -0.191398 0
M  V30 8609 C 840.69 0.821186 -3.47838 0
M  V30 8610 C 840.356 -0.275608 -4.50057 0
M  V30 8611 C 839.018 -0.57683 -4.7773 0
M  V30 8612 C 841.37 -1.01585 -5.11204 0
M  V30 8613 C 838.698 -1.62229 -5.63825 0
M  V30 8614 C 841.05 -2.05087 -5.98433 0
M  V30 8615 C 839.714 -2.35869 -6.24437 0
M  V30 8616 H 838.984 0.136186 -0.728378 0
M  V30 8617 H 841.631 -0.360089 -1.88084 0
M  V30 8618 H 839.936 1.63272 -3.56159 0
M  V30 8619 H 841.633 1.31396 -3.78861 0
M  V30 8620 H 838.223 -0.030697 -4.28589 0
M  V30 8621 H 842.407 -0.79639 -4.89869 0
M  V30 8622 H 837.663 -1.86607 -5.82226 0
M  V30 8623 H 841.837 -2.62934 -6.44855 0
M  V30 8624 H 839.464 -3.17017 -6.90944 0
M  V30 8625 N 841.039 1.57585 0.0217189 0
M  V30 8626 C 842.267 1.93871 0.722619 0
M  V30 8627 C 842.682 0.851706 1.68498 0
M  V30 8628 O 842.039 -0.17127 1.81695 0
M  V30 8629 C 842.09 3.30114 1.47333 0
M  V30 8630 O 841.811 4.34639 0.549597 0
M  V30 8631 C 843.312 3.80727 2.27072 0
M  V30 8632 H 840.532 0.639671 0.202637 0
M  V30 8633 H 843.076 2.04487 -0.0229414 0
M  V30 8634 H 841.231 3.20872 2.17071 0
M  V30 8635 H 841.645 5.13326 1.07686 0
M  V30 8636 H 843.119 4.78547 2.75131 0
M  V30 8637 H 843.596 3.12301 3.08812 0
M  V30 8638 H 844.202 3.93075 1.62395 0
M  V30 8639 N 842.517 -0.29412 1.54831 0
M  V30 8640 C 843.48 -1.3461 1.85507 0
M  V30 8641 C 844.48 -1.43359 0.728343 0
M  V30 8642 O 845.67 -1.42875 0.996609 0
M  V30 8643 C 842.802 -2.73012 2.0415 0
M  V30 8644 H 843.995 -1.08651 2.79526 0
M  V30 8645 H 841.548 -0.531138 1.46999 0
M  V30 8646 H 842.283 -3.04183 1.12441 0
M  V30 8647 H 842.068 -2.68051 2.86166 0
M  V30 8648 H 843.558 -3.49061 2.29229 0
M  V30 8649 N 843.995 -1.47404 -0.557645 0
M  V30 8650 C 844.945 -1.56267 -1.66026 0
M  V30 8651 C 845.929 -0.42161 -1.55278 0
M  V30 8652 O 847.121 -0.671505 -1.63768 0
M  V30 8653 C 844.25 -1.57958 -3.04802 0
M  V30 8654 C 843.336 -2.77447 -3.20755 0
M  V30 8655 N 843.727 -4.02148 -3.06775 0
M  V30 8656 C 842.025 -2.74199 -3.51754 0
M  V30 8657 C 842.726 -4.82168 -3.25406 0
M  V30 8658 N 841.702 -4.14481 -3.5172 0
M  V30 8659 H 845.504 -2.50454 -1.53785 0
M  V30 8660 H 843.018 -1.43392 -0.762388 0
M  V30 8661 H 845.015 -1.62397 -3.8397 0
M  V30 8662 H 843.675 -0.648667 -3.18155 0
M  V30 8663 H 844.686 -4.33014 -2.84111 0
M  V30 8664 H 841.363 -1.90243 -3.71637 0
M  V30 8665 H 842.753 -5.91037 -3.19569 0
M  V30 8666 N 845.473 0.80434 -1.35529 0
M  V30 8667 C 846.423 1.90565 -1.25175 0
M  V30 8668 C 847.407 1.60232 -0.146512 0
M  V30 8669 O 848.599 1.72918 -0.377943 0
M  V30 8670 C 845.728 3.2754 -1.02823 0
M  V30 8671 C 844.814 3.63932 -2.17748 0
M  V30 8672 N 845.205 3.71744 -3.42986 0
M  V30 8673 C 843.503 3.93901 -2.09184 0
M  V30 8674 C 844.204 4.03944 -4.18574 0
M  V30 8675 N 843.18 4.18146 -3.47355 0
M  V30 8676 H 846.982 1.9481 -2.20059 0
M  V30 8677 H 844.496 0.99905 -1.28034 0
M  V30 8678 H 846.493 4.06281 -0.934941 0
M  V30 8679 H 845.153 3.2458 -0.0882551 0
M  V30 8680 H 846.164 3.54765 -3.77309 0
M  V30 8681 H 842.841 3.98954 -1.23054 0
M  V30 8682 H 844.231 4.17036 -5.26811 0
M  V30 8683 N 846.951 1.19563 1.02676 0
M  V30 8684 C 848.191 1.01072 1.77662 0
M  V30 8685 C 848.555 -0.450344 1.86644 0
M  V30 8686 O 849.756 -0.755132 2.57975 0
M  V30 8687 C 848.027 1.66383 3.16309 0
M  V30 8688 S 849.586 1.62858 4.07459 0
M  V30 8689 H 846.404 0.362644 0.611564 0
M  V30 8690 H 849.006 1.51947 1.23014 0
M  V30 8691 H 847.71 2.71917 3.07391 0
M  V30 8692 H 847.241 1.15596 3.76033 0
M  V30 8693 H 849.256 0.654265 4.91868 0
M  V30 8694 N 848.429 -1.21819 0.999893 0
M  V30 8695 C 849.359 -2.26282 0.576096 0
M  V30 8696 C 850.34 -1.65317 -0.400537 0
M  V30 8697 O 851.525 -1.92028 -0.28964 0
M  V30 8698 C 848.655 -3.47147 -0.103145 0
M  V30 8699 C 847.609 -4.20594 0.792745 0
M  V30 8700 C 846.935 -5.34696 -0.0198026 0
M  V30 8701 C 848.235 -4.78533 2.09293 0
M  V30 8702 H 849.929 -2.61984 1.4493 0
M  V30 8703 H 847.475 -1.25935 0.698316 0
M  V30 8704 H 849.428 -4.1939 -0.411068 0
M  V30 8705 H 848.152 -3.1056 -1.01094 0
M  V30 8706 H 846.811 -3.50194 1.08442 0
M  V30 8707 H 846.459 -4.94352 -0.928729 0
M  V30 8708 H 846.159 -5.84764 0.576661 0
M  V30 8709 H 847.683 -6.09752 -0.321659 0
M  V30 8710 H 849.097 -5.42682 1.8485 0
M  V30 8711 H 847.494 -5.38968 2.63881 0
M  V30 8712 H 848.564 -3.98197 2.76708 0
M  V30 8713 N 849.908 -0.773975 -1.37286 0
M  V30 8714 C 851.133 -0.349561 -2.04433 0
M  V30 8715 C 851.558 1.02082 -1.5799 0
M  V30 8716 O 850.916 1.65458 -0.741172 0
M  V30 8717 C 850.964 -0.404292 -3.58326 0
M  V30 8718 O 850.068 0.594447 -4.08093 0
M  V30 8719 H 849.409 -0.150959 -0.646612 0
M  V30 8720 H 851.939 -1.05079 -1.75555 0
M  V30 8721 H 851.949 -0.262378 -4.07155 0
M  V30 8722 H 850.624 -1.40403 -3.91484 0
M  V30 8723 H 849.201 0.415468 -3.70578 0
M  V30 8724 N 851.386 1.48609 -0.524698 0
M  V30 8725 C 852.634 2.02097 0.0112991 0
M  V30 8726 C 852.955 1.40455 1.35268 0
M  V30 8727 O 852.225 0.56807 1.87483 0
M  V30 8728 H 850.805 0.746966 0.00716426 0
M  V30 8729 H 853.467 1.82378 -0.687329 0
M  V30 8730 H 852.563 3.11855 0.123531 0
M  V30 8731 N 852.864 0.259585 1.55447 0
M  V30 8732 C 854.104 -0.362989 2.01151 0
M  V30 8733 C 854.468 -1.54201 1.14394 0
M  V30 8734 O 855.669 -2.23318 1.49608 0
M  V30 8735 C 853.94 -0.750399 3.49434 0
M  V30 8736 S 855.499 -1.3617 4.17137 0
M  V30 8737 H 852.317 -0.11365 0.701858 0
M  V30 8738 H 854.919 0.377788 1.91815 0
M  V30 8739 H 853.623 0.116807 4.10234 0
M  V30 8740 H 853.154 -1.52303 3.62722 0
M  V30 8741 H 855.169 -2.65059 4.19474 0
M  V30 8742 N 854.342 -1.57594 -0.0133615 0
M  V30 8743 C 855.753 -1.78168 -0.557937 0
M  V30 8744 C 856.104 -0.892616 -1.74719 0
M  V30 8745 O 855.229 -0.0915491 -2.16206 0
M  V30 8746 C 855.824 -3.23115 -1.01894 0
M  V30 8747 C 854.383 -3.44831 -1.50892 0
M  V30 8748 C 853.53 -2.73558 -0.454044 0
M  V30 8749 H 856.481 -1.57266 0.212843 0
M  V30 8750 H 856.502 -3.30493 -1.8856 0
M  V30 8751 H 856.014 -3.87798 -0.153175 0
M  V30 8752 H 854.115 -2.85345 -2.39602 0
M  V30 8753 H 854.228 -4.53485 -1.54559 0
M  V30 8754 H 852.592 -2.37787 -0.912666 0
M  V30 8755 H 853.375 -3.40932 0.402524 0
M  V30 8756 N 855.82 0.285905 -1.54985 0
M  V30 8757 C 856.75 1.35752 -1.89983 0
M  V30 8758 C 857.731 1.52163 -0.760295 0
M  V30 8759 O 858.916 1.65421 -1.01733 0
M  V30 8760 C 856.046 2.71925 -2.16042 0
M  V30 8761 C 855 2.70261 -3.31878 0
M  V30 8762 C 854.326 4.09864 -3.43388 0
M  V30 8763 C 855.626 2.30667 -4.68604 0
M  V30 8764 H 857.32 1.06709 -2.79738 0
M  V30 8765 H 854.866 0.511884 -1.34595 0
M  V30 8766 H 856.819 3.46992 -2.39113 0
M  V30 8767 H 855.543 3.02523 -1.23074 0
M  V30 8768 H 854.202 1.97651 -3.08755 0
M  V30 8769 H 853.85 4.37664 -2.47909 0
M  V30 8770 H 853.55 4.09648 -4.21262 0
M  V30 8771 H 855.074 4.86689 -3.68736 0
M  V30 8772 H 856.488 2.95453 -4.91305 0
M  V30 8773 H 854.885 2.41637 -5.49301 0
M  V30 8774 H 855.955 1.25793 -4.68299 0
M  V30 8775 N 857.298 1.47698 0.54982 0
M  V30 8776 C 858.261 1.60282 1.63837 0
M  V30 8777 C 859.261 0.477394 1.5355 0
M  V30 8778 O 860.451 0.742665 1.57576 0
M  V30 8779 C 857.583 1.55431 3.03404 0
M  V30 8780 H 858.776 2.57325 1.54026 0
M  V30 8781 H 856.329 1.35999 0.770329 0
M  V30 8782 H 857.064 0.597912 3.1874 0
M  V30 8783 H 856.849 2.37116 3.12279 0
M  V30 8784 H 858.339 1.6739 3.82584 0
M  V30 8785 N 858.776 -0.797141 1.35954 0
M  V30 8786 C 859.686 -1.94088 1.31784 0
M  V30 8787 C 860.702 -1.72588 0.221227 0
M  V30 8788 O 861.878 -1.96256 0.452255 0
M  V30 8789 C 858.943 -3.28828 1.09878 0
M  V30 8790 C 858.004 -3.63158 2.28942 0
M  V30 8791 C 857.237 -4.91469 2.08072 0
M  V30 8792 O 857.46 -5.60616 1.05196 0
M  V30 8793 O 856.394 -5.24277 2.95664 0
M  V30 8794 H 860.22 -2.00554 2.28061 0
M  V30 8795 H 857.805 -0.936288 1.16422 0
M  V30 8796 H 859.687 -4.09473 0.995485 0
M  V30 8797 H 858.362 -3.23271 0.16659 0
M  V30 8798 H 857.269 -2.82851 2.44839 0
M  V30 8799 H 858.602 -3.7343 3.20641 0
M  V30 8800 N 860.254 -1.20106 -1.0204 0
M  V30 8801 C 861.67 -0.955099 -1.27867 0
M  V30 8802 C 861.87 0.367595 -1.98119 0
M  V30 8803 O 860.926 1.09705 -2.27423 0
M  V30 8804 C 862.239 -2.13507 -2.11744 0
M  V30 8805 C 863.787 -2.17563 -2.25023 0
M  V30 8806 C 864.262 -3.35035 -3.12275 0
M  V30 8807 N 865.753 -3.35024 -3.19864 0
M  V30 8808 C 866.488 -4.22566 -3.8759 0
M  V30 8809 N 865.984 -5.20278 -4.57474 0
M  V30 8810 N 867.777 -4.10418 -3.84075 0
M  V30 8811 H 859.928 -2.05193 -0.54861 0
M  V30 8812 H 862.191 -0.897689 -0.304728 0
M  V30 8813 H 861.897 -3.09275 -1.67456 0
M  V30 8814 H 861.771 -2.11281 -3.12474 0
M  V30 8815 H 864.158 -1.22359 -2.68537 0
M  V30 8816 H 864.239 -2.23838 -1.23815 0
M  V30 8817 H 863.883 -4.30522 -2.69468 0
M  V30 8818 H 863.813 -3.25996 -4.13563 0
M  V30 8819 H 866.304 -2.64299 -2.701 0
M  V30 8820 H 866.617 -5.83408 -5.06809 0
M  V30 8821 H 864.962 -5.24219 -4.56311 0
M  V30 8822 H 868.153 -3.33353 -3.28623 0
M  V30 8823 H 868.326 -4.78854 -4.36581 0
M  V30 8824 N 861.732 1.21287 -1.00634 0
M  V30 8825 C 862.68 2.25733 -0.561026 0
M  V30 8826 C 863.674 1.64728 0.395095 0
M  V30 8827 O 864.88 1.78022 0.266141 0
M  V30 8828 H 861.255 0.734104 -0.163081 0
M  V30 8829 H 863.226 2.60631 -1.45307 0
M  V30 8830 C 861.975 3.47569 0.0952587 0
M  V30 8831 H 861.298 3.94782 -0.631427 0
M  V30 8832 H 862.738 4.22382 0.370105 0
M  V30 8833 C 861.197 3.09326 1.33488 0
M  V30 8834 O 861.727 3.19933 2.42912 0
M  V30 8835 N 859.933 2.63976 1.21512 0
M  V30 8836 H 859.48 2.55545 0.324741 0
M  V30 8837 H 859.438 2.38757 2.04555 0
M  V30 8838 N 863.21 0.781244 1.36873 0
M  V30 8839 C 864.142 0.132075 2.28819 0
M  V30 8840 C 865.155 -0.653925 1.49089 0
M  V30 8841 O 866.344 -0.490453 1.7163 0
M  V30 8842 C 863.444 -0.836297 3.28419 0
M  V30 8843 C 862.617 -0.102097 4.37281 0
M  V30 8844 C 861.676 -0.985217 5.16894 0
M  V30 8845 O 860.702 -0.445478 5.67454 0
M  V30 8846 N 861.904 -2.31043 5.3254 0
M  V30 8847 H 864.669 0.921838 2.85171 0
M  V30 8848 H 862.23 0.634427 1.48952 0
M  V30 8849 H 864.222 -1.43074 3.78566 0
M  V30 8850 H 862.792 -1.52698 2.72767 0
M  V30 8851 H 862.012 0.67335 3.88407 0
M  V30 8852 H 863.3 0.404862 5.07187 0
M  V30 8853 H 862.698 -2.77318 4.93063 0
M  V30 8854 H 861.255 -2.85472 5.8596 0
M  V30 8855 N 864.689 -1.48329 0.532571 0
M  V30 8856 C 865.914 -2.074 0.00147755 0
M  V30 8857 C 866.339 -1.38615 -1.27151 0
M  V30 8858 O 865.697 -0.452949 -1.75551 0
M  V30 8859 C 865.745 -3.60029 -0.202866 0
M  V30 8860 O 864.849 -3.92327 -1.27097 0
M  V30 8861 H 864.19 -0.662777 0.0402883 0
M  V30 8862 H 866.72 -1.90701 0.741224 0
M  V30 8863 H 866.73 -4.05783 -0.424722 0
M  V30 8864 H 865.405 -4.09496 0.727033 0
M  V30 8865 H 863.982 -3.58348 -1.03156 0
M  V30 8866 N 866.167 -0.267825 -1.55308 0
M  V30 8867 C 867.583 0.0865107 -1.59365 0
M  V30 8868 C 867.783 1.55205 -1.28505 0
M  V30 8869 O 866.839 2.29978 -1.04241 0
M  V30 8870 C 868.152 -0.28155 -2.99379 0
M  V30 8871 C 869.7 -0.227565 -3.12172 0
M  V30 8872 C 870.175 -0.569959 -4.5444 0
M  V30 8873 N 871.666 -0.521238 -4.60258 0
M  V30 8874 C 872.401 -0.759061 -5.68354 0
M  V30 8875 N 871.897 -1.06112 -6.84626 0
M  V30 8876 N 873.69 -0.688351 -5.57869 0
M  V30 8877 H 865.841 -1.22332 -1.73633 0
M  V30 8878 H 868.104 -0.493703 -0.809297 0
M  V30 8879 H 867.81 -1.3005 -3.26772 0
M  V30 8880 H 867.684 0.381192 -3.75269 0
M  V30 8881 H 870.071 0.782093 -2.84548 0
M  V30 8882 H 870.152 -0.924461 -2.38511 0
M  V30 8883 H 869.796 -1.57727 -4.82788 0
M  V30 8884 H 869.726 0.148646 -5.2639 0
M  V30 8885 H 872.217 -0.297359 -3.76728 0
M  V30 8886 H 872.53 -1.22945 -7.62958 0
M  V30 8887 H 870.875 -1.09881 -6.86259 0
M  V30 8888 H 874.066 -0.452268 -4.6591 0
M  V30 8889 H 874.239 -0.877081 -6.42037 0
M  V30 8890 N 867.645 1.57599 0.00500368 0
M  V30 8891 C 868.575 2.11143 0.99705 0
M  V30 8892 C 869.556 1.0194 1.3617 0
M  V30 8893 O 870.741 1.29596 1.44632 0
M  V30 8894 C 867.871 2.61062 2.2905 0
M  V30 8895 C 866.825 3.74745 2.0676 0
M  V30 8896 C 866.151 4.10961 3.42075 0
M  V30 8897 C 867.451 5.02222 1.43424 0
M  V30 8898 H 869.145 2.94281 0.551251 0
M  V30 8899 H 866.691 1.41565 0.263715 0
M  V30 8900 H 868.644 2.97146 2.98801 0
M  V30 8901 H 867.368 1.75038 2.75734 0
M  V30 8902 H 866.027 3.39047 1.39436 0
M  V30 8903 H 865.675 3.21968 3.86453 0
M  V30 8904 H 865.375 4.87549 3.27979 0
M  V30 8905 H 866.899 4.49599 4.1315 0
M  V30 8906 H 868.313 5.36109 2.03125 0
M  V30 8907 H 866.71 5.83581 1.39831 0
M  V30 8908 H 867.78 4.83224 0.40285 0
M  V30 8909 N 869.123 -0.277682 1.55134 0
M  V30 8910 C 870.07 -1.34313 1.87693 0
M  V30 8911 C 871.04 -1.49298 0.727973 0
M  V30 8912 O 872.225 -1.6378 0.978807 0
M  V30 8913 C 869.365 -2.69922 2.15026 0
M  V30 8914 C 868.478 -2.63197 3.42565 0
M  V30 8915 C 867.613 -3.90955 3.59622 0
M  V30 8916 C 866.652 -3.78722 4.8087 0
M  V30 8917 N 865.789 -4.98303 4.94609 0
M  V30 8918 H 870.629 -1.05847 2.78569 0
M  V30 8919 H 868.166 -0.511469 1.37922 0
M  V30 8920 H 870.124 -3.48817 2.28872 0
M  V30 8921 H 868.754 -2.966 1.2739 0
M  V30 8922 H 867.806 -1.76038 3.37216 0
M  V30 8923 H 869.118 -2.50056 4.31594 0
M  V30 8924 H 868.272 -4.78291 3.7326 0
M  V30 8925 H 867.011 -4.06957 2.6877 0
M  V30 8926 H 866.016 -2.89769 4.67241 0
M  V30 8927 H 867.241 -3.64242 5.73153 0
M  V30 8928 H 865.187 -5.14725 4.06687 0
M  V30 8929 H 865.104 -4.87675 5.77676 0
M  V30 8930 H 866.372 -5.87225 5.12628 0
M  V30 8931 N 870.601 -1.47988 -0.541979 0
M  V30 8932 C 871.564 -1.61148 -1.62984 0
M  V30 8933 C 872.564 -0.48553 -1.53295 0
M  V30 8934 O 873.754 -0.751012 -1.5718 0
M  V30 8935 C 870.886 -1.57038 -3.02576 0
M  V30 8936 H 872.079 -2.58138 -1.52659 0
M  V30 8937 H 869.632 -1.36405 -0.763106 0
M  V30 8938 H 870.367 -0.614807 -3.18419 0
M  V30 8939 H 870.152 -2.38769 -3.11018 0
M  V30 8940 H 871.642 -1.69416 -3.81691 0
M  V30 8941 N 872.079 0.78992 -1.36375 0
M  V30 8942 C 872.989 1.93386 -1.32812 0
M  V30 8943 C 874.005 1.72468 -0.230377 0
M  V30 8944 O 875.181 1.96014 -0.462657 0
M  V30 8945 C 872.246 3.2824 -1.11621 0
M  V30 8946 C 871.307 3.61939 -2.30865 0
M  V30 8947 C 870.54 4.90359 -2.10675 0
M  V30 8948 O 870.763 5.6005 -1.08168 0
M  V30 8949 O 869.697 5.22702 -2.9844 0
M  V30 8950 H 873.523 1.99342 -2.29121 0
M  V30 8951 H 871.108 0.9301 -1.16917 0
M  V30 8952 H 872.99 4.08939 -1.01719 0
M  V30 8953 H 871.665 3.23178 -0.183732 0
M  V30 8954 H 870.572 2.81549 -2.46335 0
M  V30 8955 H 871.905 3.71725 -3.22617 0
M  V30 8956 N 873.557 1.20646 1.01402 0
M  V30 8957 C 874.487 0.98155 2.11867 0
M  V30 8958 C 875.468 -0.0903712 1.6986 0
M  V30 8959 O 876.653 0.0676586 1.94082 0
M  V30 8960 C 873.783 0.535636 3.43145 0
M  V30 8961 C 872.737 1.55109 3.98905 0
M  V30 8962 C 872.063 0.961725 5.2598 0
M  V30 8963 C 873.363 2.93552 4.32001 0
M  V30 8964 H 875.057 1.90544 2.3094 0
M  V30 8965 H 872.603 0.917554 1.10982 0
M  V30 8966 H 874.556 0.365512 4.19812 0
M  V30 8967 H 873.28 -0.423882 3.23838 0
M  V30 8968 H 871.939 1.70862 3.24348 0
M  V30 8969 H 871.587 -0.00580108 5.03 0
M  V30 8970 H 871.287 1.63993 5.64252 0
M  V30 8971 H 872.811 0.802726 6.053 0
M  V30 8972 H 874.225 2.81295 4.99546 0
M  V30 8973 H 872.622 3.58303 4.81393 0
M  V30 8974 H 873.692 3.4508 3.40658 0
M  V30 8975 N 875.035 -1.20752 1.01276 0
M  V30 8976 C 876.26 -1.94547 0.718769 0
M  V30 8977 C 876.685 -1.7404 -0.713563 0
M  V30 8978 O 876.043 -1.03221 -1.49047 0
M  V30 8979 C 876.091 -3.44823 1.05497 0
M  V30 8980 O 875.195 -4.12072 0.164516 0
M  V30 8981 H 874.536 -0.607931 0.267051 0
M  V30 8982 H 877.066 -1.53292 1.35509 0
M  V30 8983 H 877.076 -3.95427 1.00507 0
M  V30 8984 H 875.751 -3.59072 2.09858 0
M  V30 8985 H 874.328 -3.71909 0.271615 0
M  V30 8986 N 876.513 -0.788492 -1.36457 0
M  V30 8987 C 877.79 -0.284484 -1.9352 0
M  V30 8988 C 878.17 1.2232 -1.7205 0
M  V30 8989 O 877.518 2.01424 -1.07892 0
M  V30 8990 C 877.728 -0.676106 -3.42388 0
M  V30 8991 C 879.076 -0.655327 -4.19512 0
M  V30 8992 O 880.1 -0.616523 -3.50824 0
M  V30 8993 O 878.959 -0.697391 -5.42032 0
M  V30 8994 H 876.053 -0.0701769 -0.824017 0
M  V30 8995 H 878.599 -0.870974 -1.45644 0
M  V30 8996 H 877.371 -1.71596 -3.51668 0
M  V30 8997 H 876.994 -0.0634517 -3.97549 0
M  V30 8998 N 877.991 1.48044 -0.54043 0
M  V30 8999 C 879.216 2.07396 -0.0124765 0
M  V30 9000 C 879.641 1.39288 1.26414 0
M  V30 9001 O 878.999 0.462252 1.75308 0
M  V30 9002 C 879.047 3.60131 0.18377 0
M  V30 9003 O 878.151 3.92995 1.25014 0
M  V30 9004 H 877.492 0.662554 -0.0438026 0
M  V30 9005 H 880.022 1.90306 -0.751327 0
M  V30 9006 H 880.032 4.06003 0.403197 0
M  V30 9007 H 878.707 4.09105 -0.74874 0
M  V30 9008 H 877.284 3.5889 1.01254 0
M  V30 9009 N 879.47 0.276058 1.55163 0
M  V30 9010 C 880.38 -0.621066 2.2623 0
M  V30 9011 C 881.396 -1.16931 1.28853 0
M  V30 9012 O 882.572 -1.1994 1.61791 0
M  V30 9013 C 879.637 -1.78824 2.97023 0
M  V30 9014 C 878.698 -1.27657 4.09881 0
M  V30 9015 C 877.931 -2.38812 4.77289 0
M  V30 9016 O 878.154 -3.58188 4.43912 0
M  V30 9017 O 877.088 -2.06915 5.65217 0
M  V30 9018 H 880.914 -0.0453346 3.03666 0
M  V30 9019 H 878.499 0.0434275 1.49337 0
M  V30 9020 H 880.381 -2.46877 3.41511 0
M  V30 9021 H 879.056 -2.35104 2.22503 0
M  V30 9022 H 877.963 -0.56248 3.69847 0
M  V30 9023 H 879.296 -0.759509 4.86305 0
M  V30 9024 N 880.948 -1.576 0.00335426 0
M  V30 9025 C 881.911 -2.07576 -0.971838 0
M  V30 9026 C 882.911 -0.985796 -1.27038 0
M  V30 9027 O 884.101 -1.24833 -1.21501 0
M  V30 9028 C 881.233 -2.52003 -2.29581 0
M  V30 9029 H 882.426 -2.95008 -0.539481 0
M  V30 9030 H 879.979 -1.54381 -0.244186 0
M  V30 9031 H 880.714 -1.67825 -2.77498 0
M  V30 9032 H 880.499 -3.31609 -2.09231 0
M  V30 9033 H 881.989 -2.90983 -2.99531 0
M  V30 9034 N 882.426 0.269451 -1.5528 0
M  V30 9035 C 883.651 1.02299 -1.80415 0
M  V30 9036 C 884.076 1.7902 -0.577363 0
M  V30 9037 O 883.434 1.75018 0.473125 0
M  V30 9038 C 883.482 1.95445 -3.0304 0
M  V30 9039 O 882.586 3.04271 -2.78375 0
M  V30 9040 H 881.927 0.292289 -0.596207 0
M  V30 9041 H 884.457 0.297282 -2.02429 0
M  V30 9042 H 884.467 2.37333 -3.31869 0
M  V30 9043 H 883.142 1.39017 -3.91978 0
M  V30 9044 H 881.719 2.66673 -2.60653 0
M  V30 9045 N 883.904 1.48273 0.534124 0
M  V30 9046 C 884.867 1.6201 1.62127 0
M  V30 9047 C 885.867 0.493653 1.53035 0
M  V30 9048 O 887.057 0.759337 1.56779 0
M  V30 9049 C 884.189 1.5864 3.01739 0
M  V30 9050 H 885.382 2.58944 1.51288 0
M  V30 9051 H 882.935 1.36808 0.755861 0
M  V30 9052 H 883.67 0.631685 3.18088 0
M  V30 9053 H 883.455 2.40415 3.09747 0
M  V30 9054 H 884.945 1.71438 3.80787 0
M  V30 9055 N 885.382 -0.782676 1.36792 0
M  V30 9056 C 886.798 -1.08169 1.17352 0
M  V30 9057 C 886.998 -2.015 0.0022037 0
M  V30 9058 O 886.054 -2.43692 -0.661093 0
M  V30 9059 C 887.367 -1.68969 2.48737 0
M  V30 9060 C 888.915 -1.81278 2.55161 0
M  V30 9061 C 889.39 -2.45492 3.86649 0
M  V30 9062 N 890.881 -2.52954 3.88032 0
M  V30 9063 C 891.616 -3.03465 4.86515 0
M  V30 9064 N 891.112 -3.54232 5.95392 0
M  V30 9065 N 892.905 -3.02239 4.73928 0
M  V30 9066 H 885.056 -0.162757 2.11775 0
M  V30 9067 H 887.319 -0.134823 0.938364 0
M  V30 9068 H 887.025 -1.07859 3.34753 0
M  V30 9069 H 886.899 -2.68397 2.65034 0
M  V30 9070 H 889.286 -2.41524 1.69559 0
M  V30 9071 H 889.367 -0.806367 2.42758 0
M  V30 9072 H 889.011 -1.85889 4.7266 0
M  V30 9073 H 888.941 -3.46718 3.96351 0
M  V30 9074 H 891.432 -2.17014 3.09376 0
M  V30 9075 H 891.745 -3.91145 6.66503 0
M  V30 9076 H 890.09 -3.52366 5.99052 0
M  V30 9077 H 893.281 -2.61871 3.87996 0
M  V30 9078 H 893.454 -3.41295 5.50837 0
M  V30 9079 N 886.86 -1.21182 -1.00761 0
M  V30 9080 C 887.807 -0.968741 -2.09485 0
M  V30 9081 C 888.777 0.104325 -1.65772 0
M  V30 9082 O 889.962 -0.0422587 -1.90753 0
M  V30 9083 C 887.102 -0.536686 -3.40901 0
M  V30 9084 C 886.215 -1.6789 -3.98041 0
M  V30 9085 C 885.35 -1.19627 -5.17555 0
M  V30 9086 C 884.389 -2.31099 -5.66798 0
M  V30 9087 N 883.526 -1.83988 -6.77564 0
M  V30 9088 H 888.366 -1.89952 -2.29613 0
M  V30 9089 H 885.903 -0.946688 -1.12589 0
M  V30 9090 H 887.861 -0.26745 -4.16342 0
M  V30 9091 H 886.491 0.357092 -3.20819 0
M  V30 9092 H 885.543 -2.06284 -3.19611 0
M  V30 9093 H 886.855 -2.51794 -4.30582 0
M  V30 9094 H 886.009 -0.883539 -6.00232 0
M  V30 9095 H 884.748 -0.327244 -4.86601 0
M  V30 9096 H 883.753 -2.63178 -4.82719 0
M  V30 9097 H 884.978 -3.18493 -5.99782 0
M  V30 9098 H 882.924 -0.994257 -6.48422 0
M  V30 9099 H 882.841 -2.61466 -7.09346 0
M  V30 9100 H 884.109 -1.55741 -7.63783 0
M  V30 9101 N 888.338 1.20213 -1.01915 0
M  V30 9102 C 889.285 2.2309 -0.591571 0
M  V30 9103 C 890.255 1.61465 0.389649 0
M  V30 9104 O 891.44 1.88606 0.288511 0
M  V30 9105 C 888.58 3.45045 0.0614028 0
M  V30 9106 C 887.693 4.21091 -0.964688 0
M  V30 9107 C 886.828 5.30448 -0.282499 0
M  V30 9108 C 885.867 5.98241 -1.29517 0
M  V30 9109 N 885.004 6.99182 -0.639472 0
M  V30 9110 H 889.844 2.59023 -1.47347 0
M  V30 9111 H 887.381 1.27274 -0.737547 0
M  V30 9112 H 889.339 4.14688 0.45714 0
M  V30 9113 H 887.969 3.09797 0.906937 0
M  V30 9114 H 887.021 3.50489 -1.47857 0
M  V30 9115 H 888.333 4.67662 -1.73475 0
M  V30 9116 H 887.487 6.06466 0.168603 0
M  V30 9117 H 886.226 4.84922 0.519843 0
M  V30 9118 H 885.231 5.20982 -1.75663 0
M  V30 9119 H 886.456 6.45853 -2.09884 0
M  V30 9120 H 884.402 6.55844 0.142955 0
M  V30 9121 H 884.319 7.43893 -1.34756 0
M  V30 9122 H 885.587 7.79212 -0.212047 0
M  V30 9123 N 889.816 0.795718 1.36037 0
M  V30 9124 C 890.764 0.18649 2.31851 0
M  V30 9125 C 891.758 -0.657704 1.56111 0
M  V30 9126 O 892.964 -0.552083 1.71324 0
M  V30 9127 H 889.339 0.0415363 0.750852 0
M  V30 9128 H 891.31 1.00992 2.8079 0
M  V30 9129 C 890.059 -0.65918 3.41394 0
M  V30 9130 H 889.382 -0.01894 3.99796 0
M  V30 9131 H 890.822 -1.05202 4.10741 0
M  V30 9132 C 889.281 -1.82011 2.83502 0
M  V30 9133 O 889.811 -2.91703 2.76174 0
M  V30 9134 N 888.017 -1.62821 2.40703 0
M  V30 9135 H 887.564 -0.735965 2.46863 0
M  V30 9136 H 887.522 -2.40657 2.02316 0
M  V30 9137 N 891.294 -1.47756 0.548274 0
M  V30 9138 C 892.224 -2.32702 -0.19284 0
M  V30 9139 C 893.205 -1.43237 -0.917457 0
M  V30 9140 O 894.39 -1.72103 -0.89967 0
M  V30 9141 C 891.52 -3.24831 -1.22891 0
M  V30 9142 C 890.474 -4.23466 -0.621312 0
M  V30 9143 C 889.8 -5.04856 -1.76137 0
M  V30 9144 C 891.1 -5.20616 0.419055 0
M  V30 9145 H 892.794 -2.94914 0.516323 0
M  V30 9146 H 890.34 -1.41818 0.24975 0
M  V30 9147 H 892.293 -3.83094 -1.75547 0
M  V30 9148 H 891.017 -2.60656 -1.9679 0
M  V30 9149 H 889.676 -3.66416 -0.116123 0
M  V30 9150 H 889.324 -4.37091 -2.48918 0
M  V30 9151 H 889.024 -5.71629 -1.36065 0
M  V30 9152 H 890.548 -5.65976 -2.29136 0
M  V30 9153 H 891.962 -5.73296 -0.0211034 0
M  V30 9154 H 890.359 -5.95543 0.738163 0
M  V30 9155 H 891.429 -4.66638 1.31822 0
M  V30 9156 N 892.772 -0.284283 -1.55015 0
M  V30 9157 C 893.997 0.335799 -2.04664 0
M  V30 9158 C 894.422 1.47999 -1.16094 0
M  V30 9159 O 893.78 1.8058 -0.161454 0
M  V30 9160 C 893.828 0.785615 -3.51938 0
M  V30 9161 O 892.932 1.89202 -3.66437 0
M  V30 9162 H 892.273 0.0680233 -0.660506 0
M  V30 9163 H 894.803 -0.421255 -2.00216 0
M  V30 9164 H 894.813 1.07892 -3.93476 0
M  V30 9165 H 893.488 -0.0514675 -4.15868 0
M  V30 9166 H 892.065 1.60055 -3.36804 0
M  V30 9167 N 894.251 1.57596 -0.0117121 0
M  V30 9168 C 895.499 1.90694 0.669342 0
M  V30 9169 C 895.82 0.886999 1.73659 0
M  V30 9170 O 895.09 -0.0739779 1.9576 0
M  V30 9171 H 893.67 0.703846 0.250219 0
M  V30 9172 H 896.332 1.94821 -0.0554057 0
M  V30 9173 H 895.428 2.90802 1.13316 0
M  V30 9174 N 895.729 -0.261212 1.5542 0
M  V30 9175 C 896.976 -0.99123 1.76581 0
M  V30 9176 C 897.304 -1.85854 0.573457 0
M  V30 9177 O 896.559 -1.90604 -0.443705 0
M  V30 9178 C 896.858 -1.89395 3.03091 0
M  V30 9179 C 896.524 -1.18318 4.351 0
M  V30 9180 C 895.186 -0.986688 4.70975 0
M  V30 9181 C 897.538 -0.678299 5.16767 0
M  V30 9182 C 894.866 -0.272788 5.86065 0
M  V30 9183 C 897.218 0.0220646 6.32596 0
M  V30 9184 C 895.882 0.230161 6.67103 0
M  V30 9185 H 895.152 -0.362717 0.646156 0
M  V30 9186 H 897.799 -0.262506 1.89692 0
M  V30 9187 H 896.104 -2.68927 2.8493 0
M  V30 9188 H 897.801 -2.46022 3.16661 0
M  V30 9189 H 894.391 -1.34625 4.06908 0
M  V30 9190 H 898.575 -0.817691 4.89518 0
M  V30 9191 H 893.831 -0.10095 6.11317 0
M  V30 9192 H 898.005 0.420981 6.95126 0
M  V30 9193 H 895.632 0.785312 7.56133 0
M  V30 9194 N 897.207 -1.48554 -0.526253 0
M  V30 9195 C 898.432 -1.60686 -1.31129 0
M  V30 9196 C 898.857 -0.268701 -1.86171 0
M  V30 9197 O 898.215 0.760167 -1.64594 0
M  V30 9198 C 898.263 -2.65938 -2.43536 0
M  V30 9199 O 897.367 -2.23356 -3.46678 0
M  V30 9200 H 896.708 -0.538691 -0.388211 0
M  V30 9201 H 899.238 -1.94567 -0.632826 0
M  V30 9202 H 899.248 -2.87327 -2.89668 0
M  V30 9203 H 897.923 -3.63085 -2.02835 0
M  V30 9204 H 896.5 -2.12196 -3.06639 0
M  V30 9205 N 898.685 0.775411 -1.37205 0
M  V30 9206 C 900.096 1.35147 -1.28811 0
M  V30 9207 C 900.447 1.96089 0.0659168 0
M  V30 9208 O 899.572 1.93558 0.967684 0
M  V30 9209 C 900.167 2.45715 -2.33258 0
M  V30 9210 C 898.726 2.99099 -2.2851 0
M  V30 9211 C 897.873 1.72286 -2.17285 0
M  V30 9212 H 900.824 0.575954 -1.4788 0
M  V30 9213 H 900.845 3.251 -1.97712 0
M  V30 9214 H 900.357 2.01331 -3.31795 0
M  V30 9215 H 898.458 3.47868 -1.33485 0
M  V30 9216 H 898.571 3.54962 -3.21774 0
M  V30 9217 H 896.935 1.95068 -1.6377 0
M  V30 9218 H 897.718 1.3001 -3.1773 0
M  V30 9219 N 900.163 1.21714 1.00117 0
M  V30 9220 C 901.579 0.97532 1.26332 0
M  V30 9221 C 901.779 -0.336029 1.98678 0
M  V30 9222 O 900.835 -1.06073 2.29139 0
M  V30 9223 C 902.148 2.16848 2.0832 0
M  V30 9224 C 903.696 2.21115 2.21533 0
M  V30 9225 C 904.171 3.3996 3.06906 0
M  V30 9226 N 905.662 3.40071 3.14494 0
M  V30 9227 C 906.397 4.28678 3.80818 0
M  V30 9228 N 905.893 5.2749 4.49139 0
M  V30 9229 N 907.686 4.16476 3.77497 0
M  V30 9230 H 899.837 2.06039 0.515897 0
M  V30 9231 H 902.1 0.902423 0.290408 0
M  V30 9232 H 901.806 3.119 1.62515 0
M  V30 9233 H 901.68 2.16226 3.09073 0
M  V30 9234 H 904.067 1.26616 2.66557 0
M  V30 9235 H 904.148 2.2578 1.20238 0
M  V30 9236 H 903.792 4.34755 2.62585 0
M  V30 9237 H 903.722 3.32534 4.08324 0
M  V30 9238 H 906.213 2.68563 2.65861 0
M  V30 9239 H 906.526 5.91397 4.97463 0
M  V30 9240 H 904.871 5.31412 4.47914 0
M  V30 9241 H 908.062 3.38539 3.23278 0
M  V30 9242 H 908.235 4.85739 4.28908 0
M  V30 9243 N 901.641 -1.19671 1.02551 0
M  V30 9244 C 902.588 -2.22773 0.603394 0
M  V30 9245 C 903.558 -1.61669 -0.381081 0
M  V30 9246 O 904.743 -1.88756 -0.278505 0
M  V30 9247 C 901.883 -3.45073 -0.0431034 0
M  V30 9248 C 900.996 -4.20574 0.987006 0
M  V30 9249 C 900.131 -5.30291 0.310626 0
M  V30 9250 C 899.17 -5.97545 1.32688 0
M  V30 9251 N 898.307 -6.98833 0.676542 0
M  V30 9252 H 903.147 -2.58238 1.48719 0
M  V30 9253 H 900.684 -1.26881 0.744286 0
M  V30 9254 H 902.642 -4.14925 -0.435141 0
M  V30 9255 H 901.272 -3.10274 -0.890495 0
M  V30 9256 H 900.324 -3.497 1.49713 0
M  V30 9257 H 901.636 -4.66736 1.75952 0
M  V30 9258 H 900.79 -6.06547 -0.136438 0
M  V30 9259 H 899.529 -4.8519 -0.49412 0
M  V30 9260 H 898.534 -5.20043 1.78424 0
M  V30 9261 H 899.759 -6.4473 2.13306 0
M  V30 9262 H 897.705 -6.55911 -0.108172 0
M  V30 9263 H 897.622 -7.43168 1.38699 0
M  V30 9264 H 898.89 -7.79088 0.253367 0
M  V30 9265 N 903.119 -0.802921 -1.35613 0
M  V30 9266 C 904.066 -0.20874 -2.29854 0
M  V30 9267 C 905.036 0.655128 -1.52634 0
M  V30 9268 O 906.221 0.600979 -1.81088 0
M  V30 9269 C 903.361 0.639663 -3.3912 0
M  V30 9270 C 902.474 -0.244234 -4.31309 0
M  V30 9271 C 901.609 0.611825 -5.27665 0
M  V30 9272 C 900.648 -0.272698 -6.11492 0
M  V30 9273 N 899.785 0.543122 -6.99996 0
M  V30 9274 H 904.625 -1.01782 -2.80079 0
M  V30 9275 H 902.162 -0.513465 -1.37848 0
M  V30 9276 H 904.12 1.14668 -4.01132 0
M  V30 9277 H 902.75 1.41404 -2.9018 0
M  V30 9278 H 901.802 -0.869322 -3.70334 0
M  V30 9279 H 903.114 -0.925202 -4.90144 0
M  V30 9280 H 902.268 1.18412 -5.95032 0
M  V30 9281 H 901.007 1.32637 -4.69317 0
M  V30 9282 H 900.012 -0.857287 -5.43075 0
M  V30 9283 H 901.237 -0.985051 -6.71918 0
M  V30 9284 H 899.183 1.24171 -6.44141 0
M  V30 9285 H 899.1 -0.0798767 -7.55958 0
M  V30 9286 H 900.368 1.09881 -7.71717 0
M  V30 9287 N 904.597 1.47463 -0.556102 0
M  V30 9288 C 906.008 1.86298 -0.122429 0
M  V30 9289 C 906.359 1.46285 1.30749 0
M  V30 9290 O 905.484 0.865405 1.98342 0
M  V30 9291 C 906.079 3.38115 -0.215407 0
M  V30 9292 C 904.638 3.76046 0.163223 0
M  V30 9293 C 903.785 2.71515 -0.563466 0
M  V30 9294 H 906.736 1.38996 -0.765888 0
M  V30 9295 H 906.757 3.76263 0.566271 0
M  V30 9296 H 906.269 3.67207 -1.25622 0
M  V30 9297 H 904.37 3.5257 1.20519 0
M  V30 9298 H 904.483 4.78705 -0.194568 0
M  V30 9299 H 902.847 2.54699 -0.00667879 0
M  V30 9300 H 903.63 3.03449 -1.60542 0
M  V30 9301 N 906.075 0.2925 1.54862 0
M  V30 9302 C 907.491 -0.0611461 1.59483 0
M  V30 9303 C 907.691 -1.53141 1.30958 0
M  V30 9304 O 906.747 -2.28291 1.07887 0
M  V30 9305 C 908.06 0.329143 2.98893 0
M  V30 9306 C 909.608 0.2772 3.1177 0
M  V30 9307 C 910.083 0.642185 4.53475 0
M  V30 9308 N 911.574 0.594396 4.5937 0
M  V30 9309 C 912.309 0.849385 5.67074 0
M  V30 9310 N 911.805 1.1699 6.82851 0
M  V30 9311 N 913.598 0.777016 5.56704 0
M  V30 9312 H 905.749 1.25079 1.71665 0
M  V30 9313 H 908.012 0.506516 0.80134 0
M  V30 9314 H 907.718 1.35233 3.24661 0
M  V30 9315 H 907.592 -0.321442 3.75828 0
M  V30 9316 H 909.979 -0.736725 2.85756 0
M  V30 9317 H 910.06 0.962289 2.3701 0
M  V30 9318 H 909.704 1.65388 4.80218 0
M  V30 9319 H 909.634 -0.0648831 5.2656 0
M  V30 9320 H 912.125 0.357256 3.76208 0
M  V30 9321 H 912.438 1.35067 7.60905 0
M  V30 9322 H 910.783 1.20785 6.84424 0
M  V30 9323 H 913.974 0.526333 4.65132 0
M  V30 9324 H 914.147 0.979113 6.4056 0
M  V30 9325 N 907.553 -1.57587 0.0200696 0
M  V30 9326 C 908.503 -2.0616 -0.973751 0
M  V30 9327 C 909.487 -0.960282 -1.29102 0
M  V30 9328 O 910.679 -1.22391 -1.27865 0
M  V30 9329 C 907.808 -2.58487 -2.25919 0
M  V30 9330 C 906.894 -3.75533 -1.97068 0
M  V30 9331 N 907.285 -4.86482 -1.38451 0
M  V30 9332 C 905.583 -3.83847 -2.27107 0
M  V30 9333 C 906.284 -5.67773 -1.26527 0
M  V30 9334 N 905.26 -5.14398 -1.75772 0
M  V30 9335 H 909.062 -2.89346 -0.515365 0
M  V30 9336 H 906.576 -1.61341 -0.185163 0
M  V30 9337 H 908.573 -2.91572 -2.97979 0
M  V30 9338 H 907.233 -1.76728 -2.72392 0
M  V30 9339 H 908.244 -5.06922 -1.06069 0
M  V30 9340 H 904.921 -3.12978 -2.76316 0
M  V30 9341 H 906.311 -6.66966 -0.812785 0
M  V30 9342 N 909.032 0.252966 -1.55557 0
M  V30 9343 C 909.982 1.31585 -1.86197 0
M  V30 9344 C 910.966 1.43773 -0.722357 0
M  V30 9345 O 912.158 1.47117 -0.984152 0
M  V30 9346 C 909.287 2.67245 -2.15487 0
M  V30 9347 C 908.373 2.59087 -3.3576 0
M  V30 9348 N 908.764 2.20556 -4.5518 0
M  V30 9349 C 907.062 2.90112 -3.3875 0
M  V30 9350 C 907.763 2.22881 -5.37307 0
M  V30 9351 N 906.739 2.62145 -4.76215 0
M  V30 9352 H 910.541 1.00835 -2.76061 0
M  V30 9353 H 908.055 0.461598 -1.55702 0
M  V30 9354 H 910.052 3.43944 -2.35602 0
M  V30 9355 H 908.712 2.98867 -1.26919 0
M  V30 9356 H 909.723 1.922 -4.80915 0
M  V30 9357 H 906.4 3.26313 -2.60434 0
M  V30 9358 H 907.79 1.95482 -6.42835 0
M  V30 9359 N 910.51 1.48831 0.518367 0
M  V30 9360 C 911.758 1.57128 1.27103 0
M  V30 9361 C 912.079 0.252098 1.93364 0
M  V30 9362 O 911.349 -0.727281 1.819 0
M  V30 9363 H 909.929 0.578891 0.472116 0
M  V30 9364 H 912.591 1.85361 0.602262 0
M  V30 9365 H 911.687 2.35838 2.04418 0
M  V30 9366 N 911.988 -0.768124 1.37614 0
M  V30 9367 C 913.404 -1.06919 1.18493 0
M  V30 9368 C 913.604 -2.01486 0.0235753 0
M  V30 9369 O 912.66 -2.4438 -0.635209 0
M  V30 9370 C 913.973 -1.66321 2.50515 0
M  V30 9371 C 915.521 -1.78562 2.57069 0
M  V30 9372 C 915.996 -2.41377 3.89231 0
M  V30 9373 N 917.487 -2.48824 3.90693 0
M  V30 9374 C 918.222 -2.98288 4.89706 0
M  V30 9375 N 917.718 -3.47897 5.99115 0
M  V30 9376 N 919.511 -2.97196 4.77107 0
M  V30 9377 H 911.662 -0.140286 2.11936 0
M  V30 9378 H 913.925 -0.124863 0.939741 0
M  V30 9379 H 913.631 -1.04303 3.35878 0
M  V30 9380 H 913.505 -2.65571 2.67866 0
M  V30 9381 H 915.892 -2.39712 1.72111 0
M  V30 9382 H 915.973 -0.780574 2.43599 0
M  V30 9383 H 915.617 -1.80866 4.74605 0
M  V30 9384 H 915.547 -3.42495 4.00006 0
M  V30 9385 H 918.038 -2.1372 3.1166 0
M  V30 9386 H 918.351 -3.84053 6.70614 0
M  V30 9387 H 916.696 -3.45993 6.02755 0
M  V30 9388 H 919.887 -2.57741 3.90752 0
M  V30 9389 H 920.06 -3.35434 5.54426 0
M  V30 9390 N 913.466 -1.22244 -0.994698 0
M  V30 9391 C 914.715 -1.04005 -1.72817 0
M  V30 9392 C 915.028 0.425413 -1.90918 0
M  V30 9393 O 916.234 0.727429 -2.61574 0
M  V30 9394 C 914.69 -1.81244 -3.10932 0
M  V30 9395 C 914.298 -3.32028 -3.00768 0
M  V30 9396 C 916.042 -1.71448 -3.88337 0
M  V30 9397 C 913.949 -4.01716 -4.34026 0
M  V30 9398 H 912.879 -0.385559 -0.647966 0
M  V30 9399 H 915.53 -1.46077 -1.11058 0
M  V30 9400 H 913.912 -1.3197 -3.73363 0
M  V30 9401 H 915.086 -3.88682 -2.47513 0
M  V30 9402 H 913.401 -3.4248 -2.36846 0
M  V30 9403 H 915.998 -2.20836 -4.86965 0
M  V30 9404 H 916.341 -0.674568 -4.10798 0
M  V30 9405 H 916.874 -2.18256 -3.3258 0
M  V30 9406 H 913.613 -5.05952 -4.16765 0
M  V30 9407 H 913.133 -3.49849 -4.87202 0
M  V30 9408 H 914.812 -4.0721 -5.02782 0
M  V30 9409 N 914.944 1.19125 -1.03184 0
M  V30 9410 C 916.192 1.8851 -0.728587 0
M  V30 9411 C 916.513 1.80195 0.74531 0
M  V30 9412 O 915.783 1.21437 1.5372 0
M  V30 9413 H 914.363 0.69784 -0.266511 0
M  V30 9414 H 917.025 1.44607 -1.3067 0
M  V30 9415 H 916.121 2.9477 -1.02554 0
M  V30 9416 N 916.422 0.810101 1.35185 0
M  V30 9417 C 917.838 0.494269 1.51754 0
M  V30 9418 C 918.038 -0.983907 1.75845 0
M  V30 9419 O 917.094 -1.76882 1.80191 0
M  V30 9420 C 918.407 1.34268 2.69059 0
M  V30 9421 C 919.955 1.33848 2.82938 0
M  V30 9422 C 920.43 2.17109 4.03271 0
M  V30 9423 N 921.921 2.14664 4.10456 0
M  V30 9424 C 922.656 2.75843 5.02691 0
M  V30 9425 N 922.152 3.45962 6.00235 0
M  V30 9426 N 923.945 2.65465 4.95464 0
M  V30 9427 H 916.096 1.76736 1.17805 0
M  V30 9428 H 918.359 0.752429 0.576676 0
M  V30 9429 H 918.065 2.39183 2.57845 0
M  V30 9430 H 917.939 0.998362 3.63748 0
M  V30 9431 H 920.326 0.29716 2.936 0
M  V30 9432 H 920.407 1.72269 1.89095 0
M  V30 9433 H 920.051 3.21283 3.93369 0
M  V30 9434 H 919.981 1.76046 4.96302 0
M  V30 9435 H 922.472 1.63648 3.40628 0
M  V30 9436 H 922.785 3.89922 6.67219 0
M  V30 9437 H 921.13 3.50067 6.00398 0
M  V30 9438 H 924.321 2.1027 4.18215 0
M  V30 9439 H 924.494 3.13433 5.67154 0
M  V30 9440 N 917.9 -1.47166 0.563914 0
M  V30 9441 C 919.311 -1.86231 0.132307 0
M  V30 9442 C 919.662 -1.46976 -1.29971 0
M  V30 9443 O 918.787 -0.875911 -1.97881 0
M  V30 9444 C 919.382 -3.37996 0.233335 0
M  V30 9445 C 917.941 -3.76127 -0.143278 0
M  V30 9446 C 917.088 -2.71212 0.577857 0
M  V30 9447 H 920.039 -1.38588 0.773249 0
M  V30 9448 H 920.06 -3.76558 -0.546309 0
M  V30 9449 H 919.572 -3.66535 1.27568 0
M  V30 9450 H 917.673 -3.53205 -1.18648 0
M  V30 9451 H 917.786 -4.78595 0.219952 0
M  V30 9452 H 916.15 -2.54692 0.020186 0
M  V30 9453 H 916.933 -3.02593 1.62149 0
M  V30 9454 N 919.378 -0.300708 -1.54705 0
M  V30 9455 C 920.789 0.191995 -1.8571 0
M  V30 9456 C 921.14 1.53447 -1.22264 0
M  V30 9457 O 920.265 2.10054 -0.520226 0
M  V30 9458 C 920.86 0.355148 -3.36933 0
M  V30 9459 C 919.419 0.792071 -3.67972 0
M  V30 9460 C 918.566 -0.099756 -2.77121 0
M  V30 9461 H 921.517 -0.521729 -1.49879 0
M  V30 9462 H 921.538 1.18977 -3.61421 0
M  V30 9463 H 921.05 -0.622075 -3.83082 0
M  V30 9464 H 919.151 1.77986 -3.27341 0
M  V30 9465 H 919.264 0.611661 -4.75179 0
M  V30 9466 H 917.628 0.420909 -2.51198 0
M  V30 9467 H 918.411 -1.07333 -3.2609 0
M  V30 9468 N 920.856 1.57574 -0.0284266 0
M  V30 9469 C 921.803 2.10176 0.953658 0
M  V30 9470 C 922.773 1.00367 1.32347 0
M  V30 9471 O 923.958 1.27783 1.4169 0
M  V30 9472 C 921.098 2.63287 2.231 0
M  V30 9473 C 920.211 3.87102 1.91771 0
M  V30 9474 C 919.346 4.28609 3.13795 0
M  V30 9475 C 918.385 5.45184 2.78282 0
M  V30 9476 N 917.522 5.81851 3.92929 0
M  V30 9477 H 922.362 2.93806 0.498176 0
M  V30 9478 H 919.899 1.45222 0.234302 0
M  V30 9479 H 921.857 2.9217 2.97813 0
M  V30 9480 H 920.487 1.82489 2.66266 0
M  V30 9481 H 919.539 3.64952 1.07303 0
M  V30 9482 H 920.851 4.71892 1.61615 0
M  V30 9483 H 920.005 4.58925 3.96829 0
M  V30 9484 H 918.744 3.42585 3.47112 0
M  V30 9485 H 917.749 5.14563 1.93661 0
M  V30 9486 H 918.974 6.32907 2.46182 0
M  V30 9487 H 916.92 4.98782 4.2609 0
M  V30 9488 H 916.837 6.6128 3.66395 0
M  V30 9489 H 918.105 6.16772 4.76669 0
M  V30 9490 N 922.334 -0.244713 1.55689 0
M  V30 9491 C 923.564 -0.988508 1.81417 0
M  V30 9492 C 923.972 -1.79362 0.602143 0
M  V30 9493 O 923.315 -1.78386 -0.438639 0
M  V30 9494 C 923.377 -1.97287 3.0053 0
M  V30 9495 C 923.041 -1.35448 4.36466 0
M  V30 9496 C 924.038 -0.755874 5.14376 0
M  V30 9497 C 921.723 -1.37319 4.83165 0
M  V30 9498 C 923.717 -0.184218 6.37134 0
M  V30 9499 C 921.404 -0.797681 6.05871 0
M  V30 9500 C 922.402 -0.204224 6.82695 0
M  V30 9501 O 922.09 0.362392 8.03083 0
M  V30 9502 H 921.822 -0.296412 0.607549 0
M  V30 9503 H 924.376 -0.272185 2.03589 0
M  V30 9504 H 922.606 -2.72756 2.74119 0
M  V30 9505 H 924.295 -2.58028 3.13331 0
M  V30 9506 H 925.061 -0.733912 4.79415 0
M  V30 9507 H 920.94 -1.8245 4.23359 0
M  V30 9508 H 924.484 0.279624 6.97039 0
M  V30 9509 H 920.381 -0.816978 6.40309 0
M  V30 9510 H 921.149 0.254467 8.18104 0
M  V30 9511 N 923.813 -1.49104 -0.510467 0
M  V30 9512 C 925.229 -1.35657 -0.840797 0
M  V30 9513 C 925.429 -0.382425 -1.97838 0
M  V30 9514 O 924.485 0.189331 -2.51789 0
M  V30 9515 C 925.798 -2.76155 -1.18992 0
M  V30 9516 C 927.346 -2.84786 -1.29868 0
M  V30 9517 C 927.821 -4.2603 -1.68115 0
M  V30 9518 N 929.312 -4.28796 -1.75181 0
M  V30 9519 C 930.047 -5.35041 -2.062 0
M  V30 9520 N 929.543 -6.51543 -2.35508 0
M  V30 9521 N 931.336 -5.2245 -2.07371 0
M  V30 9522 H 923.487 -2.11042 0.23982 0
M  V30 9523 H 925.75 -0.946946 0.0446824 0
M  V30 9524 H 925.456 -3.49092 -0.427484 0
M  V30 9525 H 925.33 -3.10922 -2.13558 0
M  V30 9526 H 927.717 -2.12092 -2.05186 0
M  V30 9527 H 927.798 -2.53613 -0.333758 0
M  V30 9528 H 927.442 -4.99247 -0.933512 0
M  V30 9529 H 927.372 -4.5466 -2.65691 0
M  V30 9530 H 929.863 -3.44771 -1.5473 0
M  V30 9531 H 930.176 -7.28342 -2.58337 0
M  V30 9532 H 928.521 -6.54785 -2.32985 0
M  V30 9533 H 931.712 -4.30444 -1.83945 0
M  V30 9534 H 931.885 -6.05347 -2.31212 0
M  V30 9535 N 925.291 0.760815 -1.38019 0
M  V30 9536 C 926.238 1.8744 -1.34666 0
M  V30 9537 C 927.208 1.64762 -0.210386 0
M  V30 9538 O 928.393 1.86528 -0.401479 0
M  V30 9539 C 925.533 3.24648 -1.17037 0
M  V30 9540 C 924.646 3.59206 -2.3999 0
M  V30 9541 C 923.781 4.8568 -2.15148 0
M  V30 9542 C 922.82 5.13002 -3.3391 0
M  V30 9543 N 921.957 6.30668 -3.08549 0
M  V30 9544 H 926.797 1.8964 -2.29871 0
M  V30 9545 H 924.334 0.927004 -1.14215 0
M  V30 9546 H 926.292 4.03814 -1.04834 0
M  V30 9547 H 924.922 3.21793 -0.254758 0
M  V30 9548 H 923.974 2.74939 -2.62893 0
M  V30 9549 H 925.286 3.75328 -3.28527 0
M  V30 9550 H 924.44 5.72773 -2.00039 0
M  V30 9551 H 923.179 4.71682 -1.23965 0
M  V30 9552 H 922.184 4.2438 -3.49545 0
M  V30 9553 H 923.409 5.28901 -4.25958 0
M  V30 9554 H 921.355 6.18008 -2.20006 0
M  V30 9555 H 921.272 6.47257 -3.90633 0
M  V30 9556 H 922.54 7.20669 -2.9708 0
M  V30 9557 N 926.769 1.22769 0.988202 0
M  V30 9558 C 928.018 1.0492 1.72263 0
M  V30 9559 C 928.331 -0.415282 1.91141 0
M  V30 9560 O 929.537 -0.713547 2.61956 0
M  V30 9561 C 927.993 1.82891 3.09966 0
M  V30 9562 C 927.601 3.33618 2.99003 0
M  V30 9563 C 929.345 1.73505 3.87423 0
M  V30 9564 C 927.252 4.04012 4.3189 0
M  V30 9565 H 926.182 0.38899 0.645912 0
M  V30 9566 H 928.833 1.46664 1.10281 0
M  V30 9567 H 927.215 1.33948 3.72658 0
M  V30 9568 H 928.389 3.8999 2.45448 0
M  V30 9569 H 926.704 3.43732 2.35027 0
M  V30 9570 H 929.301 2.23416 4.85787 0
M  V30 9571 H 929.644 0.696344 4.10435 0
M  V30 9572 H 930.177 2.20016 3.31418 0
M  V30 9573 H 926.916 5.08155 4.14075 0
M  V30 9574 H 926.436 3.52428 4.8534 0
M  V30 9575 H 928.115 4.0987 5.00615 0
M  V30 9576 N 928.247 -1.18576 1.03814 0
M  V30 9577 C 929.658 -1.70159 0.768299 0
M  V30 9578 C 930.009 -1.8286 -0.711106 0
M  V30 9579 O 929.134 -1.5063 -1.55369 0
M  V30 9580 C 929.729 -3.09062 1.38804 0
M  V30 9581 C 928.288 -3.57866 1.16656 0
M  V30 9582 C 927.435 -2.34484 1.48029 0
M  V30 9583 H 930.386 -1.03287 1.20488 0
M  V30 9584 H 930.407 -3.72211 0.7899 0
M  V30 9585 H 929.919 -2.99785 2.46476 0
M  V30 9586 H 928.02 -3.72442 0.108471 0
M  V30 9587 H 928.133 -4.41445 1.8618 0
M  V30 9588 H 926.497 -2.38273 0.899902 0
M  V30 9589 H 927.28 -2.27829 2.56805 0
M  V30 9590 N 929.725 -0.817259 -1.34754 0
M  V30 9591 C 930.657 -0.192695 -2.28389 0
M  V30 9592 C 931.67 0.614167 -1.50771 0
M  V30 9593 O 932.859 0.444776 -1.7287 0
M  V30 9594 C 929.959 0.748929 -3.30521 0
M  V30 9595 C 929.132 -0.0138762 -4.37398 0
M  V30 9596 C 928.191 0.847825 -5.19325 0
M  V30 9597 O 927.217 0.29487 -5.68436 0
M  V30 9598 N 928.419 2.16843 -5.38479 0
M  V30 9599 H 931.184 -0.997122 -2.82626 0
M  V30 9600 H 928.745 -0.673696 -1.47217 0
M  V30 9601 H 930.737 1.32987 -3.82226 0
M  V30 9602 H 929.307 1.45412 -2.7672 0
M  V30 9603 H 928.527 -0.776093 -3.86485 0
M  V30 9604 H 929.815 -0.539191 -5.05935 0
M  V30 9605 H 929.213 2.64148 -5.00242 0
M  V30 9606 H 927.77 2.69835 -5.93323 0
M  V30 9607 N 931.203 1.46865 -0.571711 0
M  V30 9608 C 932.113 2.33979 0.170571 0
M  V30 9609 C 933.129 1.49083 0.897239 0
M  V30 9610 O 934.305 1.81979 0.862888 0
M  V30 9611 C 931.37 3.26063 1.17831 0
M  V30 9612 C 930.431 4.26855 0.457499 0
M  V30 9613 C 929.664 5.14539 1.41722 0
M  V30 9614 O 929.887 5.04945 2.65305 0
M  V30 9615 O 928.821 5.94612 0.9338 0
M  V30 9616 H 932.647 2.98781 -0.544396 0
M  V30 9617 H 930.232 1.4566 -0.332198 0
M  V30 9618 H 932.114 3.82903 1.75965 0
M  V30 9619 H 930.789 2.63871 1.87493 0
M  V30 9620 H 929.696 3.73734 -0.165406 0
M  V30 9621 H 931.029 4.91802 -0.197953 0
M  V30 9622 N 932.681 0.308908 1.54543 0
M  V30 9623 C 933.958 -0.351558 1.92415 0
M  V30 9624 C 934.338 -1.71061 1.23699 0
M  V30 9625 O 933.686 -2.25394 0.3755 0
M  V30 9626 C 933.896 -0.458357 3.45977 0
M  V30 9627 C 935.244 -0.725524 4.18355 0
M  V30 9628 O 936.268 -0.541859 3.52054 0
M  V30 9629 O 935.127 -1.07884 5.35745 0
M  V30 9630 H 932.221 -0.197957 0.802958 0
M  V30 9631 H 934.767 0.357548 1.65891 0
M  V30 9632 H 933.539 0.496723 3.88134 0
M  V30 9633 H 933.162 -1.21562 3.78561 0
M  V30 9634 N 934.159 -1.57557 0.0367827 0
M  V30 9635 C 935.406 -1.92114 -0.640185 0
M  V30 9636 C 935.734 -0.913887 -1.71693 0
M  V30 9637 O 934.989 0.0760343 -1.95552 0
M  V30 9638 C 935.288 -3.33387 -1.28794 0
M  V30 9639 C 934.954 -4.4961 -0.340819 0
M  V30 9640 C 933.616 -4.81133 -0.0801574 0
M  V30 9641 C 935.968 -5.20283 0.309106 0
M  V30 9642 C 933.296 -5.80683 0.838107 0
M  V30 9643 C 935.648 -6.20813 1.21547 0
M  V30 9644 C 934.312 -6.50773 1.48495 0
M  V30 9645 H 933.582 -0.702996 -0.23426 0
M  V30 9646 H 936.229 -1.91238 0.100188 0
M  V30 9647 H 934.534 -3.30561 -2.10324 0
M  V30 9648 H 936.231 -3.57399 -1.81843 0
M  V30 9649 H 932.821 -4.25002 -0.554161 0
M  V30 9650 H 937.005 -4.96153 0.120794 0
M  V30 9651 H 932.261 -6.02238 1.05451 0
M  V30 9652 H 936.435 -6.74692 1.72522 0
M  V30 9653 H 934.062 -7.27727 2.19814 0
M  V30 9654 N 935.637 0.236453 -1.55816 0
M  V30 9655 C 936.569 1.31602 -1.87653 0
M  V30 9656 C 937.582 1.43782 -0.763584 0
M  V30 9657 O 938.771 1.44945 -1.04178 0
M  V30 9658 C 935.871 2.69342 -2.05689 0
M  V30 9659 C 935.044 2.79298 -3.36617 0
M  V30 9660 C 934.103 3.97952 -3.44268 0
M  V30 9661 O 933.129 3.86989 -4.17406 0
M  V30 9662 N 934.331 5.11594 -2.74321 0
M  V30 9663 H 937.096 1.04623 -2.80845 0
M  V30 9664 H 934.657 0.426534 -1.5618 0
M  V30 9665 H 936.649 3.47074 -2.08138 0
M  V30 9666 H 935.219 2.88984 -1.19192 0
M  V30 9667 H 934.439 1.8816 -3.46395 0
M  V30 9668 H 935.727 2.82908 -4.22895 0
M  V30 9669 H 935.125 5.23394 -2.14651 0
M  V30 9670 H 933.682 5.87422 -2.8245 0
M  V30 9671 N 937.115 1.49373 0.502552 0
M  V30 9672 C 938.343 1.62488 1.28084 0
M  V30 9673 C 938.758 0.295667 1.86471 0
M  V30 9674 O 938.115 -0.718664 1.67754 0
M  V30 9675 C 938.166 2.69249 2.4122 0
M  V30 9676 O 937.887 3.97014 1.85234 0
M  V30 9677 C 939.388 2.93054 3.32617 0
M  V30 9678 H 936.608 0.547068 0.388533 0
M  V30 9679 H 939.152 1.95394 0.603452 0
M  V30 9680 H 937.307 2.39125 3.04792 0
M  V30 9681 H 937.721 4.55809 2.59496 0
M  V30 9682 H 939.195 3.71493 4.08285 0
M  V30 9683 H 939.672 2.02911 3.89517 0
M  V30 9684 H 940.278 3.24589 2.74813 0
M  V30 9685 N 938.594 -0.753485 1.38421 0
M  V30 9686 C 939.524 -1.8808 1.38377 0
M  V30 9687 C 940.505 -1.68258 0.249664 0
M  V30 9688 O 941.69 -1.88848 0.45276 0
M  V30 9689 C 938.82 -3.25608 1.20818 0
M  V30 9690 C 937.774 -3.60032 2.31433 0
M  V30 9691 C 937.1 -4.96297 1.9898 0
M  V30 9692 C 938.4 -3.64898 3.73694 0
M  V30 9693 H 940.094 -1.88375 2.32713 0
M  V30 9694 H 937.64 -0.90489 1.12017 0
M  V30 9695 H 939.593 -4.04127 1.19412 0
M  V30 9696 H 938.317 -3.25793 0.229433 0
M  V30 9697 H 936.976 -2.83831 2.32025 0
M  V30 9698 H 936.624 -4.93043 0.995889 0
M  V30 9699 H 936.324 -5.20298 2.73063 0
M  V30 9700 H 937.848 -5.77196 1.99193 0
M  V30 9701 H 939.262 -4.33531 3.75132 0
M  V30 9702 H 937.659 -4.00407 4.46983 0
M  V30 9703 H 938.729 -2.65124 4.06002 0
M  V30 9704 N 940.072 -1.23292 -0.981677 0
M  V30 9705 C 941.3 -1.09088 -1.75805 0
M  V30 9706 C 941.715 0.357746 -1.8538 0
M  V30 9707 O 941.072 1.24751 -1.33205 0
M  V30 9708 C 941.123 -1.70885 -3.1856 0
M  V30 9709 O 940.844 -3.10082 -3.09484 0
M  V30 9710 C 942.345 -1.62106 -4.12597 0
M  V30 9711 H 939.565 -0.38184 -0.55176 0
M  V30 9712 H 942.109 -1.63116 -1.23342 0
M  V30 9713 H 940.264 -1.20893 -3.68054 0
M  V30 9714 H 940.678 -3.40039 -3.99342 0
M  V30 9715 H 942.152 -2.10049 -5.10474 0
M  V30 9716 H 942.629 -0.579642 -4.35358 0
M  V30 9717 H 943.235 -2.11457 -3.69007 0
M  V30 9718 N 941.55 1.18024 -1.04442 0
M  V30 9719 C 942.961 1.69749 -0.777312 0
M  V30 9720 C 943.312 1.83234 0.701399 0
M  V30 9721 O 942.437 1.51452 1.54568 0
M  V30 9722 C 943.032 3.08321 -1.40441 0
M  V30 9723 C 941.591 3.57243 -1.18553 0
M  V30 9724 C 940.738 2.33695 -1.49271 0
M  V30 9725 H 943.689 1.02647 -1.21035 0
M  V30 9726 H 943.71 3.71787 -0.809628 0
M  V30 9727 H 943.222 2.98474 -2.48062 0
M  V30 9728 H 941.323 3.72379 -0.128221 0
M  V30 9729 H 941.436 4.40451 -1.88519 0
M  V30 9730 H 939.8 2.37792 -0.912526 0
M  V30 9731 H 940.583 2.26464 -2.5801 0
M  V30 9732 N 943.028 0.824394 1.34319 0
M  V30 9733 C 944.305 0.335692 1.92698 0
M  V30 9734 C 944.685 -1.17715 1.75232 0
M  V30 9735 O 944.033 -1.98493 1.13194 0
M  V30 9736 C 944.243 0.766647 3.40475 0
M  V30 9737 C 945.591 0.766323 4.17627 0
M  V30 9738 O 946.615 0.709321 3.49066 0
M  V30 9739 O 945.474 0.840856 5.39992 0
M  V30 9740 H 942.568 0.0919996 0.821867 0
M  V30 9741 H 945.114 0.909282 1.43283 0
M  V30 9742 H 943.886 1.80859 3.46995 0
M  V30 9743 H 943.509 0.168833 3.97241 0
M  V30 9744 N 944.506 -1.46559 0.579492 0
M  V30 9745 C 945.752 -2.02699 0.0639363 0
M  V30 9746 C 946.085 -1.4504 -1.29139 0
M  V30 9747 O 945.36 -0.614284 -1.84545 0
M  V30 9748 C 945.643 -3.601 -0.00528618 0
M  V30 9749 C 945.496 -4.28149 1.37871 0
M  V30 9750 C 946.815 -4.34375 -0.707537 0
M  V30 9751 H 943.934 -0.736586 0.0247085 0
M  V30 9752 H 946.576 -1.74739 0.746071 0
M  V30 9753 H 944.726 -3.84052 -0.586206 0
M  V30 9754 H 946.398 -4.1547 2.00455 0
M  V30 9755 H 944.641 -3.87636 1.94732 0
M  V30 9756 H 945.312 -5.36888 1.28278 0
M  V30 9757 H 947.788 -4.15549 -0.214064 0
M  V30 9758 H 946.664 -5.44091 -0.724992 0
M  V30 9759 H 946.925 -4.052 -1.7682 0
M  V30 9760 N 945.984 -0.3171 -1.54377 0
M  V30 9761 C 947.23 0.287836 -2.00747 0
M  V30 9762 C 947.563 1.52292 -1.20502 0
M  V30 9763 O 946.838 1.92391 -0.285626 0
M  V30 9764 C 947.121 0.628423 -3.54574 0
M  V30 9765 C 946.974 -0.616922 -4.45549 0
M  V30 9766 C 948.293 1.44862 -4.15575 0
M  V30 9767 H 945.412 0.103144 -0.729747 0
M  V30 9768 H 948.054 -0.432396 -1.85014 0
M  V30 9769 H 946.204 1.24203 -3.68111 0
M  V30 9770 H 947.876 -1.25526 -4.43893 0
M  V30 9771 H 946.119 -1.24706 -4.15489 0
M  V30 9772 H 946.79 -0.334243 -5.50987 0
M  V30 9773 H 949.266 0.930015 -4.05574 0
M  V30 9774 H 948.142 1.6557 -5.23333 0
M  V30 9775 H 948.403 2.44279 -3.68484 0
M  V30 9776 N 947.462 1.57535 -0.0451378 0
M  V30 9777 C 948.412 2.07683 0.940829 0
M  V30 9778 C 949.396 0.9807 1.27558 0
M  V30 9779 O 950.588 1.2441 1.25901 0
M  V30 9780 C 947.717 2.62049 2.21778 0
M  V30 9781 C 946.803 3.78621 1.91068 0
M  V30 9782 N 947.194 4.88623 1.30694 0
M  V30 9783 C 945.492 3.87411 2.20972 0
M  V30 9784 C 946.193 5.69714 1.17478 0
M  V30 9785 N 945.169 5.17129 1.67566 0
M  V30 9786 H 948.971 2.90129 0.469267 0
M  V30 9787 H 946.485 1.61615 0.159472 0
M  V30 9788 H 948.482 2.96276 2.93302 0
M  V30 9789 H 947.142 1.81039 2.69546 0
M  V30 9790 H 948.153 5.08545 0.979907 0
M  V30 9791 H 944.83 3.17335 2.71302 0
M  V30 9792 H 946.22 6.68174 0.706574 0
M  V30 9793 N 948.94 -0.228186 1.55939 0
M  V30 9794 C 949.872 -1.30605 1.88348 0
M  V30 9795 C 950.885 -1.43375 0.771198 0
M  V30 9796 O 952.074 -1.44391 1.04945 0
M  V30 9797 C 949.174 -2.68248 2.07115 0
M  V30 9798 C 948.347 -2.77509 3.38094 0
M  V30 9799 C 947.406 -3.96121 3.46373 0
M  V30 9800 O 946.432 -3.8477 4.19453 0
M  V30 9801 N 947.634 -5.10132 2.77031 0
M  V30 9802 H 950.399 -1.03132 2.81396 0
M  V30 9803 H 947.96 -0.418245 1.56404 0
M  V30 9804 H 949.952 -3.45966 2.09976 0
M  V30 9805 H 948.522 -2.88348 1.20723 0
M  V30 9806 H 947.742 -1.8632 3.47388 0
M  V30 9807 H 949.03 -2.80662 4.2439 0
M  V30 9808 H 948.428 -5.22249 2.17424 0
M  V30 9809 H 946.985 -5.85916 2.85561 0
M  V30 9810 N 950.418 -1.49637 -0.494624 0
M  V30 9811 C 951.643 -1.63431 -1.27691 0
M  V30 9812 C 952.068 -0.30813 -1.85559 0
M  V30 9813 O 951.426 0.725083 -1.66169 0
M  V30 9814 C 951.474 -2.71043 -2.3784 0
M  V30 9815 O 950.578 -2.3066 -3.41862 0
M  V30 9816 H 949.919 -0.546804 -0.376698 0
M  V30 9817 H 952.449 -1.95866 -0.591413 0
M  V30 9818 H 952.459 -2.93406 -2.83508 0
M  V30 9819 H 951.134 -3.67306 -1.95088 0
M  V30 9820 H 949.711 -2.18652 -3.02069 0
M  V30 9821 N 951.896 0.746133 -1.38819 0
M  V30 9822 C 952.826 1.87344 -1.39372 0
M  V30 9823 C 953.807 1.68123 -0.258583 0
M  V30 9824 O 954.992 1.88606 -0.462769 0
M  V30 9825 C 952.122 3.24962 -1.22543 0
M  V30 9826 C 951.076 3.58799 -2.33339 0
M  V30 9827 C 950.402 4.95235 -2.01609 0
M  V30 9828 C 951.702 3.62911 -3.75624 0
M  V30 9829 H 953.396 1.87138 -2.33709 0
M  V30 9830 H 950.942 0.898937 -1.12495 0
M  V30 9831 H 952.895 4.03488 -1.21554 0
M  V30 9832 H 951.619 3.25667 -0.246707 0
M  V30 9833 H 950.278 2.82596 -2.33527 0
M  V30 9834 H 949.926 4.92508 -1.02202 0
M  V30 9835 H 949.626 5.18843 -2.75819 0
M  V30 9836 H 951.15 5.76131 -2.02251 0
M  V30 9837 H 952.564 4.31535 -3.77426 0
M  V30 9838 H 950.961 3.98031 -4.491 0
M  V30 9839 H 952.031 2.62967 -4.07402 0
M  V30 9840 N 953.375 1.23811 0.975125 0
M  V30 9841 C 954.622 1.07336 1.71712 0
M  V30 9842 C 954.95 -0.388954 1.90571 0
M  V30 9843 O 954.205 -1.30409 1.45918 0
M  V30 9844 C 954.504 1.74994 3.11628 0
M  V30 9845 C 954.17 3.24918 3.12632 0
M  V30 9846 C 952.832 3.65822 3.12614 0
M  V30 9847 C 955.184 4.20797 3.07538 0
M  V30 9848 C 952.512 5.01054 3.05224 0
M  V30 9849 C 954.864 5.56027 3.0169 0
M  V30 9850 C 953.528 5.96287 2.99996 0
M  V30 9851 H 952.798 0.392771 0.62834 0
M  V30 9852 H 955.445 1.53815 1.14075 0
M  V30 9853 H 953.75 1.20889 3.72684 0
M  V30 9854 H 955.447 1.5972 3.67819 0
M  V30 9855 H 952.037 2.92359 3.13407 0
M  V30 9856 H 956.221 3.902 3.06688 0
M  V30 9857 H 951.477 5.31454 3.02268 0
M  V30 9858 H 955.651 6.3003 2.96706 0
M  V30 9859 H 953.278 7.01037 2.94025 0
M  V30 9860 N 954.853 -1.17469 1.05066 0
M  V30 9861 C 955.786 -2.2031 0.594863 0
M  V30 9862 C 956.764 -1.58196 -0.375878 0
M  V30 9863 O 957.948 -1.8629 -0.287798 0
M  V30 9864 C 955.075 -3.38452 -0.129614 0
M  V30 9865 C 954.121 -4.19007 0.795943 0
M  V30 9866 S 954.954 -4.8433 2.28441 0
M  V30 9867 C 956.11 -6.05862 1.57107 0
M  V30 9868 H 956.343 -2.58632 1.46618 0
M  V30 9869 H 953.876 -1.28063 0.862511 0
M  V30 9870 H 955.834 -4.06914 -0.541416 0
M  V30 9871 H 954.495 -2.98521 -0.976948 0
M  V30 9872 H 953.688 -5.0345 0.235396 0
M  V30 9873 H 953.29 -3.55976 1.14705 0
M  V30 9874 H 955.582 -6.71895 0.86969 0
M  V30 9875 H 956.525 -6.66442 2.39292 0
M  V30 9876 H 956.933 -5.54477 1.05903 0
M  V30 9877 N 956.331 -0.831506 -1.3388 0
M  V30 9878 C 957.556 -0.435954 -2.02766 0
M  V30 9879 C 957.981 0.952889 -1.62178 0
M  V30 9880 O 957.339 1.62166 -0.810681 0
M  V30 9881 C 957.387 -0.555907 -3.56289 0
M  V30 9882 O 956.491 0.420826 -4.10247 0
M  V30 9883 H 955.832 -0.178248 -0.639628 0
M  V30 9884 H 958.362 -1.1243 -1.70941 0
M  V30 9885 H 958.372 -0.434831 -4.05676 0
M  V30 9886 H 957.047 -1.56881 -3.85177 0
M  V30 9887 H 955.624 0.257919 -3.72007 0
M  V30 9888 N 957.809 1.4625 -0.587256 0
M  V30 9889 C 958.772 2.28812 0.133238 0
M  V30 9890 C 959.772 1.38645 0.814513 0
M  V30 9891 O 960.962 1.60975 0.665774 0
M  V30 9892 C 958.094 3.19147 1.19824 0
M  V30 9893 H 959.287 2.93991 -0.592386 0
M  V30 9894 H 956.84 1.52435 -0.345416 0
M  V30 9895 H 957.575 2.58725 1.95529 0
M  V30 9896 H 957.36 3.85541 0.71418 0
M  V30 9897 H 958.85 3.81278 1.70344 0
M  V30 9898 N 959.287 0.325282 1.54207 0
M  V30 9899 C 960.217 -0.532574 2.27345 0
M  V30 9900 C 961.198 -1.11791 1.28206 0
M  V30 9901 O 962.383 -1.14272 1.57021 0
M  V30 9902 C 959.513 -1.69274 3.03255 0
M  V30 9903 C 958.467 -1.23662 4.09746 0
M  V30 9904 C 957.793 -2.48386 4.73506 0
M  V30 9905 C 959.093 -0.350244 5.21124 0
M  V30 9906 H 960.787 0.0775108 2.993 0
M  V30 9907 H 958.333 0.0387193 1.43948 0
M  V30 9908 H 960.286 -2.29917 3.53152 0
M  V30 9909 H 959.01 -2.32944 2.28921 0
M  V30 9910 H 957.669 -0.653106 3.60735 0
M  V30 9911 H 957.317 -3.10424 3.95786 0
M  V30 9912 H 957.017 -2.18558 5.45441 0
M  V30 9913 H 958.541 -3.09789 5.26178 0
M  V30 9914 H 959.955 -0.863011 5.66767 0
M  V30 9915 H 958.352 -0.14466 5.99926 0
M  V30 9916 H 959.422 0.618457 4.8094 0
M  V30 9917 N 960.765 -1.57509 0.0534917 0
M  V30 9918 C 961.99 -1.97511 -0.632794 0
M  V30 9919 C 962.415 -0.930947 -1.63447 0
M  V30 9920 O 961.773 0.105558 -1.80992 0
M  V30 9921 C 961.821 -3.3658 -1.29407 0
M  V30 9922 O 960.925 -3.3467 -2.40977 0
M  V30 9923 H 960.266 -0.643349 -0.16431 0
M  V30 9924 H 962.796 -2.04232 0.12258 0
M  V30 9925 H 962.806 -3.73359 -1.64521 0
M  V30 9926 H 961.481 -4.12113 -0.559976 0
M  V30 9927 H 960.058 -3.09639 -2.07793 0
M  V30 9928 N 962.243 0.219913 -1.56058 0
M  V30 9929 C 963.206 1.25606 -1.91718 0
M  V30 9930 C 964.206 1.39721 -0.795912 0
M  V30 9931 O 965.396 1.37958 -1.06364 0
M  V30 9932 C 962.528 2.62961 -2.16943 0
M  V30 9933 H 963.721 0.951909 -2.84392 0
M  V30 9934 H 961.274 0.460398 -1.49365 0
M  V30 9935 H 962.009 2.98472 -1.26826 0
M  V30 9936 H 961.794 2.54093 -2.98629 0
M  V30 9937 H 963.284 3.37727 -2.45622 0
M  V30 9938 N 963.721 1.49897 0.486681 0
M  V30 9939 C 964.671 1.6401 1.58381 0
M  V30 9940 C 965.655 0.495215 1.5309 0
M  V30 9941 O 966.847 0.748876 1.60377 0
M  V30 9942 C 963.976 1.72321 2.96918 0
M  V30 9943 C 963.062 2.92435 3.07152 0
M  V30 9944 N 963.453 4.16326 2.87238 0
M  V30 9945 C 961.751 2.90669 3.38271 0
M  V30 9946 C 962.452 4.97144 3.02031 0
M  V30 9947 N 961.428 4.3079 3.31544 0
M  V30 9948 H 965.23 2.57506 1.41661 0
M  V30 9949 H 962.744 1.46867 0.693106 0
M  V30 9950 H 964.741 1.80532 3.75784 0
M  V30 9951 H 963.401 0.799724 3.14697 0
M  V30 9952 H 964.412 4.46076 2.63128 0
M  V30 9953 H 961.089 2.07758 3.62137 0
M  V30 9954 H 962.479 6.05611 2.91006 0
M  V30 9955 N 965.199 -0.738761 1.39212 0
M  V30 9956 C 966.61 -1.31684 1.32348 0
M  V30 9957 C 966.961 -1.96195 -0.0139041 0
M  V30 9958 O 966.086 -1.96056 -0.916025 0
M  V30 9959 C 966.681 -2.39444 2.39691 0
M  V30 9960 C 965.24 -2.92935 2.36359 0
M  V30 9961 C 964.387 -1.66465 2.21776 0
M  V30 9962 H 967.338 -0.536543 1.49355 0
M  V30 9963 H 967.359 -3.19744 2.06262 0
M  V30 9964 H 966.871 -1.92463 3.37016 0
M  V30 9965 H 964.972 -3.44207 1.42662 0
M  V30 9966 H 965.085 -3.46306 3.31073 0
M  V30 9967 H 963.449 -1.90657 1.68884 0
M  V30 9968 H 964.232 -1.21541 3.21065 0
M  V30 9969 N 966.677 -1.24326 -0.968545 0
M  V30 9970 C 967.954 -0.990459 -1.68669 0
M  V30 9971 C 968.334 0.487487 -2.05394 0
M  V30 9972 O 967.682 1.46158 -1.75642 0
M  V30 9973 C 967.892 -1.91251 -2.91931 0
M  V30 9974 C 969.24 -2.18291 -3.6419 0
M  V30 9975 O 970.264 -1.88897 -3.01987 0
M  V30 9976 O 969.123 -2.68204 -4.76161 0
M  V30 9977 H 966.217 -0.374515 -0.737338 0
M  V30 9978 H 968.763 -1.35421 -1.02271 0
M  V30 9979 H 967.535 -2.9111 -2.61478 0
M  V30 9980 H 967.158 -1.55188 -3.66064 0
M  V30 9981 N 968.156 1.1691 -1.05688 0
M  V30 9982 C 969.572 1.39288 -0.779167 0
M  V30 9983 C 969.772 1.91587 0.624231 0
M  V30 9984 O 968.828 2.11072 1.38582 0
M  V30 9985 C 970.141 2.37914 -1.83895 0
M  V30 9986 C 971.689 2.51611 -1.86175 0
M  V30 9987 C 972.164 3.53514 -2.9119 0
M  V30 9988 N 973.655 3.61036 -2.90184 0
M  V30 9989 C 974.39 4.39657 -3.68088 0
M  V30 9990 N 973.886 5.21752 -4.55793 0
M  V30 9991 N 975.679 4.3458 -3.56507 0
M  V30 9992 H 967.83 0.81296 -1.96226 0
M  V30 9993 H 970.093 0.419818 -0.849975 0
M  V30 9994 H 969.799 2.06568 -2.84645 0
M  V30 9995 H 969.673 3.37483 -1.68479 0
M  V30 9996 H 972.06 2.82264 -0.86087 0
M  V30 9997 H 972.141 1.52099 -2.05668 0
M  V30 9998 H 971.785 3.23599 -3.91467 0
M  V30 9999 H 971.715 4.52742 -2.68947 0
M  V30 10000 H 974.206 3.02428 -2.26596 0
M  V30 10001 H 974.519 5.78939 -5.11907 0
M  V30 10002 H 972.864 5.21116 -4.59851 0
M  V30 10003 H 976.055 3.69501 -2.87379 0
M  V30 10004 H 976.228 4.95607 -4.17466 0
M  V30 10005 N 969.634 0.838594 1.33437 0
M  V30 10006 C 970.859 0.446701 2.02532 0
M  V30 10007 C 971.284 -0.944275 1.62681 0
M  V30 10008 O 970.642 -1.61733 0.81927 0
M  V30 10009 C 970.69 0.574794 3.55989 0
M  V30 10010 O 969.794 -0.399063 4.10465 0
M  V30 10011 H 969.135 0.181637 0.638674 0
M  V30 10012 H 971.665 1.13335 1.70342 0
M  V30 10013 H 971.675 0.456339 4.0544 0
M  V30 10014 H 970.35 1.58921 3.8434 0
M  V30 10015 H 968.927 -0.238187 3.72139 0
M  V30 10016 N 971.112 -1.45937 0.595003 0
M  V30 10017 C 972.042 -2.33198 -0.11871 0
M  V30 10018 C 973.023 -1.46083 -0.871423 0
M  V30 10019 O 974.208 -1.74879 -0.844461 0
M  V30 10020 C 971.338 -3.28576 -1.12495 0
M  V30 10021 C 970.292 -4.25229 -0.486275 0
M  V30 10022 C 969.618 -5.10204 -1.59986 0
M  V30 10023 C 970.918 -5.19019 0.584473 0
M  V30 10024 H 972.612 -2.93122 0.609886 0
M  V30 10025 H 970.158 -1.40951 0.294742 0
M  V30 10026 H 972.111 -3.88485 -1.6327 0
M  V30 10027 H 970.835 -2.66784 -1.88398 0
M  V30 10028 H 969.494 -3.666 0.000507962 0
M  V30 10029 H 969.142 -4.44789 -2.34886 0
M  V30 10030 H 968.842 -5.75669 -1.1781 0
M  V30 10031 H 970.366 -5.7298 -2.11014 0
M  V30 10032 H 971.78 -5.73073 0.161297 0
M  V30 10033 H 970.177 -5.92893 0.927256 0
M  V30 10034 H 971.247 -4.62208 1.46601 0
M  V30 10035 N 972.59 -0.333456 -1.54032 0
M  V30 10036 C 973.815 0.270517 -2.05628 0
M  V30 10037 C 974.24 1.44231 -1.20744 0
M  V30 10038 O 973.598 1.79975 -0.218822 0
M  V30 10039 C 973.646 0.673251 -3.54259 0
M  V30 10040 O 972.75 1.77448 -3.72271 0
M  V30 10041 H 972.091 0.0469753 -0.662336 0
M  V30 10042 H 974.621 -0.484739 -1.98775 0
M  V30 10043 H 974.631 0.953194 -3.96709 0
M  V30 10044 H 973.306 -0.183747 -4.15494 0
M  V30 10045 H 971.883 1.49259 -3.41725 0
M  V30 10046 N 974.068 1.57479 -0.061844 0
M  V30 10047 C 975.314 1.93395 0.610443 0
M  V30 10048 C 975.647 0.941334 1.6986 0
M  V30 10049 O 974.922 -0.0310262 1.94475 0
M  V30 10050 C 975.205 3.39636 1.19664 0
M  V30 10051 C 975.058 4.49651 0.115805 0
M  V30 10052 C 976.377 3.86488 2.10512 0
M  V30 10053 H 973.496 0.703262 0.220436 0
M  V30 10054 H 976.138 1.89583 -0.125785 0
M  V30 10055 H 974.288 3.43015 1.82409 0
M  V30 10056 H 975.96 4.58397 -0.516728 0
M  V30 10057 H 974.203 4.30237 -0.55483 0
M  V30 10058 H 974.874 5.49089 0.566176 0
M  V30 10059 H 977.35 3.85052 1.57715 0
M  V30 10060 H 976.226 4.89444 2.48466 0
M  V30 10061 H 976.487 3.23856 3.00948 0
M  V30 10062 N 975.546 -0.211634 1.56173 0
M  V30 10063 C 976.786 -0.941505 1.81425 0
M  V30 10064 C 977.15 -1.8113 0.636862 0
M  V30 10065 O 978.351 -2.57568 0.768907 0
M  V30 10066 C 976.622 -1.75002 3.11623 0
M  V30 10067 S 978.181 -2.53418 3.58225 0
M  V30 10068 H 974.999 -0.316088 0.636875 0
M  V30 10069 H 977.601 -0.206244 1.94409 0
M  V30 10070 H 976.305 -1.10136 3.95346 0
M  V30 10071 H 975.836 -2.5274 3.01473 0
M  V30 10072 H 977.851 -3.77234 3.22349 0
M  V30 10073 N 977.024 -1.50153 -0.478725 0
M  V30 10074 C 978.27 -1.61968 -1.23036 0
M  V30 10075 C 978.625 -0.312529 -1.89845 0
M  V30 10076 O 977.918 0.688995 -1.78783 0
M  V30 10077 C 978.112 -2.73208 -2.30417 0
M  V30 10078 C 977.941 -4.14614 -1.74142 0
M  V30 10079 C 976.711 -4.81116 -1.54452 0
M  V30 10080 C 978.909 -4.99111 -1.24066 0
M  V30 10081 N 976.891 -6.06763 -0.933399 0
M  V30 10082 C 978.262 -6.15419 -0.752286 0
M  V30 10083 C 980.317 -4.84943 -1.12849 0
M  V30 10084 C 979.02 -7.19116 -0.162808 0
M  V30 10085 C 981.046 -5.88809 -0.552955 0
M  V30 10086 C 980.408 -7.0436 -0.0749195 0
M  V30 10087 H 976.507 -0.646894 -0.439377 0
M  V30 10088 H 979.091 -1.87244 -0.53364 0
M  V30 10089 H 977.262 -2.49667 -2.97525 0
M  V30 10090 H 978.994 -2.74423 -2.97446 0
M  V30 10091 H 975.749 -4.38282 -1.7946 0
M  V30 10092 H 976.173 -6.73906 -0.64647 0
M  V30 10093 H 980.815 -3.959 -1.48402 0
M  V30 10094 H 978.533 -8.0784 0.204943 0
M  V30 10095 H 982.119 -5.7991 -0.468633 0
M  V30 10096 H 980.999 -7.83357 0.363455 0
M  V30 10097 N 978.502 0.731368 -1.39602 0
M  V30 10098 C 979.412 1.87579 -1.40894 0
M  V30 10099 C 980.428 1.71336 -0.303319 0
M  V30 10100 O 981.604 1.93875 -0.545377 0
M  V30 10101 C 978.669 3.23211 -1.25442 0
M  V30 10102 C 977.73 3.51822 -2.46008 0
M  V30 10103 C 976.963 4.80982 -2.31284 0
M  V30 10104 O 977.186 5.54958 -1.31824 0
M  V30 10105 O 976.12 5.09574 -3.20341 0
M  V30 10106 H 979.946 1.89444 -2.3737 0
M  V30 10107 H 977.531 0.879675 -1.20756 0
M  V30 10108 H 979.413 4.04257 -1.18972 0
M  V30 10109 H 978.088 3.22108 -0.320637 0
M  V30 10110 H 976.995 2.70847 -2.58055 0
M  V30 10111 H 978.328 3.57707 -3.38093 0
M  V30 10112 N 979.98 1.24838 0.961938 0
M  V30 10113 C 980.912 1.00369 2.06055 0
M  V30 10114 C 981.925 -0.0288583 1.62774 0
M  V30 10115 O 983.114 0.208853 1.77274 0
M  V30 10116 C 980.214 0.493953 3.35281 0
M  V30 10117 C 979.387 1.59097 4.07439 0
M  V30 10118 C 978.446 1.08288 5.14937 0
M  V30 10119 O 977.472 1.77577 5.40791 0
M  V30 10120 N 978.674 -0.0796836 5.80445 0
M  V30 10121 H 981.439 1.94962 2.27618 0
M  V30 10122 H 979 1.15945 1.12997 0
M  V30 10123 H 980.992 0.138675 4.04462 0
M  V30 10124 H 979.562 -0.357851 3.10545 0
M  V30 10125 H 978.782 2.11817 3.32456 0
M  V30 10126 H 980.07 2.32817 4.52409 0
M  V30 10127 H 979.468 -0.658827 5.6185 0
M  V30 10128 H 978.025 -0.376057 6.50714 0
M  V30 10129 N 981.458 -1.16348 1.06306 0
M  V30 10130 C 982.408 -2.18717 0.643947 0
M  V30 10131 C 983.392 -1.57574 -0.325445 0
M  V30 10132 O 984.584 -1.76439 -0.140868 0
M  V30 10133 C 981.713 -3.43285 0.0320266 0
M  V30 10134 C 980.799 -4.11504 1.02592 0
M  V30 10135 N 981.19 -4.55374 2.20155 0
M  V30 10136 C 979.488 -4.37691 0.856887 0
M  V30 10137 C 980.189 -5.08149 2.83124 0
M  V30 10138 N 979.165 -5.01042 2.10851 0
M  V30 10139 H 982.967 -2.50353 1.53951 0
M  V30 10140 H 980.481 -1.328 0.934763 0
M  V30 10141 H 982.478 -4.15917 -0.286064 0
M  V30 10142 H 981.138 -3.13137 -0.858786 0
M  V30 10143 H 982.149 -4.49101 2.57931 0
M  V30 10144 H 978.826 -4.17496 0.0180742 0
M  V30 10145 H 980.216 -5.52131 3.82885 0
M  V30 10146 N 982.937 -0.845659 -1.3299 0
M  V30 10147 C 984.177 -0.450819 -1.99366 0
M  V30 10148 C 984.541 0.973297 -1.65502 0
M  V30 10149 O 985.742 1.47222 -2.24898 0
M  V30 10150 C 984.013 -0.672825 -3.5101 0
M  V30 10151 S 985.572 -0.374216 -4.37201 0
M  V30 10152 H 982.39 -0.169273 -0.690556 0
M  V30 10153 H 984.992 -1.09642 -1.61861 0
M  V30 10154 H 983.696 -1.70855 -3.73145 0
M  V30 10155 H 983.227 -0.0133185 -3.93398 0
M  V30 10156 H 985.242 0.803342 -4.89654 0
M  V30 10157 N 984.415 1.45619 -0.602734 0
M  V30 10158 C 985.362 2.30493 0.118944 0
M  V30 10159 C 986.332 1.41816 0.864723 0
M  V30 10160 O 987.517 1.7075 0.851424 0
M  V30 10161 C 984.657 3.2664 1.11356 0
M  V30 10162 C 983.77 4.3042 0.369161 0
M  V30 10163 C 982.905 5.13678 1.35307 0
M  V30 10164 C 981.944 6.09189 0.596207 0
M  V30 10165 N 981.081 6.85245 1.52916 0
M  V30 10166 H 985.921 2.91672 -0.610836 0
M  V30 10167 H 983.458 1.43731 -0.313032 0
M  V30 10168 H 985.416 3.80846 1.7033 0
M  V30 10169 H 984.046 2.67225 1.81081 0
M  V30 10170 H 983.098 3.78913 -0.335994 0
M  V30 10171 H 984.41 4.98307 -0.221603 0
M  V30 10172 H 983.564 5.7226 2.01502 0
M  V30 10173 H 982.303 4.45798 1.97777 0
M  V30 10174 H 981.308 5.49743 -0.0793984 0
M  V30 10175 H 982.533 6.79096 -0.0233734 0
M  V30 10176 H 980.479 6.20058 2.14159 0
M  V30 10177 H 980.396 7.49467 0.991713 0
M  V30 10178 H 981.664 7.48371 2.18083 0
M  V30 10179 N 985.893 0.34162 1.53853 0
M  V30 10180 C 986.823 -0.508431 2.27897 0
M  V30 10181 C 987.804 -1.10425 1.29384 0
M  V30 10182 O 988.989 -1.126 1.58224 0
M  V30 10183 C 986.119 -1.66048 3.05034 0
M  V30 10184 C 985.073 -1.19309 4.11035 0
M  V30 10185 C 984.399 -2.4335 4.76114 0
M  V30 10186 C 985.699 -0.294952 5.21467 0
M  V30 10187 H 987.393 0.109251 2.99201 0
M  V30 10188 H 984.939 0.0539847 1.43899 0
M  V30 10189 H 986.892 -2.26158 3.5557 0
M  V30 10190 H 985.616 -2.30503 2.31379 0
M  V30 10191 H 984.275 -0.614809 3.61408 0
M  V30 10192 H 983.923 -3.06208 3.99056 0
M  V30 10193 H 983.623 -2.1276 5.47729 0
M  V30 10194 H 985.147 -3.0419 5.29434 0
M  V30 10195 H 986.561 -0.80285 5.67651 0
M  V30 10196 H 984.958 -0.0810221 6.00045 0
M  V30 10197 H 986.028 0.669433 4.80257 0
M  V30 10198 N 987.371 -1.57444 0.0701946 0
M  V30 10199 C 988.301 -2.15659 -0.895176 0
M  V30 10200 C 989.282 -1.08321 -1.31151 0
M  V30 10201 O 990.467 -1.36349 -1.38284 0
M  V30 10202 C 987.597 -2.71693 -2.16334 0
M  V30 10203 C 986.551 -3.84183 -1.88645 0
M  V30 10204 C 985.877 -4.26814 -3.22078 0
M  V30 10205 C 987.177 -5.08493 -1.19299 0
M  V30 10206 H 988.871 -2.96576 -0.410217 0
M  V30 10207 H 986.417 -1.42662 -0.195872 0
M  V30 10208 H 988.37 -3.11064 -2.84284 0
M  V30 10209 H 987.094 -1.87994 -2.67069 0
M  V30 10210 H 985.753 -3.45314 -1.23101 0
M  V30 10211 H 985.401 -3.40039 -3.70651 0
M  V30 10212 H 985.101 -5.02642 -3.04344 0
M  V30 10213 H 986.625 -4.68799 -3.91228 0
M  V30 10214 H 988.039 -5.4519 -1.77316 0
M  V30 10215 H 986.436 -5.89588 -1.11828 0
M  V30 10216 H 987.506 -4.84595 -0.171839 0
M  V30 10217 N 988.849 0.203349 -1.56283 0
M  V30 10218 C 990.26 0.768764 -1.70138 0
M  V30 10219 C 990.611 1.8421 -0.675358 0
M  V30 10220 O 989.736 2.15732 0.1699 0
M  V30 10221 C 990.331 1.40123 -3.08466 0
M  V30 10222 C 988.89 1.91382 -3.24114 0
M  V30 10223 C 988.037 0.780685 -2.66084 0
M  V30 10224 H 990.988 -0.0215997 -1.58685 0
M  V30 10225 H 991.009 2.27046 -3.05336 0
M  V30 10226 H 990.521 0.619805 -3.83119 0
M  V30 10227 H 988.622 2.7227 -2.54362 0
M  V30 10228 H 988.735 2.08128 -4.31531 0
M  V30 10229 H 987.099 1.19281 -2.25042 0
M  V30 10230 H 987.882 0.0116351 -3.43298 0
M  V30 10231 N 990.327 1.50405 0.470755 0
M  V30 10232 C 991.575 1.61092 1.2204 0
M  V30 10233 C 991.896 0.313487 1.92464 0
M  V30 10234 O 991.166 -0.669043 1.84121 0
M  V30 10235 H 989.746 0.593618 0.45346 0
M  V30 10236 H 992.408 1.87184 0.542985 0
M  V30 10237 H 991.504 2.42222 1.96812 0
M  V30 10238 N 991.805 -0.723954 1.39988 0
M  V30 10239 C 993.051 -1.48591 1.38017 0
M  V30 10240 C 993.384 -1.94189 -0.0203522 0
M  V30 10241 O 992.659 -1.67572 -0.987422 0
M  V30 10242 C 992.942 -2.71786 2.36229 0
M  V30 10243 C 992.795 -2.32136 3.8527 0
M  V30 10244 C 994.114 -3.73921 2.32102 0
M  V30 10245 H 991.233 -0.538993 0.502648 0
M  V30 10246 H 993.875 -0.826908 1.71062 0
M  V30 10247 H 992.025 -3.28015 2.0818 0
M  V30 10248 H 993.697 -1.81454 4.24113 0
M  V30 10249 H 991.94 -1.64234 4.01509 0
M  V30 10250 H 992.611 -3.20406 4.49493 0
M  V30 10251 H 995.087 -3.27303 2.56928 0
M  V30 10252 H 993.963 -4.5777 3.02882 0
M  V30 10253 H 994.224 -4.21627 1.32979 0
M  V30 10254 N 993.283 -1.25346 -0.955304 0
M  V30 10255 C 994.246 -1.05754 -2.03344 0
M  V30 10256 C 995.246 -0.0105743 -1.60797 0
M  V30 10257 O 996.436 -0.252699 -1.72357 0
M  V30 10258 C 993.568 -0.605536 -3.35479 0
M  V30 10259 H 994.761 -2.01459 -2.22158 0
M  V30 10260 H 992.314 -1.07744 -1.1323 0
M  V30 10261 H 993.049 0.354154 -3.2236 0
M  V30 10262 H 992.834 -1.36134 -3.67709 0
M  V30 10263 H 994.324 -0.489867 -4.14717 0
M  V30 10264 N 994.761 1.15782 -1.06922 0
M  V30 10265 C 996.009 1.86097 -0.788192 0
M  V30 10266 C 996.33 1.82475 0.687606 0
M  V30 10267 O 995.6 1.26266 1.49778 0
M  V30 10268 H 994.18 0.689008 -0.288577 0
M  V30 10269 H 996.842 1.40377 -1.35205 0
M  V30 10270 H 995.938 2.91358 -1.1188 0
M  V30 10271 N 996.239 0.8527 1.3254 0
M  V30 10272 C 997.488 0.45136 1.96585 0
M  V30 10273 C 997.801 -0.997773 1.68237 0
M  V30 10274 O 999.007 -1.50445 2.26006 0
M  V30 10275 C 997.463 0.75619 3.51866 0
M  V30 10276 C 997.071 2.22092 3.89075 0
M  V30 10277 C 998.815 0.422478 4.22392 0
M  V30 10278 C 996.722 2.46908 5.37392 0
M  V30 10279 H 995.652 0.165052 0.735713 0
M  V30 10280 H 998.303 1.04321 1.50962 0
M  V30 10281 H 996.685 0.0937988 3.95889 0
M  V30 10282 H 997.859 2.92494 3.56067 0
M  V30 10283 H 996.174 2.51896 3.31568 0
M  V30 10284 H 998.771 0.58533 5.31487 0
M  V30 10285 H 999.114 -0.635737 4.11417 0
M  V30 10286 H 999.647 1.04068 3.83946 0
M  V30 10287 H 996.386 3.51346 5.53386 0
M  V30 10288 H 995.906 1.81082 5.71812 0
M  V30 10289 H 997.585 2.30758 6.0445 0
M  V30 10290 N 997.718 -1.45297 0.610449 0
M  V30 10291 C 998.943 -2.07101 0.111414 0
M  V30 10292 C 999.368 -1.45161 -1.19625 0
M  V30 10293 O 998.726 -0.545368 -1.72903 0
M  V30 10294 C 998.774 -3.60598 -0.0117372 0
M  V30 10295 O 997.878 -3.98512 -1.06122 0
M  V30 10296 H 997.219 -0.659709 0.075364 0
M  V30 10297 H 999.749 -1.86504 0.841269 0
M  V30 10298 H 999.759 -4.07464 -0.209028 0
M  V30 10299 H 998.434 -4.05067 0.943076 0
M  V30 10300 H 997.011 -3.63312 -0.840158 0
M  V30 10301 N 999.196 -0.349774 -1.5367 0
M  V30 10302 C 1000.16 0.491676 -2.23864 0
M  V30 10303 C 1001.16 1.02256 -1.24098 0
M  V30 10304 O 1002.35 0.910816 -1.48492 0
M  V30 10305 C 999.481 1.68557 -2.96313 0
M  V30 10306 H 1000.67 -0.12233 -2.9965 0
M  V30 10307 H 998.227 -0.101214 -1.55972 0
M  V30 10308 H 998.962 2.3381 -2.2473 0
M  V30 10309 H 998.747 1.31203 -3.69497 0
M  V30 10310 H 1000.24 2.28225 -3.49718 0
M  V30 10311 N 1000.67 1.57404 -0.0785433 0
M  V30 10312 C 1001.9 1.98492 0.601292 0
M  V30 10313 C 1002.32 0.956832 1.61945 0
M  V30 10314 O 1001.68 -0.0767502 1.81137 0
M  V30 10315 C 1001.73 3.38596 1.24036 0
M  V30 10316 O 1000.83 3.38461 2.35622 0
M  V30 10317 H 1000.17 0.645882 0.154054 0
M  V30 10318 H 1002.7 2.04012 -0.155056 0
M  V30 10319 H 1002.71 3.75929 1.5856 0
M  V30 10320 H 1001.39 4.12952 0.494341 0
M  V30 10321 H 999.967 3.12906 2.02841 0
M  V30 10322 N 1002.15 -0.195058 1.56388 0
M  V30 10323 C 1003.38 -0.931642 1.84738 0
M  V30 10324 C 1003.79 -1.76849 0.661046 0
M  V30 10325 O 1003.15 -1.78705 -0.370241 0
M  V30 10326 C 1003.2 -1.82777 3.11889 0
M  V30 10327 O 1002.92 -1.02471 4.25948 0
M  V30 10328 C 1004.42 -2.67603 3.53417 0
M  V30 10329 H 1001.64 -0.271821 0.613477 0
M  V30 10330 H 1004.19 -0.202299 2.03497 0
M  V30 10331 H 1002.34 -2.51074 2.95027 0
M  V30 10332 H 1002.76 -1.63539 4.98353 0
M  V30 10333 H 1004.23 -3.26138 4.45352 0
M  V30 10334 H 1004.71 -3.41314 2.76408 0
M  V30 10335 H 1005.31 -2.04678 3.7281 0
M  V30 10336 N 1003.63 -1.50653 -0.462772 0
M  V30 10337 C 1004.88 -1.62297 -1.21603 0
M  V30 10338 C 1005.21 -0.326191 -1.91441 0
M  V30 10339 O 1004.48 0.67284 -1.82491 0
M  V30 10340 C 1004.77 -2.80901 -2.25315 0
M  V30 10341 C 1004.62 -4.20484 -1.59728 0
M  V30 10342 C 1005.94 -2.95049 -3.26549 0
M  V30 10343 H 1003.06 -0.590691 -0.440741 0
M  V30 10344 H 1005.7 -1.83064 -0.508675 0
M  V30 10345 H 1003.85 -2.63325 -2.85643 0
M  V30 10346 H 1005.52 -4.49669 -1.02932 0
M  V30 10347 H 1003.76 -4.24357 -0.900181 0
M  V30 10348 H 1004.44 -4.99416 -2.35133 0
M  V30 10349 H 1006.91 -3.11166 -2.76251 0
M  V30 10350 H 1005.79 -3.79645 -3.96435 0
M  V30 10351 H 1006.05 -2.06019 -3.91163 0
M  V30 10352 N 1005.11 0.71652 -1.4037 0
M  V30 10353 C 1006.07 1.81231 -1.40313 0
M  V30 10354 C 1007.07 1.58032 -0.297087 0
M  V30 10355 O 1008.26 1.65091 -0.555944 0
M  V30 10356 C 1005.39 3.19308 -1.19395 0
M  V30 10357 H 1006.59 1.8268 -2.3784 0
M  V30 10358 H 1004.14 0.922062 -1.26205 0
M  V30 10359 H 1004.87 3.2351 -0.226252 0
M  V30 10360 H 1004.66 3.37546 -1.99512 0
M  V30 10361 H 1006.15 3.99339 -1.22141 0
M  V30 10362 N 1006.59 1.25851 0.948643 0
M  V30 10363 C 1007.53 1.06759 2.04625 0
M  V30 10364 C 1008.5 -0.0251144 1.66081 0
M  V30 10365 O 1009.69 0.133221 1.90334 0
M  V30 10366 C 1006.83 0.698724 3.37952 0
M  V30 10367 C 1005.94 1.8669 3.89578 0
M  V30 10368 C 1005.08 1.44184 5.11258 0
M  V30 10369 C 1004.12 2.57878 5.55126 0
M  V30 10370 N 1003.25 2.16106 6.68014 0
M  V30 10371 H 1008.09 2.00691 2.20289 0
M  V30 10372 H 1005.63 0.999327 1.07944 0
M  V30 10373 H 1007.59 0.465788 4.14592 0
M  V30 10374 H 1006.22 -0.203618 3.22157 0
M  V30 10375 H 1005.27 2.21298 3.09405 0
M  V30 10376 H 1006.58 2.72051 4.18079 0
M  V30 10377 H 1005.74 1.16891 5.95333 0
M  V30 10378 H 1004.47 0.559035 4.84485 0
M  V30 10379 H 1003.48 2.85909 4.69612 0
M  V30 10380 H 1004.7 3.46747 5.83904 0
M  V30 10381 H 1002.65 1.3025 6.42939 0
M  V30 10382 H 1002.57 2.95012 6.96063 0
M  V30 10383 H 1003.84 1.92005 7.55483 0
M  V30 10384 N 1008.06 -1.15214 1.07534 0
M  V30 10385 C 1009.31 -1.86548 0.810651 0
M  V30 10386 C 1009.67 -1.80863 -0.656236 0
M  V30 10387 O 1008.96 -1.22216 -1.47559 0
M  V30 10388 C 1009.15 -3.34623 1.25547 0
M  V30 10389 C 1008.98 -3.54725 2.76406 0
M  V30 10390 C 1007.75 -3.70089 3.44038 0
M  V30 10391 C 1009.95 -3.52392 3.74599 0
M  V30 10392 N 1007.93 -3.78262 4.8352 0
M  V30 10393 C 1009.3 -3.66701 4.9993 0
M  V30 10394 C 1011.36 -3.35677 3.6773 0
M  V30 10395 C 1010.06 -3.66023 6.19209 0
M  V30 10396 C 1012.09 -3.36298 4.86475 0
M  V30 10397 C 1011.45 -3.51139 6.1064 0
M  V30 10398 H 1007.55 -0.699691 0.349223 0
M  V30 10399 H 1010.13 -1.3815 1.37196 0
M  V30 10400 H 1008.3 -3.81633 0.721837 0
M  V30 10401 H 1010.03 -3.93677 0.938126 0
M  V30 10402 H 1006.79 -3.70943 2.94446 0
M  V30 10403 H 1007.21 -3.86087 5.56117 0
M  V30 10404 H 1011.86 -3.2312 2.72678 0
M  V30 10405 H 1009.57 -3.77358 7.14581 0
M  V30 10406 H 1013.16 -3.2459 4.82838 0
M  V30 10407 H 1012.04 -3.51555 7.00984 0
M  V30 10408 N 1009.54 -0.859717 -1.32086 0
M  V30 10409 C 1010.77 -0.479724 -2.01262 0
M  V30 10410 C 1011.19 0.924985 -1.64589 0
M  V30 10411 O 1010.54 1.60439 -0.869803 0
M  V30 10412 C 1010.59 -0.615128 -3.56228 0
M  V30 10413 O 1010.31 -1.96451 -3.91585 0
M  V30 10414 C 1011.82 -0.234804 -4.42678 0
M  V30 10415 H 1009.04 -0.188007 -0.644123 0
M  V30 10416 H 1011.58 -1.15805 -1.68551 0
M  V30 10417 H 1009.73 0.0155268 -3.87397 0
M  V30 10418 H 1010.15 -1.96491 -4.86304 0
M  V30 10419 H 1011.62 -0.380534 -5.50687 0
M  V30 10420 H 1012.1 0.825189 -4.31378 0
M  V30 10421 H 1012.71 -0.840739 -4.16907 0
M  V30 10422 N 1011.02 1.44971 -0.618145 0
M  V30 10423 C 1012.27 2.01372 -0.115004 0
M  V30 10424 C 1012.58 1.49104 1.26599 0
M  V30 10425 O 1013.79 1.97549 1.86244 0
M  V30 10426 C 1012.24 3.59567 -0.154883 0
M  V30 10427 C 1011.85 4.20832 -1.53639 0
M  V30 10428 C 1013.6 4.23491 0.292468 0
M  V30 10429 C 1011.5 5.7121 -1.53208 0
M  V30 10430 H 1010.43 0.752979 -0.0392267 0
M  V30 10431 H 1013.08 1.66329 -0.775032 0
M  V30 10432 H 1011.47 3.91847 0.572001 0
M  V30 10433 H 1012.64 4.00109 -2.28582 0
M  V30 10434 H 1010.96 3.69143 -1.92672 0
M  V30 10435 H 1013.55 5.33771 0.315032 0
M  V30 10436 H 1013.9 3.9491 1.31725 0
M  V30 10437 H 1014.43 3.95967 -0.381493 0
M  V30 10438 H 1011.17 6.04506 -2.53481 0
M  V30 10439 H 1010.69 5.94094 -0.825387 0
M  V30 10440 H 1012.37 6.34606 -1.26032 0
M  V30 10441 N 1012.5 0.357919 1.53482 0
M  V30 10442 C 1013.78 -0.290164 1.93436 0
M  V30 10443 C 1014.16 -1.67039 1.29079 0
M  V30 10444 O 1013.5 -2.24085 0.447017 0
M  V30 10445 C 1013.71 -0.348055 3.4726 0
M  V30 10446 C 1015.06 -0.59206 4.20452 0
M  V30 10447 O 1016.09 -0.429581 3.536 0
M  V30 10448 O 1014.94 -0.907855 5.38907 0
M  V30 10449 H 1012.04 -0.172312 0.80885 0
M  V30 10450 H 1014.58 0.410144 1.64669 0
M  V30 10451 H 1013.36 0.619953 3.86358 0
M  V30 10452 H 1012.98 -1.09457 3.82237 0
M  V30 10453 N 1013.98 -1.5736 0.0868897 0
M  V30 10454 C 1014.89 -2.17087 -0.889402 0
M  V30 10455 C 1015.9 -1.13809 -1.31619 0
M  V30 10456 O 1017.08 -1.46143 -1.38579 0
M  V30 10457 C 1014.14 -2.73286 -2.13344 0
M  V30 10458 C 1013.2 -3.91491 -1.76164 0
M  V30 10459 C 1012.44 -4.45 -2.94637 0
M  V30 10460 O 1012.66 -3.97467 -4.09116 0
M  V30 10461 O 1011.59 -5.36133 -2.73579 0
M  V30 10462 H 1015.42 -3.00902 -0.411275 0
M  V30 10463 H 1013.01 -1.4877 -0.137015 0
M  V30 10464 H 1014.89 -3.0924 -2.86266 0
M  V30 10465 H 1013.56 -1.92521 -2.60225 0
M  V30 10466 H 1012.47 -3.60363 -1.00447 0
M  V30 10467 H 1013.8 -4.73593 -1.34053 0
M  V30 10468 N 1015.45 0.186762 -1.56489 0
M  V30 10469 C 1016.7 0.907194 -1.81378 0
M  V30 10470 C 1017.03 1.82558 -0.662283 0
M  V30 10471 O 1016.31 1.91564 0.336699 0
M  V30 10472 C 1016.59 1.71624 -3.16571 0
M  V30 10473 C 1016.44 0.822009 -4.42225 0
M  V30 10474 C 1017.76 2.68713 -3.48542 0
M  V30 10475 H 1014.88 0.328366 -0.659806 0
M  V30 10476 H 1017.52 0.174142 -1.892 0
M  V30 10477 H 1015.67 2.34119 -3.10033 0
M  V30 10478 H 1017.35 0.211122 -4.60817 0
M  V30 10479 H 1015.59 0.129178 -4.33608 0
M  V30 10480 H 1016.26 1.42326 -5.33336 0
M  V30 10481 H 1018.74 2.16348 -3.55433 0
M  V30 10482 H 1017.61 3.22397 -4.44242 0
M  V30 10483 H 1017.87 3.48165 -2.72459 0
M  V30 10484 N 1016.93 1.50896 0.454776 0
M  V30 10485 C 1018.18 1.62699 1.20562 0
M  V30 10486 C 1018.51 0.334943 1.91594 0
M  V30 10487 O 1017.76 -0.680106 1.83502 0
M  V30 10488 C 1018.06 2.76839 2.26042 0
M  V30 10489 C 1017.73 4.16745 1.72147 0
M  V30 10490 C 1016.39 4.54809 1.5717 0
M  V30 10491 C 1018.74 5.04118 1.32341 0
M  V30 10492 C 1016.07 5.7797 1.00835 0
M  V30 10493 C 1018.42 6.27842 0.774419 0
M  V30 10494 C 1017.09 6.64694 0.611415 0
M  V30 10495 H 1016.36 0.595358 0.441169 0
M  V30 10496 H 1019 1.84879 0.499202 0
M  V30 10497 H 1017.31 2.48812 3.02655 0
M  V30 10498 H 1019 2.83173 2.83926 0
M  V30 10499 H 1015.59 3.86725 1.84775 0
M  V30 10500 H 1019.78 4.75331 1.42739 0
M  V30 10501 H 1015.03 6.05183 0.869669 0
M  V30 10502 H 1019.21 6.94896 0.457389 0
M  V30 10503 H 1016.84 7.60004 0.172751 0
M  V30 10504 N 1018.41 -0.709066 1.40748 0
M  V30 10505 C 1019.66 -1.46611 1.39103 0
M  V30 10506 C 1019.98 -1.95 -0.00365366 0
M  V30 10507 O 1019.25 -1.70791 -0.959541 0
M  V30 10508 H 1017.83 -0.543954 0.511979 0
M  V30 10509 H 1020.49 -0.840141 1.75863 0
M  V30 10510 H 1019.59 -2.33581 2.06994 0
M  V30 10511 N 1019.89 -1.26353 -0.941956 0
M  V30 10512 C 1021.14 -1.11851 -1.68806 0
M  V30 10513 C 1021.46 0.33829 -1.91535 0
M  V30 10514 O 1020.72 1.26495 -1.49324 0
M  V30 10515 C 1021.02 -1.83195 -3.06879 0
M  V30 10516 C 1020.68 -3.33093 -3.03908 0
M  V30 10517 C 1019.35 -3.73982 -3.02805 0
M  V30 10518 C 1021.7 -4.28803 -2.96273 0
M  V30 10519 C 1019.03 -5.08971 -2.91832 0
M  V30 10520 C 1021.38 -5.6383 -2.86842 0
M  V30 10521 C 1020.04 -6.04032 -2.84081 0
M  V30 10522 H 1019.31 -0.409293 -0.617706 0
M  V30 10523 H 1021.96 -1.56785 -1.09957 0
M  V30 10524 H 1020.26 -1.30728 -3.69347 0
M  V30 10525 H 1021.96 -1.69416 -3.63455 0
M  V30 10526 H 1018.55 -3.00566 -3.05546 0
M  V30 10527 H 1022.74 -3.98195 -2.96234 0
M  V30 10528 H 1017.99 -5.39282 -2.88072 0
M  V30 10529 H 1022.17 -6.37676 -2.79898 0
M  V30 10530 H 1019.79 -7.08586 -2.75335 0
M  V30 10531 N 1021.37 1.14642 -1.08144 0
M  V30 10532 C 1022.61 1.85892 -0.810683 0
M  V30 10533 C 1022.95 1.82575 0.661821 0
M  V30 10534 O 1022.22 1.25454 1.48632 0
M  V30 10535 C 1022.5 3.34647 -1.32979 0
M  V30 10536 C 1022.36 3.46551 -2.86744 0
M  V30 10537 C 1023.68 4.29661 -0.952864 0
M  V30 10538 H 1020.8 0.674963 -0.295963 0
M  V30 10539 H 1023.44 1.3464 -1.3406 0
M  V30 10540 H 1021.59 3.78425 -0.87903 0
M  V30 10541 H 1023.26 3.11579 -3.40171 0
M  V30 10542 H 1021.5 2.87849 -3.24539 0
M  V30 10543 H 1022.17 4.51101 -3.18138 0
M  V30 10544 H 1024.65 3.93885 -1.34141 0
M  V30 10545 H 1023.53 5.32209 -1.34331 0
M  V30 10546 H 1023.79 4.41877 0.140392 0
M  V30 10547 N 1022.85 0.866709 1.31628 0
M  V30 10548 C 1023.78 0.277328 2.27516 0
M  V30 10549 C 1024.79 -0.557786 1.52946 0
M  V30 10550 O 1025.98 -0.38031 1.74402 0
M  V30 10551 C 1023.08 -0.625742 3.33073 0
M  V30 10552 C 1022.25 0.176204 4.37045 0
M  V30 10553 C 1021.31 -0.654497 5.22114 0
M  V30 10554 O 1020.34 -0.0836961 5.69138 0
M  V30 10555 N 1021.54 -1.96708 5.46156 0
M  V30 10556 H 1024.3 1.10133 2.78731 0
M  V30 10557 H 1021.87 0.72787 1.44616 0
M  V30 10558 H 1023.86 -1.18709 3.86898 0
M  V30 10559 H 1022.43 -1.35042 2.81926 0
M  V30 10560 H 1021.65 0.918999 3.83338 0
M  V30 10561 H 1022.94 0.726594 5.03585 0
M  V30 10562 H 1022.33 -2.454 5.09701 0
M  V30 10563 H 1020.89 -2.47629 6.02929 0
M  V30 10564 N 1024.32 -1.44642 0.625825 0
M  V30 10565 C 1025.55 -2.06458 0.135116 0
M  V30 10566 C 1025.97 -1.46729 -1.18811 0
M  V30 10567 O 1025.32 -0.58818 -1.72762 0
M  V30 10568 C 1025.37 -3.61499 0.00850114 0
M  V30 10569 O 1025.1 -4.19002 1.2794 0
M  V30 10570 C 1026.6 -4.40339 -0.511527 0
M  V30 10571 H 1023.82 -0.666541 0.0772294 0
M  V30 10572 H 1026.36 -1.85597 0.858726 0
M  V30 10573 H 1024.52 -3.81641 -0.665522 0
M  V30 10574 H 1024.93 -5.12385 1.12081 0
M  V30 10575 H 1026.4 -5.49262 -0.549149 0
M  V30 10576 H 1026.88 -4.11409 -1.53752 0
M  V30 10577 H 1027.49 -4.25104 0.129066 0
M  V30 10578 N 1025.8 -0.366053 -1.5329 0
M  V30 10579 C 1026.73 0.47211 -2.28677 0
M  V30 10580 C 1027.71 1.08353 -1.31125 0
M  V30 10581 O 1028.9 1.10069 -1.59995 0
M  V30 10582 C 1026.03 1.61174 -3.07637 0
M  V30 10583 C 1024.98 1.12755 -4.12881 0
M  V30 10584 C 1024.31 2.35745 -4.79925 0
M  V30 10585 C 1025.61 0.211954 -5.2187 0
M  V30 10586 H 1027.3 -0.156838 -2.98989 0
M  V30 10587 H 1024.85 -0.0768709 -1.43795 0
M  V30 10588 H 1026.8 2.20473 -3.59123 0
M  V30 10589 H 1025.52 2.26793 -2.35016 0
M  V30 10590 H 1024.18 0.557234 -3.6234 0
M  V30 10591 H 1023.83 2.99821 -4.03877 0
M  V30 10592 H 1023.53 2.04019 -5.51044 0
M  V30 10593 H 1025.06 2.95729 -5.34207 0
M  V30 10594 H 1026.47 0.71244 -5.68856 0
M  V30 10595 H 1024.87 -0.0144501 -6.00098 0
M  V30 10596 H 1025.94 -0.745753 -4.79131 0
M  V30 10597 N 1027.28 1.57312 -0.0952337 0
M  V30 10598 C 1028.51 1.98697 0.57682 0
M  V30 10599 C 1028.92 0.974347 1.61716 0
M  V30 10600 O 1028.28 -0.036022 1.82464 0
M  V30 10601 C 1028.33 3.40133 1.2244 0
M  V30 10602 O 1028.05 4.37518 0.225678 0
M  V30 10603 C 1029.55 3.96522 1.98205 0
M  V30 10604 H 1026.77 0.65294 0.154629 0
M  V30 10605 H 1029.32 2.03754 -0.174562 0
M  V30 10606 H 1027.47 3.3609 1.92671 0
M  V30 10607 H 1027.89 5.199 0.693116 0
M  V30 10608 H 1029.36 4.97637 2.38875 0
M  V30 10609 H 1029.84 3.34347 2.84796 0
M  V30 10610 H 1030.44 4.04038 1.3279 0
M  V30 10611 N 1028.76 -0.17846 1.56586 0
M  V30 10612 C 1030.01 -0.894464 1.81228 0
M  V30 10613 C 1030.33 -1.83089 0.671062 0
M  V30 10614 O 1029.6 -1.93439 -0.309557 0
M  V30 10615 H 1028.18 -0.333288 0.668527 0
M  V30 10616 H 1030.84 -0.179986 1.94067 0
M  V30 10617 H 1029.93 -1.47565 2.75011 0
M  V30 10618 N 1030.24 -1.51135 -0.446768 0
M  V30 10619 C 1031.48 -1.64989 -1.20656 0
M  V30 10620 C 1031.84 -0.353882 -1.88711 0
M  V30 10621 O 1033.04 -0.368099 -2.66268 0
M  V30 10622 C 1031.31 -2.81371 -2.20375 0
M  V30 10623 S 1032.87 -3.15501 -3.04967 0
M  V30 10624 H 1029.69 -0.581372 -0.409301 0
M  V30 10625 H 1032.29 -1.89008 -0.499613 0
M  V30 10626 H 1030.99 -3.73988 -1.69001 0
M  V30 10627 H 1030.53 -2.59512 -2.95664 0
M  V30 10628 H 1032.54 -2.61205 -4.21884 0
M  V30 10629 N 1031.71 0.701592 -1.41122 0
M  V30 10630 C 1032.62 1.84548 -1.44841 0
M  V30 10631 C 1033.64 1.70654 -0.339594 0
M  V30 10632 O 1034.82 1.92675 -0.586378 0
M  V30 10633 C 1031.88 3.20477 -1.3227 0
M  V30 10634 C 1030.94 3.46524 -2.53415 0
M  V30 10635 C 1030.17 4.75968 -2.41434 0
M  V30 10636 O 1030.4 5.52037 -1.43566 0
M  V30 10637 O 1029.33 5.02664 -3.31078 0
M  V30 10638 H 1033.16 1.84367 -2.41335 0
M  V30 10639 H 1030.74 0.853863 -1.22595 0
M  V30 10640 H 1032.62 4.01642 -1.2752 0
M  V30 10641 H 1031.3 3.21355 -0.388889 0
M  V30 10642 H 1030.21 2.65313 -2.63742 0
M  V30 10643 H 1031.54 3.50455 -3.45604 0
M  V30 10644 N 1033.19 1.2685 0.935242 0
M  V30 10645 C 1034.47 1.03483 1.65984 0
M  V30 10646 C 1034.85 -0.432859 2.06614 0
M  V30 10647 O 1034.2 -1.4145 1.79455 0
M  V30 10648 C 1034.41 1.98924 2.86758 0
M  V30 10649 C 1035.75 2.2787 3.58274 0
M  V30 10650 O 1036.78 1.96838 2.96873 0
M  V30 10651 O 1035.64 2.80734 4.68882 0
M  V30 10652 H 1032.73 0.393932 0.72715 0
M  V30 10653 H 1035.28 1.38085 0.986445 0
M  V30 10654 H 1034.05 2.9794 2.53668 0
M  V30 10655 H 1033.67 1.64839 3.6182 0
M  V30 10656 N 1034.67 -1.14067 1.0875 0
M  V30 10657 C 1035.6 -2.18926 0.67852 0
M  V30 10658 C 1036.62 -1.60441 -0.276163 0
M  V30 10659 O 1037.8 -1.78388 -0.0632788 0
M  V30 10660 C 1034.9 -3.38893 -0.0218852 0
M  V30 10661 C 1034.08 -4.26901 0.952582 0
M  V30 10662 C 1033.14 -5.25418 0.286859 0
M  V30 10663 O 1032.16 -5.61512 0.932354 0
M  V30 10664 N 1033.36 -5.72476 -0.961831 0
M  V30 10665 H 1036.13 -2.54629 1.58063 0
M  V30 10666 H 1033.69 -1.29321 0.974042 0
M  V30 10667 H 1035.68 -4.01864 -0.478278 0
M  V30 10668 H 1034.25 -3.01486 -0.826141 0
M  V30 10669 H 1033.47 -3.60812 1.58772 0
M  V30 10670 H 1034.76 -4.82563 1.61279 0
M  V30 10671 H 1034.16 -5.45287 -1.50594 0
M  V30 10672 H 1032.72 -6.37418 -1.36166 0
M  V30 10673 N 1036.15 -0.873678 -1.31166 0
M  V30 10674 C 1037.11 -0.337069 -2.26708 0
M  V30 10675 C 1038.11 0.51406 -1.52362 0
M  V30 10676 O 1039.3 0.322834 -1.71182 0
M  V30 10677 C 1036.43 0.520897 -3.36897 0
M  V30 10678 H 1037.63 -1.18056 -2.75686 0
M  V30 10679 H 1035.18 -0.649577 -1.42163 0
M  V30 10680 H 1035.91 1.38543 -2.93217 0
M  V30 10681 H 1035.7 -0.0886015 -3.92 0
M  V30 10682 H 1037.19 0.888497 -4.08039 0
M  V30 10683 N 1037.63 1.44308 -0.633487 0
M  V30 10684 C 1039.04 1.56768 -0.29931 0
M  V30 10685 C 1039.24 1.62061 1.19743 0
M  V30 10686 O 1038.3 1.56492 1.98158 0
M  V30 10687 C 1039.61 2.8382 -0.993307 0
M  V30 10688 C 1041.16 2.97536 -0.971674 0
M  V30 10689 C 1041.63 4.27393 -1.64618 0
M  V30 10690 N 1043.13 4.34212 -1.61288 0
M  V30 10691 C 1043.86 5.33415 -2.1037 0
M  V30 10692 N 1043.36 6.3901 -2.67653 0
M  V30 10693 N 1045.15 5.24939 -2.00985 0
M  V30 10694 H 1037.3 1.39115 -1.60501 0
M  V30 10695 H 1039.56 0.666804 -0.673852 0
M  V30 10696 H 1039.27 2.85902 -2.04823 0
M  V30 10697 H 1039.14 3.73422 -0.532537 0
M  V30 10698 H 1041.53 2.95005 0.0747854 0
M  V30 10699 H 1041.61 2.09276 -1.47096 0
M  V30 10700 H 1041.26 4.30683 -2.6921 0
M  V30 10701 H 1041.19 5.14515 -1.12171 0
M  V30 10702 H 1043.68 3.58519 -1.19468 0
M  V30 10703 H 1043.99 7.10994 -3.02831 0
M  V30 10704 H 1042.33 6.39689 -2.71705 0
M  V30 10705 H 1045.53 4.41357 -1.55953 0
M  V30 10706 H 1045.7 6.02097 -2.39547 0
M  V30 10707 N 1039.1 0.374177 1.53094 0
M  V30 10708 C 1040.03 -0.459976 2.28925 0
M  V30 10709 C 1041.02 -1.07656 1.31698 0
M  V30 10710 O 1042.2 -1.09219 1.60577 0
M  V30 10711 C 1039.33 -1.5954 3.08487 0
M  V30 10712 C 1038.28 -1.10563 4.13473 0
M  V30 10713 C 1037.61 -2.33196 4.81169 0
M  V30 10714 C 1038.91 -0.184275 5.21975 0
M  V30 10715 H 1040.6 0.172692 2.98902 0
M  V30 10716 H 1038.15 0.0844956 1.43752 0
M  V30 10717 H 1040.1 -2.18565 3.60288 0
M  V30 10718 H 1038.83 -2.25543 2.36216 0
M  V30 10719 H 1037.49 -0.53801 3.62631 0
M  V30 10720 H 1037.13 -2.97675 4.05461 0
M  V30 10721 H 1036.83 -2.01094 5.52119 0
M  V30 10722 H 1038.36 -2.92892 5.35767 0
M  V30 10723 H 1039.77 -0.682262 5.69226 0
M  V30 10724 H 1038.17 0.0462746 6.00082 0
M  V30 10725 H 1039.24 0.771152 4.78729 0
M  V30 10726 N 1040.58 -1.57259 0.103575 0
M  V30 10727 C 1041.83 -1.94657 -0.558126 0
M  V30 10728 C 1042.16 -0.985886 -1.67662 0
M  V30 10729 O 1041.41 -0.0069745 -1.95699 0
M  V30 10730 C 1041.71 -3.38549 -1.14538 0
M  V30 10731 C 1041.38 -4.50651 -0.149818 0
M  V30 10732 C 1040.04 -4.8104 0.12398 0
M  V30 10733 C 1042.39 -5.18503 0.529497 0
M  V30 10734 C 1039.72 -5.76606 1.08364 0
M  V30 10735 C 1042.07 -6.15099 1.47769 0
M  V30 10736 C 1040.74 -6.43889 1.75963 0
M  V30 10737 H 1040.01 -0.712299 -0.204233 0
M  V30 10738 H 1042.65 -1.90641 0.181208 0
M  V30 10739 H 1040.96 -3.39185 -1.96115 0
M  V30 10740 H 1042.65 -3.6479 -1.66521 0
M  V30 10741 H 1039.24 -4.2697 -0.373404 0
M  V30 10742 H 1043.43 -4.95194 0.331121 0
M  V30 10743 H 1038.68 -5.97223 1.30899 0
M  V30 10744 H 1042.86 -6.66767 2.00983 0
M  V30 10745 H 1040.49 -7.17749 2.50481 0
M  V30 10746 N 1042.06 0.170153 -1.56679 0
M  V30 10747 C 1043.01 1.21064 -1.965 0
M  V30 10748 C 1043.98 1.43928 -0.829092 0
M  V30 10749 O 1045.16 1.56649 -1.08931 0
M  V30 10750 C 1042.3 2.54468 -2.33109 0
M  V30 10751 C 1041.42 2.38974 -3.59883 0
M  V30 10752 C 1040.55 3.65252 -3.857 0
M  V30 10753 C 1039.59 3.44696 -5.05817 0
M  V30 10754 N 1038.73 4.63047 -5.27761 0
M  V30 10755 H 1043.57 0.864055 -2.85198 0
M  V30 10756 H 1041.1 0.415243 -1.41117 0
M  V30 10757 H 1043.06 3.32222 -2.52358 0
M  V30 10758 H 1041.69 2.8712 -1.4752 0
M  V30 10759 H 1040.74 1.5239 -3.48542 0
M  V30 10760 H 1042.06 2.19731 -4.47794 0
M  V30 10761 H 1041.21 4.51441 -4.05322 0
M  V30 10762 H 1039.95 3.87475 -2.96166 0
M  V30 10763 H 1038.95 2.56893 -4.86092 0
M  V30 10764 H 1040.18 3.23894 -5.96883 0
M  V30 10765 H 1038.12 4.85487 -4.41179 0
M  V30 10766 H 1038.04 4.46722 -6.09898 0
M  V30 10767 H 1039.31 5.50516 -5.51863 0
M  V30 10768 N 1043.54 1.5137 0.438746 0
M  V30 10769 C 1044.82 1.54508 1.19944 0
M  V30 10770 C 1045.2 0.308525 2.08833 0
M  V30 10771 O 1044.54 -0.706461 2.17305 0
M  V30 10772 C 1044.75 2.85833 2.00251 0
M  V30 10773 C 1046.1 3.37729 2.5734 0
M  V30 10774 O 1047.13 2.87374 2.10463 0
M  V30 10775 O 1045.98 4.25589 3.42836 0
M  V30 10776 H 1043.08 0.621132 0.546007 0
M  V30 10777 H 1045.62 1.63682 0.447931 0
M  V30 10778 H 1044.4 3.67291 1.34955 0
M  V30 10779 H 1044.02 2.79815 2.8247 0
M  V30 10780 N 1045.02 -0.694098 1.41492 0
M  V30 10781 C 1045.93 -1.83778 1.45818 0
M  V30 10782 C 1046.94 -1.70471 0.348639 0
M  V30 10783 O 1048.12 -1.92361 0.596588 0
M  V30 10784 C 1045.18 -3.19771 1.33967 0
M  V30 10785 C 1044.24 -3.45175 2.5525 0
M  V30 10786 C 1043.48 -4.74681 2.43955 0
M  V30 10787 O 1043.7 -5.51268 1.46491 0
M  V30 10788 O 1042.63 -5.00901 3.33739 0
M  V30 10789 H 1046.46 -1.83084 2.42309 0
M  V30 10790 H 1044.05 -0.847349 1.23046 0
M  V30 10791 H 1045.93 -4.00961 1.29648 0
M  V30 10792 H 1044.6 -3.21145 0.405926 0
M  V30 10793 H 1043.51 -2.6391 2.65146 0
M  V30 10794 H 1044.84 -3.48617 3.47458 0
M  V30 10795 N 1046.49 -1.27344 -0.928501 0
M  V30 10796 C 1047.43 -1.04322 -2.02959 0
M  V30 10797 C 1048.41 0.0361118 -1.6256 0
M  V30 10798 O 1049.59 -0.108872 -1.88185 0
M  V30 10799 C 1046.72 -0.582329 -3.33656 0
M  V30 10800 C 1045.76 -1.65611 -3.93033 0
M  V30 10801 S 1046.6 -3.2484 -4.25722 0
M  V30 10802 C 1047.75 -2.8055 -5.59502 0
M  V30 10803 H 1047.98 -1.97548 -2.22176 0
M  V30 10804 H 1045.52 -1.11167 -1.07151 0
M  V30 10805 H 1047.48 -0.323095 -4.09227 0
M  V30 10806 H 1046.14 0.329858 -3.12363 0
M  V30 10807 H 1045.33 -1.28491 -4.87346 0
M  V30 10808 H 1044.93 -1.86738 -3.24045 0
M  V30 10809 H 1047.22 -2.25803 -6.38764 0
M  V30 10810 H 1048.17 -3.73603 -6.0152 0
M  V30 10811 H 1048.57 -2.19717 -5.19985 0
M  V30 10812 N 1047.97 1.13488 -1.09353 0
M  V30 10813 C 1049.22 1.841 -0.82401 0
M  V30 10814 C 1049.53 1.84393 0.652586 0
M  V30 10815 O 1050.74 2.5089 1.03762 0
M  V30 10816 C 1049.2 3.30523 -1.42418 0
M  V30 10817 C 1048.8 3.38621 -2.93326 0
M  V30 10818 C 1050.55 4.06182 -1.23356 0
M  V30 10819 C 1048.46 4.79311 -3.46432 0
M  V30 10820 H 1047.39 0.68974 -0.304589 0
M  V30 10821 H 1050.04 1.27866 -1.31615 0
M  V30 10822 H 1048.42 3.86555 -0.859727 0
M  V30 10823 H 1049.59 2.92587 -3.5599 0
M  V30 10824 H 1047.91 2.76426 -3.11412 0
M  V30 10825 H 1050.5 5.10047 -1.60488 0
M  V30 10826 H 1050.85 4.15936 -0.174152 0
M  V30 10827 H 1051.38 3.56477 -1.76547 0
M  V30 10828 H 1048.12 4.74748 -4.5199 0
M  V30 10829 H 1047.64 5.25842 -2.8853 0
M  V30 10830 H 1049.32 5.48227 -3.43593 0
M  V30 10831 N 1049.45 0.880621 1.30701 0
M  V30 10832 C 1050.73 0.41712 1.91101 0
M  V30 10833 C 1051.11 -1.10177 1.80067 0
M  V30 10834 O 1050.46 -1.93513 1.21511 0
M  V30 10835 C 1050.67 0.910364 3.36917 0
M  V30 10836 C 1052.01 0.942764 4.14001 0
M  V30 10837 O 1053.04 0.856733 3.45743 0
M  V30 10838 O 1051.9 1.06913 5.3594 0
M  V30 10839 H 1048.99 0.126775 0.817225 0
M  V30 10840 H 1051.54 0.969236 1.39298 0
M  V30 10841 H 1050.31 1.95414 3.39012 0
M  V30 10842 H 1049.93 0.337164 3.96168 0
M  V30 10843 N 1050.93 -1.4397 0.641131 0
M  V30 10844 C 1052.18 -2.01548 0.149333 0
M  V30 10845 C 1052.5 -1.50759 -1.23679 0
M  V30 10846 O 1051.77 -0.715257 -1.82376 0
M  V30 10847 H 1050.35 -0.745173 0.0522161 0
M  V30 10848 H 1053.01 -1.7634 0.830082 0
M  V30 10849 H 1052.11 -3.11851 0.124676 0
M  V30 10850 N 1052.41 -0.382291 -1.52893 0
M  V30 10851 C 1053.32 0.463745 -2.29971 0
M  V30 10852 C 1054.33 1.07777 -1.36602 0
M  V30 10853 O 1055.51 1.0851 -1.69669 0
M  V30 10854 C 1052.57 1.57938 -3.08637 0
M  V30 10855 C 1051.64 0.991182 -4.17701 0
M  V30 10856 C 1050.87 2.05365 -4.92606 0
M  V30 10857 O 1051.09 3.26757 -4.67532 0
M  V30 10858 O 1050.03 1.67487 -5.78128 0
M  V30 10859 H 1053.85 -0.163962 -3.03257 0
M  V30 10860 H 1051.44 -0.146199 -1.48683 0
M  V30 10861 H 1053.32 2.22765 -3.57706 0
M  V30 10862 H 1051.99 2.19218 -2.3817 0
M  V30 10863 H 1050.9 0.306364 -3.72843 0
M  V30 10864 H 1052.23 0.422699 -4.90382 0
M  V30 10865 N 1053.89 1.57202 -0.111913 0
M  V30 10866 C 1054.85 2.13778 0.826534 0
M  V30 10867 C 1055.85 1.07097 1.19945 0
M  V30 10868 O 1057.04 1.32906 1.12613 0
M  V30 10869 C 1054.17 2.6722 2.11675 0
M  V30 10870 H 1055.36 2.98023 0.334975 0
M  V30 10871 H 1052.92 1.55696 0.137256 0
M  V30 10872 H 1053.65 1.86542 2.65278 0
M  V30 10873 H 1053.44 3.45235 1.8589 0
M  V30 10874 H 1054.93 3.10926 2.78774 0
M  V30 10875 N 1055.36 -0.161842 1.56767 0
M  V30 10876 C 1056.61 -0.876925 1.82527 0
M  V30 10877 C 1056.94 -1.81831 0.690492 0
M  V30 10878 O 1056.19 -1.9304 -0.32159 0
M  V30 10879 C 1056.49 -1.69736 3.14522 0
M  V30 10880 C 1056.16 -0.904075 4.41743 0
M  V30 10881 C 1054.82 -0.685168 4.76297 0
M  V30 10882 C 1057.17 -0.348282 5.20035 0
M  V30 10883 C 1054.5 0.10048 5.86614 0
M  V30 10884 C 1056.85 0.424327 6.31175 0
M  V30 10885 C 1055.52 0.653948 6.64289 0
M  V30 10886 H 1054.79 -0.320889 0.667915 0
M  V30 10887 H 1057.43 -0.141338 1.90978 0
M  V30 10888 H 1055.74 -2.50262 3.01456 0
M  V30 10889 H 1057.44 -2.25386 3.31666 0
M  V30 10890 H 1054.03 -1.08474 4.14646 0
M  V30 10891 H 1058.21 -0.504721 4.93727 0
M  V30 10892 H 1053.47 0.288029 6.10721 0
M  V30 10893 H 1057.64 0.862203 6.91042 0
M  V30 10894 H 1055.27 1.26459 7.49608 0
M  V30 10895 N 1056.84 -1.516 -0.430713 0
M  V30 10896 C 1057.77 -1.76342 -1.53054 0
M  V30 10897 C 1058.75 -0.61349 -1.58652 0
M  V30 10898 O 1059.94 -0.856888 -1.74273 0
M  V30 10899 C 1057.07 -1.8945 -2.91077 0
M  V30 10900 C 1056.02 -3.04928 -3.00339 0
M  V30 10901 C 1055.35 -3.03228 -4.40405 0
M  V30 10902 C 1056.65 -4.44777 -2.73808 0
M  V30 10903 H 1058.34 -2.68435 -1.326 0
M  V30 10904 H 1055.89 -1.29171 -0.636466 0
M  V30 10905 H 1057.84 -2.05343 -3.67984 0
M  V30 10906 H 1056.56 -0.940114 -3.12777 0
M  V30 10907 H 1055.22 -2.88751 -2.25872 0
M  V30 10908 H 1054.87 -2.05553 -4.59083 0
M  V30 10909 H 1054.57 -3.80776 -4.47531 0
M  V30 10910 H 1056.1 -3.21222 -5.19277 0
M  V30 10911 H 1057.51 -4.6127 -3.40445 0
M  V30 10912 H 1055.91 -5.2408 -2.92335 0
M  V30 10913 H 1056.98 -4.54358 -1.69372 0
M  V30 10914 N 1058.32 0.686584 -1.41858 0
M  V30 10915 C 1059.25 1.81264 -1.47193 0
M  V30 10916 C 1060.23 1.66875 -0.329657 0
M  V30 10917 O 1061.42 1.86473 -0.542347 0
M  V30 10918 C 1058.55 3.19472 -1.36216 0
M  V30 10919 C 1057.5 3.4858 -2.48347 0
M  V30 10920 C 1056.83 4.86239 -2.22432 0
M  V30 10921 C 1058.13 3.46653 -3.90678 0
M  V30 10922 H 1059.82 1.77057 -2.41436 0
M  V30 10923 H 1057.37 0.850415 -1.16206 0
M  V30 10924 H 1059.32 3.97969 -1.38558 0
M  V30 10925 H 1058.04 3.24327 -0.384611 0
M  V30 10926 H 1056.7 2.72437 -2.45303 0
M  V30 10927 H 1056.35 4.8773 -1.22999 0
M  V30 10928 H 1056.05 5.06677 -2.97577 0
M  V30 10929 H 1057.57 5.67034 -2.26505 0
M  V30 10930 H 1058.99 4.15139 -3.95389 0
M  V30 10931 H 1057.38 3.78625 -4.65578 0
M  V30 10932 H 1058.45 2.45451 -4.18189 0
M  V30 10933 N 1059.8 1.27835 0.921735 0
M  V30 10934 C 1060.73 1.136 2.04003 0
M  V30 10935 C 1061.71 0.0358756 1.70062 0
M  V30 10936 O 1062.89 0.211438 1.93046 0
M  V30 10937 C 1060.02 0.788697 3.38226 0
M  V30 10938 C 1058.98 1.84272 3.863 0
M  V30 10939 C 1058.3 1.34923 5.17397 0
M  V30 10940 C 1059.6 3.24788 4.09035 0
M  V30 10941 H 1061.3 2.07149 2.1617 0
M  V30 10942 H 1058.84 0.997349 1.0387 0
M  V30 10943 H 1060.8 0.675911 4.15944 0
M  V30 10944 H 1059.52 -0.182499 3.2609 0
M  V30 10945 H 1058.18 1.94451 3.1078 0
M  V30 10946 H 1057.83 0.367328 5.01657 0
M  V30 10947 H 1057.53 2.05397 5.50532 0
M  V30 10948 H 1059.05 1.24951 5.97678 0
M  V30 10949 H 1060.47 3.17575 4.77304 0
M  V30 10950 H 1058.86 3.93025 4.53488 0
M  V30 10951 H 1059.93 3.69398 3.14122 0
M  V30 10952 N 1061.28 -1.12907 1.09954 0
M  V30 10953 C 1062.5 -1.88138 0.860905 0
M  V30 10954 C 1062.92 -1.79402 -0.588256 0
M  V30 10955 O 1062.28 -1.16442 -1.40526 0
M  V30 10956 C 1062.33 -3.37537 1.29425 0
M  V30 10957 O 1062.05 -3.46056 2.68658 0
M  V30 10958 C 1063.55 -4.29721 1.08879 0
M  V30 10959 H 1060.77 -0.595437 0.309347 0
M  V30 10960 H 1063.31 -1.42894 1.46292 0
M  V30 10961 H 1061.47 -3.80344 0.736009 0
M  V30 10962 H 1061.88 -4.38969 2.87065 0
M  V30 10963 H 1063.36 -5.32854 1.4412 0
M  V30 10964 H 1063.83 -4.39192 0.0270053 0
M  V30 10965 H 1064.44 -3.9269 1.63325 0
M  V30 10966 N 1062.75 -0.88754 -1.30232 0
M  V30 10967 C 1063.69 -0.313488 -2.27046 0
M  V30 10968 C 1064.7 0.533383 -1.53814 0
M  V30 10969 O 1065.89 0.352516 -1.74984 0
M  V30 10970 C 1062.99 0.572674 -3.34026 0
M  V30 10971 C 1062.16 -0.245712 -4.36709 0
M  V30 10972 C 1061.22 0.57135 -5.23089 0
M  V30 10973 O 1060.25 -0.00685948 -5.692 0
M  V30 10974 N 1061.45 1.87994 -5.49216 0
M  V30 10975 H 1064.21 -1.14553 -2.76943 0
M  V30 10976 H 1061.77 -0.750785 -1.43439 0
M  V30 10977 H 1063.77 1.12539 -3.88738 0
M  V30 10978 H 1062.34 1.3054 -2.84039 0
M  V30 10979 H 1061.56 -0.979869 -3.81827 0
M  V30 10980 H 1062.84 -0.806618 -5.02366 0
M  V30 10981 H 1062.24 2.3726 -5.13541 0
M  V30 10982 H 1060.8 2.38005 -6.06792 0
M  V30 10983 N 1064.23 1.43628 -0.648757 0
M  V30 10984 C 1065.2 2.29172 0.0360713 0
M  V30 10985 C 1066.2 1.41974 0.754976 0
M  V30 10986 O 1067.39 1.63654 0.5969 0
M  V30 10987 C 1064.52 3.23942 1.0618 0
M  V30 10988 H 1065.71 2.91214 -0.716544 0
M  V30 10989 H 1063.26 1.50833 -0.409759 0
M  V30 10990 H 1064 2.66786 1.8438 0
M  V30 10991 H 1063.78 3.88223 0.550016 0
M  V30 10992 H 1065.27 3.8816 1.54019 0
M  V30 10993 N 1065.71 0.390394 1.52688 0
M  V30 10994 C 1066.99 -0.249068 1.94008 0
M  V30 10995 C 1067.37 -1.64263 1.32593 0
M  V30 10996 O 1066.72 -2.23086 0.494448 0
M  V30 10997 C 1066.93 -0.274318 3.4792 0
M  V30 10998 C 1068.27 -0.502743 4.21613 0
M  V30 10999 O 1069.3 -0.35448 3.54432 0
M  V30 11000 O 1068.16 -0.79334 5.40711 0
M  V30 11001 H 1065.25 -0.155116 0.812323 0
M  V30 11002 H 1067.8 0.44498 1.63762 0
M  V30 11003 H 1066.57 0.701766 3.84956 0
M  V30 11004 H 1066.19 -1.01324 3.84473 0
M  V30 11005 N 1067.19 -1.57141 0.120249 0
M  V30 11006 C 1068.44 -1.94413 -0.53727 0
M  V30 11007 C 1068.75 -1.00594 -1.67751 0
M  V30 11008 O 1069.96 -1.27336 -2.39787 0
M  V30 11009 C 1068.41 -3.45521 -1.00714 0
M  V30 11010 C 1068.02 -4.47878 0.104706 0
M  V30 11011 C 1069.76 -3.9171 -1.63596 0
M  V30 11012 C 1067.67 -5.90165 -0.381932 0
M  V30 11013 H 1066.6 -0.725745 -0.204475 0
M  V30 11014 H 1069.25 -1.82404 0.200302 0
M  V30 11015 H 1067.63 -3.52769 -1.79917 0
M  V30 11016 H 1068.81 -4.523 0.881002 0
M  V30 11017 H 1067.12 -4.11448 0.640264 0
M  V30 11018 H 1069.72 -4.95433 -2.01122 0
M  V30 11019 H 1070.06 -3.31756 -2.51483 0
M  V30 11020 H 1070.6 -3.87268 -0.909319 0
M  V30 11021 H 1067.34 -6.53877 0.460921 0
M  V30 11022 H 1066.86 -5.89161 -1.12468 0
M  V30 11023 H 1068.53 -6.41488 -0.842748 0
M  V30 11024 N 1068.67 0.153526 -1.5685 0
M  V30 11025 C 1069.91 0.868517 -1.83261 0
M  V30 11026 C 1070.25 1.81112 -0.700857 0
M  V30 11027 O 1069.52 1.92235 0.295989 0
M  V30 11028 C 1069.8 1.6487 -3.2014 0
M  V30 11029 C 1069.66 0.728021 -4.43869 0
M  V30 11030 C 1070.98 2.61259 -3.54163 0
M  V30 11031 H 1068.09 0.314297 -0.666623 0
M  V30 11032 H 1070.74 0.133971 -1.89527 0
M  V30 11033 H 1068.89 2.2749 -3.1493 0
M  V30 11034 H 1070.56 0.113328 -4.61161 0
M  V30 11035 H 1068.8 0.0371744 -4.33784 0
M  V30 11036 H 1069.47 1.30981 -5.36235 0
M  V30 11037 H 1071.95 2.0876 -3.59942 0
M  V30 11038 H 1070.82 3.12902 -4.50981 0
M  V30 11039 H 1071.09 3.42307 -2.79782 0
M  V30 11040 N 1070.14 1.51827 0.422667 0
M  V30 11041 C 1071.09 1.74198 1.51406 0
M  V30 11042 C 1072.06 0.584013 1.55494 0
M  V30 11043 O 1073.25 0.820079 1.72277 0
M  V30 11044 C 1070.39 1.88627 2.88988 0
M  V30 11045 C 1069.5 3.16233 2.94314 0
M  V30 11046 C 1068.63 3.21172 4.2311 0
M  V30 11047 C 1067.67 4.43033 4.2236 0
M  V30 11048 N 1066.81 4.4544 5.42704 0
M  V30 11049 H 1071.65 2.67352 1.31632 0
M  V30 11050 H 1069.19 1.32487 0.63919 0
M  V30 11051 H 1071.15 1.94976 3.68837 0
M  V30 11052 H 1069.78 0.988673 3.07287 0
M  V30 11053 H 1068.83 3.19123 2.07039 0
M  V30 11054 H 1070.14 4.06104 2.89623 0
M  V30 11055 H 1069.29 3.26517 5.11343 0
M  V30 11056 H 1068.03 2.29216 4.30478 0
M  V30 11057 H 1067.04 4.37849 3.32518 0
M  V30 11058 H 1068.26 5.3627 4.16643 0
M  V30 11059 H 1066.21 3.56361 5.50766 0
M  V30 11060 H 1066.13 5.29138 5.39953 0
M  V30 11061 H 1067.39 4.54997 6.32928 0
M  V30 11062 N 1071.62 -0.679052 1.4222 0
M  V30 11063 C 1072.87 -1.43485 1.41757 0
M  V30 11064 C 1073.18 -1.95567 0.0358698 0
M  V30 11065 O 1074.39 -2.71346 -0.0913713 0
M  V30 11066 C 1072.85 -2.59541 2.49332 0
M  V30 11067 C 1072.45 -2.14176 3.93488 0
M  V30 11068 C 1074.2 -3.37078 2.58029 0
M  V30 11069 C 1072.11 -3.27289 4.92581 0
M  V30 11070 H 1071.04 -0.539022 0.52723 0
M  V30 11071 H 1073.69 -0.735581 1.68111 0
M  V30 11072 H 1072.07 -3.31815 2.16135 0
M  V30 11073 H 1073.24 -1.49082 4.36017 0
M  V30 11074 H 1071.56 -1.49589 3.88603 0
M  V30 11075 H 1074.15 -4.21312 3.29242 0
M  V30 11076 H 1074.5 -3.83383 1.62245 0
M  V30 11077 H 1075.03 -2.7187 2.90399 0
M  V30 11078 H 1071.77 -2.8598 5.89827 0
M  V30 11079 H 1071.29 -3.91178 4.54687 0
M  V30 11080 H 1072.97 -3.9282 5.14103 0
M  V30 11081 N 1073.1 -1.28322 -0.914942 0
M  V30 11082 C 1074.03 -1.06469 -2.01841 0
M  V30 11083 C 1075.01 0.0188681 -1.62589 0
M  V30 11084 O 1076.2 -0.128825 -1.88059 0
M  V30 11085 C 1073.32 -0.617685 -3.3302 0
M  V30 11086 C 1072.37 -1.6977 -3.91255 0
M  V30 11087 S 1073.2 -3.29337 -4.22253 0
M  V30 11088 C 1074.36 -2.86468 -5.56495 0
M  V30 11089 H 1074.59 -1.99893 -2.20068 0
M  V30 11090 H 1072.12 -1.12297 -1.05966 0
M  V30 11091 H 1074.08 -0.366481 -4.08861 0
M  V30 11092 H 1072.74 0.296709 -3.12695 0
M  V30 11093 H 1071.94 -1.33653 -4.85956 0
M  V30 11094 H 1071.54 -1.90164 -3.22046 0
M  V30 11095 H 1073.83 -2.32565 -6.36333 0
M  V30 11096 H 1074.77 -3.79962 -5.97523 0
M  V30 11097 H 1075.18 -2.2522 -5.17626 0
M  V30 11098 N 1074.58 1.12322 -1.10551 0
M  V30 11099 C 1075.8 1.8822 -0.871093 0
M  V30 11100 C 1076.23 1.7916 0.573005 0
M  V30 11101 O 1075.59 1.14738 1.40374 0
M  V30 11102 C 1075.63 3.35349 -1.32565 0
M  V30 11103 O 1074.74 4.09461 -0.49145 0
M  V30 11104 H 1074.08 0.584787 -0.314516 0
M  V30 11105 H 1076.61 1.42039 -1.47262 0
M  V30 11106 H 1076.62 3.86189 -1.31612 0
M  V30 11107 H 1075.29 3.4126 -2.37728 0
M  V30 11108 H 1073.87 3.68575 -0.566294 0
M  V30 11109 N 1076.06 0.894434 1.2976 0
M  V30 11110 C 1077.3 0.518435 1.96061 0
M  V30 11111 C 1077.64 -0.931882 1.70381 0
M  V30 11112 O 1076.91 -1.65988 1.01381 0
M  V30 11113 C 1077.19 0.80519 3.50982 0
M  V30 11114 C 1077.05 2.30683 3.86142 0
M  V30 11115 C 1078.37 0.288096 4.39156 0
M  V30 11116 H 1075.48 0.18983 0.712133 0
M  V30 11117 H 1078.13 1.12016 1.53468 0
M  V30 11118 H 1076.28 0.293071 3.87393 0
M  V30 11119 H 1077.95 2.88808 3.59705 0
M  V30 11120 H 1076.19 2.76968 3.33873 0
M  V30 11121 H 1076.86 2.45805 4.94251 0
M  V30 11122 H 1079.34 0.726547 4.09708 0
M  V30 11123 H 1078.21 0.517985 5.4645 0
M  V30 11124 H 1078.48 -0.811018 4.34597 0
M  V30 11125 N 1077.53 -1.43282 0.656365 0
M  V30 11126 C 1078.48 -2.30776 -0.0333155 0
M  V30 11127 C 1079.45 -1.44928 -0.811493 0
M  V30 11128 O 1080.64 -1.73792 -0.787465 0
M  V30 11129 C 1077.78 -3.30548 -0.991566 0
M  V30 11130 C 1076.89 -4.31493 -0.209159 0
M  V30 11131 C 1076.02 -5.18346 -1.16149 0
M  V30 11132 C 1075.06 -6.10983 -0.369699 0
M  V30 11133 N 1074.2 -6.90449 -1.27378 0
M  V30 11134 H 1079.04 -2.89204 0.718668 0
M  V30 11135 H 1076.58 -1.4247 0.366161 0
M  V30 11136 H 1078.54 -3.86905 -1.56078 0
M  V30 11137 H 1077.17 -2.73762 -1.71039 0
M  V30 11138 H 1076.22 -3.77405 0.476394 0
M  V30 11139 H 1077.53 -4.97142 0.406394 0
M  V30 11140 H 1076.68 -5.79345 -1.80124 0
M  V30 11141 H 1075.42 -4.52831 -1.81095 0
M  V30 11142 H 1074.43 -5.49069 0.283377 0
M  V30 11143 H 1075.65 -6.78541 0.275399 0
M  V30 11144 H 1073.6 -6.27579 -1.90999 0
M  V30 11145 H 1073.52 -7.52631 -0.71287 0
M  V30 11146 H 1074.78 -7.5595 -1.90158 0
M  V30 11147 N 1079.01 -0.398486 -1.52479 0
M  V30 11148 C 1079.94 0.423498 -2.29627 0
M  V30 11149 C 1080.92 1.05547 -1.33394 0
M  V30 11150 O 1082.11 1.0665 -1.62294 0
M  V30 11151 C 1079.24 1.54612 -3.10986 0
M  V30 11152 C 1078.19 1.03971 -4.15179 0
M  V30 11153 C 1077.52 2.25512 -4.84818 0
M  V30 11154 C 1078.82 0.10121 -5.22202 0
M  V30 11155 H 1080.51 -0.220222 -2.98589 0
M  V30 11156 H 1078.06 -0.107355 -1.43599 0
M  V30 11157 H 1080.01 2.12806 -3.63719 0
M  V30 11158 H 1078.74 2.21756 -2.39774 0
M  V30 11159 H 1077.4 0.480251 -3.63441 0
M  V30 11160 H 1077.04 2.91187 -4.10145 0
M  V30 11161 H 1076.74 1.92285 -5.55248 0
M  V30 11162 H 1078.27 2.84331 -5.40359 0
M  V30 11163 H 1079.68 0.591617 -5.70239 0
M  V30 11164 H 1078.08 -0.141737 -5.99933 0
M  V30 11165 H 1079.15 -0.847216 -4.77441 0
M  V30 11166 N 1080.49 1.57075 -0.12858 0
M  V30 11167 C 1081.74 1.95134 0.526046 0
M  V30 11168 C 1082.06 1.01337 1.66601 0
M  V30 11169 O 1081.33 0.0714361 1.9577 0
M  V30 11170 H 1079.91 0.720468 0.19732 0
M  V30 11171 H 1082.57 1.93874 -0.199767 0
M  V30 11172 H 1081.67 2.98406 0.914332 0
M  V30 11173 N 1081.97 -0.145205 1.5693 0
M  V30 11174 C 1083.38 -0.705089 1.72874 0
M  V30 11175 C 1083.73 -1.81577 0.743261 0
M  V30 11176 O 1082.86 -2.16214 -0.0897153 0
M  V30 11177 C 1083.45 -1.28578 3.13454 0
M  V30 11178 C 1082.01 -1.79221 3.30994 0
M  V30 11179 C 1081.16 -0.681392 2.68798 0
M  V30 11180 H 1084.11 0.0804798 1.58496 0
M  V30 11181 H 1084.13 -2.15558 3.13552 0
M  V30 11182 H 1083.64 -0.477186 3.85155 0
M  V30 11183 H 1081.74 -2.62642 2.64292 0
M  V30 11184 H 1081.86 -1.91969 4.38959 0
M  V30 11185 H 1080.22 -1.10847 2.29314 0
M  V30 11186 H 1081 0.115786 3.43105 0
M  V30 11187 N 1083.45 -1.52049 -0.414609 0
M  V30 11188 C 1084.41 -1.74382 -1.4874 0
M  V30 11189 C 1085.41 -0.613701 -1.48628 0
M  V30 11190 O 1086.6 -0.88152 -1.50249 0
M  V30 11191 C 1083.73 -1.82116 -2.88178 0
M  V30 11192 H 1084.93 -2.70147 -1.30233 0
M  V30 11193 H 1082.48 -1.42382 -0.644756 0
M  V30 11194 H 1083.21 -0.882457 -3.12063 0
M  V30 11195 H 1083 -2.64268 -2.89663 0
M  V30 11196 H 1084.49 -2.01155 -3.65959 0
M  V30 11197 N 1084.93 0.6715 -1.42579 0
M  V30 11198 C 1085.86 1.79693 -1.49107 0
M  V30 11199 C 1086.84 1.66516 -0.347338 0
M  V30 11200 O 1088.02 1.85887 -0.562094 0
M  V30 11201 C 1085.15 3.1801 -1.39596 0
M  V30 11202 C 1084.11 3.45926 -2.5203 0
M  V30 11203 C 1083.43 4.83852 -2.27577 0
M  V30 11204 C 1084.73 3.4249 -3.94333 0
M  V30 11205 H 1086.43 1.74486 -2.433 0
M  V30 11206 H 1083.97 0.838042 -1.17102 0
M  V30 11207 H 1085.92 3.96478 -1.42771 0
M  V30 11208 H 1084.65 3.23901 -0.418989 0
M  V30 11209 H 1083.31 2.6982 -2.48178 0
M  V30 11210 H 1082.96 4.86398 -1.28165 0
M  V30 11211 H 1082.66 5.03493 -3.02934 0
M  V30 11212 H 1084.18 5.646 -2.32506 0
M  V30 11213 H 1085.59 4.10922 -3.9977 0
M  V30 11214 H 1083.99 3.73666 -4.69568 0
M  V30 11215 H 1085.06 2.41002 -4.20768 0
M  V30 11216 N 1086.4 1.28806 0.908124 0
M  V30 11217 C 1087.35 1.13215 2.01125 0
M  V30 11218 C 1088.32 0.0277357 1.66077 0
M  V30 11219 O 1089.51 0.193707 1.89814 0
M  V30 11220 C 1086.65 0.805887 3.35558 0
M  V30 11221 C 1085.76 1.9899 3.83441 0
M  V30 11222 C 1084.89 1.60376 5.06412 0
M  V30 11223 C 1083.93 2.75409 5.46641 0
M  V30 11224 N 1083.07 2.37249 6.60801 0
M  V30 11225 H 1087.91 2.07598 2.13792 0
M  V30 11226 H 1085.45 1.03316 1.0471 0
M  V30 11227 H 1087.4 0.597451 4.129 0
M  V30 11228 H 1086.03 -0.101023 3.22642 0
M  V30 11229 H 1085.09 2.31029 3.02208 0
M  V30 11230 H 1086.4 2.85214 4.09212 0
M  V30 11231 H 1085.55 1.35772 5.91313 0
M  V30 11232 H 1084.29 0.712888 4.82462 0
M  V30 11233 H 1083.3 3.00705 4.60279 0
M  V30 11234 H 1084.52 3.65148 5.72577 0
M  V30 11235 H 1082.47 1.50638 6.3847 0
M  V30 11236 H 1082.38 3.17008 6.86325 0
M  V30 11237 H 1083.65 2.15943 7.48992 0
M  V30 11238 N 1087.88 -1.11734 1.11145 0
M  V30 11239 C 1089.13 -1.82766 0.853194 0
M  V30 11240 C 1089.44 -1.85408 -0.623168 0
M  V30 11241 O 1090.65 -2.52509 -0.997574 0
M  V30 11242 C 1089.11 -3.28215 1.47658 0
M  V30 11243 C 1088.71 -3.33911 2.98676 0
M  V30 11244 C 1090.46 -4.04168 1.29803 0
M  V30 11245 C 1088.36 -4.73739 3.54013 0
M  V30 11246 H 1087.29 -0.684807 0.315523 0
M  V30 11247 H 1089.95 -1.25756 1.33633 0
M  V30 11248 H 1088.33 -3.85138 0.921116 0
M  V30 11249 H 1089.5 -2.86887 3.606 0
M  V30 11250 H 1087.82 -2.71437 3.15771 0
M  V30 11251 H 1090.41 -5.07429 1.68582 0
M  V30 11252 H 1090.76 -4.15606 0.240302 0
M  V30 11253 H 1091.29 -3.53623 1.82196 0
M  V30 11254 H 1088.03 -4.67497 4.59485 0
M  V30 11255 H 1087.55 -5.21186 2.9686 0
M  V30 11256 H 1089.23 -5.42691 3.52271 0
M  V30 11257 N 1089.36 -0.901303 -1.29284 0
M  V30 11258 C 1090.59 -0.542723 -1.99344 0
M  V30 11259 C 1091 0.877357 -1.67628 0
M  V30 11260 O 1090.34 1.59088 -0.918515 0
M  V30 11261 C 1090.4 -0.657088 -3.53444 0
M  V30 11262 C 1090.07 -2.04444 -4.0872 0
M  V30 11263 C 1091.06 -3.01577 -4.23494 0
M  V30 11264 C 1088.75 -2.35425 -4.43712 0
M  V30 11265 C 1090.74 -4.27816 -4.72496 0
M  V30 11266 C 1088.43 -3.61906 -4.9241 0
M  V30 11267 C 1089.43 -4.57916 -5.06757 0
M  V30 11268 O 1089.12 -5.8215 -5.54397 0
M  V30 11269 H 1088.85 -0.206742 -0.64361 0
M  V30 11270 H 1091.4 -1.21311 -1.65749 0
M  V30 11271 H 1089.63 0.0703305 -3.86636 0
M  V30 11272 H 1091.32 -0.307425 -4.04734 0
M  V30 11273 H 1092.09 -2.78957 -3.96747 0
M  V30 11274 H 1087.97 -1.61454 -4.31803 0
M  V30 11275 H 1091.51 -5.0276 -4.83609 0
M  V30 11276 H 1087.41 -3.84356 -5.18595 0
M  V30 11277 H 1088.17 -5.84762 -5.72709 0
M  V30 11278 N 1090.84 1.42931 -0.663954 0
M  V30 11279 C 1091.79 2.32577 0.03287 0
M  V30 11280 C 1092.78 1.49217 0.801918 0
M  V30 11281 O 1093.99 1.65358 0.711106 0
M  V30 11282 H 1090.36 0.751424 0.0294198 0
M  V30 11283 H 1092.33 2.89059 -0.740763 0
M  V30 11284 C 1091.08 3.33661 0.978025 0
M  V30 11285 H 1090.4 3.97837 0.395681 0
M  V30 11286 H 1091.84 3.98997 1.43448 0
M  V30 11287 C 1090.3 2.65085 2.07922 0
M  V30 11288 O 1090.83 2.4745 3.16435 0
M  V30 11289 N 1089.04 2.24285 1.84783 0
M  V30 11290 H 1088.59 2.38827 0.965368 0
M  V30 11291 H 1088.54 1.78732 2.58655 0
M  V30 11292 N 1092.32 0.406567 1.52266 0
M  V30 11293 C 1093.28 -0.408251 2.25535 0
M  V30 11294 C 1094.28 -0.975795 1.27808 0
M  V30 11295 O 1095.47 -0.855077 1.5177 0
M  V30 11296 C 1092.6 -1.57443 3.02365 0
M  V30 11297 H 1093.79 0.233459 2.9899 0
M  V30 11298 H 1091.35 0.159032 1.55489 0
M  V30 11299 H 1092.08 -2.25308 2.33252 0
M  V30 11300 H 1091.87 -1.17399 3.74112 0
M  V30 11301 H 1093.36 -2.15088 3.57948 0
M  V30 11302 N 1093.79 -1.57004 0.136909 0
M  V30 11303 C 1095.04 -1.94972 -0.51662 0
M  V30 11304 C 1095.36 -1.02367 -1.66674 0
M  V30 11305 O 1096.56 -1.29873 -2.38423 0
M  V30 11306 C 1095.02 -3.4657 -0.970435 0
M  V30 11307 C 1094.63 -4.47741 0.152204 0
M  V30 11308 C 1096.37 -3.93423 -1.59432 0
M  V30 11309 C 1094.28 -5.90537 -0.319315 0
M  V30 11310 H 1093.21 -0.727873 -0.196766 0
M  V30 11311 H 1095.86 -1.82181 0.219637 0
M  V30 11312 H 1094.24 -3.54657 -1.76165 0
M  V30 11313 H 1095.41 -4.5134 0.928925 0
M  V30 11314 H 1093.73 -4.10746 0.683867 0
M  V30 11315 H 1096.33 -4.97539 -1.95856 0
M  V30 11316 H 1096.67 -3.34404 -2.47951 0
M  V30 11317 H 1097.2 -3.8821 -0.868193 0
M  V30 11318 H 1093.94 -6.53352 0.530248 0
M  V30 11319 H 1093.46 -5.90321 -1.06213 0
M  V30 11320 H 1095.14 -6.42346 -0.774662 0
M  V30 11321 N 1095.27 0.136881 -1.57004 0
M  V30 11322 C 1096.2 1.17026 -2.02057 0
M  V30 11323 C 1097.18 1.44223 -0.901866 0
M  V30 11324 O 1098.37 1.54971 -1.17037 0
M  V30 11325 C 1095.5 2.50095 -2.40977 0
M  V30 11326 C 1094.45 2.37398 -3.56127 0
M  V30 11327 C 1093.78 3.75268 -3.80891 0
M  V30 11328 C 1095.08 1.84952 -4.88457 0
M  V30 11329 H 1096.77 0.795601 -2.88636 0
M  V30 11330 H 1094.32 0.381266 -1.38861 0
M  V30 11331 H 1096.27 3.22621 -2.71097 0
M  V30 11332 H 1095 2.89416 -1.51348 0
M  V30 11333 H 1093.65 1.67322 -3.26188 0
M  V30 11334 H 1093.3 4.12043 -2.88496 0
M  V30 11335 H 1093 3.67631 -4.5839 0
M  V30 11336 H 1094.53 4.49327 -4.13446 0
M  V30 11337 H 1095.94 2.4728 -5.17229 0
M  V30 11338 H 1094.34 1.88181 -5.69832 0
M  V30 11339 H 1095.41 0.805848 -4.78157 0
M  V30 11340 N 1096.75 1.52266 0.40654 0
M  V30 11341 C 1097.68 1.70519 1.51653 0
M  V30 11342 C 1098.66 0.552798 1.52915 0
M  V30 11343 O 1099.85 0.780468 1.71584 0
M  V30 11344 C 1096.97 1.74686 2.90176 0
M  V30 11345 C 1096.02 2.96255 3.06815 0
M  V30 11346 S 1096.85 4.56553 2.79856 0
M  V30 11347 C 1098.01 4.63511 4.20605 0
M  V30 11348 H 1098.24 2.64399 1.35942 0
M  V30 11349 H 1095.77 1.42337 0.598284 0
M  V30 11350 H 1097.73 1.77773 3.7001 0
M  V30 11351 H 1096.39 0.819291 3.03227 0
M  V30 11352 H 1095.59 2.95661 4.08167 0
M  V30 11353 H 1095.19 2.91069 2.34851 0
M  V30 11354 H 1097.48 4.41047 5.1428 0
M  V30 11355 H 1098.42 5.65456 4.26222 0
M  V30 11356 H 1098.83 3.92518 4.05697 0
M  V30 11357 N 1098.23 -0.663929 1.42933 0
M  V30 11358 C 1099.48 -1.42393 1.43981 0
M  V30 11359 C 1099.8 -1.94407 0.0601802 0
M  V30 11360 O 1099.06 -1.72019 -0.933172 0
M  V30 11361 C 1099.36 -2.62976 2.4203 0
M  V30 11362 C 1099.02 -2.29441 3.88159 0
M  V30 11363 C 1097.69 -2.20007 4.27961 0
M  V30 11364 C 1100.04 -2.02413 4.8029 0
M  V30 11365 C 1097.37 -1.81686 5.57859 0
M  V30 11366 C 1099.72 -1.65592 6.10542 0
M  V30 11367 C 1098.38 -1.54676 6.49332 0
M  V30 11368 H 1097.65 -0.521051 0.526865 0
M  V30 11369 H 1100.3 -0.756042 1.75944 0
M  V30 11370 H 1098.6 -3.34847 2.03433 0
M  V30 11371 H 1100.3 -3.21174 2.40101 0
M  V30 11372 H 1096.89 -2.3769 3.56653 0
M  V30 11373 H 1101.07 -2.08628 4.5032 0
M  V30 11374 H 1096.33 -1.71812 5.86763 0
M  V30 11375 H 1100.5 -1.43707 6.81411 0
M  V30 11376 H 1098.13 -1.24752 7.49894 0
M  V30 11377 N 1099.71 -1.29285 -0.901281 0
M  V30 11378 C 1100.65 -1.1428 -2.00521 0
M  V30 11379 C 1101.62 -0.0365428 -1.6606 0
M  V30 11380 O 1102.81 -0.203771 -1.89709 0
M  V30 11381 C 1099.95 -0.823671 -3.35126 0
M  V30 11382 C 1099.06 -2.01021 -3.8238 0
M  V30 11383 C 1098.2 -1.6306 -5.05554 0
M  V30 11384 C 1097.24 -2.78304 -5.45173 0
M  V30 11385 N 1096.37 -2.4075 -6.59533 0
M  V30 11386 H 1101.21 -2.08729 -2.12688 0
M  V30 11387 H 1098.75 -1.0387 -1.04161 0
M  V30 11388 H 1100.71 -0.61934 -4.12577 0
M  V30 11389 H 1099.34 0.0839113 -3.22691 0
M  V30 11390 H 1098.39 -2.32629 -3.00978 0
M  V30 11391 H 1099.7 -2.8738 -4.07694 0
M  V30 11392 H 1098.86 -1.38906 -5.90584 0
M  V30 11393 H 1097.59 -0.738464 -4.82077 0
M  V30 11394 H 1096.6 -3.03142 -4.58678 0
M  V30 11395 H 1097.82 -3.68179 -5.70632 0
M  V30 11396 H 1095.77 -1.54022 -6.37662 0
M  V30 11397 H 1095.69 -3.20643 -6.84634 0
M  V30 11398 H 1096.96 -2.19912 -7.47836 0
M  V30 11399 N 1101.18 1.11143 -1.11736 0
M  V30 11400 C 1102.13 2.19358 -0.773626 0
M  V30 11401 C 1103.13 1.67744 0.236288 0
M  V30 11402 O 1104.33 1.79748 0.09525 0
M  V30 11403 H 1100.71 0.715218 -0.232309 0
M  V30 11404 H 1102.68 2.45594 -1.69487 0
M  V30 11405 C 1101.43 3.46895 -0.236457 0
M  V30 11406 H 1100.75 3.86967 -1.00483 0
M  V30 11407 H 1102.19 4.23986 -0.034168 0
M  V30 11408 C 1100.65 3.20641 1.03397 0
M  V30 11409 O 1101.18 3.41629 2.11312 0
M  V30 11410 N 1099.39 2.74356 0.957986 0
M  V30 11411 H 1098.93 2.57477 0.0796924 0
M  V30 11412 H 1098.89 2.57166 1.80867 0
M  V30 11413 N 1102.66 0.908147 1.28804 0
M  V30 11414 C 1103.63 0.397058 2.25735 0
M  V30 11415 C 1104.63 -0.473483 1.53671 0
M  V30 11416 O 1105.82 -0.277335 1.71978 0
M  V30 11417 C 1102.95 -0.431392 3.38159 0
M  V30 11418 H 1104.14 1.25323 2.72459 0
M  V30 11419 H 1101.69 0.687041 1.4039 0
M  V30 11420 H 1102.43 -1.3072 2.96787 0
M  V30 11421 H 1102.21 0.192502 3.91627 0
M  V30 11422 H 1103.7 -0.78 4.10251 0
M  V30 11423 N 1104.14 -1.42577 0.671525 0
M  V30 11424 C 1105.42 -1.95222 0.121529 0
M  V30 11425 C 1105.8 -1.61209 -1.36289 0
M  V30 11426 O 1105.15 -0.906561 -2.09747 0
M  V30 11427 C 1105.36 -3.46846 0.387189 0
M  V30 11428 C 1106.7 -4.23525 0.301938 0
M  V30 11429 O 1107.73 -3.54753 0.320755 0
M  V30 11430 O 1106.59 -5.45967 0.241317 0
M  V30 11431 H 1103.68 -0.826999 0.000968615 0
M  V30 11432 H 1106.23 -1.52422 0.746029 0
M  V30 11433 H 1105 -3.64795 1.41563 0
M  V30 11434 H 1104.62 -3.96686 -0.26948 0
M  V30 11435 N 1105.62 -0.414636 -1.52048 0
M  V30 11436 C 1106.9 0.218172 -1.94379 0
M  V30 11437 C 1107.28 1.62133 -1.35189 0
M  V30 11438 O 1106.62 2.22271 -0.529877 0
M  V30 11439 C 1106.83 0.218932 -3.48313 0
M  V30 11440 C 1108.18 0.435604 -4.2236 0
M  V30 11441 O 1109.21 0.298049 -3.54951 0
M  V30 11442 O 1108.06 0.707217 -5.41905 0
M  V30 11443 H 1105.16 0.142173 -0.814688 0
M  V30 11444 H 1107.7 -0.470977 -1.63033 0
M  V30 11445 H 1106.48 -0.76292 -3.83791 0
M  V30 11446 H 1106.1 0.951949 -3.86036 0
M  V30 11447 N 1107.1 1.56929 -0.145233 0
M  V30 11448 C 1108.32 2.00431 0.513314 0
M  V30 11449 C 1108.74 1.0253 1.58534 0
M  V30 11450 O 1108.1 0.0220459 1.82487 0
M  V30 11451 C 1108.15 3.43856 1.11557 0
M  V30 11452 O 1107.87 4.38015 0.0863707 0
M  V30 11453 C 1109.37 4.02627 1.8549 0
M  V30 11454 H 1106.59 0.657529 0.133778 0
M  V30 11455 H 1109.13 2.03095 -0.239296 0
M  V30 11456 H 1107.29 3.4205 1.81881 0
M  V30 11457 H 1107.7 5.21842 0.527363 0
M  V30 11458 H 1109.18 5.04985 2.22923 0
M  V30 11459 H 1109.65 3.43239 2.74014 0
M  V30 11460 H 1110.26 4.08058 1.19869 0
M  V30 11461 N 1108.58 -0.128553 1.57075 0
M  V30 11462 C 1109.51 -1.15953 2.02675 0
M  V30 11463 C 1110.49 -1.43743 0.909501 0
M  V30 11464 O 1111.67 -1.54348 1.17857 0
M  V30 11465 C 1108.8 -2.48813 2.423 0
M  V30 11466 C 1107.76 -2.35506 3.57381 0
M  V30 11467 C 1107.08 -3.73243 3.82875 0
M  V30 11468 C 1108.38 -1.82359 4.89431 0
M  V30 11469 H 1110.08 -0.780283 2.89054 0
M  V30 11470 H 1107.62 -0.373896 1.39061 0
M  V30 11471 H 1109.57 -3.21179 2.72804 0
M  V30 11472 H 1108.3 -2.88609 1.52881 0
M  V30 11473 H 1106.96 -1.6559 3.27071 0
M  V30 11474 H 1106.61 -4.10507 2.90677 0
M  V30 11475 H 1106.31 -3.65195 4.60333 0
M  V30 11476 H 1107.83 -4.47128 4.15823 0
M  V30 11477 H 1109.24 -2.44533 5.18533 0
M  V30 11478 H 1107.64 -1.85156 5.70822 0
M  V30 11479 H 1108.71 -0.780478 4.78578 0
M  V30 11480 N 1110.05 -1.5248 -0.398459 0
M  V30 11481 C 1111 -1.76585 -1.48615 0
M  V30 11482 C 1111.97 -0.608677 -1.54546 0
M  V30 11483 O 1113.16 -0.847383 -1.7095 0
M  V30 11484 C 1110.3 -1.93201 -2.8595 0
M  V30 11485 C 1109.41 -3.20875 -2.89246 0
M  V30 11486 C 1108.54 -3.27862 -4.17947 0
M  V30 11487 C 1107.58 -4.49697 -4.15258 0
M  V30 11488 N 1106.72 -4.54017 -5.35549 0
M  V30 11489 H 1111.56 -2.69412 -1.27362 0
M  V30 11490 H 1109.1 -1.33487 -0.618031 0
M  V30 11491 H 1111.05 -2.00819 -3.65688 0
M  V30 11492 H 1109.68 -1.03743 -3.05675 0
M  V30 11493 H 1108.74 -3.22376 -2.01935 0
M  V30 11494 H 1110.05 -4.1066 -2.83125 0
M  V30 11495 H 1109.2 -3.34611 -5.06083 0
M  V30 11496 H 1107.94 -2.36035 -4.26777 0
M  V30 11497 H 1106.95 -4.43083 -3.25511 0
M  V30 11498 H 1108.17 -5.42831 -4.08059 0
M  V30 11499 H 1106.12 -3.65078 -5.45027 0
M  V30 11500 H 1106.03 -5.37661 -5.31466 0
M  V30 11501 H 1107.3 -4.65009 -6.25609 0
M  V30 11502 O 1111.57 0.544374 -1.52049 0
M  V30 11503 H 1112.26 1.19952 -1.5209 0
M  V30 END ATOM
M  V30 BEGIN BOND
M  V30 END BOND
M  V30 END CTAB
M  END
$$$$
