drugbank_target|Q12882 Dihydropyrimidine dehydrogenase [NADP(+)] (DB02303; DB02338; DB03048; DB03147; DB03247; DB03419; DB03516; DB03554; DB09257; DB09327)
 OpenBabel12092119443D

  0  0  0     0  0            999 V3000
M  V30 BEGIN CTAB
M  V30 COUNTS 15665 15825 0 0 0
M  V30 BEGIN ATOM
M  V30 1 H -0.908 1.98254 -0.117106 0
M  V30 2 N 0 1.576 0 0
M  V30 3 C 0.933 2.03868 1.02534 0
M  V30 4 C 1.911 0.928543 1.3348 0
M  V30 5 O 3.095 1.19667 1.45644 0
M  V30 6 C 0.222 2.43627 2.35294 0
M  V30 7 C -0.732 3.65373 2.2001 0
M  V30 8 S 0.101 5.13292 1.52614 0
M  V30 9 C 1.257 5.56322 2.86805 0
M  V30 10 H 1.49 2.90518 0.631377 0
M  V30 11 H -0.977 1.52953 0.210867 0
M  V30 12 H 0.981 2.67203 3.11629 0
M  V30 13 H -0.358 1.57376 2.7183 0
M  V30 14 H -1.165 3.90944 3.18086 0
M  V30 15 H -1.563 3.418 1.51819 0
M  V30 16 H 0.729 5.58782 3.83104 0
M  V30 17 H 1.672 6.56266 2.65933 0
M  V30 18 H 2.08 4.83886 2.90714 0
M  V30 19 N 1.4781 -0.272755 1.55222 0
M  V30 20 C 2.4411 -1.32041 1.87344 0
M  V30 21 C 3.4411 -1.42342 0.74803 0
M  V30 22 O 4.6311 -1.41488 1.0162 0
M  V30 23 C 1.7631 -2.70173 2.07893 0
M  V30 24 H 2.9561 -1.04789 2.80997 0
M  V30 25 H 0.5091 -0.51083 1.47717 0
M  V30 26 H 1.2441 -3.02605 1.16622 0
M  V30 27 H 1.0291 -2.64082 2.89833 0
M  V30 28 H 2.5191 -3.45869 2.34017 0
M  V30 29 N 2.9562 -1.48159 -0.537278 0
M  V30 30 C 4.3672 -1.49429 -1.11928 0
M  V30 31 C 4.7182 -0.26 -1.9447 0
M  V30 32 O 3.8432 0.633489 -2.0692 0
M  V30 33 C 4.4382 -2.70758 -2.03656 0
M  V30 34 C 2.9972 -2.74923 -2.57088 0
M  V30 35 C 2.1442 -2.42835 -1.3389 0
M  V30 36 H 5.0952 -1.55381 -0.322886 0
M  V30 37 H 5.1162 -2.48861 -2.87834 0
M  V30 38 H 4.6282 -3.60575 -1.43553 0
M  V30 39 H 2.7292 -1.89296 -3.20933 0
M  V30 40 H 2.8422 -3.76157 -2.9672 0
M  V30 41 H 1.2062 -1.93836 -1.65226 0
M  V30 42 H 1.9892 -3.34884 -0.755504 0
M  V30 43 N 4.4343 0.785586 -1.36625 0
M  V30 44 C 5.6803 1.54591 -1.31261 0
M  V30 45 C 6.0133 1.93906 0.106823 0
M  V30 46 O 5.2883 1.63007 1.06108 0
M  V30 47 C 5.5713 2.82038 -2.23889 0
M  V30 48 C 5.4243 2.49066 -3.74548 0
M  V30 49 C 6.7433 3.83887 -2.15217 0
M  V30 50 H 3.8623 0.560846 -0.478143 0
M  V30 51 H 6.5043 0.902278 -1.67209 0
M  V30 52 H 4.6543 3.36961 -1.93363 0
M  V30 53 H 6.3263 2.00164 -4.15611 0
M  V30 54 H 4.5693 1.81954 -3.93796 0
M  V30 55 H 5.2403 3.40109 -4.34776 0
M  V30 56 H 7.7163 3.38421 -2.42096 0
M  V30 57 H 6.5923 4.70806 -2.82193 0
M  V30 58 H 6.8533 4.27131 -1.14068 0
M  V30 59 N 5.9124 1.20967 1.01018 0
M  V30 60 C 6.8424 0.988272 2.11555 0
M  V30 61 C 7.8234 -0.0849778 1.69888 0
M  V30 62 O 9.0084 0.0738202 1.9406 0
M  V30 63 C 6.1384 0.546528 3.42973 0
M  V30 64 C 5.0924 1.56375 3.9841 0
M  V30 65 C 4.4184 0.97842 5.25672 0
M  V30 66 C 5.7184 2.94922 4.31066 0
M  V30 67 H 7.4124 1.91276 2.30334 0
M  V30 68 H 4.9584 0.921073 1.1069 0
M  V30 69 H 6.9114 0.378839 4.19694 0
M  V30 70 H 5.6354 -0.413598 3.23971 0
M  V30 71 H 4.2944 1.71891 3.23804 0
M  V30 72 H 3.9424 0.0101688 5.02999 0
M  V30 73 H 3.6424 1.65784 5.63728 0
M  V30 74 H 5.1664 0.821939 6.05043 0
M  V30 75 H 6.5804 2.8288 4.9865 0
M  V30 76 H 4.9774 3.5983 4.80253 0
M  V30 77 H 6.0474 3.4616 3.39561 0
M  V30 78 N 7.3905 -1.2043 1.01659 0
M  V30 79 C 8.6155 -1.94318 0.724942 0
M  V30 80 C 9.0405 -1.74266 -0.708034 0
M  V30 81 O 8.3985 -1.03694 -1.48719 0
M  V30 82 C 8.4465 -3.44486 1.06591 0
M  V30 83 O 7.5505 -4.12017 0.177599 0
M  V30 84 H 6.8915 -0.60708 0.26898 0
M  V30 85 H 9.4215 -1.52861 1.35995 0
M  V30 86 H 9.4315 -3.95106 1.01762 0
M  V30 87 H 8.1065 -3.58404 2.10997 0
M  V30 88 H 6.6835 -3.71821 0.283421 0
M  V30 89 N 8.8686 -0.792821 -1.36206 0
M  V30 90 C 9.8156 -0.191653 -2.30003 0
M  V30 91 C 10.7856 0.666453 -1.52143 0
M  V30 92 O 11.9706 0.61442 -1.80636 0
M  V30 93 C 9.1106 0.664848 -3.38635 0
M  V30 94 C 8.2236 -0.212175 -4.31479 0
M  V30 95 C 7.3586 0.651022 -5.27196 0
M  V30 96 C 6.3976 -0.227247 -6.11678 0
M  V30 97 N 5.5346 0.595127 -6.99573 0
M  V30 98 H 10.3746 -0.996978 -2.80828 0
M  V30 99 H 7.9116 -0.503206 -1.38225 0
M  V30 100 H 9.8696 1.17645 -4.00269 0
M  V30 101 H 8.4996 1.43557 -2.89122 0
M  V30 102 H 7.5516 -0.841777 -3.70969 0
M  V30 103 H 8.8636 -0.888751 -4.90818 0
M  V30 104 H 8.0176 1.2283 -5.94136 0
M  V30 105 H 6.7566 1.36121 -4.68319 0
M  V30 106 H 5.7616 -0.816904 -5.43697 0
M  V30 107 H 6.9866 -0.93509 -6.72631 0
M  V30 108 H 4.9326 1.28955 -6.432 0
M  V30 109 H 4.8496 -0.0236952 -7.55996 0
M  V30 110 H 6.1176 1.15613 -7.70879 0
M  V30 111 N 10.3467 1.47872 -0.545128 0
M  V30 112 C 11.6237 1.9554 0.0485222 0
M  V30 113 C 12.0037 1.4876 1.49779 0
M  V30 114 O 11.3517 0.720925 2.16829 0
M  V30 115 C 11.5617 3.48898 -0.084417 0
M  V30 116 C 12.9097 4.24547 0.0671239 0
M  V30 117 O 13.9337 3.56198 -0.0113649 0
M  V30 118 O 12.7927 5.45999 0.233882 0
M  V30 119 H 9.8867 0.823957 0.0708773 0
M  V30 120 H 12.4327 1.58327 -0.610798 0
M  V30 121 H 11.2047 3.75714 -1.09337 0
M  V30 122 H 10.8277 3.92845 0.613066 0
M  V30 123 N 11.8248 0.280983 1.55075 0
M  V30 124 C 13.0498 -0.340154 2.04592 0
M  V30 125 C 13.4748 -1.48246 1.15779 0
M  V30 126 O 12.8328 -1.80614 0.15761 0
M  V30 127 C 12.8808 -0.793104 3.5177 0
M  V30 128 O 11.9848 -1.89981 3.66034 0
M  V30 129 H 11.3258 -0.0694289 0.66036 0
M  V30 130 H 13.8558 0.416993 2.00306 0
M  V30 131 H 13.8658 -1.08729 3.93245 0
M  V30 132 H 12.5408 0.0426163 4.15878 0
M  V30 133 H 11.1178 -1.60771 3.36463 0
M  V30 134 N 13.3029 -1.57598 0.00835791 0
M  V30 135 C 14.2659 -2.07884 -0.965242 0
M  V30 136 C 15.2659 -0.989825 -1.26725 0
M  V30 137 O 16.4559 -1.25218 -1.21104 0
M  V30 138 C 13.5879 -2.52731 -2.28779 0
M  V30 139 H 14.7809 -2.95178 -0.530112 0
M  V30 140 H 12.3339 -1.54458 -0.239283 0
M  V30 141 H 13.0689 -1.68705 -2.76964 0
M  V30 142 H 12.8539 -3.32272 -2.08177 0
M  V30 143 H 14.3439 -2.91933 -2.98605 0
M  V30 144 N 14.781 0.264519 -1.55364 0
M  V30 145 C 16.058 1.01677 -1.67096 0
M  V30 146 C 16.438 2.03996 -0.543015 0
M  V30 147 O 15.786 2.23907 0.45585 0
M  V30 148 C 15.996 1.66596 -3.0667 0
M  V30 149 C 17.344 2.17442 -3.64697 0
M  V30 150 O 18.368 1.76568 -3.09358 0
M  V30 151 O 17.227 2.92439 -4.61673 0
M  V30 152 H 14.321 0.472161 -0.678965 0
M  V30 153 H 16.867 0.259703 -1.67701 0
M  V30 154 H 15.639 0.924962 -3.80211 0
M  V30 155 H 15.262 2.48968 -3.10001 0
M  V30 156 N 16.2591 1.48442 0.529413 0
M  V30 157 C 17.5081 1.55742 1.28169 0
M  V30 158 C 17.8211 0.236511 1.94165 0
M  V30 159 O 19.0271 0.187761 2.7085 0
M  V30 160 C 17.4831 2.74667 2.32564 0
M  V30 161 C 17.0911 4.13402 1.72636 0
M  V30 162 C 18.8351 2.9128 3.08798 0
M  V30 163 C 16.7421 5.23587 2.74975 0
M  V30 164 H 15.6721 0.579796 0.48203 0
M  V30 165 H 18.3231 1.74776 0.559056 0
M  V30 166 H 16.7051 2.49067 3.07866 0
M  V30 167 H 17.8791 4.49022 1.03519 0
M  V30 168 H 16.1941 4.0191 1.08892 0
M  V30 169 H 18.7911 3.70767 3.85274 0
M  V30 170 H 19.1341 2.00757 3.64695 0
M  V30 171 H 19.6671 3.16782 2.40611 0
M  V30 172 H 16.4061 6.16076 2.23897 0
M  V30 173 H 15.9261 4.92454 3.42417 0
M  V30 174 H 17.6051 5.51724 3.37949 0
M  V30 175 N 17.7372 -0.778329 1.37039 0
M  V30 176 C 18.6472 -1.92253 1.34446 0
M  V30 177 C 19.6632 -1.72267 0.244991 0
M  V30 178 O 20.8392 -1.95615 0.479258 0
M  V30 179 C 17.9042 -3.27282 1.144 0
M  V30 180 C 16.9652 -3.59969 2.33925 0
M  V30 181 C 16.1982 -4.88555 2.14825 0
M  V30 182 O 16.4212 -5.59113 1.12912 0
M  V30 183 O 15.3552 -5.20153 3.02861 0
M  V30 184 H 19.1812 -1.97392 2.30803 0
M  V30 185 H 16.7662 -0.920154 1.17701 0
M  V30 186 H 18.6482 -4.08062 1.05182 0
M  V30 187 H 17.3232 -3.23011 0.211124 0
M  V30 188 H 16.2302 -2.7945 2.48714 0
M  V30 189 H 17.5632 -3.68976 3.25757 0
M  V30 190 N 19.2153 -1.21501 -1.00376 0
M  V30 191 C 20.4403 -1.05977 -1.78279 0
M  V30 192 C 20.8653 0.385994 -1.84097 0
M  V30 193 O 20.2233 1.27849 -1.28547 0
M  V30 194 C 20.2713 -1.66302 -3.19963 0
M  V30 195 O 19.3753 -0.909333 -4.0225 0
M  V30 196 H 18.7163 -0.372906 -0.549397 0
M  V30 197 H 21.2463 -1.6107 -1.26165 0
M  V30 198 H 21.2563 -1.70574 -3.70632 0
M  V30 199 H 19.9313 -2.71515 -3.15043 0
M  V30 200 H 18.5083 -0.941795 -3.60811 0
M  V30 201 N 20.6934 1.19889 -1.02296 0
M  V30 202 C 21.9424 1.88743 -0.711257 0
M  V30 203 C 22.2554 1.80112 0.762817 0
M  V30 204 O 23.4614 2.44161 1.18733 0
M  V30 205 C 21.9174 3.38525 -1.22185 0
M  V30 206 C 21.5254 3.55727 -2.72328 0
M  V30 207 C 23.2694 4.12893 -0.985864 0
M  V30 208 C 21.1764 4.99369 -3.16835 0
M  V30 209 H 20.1064 0.706885 -0.262353 0
M  V30 210 H 22.7574 1.35586 -1.23648 0
M  V30 211 H 21.1394 3.91044 -0.624571 0
M  V30 212 H 22.3134 3.13564 -3.3766 0
M  V30 213 H 20.6284 2.94739 -2.9414 0
M  V30 214 H 23.2254 5.18813 -1.29374 0
M  V30 215 H 23.5684 4.16228 0.0775055 0
M  V30 216 H 24.1014 3.66494 -1.54684 0
M  V30 217 H 20.8404 5.01193 -4.22476 0
M  V30 218 H 20.3604 5.42317 -2.56228 0
M  V30 219 H 22.0394 5.67988 -3.09837 0
M  V30 220 N 22.1715 0.800033 1.35784 0
M  V30 221 C 23.1015 0.220184 2.3246 0
M  V30 222 C 24.0825 -0.65073 1.57161 0
M  V30 223 O 25.2675 -0.582359 1.85263 0
M  V30 224 C 22.3975 -0.637353 3.41402 0
M  V30 225 C 21.3515 0.134531 4.27789 0
M  V30 226 C 20.6775 -0.844285 5.27992 0
M  V30 227 C 21.9775 1.32979 5.05088 0
M  V30 228 H 23.6715 1.02787 2.81203 0
M  V30 229 H 21.2175 0.495717 1.35199 0
M  V30 230 H 23.1705 -1.05302 4.08031 0
M  V30 231 H 21.8945 -1.47785 2.91251 0
M  V30 232 H 20.5535 0.531296 3.6273 0
M  V30 233 H 20.2015 -1.68011 4.74111 0
M  V30 234 H 19.9015 -0.332184 5.8666 0
M  V30 235 H 21.4255 -1.2583 5.97494 0
M  V30 236 H 22.8395 0.98934 5.64699 0
M  V30 237 H 21.2365 1.77593 5.7322 0
M  V30 238 H 22.3065 2.11978 4.36111 0
M  V30 239 N 23.6496 -1.47581 0.552962 0
M  V30 240 C 24.6126 -2.28439 -0.186605 0
M  V30 241 C 25.6126 -1.36706 -0.84665 0
M  V30 242 O 26.8026 -1.59378 -0.703164 0
M  V30 243 C 23.9346 -3.16264 -1.2724 0
M  V30 244 H 25.1276 -2.95294 0.523609 0
M  V30 245 H 22.6806 -1.532 0.309745 0
M  V30 246 H 23.4156 -2.54091 -2.01514 0
M  V30 247 H 23.2006 -3.83769 -0.803968 0
M  V30 248 H 24.6906 -3.77198 -1.79196 0
M  V30 249 N 25.1277 -0.289203 -1.54924 0
M  V30 250 C 26.0577 0.58549 -2.2604 0
M  V30 251 C 27.0387 1.14753 -1.25562 0
M  V30 252 O 28.2237 1.17906 -1.54311 0
M  V30 253 C 25.3537 1.76305 -2.99222 0
M  V30 254 C 24.3077 1.33191 -4.06748 0
M  V30 255 C 23.6337 2.5937 -4.6758 0
M  V30 256 C 24.9337 0.471775 -5.20165 0
M  V30 257 H 26.6277 -0.00763532 -2.99399 0
M  V30 258 H 24.1737 -0.00511229 -1.43999 0
M  V30 259 H 26.1267 2.38097 -3.47689 0
M  V30 260 H 24.8507 2.38223 -2.23422 0
M  V30 261 H 23.5097 0.737121 -3.59113 0
M  V30 262 H 23.1577 3.19576 -3.88433 0
M  V30 263 H 22.8577 2.31228 -5.40192 0
M  V30 264 H 24.3817 3.21985 -5.18804 0
M  V30 265 H 25.7957 0.995056 -5.64599 0
M  V30 266 H 24.1927 0.284639 -5.99425 0
M  V30 267 H 25.2627 -0.506041 -4.82252 0
M  V30 268 N 26.6058 1.57591 -0.0167156 0
M  V30 269 C 27.5538 2.10604 0.987353 0
M  V30 270 C 28.5478 1.02977 1.34507 0
M  V30 271 O 29.7538 1.21425 1.32875 0
M  V30 272 H 26.1288 0.672695 0.336134 0
M  V30 273 H 28.0998 2.93925 0.514817 0
M  V30 274 C 26.8488 2.6382 2.26483 0
M  V30 275 H 26.1718 3.46278 1.99829 0
M  V30 276 H 27.6118 3.04573 2.94977 0
M  V30 277 C 26.0708 1.55992 2.9861 0
M  V30 278 O 26.6008 0.952521 3.90243 0
M  V30 279 N 24.8068 1.28335 2.60727 0
M  V30 280 H 24.3538 1.77914 1.86291 0
M  V30 281 H 24.3118 0.564115 3.09298 0
M  V30 282 N 28.0839 -0.256276 1.55502 0
M  V30 283 C 29.4949 -0.826068 1.67431 0
M  V30 284 C 29.8459 -1.86396 0.612446 0
M  V30 285 O 28.9709 -2.15031 -0.243025 0
M  V30 286 C 29.5659 -1.50512 3.03532 0
M  V30 287 C 28.1249 -2.02273 3.17431 0
M  V30 288 C 27.2719 -0.870548 2.63281 0
M  V30 289 H 30.2229 -0.0322728 1.58667 0
M  V30 290 H 30.2439 -2.37279 2.97454 0
M  V30 291 H 29.7559 -0.749484 3.80794 0
M  V30 292 H 27.8569 -2.80746 2.44974 0
M  V30 293 H 27.9699 -2.22655 4.24219 0
M  V30 294 H 26.3339 -1.26851 2.20864 0
M  V30 295 H 27.1169 -0.128149 3.43061 0
M  V30 296 N 29.562 -1.4872 -0.521534 0
M  V30 297 C 30.978 -1.35028 -0.850855 0
M  V30 298 C 31.178 -0.367712 -1.98116 0
M  V30 299 O 30.234 0.208037 -2.51642 0
M  V30 300 C 31.547 -2.75263 -1.21041 0
M  V30 301 C 33.095 -2.83813 -1.31981 0
M  V30 302 C 33.57 -4.24769 -1.71276 0
M  V30 303 N 35.061 -4.27482 -1.78363 0
M  V30 304 C 35.796 -5.33494 -2.1017 0
M  V30 305 N 35.292 -6.49775 -2.40343 0
M  V30 306 N 37.085 -5.20894 -2.11248 0
M  V30 307 H 29.236 -2.11214 0.22413 0
M  V30 308 H 31.499 -0.947252 0.0376439 0
M  V30 309 H 31.205 -3.48765 -0.453415 0
M  V30 310 H 31.079 -3.09327 -2.15863 0
M  V30 311 H 33.466 -2.10561 -2.06756 0
M  V30 312 H 33.547 -2.53358 -0.352596 0
M  V30 313 H 33.191 -4.9854 -0.970588 0
M  V30 314 H 33.121 -4.52673 -2.69062 0
M  V30 315 H 35.612 -3.43611 -1.57288 0
M  V30 316 H 35.925 -7.26402 -2.63743 0
M  V30 317 H 34.27 -6.53035 -2.37844 0
M  V30 318 H 37.461 -4.29065 -1.87139 0
M  V30 319 H 37.634 -6.03612 -2.35704 0
M  V30 320 N 31.0401 0.771051 -1.3745 0
M  V30 321 C 32.2681 1.56015 -1.35893 0
M  V30 322 C 32.6831 1.88718 0.0555523 0
M  V30 323 O 32.0401 1.51502 1.01752 0
M  V30 324 C 32.0911 2.87001 -2.19801 0
M  V30 325 O 31.8121 2.557 -3.55738 0
M  V30 326 C 33.3131 3.81228 -2.26231 0
M  V30 327 H 30.5331 0.483317 -0.465453 0
M  V30 328 H 33.0771 0.955611 -1.80799 0
M  V30 329 H 31.2321 3.43877 -1.78402 0
M  V30 330 H 31.6461 3.39584 -3.99729 0
M  V30 331 H 33.1201 4.70139 -2.89263 0
M  V30 332 H 33.5971 4.20409 -1.27093 0
M  V30 333 H 34.2031 3.30281 -2.67945 0
M  V30 334 N 32.5182 1.22032 0.997298 0
M  V30 335 C 33.4502 0.944263 2.08845 0
M  V30 336 C 34.4632 -0.0754663 1.62625 0
M  V30 337 O 35.6522 0.157994 1.77799 0
M  V30 338 C 32.7522 0.397723 3.36558 0
M  V30 339 C 31.9252 1.47362 4.11829 0
M  V30 340 C 30.9842 0.934951 5.17827 0
M  V30 341 O 30.0102 1.62016 5.45655 0
M  V30 342 N 31.2122 -0.245895 5.79979 0
M  V30 343 H 33.9772 1.88363 2.33109 0
M  V30 344 H 31.5382 1.12661 1.16272 0
M  V30 345 H 33.5302 0.0227771 4.04694 0
M  V30 346 H 32.1002 -0.446646 3.09393 0
M  V30 347 H 31.3202 2.02208 3.38386 0
M  V30 348 H 32.6082 2.19764 4.58891 0
M  V30 349 H 32.0062 -0.819475 5.59733 0
M  V30 350 H 30.5632 -0.562272 6.4937 0
M  V30 351 N 33.9963 -1.19345 1.0293 0
M  V30 352 C 35.2243 -1.92997 0.745644 0
M  V30 353 C 35.6393 -1.75519 -0.695589 0
M  V30 354 O 34.9963 -1.07737 -1.47306 0
M  V30 355 C 35.0473 -3.44741 1.08792 0
M  V30 356 O 34.7683 -3.61658 2.47256 0
M  V30 357 C 36.2693 -4.35515 0.827129 0
M  V30 358 H 33.4893 -0.613042 0.272801 0
M  V30 359 H 36.0333 -1.51473 1.3739 0
M  V30 360 H 34.1883 -3.84097 0.504832 0
M  V30 361 H 34.6023 -4.55514 2.60015 0
M  V30 362 H 36.0763 -5.40589 1.11658 0
M  V30 363 H 36.5533 -4.38552 -0.238436 0
M  V30 364 H 37.1593 -4.01841 1.39297 0
M  V30 365 N 35.4744 -0.807222 -1.35358 0
M  V30 366 C 36.4244 -0.190706 -2.27201 0
M  V30 367 C 37.4084 0.635838 -1.47804 0
M  V30 368 O 38.6004 0.492991 -1.69996 0
M  V30 369 C 35.7294 0.659337 -3.36909 0
M  V30 370 C 34.8154 -0.176971 -4.23731 0
M  V30 371 N 35.2064 -1.24029 -4.90357 0
M  V30 372 C 33.5044 0.0412953 -4.45981 0
M  V30 373 C 34.2054 -1.75092 -5.54723 0
M  V30 374 N 33.1814 -1.05727 -5.33219 0
M  V30 375 H 36.9834 -1.0043 -2.76208 0
M  V30 376 H 34.4974 -0.648445 -1.48892 0
M  V30 377 H 36.4944 1.11706 -4.01656 0
M  V30 378 H 35.1544 1.47127 -2.89454 0
M  V30 379 H 36.1654 -1.62295 -4.91814 0
M  V30 380 H 32.8424 0.82232 -4.09322 0
M  V30 381 H 34.2324 -2.63963 -6.17878 0
M  V30 382 N 36.9525 1.47285 -0.560781 0
M  V30 383 C 37.9155 2.28535 0.174488 0
M  V30 384 C 38.9155 1.37153 0.839388 0
M  V30 385 O 40.1055 1.59748 0.694702 0
M  V30 386 C 37.2375 3.16934 1.25561 0
M  V30 387 H 38.4305 2.95012 -0.539262 0
M  V30 388 H 35.9835 1.53034 -0.317865 0
M  V30 389 H 36.7185 2.55157 2.00164 0
M  V30 390 H 36.5035 3.8419 0.783604 0
M  V30 391 H 37.9935 3.78143 1.77193 0
M  V30 392 N 38.4306 0.297415 1.54768 0
M  V30 393 C 39.6586 -0.315623 2.04478 0
M  V30 394 C 40.0736 -1.47792 1.17486 0
M  V30 395 O 39.4306 -1.81404 0.19971 0
M  V30 396 C 39.4816 -0.7753 3.53088 0
M  V30 397 O 39.2026 0.340732 4.36773 0
M  V30 398 C 40.7036 -1.45386 4.18781 0
M  V30 399 H 37.9236 -0.0690887 0.667434 0
M  V30 400 H 40.4676 0.436003 1.99798 0
M  V30 401 H 38.6226 -1.47696 3.58141 0
M  V30 402 H 39.0366 -0.0165035 5.24497 0
M  V30 403 H 40.5106 -1.72669 5.24299 0
M  V30 404 H 40.9876 -2.39275 3.68299 0
M  V30 405 H 41.5936 -0.795475 4.17795 0
M  V30 406 N 39.9087 -1.5758 0.0250728 0
M  V30 407 C 40.8387 -2.13007 -0.956575 0
M  V30 408 C 41.8197 -1.0452 -1.342 0
M  V30 409 O 43.0047 -1.32332 -1.42133 0
M  V30 410 C 40.1347 -2.65386 -2.24026 0
M  V30 411 C 39.0887 -3.78623 -1.99571 0
M  V30 412 C 38.4147 -4.17414 -3.3417 0
M  V30 413 C 39.7147 -5.04867 -1.33814 0
M  V30 414 H 41.4087 -2.9528 -0.494991 0
M  V30 415 H 38.9547 -1.42042 -0.236651 0
M  V30 416 H 40.9077 -3.02794 -2.93076 0
M  V30 417 H 39.6317 -1.80268 -2.72343 0
M  V30 418 H 38.2907 -3.41646 -1.32941 0
M  V30 419 H 37.9387 -3.29284 -3.80238 0
M  V30 420 H 37.6387 -4.93719 -3.18615 0
M  V30 421 H 39.1627 -4.57402 -4.04495 0
M  V30 422 H 40.5767 -5.39888 -1.92857 0
M  V30 423 H 38.9737 -5.86144 -1.28669 0
M  V30 424 H 40.0437 -4.83904 -0.310561 0
M  V30 425 N 41.3868 0.248026 -1.55636 0
M  V30 426 C 42.6268 0.983592 -1.79178 0
M  V30 427 C 42.9908 1.82567 -0.594414 0
M  V30 428 O 44.1918 2.59292 -0.708583 0
M  V30 429 C 42.4628 1.82228 -3.07454 0
M  V30 430 S 44.0218 2.61709 -3.52213 0
M  V30 431 H 40.8398 0.330866 -0.629324 0
M  V30 432 H 43.4418 0.251562 -1.93875 0
M  V30 433 H 42.1458 1.19333 -3.92668 0
M  V30 434 H 41.6768 2.59708 -2.95492 0
M  V30 435 H 43.6918 3.84655 -3.13457 0
M  V30 436 N 42.8649 1.48995 0.513639 0
M  V30 437 C 44.0899 1.61792 1.29762 0
M  V30 438 C 44.5149 0.284475 1.85936 0
M  V30 439 O 43.8729 -0.746185 1.65232 0
M  V30 440 C 43.9209 2.67993 2.41272 0
M  V30 441 O 43.0249 2.26287 3.44772 0
M  V30 442 H 42.3659 0.541963 0.38363 0
M  V30 443 H 44.8959 1.95097 0.616307 0
M  V30 444 H 44.9059 2.89772 2.87221 0
M  V30 445 H 43.5809 3.64791 1.9975 0
M  V30 446 H 42.1579 2.14788 3.04829 0
M  V30 447 N 44.343 -0.763751 1.37857 0
M  V30 448 C 45.571 -1.55293 1.36718 0
M  V30 449 C 45.986 -1.88745 -0.0455434 0
M  V30 450 O 45.343 -1.52039 -1.00947 0
M  V30 451 C 45.394 -2.85831 2.2132 0
M  V30 452 O 45.115 -2.5381 3.57089 0
M  V30 453 C 46.616 -3.80023 2.28249 0
M  V30 454 H 43.836 -0.480841 0.468009 0
M  V30 455 H 46.38 -0.946009 1.81303 0
M  V30 456 H 44.535 -3.42926 1.80223 0
M  V30 457 H 44.949 -3.37459 4.01524 0
M  V30 458 H 46.423 -4.68599 2.91752 0
M  V30 459 H 46.9 -4.1973 1.2932 0
M  V30 460 H 47.506 -3.28855 2.69693 0
M  V30 461 N 45.8211 -1.22559 -0.990812 0
M  V30 462 C 47.0461 -1.07862 -1.77145 0
M  V30 463 C 47.4711 0.366447 -1.84496 0
M  V30 464 O 46.8291 1.26478 -1.29896 0
M  V30 465 C 46.8771 -1.69686 -3.18181 0
M  V30 466 O 45.9811 -0.951946 -4.01263 0
M  V30 467 H 45.3221 -0.378712 -0.545411 0
M  V30 468 H 47.8521 -1.62399 -1.2445 0
M  V30 469 H 47.8621 -1.74496 -3.68802 0
M  V30 470 H 46.5371 -2.74841 -3.12146 0
M  V30 471 H 45.1141 -0.980011 -3.59792 0
M  V30 472 N 47.2992 1.18797 -1.03562 0
M  V30 473 C 48.2622 2.20464 -0.626769 0
M  V30 474 C 49.2622 1.57721 0.313173 0
M  V30 475 O 50.4522 1.73917 0.0992615 0
M  V30 476 C 47.5842 3.40802 0.0818498 0
M  V30 477 H 48.7772 2.58149 -1.5264 0
M  V30 478 H 46.3302 1.32593 -0.827578 0
M  V30 479 H 47.0652 3.08642 0.995518 0
M  V30 480 H 46.8502 3.8758 -0.593652 0
M  V30 481 H 48.3402 4.16092 0.354584 0
M  V30 482 N 48.7773 0.814389 1.34928 0
M  V30 483 C 49.7243 0.22822 2.29669 0
M  V30 484 C 50.6943 -0.642164 1.53184 0
M  V30 485 O 51.8793 -0.585605 1.81591 0
M  V30 486 C 49.0193 -0.61089 3.3965 0
M  V30 487 C 48.1323 0.280792 4.31086 0
M  V30 488 C 47.2673 -0.567067 5.28165 0
M  V30 489 C 46.3063 0.324531 6.11239 0
M  V30 490 N 45.4433 -0.483756 7.00431 0
M  V30 491 H 50.2833 1.04153 2.79206 0
M  V30 492 H 47.8203 0.525133 1.37407 0
M  V30 493 H 49.7783 -1.11263 4.0209 0
M  V30 494 H 48.4083 -1.38939 2.91369 0
M  V30 495 H 47.4603 0.900688 3.69583 0
M  V30 496 H 48.7723 0.966723 4.89342 0
M  V30 497 H 47.9263 -1.13363 5.96015 0
M  V30 498 H 46.6653 -1.28654 4.70425 0
M  V30 499 H 45.6703 0.903298 5.42329 0
M  V30 500 H 46.8953 1.04198 6.71059 0
M  V30 501 H 44.8413 -1.18706 6.45171 0
M  V30 502 H 44.7583 0.143965 7.55863 0
M  V30 503 H 46.0263 -1.03334 7.7262 0
M  V30 504 N 50.2554 -1.46986 0.568584 0
M  V30 505 C 51.2024 -2.30153 -0.172707 0
M  V30 506 C 52.1724 -1.39759 -0.897586 0
M  V30 507 O 53.3574 -1.68716 -0.891044 0
M  V30 508 C 50.4974 -3.23952 -1.1895 0
M  V30 509 C 49.6104 -4.29441 -0.469517 0
M  V30 510 C 48.7454 -5.1038 -1.47259 0
M  V30 511 C 47.7844 -6.07632 -0.738225 0
M  V30 512 N 46.9214 -6.8149 -1.68868 0
M  V30 513 H 51.7614 -2.93019 0.542596 0
M  V30 514 H 49.2984 -1.44422 0.279401 0
M  V30 515 H 51.2564 -3.76767 -1.79173 0
M  V30 516 H 49.8864 -2.62926 -1.87269 0
M  V30 517 H 48.9384 -3.79594 0.247467 0
M  V30 518 H 50.2504 -4.98689 0.105241 0
M  V30 519 H 49.4044 -5.67402 -2.14803 0
M  V30 520 H 48.1434 -4.4106 -2.08128 0
M  V30 521 H 47.1484 -5.49778 -0.0489293 0
M  V30 522 H 48.3734 -6.78966 -0.135129 0
M  V30 523 H 46.3194 -6.14891 -2.28573 0
M  V30 524 H 46.2364 -7.46948 -1.16636 0
M  V30 525 H 47.5044 -7.43078 -2.3549 0
M  V30 526 N 51.7335 -0.305618 -1.54608 0
M  V30 527 C 52.6635 0.561482 -2.26649 0
M  V30 528 C 53.6445 1.13415 -1.26772 0
M  V30 529 O 54.8295 1.16262 -1.55553 0
M  V30 530 C 51.9595 1.73122 -3.01075 0
M  V30 531 C 50.9135 1.2887 -4.08138 0
M  V30 532 C 50.2395 2.54396 -4.70305 0
M  V30 533 C 51.5395 0.416578 -5.20636 0
M  V30 534 H 53.2335 -0.0393902 -2.99374 0
M  V30 535 H 50.7795 -0.020385 -1.43986 0
M  V30 536 H 52.7325 2.34396 -3.50195 0
M  V30 537 H 51.4565 2.3584 -2.25936 0
M  V30 538 H 50.1155 0.698991 -3.59875 0
M  V30 539 H 49.7635 3.15439 -3.918 0
M  V30 540 H 49.4635 2.25486 -5.42614 0
M  V30 541 H 50.9875 3.16464 -5.2219 0
M  V30 542 H 52.4015 0.935116 -5.65622 0
M  V30 543 H 50.7985 0.221046 -5.99693 0
M  V30 544 H 51.8685 -0.557162 -4.81688 0
M  V30 545 N 53.2116 1.57565 -0.0334293 0
M  V30 546 C 54.4886 1.83282 0.683163 0
M  V30 547 C 54.8686 0.91823 1.90084 0
M  V30 548 O 54.2166 -0.025113 2.28486 0
M  V30 549 C 54.4266 3.32599 1.0573 0
M  V30 550 C 55.7746 3.99179 1.44711 0
M  V30 551 O 56.7986 3.3712 1.15015 0
M  V30 552 O 55.6576 5.08565 2.0006 0
M  V30 553 H 52.7516 0.755869 0.335546 0
M  V30 554 H 55.2976 1.69589 -0.0614402 0
M  V30 555 H 54.0696 3.90834 0.190828 0
M  V30 556 H 53.6926 3.51415 1.85993 0
M  V30 557 N 54.6897 -0.239769 1.55765 0
M  V30 558 C 55.6367 -1.29696 1.90913 0
M  V30 559 C 56.6067 -1.47478 0.764164 0
M  V30 560 O 57.7917 -1.61345 1.01845 0
M  V30 561 C 54.9317 -2.64598 2.21544 0
M  V30 562 C 54.0447 -2.54765 3.48882 0
M  V30 563 C 53.1797 -3.82069 3.69049 0
M  V30 564 C 52.2187 -3.66883 4.89963 0
M  V30 565 N 51.3557 -4.86094 5.06614 0
M  V30 566 H 56.1957 -0.990224 2.81067 0
M  V30 567 H 53.7327 -0.477684 1.39128 0
M  V30 568 H 55.6907 -3.43132 2.3731 0
M  V30 569 H 54.3207 -2.93405 1.34585 0
M  V30 570 H 53.3727 -1.67763 3.41409 0
M  V30 571 H 54.6847 -2.39457 4.37563 0
M  V30 572 H 53.8387 -4.69046 3.84812 0
M  V30 573 H 52.5777 -4.00282 2.78614 0
M  V30 574 H 51.5827 -2.78289 4.74168 0
M  V30 575 H 52.8077 -3.50157 5.81865 0
M  V30 576 H 50.7537 -5.04655 4.19117 0
M  V30 577 H 50.6707 -4.73443 5.89396 0
M  V30 578 H 51.9387 -5.74549 5.26795 0
M  V30 579 N 56.1678 -1.49265 -0.50573 0
M  V30 580 C 57.1148 -1.65585 -1.6078 0
M  V30 581 C 58.0848 -0.497396 -1.58478 0
M  V30 582 O 59.2698 -0.72385 -1.76536 0
M  V30 583 C 56.4098 -1.72408 -2.98948 0
M  V30 584 C 55.5228 -2.99525 -3.11301 0
M  V30 585 C 54.6578 -2.97356 -4.40174 0
M  V30 586 C 53.6968 -4.19074 -4.46143 0
M  V30 587 N 52.8338 -4.14841 -5.66437 0
M  V30 588 H 57.6738 -2.59688 -1.46172 0
M  V30 589 H 55.2108 -1.28761 -0.711261 0
M  V30 590 H 57.1688 -1.74344 -3.79025 0
M  V30 591 H 55.7988 -0.817753 -3.1227 0
M  V30 592 H 54.8508 -3.07222 -2.24318 0
M  V30 593 H 56.1628 -3.89518 -3.11572 0
M  V30 594 H 55.3168 -2.97829 -5.28567 0
M  V30 595 H 54.0558 -2.05133 -4.42461 0
M  V30 596 H 53.0608 -4.1885 -3.56153 0
M  V30 597 H 54.2858 -5.12483 -4.45575 0
M  V30 598 H 52.2318 -3.25453 -5.69575 0
M  V30 599 H 52.1488 -4.98564 -5.68304 0
M  V30 600 H 53.4168 -4.1941 -6.57051 0
M  V30 601 N 57.6459 0.756429 -1.3826 0
M  V30 602 C 58.5959 1.86069 -1.31766 0
M  V30 603 C 59.5799 1.59621 -0.202483 0
M  V30 604 O 60.7719 1.7149 -0.438211 0
M  V30 605 C 57.9009 3.23742 -1.1422 0
M  V30 606 C 56.9869 3.56091 -2.30348 0
M  V30 607 N 57.3779 3.59517 -3.55783 0
M  V30 608 C 55.6759 3.86341 -2.22838 0
M  V30 609 C 56.3769 3.89052 -4.32451 0
M  V30 610 N 55.3529 4.05736 -3.61772 0
M  V30 611 H 59.1549 1.86992 -2.26741 0
M  V30 612 H 56.6689 0.953643 -1.31451 0
M  V30 613 H 58.6659 4.02761 -1.07652 0
M  V30 614 H 57.3259 3.24073 -0.201763 0
M  V30 615 H 58.3369 3.41347 -3.89491 0
M  V30 616 H 55.0139 3.94404 -1.36937 0
M  V30 617 H 56.4039 3.98349 -5.4108 0
M  V30 618 N 59.124 1.23083 0.984299 0
M  V30 619 C 60.37 1.07221 1.72845 0
M  V30 620 C 60.725 -0.387453 1.88458 0
M  V30 621 O 60.018 -1.28309 1.42293 0
M  V30 622 C 60.212 1.72673 3.1292 0
M  V30 623 C 60.041 3.24853 3.10967 0
M  V30 624 C 58.811 3.93998 3.16376 0
M  V30 625 C 61.009 4.21674 2.94441 0
M  V30 626 N 58.991 5.33192 3.04268 0
M  V30 627 C 60.362 5.47756 2.90453 0
M  V30 628 C 62.417 4.12457 2.78897 0
M  V30 629 C 61.12 6.6568 2.72512 0
M  V30 630 C 63.146 5.3004 2.62319 0
M  V30 631 C 62.508 6.55046 2.59026 0
M  V30 632 H 58.607 0.44685 0.641755 0
M  V30 633 H 61.191 1.55753 1.16829 0
M  V30 634 H 59.362 1.26679 3.67161 0
M  V30 635 H 61.094 1.49824 3.75945 0
M  V30 636 H 57.849 3.45052 3.24401 0
M  V30 637 H 58.273 6.06157 3.015 0
M  V30 638 H 62.915 3.16588 2.80235 0
M  V30 639 H 60.633 7.61689 2.69919 0
M  V30 640 H 64.219 5.24747 2.5126 0
M  V30 641 H 63.099 7.44498 2.46357 0
M  V30 642 N 60.6021 -1.18246 1.0419 0
M  V30 643 C 61.5491 -2.2192 0.634037 0
M  V30 644 C 62.5191 -1.62179 -0.358765 0
M  V30 645 O 63.7041 -1.89122 -0.252466 0
M  V30 646 C 60.8441 -3.451 0.00445535 0
M  V30 647 C 59.9571 -4.19174 1.04487 0
M  V30 648 C 59.0921 -5.29813 0.383676 0
M  V30 649 C 58.1311 -5.9566 1.4091 0
M  V30 650 N 57.2681 -6.97834 0.772784 0
M  V30 651 H 62.1081 -2.56164 1.52263 0
M  V30 652 H 59.6451 -1.25843 0.761701 0
M  V30 653 H 61.6031 -4.15485 -0.377919 0
M  V30 654 H 60.2331 -3.11472 -0.847652 0
M  V30 655 H 59.2851 -3.47604 1.54518 0
M  V30 656 H 60.5971 -4.64267 1.82368 0
M  V30 657 H 59.7511 -6.06677 -0.0528366 0
M  V30 658 H 58.4901 -4.85825 -0.427208 0
M  V30 659 H 57.4951 -5.17535 1.85574 0
M  V30 660 H 58.7201 -6.4173 2.22171 0
M  V30 661 H 56.6661 -6.55998 -0.0177708 0
M  V30 662 H 56.5831 -7.41186 1.48928 0
M  V30 663 H 57.8511 -7.78665 0.36071 0
M  V30 664 N 62.0802 -0.821533 -1.34494 0
M  V30 665 C 63.4962 -0.507117 -1.51329 0
M  V30 666 C 63.6962 0.968964 -1.76673 0
M  V30 667 O 62.7522 1.75348 -1.81685 0
M  V30 668 C 64.0652 -1.36544 -2.67911 0
M  V30 669 C 65.6132 -1.36242 -2.81793 0
M  V30 670 C 66.0882 -2.2052 -4.01416 0
M  V30 671 N 67.5792 -2.18136 -4.08621 0
M  V30 672 C 68.3142 -2.80095 -5.00334 0
M  V30 673 N 67.8102 -3.51039 -5.9728 0
M  V30 674 N 69.6032 -2.69656 -4.93196 0
M  V30 675 H 61.7542 -1.77729 -1.16302 0
M  V30 676 H 64.0172 -0.757291 -0.570276 0
M  V30 677 H 63.7232 -2.41361 -2.55808 0
M  V30 678 H 63.5972 -1.02917 -3.62888 0
M  V30 679 H 65.9842 -0.322041 -2.93338 0
M  V30 680 H 66.0652 -1.73866 -1.87628 0
M  V30 681 H 65.7092 -3.24607 -3.90631 0
M  V30 682 H 65.6392 -1.80247 -4.94791 0
M  V30 683 H 68.1302 -1.6653 -3.39229 0
M  V30 684 H 68.4432 -3.95565 -6.63889 0
M  V30 685 H 66.7882 -3.55145 -5.97409 0
M  V30 686 H 69.9792 -2.13808 -4.16418 0
M  V30 687 H 70.1522 -3.1823 -5.64476 0
M  V30 688 N 63.5583 1.46682 -0.576371 0
M  V30 689 C 64.5063 2.31953 0.17335 0
M  V30 690 C 65.5003 1.44098 0.89062 0
M  V30 691 O 66.7063 1.60759 0.809728 0
M  V30 692 H 63.0813 0.748273 0.0747727 0
M  V30 693 H 65.0523 2.93007 -0.564738 0
M  V30 694 C 63.8013 3.27142 1.17786 0
M  V30 695 H 63.1243 3.94719 0.635361 0
M  V30 696 H 64.5643 3.896 1.67296 0
M  V30 697 C 63.0233 2.52036 2.23561 0
M  V30 698 O 63.5533 2.27877 3.3081 0
M  V30 699 N 61.7593 2.12709 1.97998 0
M  V30 700 H 61.3063 2.32557 1.10792 0
M  V30 701 H 61.2643 1.62776 2.68982 0
M  V30 702 N 65.0364 0.313813 1.54444 0
M  V30 703 C 66.4474 -0.176243 1.85866 0
M  V30 704 C 66.7984 -1.52405 1.23561 0
M  V30 705 O 65.9234 -2.09605 0.538016 0
M  V30 706 C 66.5184 -0.32657 3.37222 0
M  V30 707 C 65.0774 -0.760846 3.6863 0
M  V30 708 C 64.2244 0.123247 2.77026 0
M  V30 709 H 67.1754 0.534418 1.49431 0
M  V30 710 H 67.1964 -1.15908 3.62416 0
M  V30 711 H 66.7084 0.654531 3.82541 0
M  V30 712 H 64.8094 -1.75204 3.28838 0
M  V30 713 H 64.9224 -0.571353 4.75681 0
M  V30 714 H 63.2864 -0.399597 2.51546 0
M  V30 715 H 64.0694 1.10094 3.25168 0
M  V30 716 N 66.5145 -1.57545 0.0417849 0
M  V30 717 C 67.7915 -1.83642 -0.673433 0
M  V30 718 C 68.1715 -0.928298 -1.89594 0
M  V30 719 O 67.5195 0.0129955 -2.28496 0
M  V30 720 C 67.7295 -3.33155 -1.03964 0
M  V30 721 C 69.0775 -3.99941 -1.42592 0
M  V30 722 O 70.1015 -3.37725 -1.13226 0
M  V30 723 O 68.9605 -5.09619 -1.9736 0
M  V30 724 H 66.0545 -0.757638 -0.331533 0
M  V30 725 H 68.6005 -1.69554 0.070433 0
M  V30 726 H 67.3725 -3.9093 -0.170098 0
M  V30 727 H 66.9955 -3.52396 -1.84126 0
M  V30 728 N 67.9926 0.231505 -1.5589 0
M  V30 729 C 68.9396 1.28682 -1.91598 0
M  V30 730 C 69.9096 1.47071 -0.771974 0
M  V30 731 O 71.0946 1.60802 -1.027 0
M  V30 732 C 68.2346 2.6342 -2.22944 0
M  V30 733 C 67.3476 2.52912 -3.50228 0
M  V30 734 C 66.4826 3.80106 -3.7107 0
M  V30 735 C 65.5216 3.64279 -4.91902 0
M  V30 736 N 64.6586 4.834 -5.09184 0
M  V30 737 H 69.4986 0.975305 -2.81588 0
M  V30 738 H 67.0356 0.470299 -1.39379 0
M  V30 739 H 68.9936 3.41869 -2.39126 0
M  V30 740 H 67.6236 2.92687 -1.36139 0
M  V30 741 H 66.6756 1.6595 -3.42294 0
M  V30 742 H 67.9876 2.37133 -4.38827 0
M  V30 743 H 67.1416 4.66999 -3.87295 0
M  V30 744 H 65.8806 3.98799 -2.80733 0
M  V30 745 H 64.8856 2.7577 -4.75637 0
M  V30 746 H 66.1106 3.47067 -5.83714 0
M  V30 747 H 64.0566 5.02425 -4.21788 0
M  V30 748 H 63.9736 4.70311 -5.91898 0
M  V30 749 H 65.2416 5.71747 -5.29835 0
M  V30 750 N 69.4707 1.49531 0.497807 0
M  V30 751 C 70.4187 1.66926 1.61983 0
M  V30 752 C 71.4127 0.535167 1.60724 0
M  V30 753 O 72.6187 0.714896 1.65195 0
M  V30 754 H 68.9937 0.526415 0.537021 0
M  V30 755 H 70.9647 2.61098 1.44465 0
M  V30 756 C 69.7137 1.75602 3.00099 0
M  V30 757 H 69.0367 2.62244 3.01775 0
M  V30 758 H 70.4767 1.91807 3.78135 0
M  V30 759 C 68.9357 0.501543 3.33146 0
M  V30 760 O 69.4657 -0.371342 3.9998 0
M  V30 761 N 67.6717 0.363531 2.88317 0
M  V30 762 H 67.2187 1.07485 2.34104 0
M  V30 763 H 67.1767 -0.474728 3.10795 0
M  V30 764 N 70.9488 -0.749086 1.3866 0
M  V30 765 C 72.1888 -1.52112 1.36534 0
M  V30 766 C 72.5528 -1.91951 -0.0432316 0
M  V30 767 O 73.7538 -2.68132 -0.189396 0
M  V30 768 C 72.0248 -2.73704 2.29828 0
M  V30 769 S 73.5838 -3.63519 2.45763 0
M  V30 770 H 70.4018 -0.520482 0.484375 0
M  V30 771 H 73.0038 -0.878963 1.74627 0
M  V30 772 H 71.7078 -2.42552 3.31054 0
M  V30 773 H 71.2388 -3.4286 1.929 0
M  V30 774 H 73.2538 -4.66712 1.68505 0
M  V30 775 N 72.4269 -1.23603 -0.977757 0
M  V30 776 C 73.6739 -1.06971 -1.71941 0
M  V30 777 C 74.0019 0.393009 -1.90488 0
M  V30 778 O 73.2569 1.30719 -1.4564 0
M  V30 779 C 73.5559 -1.7433 -3.11999 0
M  V30 780 C 73.2219 -3.24252 -3.13323 0
M  V30 781 C 71.8839 -3.65156 -3.13392 0
M  V30 782 C 74.2359 -4.20141 -3.08433 0
M  V30 783 C 71.5639 -5.00403 -3.0629 0
M  V30 784 C 73.9159 -5.55384 -3.02873 0
M  V30 785 C 72.5799 -5.95647 -3.01265 0
M  V30 786 H 71.8499 -0.391433 -0.629175 0
M  V30 787 H 74.4969 -1.53572 -1.14403 0
M  V30 788 H 72.8019 -1.20096 -3.7294 0
M  V30 789 H 74.4989 -1.58936 -3.68158 0
M  V30 790 H 71.0889 -2.91692 -3.14029 0
M  V30 791 H 75.2729 -3.89547 -3.07517 0
M  V30 792 H 70.5289 -5.3081 -3.03399 0
M  V30 793 H 74.7029 -6.29398 -2.98046 0
M  V30 794 H 72.3299 -7.0041 -2.95516 0
M  V30 795 N 73.905 1.17692 -1.04816 0
M  V30 796 C 74.853 2.23632 -0.63966 0
M  V30 797 C 75.847 1.6601 0.337219 0
M  V30 798 O 77.053 1.78844 0.203693 0
M  V30 799 H 73.428 0.727949 -0.188665 0
M  V30 800 H 75.399 2.55387 -1.54337 0
M  V30 801 C 74.148 3.4769 -0.0264051 0
M  V30 802 H 73.471 3.92331 -0.769164 0
M  V30 803 H 74.911 4.23418 0.222098 0
M  V30 804 C 73.37 3.13807 1.22584 0
M  V30 805 O 73.9 3.28236 2.31569 0
M  V30 806 N 72.106 2.68065 1.12202 0
M  V30 807 H 71.653 2.56525 0.235133 0
M  V30 808 H 71.611 2.45767 1.96076 0
M  V30 809 N 75.3831 0.828654 1.34056 0
M  V30 810 C 76.6231 0.425394 1.99924 0
M  V30 811 C 76.9871 -0.994294 1.64249 0
M  V30 812 O 78.1881 -1.50074 2.23005 0
M  V30 813 C 76.4591 0.628071 3.51838 0
M  V30 814 S 78.0181 0.318511 4.37642 0
M  V30 815 H 74.8361 0.160465 0.692656 0
M  V30 816 H 77.4381 1.07572 1.63244 0
M  V30 817 H 76.1421 1.66089 3.7529 0
M  V30 818 H 75.6731 -0.0367799 3.93383 0
M  V30 819 H 77.6881 -0.865632 4.88591 0
M  V30 820 N 76.8612 -1.46375 0.584142 0
M  V30 821 C 77.7712 -2.34115 -0.150728 0
M  V30 822 C 78.7872 -1.49838 -0.884567 0
M  V30 823 O 79.9632 -1.82704 -0.847429 0
M  V30 824 C 77.0282 -3.2705 -1.15062 0
M  V30 825 C 76.0892 -4.27228 -0.421293 0
M  V30 826 C 75.3222 -5.15722 -1.37355 0
M  V30 827 O 75.5452 -5.07176 -2.61014 0
M  V30 828 O 74.4792 -5.95383 -0.883355 0
M  V30 829 H 78.3052 -2.98309 0.569708 0
M  V30 830 H 75.8902 -1.45373 0.344535 0
M  V30 831 H 77.7722 -3.84381 -1.72712 0
M  V30 832 H 76.4472 -2.65451 -1.8525 0
M  V30 833 H 75.3542 -3.7358 0.197085 0
M  V30 834 H 76.6872 -4.91616 0.239641 0
M  V30 835 N 78.3393 -0.321999 -1.54275 0
M  V30 836 C 79.2863 0.544664 -2.24281 0
M  V30 837 C 80.2563 1.1129 -1.23303 0
M  V30 838 O 81.4413 1.15354 -1.51981 0
M  V30 839 C 78.5813 1.70045 -3.00298 0
M  V30 840 C 77.6943 1.16159 -4.1609 0
M  V30 841 C 76.8293 2.28293 -4.79641 0
M  V30 842 C 75.8683 1.71648 -5.8754 0
M  V30 843 N 75.0053 2.77438 -6.44959 0
M  V30 844 H 79.8453 -0.0588907 -2.97942 0
M  V30 845 H 77.3823 -0.0408345 -1.47043 0
M  V30 846 H 79.3403 2.38054 -3.42616 0
M  V30 847 H 77.9703 2.27531 -2.28975 0
M  V30 848 H 77.0223 0.373092 -3.78566 0
M  V30 849 H 78.3343 0.707087 -4.93763 0
M  V30 850 H 77.4883 3.0421 -5.2492 0
M  V30 851 H 76.2273 2.77079 -4.01346 0
M  V30 852 H 75.2323 0.942282 -5.41665 0
M  V30 853 H 76.4573 1.23741 -6.67731 0
M  V30 854 H 74.4033 3.25519 -5.69538 0
M  V30 855 H 74.3203 2.36547 -7.1804 0
M  V30 856 H 75.5883 3.53189 -6.94894 0
M  V30 857 N 79.8174 1.5752 -0.0501392 0
M  V30 858 C 80.7474 2.14502 0.922566 0
M  V30 859 C 81.7284 1.06642 1.3252 0
M  V30 860 O 82.9134 1.34577 1.4001 0
M  V30 861 C 80.0434 2.68916 2.19776 0
M  V30 862 C 78.9974 3.8175 1.93523 0
M  V30 863 C 78.3234 4.22677 3.27487 0
M  V30 864 C 79.6234 5.06932 1.25765 0
M  V30 865 H 81.3174 2.9603 0.447952 0
M  V30 866 H 78.8634 1.42401 0.214024 0
M  V30 867 H 80.8164 3.07419 2.88222 0
M  V30 868 H 79.5404 1.84578 2.69441 0
M  V30 869 H 78.1994 3.43718 1.27489 0
M  V30 870 H 77.8474 3.35291 3.74952 0
M  V30 871 H 77.5474 4.98725 3.1072 0
M  V30 872 H 79.0714 4.63779 3.97166 0
M  V30 873 H 80.4854 5.42888 1.84244 0
M  V30 874 H 78.8824 5.88116 1.19328 0
M  V30 875 H 79.9524 4.84337 0.233536 0
M  V30 876 N 81.2955 -0.223234 1.56011 0
M  V30 877 C 82.2055 -1.29766 1.95443 0
M  V30 878 C 83.2215 -1.51373 0.858028 0
M  V30 879 O 84.3975 -1.64536 1.16146 0
M  V30 880 C 81.4625 -2.62772 2.26167 0
M  V30 881 C 80.5235 -2.49482 3.49367 0
M  V30 882 C 79.7565 -3.76145 3.78616 0
M  V30 883 O 79.9795 -4.79087 3.09568 0
M  V30 884 O 78.9135 -3.73358 4.72109 0
M  V30 885 H 82.7395 -0.99309 2.87004 0
M  V30 886 H 80.3245 -0.425958 1.43199 0
M  V30 887 H 82.2065 -3.41327 2.47131 0
M  V30 888 H 80.8815 -2.92913 1.37781 0
M  V30 889 H 79.7885 -1.69133 3.33684 0
M  V30 890 H 81.1215 -2.2428 4.38131 0
M  V30 891 N 82.7736 -1.49793 -0.48987 0
M  V30 892 C 83.7216 -1.67783 -1.61095 0
M  V30 893 C 84.7156 -0.543683 -1.60438 0
M  V30 894 O 85.9216 -0.723647 -1.64813 0
M  V30 895 H 82.2966 -0.529255 -0.534222 0
M  V30 896 H 84.2676 -2.61861 -1.43078 0
M  V30 897 C 83.0166 -1.77191 -2.99164 0
M  V30 898 H 82.3396 -2.63841 -3.0038 0
M  V30 899 H 83.7796 -1.93809 -3.77113 0
M  V30 900 C 82.2386 -0.519203 -3.32875 0
M  V30 901 O 82.7686 0.350124 -4.00171 0
M  V30 902 N 80.9746 -0.378816 -2.8812 0
M  V30 903 H 80.5216 -1.08725 -2.33531 0
M  V30 904 H 80.4796 0.458239 -3.11043 0
M  V30 905 N 84.2517 0.741722 -1.39055 0
M  V30 906 C 85.1997 1.87702 -1.3737 0
M  V30 907 C 86.1937 1.67427 -0.257812 0
M  V30 908 O 87.3997 1.7485 -0.427489 0
M  V30 909 H 83.7747 0.617757 -0.428812 0
M  V30 910 H 85.7457 1.86239 -2.33147 0
M  V30 911 C 84.4947 3.25315 -1.22741 0
M  V30 912 H 83.8177 3.41509 -2.07873 0
M  V30 913 H 85.2577 4.04964 -1.25618 0
M  V30 914 C 83.7167 3.36838 0.0647316 0
M  V30 915 O 84.2467 3.88073 1.03741 0
M  V30 916 N 82.4527 2.90329 0.125544 0
M  V30 917 H 81.9997 2.48823 -0.666682 0
M  V30 918 H 81.9577 2.98418 0.989639 0
M  V30 919 N 85.7298 1.2412 0.971189 0
M  V30 920 C 86.9768 1.07881 1.71371 0
M  V30 921 C 87.3048 -0.382901 1.90694 0
M  V30 922 O 86.5598 -1.29945 1.46331 0
M  V30 923 C 86.8588 1.75983 3.11071 0
M  V30 924 C 86.5248 3.25909 3.11599 0
M  V30 925 C 85.1868 3.66813 3.11451 0
M  V30 926 C 87.5388 4.21771 3.062 0
M  V30 927 C 84.8668 5.02021 3.03631 0
M  V30 928 C 87.2188 5.56982 2.99923 0
M  V30 929 C 85.8828 5.97237 2.98102 0
M  V30 930 H 85.1528 0.394764 0.62709 0
M  V30 931 H 87.7998 1.54176 1.13587 0
M  V30 932 H 86.1048 1.22072 3.72298 0
M  V30 933 H 87.8018 1.60887 3.6731 0
M  V30 934 H 84.3918 2.93353 3.12477 0
M  V30 935 H 88.5758 3.91172 3.05447 0
M  V30 936 H 83.8318 5.32411 3.0058 0
M  V30 937 H 88.0058 6.30969 2.94704 0
M  V30 938 H 85.6328 7.01967 2.91798 0
M  V30 939 N 87.2079 -1.17134 1.05439 0
M  V30 940 C 88.4849 -1.83411 0.679699 0
M  V30 941 C 88.8649 -1.9368 -0.839726 0
M  V30 942 O 88.2129 -1.47325 -1.74664 0
M  V30 943 C 88.4229 -3.20918 1.37159 0
M  V30 944 C 89.7709 -3.96796 1.51123 0
M  V30 945 O 90.7949 -3.30406 1.3308 0
M  V30 946 O 89.6539 -5.15778 1.80651 0
M  V30 947 H 86.7479 -0.79154 0.239569 0
M  V30 948 H 89.2939 -1.24411 1.15413 0
M  V30 949 H 88.0659 -3.08428 2.40807 0
M  V30 950 H 87.6889 -3.87587 0.886674 0
M  V30 951 N 88.686 -0.835752 -1.33615 0
M  V30 952 C 89.963 -0.352017 -1.92406 0
M  V30 953 C 90.343 1.16225 -1.76224 0
M  V30 954 O 89.691 1.97526 -1.14873 0
M  V30 955 C 89.901 -0.795485 -3.39813 0
M  V30 956 C 91.249 -0.801703 -4.16963 0
M  V30 957 O 92.273 -0.738889 -3.48452 0
M  V30 958 O 91.132 -0.886607 -5.3926 0
M  V30 959 H 88.226 -0.0989641 -0.821057 0
M  V30 960 H 90.772 -0.921397 -1.42507 0
M  V30 961 H 89.544 -1.83795 -3.45449 0
M  V30 962 H 89.167 -0.202505 -3.97084 0
M  V30 963 N 90.1641 1.46063 -0.591896 0
M  V30 964 C 91.4131 2.01547 -0.0786637 0
M  V30 965 C 91.7261 1.46796 1.29268 0
M  V30 966 O 92.9321 1.94157 1.89777 0
M  V30 967 C 91.3881 3.59787 -0.0900024 0
M  V30 968 C 90.9961 4.23534 -1.46023 0
M  V30 969 C 92.7401 4.22895 0.368806 0
M  V30 970 C 90.6471 5.73881 -1.4288 0
M  V30 971 H 89.5771 0.753564 -0.0256388 0
M  V30 972 H 92.2281 1.677 -0.744905 0
M  V30 973 H 90.6101 3.90752 0.642586 0
M  V30 974 H 91.7841 4.04167 -2.21328 0
M  V30 975 H 90.0991 3.72558 -1.85982 0
M  V30 976 H 92.6961 5.33116 0.411258 0
M  V30 977 H 93.0391 3.9247 1.38827 0
M  V30 978 H 93.5721 3.9659 -0.31001 0
M  V30 979 H 90.3111 6.0898 -2.42536 0
M  V30 980 H 89.8311 5.95486 -0.718095 0
M  V30 981 H 91.5101 6.36776 -1.14565 0
M  V30 982 N 91.6422 0.330177 1.54103 0
M  V30 983 C 92.5892 -0.532762 2.24567 0
M  V30 984 C 93.5592 -1.10635 1.23892 0
M  V30 985 O 94.7442 -1.14546 1.5259 0
M  V30 986 C 91.8842 -1.6845 3.01195 0
M  V30 987 C 90.9972 -1.13951 4.167 0
M  V30 988 C 90.1322 -2.25746 4.80845 0
M  V30 989 C 89.1712 -1.6853 5.88442 0
M  V30 990 N 88.3082 -2.74014 6.46421 0
M  V30 991 H 93.1482 0.0746905 2.97906 0
M  V30 992 H 90.6852 0.048632 1.4702 0
M  V30 993 H 92.6432 -2.36234 3.43874 0
M  V30 994 H 91.2732 -2.26314 2.30178 0
M  V30 995 H 90.3252 -0.35301 3.78758 0
M  V30 996 H 91.6372 -0.680892 4.94131 0
M  V30 997 H 90.7912 -3.01422 5.26526 0
M  V30 998 H 89.5302 -2.74947 4.0281 0
M  V30 999 H 88.5352 -0.913543 5.42157 0
M  V30 1000 H 89.7602 -1.20198 6.68378 0
M  V30 1001 H 87.7062 -3.22494 5.71256 0
M  V30 1002 H 87.6232 -2.32735 7.19285 0
M  V30 1003 H 88.8912 -3.49499 6.96757 0
M  V30 1004 N 93.1203 -1.57491 0.0584922 0
M  V30 1005 C 94.0703 -2.08474 -0.923188 0
M  V30 1006 C 95.0543 -0.991479 -1.26722 0
M  V30 1007 O 96.2463 -1.25473 -1.24842 0
M  V30 1008 C 93.3753 -2.6392 -2.19548 0
M  V30 1009 C 92.4613 -3.80227 -1.87852 0
M  V30 1010 N 92.8523 -4.89714 -1.26546 0
M  V30 1011 C 91.1503 -3.89271 -2.17679 0
M  V30 1012 C 91.8513 -5.70689 -1.12644 0
M  V30 1013 N 90.8273 -5.18531 -1.63176 0
M  V30 1014 H 94.6293 -2.90517 -0.444653 0
M  V30 1015 H 92.1433 -1.61745 -0.145764 0
M  V30 1016 H 94.1403 -2.98752 -2.9078 0
M  V30 1017 H 92.8003 -1.83318 -2.68001 0
M  V30 1018 H 93.8113 -5.09358 -0.936757 0
M  V30 1019 H 90.4883 -3.19623 -2.68602 0
M  V30 1020 H 91.8783 -6.6875 -0.6499 0
M  V30 1021 N 94.5984 0.214957 -1.56127 0
M  V30 1022 C 95.8264 0.955092 -1.83536 0
M  V30 1023 C 96.2414 1.77677 -0.638472 0
M  V30 1024 O 95.5984 1.78219 0.392968 0
M  V30 1025 C 95.6494 1.86734 -3.09536 0
M  V30 1026 O 95.3704 1.07887 -4.24608 0
M  V30 1027 C 96.8714 2.72082 -3.4998 0
M  V30 1028 H 94.0914 0.279611 -0.609966 0
M  V30 1029 H 96.6354 0.228197 -2.03223 0
M  V30 1030 H 94.7904 2.5481 -2.91806 0
M  V30 1031 H 95.2044 1.69872 -4.9623 0
M  V30 1032 H 96.6784 3.31782 -4.41163 0
M  V30 1033 H 97.1554 3.44806 -2.7204 0
M  V30 1034 H 97.7614 2.09409 -3.70173 0
M  V30 1035 N 96.0765 1.50051 0.48192 0
M  V30 1036 C 97.3045 1.64237 1.25832 0
M  V30 1037 C 97.7195 0.321336 1.86045 0
M  V30 1038 O 97.0765 -0.695478 1.68729 0
M  V30 1039 C 97.1275 2.72548 2.37487 0
M  V30 1040 O 96.8485 3.99529 1.79745 0
M  V30 1041 C 98.3495 2.9761 3.28547 0
M  V30 1042 H 95.5695 0.55237 0.380957 0
M  V30 1043 H 98.1135 1.96207 0.576467 0
M  V30 1044 H 96.2685 2.43303 3.01467 0
M  V30 1045 H 96.6825 4.59342 2.5319 0
M  V30 1046 H 98.1565 3.77084 4.03127 0
M  V30 1047 H 98.6335 2.0826 3.86684 0
M  V30 1048 H 99.2395 3.28345 2.70314 0
M  V30 1049 N 97.5546 -0.734337 1.39446 0
M  V30 1050 C 98.4846 -1.86155 1.40955 0
M  V30 1051 C 99.4656 -1.67898 0.272827 0
M  V30 1052 O 100.651 -1.88207 0.478743 0
M  V30 1053 C 97.7806 -3.23912 1.25294 0
M  V30 1054 C 96.7346 -3.56808 2.36373 0
M  V30 1055 C 96.0606 -4.93508 2.058 0
M  V30 1056 C 97.3606 -3.59713 3.78687 0
M  V30 1057 H 99.0546 -1.8515 2.35287 0
M  V30 1058 H 96.6006 -0.889367 1.13253 0
M  V30 1059 H 98.5536 -4.02443 1.2497 0
M  V30 1060 H 97.2776 -3.25446 0.274308 0
M  V30 1061 H 95.9366 -2.80606 2.35914 0
M  V30 1062 H 95.5846 -4.91623 1.06374 0
M  V30 1063 H 95.2846 -5.16486 2.80208 0
M  V30 1064 H 96.8086 -5.74396 2.07128 0
M  V30 1065 H 98.2226 -4.2832 3.81071 0
M  V30 1066 H 96.6196 -3.94209 4.52459 0
M  V30 1067 H 97.6896 -2.59504 4.09617 0
M  V30 1068 N 99.0327 -1.24633 -0.964593 0
M  V30 1069 C 100.281 -1.08573 -1.70459 0
M  V30 1070 C 100.602 0.375655 -1.91347 0
M  V30 1071 O 99.8717 1.26779 -1.49345 0
M  V30 1072 H 98.4517 -0.398784 -0.631649 0
M  V30 1073 H 101.114 -1.56601 -1.16026 0
M  V30 1074 H 100.21 -1.58623 -2.68785 0
M  V30 1075 N 100.511 1.16574 -1.06058 0
M  V30 1076 C 101.421 2.2452 -0.680282 0
M  V30 1077 C 102.437 1.71348 0.302604 0
M  V30 1078 O 103.613 2.00822 0.152513 0
M  V30 1079 C 100.678 3.46629 -0.0700315 0
M  V30 1080 C 99.7388 4.14849 -1.10448 0
M  V30 1081 C 98.9718 5.31129 -0.523256 0
M  V30 1082 O 99.1948 5.66514 0.664709 0
M  V30 1083 O 98.1288 5.88526 -1.26179 0
M  V30 1084 H 101.955 2.59355 -1.58015 0
M  V30 1085 H 99.5398 1.24043 -0.832694 0
M  V30 1086 H 101.422 4.20543 0.268667 0
M  V30 1087 H 100.097 3.13573 0.803353 0
M  V30 1088 H 99.0038 3.42916 -1.49532 0
M  V30 1089 H 100.337 4.51954 -1.94931 0
M  V30 1090 N 101.989 0.842826 1.3317 0
M  V30 1091 C 103.405 0.531128 1.50503 0
M  V30 1092 C 103.605 -0.940734 1.78192 0
M  V30 1093 O 102.661 -1.72436 1.84451 0
M  V30 1094 C 103.974 1.40789 2.65705 0
M  V30 1095 C 105.522 1.40708 2.79589 0
M  V30 1096 C 105.997 2.26878 3.97857 0
M  V30 1097 N 107.488 2.24609 4.05099 0
M  V30 1098 C 108.223 2.88019 4.95815 0
M  V30 1099 N 107.719 3.60496 5.9162 0
M  V30 1100 N 109.512 2.77469 4.88843 0
M  V30 1101 H 101.663 1.79557 1.1346 0
M  V30 1102 H 103.926 0.766267 0.558156 0
M  V30 1103 H 103.632 2.454 2.51936 0
M  V30 1104 H 103.506 1.08677 3.61205 0
M  V30 1105 H 105.893 0.368668 2.92788 0
M  V30 1106 H 105.974 1.76829 1.84838 0
M  V30 1107 H 105.618 3.3078 3.85418 0
M  V30 1108 H 105.548 1.88096 4.91861 0
M  V30 1109 H 108.039 1.71906 3.36536 0
M  V30 1110 H 108.352 4.06076 6.57512 0
M  V30 1111 H 106.697 3.64604 5.91683 0
M  V30 1112 H 109.888 2.20406 4.12963 0
M  V30 1113 H 110.061 3.2717 5.59342 0
M  V30 1114 N 103.467 -1.45747 0.599634 0
M  V30 1115 C 104.715 -2.01893 0.0915472 0
M  V30 1116 C 105.036 -1.47155 -1.27946 0
M  V30 1117 O 104.306 -0.66273 -1.84349 0
M  V30 1118 H 102.886 -0.746363 0.0308524 0
M  V30 1119 H 105.548 -1.78645 0.779237 0
M  V30 1120 H 104.644 -3.1208 0.0353086 0
M  V30 1121 N 104.945 -0.338344 -1.53925 0
M  V30 1122 C 105.908 0.508299 -2.23493 0
M  V30 1123 C 106.908 1.03175 -1.23335 0
M  V30 1124 O 108.098 0.921826 -1.47811 0
M  V30 1125 C 105.23 1.70754 -2.95052 0
M  V30 1126 H 106.423 -0.100058 -2.99733 0
M  V30 1127 H 103.976 -0.0896198 -1.56043 0
M  V30 1128 H 104.711 2.35474 -2.22986 0
M  V30 1129 H 104.496 1.33946 -3.68512 0
M  V30 1130 H 105.986 2.30818 -3.48013 0
M  V30 1131 N 106.423 1.57458 -0.0668435 0
M  V30 1132 C 107.353 2.15468 0.899764 0
M  V30 1133 C 108.334 1.08042 1.31381 0
M  V30 1134 O 109.519 1.36054 1.38574 0
M  V30 1135 C 106.649 2.71232 2.16911 0
M  V30 1136 C 105.603 3.83781 1.89463 0
M  V30 1137 C 104.929 4.26127 3.22986 0
M  V30 1138 C 106.229 5.08238 1.20381 0
M  V30 1139 H 107.923 2.96488 0.416529 0
M  V30 1140 H 105.469 1.4262 0.198908 0
M  V30 1141 H 107.422 3.10458 2.84945 0
M  V30 1142 H 106.146 1.87426 2.67468 0
M  V30 1143 H 104.805 3.45051 1.23836 0
M  V30 1144 H 104.453 3.39249 3.71374 0
M  V30 1145 H 104.153 5.01993 3.05413 0
M  V30 1146 H 105.677 4.67966 3.92225 0
M  V30 1147 H 107.091 5.44811 1.78475 0
M  V30 1148 H 105.488 5.89349 1.13083 0
M  V30 1149 H 106.558 4.84558 0.182153 0
M  V30 1150 N 107.901 -0.206675 1.56239 0
M  V30 1151 C 109.317 -0.557025 1.49564 0
M  V30 1152 C 109.517 -1.86424 0.764735 0
M  V30 1153 O 108.573 -2.50584 0.310491 0
M  V30 1154 C 109.886 -0.622478 2.94186 0
M  V30 1155 C 111.434 -0.712099 3.04792 0
M  V30 1156 C 111.909 -0.808767 4.50803 0
M  V30 1157 N 113.4 -0.8726 4.54907 0
M  V30 1158 C 114.135 -0.967365 5.65181 0
M  V30 1159 N 113.631 -1.02515 6.85173 0
M  V30 1160 N 115.424 -1.00366 5.53067 0
M  V30 1161 H 107.575 0.650943 2.02179 0
M  V30 1162 H 109.838 0.230387 0.919579 0
M  V30 1163 H 109.544 0.268727 3.50672 0
M  V30 1164 H 109.418 -1.4811 3.46905 0
M  V30 1165 H 111.805 -1.59374 2.48363 0
M  V30 1166 H 111.886 0.172489 2.55218 0
M  V30 1167 H 111.53 0.0684754 5.07854 0
M  V30 1168 H 111.46 -1.70899 4.98098 0
M  V30 1169 H 113.951 -0.837657 3.68499 0
M  V30 1170 H 114.264 -1.09765 7.64965 0
M  V30 1171 H 112.609 -0.994026 6.87855 0
M  V30 1172 H 115.8 -0.95527 4.58249 0
M  V30 1173 H 115.973 -1.07405 6.39037 0
M  V30 1174 N 109.379 -1.50304 -0.473955 0
M  V30 1175 C 110.289 -1.7174 -1.5982 0
M  V30 1176 C 111.305 -0.600457 -1.63311 0
M  V30 1177 O 112.481 -0.878441 -1.81233 0
M  V30 1178 C 109.546 -1.80427 -2.96052 0
M  V30 1179 C 108.607 -3.04148 -3.02972 0
M  V30 1180 C 107.84 -3.12411 -4.32706 0
M  V30 1181 O 108.063 -2.27542 -5.23049 0
M  V30 1182 O 106.997 -4.05113 -4.45159 0
M  V30 1183 H 110.823 -2.67035 -1.44657 0
M  V30 1184 H 108.408 -1.34366 -0.653148 0
M  V30 1185 H 110.29 -1.88338 -3.7697 0
M  V30 1186 H 108.965 -0.883156 -3.11419 0
M  V30 1187 H 107.872 -3.0174 -2.21142 0
M  V30 1188 H 109.205 -3.95829 -2.92541 0
M  V30 1189 N 110.857 0.726932 -1.39834 0
M  V30 1190 C 111.82 1.82269 -1.38962 0
M  V30 1191 C 112.82 1.58248 -0.285334 0
M  V30 1192 O 114.01 1.65499 -0.54366 0
M  V30 1193 C 111.142 3.20186 -1.17019 0
M  V30 1194 H 112.335 1.84443 -2.36476 0
M  V30 1195 H 109.888 0.931416 -1.25516 0
M  V30 1196 H 110.623 3.23669 -0.202204 0
M  V30 1197 H 110.408 3.3902 -1.96998 0
M  V30 1198 H 111.898 4.00235 -1.1917 0
M  V30 1199 N 112.336 1.25143 0.95797 0
M  V30 1200 C 113.269 0.995565 2.05338 0
M  V30 1201 C 114.247 -0.0740423 1.62431 0
M  V30 1202 O 115.431 0.0649212 1.88388 0
M  V30 1203 C 112.558 0.504298 3.34925 0
M  V30 1204 C 111.604 1.56393 3.96792 0
M  V30 1205 S 112.437 3.14815 4.33188 0
M  V30 1206 C 113.593 2.67415 5.65898 0
M  V30 1207 H 113.826 1.92309 2.26726 0
M  V30 1208 H 111.359 1.08635 1.09716 0
M  V30 1209 H 113.317 0.227497 4.09869 0
M  V30 1210 H 111.978 -0.402671 3.11508 0
M  V30 1211 H 111.171 1.17082 4.90212 0
M  V30 1212 H 110.773 1.79124 3.28315 0
M  V30 1213 H 113.065 2.10833 6.4386 0
M  V30 1214 H 114.008 3.59463 6.10076 0
M  V30 1215 H 114.416 2.07521 5.24972 0
M  V30 1216 N 113.814 -1.1601 1.06675 0
M  V30 1217 C 115.23 -1.38622 0.790948 0
M  V30 1218 C 115.43 -1.92109 -0.607965 0
M  V30 1219 O 114.486 -2.12239 -1.36787 0
M  V30 1220 C 115.799 -2.36347 1.85905 0
M  V30 1221 C 117.347 -2.50023 1.88301 0
M  V30 1222 C 117.822 -3.51033 2.94176 0
M  V30 1223 N 119.313 -3.58563 2.93235 0
M  V30 1224 C 120.048 -4.36521 3.71803 0
M  V30 1225 N 119.544 -5.17869 4.602 0
M  V30 1226 N 121.337 -4.31541 3.60178 0
M  V30 1227 H 113.488 -0.796294 1.96908 0
M  V30 1228 H 115.751 -0.412597 0.853503 0
M  V30 1229 H 115.457 -2.04147 2.86386 0
M  V30 1230 H 115.331 -3.36042 1.71334 0
M  V30 1231 H 117.718 -2.81524 0.884769 0
M  V30 1232 H 117.799 -1.5035 2.06951 0
M  V30 1233 H 117.443 -3.20268 3.94196 0
M  V30 1234 H 117.373 -4.50445 2.72776 0
M  V30 1235 H 119.864 -3.00496 2.29152 0
M  V30 1236 H 120.177 -5.74578 5.16797 0
M  V30 1237 H 118.522 -5.17199 4.64253 0
M  V30 1238 H 121.713 -3.67051 2.90502 0
M  V30 1239 H 121.886 -4.9205 4.21653 0
M  V30 1240 N 115.292 -0.849877 -1.32721 0
M  V30 1241 C 116.532 -0.457146 -1.99222 0
M  V30 1242 C 116.896 0.968038 -1.6581 0
M  V30 1243 O 118.097 1.46507 -2.25364 0
M  V30 1244 C 116.368 -0.683966 -3.50794 0
M  V30 1245 S 117.927 -0.388095 -4.3708 0
M  V30 1246 H 114.745 -0.171464 -0.690015 0
M  V30 1247 H 117.347 -1.10155 -1.61512 0
M  V30 1248 H 116.051 -1.72038 -3.726 0
M  V30 1249 H 115.582 -0.0258086 -3.93392 0
M  V30 1250 H 117.597 0.787791 -4.89906 0
M  V30 1251 N 116.77 1.45427 -0.607355 0
M  V30 1252 C 117.7 2.3329 0.0989352 0
M  V30 1253 C 118.681 1.46816 0.859007 0
M  V30 1254 O 119.866 1.75588 0.829604 0
M  V30 1255 C 116.996 3.29518 1.09705 0
M  V30 1256 C 115.95 4.25626 0.450206 0
M  V30 1257 C 115.276 5.11542 1.55655 0
M  V30 1258 C 116.576 5.18505 -0.628455 0
M  V30 1259 H 118.27 2.92595 -0.634716 0
M  V30 1260 H 115.816 1.40696 -0.306681 0
M  V30 1261 H 117.769 3.89855 1.59971 0
M  V30 1262 H 116.493 2.68372 1.86129 0
M  V30 1263 H 115.152 3.66586 -0.0315886 0
M  V30 1264 H 114.8 4.46765 2.31107 0
M  V30 1265 H 114.5 5.76647 1.12925 0
M  V30 1266 H 116.024 5.74748 2.06148 0
M  V30 1267 H 117.438 5.72916 -0.209877 0
M  V30 1268 H 115.835 5.92085 -0.977489 0
M  V30 1269 H 116.905 4.60948 -1.50514 0
M  V30 1270 N 118.248 0.346503 1.53744 0
M  V30 1271 C 119.195 -0.508914 2.25119 0
M  V30 1272 C 120.165 -1.09315 1.25058 0
M  V30 1273 O 121.35 -1.12921 1.53797 0
M  V30 1274 C 118.49 -1.65246 3.02965 0
M  V30 1275 C 117.603 -1.09525 4.17886 0
M  V30 1276 C 116.738 -2.20634 4.83212 0
M  V30 1277 C 115.777 -1.62279 5.90196 0
M  V30 1278 N 114.914 -2.67143 6.49291 0
M  V30 1279 H 119.754 0.106283 2.9781 0
M  V30 1280 H 117.291 0.0642227 1.4696 0
M  V30 1281 H 119.249 -2.32574 3.4636 0
M  V30 1282 H 117.879 -2.2386 2.32565 0
M  V30 1283 H 116.931 -0.312818 3.79112 0
M  V30 1284 H 118.243 -0.628444 4.94825 0
M  V30 1285 H 117.397 -2.95821 5.29693 0
M  V30 1286 H 116.136 -2.70659 4.05703 0
M  V30 1287 H 115.141 -0.855989 5.43096 0
M  V30 1288 H 116.366 -1.13102 6.69615 0
M  V30 1289 H 114.312 -3.16417 5.74645 0
M  V30 1290 H 114.229 -2.25093 7.21713 0
M  V30 1291 H 115.497 -3.4209 7.00425 0
M  V30 1292 N 119.726 -1.57421 0.075193 0
M  V30 1293 C 120.966 -1.95495 -0.596757 0
M  V30 1294 C 121.33 -0.954886 -1.66571 0
M  V30 1295 O 122.531 -1.22341 -2.39345 0
M  V30 1296 C 120.802 -3.382 -1.15566 0
M  V30 1297 S 122.361 -3.98254 -1.84226 0
M  V30 1298 H 119.179 -0.683649 -0.195307 0
M  V30 1299 H 121.781 -1.94925 0.149859 0
M  V30 1300 H 120.485 -4.08766 -0.36588 0
M  V30 1301 H 120.016 -3.42321 -1.93856 0
M  V30 1302 H 122.031 -3.85435 -3.12497 0
M  V30 1303 N 121.204 0.198386 -1.56346 0
M  V30 1304 C 122.167 1.22952 -1.93431 0
M  V30 1305 C 123.167 1.38611 -0.815092 0
M  V30 1306 O 124.357 1.36479 -1.08255 0
M  V30 1307 C 121.489 2.59946 -2.20546 0
M  V30 1308 H 122.682 0.912626 -2.85677 0
M  V30 1309 H 120.235 0.43977 -1.49986 0
M  V30 1310 H 120.97 2.96696 -1.30927 0
M  V30 1311 H 120.755 2.49953 -3.02102 0
M  V30 1312 H 122.245 3.3431 -2.50253 0
M  V30 1313 N 122.682 1.50554 0.465978 0
M  V30 1314 C 123.959 1.5232 1.22712 0
M  V30 1315 C 124.339 0.270807 2.09356 0
M  V30 1316 O 123.687 -0.745541 2.15995 0
M  V30 1317 C 123.897 2.82175 2.05374 0
M  V30 1318 C 125.245 3.33033 2.6339 0
M  V30 1319 O 126.269 2.83531 2.15612 0
M  V30 1320 O 125.128 4.19336 3.50456 0
M  V30 1321 H 122.222 0.611183 0.557122 0
M  V30 1322 H 124.768 1.62847 0.477381 0
M  V30 1323 H 123.54 3.64797 1.41558 0
M  V30 1324 H 123.163 2.74675 2.87471 0
M  V30 1325 N 124.16 -0.719506 1.40217 0
M  V30 1326 C 125.123 -1.8153 1.39927 0
M  V30 1327 C 126.123 -1.58095 0.293723 0
M  V30 1328 O 127.313 -1.65209 0.552429 0
M  V30 1329 C 124.445 -3.19561 1.18716 0
M  V30 1330 H 125.638 -1.83186 2.37451 0
M  V30 1331 H 123.191 -0.924746 1.26008 0
M  V30 1332 H 123.926 -3.23557 0.219366 0
M  V30 1333 H 123.711 -3.3797 1.98793 0
M  V30 1334 H 125.201 -3.99598 1.21291 0
M  V30 1335 N 125.638 -1.25649 -0.95132 0
M  V30 1336 C 127.049 -1.09654 -1.51106 0
M  V30 1337 C 127.4 0.326615 -1.93462 0
M  V30 1338 O 126.525 1.21697 -1.78938 0
M  V30 1339 C 127.12 -1.98437 -2.74605 0
M  V30 1340 C 125.679 -1.86618 -3.2688 0
M  V30 1341 C 124.826 -1.9239 -1.99703 0
M  V30 1342 H 127.777 -1.38887 -0.767865 0
M  V30 1343 H 127.798 -1.5263 -3.48546 0
M  V30 1344 H 127.31 -3.02009 -2.43746 0
M  V30 1345 H 125.411 -0.859421 -3.62553 0
M  V30 1346 H 125.524 -2.71607 -3.94673 0
M  V30 1347 H 123.888 -1.36317 -2.15151 0
M  V30 1348 H 124.671 -2.97573 -1.71188 0
M  V30 1349 N 127.117 1.15442 -1.07289 0
M  V30 1350 C 128.357 1.8788 -0.805012 0
M  V30 1351 C 128.721 1.80413 0.656907 0
M  V30 1352 O 129.922 2.47874 1.0398 0
M  V30 1353 C 128.193 3.3298 -1.29843 0
M  V30 1354 S 129.752 4.23158 -1.16114 0
M  V30 1355 H 126.57 0.64839 -0.291739 0
M  V30 1356 H 129.172 1.39285 -1.37186 0
M  V30 1357 H 127.876 3.35958 -2.35712 0
M  V30 1358 H 127.407 3.86629 -0.726767 0
M  V30 1359 H 129.422 4.96103 -0.0982778 0
M  V30 1360 N 128.595 0.856903 1.32268 0
M  V30 1361 C 129.527 0.260412 2.27716 0
M  V30 1362 C 130.54 -0.569137 1.52528 0
M  V30 1363 O 131.729 -0.39326 1.74114 0
M  V30 1364 C 128.829 -0.650477 3.32599 0
M  V30 1365 C 128.002 0.14372 4.37164 0
M  V30 1366 C 127.061 -0.69328 5.21613 0
M  V30 1367 O 126.087 -0.12599 5.69061 0
M  V30 1368 N 127.289 -2.00761 5.44679 0
M  V30 1369 H 130.054 1.08059 2.79541 0
M  V30 1370 H 127.615 0.717103 1.45152 0
M  V30 1371 H 129.607 -1.21581 3.86005 0
M  V30 1372 H 128.177 -1.37133 2.80915 0
M  V30 1373 H 127.397 0.890486 3.8401 0
M  V30 1374 H 128.685 0.68915 5.04111 0
M  V30 1375 H 128.083 -2.49181 5.07863 0
M  V30 1376 H 126.64 -2.52103 6.01072 0
M  V30 1377 N 130.073 -1.45103 0.615059 0
M  V30 1378 C 131.02 -2.30586 -0.0993978 0
M  V30 1379 C 131.99 -1.42544 -0.852669 0
M  V30 1380 O 133.175 -1.71465 -0.836917 0
M  V30 1381 C 130.315 -3.27572 -1.08583 0
M  V30 1382 C 129.428 -4.30717 -0.332656 0
M  V30 1383 C 128.563 -5.14807 -1.30947 0
M  V30 1384 C 127.602 -6.09673 -0.544538 0
M  V30 1385 N 126.739 -6.86517 -1.47101 0
M  V30 1386 H 131.579 -2.91144 0.635542 0
M  V30 1387 H 129.116 -1.4346 0.325206 0
M  V30 1388 H 131.074 -3.82276 -1.67095 0
M  V30 1389 H 129.704 -2.68751 -1.78809 0
M  V30 1390 H 128.756 -3.78615 0.368107 0
M  V30 1391 H 130.068 -4.98102 0.263842 0
M  V30 1392 H 129.222 -5.73948 -1.96643 0
M  V30 1393 H 127.961 -4.47458 -1.9399 0
M  V30 1394 H 126.966 -5.49656 0.126003 0
M  V30 1395 H 128.191 -6.79052 0.080947 0
M  V30 1396 H 126.137 -6.21851 -2.08895 0
M  V30 1397 H 126.054 -7.50281 -0.928137 0
M  V30 1398 H 127.322 -7.50194 -2.11731 0
M  V30 1399 N 131.551 -0.354651 -1.53558 0
M  V30 1400 C 132.776 0.242153 -2.05981 0
M  V30 1401 C 133.201 1.42553 -1.2272 0
M  V30 1402 O 132.559 1.79656 -0.243604 0
M  V30 1403 C 132.607 0.624367 -3.55154 0
M  V30 1404 O 131.711 1.72301 -3.74681 0
M  V30 1405 H 131.052 0.0378432 -0.662921 0
M  V30 1406 H 133.582 -0.512087 -1.98088 0
M  V30 1407 H 133.592 0.898433 -3.97985 0
M  V30 1408 H 132.267 -0.240989 -4.15201 0
M  V30 1409 H 130.844 1.44535 -3.4375 0
M  V30 1410 N 133.029 1.57378 -0.0835403 0
M  V30 1411 C 134.269 1.95808 0.586381 0
M  V30 1412 C 134.633 0.963706 1.66062 0
M  V30 1413 O 135.834 1.23608 2.38693 0
M  V30 1414 C 134.105 3.38808 1.13771 0
M  V30 1415 S 135.664 3.99225 1.82112 0
M  V30 1416 H 132.482 0.684675 0.191679 0
M  V30 1417 H 135.084 1.94843 -0.160194 0
M  V30 1418 H 133.788 4.08954 0.344197 0
M  V30 1419 H 133.319 3.43344 1.92038 0
M  V30 1420 H 135.334 3.87087 3.10449 0
M  V30 1421 N 134.507 -0.190092 1.56449 0
M  V30 1422 C 135.918 -0.754312 1.70784 0
M  V30 1423 C 136.269 -1.83631 0.690951 0
M  V30 1424 O 135.394 -2.15868 -0.151604 0
M  V30 1425 C 135.989 -1.37503 3.09642 0
M  V30 1426 C 134.548 -1.88628 3.25725 0
M  V30 1427 C 133.695 -0.758098 2.66736 0
M  V30 1428 H 136.646 0.0350524 1.58661 0
M  V30 1429 H 136.667 -2.2445 3.0725 0
M  V30 1430 H 136.179 -0.587302 3.83631 0
M  V30 1431 H 134.28 -2.70103 2.56661 0
M  V30 1432 H 134.393 -2.04462 4.3328 0
M  V30 1433 H 132.757 -1.17369 2.26046 0
M  V30 1434 H 133.54 0.0174705 3.43296 0
M  V30 1435 N 135.985 -1.50799 -0.457987 0
M  V30 1436 C 137.213 -1.66218 -1.23203 0
M  V30 1437 C 137.628 -0.350894 -1.85511 0
M  V30 1438 O 136.985 0.668546 -1.69814 0
M  V30 1439 C 137.036 -2.76291 -2.33121 0
M  V30 1440 O 136.757 -4.02338 -1.73366 0
M  V30 1441 C 138.258 -3.028 -3.2377 0
M  V30 1442 H 135.478 -0.558361 -0.372121 0
M  V30 1443 H 138.022 -1.97099 -0.545179 0
M  V30 1444 H 136.177 -2.48068 -2.97558 0
M  V30 1445 H 136.591 -4.63312 -2.4585 0
M  V30 1446 H 138.065 -3.8345 -3.97077 0
M  V30 1447 H 138.542 -2.14385 -3.83322 0
M  V30 1448 H 139.148 -3.32604 -2.65056 0
M  V30 1449 N 137.463 0.71206 -1.40597 0
M  V30 1450 C 138.411 1.84746 -1.41321 0
M  V30 1451 C 139.405 1.66842 -0.293268 0
M  V30 1452 O 140.611 1.73904 -0.464481 0
M  V30 1453 H 136.986 0.608522 -0.441819 0
M  V30 1454 H 138.957 1.81252 -2.37045 0
M  V30 1455 C 137.706 3.22638 -1.29614 0
M  V30 1456 H 137.029 3.37023 -2.15071 0
M  V30 1457 H 138.469 4.02209 -1.3418 0
M  V30 1458 C 136.928 3.36899 -0.00673121 0
M  V30 1459 O 137.458 3.90186 0.954859 0
M  V30 1460 N 135.664 2.9053 0.0639327 0
M  V30 1461 H 135.211 2.47353 -0.719311 0
M  V30 1462 H 135.169 3.0045 0.926118 0
M  V30 1463 N 138.941 1.26152 0.944643 0
M  V30 1464 C 139.871 1.09902 2.06019 0
M  V30 1465 C 140.852 0.00519538 1.70099 0
M  V30 1466 O 142.037 0.176583 1.93396 0
M  V30 1467 C 139.167 0.727562 3.39594 0
M  V30 1468 C 138.121 1.77274 3.89561 0
M  V30 1469 C 137.447 1.25569 5.19747 0
M  V30 1470 C 138.747 3.17357 4.14827 0
M  V30 1471 H 140.441 2.03217 2.19871 0
M  V30 1472 H 137.987 0.978452 1.05652 0
M  V30 1473 H 139.94 0.600777 4.17095 0
M  V30 1474 H 138.664 -0.241287 3.25707 0
M  V30 1475 H 137.323 1.88814 3.14237 0
M  V30 1476 H 136.971 0.276783 5.02238 0
M  V30 1477 H 136.671 1.95433 5.54148 0
M  V30 1478 H 138.195 1.1415 5.99835 0
M  V30 1479 H 139.609 3.08914 4.82954 0
M  V30 1480 H 138.006 3.84781 4.60504 0
M  V30 1481 H 139.076 3.63673 3.20734 0
M  V30 1482 N 140.419 -1.14872 1.07899 0
M  V30 1483 C 141.696 -1.81928 0.71845 0
M  V30 1484 C 142.076 -1.95417 -0.798455 0
M  V30 1485 O 141.424 -1.50997 -1.715 0
M  V30 1486 C 141.634 -3.17937 1.43935 0
M  V30 1487 C 142.982 -3.93501 1.59506 0
M  V30 1488 O 144.006 -3.27509 1.40058 0
M  V30 1489 O 142.865 -5.1183 1.91551 0
M  V30 1490 H 139.959 -0.78628 0.256305 0
M  V30 1491 H 142.505 -1.21934 1.18026 0
M  V30 1492 H 141.277 -3.0325 2.47295 0
M  V30 1493 H 140.9 -3.85619 0.968687 0
M  V30 1494 N 141.898 -0.863906 -1.31812 0
M  V30 1495 C 143.147 -0.46801 -1.96195 0
M  V30 1496 C 143.46 0.983474 -1.69077 0
M  V30 1497 O 144.666 1.48523 -2.27273 0
M  V30 1498 C 143.122 -0.785995 -3.51212 0
M  V30 1499 C 142.73 -2.25383 -3.87178 0
M  V30 1500 C 144.474 -0.458274 -4.22019 0
M  V30 1501 C 142.381 -2.51455 -5.3528 0
M  V30 1502 H 141.311 -0.171283 -0.734287 0
M  V30 1503 H 143.962 -1.05597 -1.50072 0
M  V30 1504 H 142.344 -0.127359 -3.95795 0
M  V30 1505 H 143.518 -2.95502 -3.53575 0
M  V30 1506 H 141.833 -2.54698 -3.2942 0
M  V30 1507 H 144.43 -0.630369 -5.30971 0
M  V30 1508 H 144.773 0.600834 -4.11941 0
M  V30 1509 H 145.306 -1.07319 -3.8305 0
M  V30 1510 H 142.045 -3.56025 -5.50387 0
M  V30 1511 H 141.565 -1.85923 -5.70257 0
M  V30 1512 H 143.244 -2.35874 -6.02472 0
M  V30 1513 N 143.376 1.44774 -0.622745 0
M  V30 1514 C 144.323 2.30635 0.0871679 0
M  V30 1515 C 145.293 1.42994 0.845097 0
M  V30 1516 O 146.478 1.71907 0.827812 0
M  V30 1517 C 143.618 3.28144 1.06844 0
M  V30 1518 C 142.731 4.30888 0.309809 0
M  V30 1519 C 141.866 5.15494 1.28215 0
M  V30 1520 C 140.905 6.09953 0.512198 0
M  V30 1521 N 140.042 6.87287 1.43458 0
M  V30 1522 H 144.882 2.90803 -0.650974 0
M  V30 1523 H 142.419 1.43286 -0.33281 0
M  V30 1524 H 144.377 3.83157 1.65066 0
M  V30 1525 H 143.007 2.69695 1.77382 0
M  V30 1526 H 142.059 3.78414 -0.388181 0
M  V30 1527 H 143.371 4.97955 -0.290254 0
M  V30 1528 H 142.525 5.74983 1.93596 0
M  V30 1529 H 141.264 4.48481 1.91614 0
M  V30 1530 H 140.269 5.49581 -0.155151 0
M  V30 1531 H 141.494 6.78999 -0.116958 0
M  V30 1532 H 139.44 6.2295 2.05594 0
M  V30 1533 H 139.357 7.50763 0.888335 0
M  V30 1534 H 140.625 7.51306 2.07749 0
M  V30 1535 N 144.854 0.36279 1.53368 0
M  V30 1536 C 146.079 -0.231226 2.06107 0
M  V30 1537 C 146.504 -1.419 1.23474 0
M  V30 1538 O 145.862 -1.79524 0.253128 0
M  V30 1539 C 145.91 -0.605523 3.5548 0
M  V30 1540 O 145.014 -1.70312 3.7559 0
M  V30 1541 H 144.355 -0.034327 0.663112 0
M  V30 1542 H 146.885 0.522584 1.97814 0
M  V30 1543 H 146.895 -0.877314 3.98456 0
M  V30 1544 H 145.57 0.263004 4.15068 0
M  V30 1545 H 144.147 -1.4271 3.44512 0
M  V30 1546 N 146.332 -1.57332 0.0918853 0
M  V30 1547 C 147.579 -1.94236 -0.572577 0
M  V30 1548 C 147.907 -0.973398 -1.6839 0
M  V30 1549 O 147.162 0.00756912 -1.95699 0
M  V30 1550 C 147.461 -3.37689 -1.17051 0
M  V30 1551 C 147.127 -4.50527 -0.183304 0
M  V30 1552 C 145.789 -4.81119 0.0882276 0
M  V30 1553 C 148.141 -5.18883 0.49095 0
M  V30 1554 C 145.469 -5.77395 1.04076 0
M  V30 1555 C 147.821 -6.1618 1.43193 0
M  V30 1556 C 146.485 -6.45179 1.71173 0
M  V30 1557 H 145.755 -0.710762 -0.209521 0
M  V30 1558 H 148.402 -1.9077 0.167036 0
M  V30 1559 H 146.707 -3.37718 -1.9863 0
M  V30 1560 H 148.404 -3.63543 -1.69227 0
M  V30 1561 H 144.994 -4.26681 -0.405124 0
M  V30 1562 H 149.178 -4.95427 0.294312 0
M  V30 1563 H 144.434 -5.98179 1.26457 0
M  V30 1564 H 148.608 -6.68243 1.96023 0
M  V30 1565 H 146.235 -7.1959 2.4514 0
M  V30 1566 N 147.81 0.181792 -1.56548 0
M  V30 1567 C 149.059 0.898348 -1.8059 0
M  V30 1568 C 149.372 1.83862 -0.667379 0
M  V30 1569 O 150.578 2.59678 -0.792446 0
M  V30 1570 C 149.034 1.64791 -3.19956 0
M  V30 1571 C 148.642 0.751789 -4.41647 0
M  V30 1572 C 150.386 2.35331 -3.53298 0
M  V30 1573 C 148.293 1.50098 -5.72035 0
M  V30 1574 H 147.223 0.339194 -0.673397 0
M  V30 1575 H 149.874 0.151413 -1.82874 0
M  V30 1576 H 148.256 2.43921 -3.11959 0
M  V30 1577 H 149.43 -0.0018076 -4.608 0
M  V30 1578 H 147.745 0.156562 -4.16106 0
M  V30 1579 H 150.342 2.91958 -4.47956 0
M  V30 1580 H 150.685 3.10164 -2.77676 0
M  V30 1581 H 151.218 1.63154 -3.62803 0
M  V30 1582 H 147.957 0.795175 -6.50659 0
M  V30 1583 H 147.477 2.22817 -5.56878 0
M  V30 1584 H 149.156 2.05125 -6.13622 0
M  V30 1585 N 149.288 1.51039 0.449983 0
M  V30 1586 C 150.516 1.66869 1.2232 0
M  V30 1587 C 150.931 0.360727 1.85322 0
M  V30 1588 O 150.288 -0.659531 1.70166 0
M  V30 1589 C 150.339 2.77524 2.31652 0
M  V30 1590 O 150.06 4.03252 1.7123 0
M  V30 1591 C 151.561 3.04512 3.2216 0
M  V30 1592 H 148.781 0.560326 0.369155 0
M  V30 1593 H 151.325 1.97385 0.534719 0
M  V30 1594 H 149.48 2.49642 2.96239 0
M  V30 1595 H 149.894 4.64609 2.43389 0
M  V30 1596 H 151.368 3.85551 3.95038 0
M  V30 1597 H 151.845 2.16415 3.8218 0
M  V30 1598 H 152.451 3.34005 2.63288 0
M  V30 1599 N 150.766 -0.704594 1.40972 0
M  V30 1600 C 151.991 -1.49858 1.43378 0
M  V30 1601 C 152.416 -1.88061 0.038184 0
M  V30 1602 O 151.774 -1.5402 -0.956425 0
M  V30 1603 C 151.822 -2.74333 2.34038 0
M  V30 1604 O 150.926 -3.7147 1.7912 0
M  V30 1605 H 150.267 -0.45139 0.486974 0
M  V30 1606 H 152.797 -0.866832 1.8533 0
M  V30 1607 H 152.807 -3.22741 2.49604 0
M  V30 1608 H 151.482 -2.45863 3.35446 0
M  V30 1609 H 150.059 -3.30363 1.72958 0
M  V30 1610 N 152.244 -1.26651 -0.937939 0
M  V30 1611 C 153.493 -1.11775 -1.67897 0
M  V30 1612 C 153.806 0.33794 -1.92659 0
M  V30 1613 O 155.012 0.607434 -2.64618 0
M  V30 1614 C 153.468 -1.9523 -3.02346 0
M  V30 1615 C 153.076 -3.45393 -2.8532 0
M  V30 1616 C 154.82 -1.88972 -3.80118 0
M  V30 1617 C 152.727 -4.21083 -4.15263 0
M  V30 1618 H 151.657 -0.414696 -0.629717 0
M  V30 1619 H 154.308 -1.50988 -1.04283 0
M  V30 1620 H 152.69 -1.48853 -3.66959 0
M  V30 1621 H 153.864 -3.99561 -2.29537 0
M  V30 1622 H 152.179 -3.52921 -2.20988 0
M  V30 1623 H 154.776 -2.42805 -4.76392 0
M  V30 1624 H 155.119 -0.86113 -4.07296 0
M  V30 1625 H 155.652 -2.33189 -3.22285 0
M  V30 1626 H 152.391 -5.24425 -3.93267 0
M  V30 1627 H 151.911 -3.71695 -4.70747 0
M  V30 1628 H 153.59 -4.29706 -4.83696 0
M  V30 1629 N 153.722 1.14298 -1.08507 0
M  V30 1630 C 154.685 2.17607 -0.719711 0
M  V30 1631 C 155.685 1.58907 0.245997 0
M  V30 1632 O 156.875 1.74181 0.0254081 0
M  V30 1633 C 154.007 3.40842 -0.0627695 0
M  V30 1634 H 155.2 2.51443 -1.63452 0
M  V30 1635 H 152.753 1.28963 -0.88307 0
M  V30 1636 H 153.488 3.12587 0.863716 0
M  V30 1637 H 153.273 3.84713 -0.757504 0
M  V30 1638 H 154.763 4.17221 0.177786 0
M  V30 1639 N 155.201 0.870884 1.31352 0
M  V30 1640 C 156.149 0.316445 2.30437 0
M  V30 1641 C 157.143 -0.568965 1.59559 0
M  V30 1642 O 158.349 -0.454964 1.74155 0
M  V30 1643 H 154.724 0.0836521 0.747333 0
M  V30 1644 H 156.695 1.16606 2.74673 0
M  V30 1645 C 155.444 -0.46635 3.44558 0
M  V30 1646 H 154.767 0.205687 3.99271 0
M  V30 1647 H 156.207 -0.819614 4.16003 0
M  V30 1648 C 154.666 -1.65797 2.9328 0
M  V30 1649 O 155.196 -2.75728 2.92125 0
M  V30 1650 N 153.402 -1.49041 2.4947 0
M  V30 1651 H 152.949 -0.59612 2.50608 0
M  V30 1652 H 152.907 -2.28911 2.15516 0
M  V30 1653 N 156.679 -1.44442 0.630414 0
M  V30 1654 C 157.626 -2.30678 -0.0749355 0
M  V30 1655 C 158.596 -1.4344 -0.837502 0
M  V30 1656 O 159.781 -1.72343 -0.818684 0
M  V30 1657 C 156.921 -3.28706 -1.05103 0
M  V30 1658 C 156.034 -4.31046 -0.286954 0
M  V30 1659 C 155.169 -5.16167 -1.2548 0
M  V30 1660 C 154.208 -6.10216 -0.479843 0
M  V30 1661 N 153.345 -6.88039 -1.39811 0
M  V30 1662 H 158.185 -2.90454 0.666386 0
M  V30 1663 H 155.722 -1.43107 0.340404 0
M  V30 1664 H 157.68 -3.84027 -1.63031 0
M  V30 1665 H 156.31 -2.70632 -1.75949 0
M  V30 1666 H 155.362 -3.78203 0.408243 0
M  V30 1667 H 156.674 -4.97794 0.316657 0
M  V30 1668 H 155.828 -5.76002 -1.90544 0
M  V30 1669 H 154.567 -4.49491 -1.89233 0
M  V30 1670 H 153.572 -5.49491 0.184295 0
M  V30 1671 H 154.797 -6.78928 0.152965 0
M  V30 1672 H 152.743 -6.24032 -2.02287 0
M  V30 1673 H 152.66 -7.51223 -0.848508 0
M  V30 1674 H 153.928 -7.52397 -2.03762 0
M  V30 1675 N 158.157 -0.370918 -1.53173 0
M  V30 1676 C 159.105 0.488101 -2.27421 0
M  V30 1677 C 160.099 1.07884 -1.30604 0
M  V30 1678 O 161.305 1.02143 -1.48212 0
M  V30 1679 H 157.68 0.176134 -0.731082 0
M  V30 1680 H 159.651 -0.159815 -2.97972 0
M  V30 1681 C 158.4 1.61306 -3.08019 0
M  V30 1682 H 157.723 1.1678 -3.82364 0
M  V30 1683 H 159.163 2.18872 -3.63141 0
M  V30 1684 C 157.622 2.55848 -2.19188 0
M  V30 1685 O 158.152 3.58799 -1.80626 0
M  V30 1686 N 156.358 2.2516 -1.83715 0
M  V30 1687 H 155.905 1.41476 -2.15273 0
M  V30 1688 H 155.863 2.8867 -1.24567 0
M  V30 1689 N 159.635 1.57281 -0.100228 0
M  V30 1690 C 160.865 1.98591 0.569681 0
M  V30 1691 C 161.273 0.978315 1.61943 0
M  V30 1692 O 160.616 -0.0396108 1.83657 0
M  V30 1693 C 160.678 3.36282 1.271 0
M  V30 1694 C 160.342 4.55488 0.371409 0
M  V30 1695 C 161.339 5.18491 -0.382504 0
M  V30 1696 C 159.024 5.01474 0.287965 0
M  V30 1697 C 161.018 6.25852 -1.20779 0
M  V30 1698 C 158.705 6.08701 -0.540965 0
M  V30 1699 C 159.703 6.70755 -1.28749 0
M  V30 1700 O 159.391 7.75914 -2.10269 0
M  V30 1701 H 159.123 0.65752 0.156982 0
M  V30 1702 H 161.677 2.0463 -0.177734 0
M  V30 1703 H 159.907 3.26941 2.0651 0
M  V30 1704 H 161.596 3.62005 1.83595 0
M  V30 1705 H 162.362 4.83891 -0.3278 0
M  V30 1706 H 158.241 4.52932 0.858689 0
M  V30 1707 H 161.785 6.74218 -1.79096 0
M  V30 1708 H 157.682 6.42732 -0.597131 0
M  V30 1709 H 158.45 7.92925 -2.03007 0
M  V30 1710 N 161.113 -0.173488 1.56642 0
M  V30 1711 C 162.343 -0.904781 1.85734 0
M  V30 1712 C 162.751 -1.76431 0.68328 0
M  V30 1713 O 162.094 -1.802 -0.356865 0
M  V30 1714 C 162.156 -1.83382 3.09211 0
M  V30 1715 C 161.82 -1.15411 4.42187 0
M  V30 1716 C 162.817 -0.520609 5.17287 0
M  V30 1717 C 160.502 -1.15151 4.88923 0
M  V30 1718 C 162.496 0.106412 6.37311 0
M  V30 1719 C 160.183 -0.520664 6.08878 0
M  V30 1720 C 161.181 0.107196 6.82916 0
M  V30 1721 O 160.869 0.728102 8.00596 0
M  V30 1722 H 160.601 -0.268408 0.62043 0
M  V30 1723 H 163.155 -0.179096 2.04618 0
M  V30 1724 H 161.385 -2.59976 2.86268 0
M  V30 1725 H 163.074 -2.43476 3.24768 0
M  V30 1726 H 163.84 -0.514606 4.82262 0
M  V30 1727 H 159.719 -1.62961 4.31236 0
M  V30 1728 H 163.263 0.597081 6.9504 0
M  V30 1729 H 159.16 -0.524242 6.43368 0
M  V30 1730 H 159.928 0.627138 8.16094 0
M  V30 1731 N 162.591 -1.51276 -0.441967 0
M  V30 1732 C 163.839 -1.63392 -1.18943 0
M  V30 1733 C 164.16 -0.350159 -1.9183 0
M  V30 1734 O 163.43 0.633784 -1.85364 0
M  V30 1735 H 162.01 -0.602164 -0.442049 0
M  V30 1736 H 164.672 -1.88186 -0.507165 0
M  V30 1737 H 163.768 -2.45934 -1.92154 0
M  V30 1738 N 164.069 0.697108 -1.41344 0
M  V30 1739 C 165.032 1.79281 -1.42797 0
M  V30 1740 C 166.032 1.57607 -0.318837 0
M  V30 1741 O 167.222 1.64309 -0.578642 0
M  V30 1742 C 164.354 3.17632 -1.23785 0
M  V30 1743 H 165.547 1.79385 -2.40335 0
M  V30 1744 H 163.1 0.904582 -1.27464 0
M  V30 1745 H 163.835 3.23167 -0.270814 0
M  V30 1746 H 163.62 3.34765 -2.04144 0
M  V30 1747 H 165.11 3.97617 -1.27633 0
M  V30 1748 N 165.547 1.27147 0.931209 0
M  V30 1749 C 166.51 1.09615 2.01289 0
M  V30 1750 C 167.51 0.0412581 1.60747 0
M  V30 1751 O 168.7 0.285545 1.71844 0
M  V30 1752 C 165.832 0.669447 3.34262 0
M  V30 1753 H 167.025 2.05662 2.18273 0
M  V30 1754 H 164.578 1.09885 1.11153 0
M  V30 1755 H 165.313 -0.292572 3.22978 0
M  V30 1756 H 165.098 1.43127 3.65044 0
M  V30 1757 H 166.588 0.568921 4.13706 0
M  V30 1758 N 167.025 -1.13721 1.09112 0
M  V30 1759 C 167.972 -2.19031 0.727591 0
M  V30 1760 C 168.942 -1.63555 -0.289656 0
M  V30 1761 O 170.127 -1.90023 -0.172026 0
M  V30 1762 C 167.267 -3.4477 0.15082 0
M  V30 1763 C 166.38 -4.14365 1.22172 0
M  V30 1764 C 165.515 -5.27709 0.608042 0
M  V30 1765 C 164.554 -5.89147 1.66047 0
M  V30 1766 N 163.691 -6.93929 1.06806 0
M  V30 1767 H 168.531 -2.49475 1.62991 0
M  V30 1768 H 166.068 -1.22499 0.81439 0
M  V30 1769 H 168.026 -4.16714 -0.201358 0
M  V30 1770 H 166.656 -3.14787 -0.714783 0
M  V30 1771 H 165.708 -3.40737 1.69122 0
M  V30 1772 H 167.02 -4.56114 2.01895 0
M  V30 1773 H 166.174 -6.06355 0.204523 0
M  V30 1774 H 164.913 -4.872 -0.220769 0
M  V30 1775 H 163.918 -5.09198 2.07357 0
M  V30 1776 H 165.143 -6.31729 2.49189 0
M  V30 1777 H 163.089 -6.55483 0.260476 0
M  V30 1778 H 163.006 -7.34202 1.8023 0
M  V30 1779 H 164.274 -7.76434 0.690644 0
M  V30 1780 N 168.503 -0.877838 -1.30888 0
M  V30 1781 C 169.436 -0.283995 -2.26426 0
M  V30 1782 C 170.414 0.591361 -1.51465 0
M  V30 1783 O 171.598 0.54304 -1.80509 0
M  V30 1784 C 168.725 0.597129 -3.33395 0
M  V30 1785 C 167.771 -0.207937 -4.25993 0
M  V30 1786 S 168.604 -1.59158 -5.11301 0
M  V30 1787 C 169.76 -0.716791 -6.21782 0
M  V30 1788 H 169.993 -1.09383 -2.76446 0
M  V30 1789 H 167.526 -0.676828 -1.38775 0
M  V30 1790 H 169.484 1.09978 -3.95493 0
M  V30 1791 H 168.145 1.38099 -2.82113 0
M  V30 1792 H 167.338 0.464163 -5.01858 0
M  V30 1793 H 166.94 -0.642963 -3.68432 0
M  V30 1794 H 169.232 0.0692833 -6.77465 0
M  V30 1795 H 170.175 -1.44682 -6.93161 0
M  V30 1796 H 170.583 -0.280855 -5.63801 0
M  V30 1797 N 169.982 1.44106 -0.638065 0
M  V30 1798 C 171.231 2.01194 -0.142744 0
M  V30 1799 C 171.544 1.50835 1.24532 0
M  V30 1800 O 172.75 2.00096 1.83504 0
M  V30 1801 C 171.206 3.59319 -0.20442 0
M  V30 1802 C 170.814 4.18674 -1.59423 0
M  V30 1803 C 172.558 4.23854 0.234079 0
M  V30 1804 C 170.465 5.69045 -1.61065 0
M  V30 1805 H 169.395 0.752367 -0.0495998 0
M  V30 1806 H 172.046 1.65246 -0.797881 0
M  V30 1807 H 170.428 3.92598 0.517946 0
M  V30 1808 H 171.602 3.96921 -2.34074 0
M  V30 1809 H 169.917 3.66453 -1.97741 0
M  V30 1810 H 172.514 5.34155 0.241443 0
M  V30 1811 H 172.857 3.96688 1.2627 0
M  V30 1812 H 173.39 3.95403 -0.436025 0
M  V30 1813 H 170.129 6.00956 -2.61787 0
M  V30 1814 H 169.649 5.929 -0.90718 0
M  V30 1815 H 171.328 6.32809 -1.34766 0
M  V30 1816 N 171.46 0.379036 1.52974 0
M  V30 1817 C 172.707 -0.206421 2.01445 0
M  V30 1818 C 173.035 -1.47668 1.26587 0
M  V30 1819 O 172.29 -1.92514 0.351675 0
M  V30 1820 C 172.589 -0.53096 3.53434 0
M  V30 1821 C 172.255 0.646546 4.46241 0
M  V30 1822 C 170.917 0.969604 4.7133 0
M  V30 1823 C 173.269 1.43479 5.01062 0
M  V30 1824 C 170.597 2.08263 5.48492 0
M  V30 1825 C 172.949 2.53834 5.7944 0
M  V30 1826 C 171.613 2.86659 6.02812 0
M  V30 1827 H 170.883 -0.0755349 0.73714 0
M  V30 1828 H 173.53 0.514271 1.84465 0
M  V30 1829 H 171.835 -1.33285 3.68432 0
M  V30 1830 H 173.532 -0.996417 3.88423 0
M  V30 1831 H 170.122 0.384734 4.2687 0
M  V30 1832 H 174.306 1.19844 4.81613 0
M  V30 1833 H 169.562 2.34078 5.64816 0
M  V30 1834 H 173.736 3.15319 6.20924 0
M  V30 1835 H 171.363 3.73026 6.62387 0
M  V30 1836 N 172.938 -1.57226 0.108567 0
M  V30 1837 C 174.163 -1.99604 -0.563303 0
M  V30 1838 C 174.588 -0.987563 -1.6009 0
M  V30 1839 O 173.946 0.0421687 -1.81251 0
M  V30 1840 C 173.994 -3.40902 -1.17552 0
M  V30 1841 O 173.098 -3.42896 -2.2912 0
M  V30 1842 H 172.439 -0.648704 -0.1417 0
M  V30 1843 H 174.969 -2.03679 0.193961 0
M  V30 1844 H 174.979 -3.78886 -1.51357 0
M  V30 1845 H 173.654 -4.1382 -0.415445 0
M  V30 1846 H 172.231 -3.1672 -1.96832 0
M  V30 1847 N 174.416 0.165178 -1.56732 0
M  V30 1848 C 175.693 0.908443 -1.73224 0
M  V30 1849 C 176.073 2.0013 -0.67165 0
M  V30 1850 O 175.421 2.26353 0.31253 0
M  V30 1851 C 175.631 1.46756 -3.16644 0
M  V30 1852 C 176.979 1.93809 -3.77787 0
M  V30 1853 O 178.003 1.56537 -3.1996 0
M  V30 1854 O 176.862 2.62486 -4.79336 0
M  V30 1855 H 173.956 0.428025 -0.707618 0
M  V30 1856 H 176.502 0.152526 -1.69013 0
M  V30 1857 H 175.274 0.68129 -3.85323 0
M  V30 1858 H 174.897 2.28749 -3.25207 0
M  V30 1859 N 175.894 1.51508 0.433938 0
M  V30 1860 C 176.842 1.73646 1.54757 0
M  V30 1861 C 177.836 0.602854 1.5831 0
M  V30 1862 O 179.042 0.784318 1.62014 0
M  V30 1863 H 175.417 0.548718 0.51421 0
M  V30 1864 H 177.388 2.66991 1.33261 0
M  V30 1865 C 176.137 1.88172 2.92381 0
M  V30 1866 H 175.46 2.74808 2.90381 0
M  V30 1867 H 176.9 2.07672 3.6966 0
M  V30 1868 C 175.359 0.64239 3.30719 0
M  V30 1869 O 175.889 -0.201362 4.01195 0
M  V30 1870 N 174.095 0.485489 2.86516 0
M  V30 1871 H 173.642 1.17318 2.29334 0
M  V30 1872 H 173.6 -0.342482 3.12529 0
M  V30 1873 N 177.372 -0.689602 1.41712 0
M  V30 1874 C 178.783 -1.26973 1.36875 0
M  V30 1875 C 179.134 -1.96124 0.054748 0
M  V30 1876 O 178.259 -1.99141 -0.84687 0
M  V30 1877 C 178.854 -2.30912 2.47922 0
M  V30 1878 C 177.413 -2.84486 2.46464 0
M  V30 1879 C 176.56 -1.58603 2.27465 0
M  V30 1880 H 179.511 -0.48396 1.51141 0
M  V30 1881 H 179.532 -3.12331 2.17323 0
M  V30 1882 H 179.044 -1.80554 3.43543 0
M  V30 1883 H 177.145 -3.39005 1.54617 0
M  V30 1884 H 177.258 -3.34511 3.42986 0
M  V30 1885 H 175.622 -1.84632 1.75451 0
M  V30 1886 H 176.405 -1.10233 3.25121 0
M  V30 1887 N 178.85 -1.27639 -0.924453 0
M  V30 1888 C 179.78 -1.13166 -2.04244 0
M  V30 1889 C 180.761 -0.032256 -1.70069 0
M  V30 1890 O 181.946 -0.207328 -1.9309 0
M  V30 1891 C 179.076 -0.781496 -3.38393 0
M  V30 1892 C 178.03 -1.83449 -3.86692 0
M  V30 1893 C 177.356 -1.33822 -5.17683 0
M  V30 1894 C 178.656 -3.23917 -4.09726 0
M  V30 1895 H 180.35 -2.06689 -2.1661 0
M  V30 1896 H 177.896 -0.995136 -1.04082 0
M  V30 1897 H 179.849 -0.667057 -4.16087 0
M  V30 1898 H 178.573 0.189439 -3.2605 0
M  V30 1899 H 177.232 -1.93789 -3.11193 0
M  V30 1900 H 176.88 -0.35665 -5.01734 0
M  V30 1901 H 176.58 -2.04224 -5.50968 0
M  V30 1902 H 178.104 -1.23679 -5.97943 0
M  V30 1903 H 179.518 -3.16559 -4.77978 0
M  V30 1904 H 177.915 -3.92059 -4.54324 0
M  V30 1905 H 178.985 -3.68729 -3.14908 0
M  V30 1906 N 180.328 1.1314 -1.09713 0
M  V30 1907 C 181.576 1.84119 -0.833338 0
M  V30 1908 C 181.897 1.84097 0.642904 0
M  V30 1909 O 181.167 1.29881 1.46655 0
M  V30 1910 H 179.747 0.681766 -0.305293 0
M  V30 1911 H 182.409 1.37038 -1.38588 0
M  V30 1912 H 181.505 2.88543 -1.18951 0
M  V30 1913 N 181.806 0.884767 1.30421 0
M  V30 1914 C 182.736 0.367574 2.30589 0
M  V30 1915 C 183.717 -0.549464 1.60981 0
M  V30 1916 O 184.902 -0.46336 1.88591 0
M  V30 1917 C 182.032 -0.418944 3.44764 0
M  V30 1918 C 180.986 0.406316 4.26067 0
M  V30 1919 C 180.312 -0.506793 5.32293 0
M  V30 1920 C 181.612 1.64832 4.95608 0
M  V30 1921 H 183.306 1.20462 2.74097 0
M  V30 1922 H 180.852 0.580695 1.31772 0
M  V30 1923 H 182.805 -0.791395 4.13902 0
M  V30 1924 H 181.529 -1.28964 3.0006 0
M  V30 1925 H 180.188 0.760903 3.58617 0
M  V30 1926 H 179.836 -1.37519 4.83836 0
M  V30 1927 H 179.536 0.0415828 5.87585 0
M  V30 1928 H 181.06 -0.875764 6.04287 0
M  V30 1929 H 182.474 1.34646 5.57264 0
M  V30 1930 H 180.871 2.13688 5.60765 0
M  V30 1931 H 181.941 2.39284 4.21748 0
M  V30 1932 N 183.284 -1.43765 0.645699 0
M  V30 1933 C 184.512 -2.06253 0.163556 0
M  V30 1934 C 184.927 -1.48352 -1.16778 0
M  V30 1935 O 184.284 -0.611932 -1.71935 0
M  V30 1936 C 184.335 -3.61453 0.0583186 0
M  V30 1937 O 184.056 -4.172 1.33702 0
M  V30 1938 C 185.557 -4.41002 -0.450795 0
M  V30 1939 H 182.777 -0.665413 0.0864077 0
M  V30 1940 H 185.321 -1.84396 0.884222 0
M  V30 1941 H 183.476 -3.82522 -0.612865 0
M  V30 1942 H 183.89 -5.10791 1.19131 0
M  V30 1943 H 185.364 -5.49966 -0.473403 0
M  V30 1944 H 185.841 -4.13488 -1.48068 0
M  V30 1945 H 186.447 -4.24886 0.187637 0
M  V30 1946 N 184.763 -0.387143 -1.52771 0
M  V30 1947 C 186.003 0.195537 -2.03463 0
M  V30 1948 C 186.367 1.44222 -1.26744 0
M  V30 1949 O 187.568 2.10192 -1.67549 0
M  V30 1950 C 185.839 0.459097 -3.54439 0
M  V30 1951 S 187.398 1.01237 -4.26962 0
M  V30 1952 H 184.216 0.0552675 -0.708849 0
M  V30 1953 H 186.818 -0.534992 -1.88037 0
M  V30 1954 H 185.522 -0.455382 -4.07866 0
M  V30 1955 H 185.053 1.21811 -3.74066 0
M  V30 1956 H 187.068 2.29492 -4.39941 0
M  V30 1957 N 186.241 1.57166 -0.116904 0
M  V30 1958 C 187.489 1.94737 0.540533 0
M  V30 1959 C 187.81 1.00096 1.67349 0
M  V30 1960 O 187.08 0.0568854 1.95817 0
M  V30 1961 H 185.66 0.718981 0.202669 0
M  V30 1962 H 188.322 1.94017 -0.185353 0
M  V30 1963 H 187.418 2.97719 0.936483 0
M  V30 1964 N 187.719 -0.156864 1.56817 0
M  V30 1965 C 188.652 -1.22316 1.9265 0
M  V30 1966 C 189.63 -1.42059 0.791076 0
M  V30 1967 O 190.814 -1.56831 1.04576 0
M  V30 1968 C 187.941 -2.58375 2.18998 0
M  V30 1969 C 186.987 -2.55284 3.41661 0
M  V30 1970 S 187.82 -2.02946 4.95553 0
M  V30 1971 C 188.976 -3.40753 5.25013 0
M  V30 1972 H 189.209 -0.917403 2.82791 0
M  V30 1973 H 186.742 -0.362059 1.50095 0
M  V30 1974 H 188.7 -3.36677 2.34859 0
M  V30 1975 H 187.361 -2.86145 1.29538 0
M  V30 1976 H 186.554 -3.55418 3.57343 0
M  V30 1977 H 186.156 -1.85086 3.24991 0
M  V30 1978 H 188.448 -4.36819 5.17876 0
M  V30 1979 H 189.391 -3.29933 6.26538 0
M  V30 1980 H 189.799 -3.37433 4.52548 0
M  V30 1981 N 189.197 -1.51736 -0.425897 0
M  V30 1982 C 190.443 -1.65214 -1.1761 0
M  V30 1983 C 190.776 -0.372778 -1.90589 0
M  V30 1984 O 190.051 0.628139 -1.84078 0
M  V30 1985 C 190.334 -2.86312 -2.18398 0
M  V30 1986 C 190.187 -4.24254 -1.49426 0
M  V30 1987 C 191.506 -3.02925 -3.19256 0
M  V30 1988 H 188.625 -0.601263 -0.426206 0
M  V30 1989 H 191.267 -1.8425 -0.463882 0
M  V30 1990 H 189.417 -2.70213 -2.79137 0
M  V30 1991 H 191.089 -4.52046 -0.919362 0
M  V30 1992 H 189.332 -4.26426 -0.796432 0
M  V30 1993 H 190.003 -5.05001 -2.22885 0
M  V30 1994 H 192.479 -3.1781 -2.68581 0
M  V30 1995 H 191.355 -3.89199 -3.8706 0
M  V30 1996 H 191.616 -2.15497 -3.86023 0
M  V30 1997 N 190.675 0.682077 -1.42076 0
M  V30 1998 C 191.915 1.45424 -1.43636 0
M  V30 1999 C 192.279 1.91939 -0.0484001 0
M  V30 2000 O 193.48 2.6873 0.0612514 0
M  V30 2001 C 191.751 2.62427 -2.42625 0
M  V30 2002 S 193.31 3.51379 -2.62827 0
M  V30 2003 H 190.128 0.496779 -0.508657 0
M  V30 2004 H 192.73 0.794645 -1.78621 0
M  V30 2005 H 191.434 2.26481 -3.42249 0
M  V30 2006 H 190.965 3.33266 -2.09039 0
M  V30 2007 H 192.98 4.58141 -1.9058 0
M  V30 2008 N 192.153 1.28127 0.917671 0
M  V30 2009 C 193.564 1.13622 1.48145 0
M  V30 2010 C 193.915 -0.275207 1.9426 0
M  V30 2011 O 193.04 -1.1691 1.82102 0
M  V30 2012 C 193.635 2.05648 2.69248 0
M  V30 2013 C 192.194 1.95219 3.21818 0
M  V30 2014 C 191.341 1.97618 1.94532 0
M  V30 2015 H 194.292 1.40874 0.730772 0
M  V30 2016 H 194.313 1.61818 3.44377 0
M  V30 2017 H 193.825 3.08365 2.35653 0
M  V30 2018 H 191.926 0.955244 3.60147 0
M  V30 2019 H 192.039 2.81976 3.87333 0
M  V30 2020 H 190.403 1.41973 2.11461 0
M  V30 2021 H 191.186 3.02007 1.63238 0
M  V30 2022 N 193.631 -1.12557 1.10312 0
M  V30 2023 C 194.859 -1.87864 0.866873 0
M  V30 2024 C 195.274 -1.79588 -0.582557 0
M  V30 2025 O 194.631 -1.16887 -1.40156 0
M  V30 2026 C 194.682 -3.37125 1.30496 0
M  V30 2027 O 194.403 -3.45201 2.69755 0
M  V30 2028 C 195.904 -4.29373 1.10243 0
M  V30 2029 H 193.124 -0.594452 0.311236 0
M  V30 2030 H 195.668 -1.42429 1.46745 0
M  V30 2031 H 193.823 -3.80109 0.748081 0
M  V30 2032 H 194.237 -4.38056 2.88457 0
M  V30 2033 H 195.711 -5.32394 1.45811 0
M  V30 2034 H 196.188 -4.39181 0.0409492 0
M  V30 2035 H 196.794 -3.92169 1.64571 0
M  V30 2036 N 195.109 -0.891671 -1.2995 0
M  V30 2037 C 196.334 -0.527932 -2.00568 0
M  V30 2038 C 196.759 0.877969 -1.66353 0
M  V30 2039 O 196.117 1.58301 -0.883762 0
M  V30 2040 C 196.165 -0.717745 -3.53385 0
M  V30 2041 O 195.269 0.233376 -4.11739 0
M  V30 2042 H 194.61 -0.20722 -0.630837 0
M  V30 2043 H 197.14 -1.20105 -1.65638 0
M  V30 2044 H 197.15 -0.619307 -4.03272 0
M  V30 2045 H 195.825 -1.74276 -3.77625 0
M  V30 2046 H 194.402 0.0880706 -3.72796 0
M  V30 2047 N 196.587 1.43421 -0.653314 0
M  V30 2048 C 197.864 1.95361 -0.0966581 0
M  V30 2049 C 198.244 1.59461 1.38331 0
M  V30 2050 O 197.592 0.879777 2.10884 0
M  V30 2051 C 197.802 3.47311 -0.342988 0
M  V30 2052 C 199.15 4.23875 -0.24798 0
M  V30 2053 O 200.174 3.55133 -0.275553 0
M  V30 2054 O 199.033 5.4623 -0.171771 0
M  V30 2055 H 196.127 0.826945 0.00956291 0
M  V30 2056 H 198.673 1.5336 -0.726558 0
M  V30 2057 H 197.445 3.66569 -1.36906 0
M  V30 2058 H 197.068 3.9631 0.319975 0
M  V30 2059 N 198.065 0.39524 1.52563 0
M  V30 2060 C 198.995 -0.428384 2.29537 0
M  V30 2061 C 199.976 -1.05831 1.33169 0
M  V30 2062 O 201.161 -1.06995 1.62067 0
M  V30 2063 C 198.291 -1.55274 3.10656 0
M  V30 2064 C 197.245 -1.04855 4.14957 0
M  V30 2065 C 196.571 -2.26543 4.84337 0
M  V30 2066 C 197.871 -0.112324 5.22179 0
M  V30 2067 H 199.565 0.213867 2.98635 0
M  V30 2068 H 197.111 0.104298 1.43622 0
M  V30 2069 H 199.064 -2.1358 3.63265 0
M  V30 2070 H 197.788 -2.22266 2.39302 0
M  V30 2071 H 196.447 -0.487985 3.63338 0
M  V30 2072 H 196.095 -2.92059 4.09525 0
M  V30 2073 H 195.795 -1.93466 5.54837 0
M  V30 2074 H 197.319 -2.85481 5.39753 0
M  V30 2075 H 198.733 -0.603752 5.70112 0
M  V30 2076 H 197.13 0.128968 5.99961 0
M  V30 2077 H 198.2 0.837052 4.77621 0
M  V30 2078 N 199.544 -1.57102 0.125237 0
M  V30 2079 C 200.784 -1.97294 -0.534259 0
M  V30 2080 C 201.148 -1.0074 -1.63449 0
M  V30 2081 O 202.349 -1.29893 -2.35332 0
M  V30 2082 C 200.62 -3.41705 -1.04748 0
M  V30 2083 S 202.179 -4.03913 -1.71463 0
M  V30 2084 H 198.997 -0.689517 -0.173458 0
M  V30 2085 H 201.599 -1.94349 0.211797 0
M  V30 2086 H 200.303 -4.09723 -0.235649 0
M  V30 2087 H 199.834 -3.48315 -1.82867 0
M  V30 2088 H 201.849 -3.95182 -3.00077 0
M  V30 2089 N 201.022 0.148545 -1.56898 0
M  V30 2090 C 202.268 0.862694 -1.83536 0
M  V30 2091 C 202.601 1.80889 -0.706604 0
M  V30 2092 O 201.876 1.92328 0.289885 0
M  V30 2093 C 202.159 1.63853 -3.20662 0
M  V30 2094 C 202.012 0.713925 -4.44098 0
M  V30 2095 C 203.331 2.60133 -3.54991 0
M  V30 2096 H 200.45 0.312179 -0.667618 0
M  V30 2097 H 203.092 0.127953 -1.89569 0
M  V30 2098 H 201.242 2.26489 -3.1565 0
M  V30 2099 H 202.914 0.098686 -4.61194 0
M  V30 2100 H 201.157 0.0234019 -4.33794 0
M  V30 2101 H 201.828 1.29278 -5.36648 0
M  V30 2102 H 204.304 2.07616 -3.60603 0
M  V30 2103 H 203.18 3.11468 -4.51972 0
M  V30 2104 H 203.441 3.41417 -2.80868 0
M  V30 2105 N 202.5 1.5196 0.417844 0
M  V30 2106 C 203.748 1.65263 1.16329 0
M  V30 2107 C 204.069 0.380634 1.91249 0
M  V30 2108 O 203.339 -0.604214 1.86349 0
M  V30 2109 H 201.919 0.60912 0.432414 0
M  V30 2110 H 204.581 1.88969 0.477162 0
M  V30 2111 H 203.677 2.4896 1.88217 0
M  V30 2112 N 203.978 -0.674533 1.42435 0
M  V30 2113 C 205.226 -1.43175 1.42637 0
M  V30 2114 C 205.547 -1.94951 0.0438992 0
M  V30 2115 O 204.817 -1.7308 -0.917607 0
M  V30 2116 H 203.397 -0.531307 0.525092 0
M  V30 2117 H 206.059 -0.797006 1.77859 0
M  V30 2118 H 205.155 -2.28463 2.12629 0
M  V30 2119 N 205.456 -1.28612 -0.910864 0
M  V30 2120 C 206.696 -1.1719 -1.67469 0
M  V30 2121 C 207.06 0.274441 -1.90028 0
M  V30 2122 O 208.261 0.511425 -2.6389 0
M  V30 2123 C 206.532 -1.95137 -2.99427 0
M  V30 2124 S 208.091 -2.00122 -3.90508 0
M  V30 2125 H 204.909 -0.41806 -0.575106 0
M  V30 2126 H 207.511 -1.6275 -1.08317 0
M  V30 2127 H 206.215 -2.99381 -2.80712 0
M  V30 2128 H 205.746 -1.50137 -3.63624 0
M  V30 2129 H 207.761 -1.10981 -4.8363 0
M  V30 2130 N 206.934 1.1197 -1.10907 0
M  V30 2131 C 207.882 2.19927 -0.757303 0
M  V30 2132 C 208.876 1.67564 0.248747 0
M  V30 2133 O 210.082 1.79672 0.108605 0
M  V30 2134 H 206.457 0.716925 -0.226987 0
M  V30 2135 H 208.428 2.46847 -1.67658 0
M  V30 2136 C 207.177 3.47061 -0.210671 0
M  V30 2137 H 206.5 3.87703 -0.976049 0
M  V30 2138 H 207.94 4.24 -0.0026584 0
M  V30 2139 C 206.399 3.19864 1.05777 0
M  V30 2140 O 206.929 3.40049 2.13845 0
M  V30 2141 N 205.135 2.73636 0.978349 0
M  V30 2142 H 204.682 2.5741 0.0988246 0
M  V30 2143 H 204.64 2.55815 1.82773 0
M  V30 2144 N 208.412 0.89855 1.29475 0
M  V30 2145 C 209.342 0.39201 2.30186 0
M  V30 2146 C 210.323 -0.532359 1.61555 0
M  V30 2147 O 211.508 -0.443331 1.89072 0
M  V30 2148 C 208.638 -0.382353 3.45189 0
M  V30 2149 C 207.592 0.451483 4.25612 0
M  V30 2150 C 206.918 -0.450307 5.328 0
M  V30 2151 C 208.218 1.70079 4.93832 0
M  V30 2152 H 209.912 1.23362 2.72804 0
M  V30 2153 H 207.458 0.594638 1.31149 0
M  V30 2154 H 209.411 -0.747451 4.14718 0
M  V30 2155 H 208.135 -1.25774 3.01411 0
M  V30 2156 H 206.794 0.798897 3.57789 0
M  V30 2157 H 206.442 -1.32379 4.85268 0
M  V30 2158 H 206.142 0.103902 5.87508 0
M  V30 2159 H 207.666 -0.811623 6.05182 0
M  V30 2160 H 209.08 1.40549 5.55805 0
M  V30 2161 H 207.477 2.19623 5.58467 0
M  V30 2162 H 208.547 2.43744 4.19186 0
M  V30 2163 N 209.89 -1.43072 0.660911 0
M  V30 2164 C 211.12 -2.05769 0.185153 0
M  V30 2165 C 211.528 -1.49668 -1.15742 0
M  V30 2166 O 210.871 -0.625649 -1.72717 0
M  V30 2167 C 210.933 -3.59489 0.0278237 0
M  V30 2168 C 210.597 -4.38212 1.2969 0
M  V30 2169 C 211.594 -4.69772 2.22734 0
M  V30 2170 C 209.279 -4.7809 1.54063 0
M  V30 2171 C 211.273 -5.40129 3.38437 0
M  V30 2172 C 208.96 -5.4819 2.70058 0
M  V30 2173 C 209.958 -5.79132 3.62071 0
M  V30 2174 O 209.646 -6.47798 4.76039 0
M  V30 2175 H 209.378 -0.669873 0.0908086 0
M  V30 2176 H 211.932 -1.84436 0.90402 0
M  V30 2177 H 210.162 -3.79426 -0.746489 0
M  V30 2178 H 211.851 -4.03862 -0.406275 0
M  V30 2179 H 212.617 -4.39476 2.05149 0
M  V30 2180 H 208.496 -4.53408 0.833215 0
M  V30 2181 H 212.04 -5.64198 4.10277 0
M  V30 2182 H 207.937 -5.77902 2.87574 0
M  V30 2183 H 208.705 -6.66283 4.75404 0
M  V30 2184 N 211.368 -0.403325 -1.52352 0
M  V30 2185 C 212.331 0.413051 -2.25447 0
M  V30 2186 C 213.331 0.978513 -1.276 0
M  V30 2187 O 214.521 0.858305 -1.51587 0
M  V30 2188 C 211.653 1.58087 -3.02029 0
M  V30 2189 H 212.846 -0.227094 -2.99039 0
M  V30 2190 H 210.399 -0.155722 -1.55522 0
M  V30 2191 H 211.134 2.25804 -2.32772 0
M  V30 2192 H 210.919 1.18195 -3.73861 0
M  V30 2193 H 212.409 2.1585 -3.57489 0
M  V30 2194 N 212.846 1.57033 -0.133567 0
M  V30 2195 C 214.074 2.00044 0.528195 0
M  V30 2196 C 214.489 1.01349 1.59291 0
M  V30 2197 O 213.846 0.00848369 1.82498 0
M  V30 2198 C 213.897 3.43018 1.1411 0
M  V30 2199 O 213.618 4.37939 0.11892 0
M  V30 2200 C 215.119 4.01237 1.88477 0
M  V30 2201 H 212.339 0.656517 0.138661 0
M  V30 2202 H 214.883 2.03267 -0.224196 0
M  V30 2203 H 213.038 3.40688 1.84418 0
M  V30 2204 H 213.452 5.21436 0.56613 0
M  V30 2205 H 214.926 5.03314 2.26669 0
M  V30 2206 H 215.403 3.41193 2.76558 0
M  V30 2207 H 216.009 4.07156 1.22898 0
M  V30 2208 N 214.325 -0.140222 1.56975 0
M  V30 2209 C 215.235 -1.19223 2.02047 0
M  V30 2210 C 216.251 -1.46612 0.937062 0
M  V30 2211 O 217.427 -1.58148 1.24704 0
M  V30 2212 C 214.492 -2.50414 2.39778 0
M  V30 2213 C 213.553 -2.30612 3.621 0
M  V30 2214 C 212.786 -3.55547 3.98023 0
M  V30 2215 O 213.009 -4.62004 3.34528 0
M  V30 2216 O 211.943 -3.47808 4.91237 0
M  V30 2217 H 215.769 -0.839559 2.91865 0
M  V30 2218 H 213.354 -0.349453 1.45256 0
M  V30 2219 H 215.236 -3.27747 2.64877 0
M  V30 2220 H 213.911 -2.85198 1.53114 0
M  V30 2221 H 212.818 -1.51207 3.4218 0
M  V30 2222 H 214.151 -2.00741 4.49404 0
M  V30 2223 N 215.803 -1.52179 -0.40978 0
M  V30 2224 C 216.713 -1.78364 -1.52392 0
M  V30 2225 C 217.729 -0.669183 -1.60617 0
M  V30 2226 O 218.905 -0.954518 -1.77344 0
M  V30 2227 C 215.97 -1.92822 -2.88133 0
M  V30 2228 C 215.031 -3.16725 -2.898 0
M  V30 2229 C 214.264 -3.30483 -4.19067 0
M  V30 2230 O 214.487 -2.49522 -5.12928 0
M  V30 2231 O 213.421 -4.2363 -4.27576 0
M  V30 2232 H 217.247 -2.72931 -1.33201 0
M  V30 2233 H 214.832 -1.37016 -0.59557 0
M  V30 2234 H 216.714 -2.04157 -3.68643 0
M  V30 2235 H 215.389 -1.01444 -3.07393 0
M  V30 2236 H 214.296 -3.10848 -2.08146 0
M  V30 2237 H 215.629 -4.07881 -2.75489 0
M  V30 2238 N 217.281 0.66697 -1.42791 0
M  V30 2239 C 218.529 1.42417 -1.43394 0
M  V30 2240 C 218.85 1.94925 -0.0542373 0
M  V30 2241 O 218.12 1.73564 0.908415 0
M  V30 2242 H 216.7 0.528515 -0.527902 0
M  V30 2243 H 219.362 0.787562 -1.78279 0
M  V30 2244 H 218.458 2.27333 -2.13837 0
M  V30 2245 N 218.759 1.29093 0.90403 0
M  V30 2246 C 220.17 1.15186 1.46932 0
M  V30 2247 C 220.521 -0.254587 1.94541 0
M  V30 2248 O 219.646 -1.14972 1.83332 0
M  V30 2249 C 220.241 2.08492 2.67051 0
M  V30 2250 C 218.8 1.98621 3.19729 0
M  V30 2251 C 217.947 1.9967 1.92425 0
M  V30 2252 H 220.898 1.41641 0.715789 0
M  V30 2253 H 220.919 1.65461 3.42641 0
M  V30 2254 H 220.431 3.10847 2.3237 0
M  V30 2255 H 218.532 0.993389 3.59114 0
M  V30 2256 H 218.645 2.86068 3.8432 0
M  V30 2257 H 217.009 1.44208 2.09943 0
M  V30 2258 H 217.792 3.03721 1.60026 0
M  V30 2259 N 220.237 -1.11381 1.11499 0
M  V30 2260 C 221.486 -1.82494 0.858993 0
M  V30 2261 C 221.799 -1.85605 -0.617278 0
M  V30 2262 O 223.005 -2.52824 -0.989552 0
M  V30 2263 C 221.461 -3.27745 1.48699 0
M  V30 2264 C 221.069 -3.32961 2.99735 0
M  V30 2265 C 222.813 -4.03754 1.31085 0
M  V30 2266 C 220.72 -4.72612 3.55516 0
M  V30 2267 H 219.65 -0.683802 0.317696 0
M  V30 2268 H 222.301 -1.25331 1.34031 0
M  V30 2269 H 220.683 -3.84844 0.933339 0
M  V30 2270 H 221.857 -2.85741 3.61509 0
M  V30 2271 H 220.172 -2.70433 3.16631 0
M  V30 2272 H 222.769 -5.06891 1.70192 0
M  V30 2273 H 223.112 -4.15527 0.253496 0
M  V30 2274 H 223.645 -3.53043 1.83318 0
M  V30 2275 H 220.384 -4.66036 4.60967 0
M  V30 2276 H 219.904 -5.2024 2.98513 0
M  V30 2277 H 221.583 -5.4157 3.53992 0
M  V30 2278 N 221.715 -0.905404 -1.28997 0
M  V30 2279 C 222.663 -0.377431 -2.29517 0
M  V30 2280 C 223.657 0.526461 -1.61012 0
M  V30 2281 O 224.863 0.40863 -1.753 0
M  V30 2282 H 221.238 -0.103437 -0.744852 0
M  V30 2283 H 223.209 -1.23848 -2.71485 0
M  V30 2284 C 221.958 0.374833 -3.45674 0
M  V30 2285 H 221.281 -0.311474 -3.98585 0
M  V30 2286 H 222.721 0.70903 -4.1803 0
M  V30 2287 C 221.18 1.57963 -2.97572 0
M  V30 2288 O 221.71 2.67886 -2.99333 0
M  V30 2289 N 219.916 1.42375 -2.53333 0
M  V30 2290 H 219.463 0.529466 -2.521 0
M  V30 2291 H 219.421 2.23117 -2.21509 0
M  V30 2292 N 223.193 1.4272 -0.668489 0
M  V30 2293 C 224.442 2.00846 -0.185389 0
M  V30 2294 C 224.755 1.53442 1.21305 0
M  V30 2295 O 225.961 2.03944 1.79218 0
M  V30 2296 C 224.417 3.58805 -0.280591 0
M  V30 2297 C 224.025 4.15198 -1.68268 0
M  V30 2298 C 225.769 4.24255 0.14412 0
M  V30 2299 C 223.676 5.655 -1.73099 0
M  V30 2300 H 222.606 0.751145 -0.0655475 0
M  V30 2301 H 225.257 1.63516 -0.832752 0
M  V30 2302 H 223.639 3.93608 0.434553 0
M  V30 2303 H 224.813 3.91866 -2.42441 0
M  V30 2304 H 223.128 3.62176 -2.05469 0
M  V30 2305 H 225.725 5.34547 0.128086 0
M  V30 2306 H 226.068 3.99277 1.17827 0
M  V30 2307 H 226.601 3.94389 -0.519798 0
M  V30 2308 H 223.34 5.95268 -2.74475 0
M  V30 2309 H 222.86 5.90842 -1.03274 0
M  V30 2310 H 224.539 6.29808 -1.48158 0
M  V30 2311 N 224.671 0.411399 1.52136 0
M  V30 2312 C 225.919 -0.163322 2.01439 0
M  V30 2313 C 226.24 -1.45453 1.29879 0
M  V30 2314 O 225.51 -1.91225 0.4254 0
M  V30 2315 H 224.09 -0.0633447 0.744309 0
M  V30 2316 H 226.752 0.548161 1.87033 0
M  V30 2317 H 225.848 -0.357817 3.10042 0
M  V30 2318 N 226.149 -1.5696 0.141893 0
M  V30 2319 C 227.397 -1.95573 -0.509484 0
M  V30 2320 C 227.718 -1.02746 -1.65736 0
M  V30 2321 O 226.988 -0.0880311 -1.95702 0
M  V30 2322 H 225.568 -0.722115 -0.191205 0
M  V30 2323 H 228.23 -1.93697 0.216196 0
M  V30 2324 H 227.326 -2.99171 -0.889 0
M  V30 2325 N 227.627 0.131896 -1.57047 0
M  V30 2326 C 228.557 1.16384 -2.02428 0
M  V30 2327 C 229.538 1.43936 -0.90644 0
M  V30 2328 O 230.723 1.54599 -1.17528 0
M  V30 2329 C 227.853 2.49328 -2.4177 0
M  V30 2330 C 226.807 2.36266 -3.56879 0
M  V30 2331 C 226.133 3.74057 -3.8208 0
M  V30 2332 C 227.433 1.834 -4.89042 0
M  V30 2333 H 229.127 0.786433 -2.88887 0
M  V30 2334 H 226.673 0.376855 -1.38981 0
M  V30 2335 H 228.626 3.21759 -2.7212 0
M  V30 2336 H 227.35 2.88934 -1.52266 0
M  V30 2337 H 226.009 1.66286 -3.26718 0
M  V30 2338 H 225.657 4.11125 -2.89803 0
M  V30 2339 H 225.357 3.66174 -4.59554 0
M  V30 2340 H 226.881 4.48012 -4.1487 0
M  V30 2341 H 228.295 2.45636 -5.18011 0
M  V30 2342 H 226.692 1.8637 -5.70426 0
M  V30 2343 H 227.762 0.790662 -4.7841 0
M  V30 2344 N 229.106 1.52395 0.401703 0
M  V30 2345 C 230.038 1.72505 1.50912 0
M  V30 2346 C 231.051 0.605468 1.51122 0
M  V30 2347 O 232.24 0.880828 1.55254 0
M  V30 2348 C 229.34 1.75711 2.89791 0
M  V30 2349 C 228.513 3.04824 3.1369 0
M  V30 2350 C 227.572 2.99743 4.32482 0
M  V30 2351 O 226.598 3.73635 4.29402 0
M  V30 2352 N 227.8 2.18047 5.37992 0
M  V30 2353 H 230.565 2.68049 1.34052 0
M  V30 2354 H 228.126 1.50724 0.591084 0
M  V30 2355 H 230.118 1.69834 3.6734 0
M  V30 2356 H 228.688 0.876092 3.00072 0
M  V30 2357 H 227.908 3.2429 2.24119 0
M  V30 2358 H 229.196 3.90221 3.26504 0
M  V30 2359 H 228.594 1.57456 5.43345 0
M  V30 2360 H 227.151 2.18021 6.14256 0
M  V30 2361 N 230.584 -0.659388 1.43143 0
M  V30 2362 C 231.516 -1.7849 1.43784 0
M  V30 2363 C 232.529 -1.5932 0.334787 0
M  V30 2364 O 233.718 -1.68155 0.598842 0
M  V30 2365 C 230.818 -3.15828 1.22906 0
M  V30 2366 C 229.991 -3.61711 2.45934 0
M  V30 2367 C 229.05 -4.77831 2.20371 0
M  V30 2368 O 228.076 -4.87586 2.93681 0
M  V30 2369 N 229.278 -5.67611 1.21647 0
M  V30 2370 H 232.043 -1.7842 2.40803 0
M  V30 2371 H 229.604 -0.84302 1.3822 0
M  V30 2372 H 231.596 -3.91189 1.03697 0
M  V30 2373 H 230.166 -3.10707 0.343542 0
M  V30 2374 H 229.386 -2.76861 2.80609 0
M  V30 2375 H 230.674 -3.89112 3.27825 0
M  V30 2376 H 230.072 -5.62397 0.610449 0
M  V30 2377 H 228.629 -6.42719 1.08423 0
M  V30 2378 N 232.062 -1.29571 -0.897171 0
M  V30 2379 C 233.309 -1.17689 -1.6479 0
M  V30 2380 C 233.637 0.27107 -1.92602 0
M  V30 2381 O 232.892 1.21193 -1.53658 0
M  V30 2382 C 233.191 -1.9382 -3.00281 0
M  V30 2383 C 232.857 -3.43522 -2.92068 0
M  V30 2384 C 231.519 -3.84348 -2.89535 0
M  V30 2385 C 233.871 -4.38906 -2.81089 0
M  V30 2386 C 231.199 -5.18869 -2.73846 0
M  V30 2387 C 233.551 -5.73521 -2.66939 0
M  V30 2388 C 232.215 -6.13601 -2.62774 0
M  V30 2389 H 231.485 -0.430654 -0.603008 0
M  V30 2390 H 234.132 -1.60536 -1.04404 0
M  V30 2391 H 232.437 -1.4357 -3.64547 0
M  V30 2392 H 234.134 -1.82028 -3.57305 0
M  V30 2393 H 230.724 -3.11072 -2.94842 0
M  V30 2394 H 234.908 -4.08315 -2.82121 0
M  V30 2395 H 230.164 -5.4903 -2.69027 0
M  V30 2396 H 234.338 -6.47078 -2.57416 0
M  V30 2397 H 231.965 -7.17786 -2.50375 0
M  V30 2398 N 233.54 1.10788 -1.12088 0
M  V30 2399 C 234.503 2.15207 -0.788577 0
M  V30 2400 C 235.503 1.59609 0.195317 0
M  V30 2401 O 236.693 1.74174 -0.0300193 0
M  V30 2402 C 233.825 3.4047 -0.171174 0
M  V30 2403 H 235.018 2.46116 -1.71368 0
M  V30 2404 H 232.571 1.26089 -0.923652 0
M  V30 2405 H 233.306 3.15176 0.763832 0
M  V30 2406 H 233.091 3.82109 -0.879514 0
M  V30 2407 H 234.581 4.17576 0.04496 0
M  V30 2408 N 235.018 0.912232 1.28515 0
M  V30 2409 C 236.246 0.560416 1.99166 0
M  V30 2410 C 236.661 -0.857927 1.68182 0
M  V30 2411 O 236.018 -1.56805 0.933733 0
M  V30 2412 C 236.069 0.758142 3.53461 0
M  V30 2413 O 235.79 2.12067 3.83352 0
M  V30 2414 C 237.291 0.412954 4.41372 0
M  V30 2415 H 234.511 0.213805 0.636026 0
M  V30 2416 H 237.055 1.22502 1.63749 0
M  V30 2417 H 235.21 0.140556 3.87145 0
M  V30 2418 H 235.624 2.15923 4.77993 0
M  V30 2419 H 237.098 0.60208 5.48707 0
M  V30 2420 H 237.575 -0.65073 4.34353 0
M  V30 2421 H 238.181 1.00802 4.13182 0
M  V30 2422 N 236.496 -1.42363 0.676048 0
M  V30 2423 C 237.406 -2.346 -0.00153389 0
M  V30 2424 C 238.422 -1.5516 -0.787485 0
M  V30 2425 O 239.598 -1.87723 -0.729521 0
M  V30 2426 C 236.663 -3.33705 -0.940298 0
M  V30 2427 C 235.724 -4.29042 -0.148739 0
M  V30 2428 C 234.957 -5.23413 -1.04279 0
M  V30 2429 O 235.18 -5.22749 -2.28232 0
M  V30 2430 O 234.114 -5.99795 -0.502925 0
M  V30 2431 H 237.94 -2.94082 0.758268 0
M  V30 2432 H 235.525 -1.42888 0.436289 0
M  V30 2433 H 237.407 -3.94586 -1.47917 0
M  V30 2434 H 236.082 -2.76695 -1.67993 0
M  V30 2435 H 234.989 -3.71571 0.43427 0
M  V30 2436 H 236.322 -4.89097 0.551805 0
M  V30 2437 N 237.974 -0.419461 -1.51915 0
M  V30 2438 C 239.22 0.153166 -2.02221 0
M  V30 2439 C 239.553 1.43907 -1.30401 0
M  V30 2440 O 238.828 1.90055 -0.413438 0
M  V30 2441 C 239.111 0.390291 -3.57979 0
M  V30 2442 C 238.964 -0.913014 -4.40436 0
M  V30 2443 C 240.283 1.16794 -4.2432 0
M  V30 2444 H 237.402 0.0541924 -0.735005 0
M  V30 2445 H 240.044 -0.554955 -1.81715 0
M  V30 2446 H 238.194 0.993491 -3.75582 0
M  V30 2447 H 239.866 -1.54882 -4.34522 0
M  V30 2448 H 238.109 -1.52168 -4.06236 0
M  V30 2449 H 238.78 -0.701361 -5.47526 0
M  V30 2450 H 241.256 0.657161 -4.10878 0
M  V30 2451 H 240.132 1.3026 -5.3322 0
M  V30 2452 H 240.393 2.19132 -3.83971 0
M  V30 2453 N 239.452 1.56882 -0.150215 0
M  V30 2454 C 240.699 1.96228 0.500093 0
M  V30 2455 C 241.027 1.03522 1.64661 0
M  V30 2456 O 240.282 0.0650683 1.95592 0
M  V30 2457 C 240.581 3.41801 1.04437 0
M  V30 2458 C 240.247 4.50897 0.0159671 0
M  V30 2459 C 238.909 4.8046 -0.266731 0
M  V30 2460 C 241.261 5.16703 -0.683192 0
M  V30 2461 C 238.589 5.73135 -1.25434 0
M  V30 2462 C 240.941 6.10441 -1.65964 0
M  V30 2463 C 239.605 6.38382 -1.95 0
M  V30 2464 H 238.875 0.718048 0.182997 0
M  V30 2465 H 241.522 1.90019 -0.237724 0
M  V30 2466 H 239.827 3.44857 1.85959 0
M  V30 2467 H 241.524 3.69573 1.55618 0
M  V30 2468 H 238.114 4.27891 0.246485 0
M  V30 2469 H 242.298 4.93993 -0.477983 0
M  V30 2470 H 237.554 5.93074 -1.48571 0
M  V30 2471 H 241.728 6.60507 -2.20689 0
M  V30 2472 H 239.355 7.09996 -2.71679 0
M  V30 2473 N 240.93 -0.123565 1.57115 0
M  V30 2474 C 241.877 -1.15177 2.00007 0
M  V30 2475 C 242.847 -1.41403 0.871454 0
M  V30 2476 O 244.032 -1.53346 1.13533 0
M  V30 2477 C 241.172 -2.47436 2.40561 0
M  V30 2478 C 240.285 -2.28184 3.66819 0
M  V30 2479 C 239.42 -3.53641 3.96373 0
M  V30 2480 C 238.459 -3.29528 5.15827 0
M  V30 2481 N 237.596 -4.47175 5.41275 0
M  V30 2482 H 242.436 -0.779008 2.87638 0
M  V30 2483 H 239.973 -0.373166 1.42288 0
M  V30 2484 H 241.931 -3.24584 2.62109 0
M  V30 2485 H 240.561 -2.82614 1.55978 0
M  V30 2486 H 239.613 -1.41976 3.52912 0
M  V30 2487 H 240.925 -2.0634 4.5412 0
M  V30 2488 H 240.079 -4.39209 4.18545 0
M  V30 2489 H 238.818 -3.78512 3.07538 0
M  V30 2490 H 237.823 -2.42349 4.93505 0
M  V30 2491 H 239.048 -3.06031 6.06236 0
M  V30 2492 H 236.994 -4.72175 4.55397 0
M  V30 2493 H 236.911 -4.28419 6.22891 0
M  V30 2494 H 238.179 -5.3389 5.67963 0
M  V30 2495 N 242.408 -1.52605 -0.393616 0
M  V30 2496 C 243.371 -1.76415 -1.46323 0
M  V30 2497 C 244.371 -0.634126 -1.47768 0
M  V30 2498 O 245.561 -0.902142 -1.4902 0
M  V30 2499 C 242.693 -1.8607 -2.85641 0
M  V30 2500 H 243.886 -2.71916 -1.26498 0
M  V30 2501 H 241.439 -1.43257 -0.625073 0
M  V30 2502 H 242.174 -0.925378 -3.10817 0
M  V30 2503 H 241.959 -2.68235 -2.85993 0
M  V30 2504 H 243.449 -2.06179 -3.63153 0
M  V30 2505 N 243.887 0.651787 -1.4349 0
M  V30 2506 C 244.82 1.77668 -1.43211 0
M  V30 2507 C 245.798 1.59931 -0.29338 0
M  V30 2508 O 246.982 1.82095 -0.487191 0
M  V30 2509 C 244.109 3.14986 -1.24505 0
M  V30 2510 C 243.155 3.51421 -2.41673 0
M  V30 2511 S 243.988 3.51234 -4.04222 0
M  V30 2512 C 245.144 4.91206 -3.87902 0
M  V30 2513 H 245.377 1.77635 -2.38397 0
M  V30 2514 H 242.91 0.824558 -1.30539 0
M  V30 2515 H 244.868 3.94237 -1.144 0
M  V30 2516 H 243.529 3.1258 -0.308651 0
M  V30 2517 H 242.722 4.51291 -2.24393 0
M  V30 2518 H 242.324 2.79585 -2.48411 0
M  V30 2519 H 244.616 5.79902 -3.50315 0
M  V30 2520 H 245.559 5.13537 -4.8753 0
M  V30 2521 H 245.967 4.64808 -3.20334 0
M  V30 2522 N 245.365 1.30045 0.890287 0
M  V30 2523 C 246.59 1.21598 1.68014 0
M  V30 2524 C 247.015 -0.218678 1.86825 0
M  V30 2525 O 246.373 -1.15756 1.39536 0
M  V30 2526 C 246.421 1.94434 3.03691 0
M  V30 2527 O 245.525 1.2678 3.92429 0
M  V30 2528 H 244.866 0.420856 0.513592 0
M  V30 2529 H 247.396 1.71775 1.11151 0
M  V30 2530 H 247.406 2.03251 3.5377 0
M  V30 2531 H 246.081 2.98777 2.89318 0
M  V30 2532 H 244.658 1.26282 3.50866 0
M  V30 2533 N 246.843 -1.10192 1.12674 0
M  V30 2534 C 248.092 -1.81573 0.8783 0
M  V30 2535 C 248.405 -1.86249 -0.597557 0
M  V30 2536 O 249.611 -2.5386 -0.962681 0
M  V30 2537 C 248.067 -3.26149 1.52167 0
M  V30 2538 C 247.675 -3.29763 3.03249 0
M  V30 2539 C 249.419 -4.0234 1.3536 0
M  V30 2540 C 247.326 -4.68815 3.60508 0
M  V30 2541 H 246.256 -0.680394 0.324931 0
M  V30 2542 H 248.907 -1.23902 1.35353 0
M  V30 2543 H 247.289 -3.83832 0.974104 0
M  V30 2544 H 248.463 -2.8189 3.6452 0
M  V30 2545 H 246.778 -2.67059 3.19481 0
M  V30 2546 H 249.375 -5.05058 1.75559 0
M  V30 2547 H 249.718 -4.15235 0.297554 0
M  V30 2548 H 250.251 -3.51079 1.87052 0
M  V30 2549 H 246.99 -4.61121 4.65884 0
M  V30 2550 H 246.51 -5.17045 3.04014 0
M  V30 2551 H 248.189 -5.37785 3.59717 0
M  V30 2552 N 248.321 -0.919034 -1.28029 0
M  V30 2553 C 249.732 -0.600735 -1.76771 0
M  V30 2554 C 250.083 0.884024 -1.75156 0
M  V30 2555 O 249.208 1.69163 -1.34956 0
M  V30 2556 C 249.803 -1.08372 -3.21 0
M  V30 2557 C 248.362 -0.816248 -3.67443 0
M  V30 2558 C 247.509 -1.24742 -2.47658 0
M  V30 2559 H 250.46 -1.09974 -1.14418 0
M  V30 2560 H 250.481 -0.427512 -3.78091 0
M  V30 2561 H 249.993 -2.16437 -3.22144 0
M  V30 2562 H 248.094 0.250968 -3.71754 0
M  V30 2563 H 248.207 -1.4277 -4.57333 0
M  V30 2564 H 246.571 -0.666083 -2.45836 0
M  V30 2565 H 247.354 -2.33653 -2.51518 0
M  V30 2566 N 249.799 1.42003 -0.683588 0
M  V30 2567 C 250.731 2.29183 0.0283068 0
M  V30 2568 C 251.744 1.4415 0.756611 0
M  V30 2569 O 252.933 1.67779 0.609306 0
M  V30 2570 C 250.033 3.21765 1.06398 0
M  V30 2571 C 249.206 4.35496 0.407723 0
M  V30 2572 C 248.265 5.08737 1.34437 0
M  V30 2573 O 247.291 5.62948 0.841318 0
M  V30 2574 N 248.493 5.15075 2.67728 0
M  V30 2575 H 251.258 2.9092 -0.720105 0
M  V30 2576 H 248.819 1.53025 -0.528682 0
M  V30 2577 H 250.811 3.6763 1.69204 0
M  V30 2578 H 249.381 2.61418 1.71404 0
M  V30 2579 H 248.601 3.92165 -0.400012 0
M  V30 2580 H 249.889 5.08776 -0.0490956 0
M  V30 2581 H 249.287 4.72457 3.11129 0
M  V30 2582 H 247.844 5.64556 3.2576 0
M  V30 2583 N 251.277 0.427512 1.51691 0
M  V30 2584 C 252.526 -0.143679 2.01188 0
M  V30 2585 C 252.839 -1.44642 1.31674 0
M  V30 2586 O 254.045 -2.09997 1.72086 0
M  V30 2587 C 252.501 -0.306602 3.58592 0
M  V30 2588 C 252.109 0.985125 4.37035 0
M  V30 2589 C 253.853 -0.832091 4.16265 0
M  V30 2590 C 251.76 0.788382 5.86122 0
M  V30 2591 H 250.69 -0.0574701 0.751807 0
M  V30 2592 H 253.341 0.555772 1.74881 0
M  V30 2593 H 251.723 -1.06882 3.81303 0
M  V30 2594 H 252.897 1.75492 4.26074 0
M  V30 2595 H 251.212 1.4384 3.90767 0
M  V30 2596 H 253.809 -0.995617 5.25349 0
M  V30 2597 H 254.152 -1.81186 3.74803 0
M  V30 2598 H 254.685 -0.128444 3.97593 0
M  V30 2599 H 251.424 1.74025 6.31978 0
M  V30 2600 H 250.944 0.0582143 5.99772 0
M  V30 2601 H 252.623 0.437722 6.45518 0
M  V30 2602 N 252.755 -1.56801 0.158532 0
M  V30 2603 C 254.171 -1.5837 -0.197774 0
M  V30 2604 C 254.371 -1.17334 -1.63814 0
M  V30 2605 O 253.427 -0.878988 -2.36707 0
M  V30 2606 C 254.74 -3.00615 0.0714459 0
M  V30 2607 C 256.288 -3.12999 0.00864533 0
M  V30 2608 C 256.763 -4.57313 0.250685 0
M  V30 2609 N 258.254 -4.62777 0.198014 0
M  V30 2610 C 258.989 -5.72271 0.359642 0
M  V30 2611 N 258.485 -6.90371 0.579625 0
M  V30 2612 N 260.278 -5.61318 0.296438 0
M  V30 2613 H 252.429 -1.81765 1.09887 0
M  V30 2614 H 254.692 -0.841849 0.435884 0
M  V30 2615 H 254.398 -3.35068 1.06874 0
M  V30 2616 H 254.272 -3.71683 -0.642757 0
M  V30 2617 H 256.659 -2.7838 -0.979217 0
M  V30 2618 H 256.74 -2.44393 0.755359 0
M  V30 2619 H 256.384 -4.92639 1.2357 0
M  V30 2620 H 256.314 -5.24061 -0.516489 0
M  V30 2621 H 258.805 -3.77885 0.0331115 0
M  V30 2622 H 259.118 -7.69689 0.69275 0
M  V30 2623 H 257.463 -6.92264 0.616087 0
M  V30 2624 H 260.654 -4.67932 0.125258 0
M  V30 2625 H 260.827 -6.46599 0.425831 0
M  V30 2626 N 254.233 0.115231 -1.57178 0
M  V30 2627 C 255.181 1.16014 -2.01602 0
M  V30 2628 C 256.175 1.42653 -0.913587 0
M  V30 2629 O 257.381 1.42571 -1.09879 0
M  V30 2630 H 253.756 0.391252 -0.642204 0
M  V30 2631 H 255.727 0.758998 -2.88586 0
M  V30 2632 C 254.476 2.47767 -2.4394 0
M  V30 2633 H 253.799 2.28108 -3.28339 0
M  V30 2634 H 255.239 3.19432 -2.78818 0
M  V30 2635 C 253.698 3.10617 -1.30455 0
M  V30 2636 O 254.228 3.96846 -0.622585 0
M  V30 2637 N 252.434 2.70553 -1.06064 0
M  V30 2638 H 251.981 2.00527 -1.61699 0
M  V30 2639 H 251.939 3.12934 -0.303284 0
M  V30 2640 N 255.711 1.52812 0.385517 0
M  V30 2641 C 257.122 1.5993 0.963293 0
M  V30 2642 C 257.473 0.454302 1.90868 0
M  V30 2643 O 256.598 -0.422132 2.12243 0
M  V30 2644 C 257.193 2.89871 1.75387 0
M  V30 2645 C 255.752 2.99389 2.28129 0
M  V30 2646 C 254.899 2.55071 1.08783 0
M  V30 2647 H 257.85 1.5784 0.164948 0
M  V30 2648 H 257.871 2.76553 2.61341 0
M  V30 2649 H 257.383 3.73186 1.06554 0
M  V30 2650 H 255.484 2.20619 3.00263 0
M  V30 2651 H 255.597 4.04096 2.57377 0
M  V30 2652 H 253.961 2.09473 1.4489 0
M  V30 2653 H 254.744 3.40785 0.414807 0
M  V30 2654 N 257.189 -0.644168 1.43834 0
M  V30 2655 C 258.414 -1.43642 1.49605 0
M  V30 2656 C 258.839 -1.8773 0.117913 0
M  V30 2657 O 258.197 -1.57938 -0.890239 0
M  V30 2658 C 258.245 -2.6416 2.45463 0
M  V30 2659 O 257.349 -3.63538 1.94714 0
M  V30 2660 H 256.69 -0.430329 0.50568 0
M  V30 2661 H 259.22 -0.787448 1.8884 0
M  V30 2662 H 259.23 -3.11864 2.63068 0
M  V30 2663 H 257.905 -2.31414 3.45572 0
M  V30 2664 H 256.482 -3.2273 1.86814 0
M  V30 2665 N 258.668 -1.30515 -0.883378 0
M  V30 2666 C 259.598 -1.19607 -2.00541 0
M  V30 2667 C 260.579 -0.086346 -1.69881 0
M  V30 2668 O 261.764 -0.268654 -1.92333 0
M  V30 2669 C 258.894 -0.888758 -3.35736 0
M  V30 2670 C 257.848 -1.95659 -3.8066 0
M  V30 2671 C 257.174 -1.50224 -5.13164 0
M  V30 2672 C 258.474 -3.36788 -3.99213 0
M  V30 2673 H 260.168 -2.13476 -2.09925 0
M  V30 2674 H 257.714 -1.02775 -1.00863 0
M  V30 2675 H 259.667 -0.799094 -4.13754 0
M  V30 2676 H 258.391 0.0856125 -3.26488 0
M  V30 2677 H 257.05 -2.03591 -3.04871 0
M  V30 2678 H 256.698 -0.516092 -5.00345 0
M  V30 2679 H 256.398 -2.2165 -5.44192 0
M  V30 2680 H 257.922 -1.42639 -5.93706 0
M  V30 2681 H 259.336 -3.31605 -4.67665 0
M  V30 2682 H 257.733 -4.06314 -4.41621 0
M  V30 2683 H 258.803 -3.78561 -3.03017 0
M  V30 2684 N 260.146 1.09593 -1.13257 0
M  V30 2685 C 261.557 1.63229 -0.906274 0
M  V30 2686 C 261.908 1.8811 0.557578 0
M  V30 2687 O 261.033 1.62953 1.42391 0
M  V30 2688 C 261.628 2.96535 -1.63867 0
M  V30 2689 C 260.187 3.47003 -1.45828 0
M  V30 2690 C 259.334 2.2145 -1.66898 0
M  V30 2691 H 262.285 0.92978 -1.28611 0
M  V30 2692 H 262.306 3.64411 -1.09476 0
M  V30 2693 H 261.818 2.78394 -2.70404 0
M  V30 2694 H 259.919 3.70272 -0.415848 0
M  V30 2695 H 260.032 4.24551 -2.2202 0
M  V30 2696 H 258.396 2.30022 -1.09371 0
M  V30 2697 H 259.179 2.0583 -2.74752 0
M  V30 2698 N 261.624 0.925811 1.2754 0
M  V30 2699 C 263.035 0.610102 1.7645 0
M  V30 2700 C 263.386 -0.874723 1.75622 0
M  V30 2701 O 262.511 -1.68444 1.35851 0
M  V30 2702 C 263.106 1.10073 3.20421 0
M  V30 2703 C 261.665 0.835723 3.67005 0
M  V30 2704 C 260.812 1.26054 2.46993 0
M  V30 2705 H 263.763 1.10579 1.13833 0
M  V30 2706 H 263.784 0.447557 3.77859 0
M  V30 2707 H 263.296 2.18143 3.20991 0
M  V30 2708 H 261.397 -0.231249 3.71882 0
M  V30 2709 H 261.51 1.45193 4.56569 0
M  V30 2710 H 259.874 0.679111 2.45479 0
M  V30 2711 H 260.657 2.34984 2.50275 0
M  V30 2712 N 263.102 -1.41638 0.69111 0
M  V30 2713 C 264.513 -1.84346 0.295517 0
M  V30 2714 C 264.864 -1.57833 -1.16547 0
M  V30 2715 O 263.989 -1.04648 -1.89414 0
M  V30 2716 C 264.584 -3.34636 0.529575 0
M  V30 2717 C 263.143 -3.7593 0.187944 0
M  V30 2718 C 262.29 -2.65082 0.814052 0
M  V30 2719 H 265.241 -1.31253 0.892092 0
M  V30 2720 H 265.262 -3.79903 -0.213148 0
M  V30 2721 H 264.774 -3.53901 1.59297 0
M  V30 2722 H 262.875 -3.62268 -0.871367 0
M  V30 2723 H 262.988 -4.74808 0.63985 0
M  V30 2724 H 261.352 -2.53528 0.244017 0
M  V30 2725 H 262.135 -2.87167 1.88123 0
M  V30 2726 N 264.58 -0.43555 -1.51462 0
M  V30 2727 C 265.49 0.383001 -2.31453 0
M  V30 2728 C 266.506 1.02931 -1.4029 0
M  V30 2729 O 267.682 1.02507 -1.73362 0
M  V30 2730 C 264.747 1.47043 -3.13973 0
M  V30 2731 C 263.808 0.844433 -4.20913 0
M  V30 2732 C 263.041 1.88004 -4.9949 0
M  V30 2733 O 263.264 3.10199 -4.78678 0
M  V30 2734 O 262.198 1.47157 -5.83634 0
M  V30 2735 H 266.024 -0.269964 -3.02498 0
M  V30 2736 H 263.609 -0.19813 -1.4808 0
M  V30 2737 H 265.491 2.10113 -3.65281 0
M  V30 2738 H 264.166 2.10751 -2.45695 0
M  V30 2739 H 263.073 0.175729 -3.73687 0
M  V30 2740 H 264.406 0.250869 -4.9156 0
M  V30 2741 N 266.058 1.56714 -0.166846 0
M  V30 2742 C 267.005 2.17746 0.765193 0
M  V30 2743 C 267.975 1.11614 1.23011 0
M  V30 2744 O 269.16 1.39745 1.29908 0
M  V30 2745 C 266.3 2.81882 1.9909 0
M  V30 2746 C 265.413 4.02462 1.56997 0
M  V30 2747 C 264.548 4.54537 2.749 0
M  V30 2748 C 263.587 5.67538 2.29275 0
M  V30 2749 N 262.724 6.14142 3.40255 0
M  V30 2750 H 267.564 2.97048 0.237952 0
M  V30 2751 H 265.101 1.4672 0.105725 0
M  V30 2752 H 267.059 3.17221 2.70974 0
M  V30 2753 H 265.689 2.05191 2.49192 0
M  V30 2754 H 264.741 3.72973 0.748037 0
M  V30 2755 H 266.053 4.84273 1.19503 0
M  V30 2756 H 265.207 4.92035 3.54946 0
M  V30 2757 H 263.946 3.71774 3.1565 0
M  V30 2758 H 262.951 5.29597 1.47674 0
M  V30 2759 H 264.176 6.52099 1.89588 0
M  V30 2760 H 262.122 5.3431 3.8059 0
M  V30 2761 H 262.039 6.9093 3.06841 0
M  V30 2762 H 263.307 6.56289 4.206 0
M  V30 2763 N 267.536 -0.106894 1.57237 0
M  V30 2764 C 268.469 -1.16125 1.96444 0
M  V30 2765 C 269.447 -1.3947 0.835871 0
M  V30 2766 O 270.631 -1.53425 1.09513 0
M  V30 2767 C 267.758 -2.51277 2.27107 0
M  V30 2768 C 266.804 -2.44285 3.4961 0
M  V30 2769 S 267.637 -1.87077 5.01759 0
M  V30 2770 C 268.793 -3.23877 5.35588 0
M  V30 2771 H 269.026 -0.826971 2.85567 0
M  V30 2772 H 266.559 -0.314124 1.51171 0
M  V30 2773 H 268.517 -3.29035 2.45451 0
M  V30 2774 H 267.178 -2.81879 1.38576 0
M  V30 2775 H 266.371 -3.4387 3.68469 0
M  V30 2776 H 265.973 -1.74652 3.30715 0
M  V30 2777 H 268.265 -4.20122 5.31511 0
M  V30 2778 H 269.208 -3.09833 6.36717 0
M  V30 2779 H 269.616 -3.22864 4.63054 0
M  V30 2780 N 269.014 -1.53014 -0.377408 0
M  V30 2781 C 270.239 -1.72818 -1.14668 0
M  V30 2782 C 270.664 -0.450725 -1.8262 0
M  V30 2783 O 270.022 0.59439 -1.7128 0
M  V30 2784 C 270.07 -2.88627 -2.16164 0
M  V30 2785 O 269.174 -2.56409 -3.22998 0
M  V30 2786 H 268.515 -0.574301 -0.333278 0
M  V30 2787 H 271.045 -1.99853 -0.438152 0
M  V30 2788 H 271.055 -3.14455 -2.59966 0
M  V30 2789 H 269.73 -3.81294 -1.66095 0
M  V30 2790 H 268.307 -2.4136 -2.84253 0
M  V30 2791 N 270.492 0.636531 -1.44174 0
M  V30 2792 C 271.402 1.77754 -1.53103 0
M  V30 2793 C 272.418 1.68928 -0.417034 0
M  V30 2794 O 273.594 1.89801 -0.6736 0
M  V30 2795 C 270.659 3.14115 -1.46741 0
M  V30 2796 C 269.72 3.34612 -2.68948 0
M  V30 2797 C 268.953 4.64467 -2.6288 0
M  V30 2798 O 269.176 5.44919 -1.68581 0
M  V30 2799 O 268.11 4.87049 -3.53648 0
M  V30 2800 H 271.936 1.73174 -2.49489 0
M  V30 2801 H 269.521 0.79709 -1.2636 0
M  V30 2802 H 271.403 3.95412 -1.45696 0
M  V30 2803 H 270.078 3.19249 -0.534975 0
M  V30 2804 H 268.985 2.53014 -2.75562 0
M  V30 2805 H 270.318 3.34336 -3.61221 0
M  V30 2806 N 271.97 1.30982 0.876444 0
M  V30 2807 C 272.933 1.18054 1.96459 0
M  V30 2808 C 273.933 0.109399 1.60427 0
M  V30 2809 O 275.123 0.358173 1.70478 0
M  V30 2810 C 272.255 0.810616 3.31122 0
M  V30 2811 H 273.448 2.14735 2.09354 0
M  V30 2812 H 271.001 1.145 1.06392 0
M  V30 2813 H 271.736 -0.155322 3.23928 0
M  V30 2814 H 271.521 1.58481 3.58645 0
M  V30 2815 H 273.011 0.743876 4.10921 0
M  V30 2816 N 273.449 -1.08991 1.13837 0
M  V30 2817 C 274.679 -1.84743 0.924859 0
M  V30 2818 C 275.087 -1.81629 -0.529874 0
M  V30 2819 O 274.43 -1.21397 -1.37872 0
M  V30 2820 C 274.492 -3.33568 1.34061 0
M  V30 2821 C 274.156 -3.60425 2.80968 0
M  V30 2822 C 275.153 -3.55771 3.79108 0
M  V30 2823 C 272.838 -3.88627 3.18236 0
M  V30 2824 C 274.832 -3.78939 5.12527 0
M  V30 2825 C 272.519 -4.11449 4.51833 0
M  V30 2826 C 273.517 -4.06598 5.48787 0
M  V30 2827 O 273.205 -4.28826 6.79973 0
M  V30 2828 H 272.937 -0.590258 0.329502 0
M  V30 2829 H 275.491 -1.38598 1.51591 0
M  V30 2830 H 273.721 -3.80442 0.692853 0
M  V30 2831 H 275.41 -3.90743 1.09886 0
M  V30 2832 H 276.176 -3.34005 3.51661 0
M  V30 2833 H 272.055 -3.91526 2.43369 0
M  V30 2834 H 275.599 -3.75068 5.88192 0
M  V30 2835 H 271.496 -4.32698 4.79002 0
M  V30 2836 H 272.264 -4.46264 6.86142 0
M  V30 2837 N 274.927 -0.932562 -1.27047 0
M  V30 2838 C 276.152 -0.591474 -1.98787 0
M  V30 2839 C 276.577 0.824601 -1.69062 0
M  V30 2840 O 275.935 1.5541 -0.933677 0
M  V30 2841 C 275.983 -0.829808 -3.50922 0
M  V30 2842 O 275.087 0.102266 -4.12273 0
M  V30 2843 H 274.428 -0.227185 -0.623926 0
M  V30 2844 H 276.958 -1.25314 -1.61733 0
M  V30 2845 H 276.968 -0.747292 -4.01098 0
M  V30 2846 H 275.643 -1.86201 -3.7189 0
M  V30 2847 H 274.22 -0.0305761 -3.72887 0
M  V30 2848 N 276.405 1.4127 -0.698611 0
M  V30 2849 C 277.368 2.29158 -0.044132 0
M  V30 2850 C 278.368 1.44529 0.704841 0
M  V30 2851 O 279.558 1.65643 0.539276 0
M  V30 2852 C 276.69 3.27459 0.947809 0
M  V30 2853 H 277.883 2.88529 -0.817994 0
M  V30 2854 H 275.436 1.49307 -0.46228 0
M  V30 2855 H 276.171 2.73073 1.74933 0
M  V30 2856 H 275.956 3.8991 0.41385 0
M  V30 2857 H 277.446 3.93311 1.40344 0
M  V30 2858 N 277.883 0.443576 1.51229 0
M  V30 2859 C 278.83 -0.364716 2.279 0
M  V30 2860 C 279.8 -1.0114 1.31757 0
M  V30 2861 O 280.985 -1.02912 1.60667 0
M  V30 2862 C 278.125 -1.45644 3.12861 0
M  V30 2863 C 277.238 -0.827269 4.24005 0
M  V30 2864 C 276.373 -1.89456 4.96266 0
M  V30 2865 C 275.412 -1.24416 5.99322 0
M  V30 2866 N 274.549 -2.25309 6.64966 0
M  V30 2867 H 279.389 0.295464 2.96532 0
M  V30 2868 H 276.926 0.157554 1.46254 0
M  V30 2869 H 278.884 -2.10076 3.6045 0
M  V30 2870 H 277.514 -2.08616 2.46331 0
M  V30 2871 H 276.566 -0.0710839 3.80334 0
M  V30 2872 H 277.878 -0.312481 4.9782 0
M  V30 2873 H 277.032 -2.61535 5.47434 0
M  V30 2874 H 275.771 -2.4431 4.22095 0
M  V30 2875 H 274.776 -0.508868 5.4744 0
M  V30 2876 H 276.001 -0.702882 6.75453 0
M  V30 2877 H 273.947 -2.79231 5.93604 0
M  V30 2878 H 273.864 -1.78739 7.34567 0
M  V30 2879 H 275.132 -2.96853 7.20763 0
M  V30 2880 N 279.361 -1.56624 0.175154 0
M  V30 2881 C 280.61 -1.96173 -0.468921 0
M  V30 2882 C 280.923 -1.06401 -1.64128 0
M  V30 2883 O 282.129 -1.35648 -2.35185 0
M  V30 2884 C 280.585 -3.48833 -0.885633 0
M  V30 2885 C 280.193 -4.47237 0.261343 0
M  V30 2886 C 281.937 -3.97194 -1.49791 0
M  V30 2887 C 279.844 -5.9114 -0.175214 0
M  V30 2888 H 278.774 -0.732455 -0.178958 0
M  V30 2889 H 281.425 -1.81591 0.263997 0
M  V30 2890 H 279.807 -3.58848 -1.67464 0
M  V30 2891 H 280.981 -4.4894 1.03871 0
M  V30 2892 H 279.296 -4.08956 0.783827 0
M  V30 2893 H 281.893 -5.02167 -1.83665 0
M  V30 2894 H 282.236 -3.40351 -2.39722 0
M  V30 2895 H 282.769 -3.90212 -0.773267 0
M  V30 2896 H 279.508 -6.51865 0.689414 0
M  V30 2897 H 279.028 -5.92735 -0.91786 0
M  V30 2898 H 280.707 -6.44044 -0.617792 0
M  V30 2899 N 280.839 0.0985539 -1.57292 0
M  V30 2900 C 281.802 1.10402 -2.00858 0
M  V30 2901 C 282.802 1.33146 -0.901593 0
M  V30 2902 O 283.992 1.29318 -1.16716 0
M  V30 2903 C 281.124 2.45394 -2.36632 0
M  V30 2904 H 282.317 0.729099 -2.90902 0
M  V30 2905 H 279.87 0.343495 -1.52479 0
M  V30 2906 H 280.605 2.87769 -1.49531 0
M  V30 2907 H 280.39 2.30235 -3.17387 0
M  V30 2908 H 281.88 3.17718 -2.71007 0
M  V30 2909 N 282.317 1.53212 0.369288 0
M  V30 2910 C 283.247 1.82365 1.45826 0
M  V30 2911 C 284.228 0.676907 1.56051 0
M  V30 2912 O 285.413 0.926401 1.70679 0
M  V30 2913 C 282.543 2.01023 2.83208 0
M  V30 2914 C 281.497 3.1678 2.8781 0
M  V30 2915 C 280.823 3.20724 4.27832 0
M  V30 2916 C 282.123 4.55447 2.55667 0
M  V30 2917 H 283.817 2.73559 1.21678 0
M  V30 2918 H 281.363 1.3163 0.583911 0
M  V30 2919 H 283.316 2.20001 3.59413 0
M  V30 2920 H 282.04 1.06536 3.08736 0
M  V30 2921 H 280.699 2.97616 2.14056 0
M  V30 2922 H 280.347 2.23882 4.50429 0
M  V30 2923 H 280.047 3.98496 4.31827 0
M  V30 2924 H 281.571 3.41881 5.05915 0
M  V30 2925 H 282.985 4.74611 3.21586 0
M  V30 2926 H 281.382 5.35432 2.70984 0
M  V30 2927 H 282.452 4.60812 1.5093 0
M  V30 2928 N 283.795 -0.628877 1.44509 0
M  V30 2929 C 285.042 -1.38839 1.47411 0
M  V30 2930 C 285.37 -1.94202 0.10757 0
M  V30 2931 O 284.625 -1.74243 -0.890947 0
M  V30 2932 C 284.924 -2.56995 2.48371 0
M  V30 2933 C 284.59 -2.19908 3.93639 0
M  V30 2934 C 283.252 -2.09506 4.33198 0
M  V30 2935 C 285.604 -1.9064 4.85083 0
M  V30 2936 C 282.932 -1.68028 5.62124 0
M  V30 2937 C 285.284 -1.50655 6.14399 0
M  V30 2938 C 283.948 -1.38796 6.5291 0
M  V30 2939 H 283.218 -0.508048 0.539414 0
M  V30 2940 H 285.865 -0.712913 1.77735 0
M  V30 2941 H 284.17 -3.29786 2.11538 0
M  V30 2942 H 285.867 -3.15223 2.47861 0
M  V30 2943 H 282.457 -2.28922 3.62343 0
M  V30 2944 H 286.641 -1.97585 4.55273 0
M  V30 2945 H 281.897 -1.57452 5.90778 0
M  V30 2946 H 286.071 -1.27048 6.84713 0
M  V30 2947 H 283.698 -1.06429 7.52713 0
M  V30 2948 N 285.273 -1.31445 -0.869486 0
M  V30 2949 C 286.521 -1.20918 -1.61936 0
M  V30 2950 C 286.842 0.232683 -1.93607 0
M  V30 2951 O 286.112 1.15352 -1.58338 0
M  V30 2952 H 284.692 -0.44454 -0.600328 0
M  V30 2953 H 287.354 -1.64776 -1.0409 0
M  V30 2954 H 286.45 -1.78124 -2.56278 0
M  V30 2955 N 286.751 1.08385 -1.14413 0
M  V30 2956 C 287.714 2.13486 -0.834048 0
M  V30 2957 C 288.714 1.59988 0.161418 0
M  V30 2958 O 289.904 1.74071 -0.0669575 0
M  V30 2959 C 287.036 3.4003 -0.243354 0
M  V30 2960 H 288.229 2.42425 -1.7655 0
M  V30 2961 H 285.782 1.24101 -0.950189 0
M  V30 2962 H 286.517 3.16726 0.696807 0
M  V30 2963 H 286.302 3.80157 -0.960367 0
M  V30 2964 H 287.792 4.17577 -0.0436242 0
M  V30 2965 N 288.23 0.939286 1.26551 0
M  V30 2966 C 289.478 0.58469 1.93457 0
M  V30 2967 C 289.799 -0.878774 1.74076 0
M  V30 2968 O 289.069 -1.62421 1.09528 0
M  V30 2969 H 287.649 0.21325 0.715914 0
M  V30 2970 H 290.311 1.1942 1.54029 0
M  V30 2971 H 289.407 0.800849 3.0165 0
M  V30 2972 N 289.708 -1.40897 0.706093 0
M  V30 2973 C 291.119 -1.84023 0.315052 0
M  V30 2974 C 291.47 -1.5906 -1.14866 0
M  V30 2975 O 290.595 -1.06651 -1.88293 0
M  V30 2976 C 291.19 -3.34055 0.565038 0
M  V30 2977 C 289.749 -3.7571 0.227806 0
M  V30 2978 C 288.896 -2.64204 0.842122 0
M  V30 2979 H 291.847 -1.303 0.905963 0
M  V30 2980 H 291.868 -3.80107 -0.172843 0
M  V30 2981 H 291.38 -3.52192 1.63042 0
M  V30 2982 H 289.481 -3.63172 -0.832895 0
M  V30 2983 H 289.594 -4.74103 0.690174 0
M  V30 2984 H 287.958 -2.53255 0.270893 0
M  V30 2985 H 288.741 -2.85155 1.91158 0
M  V30 2986 N 291.186 -0.45159 -1.50991 0
M  V30 2987 C 292.149 0.341117 -2.26647 0
M  V30 2988 C 293.149 0.937422 -1.30649 0
M  V30 2989 O 294.339 0.809644 -1.54241 0
M  V30 2990 C 291.471 1.48398 -3.06905 0
M  V30 2991 H 292.664 -0.322117 -2.98165 0
M  V30 2992 H 290.217 -0.205122 -1.54948 0
M  V30 2993 H 290.952 2.18284 -2.39838 0
M  V30 2994 H 290.737 1.06241 -3.77432 0
M  V30 2995 H 292.227 2.04367 -3.64176 0
M  V30 2996 N 292.664 1.56529 -0.183458 0
M  V30 2997 C 293.889 2.02064 0.467428 0
M  V30 2998 C 294.314 1.06282 1.55196 0
M  V30 2999 O 293.672 0.0443565 1.81246 0
M  V30 3000 C 293.72 3.46122 1.01153 0
M  V30 3001 O 292.824 3.53437 2.12499 0
M  V30 3002 H 292.165 0.654726 0.110588 0
M  V30 3003 H 294.695 2.02521 -0.290917 0
M  V30 3004 H 294.705 3.85676 1.33108 0
M  V30 3005 H 293.38 4.15331 0.217533 0
M  V30 3006 H 291.957 3.2575 1.81497 0
M  V30 3007 N 294.142 -0.090211 1.57342 0
M  V30 3008 C 295.391 -0.791531 1.8552 0
M  V30 3009 C 295.704 -1.79659 0.773441 0
M  V30 3010 O 296.91 -2.54616 0.942497 0
M  V30 3011 C 295.366 -1.45856 3.2902 0
M  V30 3012 C 294.974 -0.493017 4.45279 0
M  V30 3013 C 296.718 -2.14332 3.66418 0
M  V30 3014 C 294.625 -1.16491 5.79814 0
M  V30 3015 H 293.555 -0.299356 0.692027 0
M  V30 3016 H 296.206 -0.0445343 1.83446 0
M  V30 3017 H 294.588 -2.25318 3.2565 0
M  V30 3018 H 295.762 0.270464 4.60006 0
M  V30 3019 H 294.077 0.0863061 4.16311 0
M  V30 3020 H 296.674 -2.65344 4.64216 0
M  V30 3021 H 297.017 -2.93447 2.95287 0
M  V30 3022 H 297.55 -1.41724 3.71698 0
M  V30 3023 H 294.289 -0.41447 6.54188 0
M  V30 3024 H 293.809 -1.8997 5.68921 0
M  V30 3025 H 295.488 -1.69001 6.24538 0
M  V30 3026 N 295.62 -1.53406 -0.361157 0
M  V30 3027 C 296.845 -1.74024 -1.12829 0
M  V30 3028 C 297.27 -0.470069 -1.82132 0
M  V30 3029 O 296.628 0.57619 -1.719 0
M  V30 3030 C 296.676 -2.90903 -2.13091 0
M  V30 3031 O 295.78 -2.59821 -3.20261 0
M  V30 3032 H 295.121 -0.577804 -0.327168 0
M  V30 3033 H 297.651 -2.00307 -0.41693 0
M  V30 3034 H 297.661 -3.17194 -2.56616 0
M  V30 3035 H 296.336 -3.83034 -1.62042 0
M  V30 3036 H 294.913 -2.44362 -2.81677 0
M  V30 3037 N 297.098 0.621204 -1.44841 0
M  V30 3038 C 298.338 1.39201 -1.49674 0
M  V30 3039 C 298.702 1.91561 -0.129764 0
M  V30 3040 O 299.903 2.68748 -0.0527814 0
M  V30 3041 C 298.174 2.519 -2.53537 0
M  V30 3042 S 299.733 3.39916 -2.77494 0
M  V30 3043 H 296.551 0.474758 -0.529269 0
M  V30 3044 H 299.153 0.718171 -1.81831 0
M  V30 3045 H 297.857 2.11761 -3.51547 0
M  V30 3046 H 297.388 3.241 -2.22986 0
M  V30 3047 H 299.403 4.49646 -2.0984 0
M  V30 3048 N 298.576 1.31904 0.862503 0
M  V30 3049 C 299.539 1.20131 1.95195 0
M  V30 3050 C 300.539 0.126409 1.60302 0
M  V30 3051 O 301.729 0.376234 1.70089 0
M  V30 3052 C 298.861 0.845691 3.30244 0
M  V30 3053 H 300.054 2.16943 2.07064 0
M  V30 3054 H 297.607 1.15622 1.05172 0
M  V30 3055 H 298.342 -0.120957 3.24074 0
M  V30 3056 H 298.127 1.62276 3.56944 0
M  V30 3057 H 299.617 0.787418 4.10109 0
M  V30 3058 N 300.054 -1.07777 1.14986 0
M  V30 3059 C 301.279 -1.84558 0.946213 0
M  V30 3060 C 301.704 -1.81323 -0.500362 0
M  V30 3061 O 301.062 -1.20301 -1.35637 0
M  V30 3062 C 301.11 -3.29736 1.45968 0
M  V30 3063 O 300.214 -4.07149 0.65601 0
M  V30 3064 H 299.555 -0.571641 0.33782 0
M  V30 3065 H 302.085 -1.35991 1.52865 0
M  V30 3066 H 302.095 -3.80574 1.47063 0
M  V30 3067 H 300.77 -3.31406 2.51283 0
M  V30 3068 H 299.347 -3.65994 0.714322 0
M  V30 3069 N 301.532 -0.945985 -1.26051 0
M  V30 3070 C 302.779 -0.596118 -1.93527 0
M  V30 3071 C 303.107 0.865559 -1.74179 0
M  V30 3072 O 302.362 1.63524 -1.0751 0
M  V30 3073 C 302.661 -0.890475 -3.46129 0
M  V30 3074 C 302.327 -2.3368 -3.85622 0
M  V30 3075 C 300.989 -2.73216 -3.96114 0
M  V30 3076 C 303.341 -3.27648 -4.05334 0
M  V30 3077 C 300.669 -4.05806 -4.2372 0
M  V30 3078 C 303.021 -4.59841 -4.3443 0
M  V30 3079 C 301.685 -4.99185 -4.43137 0
M  V30 3080 H 300.955 -0.218135 -0.708165 0
M  V30 3081 H 303.602 -1.1934 -1.49768 0
M  V30 3082 H 301.907 -0.210711 -3.91233 0
M  V30 3083 H 303.604 -0.598478 -3.96509 0
M  V30 3084 H 300.194 -2.02015 -3.78005 0
M  V30 3085 H 304.378 -2.98298 -3.96651 0
M  V30 3086 H 299.634 -4.35945 -4.28675 0
M  V30 3087 H 303.808 -5.32641 -4.48628 0
M  V30 3088 H 301.435 -6.01952 -4.64282 0
M  V30 3089 N 303.011 1.40521 -0.713556 0
M  V30 3090 C 303.941 2.33381 -0.0743864 0
M  V30 3091 C 304.922 1.52784 0.747735 0
M  V30 3092 O 306.107 1.81258 0.697071 0
M  V30 3093 C 303.237 3.36748 0.849598 0
M  V30 3094 C 302.191 4.27793 0.133247 0
M  V30 3095 C 301.517 5.21679 1.17281 0
M  V30 3096 C 302.817 5.12415 -1.01134 0
M  V30 3097 H 304.511 2.87081 -0.850007 0
M  V30 3098 H 302.057 1.38034 -0.410201 0
M  V30 3099 H 304.01 4.00648 1.30612 0
M  V30 3100 H 302.734 2.81439 1.65709 0
M  V30 3101 H 301.393 3.65342 -0.303426 0
M  V30 3102 H 301.041 4.62677 1.9733 0
M  V30 3103 H 300.741 5.83435 0.698397 0
M  V30 3104 H 302.265 5.88456 1.62947 0
M  V30 3105 H 303.679 5.69781 -0.634274 0
M  V30 3106 H 302.076 5.83203 -1.41399 0
M  V30 3107 H 303.146 4.48514 -1.84292 0
M  V30 3108 N 304.489 0.459591 1.5075 0
M  V30 3109 C 305.452 -0.329093 2.26825 0
M  V30 3110 C 306.452 -0.930481 1.31144 0
M  V30 3111 O 307.642 -0.801453 1.54669 0
M  V30 3112 C 304.774 -1.46768 3.07688 0
M  V30 3113 H 305.967 0.337924 2.9799 0
M  V30 3114 H 303.52 0.213336 1.54837 0
M  V30 3115 H 304.255 -2.17009 2.40993 0
M  V30 3116 H 304.04 -1.04238 3.77991 0
M  V30 3117 H 305.53 -2.02433 3.65254 0
M  V30 3118 N 305.967 -1.56429 0.191757 0
M  V30 3119 C 307.383 -1.58754 -0.164137 0
M  V30 3120 C 307.583 -1.20782 -1.61288 0
M  V30 3121 O 306.639 -0.928999 -2.34789 0
M  V30 3122 C 307.952 -3.00396 0.135195 0
M  V30 3123 C 309.5 -3.1291 0.0750351 0
M  V30 3124 C 309.975 -4.56679 0.347632 0
M  V30 3125 N 311.466 -4.62252 0.296131 0
M  V30 3126 C 312.201 -5.71379 0.480948 0
M  V30 3127 N 311.697 -6.88986 0.725933 0
M  V30 3128 N 313.49 -5.60563 0.415435 0
M  V30 3129 H 305.641 -1.79393 1.13718 0
M  V30 3130 H 307.904 -0.832414 0.453643 0
M  V30 3131 H 307.61 -3.32726 1.13958 0
M  V30 3132 H 307.484 -3.72963 -0.563773 0
M  V30 3133 H 309.871 -2.80394 -0.919948 0
M  V30 3134 H 309.952 -2.42736 0.807029 0
M  V30 3135 H 309.596 -4.89907 1.33992 0
M  V30 3136 H 309.526 -5.25039 -0.405212 0
M  V30 3137 H 312.017 -3.7773 0.113259 0
M  V30 3138 H 312.33 -7.68046 0.855857 0
M  V30 3139 H 310.675 -6.90801 0.762788 0
M  V30 3140 H 313.866 -4.67561 0.224486 0
M  V30 3141 H 314.039 -6.45551 0.562889 0
M  V30 3142 N 307.445 0.0818655 -1.57387 0
M  V30 3143 C 308.375 1.09885 -2.06028 0
M  V30 3144 C 309.356 1.4098 -0.951774 0
M  V30 3145 O 310.541 1.50781 -1.22387 0
M  V30 3146 C 307.671 2.4151 -2.4958 0
M  V30 3147 C 306.625 2.24792 -3.64215 0
M  V30 3148 C 305.951 3.61712 -3.93787 0
M  V30 3149 C 307.251 1.67749 -4.94629 0
M  V30 3150 H 308.945 0.694128 -2.91243 0
M  V30 3151 H 306.491 0.332448 -1.4011 0
M  V30 3152 H 308.444 3.12939 -2.82219 0
M  V30 3153 H 307.168 2.83943 -1.61381 0
M  V30 3154 H 305.827 1.55807 -3.31843 0
M  V30 3155 H 305.475 4.01697 -3.02735 0
M  V30 3156 H 305.175 3.51368 -4.70971 0
M  V30 3157 H 306.699 4.34587 -4.28913 0
M  V30 3158 H 308.113 2.29032 -5.25564 0
M  V30 3159 H 306.51 1.68128 -5.76067 0
M  V30 3160 H 307.58 0.638059 -4.80684 0
M  V30 3161 N 308.923 1.53595 0.353017 0
M  V30 3162 C 310.171 1.70049 1.09215 0
M  V30 3163 C 310.492 0.461406 1.89463 0
M  V30 3164 O 309.762 -0.524633 1.88744 0
M  V30 3165 H 308.342 0.626912 0.40619 0
M  V30 3166 H 311.004 1.90822 0.396585 0
M  V30 3167 H 310.1 2.56718 1.77488 0
M  V30 3168 N 310.401 -0.613514 1.45168 0
M  V30 3169 C 311.631 -1.39743 1.52169 0
M  V30 3170 C 312.039 -1.88596 0.151086 0
M  V30 3171 O 311.382 -1.6251 -0.856521 0
M  V30 3172 C 311.444 -2.64035 2.43979 0
M  V30 3173 C 311.108 -2.36861 3.90827 0
M  V30 3174 C 312.105 -1.97591 4.80889 0
M  V30 3175 C 309.79 -2.49956 4.35692 0
M  V30 3176 C 311.784 -1.71768 6.1382 0
M  V30 3177 C 309.471 -2.23747 5.68665 0
M  V30 3178 C 310.469 -1.84714 6.57548 0
M  V30 3179 O 310.157 -1.58809 7.88058 0
M  V30 3180 H 309.889 -0.434382 0.517966 0
M  V30 3181 H 312.443 -0.75587 1.90986 0
M  V30 3182 H 310.673 -3.3089 2.00122 0
M  V30 3183 H 312.362 -3.26069 2.41731 0
M  V30 3184 H 313.128 -1.87015 4.47493 0
M  V30 3185 H 309.007 -2.79305 3.66756 0
M  V30 3186 H 312.551 -1.41227 6.83155 0
M  V30 3187 H 308.448 -2.33938 6.01617 0
M  V30 3188 H 309.216 -1.7291 8.00028 0
M  V30 3189 N 311.879 -1.3236 -0.855495 0
M  V30 3190 C 313.104 -1.2601 -1.64731 0
M  V30 3191 C 313.529 0.169068 -1.87339 0
M  V30 3192 O 312.887 1.12016 -1.42556 0
M  V30 3193 C 312.935 -2.02417 -2.98429 0
M  V30 3194 O 312.039 -1.3714 -3.8893 0
M  V30 3195 H 311.38 -0.434325 -0.502253 0
M  V30 3196 H 313.91 -1.74661 -1.06558 0
M  V30 3197 H 313.92 -2.12559 -3.48257 0
M  V30 3198 H 312.595 -3.06343 -2.81295 0
M  V30 3199 H 311.172 -1.3554 -3.47395 0
M  V30 3200 N 313.357 1.07166 -1.15556 0
M  V30 3201 C 314.634 1.76546 -0.842069 0
M  V30 3202 C 315.014 2.00453 0.661939 0
M  V30 3203 O 314.362 1.62452 1.60691 0
M  V30 3204 C 314.572 3.07266 -1.65495 0
M  V30 3205 C 315.92 3.81578 -1.86234 0
M  V30 3206 O 316.944 3.17083 -1.62287 0
M  V30 3207 O 315.803 4.97419 -2.26355 0
M  V30 3208 H 312.897 0.766756 -0.309862 0
M  V30 3209 H 315.443 1.13514 -1.26145 0
M  V30 3210 H 314.215 2.85494 -2.67598 0
M  V30 3211 H 313.838 3.7803 -1.23203 0
M  V30 3212 N 314.835 0.952656 1.25548 0
M  V30 3213 C 316.084 0.602053 1.92505 0
M  V30 3214 C 316.397 -0.864663 1.75451 0
M  V30 3215 O 317.603 -1.32514 2.36965 0
M  V30 3216 C 316.059 1.02607 3.44963 0
M  V30 3217 C 315.667 2.51519 3.70732 0
M  V30 3218 C 317.411 0.747905 4.1786 0
M  V30 3219 C 315.318 2.87732 5.16686 0
M  V30 3220 H 314.248 0.22146 0.720744 0
M  V30 3221 H 316.899 1.15684 1.42441 0
M  V30 3222 H 315.281 0.399712 3.93978 0
M  V30 3223 H 316.455 3.19157 3.32378 0
M  V30 3224 H 314.77 2.76786 3.11092 0
M  V30 3225 H 317.367 0.994647 5.25367 0
M  V30 3226 H 317.71 -0.315629 4.15102 0
M  V30 3227 H 318.243 1.33452 3.74747 0
M  V30 3228 H 314.982 3.93095 5.24554 0
M  V30 3229 H 314.502 2.24765 5.56094 0
M  V30 3230 H 316.181 2.76817 5.84792 0
M  V30 3231 N 316.313 -1.40141 0.720998 0
M  V30 3232 C 317.541 -2.05096 0.272656 0
M  V30 3233 C 317.956 -1.54334 -1.0875 0
M  V30 3234 O 317.313 -0.702211 -1.6845 0
M  V30 3235 C 317.364 -3.60636 0.249835 0
M  V30 3236 O 317.085 -4.09526 1.55629 0
M  V30 3237 C 318.586 -4.42772 -0.216396 0
M  V30 3238 H 315.806 -0.659897 0.121558 0
M  V30 3239 H 318.35 -1.79449 0.980723 0
M  V30 3240 H 316.505 -3.85232 -0.409237 0
M  V30 3241 H 316.919 -5.03758 1.4604 0
M  V30 3242 H 318.393 -5.51702 -0.181212 0
M  V30 3243 H 318.87 -4.20756 -1.25941 0
M  V30 3244 H 319.476 -4.23294 0.412596 0
M  V30 3245 N 317.792 -0.46758 -1.50504 0
M  V30 3246 C 319.041 0.0902868 -2.01498 0
M  V30 3247 C 319.354 1.411 -1.35463 0
M  V30 3248 O 320.56 2.0536 -1.77594 0
M  V30 3249 C 319.016 0.21142 -3.59278 0
M  V30 3250 C 318.624 -1.10065 -4.34269 0
M  V30 3251 C 320.368 0.721433 -4.18325 0
M  V30 3252 C 318.275 -0.943505 -5.83825 0
M  V30 3253 H 317.205 0.037517 -0.753066 0
M  V30 3254 H 319.856 -0.601943 -1.73346 0
M  V30 3255 H 318.238 0.967352 -3.84003 0
M  V30 3256 H 319.412 -1.86726 -4.21272 0
M  V30 3257 H 317.727 -1.5415 -3.86816 0
M  V30 3258 H 320.324 0.85598 -5.27804 0
M  V30 3259 H 320.667 1.71186 -3.79475 0
M  V30 3260 H 321.2 0.0229843 -3.97793 0
M  V30 3261 H 317.939 -1.90719 -6.27141 0
M  V30 3262 H 317.459 -0.217213 -5.99407 0
M  V30 3263 H 319.138 -0.608715 -6.4413 0
M  V30 3264 N 319.27 1.56325 -0.20005 0
M  V30 3265 C 320.517 1.97719 0.437411 0
M  V30 3266 C 320.845 1.08709 1.61284 0
M  V30 3267 O 320.1 0.127261 1.95286 0
M  V30 3268 C 320.399 3.4495 0.935103 0
M  V30 3269 C 320.065 4.5072 -0.12749 0
M  V30 3270 C 318.727 4.79368 -0.419451 0
M  V30 3271 C 321.079 5.14268 -0.847231 0
M  V30 3272 C 318.407 5.68854 -1.43604 0
M  V30 3273 C 320.759 6.04852 -1.85301 0
M  V30 3274 C 319.423 6.31855 -2.15211 0
M  V30 3275 H 318.693 0.723507 0.16006 0
M  V30 3276 H 321.34 1.89166 -0.298056 0
M  V30 3277 H 319.645 3.50599 1.74894 0
M  V30 3278 H 321.342 3.74337 1.43781 0
M  V30 3279 H 317.932 4.28458 0.11023 0
M  V30 3280 H 322.116 4.92222 -0.634901 0
M  V30 3281 H 317.372 5.88047 -1.67364 0
M  V30 3282 H 321.546 6.53152 -2.41591 0
M  V30 3283 H 319.173 7.00994 -2.94129 0
M  V30 3284 N 320.748 -0.0735177 1.57428 0
M  V30 3285 C 321.658 -1.10547 2.06922 0
M  V30 3286 C 322.674 -1.42506 0.998402 0
M  V30 3287 O 323.85 -1.52717 1.31299 0
M  V30 3288 C 320.915 -2.40019 2.50184 0
M  V30 3289 C 319.976 -2.15046 3.71556 0
M  V30 3290 C 319.209 -3.38345 4.12745 0
M  V30 3291 O 319.432 -4.47399 3.53822 0
M  V30 3292 O 318.366 -3.2666 5.05546 0
M  V30 3293 H 322.192 -0.715013 2.95163 0
M  V30 3294 H 319.777 -0.287531 1.46607 0
M  V30 3295 H 321.659 -3.16218 2.78539 0
M  V30 3296 H 320.334 -2.78447 1.65072 0
M  V30 3297 H 319.241 -1.36558 3.48285 0
M  V30 3298 H 320.574 -1.81499 4.57514 0
M  V30 3299 N 322.226 -1.5378 -0.344866 0
M  V30 3300 C 323.173 -1.81676 -1.42346 0
M  V30 3301 C 324.143 -0.662376 -1.52321 0
M  V30 3302 O 325.328 -0.906675 -1.67881 0
M  V30 3303 C 322.468 -2.03087 -2.79015 0
M  V30 3304 C 321.581 -3.30799 -2.77842 0
M  V30 3305 C 320.716 -3.42285 -4.0622 0
M  V30 3306 C 319.755 -4.6395 -3.9927 0
M  V30 3307 N 318.892 -4.72477 -5.19336 0
M  V30 3308 H 323.732 -2.73703 -1.17858 0
M  V30 3309 H 321.269 -1.35568 -0.570949 0
M  V30 3310 H 323.227 -2.1349 -3.58438 0
M  V30 3311 H 321.857 -1.14375 -3.01858 0
M  V30 3312 H 320.909 -3.29244 -1.90533 0
M  V30 3313 H 322.221 -4.20314 -2.68584 0
M  V30 3314 H 321.375 -3.52113 -4.94066 0
M  V30 3315 H 320.114 -2.50823 -4.18258 0
M  V30 3316 H 319.119 -4.54201 -3.09809 0
M  V30 3317 H 320.344 -5.56775 -3.88817 0
M  V30 3318 H 318.29 -3.83924 -5.3192 0
M  V30 3319 H 318.207 -5.55927 -5.12329 0
M  V30 3320 H 319.475 -4.86613 -6.08957 0
M  V30 3321 N 323.704 0.605807 -1.45491 0
M  V30 3322 C 324.636 1.73031 -1.5031 0
M  V30 3323 C 325.649 1.57968 -0.393687 0
M  V30 3324 O 326.838 1.65817 -0.660839 0
M  V30 3325 C 323.938 3.11049 -1.34543 0
M  V30 3326 C 323.111 3.52334 -2.59189 0
M  V30 3327 C 322.17 4.69323 -2.37954 0
M  V30 3328 O 321.196 4.7635 -3.11575 0
M  V30 3329 N 322.398 5.62705 -1.4263 0
M  V30 3330 H 325.163 1.6936 -2.4726 0
M  V30 3331 H 322.724 0.79114 -1.41254 0
M  V30 3332 H 324.716 3.87071 -1.18144 0
M  V30 3333 H 323.286 3.09217 -0.458623 0
M  V30 3334 H 322.506 2.66256 -2.90691 0
M  V30 3335 H 323.794 3.76677 -3.42041 0
M  V30 3336 H 323.192 5.59744 -0.818758 0
M  V30 3337 H 321.749 6.38252 -1.32202 0
M  V30 3338 N 325.182 1.32811 0.848464 0
M  V30 3339 C 326.092 1.24278 1.98978 0
M  V30 3340 C 327.108 0.155176 1.73307 0
M  V30 3341 O 328.284 0.376999 1.9784 0
M  V30 3342 C 325.349 0.972444 3.32783 0
M  V30 3343 C 324.41 2.14911 3.71634 0
M  V30 3344 C 323.643 1.89157 4.99054 0
M  V30 3345 O 323.866 0.837165 5.64223 0
M  V30 3346 O 322.8 2.75433 5.35183 0
M  V30 3347 H 326.626 2.20238 2.09115 0
M  V30 3348 H 324.211 1.12762 0.980052 0
M  V30 3349 H 326.093 0.838432 4.12975 0
M  V30 3350 H 324.768 0.043051 3.23671 0
M  V30 3351 H 323.675 2.33862 2.91992 0
M  V30 3352 H 325.008 3.06151 3.85399 0
M  V30 3353 N 326.66 -1.06551 1.16123 0
M  V30 3354 C 327.89 -1.8274 0.963838 0
M  V30 3355 C 328.298 -1.82712 -0.491228 0
M  V30 3356 O 327.641 -1.24294 -1.35265 0
M  V30 3357 C 327.703 -3.3065 1.41106 0
M  V30 3358 C 327.367 -3.54384 2.88549 0
M  V30 3359 C 328.364 -3.4765 3.86569 0
M  V30 3360 C 326.049 -3.81789 3.26408 0
M  V30 3361 C 328.043 -3.67982 5.2045 0
M  V30 3362 C 325.73 -4.01772 4.60459 0
M  V30 3363 C 326.728 -3.94866 5.57288 0
M  V30 3364 O 326.416 -4.14306 6.88916 0
M  V30 3365 H 326.148 -0.583136 0.341948 0
M  V30 3366 H 328.702 -1.35351 1.54497 0
M  V30 3367 H 326.932 -3.78887 0.773394 0
M  V30 3368 H 328.621 -3.88324 1.1815 0
M  V30 3369 H 329.387 -3.2647 3.58667 0
M  V30 3370 H 325.266 -3.86276 2.51619 0
M  V30 3371 H 328.81 -3.62507 5.96015 0
M  V30 3372 H 324.707 -4.2244 4.88072 0
M  V30 3373 H 325.475 -4.31609 6.95454 0
M  V30 3374 N 328.138 -0.959301 -1.25041 0
M  V30 3375 C 329.384 -0.617525 -1.9317 0
M  V30 3376 C 329.717 0.843981 -1.74902 0
M  V30 3377 O 328.992 1.60615 -1.09696 0
M  V30 3378 C 329.275 -0.982736 -3.46431 0
M  V30 3379 C 329.128 -2.50032 -3.73904 0
M  V30 3380 C 330.447 -0.511176 -4.37121 0
M  V30 3381 H 327.566 -0.22582 -0.701552 0
M  V30 3382 H 330.208 -1.19679 -1.4757 0
M  V30 3383 H 328.358 -0.489806 -3.854 0
M  V30 3384 H 330.03 -3.06737 -3.44544 0
M  V30 3385 H 328.273 -2.93598 -3.19348 0
M  V30 3386 H 328.944 -2.70635 -4.81103 0
M  V30 3387 H 331.42 -0.934075 -4.0548 0
M  V30 3388 H 330.296 -0.795361 -5.43107 0
M  V30 3389 H 330.557 0.588834 -4.38161 0
M  V30 3390 N 329.616 1.39756 -0.72842 0
M  V30 3391 C 330.864 2.00248 -0.272946 0
M  V30 3392 C 331.185 1.58077 1.14178 0
M  V30 3393 O 330.455 0.826014 1.77634 0
M  V30 3394 H 329.035 0.740554 -0.0979247 0
M  V30 3395 H 331.697 1.70903 -0.936912 0
M  V30 3396 H 330.793 3.10495 -0.316142 0
M  V30 3397 N 331.094 0.475555 1.50254 0
M  V30 3398 C 332.342 -0.077738 2.0195 0
M  V30 3399 C 332.663 -1.39813 1.35931 0
M  V30 3400 O 331.933 -1.89249 0.506123 0
M  V30 3401 H 330.513 -0.031719 0.746326 0
M  V30 3402 H 333.175 0.626995 1.84539 0
M  V30 3403 H 332.271 -0.225995 3.11281 0
M  V30 3404 N 332.573 -1.56217 0.208337 0
M  V30 3405 C 333.503 -2.22694 -0.702116 0
M  V30 3406 C 334.484 -1.19432 -1.2112 0
M  V30 3407 O 335.669 -1.47978 -1.25762 0
M  V30 3408 C 332.799 -2.8966 -1.9161 0
M  V30 3409 C 331.753 -3.9928 -1.5414 0
M  V30 3410 C 331.079 -4.53476 -2.83308 0
M  V30 3411 C 332.379 -5.17012 -0.741339 0
M  V30 3412 H 334.073 -2.99034 -0.147898 0
M  V30 3413 H 331.619 -1.43831 -0.0696951 0
M  V30 3414 H 333.572 -3.34852 -2.55836 0
M  V30 3415 H 332.296 -2.10746 -2.49507 0
M  V30 3416 H 330.955 -3.54799 -0.922668 0
M  V30 3417 H 330.603 -3.71308 -3.39322 0
M  V30 3418 H 330.303 -5.27451 -2.58976 0
M  V30 3419 H 331.827 -5.01378 -3.485 0
M  V30 3420 H 333.241 -5.58667 -1.28699 0
M  V30 3421 H 331.638 -5.97137 -0.595627 0
M  V30 3422 H 332.708 -4.8423 0.254851 0
M  V30 3423 N 334.051 0.0651679 -1.57465 0
M  V30 3424 C 335.276 0.779605 -1.9219 0
M  V30 3425 C 335.701 1.69988 -0.805333 0
M  V30 3426 O 335.059 1.79685 0.241435 0
M  V30 3427 C 335.107 1.54364 -3.2589 0
M  V30 3428 O 334.211 2.65474 -3.1559 0
M  V30 3429 H 333.552 0.212249 -0.629163 0
M  V30 3430 H 336.082 0.0314294 -2.04576 0
M  V30 3431 H 336.092 1.92146 -3.59922 0
M  V30 3432 H 334.767 0.868457 -4.06732 0
M  V30 3433 H 333.344 2.30501 -2.93128 0
M  V30 3434 N 335.529 1.53961 0.336706 0
M  V30 3435 C 336.757 1.75483 1.09605 0
M  V30 3436 C 337.172 0.4972 1.82136 0
M  V30 3437 O 336.529 -0.53149 1.74589 0
M  V30 3438 C 336.58 2.93943 2.10428 0
M  V30 3439 O 336.301 4.14842 1.40846 0
M  V30 3440 C 337.802 3.27571 2.98684 0
M  V30 3441 H 335.022 0.586166 0.326574 0
M  V30 3442 H 337.566 2.00808 0.38683 0
M  V30 3443 H 335.721 2.70929 2.76905 0
M  V30 3444 H 336.135 4.81383 2.08255 0
M  V30 3445 H 337.609 4.13791 3.6535 0
M  V30 3446 H 338.086 2.44168 3.65074 0
M  V30 3447 H 338.692 3.52615 2.37787 0
M  V30 3448 N 337.007 -0.598083 1.45811 0
M  V30 3449 C 338.232 -1.3881 1.54099 0
M  V30 3450 C 338.657 -1.8726 0.177578 0
M  V30 3451 O 338.015 -1.6069 -0.839541 0
M  V30 3452 C 338.063 -2.56217 2.53743 0
M  V30 3453 O 337.167 -3.5716 2.06182 0
M  V30 3454 H 336.508 -0.414024 0.519115 0
M  V30 3455 H 339.038 -0.726971 1.91249 0
M  V30 3456 H 339.048 -3.03337 2.72856 0
M  V30 3457 H 337.723 -2.20303 3.5276 0
M  V30 3458 H 336.3 -3.16624 1.96987 0
M  V30 3459 N 338.485 -1.33259 -0.841409 0
M  V30 3460 C 339.395 -1.25332 -1.98316 0
M  V30 3461 C 340.411 -0.164364 -1.73222 0
M  V30 3462 O 341.587 -0.387486 -1.97637 0
M  V30 3463 C 338.652 -0.990078 -3.32262 0
M  V30 3464 C 337.713 -2.16879 -3.70489 0
M  V30 3465 C 336.946 -1.91801 -4.98044 0
M  V30 3466 O 337.169 -0.867075 -5.63771 0
M  V30 3467 O 336.103 -2.78267 -5.33714 0
M  V30 3468 H 339.929 -2.21344 -2.07944 0
M  V30 3469 H 337.514 -1.1328 -0.974058 0
M  V30 3470 H 339.396 -0.860321 -4.12524 0
M  V30 3471 H 338.071 -0.0602155 -3.23644 0
M  V30 3472 H 336.978 -2.35407 -2.90748 0
M  V30 3473 H 338.311 -3.0819 -3.8377 0
M  V30 3474 N 339.963 1.05934 -1.16686 0
M  V30 3475 C 341.212 1.78188 -0.945085 0
M  V30 3476 C 341.525 1.88338 0.528021 0
M  V30 3477 O 342.731 2.57258 0.867799 0
M  V30 3478 C 341.187 3.20277 -1.64167 0
M  V30 3479 C 340.795 3.18281 -3.15279 0
M  V30 3480 C 342.539 3.97039 -1.502 0
M  V30 3481 C 340.446 4.55112 -3.7766 0
M  V30 3482 H 339.376 0.667866 -0.349959 0
M  V30 3483 H 342.027 1.18794 -1.39858 0
M  V30 3484 H 340.409 3.79952 -1.11589 0
M  V30 3485 H 341.583 2.68167 -3.74731 0
M  V30 3486 H 339.898 2.55018 -3.29173 0
M  V30 3487 H 342.495 4.98194 -1.94183 0
M  V30 3488 H 342.838 4.13845 -0.451461 0
M  V30 3489 H 343.371 3.43894 -1.99954 0
M  V30 3490 H 340.11 4.43512 -4.82677 0
M  V30 3491 H 339.63 5.05406 -3.22994 0
M  V30 3492 H 341.309 5.24064 -3.79428 0
M  V30 3493 N 341.441 0.965919 1.2453 0
M  V30 3494 C 342.852 0.665929 1.7442 0
M  V30 3495 C 343.203 -0.818407 1.78316 0
M  V30 3496 O 342.328 -1.64037 1.41141 0
M  V30 3497 C 342.923 1.20211 3.16757 0
M  V30 3498 C 341.482 0.952059 3.6416 0
M  V30 3499 C 340.629 1.33848 2.42858 0
M  V30 3500 H 343.58 1.14144 1.10258 0
M  V30 3501 H 343.601 0.567544 3.76244 0
M  V30 3502 H 343.113 2.28244 3.13889 0
M  V30 3503 H 341.214 -0.112821 3.72429 0
M  V30 3504 H 341.327 1.59645 4.51719 0
M  V30 3505 H 339.691 0.756864 2.43195 0
M  V30 3506 H 340.474 2.42827 2.42673 0
M  V30 3507 N 342.919 -1.39368 0.735821 0
M  V30 3508 C 343.851 -2.2913 0.0567723 0
M  V30 3509 C 344.864 -1.46859 -0.702589 0
M  V30 3510 O 346.053 -1.69925 -0.546616 0
M  V30 3511 C 343.153 -3.25492 -0.943823 0
M  V30 3512 C 342.326 -4.36709 -0.24581 0
M  V30 3513 C 341.385 -5.13376 -1.15463 0
M  V30 3514 O 340.411 -5.65683 -0.631803 0
M  V30 3515 N 341.613 -5.24656 -2.48427 0
M  V30 3516 H 344.378 -2.88047 0.827582 0
M  V30 3517 H 341.939 -1.50957 0.585112 0
M  V30 3518 H 343.931 -3.73657 -1.55443 0
M  V30 3519 H 342.501 -2.676 -1.61583 0
M  V30 3520 H 341.721 -3.9041 0.545286 0
M  V30 3521 H 343.009 -5.08244 0.237891 0
M  V30 3522 H 342.407 -4.83679 -2.93379 0
M  V30 3523 H 340.964 -5.76258 -3.04582 0
M  V30 3524 N 344.397 -0.483516 -1.5 0
M  V30 3525 C 345.644 0.0671597 -2.02389 0
M  V30 3526 C 345.972 1.38597 -1.36459 0
M  V30 3527 O 345.227 1.89634 -0.483458 0
M  V30 3528 C 345.526 0.286226 -3.56252 0
M  V30 3529 C 345.192 -0.952416 -4.40726 0
M  V30 3530 C 343.854 -1.29199 -4.63531 0
M  V30 3531 C 346.206 -1.77655 -4.89988 0
M  V30 3532 C 343.534 -2.45553 -5.32842 0
M  V30 3533 C 345.886 -2.93147 -5.60578 0
M  V30 3534 C 344.55 -3.27505 -5.81633 0
M  V30 3535 H 343.82 0.0245755 -0.740592 0
M  V30 3536 H 346.467 -0.640124 -1.80485 0
M  V30 3537 H 344.772 1.07587 -3.76739 0
M  V30 3538 H 346.469 0.726473 -3.94365 0
M  V30 3539 H 343.059 -0.677881 -4.23205 0
M  V30 3540 H 347.243 -1.52737 -4.72213 0
M  V30 3541 H 342.499 -2.72431 -5.47349 0
M  V30 3542 H 346.673 -3.57344 -5.97727 0
M  V30 3543 H 344.3 -4.1777 -6.35116 0
M  V30 3544 N 345.875 1.56104 -0.216619 0
M  V30 3545 C 347.291 1.58995 0.13886 0
M  V30 3546 C 347.491 1.23333 1.59346 0
M  V30 3547 O 346.547 0.966234 2.33281 0
M  V30 3548 C 347.86 3.00143 -0.182968 0
M  V30 3549 C 349.408 3.12751 -0.124807 0
M  V30 3550 C 349.883 4.56068 -0.420241 0
M  V30 3551 N 351.374 4.61723 -0.369634 0
M  V30 3552 C 352.109 5.70542 -0.571789 0
M  V30 3553 N 351.605 6.87744 -0.835453 0
M  V30 3554 N 353.398 5.59831 -0.504563 0
M  V30 3555 H 345.549 1.77562 -1.16557 0
M  V30 3556 H 347.812 0.825091 -0.466828 0
M  V30 3557 H 347.518 3.30871 -1.19237 0
M  V30 3558 H 347.392 3.73813 0.504367 0
M  V30 3559 H 349.779 2.81822 0.875223 0
M  V30 3560 H 349.86 2.41421 -0.845544 0
M  V30 3561 H 349.504 4.87713 -1.41769 0
M  V30 3562 H 349.434 5.25617 0.321631 0
M  V30 3563 H 351.925 3.77502 -0.173338 0
M  V30 3564 H 352.238 7.66587 -0.977938 0
M  V30 3565 H 350.583 6.895 -0.872592 0
M  V30 3566 H 353.774 4.67145 -0.298842 0
M  V30 3567 H 353.947 6.44573 -0.665519 0
M  V30 3568 N 347.353 -0.0568162 1.57498 0
M  V30 3569 C 348.283 -1.06593 2.0775 0
M  V30 3570 C 349.264 -1.39448 0.974082 0
M  V30 3571 O 350.449 -1.48815 1.24771 0
M  V30 3572 C 347.579 -2.37509 2.5339 0
M  V30 3573 C 346.533 -2.1897 3.67745 0
M  V30 3574 C 345.859 -3.55402 3.99492 0
M  V30 3575 C 347.159 -1.59859 4.97235 0
M  V30 3576 H 348.853 -0.647706 2.9231 0
M  V30 3577 H 346.399 -0.310116 1.40621 0
M  V30 3578 H 348.352 -3.08409 2.87162 0
M  V30 3579 H 347.076 -2.8134 1.65878 0
M  V30 3580 H 345.735 -1.50508 3.3428 0
M  V30 3581 H 345.383 -3.9683 3.09088 0
M  V30 3582 H 345.083 -3.43831 4.76502 0
M  V30 3583 H 346.607 -4.27708 4.35773 0
M  V30 3584 H 348.021 -2.20642 5.29141 0
M  V30 3585 H 346.418 -1.58942 5.78669 0
M  V30 3586 H 347.488 -0.561506 4.81638 0
M  V30 3587 N 348.832 -1.54138 -0.328536 0
M  V30 3588 C 350.243 -1.63395 -0.903272 0
M  V30 3589 C 350.594 -0.524828 -1.8905 0
M  V30 3590 O 349.719 0.343068 -2.13663 0
M  V30 3591 C 350.314 -2.9618 -1.64507 0
M  V30 3592 C 348.873 -3.0765 -2.1686 0
M  V30 3593 C 348.02 -2.58933 -0.992416 0
M  V30 3594 H 350.971 -1.58344 -0.106253 0
M  V30 3595 H 350.992 -2.86061 -2.50897 0
M  V30 3596 H 350.504 -3.76884 -0.926302 0
M  V30 3597 H 348.605 -2.31611 -2.91868 0
M  V30 3598 H 348.718 -4.1337 -2.42202 0
M  V30 3599 H 347.082 -2.14706 -1.37016 0
M  V30 3600 H 347.865 -3.42089 -0.288041 0
M  V30 3601 N 350.31 0.590341 -1.46126 0
M  V30 3602 C 351.54 1.37304 -1.54373 0
M  V30 3603 C 351.948 1.88332 -0.181071 0
M  V30 3604 O 351.291 1.63852 0.830559 0
M  V30 3605 C 351.353 2.6012 -2.48149 0
M  V30 3606 C 351.017 2.30613 -3.94546 0
M  V30 3607 C 352.014 1.89915 -4.83971 0
M  V30 3608 C 349.699 2.42993 -4.39613 0
M  V30 3609 C 351.693 1.61981 -6.16475 0
M  V30 3610 C 349.38 2.14672 -5.72153 0
M  V30 3611 C 350.378 1.7423 -6.60404 0
M  V30 3612 O 350.066 1.46251 -7.90485 0
M  V30 3613 H 349.798 0.426086 -0.524811 0
M  V30 3614 H 352.352 0.72539 -1.92165 0
M  V30 3615 H 350.582 3.27664 -2.05361 0
M  V30 3616 H 352.271 3.22182 -2.46887 0
M  V30 3617 H 353.037 1.79872 -4.50412 0
M  V30 3618 H 348.916 2.73435 -3.71153 0
M  V30 3619 H 352.46 1.30341 -6.85315 0
M  V30 3620 H 348.357 2.24337 -6.05263 0
M  V30 3621 H 349.125 1.6016 -8.02677 0
M  V30 3622 N 351.788 1.33704 0.83433 0
M  V30 3623 C 353.065 1.16011 1.57483 0
M  V30 3624 C 353.445 -0.27176 2.09343 0
M  V30 3625 O 352.793 -1.27146 1.89858 0
M  V30 3626 C 353.003 2.20507 2.70514 0
M  V30 3627 C 354.351 2.54898 3.39577 0
M  V30 3628 O 355.375 2.19209 2.80759 0
M  V30 3629 O 354.234 3.16158 4.45765 0
M  V30 3630 H 351.328 0.448992 0.694503 0
M  V30 3631 H 353.874 1.453 0.876691 0
M  V30 3632 H 352.646 3.16667 2.29865 0
M  V30 3633 H 352.269 1.92329 3.47987 0
M  V30 3634 N 353.266 -1.05314 1.17247 0
M  V30 3635 C 354.512 -1.78557 0.961513 0
M  V30 3636 C 354.845 -1.87419 -0.508697 0
M  V30 3637 O 354.12 -1.37307 -1.37757 0
M  V30 3638 C 354.403 -3.22514 1.60176 0
M  V30 3639 C 354.256 -3.21673 3.14399 0
M  V30 3640 C 355.575 -4.20318 1.30463 0
M  V30 3641 H 352.694 -0.6482 0.350723 0
M  V30 3642 H 355.336 -1.23102 1.44727 0
M  V30 3643 H 353.486 -3.69867 1.18871 0
M  V30 3644 H 355.158 -2.82405 3.64753 0
M  V30 3645 H 353.401 -2.60048 3.47214 0
M  V30 3646 H 354.072 -4.23271 3.54324 0
M  V30 3647 H 356.548 -3.81454 1.66229 0
M  V30 3648 H 355.424 -5.19289 1.77848 0
M  V30 3649 H 355.685 -4.41526 0.22521 0
M  V30 3650 N 354.744 -0.972509 -1.24016 0
M  V30 3651 C 355.99 -0.637978 -1.92504 0
M  V30 3652 C 356.323 0.825383 -1.75787 0
M  V30 3653 O 355.598 1.59442 -1.11393 0
M  V30 3654 C 355.881 -1.01942 -3.45369 0
M  V30 3655 C 355.734 -2.53983 -3.71231 0
M  V30 3656 C 357.053 -0.55751 -4.36555 0
M  V30 3657 H 354.172 -0.233248 -0.699117 0
M  V30 3658 H 356.814 -1.21238 -1.46292 0
M  V30 3659 H 354.964 -0.530656 -3.84859 0
M  V30 3660 H 356.636 -3.10374 -3.41271 0
M  V30 3661 H 354.879 -2.96968 -3.16216 0
M  V30 3662 H 355.55 -2.75723 -4.78206 0
M  V30 3663 H 358.026 -0.977029 -4.04467 0
M  V30 3664 H 356.902 -0.85292 -5.42233 0
M  V30 3665 H 357.163 0.542328 -4.38761 0
M  V30 3666 N 356.222 1.38976 -0.743202 0
M  V30 3667 C 357.17 2.32394 -0.0978389 0
M  V30 3668 C 358.164 1.53486 0.716824 0
M  V30 3669 O 359.37 1.69092 0.617088 0
M  V30 3670 H 355.745 0.75189 -0.0128402 0
M  V30 3671 H 357.716 2.84441 -0.901981 0
M  V30 3672 C 356.465 3.38629 0.789036 0
M  V30 3673 H 355.788 3.99432 0.171559 0
M  V30 3674 H 357.228 4.06426 1.20807 0
M  V30 3675 C 355.687 2.76347 1.92702 0
M  V30 3676 O 356.217 2.64836 3.02034 0
M  V30 3677 N 354.423 2.34311 1.71891 0
M  V30 3678 H 353.97 2.43873 0.829675 0
M  V30 3679 H 353.928 1.9298 2.48205 0
M  V30 3680 N 357.7 0.491464 1.49741 0
M  V30 3681 C 358.947 -0.0564256 2.02421 0
M  V30 3682 C 359.275 -1.37872 1.37192 0
M  V30 3683 O 358.53 -1.89375 0.493508 0
M  V30 3684 C 358.829 -0.267329 3.56399 0
M  V30 3685 C 358.495 0.975775 4.40215 0
M  V30 3686 C 357.157 1.31655 4.62839 0
M  V30 3687 C 359.509 1.80251 4.89039 0
M  V30 3688 C 356.837 2.48375 5.31532 0
M  V30 3689 C 359.189 2.96116 5.59015 0
M  V30 3690 C 357.853 3.30585 5.79888 0
M  V30 3691 H 357.123 -0.0206476 0.740712 0
M  V30 3692 H 359.77 0.649686 1.80143 0
M  V30 3693 H 358.075 -1.05588 3.77304 0
M  V30 3694 H 359.772 -0.705549 3.94744 0
M  V30 3695 H 356.362 0.700315 4.2284 0
M  V30 3696 H 360.546 1.55239 4.71396 0
M  V30 3697 H 355.802 2.7533 5.45897 0
M  V30 3698 H 359.976 3.60509 5.95824 0
M  V30 3699 H 357.603 4.21132 6.32892 0
M  V30 3700 N 359.178 -1.55987 0.224894 0
M  V30 3701 C 360.088 -2.24066 -0.69511 0
M  V30 3702 C 361.104 -1.24939 -1.21104 0
M  V30 3703 O 362.28 -1.5776 -1.25195 0
M  V30 3704 C 359.345 -2.90983 -1.88493 0
M  V30 3705 C 358.406 -4.05462 -1.41064 0
M  V30 3706 C 357.639 -4.69179 -2.54375 0
M  V30 3707 O 357.862 -4.31895 -3.72589 0
M  V30 3708 O 356.796 -5.58108 -2.25386 0
M  V30 3709 H 360.622 -3.03353 -0.145149 0
M  V30 3710 H 358.207 -1.49399 -0.00569476 0
M  V30 3711 H 360.089 -3.33209 -2.57972 0
M  V30 3712 H 358.764 -2.14653 -2.42293 0
M  V30 3713 H 357.671 -3.67798 -0.683774 0
M  V30 3714 H 359.004 -4.83545 -0.918985 0
M  V30 3715 N 360.656 0.0484629 -1.57525 0
M  V30 3716 C 361.905 0.742065 -1.87553 0
M  V30 3717 C 362.218 1.77545 -0.820802 0
M  V30 3718 O 363.424 2.52027 -1.00967 0
M  V30 3719 C 361.88 1.37081 -3.32771 0
M  V30 3720 C 361.488 0.374786 -4.4643 0
M  V30 3721 C 363.232 2.04542 -3.71972 0
M  V30 3722 C 361.139 1.01077 -5.82698 0
M  V30 3723 H 360.069 0.280903 -0.699721 0
M  V30 3724 H 362.72 -0.00411877 -1.835 0
M  V30 3725 H 361.102 2.16605 -3.31509 0
M  V30 3726 H 362.276 -0.392331 -4.59127 0
M  V30 3727 H 360.591 -0.196653 -4.15935 0
M  V30 3728 H 363.188 2.52943 -4.71088 0
M  V30 3729 H 363.531 2.85515 -3.02964 0
M  V30 3730 H 364.064 1.31819 -3.75325 0
M  V30 3731 H 360.803 0.240878 -6.55057 0
M  V30 3732 H 360.323 1.74819 -5.73758 0
M  V30 3733 H 362.002 1.52383 -6.28799 0
M  V30 3734 N 362.134 1.5431 0.320358 0
M  V30 3735 C 363.044 1.86946 1.41734 0
M  V30 3736 C 364.06 0.761689 1.56443 0
M  V30 3737 O 365.236 1.05629 1.71477 0
M  V30 3738 C 362.301 2.09293 2.76401 0
M  V30 3739 C 361.362 3.33082 2.70841 0
M  V30 3740 C 360.595 3.54353 3.99086 0
M  V30 3741 O 360.818 2.79002 4.97508 0
M  V30 3742 O 359.752 4.47838 4.0215 0
M  V30 3743 H 363.578 2.80232 1.17062 0
M  V30 3744 H 361.163 1.40255 0.514673 0
M  V30 3745 H 363.045 2.25303 3.56113 0
M  V30 3746 H 361.72 1.19194 3.00956 0
M  V30 3747 H 360.627 3.22454 1.89668 0
M  V30 3748 H 361.96 4.23249 2.5124 0
M  V30 3749 N 363.613 -0.582584 1.46437 0
M  V30 3750 C 364.543 -1.70187 1.59871 0
M  V30 3751 C 365.524 -1.64066 0.449042 0
M  V30 3752 O 366.709 -1.82081 0.6753 0
M  V30 3753 C 363.839 -3.08827 1.58881 0
M  V30 3754 C 362.793 -3.29779 2.72819 0
M  V30 3755 C 362.119 -4.68947 2.5689 0
M  V30 3756 C 363.419 -3.17601 4.1464 0
M  V30 3757 H 365.113 -1.592 2.53566 0
M  V30 3758 H 362.659 -0.764472 1.22032 0
M  V30 3759 H 364.612 -3.86951 1.66873 0
M  V30 3760 H 363.336 -3.20713 0.617306 0
M  V30 3761 H 361.995 -2.54054 2.64296 0
M  V30 3762 H 361.643 -4.77599 1.57823 0
M  V30 3763 H 361.343 -4.83919 3.33312 0
M  V30 3764 H 362.867 -5.4924 2.66773 0
M  V30 3765 H 364.281 -3.8557 4.24274 0
M  V30 3766 H 362.678 -3.44094 4.9165 0
M  V30 3767 H 363.748 -2.14681 4.34788 0
M  V30 3768 N 365.091 -1.34144 -0.827227 0
M  V30 3769 C 366.024 -1.19707 -1.94282 0
M  V30 3770 C 367.002 -0.0897256 -1.62352 0
M  V30 3771 O 368.186 -0.254095 -1.8678 0
M  V30 3772 C 365.313 -0.838646 -3.28153 0
M  V30 3773 C 364.359 -1.95514 -3.79047 0
M  V30 3774 S 365.192 -3.56793 -3.99323 0
M  V30 3775 C 366.348 -3.22983 -5.36127 0
M  V30 3776 H 366.581 -2.1414 -2.06231 0
M  V30 3777 H 364.114 -1.19121 -0.982321 0
M  V30 3778 H 366.072 -0.638637 -4.05502 0
M  V30 3779 H 364.733 0.0872776 -3.13979 0
M  V30 3780 H 363.926 -1.658 -4.75948 0
M  V30 3781 H 363.528 -2.11241 -3.08631 0
M  V30 3782 H 365.82 -2.74531 -6.19386 0
M  V30 3783 H 366.763 -4.19008 -5.70822 0
M  V30 3784 H 367.171 -2.59276 -5.01434 0
M  V30 3785 N 366.569 1.04691 -1.17803 0
M  V30 3786 C 367.516 2.12557 -0.899343 0
M  V30 3787 C 368.486 1.65339 0.158771 0
M  V30 3788 O 369.671 1.90789 0.0204797 0
M  V30 3789 C 366.811 3.42481 -0.424315 0
M  V30 3790 C 365.924 4.03346 -1.54713 0
M  V30 3791 C 365.059 5.21208 -1.02546 0
M  V30 3792 C 364.098 5.74089 -2.12339 0
M  V30 3793 N 363.235 6.83247 -1.61612 0
M  V30 3794 H 368.075 2.35734 -1.823 0
M  V30 3795 H 365.612 1.1564 -0.909159 0
M  V30 3796 H 367.57 4.16996 -0.130421 0
M  V30 3797 H 366.2 3.19471 0.462377 0
M  V30 3798 H 365.252 3.2622 -1.95664 0
M  V30 3799 H 366.564 4.38628 -2.37501 0
M  V30 3800 H 365.718 6.02812 -0.685718 0
M  V30 3801 H 364.457 4.87414 -0.167084 0
M  V30 3802 H 363.462 4.91111 -2.47165 0
M  V30 3803 H 364.687 6.0993 -2.98601 0
M  V30 3804 H 362.633 6.5134 -0.780533 0
M  V30 3805 H 362.55 7.17559 -2.38003 0
M  V30 3806 H 363.818 7.68491 -1.30545 0
M  V30 3807 N 368.047 0.979072 1.23499 0
M  V30 3808 C 369.324 0.563674 1.87302 0
M  V30 3809 C 369.704 -0.959199 1.88049 0
M  V30 3810 O 369.052 -1.83535 1.36114 0
M  V30 3811 C 369.262 1.16822 3.28867 0
M  V30 3812 C 370.61 1.26014 4.0547 0
M  V30 3813 O 371.634 1.12158 3.38082 0
M  V30 3814 O 370.493 1.48044 5.26066 0
M  V30 3815 H 367.587 0.189602 0.804972 0
M  V30 3816 H 370.133 1.07407 1.31384 0
M  V30 3817 H 368.905 2.21049 3.22883 0
M  V30 3818 H 368.528 0.642564 3.92373 0
M  V30 3819 N 369.525 -1.3858 0.750561 0
M  V30 3820 C 370.455 -2.33102 0.136237 0
M  V30 3821 C 371.436 -1.54713 -0.706965 0
M  V30 3822 O 372.621 -1.83043 -0.648769 0
M  V30 3823 C 369.751 -3.38882 -0.760017 0
M  V30 3824 C 368.705 -4.27995 -0.0197785 0
M  V30 3825 C 368.031 -5.24605 -1.03408 0
M  V30 3826 C 369.331 -5.09554 1.14684 0
M  V30 3827 H 371.025 -2.84726 0.925822 0
M  V30 3828 H 368.571 -1.36898 0.446654 0
M  V30 3829 H 370.524 -4.0397 -1.19943 0
M  V30 3830 H 369.248 -2.85734 -1.58189 0
M  V30 3831 H 367.907 -3.64409 0.400184 0
M  V30 3832 H 367.555 -4.67746 -1.84994 0
M  V30 3833 H 367.255 -5.85081 -0.543464 0
M  V30 3834 H 368.779 -5.9257 -1.47288 0
M  V30 3835 H 370.193 -5.67899 0.785118 0
M  V30 3836 H 368.59 -5.7925 1.56812 0
M  V30 3837 H 369.66 -4.4347 1.96118 0
M  V30 3838 N 371.003 -0.499398 -1.49478 0
M  V30 3839 C 372.251 0.0455996 -2.02049 0
M  V30 3840 C 372.572 1.37633 -1.38138 0
M  V30 3841 O 371.842 1.8842 -0.536166 0
M  V30 3842 H 370.422 0.0198416 -0.746736 0
M  V30 3843 H 373.084 -0.656274 -1.83519 0
M  V30 3844 H 372.18 0.176445 -3.11601 0
M  V30 3845 N 372.481 1.55866 -0.233164 0
M  V30 3846 C 373.727 1.98897 0.395959 0
M  V30 3847 C 374.06 1.12091 1.58585 0
M  V30 3848 O 373.335 0.181182 1.93654 0
M  V30 3849 C 373.618 3.50658 0.819224 0
M  V30 3850 C 373.471 4.48233 -0.375109 0
M  V30 3851 C 374.79 4.07135 1.67121 0
M  V30 3852 H 371.909 0.723102 0.142451 0
M  V30 3853 H 374.551 1.87082 -0.331725 0
M  V30 3854 H 372.701 3.60857 1.43925 0
M  V30 3855 H 374.373 4.50031 -1.01341 0
M  V30 3856 H 372.616 4.21624 -1.02058 0
M  V30 3857 H 373.287 5.51988 -0.0358328 0
M  V30 3858 H 375.763 3.99952 1.14795 0
M  V30 3859 H 374.639 5.13615 1.93625 0
M  V30 3860 H 374.9 3.54736 2.63846 0
M  V30 3861 N 373.959 -0.0401083 1.57549 0
M  V30 3862 C 374.906 -1.04413 2.05831 0
M  V30 3863 C 375.876 -1.36585 0.945184 0
M  V30 3864 O 377.061 -1.47112 1.21502 0
M  V30 3865 C 374.201 -2.34336 2.53339 0
M  V30 3866 C 373.314 -2.08419 3.78398 0
M  V30 3867 C 372.449 -3.32133 4.14561 0
M  V30 3868 C 371.488 -3.01721 5.3257 0
M  V30 3869 N 370.625 -4.17855 5.64218 0
M  V30 3870 H 375.465 -0.625442 2.91363 0
M  V30 3871 H 373.002 -0.297218 1.44066 0
M  V30 3872 H 374.96 -3.10234 2.78946 0
M  V30 3873 H 373.59 -2.73948 1.7074 0
M  V30 3874 H 372.642 -1.23069 3.59942 0
M  V30 3875 H 373.954 -1.81978 4.64419 0
M  V30 3876 H 373.108 -4.16406 4.41238 0
M  V30 3877 H 371.847 -3.61678 3.2717 0
M  V30 3878 H 370.852 -2.15849 5.05657 0
M  V30 3879 H 372.077 -2.73466 6.21605 0
M  V30 3880 H 370.023 -4.47372 4.79786 0
M  V30 3881 H 369.94 -3.94798 6.44725 0
M  V30 3882 H 371.208 -5.03033 5.95465 0
M  V30 3883 N 375.437 -1.54477 -0.31217 0
M  V30 3884 C 376.686 -1.72438 -1.04633 0
M  V30 3885 C 376.999 -0.511163 -1.88803 0
M  V30 3886 O 378.205 -0.572341 -2.65399 0
M  V30 3887 C 376.661 -3.05043 -1.9099 0
M  V30 3888 C 376.269 -4.33806 -1.11877 0
M  V30 3889 C 378.013 -3.32364 -2.64073 0
M  V30 3890 C 375.92 -5.57467 -1.97445 0
M  V30 3891 H 374.85 -0.642647 -0.394361 0
M  V30 3892 H 377.501 -1.80966 -0.303929 0
M  V30 3893 H 375.883 -2.90451 -2.69173 0
M  V30 3894 H 377.057 -4.59199 -0.383843 0
M  V30 3895 H 375.372 -4.13336 -0.504252 0
M  V30 3896 H 377.969 -4.21951 -3.28423 0
M  V30 3897 H 378.312 -2.50745 -3.32314 0
M  V30 3898 H 378.845 -3.47875 -1.92944 0
M  V30 3899 H 375.584 -6.41722 -1.33692 0
M  V30 3900 H 375.104 -5.36277 -2.6864 0
M  V30 3901 H 376.783 -5.94303 -2.5576 0
M  V30 3902 N 376.915 0.57481 -1.46744 0
M  V30 3903 C 378.164 1.32898 -1.51727 0
M  V30 3904 C 378.477 1.948 -0.176692 0
M  V30 3905 O 379.683 2.71299 -0.104385 0
M  V30 3906 C 378.139 2.40901 -2.67385 0
M  V30 3907 C 377.747 1.85266 -4.07898 0
M  V30 3908 C 379.491 3.17609 -2.81646 0
M  V30 3909 C 377.398 2.90945 -5.14883 0
M  V30 3910 H 376.328 0.499631 -0.564699 0
M  V30 3911 H 378.979 0.612536 -1.72975 0
M  V30 3912 H 377.361 3.15379 -2.39483 0
M  V30 3913 H 378.535 1.17278 -4.45626 0
M  V30 3914 H 376.85 1.21199 -3.98371 0
M  V30 3915 H 379.447 3.96493 -3.58744 0
M  V30 3916 H 379.79 3.70696 -1.89448 0
M  V30 3917 H 380.323 2.50239 -3.09233 0
M  V30 3918 H 377.062 2.42736 -6.089 0
M  V30 3919 H 376.582 3.57398 -4.81691 0
M  V30 3920 H 378.261 3.54755 -5.41071 0
M  V30 3921 N 378.394 1.34581 0.820102 0
M  V30 3922 C 379.634 1.28448 1.58998 0
M  V30 3923 C 379.998 -0.142883 1.91468 0
M  V30 3924 O 381.199 -0.328422 2.66786 0
M  V30 3925 C 379.47 2.153 2.85273 0
M  V30 3926 S 381.029 2.26548 3.75794 0
M  V30 3927 H 377.847 0.456685 0.54494 0
M  V30 3928 H 380.449 1.69825 0.968487 0
M  V30 3929 H 379.153 3.18008 2.59421 0
M  V30 3930 H 378.684 1.7483 3.52417 0
M  V30 3931 H 380.699 1.44034 4.74835 0
M  V30 3932 N 379.872 -1.04064 1.18357 0
M  V30 3933 C 381.12 -1.76915 0.977013 0
M  V30 3934 C 381.441 -1.88624 -0.494577 0
M  V30 3935 O 380.711 -1.41125 -1.3587 0
M  V30 3936 H 379.291 -0.65535 0.358504 0
M  V30 3937 H 381.953 -1.25592 1.49039 0
M  V30 3938 H 381.049 -2.78178 1.41504 0
M  V30 3939 N 381.35 -0.985608 -1.22978 0
M  V30 3940 C 382.297 -0.529825 -2.24636 0
M  V30 3941 C 383.267 0.434028 -1.60329 0
M  V30 3942 O 384.452 0.340414 -1.87739 0
M  V30 3943 C 381.592 0.156533 -3.44745 0
M  V30 3944 C 380.705 -0.848197 -4.23591 0
M  V30 3945 C 379.84 -0.136109 -5.31026 0
M  V30 3946 C 378.879 -1.1297 -6.01585 0
M  V30 3947 N 378.016 -0.446415 -7.00679 0
M  V30 3948 H 382.856 -1.40148 -2.62988 0
M  V30 3949 H 380.393 -0.702168 -1.29259 0
M  V30 3950 H 382.351 0.571324 -4.1327 0
M  V30 3951 H 380.981 0.992025 -3.07179 0
M  V30 3952 H 380.033 -1.38135 -3.54433 0
M  V30 3953 H 381.345 -1.60512 -4.72268 0
M  V30 3954 H 380.499 0.335784 -6.0577 0
M  V30 3955 H 379.238 0.653373 -4.83304 0
M  V30 3956 H 378.243 -1.6123 -5.25628 0
M  V30 3957 H 379.468 -1.91993 -6.51395 0
M  V30 3958 H 377.414 0.323763 -6.55201 0
M  V30 3959 H 377.331 -1.1419 -7.47326 0
M  V30 3960 H 378.599 0.00291697 -7.795 0
M  V30 3961 N 382.828 1.3818 -0.7579 0
M  V30 3962 C 384.053 2.04827 -0.325679 0
M  V30 3963 C 384.478 1.56788 1.03919 0
M  V30 3964 O 383.836 0.721811 1.66312 0
M  V30 3965 C 383.884 3.58774 -0.362447 0
M  V30 3966 O 382.988 4.07372 0.642033 0
M  V30 3967 H 382.329 0.64833 -0.143402 0
M  V30 3968 H 384.859 1.7677 -1.03023 0
M  V30 3969 H 384.869 4.07434 -0.214844 0
M  V30 3970 H 383.544 3.93096 -1.35824 0
M  V30 3971 H 382.121 3.70068 0.458688 0
M  V30 3972 N 384.306 0.507319 1.49211 0
M  V30 3973 C 385.236 -0.256939 2.32082 0
M  V30 3974 C 386.217 -0.956609 1.40652 0
M  V30 3975 O 387.402 -0.946788 1.69557 0
M  V30 3976 C 384.532 -1.31802 3.21318 0
M  V30 3977 C 383.486 -0.737855 4.21592 0
M  V30 3978 C 382.812 -1.89992 4.99807 0
M  V30 3979 C 384.112 0.275325 5.21574 0
M  V30 3980 H 385.806 0.434798 2.96226 0
M  V30 3981 H 383.352 0.210546 1.42452 0
M  V30 3982 H 385.305 -1.86045 3.78107 0
M  V30 3983 H 384.029 -2.03903 2.5513 0
M  V30 3984 H 382.688 -0.217126 3.65956 0
M  V30 3985 H 382.336 -2.60877 4.30061 0
M  V30 3986 H 382.036 -1.51777 5.6766 0
M  V30 3987 H 383.56 -2.44657 5.59442 0
M  V30 3988 H 384.974 -0.179193 5.7302 0
M  V30 3989 H 383.371 0.573649 5.97352 0
M  V30 3990 H 384.441 1.18903 4.70096 0
M  V30 3991 N 385.784 -1.5574 0.241426 0
M  V30 3992 C 387.009 -2.0366 -0.392111 0
M  V30 3993 C 387.434 -1.11969 -1.51144 0
M  V30 3994 O 386.792 -0.111594 -1.80956 0
M  V30 3995 C 386.84 -3.49638 -0.882371 0
M  V30 3996 O 385.944 -3.6108 -1.99235 0
M  V30 3997 H 385.285 -0.658379 -0.0862122 0
M  V30 3998 H 387.815 -2.01302 0.365881 0
M  V30 3999 H 387.825 -3.90351 -1.18702 0
M  V30 4000 H 386.5 -4.15852 -0.0632361 0
M  V30 4001 H 385.077 -3.32262 -1.69282 0
M  V30 4002 N 387.262 0.0317525 -1.57568 0
M  V30 4003 C 388.508 0.724175 -1.8943 0
M  V30 4004 C 388.841 1.75149 -0.838836 0
M  V30 4005 O 388.116 1.93948 0.146422 0
M  V30 4006 C 388.399 1.39615 -3.31933 0
M  V30 4007 C 388.252 0.382537 -4.4817 0
M  V30 4008 C 389.571 2.33084 -3.73309 0
M  V30 4009 H 386.69 0.261797 -0.688935 0
M  V30 4010 H 389.332 -0.013017 -1.89996 0
M  V30 4011 H 387.482 2.02451 -3.31581 0
M  V30 4012 H 389.154 -0.243689 -4.60656 0
M  V30 4013 H 387.397 -0.29844 -4.32772 0
M  V30 4014 H 388.068 0.891145 -5.44759 0
M  V30 4015 H 390.544 1.80295 -3.7501 0
M  V30 4016 H 389.42 2.77084 -4.73831 0
M  V30 4017 H 389.681 3.19643 -3.05419 0
M  V30 4018 N 388.74 1.54641 0.303973 0
M  V30 4019 C 389.688 1.86137 1.39484 0
M  V30 4020 C 390.682 0.734854 1.52631 0
M  V30 4021 O 391.888 0.918803 1.54784 0
M  V30 4022 H 388.263 0.590324 0.465856 0
M  V30 4023 H 390.234 2.77324 1.10154 0
M  V30 4024 C 388.983 2.12274 2.75382 0
M  V30 4025 H 388.306 2.98429 2.66046 0
M  V30 4026 H 389.746 2.38254 3.5073 0
M  V30 4027 C 388.205 0.920365 3.24085 0
M  V30 4028 O 388.735 0.139377 4.01458 0
M  V30 4029 N 386.941 0.726566 2.81371 0
M  V30 4030 H 386.488 1.36332 2.18567 0
M  V30 4031 H 386.446 -0.0763799 3.14307 0
M  V30 4032 N 390.218 -0.567019 1.47046 0
M  V30 4033 C 391.128 -1.70247 1.6141 0
M  V30 4034 C 392.144 -1.66746 0.497157 0
M  V30 4035 O 393.32 -1.86371 0.763389 0
M  V30 4036 C 390.385 -3.06756 1.61561 0
M  V30 4037 C 389.446 -3.21399 2.84607 0
M  V30 4038 C 388.679 -4.51396 2.84741 0
M  V30 4039 O 388.902 -5.36255 1.94388 0
M  V30 4040 O 387.836 -4.69621 3.76483 0
M  V30 4041 H 391.662 -1.61073 2.57467 0
M  V30 4042 H 389.247 -0.735894 1.30019 0
M  V30 4043 H 391.129 -3.8801 1.64396 0
M  V30 4044 H 389.804 -3.16333 0.686684 0
M  V30 4045 H 388.711 -2.39579 2.8732 0
M  V30 4046 H 390.044 -3.16721 3.76761 0
M  V30 4047 N 391.696 -1.35014 -0.812953 0
M  V30 4048 C 392.629 -1.21761 -1.93001 0
M  V30 4049 C 393.607 -0.10694 -1.62248 0
M  V30 4050 O 394.791 -0.273891 -1.865 0
M  V30 4051 C 391.918 -0.873404 -3.27245 0
M  V30 4052 C 390.964 -1.99523 -3.76952 0
M  V30 4053 S 391.797 -3.61009 -3.95516 0
M  V30 4054 C 392.953 -3.28651 -5.32672 0
M  V30 4055 H 393.186 -2.16315 -2.03948 0
M  V30 4056 H 390.719 -1.20156 -0.969631 0
M  V30 4057 H 392.677 -0.68161 -4.04802 0
M  V30 4058 H 391.338 0.053971 -3.14054 0
M  V30 4059 H 390.531 -1.70838 -4.74163 0
M  V30 4060 H 390.133 -2.14503 -3.06373 0
M  V30 4061 H 392.425 -2.81085 -6.1644 0
M  V30 4062 H 393.368 -4.25039 -5.66346 0
M  V30 4063 H 393.776 -2.6458 -4.98656 0
M  V30 4064 N 393.175 1.03435 -1.18907 0
M  V30 4065 C 394.403 1.80381 -1.01342 0
M  V30 4066 C 394.818 1.83649 0.438005 0
M  V30 4067 O 394.175 1.27655 1.30424 0
M  V30 4068 C 394.226 3.25689 -1.56873 0
M  V30 4069 O 393.947 3.22673 -2.96334 0
M  V30 4070 C 395.448 4.19255 -1.44014 0
M  V30 4071 H 392.668 0.56784 -0.35749 0
M  V30 4072 H 395.212 1.30317 -1.576 0
M  V30 4073 H 393.367 3.72962 -1.04777 0
M  V30 4074 H 393.781 4.13748 -3.22355 0
M  V30 4075 H 395.255 5.19123 -1.87657 0
M  V30 4076 H 395.732 4.37467 -0.389815 0
M  V30 4077 H 396.338 3.77851 -1.95214 0
M  V30 4078 N 394.653 0.992116 1.22453 0
M  V30 4079 C 395.583 0.561677 2.26644 0
M  V30 4080 C 396.564 -0.411055 1.65059 0
M  V30 4081 O 397.749 -0.301861 1.9184 0
M  V30 4082 C 394.879 -0.125247 3.47074 0
M  V30 4083 C 393.833 0.765948 4.21091 0
M  V30 4084 C 393.159 -0.0538484 5.34673 0
M  V30 4085 C 394.459 2.06242 4.79856 0
M  V30 4086 H 396.153 1.43259 2.62902 0
M  V30 4087 H 393.699 0.690283 1.26377 0
M  V30 4088 H 395.652 -0.437764 4.1912 0
M  V30 4089 H 394.376 -1.03069 3.0991 0
M  V30 4090 H 393.035 1.0621 3.50878 0
M  V30 4091 H 392.683 -0.960188 4.9375 0
M  V30 4092 H 392.383 0.539415 5.85119 0
M  V30 4093 H 393.907 -0.360477 6.09535 0
M  V30 4094 H 395.321 1.8139 5.43848 0
M  V30 4095 H 393.718 2.60444 5.40638 0
M  V30 4096 H 394.788 2.74167 3.99951 0
M  V30 4097 N 396.131 -1.37776 0.765217 0
M  V30 4098 C 397.356 -2.04651 0.336537 0
M  V30 4099 C 397.781 -1.57337 -1.03086 0
M  V30 4100 O 397.139 -0.730621 -1.65927 0
M  V30 4101 C 397.187 -3.58577 0.381468 0
M  V30 4102 O 396.291 -4.07706 -0.62042 0
M  V30 4103 H 395.632 -0.64756 0.146838 0
M  V30 4104 H 398.162 -1.76221 1.03959 0
M  V30 4105 H 398.172 -4.07314 0.236448 0
M  V30 4106 H 396.847 -3.9237 1.37907 0
M  V30 4107 H 395.424 -3.70306 -0.439056 0
M  V30 4108 N 397.609 -0.515225 -1.4894 0
M  V30 4109 C 398.837 0.0206034 -2.0689 0
M  V30 4110 C 399.252 1.29514 -1.37374 0
M  V30 4111 O 398.609 1.76698 -0.456529 0
M  V30 4112 C 398.66 0.26351 -3.60538 0
M  V30 4113 O 398.381 -0.960517 -4.27441 0
M  V30 4114 C 399.882 0.841383 -4.35242 0
M  V30 4115 H 397.102 -0.0268608 -0.670462 0
M  V30 4116 H 399.646 -0.716651 -1.91532 0
M  V30 4117 H 397.801 0.950777 -3.75552 0
M  V30 4118 H 398.215 -0.73212 -5.19365 0
M  V30 4119 H 399.689 0.96085 -5.43573 0
M  V30 4120 H 400.166 1.8427 -3.98674 0
M  V30 4121 H 400.772 0.191143 -4.2487 0
M  V30 4122 N 399.087 1.5561 -0.249682 0
M  V30 4123 C 400.017 2.24477 0.642826 0
M  V30 4124 C 400.998 1.22601 1.17911 0
M  V30 4125 O 402.183 1.5126 1.21795 0
M  V30 4126 C 399.313 2.94638 1.83863 0
M  V30 4127 C 398.267 4.03227 1.435 0
M  V30 4128 C 397.593 4.60828 2.71186 0
M  V30 4129 C 398.893 5.18796 0.604002 0
M  V30 4130 H 400.587 2.99321 0.0685625 0
M  V30 4131 H 398.133 1.43965 0.0315363 0
M  V30 4132 H 400.086 3.41517 2.46868 0
M  V30 4133 H 398.81 2.17287 2.43832 0
M  V30 4134 H 397.469 3.57121 0.828275 0
M  V30 4135 H 397.117 3.80174 3.29358 0
M  V30 4136 H 396.817 5.34132 2.44901 0
M  V30 4137 H 398.341 5.10442 3.35084 0
M  V30 4138 H 399.755 5.61883 1.13842 0
M  V30 4139 H 398.152 5.98506 0.437097 0
M  V30 4140 H 399.222 4.83384 -0.383147 0
M  V30 4141 N 400.565 -0.0233959 1.57583 0
M  V30 4142 C 401.512 -1.02224 2.06927 0
M  V30 4143 C 402.482 -1.35575 0.959617 0
M  V30 4144 O 403.667 -1.45815 1.23055 0
M  V30 4145 C 400.807 -2.31636 2.5581 0
M  V30 4146 C 399.92 -2.04394 3.80588 0
M  V30 4147 C 399.055 -3.27717 4.18061 0
M  V30 4148 C 398.094 -2.96056 5.3574 0
M  V30 4149 N 397.231 -4.11847 5.68618 0
M  V30 4150 H 402.071 -0.594504 2.9201 0
M  V30 4151 H 399.608 -0.281921 1.44373 0
M  V30 4152 H 401.566 -3.07258 2.82221 0
M  V30 4153 H 400.196 -2.72122 1.73636 0
M  V30 4154 H 399.248 -1.19244 3.61227 0
M  V30 4155 H 400.56 -1.77042 4.66323 0
M  V30 4156 H 399.714 -4.11702 4.4563 0
M  V30 4157 H 398.453 -3.58188 3.30988 0
M  V30 4158 H 397.458 -2.10474 5.07918 0
M  V30 4159 H 398.683 -2.66857 6.24471 0
M  V30 4160 H 396.629 -4.42258 4.84504 0
M  V30 4161 H 396.546 -3.87938 6.48876 0
M  V30 4162 H 397.814 -4.96689 6.00766 0
M  V30 4163 N 402.043 -1.548 -0.295768 0
M  V30 4164 C 402.953 -1.89177 -1.38742 0
M  V30 4165 C 403.969 -0.786481 -1.55211 0
M  V30 4166 O 405.145 -1.08344 -1.69775 0
M  V30 4167 C 402.21 -2.13663 -2.73036 0
M  V30 4168 C 401.271 -3.37349 -2.65508 0
M  V30 4169 C 400.504 -3.60658 -3.93398 0
M  V30 4170 O 400.727 -2.86882 -4.93006 0
M  V30 4171 O 399.661 -4.54179 -3.94975 0
M  V30 4172 H 403.487 -2.82059 -1.12589 0
M  V30 4173 H 401.072 -1.41056 -0.492295 0
M  V30 4174 H 402.954 -2.3094 -3.52484 0
M  V30 4175 H 401.629 -1.23967 -2.99022 0
M  V30 4176 H 400.536 -3.25431 -1.84514 0
M  V30 4177 H 401.869 -4.27192 -2.44474 0
M  V30 4178 N 403.521 0.559213 -1.47345 0
M  V30 4179 C 404.468 1.66645 -1.59682 0
M  V30 4180 C 405.438 1.60168 -0.43994 0
M  V30 4181 O 406.623 1.79031 -0.659736 0
M  V30 4182 C 403.763 3.04969 -1.61518 0
M  V30 4183 C 402.876 3.21897 -2.88108 0
M  V30 4184 C 402.011 4.50608 -2.81294 0
M  V30 4185 C 401.05 4.60961 -4.02717 0
M  V30 4186 N 400.187 5.81024 -3.94151 0
M  V30 4187 H 405.027 1.55439 -2.54249 0
M  V30 4188 H 402.564 0.757219 -1.26113 0
M  V30 4189 H 404.522 3.85064 -1.60566 0
M  V30 4190 H 403.152 3.15015 -0.704645 0
M  V30 4191 H 402.204 2.35248 -2.98936 0
M  V30 4192 H 403.516 3.25412 -3.78032 0
M  V30 4193 H 402.67 5.3896 -2.7858 0
M  V30 4194 H 401.409 4.49568 -1.89049 0
M  V30 4195 H 400.414 3.71021 -4.05738 0
M  V30 4196 H 401.639 4.63761 -4.96087 0
M  V30 4197 H 399.585 5.80938 -3.04708 0
M  V30 4198 H 399.502 5.85909 -4.77752 0
M  V30 4199 H 400.77 6.71744 -3.9545 0
M  V30 4200 N 404.999 1.35443 0.805782 0
M  V30 4201 C 406.247 1.28507 1.55982 0
M  V30 4202 C 406.568 -0.140046 1.94496 0
M  V30 4203 O 405.838 -1.07666 1.63661 0
M  V30 4204 H 404.418 0.472676 0.578434 0
M  V30 4205 H 407.08 1.69555 0.961098 0
M  V30 4206 H 406.176 1.90148 2.47488 0
M  V30 4207 N 406.477 -1.02803 1.19454 0
M  V30 4208 C 407.707 -1.79581 1.02149 0
M  V30 4209 C 408.115 -1.84182 -0.432851 0
M  V30 4210 O 407.458 -1.28534 -1.31243 0
M  V30 4211 C 407.52 -3.25993 1.51554 0
M  V30 4212 C 407.184 -3.45025 2.99678 0
M  V30 4213 C 408.181 -3.35175 3.97434 0
M  V30 4214 C 405.866 -3.71212 3.38389 0
M  V30 4215 C 407.86 -3.51238 5.31893 0
M  V30 4216 C 405.547 -3.8692 4.73008 0
M  V30 4217 C 406.545 -3.76936 5.69569 0
M  V30 4218 O 406.233 -3.92179 7.01748 0
M  V30 4219 H 405.965 -0.571962 0.360327 0
M  V30 4220 H 408.519 -1.30367 1.58725 0
M  V30 4221 H 406.749 -3.76235 0.893543 0
M  V30 4222 H 408.438 -3.84368 1.30444 0
M  V30 4223 H 409.204 -3.14895 3.68872 0
M  V30 4224 H 405.083 -3.78075 2.6378 0
M  V30 4225 H 408.627 -3.43362 6.07247 0
M  V30 4226 H 404.524 -4.06699 5.01265 0
M  V30 4227 H 405.292 -4.09265 7.08833 0
M  V30 4228 N 407.956 -0.998596 -1.21925 0
M  V30 4229 C 408.903 -0.553621 -2.24062 0
M  V30 4230 C 409.873 0.416999 -1.6078 0
M  V30 4231 O 411.058 0.320482 -1.88089 0
M  V30 4232 C 408.198 0.119959 -3.44891 0
M  V30 4233 C 407.311 -0.893077 -4.22668 0
M  V30 4234 C 406.446 -0.192424 -5.30851 0
M  V30 4235 C 405.485 -1.19344 -6.00353 0
M  V30 4236 N 404.622 -0.520707 -7.00166 0
M  V30 4237 H 409.462 -1.4293 -2.61486 0
M  V30 4238 H 406.999 -0.715838 -1.28507 0
M  V30 4239 H 408.957 0.527459 -4.13852 0
M  V30 4240 H 407.587 0.959389 -3.08214 0
M  V30 4241 H 406.639 -1.41886 -3.52948 0
M  V30 4242 H 407.951 -1.65512 -4.70539 0
M  V30 4243 H 407.105 0.271515 -6.06092 0
M  V30 4244 H 405.844 0.602075 -4.83969 0
M  V30 4245 H 404.849 -1.66795 -5.23889 0
M  V30 4246 H 406.074 -1.98891 -6.49322 0
M  V30 4247 H 404.02 0.254252 -6.55507 0
M  V30 4248 H 403.937 -1.2211 -7.46073 0
M  V30 4249 H 405.205 -0.0797596 -7.79459 0
M  V30 4250 N 409.434 1.37368 -0.772513 0
M  V30 4251 C 410.397 2.28601 -0.165541 0
M  V30 4252 C 411.397 1.48062 0.627238 0
M  V30 4253 O 412.587 1.68268 0.450715 0
M  V30 4254 C 409.719 3.32023 0.772897 0
M  V30 4255 H 410.912 2.83787 -0.969787 0
M  V30 4256 H 408.465 1.46647 -0.540775 0
M  V30 4257 H 409.2 2.81962 1.60212 0
M  V30 4258 H 408.985 3.91555 0.206585 0
M  V30 4259 H 410.475 4.00197 1.19298 0
M  V30 4260 N 410.912 0.523116 1.48665 0
M  V30 4261 C 411.875 -0.232592 2.28017 0
M  V30 4262 C 412.875 -0.874021 1.34972 0
M  V30 4263 O 414.065 -0.735132 1.57929 0
M  V30 4264 C 411.197 -1.33586 3.13636 0
M  V30 4265 H 412.39 0.464008 2.96289 0
M  V30 4266 H 409.943 0.278816 1.53793 0
M  V30 4267 H 410.678 -2.06593 2.4998 0
M  V30 4268 H 410.463 -0.881125 3.82071 0
M  V30 4269 H 411.953 -1.86759 3.73511 0
M  V30 4270 N 412.39 -1.55475 0.257931 0
M  V30 4271 C 413.637 -1.99207 -0.363728 0
M  V30 4272 C 413.965 -1.1462 -1.57139 0
M  V30 4273 O 413.22 -0.199653 -1.94679 0
M  V30 4274 C 413.519 -3.48183 -0.806433 0
M  V30 4275 C 413.185 -4.49936 0.294684 0
M  V30 4276 C 411.847 -4.77481 0.597076 0
M  V30 4277 C 414.199 -5.10769 1.03751 0
M  V30 4278 C 411.527 -5.63132 1.64618 0
M  V30 4279 C 413.879 -5.97558 2.07622 0
M  V30 4280 C 412.543 -6.23432 2.38514 0
M  V30 4281 H 411.813 -0.728949 -0.133097 0
M  V30 4282 H 414.46 -1.8793 0.368059 0
M  V30 4283 H 412.765 -3.56848 -1.61761 0
M  V30 4284 H 414.462 -3.79415 -1.29789 0
M  V30 4285 H 411.052 -4.28572 0.0488649 0
M  V30 4286 H 415.236 -4.89527 0.817149 0
M  V30 4287 H 410.492 -5.8143 1.89074 0
M  V30 4288 H 414.666 -6.43735 2.65666 0
M  V30 4289 H 412.293 -6.89594 3.19943 0
M  V30 4290 N 413.868 0.0150385 -1.57593 0
M  V30 4291 C 415.117 0.702115 -1.89085 0
M  V30 4292 C 415.43 1.75764 -0.858277 0
M  V30 4293 O 416.636 2.49829 -1.0629 0
M  V30 4294 C 415.092 1.29992 -3.35604 0
M  V30 4295 C 414.7 0.280007 -4.47124 0
M  V30 4296 C 416.444 1.96606 -3.76227 0
M  V30 4297 C 414.351 0.886949 -5.84711 0
M  V30 4298 H 413.281 0.265997 -0.705522 0
M  V30 4299 H 415.932 -0.0430408 -1.8345 0
M  V30 4300 H 414.314 2.09525 -3.36029 0
M  V30 4301 H 415.488 -0.489631 -4.58191 0
M  V30 4302 H 413.803 -0.284835 -4.15425 0
M  V30 4303 H 416.4 2.42893 -4.76347 0
M  V30 4304 H 416.743 2.79024 -3.08952 0
M  V30 4305 H 417.276 1.23828 -3.78036 0
M  V30 4306 H 414.015 0.101876 -6.55421 0
M  V30 4307 H 413.535 1.6261 -5.77337 0
M  V30 4308 H 415.214 1.39011 -6.3189 0
M  V30 4309 N 415.346 1.54954 0.287554 0
M  V30 4310 C 416.594 1.74528 1.01904 0
M  V30 4311 C 416.915 0.541349 1.87335 0
M  V30 4312 O 416.185 -0.444108 1.908 0
M  V30 4313 H 414.765 0.643576 0.379235 0
M  V30 4314 H 417.427 1.92333 0.315294 0
M  V30 4315 H 416.523 2.64015 1.6644 0
M  V30 4316 N 416.824 -0.551391 1.4764 0
M  V30 4317 C 418.073 -1.30467 1.53822 0
M  V30 4318 C 418.386 -1.94495 0.207661 0
M  V30 4319 O 419.592 -2.71099 0.147533 0
M  V30 4320 C 418.048 -2.36616 2.71184 0
M  V30 4321 C 417.656 -1.78754 4.10793 0
M  V30 4322 C 419.4 -3.13088 2.86663 0
M  V30 4323 C 417.307 -2.82717 5.19447 0
M  V30 4324 H 416.237 -0.490584 0.572576 0
M  V30 4325 H 418.888 -0.58494 1.73927 0
M  V30 4326 H 417.27 -3.11529 2.4447 0
M  V30 4327 H 418.444 -1.10173 4.47435 0
M  V30 4328 H 416.759 -1.14846 4.00249 0
M  V30 4329 H 419.356 -3.90736 3.65007 0
M  V30 4330 H 419.699 -3.67635 1.95321 0
M  V30 4331 H 420.232 -2.45288 3.13175 0
M  V30 4332 H 416.971 -2.33018 6.12685 0
M  V30 4333 H 416.491 -3.4969 4.87316 0
M  V30 4334 H 418.17 -3.46102 5.46646 0
M  V30 4335 N 418.302 -1.35869 -0.798587 0
M  V30 4336 C 419.55 -1.29332 -1.55298 0
M  V30 4337 C 419.871 0.129729 -1.94568 0
M  V30 4338 O 419.141 1.06796 -1.6423 0
M  V30 4339 H 417.721 -0.475737 -0.57592 0
M  V30 4340 H 420.383 -1.70062 -0.952093 0
M  V30 4341 H 419.479 -1.91458 -2.46476 0
M  V30 4342 N 419.78 1.02168 -1.19998 0
M  V30 4343 C 420.71 2.12488 -0.96804 0
M  V30 4344 C 421.691 1.69799 0.101185 0
M  V30 4345 O 422.876 1.94121 -0.0552993 0
M  V30 4346 C 420.006 3.43479 -0.513776 0
M  V30 4347 C 418.96 3.99884 -1.52566 0
M  V30 4348 C 418.286 5.26582 -0.928214 0
M  V30 4349 C 419.586 4.33861 -2.90795 0
M  V30 4350 H 421.28 2.32149 -1.89069 0
M  V30 4351 H 418.826 1.11564 -0.910468 0
M  V30 4352 H 420.779 4.20036 -0.338774 0
M  V30 4353 H 419.503 3.23561 0.444493 0
M  V30 4354 H 418.162 3.25429 -1.68794 0
M  V30 4355 H 417.81 5.02986 0.0378289 0
M  V30 4356 H 417.51 5.65284 -1.60397 0
M  V30 4357 H 419.034 6.05799 -0.764167 0
M  V30 4358 H 420.448 5.01327 -2.78109 0
M  V30 4359 H 418.845 4.83664 -3.55231 0
M  V30 4360 H 419.915 3.42848 -3.42904 0
M  V30 4361 N 421.258 1.00505 1.21394 0
M  V30 4362 C 422.669 0.721082 1.72213 0
M  V30 4363 C 423.02 -0.761263 1.80829 0
M  V30 4364 O 422.145 -1.59464 1.46288 0
M  V30 4365 C 422.74 1.30228 3.12772 0
M  V30 4366 C 421.299 1.06743 3.60947 0
M  V30 4367 C 420.446 1.41507 2.38477 0
M  V30 4368 H 423.397 1.17594 1.06571 0
M  V30 4369 H 423.418 0.686955 3.74247 0
M  V30 4370 H 422.93 2.38115 3.06468 0
M  V30 4371 H 421.031 0.00572162 3.726 0
M  V30 4372 H 421.144 1.73936 4.46411 0
M  V30 4373 H 419.508 0.833852 2.40664 0
M  V30 4374 H 420.291 2.50424 2.34824 0
M  V30 4375 N 422.737 -1.36956 0.779787 0
M  V30 4376 C 423.647 -2.33965 0.172491 0
M  V30 4377 C 424.663 -1.60574 -0.670222 0
M  V30 4378 O 425.839 -1.92617 -0.588263 0
M  V30 4379 C 422.904 -3.39761 -0.690173 0
M  V30 4380 C 421.965 -4.28964 0.169924 0
M  V30 4381 C 421.198 -5.29707 -0.651662 0
M  V30 4382 O 421.421 -5.38238 -1.88827 0
M  V30 4383 O 420.355 -6.01873 -0.0566264 0
M  V30 4384 H 424.181 -2.87647 0.974321 0
M  V30 4385 H 421.766 -1.39258 0.541078 0
M  V30 4386 H 423.648 -4.04471 -1.1824 0
M  V30 4387 H 422.323 -2.88394 -1.47006 0
M  V30 4388 H 421.23 -3.67326 0.708696 0
M  V30 4389 H 422.563 -4.83656 0.913085 0
M  V30 4390 N 424.215 -0.530993 -1.48385 0
M  V30 4391 C 425.626 -0.0907905 -1.86479 0
M  V30 4392 C 425.977 1.33213 -1.44044 0
M  V30 4393 O 425.102 1.99783 -0.831615 0
M  V30 4394 C 425.697 -0.157987 -3.38431 0
M  V30 4395 C 424.256 0.227026 -3.75715 0
M  V30 4396 C 423.403 -0.5173 -2.72432 0
M  V30 4397 H 426.354 -0.742186 -1.40276 0
M  V30 4398 H 426.375 0.630053 -3.75247 0
M  V30 4399 H 425.887 -1.19372 -3.69286 0
M  V30 4400 H 423.988 1.26486 -3.50474 0
M  V30 4401 H 424.101 -0.113288 -4.78966 0
M  V30 4402 H 422.465 0.0365527 -2.54674 0
M  V30 4403 H 423.248 -1.55368 -3.0613 0
M  V30 4404 N 425.693 1.55336 -0.266172 0
M  V30 4405 C 426.641 2.23587 0.641228 0
M  V30 4406 C 427.635 1.22986 1.16494 0
M  V30 4407 O 428.841 1.40943 1.1196 0
M  V30 4408 H 425.216 0.717452 0.225315 0
M  V30 4409 H 427.187 2.9837 0.0426561 0
M  V30 4410 C 425.936 2.96369 1.81826 0
M  V30 4411 H 425.259 3.73563 1.42445 0
M  V30 4412 H 426.699 3.47459 2.42998 0
M  V30 4413 C 425.158 2.0133 2.70125 0
M  V30 4414 O 425.688 1.55875 3.70224 0
M  V30 4415 N 423.894 1.6802 2.37102 0
M  V30 4416 H 423.441 2.05181 1.55751 0
M  V30 4417 H 423.399 1.047 2.96454 0
M  V30 4418 N 427.171 -0.0066808 1.57599 0
M  V30 4419 C 428.118 -1.00024 2.08 0
M  V30 4420 C 429.088 -1.34549 0.973943 0
M  V30 4421 O 430.273 -1.44502 1.24595 0
M  V30 4422 C 427.413 -2.2891 2.58252 0
M  V30 4423 C 426.526 -2.00346 3.82734 0
M  V30 4424 C 425.661 -3.23265 4.21513 0
M  V30 4425 C 424.7 -2.90357 5.3885 0
M  V30 4426 N 423.837 -4.05793 5.72954 0
M  V30 4427 H 428.677 -0.563499 2.92624 0
M  V30 4428 H 426.214 -0.266592 1.44664 0
M  V30 4429 H 428.172 -3.04247 2.85464 0
M  V30 4430 H 426.802 -2.70265 1.76512 0
M  V30 4431 H 425.854 -1.15406 3.62471 0
M  V30 4432 H 427.166 -1.72086 4.68175 0
M  V30 4433 H 426.32 -4.06953 4.49971 0
M  V30 4434 H 425.059 -3.54657 3.34768 0
M  V30 4435 H 424.064 -2.05075 5.10122 0
M  V30 4436 H 425.289 -2.60219 6.27266 0
M  V30 4437 H 423.235 -4.37094 4.89167 0
M  V30 4438 H 423.152 -3.81034 6.52954 0
M  V30 4439 H 424.42 -4.90289 6.06001 0
M  V30 4440 N 428.649 -1.55105 -0.279332 0
M  V30 4441 C 429.926 -1.66119 -1.03267 0
M  V30 4442 C 430.306 -0.523525 -2.04505 0
M  V30 4443 O 429.654 0.477194 -2.23462 0
M  V30 4444 C 429.864 -3.05067 -1.69515 0
M  V30 4445 C 431.212 -3.62606 -2.20912 0
M  V30 4446 O 432.236 -3.07659 -1.79512 0
M  V30 4447 O 431.095 -4.58861 -2.96831 0
M  V30 4448 H 428.189 -0.674429 -0.478618 0
M  V30 4449 H 430.735 -1.67446 -0.275694 0
M  V30 4450 H 429.507 -3.79311 -0.9612 0
M  V30 4451 H 429.13 -3.07611 -2.51915 0
M  V30 4452 N 430.127 0.543554 -1.4793 0
M  V30 4453 C 431.09 1.63156 -1.60975 0
M  V30 4454 C 432.09 1.53346 -0.483899 0
M  V30 4455 O 433.28 1.5726 -0.749339 0
M  V30 4456 C 430.412 3.02743 -1.56716 0
M  V30 4457 H 431.605 1.52934 -2.57975 0
M  V30 4458 H 429.158 0.764557 -1.36324 0
M  V30 4459 H 429.893 3.18484 -0.611418 0
M  V30 4460 H 429.678 3.11272 -2.38438 0
M  V30 4461 H 431.168 3.81871 -1.6901 0
M  V30 4462 N 431.605 1.3629 0.791371 0
M  V30 4463 C 432.854 1.29742 1.54434 0
M  V30 4464 C 433.167 -0.121729 1.95221 0
M  V30 4465 O 434.373 -0.309579 2.69729 0
M  V30 4466 C 432.829 2.27623 2.78776 0
M  V30 4467 C 432.437 3.74963 2.45166 0
M  V30 4468 C 434.181 2.30047 3.56761 0
M  V30 4469 C 432.088 4.64626 3.65891 0
M  V30 4470 H 431.018 0.482113 0.579727 0
M  V30 4471 H 433.669 1.61642 0.868565 0
M  V30 4472 H 432.051 1.88714 3.48142 0
M  V30 4473 H 433.225 4.22596 1.83709 0
M  V30 4474 H 431.54 3.75295 1.80396 0
M  V30 4475 H 434.137 2.94247 4.46456 0
M  V30 4476 H 434.48 1.30846 3.95203 0
M  V30 4477 H 435.013 2.67563 2.94372 0
M  V30 4478 H 431.752 5.64883 3.32547 0
M  V30 4479 H 431.272 4.2171 4.26521 0
M  V30 4480 H 432.951 4.80801 4.32943 0
M  V30 4481 N 433.083 -1.0153 1.20538 0
M  V30 4482 C 434.33 -1.75149 1.01633 0
M  V30 4483 C 434.658 -1.89189 -0.451399 0
M  V30 4484 O 433.913 -1.41551 -1.35136 0
M  V30 4485 C 434.212 -3.17213 1.64654 0
M  V30 4486 C 433.878 -3.23146 3.14464 0
M  V30 4487 C 432.54 -3.24472 3.55347 0
M  V30 4488 C 434.892 -3.21207 4.10458 0
M  V30 4489 C 432.22 -3.21532 4.90748 0
M  V30 4490 C 434.572 -3.19808 5.45807 0
M  V30 4491 C 433.236 -3.19439 5.86102 0
M  V30 4492 H 432.506 -0.640914 0.3719 0
M  V30 4493 H 435.153 -1.19071 1.49981 0
M  V30 4494 H 433.458 -3.76457 1.08571 0
M  V30 4495 H 435.155 -3.72871 1.4754 0
M  V30 4496 H 431.745 -3.2285 2.81897 0
M  V30 4497 H 435.929 -3.19351 3.79906 0
M  V30 4498 H 431.185 -3.19578 5.21229 0
M  V30 4499 H 435.359 -3.1726 6.19935 0
M  V30 4500 H 432.986 -3.16915 6.90991 0
M  V30 4501 N 434.561 -1.01147 -1.20859 0
M  V30 4502 C 435.493 -0.535546 -2.22855 0
M  V30 4503 C 436.506 0.379323 -1.58319 0
M  V30 4504 O 437.695 0.178489 -1.77605 0
M  V30 4505 C 434.795 0.240962 -3.38042 0
M  V30 4506 C 433.968 -0.674562 -4.32167 0
M  V30 4507 C 433.027 0.053467 -5.26173 0
M  V30 4508 O 432.053 -0.567339 -5.66366 0
M  V30 4509 N 433.255 1.32997 -5.65059 0
M  V30 4510 H 436.02 -1.41268 -2.64317 0
M  V30 4511 H 433.581 -0.888386 -1.35349 0
M  V30 4512 H 435.573 0.737115 -3.97931 0
M  V30 4513 H 434.143 1.01935 -2.95513 0
M  V30 4514 H 433.363 -1.35111 -3.70322 0
M  V30 4515 H 434.651 -1.2974 -4.91981 0
M  V30 4516 H 434.049 1.85536 -5.34409 0
M  V30 4517 H 432.606 1.77095 -6.2728 0
M  V30 4518 N 436.039 1.36541 -0.78704 0
M  V30 4519 C 437.287 1.98911 -0.357633 0
M  V30 4520 C 437.608 1.62778 1.07371 0
M  V30 4521 O 436.878 0.900612 1.73971 0
M  V30 4522 H 435.458 0.735734 -0.129246 0
M  V30 4523 H 438.12 1.66776 -1.00855 0
M  V30 4524 H 437.216 3.08874 -0.447549 0
M  V30 4525 N 437.518 0.538854 1.48102 0
M  V30 4526 C 438.448 -0.207654 2.32575 0
M  V30 4527 C 439.429 -0.926559 1.4265 0
M  V30 4528 O 440.614 -0.91061 1.71527 0
M  V30 4529 C 437.744 -1.24957 3.24042 0
M  V30 4530 C 436.698 -0.648263 4.23062 0
M  V30 4531 C 436.024 -1.79348 5.03725 0
M  V30 4532 C 437.324 0.385897 5.20872 0
M  V30 4533 H 439.018 0.497534 2.95237 0
M  V30 4534 H 436.564 0.240715 1.41974 0
M  V30 4535 H 438.517 -1.77983 3.81969 0
M  V30 4536 H 437.241 -1.98446 2.59397 0
M  V30 4537 H 435.9 -0.139452 3.66335 0
M  V30 4538 H 435.548 -2.51696 4.35498 0
M  V30 4539 H 435.248 -1.39702 5.70751 0
M  V30 4540 H 436.772 -2.32735 5.64506 0
M  V30 4541 H 438.186 -0.057607 5.73271 0
M  V30 4542 H 436.583 0.700227 5.96001 0
M  V30 4543 H 437.653 1.28848 4.67468 0
M  V30 4544 N 438.996 -1.55193 0.274407 0
M  V30 4545 C 440.224 -2.03987 -0.345943 0
M  V30 4546 C 440.639 -1.15279 -1.4952 0
M  V30 4547 O 439.996 -0.172759 -1.8168 0
M  V30 4548 C 440.047 -3.51898 -0.827631 0
M  V30 4549 O 439.768 -4.37231 0.275855 0
M  V30 4550 C 441.269 -4.16577 -1.51587 0
M  V30 4551 H 438.489 -0.666335 -0.0789892 0
M  V30 4552 H 441.033 -2.00423 0.406294 0
M  V30 4553 H 439.188 -3.55909 -1.52996 0
M  V30 4554 H 439.602 -5.24415 -0.0943638 0
M  V30 4555 H 441.076 -5.21678 -1.80433 0
M  V30 4556 H 441.553 -3.64707 -2.44716 0
M  V30 4557 H 442.159 -4.16568 -0.857409 0
M  V30 4558 N 440.474 -0.00167713 -1.576 0
M  V30 4559 C 441.406 1.0174 -2.05382 0
M  V30 4560 C 442.419 1.30595 -0.972052 0
M  V30 4561 O 443.608 1.27542 -1.24882 0
M  V30 4562 C 440.708 2.35174 -2.44022 0
M  V30 4563 C 439.881 2.25234 -3.74951 0
M  V30 4564 C 438.94 3.4137 -4.00441 0
M  V30 4565 O 437.966 3.19483 -4.71083 0
M  V30 4566 N 439.168 4.64275 -3.48467 0
M  V30 4567 H 441.933 0.609902 -2.93428 0
M  V30 4568 H 439.494 0.185672 -1.60832 0
M  V30 4569 H 441.486 3.11643 -2.58187 0
M  V30 4570 H 440.056 2.67659 -1.61485 0
M  V30 4571 H 439.276 1.33664 -3.70847 0
M  V30 4572 H 440.564 2.15767 -4.60784 0
M  V30 4573 H 439.962 4.84955 -2.91264 0
M  V30 4574 H 438.519 5.38005 -3.67959 0
M  V30 4575 N 441.952 1.55251 0.271103 0
M  V30 4576 C 443.229 1.66664 1.02384 0
M  V30 4577 C 443.609 0.534363 2.04225 0
M  V30 4578 O 442.957 -0.465337 2.23712 0
M  V30 4579 C 443.167 3.05961 1.67895 0
M  V30 4580 C 444.515 3.63772 2.18986 0
M  V30 4581 O 445.539 3.08606 1.77878 0
M  V30 4582 O 444.398 4.60429 2.94393 0
M  V30 4583 H 441.492 0.676957 0.475035 0
M  V30 4584 H 444.038 1.67589 0.26681 0
M  V30 4585 H 442.81 3.79815 0.941071 0
M  V30 4586 H 442.433 3.08943 2.5028 0
M  V30 4587 N 443.43 -0.535701 1.48216 0
M  V30 4588 C 444.362 -1.65662 1.58394 0
M  V30 4589 C 445.375 -1.5591 0.468607 0
M  V30 4590 O 446.564 -1.62475 0.7392 0
M  V30 4591 C 443.664 -3.04276 1.4923 0
M  V30 4592 C 442.837 -3.39567 2.75705 0
M  V30 4593 C 441.896 -4.57436 2.60075 0
M  V30 4594 O 440.922 -4.60942 3.33948 0
M  V30 4595 N 442.124 -5.55259 1.69315 0
M  V30 4596 H 444.889 -1.5737 2.55058 0
M  V30 4597 H 442.45 -0.722845 1.44867 0
M  V30 4598 H 444.442 -3.80994 1.36477 0
M  V30 4599 H 443.012 -3.06677 0.605632 0
M  V30 4600 H 442.232 -2.52083 3.03064 0
M  V30 4601 H 443.52 -3.59929 3.59623 0
M  V30 4602 H 442.918 -5.552 1.08489 0
M  V30 4603 H 441.475 -6.31218 1.62504 0
M  V30 4604 N 444.908 -1.36708 -0.784132 0
M  V30 4605 C 446.156 -1.30972 -1.53918 0
M  V30 4606 C 446.477 0.109086 -1.94695 0
M  V30 4607 O 445.747 1.05048 -1.65353 0
M  V30 4608 H 444.327 -0.481819 -0.570841 0
M  V30 4609 H 446.989 -1.71063 -0.934002 0
M  V30 4610 H 446.085 -1.94061 -2.44431 0
M  V30 4611 N 446.386 1.0089 -1.21074 0
M  V30 4612 C 447.633 1.74607 -1.0256 0
M  V30 4613 C 447.961 1.89426 0.44136 0
M  V30 4614 O 447.216 1.42266 1.34384 0
M  V30 4615 C 447.515 3.16335 -1.66334 0
M  V30 4616 C 447.181 3.21474 -3.16173 0
M  V30 4617 C 445.843 3.22583 -3.57062 0
M  V30 4618 C 448.195 3.19025 -4.12156 0
M  V30 4619 C 445.523 3.18925 -4.92446 0
M  V30 4620 C 447.875 3.16909 -5.47496 0
M  V30 4621 C 446.539 3.16326 -5.87787 0
M  V30 4622 H 445.809 0.638933 -0.375294 0
M  V30 4623 H 448.456 1.18274 -1.50611 0
M  V30 4624 H 446.761 3.75876 -1.10566 0
M  V30 4625 H 448.458 3.72083 -1.49516 0
M  V30 4626 H 445.048 3.2135 -2.83605 0
M  V30 4627 H 449.232 3.17332 -3.81595 0
M  V30 4628 H 444.488 3.16809 -5.22917 0
M  V30 4629 H 448.662 3.13968 -6.21609 0
M  V30 4630 H 446.289 3.13246 -6.92662 0
M  V30 4631 N 447.864 1.01787 1.20321 0
M  V30 4632 C 449.094 0.72614 1.93419 0
M  V30 4633 C 449.502 -0.717317 1.75075 0
M  V30 4634 O 448.845 -1.49836 1.06278 0
M  V30 4635 C 448.907 0.983621 3.45782 0
M  V30 4636 C 448.571 2.41645 3.87888 0
M  V30 4637 C 449.568 3.39732 3.93545 0
M  V30 4638 C 447.253 2.75752 4.19841 0
M  V30 4639 C 449.247 4.69988 4.30569 0
M  V30 4640 C 446.934 4.06221 4.56539 0
M  V30 4641 C 447.932 5.0315 4.61876 0
M  V30 4642 O 447.62 6.31284 4.97731 0
M  V30 4643 H 447.352 0.265824 0.621541 0
M  V30 4644 H 449.906 1.3623 1.53722 0
M  V30 4645 H 448.136 0.290301 3.85609 0
M  V30 4646 H 449.825 0.683279 4.00108 0
M  V30 4647 H 450.591 3.14718 3.69022 0
M  V30 4648 H 446.47 2.00993 4.14877 0
M  V30 4649 H 450.014 5.45642 4.3465 0
M  V30 4650 H 445.911 4.31013 4.80518 0
M  V30 4651 H 446.679 6.35591 5.15719 0
M  V30 4652 N 449.342 -1.36122 0.79427 0
M  V30 4653 C 450.57 -2.03362 0.380989 0
M  V30 4654 C 450.985 -1.59881 -1.00416 0
M  V30 4655 O 450.342 -0.790515 -1.6449 0
M  V30 4656 C 450.393 -3.58804 0.440649 0
M  V30 4657 O 450.114 -4.007 1.77118 0
M  V30 4658 C 451.615 -4.43296 0.0186117 0
M  V30 4659 H 448.835 -0.652526 0.156367 0
M  V30 4660 H 451.379 -1.73998 1.07447 0
M  V30 4661 H 449.534 -3.8686 -0.204458 0
M  V30 4662 H 449.948 -4.95309 1.72538 0
M  V30 4663 H 451.422 -5.51887 0.111488 0
M  V30 4664 H 451.899 -4.2684 -1.03461 0
M  V30 4665 H 452.505 -4.20512 0.636395 0
M  V30 4666 N 450.82 -0.546701 -1.47814 0
M  V30 4667 C 452.045 -0.021268 -2.07389 0
M  V30 4668 C 452.47 1.25822 -1.39822 0
M  V30 4669 O 451.828 1.75111 -0.46968 0
M  V30 4670 C 451.876 0.168502 -3.60206 0
M  V30 4671 O 450.98 1.23347 -3.93522 0
M  V30 4672 H 450.321 -0.0466108 -0.662362 0
M  V30 4673 H 452.851 -0.759387 -1.89985 0
M  V30 4674 H 452.861 0.385982 -4.0617 0
M  V30 4675 H 451.536 -0.766075 -4.08784 0
M  V30 4676 H 450.113 0.997319 -3.59316 0
M  V30 4677 N 452.299 1.55045 -0.282633 0
M  V30 4678 C 453.246 2.22822 0.601566 0
M  V30 4679 C 454.216 1.20431 1.14392 0
M  V30 4680 O 455.401 1.48996 1.19184 0
M  V30 4681 C 452.541 2.95873 1.77632 0
M  V30 4682 C 451.654 4.12999 1.26711 0
M  V30 4683 C 450.789 4.73676 2.40426 0
M  V30 4684 C 449.828 5.82981 1.86545 0
M  V30 4685 N 448.965 6.3769 2.93762 0
M  V30 4686 H 453.805 2.97995 0.0169528 0
M  V30 4687 H 451.342 1.471 -0.00339964 0
M  V30 4688 H 453.3 3.36447 2.46697 0
M  V30 4689 H 451.93 2.2311 2.33285 0
M  V30 4690 H 450.982 3.77494 0.469314 0
M  V30 4691 H 452.294 4.91803 0.832518 0
M  V30 4692 H 451.448 5.17008 3.17471 0
M  V30 4693 H 450.187 3.94164 2.87203 0
M  V30 4694 H 449.192 5.39092 1.07983 0
M  V30 4695 H 450.417 6.64366 1.40694 0
M  V30 4696 H 448.363 5.61069 3.39908 0
M  V30 4697 H 448.28 7.11788 2.54744 0
M  V30 4698 H 449.548 6.8568 3.7076 0
M  V30 4699 N 453.777 0.010035 1.57597 0
M  V30 4700 C 455.054 -0.710296 1.82248 0
M  V30 4701 C 455.434 -1.91426 0.889911 0
M  V30 4702 O 454.782 -2.28424 -0.0590292 0
M  V30 4703 C 454.992 -1.10655 3.30993 0
M  V30 4704 C 456.34 -1.50621 3.96987 0
M  V30 4705 O 457.364 -1.20007 3.35375 0
M  V30 4706 O 456.223 -2.07587 5.05539 0
M  V30 4707 H 453.317 -0.34673 0.750804 0
M  V30 4708 H 455.863 0.0362578 1.69661 0
M  V30 4709 H 454.635 -0.248826 3.90508 0
M  V30 4710 H 454.258 -1.91189 3.48615 0
M  V30 4711 N 455.255 -1.55392 -0.262866 0
M  V30 4712 C 456.502 -1.76476 -0.993109 0
M  V30 4713 C 456.83 -0.571479 -1.85915 0
M  V30 4714 O 456.085 0.445733 -1.90556 0
M  V30 4715 C 456.384 -3.02889 -1.89718 0
M  V30 4716 C 456.05 -4.34974 -1.18781 0
M  V30 4717 C 454.712 -4.7087 -0.991699 0
M  V30 4718 C 457.064 -5.16695 -0.683798 0
M  V30 4719 C 454.392 -5.86036 -0.279024 0
M  V30 4720 C 456.744 -6.32598 0.0153327 0
M  V30 4721 C 455.408 -6.67127 0.223062 0
M  V30 4722 H 454.678 -0.64577 -0.363404 0
M  V30 4723 H 457.325 -1.89664 -0.264525 0
M  V30 4724 H 455.63 -2.84644 -2.6923 0
M  V30 4725 H 457.327 -3.16399 -2.46359 0
M  V30 4726 H 453.917 -4.06765 -1.35058 0
M  V30 4727 H 458.101 -4.8943 -0.8229 0
M  V30 4728 H 453.357 -6.11306 -0.107456 0
M  V30 4729 H 457.531 -6.95171 0.413584 0
M  V30 4730 H 455.158 -7.56216 0.777265 0
M  V30 4731 N 456.733 0.527833 -1.48498 0
M  V30 4732 C 457.663 1.64136 -1.66077 0
M  V30 4733 C 458.644 1.62286 -0.509625 0
M  V30 4734 O 459.829 1.79449 -0.742413 0
M  V30 4735 C 456.959 3.02717 -1.70234 0
M  V30 4736 C 455.913 3.19426 -2.8487 0
M  V30 4737 C 455.239 4.5909 -2.74118 0
M  V30 4738 C 456.539 3.01993 -4.26142 0
M  V30 4739 H 458.233 1.4968 -2.593 0
M  V30 4740 H 455.779 0.718654 -1.24785 0
M  V30 4741 H 457.732 3.80491 -1.8112 0
M  V30 4742 H 456.456 3.18201 -0.735911 0
M  V30 4743 H 455.115 2.4407 -2.73542 0
M  V30 4744 H 454.763 4.71413 -1.7544 0
M  V30 4745 H 454.463 4.71214 -3.51042 0
M  V30 4746 H 455.987 5.3896 -2.86974 0
M  V30 4747 H 457.401 3.69558 -4.38292 0
M  V30 4748 H 455.798 3.2561 -5.04082 0
M  V30 4749 H 456.868 1.98396 -4.42456 0
M  V30 4750 N 458.211 1.37122 0.776871 0
M  V30 4751 C 459.622 1.28667 1.35284 0
M  V30 4752 C 459.973 -0.0680035 1.96082 0
M  V30 4753 O 459.098 -0.969743 1.93455 0
M  V30 4754 C 459.693 2.32997 2.45963 0
M  V30 4755 C 458.252 2.28191 2.99342 0
M  V30 4756 C 457.399 2.17101 1.72517 0
M  V30 4757 H 460.35 1.47819 0.577527 0
M  V30 4758 H 460.371 1.97366 3.2531 0
M  V30 4759 H 459.883 3.3158 2.01684 0
M  V30 4760 H 457.984 1.33115 3.4801 0
M  V30 4761 H 458.097 3.21397 3.55304 0
M  V30 4762 H 456.461 1.63562 1.95242 0
M  V30 4763 H 457.244 3.17591 1.30348 0
M  V30 4764 N 459.689 -1.00246 1.21608 0
M  V30 4765 C 460.619 -2.10921 1.00172 0
M  V30 4766 C 461.6 -1.69938 -0.0741587 0
M  V30 4767 O 462.785 -1.94009 0.0861753 0
M  V30 4768 C 459.915 -3.42618 0.568355 0
M  V30 4769 C 458.869 -3.97407 1.58909 0
M  V30 4770 C 458.195 -5.25038 1.01187 0
M  V30 4771 C 459.495 -4.2918 2.97661 0
M  V30 4772 H 461.189 -2.29112 1.92739 0
M  V30 4773 H 458.735 -1.10101 0.928102 0
M  V30 4774 H 460.688 -4.19444 0.405555 0
M  V30 4775 H 459.412 -3.24227 -0.392961 0
M  V30 4776 H 458.071 -3.22703 1.73949 0
M  V30 4777 H 457.719 -5.02982 0.0421965 0
M  V30 4778 H 457.419 -5.62661 1.6937 0
M  V30 4779 H 458.943 -6.04507 0.860448 0
M  V30 4780 H 460.357 -4.96839 2.86049 0
M  V30 4781 H 458.754 -4.77952 3.6288 0
M  V30 4782 H 459.824 -3.3735 3.48315 0
M  V30 4783 N 461.167 -1.02423 -1.1978 0
M  V30 4784 C 462.413 -0.719051 -1.89625 0
M  V30 4785 C 462.746 0.750083 -1.7913 0
M  V30 4786 O 462.021 1.54574 -1.18056 0
M  V30 4787 C 462.304 -1.16499 -3.40735 0
M  V30 4788 C 462.157 -2.695 -3.60125 0
M  V30 4789 C 463.476 -0.742166 -4.33797 0
M  V30 4790 H 460.595 -0.26269 -0.688595 0
M  V30 4791 H 463.237 -1.27333 -1.41018 0
M  V30 4792 H 461.387 -0.69341 -3.82262 0
M  V30 4793 H 463.059 -3.24569 -3.278 0
M  V30 4794 H 461.302 -3.10113 -3.03336 0
M  V30 4795 H 461.973 -2.95757 -4.66081 0
M  V30 4796 H 464.449 -1.1477 -3.99959 0
M  V30 4797 H 463.325 -1.08213 -5.38127 0
M  V30 4798 H 463.586 0.355747 -4.40666 0
M  V30 4799 N 462.645 1.35699 -0.801477 0
M  V30 4800 C 463.608 2.28199 -0.213994 0
M  V30 4801 C 464.608 1.49359 0.595691 0
M  V30 4802 O 465.798 1.69186 0.414921 0
M  V30 4803 C 462.93 3.33587 0.702297 0
M  V30 4804 H 464.123 2.81666 -1.02976 0
M  V30 4805 H 461.676 1.45467 -0.571759 0
M  V30 4806 H 462.411 2.85297 1.54195 0
M  V30 4807 H 462.196 3.91906 0.123484 0
M  V30 4808 H 463.686 4.02638 1.10783 0
M  V30 4809 N 464.123 0.554532 1.47522 0
M  V30 4810 C 465.07 -0.19466 2.29978 0
M  V30 4811 C 466.04 -0.910882 1.38896 0
M  V30 4812 O 467.225 -0.907102 1.67858 0
M  V30 4813 C 464.365 -1.22035 3.22802 0
M  V30 4814 C 463.478 -0.510474 4.28973 0
M  V30 4815 C 462.613 -1.52123 5.08952 0
M  V30 4816 C 461.652 -0.796173 6.069 0
M  V30 4817 N 460.789 -1.75363 6.79847 0
M  V30 4818 H 465.629 0.51461 2.93523 0
M  V30 4819 H 463.166 0.265607 1.44682 0
M  V30 4820 H 465.124 -1.8276 3.7504 0
M  V30 4821 H 463.754 -1.89769 2.61127 0
M  V30 4822 H 462.806 0.211234 3.79813 0
M  V30 4823 H 464.118 0.0576503 4.98767 0
M  V30 4824 H 463.272 -2.20207 5.65326 0
M  V30 4825 H 462.011 -2.12327 4.39054 0
M  V30 4826 H 461.016 -0.101388 5.49707 0
M  V30 4827 H 462.241 -0.199911 6.78806 0
M  V30 4828 H 460.187 -2.3443 6.12682 0
M  V30 4829 H 460.104 -1.23759 7.45801 0
M  V30 4830 H 461.372 -2.4257 7.40797 0
M  V30 4831 N 465.601 -1.54893 0.290851 0
M  V30 4832 C 466.849 -1.99538 -0.320756 0
M  V30 4833 C 467.17 -1.18075 -1.55188 0
M  V30 4834 O 466.44 -0.274162 -1.93972 0
M  V30 4835 H 465.02 -0.737052 -0.121507 0
M  V30 4836 H 467.682 -1.90755 0.399832 0
M  V30 4837 H 466.778 -3.06282 -0.599802 0
M  V30 4838 N 467.08 -0.0183926 -1.57589 0
M  V30 4839 C 468.305 0.676634 -1.96052 0
M  V30 4840 C 468.73 1.6548 -0.894307 0
M  V30 4841 O 468.088 1.80712 0.145849 0
M  V30 4842 C 468.136 1.36872 -3.33614 0
M  V30 4843 O 467.24 2.48372 -3.29219 0
M  V30 4844 H 466.581 0.1786 -0.63953 0
M  V30 4845 H 469.111 -0.077056 -2.04455 0
M  V30 4846 H 469.121 1.72797 -3.69601 0
M  V30 4847 H 467.796 0.651636 -4.10763 0
M  V30 4848 H 466.373 2.14639 -3.04934 0
M  V30 4849 N 468.558 1.5553 0.254621 0
M  V30 4850 C 469.505 1.89666 1.31512 0
M  V30 4851 C 470.475 0.750057 1.482 0
M  V30 4852 O 471.66 1.00301 1.62309 0
M  V30 4853 C 468.8 2.19009 2.667 0
M  V30 4854 C 467.913 3.46435 2.58083 0
M  V30 4855 C 467.048 3.65386 3.85573 0
M  V30 4856 C 466.087 4.8644 3.71541 0
M  V30 4857 N 465.224 5.01952 4.90906 0
M  V30 4858 H 470.064 2.80109 1.017 0
M  V30 4859 H 467.601 1.38666 0.490938 0
M  V30 4860 H 469.559 2.34025 3.45381 0
M  V30 4861 H 468.189 1.31779 2.94676 0
M  V30 4862 H 467.241 3.39792 1.71013 0
M  V30 4863 H 468.553 4.35258 2.43622 0
M  V30 4864 H 467.707 3.80319 4.72697 0
M  V30 4865 H 466.446 2.74781 4.02922 0
M  V30 4866 H 465.451 4.71491 2.82801 0
M  V30 4867 H 466.676 5.78497 3.55694 0
M  V30 4868 H 464.622 4.14283 5.08631 0
M  V30 4869 H 464.539 5.84851 4.79046 0
M  V30 4870 H 465.807 5.21289 5.7955 0
M  V30 4871 N 470.036 -0.519951 1.48776 0
M  V30 4872 C 470.999 -1.60574 1.6355 0
M  V30 4873 C 471.999 -1.52557 0.508234 0
M  V30 4874 O 473.189 -1.56047 0.774262 0
M  V30 4875 C 470.321 -3.00211 1.61512 0
M  V30 4876 H 471.514 -1.4881 2.60376 0
M  V30 4877 H 469.067 -0.742772 1.37523 0
M  V30 4878 H 469.802 -3.17471 0.662009 0
M  V30 4879 H 469.587 -3.07439 2.43359 0
M  V30 4880 H 471.077 -3.79134 1.75064 0
M  V30 4881 N 471.514 -1.37532 -0.769588 0
M  V30 4882 C 472.762 -1.32597 -1.5252 0
M  V30 4883 C 473.083 0.0884294 -1.94799 0
M  V30 4884 O 472.353 1.03289 -1.66458 0
M  V30 4885 H 470.933 -0.487846 -0.565699 0
M  V30 4886 H 473.595 -1.72044 -0.915806 0
M  V30 4887 H 472.691 -1.96643 -2.42359 0
M  V30 4888 N 472.992 0.995999 -1.22138 0
M  V30 4889 C 473.925 2.08302 -0.931952 0
M  V30 4890 C 474.903 1.62127 0.123956 0
M  V30 4891 O 476.087 1.88499 -0.00696004 0
M  V30 4892 C 473.214 3.36317 -0.401068 0
M  V30 4893 C 472.26 4.01413 -1.44117 0
M  V30 4894 S 473.093 4.42664 -3.01345 0
M  V30 4895 C 474.249 5.73853 -2.49887 0
M  V30 4896 H 474.482 2.32532 -1.85246 0
M  V30 4897 H 472.015 1.13005 -1.0521 0
M  V30 4898 H 473.973 4.10375 -0.101352 0
M  V30 4899 H 472.634 3.10123 0.498272 0
M  V30 4900 H 471.827 4.9358 -1.01952 0
M  V30 4901 H 471.429 3.33668 -1.68943 0
M  V30 4902 H 473.721 6.50039 -1.90934 0
M  V30 4903 H 474.664 6.20841 -3.40532 0
M  V30 4904 H 475.072 5.31105 -1.9128 0
M  V30 4905 N 474.47 1.03057 1.19235 0
M  V30 4906 C 475.71 0.736757 1.9066 0
M  V30 4907 C 476.074 -0.721521 1.77927 0
M  V30 4908 O 477.275 -1.12849 2.43964 0
M  V30 4909 C 475.546 1.17755 3.37444 0
M  V30 4910 S 477.105 1.00783 4.27069 0
M  V30 4911 H 473.923 0.268174 0.658486 0
M  V30 4912 H 476.525 1.32076 1.4414 0
M  V30 4913 H 475.229 2.23448 3.44237 0
M  V30 4914 H 474.76 0.586912 3.88997 0
M  V30 4915 H 476.775 -0.0806356 4.96134 0
M  V30 4916 N 475.948 -1.35272 0.808662 0
M  V30 4917 C 476.911 -2.28082 0.226093 0
M  V30 4918 C 477.911 -1.49673 -0.587762 0
M  V30 4919 O 479.101 -1.69404 -0.405943 0
M  V30 4920 C 476.233 -3.33955 -0.684596 0
M  V30 4921 H 477.426 -2.81116 1.04469 0
M  V30 4922 H 474.979 -1.45162 0.579466 0
M  V30 4923 H 475.714 -2.86111 -1.5268 0
M  V30 4924 H 475.499 -3.91965 -0.102699 0
M  V30 4925 H 476.989 -4.03219 -1.08646 0
M  V30 4926 N 477.426 -0.562348 -1.47226 0
M  V30 4927 C 478.666 -0.0426374 -2.04356 0
M  V30 4928 C 479.03 1.28487 -1.42671 0
M  V30 4929 O 480.231 1.89259 -1.90878 0
M  V30 4930 C 478.502 0.0433826 -3.57374 0
M  V30 4931 S 480.061 0.508472 -4.35844 0
M  V30 4932 H 476.879 -0.0276234 -0.710463 0
M  V30 4933 H 479.481 -0.750245 -1.80531 0
M  V30 4934 H 478.185 -0.927072 -3.99792 0
M  V30 4935 H 477.716 0.774387 -3.85703 0
M  V30 4936 H 479.731 1.76719 -4.63665 0
M  V30 4937 N 478.904 1.54736 -0.299062 0
M  V30 4938 C 479.854 2.20155 0.592932 0
M  V30 4939 C 480.838 1.1739 1.10038 0
M  V30 4940 O 482.03 1.43116 1.04147 0
M  V30 4941 C 479.159 2.94437 1.76527 0
M  V30 4942 C 478.245 4.04516 1.27388 0
M  V30 4943 N 478.636 5.03319 0.500339 0
M  V30 4944 C 476.934 4.18022 1.55478 0
M  V30 4945 C 477.635 5.81209 0.238909 0
M  V30 4946 N 476.611 5.37408 0.818163 0
M  V30 4947 H 480.413 2.93899 -0.00563596 0
M  V30 4948 H 477.927 1.62068 -0.103732 0
M  V30 4949 H 479.924 3.3977 2.41582 0
M  V30 4950 H 478.584 2.22209 2.36756 0
M  V30 4951 H 479.595 5.17696 0.145419 0
M  V30 4952 H 476.272 3.56998 2.16469 0
M  V30 4953 H 477.662 6.70812 -0.382223 0
M  V30 4954 N 480.382 0.0267497 1.57577 0
M  V30 4955 C 481.607 -0.666227 1.96408 0
M  V30 4956 C 482.032 -1.65004 0.903071 0
M  V30 4957 O 481.39 -1.80787 -0.136263 0
M  V30 4958 C 481.438 -1.35101 3.34335 0
M  V30 4959 O 480.542 -2.46623 3.30531 0
M  V30 4960 H 479.883 -0.175206 0.640468 0
M  V30 4961 H 482.413 0.0878977 2.04411 0
M  V30 4962 H 482.423 -1.70834 3.70513 0
M  V30 4963 H 481.098 -0.629844 4.11103 0
M  V30 4964 H 479.675 -2.13019 3.06068 0
M  V30 4965 N 481.861 -1.55662 -0.24637 0
M  V30 4966 C 483.272 -1.67953 -0.81539 0
M  V30 4967 C 483.623 -0.624302 -1.86002 0
M  V30 4968 O 482.748 0.229328 -2.15181 0
M  V30 4969 C 483.343 -3.04484 -1.48576 0
M  V30 4970 C 481.902 -3.18713 -2.00248 0
M  V30 4971 C 481.049 -2.6383 -0.853766 0
M  V30 4972 H 484 -1.58685 -0.0221692 0
M  V30 4973 H 484.021 -2.98959 -2.3538 0
M  V30 4974 H 483.533 -3.81264 -0.725222 0
M  V30 4975 H 481.634 -2.46757 -2.79181 0
M  V30 4976 H 481.747 -4.25628 -2.1995 0
M  V30 4977 H 480.111 -2.21667 -1.25442 0
M  V30 4978 H 480.894 -3.43135 -0.106302 0
M  V30 4979 N 483.339 0.512053 -1.4905 0
M  V30 4980 C 484.269 1.62365 -1.67809 0
M  V30 4981 C 485.25 1.61737 -0.526809 0
M  V30 4982 O 486.435 1.78651 -0.761404 0
M  V30 4983 C 483.565 3.00895 -1.73435 0
M  V30 4984 C 482.519 3.16387 -2.88242 0
M  V30 4985 C 481.845 4.56157 -2.78971 0
M  V30 4986 C 483.145 2.97457 -4.29321 0
M  V30 4987 H 484.839 1.46921 -2.60873 0
M  V30 4988 H 482.385 0.705379 -1.2554 0
M  V30 4989 H 484.338 3.78549 -1.85145 0
M  V30 4990 H 483.062 3.17403 -0.769619 0
M  V30 4991 H 481.721 2.41155 -2.76116 0
M  V30 4992 H 481.369 4.69525 -1.8043 0
M  V30 4993 H 481.069 4.67465 -3.5602 0
M  V30 4994 H 482.593 5.35886 -2.92675 0
M  V30 4995 H 484.007 3.64888 -4.42187 0
M  V30 4996 H 482.404 3.20245 -5.07507 0
M  V30 4997 H 483.474 1.93692 -4.44535 0
M  V30 4998 N 484.817 1.37938 0.762283 0
M  V30 4999 C 486.228 1.30094 1.33912 0
M  V30 5000 C 486.579 -0.0472026 1.96143 0
M  V30 5001 O 485.704 -0.94917 1.94473 0
M  V30 5002 C 486.299 2.35592 2.43478 0
M  V30 5003 C 484.858 2.31353 2.96905 0
M  V30 5004 C 484.005 2.18919 1.70205 0
M  V30 5005 H 486.956 1.48423 0.561816 0
M  V30 5006 H 486.977 2.00806 3.23199 0
M  V30 5007 H 486.489 3.33701 1.98155 0
M  V30 5008 H 484.59 1.36799 3.46579 0
M  V30 5009 H 484.703 3.25147 3.51875 0
M  V30 5010 H 483.067 1.65624 1.93496 0
M  V30 5011 H 483.85 3.18956 1.26973 0
M  V30 5012 N 486.295 -0.989507 1.22664 0
M  V30 5013 C 487.52 -1.77031 1.08051 0
M  V30 5014 C 487.945 -1.84535 -0.364483 0
M  V30 5015 O 487.303 -1.3003 -1.2634 0
M  V30 5016 C 487.351 -3.18 1.70024 0
M  V30 5017 O 486.455 -4.01161 0.956216 0
M  V30 5018 H 485.796 -0.545008 0.379292 0
M  V30 5019 H 488.326 -1.24277 1.62531 0
M  V30 5020 H 488.336 -3.68616 1.74888 0
M  V30 5021 H 487.011 -3.11853 2.75174 0
M  V30 5022 H 485.588 -3.59687 0.98384 0
M  V30 5023 N 487.773 -1.03688 -1.18687 0
M  V30 5024 C 489.022 -0.733235 -1.879 0
M  V30 5025 C 489.335 0.741745 -1.8099 0
M  V30 5026 O 490.541 1.15875 -2.4553 0
M  V30 5027 C 488.997 -1.26127 -3.37076 0
M  V30 5028 C 488.605 -2.76461 -3.52524 0
M  V30 5029 C 490.349 -1.03398 -4.11715 0
M  V30 5030 C 488.256 -3.22642 -4.95637 0
M  V30 5031 H 487.186 -0.270584 -0.703776 0
M  V30 5032 H 489.837 -1.25222 -1.34133 0
M  V30 5033 H 488.219 -0.670165 -3.90288 0
M  V30 5034 H 489.393 -3.41296 -3.09602 0
M  V30 5035 H 487.708 -2.97559 -2.91286 0
M  V30 5036 H 490.305 -1.3542 -5.17267 0
M  V30 5037 H 490.648 0.0289246 -4.1629 0
M  V30 5038 H 491.181 -1.5895 -3.64664 0
M  V30 5039 H 487.92 -4.28296 -4.96228 0
M  V30 5040 H 487.44 -2.62539 -5.39289 0
M  V30 5041 H 489.119 -3.16444 -5.64333 0
M  V30 5042 N 489.251 1.34841 -0.815825 0
M  V30 5043 C 490.667 1.51543 -0.500697 0
M  V30 5044 C 490.867 1.76261 0.976444 0
M  V30 5045 O 489.923 1.8094 1.76117 0
M  V30 5046 C 491.236 2.68487 -1.35407 0
M  V30 5047 C 492.784 2.82368 -1.35046 0
M  V30 5048 C 493.259 4.02347 -2.18816 0
M  V30 5049 N 494.75 4.09542 -2.16402 0
M  V30 5050 C 495.485 5.01517 -2.77971 0
M  V30 5051 N 494.981 5.98763 -3.48503 0
M  V30 5052 N 496.774 4.94334 -2.67563 0
M  V30 5053 H 488.925 1.17055 -1.77234 0
M  V30 5054 H 491.188 0.573481 -0.754866 0
M  V30 5055 H 490.894 2.56829 -2.40274 0
M  V30 5056 H 490.768 3.63321 -1.01377 0
M  V30 5057 H 493.155 2.93471 -0.309604 0
M  V30 5058 H 493.236 1.88363 -1.73069 0
M  V30 5059 H 492.88 3.92004 -3.22948 0
M  V30 5060 H 492.81 4.95551 -1.78148 0
M  V30 5061 H 495.301 3.39932 -1.65091 0
M  V30 5062 H 495.614 6.6556 -3.92747 0
M  V30 5063 H 493.959 5.98909 -3.52609 0
M  V30 5064 H 497.15 4.1732 -2.12041 0
M  V30 5065 H 497.323 5.6582 -3.15834 0
M  V30 5066 N 490.729 0.570148 1.46925 0
M  V30 5067 C 491.977 0.0508523 2.02036 0
M  V30 5068 C 492.298 -1.30885 1.44548 0
M  V30 5069 O 491.568 -1.85647 0.625453 0
M  V30 5070 H 490.148 0.0158088 0.746833 0
M  V30 5071 H 492.81 0.743086 1.80178 0
M  V30 5072 H 491.906 -0.027575 3.12088 0
M  V30 5073 N 492.207 -1.54576 0.307264 0
M  V30 5074 C 493.453 -2.0056 -0.300612 0
M  V30 5075 C 493.786 -1.1953 -1.53057 0
M  V30 5076 O 493.061 -0.27337 -1.92569 0
M  V30 5077 C 493.344 -3.54167 -0.650987 0
M  V30 5078 C 493.197 -4.45933 0.588539 0
M  V30 5079 C 494.516 -4.14645 -1.47506 0
M  V30 5080 H 491.635 -0.729075 -0.107788 0
M  V30 5081 H 494.277 -1.85286 0.420606 0
M  V30 5082 H 492.427 -3.67313 -1.26544 0
M  V30 5083 H 494.099 -4.44683 1.22697 0
M  V30 5084 H 492.342 -4.16274 1.22058 0
M  V30 5085 H 493.013 -5.51189 0.299153 0
M  V30 5086 H 495.489 -4.04973 -0.955821 0
M  V30 5087 H 494.365 -5.22269 -1.68899 0
M  V30 5088 H 494.626 -3.66921 -2.4662 0
M  V30 5089 N 493.685 -0.035106 -1.57561 0
M  V30 5090 C 494.931 0.64318 -1.92331 0
M  V30 5091 C 495.264 1.71434 -0.912368 0
M  V30 5092 O 494.539 1.94395 0.0640303 0
M  V30 5093 C 494.822 1.25411 -3.37556 0
M  V30 5094 C 494.675 0.192109 -4.4939 0
M  V30 5095 C 495.994 2.17041 -3.82859 0
M  V30 5096 H 493.113 0.232341 -0.699419 0
M  V30 5097 H 495.755 -0.0935889 -1.89769 0
M  V30 5098 H 493.905 1.88205 -3.39869 0
M  V30 5099 H 495.577 -0.438849 -4.59208 0
M  V30 5100 H 493.82 -0.481725 -4.31117 0
M  V30 5101 H 494.491 0.659292 -5.48049 0
M  V30 5102 H 496.967 1.64228 -3.8232 0
M  V30 5103 H 495.843 2.56738 -4.85157 0
M  V30 5104 H 496.104 3.06401 -3.18702 0
M  V30 5105 N 495.163 1.55791 0.238111 0
M  V30 5106 C 496.412 1.77234 0.962868 0
M  V30 5107 C 496.725 0.600661 1.86149 0
M  V30 5108 O 497.931 0.698315 2.62366 0
M  V30 5109 C 496.387 3.13808 1.76218 0
M  V30 5110 C 495.995 4.3865 0.910518 0
M  V30 5111 C 497.739 3.44585 2.47914 0
M  V30 5112 C 495.646 5.66252 1.70623 0
M  V30 5113 H 494.576 0.660731 0.36325 0
M  V30 5114 H 497.227 1.8221 0.217242 0
M  V30 5115 H 495.609 3.02963 2.55009 0
M  V30 5116 H 496.783 4.60507 0.164316 0
M  V30 5117 H 495.098 4.15271 0.30647 0
M  V30 5118 H 497.695 4.3714 3.07917 0
M  V30 5119 H 498.038 2.66314 3.19973 0
M  V30 5120 H 498.571 3.56685 1.76127 0
M  V30 5121 H 495.31 6.47369 1.02923 0
M  V30 5122 H 494.83 5.48483 2.42748 0
M  V30 5123 H 496.509 6.05829 2.27114 0
M  V30 5124 N 496.642 -0.504142 1.49319 0
M  V30 5125 C 497.888 -1.26033 1.58882 0
M  V30 5126 C 498.221 -1.92268 0.273274 0
M  V30 5127 O 497.496 -1.80567 -0.72291 0
M  V30 5128 C 497.779 -2.32976 2.7458 0
M  V30 5129 C 497.632 -1.71263 4.1592 0
M  V30 5130 C 498.951 -3.34561 2.85932 0
M  V30 5131 H 496.07 -0.456863 0.578312 0
M  V30 5132 H 498.712 -0.558965 1.81592 0
M  V30 5133 H 496.862 -2.92796 2.55348 0
M  V30 5134 H 498.534 -1.15294 4.4666 0
M  V30 5135 H 496.777 -1.01686 4.21714 0
M  V30 5136 H 497.448 -2.48816 4.92742 0
M  V30 5137 H 499.924 -2.84727 3.0343 0
M  V30 5138 H 498.8 -4.06754 3.68568 0
M  V30 5139 H 499.061 -3.96695 1.95154 0
M  V30 5140 N 498.12 -1.38341 -0.754957 0
M  V30 5141 C 499.05 -1.38176 -1.88227 0
M  V30 5142 C 500.031 -0.247873 -1.68284 0
M  V30 5143 O 501.216 -0.45075 -1.88896 0
M  V30 5144 C 498.346 -1.20471 -3.25736 0
M  V30 5145 C 497.3 -2.3105 -3.60278 0
M  V30 5146 C 496.626 -1.98452 -4.96509 0
M  V30 5147 C 497.926 -3.73305 -3.65295 0
M  V30 5148 H 499.62 -2.32512 -1.88622 0
M  V30 5149 H 497.166 -1.1192 -0.906082 0
M  V30 5150 H 499.119 -1.18982 -4.04254 0
M  V30 5151 H 497.843 -0.225965 -3.25817 0
M  V30 5152 H 496.502 -2.31723 -2.84078 0
M  V30 5153 H 496.15 -0.990641 -4.93148 0
M  V30 5154 H 495.85 -2.7251 -5.20588 0
M  V30 5155 H 497.374 -1.98578 -5.77407 0
M  V30 5156 H 498.788 -3.7467 -4.3393 0
M  V30 5157 H 497.185 -4.46557 -4.00883 0
M  V30 5158 H 498.255 -4.05719 -2.65556 0
M  V30 5159 N 499.598 0.982988 -1.23187 0
M  V30 5160 C 500.846 1.72052 -1.06031 0
M  V30 5161 C 501.167 1.90769 0.404019 0
M  V30 5162 O 500.437 1.47446 1.28982 0
M  V30 5163 H 499.017 0.637499 -0.389363 0
M  V30 5164 H 501.679 1.18338 -1.54862 0
M  V30 5165 H 500.775 2.7111 -1.54615 0
M  V30 5166 N 501.076 1.04316 1.18135 0
M  V30 5167 C 502.039 0.640794 2.2006 0
M  V30 5168 C 503.039 -0.303124 1.57917 0
M  V30 5169 O 504.229 -0.0881855 1.73977 0
M  V30 5170 C 501.361 -0.060148 3.40847 0
M  V30 5171 H 502.554 1.54281 2.57172 0
M  V30 5172 H 500.107 0.836004 1.32063 0
M  V30 5173 H 500.842 -0.975845 3.0927 0
M  V30 5174 H 500.627 0.618319 3.87194 0
M  V30 5175 H 502.117 -0.328082 4.16309 0
M  V30 5176 N 502.554 -1.34406 0.822964 0
M  V30 5177 C 503.802 -1.97892 0.410245 0
M  V30 5178 C 504.123 -1.65567 -1.03017 0
M  V30 5179 O 503.393 -0.94642 -1.71522 0
M  V30 5180 H 501.973 -0.732049 0.148707 0
M  V30 5181 H 504.635 -1.64043 1.05242 0
M  V30 5182 H 503.731 -3.07579 0.529284 0
M  V30 5183 N 504.032 -0.577932 -1.46621 0
M  V30 5184 C 505.309 0.00495287 -1.95599 0
M  V30 5185 C 505.689 1.46428 -1.5206 0
M  V30 5186 O 505.037 2.1517 -0.769046 0
M  V30 5187 C 505.247 -0.162114 -3.48623 0
M  V30 5188 C 506.595 -0.0274623 -4.24591 0
M  V30 5189 O 507.619 -0.0907067 -3.56084 0
M  V30 5190 O 506.478 0.1122 -5.46385 0
M  V30 5191 H 503.572 0.0525057 -0.825332 0
M  V30 5192 H 506.118 -0.645914 -1.56927 0
M  V30 5193 H 504.89 -1.17679 -3.73185 0
M  V30 5194 H 504.513 0.525407 -3.94113 0
M  V30 5195 N 505.51 1.54411 -0.315457 0
M  V30 5196 C 506.738 2.04833 0.291738 0
M  V30 5197 C 507.153 1.19203 1.46411 0
M  V30 5198 O 506.51 0.220867 1.81159 0
M  V30 5199 C 506.561 3.53969 0.73404 0
M  V30 5200 O 506.282 4.36346 -0.391682 0
M  V30 5201 C 507.783 4.2045 1.40489 0
M  V30 5202 H 505.003 0.668195 0.0612947 0
M  V30 5203 H 507.547 1.99276 -0.45929 0
M  V30 5204 H 505.702 3.5984 1.43506 0
M  V30 5205 H 506.116 5.24481 -0.0447088 0
M  V30 5206 H 507.59 5.26278 1.66539 0
M  V30 5207 H 508.067 3.71067 2.3496 0
M  V30 5208 H 508.673 4.18694 0.746662 0
M  V30 5209 N 506.988 0.0434614 1.5754 0
M  V30 5210 C 507.951 -0.918696 2.09982 0
M  V30 5211 C 508.951 -1.24488 1.01781 0
M  V30 5212 O 510.141 -1.18284 1.27885 0
M  V30 5213 C 507.273 -2.23093 2.57764 0
M  V30 5214 H 508.466 -0.464229 2.96285 0
M  V30 5215 H 506.019 -0.204818 1.54952 0
M  V30 5216 H 506.754 -2.73137 1.74832 0
M  V30 5217 H 506.539 -2.00724 3.36827 0
M  V30 5218 H 508.029 -2.92028 2.98512 0
M  V30 5219 N 508.466 -1.55915 -0.229846 0
M  V30 5220 C 509.713 -1.78542 -0.955452 0
M  V30 5221 C 510.041 -0.610785 -1.84661 0
M  V30 5222 O 509.296 0.405213 -1.91459 0
M  V30 5223 C 509.595 -3.06845 -1.8325 0
M  V30 5224 C 509.261 -4.37395 -1.09528 0
M  V30 5225 C 507.923 -4.72868 -0.891598 0
M  V30 5226 C 510.275 -5.18029 -0.574046 0
M  V30 5227 C 507.603 -5.86496 -0.154655 0
M  V30 5228 C 509.955 -6.32423 0.149513 0
M  V30 5229 C 508.619 -6.66504 0.364519 0
M  V30 5230 H 507.889 -0.653333 -0.349625 0
M  V30 5231 H 510.536 -1.90183 -0.224235 0
M  V30 5232 H 508.841 -2.90291 -2.63132 0
M  V30 5233 H 510.538 -3.21553 -2.39592 0
M  V30 5234 H 507.128 -4.09538 -1.26399 0
M  V30 5235 H 511.312 -4.91066 -0.718899 0
M  V30 5236 H 506.568 -6.11396 0.0222356 0
M  V30 5237 H 510.742 -6.94137 0.560947 0
M  V30 5238 H 508.369 -7.54397 0.937495 0
M  V30 5239 N 509.944 0.496216 -1.49584 0
M  V30 5240 C 511.221 1.25755 -1.49816 0
M  V30 5241 C 511.601 2.09859 -0.228572 0
M  V30 5242 O 510.949 2.14449 0.788908 0
M  V30 5243 C 511.159 2.11017 -2.7798 0
M  V30 5244 C 512.507 2.70047 -3.27658 0
M  V30 5245 O 513.531 2.21281 -2.79129 0
M  V30 5246 O 512.39 3.58834 -4.1219 0
M  V30 5247 H 509.484 0.569322 -0.599834 0
M  V30 5248 H 512.03 0.510094 -1.61852 0
M  V30 5249 H 510.802 1.48879 -3.61871 0
M  V30 5250 H 510.425 2.92947 -2.68827 0
M  V30 5251 N 511.423 1.38739 0.74761 0
M  V30 5252 C 512.663 1.36695 1.51966 0
M  V30 5253 C 513.027 -0.0411889 1.91956 0
M  V30 5254 O 514.228 -0.186543 2.68152 0
M  V30 5255 C 512.499 2.30119 2.73459 0
M  V30 5256 S 514.058 2.4615 3.63257 0
M  V30 5257 H 510.876 0.484929 0.519966 0
M  V30 5258 H 513.478 1.7472 0.877104 0
M  V30 5259 H 512.182 3.31312 2.422 0
M  V30 5260 H 511.713 1.93265 3.42655 0
M  V30 5261 H 513.728 1.69001 4.66533 0
M  V30 5262 N 512.901 -0.976442 1.23707 0
M  V30 5263 C 513.864 -2.0511 1.02287 0
M  V30 5264 C 514.864 -1.60791 -0.0167195 0
M  V30 5265 O 516.054 -1.72761 0.223408 0
M  V30 5266 C 513.186 -3.36458 0.548507 0
M  V30 5267 H 514.379 -2.25545 1.9766 0
M  V30 5268 H 511.932 -1.15042 1.05806 0
M  V30 5269 H 512.667 -3.21713 -0.408818 0
M  V30 5270 H 512.452 -3.69967 1.29874 0
M  V30 5271 H 513.942 -4.15489 0.419406 0
M  V30 5272 N 514.379 -1.04941 -1.1758 0
M  V30 5273 C 515.607 -0.778294 -1.91703 0
M  V30 5274 C 516.022 0.665697 -1.76675 0
M  V30 5275 O 515.379 1.45456 -1.10222 0
M  V30 5276 C 515.43 -1.14628 -3.42845 0
M  V30 5277 O 515.151 -2.53359 -3.57409 0
M  V30 5278 C 516.652 -0.900931 -4.34049 0
M  V30 5279 H 513.872 -0.283167 -0.608323 0
M  V30 5280 H 516.416 -1.39942 -1.49119 0
M  V30 5281 H 514.571 -0.569953 -3.83184 0
M  V30 5282 H 514.985 -2.67709 -4.51035 0
M  V30 5283 H 516.459 -1.20817 -5.38616 0
M  V30 5284 H 516.936 0.163966 -4.38894 0
M  V30 5285 H 517.542 -1.46097 -3.99419 0
M  V30 5286 N 515.857 1.33968 -0.830081 0
M  V30 5287 C 517.082 2.02813 -0.433796 0
M  V30 5288 C 517.507 1.62076 0.954614 0
M  V30 5289 O 516.865 0.808955 1.62252 0
M  V30 5290 C 516.913 3.56348 -0.552115 0
M  V30 5291 O 516.017 4.10202 0.425191 0
M  V30 5292 H 515.358 0.639817 -0.177567 0
M  V30 5293 H 517.888 1.7106 -1.12248 0
M  V30 5294 H 517.898 4.05722 -0.430513 0
M  V30 5295 H 516.573 3.85344 -1.56471 0
M  V30 5296 H 515.15 3.71979 0.261878 0
M  V30 5297 N 517.335 0.585699 1.46312 0
M  V30 5298 C 518.298 -0.135673 2.28798 0
M  V30 5299 C 519.298 -0.815988 1.38558 0
M  V30 5300 O 520.488 -0.667487 1.60904 0
M  V30 5301 C 517.62 -1.20163 3.1902 0
M  V30 5302 H 518.813 0.589257 2.94054 0
M  V30 5303 H 516.366 0.343794 1.52472 0
M  V30 5304 H 517.101 -1.95804 2.58517 0
M  V30 5305 H 516.886 -0.718282 3.85465 0
M  V30 5306 H 518.376 -1.70749 3.81096 0
M  V30 5307 N 518.813 -1.54241 0.323641 0
M  V30 5308 C 519.743 -2.27289 -0.534993 0
M  V30 5309 C 520.724 -1.28087 -1.11927 0
M  V30 5310 O 521.909 -1.56899 -1.14439 0
M  V30 5311 C 519.039 -3.03075 -1.69596 0
M  V30 5312 C 517.993 -4.09614 -1.24098 0
M  V30 5313 C 517.319 -4.73242 -2.4889 0
M  V30 5314 C 518.619 -5.21087 -0.355789 0
M  V30 5315 H 520.313 -2.99308 0.0743257 0
M  V30 5316 H 517.859 -1.43952 0.0371874 0
M  V30 5317 H 519.812 -3.52907 -2.30293 0
M  V30 5318 H 518.536 -2.28673 -2.33187 0
M  V30 5319 H 517.195 -3.60666 -0.656945 0
M  V30 5320 H 516.843 -3.95455 -3.10845 0
M  V30 5321 H 516.543 -5.45209 -2.19138 0
M  V30 5322 H 518.067 -5.25848 -3.10348 0
M  V30 5323 H 519.481 -5.66675 -0.869042 0
M  V30 5324 H 517.878 -5.9991 -0.151045 0
M  V30 5325 H 518.948 -4.81005 0.613339 0
M  V30 5326 N 520.291 -0.0518155 -1.57515 0
M  V30 5327 C 521.707 0.304735 -1.56664 0
M  V30 5328 C 521.907 1.71395 -1.05953 0
M  V30 5329 O 520.963 2.42123 -0.716414 0
M  V30 5330 C 522.276 0.132614 -3.00407 0
M  V30 5331 C 523.824 0.20367 -3.12337 0
M  V30 5332 C 524.299 0.0600706 -4.57961 0
M  V30 5333 N 525.79 0.116326 -4.63054 0
M  V30 5334 C 526.525 0.0293363 -5.73392 0
M  V30 5335 N 526.021 -0.110038 -6.92713 0
M  V30 5336 N 527.814 0.0849651 -5.62036 0
M  V30 5337 H 519.965 -0.973056 -1.888 0
M  V30 5338 H 522.228 -0.377781 -0.869474 0
M  V30 5339 H 521.934 -0.839019 -3.41546 0
M  V30 5340 H 521.808 0.893376 -3.66468 0
M  V30 5341 H 524.195 1.16578 -2.71097 0
M  V30 5342 H 524.276 -0.587857 -2.48954 0
M  V30 5343 H 523.92 -0.898715 -4.99886 0
M  V30 5344 H 523.85 0.87075 -5.19351 0
M  V30 5345 H 526.341 0.22327 -3.7724 0
M  V30 5346 H 526.654 -0.169104 -7.72615 0
M  V30 5347 H 524.999 -0.145132 -6.94848 0
M  V30 5348 H 528.19 0.192411 -4.67704 0
M  V30 5349 H 528.363 0.0137131 -6.47999 0
M  V30 5350 N 521.769 1.56035 0.221574 0
M  V30 5351 C 523.009 1.80822 0.953038 0
M  V30 5352 C 523.373 0.625316 1.81532 0
M  V30 5353 O 524.574 0.752491 2.58052 0
M  V30 5354 C 522.845 3.10503 1.76983 0
M  V30 5355 S 524.404 3.56604 2.55693 0
M  V30 5356 H 521.222 0.634849 0.320137 0
M  V30 5357 H 523.824 1.94274 0.218619 0
M  V30 5358 H 522.528 3.94636 1.12651 0
M  V30 5359 H 522.059 2.99858 2.54655 0
M  V30 5360 H 524.074 3.1994 3.79279 0
M  V30 5361 N 523.247 -0.488276 1.49845 0
M  V30 5362 C 524.495 -1.23911 1.59657 0
M  V30 5363 C 524.816 -1.92816 0.291005 0
M  V30 5364 O 524.086 -1.83328 -0.690485 0
M  V30 5365 H 522.666 -0.460357 0.588286 0
M  V30 5366 H 525.328 -0.564794 1.86537 0
M  V30 5367 H 524.424 -1.99625 2.39909 0
M  V30 5368 N 524.725 -1.39134 -0.740242 0
M  V30 5369 C 525.688 -1.37217 -1.83587 0
M  V30 5370 C 526.688 -0.270221 -1.58513 0
M  V30 5371 O 527.878 -0.527843 -1.6601 0
M  V30 5372 C 525.01 -1.13959 -3.21288 0
M  V30 5373 H 526.203 -2.34705 -1.86691 0
M  V30 5374 H 523.756 -1.24622 -0.94335 0
M  V30 5375 H 524.491 -0.17131 -3.23847 0
M  V30 5376 H 524.276 -1.93754 -3.40884 0
M  V30 5377 H 525.766 -1.15346 -4.01354 0
M  V30 5378 N 526.204 0.969867 -1.24223 0
M  V30 5379 C 527.62 1.23809 -1.00716 0
M  V30 5380 C 527.82 1.99469 0.285358 0
M  V30 5381 O 526.876 2.31764 1.00207 0
M  V30 5382 C 528.189 2.02734 -2.2208 0
M  V30 5383 C 529.737 2.15834 -2.26681 0
M  V30 5384 C 530.212 2.98154 -3.47661 0
M  V30 5385 N 531.703 3.05737 -3.47964 0
M  V30 5386 C 532.438 3.69785 -4.38231 0
M  V30 5387 N 531.934 4.35569 -5.3875 0
M  V30 5388 N 533.727 3.66775 -4.25949 0
M  V30 5389 H 525.878 0.463294 -2.07286 0
M  V30 5390 H 528.141 0.267348 -0.909521 0
M  V30 5391 H 527.847 1.54524 -3.15935 0
M  V30 5392 H 527.721 3.0347 -2.24021 0
M  V30 5393 H 530.108 2.63248 -1.33359 0
M  V30 5394 H 530.189 1.14453 -2.28767 0
M  V30 5395 H 529.833 2.51435 -4.41297 0
M  V30 5396 H 529.763 3.99729 -3.42818 0
M  V30 5397 H 532.254 2.58941 -2.75242 0
M  V30 5398 H 532.567 4.82251 -6.03866 0
M  V30 5399 H 530.912 4.34244 -5.42639 0
M  V30 5400 H 534.103 3.14558 -3.46657 0
M  V30 5401 H 534.276 4.16407 -4.96497 0
M  V30 5402 N 527.682 1.05563 1.17022 0
M  V30 5403 C 529.098 0.777684 1.39371 0
M  V30 5404 C 529.298 -0.626269 1.91521 0
M  V30 5405 O 528.354 -1.38806 2.10924 0
M  V30 5406 C 529.667 1.83642 2.3811 0
M  V30 5407 C 531.215 1.85907 2.51809 0
M  V30 5408 C 531.69 2.90813 3.53824 0
M  V30 5409 N 533.181 2.898 3.61345 0
M  V30 5410 C 533.916 3.6762 4.40049 0
M  V30 5411 N 533.412 4.55237 5.22237 0
M  V30 5412 N 535.205 3.56044 4.34959 0
M  V30 5413 H 527.356 1.9614 0.815047 0
M  V30 5414 H 529.619 0.849527 0.420722 0
M  V30 5415 H 529.325 2.84425 2.06871 0
M  V30 5416 H 529.199 1.6812 3.37662 0
M  V30 5417 H 531.586 0.857865 2.82356 0
M  V30 5418 H 531.667 2.05506 1.52318 0
M  V30 5419 H 531.311 3.91122 3.24015 0
M  V30 5420 H 531.241 2.68465 4.53028 0
M  V30 5421 H 533.732 2.26274 3.02669 0
M  V30 5422 H 534.045 5.11291 5.79484 0
M  V30 5423 H 532.39 4.59296 5.21605 0
M  V30 5424 H 535.581 2.86986 3.69806 0
M  V30 5425 H 535.754 4.16938 4.96051 0
M  V30 5426 N 529.16 -1.33526 0.837174 0
M  V30 5427 C 530.406 -1.9813 0.432704 0
M  V30 5428 C 530.739 -1.66168 -1.00508 0
M  V30 5429 O 530.014 -0.94069 -1.70239 0
M  V30 5430 C 530.297 -3.54151 0.651834 0
M  V30 5431 C 530.15 -3.95806 2.13676 0
M  V30 5432 C 531.469 -4.39993 0.0968937 0
M  V30 5433 H 528.588 -0.719713 0.15869 0
M  V30 5434 H 531.23 -1.58193 1.05237 0
M  V30 5435 H 529.38 -3.88301 0.124369 0
M  V30 5436 H 531.052 -3.71921 2.72896 0
M  V30 5437 H 529.295 -3.45599 2.62191 0
M  V30 5438 H 529.966 -5.0447 2.24084 0
M  V30 5439 H 532.442 -4.12479 0.547733 0
M  V30 5440 H 531.318 -5.48186 0.279917 0
M  V30 5441 H 531.579 -4.3066 -0.9992 0
M  V30 5442 N 530.638 -0.59345 -1.46 0
M  V30 5443 C 531.885 -0.0831523 -2.02329 0
M  V30 5444 C 532.213 1.28093 -1.46364 0
M  V30 5445 O 531.468 1.85526 -0.622793 0
M  V30 5446 C 531.767 0.021178 -3.57394 0
M  V30 5447 C 531.433 -1.27671 -4.32448 0
M  V30 5448 C 530.095 -1.63227 -4.5267 0
M  V30 5449 C 532.447 -2.13511 -4.7546 0
M  V30 5450 C 529.775 -2.84401 -5.1316 0
M  V30 5451 C 532.127 -3.33922 -5.37289 0
M  V30 5452 C 530.791 -3.69747 -5.55737 0
M  V30 5453 H 530.061 -0.0304276 -0.740375 0
M  V30 5454 H 532.708 -0.772239 -1.75239 0
M  V30 5455 H 531.013 0.793454 -3.83682 0
M  V30 5456 H 532.71 0.431942 -3.98667 0
M  V30 5457 H 529.3 -0.989937 -4.17011 0
M  V30 5458 H 533.484 -1.87344 -4.59582 0
M  V30 5459 H 528.74 -3.12282 -5.25633 0
M  V30 5460 H 532.914 -4.00698 -5.69574 0
M  V30 5461 H 530.541 -4.6373 -6.02377 0
M  V30 5462 N 532.116 1.54067 -0.331816 0
M  V30 5463 C 533.365 1.99895 0.269209 0
M  V30 5464 C 533.678 1.22371 1.52593 0
M  V30 5465 O 534.884 1.58618 2.20347 0
M  V30 5466 C 533.34 3.55972 0.530244 0
M  V30 5467 C 532.948 4.4234 -0.709901 0
M  V30 5468 C 534.692 4.10247 1.09077 0
M  V30 5469 C 532.599 5.89905 -0.420312 0
M  V30 5470 H 531.529 0.746741 0.104371 0
M  V30 5471 H 534.18 1.78014 -0.445324 0
M  V30 5472 H 532.562 3.73873 1.30518 0
M  V30 5473 H 533.736 4.36215 -1.48504 0
M  V30 5474 H 532.051 3.98997 -1.19123 0
M  V30 5475 H 534.648 5.18095 1.32219 0
M  V30 5476 H 534.991 3.62739 2.0427 0
M  V30 5477 H 535.524 3.96011 0.376824 0
M  V30 5478 H 532.263 6.41623 -1.34164 0
M  V30 5479 H 531.783 5.98962 0.316962 0
M  V30 5480 H 533.462 6.46991 -0.0331956 0
M  V30 5481 N 533.594 0.0601682 1.57485 0
M  V30 5482 C 534.84 -0.612501 1.93329 0
M  V30 5483 C 535.173 -1.6996 0.939526 0
M  V30 5484 O 534.448 -1.94472 -0.0330957 0
M  V30 5485 C 534.731 -1.20025 3.39508 0
M  V30 5486 C 534.584 -0.12059 4.49638 0
M  V30 5487 C 535.903 -2.10923 3.86264 0
M  V30 5488 H 533.022 -0.221185 0.703027 0
M  V30 5489 H 535.664 0.123768 1.89596 0
M  V30 5490 H 533.814 -1.82774 3.42821 0
M  V30 5491 H 535.486 0.51185 4.58452 0
M  V30 5492 H 533.729 0.550251 4.30296 0
M  V30 5493 H 534.4 -0.572019 5.49028 0
M  V30 5494 H 536.876 -1.58124 3.84884 0
M  V30 5495 H 535.752 -2.48987 4.8918 0
M  V30 5496 H 536.013 -3.01292 3.23536 0
M  V30 5497 N 535.072 -1.5615 -0.213296 0
M  V30 5498 C 536.319 -1.79546 -0.936462 0
M  V30 5499 C 536.647 -0.630337 -1.84003 0
M  V30 5500 O 535.902 0.384883 -1.91878 0
M  V30 5501 C 536.201 -3.08772 -1.79985 0
M  V30 5502 C 535.867 -4.38532 -1.04882 0
M  V30 5503 C 534.529 -4.73787 -0.841393 0
M  V30 5504 C 536.881 -5.18609 -0.51907 0
M  V30 5505 C 534.209 -5.86627 -0.0924403 0
M  V30 5506 C 536.561 -6.32229 0.216581 0
M  V30 5507 C 535.225 -6.6608 0.435191 0
M  V30 5508 H 534.495 -0.657004 -0.342676 0
M  V30 5509 H 537.142 -1.9041 -0.204051 0
M  V30 5510 H 535.447 -2.93065 -2.60038 0
M  V30 5511 H 537.144 -3.24077 -2.36168 0
M  V30 5512 H 533.734 -4.10855 -1.22048 0
M  V30 5513 H 537.918 -4.91801 -0.666775 0
M  V30 5514 H 533.174 -6.11338 0.087081 0
M  V30 5515 H 537.348 -6.93503 0.634538 0
M  V30 5516 H 534.975 -7.5336 1.01746 0
M  V30 5517 N 536.55 0.480323 -1.50102 0
M  V30 5518 C 537.966 0.813295 -1.37323 0
M  V30 5519 C 538.166 1.97027 -0.422206 0
M  V30 5520 O 537.222 2.5212 0.138563 0
M  V30 5521 C 538.535 1.13404 -2.78496 0
M  V30 5522 C 540.083 1.24104 -2.87345 0
M  V30 5523 C 540.558 1.59497 -4.29331 0
M  V30 5524 N 542.049 1.66507 -4.32238 0
M  V30 5525 C 542.784 1.95378 -5.39087 0
M  V30 5526 N 542.28 2.22333 -6.56155 0
M  V30 5527 N 544.073 1.96803 -5.26522 0
M  V30 5528 H 536.224 -0.282291 -2.10516 0
M  V30 5529 H 538.487 -0.063752 -0.945854 0
M  V30 5530 H 538.193 0.357064 -3.49883 0
M  V30 5531 H 538.067 2.07251 -3.15162 0
M  V30 5532 H 540.454 2.00871 -2.16183 0
M  V30 5533 H 540.535 0.282593 -2.54234 0
M  V30 5534 H 540.179 0.832736 -5.01027 0
M  V30 5535 H 540.109 2.56477 -4.59921 0
M  V30 5536 H 542.6 1.47753 -3.47818 0
M  V30 5537 H 542.913 2.43611 -7.33399 0
M  V30 5538 H 541.258 2.19745 -6.59346 0
M  V30 5539 H 544.449 1.75235 -4.34062 0
M  V30 5540 H 544.622 2.18969 -6.09883 0
M  V30 5541 N 538.028 1.39524 0.732853 0
M  V30 5542 C 538.975 1.38416 1.84688 0
M  V30 5543 C 539.945 0.243539 1.64305 0
M  V30 5544 O 541.13 0.438979 1.85681 0
M  V30 5545 C 538.27 1.23555 3.22224 0
M  V30 5546 C 537.383 2.47179 3.54298 0
M  V30 5547 C 536.518 2.2489 4.81246 0
M  V30 5548 C 535.557 3.44178 5.0617 0
M  V30 5549 N 534.694 3.21192 6.24323 0
M  V30 5550 H 539.534 2.33645 1.84971 0
M  V30 5551 H 537.071 1.16059 0.903804 0
M  V30 5552 H 539.029 1.12949 4.0162 0
M  V30 5553 H 537.659 0.31954 3.21215 0
M  V30 5554 H 536.711 2.68379 2.69587 0
M  V30 5555 H 538.023 3.36022 3.68633 0
M  V30 5556 H 537.177 2.11538 5.68627 0
M  V30 5557 H 535.916 1.33443 4.69089 0
M  V30 5558 H 534.921 3.58025 4.17251 0
M  V30 5559 H 536.146 4.36528 5.20212 0
M  V30 5560 H 534.092 2.32413 6.1345 0
M  V30 5561 H 534.009 4.03594 6.39256 0
M  V30 5562 H 535.277 3.1154 7.14537 0
M  V30 5563 N 539.506 -0.963266 1.24736 0
M  V30 5564 C 540.754 -1.70343 1.08755 0
M  V30 5565 C 541.075 -1.91387 -0.373619 0
M  V30 5566 O 540.345 -1.4948 -1.2662 0
M  V30 5567 H 538.925 -0.631224 0.399456 0
M  V30 5568 H 541.587 -1.15859 1.56725 0
M  V30 5569 H 540.683 -2.68616 1.58909 0
M  V30 5570 N 540.985 -1.06182 -1.16461 0
M  V30 5571 C 542.232 -0.777863 -1.86964 0
M  V30 5572 C 542.56 0.695602 -1.81636 0
M  V30 5573 O 541.815 1.52532 -1.22607 0
M  V30 5574 C 542.114 -1.21633 -3.36066 0
M  V30 5575 C 541.78 -2.69371 -3.61594 0
M  V30 5576 C 540.442 -3.09727 -3.6827 0
M  V30 5577 C 542.794 -3.64791 -3.7226 0
M  V30 5578 C 540.122 -4.44345 -3.83112 0
M  V30 5579 C 542.474 -4.99155 -3.88623 0
M  V30 5580 C 541.138 -5.39149 -3.93541 0
M  V30 5581 H 540.408 -0.28464 -0.68415 0
M  V30 5582 H 543.055 -1.33071 -1.37711 0
M  V30 5583 H 541.36 -0.582651 -3.87443 0
M  V30 5584 H 543.057 -0.973682 -3.88999 0
M  V30 5585 H 539.647 -2.37124 -3.57029 0
M  V30 5586 H 543.831 -3.34746 -3.66413 0
M  V30 5587 H 539.087 -4.74819 -3.85172 0
M  V30 5588 H 543.261 -5.72976 -3.95817 0
M  V30 5589 H 540.888 -6.43464 -4.04794 0
M  V30 5590 N 542.463 1.3308 -0.844243 0
M  V30 5591 C 543.709 1.97898 -0.443206 0
M  V30 5592 C 544.042 1.66699 0.99625 0
M  V30 5593 O 543.317 0.949704 1.69738 0
M  V30 5594 C 543.6 3.53801 -0.670606 0
M  V30 5595 C 543.453 3.94667 -2.15772 0
M  V30 5596 C 544.772 4.39936 -0.120226 0
M  V30 5597 H 541.891 0.718861 -0.162504 0
M  V30 5598 H 544.533 1.57633 -1.06075 0
M  V30 5599 H 542.683 3.88229 -0.14496 0
M  V30 5600 H 544.355 3.70469 -2.74865 0
M  V30 5601 H 542.598 3.44203 -2.6402 0
M  V30 5602 H 543.269 5.03275 -2.26757 0
M  V30 5603 H 545.745 4.12183 -0.5696 0
M  V30 5604 H 544.621 5.4803 -0.308984 0
M  V30 5605 H 544.882 4.31184 0.976347 0
M  V30 5606 N 543.941 0.601185 1.45683 0
M  V30 5607 C 544.889 -0.133955 2.32214 0
M  V30 5608 C 545.883 -0.866034 1.45589 0
M  V30 5609 O 547.089 -0.782326 1.6211 0
M  V30 5610 H 543.464 -0.0620613 0.749435 0
M  V30 5611 H 545.435 0.614389 2.92007 0
M  V30 5612 C 544.184 -1.12216 3.29094 0
M  V30 5613 H 543.507 -0.568273 3.95741 0
M  V30 5614 H 544.947 -1.60659 3.92383 0
M  V30 5615 C 543.406 -2.19251 2.55794 0
M  V30 5616 O 543.936 -3.26894 2.33459 0
M  V30 5617 N 542.142 -1.9436 2.16039 0
M  V30 5618 H 541.689 -1.06829 2.34404 0
M  V30 5619 H 541.647 -2.66181 1.67318 0
M  V30 5620 N 545.419 -1.53889 0.339982 0
M  V30 5621 C 546.668 -2.00035 -0.258604 0
M  V30 5622 C 546.981 -1.23179 -1.51942 0
M  V30 5623 O 548.187 -1.59784 -2.19503 0
M  V30 5624 C 546.643 -3.56249 -0.511359 0
M  V30 5625 C 546.251 -4.41957 0.733349 0
M  V30 5626 C 547.995 -4.1082 -1.069 0
M  V30 5627 C 545.902 -5.89673 0.451591 0
M  V30 5628 H 544.832 -0.747284 -0.10041 0
M  V30 5629 H 547.483 -1.77776 0.454758 0
M  V30 5630 H 545.865 -3.7456 -1.28533 0
M  V30 5631 H 547.039 -4.35421 1.50815 0
M  V30 5632 H 545.354 -3.9836 1.21237 0
M  V30 5633 H 547.951 -5.18789 -1.2947 0
M  V30 5634 H 548.294 -3.63817 -2.02343 0
M  V30 5635 H 548.827 -3.96205 -0.355817 0
M  V30 5636 H 545.566 -6.40903 1.37565 0
M  V30 5637 H 545.086 -5.99122 -0.285193 0
M  V30 5638 H 546.765 -6.46965 0.0675067 0
M  V30 5639 N 546.897 -0.0685191 -1.57451 0
M  V30 5640 C 548.313 0.288101 -1.56978 0
M  V30 5641 C 548.513 1.70262 -1.07765 0
M  V30 5642 O 547.569 2.4135 -0.742054 0
M  V30 5643 C 548.882 0.100745 -3.00531 0
M  V30 5644 C 550.43 0.170531 -3.12535 0
M  V30 5645 C 550.905 0.0114944 -4.57999 0
M  V30 5646 N 552.396 0.0672065 -4.63151 0
M  V30 5647 C 553.131 -0.0314813 -5.73391 0
M  V30 5648 N 552.627 -0.183503 -6.92557 0
M  V30 5649 N 554.42 0.0253489 -5.62094 0
M  V30 5650 H 546.571 -0.993026 -1.87757 0
M  V30 5651 H 548.834 -0.386981 -0.865419 0
M  V30 5652 H 548.54 -0.875197 -3.40636 0
M  V30 5653 H 548.414 0.854457 -3.67395 0
M  V30 5654 H 550.801 1.13696 -2.72318 0
M  V30 5655 H 550.882 -0.614229 -2.48316 0
M  V30 5656 H 550.526 -0.951684 -4.98904 0
M  V30 5657 H 550.456 0.815617 -5.20245 0
M  V30 5658 H 552.947 0.183246 -3.77455 0
M  V30 5659 H 553.26 -0.251041 -7.72392 0
M  V30 5660 H 551.605 -0.218822 -6.94655 0
M  V30 5661 H 554.796 0.142794 -4.67882 0
M  V30 5662 H 554.969 -0.0550166 -6.47977 0
M  V30 5663 N 548.375 1.56261 0.205012 0
M  V30 5664 C 549.338 1.92908 1.23771 0
M  V30 5665 C 550.338 0.809208 1.38955 0
M  V30 5666 O 551.528 1.07676 1.36936 0
M  V30 5667 C 548.66 2.19442 2.60879 0
M  V30 5668 H 549.853 2.85287 0.924728 0
M  V30 5669 H 547.406 1.49798 0.446125 0
M  V30 5670 H 548.141 1.29668 2.97248 0
M  V30 5671 H 547.926 3.0104 2.51232 0
M  V30 5672 H 549.416 2.48833 3.35368 0
M  V30 5673 N 549.853 -0.472356 1.50355 0
M  V30 5674 C 551.099 -1.22634 1.6152 0
M  V30 5675 C 551.432 -1.91645 0.313995 0
M  V30 5676 O 550.707 -1.82059 -0.684446 0
M  V30 5677 C 550.99 -2.27099 2.7946 0
M  V30 5678 C 550.843 -1.62402 4.19459 0
M  V30 5679 C 552.162 -3.28421 2.92964 0
M  V30 5680 H 549.281 -0.444494 0.587873 0
M  V30 5681 H 551.923 -0.520321 1.82737 0
M  V30 5682 H 550.073 -2.87314 2.61501 0
M  V30 5683 H 551.745 -1.05793 4.49005 0
M  V30 5684 H 549.988 -0.927184 4.23776 0
M  V30 5685 H 550.659 -2.38309 4.97909 0
M  V30 5686 H 553.135 -2.78227 3.09401 0
M  V30 5687 H 552.011 -3.98845 3.77113 0
M  V30 5688 H 552.272 -3.92467 2.03525 0
M  V30 5689 N 551.331 -1.39911 -0.725443 0
M  V30 5690 C 552.742 -1.33599 -1.30415 0
M  V30 5691 C 553.093 -0.00481792 -1.96199 0
M  V30 5692 O 552.218 0.897275 -1.96921 0
M  V30 5693 C 552.813 -2.41965 -2.37146 0
M  V30 5694 C 551.372 -2.39144 -2.90667 0
M  V30 5695 C 550.519 -2.23355 -1.64341 0
M  V30 5696 H 553.47 -1.4986 -0.522267 0
M  V30 5697 H 553.491 -2.09304 -3.17761 0
M  V30 5698 H 553.003 -3.38837 -1.89238 0
M  V30 5699 H 551.104 -1.4594 -3.4283 0
M  V30 5700 H 551.217 -3.34362 -3.43131 0
M  V30 5701 H 549.581 -1.70696 -1.89037 0
M  V30 5702 H 550.364 -3.2221 -1.18471 0
M  V30 5703 N 552.809 0.956637 -1.25245 0
M  V30 5704 C 553.719 2.0868 -1.0719 0
M  V30 5705 C 554.735 1.73997 -0.00959074 0
M  V30 5706 O 555.911 2.00301 -0.210104 0
M  V30 5707 C 552.976 3.39754 -0.690526 0
M  V30 5708 C 552.037 3.88316 -1.83055 0
M  V30 5709 C 551.27 5.13134 -1.46728 0
M  V30 5710 O 551.493 5.6925 -0.362029 0
M  V30 5711 O 550.427 5.56356 -2.29677 0
M  V30 5712 H 554.253 2.26813 -2.01965 0
M  V30 5713 H 551.838 1.07098 -1.04165 0
M  V30 5714 H 553.72 4.18543 -0.489871 0
M  V30 5715 H 552.395 3.22896 0.227981 0
M  V30 5716 H 551.302 3.1054 -2.08604 0
M  V30 5717 H 552.635 4.09669 -2.72822 0
M  V30 5718 N 554.287 1.06798 1.15896 0
M  V30 5719 C 555.197 0.694564 2.24083 0
M  V30 5720 C 556.213 -0.291687 1.71538 0
M  V30 5721 O 557.389 -0.139723 2.00915 0
M  V30 5722 C 554.454 0.0921014 3.46578 0
M  V30 5723 C 553.515 1.13087 4.14137 0
M  V30 5724 C 552.748 0.557064 5.30785 0
M  V30 5725 O 552.971 -0.628623 5.66925 0
M  V30 5726 O 551.905 1.29924 5.8771 0
M  V30 5727 H 555.731 1.59663 2.58344 0
M  V30 5728 H 553.316 0.840575 1.2351 0
M  V30 5729 H 555.198 -0.241884 4.20705 0
M  V30 5730 H 553.873 -0.78337 3.14078 0
M  V30 5731 H 552.78 1.51712 3.41957 0
M  V30 5732 H 554.113 1.97805 4.50704 0
M  V30 5733 N 555.766 -1.3263 0.851289 0
M  V30 5734 C 556.699 -2.26952 0.238318 0
M  V30 5735 C 557.677 -1.50243 -0.621757 0
M  V30 5736 O 558.861 -1.79378 -0.579298 0
M  V30 5737 C 555.988 -3.32124 -0.664178 0
M  V30 5738 C 555.034 -4.26325 0.122067 0
M  V30 5739 S 555.867 -5.14404 1.48824 0
M  V30 5740 C 557.023 -6.231 0.591372 0
M  V30 5741 H 557.256 -2.78594 1.03791 0
M  V30 5742 H 554.789 -1.4011 0.648731 0
M  V30 5743 H 556.747 -3.93197 -1.17924 0
M  V30 5744 H 555.408 -2.79273 -1.43755 0
M  V30 5745 H 554.601 -5.00821 -0.565181 0
M  V30 5746 H 554.203 -3.69652 0.568602 0
M  V30 5747 H 556.495 -6.77187 -0.205762 0
M  V30 5748 H 557.438 -6.95936 1.30687 0
M  V30 5749 H 557.846 -5.64252 0.167206 0
M  V30 5750 N 557.244 -0.608902 -1.45362 0
M  V30 5751 C 558.154 0.110969 -2.34337 0
M  V30 5752 C 559.17 0.859007 -1.51318 0
M  V30 5753 O 560.346 0.816296 -1.84116 0
M  V30 5754 C 557.411 1.09494 -3.28956 0
M  V30 5755 C 556.472 0.348718 -4.27881 0
M  V30 5756 C 555.705 1.28582 -5.17979 0
M  V30 5757 O 555.928 2.52369 -5.11533 0
M  V30 5758 O 554.862 0.782172 -5.96796 0
M  V30 5759 H 558.688 -0.620258 -2.97299 0
M  V30 5760 H 556.273 -0.36916 -1.44767 0
M  V30 5761 H 558.155 1.66163 -3.87257 0
M  V30 5762 H 556.83 1.80717 -2.68557 0
M  V30 5763 H 555.737 -0.260465 -3.73192 0
M  V30 5764 H 557.07 -0.323049 -4.91139 0
M  V30 5765 N 558.722 1.53707 -0.348139 0
M  V30 5766 C 559.652 2.28111 0.498766 0
M  V30 5767 C 560.633 1.29851 1.09876 0
M  V30 5768 O 561.818 1.587 1.11928 0
M  V30 5769 C 558.948 3.05735 1.64753 0
M  V30 5770 C 557.902 4.11537 1.17565 0
M  V30 5771 C 557.228 4.77142 2.4133 0
M  V30 5772 C 558.528 5.21587 0.272844 0
M  V30 5773 H 560.222 2.99152 -0.121934 0
M  V30 5774 H 557.768 1.43875 -0.0600842 0
M  V30 5775 H 559.721 3.56526 2.24649 0
M  V30 5776 H 558.445 2.32354 2.2952 0
M  V30 5777 H 557.104 3.61665 0.599483 0
M  V30 5778 H 556.752 4.0035 3.04514 0
M  V30 5779 H 556.452 5.48626 2.10436 0
M  V30 5780 H 557.976 5.30719 3.01943 0
M  V30 5781 H 559.39 5.67986 0.778779 0
M  V30 5782 H 557.787 6.00074 0.0555849 0
M  V30 5783 H 558.857 4.79969 -0.689785 0
M  V30 5784 N 560.2 0.0768682 1.57412 0
M  V30 5785 C 561.163 -0.873949 2.11884 0
M  V30 5786 C 562.163 -1.22301 1.04398 0
M  V30 5787 O 563.353 -1.15545 1.30365 0
M  V30 5788 C 560.485 -2.17575 2.62438 0
M  V30 5789 H 561.678 -0.401278 2.97203 0
M  V30 5790 H 559.231 -0.171904 1.55352 0
M  V30 5791 H 559.966 -2.69368 1.80587 0
M  V30 5792 H 559.751 -1.93534 3.41009 0
M  V30 5793 H 561.241 -2.85631 3.04639 0
M  V30 5794 N 561.678 -1.56367 -0.196722 0
M  V30 5795 C 562.625 -1.94417 -1.24382 0
M  V30 5796 C 563.595 -0.804543 -1.45315 0
M  V30 5797 O 564.78 -1.06256 -1.58475 0
M  V30 5798 C 561.92 -2.28757 -2.58388 0
M  V30 5799 C 561.033 -3.55775 -2.45047 0
M  V30 5800 C 560.168 -3.79445 -3.71746 0
M  V30 5801 C 559.207 -4.99894 -3.53231 0
M  V30 5802 N 558.344 -5.19826 -4.71938 0
M  V30 5803 H 563.184 -2.83691 -0.912338 0
M  V30 5804 H 560.721 -1.40392 -0.439135 0
M  V30 5805 H 562.679 -2.46682 -3.36457 0
M  V30 5806 H 561.309 -1.42625 -2.89582 0
M  V30 5807 H 560.361 -3.45905 -1.58284 0
M  V30 5808 H 561.673 -4.44 -2.27299 0
M  V30 5809 H 560.827 -3.97601 -4.58256 0
M  V30 5810 H 559.566 -2.89546 -3.92446 0
M  V30 5811 H 558.571 -4.81662 -2.65107 0
M  V30 5812 H 559.796 -5.913 -3.33978 0
M  V30 5813 H 557.742 -4.32875 -4.92905 0
M  V30 5814 H 557.659 -6.02228 -4.57009 0
M  V30 5815 H 558.927 -5.42439 -5.59803 0
M  V30 5816 N 563.156 0.464375 -1.50603 0
M  V30 5817 C 564.066 1.58723 -1.72754 0
M  V30 5818 C 565.082 1.62925 -0.610844 0
M  V30 5819 O 566.258 1.8067 -0.889963 0
M  V30 5820 C 563.323 2.94897 -1.82309 0
M  V30 5821 C 562.384 3.0103 -3.06071 0
M  V30 5822 C 561.617 4.30708 -3.1516 0
M  V30 5823 O 561.84 5.2159 -2.30868 0
M  V30 5824 O 560.774 4.42571 -4.0794 0
M  V30 5825 H 564.6 1.42954 -2.67951 0
M  V30 5826 H 562.185 0.644579 -1.3478 0
M  V30 5827 H 564.067 3.75764 -1.90735 0
M  V30 5828 H 562.742 3.10851 -0.902967 0
M  V30 5829 H 561.649 2.19217 -3.03142 0
M  V30 5830 H 562.982 2.90014 -3.97684 0
M  V30 5831 N 564.634 1.40294 0.718013 0
M  V30 5832 C 565.544 1.42678 1.86226 0
M  V30 5833 C 566.56 0.319655 1.71039 0
M  V30 5834 O 567.736 0.563852 1.93346 0
M  V30 5835 C 564.801 1.2852 3.21999 0
M  V30 5836 C 563.862 2.49354 3.49458 0
M  V30 5837 C 563.095 2.35863 4.78753 0
M  V30 5838 O 563.318 1.37114 5.53675 0
M  V30 5839 O 562.252 3.25189 5.06494 0
M  V30 5840 H 566.078 2.39167 1.87171 0
M  V30 5841 H 563.663 1.2159 0.868112 0
M  V30 5842 H 565.545 1.22824 4.03103 0
M  V30 5843 H 564.22 0.351359 3.21787 0
M  V30 5844 H 563.127 2.60628 2.68373 0
M  V30 5845 H 564.46 3.41491 3.54464 0
M  V30 5846 N 566.112 -0.949982 1.2575 0
M  V30 5847 C 567.059 -2.04738 1.06541 0
M  V30 5848 C 568.029 -1.66078 -0.0268818 0
M  V30 5849 O 569.214 -1.90348 0.131196 0
M  V30 5850 C 566.354 -3.38027 0.695127 0
M  V30 5851 C 565.467 -3.89776 1.86276 0
M  V30 5852 C 564.602 -5.11411 1.4364 0
M  V30 5853 C 563.641 -5.554 2.57287 0
M  V30 5854 N 562.778 -6.68244 2.15395 0
M  V30 5855 H 567.618 -2.20502 2.00457 0
M  V30 5856 H 565.155 -1.0805 0.998178 0
M  V30 5857 H 567.113 -4.14641 0.461375 0
M  V30 5858 H 565.743 -3.22135 -0.207046 0
M  V30 5859 H 564.795 -3.0964 2.20969 0
M  V30 5860 H 566.107 -4.18368 2.71606 0
M  V30 5861 H 565.261 -5.95457 1.16257 0
M  V30 5862 H 564 -4.84545 0.553879 0
M  V30 5863 H 563.005 -4.69916 2.85409 0
M  V30 5864 H 564.23 -5.84272 3.46125 0
M  V30 5865 H 562.176 -6.43078 1.29565 0
M  V30 5866 H 562.093 -6.96377 2.94272 0
M  V30 5867 H 563.361 -7.55687 1.91201 0
M  V30 5868 N 567.59 -1.07411 -1.15328 0
M  V30 5869 C 568.83 -0.807011 -1.87794 0
M  V30 5870 C 569.194 0.654987 -1.80482 0
M  V30 5871 O 570.395 1.03716 -2.47985 0
M  V30 5872 C 568.666 -1.30198 -3.32841 0
M  V30 5873 S 570.225 -1.16564 -4.23034 0
M  V30 5874 H 567.043 -0.292429 -0.648079 0
M  V30 5875 H 569.645 -1.37334 -1.39139 0
M  V30 5876 H 568.349 -2.3607 -3.35707 0
M  V30 5877 H 567.88 -0.730881 -3.86551 0
M  V30 5878 H 569.895 -0.103557 -4.96092 0
M  V30 5879 N 569.068 1.32177 -0.85831 0
M  V30 5880 C 569.978 2.32561 -0.308606 0
M  V30 5881 C 570.994 1.64209 0.575462 0
M  V30 5882 O 572.17 1.95719 0.474961 0
M  V30 5883 C 569.235 3.43207 0.490909 0
M  V30 5884 C 568.296 4.27243 -0.419733 0
M  V30 5885 C 567.529 5.32605 0.341719 0
M  V30 5886 O 567.752 5.48332 1.57125 0
M  V30 5887 O 566.686 6.0118 -0.294379 0
M  V30 5888 H 570.512 2.81477 -1.14037 0
M  V30 5889 H 568.097 1.35866 -0.621349 0
M  V30 5890 H 569.979 4.10677 0.944574 0
M  V30 5891 H 568.654 2.96474 1.29941 0
M  V30 5892 H 567.561 3.62569 -0.921652 0
M  V30 5893 H 568.894 4.7751 -1.19352 0
M  V30 5894 N 570.547 0.616602 1.45037 0
M  V30 5895 C 571.794 0.115331 2.02171 0
M  V30 5896 C 572.122 -1.25748 1.48383 0
M  V30 5897 O 571.377 -1.84511 0.652229 0
M  V30 5898 C 571.676 0.0356829 3.57382 0
M  V30 5899 C 571.342 1.34535 4.30362 0
M  V30 5900 C 570.004 1.70408 4.50016 0
M  V30 5901 C 572.356 2.21049 4.72003 0
M  V30 5902 C 569.684 2.92529 5.0857 0
M  V30 5903 C 572.036 3.42427 5.31908 0
M  V30 5904 C 570.7 3.78541 5.49784 0
M  V30 5905 H 569.97 0.0422024 0.739797 0
M  V30 5906 H 572.617 0.80002 1.73988 0
M  V30 5907 H 570.922 -0.732314 3.84895 0
M  V30 5908 H 572.619 -0.368463 3.99304 0
M  V30 5909 H 569.209 1.05615 4.15383 0
M  V30 5910 H 573.393 1.94632 4.56544 0
M  V30 5911 H 568.649 3.20605 5.20598 0
M  V30 5912 H 572.823 4.09709 5.63127 0
M  V30 5913 H 570.45 4.73255 5.94923 0
M  V30 5914 N 572.025 -1.5352 0.356285 0
M  V30 5915 C 572.955 -2.28372 -0.486661 0
M  V30 5916 C 573.936 -1.30432 -1.09185 0
M  V30 5917 O 575.121 -1.59291 -1.11085 0
M  V30 5918 C 572.251 -3.06604 -1.63129 0
M  V30 5919 C 571.205 -4.12154 -1.15381 0
M  V30 5920 C 570.531 -4.78415 -2.38796 0
M  V30 5921 C 571.831 -5.21724 -0.245179 0
M  V30 5922 H 573.525 -2.99083 0.137797 0
M  V30 5923 H 571.071 -1.43841 0.0677134 0
M  V30 5924 H 573.024 -3.57712 -2.22755 0
M  V30 5925 H 571.748 -2.33568 -2.28284 0
M  V30 5926 H 570.407 -3.61978 -0.580294 0
M  V30 5927 H 570.055 -4.01959 -3.02387 0
M  V30 5928 H 569.755 -5.49734 -2.07524 0
M  V30 5929 H 571.279 -5.32313 -2.99125 0
M  V30 5930 H 572.693 -5.68391 -0.748646 0
M  V30 5931 H 571.09 -6.00095 -0.0237608 0
M  V30 5932 H 572.16 -4.79596 0.715229 0
M  V30 5933 N 573.503 -0.0852151 -1.57369 0
M  V30 5934 C 574.914 0.445428 -1.81309 0
M  V30 5935 C 575.265 1.68795 -1.00013 0
M  V30 5936 O 574.39 2.15211 -0.226573 0
M  V30 5937 C 574.985 0.814887 -3.28854 0
M  V30 5938 C 573.544 1.29032 -3.53592 0
M  V30 5939 C 572.691 0.282089 -2.75861 0
M  V30 5940 H 575.642 -0.310771 -1.55627 0
M  V30 5941 H 575.663 1.67524 -3.41637 0
M  V30 5942 H 575.175 -0.0896309 -3.87996 0
M  V30 5943 H 573.276 2.21289 -2.9977 0
M  V30 5944 H 573.389 1.25898 -4.62262 0
M  V30 5945 H 571.753 0.762182 -2.43029 0
M  V30 5946 H 572.536 -0.614936 -3.37748 0
M  V30 5947 N 574.981 1.5647 0.188427 0
M  V30 5948 C 576.228 1.81013 0.907779 0
M  V30 5949 C 576.556 0.65953 1.82977 0
M  V30 5950 O 575.811 -0.354308 1.92466 0
M  V30 5951 C 576.11 3.11596 1.7505 0
M  V30 5952 C 575.776 4.40145 0.978922 0
M  V30 5953 C 574.438 4.75066 0.765912 0
M  V30 5954 C 576.79 5.19369 0.436498 0
M  V30 5955 C 574.118 5.867 -0.00089868 0
M  V30 5956 C 576.47 6.31805 -0.317136 0
M  V30 5957 C 575.134 6.65303 -0.541103 0
M  V30 5958 H 574.404 0.662373 0.33218 0
M  V30 5959 H 577.051 1.9071 0.173732 0
M  V30 5960 H 575.356 2.97165 2.55343 0
M  V30 5961 H 577.053 3.27793 2.30983 0
M  V30 5962 H 573.643 4.12745 1.15497 0
M  V30 5963 H 577.827 4.92799 0.588449 0
M  V30 5964 H 573.083 6.11122 -0.184329 0
M  V30 5965 H 577.257 6.92406 -0.744788 0
M  V30 5966 H 574.884 7.51646 -1.13718 0
M  V30 5967 N 576.459 -0.456382 1.50847 0
M  V30 5968 C 577.389 -1.56025 1.73719 0
M  V30 5969 C 578.37 -1.5967 0.586473 0
M  V30 5970 O 579.555 -1.75702 0.827185 0
M  V30 5971 C 576.685 -2.94251 1.84483 0
M  V30 5972 C 575.639 -3.05471 2.99786 0
M  V30 5973 C 574.965 -4.45489 2.95709 0
M  V30 5974 C 576.265 -2.81318 4.40065 0
M  V30 5975 H 577.959 -1.37138 2.66146 0
M  V30 5976 H 575.505 -0.658299 1.28072 0
M  V30 5977 H 577.458 -3.71417 1.99067 0
M  V30 5978 H 576.182 -3.14328 0.886891 0
M  V30 5979 H 574.841 -2.30741 2.84876 0
M  V30 5980 H 574.489 -4.62505 1.97732 0
M  V30 5981 H 574.189 -4.53929 3.73125 0
M  V30 5982 H 575.713 -5.24655 3.12362 0
M  V30 5983 H 577.127 -3.48226 4.55425 0
M  V30 5984 H 575.524 -3.01188 5.19043 0
M  V30 5985 H 576.594 -1.7706 4.51418 0
M  V30 5986 N 577.937 -1.40673 -0.710563 0
M  V30 5987 C 579.162 -1.42741 -1.50465 0
M  V30 5988 C 579.587 -0.0302116 -1.88076 0
M  V30 5989 O 578.945 0.962945 -1.53613 0
M  V30 5990 C 578.993 -2.32873 -2.75322 0
M  V30 5991 O 578.097 -1.77544 -3.72226 0
M  V30 5992 H 577.438 -0.485056 -0.45345 0
M  V30 5993 H 579.968 -1.84961 -0.874681 0
M  V30 5994 H 579.978 -2.48233 -3.23797 0
M  V30 5995 H 578.653 -3.34401 -2.47283 0
M  V30 5996 H 577.23 -1.71556 -3.31093 0
M  V30 5997 N 579.415 0.9433 -1.26252 0
M  V30 5998 C 580.826 1.50404 -1.10614 0
M  V30 5999 C 581.177 1.93666 0.31429 0
M  V30 6000 O 580.302 1.79709 1.20555 0
M  V30 6001 C 580.897 2.73336 -2.00182 0
M  V30 6002 C 579.456 3.25686 -1.88695 0
M  V30 6003 C 578.603 1.98474 -1.93658 0
M  V30 6004 H 581.554 0.759006 -1.39373 0
M  V30 6005 H 581.575 3.47567 -1.54847 0
M  V30 6006 H 581.087 2.41818 -3.03555 0
M  V30 6007 H 579.188 3.61998 -0.882489 0
M  V30 6008 H 579.301 3.92935 -2.74115 0
M  V30 6009 H 577.665 2.14278 -1.37684 0
M  V30 6010 H 578.448 1.6929 -2.98657 0
M  V30 6011 N 580.893 1.08022 1.14757 0
M  V30 6012 C 582.309 0.807072 1.3769 0
M  V30 6013 C 582.509 -0.585504 1.92806 0
M  V30 6014 O 581.565 -1.34301 2.13821 0
M  V30 6015 C 582.878 1.88651 2.34161 0
M  V30 6016 C 584.426 1.91206 2.47809 0
M  V30 6017 C 584.901 2.98253 3.47576 0
M  V30 6018 N 586.392 2.974 3.55117 0
M  V30 6019 C 587.127 3.76872 4.32152 0
M  V30 6020 N 586.623 4.66212 5.12463 0
M  V30 6021 N 588.416 3.6519 4.27309 0
M  V30 6022 H 580.567 1.97824 0.77326 0
M  V30 6023 H 582.83 0.85826 0.402608 0
M  V30 6024 H 582.536 2.88749 2.00791 0
M  V30 6025 H 582.41 1.75244 3.3402 0
M  V30 6026 H 584.797 0.917564 2.80472 0
M  V30 6027 H 584.878 2.08691 1.47925 0
M  V30 6028 H 584.522 3.97907 3.15646 0
M  V30 6029 H 584.452 2.78014 4.47231 0
M  V30 6030 H 586.943 2.32643 2.97801 0
M  V30 6031 H 587.256 5.23468 5.68508 0
M  V30 6032 H 585.601 4.70257 5.11745 0
M  V30 6033 H 588.792 2.94765 3.63636 0
M  V30 6034 H 588.965 4.27366 4.87095 0
M  V30 6035 N 582.371 -1.3172 0.865308 0
M  V30 6036 C 583.318 -2.2863 0.315736 0
M  V30 6037 C 584.288 -1.55524 -0.583213 0
M  V30 6038 O 585.473 -1.83694 -0.51585 0
M  V30 6039 C 582.613 -3.41735 -0.480773 0
M  V30 6040 C 581.726 -4.297 0.445167 0
M  V30 6041 C 580.861 -5.29944 -0.365012 0
M  V30 6042 C 579.9 -6.09554 0.557651 0
M  V30 6043 N 579.037 -7.01768 -0.215994 0
M  V30 6044 H 583.877 -2.75026 1.14736 0
M  V30 6045 H 581.414 -1.35302 0.577209 0
M  V30 6046 H 583.372 -4.06045 -0.958306 0
M  V30 6047 H 582.002 -2.96461 -1.27714 0
M  V30 6048 H 581.054 -3.65875 1.04113 0
M  V30 6049 H 582.366 -4.85295 1.15284 0
M  V30 6050 H 581.52 -5.99908 -0.905255 0
M  V30 6051 H 580.259 -4.74994 -1.106 0
M  V30 6052 H 579.264 -5.38485 1.10969 0
M  V30 6053 H 580.489 -6.66591 1.29742 0
M  V30 6054 H 578.435 -6.49232 -0.939878 0
M  V30 6055 H 578.352 -7.54762 0.432431 0
M  V30 6056 H 579.62 -7.76002 -0.737618 0
M  V30 6057 N 583.85 -0.624285 -1.44708 0
M  V30 6058 C 585.096 -0.126237 -2.02407 0
M  V30 6059 C 585.428 1.24618 -1.48943 0
M  V30 6060 O 584.704 1.82569 -0.670742 0
M  V30 6061 C 584.986 -0.105449 -3.59946 0
M  V30 6062 C 584.84 -1.50972 -4.23707 0
M  V30 6063 C 586.159 0.573629 -4.36346 0
M  V30 6064 H 583.278 -0.0473472 -0.735478 0
M  V30 6065 H 585.92 -0.799452 -1.72362 0
M  V30 6066 H 584.07 0.46783 -3.85673 0
M  V30 6067 H 585.742 -2.13136 -4.0911 0
M  V30 6068 H 583.985 -2.0656 -3.81465 0
M  V30 6069 H 584.656 -1.44727 -5.32689 0
M  V30 6070 H 587.132 0.0861787 -4.16011 0
M  V30 6071 H 586.008 0.557338 -5.46063 0
M  V30 6072 H 586.269 1.64276 -4.10446 0
M  V30 6073 N 585.328 1.53329 -0.364422 0
M  V30 6074 C 586.577 2.00421 0.226747 0
M  V30 6075 C 586.89 1.25581 1.49963 0
M  V30 6076 O 588.096 1.63256 2.16933 0
M  V30 6077 C 586.552 3.57017 0.454618 0
M  V30 6078 C 586.16 4.40734 -0.803568 0
M  V30 6079 C 587.904 4.12468 1.00351 0
M  V30 6080 C 585.811 5.8888 -0.545345 0
M  V30 6081 H 584.741 0.748787 0.0885082 0
M  V30 6082 H 587.392 1.7703 -0.482983 0
M  V30 6083 H 585.774 3.76558 1.22558 0
M  V30 6084 H 586.948 4.32967 -1.57723 0
M  V30 6085 H 585.263 3.96381 -1.27559 0
M  V30 6086 H 587.86 5.20783 1.212 0
M  V30 6087 H 588.203 3.6699 1.9653 0
M  V30 6088 H 588.736 3.96721 0.29274 0
M  V30 6089 H 585.475 6.38633 -1.47743 0
M  V30 6090 H 584.995 5.99499 0.189842 0
M  V30 6091 H 586.674 6.46776 -0.170425 0
M  V30 6092 N 586.806 0.0935595 1.57322 0
M  V30 6093 C 588.052 -0.571355 1.94585 0
M  V30 6094 C 588.385 -1.67929 0.975366 0
M  V30 6095 O 587.66 -1.94498 0.00816206 0
M  V30 6096 C 587.943 -1.12797 3.41978 0
M  V30 6097 C 587.796 -0.0251881 4.49793 0
M  V30 6098 C 589.115 -2.02682 3.90651 0
M  V30 6099 H 586.234 -0.206223 0.70756 0
M  V30 6100 H 588.876 0.163956 1.89291 0
M  V30 6101 H 587.026 -1.75461 3.4662 0
M  V30 6102 H 588.698 0.608979 4.57263 0
M  V30 6103 H 586.941 0.641399 4.29032 0
M  V30 6104 H 587.612 -0.455433 5.50118 0
M  V30 6105 H 590.088 -1.49925 3.88152 0
M  V30 6106 H 588.964 -2.38555 4.94351 0
M  V30 6107 H 589.225 -2.94362 3.29854 0
M  V30 6108 N 588.284 -1.56567 -0.180126 0
M  V30 6109 C 589.231 -1.95725 -1.22313 0
M  V30 6110 C 590.201 -0.819911 -1.44453 0
M  V30 6111 O 591.386 -1.07931 -1.57339 0
M  V30 6112 C 588.526 -2.31484 -2.55947 0
M  V30 6113 C 587.639 -3.58354 -2.4126 0
M  V30 6114 C 586.774 -3.83366 -3.67701 0
M  V30 6115 C 585.813 -5.03612 -3.47909 0
M  V30 6116 N 584.95 -5.24802 -4.66398 0
M  V30 6117 H 589.79 -2.84642 -0.882198 0
M  V30 6118 H 587.327 -1.4085 -0.42422 0
M  V30 6119 H 589.285 -2.50237 -3.33822 0
M  V30 6120 H 587.915 -1.45689 -2.88053 0
M  V30 6121 H 586.967 -3.47565 -1.54606 0
M  V30 6122 H 588.279 -4.46386 -2.22577 0
M  V30 6123 H 587.433 -4.02439 -4.54013 0
M  V30 6124 H 586.172 -2.93692 -3.89353 0
M  V30 6125 H 585.177 -4.84447 -2.59983 0
M  V30 6126 H 586.402 -5.94809 -3.27688 0
M  V30 6127 H 584.348 -4.38079 -4.88286 0
M  V30 6128 H 584.265 -6.07041 -4.50596 0
M  V30 6129 H 585.533 -5.48346 -5.54019 0
M  V30 6130 N 589.762 0.448376 -1.51087 0
M  V30 6131 C 591.01 1.19635 -1.62886 0
M  V30 6132 C 591.331 1.91977 -0.342024 0
M  V30 6133 O 590.601 1.85094 0.641636 0
M  V30 6134 H 589.181 0.444598 -0.600285 0
M  V30 6135 H 591.843 0.515138 -1.87969 0
M  V30 6136 H 590.939 1.93194 -2.45117 0
M  V30 6137 N 591.24 1.41047 0.703093 0
M  V30 6138 C 592.488 1.39723 1.4602 0
M  V30 6139 C 592.809 0.00461257 1.94999 0
M  V30 6140 O 592.079 -0.952292 1.71196 0
M  V30 6141 H 590.659 0.514281 0.541779 0
M  V30 6142 H 593.321 1.76217 0.832678 0
M  V30 6143 H 592.417 2.07982 2.32701 0
M  V30 6144 N 592.718 -0.936591 1.26751 0
M  V30 6145 C 594.134 -1.21095 1.03963 0
M  V30 6146 C 594.334 -2.00156 -0.232372 0
M  V30 6147 O 593.39 -2.3434 -0.940274 0
M  V30 6148 C 594.703 -1.96775 2.27377 0
M  V30 6149 C 596.251 -2.09749 2.32324 0
M  V30 6150 C 596.726 -2.88832 3.55443 0
M  V30 6151 N 598.217 -2.96404 3.55948 0
M  V30 6152 C 598.952 -3.58036 4.47881 0
M  V30 6153 N 598.448 -4.21132 5.50109 0
M  V30 6154 N 600.241 -3.55353 4.35523 0
M  V30 6155 H 592.392 -0.408173 2.08441 0
M  V30 6156 H 594.655 -0.243139 0.91629 0
M  V30 6157 H 594.361 -1.46094 3.19921 0
M  V30 6158 H 594.235 -2.97424 2.31989 0
M  V30 6159 H 596.622 -2.5962 1.40291 0
M  V30 6160 H 596.703 -1.08347 2.31721 0
M  V30 6161 H 596.347 -2.39647 4.47808 0
M  V30 6162 H 596.277 -3.90499 3.53296 0
M  V30 6163 H 598.768 -2.51552 2.82011 0
M  V30 6164 H 599.081 -4.66071 6.16439 0
M  V30 6165 H 597.426 -4.19705 5.53961 0
M  V30 6166 H 600.617 -3.05256 3.54875 0
M  V30 6167 H 600.79 -4.03097 5.07363 0
M  V30 6168 N 594.196 -1.08629 -1.14182 0
M  V30 6169 C 595.445 -0.812271 -1.84621 0
M  V30 6170 C 595.758 0.664313 -1.83973 0
M  V30 6171 O 596.964 1.05357 -2.50224 0
M  V30 6172 C 595.42 -1.4031 -3.31423 0
M  V30 6173 C 595.028 -2.91164 -3.40481 0
M  V30 6174 C 596.772 -1.20767 -4.06959 0
M  V30 6175 C 594.679 -3.43373 -4.81507 0
M  V30 6176 H 593.609 -0.30019 -0.691666 0
M  V30 6177 H 596.26 -1.30798 -1.28701 0
M  V30 6178 H 594.642 -0.835096 -3.87094 0
M  V30 6179 H 595.816 -3.5412 -2.94848 0
M  V30 6180 H 594.131 -3.09646 -2.78403 0
M  V30 6181 H 596.728 -1.57237 -5.11058 0
M  V30 6182 H 597.071 -0.147664 -4.16038 0
M  V30 6183 H 597.604 -1.74274 -3.57594 0
M  V30 6184 H 594.343 -4.48958 -4.77616 0
M  V30 6185 H 593.863 -2.85176 -5.27669 0
M  V30 6186 H 595.542 -3.40095 -5.50404 0
M  V30 6187 N 595.674 1.31259 -0.872281 0
M  V30 6188 C 596.92 1.96913 -0.485083 0
M  V30 6189 C 597.253 1.68774 0.960667 0
M  V30 6190 O 596.528 0.985495 1.67685 0
M  V30 6191 C 596.811 3.52299 -0.745502 0
M  V30 6192 C 596.664 3.90002 -2.24095 0
M  V30 6193 C 597.983 4.39582 -0.213516 0
M  V30 6194 H 595.102 0.715252 -0.177716 0
M  V30 6195 H 597.744 1.55347 -1.09395 0
M  V30 6196 H 595.894 3.87835 -0.227276 0
M  V30 6197 H 597.566 3.64555 -2.82661 0
M  V30 6198 H 595.809 3.38526 -2.71261 0
M  V30 6199 H 596.48 4.98352 -2.37381 0
M  V30 6200 H 598.956 4.10882 -0.656902 0
M  V30 6201 H 597.832 5.47251 -0.42516 0
M  V30 6202 H 598.093 4.33158 0.884666 0
M  V30 6203 N 597.152 0.631951 1.44375 0
M  V30 6204 C 598.115 -0.0628142 2.29114 0
M  V30 6205 C 599.115 -0.771494 1.41084 0
M  V30 6206 O 600.305 -0.615959 1.62947 0
M  V30 6207 C 597.437 -1.09953 3.22681 0
M  V30 6208 H 598.63 0.682509 2.92031 0
M  V30 6209 H 596.183 0.392128 1.51301 0
M  V30 6210 H 596.918 -1.87481 2.64616 0
M  V30 6211 H 596.703 -0.595286 3.87555 0
M  V30 6212 H 598.193 -1.58538 3.86336 0
M  V30 6213 N 598.631 -1.53133 0.372548 0
M  V30 6214 C 599.564 -2.22328 -0.514361 0
M  V30 6215 C 600.542 -1.21776 -1.07747 0
M  V30 6216 O 601.726 -1.50704 -1.13228 0
M  V30 6217 C 598.853 -2.92343 -1.71035 0
M  V30 6218 C 597.899 -4.07026 -1.27405 0
M  V30 6219 S 598.732 -5.34821 -0.269526 0
M  V30 6220 C 599.888 -6.08352 -1.47168 0
M  V30 6221 H 600.121 -2.9721 0.0732683 0
M  V30 6222 H 597.654 -1.53603 0.156673 0
M  V30 6223 H 599.612 -3.33296 -2.39634 0
M  V30 6224 H 598.273 -2.17173 -2.26925 0
M  V30 6225 H 597.466 -4.55056 -2.16656 0
M  V30 6226 H 597.068 -3.68001 -0.66719 0
M  V30 6227 H 599.36 -6.33507 -2.40157 0
M  V30 6228 H 600.303 -7.0053 -1.03263 0
M  V30 6229 H 600.711 -5.38893 -1.6809 0
M  V30 6230 N 600.109 -0.101901 -1.5727 0
M  V30 6231 C 601.041 0.884723 -2.11436 0
M  V30 6232 C 602.054 1.24149 -1.05314 0
M  V30 6233 O 603.243 1.19341 -1.3274 0
M  V30 6234 C 600.343 2.19179 -2.58484 0
M  V30 6235 C 599.516 2.00933 -3.88516 0
M  V30 6236 C 598.575 3.15213 -4.2134 0
M  V30 6237 O 597.601 2.88877 -4.90448 0
M  V30 6238 N 598.803 4.41174 -3.77288 0
M  V30 6239 H 601.568 0.422058 -2.96713 0
M  V30 6240 H 599.129 0.0830128 -1.61687 0
M  V30 6241 H 601.121 2.94593 -2.77484 0
M  V30 6242 H 599.691 2.56847 -1.7818 0
M  V30 6243 H 598.911 1.09809 -3.78597 0
M  V30 6244 H 600.199 1.86026 -4.73573 0
M  V30 6245 H 599.597 4.6545 -3.21516 0
M  V30 6246 H 598.154 5.13515 -4.01429 0
M  V30 6247 N 601.587 1.56661 0.17182 0
M  V30 6248 C 602.834 1.81965 0.888529 0
M  V30 6249 C 603.162 0.6789 1.82267 0
M  V30 6250 O 602.417 -0.333875 1.92831 0
M  V30 6251 C 602.716 3.13435 1.71736 0
M  V30 6252 C 602.382 4.41159 0.932184 0
M  V30 6253 C 601.044 4.75851 0.715481 0
M  V30 6254 C 603.396 5.19803 0.381387 0
M  V30 6255 C 600.724 5.86666 -0.063126 0
M  V30 6256 C 603.076 6.31433 -0.384129 0
M  V30 6257 C 601.74 6.64692 -0.611637 0
M  V30 6258 H 601.01 0.665859 0.325136 0
M  V30 6259 H 603.657 1.90884 0.153495 0
M  V30 6260 H 601.962 2.99857 2.52177 0
M  V30 6261 H 603.659 3.30224 2.27493 0
M  V30 6262 H 600.249 4.13947 1.11112 0
M  V30 6263 H 604.433 4.93396 0.536148 0
M  V30 6264 H 599.689 6.10892 -0.249136 0
M  V30 6265 H 603.863 6.91577 -0.818185 0
M  V30 6266 H 601.49 7.50398 -1.21684 0
M  V30 6267 N 603.065 -0.440357 1.51323 0
M  V30 6268 C 604.311 -1.19181 1.64085 0
M  V30 6269 C 604.644 -1.90936 0.354575 0
M  V30 6270 O 603.919 -1.8347 -0.645675 0
M  V30 6271 C 604.202 -2.2112 2.84215 0
M  V30 6272 C 604.055 -1.53468 4.22809 0
M  V30 6273 C 605.374 -3.22133 2.99864 0
M  V30 6274 H 602.493 -0.431924 0.597169 0
M  V30 6275 H 605.135 -0.481443 1.83799 0
M  V30 6276 H 603.285 -2.81703 2.67537 0
M  V30 6277 H 604.957 -0.962455 4.51148 0
M  V30 6278 H 603.2 -0.837086 4.25647 0
M  V30 6279 H 603.871 -2.27694 5.02852 0
M  V30 6280 H 606.347 -2.71601 3.15233 0
M  V30 6281 H 605.223 -3.90756 3.85488 0
M  V30 6282 H 605.484 -3.88061 2.11804 0
M  V30 6283 N 604.543 -1.41418 -0.695603 0
M  V30 6284 C 605.959 -1.23887 -1.00619 0
M  V30 6285 C 606.159 -0.128206 -2.01092 0
M  V30 6286 O 605.215 0.507408 -2.47349 0
M  V30 6287 C 606.528 -2.58816 -1.53083 0
M  V30 6288 C 608.076 -2.65998 -1.64967 0
M  V30 6289 C 608.551 -4.01244 -2.20833 0
M  V30 6290 N 610.042 -4.0309 -2.28194 0
M  V30 6291 C 610.777 -5.04539 -2.72448 0
M  V30 6292 N 610.273 -6.16378 -3.16306 0
M  V30 6293 N 612.066 -4.91901 -2.72011 0
M  V30 6294 H 604.217 -2.12379 -0.0300061 0
M  V30 6295 H 606.48 -0.944958 -0.0758797 0
M  V30 6296 H 606.186 -3.40842 -0.867147 0
M  V30 6297 H 606.06 -2.81299 -2.51298 0
M  V30 6298 H 608.447 -1.84331 -2.30448 0
M  V30 6299 H 608.528 -2.47325 -0.652982 0
M  V30 6300 H 608.172 -4.83359 -1.55968 0
M  V30 6301 H 608.102 -4.17257 -3.21254 0
M  V30 6302 H 610.593 -3.22341 -1.97242 0
M  V30 6303 H 610.906 -6.89658 -3.487 0
M  V30 6304 H 609.251 -6.19914 -3.14215 0
M  V30 6305 H 612.442 -4.03613 -2.37095 0
M  V30 6306 H 612.615 -5.71102 -3.06181 0
M  V30 6307 N 606.021 0.929856 -1.27246 0
M  V30 6308 C 607.249 1.71144 -1.16265 0
M  V30 6309 C 607.664 1.867 0.280786 0
M  V30 6310 O 607.021 1.38249 1.19136 0
M  V30 6311 C 607.072 3.11222 -1.83911 0
M  V30 6312 O 606.793 2.96398 -3.22614 0
M  V30 6313 C 608.294 4.05541 -1.79028 0
M  V30 6314 H 605.514 0.535499 -0.404328 0
M  V30 6315 H 608.058 1.16492 -1.68077 0
M  V30 6316 H 606.213 3.6274 -1.36009 0
M  V30 6317 H 606.627 3.8494 -3.56261 0
M  V30 6318 H 608.101 5.01351 -2.30978 0
M  V30 6319 H 608.578 4.32589 -0.759168 0
M  V30 6320 H 609.184 3.59947 -2.26535 0
M  V30 6321 N 607.499 1.09233 1.13605 0
M  V30 6322 C 608.409 0.741939 2.22559 0
M  V30 6323 C 609.425 -0.255236 1.72118 0
M  V30 6324 O 610.601 -0.0970747 2.01166 0
M  V30 6325 C 607.666 0.165595 3.46304 0
M  V30 6326 C 606.727 1.21846 4.11645 0
M  V30 6327 C 605.96 0.669526 5.29484 0
M  V30 6328 O 606.183 -0.508228 5.68131 0
M  V30 6329 O 605.117 1.42361 5.84822 0
M  V30 6330 H 608.943 1.65107 2.54899 0
M  V30 6331 H 606.528 0.866584 1.21699 0
M  V30 6332 H 608.41 -0.152592 4.21124 0
M  V30 6333 H 607.085 -0.716573 3.15669 0
M  V30 6334 H 605.992 1.58931 3.38662 0
M  V30 6335 H 607.325 2.07321 4.46407 0
M  V30 6336 N 608.977 -1.30795 0.87923 0
M  V30 6337 C 609.909 -2.27241 0.299025 0
M  V30 6338 C 610.922 -1.53472 -0.543166 0
M  V30 6339 O 612.111 -1.74756 -0.363651 0
M  V30 6340 C 609.211 -3.33655 -0.593931 0
M  V30 6341 C 608.384 -4.36857 0.2179 0
M  V30 6342 C 607.443 -5.22715 -0.604646 0
M  V30 6343 O 606.469 -5.69192 -0.0293838 0
M  V30 6344 N 607.671 -5.48008 -1.91488 0
M  V30 6345 H 610.436 -2.77667 1.12788 0
M  V30 6346 H 607.997 -1.43914 0.741637 0
M  V30 6347 H 609.989 -3.88013 -1.15012 0
M  V30 6348 H 608.559 -2.83202 -1.32346 0
M  V30 6349 H 607.779 -3.82444 0.955536 0
M  V30 6350 H 609.067 -5.02869 0.774614 0
M  V30 6351 H 608.465 -5.1202 -2.40525 0
M  V30 6352 H 607.022 -6.05264 -2.41864 0
M  V30 6353 N 610.455 -0.639598 -1.44038 0
M  V30 6354 C 611.732 -0.078012 -1.95444 0
M  V30 6355 C 612.112 1.39847 -1.58133 0
M  V30 6356 O 611.46 2.11714 -0.859614 0
M  V30 6357 C 611.67 -0.309832 -3.47622 0
M  V30 6358 C 613.018 -0.207521 -4.24093 0
M  V30 6359 O 614.042 -0.241653 -3.55379 0
M  V30 6360 O 612.901 -0.119641 -5.46369 0
M  V30 6361 H 609.995 0.0174534 -0.826816 0
M  V30 6362 H 612.541 -0.711891 -1.54046 0
M  V30 6363 H 611.313 -1.33401 -3.67858 0
M  V30 6364 H 610.936 0.357777 -3.95987 0
M  V30 6365 N 611.933 1.52934 -0.380664 0
M  V30 6366 C 612.843 2.29921 0.466192 0
M  V30 6367 C 613.859 1.36488 1.07922 0
M  V30 6368 O 615.035 1.69553 1.0869 0
M  V30 6369 C 612.1 3.08468 1.58266 0
M  V30 6370 C 611.161 4.17595 0.995627 0
M  V30 6371 C 610.394 4.92387 2.05889 0
M  V30 6372 O 610.617 4.67184 3.27254 0
M  V30 6373 O 609.551 5.77949 1.68102 0
M  V30 6374 H 613.377 3.03274 -0.160735 0
M  V30 6375 H 610.962 1.48698 -0.144617 0
M  V30 6376 H 612.844 3.57469 2.23145 0
M  V30 6377 H 611.519 2.37937 2.19471 0
M  V30 6378 H 610.426 3.72811 0.310332 0
M  V30 6379 H 611.759 4.90336 0.427918 0
M  V30 6380 N 613.412 0.11024 1.57214 0
M  V30 6381 C 614.64 -0.557834 1.99238 0
M  V30 6382 C 615.055 -1.60778 0.989734 0
M  V30 6383 O 614.412 -1.82491 -0.0186092 0
M  V30 6384 C 614.463 -1.19189 3.41286 0
M  V30 6385 O 614.184 -0.183919 4.37714 0
M  V30 6386 C 615.685 -1.94413 3.98395 0
M  V30 6387 H 612.905 -0.148392 0.654386 0
M  V30 6388 H 615.449 0.193996 2.03578 0
M  V30 6389 H 613.604 -1.89456 3.37913 0
M  V30 6390 H 614.018 -0.643475 5.20538 0
M  V30 6391 H 615.492 -2.34116 4.99894 0
M  V30 6392 H 615.969 -2.81592 3.3705 0
M  V30 6393 H 616.575 -1.28928 4.05287 0
M  V30 6394 N 614.89 -1.56749 -0.16351 0
M  V30 6395 C 616.138 -1.82074 -0.87713 0
M  V30 6396 C 616.459 -0.688503 -1.82441 0
M  V30 6397 O 615.729 0.291085 -1.93725 0
M  V30 6398 H 614.309 -0.671677 -0.326893 0
M  V30 6399 H 616.971 -1.9423 -0.161459 0
M  V30 6400 H 616.067 -2.76407 -1.44934 0
M  V30 6401 N 616.368 0.432326 -1.51554 0
M  V30 6402 C 617.315 1.52512 -1.7323 0
M  V30 6403 C 618.285 1.55863 -0.5741 0
M  V30 6404 O 619.47 1.72796 -0.809093 0
M  V30 6405 C 616.61 2.90183 -1.86783 0
M  V30 6406 C 615.723 2.96322 -3.14352 0
M  V30 6407 C 614.858 4.25147 -3.18471 0
M  V30 6408 C 613.897 4.25172 -4.40335 0
M  V30 6409 N 613.034 5.45529 -4.41975 0
M  V30 6410 H 617.874 1.33332 -2.66508 0
M  V30 6411 H 615.411 0.647613 -1.32077 0
M  V30 6412 H 617.369 3.70071 -1.92623 0
M  V30 6413 H 615.999 3.0791 -0.969087 0
M  V30 6414 H 615.051 2.09066 -3.17798 0
M  V30 6415 H 616.363 2.92203 -4.04251 0
M  V30 6416 H 615.517 5.13411 -3.23255 0
M  V30 6417 H 614.256 4.31929 -2.2647 0
M  V30 6418 H 613.261 3.353 -4.35723 0
M  V30 6419 H 614.486 4.20049 -5.33606 0
M  V30 6420 H 612.432 5.53024 -3.52847 0
M  V30 6421 H 612.349 5.43311 -5.25689 0
M  V30 6422 H 613.617 6.35812 -4.50958 0
M  V30 6423 N 617.846 1.41785 0.688094 0
M  V30 6424 C 619.092 1.42753 1.4489 0
M  V30 6425 C 619.447 0.0384235 1.92362 0
M  V30 6426 O 618.74 -0.937066 1.67122 0
M  V30 6427 C 618.934 2.37532 2.67046 0
M  V30 6428 C 618.763 3.85521 2.31525 0
M  V30 6429 C 617.533 4.54152 2.21527 0
M  V30 6430 C 619.731 4.76299 1.94019 0
M  V30 6431 N 617.713 5.87233 1.78969 0
M  V30 6432 C 619.084 5.98386 1.62279 0
M  V30 6433 C 621.139 4.63877 1.80895 0
M  V30 6434 C 619.842 7.09433 1.18732 0
M  V30 6435 C 621.868 5.74893 1.38752 0
M  V30 6436 C 621.23 6.96083 1.07927 0
M  V30 6437 H 617.329 0.577575 0.527192 0
M  V30 6438 H 619.913 1.77713 0.795375 0
M  V30 6439 H 618.084 2.04656 3.30107 0
M  V30 6440 H 619.816 2.29169 3.33562 0
M  V30 6441 H 616.571 4.08188 2.40166 0
M  V30 6442 H 616.995 6.57785 1.60151 0
M  V30 6443 H 621.637 3.70671 2.03378 0
M  V30 6444 H 619.355 8.02497 0.949937 0
M  V30 6445 H 622.941 5.67287 1.29136 0
M  V30 6446 H 621.821 7.80527 0.758111 0
M  V30 6447 N 619.324 -0.923095 1.27737 0
M  V30 6448 C 620.272 -2.04567 1.10703 0
M  V30 6449 C 621.266 -1.69375 0.0288445 0
M  V30 6450 O 622.472 -1.79027 0.186913 0
M  V30 6451 H 618.847 -0.670109 0.34126 0
M  V30 6452 H 620.818 -2.1608 2.05796 0
M  V30 6453 C 619.567 -3.38934 0.775837 0
M  V30 6454 H 618.89 -3.66501 1.59741 0
M  V30 6455 H 620.33 -4.18239 0.696548 0
M  V30 6456 C 618.789 -3.32863 -0.520012 0
M  V30 6457 O 619.319 -3.70462 -1.55308 0
M  V30 6458 N 617.525 -2.85958 -0.51732 0
M  V30 6459 H 617.072 -2.55557 0.32379 0
M  V30 6460 H 617.03 -2.82279 -1.38441 0
M  V30 6461 N 620.802 -1.09834 -1.13024 0
M  V30 6462 C 621.712 -0.753731 -2.22162 0
M  V30 6463 C 622.728 0.246105 -1.72251 0
M  V30 6464 O 623.904 0.0864051 -2.01215 0
M  V30 6465 C 620.969 -0.183958 -3.46212 0
M  V30 6466 C 620.03 -1.24028 -4.10993 0
M  V30 6467 C 619.263 -0.697597 -5.29121 0
M  V30 6468 O 619.486 0.478092 -5.68393 0
M  V30 6469 O 618.42 -1.4546 -5.84059 0
M  V30 6470 H 622.246 -1.66456 -2.5402 0
M  V30 6471 H 619.831 -0.873026 -1.21238 0
M  V30 6472 H 621.713 0.130257 -4.21199 0
M  V30 6473 H 620.388 0.699823 -3.16045 0
M  V30 6474 H 619.295 -1.60725 -3.37814 0
M  V30 6475 H 620.628 -2.09685 -4.45301 0
M  V30 6476 N 622.28 1.30327 -0.886154 0
M  V30 6477 C 623.557 1.90922 -0.425217 0
M  V30 6478 C 623.937 1.80533 1.09413 0
M  V30 6479 O 623.285 1.2233 1.92996 0
M  V30 6480 C 623.495 3.36529 -0.924638 0
M  V30 6481 C 624.843 4.13598 -0.960305 0
M  V30 6482 O 625.867 3.45377 -0.871382 0
M  V30 6483 O 624.726 5.35482 -1.09184 0
M  V30 6484 H 621.82 0.81668 -0.130238 0
M  V30 6485 H 624.366 1.38886 -0.975132 0
M  V30 6486 H 623.138 3.38181 -1.96849 0
M  V30 6487 H 622.761 3.96021 -0.353955 0
M  V30 6488 N 623.758 0.647228 1.43697 0
M  V30 6489 C 624.668 -0.0487997 2.34549 0
M  V30 6490 C 625.684 -0.818586 1.53542 0
M  V30 6491 O 626.86 -0.767195 1.86215 0
M  V30 6492 C 623.925 -1.00734 3.31743 0
M  V30 6493 C 622.986 -0.23515 4.28655 0
M  V30 6494 C 622.219 -1.14803 5.21206 0
M  V30 6495 O 622.442 -2.38717 5.18045 0
M  V30 6496 O 621.376 -0.623667 5.9866 0
M  V30 6497 H 625.202 0.698863 2.9555 0
M  V30 6498 H 622.787 0.407412 1.43738 0
M  V30 6499 H 624.669 -1.55837 3.91526 0
M  V30 6500 H 623.344 -1.73534 2.73254 0
M  V30 6501 H 622.251 0.359319 3.7237 0
M  V30 6502 H 623.584 0.453152 4.9011 0
M  V30 6503 N 625.236 -1.5273 0.388769 0
M  V30 6504 C 626.513 -1.93981 -0.251133 0
M  V30 6505 C 626.893 -1.32418 -1.64404 0
M  V30 6506 O 626.241 -0.492074 -2.23139 0
M  V30 6507 C 626.451 -3.47891 -0.27802 0
M  V30 6508 C 627.799 -4.21559 -0.507229 0
M  V30 6509 O 628.823 -3.54394 -0.358252 0
M  V30 6510 O 627.682 -5.40626 -0.799094 0
M  V30 6511 H 624.776 -0.812157 -0.15598 0
M  V30 6512 H 627.322 -1.63809 0.443237 0
M  V30 6513 H 626.094 -3.8503 0.697669 0
M  V30 6514 H 625.717 -3.84364 -1.01733 0
M  V30 6515 N 626.714 -0.118576 -1.57153 0
M  V30 6516 C 627.646 0.862247 -2.12363 0
M  V30 6517 C 628.659 1.23025 -1.06625 0
M  V30 6518 O 629.848 1.17927 -1.33998 0
M  V30 6519 C 626.948 2.16425 -2.60794 0
M  V30 6520 C 626.121 1.96801 -3.90626 0
M  V30 6521 C 625.18 3.10726 -4.2466 0
M  V30 6522 O 624.206 2.83659 -4.93484 0
M  V30 6523 N 625.408 4.37147 -3.81946 0
M  V30 6524 H 628.173 0.390564 -2.97144 0
M  V30 6525 H 625.734 0.0658591 -1.61766 0
M  V30 6526 H 627.726 2.91633 -2.80593 0
M  V30 6527 H 626.296 2.54943 -1.80895 0
M  V30 6528 H 625.516 1.05787 -3.7974 0
M  V30 6529 H 626.804 1.80993 -4.7552 0
M  V30 6530 H 626.202 4.62014 -3.26435 0
M  V30 6531 H 624.759 5.09229 -4.06853 0
M  V30 6532 N 628.193 1.56834 0.155195 0
M  V30 6533 C 629.126 1.9278 1.22111 0
M  V30 6534 C 630.104 0.792588 1.41975 0
M  V30 6535 O 631.288 1.04743 1.5672 0
M  V30 6536 C 628.415 2.19273 2.58142 0
M  V30 6537 C 627.461 3.41932 2.54921 0
M  V30 6538 S 628.294 4.95769 2.02418 0
M  V30 6539 C 629.45 5.25375 3.40194 0
M  V30 6540 H 629.683 2.82889 0.914393 0
M  V30 6541 H 627.216 1.50133 0.360461 0
M  V30 6542 H 629.174 2.35217 3.36427 0
M  V30 6543 H 627.835 1.29843 2.86007 0
M  V30 6544 H 627.028 3.57721 3.55038 0
M  V30 6545 H 626.63 3.25188 1.8474 0
M  V30 6546 H 628.922 5.1834 4.36268 0
M  V30 6547 H 629.865 6.26889 3.29266 0
M  V30 6548 H 630.273 4.52906 3.36951 0
M  V30 6549 N 629.671 -0.424282 1.51781 0
M  V30 6550 C 630.917 -1.17434 1.6534 0
M  V30 6551 C 631.25 -1.90549 0.374806 0
M  V30 6552 O 630.525 -1.84145 -0.626179 0
M  V30 6553 C 630.808 -2.18093 2.86544 0
M  V30 6554 C 630.661 -1.48975 4.24413 0
M  V30 6555 C 631.98 -3.18934 3.03264 0
M  V30 6556 H 629.099 -0.425566 0.601716 0
M  V30 6557 H 631.741 -0.461921 1.84299 0
M  V30 6558 H 629.891 -2.78849 2.7051 0
M  V30 6559 H 631.563 -0.914551 4.52143 0
M  V30 6560 H 629.806 -0.791893 4.26511 0
M  V30 6561 H 630.477 -2.22347 5.05238 0
M  V30 6562 H 632.953 -2.68243 3.18096 0
M  V30 6563 H 631.829 -3.86645 3.89611 0
M  V30 6564 H 632.09 -3.85793 2.15908 0
M  V30 6565 N 631.149 -1.42148 -0.680565 0
M  V30 6566 C 632.099 -1.41634 -1.78672 0
M  V30 6567 C 633.083 -0.288494 -1.58293 0
M  V30 6568 O 634.275 -0.530295 -1.68869 0
M  V30 6569 C 631.404 -1.31558 -3.17092 0
M  V30 6570 C 630.49 -2.49265 -3.43115 0
M  V30 6571 N 630.881 -3.74702 -3.39753 0
M  V30 6572 C 629.179 -2.43401 -3.73727 0
M  V30 6573 C 629.88 -4.52854 -3.651 0
M  V30 6574 N 628.856 -3.83181 -3.85582 0
M  V30 6575 H 632.658 -2.3652 -1.74458 0
M  V30 6576 H 630.172 -1.36415 -0.881171 0
M  V30 6577 H 632.169 -1.29272 -3.96351 0
M  V30 6578 H 630.829 -0.376696 -3.22508 0
M  V30 6579 H 631.84 -4.07378 -3.19787 0
M  V30 6580 H 628.517 -1.58062 -3.86423 0
M  V30 6581 H 629.907 -5.61827 -3.6851 0
M  V30 6582 N 632.627 0.916307 -1.28225 0
M  V30 6583 C 633.557 2.0352 -1.14464 0
M  V30 6584 C 634.538 1.70045 -0.0430844 0
M  V30 6585 O 635.723 1.92954 -0.219619 0
M  V30 6586 C 632.853 3.37889 -0.803027 0
M  V30 6587 C 631.807 3.85516 -1.85908 0
M  V30 6588 C 631.133 5.1682 -1.37116 0
M  V30 6589 C 632.433 4.07655 -3.26519 0
M  V30 6590 H 634.127 2.1529 -2.08064 0
M  V30 6591 H 631.673 1.03446 -1.00174 0
M  V30 6592 H 633.626 4.15654 -0.693537 0
M  V30 6593 H 632.35 3.26164 0.168674 0
M  V30 6594 H 631.009 3.09953 -1.95767 0
M  V30 6595 H 630.657 5.01497 -0.38859 0
M  V30 6596 H 630.357 5.49657 -2.07728 0
M  V30 6597 H 631.881 5.97143 -1.27484 0
M  V30 6598 H 633.295 4.75953 -3.19596 0
M  V30 6599 H 631.692 4.51818 -3.94943 0
M  V30 6600 H 632.762 3.12553 -3.70727 0
M  V30 6601 N 634.105 1.10431 1.1244 0
M  V30 6602 C 635.052 0.753103 2.18167 0
M  V30 6603 C 636.022 -0.270549 1.63882 0
M  V30 6604 O 637.207 -0.149837 1.90211 0
M  V30 6605 C 634.347 0.191046 3.44571 0
M  V30 6606 C 633.46 1.26999 4.12911 0
M  V30 6607 C 632.595 0.669586 5.26963 0
M  V30 6608 C 631.634 1.72912 5.87169 0
M  V30 6609 N 630.771 1.14898 6.92635 0
M  V30 6610 H 635.611 1.65892 2.47556 0
M  V30 6611 H 633.148 0.828631 1.21541 0
M  V30 6612 H 635.106 -0.152712 4.1692 0
M  V30 6613 H 633.736 -0.677997 3.15599 0
M  V30 6614 H 632.788 1.73087 3.3874 0
M  V30 6615 H 634.1 2.07204 4.53727 0
M  V30 6616 H 633.254 0.275274 6.06075 0
M  V30 6617 H 631.993 -0.163895 4.87425 0
M  V30 6618 H 630.998 2.13286 5.06744 0
M  V30 6619 H 632.223 2.56544 6.28778 0
M  V30 6620 H 630.169 0.336956 6.55134 0
M  V30 6621 H 630.086 1.88786 7.32049 0
M  V30 6622 H 631.354 0.78121 7.75576 0
M  V30 6623 N 635.583 -1.29855 0.893053 0
M  V30 6624 C 636.546 -2.26183 0.370687 0
M  V30 6625 C 637.546 -1.53108 -0.491385 0
M  V30 6626 O 638.736 -1.71643 -0.297386 0
M  V30 6627 C 635.868 -3.37633 -0.470827 0
M  V30 6628 H 637.061 -2.73903 1.22135 0
M  V30 6629 H 634.614 -1.41183 0.67061 0
M  V30 6630 H 635.349 -2.95241 -1.34175 0
M  V30 6631 H 635.134 -3.91825 0.146784 0
M  V30 6632 H 636.624 -4.09313 -0.827825 0
M  V30 6633 N 637.061 -0.65484 -1.43351 0
M  V30 6634 C 638.338 -0.0987371 -1.95351 0
M  V30 6635 C 638.718 1.38161 -1.59608 0
M  V30 6636 O 638.066 2.10791 -0.882021 0
M  V30 6637 C 638.276 -0.346684 -3.47274 0
M  V30 6638 C 639.624 -0.25249 -4.23849 0
M  V30 6639 O 640.648 -0.279332 -3.55103 0
M  V30 6640 O 639.507 -0.177584 -5.46211 0
M  V30 6641 H 636.601 0.0086829 -0.826954 0
M  V30 6642 H 639.147 -0.728189 -1.53282 0
M  V30 6643 H 637.919 -1.37296 -3.66423 0
M  V30 6644 H 637.542 0.315757 -3.96344 0
M  V30 6645 N 638.539 1.52521 -0.396863 0
M  V30 6646 C 639.785 2.01971 0.183169 0
M  V30 6647 C 640.118 1.2825 1.45827 0
M  V30 6648 O 639.393 0.385179 1.90648 0
M  V30 6649 C 639.676 3.5736 0.443391 0
M  V30 6650 C 639.529 4.41743 -0.84753 0
M  V30 6651 C 640.848 4.22539 1.2308 0
M  V30 6652 H 637.967 0.734119 0.0650976 0
M  V30 6653 H 640.609 1.82519 -0.527918 0
M  V30 6654 H 638.759 3.74066 1.04914 0
M  V30 6655 H 640.431 4.36773 -1.48414 0
M  V30 6656 H 638.674 4.0845 -1.4612 0
M  V30 6657 H 639.345 5.48507 -0.620003 0
M  V30 6658 H 641.821 4.09857 0.718084 0
M  V30 6659 H 640.697 5.31227 1.38162 0
M  V30 6660 H 640.958 3.80675 2.24808 0
M  V30 6661 N 640.017 0.126909 1.57088 0
M  V30 6662 C 641.263 -0.529952 1.95753 0
M  V30 6663 C 641.596 -1.65823 1.01077 0
M  V30 6664 O 640.871 -1.94437 0.0494162 0
M  V30 6665 C 641.154 -1.05517 3.44294 0
M  V30 6666 C 641.007 0.0702253 4.49745 0
M  V30 6667 C 642.326 -1.9435 3.94862 0
M  V30 6668 H 639.445 -0.191168 0.711775 0
M  V30 6669 H 642.087 0.204071 1.88901 0
M  V30 6670 H 640.237 -1.68069 3.50264 0
M  V30 6671 H 641.909 0.705834 4.55868 0
M  V30 6672 H 640.152 0.732259 4.27575 0
M  V30 6673 H 640.823 -0.338642 5.5096 0
M  V30 6674 H 643.299 -1.41658 3.91244 0
M  V30 6675 H 642.175 -2.28015 4.993 0
M  V30 6676 H 642.436 -2.87299 3.36024 0
M  V30 6677 N 641.495 -1.56914 -0.146875 0
M  V30 6678 C 642.744 -1.82546 -0.857898 0
M  V30 6679 C 643.057 -0.708169 -1.8233 0
M  V30 6680 O 644.263 -0.850093 -2.57848 0
M  V30 6681 C 642.719 -3.23548 -1.57623 0
M  V30 6682 C 642.327 -4.43212 -0.653224 0
M  V30 6683 C 644.071 -3.58453 -2.27402 0
M  V30 6684 C 641.978 -5.75237 -1.37318 0
M  V30 6685 H 640.908 -0.680786 -0.32411 0
M  V30 6686 H 643.559 -1.83166 -0.110639 0
M  V30 6687 H 641.941 -3.17315 -2.36912 0
M  V30 6688 H 643.115 -4.60682 0.104452 0
M  V30 6689 H 641.43 -4.16351 -0.0638336 0
M  V30 6690 H 644.027 -4.54349 -2.81907 0
M  V30 6691 H 644.37 -2.84516 -3.03901 0
M  V30 6692 H 644.903 -3.66347 -1.55032 0
M  V30 6693 H 641.642 -6.52269 -0.650041 0
M  V30 6694 H 641.162 -5.61703 -2.10357 0
M  V30 6695 H 642.841 -6.18039 -1.91406 0
M  V30 6696 N 642.974 0.416227 -1.52004 0
M  V30 6697 C 644.199 1.19029 -1.69843 0
M  V30 6698 C 644.624 1.83708 -0.404103 0
M  V30 6699 O 643.982 1.69711 0.637787 0
M  V30 6700 C 644.03 2.23439 -2.83032 0
M  V30 6701 O 643.134 3.29419 -2.48106 0
M  V30 6702 H 642.475 0.347785 -0.565634 0
M  V30 6703 H 645.005 0.488871 -1.98674 0
M  V30 6704 H 645.015 2.67884 -3.07737 0
M  V30 6705 H 643.69 1.75745 -3.76944 0
M  V30 6706 H 642.267 2.90303 -2.34048 0
M  V30 6707 N 644.452 1.42507 0.673017 0
M  V30 6708 C 645.415 1.4582 1.76831 0
M  V30 6709 C 646.415 0.345542 1.57043 0
M  V30 6710 O 647.605 0.606447 1.63303 0
M  V30 6711 C 644.737 1.29158 3.15485 0
M  V30 6712 H 645.93 2.43345 1.7528 0
M  V30 6713 H 643.483 1.28981 0.882817 0
M  V30 6714 H 644.218 0.325626 3.22661 0
M  V30 6715 H 644.003 2.09797 3.31252 0
M  V30 6716 H 645.493 1.34363 3.95394 0
M  V30 6717 N 645.93 -0.909495 1.28709 0
M  V30 6718 C 647.177 -1.65905 1.16111 0
M  V30 6719 C 647.505 -1.92334 -0.289436 0
M  V30 6720 O 646.76 -1.52495 -1.22653 0
M  V30 6721 C 647.059 -3.02117 1.90945 0
M  V30 6722 C 646.725 -2.95332 3.40719 0
M  V30 6723 C 645.387 -2.93189 3.81567 0
M  V30 6724 C 647.739 -2.85264 4.36204 0
M  V30 6725 C 645.067 -2.78784 5.16233 0
M  V30 6726 C 647.419 -2.724 5.70948 0
M  V30 6727 C 646.083 -2.68617 6.11066 0
M  V30 6728 H 645.353 -0.60709 0.42488 0
M  V30 6729 H 648 -1.05932 1.59533 0
M  V30 6730 H 646.305 -3.65901 1.40085 0
M  V30 6731 H 648.002 -3.59026 1.7861 0
M  V30 6732 H 644.592 -2.97797 3.08245 0
M  V30 6733 H 648.776 -2.86005 4.05605 0
M  V30 6734 H 644.032 -2.74254 5.46438 0
M  V30 6735 H 648.206 -2.63579 6.44592 0
M  V30 6736 H 645.833 -2.57213 7.15364 0
M  V30 6737 N 647.408 -1.11026 -1.11852 0
M  V30 6738 C 648.656 -0.854769 -1.83134 0
M  V30 6739 C 648.977 0.621375 -1.84835 0
M  V30 6740 O 648.247 1.45129 -1.31584 0
M  V30 6741 H 646.827 -0.313229 -0.678157 0
M  V30 6742 H 649.489 -1.40178 -1.35411 0
M  V30 6743 H 648.585 -1.22311 -2.87135 0
M  V30 6744 N 648.886 1.2938 -0.899927 0
M  V30 6745 C 650.111 2.00228 -0.540692 0
M  V30 6746 C 650.536 1.66909 0.867359 0
M  V30 6747 O 649.894 0.893824 1.57735 0
M  V30 6748 C 649.942 3.52921 -0.740232 0
M  V30 6749 O 649.046 4.11879 0.207154 0
M  V30 6750 H 648.387 0.629505 -0.211233 0
M  V30 6751 H 650.917 1.6487 -1.21158 0
M  V30 6752 H 650.927 4.0287 -0.644973 0
M  V30 6753 H 649.602 3.76508 -1.76677 0
M  V30 6754 H 648.179 3.72845 0.0643315 0
M  V30 6755 N 650.364 0.662433 1.43002 0
M  V30 6756 C 651.61 0.179857 2.02001 0
M  V30 6757 C 651.943 -1.20625 1.52195 0
M  V30 6758 O 651.218 -1.80726 0.718911 0
M  V30 6759 C 651.501 0.200845 3.59539 0
M  V30 6760 C 651.354 1.62153 4.19555 0
M  V30 6761 C 652.673 -0.457738 4.37713 0
M  V30 6762 H 649.792 0.0668305 0.733964 0
M  V30 6763 H 652.434 0.84487 1.70182 0
M  V30 6764 H 650.584 -0.365411 3.86778 0
M  V30 6765 H 652.256 2.23908 4.03315 0
M  V30 6766 H 650.499 2.16601 3.75854 0
M  V30 6767 H 651.17 1.58799 5.28665 0
M  V30 6768 H 653.646 0.0241495 4.16093 0
M  V30 6769 H 652.522 -0.412363 5.47349 0
M  V30 6770 H 652.783 -1.53336 4.14657 0
M  V30 6771 N 651.842 -1.52309 0.404946 0
M  V30 6772 C 652.772 -2.29805 -0.41376 0
M  V30 6773 C 653.753 -1.3384 -1.0498 0
M  V30 6774 O 654.938 -1.62745 -1.05961 0
M  V30 6775 C 652.068 -3.11639 -1.53292 0
M  V30 6776 C 651.022 -4.15616 -1.02211 0
M  V30 6777 C 650.348 -4.8577 -2.23455 0
M  V30 6778 C 651.648 -5.2224 -0.0790725 0
M  V30 6779 H 653.342 -2.98493 0.232878 0
M  V30 6780 H 650.888 -1.43552 0.113441 0
M  V30 6781 H 652.841 -3.64618 -2.11262 0
M  V30 6782 H 651.565 -2.40712 -2.20738 0
M  V30 6783 H 650.224 -3.63641 -0.46484 0
M  V30 6784 H 649.872 -4.11376 -2.89445 0
M  V30 6785 H 649.572 -5.56058 -1.89929 0
M  V30 6786 H 651.096 -5.4156 -2.82038 0
M  V30 6787 H 652.51 -5.70485 -0.567438 0
M  V30 6788 H 650.907 -5.99867 0.167167 0
M  V30 6789 H 651.977 -4.77078 0.867447 0
M  V30 6790 N 653.32 -0.135238 -1.57019 0
M  V30 6791 C 654.545 0.529343 -2.00531 0
M  V30 6792 C 654.97 1.58391 -1.01459 0
M  V30 6793 O 654.328 1.81296 0.0113986 0
M  V30 6794 C 654.376 1.11748 -3.42848 0
M  V30 6795 O 653.48 2.23267 -3.46736 0
M  V30 6796 H 652.821 0.130669 -0.651016 0
M  V30 6797 H 655.351 -0.228503 -2.0332 0
M  V30 6798 H 655.361 1.44905 -3.81401 0
M  V30 6799 H 654.036 0.345147 -4.14465 0
M  V30 6800 H 652.613 1.91428 -3.20015 0
M  V30 6801 N 654.798 1.5699 0.138552 0
M  V30 6802 C 656.075 1.74741 0.87891 0
M  V30 6803 C 656.455 0.705522 1.98961 0
M  V30 6804 O 655.803 -0.274066 2.2685 0
M  V30 6805 C 656.013 3.1909 1.4136 0
M  V30 6806 C 657.361 3.81023 1.87368 0
M  V30 6807 O 658.385 3.22571 1.51084 0
M  V30 6808 O 657.244 4.83722 2.54312 0
M  V30 6809 H 654.338 0.714781 0.415953 0
M  V30 6810 H 656.884 1.69248 0.123817 0
M  V30 6811 H 655.656 3.86424 0.61579 0
M  V30 6812 H 655.279 3.29043 2.23196 0
M  V30 6813 N 656.276 -0.40816 1.52223 0
M  V30 6814 C 657.687 -0.986929 1.58482 0
M  V30 6815 C 658.038 -1.91521 0.425917 0
M  V30 6816 O 657.163 -2.11593 -0.453593 0
M  V30 6817 C 657.758 -1.7967 2.87235 0
M  V30 6818 C 656.317 -2.32549 2.9597 0
M  V30 6819 C 655.464 -1.12558 2.53428 0
M  V30 6820 H 658.415 -0.188362 1.57578 0
M  V30 6821 H 658.436 -2.65417 2.72642 0
M  V30 6822 H 657.948 -1.12082 3.71563 0
M  V30 6823 H 656.049 -3.03505 2.16137 0
M  V30 6824 H 656.162 -2.63348 4.00231 0
M  V30 6825 H 654.526 -1.47984 2.07299 0
M  V30 6826 H 655.309 -0.465351 3.40131 0
M  V30 6827 N 657.755 -1.42862 -0.66545 0
M  V30 6828 C 658.702 -1.4707 -1.77874 0
M  V30 6829 C 659.672 -0.321654 -1.62956 0
M  V30 6830 O 660.857 -0.52707 -1.83376 0
M  V30 6831 C 657.997 -1.38788 -3.15962 0
M  V30 6832 C 657.11 -2.63801 -3.42101 0
M  V30 6833 C 656.245 -2.47594 -4.69969 0
M  V30 6834 C 655.284 -3.67936 -4.89172 0
M  V30 6835 N 654.421 -3.50614 -6.08288 0
M  V30 6836 H 659.261 -2.42204 -1.73613 0
M  V30 6837 H 656.798 -1.20239 -0.847401 0
M  V30 6838 H 658.756 -1.31982 -3.95773 0
M  V30 6839 H 657.386 -0.472431 -3.19324 0
M  V30 6840 H 656.438 -2.80935 -2.56475 0
M  V30 6841 H 657.75 -3.53228 -3.52181 0
M  V30 6842 H 656.904 -2.38427 -5.57886 0
M  V30 6843 H 655.643 -1.55672 -4.62188 0
M  V30 6844 H 654.648 -3.77525 -3.99694 0
M  V30 6845 H 655.873 -4.60851 -4.98792 0
M  V30 6846 H 653.819 -2.61417 -6.01662 0
M  V30 6847 H 653.736 -4.33634 -6.19272 0
M  V30 6848 H 655.004 -3.45276 -6.98859 0
M  V30 6849 N 659.233 0.902656 -1.29189 0
M  V30 6850 C 660.479 1.65532 -1.17163 0
M  V30 6851 C 660.812 1.92216 0.276879 0
M  V30 6852 O 660.087 1.53048 1.20027 0
M  V30 6853 C 660.37 3.00629 -1.98228 0
M  V30 6854 C 660.223 2.81029 -3.51202 0
M  V30 6855 C 661.542 4.01321 -1.80635 0
M  V30 6856 H 658.661 0.60071 -0.426985 0
M  V30 6857 H 661.303 1.04578 -1.5863 0
M  V30 6858 H 659.453 3.52656 -1.62991 0
M  V30 6859 H 661.125 2.35927 -3.96404 0
M  V30 6860 H 659.368 2.1587 -3.76275 0
M  V30 6861 H 660.039 3.77014 -4.03192 0
M  V30 6862 H 662.515 3.58394 -2.11406 0
M  V30 6863 H 661.391 4.93792 -2.3971 0
M  V30 6864 H 661.652 4.35505 -0.760754 0
M  V30 6865 N 660.711 1.11618 1.11262 0
M  V30 6866 C 661.658 0.7762 2.17356 0
M  V30 6867 C 662.628 -0.253152 1.6416 0
M  V30 6868 O 663.813 -0.129655 1.90359 0
M  V30 6869 C 660.953 0.227581 3.44349 0
M  V30 6870 C 660.066 1.31372 4.1154 0
M  V30 6871 C 659.201 0.72544 5.26223 0
M  V30 6872 C 658.24 1.7913 5.85302 0
M  V30 6873 N 657.377 1.22237 6.91377 0
M  V30 6874 H 662.217 1.68508 2.45783 0
M  V30 6875 H 659.754 0.841475 1.20655 0
M  V30 6876 H 661.712 -0.108483 4.17059 0
M  V30 6877 H 660.342 -0.644486 3.16301 0
M  V30 6878 H 659.394 1.7667 3.36885 0
M  V30 6879 H 660.706 2.12005 4.51504 0
M  V30 6880 H 659.86 0.339541 6.05749 0
M  V30 6881 H 658.599 -0.112188 4.87571 0
M  V30 6882 H 657.604 2.18648 5.04453 0
M  V30 6883 H 658.829 2.63199 6.26022 0
M  V30 6884 H 656.775 0.406423 6.5474 0
M  V30 6885 H 656.692 1.9654 7.30006 0
M  V30 6886 H 657.96 0.863426 7.74703 0
M  V30 6887 N 662.189 -1.289 0.906776 0
M  V30 6888 C 663.099 -2.31256 0.394707 0
M  V30 6889 C 664.115 -1.66231 -0.514121 0
M  V30 6890 O 665.291 -1.97347 -0.401994 0
M  V30 6891 C 662.356 -3.44792 -0.363191 0
M  V30 6892 C 661.417 -4.25391 0.578012 0
M  V30 6893 C 660.65 -5.33506 -0.143811 0
M  V30 6894 O 660.873 -5.53786 -1.36665 0
M  V30 6895 O 659.807 -5.99673 0.5173 0
M  V30 6896 H 663.633 -2.77051 1.24405 0
M  V30 6897 H 661.218 -1.33466 0.671346 0
M  V30 6898 H 663.1 -4.139 -0.791503 0
M  V30 6899 H 661.775 -3.01093 -1.18848 0
M  V30 6900 H 660.682 -3.58899 1.05558 0
M  V30 6901 H 662.015 -4.72752 1.36992 0
M  V30 6902 N 663.667 -0.670007 -1.42649 0
M  V30 6903 C 664.63 0.00204659 -2.292 0
M  V30 6904 C 665.63 0.733817 -1.4308 0
M  V30 6905 O 666.82 0.57254 -1.64522 0
M  V30 6906 C 663.952 1.01359 -3.25483 0
M  V30 6907 H 665.145 -0.759696 -2.90118 0
M  V30 6908 H 662.698 -0.432105 -1.50208 0
M  V30 6909 H 663.433 1.80399 -2.69493 0
M  V30 6910 H 663.218 0.492323 -3.88997 0
M  V30 6911 H 664.708 1.4824 -3.90403 0
M  V30 6912 N 665.145 1.52092 -0.413018 0
M  V30 6913 C 666.075 2.30021 0.401567 0
M  V30 6914 C 667.056 1.34395 1.04269 0
M  V30 6915 O 668.241 1.63304 1.05097 0
M  V30 6916 C 665.371 3.12447 1.51638 0
M  V30 6917 C 664.325 4.16153 1.00005 0
M  V30 6918 C 663.651 4.86948 2.20875 0
M  V30 6919 C 664.951 5.22275 0.0513757 0
M  V30 6920 H 666.645 2.98365 -0.248704 0
M  V30 6921 H 664.191 1.4349 -0.121052 0
M  V30 6922 H 666.144 3.65733 2.09326 0
M  V30 6923 H 664.868 2.41879 2.19458 0
M  V30 6924 H 663.527 3.63882 0.445549 0
M  V30 6925 H 663.175 4.12905 2.8726 0
M  V30 6926 H 662.875 5.57057 1.86978 0
M  V30 6927 H 664.399 5.43048 2.79162 0
M  V30 6928 H 665.813 5.70778 0.537176 0
M  V30 6929 H 664.21 5.9977 -0.198977 0
M  V30 6930 H 665.28 4.76611 -0.892736 0
M  V30 6931 N 666.623 0.143563 1.56945 0
M  V30 6932 C 667.848 -0.518701 2.00809 0
M  V30 6933 C 668.273 -1.5785 1.02298 0
M  V30 6934 O 667.631 -1.813 -0.0017839 0
M  V30 6935 C 667.679 -1.09929 3.43436 0
M  V30 6936 O 666.783 -2.21425 3.47915 0
M  V30 6937 H 666.124 -0.127215 0.6517 0
M  V30 6938 H 668.654 0.239283 2.03196 0
M  V30 6939 H 668.664 -1.4288 3.82164 0
M  V30 6940 H 667.339 -0.323162 4.14643 0
M  V30 6941 H 665.916 -1.89728 3.21026 0
M  V30 6942 N 668.101 -1.57061 -0.130224 0
M  V30 6943 C 669.512 -1.73539 -0.68856 0
M  V30 6944 C 669.863 -0.760554 -1.80859 0
M  V30 6945 O 668.988 0.0690796 -2.1629 0
M  V30 6946 C 669.583 -3.14666 -1.25581 0
M  V30 6947 C 668.142 -3.32689 -1.76055 0
M  V30 6948 C 667.289 -2.69436 -0.655712 0
M  V30 6949 H 670.24 -1.58412 0.0956002 0
M  V30 6950 H 670.261 -3.15595 -2.12556 0
M  V30 6951 H 669.773 -3.85593 -0.440412 0
M  V30 6952 H 667.874 -2.66786 -2.60108 0
M  V30 6953 H 667.987 -4.4077 -1.87772 0
M  V30 6954 H 666.351 -2.30362 -1.08654 0
M  V30 6955 H 667.134 -3.42979 0.14852 0
M  V30 6956 N 669.579 0.400081 -1.52437 0
M  V30 6957 C 670.828 1.14332 -1.66166 0
M  V30 6958 C 671.141 1.91419 -0.402253 0
M  V30 6959 O 672.347 2.6824 -0.419487 0
M  V30 6960 C 670.803 2.08137 -2.9361 0
M  V30 6961 C 670.411 1.36524 -4.26691 0
M  V30 6962 C 672.155 2.82664 -3.16703 0
M  V30 6963 C 670.062 2.29031 -5.45251 0
M  V30 6964 H 668.992 0.430499 -0.61902 0
M  V30 6965 H 671.643 0.407017 -1.78929 0
M  V30 6966 H 670.025 2.85358 -2.74567 0
M  V30 6967 H 671.199 0.646061 -4.56249 0
M  V30 6968 H 669.514 0.74002 -4.09771 0
M  V30 6969 H 672.111 3.52037 -4.0246 0
M  V30 6970 H 672.454 3.46122 -2.31312 0
M  V30 6971 H 672.987 2.12541 -3.36261 0
M  V30 6972 H 669.726 1.70206 -6.33017 0
M  V30 6973 H 669.246 2.98896 -5.2002 0
M  V30 6974 H 670.925 2.89359 -5.78689 0
M  V30 6975 N 671.057 1.43213 0.657864 0
M  V30 6976 C 672.004 1.48011 1.77092 0
M  V30 6977 C 672.974 0.330291 1.62783 0
M  V30 6978 O 674.159 0.536787 1.83094 0
M  V30 6979 C 671.299 1.40461 3.15222 0
M  V30 6980 C 670.412 2.65612 3.40697 0
M  V30 6981 C 669.547 2.50083 4.68649 0
M  V30 6982 C 668.586 3.70525 4.87214 0
M  V30 6983 N 667.723 3.53835 6.0642 0
M  V30 6984 H 672.563 2.43121 1.72326 0
M  V30 6985 H 670.1 1.20687 0.841013 0
M  V30 6986 H 672.058 1.34079 3.95068 0
M  V30 6987 H 670.688 0.489359 3.19069 0
M  V30 6988 H 669.74 2.82292 2.54982 0
M  V30 6989 H 671.052 3.5509 3.50303 0
M  V30 6990 H 670.206 2.41383 5.56614 0
M  V30 6991 H 668.945 1.58121 4.61356 0
M  V30 6992 H 667.95 3.79639 3.97686 0
M  V30 6993 H 669.175 4.63489 4.96341 0
M  V30 6994 H 667.121 2.64604 6.00267 0
M  V30 6995 H 667.038 4.36912 6.16963 0
M  V30 6996 H 668.306 3.48978 6.97019 0
M  V30 6997 N 672.536 -0.895792 1.29666 0
M  V30 6998 C 673.783 -1.64664 1.17864 0
M  V30 6999 C 674.111 -1.92631 -0.26902 0
M  V30 7000 O 673.366 -1.53787 -1.21029 0
M  V30 7001 C 673.665 -3.00075 1.94139 0
M  V30 7002 C 673.331 -2.91702 3.43833 0
M  V30 7003 C 671.993 -2.89126 3.84656 0
M  V30 7004 C 674.345 -2.80622 4.39205 0
M  V30 7005 C 671.673 -2.73293 5.1916 0
M  V30 7006 C 674.025 -2.66329 5.73805 0
M  V30 7007 C 672.689 -2.62121 6.1388 0
M  V30 7008 H 671.959 -0.602549 0.431295 0
M  V30 7009 H 674.606 -1.04234 1.60648 0
M  V30 7010 H 672.911 -3.64394 1.43958 0
M  V30 7011 H 674.608 -3.57111 1.82408 0
M  V30 7012 H 671.198 -2.94511 3.11386 0
M  V30 7013 H 675.382 -2.81686 4.08615 0
M  V30 7014 H 670.638 -2.68443 5.49316 0
M  V30 7015 H 674.812 -2.56727 6.47352 0
M  V30 7016 H 672.439 -2.49611 7.18052 0
M  V30 7017 N 674.014 -1.12206 -1.10668 0
M  V30 7018 C 674.962 -0.782918 -2.19028 0
M  V30 7019 C 675.956 0.229175 -1.67843 0
M  V30 7020 O 677.162 0.0876295 -1.79787 0
M  V30 7021 H 673.537 -0.235339 -0.714227 0
M  V30 7022 H 675.508 -1.70527 -2.44874 0
M  V30 7023 C 674.257 -0.25116 -3.46792 0
M  V30 7024 H 673.58 -1.02123 -3.86537 0
M  V30 7025 H 675.02 -0.0521409 -4.23968 0
M  V30 7026 C 673.479 1.02037 -3.21076 0
M  V30 7027 O 674.009 2.09862 -3.42522 0
M  V30 7028 N 672.215 0.946348 -2.74759 0
M  V30 7029 H 671.762 0.068777 -2.57508 0
M  V30 7030 H 671.72 1.79775 -2.57931 0
M  V30 7031 N 675.492 1.28418 -0.913599 0
M  V30 7032 C 676.908 1.47411 -0.611728 0
M  V30 7033 C 677.108 1.83018 0.843008 0
M  V30 7034 O 676.164 1.93505 1.6221 0
M  V30 7035 C 677.477 2.57703 -1.5495 0
M  V30 7036 C 679.025 2.71572 -1.5562 0
M  V30 7037 C 679.5 3.85008 -2.48058 0
M  V30 7038 N 680.991 3.92361 -2.46184 0
M  V30 7039 C 681.726 4.79516 -3.14407 0
M  V30 7040 N 681.222 5.71262 -3.91958 0
M  V30 7041 N 683.015 4.73125 -3.03495 0
M  V30 7042 H 675.166 1.03585 -1.85429 0
M  V30 7043 H 677.429 0.515907 -0.795326 0
M  V30 7044 H 677.135 2.38298 -2.58663 0
M  V30 7045 H 677.009 3.54801 -1.28048 0
M  V30 7046 H 679.396 2.90366 -0.526441 0
M  V30 7047 H 679.477 1.75006 -1.86565 0
M  V30 7048 H 679.121 3.66969 -3.51136 0
M  V30 7049 H 679.051 4.80971 -2.14416 0
M  V30 7050 H 681.542 3.26749 -1.89851 0
M  V30 7051 H 681.855 6.34593 -4.41034 0
M  V30 7052 H 680.2 5.71103 -3.96063 0
M  V30 7053 H 683.391 4.00442 -2.42413 0
M  V30 7054 H 683.564 5.40834 -3.56935 0
M  V30 7055 N 676.97 0.677563 1.42291 0
M  V30 7056 C 678.216 0.209962 2.02313 0
M  V30 7057 C 678.571 -1.1714 1.52631 0
M  V30 7058 O 677.864 -1.7756 0.719938 0
M  V30 7059 C 678.058 0.187229 3.56909 0
M  V30 7060 C 677.887 1.56484 4.21595 0
M  V30 7061 C 676.657 2.16329 4.56651 0
M  V30 7062 C 678.855 2.50805 4.49 0
M  V30 7063 N 676.837 3.46842 5.06531 0
M  V30 7064 C 678.208 3.65976 5.00461 0
M  V30 7065 C 680.263 2.493 4.30992 0
M  V30 7066 C 678.966 4.79899 5.35807 0
M  V30 7067 C 680.992 3.62322 4.67415 0
M  V30 7068 C 680.354 4.76221 5.19031 0
M  V30 7069 H 676.453 0.121815 0.772454 0
M  V30 7070 H 679.037 0.891148 1.73109 0
M  V30 7071 H 677.208 -0.46338 3.85626 0
M  V30 7072 H 678.94 -0.293512 4.03634 0
M  V30 7073 H 675.695 1.6879 4.42501 0
M  V30 7074 H 676.119 4.13694 5.35898 0
M  V30 7075 H 680.761 1.62467 3.90339 0
M  V30 7076 H 678.479 5.67406 5.75392 0
M  V30 7077 H 682.065 3.62388 4.55155 0
M  V30 7078 H 680.945 5.62228 5.46689 0
M  V30 7079 N 678.448 -1.51871 0.421078 0
M  V30 7080 C 679.696 -2.01539 -0.150492 0
M  V30 7081 C 680.017 -1.30803 -1.44623 0
M  V30 7082 O 679.287 -0.437568 -1.90951 0
M  V30 7083 H 677.867 -0.744698 -0.0586041 0
M  V30 7084 H 680.529 -1.8668 0.560059 0
M  V30 7085 H 679.625 -3.10264 -0.338068 0
M  V30 7086 N 679.926 -0.151884 -1.56866 0
M  V30 7087 C 680.856 0.781943 -2.20018 0
M  V30 7088 C 681.837 1.25347 -1.14987 0
M  V30 7089 O 683.022 1.31015 -1.43348 0
M  V30 7090 C 680.152 2.01928 -2.82564 0
M  V30 7091 C 679.106 1.68434 -3.93464 0
M  V30 7092 C 678.432 2.99472 -4.42968 0
M  V30 7093 C 679.732 0.927244 -5.14003 0
M  V30 7094 H 681.426 0.255607 -2.98307 0
M  V30 7095 H 678.972 0.121502 -1.43486 0
M  V30 7096 H 680.925 2.67741 -3.25411 0
M  V30 7097 H 679.649 2.56943 -2.01614 0
M  V30 7098 H 678.308 1.04998 -3.51242 0
M  V30 7099 H 677.956 3.52488 -3.58834 0
M  V30 7100 H 677.656 2.77823 -5.17772 0
M  V30 7101 H 679.18 3.66348 -4.88489 0
M  V30 7102 H 680.594 1.48756 -5.53665 0
M  V30 7103 H 678.991 0.810513 -5.94601 0
M  V30 7104 H 680.061 -0.0801163 -4.84834 0
M  V30 7105 N 681.404 1.57128 0.121893 0
M  V30 7106 C 682.815 1.73902 0.679348 0
M  V30 7107 C 683.166 0.770135 1.80453 0
M  V30 7108 O 682.291 -0.0576083 2.16323 0
M  V30 7109 C 682.886 3.15328 1.2391 0
M  V30 7110 C 681.445 3.33618 1.74288 0
M  V30 7111 C 680.592 2.6978 0.641414 0
M  V30 7112 H 683.543 1.58359 -0.104 0
M  V30 7113 H 683.564 3.16718 2.10879 0
M  V30 7114 H 683.076 3.85821 0.419957 0
M  V30 7115 H 681.177 2.68162 2.58689 0
M  V30 7116 H 681.29 4.4176 1.85432 0
M  V30 7117 H 679.654 2.30935 1.0743 0
M  V30 7118 H 680.437 3.42895 -0.166707 0
M  V30 7119 N 682.882 -0.391992 1.52647 0
M  V30 7120 C 683.792 -1.503 1.80131 0
M  V30 7121 C 684.808 -1.59825 0.687882 0
M  V30 7122 O 685.984 -1.76218 0.975149 0
M  V30 7123 C 683.049 -2.85863 1.96171 0
M  V30 7124 C 682.11 -2.86084 3.20085 0
M  V30 7125 C 681.343 -4.15181 3.35351 0
M  V30 7126 O 681.566 -5.09981 2.55491 0
M  V30 7127 O 680.5 -4.22603 4.28591 0
M  V30 7128 H 684.326 -1.30007 2.74466 0
M  V30 7129 H 681.911 -0.579539 1.37701 0
M  V30 7130 H 683.793 -3.66236 2.08445 0
M  V30 7131 H 682.468 -3.06189 1.05025 0
M  V30 7132 H 681.375 -2.04504 3.13256 0
M  V30 7133 H 682.708 -2.7071 4.11068 0
M  V30 7134 N 684.36 -1.4356 -0.65026 0
M  V30 7135 C 685.606 -1.45549 -1.41221 0
M  V30 7136 C 685.939 -0.0805472 -1.94033 0
M  V30 7137 O 685.214 0.899043 -1.72475 0
M  V30 7138 C 685.497 -2.50028 -2.59148 0
M  V30 7139 C 685.35 -3.96808 -2.1181 0
M  V30 7140 C 686.669 -2.51212 -3.61359 0
M  V30 7141 H 683.788 -0.529967 -0.512156 0
M  V30 7142 H 686.43 -1.75127 -0.736933 0
M  V30 7143 H 684.58 -2.24937 -3.16758 0
M  V30 7144 H 686.252 -4.32966 -1.59178 0
M  V30 7145 H 684.495 -4.09498 -1.43156 0
M  V30 7146 H 685.166 -4.6553 -2.96625 0
M  V30 7147 H 687.642 -2.73583 -3.13515 0
M  V30 7148 H 686.518 -3.26252 -4.41419 0
M  V30 7149 H 686.779 -1.54701 -4.1415 0
M  V30 7150 N 685.838 0.888903 -1.30139 0
M  V30 7151 C 687.115 1.62145 -1.094 0
M  V30 7152 C 687.495 2.08041 0.358091 0
M  V30 7153 O 686.843 1.84438 1.34888 0
M  V30 7154 C 687.053 2.794 -2.09133 0
M  V30 7155 C 688.401 3.49826 -2.40638 0
M  V30 7156 O 689.425 2.89583 -2.07412 0
M  V30 7157 O 688.284 4.58457 -2.97455 0
M  V30 7158 H 685.378 0.712475 -0.41989 0
M  V30 7159 H 687.924 0.936023 -1.41551 0
M  V30 7160 H 686.696 2.42762 -3.06891 0
M  V30 7161 H 686.319 3.55643 -1.77776 0
M  V30 7162 N 687.317 1.12792 1.10072 0
M  V30 7163 C 688.728 0.899346 1.63611 0
M  V30 7164 C 689.079 -0.565547 1.87872 0
M  V30 7165 O 688.204 -1.43081 1.62348 0
M  V30 7166 C 688.799 1.62608 2.97227 0
M  V30 7167 C 687.358 1.44356 3.47618 0
M  V30 7168 C 686.505 1.65958 2.22156 0
M  V30 7169 H 689.456 1.28216 0.935223 0
M  V30 7170 H 689.477 1.0793 3.64872 0
M  V30 7171 H 688.989 2.69221 2.79538 0
M  V30 7172 H 687.09 0.400148 3.70445 0
M  V30 7173 H 687.203 2.20218 4.25489 0
M  V30 7174 H 685.567 1.08395 2.30484 0
M  V30 7175 H 686.35 2.73877 2.06993 0
M  V30 7176 N 688.795 -1.27931 0.920396 0
M  V30 7177 C 689.705 -2.30824 0.419212 0
M  V30 7178 C 690.721 -1.66767 -0.496461 0
M  V30 7179 O 691.897 -1.97763 -0.38104 0
M  V30 7180 C 688.962 -3.45158 -0.326601 0
M  V30 7181 C 688.023 -4.24754 0.623098 0
M  V30 7182 C 687.256 -5.33629 -0.0872172 0
M  V30 7183 O 687.479 -5.55204 -1.30784 0
M  V30 7184 O 686.413 -5.99091 0.580875 0
M  V30 7185 H 690.239 -2.75716 1.27337 0
M  V30 7186 H 687.824 -1.32747 0.685465 0
M  V30 7187 H 689.706 -4.14716 -0.747559 0
M  V30 7188 H 688.381 -3.02336 -1.15648 0
M  V30 7189 H 687.288 -3.57759 1.09359 0
M  V30 7190 H 688.621 -4.71272 1.41998 0
M  V30 7191 N 690.273 -0.685099 -1.4193 0
M  V30 7192 C 691.501 -0.220372 -2.05723 0
M  V30 7193 C 691.916 1.12642 -1.51516 0
M  V30 7194 O 691.273 1.70182 -0.659114 0
M  V30 7195 C 691.324 -0.157974 -3.61155 0
M  V30 7196 O 691.045 -1.45156 -4.13354 0
M  V30 7197 C 692.546 0.329009 -4.42077 0
M  V30 7198 H 689.766 -0.104725 -0.662777 0
M  V30 7199 H 692.31 -0.934736 -1.81887 0
M  V30 7200 H 690.465 0.507144 -3.84066 0
M  V30 7201 H 690.879 -1.33172 -5.07312 0
M  V30 7202 H 692.353 0.321559 -5.51063 0
M  V30 7203 H 692.83 1.36608 -4.17414 0
M  V30 7204 H 693.436 -0.304737 -4.24207 0
M  V30 7205 N 691.751 1.51645 -0.429126 0
M  V30 7206 C 692.684 2.24083 0.431492 0
M  V30 7207 C 693.662 1.25691 1.03153 0
M  V30 7208 O 694.846 1.54802 1.07557 0
M  V30 7209 C 691.973 2.9849 1.60067 0
M  V30 7210 C 691.019 4.11474 1.12211 0
M  V30 7211 S 691.852 5.35453 0.0708449 0
M  V30 7212 C 693.008 6.13395 1.24488 0
M  V30 7213 H 693.241 2.96733 -0.183525 0
M  V30 7214 H 690.774 1.52916 -0.213574 0
M  V30 7215 H 692.732 3.4196 2.27099 0
M  V30 7216 H 691.393 2.25445 2.18708 0
M  V30 7217 H 690.586 4.62784 1.99618 0
M  V30 7218 H 690.188 3.70223 0.530149 0
M  V30 7219 H 692.48 6.41984 2.16479 0
M  V30 7220 H 693.423 7.0388 0.771921 0
M  V30 7221 H 693.831 5.44761 1.47973 0
M  V30 7222 N 693.229 0.160201 1.56784 0
M  V30 7223 C 694.161 -0.80564 2.14574 0
M  V30 7224 C 695.174 -1.20154 1.09849 0
M  V30 7225 O 696.363 -1.14333 1.37078 0
M  V30 7226 C 693.463 -2.09434 2.6644 0
M  V30 7227 C 692.636 -1.86375 3.95706 0
M  V30 7228 C 691.695 -2.99358 4.32749 0
M  V30 7229 O 690.721 -2.70475 5.00831 0
M  V30 7230 N 691.923 -4.26867 3.93402 0
M  V30 7231 H 694.688 -0.311644 2.98075 0
M  V30 7232 H 692.249 -0.0229465 1.61884 0
M  V30 7233 H 694.241 -2.84091 2.88226 0
M  V30 7234 H 692.811 -2.50057 1.8759 0
M  V30 7235 H 692.031 -0.956821 3.82412 0
M  V30 7236 H 693.319 -1.68322 4.80151 0
M  V30 7237 H 692.717 -4.53197 3.38569 0
M  V30 7238 H 691.274 -4.98263 4.20211 0
M  V30 7239 N 694.707 -1.5719 -0.113559 0
M  V30 7240 C 695.935 -1.89328 -0.834422 0
M  V30 7241 C 696.35 -0.752018 -1.73177 0
M  V30 7242 O 695.707 0.276912 -1.80387 0
M  V30 7243 C 695.758 -3.20962 -1.66329 0
M  V30 7244 O 695.479 -4.30695 -0.802069 0
M  V30 7245 C 696.98 -3.6684 -2.48884 0
M  V30 7246 H 694.2 -0.626769 -0.239587 0
M  V30 7247 H 696.744 -2.04273 -0.0963195 0
M  V30 7248 H 694.899 -3.0767 -2.35409 0
M  V30 7249 H 695.313 -5.06175 -1.37431 0
M  V30 7250 H 696.787 -4.61692 -3.02563 0
M  V30 7251 H 697.264 -2.93765 -3.26495 0
M  V30 7252 H 697.87 -3.82938 -1.85036 0
M  V30 7253 N 696.185 0.383891 -1.52853 0
M  V30 7254 C 697.41 1.154 -1.7233 0
M  V30 7255 C 697.835 1.82809 -0.44298 0
M  V30 7256 O 697.193 1.71026 0.601645 0
M  V30 7257 C 697.241 2.17386 -2.87708 0
M  V30 7258 O 696.345 3.24082 -2.55038 0
M  V30 7259 H 695.686 0.335709 -0.572883 0
M  V30 7260 H 698.216 0.44662 -1.99666 0
M  V30 7261 H 698.226 2.61296 -3.1335 0
M  V30 7262 H 696.901 1.6771 -3.80587 0
M  V30 7263 H 695.478 2.85273 -2.40153 0
M  V30 7264 N 697.663 1.43903 0.642637 0
M  V30 7265 C 698.573 1.52349 1.78401 0
M  V30 7266 C 699.589 0.409869 1.69104 0
M  V30 7267 O 700.765 0.665548 1.90085 0
M  V30 7268 C 697.83 1.45408 3.14734 0
M  V30 7269 C 696.891 2.67528 3.35749 0
M  V30 7270 C 696.124 2.60909 4.65577 0
M  V30 7271 O 696.347 1.6627 5.45628 0
M  V30 7272 O 695.281 3.5158 4.88544 0
M  V30 7273 H 699.107 2.48752 1.7423 0
M  V30 7274 H 696.692 1.26021 0.802439 0
M  V30 7275 H 698.574 1.44019 3.96026 0
M  V30 7276 H 697.249 0.521437 3.19473 0
M  V30 7277 H 696.156 2.74487 2.5418 0
M  V30 7278 H 697.489 3.598 3.35864 0
M  V30 7279 N 699.141 -0.881989 1.30609 0
M  V30 7280 C 700.104 -1.96957 1.1722 0
M  V30 7281 C 701.104 -1.60472 0.102598 0
M  V30 7282 O 702.294 -1.70628 0.350943 0
M  V30 7283 C 699.426 -3.31463 0.796572 0
M  V30 7284 H 700.619 -2.10262 2.13846 0
M  V30 7285 H 698.172 -1.06877 1.14048 0
M  V30 7286 H 698.907 -3.23859 -0.169053 0
M  V30 7287 H 698.692 -3.59314 1.56959 0
M  V30 7288 H 700.182 -4.11233 0.72645 0
M  V30 7289 N 700.619 -1.13374 -1.09472 0
M  V30 7290 C 701.865 -0.906459 -1.82085 0
M  V30 7291 C 702.22 0.5614 -1.84027 0
M  V30 7292 O 701.513 1.41012 -1.29716 0
M  V30 7293 C 701.707 -1.42759 -3.2765 0
M  V30 7294 C 701.536 -2.94459 -3.39888 0
M  V30 7295 C 700.306 -3.62798 -3.51718 0
M  V30 7296 C 702.504 -3.92398 -3.32457 0
M  V30 7297 N 700.486 -5.02516 -3.52635 0
M  V30 7298 C 701.857 -5.18304 -3.40237 0
M  V30 7299 C 703.912 -3.84671 -3.16122 0
M  V30 7300 C 702.615 -6.37386 -3.33364 0
M  V30 7301 C 704.641 -5.03287 -3.10574 0
M  V30 7302 C 704.003 -6.28055 -3.18945 0
M  V30 7303 H 700.102 -0.385097 -0.680606 0
M  V30 7304 H 702.686 -1.44187 -1.30836 0
M  V30 7305 H 700.857 -0.919102 -3.77369 0
M  V30 7306 H 702.589 -1.14136 -3.88272 0
M  V30 7307 H 699.344 -3.13317 -3.55147 0
M  V30 7308 H 699.768 -5.75421 -3.56679 0
M  V30 7309 H 704.41 -2.89094 -3.0852 0
M  V30 7310 H 702.128 -7.33219 -3.3973 0
M  V30 7311 H 705.714 -4.99047 -2.9907 0
M  V30 7312 H 704.594 -7.18299 -3.14668 0
M  V30 7313 N 702.098 1.27442 -0.927168 0
M  V30 7314 C 703.344 1.94679 -0.568164 0
M  V30 7315 C 703.677 1.72697 0.888219 0
M  V30 7316 O 702.952 1.05573 1.63354 0
M  V30 7317 C 703.235 3.4882 -0.894253 0
M  V30 7318 C 703.088 3.80146 -2.40435 0
M  V30 7319 C 704.407 4.38281 -0.399766 0
M  V30 7320 H 701.526 0.707071 -0.207892 0
M  V30 7321 H 704.168 1.50568 -1.15885 0
M  V30 7322 H 702.318 3.86522 -0.391566 0
M  V30 7323 H 703.99 3.52238 -2.97869 0
M  V30 7324 H 702.233 3.26716 -2.85375 0
M  V30 7325 H 702.904 4.87835 -2.58304 0
M  V30 7326 H 705.38 4.07726 -0.83058 0
M  V30 7327 H 704.256 5.44955 -0.656885 0
M  V30 7328 H 704.517 4.36521 0.700153 0
M  V30 7329 N 703.576 0.692616 1.41565 0
M  V30 7330 C 704.823 0.222335 2.01276 0
M  V30 7331 C 705.151 -1.17706 1.5484 0
M  V30 7332 O 704.406 -1.80795 0.749118 0
M  V30 7333 C 704.705 0.225073 3.56691 0
M  V30 7334 C 704.371 1.57158 4.22625 0
M  V30 7335 C 703.033 1.94022 4.40351 0
M  V30 7336 C 705.385 2.45758 4.59622 0
M  V30 7337 C 702.713 3.19076 4.92349 0
M  V30 7338 C 705.065 3.70141 5.13009 0
M  V30 7339 C 703.729 4.07152 5.28946 0
M  V30 7340 H 702.999 0.0813581 0.73652 0
M  V30 7341 H 705.646 0.891123 1.69503 0
M  V30 7342 H 703.951 -0.527259 3.88236 0
M  V30 7343 H 705.648 -0.156283 4.00695 0
M  V30 7344 H 702.238 1.27486 4.09201 0
M  V30 7345 H 706.422 2.18558 4.45585 0
M  V30 7346 H 701.678 3.4775 5.02872 0
M  V30 7347 H 705.852 4.38983 5.40617 0
M  V30 7348 H 703.479 5.04125 5.69001 0
M  V30 7349 N 705.054 -1.51416 0.437162 0
M  V30 7350 C 706.017 -2.26312 -0.362729 0
M  V30 7351 C 707.017 -1.29748 -0.949847 0
M  V30 7352 O 708.207 -1.53462 -0.824325 0
M  V30 7353 C 705.339 -3.05475 -1.5132 0
M  V30 7354 H 706.532 -2.98459 0.29365 0
M  V30 7355 H 704.085 -1.55137 0.190327 0
M  V30 7356 H 704.82 -2.37744 -2.20563 0
M  V30 7357 H 704.605 -3.76401 -1.09838 0
M  V30 7358 H 706.095 -3.62209 -2.07833 0
M  V30 7359 N 706.532 -0.168513 -1.56696 0
M  V30 7360 C 707.78 0.476216 -1.96409 0
M  V30 7361 C 708.101 1.63968 -1.05544 0
M  V30 7362 O 707.371 1.95525 -0.121235 0
M  V30 7363 H 705.951 0.178921 -0.725256 0
M  V30 7364 H 708.613 -0.249042 -1.93302 0
M  V30 7365 H 707.709 0.838094 -3.00637 0
M  V30 7366 N 708.01 1.57248 0.105221 0
M  V30 7367 C 709.258 1.85204 0.808951 0
M  V30 7368 C 709.579 0.75574 1.7976 0
M  V30 7369 O 708.849 -0.218984 1.94672 0
M  V30 7370 H 707.429 0.683346 0.301739 0
M  V30 7371 H 710.091 1.94695 0.0892605 0
M  V30 7372 H 709.187 2.81595 1.34575 0
M  V30 7373 N 709.488 -0.375779 1.53054 0
M  V30 7374 C 710.765 -1.13453 1.59336 0
M  V30 7375 C 711.145 -2.07379 0.394614 0
M  V30 7376 O 710.493 -2.2004 -0.616 0
M  V30 7377 C 710.703 -1.8826 2.93869 0
M  V30 7378 C 712.051 -2.43155 3.48081 0
M  V30 7379 O 713.075 -1.984 2.95831 0
M  V30 7380 O 711.934 -3.24944 4.39401 0
M  V30 7381 H 709.028 -0.519856 0.643179 0
M  V30 7382 H 711.574 -0.379865 1.65394 0
M  V30 7383 H 710.346 -1.19652 3.72558 0
M  V30 7384 H 709.969 -2.70658 2.91256 0
M  V30 7385 N 710.966 -1.44241 -0.634997 0
M  V30 7386 C 712.212 -1.47038 -1.39669 0
M  V30 7387 C 712.545 -0.101122 -1.93937 0
M  V30 7388 O 711.82 0.880699 -1.73418 0
M  V30 7389 C 712.103 -2.52763 -2.56482 0
M  V30 7390 C 711.956 -3.99032 -2.07589 0
M  V30 7391 C 713.275 -2.55031 -3.58674 0
M  V30 7392 H 710.394 -0.53537 -0.506506 0
M  V30 7393 H 713.036 -1.75898 -0.718317 0
M  V30 7394 H 711.186 -2.28284 -3.14354 0
M  V30 7395 H 712.858 -4.3463 -1.54577 0
M  V30 7396 H 711.101 -4.10994 -1.38804 0
M  V30 7397 H 711.772 -4.68649 -2.91671 0
M  V30 7398 H 714.248 -2.76893 -3.10595 0
M  V30 7399 H 713.124 -3.30916 -4.37934 0
M  V30 7400 H 713.385 -1.59085 -4.12486 0
M  V30 7401 N 712.444 0.87505 -1.31075 0
M  V30 7402 C 713.69 1.63009 -1.20647 0
M  V30 7403 C 714.023 1.9276 0.236045 0
M  V30 7404 O 713.298 1.55559 1.16754 0
M  V30 7405 C 713.581 2.96357 -2.0456 0
M  V30 7406 C 713.434 2.73516 -3.57084 0
M  V30 7407 C 714.753 3.974 -1.89107 0
M  V30 7408 H 711.872 0.591518 -0.439631 0
M  V30 7409 H 714.514 1.0119 -1.60812 0
M  V30 7410 H 712.664 3.49119 -1.70435 0
M  V30 7411 H 714.336 2.27465 -4.01319 0
M  V30 7412 H 712.579 2.0784 -3.80769 0
M  V30 7413 H 713.25 3.68377 -4.11099 0
M  V30 7414 H 715.726 3.5383 -2.18961 0
M  V30 7415 H 714.602 4.88596 -2.5013 0
M  V30 7416 H 714.863 4.33794 -0.85296 0
M  V30 7417 N 713.922 1.13953 1.08869 0
M  V30 7418 C 715.17 0.903023 1.80803 0
M  V30 7419 C 715.491 -0.572151 1.86417 0
M  V30 7420 O 714.761 -1.41589 1.35386 0
M  V30 7421 H 713.341 0.331099 0.669614 0
M  V30 7422 H 716.003 1.43719 1.31647 0
M  V30 7423 H 715.099 1.29881 2.83791 0
M  V30 7424 N 715.4 -1.26948 0.933913 0
M  V30 7425 C 716.33 -2.29017 0.45534 0
M  V30 7426 C 717.311 -1.62961 -0.487605 0
M  V30 7427 O 718.496 -1.90223 -0.391022 0
M  V30 7428 C 715.626 -3.46112 -0.287015 0
M  V30 7429 C 714.58 -4.24205 0.568682 0
M  V30 7430 C 713.906 -5.3384 -0.303206 0
M  V30 7431 C 715.206 -4.88954 1.83633 0
M  V30 7432 H 716.9 -2.69298 1.30839 0
M  V30 7433 H 714.446 -1.29459 0.630579 0
M  V30 7434 H 716.399 -4.16622 -0.6328 0
M  V30 7435 H 715.123 -3.04765 -1.17414 0
M  V30 7436 H 713.782 -3.5545 0.897261 0
M  V30 7437 H 713.43 -4.88734 -1.18947 0
M  V30 7438 H 713.13 -5.86998 0.265879 0
M  V30 7439 H 714.654 -6.0719 -0.644423 0
M  V30 7440 H 716.068 -5.51717 1.55823 0
M  V30 7441 H 714.465 -5.52198 2.34941 0
M  V30 7442 H 715.535 -4.12305 2.55211 0
M  V30 7443 N 716.879 -0.700114 -1.41195 0
M  V30 7444 C 717.842 -0.0465706 -2.29153 0
M  V30 7445 C 718.842 0.703302 -1.44604 0
M  V30 7446 O 720.032 0.537513 -1.657 0
M  V30 7447 C 717.164 0.944324 -3.2756 0
M  V30 7448 H 718.357 -0.821064 -2.88442 0
M  V30 7449 H 715.91 -0.463869 -1.49258 0
M  V30 7450 H 716.645 1.74642 -2.73259 0
M  V30 7451 H 716.43 0.409701 -3.89954 0
M  V30 7452 H 717.92 1.39925 -3.9346 0
M  V30 7453 N 718.357 1.51182 -0.445186 0
M  V30 7454 C 719.305 2.29531 0.376597 0
M  V30 7455 C 720.299 1.35711 1.01385 0
M  V30 7456 O 721.505 1.53018 0.947922 0
M  V30 7457 H 717.88 0.738803 0.140267 0
M  V30 7458 H 719.851 2.96838 -0.304958 0
M  V30 7459 C 718.6 3.1552 1.4609 0
M  V30 7460 H 717.923 3.87605 0.979912 0
M  V30 7461 H 719.363 3.73384 2.009 0
M  V30 7462 C 717.822 2.31406 2.44852 0
M  V30 7463 O 718.352 1.97912 3.49562 0
M  V30 7464 N 716.558 1.94478 2.15932 0
M  V30 7465 H 716.105 2.21917 1.30808 0
M  V30 7466 H 716.063 1.38498 2.82251 0
M  V30 7467 N 719.835 0.176821 1.56605 0
M  V30 7468 C 721.063 -0.472828 2.01425 0
M  V30 7469 C 721.478 -1.56436 1.05703 0
M  V30 7470 O 720.835 -1.82405 0.058808 0
M  V30 7471 C 720.886 -1.04607 3.46034 0
M  V30 7472 O 720.607 0.00189608 4.381 0
M  V30 7473 C 722.108 -1.7734 4.06282 0
M  V30 7474 H 719.328 -0.120503 0.660091 0
M  V30 7475 H 721.872 0.280166 2.02572 0
M  V30 7476 H 720.027 -1.74953 3.45645 0
M  V30 7477 H 720.441 -0.422118 5.22799 0
M  V30 7478 H 721.915 -2.12703 5.09374 0
M  V30 7479 H 722.392 -2.67043 3.4869 0
M  V30 7480 H 722.998 -1.11623 4.10391 0
M  V30 7481 N 721.313 -1.57302 -0.09688 0
M  V30 7482 C 722.541 -1.90202 -0.814295 0
M  V30 7483 C 722.956 -0.770344 -1.72369 0
M  V30 7484 O 722.313 0.257764 -1.8067 0
M  V30 7485 C 722.364 -3.22708 -1.62916 0
M  V30 7486 O 722.085 -4.31522 -0.756343 0
M  V30 7487 C 723.586 -3.69459 -2.44979 0
M  V30 7488 H 720.806 -0.629275 -0.232925 0
M  V30 7489 H 723.35 -2.04364 -0.0746482 0
M  V30 7490 H 721.505 -3.1015 -2.32133 0
M  V30 7491 H 721.919 -5.07604 -1.32054 0
M  V30 7492 H 723.393 -4.64875 -2.9765 0
M  V30 7493 H 723.87 -2.97211 -3.23361 0
M  V30 7494 H 724.476 -3.84879 -1.80964 0
M  V30 7495 N 722.791 0.367657 -1.53252 0
M  V30 7496 C 724.037 1.11216 -1.69584 0
M  V30 7497 C 724.37 1.89026 -0.445269 0
M  V30 7498 O 723.645 1.86342 0.557404 0
M  V30 7499 C 723.928 2.07308 -2.94441 0
M  V30 7500 C 723.781 1.3312 -4.2965 0
M  V30 7501 C 725.1 3.07459 -3.14892 0
M  V30 7502 H 722.219 0.40294 -0.617096 0
M  V30 7503 H 724.861 0.393201 -1.85887 0
M  V30 7504 H 723.011 2.68617 -2.80673 0
M  V30 7505 H 724.683 0.746111 -4.55226 0
M  V30 7506 H 722.926 0.633051 -4.29156 0
M  V30 7507 H 723.597 2.03443 -5.13142 0
M  V30 7508 H 726.073 2.56252 -3.27832 0
M  V30 7509 H 724.949 3.71919 -4.03693 0
M  V30 7510 H 725.21 3.77514 -2.30077 0
M  V30 7511 N 724.269 1.44576 0.627338 0
M  V30 7512 C 725.179 1.54232 1.76776 0
M  V30 7513 C 726.195 0.427782 1.6866 0
M  V30 7514 O 727.371 0.685671 1.89369 0
M  V30 7515 C 724.436 1.48738 3.13174 0
M  V30 7516 C 723.497 2.71074 3.32893 0
M  V30 7517 C 722.73 2.65832 4.62784 0
M  V30 7518 O 722.953 1.72048 5.43834 0
M  V30 7519 O 721.887 3.56742 4.84787 0
M  V30 7520 H 725.713 2.50586 1.71582 0
M  V30 7521 H 723.298 1.26865 0.789028 0
M  V30 7522 H 725.18 1.48211 3.94476 0
M  V30 7523 H 723.855 0.555292 3.18902 0
M  V30 7524 H 722.762 2.77168 2.51254 0
M  V30 7525 H 724.095 3.63342 3.32029 0
M  V30 7526 N 725.747 -0.868086 1.31537 0
M  V30 7527 C 726.972 -1.65926 1.24432 0
M  V30 7528 C 727.397 -1.87169 -0.186936 0
M  V30 7529 O 726.755 -1.4148 -1.13371 0
M  V30 7530 C 726.803 -3.00347 1.9956 0
M  V30 7531 O 725.907 -3.90221 1.33422 0
M  V30 7532 H 725.248 -0.506375 0.429512 0
M  V30 7533 H 727.778 -1.0822 1.73637 0
M  V30 7534 H 727.788 -3.50269 2.09226 0
M  V30 7535 H 726.463 -2.84205 3.03645 0
M  V30 7536 H 725.04 -3.48672 1.32219 0
M  V30 7537 N 727.225 -1.14528 -1.08264 0
M  V30 7538 C 728.471 -0.91576 -1.80947 0
M  V30 7539 C 728.804 0.55623 -1.86064 0
M  V30 7540 O 728.079 1.41207 -1.33756 0
M  V30 7541 C 728.362 -1.51917 -3.26486 0
M  V30 7542 C 728.215 -3.06111 -3.2957 0
M  V30 7543 C 729.534 -1.19724 -4.23502 0
M  V30 7544 H 726.653 -0.334113 -0.656915 0
M  V30 7545 H 729.295 -1.41547 -1.26746 0
M  V30 7546 H 727.445 -1.0942 -3.72773 0
M  V30 7547 H 729.117 -3.57448 -2.91597 0
M  V30 7548 H 727.36 -3.40483 -2.688 0
M  V30 7549 H 728.031 -3.43438 -4.32151 0
M  V30 7550 H 730.507 -1.56467 -3.85561 0
M  V30 7551 H 729.383 -1.64575 -5.23647 0
M  V30 7552 H 729.644 -0.112771 -4.41956 0
M  V30 7553 N 728.703 1.26451 -0.940633 0
M  V30 7554 C 729.651 2.28389 -0.440581 0
M  V30 7555 C 730.645 1.62402 0.481859 0
M  V30 7556 O 731.851 1.76361 0.360132 0
M  V30 7557 H 728.226 0.741716 -0.123938 0
M  V30 7558 H 730.197 2.67967 -1.31288 0
M  V30 7559 C 728.946 3.46576 0.279364 0
M  V30 7560 H 728.269 3.97574 -0.421274 0
M  V30 7561 H 729.709 4.19826 0.59348 0
M  V30 7562 C 728.168 3.01815 1.49697 0
M  V30 7563 O 728.698 3.06607 2.59529 0
M  V30 7564 N 726.904 2.57163 1.35334 0
M  V30 7565 H 726.451 2.53464 0.459743 0
M  V30 7566 H 726.409 2.27578 2.16923 0
M  V30 7567 N 730.181 0.707592 1.40822 0
M  V30 7568 C 731.458 0.171172 1.9485 0
M  V30 7569 C 731.838 -1.32143 1.64625 0
M  V30 7570 O 731.186 -2.07372 0.959647 0
M  V30 7571 C 731.396 0.475334 3.45748 0
M  V30 7572 C 732.744 0.409625 4.22619 0
M  V30 7573 O 733.768 0.410934 3.53822 0
M  V30 7574 O 732.627 0.380185 5.45176 0
M  V30 7575 H 729.721 0.022015 0.826707 0
M  V30 7576 H 732.267 0.784577 1.50474 0
M  V30 7577 H 731.039 1.50801 3.61075 0
M  V30 7578 H 730.662 -0.168439 3.97243 0
M  V30 7579 N 731.66 -1.50943 0.453197 0
M  V30 7580 C 732.908 -2.01813 -0.107709 0
M  V30 7581 C 733.229 -1.33841 -1.41816 0
M  V30 7582 O 732.499 -0.477973 -1.8998 0
M  V30 7583 H 731.079 -0.745773 -0.0427948 0
M  V30 7584 H 733.741 -1.8545 0.599531 0
M  V30 7585 H 732.837 -3.10911 -0.27218 0
M  V30 7586 N 733.138 -0.185124 -1.56509 0
M  V30 7587 C 734.085 0.739729 -2.18624 0
M  V30 7588 C 735.055 1.217 -1.13042 0
M  V30 7589 O 736.24 1.28268 -1.41251 0
M  V30 7590 C 733.38 1.95787 -2.84186 0
M  V30 7591 C 732.493 1.52289 -4.04267 0
M  V30 7592 C 731.628 2.69576 -4.57714 0
M  V30 7593 C 730.667 2.22636 -5.70175 0
M  V30 7594 N 729.804 3.33065 -6.18071 0
M  V30 7595 H 734.644 0.203269 -2.97306 0
M  V30 7596 H 732.181 0.0885946 -1.46833 0
M  V30 7597 H 734.139 2.67253 -3.20361 0
M  V30 7598 H 732.769 2.4678 -2.08085 0
M  V30 7599 H 731.821 0.704458 -3.7382 0
M  V30 7600 H 733.133 1.13843 -4.85635 0
M  V30 7601 H 732.287 3.4918 -4.96143 0
M  V30 7602 H 731.026 3.1129 -3.75433 0
M  V30 7603 H 730.031 1.41483 -5.31284 0
M  V30 7604 H 731.256 1.81964 -6.54267 0
M  V30 7605 H 729.202 3.74328 -5.38715 0
M  V30 7606 H 729.119 2.98756 -6.94464 0
M  V30 7607 H 730.387 4.12912 -6.61153 0
M  V30 7608 N 734.616 1.57351 0.0885366 0
M  V30 7609 C 735.548 1.99221 1.13329 0
M  V30 7610 C 736.561 0.895705 1.35945 0
M  V30 7611 O 737.75 1.17376 1.34481 0
M  V30 7612 C 734.85 2.3016 2.48756 0
M  V30 7613 C 734.023 3.61444 2.46327 0
M  V30 7614 C 733.082 3.80244 3.63732 0
M  V30 7615 O 732.108 4.52024 3.45924 0
M  V30 7616 N 733.31 3.2132 4.8346 0
M  V30 7617 H 736.075 2.89456 0.776862 0
M  V30 7618 H 733.636 1.59505 0.277428 0
M  V30 7619 H 735.628 2.39925 3.25911 0
M  V30 7620 H 734.198 1.459 2.76464 0
M  V30 7621 H 733.418 3.62588 1.54673 0
M  V30 7622 H 734.706 4.47678 2.41789 0
M  V30 7623 H 734.104 2.63028 5.00832 0
M  V30 7624 H 732.661 3.3656 5.58185 0
M  V30 7625 N 736.094 -0.359525 1.53444 0
M  V30 7626 C 737.057 -1.42357 1.7963 0
M  V30 7627 C 738.057 -1.46319 0.666884 0
M  V30 7628 O 739.247 -1.46974 0.935113 0
M  V30 7629 C 736.379 -2.81425 1.92387 0
M  V30 7630 H 737.572 -1.20409 2.74666 0
M  V30 7631 H 735.125 -0.593007 1.44614 0
M  V30 7632 H 735.86 -3.08679 0.994384 0
M  V30 7633 H 735.645 -2.79947 2.74539 0
M  V30 7634 H 737.135 -3.5847 2.14218 0
M  V30 7635 N 737.572 -1.44907 -0.619662 0
M  V30 7636 C 738.797 -1.52021 -1.41083 0
M  V30 7637 C 739.222 -0.14976 -1.87503 0
M  V30 7638 O 738.58 0.863303 -1.59426 0
M  V30 7639 C 738.628 -2.49911 -2.59955 0
M  V30 7640 O 737.732 -2.00857 -3.60181 0
M  V30 7641 H 737.073 -0.512912 -0.421684 0
M  V30 7642 H 739.603 -1.90149 -0.755282 0
M  V30 7643 H 739.613 -2.68323 -3.07354 0
M  V30 7644 H 738.288 -3.4945 -2.25516 0
M  V30 7645 H 736.865 -1.92265 -3.19513 0
M  V30 7646 N 739.05 0.861098 -1.31996 0
M  V30 7647 C 740.296 1.61707 -1.23379 0
M  V30 7648 C 740.651 1.91315 0.204026 0
M  V30 7649 O 739.944 1.53997 1.13998 0
M  V30 7650 C 740.138 2.94822 -2.02027 0
M  V30 7651 C 739.967 2.78212 -3.5331 0
M  V30 7652 C 738.737 2.76933 -4.22654 0
M  V30 7653 C 740.935 2.52432 -4.48088 0
M  V30 7654 N 738.917 2.51466 -5.60034 0
M  V30 7655 C 740.288 2.36312 -5.73198 0
M  V30 7656 C 742.343 2.37848 -4.37416 0
M  V30 7657 C 741.046 2.0709 -6.88844 0
M  V30 7658 C 743.072 2.10016 -5.52854 0
M  V30 7659 C 742.434 1.94691 -6.7696 0
M  V30 7660 H 738.533 0.595703 -0.506618 0
M  V30 7661 H 741.117 1.01275 -1.66287 0
M  V30 7662 H 739.288 3.53243 -1.61474 0
M  V30 7663 H 741.02 3.59756 -1.85358 0
M  V30 7664 H 737.775 2.89638 -3.74709 0
M  V30 7665 H 738.199 2.41679 -6.32392 0
M  V30 7666 H 742.841 2.4842 -3.42122 0
M  V30 7667 H 740.559 1.95256 -7.84156 0
M  V30 7668 H 744.145 1.99519 -5.46519 0
M  V30 7669 H 743.025 1.7346 -7.64775 0
M  V30 7670 N 740.528 1.15101 1.07655 0
M  V30 7671 C 741.758 0.946357 1.83651 0
M  V30 7672 C 742.166 -0.508641 1.82235 0
M  V30 7673 O 741.509 -1.36445 1.22997 0
M  V30 7674 C 741.571 1.37945 3.31981 0
M  V30 7675 C 741.235 2.85155 3.57122 0
M  V30 7676 C 742.232 3.83234 3.51323 0
M  V30 7677 C 739.917 3.2275 3.84887 0
M  V30 7678 C 741.911 5.16914 3.72932 0
M  V30 7679 C 739.598 4.56604 4.06148 0
M  V30 7680 C 740.596 5.53495 4.00165 0
M  V30 7681 O 740.284 6.84931 4.20861 0
M  V30 7682 H 740.016 0.336368 0.586372 0
M  V30 7683 H 742.57 1.53198 1.36819 0
M  V30 7684 H 740.8 0.737205 3.79608 0
M  V30 7685 H 742.489 1.14439 3.89434 0
M  V30 7686 H 743.255 3.55535 3.29878 0
M  V30 7687 H 739.134 2.47921 3.88659 0
M  V30 7688 H 742.678 5.92529 3.68178 0
M  V30 7689 H 738.575 4.84019 4.27078 0
M  V30 7690 H 739.343 6.91304 4.38226 0
M  V30 7691 N 742.006 -1.2595 0.947325 0
M  V30 7692 C 743.255 -1.92759 0.593887 0
M  V30 7693 C 743.568 -1.75083 -0.872093 0
M  V30 7694 O 744.774 -2.36401 -1.33518 0
M  V30 7695 C 743.23 -3.45395 1.01144 0
M  V30 7696 C 742.838 -3.71795 2.49946 0
M  V30 7697 C 744.582 -4.18173 0.730185 0
M  V30 7698 C 742.489 -5.17901 2.85539 0
M  V30 7699 H 741.419 -0.721676 0.218403 0
M  V30 7700 H 744.07 -1.4293 1.15079 0
M  V30 7701 H 742.452 -3.94143 0.383007 0
M  V30 7702 H 743.626 -3.33728 3.17746 0
M  V30 7703 H 741.941 -3.12263 2.75465 0
M  V30 7704 H 744.538 -5.25784 0.972367 0
M  V30 7705 H 744.881 -4.14964 -0.333223 0
M  V30 7706 H 745.414 -3.75309 1.31862 0
M  V30 7707 H 742.153 -5.26216 3.90867 0
M  V30 7708 H 741.673 -5.57042 2.22406 0
M  V30 7709 H 743.352 -5.8596 2.74336 0
M  V30 7710 N 743.484 -0.715051 -1.40445 0
M  V30 7711 C 744.434 -0.038591 -2.27967 0
M  V30 7712 C 745.418 0.733099 -1.43229 0
M  V30 7713 O 746.61 0.605388 -1.66325 0
M  V30 7714 C 743.739 0.882801 -3.31755 0
M  V30 7715 C 742.825 0.106325 -4.23967 0
M  V30 7716 N 743.216 -0.910143 -4.97544 0
M  V30 7717 C 741.514 0.33896 -4.4471 0
M  V30 7718 C 742.215 -1.37665 -5.65175 0
M  V30 7719 N 741.191 -0.698905 -5.39088 0
M  V30 7720 H 744.993 -0.81765 -2.82297 0
M  V30 7721 H 742.507 -0.547591 -1.5289 0
M  V30 7722 H 744.504 1.38273 -3.93302 0
M  V30 7723 H 743.164 1.66124 -2.78985 0
M  V30 7724 H 744.175 -1.29097 -5.01552 0
M  V30 7725 H 740.852 1.09377 -4.02918 0
M  V30 7726 H 742.242 -2.22122 -6.34123 0
M  V30 7727 N 744.962 1.50701 -0.461195 0
M  V30 7728 C 745.909 2.2831 0.338094 0
M  V30 7729 C 746.879 1.32928 0.995957 0
M  V30 7730 O 748.064 1.61857 1.0103 0
M  V30 7731 C 745.204 3.14539 1.41983 0
M  V30 7732 C 744.317 4.24942 0.77773 0
M  V30 7733 C 743.452 4.98443 1.83652 0
M  V30 7734 C 742.491 6.00733 1.17413 0
M  V30 7735 N 741.628 6.6755 2.17533 0
M  V30 7736 H 746.468 2.96167 -0.330051 0
M  V30 7737 H 744.005 1.4606 -0.174611 0
M  V30 7738 H 745.963 3.62877 2.05855 0
M  V30 7739 H 744.593 2.48749 2.05727 0
M  V30 7740 H 743.645 3.80391 0.0266924 0
M  V30 7741 H 744.957 4.98151 0.254362 0
M  V30 7742 H 744.111 5.50449 2.55129 0
M  V30 7743 H 742.85 4.24917 2.39367 0
M  V30 7744 H 741.855 5.47997 0.444944 0
M  V30 7745 H 743.08 6.76227 0.624006 0
M  V30 7746 H 741.026 5.96823 2.72284 0
M  V30 7747 H 740.943 7.36603 1.70154 0
M  V30 7748 H 742.211 7.24178 2.88421 0
M  V30 7749 N 746.441 0.193421 1.56409 0
M  V30 7750 C 747.671 -0.450783 2.01622 0
M  V30 7751 C 748.079 -1.5585 1.07273 0
M  V30 7752 O 747.422 -1.83569 0.0694875 0
M  V30 7753 C 747.484 -1.06913 3.43235 0
M  V30 7754 C 747.148 -0.100352 4.5689 0
M  V30 7755 C 748.145 0.689633 5.15306 0
M  V30 7756 C 745.83 0.0102436 5.02299 0
M  V30 7757 C 747.824 1.5772 6.17579 0
M  V30 7758 C 745.511 0.901368 6.04416 0
M  V30 7759 C 746.509 1.68341 6.61929 0
M  V30 7760 O 746.197 2.5596 7.62063 0
M  V30 7761 H 745.929 -0.117671 0.66568 0
M  V30 7762 H 748.483 0.2989 2.03214 0
M  V30 7763 H 746.713 -1.86736 3.38624 0
M  V30 7764 H 748.402 -1.61781 3.72266 0
M  V30 7765 H 749.168 0.614485 4.81092 0
M  V30 7766 H 745.047 -0.58829 4.57231 0
M  V30 7767 H 748.591 2.18805 6.62397 0
M  V30 7768 H 744.488 0.977637 6.38054 0
M  V30 7769 H 745.256 2.49721 7.79475 0
M  V30 7770 N 747.919 -1.57396 -0.0801906 0
M  V30 7771 C 749.165 -1.87113 -0.782083 0
M  V30 7772 C 749.498 -0.78458 -1.77646 0
M  V30 7773 O 748.773 0.205993 -1.93406 0
M  V30 7774 C 749.056 -3.27483 -1.49756 0
M  V30 7775 C 748.909 -4.46782 -0.520171 0
M  V30 7776 C 750.228 -3.65965 -2.44454 0
M  V30 7777 H 747.347 -0.680559 -0.282858 0
M  V30 7778 H 749.989 -1.89946 -0.0454139 0
M  V30 7779 H 748.139 -3.25199 -2.12551 0
M  V30 7780 H 749.811 -4.61187 0.101919 0
M  V30 7781 H 748.054 -4.33485 0.165219 0
M  V30 7782 H 748.725 -5.41761 -1.05824 0
M  V30 7783 H 751.201 -3.69289 -1.91742 0
M  V30 7784 H 750.077 -4.65086 -2.91524 0
M  V30 7785 H 750.338 -2.95446 -3.28883 0
M  V30 7786 N 749.397 0.351382 -1.53633 0
M  V30 7787 C 750.329 1.45159 -1.77374 0
M  V30 7788 C 751.342 1.4905 -0.654826 0
M  V30 7789 O 752.531 1.52274 -0.931396 0
M  V30 7790 C 749.631 2.83858 -1.85143 0
M  V30 7791 C 748.804 3.03498 -3.14972 0
M  V30 7792 C 747.863 4.22393 -3.138 0
M  V30 7793 O 746.889 4.16885 -3.87551 0
M  V30 7794 N 748.091 5.30533 -2.35617 0
M  V30 7795 H 750.856 1.25167 -2.72311 0
M  V30 7796 H 748.417 0.54121 -1.52586 0
M  V30 7797 H 750.409 3.61557 -1.8182 0
M  V30 7798 H 748.979 2.9703 -0.974275 0
M  V30 7799 H 748.199 2.13336 -3.31484 0
M  V30 7800 H 749.487 3.13498 -4.00745 0
M  V30 7801 H 748.885 5.37875 -1.75235 0
M  V30 7802 H 747.442 6.06756 -2.38098 0
M  V30 7803 N 750.875 1.45233 0.611969 0
M  V30 7804 C 752.1 1.52767 1.40274 0
M  V30 7805 C 752.525 0.159701 1.87421 0
M  V30 7806 O 751.883 -0.854837 1.59882 0
M  V30 7807 C 751.931 2.51286 2.58626 0
M  V30 7808 O 751.035 2.02764 3.59111 0
M  V30 7809 H 750.376 0.515141 0.418958 0
M  V30 7810 H 752.906 1.90547 0.745188 0
M  V30 7811 H 752.916 2.69949 3.05927 0
M  V30 7812 H 751.591 3.50641 2.23659 0
M  V30 7813 H 750.168 1.93957 3.18489 0
M  V30 7814 N 752.353 -0.854086 1.3245 0
M  V30 7815 C 753.285 -1.96932 1.17262 0
M  V30 7816 C 754.298 -1.62445 0.107469 0
M  V30 7817 O 755.487 -1.74904 0.356481 0
M  V30 7818 C 752.587 -3.29971 0.772817 0
M  V30 7819 C 751.76 -3.92695 1.92638 0
M  V30 7820 C 750.819 -5.04068 1.51003 0
M  V30 7821 O 749.845 -5.24032 2.22213 0
M  V30 7822 N 751.047 -5.79076 0.406371 0
M  V30 7823 H 753.812 -2.10503 2.13327 0
M  V30 7824 H 751.373 -1.02897 1.24995 0
M  V30 7825 H 753.365 -4.01883 0.476684 0
M  V30 7826 H 751.935 -3.1245 -0.0967 0
M  V30 7827 H 751.155 -3.13563 2.38897 0
M  V30 7828 H 752.443 -4.31337 2.69863 0
M  V30 7829 H 751.841 -5.65393 -0.186302 0
M  V30 7830 H 750.398 -6.51579 0.169846 0
M  V30 7831 N 753.831 -1.1567 -1.07043 0
M  V30 7832 C 755.061 -0.956083 -1.83146 0
M  V30 7833 C 755.469 0.498969 -1.82502 0
M  V30 7834 O 754.812 1.35791 -1.23719 0
M  V30 7835 C 754.874 -1.39704 -3.31245 0
M  V30 7836 C 754.538 -2.87045 -3.55604 0
M  V30 7837 C 755.535 -3.85092 -3.49285 0
M  V30 7838 C 753.22 -3.24787 -3.8317 0
M  V30 7839 C 755.214 -5.18885 -3.70185 0
M  V30 7840 C 752.901 -4.58751 -4.03721 0
M  V30 7841 C 753.899 -5.55609 -3.97224 0
M  V30 7842 O 753.587 -6.87154 -4.17223 0
M  V30 7843 H 753.319 -0.339473 -0.58458 0
M  V30 7844 H 755.873 -1.53922 -1.36005 0
M  V30 7845 H 754.103 -0.757326 -3.79212 0
M  V30 7846 H 755.792 -1.16503 -3.88821 0
M  V30 7847 H 756.558 -3.5728 -3.27988 0
M  V30 7848 H 752.437 -2.49979 -3.87339 0
M  V30 7849 H 755.981 -5.94473 -3.6503 0
M  V30 7850 H 751.878 -4.86277 -4.24505 0
M  V30 7851 H 752.646 -6.93618 -4.34553 0
M  V30 7852 N 755.309 1.25446 -0.953992 0
M  V30 7853 C 756.557 1.92762 -0.607227 0
M  V30 7854 C 756.878 1.7509 0.858399 0
M  V30 7855 O 756.148 1.11416 1.61132 0
M  V30 7856 H 754.728 0.713377 -0.221591 0
M  V30 7857 H 757.39 1.52625 -1.21209 0
M  V30 7858 H 756.486 3.00695 -0.835998 0
M  V30 7859 N 756.787 0.722489 1.40064 0
M  V30 7860 C 757.75 0.0830209 2.2905 0
M  V30 7861 C 758.75 -0.680208 1.45705 0
M  V30 7862 O 759.94 -0.511084 1.66534 0
M  V30 7863 C 757.072 -0.892092 3.29021 0
M  V30 7864 H 758.265 0.866848 2.87099 0
M  V30 7865 H 755.818 0.487556 1.48501 0
M  V30 7866 H 756.553 -1.70273 2.76003 0
M  V30 7867 H 756.338 -0.34761 3.90556 0
M  V30 7868 H 757.828 -1.33648 3.95636 0
M  V30 7869 N 758.265 -1.50454 0.469181 0
M  V30 7870 C 759.49 -2.0722 -0.0864892 0
M  V30 7871 C 759.915 -1.33098 -1.32916 0
M  V30 7872 O 759.273 -0.378084 -1.77314 0
M  V30 7873 C 759.321 -3.58845 -0.355384 0
M  V30 7874 O 758.425 -3.86583 -1.43622 0
M  V30 7875 H 757.766 -0.663889 0.0121414 0
M  V30 7876 H 760.296 -1.93674 0.659674 0
M  V30 7877 H 760.306 -4.03617 -0.596447 0
M  V30 7878 H 758.981 -4.12211 0.552698 0
M  V30 7879 H 757.558 -3.5365 -1.18262 0
M  V30 7880 N 759.743 -0.201713 -1.56304 0
M  V30 7881 C 760.989 0.435952 -1.98059 0
M  V30 7882 C 761.322 1.60811 -1.08873 0
M  V30 7883 O 760.597 1.9398 -0.142128 0
M  V30 7884 C 760.88 0.889706 -3.48936 0
M  V30 7885 C 760.733 -0.284725 -4.48898 0
M  V30 7886 C 762.052 1.7529 -4.03685 0
M  V30 7887 H 759.171 0.15699 -0.720085 0
M  V30 7888 H 761.813 -0.293965 -1.87712 0
M  V30 7889 H 759.963 1.51166 -3.57884 0
M  V30 7890 H 761.635 -0.922531 -4.51981 0
M  V30 7891 H 759.878 -0.935427 -4.23594 0
M  V30 7892 H 760.549 0.0753865 -5.51949 0
M  V30 7893 H 763.025 1.2283 -3.97558 0
M  V30 7894 H 761.901 2.03933 -5.0961 0
M  V30 7895 H 762.162 2.70939 -3.49348 0
M  V30 7896 N 761.222 1.57436 0.0718424 0
M  V30 7897 C 762.447 1.91858 0.787745 0
M  V30 7898 C 762.872 0.798119 1.70328 0
M  V30 7899 O 762.23 -0.24905 1.79581 0
M  V30 7900 C 762.278 3.25232 1.55744 0
M  V30 7901 O 761.382 3.14462 2.6681 0
M  V30 7902 H 760.723 0.628258 0.214914 0
M  V30 7903 H 763.253 2.04561 0.0401012 0
M  V30 7904 H 763.263 3.59105 1.9367 0
M  V30 7905 H 761.938 4.0636 0.885691 0
M  V30 7906 H 760.515 2.92148 2.31741 0
M  V30 7907 N 762.7 -0.34323 1.53817 0
M  V30 7908 C 763.663 -1.40444 1.8113 0
M  V30 7909 C 764.663 -1.45604 0.682366 0
M  V30 7910 O 765.853 -1.45974 0.950649 0
M  V30 7911 C 762.985 -2.79369 1.95361 0
M  V30 7912 H 764.178 -1.17489 2.75928 0
M  V30 7913 H 761.731 -0.577636 1.45234 0
M  V30 7914 H 762.466 -3.07607 1.02707 0
M  V30 7915 H 762.251 -2.7702 2.77493 0
M  V30 7916 H 763.741 -3.56178 2.18008 0
M  V30 7917 N 764.178 -1.45556 -0.604258 0
M  V30 7918 C 765.125 -1.54482 -1.71476 0
M  V30 7919 C 766.095 -0.390479 -1.61445 0
M  V30 7920 O 767.28 -0.604371 -1.80975 0
M  V30 7921 C 764.42 -1.52064 -3.09791 0
M  V30 7922 C 763.533 -2.78073 -3.30604 0
M  V30 7923 C 762.668 -2.67304 -4.59044 0
M  V30 7924 C 761.707 -3.88352 -4.73127 0
M  V30 7925 N 760.844 -3.76098 -5.9287 0
M  V30 7926 H 765.684 -2.49349 -1.63184 0
M  V30 7927 H 763.221 -1.23725 -0.795641 0
M  V30 7928 H 765.179 -1.48649 -3.89819 0
M  V30 7929 H 763.809 -0.607442 -3.17033 0
M  V30 7930 H 762.861 -2.91561 -2.44329 0
M  V30 7931 H 764.173 -3.67847 -3.36883 0
M  V30 7932 H 763.327 -2.61875 -5.47272 0
M  V30 7933 H 762.066 -1.75135 -4.55169 0
M  V30 7934 H 761.071 -3.94137 -3.83322 0
M  V30 7935 H 762.296 -4.81591 -4.78797 0
M  V30 7936 H 760.242 -2.867 -5.90033 0
M  V30 7937 H 760.159 -4.59509 -6.00323 0
M  V30 7938 H 761.427 -3.74607 -6.83586 0
M  V30 7939 N 765.656 0.84705 -1.32902 0
M  V30 7940 C 767.067 1.41785 -1.21466 0
M  V30 7941 C 767.418 1.95464 0.169767 0
M  V30 7942 O 766.543 1.88157 1.06892 0
M  V30 7943 C 767.138 2.57734 -2.19906 0
M  V30 7944 C 765.697 3.10791 -2.12334 0
M  V30 7945 C 764.844 1.83562 -2.07847 0
M  V30 7946 H 767.795 0.653532 -1.44619 0
M  V30 7947 H 767.816 3.35123 -1.80202 0
M  V30 7948 H 767.328 2.18635 -3.20656 0
M  V30 7949 H 765.429 3.54455 -1.14858 0
M  V30 7950 H 765.542 3.71519 -3.02506 0
M  V30 7951 H 763.906 2.03475 -1.53199 0
M  V30 7952 H 764.689 1.4667 -3.10392 0
M  V30 7953 N 767.134 1.16236 1.06428 0
M  V30 7954 C 768.044 0.881976 2.1739 0
M  V30 7955 C 769.06 -0.145259 1.73393 0
M  V30 7956 O 770.236 0.0310558 2.01376 0
M  V30 7957 C 767.301 0.385496 3.4455 0
M  V30 7958 C 766.362 1.47779 4.03063 0
M  V30 7959 C 765.595 1.0049 5.24154 0
M  V30 7960 O 765.818 -0.145889 5.70213 0
M  V30 7961 O 764.752 1.79265 5.74585 0
M  V30 7962 H 768.578 1.80983 2.43883 0
M  V30 7963 H 766.163 0.942226 1.15942 0
M  V30 7964 H 768.045 0.115536 4.21242 0
M  V30 7965 H 766.72 -0.514369 3.19587 0
M  V30 7966 H 765.627 1.80147 3.27869 0
M  V30 7967 H 766.96 2.35291 4.32318 0
M  V30 7968 N 768.612 -1.24939 0.960631 0
M  V30 7969 C 769.542 -2.28 0.503815 0
M  V30 7970 C 770.523 -1.63959 -0.452928 0
M  V30 7971 O 771.708 -1.91009 -0.350585 0
M  V30 7972 C 768.838 -3.46643 -0.213535 0
M  V30 7973 C 767.792 -4.22903 0.658535 0
M  V30 7974 C 767.118 -5.34363 -0.189902 0
M  V30 7975 C 768.418 -4.84949 1.93963 0
M  V30 7976 H 770.112 -2.66462 1.36521 0
M  V30 7977 H 767.658 -1.28093 0.657897 0
M  V30 7978 H 769.611 -4.1787 -0.544286 0
M  V30 7979 H 768.335 -3.07187 -1.10923 0
M  V30 7980 H 766.994 -3.53467 0.972455 0
M  V30 7981 H 766.642 -4.91147 -1.08553 0
M  V30 7982 H 766.342 -5.86302 0.390331 0
M  V30 7983 H 767.866 -6.0842 -0.515484 0
M  V30 7984 H 769.28 -5.48288 1.67491 0
M  V30 7985 H 767.677 -5.47091 2.46601 0
M  V30 7986 H 768.747 -4.06799 2.639 0
M  V30 7987 N 770.09 -0.729906 -1.39679 0
M  V30 7988 C 771.501 -0.346241 -1.83461 0
M  V30 7989 C 771.852 1.1215 -1.60987 0
M  V30 7990 O 770.977 1.86456 -1.09832 0
M  V30 7991 C 771.572 -0.621656 -3.33048 0
M  V30 7992 C 770.131 -0.291543 -3.75269 0
M  V30 7993 C 769.278 -0.886844 -2.62736 0
M  V30 7994 H 772.229 -0.927949 -1.28743 0
M  V30 7995 H 772.25 0.108301 -3.80346 0
M  V30 7996 H 771.762 -1.68996 -3.49373 0
M  V30 7997 H 769.863 0.771133 -3.64533 0
M  V30 7998 H 769.976 -0.770544 -4.72863 0
M  V30 7999 H 768.34 -0.313839 -2.52759 0
M  V30 8000 H 769.123 -1.95971 -2.81869 0
M  V30 8001 N 771.568 1.50203 -0.477153 0
M  V30 8002 C 772.498 2.31517 0.303646 0
M  V30 8003 C 773.479 1.38696 0.984753 0
M  V30 8004 O 774.664 1.67615 0.980758 0
M  V30 8005 C 771.794 3.18598 1.38249 0
M  V30 8006 C 770.748 4.2002 0.822645 0
M  V30 8007 C 770.074 4.95878 2.00024 0
M  V30 8008 C 771.374 5.22023 -0.170185 0
M  V30 8009 H 773.068 2.97042 -0.375027 0
M  V30 8010 H 770.614 1.42848 -0.181802 0
M  V30 8011 H 772.567 3.74282 1.93625 0
M  V30 8012 H 771.291 2.5097 2.09002 0
M  V30 8013 H 769.95 3.65445 0.290813 0
M  V30 8014 H 769.598 4.24717 2.69489 0
M  V30 8015 H 769.298 5.64487 1.63183 0
M  V30 8016 H 770.822 5.54399 2.55878 0
M  V30 8017 H 772.236 5.72543 0.294606 0
M  V30 8018 H 770.633 5.98386 -0.453181 0
M  V30 8019 H 771.703 4.72396 -1.09408 0
M  V30 8020 N 773.046 0.209999 1.56195 0
M  V30 8021 C 774.293 -0.424813 1.97994 0
M  V30 8022 C 774.621 -1.60589 1.09733 0
M  V30 8023 O 773.876 -1.95201 0.139693 0
M  V30 8024 C 774.175 -0.91312 3.45539 0
M  V30 8025 C 773.841 0.156187 4.50629 0
M  V30 8026 C 772.503 0.449966 4.79092 0
M  V30 8027 C 774.855 0.879959 5.13718 0
M  V30 8028 C 772.183 1.47223 5.67928 0
M  V30 8029 C 774.535 1.89148 6.0366 0
M  V30 8030 C 773.199 2.1923 6.30472 0
M  V30 8031 H 772.469 -0.15545 0.724511 0
M  V30 8032 H 775.116 0.310095 1.88973 0
M  V30 8033 H 773.421 -1.72658 3.51705 0
M  V30 8034 H 775.118 -1.41395 3.75245 0
M  V30 8035 H 771.708 -0.0829466 4.2852 0
M  V30 8036 H 775.892 0.66623 4.91808 0
M  V30 8037 H 771.148 1.71105 5.86969 0
M  V30 8038 H 775.322 2.45745 6.516 0
M  V30 8039 H 772.949 2.98587 6.99107 0
M  V30 8040 N 774.524 -1.57472 -0.0634922 0
M  V30 8041 C 775.754 -1.91608 -0.772645 0
M  V30 8042 C 776.162 -0.805019 -1.71219 0
M  V30 8043 O 775.505 0.229941 -1.82255 0
M  V30 8044 C 775.567 -3.21281 -1.61304 0
M  V30 8045 C 775.231 -4.49177 -0.841973 0
M  V30 8046 C 776.228 -5.19661 -0.157494 0
M  V30 8047 C 773.913 -4.9578 -0.80669 0
M  V30 8048 C 775.907 -6.35006 0.551948 0
M  V30 8049 C 773.594 -6.11028 -0.0934812 0
M  V30 8050 C 774.592 -6.80493 0.58463 0
M  V30 8051 O 774.28 -7.93542 1.28633 0
M  V30 8052 H 774.012 -0.637685 -0.224352 0
M  V30 8053 H 776.566 -2.05369 -0.0355279 0
M  V30 8054 H 774.796 -3.03752 -2.39315 0
M  V30 8055 H 776.485 -3.41003 -2.20162 0
M  V30 8056 H 777.251 -4.84681 -0.176006 0
M  V30 8057 H 773.13 -4.41579 -1.32397 0
M  V30 8058 H 776.674 -6.89161 1.0818 0
M  V30 8059 H 772.571 -6.45459 -0.0729258 0
M  V30 8060 H 773.339 -8.09708 1.19646 0
M  V30 8061 N 776.003 0.335068 -1.53997 0
M  V30 8062 C 777.231 1.09418 -1.756 0
M  V30 8063 C 777.646 1.82083 -0.499138 0
M  V30 8064 O 777.003 1.74646 0.529631 0
M  V30 8065 C 777.054 2.10115 -2.94166 0
M  V30 8066 O 776.775 1.40404 -4.14992 0
M  V30 8067 C 778.276 2.98336 -3.27888 0
M  V30 8068 H 775.496 0.32595 -0.586513 0
M  V30 8069 H 778.04 0.384693 -2.00849 0
M  V30 8070 H 776.195 2.76616 -2.71224 0
M  V30 8071 H 776.609 2.07743 -4.81605 0
M  V30 8072 H 778.083 3.6491 -4.1418 0
M  V30 8073 H 778.56 3.64814 -2.44556 0
M  V30 8074 H 779.166 2.37412 -3.52868 0
M  V30 8075 N 777.481 1.45874 0.596531 0
M  V30 8076 C 778.892 1.44798 1.17857 0
M  V30 8077 C 779.243 0.181443 1.95359 0
M  V30 8078 O 778.368 -0.716336 2.042 0
M  V30 8079 C 778.963 2.62333 2.14398 0
M  V30 8080 C 777.522 2.64342 2.67955 0
M  V30 8081 C 776.669 2.37244 1.43564 0
M  V30 8082 H 779.62 1.53954 0.385222 0
M  V30 8083 H 779.641 2.37063 2.97626 0
M  V30 8084 H 779.153 3.54499 1.57963 0
M  V30 8085 H 777.254 1.76213 3.28298 0
M  V30 8086 H 777.367 3.63897 3.11634 0
M  V30 8087 H 775.731 1.87022 1.72901 0
M  V30 8088 H 776.514 3.31568 0.889805 0
M  V30 8089 N 778.959 -0.83999 1.33349 0
M  V30 8090 C 780.208 -1.59011 1.2409 0
M  V30 8091 C 780.521 -1.94655 -0.192029 0
M  V30 8092 O 781.727 -2.68438 -0.406617 0
M  V30 8093 C 780.183 -2.86801 2.17425 0
M  V30 8094 C 779.791 -2.58525 3.65881 0
M  V30 8095 C 781.535 -3.64823 2.17036 0
M  V30 8096 C 779.442 -3.82404 4.51133 0
M  V30 8097 H 778.372 -0.596731 0.460899 0
M  V30 8098 H 781.023 -0.926274 1.58406 0
M  V30 8099 H 779.405 -3.54719 1.7604 0
M  V30 8100 H 780.579 -1.98824 4.15699 0
M  V30 8101 H 778.894 -1.93808 3.68548 0
M  V30 8102 H 781.491 -4.56774 2.7796 0
M  V30 8103 H 781.834 -3.99663 1.16513 0
M  V30 8104 H 782.367 -3.03826 2.56777 0
M  V30 8105 H 779.106 -3.52696 5.52527 0
M  V30 8106 H 778.626 -4.41447 4.0606 0
M  V30 8107 H 780.305 -4.49995 4.6488 0
M  V30 8108 N 780.437 -1.16799 -1.0581 0
M  V30 8109 C 781.714 -0.862616 -1.75551 0
M  V30 8110 C 782.094 0.6385 -2.01212 0
M  V30 8111 O 781.442 1.58784 -1.64317 0
M  V30 8112 C 781.652 -1.6907 -3.05314 0
M  V30 8113 C 783 -1.90675 -3.79379 0
M  V30 8114 O 784.024 -1.65976 -3.15167 0
M  V30 8115 O 782.883 -2.32145 -4.94743 0
M  V30 8116 H 779.977 -0.318789 -0.763088 0
M  V30 8117 H 782.523 -1.27461 -1.12034 0
M  V30 8118 H 781.295 -2.70912 -2.82352 0
M  V30 8119 H 780.918 -1.27606 -3.76567 0
M  V30 8120 N 781.915 1.24427 -0.967243 0
M  V30 8121 C 782.845 2.2773 -0.515899 0
M  V30 8122 C 783.826 1.64197 0.444227 0
M  V30 8123 O 785.011 1.91193 0.340451 0
M  V30 8124 C 782.141 3.46751 0.195149 0
M  V30 8125 C 781.095 4.22548 -0.680953 0
M  V30 8126 C 780.421 5.34456 0.161561 0
M  V30 8127 C 781.721 4.83914 -1.96532 0
M  V30 8128 H 783.415 2.65735 -1.37933 0
M  V30 8129 H 780.961 1.27742 -0.664681 0
M  V30 8130 H 782.914 4.18153 0.522117 0
M  V30 8131 H 781.638 3.07771 1.09292 0
M  V30 8132 H 780.297 3.52946 -0.991186 0
M  V30 8133 H 779.945 4.91716 1.05947 0
M  V30 8134 H 779.645 5.86087 -0.421418 0
M  V30 8135 H 781.169 6.08685 0.483211 0
M  V30 8136 H 782.583 5.47392 -1.70396 0
M  V30 8137 H 780.98 5.45775 -2.49499 0
M  V30 8138 H 782.05 4.05393 -2.66053 0
M  V30 8139 N 783.393 0.737304 1.3929 0
M  V30 8140 C 784.639 0.286681 2.00763 0
M  V30 8141 C 784.972 -1.12388 1.58375 0
M  V30 8142 O 784.247 -1.76661 0.813699 0
M  V30 8143 C 784.53 0.391147 3.57969 0
M  V30 8144 C 784.383 1.84165 4.1037 0
M  V30 8145 C 785.702 -0.225072 4.39524 0
M  V30 8146 H 782.821 0.105642 0.729389 0
M  V30 8147 H 785.463 0.933892 1.65464 0
M  V30 8148 H 783.613 -0.159875 3.88171 0
M  V30 8149 H 785.285 2.44972 3.90879 0
M  V30 8150 H 783.528 2.3622 3.63844 0
M  V30 8151 H 784.199 1.866 5.19504 0
M  V30 8152 H 786.675 0.244677 4.1538 0
M  V30 8153 H 785.551 -0.121646 5.48765 0
M  V30 8154 H 785.812 -1.31141 4.22202 0
M  V30 8155 N 784.871 -1.49948 0.485112 0
M  V30 8156 C 786.148 -1.95186 -0.12726 0
M  V30 8157 C 786.528 -1.42605 -1.5565 0
M  V30 8158 O 785.876 -0.632986 -2.19558 0
M  V30 8159 C 786.086 -3.48955 -0.0562117 0
M  V30 8160 C 787.434 -4.23932 -0.238106 0
M  V30 8161 O 788.458 -3.55955 -0.132145 0
M  V30 8162 O 787.317 -5.44614 -0.453658 0
M  V30 8163 H 784.411 -0.820433 -0.104014 0
M  V30 8164 H 786.957 -1.60659 0.546517 0
M  V30 8165 H 785.729 -3.79814 0.941122 0
M  V30 8166 H 785.352 -3.90056 -0.770834 0
M  V30 8167 N 786.349 -0.21828 -1.56081 0
M  V30 8168 C 787.598 0.414644 -1.97392 0
M  V30 8169 C 787.911 1.61132 -1.10887 0
M  V30 8170 O 789.117 2.31355 -1.42082 0
M  V30 8171 C 787.573 0.789099 -3.51143 0
M  V30 8172 C 787.181 -0.384578 -4.46346 0
M  V30 8173 C 788.925 1.38781 -4.01173 0
M  V30 8174 C 786.832 0.0121288 -5.91399 0
M  V30 8175 H 785.762 0.158691 -0.737111 0
M  V30 8176 H 788.413 -0.313974 -1.80794 0
M  V30 8177 H 786.795 1.57505 -3.6333 0
M  V30 8178 H 787.969 -1.16212 -4.45905 0
M  V30 8179 H 786.284 -0.896306 -4.06639 0
M  V30 8180 H 788.881 1.69746 -5.07041 0
M  V30 8181 H 789.224 2.30245 -3.46833 0
M  V30 8182 H 789.757 0.665364 -3.92196 0
M  V30 8183 H 786.496 -0.868917 -6.49715 0
M  V30 8184 H 786.016 0.754053 -5.95041 0
M  V30 8185 H 787.695 0.439949 -6.45502 0
M  V30 8186 N 787.827 1.57504 0.0551401 0
M  V30 8187 C 789.052 1.92682 0.767352 0
M  V30 8188 C 789.477 0.81614 1.69472 0
M  V30 8189 O 788.835 -0.229989 1.79835 0
M  V30 8190 C 788.883 3.26866 1.52286 0
M  V30 8191 O 787.987 3.17274 2.63459 0
M  V30 8192 H 787.328 0.630502 0.208238 0
M  V30 8193 H 789.858 2.04592 0.0184026 0
M  V30 8194 H 789.868 3.61138 1.8985 0
M  V30 8195 H 788.543 4.07276 0.842541 0
M  V30 8196 H 787.12 2.94589 2.2863 0
M  V30 8197 N 789.305 -0.326896 1.54172 0
M  V30 8198 C 790.551 -1.06681 1.72473 0
M  V30 8199 C 790.884 -1.87779 0.49523 0
M  V30 8200 O 790.159 -1.87754 -0.507803 0
M  V30 8201 C 790.442 -1.99429 2.99834 0
M  V30 8202 C 790.295 -1.21682 4.33028 0
M  V30 8203 C 791.614 -2.99002 3.22933 0
M  V30 8204 H 788.733 -0.386438 0.627563 0
M  V30 8205 H 791.375 -0.343779 1.86864 0
M  V30 8206 H 789.525 -2.61081 2.87696 0
M  V30 8207 H 791.197 -0.625153 4.57044 0
M  V30 8208 H 789.44 -0.519045 4.30684 0
M  V30 8209 H 790.111 -1.89766 5.18356 0
M  V30 8210 H 792.587 -2.4747 3.34511 0
M  V30 8211 H 791.463 -3.61085 4.13412 0
M  V30 8212 H 791.724 -3.71281 2.40006 0
M  V30 8213 N 790.784 -1.46188 -0.588786 0
M  V30 8214 C 791.694 -1.58865 -1.72624 0
M  V30 8215 C 792.71 -0.472348 -1.67466 0
M  V30 8216 O 793.886 -0.735638 -1.87484 0
M  V30 8217 C 790.951 -1.56989 -3.0912 0
M  V30 8218 C 790.012 -2.79804 -3.25589 0
M  V30 8219 C 789.245 -2.78009 -4.55573 0
M  V30 8220 O 789.468 -1.86406 -5.39082 0
M  V30 8221 O 788.402 -3.6947 -4.75159 0
M  V30 8222 H 792.228 -2.55047 -1.64878 0
M  V30 8223 H 789.813 -1.28912 -0.755115 0
M  V30 8224 H 791.695 -1.58618 -3.90408 0
M  V30 8225 H 790.37 -0.639648 -3.17317 0
M  V30 8226 H 789.277 -2.83732 -2.43818 0
M  V30 8227 H 790.61 -3.72017 -3.22279 0
M  V30 8228 N 792.262 0.832906 -1.33792 0
M  V30 8229 C 793.195 1.94788 -1.18882 0
M  V30 8230 C 794.173 1.62389 -0.0828426 0
M  V30 8231 O 795.357 1.86886 -0.246175 0
M  V30 8232 C 792.484 3.28506 -0.824728 0
M  V30 8233 C 791.53 3.79872 -1.93905 0
M  V30 8234 S 792.363 4.00832 -3.55097 0
M  V30 8235 C 793.519 5.37492 -3.20708 0
M  V30 8236 H 793.752 2.07137 -2.13264 0
M  V30 8237 H 791.285 0.987362 -1.18704 0
M  V30 8238 H 793.243 4.05769 -0.621442 0
M  V30 8239 H 791.904 3.13939 0.100587 0
M  V30 8240 H 791.097 4.76647 -1.6378 0
M  V30 8241 H 790.699 3.09524 -2.09931 0
M  V30 8242 H 792.991 6.20544 -2.71903 0
M  V30 8243 H 793.934 5.72593 -4.16584 0
M  V30 8244 H 794.342 5.02529 -2.57148 0
M  V30 8245 N 793.74 1.17359 1.05189 0
M  V30 8246 C 794.703 0.892604 2.11105 0
M  V30 8247 C 795.703 -0.117236 1.60372 0
M  V30 8248 O 796.893 0.114936 1.7382 0
M  V30 8249 C 794.025 0.337032 3.3923 0
M  V30 8250 H 795.218 1.83169 2.37464 0
M  V30 8251 H 792.771 0.984051 1.21434 0
M  V30 8252 H 793.506 -0.609198 3.18527 0
M  V30 8253 H 793.291 1.06484 3.77364 0
M  V30 8254 H 794.781 0.158763 4.17298 0
M  V30 8255 N 795.218 -1.23913 0.973828 0
M  V30 8256 C 796.466 -1.91771 0.637817 0
M  V30 8257 C 796.787 -1.76434 -0.830435 0
M  V30 8258 O 796.057 -1.13965 -1.59339 0
M  V30 8259 H 794.637 -0.709761 0.232912 0
M  V30 8260 H 797.299 -1.50677 1.23622 0
M  V30 8261 H 796.395 -2.99327 0.883731 0
M  V30 8262 N 796.696 -0.74468 -1.38897 0
M  V30 8263 C 797.626 -0.126355 -2.33158 0
M  V30 8264 C 798.607 0.713517 -1.54412 0
M  V30 8265 O 799.792 0.656523 -1.82766 0
M  V30 8266 C 796.922 0.774375 -3.38557 0
M  V30 8267 C 795.876 0.0379214 -4.27983 0
M  V30 8268 C 795.202 1.05631 -5.24162 0
M  V30 8269 C 796.502 -1.12523 -5.10035 0
M  V30 8270 H 798.196 -0.913744 -2.85116 0
M  V30 8271 H 795.742 -0.440847 -1.37086 0
M  V30 8272 H 797.695 1.21655 -4.03458 0
M  V30 8273 H 796.419 1.59399 -2.85061 0
M  V30 8274 H 795.078 -0.384733 -3.64576 0
M  V30 8275 H 794.726 1.86975 -4.66958 0
M  V30 8276 H 794.426 0.568261 -5.84846 0
M  V30 8277 H 795.95 1.49799 -5.9194 0
M  V30 8278 H 797.364 -0.761037 -5.68226 0
M  V30 8279 H 795.761 -1.54355 -5.79909 0
M  V30 8280 H 796.831 -1.94237 -4.44297 0
M  V30 8281 N 798.174 1.49689 -0.493057 0
M  V30 8282 C 799.121 2.28976 0.28959 0
M  V30 8283 C 800.091 1.35011 0.967536 0
M  V30 8284 O 801.276 1.63964 0.975736 0
M  V30 8285 C 798.416 3.1748 1.35279 0
M  V30 8286 C 797.529 4.26496 0.687418 0
M  V30 8287 C 796.664 5.02226 1.73038 0
M  V30 8288 C 795.703 6.03089 1.04645 0
M  V30 8289 N 794.84 6.72014 2.03325 0
M  V30 8290 H 799.68 2.954 -0.392798 0
M  V30 8291 H 797.217 1.45657 -0.205554 0
M  V30 8292 H 799.175 3.67162 1.98111 0
M  V30 8293 H 797.805 2.53057 2.00405 0
M  V30 8294 H 796.857 3.80362 -0.0540001 0
M  V30 8295 H 798.169 4.98578 0.14864 0
M  V30 8296 H 797.323 5.55737 2.43395 0
M  V30 8297 H 796.062 4.29899 2.303 0
M  V30 8298 H 795.067 5.48817 0.328606 0
M  V30 8299 H 796.292 6.77398 0.480428 0
M  V30 8300 H 794.238 6.02464 2.59564 0
M  V30 8301 H 794.155 7.40046 1.54492 0
M  V30 8302 H 795.423 7.30133 2.72995 0
M  V30 8303 N 799.652 0.226554 1.55963 0
M  V30 8304 C 800.899 -0.403789 1.98433 0
M  V30 8305 C 801.227 -1.59416 1.1143 0
M  V30 8306 O 800.482 -1.95042 0.160389 0
M  V30 8307 C 800.781 -0.87642 3.46488 0
M  V30 8308 C 800.447 0.203973 4.50438 0
M  V30 8309 C 799.109 0.500754 4.78587 0
M  V30 8310 C 801.461 0.934396 5.12756 0
M  V30 8311 C 798.789 1.53239 5.66334 0
M  V30 8312 C 801.141 1.9554 6.0162 0
M  V30 8313 C 799.805 2.25905 6.28111 0
M  V30 8314 H 799.075 -0.147757 0.726119 0
M  V30 8315 H 801.722 0.330121 1.88633 0
M  V30 8316 H 800.027 -1.68918 3.53517 0
M  V30 8317 H 801.724 -1.37407 3.76723 0
M  V30 8318 H 798.314 -0.0374917 4.28584 0
M  V30 8319 H 802.498 0.718355 4.91074 0
M  V30 8320 H 797.754 1.77321 5.85122 0
M  V30 8321 H 801.928 2.52642 6.48957 0
M  V30 8322 H 799.555 3.05985 6.959 0
M  V30 8323 N 801.13 -1.57531 -0.0467866 0
M  V30 8324 C 802.379 -1.87632 -0.740069 0
M  V30 8325 C 802.692 -0.822691 -1.77457 0
M  V30 8326 O 803.898 -1.01235 -2.5192 0
M  V30 8327 C 802.354 -3.32917 -1.36727 0
M  V30 8328 C 801.962 -4.46469 -0.370035 0
M  V30 8329 C 803.706 -3.72189 -2.04146 0
M  V30 8330 C 801.613 -5.82806 -1.00457 0
M  V30 8331 H 800.543 -0.70002 -0.280158 0
M  V30 8332 H 803.194 -1.83499 0.00607151 0
M  V30 8333 H 801.576 -3.31739 -2.16252 0
M  V30 8334 H 802.75 -4.59085 0.397217 0
M  V30 8335 H 801.065 -4.15914 0.201079 0
M  V30 8336 H 803.662 -4.71357 -2.52441 0
M  V30 8337 H 804.005 -3.03268 -2.85192 0
M  V30 8338 H 804.538 -3.75465 -1.3142 0
M  V30 8339 H 801.277 -6.55083 -0.233907 0
M  V30 8340 H 800.797 -5.73944 -1.74209 0
M  V30 8341 H 802.476 -6.28961 -1.51713 0
M  V30 8342 N 802.608 0.318715 -1.54344 0
M  V30 8343 C 803.556 1.41254 -1.84798 0
M  V30 8344 C 804.55 1.53325 -0.720256 0
M  V30 8345 O 805.756 1.55653 -0.903992 0
M  V30 8346 H 802.131 0.471468 -0.585851 0
M  V30 8347 H 804.102 1.12795 -2.7626 0
M  V30 8348 C 802.851 2.77395 -2.09637 0
M  V30 8349 H 802.174 2.68881 -2.95876 0
M  V30 8350 H 803.614 3.52987 -2.34896 0
M  V30 8351 C 802.073 3.24948 -0.889398 0
M  V30 8352 O 802.603 4.01573 -0.101063 0
M  V30 8353 N 800.809 2.82051 -0.699684 0
M  V30 8354 H 800.356 2.19858 -1.3424 0
M  V30 8355 H 800.314 3.1422 0.106368 0
M  V30 8356 N 804.086 1.46499 0.581025 0
M  V30 8357 C 805.497 1.4604 1.16315 0
M  V30 8358 C 805.848 0.202154 1.95156 0
M  V30 8359 O 804.973 -0.694638 2.04948 0
M  V30 8360 C 805.568 2.64593 2.11604 0
M  V30 8361 C 804.127 2.6717 2.65136 0
M  V30 8362 C 803.274 2.38753 1.4104 0
M  V30 8363 H 806.225 1.54354 0.368871 0
M  V30 8364 H 806.246 2.40207 2.95095 0
M  V30 8365 H 805.758 3.56154 1.54194 0
M  V30 8366 H 803.859 1.79685 3.26411 0
M  V30 8367 H 803.972 3.67182 3.07757 0
M  V30 8368 H 802.336 1.88845 1.70908 0
M  V30 8369 H 803.119 3.32493 0.854588 0
M  V30 8370 N 805.565 -0.825799 1.34232 0
M  V30 8371 C 806.812 -1.58185 1.26427 0
M  V30 8372 C 807.14 -1.93786 -0.166533 0
M  V30 8373 O 806.395 -1.59986 -1.12707 0
M  V30 8374 C 806.694 -2.89362 2.09772 0
M  V30 8375 C 806.36 -2.73066 3.58812 0
M  V30 8376 C 805.022 -2.68329 3.99441 0
M  V30 8377 C 807.374 -2.56946 4.53462 0
M  V30 8378 C 804.702 -2.4539 5.32917 0
M  V30 8379 C 807.054 -2.35538 5.87115 0
M  V30 8380 C 805.718 -2.29212 6.26912 0
M  V30 8381 H 804.988 -0.57884 0.462629 0
M  V30 8382 H 807.635 -0.955714 1.65947 0
M  V30 8383 H 805.94 -3.56251 1.63071 0
M  V30 8384 H 807.637 -3.4694 2.01081 0
M  V30 8385 H 804.227 -2.77591 3.26559 0
M  V30 8386 H 808.411 -2.59631 4.22972 0
M  V30 8387 H 803.667 -2.38947 5.62774 0
M  V30 8388 H 807.841 -2.22051 6.6005 0
M  V30 8389 H 805.468 -2.11197 7.30274 0
M  V30 8390 N 807.043 -1.17915 -1.04565 0
M  V30 8391 C 808.291 -0.969505 -1.77327 0
M  V30 8392 C 808.612 0.502569 -1.88412 0
M  V30 8393 O 807.882 1.36467 -1.40547 0
M  V30 8394 H 806.462 -0.355723 -0.656864 0
M  V30 8395 H 809.124 -1.48506 -1.26223 0
M  V30 8396 H 808.22 -1.40324 -2.78775 0
M  V30 8397 N 808.521 1.23394 -0.980386 0
M  V30 8398 C 809.451 2.2717 -0.540024 0
M  V30 8399 C 810.432 1.64659 0.426787 0
M  V30 8400 O 811.617 1.91543 0.320153 0
M  V30 8401 C 808.747 3.46939 0.15836 0
M  V30 8402 C 807.701 4.21802 -0.725732 0
M  V30 8403 C 807.027 5.34597 0.104866 0
M  V30 8404 C 808.327 4.81802 -2.01654 0
M  V30 8405 H 810.021 2.64257 -1.40743 0
M  V30 8406 H 807.567 1.2703 -0.678193 0
M  V30 8407 H 809.52 4.18683 0.477737 0
M  V30 8408 H 808.244 3.08912 1.06022 0
M  V30 8409 H 806.903 3.51875 -1.02857 0
M  V30 8410 H 806.551 4.92812 1.00726 0
M  V30 8411 H 806.251 5.85607 -0.483557 0
M  V30 8412 H 807.775 6.09163 0.418624 0
M  V30 8413 H 809.189 5.45554 -1.76193 0
M  V30 8414 H 807.586 5.43098 -2.55273 0
M  V30 8415 H 808.656 4.02549 -2.70338 0
M  V30 8416 N 809.999 0.752036 1.385 0
M  V30 8417 C 810.962 0.131587 2.28822 0
M  V30 8418 C 811.962 -0.649149 1.47115 0
M  V30 8419 O 813.152 -0.475645 1.67581 0
M  V30 8420 C 810.284 -0.822101 3.30839 0
M  V30 8421 H 811.477 0.927551 2.85196 0
M  V30 8422 H 809.03 0.518945 1.47434 0
M  V30 8423 H 809.765 -1.6438 2.79553 0
M  V30 8424 H 809.55 -0.264689 3.91206 0
M  V30 8425 H 811.04 -1.25226 3.98382 0
M  V30 8426 N 811.477 -1.49425 0.500989 0
M  V30 8427 C 812.702 -2.07356 -0.0425154 0
M  V30 8428 C 813.127 -1.35887 -1.30063 0
M  V30 8429 O 812.485 -0.41561 -1.76472 0
M  V30 8430 C 812.533 -3.59518 -0.279188 0
M  V30 8431 O 811.637 -3.89542 -1.3539 0
M  V30 8432 H 810.978 -0.663482 0.0262207 0
M  V30 8433 H 813.508 -1.92231 0.700607 0
M  V30 8434 H 813.518 -4.04791 -0.5107 0
M  V30 8435 H 812.193 -4.10946 0.640009 0
M  V30 8436 H 810.77 -3.56079 -1.10734 0
M  V30 8437 N 812.955 -0.234822 -1.55841 0
M  V30 8438 C 813.918 0.656378 -2.196 0
M  V30 8439 C 814.918 1.11179 -1.16171 0
M  V30 8440 O 816.108 1.01845 -1.41326 0
M  V30 8441 C 813.24 1.90072 -2.82993 0
M  V30 8442 H 814.433 0.100281 -2.99732 0
M  V30 8443 H 811.986 0.0147613 -1.56293 0
M  V30 8444 H 812.721 2.49836 -2.06767 0
M  V30 8445 H 812.506 1.5825 -3.58747 0
M  V30 8446 H 813.996 2.53538 -3.31826 0
M  V30 8447 N 814.433 1.57553 0.0384317 0
M  V30 8448 C 815.661 1.93093 0.743141 0
M  V30 8449 C 816.076 0.833787 1.69391 0
M  V30 8450 O 815.433 -0.190532 1.81503 0
M  V30 8451 C 815.484 3.28533 1.50826 0
M  V30 8452 O 815.205 4.34032 0.595665 0
M  V30 8453 C 816.706 3.78297 2.31098 0
M  V30 8454 H 813.926 0.637486 0.20941 0
M  V30 8455 H 816.47 2.045 -0.00125154 0
M  V30 8456 H 814.625 3.18552 2.20462 0
M  V30 8457 H 815.039 5.12155 1.13124 0
M  V30 8458 H 816.513 4.75602 2.80191 0
M  V30 8459 H 816.99 3.09008 3.12107 0
M  V30 8460 H 817.596 3.91331 1.66555 0
M  V30 8461 N 815.911 -0.310526 1.54511 0
M  V30 8462 C 817.322 -0.884142 1.64438 0
M  V30 8463 C 817.673 -1.88425 0.546855 0
M  V30 8464 O 816.798 -2.14049 -0.31811 0
M  V30 8465 C 817.393 -1.6104 2.9808 0
M  V30 8466 C 815.952 -2.13255 3.1016 0
M  V30 8467 C 815.099 -0.96213 2.60074 0
M  V30 8468 H 818.05 -0.0877666 1.58457 0
M  V30 8469 H 818.071 -2.47541 2.8897 0
M  V30 8470 H 817.583 -0.882255 3.77939 0
M  V30 8471 H 815.684 -2.89145 2.35002 0
M  V30 8472 H 815.797 -2.37361 4.16169 0
M  V30 8473 H 814.161 -1.34501 2.16291 0
M  V30 8474 H 814.944 -0.248098 3.42402 0
M  V30 8475 N 817.389 -1.46805 -0.573248 0
M  V30 8476 C 818.352 -1.57655 -1.66366 0
M  V30 8477 C 819.352 -0.452905 -1.5429 0
M  V30 8478 O 820.542 -0.717502 -1.58737 0
M  V30 8479 C 817.674 -1.50584 -3.05839 0
M  V30 8480 H 818.867 -2.54842 -1.581 0
M  V30 8481 H 816.42 -1.34756 -0.791868 0
M  V30 8482 H 817.155 -0.547127 -3.19651 0
M  V30 8483 H 816.94 -2.32118 -3.16012 0
M  V30 8484 H 818.43 -1.61282 -3.85199 0
M  V30 8485 N 818.867 0.818669 -1.34668 0
M  V30 8486 C 820.095 1.60674 -1.30351 0
M  V30 8487 C 820.51 1.88408 0.121546 0
M  V30 8488 O 819.867 1.47849 1.06991 0
M  V30 8489 C 819.918 2.94516 -2.09625 0
M  V30 8490 O 819.639 2.6799 -3.46573 0
M  V30 8491 C 821.14 3.8891 -2.12754 0
M  V30 8492 H 818.36 0.499306 -0.448258 0
M  V30 8493 H 820.904 1.01828 -1.77345 0
M  V30 8494 H 819.059 3.49908 -1.66262 0
M  V30 8495 H 819.473 3.53361 -3.87603 0
M  V30 8496 H 820.947 4.79972 -2.72637 0
M  V30 8497 H 821.424 4.24599 -1.12306 0
M  V30 8498 H 822.03 3.39453 -2.56225 0
M  V30 8499 N 820.346 1.18468 1.03938 0
M  V30 8500 C 821.571 1.00638 1.81347 0
M  V30 8501 C 821.996 -0.440477 1.8287 0
M  V30 8502 O 821.354 -1.31609 1.24695 0
M  V30 8503 C 821.402 1.5673 3.24759 0
M  V30 8504 O 820.506 0.789517 4.04772 0
M  V30 8505 H 819.847 0.356432 0.560225 0
M  V30 8506 H 822.377 1.57253 1.30891 0
M  V30 8507 H 822.387 1.59496 3.75533 0
M  V30 8508 H 821.062 2.62043 3.22965 0
M  V30 8509 H 819.639 0.834267 3.63448 0
M  V30 8510 N 821.824 -1.22873 0.986916 0
M  V30 8511 C 823.052 -1.95487 0.677663 0
M  V30 8512 C 823.467 -1.72978 -0.756572 0
M  V30 8513 O 822.824 -1.02517 -1.50985 0
M  V30 8514 C 822.875 -3.48337 0.966638 0
M  V30 8515 O 822.596 -3.70087 2.34451 0
M  V30 8516 C 824.097 -4.38142 0.674248 0
M  V30 8517 H 821.317 -0.622211 0.251185 0
M  V30 8518 H 823.861 -1.56187 1.32007 0
M  V30 8519 H 822.016 -3.85628 0.370137 0
M  V30 8520 H 822.43 -4.64332 2.43918 0
M  V30 8521 H 823.904 -5.44165 0.926759 0
M  V30 8522 H 824.381 -4.3745 -0.391728 0
M  V30 8523 H 824.987 -4.06469 1.25152 0
M  V30 8524 N 823.302 -0.75937 -1.38099 0
M  V30 8525 C 824.527 -0.327859 -2.04792 0
M  V30 8526 C 824.952 1.03752 -1.56899 0
M  V30 8527 O 824.31 1.66235 -0.723581 0
M  V30 8528 C 824.358 -0.366264 -3.58735 0
M  V30 8529 O 823.462 0.637697 -4.0744 0
M  V30 8530 H 822.803 -0.144092 -0.648177 0
M  V30 8531 H 825.333 -1.03211 -1.7666 0
M  V30 8532 H 825.343 -0.219179 -4.07411 0
M  V30 8533 H 824.018 -1.36243 -3.92951 0
M  V30 8534 H 822.595 0.454749 -3.70117 0
M  V30 8535 N 824.78 1.49157 -0.508906 0
M  V30 8536 C 825.713 2.26056 0.312103 0
M  V30 8537 C 826.691 1.30982 0.963456 0
M  V30 8538 O 827.875 1.60286 0.992002 0
M  V30 8539 C 825.002 3.06555 1.4402 0
M  V30 8540 C 824.048 4.16844 0.902414 0
M  V30 8541 S 824.881 5.35076 -0.213087 0
M  V30 8542 C 826.037 6.19132 0.917985 0
M  V30 8543 H 826.27 2.95343 -0.340559 0
M  V30 8544 H 823.803 1.51569 -0.294331 0
M  V30 8545 H 825.761 3.53517 2.08653 0
M  V30 8546 H 824.422 2.36722 2.0645 0
M  V30 8547 H 823.615 4.72714 1.74806 0
M  V30 8548 H 823.217 3.72513 0.333156 0
M  V30 8549 H 825.509 6.52556 1.82145 0
M  V30 8550 H 826.452 7.06982 0.397724 0
M  V30 8551 H 826.86 5.51839 1.18889 0
M  V30 8552 N 826.258 0.243083 1.55714 0
M  V30 8553 C 827.507 -0.383188 1.98027 0
M  V30 8554 C 827.82 -1.59347 1.13436 0
M  V30 8555 O 829.026 -2.29065 1.45745 0
M  V30 8556 C 827.482 -0.733135 3.52354 0
M  V30 8557 C 827.09 0.455539 4.45678 0
M  V30 8558 C 828.834 -1.32381 4.03331 0
M  V30 8559 C 826.741 0.0819591 5.91343 0
M  V30 8560 H 825.671 -0.146944 0.739543 0
M  V30 8561 H 828.322 0.342697 1.80272 0
M  V30 8562 H 826.704 -1.51704 3.65789 0
M  V30 8563 H 827.878 1.23291 4.44 0
M  V30 8564 H 826.193 0.960886 4.05162 0
M  V30 8565 H 828.79 -1.61658 5.09677 0
M  V30 8566 H 829.133 -2.24698 3.50452 0
M  V30 8567 H 829.666 -0.602885 3.93205 0
M  V30 8568 H 826.405 0.972171 6.48251 0
M  V30 8569 H 825.925 -0.659291 5.96166 0
M  V30 8570 H 827.604 -0.3372 6.46121 0
M  V30 8571 N 827.736 -1.57571 -0.0300757 0
M  V30 8572 C 829.152 -1.54869 -0.385703 0
M  V30 8573 C 829.352 -0.969068 -1.76667 0
M  V30 8574 O 828.408 -0.589676 -2.45518 0
M  V30 8575 C 829.721 -2.99313 -0.288482 0
M  V30 8576 C 831.269 -3.10857 -0.365638 0
M  V30 8577 C 831.744 -4.5703 -0.297878 0
M  V30 8578 N 833.235 -4.61825 -0.356703 0
M  V30 8579 C 833.97 -5.72466 -0.327146 0
M  V30 8580 N 833.466 -6.92349 -0.249941 0
M  V30 8581 N 835.259 -5.60836 -0.376801 0
M  V30 8582 H 827.41 -1.936 0.87367 0
M  V30 8583 H 829.673 -0.887924 0.332106 0
M  V30 8584 H 829.379 -3.45443 0.66047 0
M  V30 8585 H 829.253 -3.61332 -1.08253 0
M  V30 8586 H 831.64 -2.64676 -1.30502 0
M  V30 8587 H 831.721 -2.51671 0.457744 0
M  V30 8588 H 831.365 -5.03879 0.637835 0
M  V30 8589 H 831.295 -5.14127 -1.13935 0
M  V30 8590 H 833.786 -3.75571 -0.418926 0
M  V30 8591 H 834.099 -7.7245 -0.23246 0
M  V30 8592 H 832.444 -6.94664 -0.216004 0
M  V30 8593 H 835.635 -4.66073 -0.435101 0
M  V30 8594 H 835.808 -6.47052 -0.350298 0
M  V30 8595 N 829.214 0.302327 -1.54673 0
M  V30 8596 C 830.63 0.647911 -1.45857 0
M  V30 8597 C 830.83 1.90773 -0.64869 0
M  V30 8598 O 829.886 2.52018 -0.155865 0
M  V30 8599 C 831.199 0.802144 -2.89804 0
M  V30 8600 C 832.747 0.898114 -2.99838 0
M  V30 8601 C 833.222 1.08436 -4.44978 0
M  V30 8602 N 834.713 1.15059 -4.48682 0
M  V30 8603 C 835.448 1.31296 -5.58166 0
M  V30 8604 N 834.944 1.4444 -6.77576 0
M  V30 8605 N 836.737 1.34174 -5.45851 0
M  V30 8606 H 828.888 -0.525428 -2.05798 0
M  V30 8607 H 831.151 -0.173423 -0.932002 0
M  V30 8608 H 830.857 -0.0526531 -3.51661 0
M  V30 8609 H 830.731 1.69155 -3.37145 0
M  V30 8610 H 833.118 1.7434 -2.38096 0
M  V30 8611 H 833.199 -0.0152752 -2.55795 0
M  V30 8612 H 832.843 0.243843 -5.07314 0
M  V30 8613 H 832.773 2.01195 -4.8665 0
M  V30 8614 H 835.264 1.0626 -3.62653 0
M  V30 8615 H 835.577 1.56582 -7.56771 0
M  V30 8616 H 833.922 1.41499 -6.80443 0
M  V30 8617 H 837.113 1.23516 -4.5151 0
M  V30 8618 H 837.286 1.46485 -6.31226 0
M  V30 8619 N 830.692 1.47107 0.565454 0
M  V30 8620 C 831.655 1.58535 1.65527 0
M  V30 8621 C 832.655 0.461081 1.54048 0
M  V30 8622 O 833.845 0.725911 1.58355 0
M  V30 8623 C 830.977 1.52204 3.05036 0
M  V30 8624 H 832.17 2.55676 1.56747 0
M  V30 8625 H 829.723 1.35174 0.78471 0
M  V30 8626 H 830.458 0.564071 3.19357 0
M  V30 8627 H 830.243 2.3379 3.14777 0
M  V30 8628 H 831.733 1.63322 3.84338 0
M  V30 8629 N 832.17 -0.811516 1.35101 0
M  V30 8630 C 833.417 -1.56835 1.28098 0
M  V30 8631 C 833.745 -1.93951 -0.14597 0
M  V30 8632 O 833 -1.61173 -1.11004 0
M  V30 8633 C 833.299 -2.87121 2.1283 0
M  V30 8634 C 832.965 -2.69245 3.61688 0
M  V30 8635 C 831.627 -2.64078 4.02264 0
M  V30 8636 C 833.979 -2.52122 4.56162 0
M  V30 8637 C 831.307 -2.39724 5.3549 0
M  V30 8638 C 833.659 -2.29298 5.89581 0
M  V30 8639 C 832.323 -2.2255 6.29307 0
M  V30 8640 H 831.593 -0.5739 0.468742 0
M  V30 8641 H 834.24 -0.93806 1.66951 0
M  V30 8642 H 832.545 -3.54502 1.66841 0
M  V30 8643 H 834.242 -3.44788 2.0475 0
M  V30 8644 H 830.832 -2.74112 3.29485 0
M  V30 8645 H 835.016 -2.5513 4.25702 0
M  V30 8646 H 830.272 -2.32965 5.65276 0
M  V30 8647 H 834.446 -2.15038 6.62368 0
M  V30 8648 H 832.073 -2.0344 7.32473 0
M  V30 8649 N 833.648 -1.19017 -1.03309 0
M  V30 8650 C 834.558 -0.939303 -2.14975 0
M  V30 8651 C 835.574 0.0992359 -1.73717 0
M  V30 8652 O 836.75 -0.0844362 -2.01223 0
M  V30 8653 C 833.815 -0.476712 -3.43407 0
M  V30 8654 C 832.876 -1.58413 -3.99003 0
M  V30 8655 C 832.109 -1.14352 -5.21305 0
M  V30 8656 O 832.332 -0.00534408 -5.704 0
M  V30 8657 O 831.266 -1.94436 -5.6963 0
M  V30 8658 H 835.092 -1.87386 -2.38998 0
M  V30 8659 H 832.677 -0.972635 -1.13403 0
M  V30 8660 H 834.559 -0.22718 -4.20787 0
M  V30 8661 H 833.234 0.429455 -3.20839 0
M  V30 8662 H 832.141 -1.88777 -3.22977 0
M  V30 8663 H 833.474 -2.4667 -4.25928 0
M  V30 8664 N 835.127 1.22348 -0.993418 0
M  V30 8665 C 836.09 2.22522 -0.549251 0
M  V30 8666 C 837.09 1.56529 0.368164 0
M  V30 8667 O 838.28 1.73463 0.16005 0
M  V30 8668 C 835.412 3.40307 0.201037 0
M  V30 8669 H 836.605 2.63332 -1.43515 0
M  V30 8670 H 834.158 1.35407 -0.78068 0
M  V30 8671 H 834.893 3.0497 1.10289 0
M  V30 8672 H 834.678 3.8942 -0.457685 0
M  V30 8673 H 836.168 4.14597 0.499946 0
M  V30 8674 N 836.605 0.766683 1.37694 0
M  V30 8675 C 837.853 0.328065 1.9942 0
M  V30 8676 C 838.174 -1.09775 1.61166 0
M  V30 8677 O 837.444 -1.75288 0.874686 0
M  V30 8678 H 836.024 0.11831 0.737572 0
M  V30 8679 H 838.686 0.983686 1.68255 0
M  V30 8680 H 837.782 0.401647 3.09505 0
M  V30 8681 N 838.083 -1.48885 0.516809 0
M  V30 8682 C 839.329 -2.03395 -0.0140225 0
M  V30 8683 C 839.684 -1.38808 -1.33229 0
M  V30 8684 O 838.977 -0.520104 -1.84406 0
M  V30 8685 C 839.171 -3.56801 -0.206798 0
M  V30 8686 C 839 -4.36259 1.09124 0
M  V30 8687 C 837.77 -4.77689 1.64745 0
M  V30 8688 C 839.968 -4.73881 1.99854 0
M  V30 8689 N 837.95 -5.41634 2.88975 0
M  V30 8690 C 839.321 -5.37707 3.08661 0
M  V30 8691 C 841.376 -4.55816 2.00341 0
M  V30 8692 C 840.079 -5.85379 4.18001 0
M  V30 8693 C 842.105 -5.04459 3.08666 0
M  V30 8694 C 841.467 -5.68299 4.16191 0
M  V30 8695 H 837.566 -0.781169 0.036042 0
M  V30 8696 H 840.15 -1.81867 0.695173 0
M  V30 8697 H 838.321 -3.78181 -0.885064 0
M  V30 8698 H 840.053 -3.9795 -0.736053 0
M  V30 8699 H 836.808 -4.58392 1.19054 0
M  V30 8700 H 837.232 -5.78181 3.52187 0
M  V30 8701 H 841.874 -4.05851 1.18511 0
M  V30 8702 H 839.592 -6.34356 5.00618 0
M  V30 8703 H 843.178 -4.92281 3.10082 0
M  V30 8704 H 842.058 -6.05257 4.98631 0
M  V30 8705 N 839.561 -0.251338 -1.55583 0
M  V30 8706 C 840.809 0.371434 -1.98657 0
M  V30 8707 C 841.13 1.58143 -1.14087 0
M  V30 8708 O 840.4 1.94607 -0.224708 0
M  V30 8709 H 838.98 0.140225 -0.733721 0
M  V30 8710 H 841.642 -0.351157 -1.9171 0
M  V30 8711 H 840.738 0.677554 -3.04657 0
M  V30 8712 N 841.039 1.57585 0.0217189 0
M  V30 8713 C 842.286 1.89606 0.711045 0
M  V30 8714 C 842.614 0.849535 1.74966 0
M  V30 8715 O 841.869 -0.14856 1.95135 0
M  V30 8716 C 842.168 3.28377 1.41079 0
M  V30 8717 C 841.834 4.48035 0.507454 0
M  V30 8718 C 840.496 4.80504 0.258672 0
M  V30 8719 C 842.848 5.21071 -0.115793 0
M  V30 8720 C 840.176 5.83393 -0.622013 0
M  V30 8721 C 842.528 6.24897 -0.984224 0
M  V30 8722 C 841.192 6.55836 -1.2424 0
M  V30 8723 H 840.462 0.693817 0.26019 0
M  V30 8724 H 843.109 1.91478 -0.0291424 0
M  V30 8725 H 841.414 3.22528 2.22448 0
M  V30 8726 H 843.111 3.50404 1.94982 0
M  V30 8727 H 839.701 4.22653 0.711516 0
M  V30 8728 H 843.885 4.96259 0.0634327 0
M  V30 8729 H 839.141 6.05736 -0.830267 0
M  V30 8730 H 843.315 6.8063 -1.47363 0
M  V30 8731 H 840.942 7.35383 -1.92653 0
M  V30 8732 N 842.517 -0.29412 1.54831 0
M  V30 8733 C 843.48 -1.3461 1.85507 0
M  V30 8734 C 844.48 -1.43359 0.728343 0
M  V30 8735 O 845.67 -1.42875 0.996609 0
M  V30 8736 C 842.802 -2.73012 2.0415 0
M  V30 8737 H 843.995 -1.08651 2.79526 0
M  V30 8738 H 841.548 -0.531138 1.46999 0
M  V30 8739 H 842.283 -3.04183 1.12441 0
M  V30 8740 H 842.068 -2.68051 2.86166 0
M  V30 8741 H 843.558 -3.49061 2.29229 0
M  V30 8742 N 843.995 -1.47404 -0.557645 0
M  V30 8743 C 844.925 -1.62736 -1.67449 0
M  V30 8744 C 845.906 -0.476824 -1.6328 0
M  V30 8745 O 847.091 -0.706108 -1.80908 0
M  V30 8746 C 844.221 -1.641 -3.06086 0
M  V30 8747 C 843.175 -2.78377 -3.25101 0
M  V30 8748 C 842.501 -2.64812 -4.6452 0
M  V30 8749 C 843.801 -4.19971 -3.10518 0
M  V30 8750 H 845.495 -2.56232 -1.54873 0
M  V30 8751 H 843.041 -1.23312 -0.743649 0
M  V30 8752 H 844.994 -1.73417 -3.84063 0
M  V30 8753 H 843.718 -0.671652 -3.19619 0
M  V30 8754 H 842.377 -2.6857 -2.49531 0
M  V30 8755 H 842.025 -1.65906 -4.74852 0
M  V30 8756 H 841.725 -3.41477 -4.78191 0
M  V30 8757 H 843.249 -2.76057 -5.44633 0
M  V30 8758 H 844.663 -4.30757 -3.78313 0
M  V30 8759 H 843.06 -4.97419 -3.35699 0
M  V30 8760 H 844.13 -4.38369 -2.0727 0
M  V30 8761 N 845.473 0.80434 -1.35529 0
M  V30 8762 C 846.701 1.59283 -1.32048 0
M  V30 8763 C 847.116 1.88527 0.101556 0
M  V30 8764 O 846.473 1.48975 1.05417 0
M  V30 8765 C 846.524 2.92276 -2.12737 0
M  V30 8766 O 846.245 2.64299 -3.49396 0
M  V30 8767 C 847.746 3.86631 -2.16867 0
M  V30 8768 H 844.966 0.494523 -0.453528 0
M  V30 8769 H 847.51 0.999415 -1.78415 0
M  V30 8770 H 845.665 3.48125 -1.69964 0
M  V30 8771 H 846.079 3.4923 -3.91329 0
M  V30 8772 H 847.553 4.77053 -2.77712 0
M  V30 8773 H 848.03 4.23384 -1.16803 0
M  V30 8774 H 848.636 3.36717 -2.59811 0
M  V30 8775 N 846.951 1.19563 1.02676 0
M  V30 8776 C 847.898 0.935291 2.11 0
M  V30 8777 C 848.868 -0.130685 1.65585 0
M  V30 8778 O 850.053 0.0119062 1.90796 0
M  V30 8779 C 847.193 0.482384 3.41712 0
M  V30 8780 C 846.306 1.61537 4.00662 0
M  V30 8781 C 845.441 1.11378 5.19392 0
M  V30 8782 C 844.48 2.22052 5.70403 0
M  V30 8783 N 843.617 1.73185 6.80405 0
M  V30 8784 H 848.457 1.86275 2.32606 0
M  V30 8785 H 845.994 0.928656 1.14081 0
M  V30 8786 H 847.952 0.20118 4.16715 0
M  V30 8787 H 846.582 -0.408086 3.2021 0
M  V30 8788 H 845.634 2.01173 3.22852 0
M  V30 8789 H 846.946 2.44912 4.34534 0
M  V30 8790 H 846.1 0.787935 6.01562 0
M  V30 8791 H 844.839 0.249789 4.8706 0
M  V30 8792 H 843.844 2.55465 4.86845 0
M  V30 8793 H 845.069 3.08911 6.04774 0
M  V30 8794 H 843.015 0.890973 6.49921 0
M  V30 8795 H 842.932 2.50148 7.13416 0
M  V30 8796 H 844.2 1.4357 7.66164 0
M  V30 8797 N 848.429 -1.21819 0.999893 0
M  V30 8798 C 849.657 -1.94758 0.698359 0
M  V30 8799 C 850.072 -1.73771 -0.738183 0
M  V30 8800 O 849.429 -1.04113 -1.49889 0
M  V30 8801 C 849.48 -3.47292 1.00353 0
M  V30 8802 O 849.201 -3.67579 2.38363 0
M  V30 8803 C 850.702 -4.37403 0.72068 0
M  V30 8804 H 847.922 -0.619512 0.257771 0
M  V30 8805 H 850.466 -1.54778 1.33656 0
M  V30 8806 H 848.621 -3.85213 0.411018 0
M  V30 8807 H 849.035 -4.61719 2.48829 0
M  V30 8808 H 850.509 -5.43151 0.984422 0
M  V30 8809 H 850.986 -4.3784 -0.345309 0
M  V30 8810 H 851.592 -4.05119 1.29456 0
M  V30 8811 N 849.908 -0.773975 -1.37286 0
M  V30 8812 C 851.155 -0.339306 -1.99637 0
M  V30 8813 C 851.483 1.08478 -1.61439 0
M  V30 8814 O 850.738 1.7612 -0.853252 0
M  V30 8815 C 851.037 -0.432651 -3.54772 0
M  V30 8816 C 850.703 -1.81531 -4.12744 0
M  V30 8817 C 849.365 -2.19366 -4.2829 0
M  V30 8818 C 851.717 -2.72137 -4.44512 0
M  V30 8819 C 849.045 -3.47239 -4.72908 0
M  V30 8820 C 851.397 -3.99421 -4.90556 0
M  V30 8821 C 850.061 -4.37298 -5.04308 0
M  V30 8822 H 849.331 -0.124161 -0.730524 0
M  V30 8823 H 851.978 -0.988432 -1.64019 0
M  V30 8824 H 850.283 0.30001 -3.9065 0
M  V30 8825 H 851.98 -0.0776 -4.00925 0
M  V30 8826 H 848.57 -1.51126 -4.01072 0
M  V30 8827 H 852.754 -2.44165 -4.32084 0
M  V30 8828 H 848.01 -3.76477 -4.81742 0
M  V30 8829 H 852.184 -4.69756 -5.14104 0
M  V30 8830 H 849.811 -5.36442 -5.38641 0
M  V30 8831 N 851.386 1.48609 -0.524698 0
M  V30 8832 C 852.611 2.07398 0.00952139 0
M  V30 8833 C 853.036 1.37939 1.27884 0
M  V30 8834 O 852.394 0.443633 1.75788 0
M  V30 8835 C 852.442 3.59916 0.221956 0
M  V30 8836 O 851.546 3.91647 1.29175 0
M  V30 8837 H 850.887 0.662981 -0.0367729 0
M  V30 8838 H 853.417 1.91092 -0.7311 0
M  V30 8839 H 853.427 4.05552 0.446236 0
M  V30 8840 H 852.102 4.09876 -0.705306 0
M  V30 8841 H 850.679 3.57796 1.05055 0
M  V30 8842 N 852.864 0.259585 1.55447 0
M  V30 8843 C 853.794 -0.62852 2.24882 0
M  V30 8844 C 854.775 -1.17128 1.23349 0
M  V30 8845 O 855.96 -1.20829 1.52033 0
M  V30 8846 C 853.09 -1.81983 2.95803 0
M  V30 8847 C 852.044 -1.40929 4.04132 0
M  V30 8848 C 851.37 -2.68246 4.62545 0
M  V30 8849 C 852.67 -0.570956 5.1917 0
M  V30 8850 H 854.364 -0.0495021 2.99359 0
M  V30 8851 H 851.91 -0.0223688 1.43983 0
M  V30 8852 H 853.863 -2.44689 3.43082 0
M  V30 8853 H 852.587 -2.42444 2.18835 0
M  V30 8854 H 851.246 -0.805519 3.57641 0
M  V30 8855 H 850.894 -3.26931 3.82263 0
M  V30 8856 H 850.594 -2.41495 5.35681 0
M  V30 8857 H 852.118 -3.31827 5.12565 0
M  V30 8858 H 853.532 -1.10262 5.62597 0
M  V30 8859 H 851.929 -0.398979 5.98772 0
M  V30 8860 H 852.999 0.413918 4.8313 0
M  V30 8861 N 854.342 -1.57594 -0.0133615 0
M  V30 8862 C 855.619 -1.81173 -0.737273 0
M  V30 8863 C 855.999 -0.861395 -1.92726 0
M  V30 8864 O 855.347 0.0929324 -2.28311 0
M  V30 8865 C 855.557 -3.29314 -1.15557 0
M  V30 8866 C 856.905 -3.94707 -1.56498 0
M  V30 8867 O 857.929 -3.33557 -1.24973 0
M  V30 8868 O 856.788 -5.02402 -2.15069 0
M  V30 8869 H 853.882 -0.745575 -0.357837 0
M  V30 8870 H 856.428 -1.69696 0.0110674 0
M  V30 8871 H 855.2 -3.90096 -0.30677 0
M  V30 8872 H 854.823 -3.45739 -1.96343 0
M  V30 8873 N 855.82 0.285905 -1.54985 0
M  V30 8874 C 856.767 1.35306 -1.86978 0
M  V30 8875 C 857.737 1.49682 -0.720046 0
M  V30 8876 O 858.922 1.64297 -0.970107 0
M  V30 8877 C 856.062 2.71059 -2.13591 0
M  V30 8878 C 855.175 2.6501 -3.41165 0
M  V30 8879 C 854.31 3.92856 -3.57544 0
M  V30 8880 C 853.349 3.81266 -4.78855 0
M  V30 8881 N 852.486 5.00919 -4.9196 0
M  V30 8882 H 857.326 1.07323 -2.78003 0
M  V30 8883 H 854.863 0.518776 -1.37649 0
M  V30 8884 H 856.821 3.50026 -2.27019 0
M  V30 8885 H 855.451 2.97271 -1.25816 0
M  V30 8886 H 854.503 1.77824 -3.36278 0
M  V30 8887 H 855.815 2.52342 -4.30262 0
M  V30 8888 H 854.969 4.80263 -3.70718 0
M  V30 8889 H 853.708 4.08377 -2.66608 0
M  V30 8890 H 852.713 2.92243 -4.65698 0
M  V30 8891 H 853.938 3.67277 -5.71213 0
M  V30 8892 H 851.884 5.16875 -4.03951 0
M  V30 8893 H 851.801 4.90732 -5.75081 0
M  V30 8894 H 853.069 5.89935 -5.09507 0
M  V30 8895 N 857.298 1.47698 0.54982 0
M  V30 8896 C 858.575 1.45185 1.31075 0
M  V30 8897 C 858.955 0.152768 2.10547 0
M  V30 8898 O 858.303 -0.865706 2.11466 0
M  V30 8899 C 858.513 2.70192 2.20902 0
M  V30 8900 C 859.861 3.1771 2.81683 0
M  V30 8901 O 860.885 2.70971 2.312 0
M  V30 8902 O 859.744 3.98986 3.7346 0
M  V30 8903 H 856.838 0.57892 0.590577 0
M  V30 8904 H 859.384 1.59908 0.568112 0
M  V30 8905 H 858.156 3.56269 1.61828 0
M  V30 8906 H 857.779 2.58091 3.02448 0
M  V30 8907 N 858.776 -0.797141 1.35954 0
M  V30 8908 C 860.025 -1.54983 1.29086 0
M  V30 8909 C 860.338 -1.95167 -0.130003 0
M  V30 8910 O 861.544 -2.69596 -0.32101 0
M  V30 8911 C 860 -2.79738 2.26439 0
M  V30 8912 C 859.608 -2.46753 3.73921 0
M  V30 8913 C 861.352 -3.57733 2.28533 0
M  V30 8914 C 859.259 -3.67858 4.63071 0
M  V30 8915 H 858.189 -0.581766 0.479651 0
M  V30 8916 H 860.84 -0.87541 1.61273 0
M  V30 8917 H 859.222 -3.48939 1.87236 0
M  V30 8918 H 860.396 -1.85499 4.21814 0
M  V30 8919 H 858.711 -1.81985 3.74527 0
M  V30 8920 H 861.308 -4.47699 2.92351 0
M  V30 8921 H 861.651 -3.95754 1.29169 0
M  V30 8922 H 862.184 -2.95504 2.66313 0
M  V30 8923 H 858.923 -3.34939 5.63468 0
M  V30 8924 H 858.443 -4.28305 4.19898 0
M  V30 8925 H 860.122 -4.34977 4.78961 0
M  V30 8926 N 860.254 -1.20106 -1.0204 0
M  V30 8927 C 861.5 -1.01039 -1.75838 0
M  V30 8928 C 861.833 0.456819 -1.88751 0
M  V30 8929 O 861.108 1.33919 -1.41053 0
M  V30 8930 C 861.391 -1.69009 -3.17975 0
M  V30 8931 C 861.244 -3.2315 -3.1288 0
M  V30 8932 C 862.563 -1.42005 -4.16561 0
M  V30 8933 H 859.682 -0.368465 -0.638281 0
M  V30 8934 H 862.324 -1.48066 -1.19064 0
M  V30 8935 H 860.474 -1.29026 -3.66449 0
M  V30 8936 H 862.146 -3.72402 -2.72239 0
M  V30 8937 H 860.389 -3.54253 -2.50374 0
M  V30 8938 H 861.06 -3.65862 -4.13339 0
M  V30 8939 H 863.536 -1.76685 -3.76725 0
M  V30 8940 H 862.412 -1.92101 -5.14187 0
M  V30 8941 H 862.673 -0.346884 -4.40737 0
M  V30 8942 N 861.732 1.21287 -1.00634 0
M  V30 8943 C 862.96 1.94385 -0.708678 0
M  V30 8944 C 863.375 1.7416 0.728957 0
M  V30 8945 O 862.732 1.04906 1.49335 0
M  V30 8946 C 862.783 3.46755 -1.02193 0
M  V30 8947 O 862.504 3.6631 -2.40309 0
M  V30 8948 C 864.005 4.37014 -0.743867 0
M  V30 8949 H 861.225 0.618136 -0.261052 0
M  V30 8950 H 863.769 1.54067 -1.34475 0
M  V30 8951 H 861.924 3.8499 -0.431441 0
M  V30 8952 H 862.338 4.60393 -2.51274 0
M  V30 8953 H 863.812 5.42621 -1.01321 0
M  V30 8954 H 864.289 4.38017 0.322084 0
M  V30 8955 H 864.895 4.04426 -1.31603 0
M  V30 8956 N 863.21 0.781244 1.36873 0
M  V30 8957 C 864.158 0.161889 2.32036 0
M  V30 8958 C 865.152 -0.674225 1.55405 0
M  V30 8959 O 866.358 -0.570223 1.70729 0
M  V30 8960 H 862.733 0.0335702 0.75125 0
M  V30 8961 H 864.704 0.980078 2.81846 0
M  V30 8962 C 863.453 -0.695352 3.40676 0
M  V30 8963 H 862.776 -0.0613425 3.99753 0
M  V30 8964 H 864.216 -1.09553 4.09602 0
M  V30 8965 C 862.675 -1.85008 2.81556 0
M  V30 8966 O 863.205 -2.94616 2.73065 0
M  V30 8967 N 861.411 -1.65364 2.38962 0
M  V30 8968 H 860.958 -0.762106 2.46068 0
M  V30 8969 H 860.916 -2.42789 1.99752 0
M  V30 8970 N 864.689 -1.48329 0.532571 0
M  V30 8971 C 865.935 -2.028 -0.000583219 0
M  V30 8972 C 866.268 -1.40858 -1.33688 0
M  V30 8973 O 865.543 -0.555261 -1.86406 0
M  V30 8974 C 865.826 -3.59901 -0.119846 0
M  V30 8975 C 865.679 -4.32318 1.2418 0
M  V30 8976 C 866.998 -4.31904 -0.845372 0
M  V30 8977 H 864.117 -0.736999 0.00126205 0
M  V30 8978 H 866.759 -1.77024 0.690102 0
M  V30 8979 H 864.909 -3.81993 -0.708092 0
M  V30 8980 H 866.581 -4.21637 1.87136 0
M  V30 8981 H 864.824 -3.93635 1.82301 0
M  V30 8982 H 865.495 -5.40697 1.11132 0
M  V30 8983 H 867.971 -4.14658 -0.346159 0
M  V30 8984 H 866.847 -5.41509 -0.897723 0
M  V30 8985 H 867.108 -3.99369 -1.89622 0
M  V30 8986 N 866.167 -0.267825 -1.55308 0
M  V30 8987 C 867.392 0.357487 -2.04296 0
M  V30 8988 C 867.817 1.49222 -1.14518 0
M  V30 8989 O 867.175 1.80741 -0.142292 0
M  V30 8990 C 867.223 0.822899 -3.51085 0
M  V30 8991 O 866.327 1.93078 -3.6441 0
M  V30 8992 H 865.668 0.075025 -0.659748 0
M  V30 8993 H 868.198 -0.399996 -2.00652 0
M  V30 8994 H 868.208 1.12059 -3.92309 0
M  V30 8995 H 866.883 -0.0073562 -4.15899 0
M  V30 8996 H 865.46 1.63618 -3.35087 0
M  V30 8997 N 867.645 1.57599 0.00500368 0
M  V30 8998 C 869.056 1.78462 0.54848 0
M  V30 8999 C 869.407 0.901869 1.74243 0
M  V30 9000 O 868.532 0.103014 2.16155 0
M  V30 9001 C 869.127 3.2365 1.00179 0
M  V30 9002 C 867.686 3.45627 1.49061 0
M  V30 9003 C 866.833 2.73794 0.439531 0
M  V30 9004 H 869.784 1.57151 -0.22118 0
M  V30 9005 H 869.805 3.31488 1.86805 0
M  V30 9006 H 869.317 3.87873 0.132607 0
M  V30 9007 H 867.418 2.86612 2.38085 0
M  V30 9008 H 867.531 4.54298 1.52152 0
M  V30 9009 H 865.895 2.38267 0.900043 0
M  V30 9010 H 866.678 3.40714 -0.420599 0
M  V30 9011 N 869.123 -0.277682 1.55134 0
M  V30 9012 C 870.539 -0.624625 1.46869 0
M  V30 9013 C 870.739 -1.89717 0.678958 0
M  V30 9014 O 869.795 -2.51739 0.195939 0
M  V30 9015 C 871.108 -0.755937 2.91043 0
M  V30 9016 C 872.656 -0.850299 3.01229 0
M  V30 9017 C 873.131 -1.01343 4.46647 0
M  V30 9018 N 874.622 -1.07906 4.50456 0
M  V30 9019 C 875.357 -1.224 5.60184 0
M  V30 9020 N 874.853 -1.33642 6.79788 0
M  V30 9021 N 876.646 -1.25473 5.47917 0
M  V30 9022 H 868.797 0.558102 2.04937 0
M  V30 9023 H 871.06 0.188228 0.929125 0
M  V30 9024 H 870.766 0.108593 3.51532 0
M  V30 9025 H 870.64 -1.6377 3.39793 0
M  V30 9026 H 873.027 -1.7053 2.40839 0
M  V30 9027 H 873.108 0.0559681 2.55739 0
M  V30 9028 H 872.752 -0.163102 5.07638 0
M  V30 9029 H 872.682 -1.93427 4.89789 0
M  V30 9030 H 875.173 -1.00477 3.64298 0
M  V30 9031 H 875.486 -1.44522 7.59166 0
M  V30 9032 H 873.831 -1.30655 6.82608 0
M  V30 9033 H 877.022 -1.16317 4.53418 0
M  V30 9034 H 877.195 -1.36424 6.33476 0
M  V30 9035 N 870.601 -1.47988 -0.541979 0
M  V30 9036 C 871.85 -1.5465 -1.29485 0
M  V30 9037 C 872.163 -0.220041 -1.94358 0
M  V30 9038 O 873.369 -0.164792 -2.70999 0
M  V30 9039 C 871.825 -2.72685 -2.34885 0
M  V30 9040 C 871.433 -4.11923 -1.76134 0
M  V30 9041 C 873.177 -2.88651 -3.11257 0
M  V30 9042 C 871.084 -5.21237 -2.79404 0
M  V30 9043 H 870.014 -0.575688 -0.486928 0
M  V30 9044 H 872.665 -1.74296 -0.573853 0
M  V30 9045 H 871.047 -2.46448 -3.09966 0
M  V30 9046 H 872.221 -4.48128 -1.07322 0
M  V30 9047 H 870.536 -4.00972 -1.12295 0
M  V30 9048 H 873.133 -3.67487 -3.88404 0
M  V30 9049 H 873.476 -1.97658 -3.66384 0
M  V30 9050 H 874.009 -3.14731 -2.43288 0
M  V30 9051 H 870.748 -6.14156 -2.29113 0
M  V30 9052 H 870.268 -4.89533 -3.4658 0
M  V30 9053 H 871.947 -5.48839 -3.42615 0
M  V30 9054 N 872.079 0.78992 -1.36375 0
M  V30 9055 C 873.328 1.54296 -1.29906 0
M  V30 9056 C 873.641 1.95234 0.119651 0
M  V30 9057 O 874.847 2.69762 0.306708 0
M  V30 9058 C 873.303 2.78533 -2.27919 0
M  V30 9059 C 872.911 2.44767 -3.75224 0
M  V30 9060 C 874.655 3.56516 -2.30427 0
M  V30 9061 C 872.562 3.65397 -4.65015 0
M  V30 9062 H 871.492 0.579214 -0.482729 0
M  V30 9063 H 874.143 0.866845 -1.61735 0
M  V30 9064 H 872.525 3.47941 -1.89084 0
M  V30 9065 H 873.699 1.83259 -4.22792 0
M  V30 9066 H 872.014 1.79996 -3.75487 0
M  V30 9067 H 874.611 4.46143 -2.94722 0
M  V30 9068 H 874.954 3.95063 -1.31266 0
M  V30 9069 H 875.487 2.94087 -2.67876 0
M  V30 9070 H 872.226 3.31946 -5.65236 0
M  V30 9071 H 871.746 4.26072 -4.22164 0
M  V30 9072 H 873.425 4.32431 -4.81261 0
M  V30 9073 N 873.557 1.20646 1.01402 0
M  V30 9074 C 874.973 0.961866 1.27359 0
M  V30 9075 C 875.173 -0.357083 1.98311 0
M  V30 9076 O 874.229 -1.08498 2.28001 0
M  V30 9077 C 875.542 2.14627 2.10609 0
M  V30 9078 C 877.09 2.18753 2.23866 0
M  V30 9079 C 877.565 3.36686 3.10494 0
M  V30 9080 N 879.056 3.36716 3.18083 0
M  V30 9081 C 879.791 4.24615 3.85343 0
M  V30 9082 N 879.287 5.22697 4.54708 0
M  V30 9083 N 881.08 4.12449 3.81893 0
M  V30 9084 H 873.231 2.05481 0.537721 0
M  V30 9085 H 875.494 0.899292 0.299963 0
M  V30 9086 H 875.2 3.10159 1.65814 0
M  V30 9087 H 875.074 2.12935 3.11349 0
M  V30 9088 H 877.461 1.23782 2.67885 0
M  V30 9089 H 877.542 2.24492 1.22626 0
M  V30 9090 H 877.186 4.31945 2.67181 0
M  V30 9091 H 877.116 3.28185 4.11828 0
M  V30 9092 H 879.607 2.65728 2.68695 0
M  V30 9093 H 879.92 5.86087 5.03708 0
M  V30 9094 H 878.265 5.26631 4.53525 0
M  V30 9095 H 881.456 3.35091 3.26851 0
M  V30 9096 H 881.629 4.81162 4.34035 0
M  V30 9097 N 875.035 -1.20752 1.01276 0
M  V30 9098 C 876.283 -1.89645 0.698505 0
M  V30 9099 C 876.604 -1.78986 -0.773883 0
M  V30 9100 O 875.874 -1.18977 -1.55632 0
M  V30 9101 H 874.454 -0.701992 0.255375 0
M  V30 9102 H 877.116 -1.46668 1.28353 0
M  V30 9103 H 876.212 -2.96364 0.978512 0
M  V30 9104 N 876.513 -0.788492 -1.36457 0
M  V30 9105 C 877.741 -0.372365 -2.03522 0
M  V30 9106 C 878.156 1.01093 -1.59454 0
M  V30 9107 O 877.513 1.64824 -0.783535 0
M  V30 9108 C 877.564 -0.425435 -3.58988 0
M  V30 9109 O 877.285 -1.75418 -4.01448 0
M  V30 9110 C 878.786 0.000180167 -4.433 0
M  V30 9111 H 876.006 -0.1536 -0.653183 0
M  V30 9112 H 878.55 -1.06708 -1.74452 0
M  V30 9113 H 876.705 0.220856 -3.8677 0
M  V30 9114 H 877.119 -1.70437 -4.96036 0
M  V30 9115 H 878.593 -0.0880919 -5.5193 0
M  V30 9116 H 879.07 1.05269 -4.26398 0
M  V30 9117 H 879.676 -0.618563 -4.20778 0
M  V30 9118 N 877.991 1.48044 -0.54043 0
M  V30 9119 C 879.219 2.06895 -0.0145153 0
M  V30 9120 C 879.634 1.39552 1.27164 0
M  V30 9121 O 878.991 0.486454 1.75897 0
M  V30 9122 C 879.042 3.60934 0.202278 0
M  V30 9123 O 878.763 4.25749 -1.03293 0
M  V30 9124 C 880.264 4.36607 0.767387 0
M  V30 9125 H 877.484 0.66991 -0.0382368 0
M  V30 9126 H 880.028 1.90288 -0.749057 0
M  V30 9127 H 878.183 3.77111 0.886897 0
M  V30 9128 H 878.597 5.18048 -0.820167 0
M  V30 9129 H 880.071 5.45126 0.86845 0
M  V30 9130 H 880.548 4.01745 1.77477 0
M  V30 9131 H 881.154 4.25133 0.119002 0
M  V30 9132 N 879.47 0.276058 1.55163 0
M  V30 9133 C 880.695 -0.346648 2.04483 0
M  V30 9134 C 881.12 -1.48613 1.15308 0
M  V30 9135 O 880.478 -1.80663 0.151875 0
M  V30 9136 C 880.526 -0.804268 3.51517 0
M  V30 9137 O 879.63 -1.91143 3.65429 0
M  V30 9138 H 878.971 -0.0715251 0.660136 0
M  V30 9139 H 881.501 0.410631 2.00437 0
M  V30 9140 H 881.511 -1.09977 3.92898 0
M  V30 9141 H 880.186 0.0294123 4.1589 0
M  V30 9142 H 878.763 -1.61839 3.3595 0
M  V30 9143 N 880.948 -1.576 0.00335426 0
M  V30 9144 C 882.196 -1.90336 -0.679446 0
M  V30 9145 C 882.517 -0.877777 -1.74127 0
M  V30 9146 O 881.787 0.0843585 -1.95718 0
M  V30 9147 H 880.367 -0.702509 -0.253948 0
M  V30 9148 H 883.029 -1.94848 0.0450731 0
M  V30 9149 H 882.125 -2.90197 -1.14857 0
M  V30 9150 N 882.426 0.269451 -1.5528 0
M  V30 9151 C 883.837 0.840233 -1.66724 0
M  V30 9152 C 884.188 1.86909 -0.596621 0
M  V30 9153 O 883.313 2.14817 0.261246 0
M  V30 9154 C 883.908 1.5308 -3.02245 0
M  V30 9155 C 882.467 2.04957 -3.15705 0
M  V30 9156 C 881.614 0.892838 -2.62533 0
M  V30 9157 H 884.565 0.0457236 -1.58634 0
M  V30 9158 H 884.586 2.39792 -2.95432 0
M  V30 9159 H 884.098 0.781741 -3.80145 0
M  V30 9160 H 882.199 2.82813 -2.42585 0
M  V30 9161 H 882.312 2.26244 -4.22316 0
M  V30 9162 H 880.676 1.28719 -2.19781 0
M  V30 9163 H 881.459 0.157229 -3.4294 0
M  V30 9164 N 883.904 1.48273 0.534124 0
M  V30 9165 C 884.837 1.57053 1.65559 0
M  V30 9166 C 885.815 0.421213 1.5705 0
M  V30 9167 O 886.999 0.632242 1.77581 0
M  V30 9168 C 884.126 1.49465 3.03937 0
M  V30 9169 C 883.172 2.69186 3.30819 0
M  V30 9170 S 884.005 4.31192 3.17543 0
M  V30 9171 C 885.161 4.26197 4.58375 0
M  V30 9172 H 885.394 2.51927 1.57861 0
M  V30 9173 H 882.927 1.36755 0.716763 0
M  V30 9174 H 884.885 1.45775 3.83745 0
M  V30 9175 H 883.546 0.559357 3.09079 0
M  V30 9176 H 882.739 2.60005 4.31756 0
M  V30 9177 H 882.341 2.70118 2.58674 0
M  V30 9178 H 884.633 3.95874 5.49809 0
M  V30 9179 H 885.576 5.27299 4.72611 0
M  V30 9180 H 885.984 3.56723 4.37503 0
M  V30 9181 N 885.382 -0.782676 1.36792 0
M  V30 9182 C 886.612 -1.56934 1.3437 0
M  V30 9183 C 887.02 -1.89049 -0.0754828 0
M  V30 9184 O 886.363 -1.51103 -1.04467 0
M  V30 9185 C 886.425 -2.91311 2.10661 0
M  V30 9186 C 886.089 -2.81889 3.59705 0
M  V30 9187 C 887.086 -2.53668 4.53815 0
M  V30 9188 C 884.771 -3.00254 4.02682 0
M  V30 9189 C 886.765 -2.43925 5.8888 0
M  V30 9190 C 884.452 -2.90132 5.37835 0
M  V30 9191 C 885.45 -2.62006 6.30747 0
M  V30 9192 O 885.138 -2.5189 7.63418 0
M  V30 9193 H 884.87 -0.493194 0.462316 0
M  V30 9194 H 887.424 -0.978791 1.80579 0
M  V30 9195 H 885.654 -3.52443 1.59125 0
M  V30 9196 H 887.343 -3.52632 2.01012 0
M  V30 9197 H 888.109 -2.39176 4.21924 0
M  V30 9198 H 883.988 -3.21151 3.30731 0
M  V30 9199 H 887.532 -2.21892 6.6137 0
M  V30 9200 H 883.429 -3.04189 5.69332 0
M  V30 9201 H 884.197 -2.67321 7.73616 0
M  V30 9202 N 886.86 -1.21182 -1.00761 0
M  V30 9203 C 888.108 -1.02543 -1.74153 0
M  V30 9204 C 888.429 0.442372 -1.89916 0
M  V30 9205 O 887.699 1.31927 -1.44818 0
M  V30 9206 H 886.279 -0.37644 -0.645214 0
M  V30 9207 H 888.941 -1.52446 -1.21434 0
M  V30 9208 H 888.037 -1.49122 -2.7417 0
M  V30 9209 N 888.338 1.20213 -1.01915 0
M  V30 9210 C 889.749 1.7136 -0.741131 0
M  V30 9211 C 890.1 1.81705 0.740107 0
M  V30 9212 O 889.225 1.48139 1.57746 0
M  V30 9213 C 889.82 3.11231 -1.33869 0
M  V30 9214 C 888.379 3.59677 -1.10948 0
M  V30 9215 C 887.526 2.36809 -1.4428 0
M  V30 9216 H 890.477 1.05191 -1.1883 0
M  V30 9217 H 890.498 3.7342 -0.730585 0
M  V30 9218 H 890.01 3.03669 -2.41675 0
M  V30 9219 H 888.111 3.72568 -0.0492052 0
M  V30 9220 H 888.224 4.44351 -1.79134 0
M  V30 9221 H 886.588 2.39674 -0.861881 0
M  V30 9222 H 887.371 2.31886 -2.53148 0
M  V30 9223 N 889.816 0.795718 1.36037 0
M  V30 9224 C 891.064 0.370291 1.98679 0
M  V30 9225 C 891.385 -1.06332 1.63458 0
M  V30 9226 O 890.655 -1.73394 0.911671 0
M  V30 9227 H 889.235 0.133928 0.734896 0
M  V30 9228 H 891.897 1.01915 1.6613 0
M  V30 9229 H 890.993 0.467207 3.08583 0
M  V30 9230 N 891.294 -1.47756 0.548274 0
M  V30 9231 C 892.226 -2.27921 -0.24177 0
M  V30 9232 C 893.239 -1.36471 -0.887658 0
M  V30 9233 O 894.428 -1.6137 -0.763016 0
M  V30 9234 C 891.528 -3.10449 -1.35922 0
M  V30 9235 C 890.701 -4.298 -0.811808 0
M  V30 9236 C 889.76 -4.93994 -1.81264 0
M  V30 9237 O 888.786 -5.52657 -1.3623 0
M  V30 9238 N 889.988 -4.87882 -3.14566 0
M  V30 9239 H 892.753 -2.96365 0.445848 0
M  V30 9240 H 890.314 -1.57286 0.383769 0
M  V30 9241 H 892.306 -3.50261 -2.02729 0
M  V30 9242 H 890.876 -2.44306 -1.95021 0
M  V30 9243 H 890.096 -3.94186 0.0327929 0
M  V30 9244 H 891.384 -5.0702 -0.425272 0
M  V30 9245 H 890.782 -4.41405 -3.53805 0
M  V30 9246 H 889.339 -5.3174 -3.76956 0
M  V30 9247 N 892.772 -0.284283 -1.55015 0
M  V30 9248 C 893.997 0.335799 -2.04664 0
M  V30 9249 C 894.422 1.47999 -1.16094 0
M  V30 9250 O 893.78 1.8058 -0.161454 0
M  V30 9251 C 893.828 0.785615 -3.51938 0
M  V30 9252 O 892.932 1.89202 -3.66437 0
M  V30 9253 H 892.273 0.0680233 -0.660506 0
M  V30 9254 H 894.803 -0.421255 -2.00216 0
M  V30 9255 H 894.813 1.07892 -3.93476 0
M  V30 9256 H 893.488 -0.0514675 -4.15868 0
M  V30 9257 H 892.065 1.60055 -3.36804 0
M  V30 9258 N 894.251 1.57596 -0.0117121 0
M  V30 9259 C 895.476 1.95764 0.684938 0
M  V30 9260 C 895.901 0.887285 1.65858 0
M  V30 9261 O 895.259 -0.153508 1.80649 0
M  V30 9262 C 895.307 3.33031 1.38285 0
M  V30 9263 O 894.411 3.28163 2.49765 0
M  V30 9264 H 893.752 0.638767 0.181309 0
M  V30 9265 H 896.282 2.04486 -0.0683883 0
M  V30 9266 H 896.292 3.68866 1.74362 0
M  V30 9267 H 894.967 4.10483 0.669043 0
M  V30 9268 H 893.544 3.04021 2.15929 0
M  V30 9269 N 895.729 -0.261212 1.5542 0
M  V30 9270 C 896.976 -0.99123 1.76581 0
M  V30 9271 C 897.304 -1.85854 0.573457 0
M  V30 9272 O 896.559 -1.90604 -0.443705 0
M  V30 9273 C 896.858 -1.89395 3.03091 0
M  V30 9274 C 896.524 -1.18318 4.351 0
M  V30 9275 C 895.186 -0.986688 4.70975 0
M  V30 9276 C 897.538 -0.678299 5.16767 0
M  V30 9277 C 894.866 -0.272788 5.86065 0
M  V30 9278 C 897.218 0.0220646 6.32596 0
M  V30 9279 C 895.882 0.230161 6.67103 0
M  V30 9280 H 895.152 -0.362717 0.646156 0
M  V30 9281 H 897.799 -0.262506 1.89692 0
M  V30 9282 H 896.104 -2.68927 2.8493 0
M  V30 9283 H 897.801 -2.46022 3.16661 0
M  V30 9284 H 894.391 -1.34625 4.06908 0
M  V30 9285 H 898.575 -0.817691 4.89518 0
M  V30 9286 H 893.831 -0.10095 6.11317 0
M  V30 9287 H 898.005 0.420981 6.95126 0
M  V30 9288 H 895.632 0.785312 7.56133 0
M  V30 9289 N 897.207 -1.48554 -0.526253 0
M  V30 9290 C 898.137 -1.66252 -1.63959 0
M  V30 9291 C 899.118 -0.511351 -1.62232 0
M  V30 9292 O 900.303 -0.744322 -1.7937 0
M  V30 9293 C 897.433 -1.70556 -3.02536 0
M  V30 9294 C 896.387 -2.8521 -3.19123 0
M  V30 9295 C 895.713 -2.74606 -4.58798 0
M  V30 9296 C 897.013 -4.26463 -3.0154 0
M  V30 9297 H 898.707 -2.59459 -1.49404 0
M  V30 9298 H 896.253 -1.24862 -0.717326 0
M  V30 9299 H 898.206 -1.81524 -3.80298 0
M  V30 9300 H 896.93 -0.739297 -3.18123 0
M  V30 9301 H 895.589 -2.73802 -2.43779 0
M  V30 9302 H 895.237 -1.75941 -4.71226 0
M  V30 9303 H 894.937 -3.51544 -4.70841 0
M  V30 9304 H 896.461 -2.87548 -5.38655 0
M  V30 9305 H 897.875 -4.38685 -3.69091 0
M  V30 9306 H 896.272 -5.04428 -3.25073 0
M  V30 9307 H 897.342 -4.42667 -1.97925 0
M  V30 9308 N 898.685 0.775411 -1.37205 0
M  V30 9309 C 899.633 1.90996 -1.32752 0
M  V30 9310 C 900.627 1.68006 -0.216907 0
M  V30 9311 O 901.833 1.7584 -0.384723 0
M  V30 9312 H 898.208 0.62803 -0.413621 0
M  V30 9313 H 900.179 1.91869 -2.28536 0
M  V30 9314 C 898.928 3.28211 -1.14772 0
M  V30 9315 H 898.251 3.46477 -1.99484 0
M  V30 9316 H 899.691 4.07907 -1.15706 0
M  V30 9317 C 898.15 3.3658 0.146852 0
M  V30 9318 O 898.68 3.85428 1.13173 0
M  V30 9319 N 896.886 2.89936 0.196305 0
M  V30 9320 H 896.433 2.50375 -0.605807 0
M  V30 9321 H 896.391 2.95916 1.06212 0
M  V30 9322 N 900.163 1.21714 1.00117 0
M  V30 9323 C 901.412 1.03087 1.73367 0
M  V30 9324 C 901.725 -0.435532 1.90689 0
M  V30 9325 O 902.931 -0.741291 2.61184 0
M  V30 9326 C 901.387 1.79593 3.11888 0
M  V30 9327 C 900.995 3.30428 3.02525 0
M  V30 9328 C 902.739 1.69386 3.89241 0
M  V30 9329 C 900.646 3.99408 4.3615 0
M  V30 9330 H 899.576 0.382117 0.650002 0
M  V30 9331 H 902.227 1.45486 1.11831 0
M  V30 9332 H 900.609 1.29988 3.74058 0
M  V30 9333 H 901.783 3.87364 2.49571 0
M  V30 9334 H 900.098 3.4122 2.38659 0
M  V30 9335 H 902.695 2.18251 4.8813 0
M  V30 9336 H 903.038 0.652773 4.1115 0
M  V30 9337 H 903.571 2.16489 3.33733 0
M  V30 9338 H 900.31 5.03735 4.19442 0
M  V30 9339 H 899.83 3.47261 4.8905 0
M  V30 9340 H 901.509 4.04537 5.04934 0
M  V30 9341 N 901.641 -1.19671 1.02551 0
M  V30 9342 C 902.551 -2.26441 0.613329 0
M  V30 9343 C 903.567 -1.70375 -0.353339 0
M  V30 9344 O 904.743 -2.0028 -0.212064 0
M  V30 9345 C 901.808 -3.46684 -0.0329028 0
M  V30 9346 C 900.869 -4.17945 0.980837 0
M  V30 9347 C 900.102 -5.32448 0.36535 0
M  V30 9348 O 900.325 -5.64291 -0.832596 0
M  V30 9349 O 899.259 -5.92012 1.08652 0
M  V30 9350 H 903.085 -2.63932 1.50246 0
M  V30 9351 H 900.67 -1.2646 0.795502 0
M  V30 9352 H 902.552 -4.1956 -0.393395 0
M  V30 9353 H 901.227 -3.1105 -0.896089 0
M  V30 9354 H 900.134 -3.47204 1.39286 0
M  V30 9355 H 901.467 -4.57542 1.81428 0
M  V30 9356 N 903.119 -0.802921 -1.35613 0
M  V30 9357 C 904.049 -0.225131 -2.32412 0
M  V30 9358 C 905.03 0.647383 -1.57299 0
M  V30 9359 O 906.215 0.578414 -1.85386 0
M  V30 9360 C 903.345 0.630085 -3.41537 0
M  V30 9361 C 902.299 -0.143635 -4.27759 0
M  V30 9362 C 901.625 0.833046 -5.28171 0
M  V30 9363 C 902.925 -1.34054 -5.04804 0
M  V30 9364 H 904.619 -1.03385 -2.80984 0
M  V30 9365 H 902.165 -0.498593 -1.35093 0
M  V30 9366 H 904.118 1.04433 -4.08254 0
M  V30 9367 H 902.842 1.47165 -2.91565 0
M  V30 9368 H 901.501 -0.539015 -3.62616 0
M  V30 9369 H 901.149 1.67001 -4.74468 0
M  V30 9370 H 900.849 0.319697 -5.8673 0
M  V30 9371 H 902.373 1.24558 -5.97761 0
M  V30 9372 H 903.787 -1.00136 -5.64487 0
M  V30 9373 H 902.184 -1.78812 -5.72841 0
M  V30 9374 H 903.254 -2.12906 -4.35659 0
M  V30 9375 N 904.597 1.47463 -0.556102 0
M  V30 9376 C 905.846 2.01678 -0.029492 0
M  V30 9377 C 906.159 1.436 1.32809 0
M  V30 9378 O 907.365 1.89472 1.94455 0
M  V30 9379 C 905.821 3.599 -0.00223937 0
M  V30 9380 C 905.429 4.26969 -1.35651 0
M  V30 9381 C 907.173 4.2187 0.471822 0
M  V30 9382 C 905.08 5.77194 -1.28843 0
M  V30 9383 H 904.01 0.753965 -0.00725504 0
M  V30 9384 H 906.661 1.69467 -0.703789 0
M  V30 9385 H 905.043 3.89068 0.737682 0
M  V30 9386 H 906.217 4.09444 -2.11406 0
M  V30 9387 H 904.532 3.76983 -1.76842 0
M  V30 9388 H 907.129 5.31955 0.541139 0
M  V30 9389 H 907.472 3.88968 1.48356 0
M  V30 9390 H 908.005 3.97228 -0.213207 0
M  V30 9391 H 904.744 6.14713 -2.27613 0
M  V30 9392 H 904.264 5.9706 -0.572668 0
M  V30 9393 H 905.943 6.3938 -0.990031 0
M  V30 9394 N 906.075 0.2925 1.54862 0
M  V30 9395 C 907.3 -0.32494 2.04839 0
M  V30 9396 C 907.725 -1.47381 1.16877 0
M  V30 9397 O 907.083 -1.80492 0.171028 0
M  V30 9398 C 907.131 -0.76694 3.5235 0
M  V30 9399 O 906.235 -1.87256 3.67436 0
M  V30 9400 H 905.576 -0.0645195 0.660858 0
M  V30 9401 H 908.106 0.431867 1.9999 0
M  V30 9402 H 908.116 -1.05804 3.94043 0
M  V30 9403 H 906.791 0.0735212 4.15835 0
M  V30 9404 H 905.368 -1.58266 3.37648 0
M  V30 9405 N 907.553 -1.57587 0.0200696 0
M  V30 9406 C 908.463 -2.13119 -0.980676 0
M  V30 9407 C 909.479 -1.08124 -1.36328 0
M  V30 9408 O 910.655 -1.40134 -1.44653 0
M  V30 9409 C 907.72 -2.63991 -2.24743 0
M  V30 9410 C 906.781 -3.83667 -1.9261 0
M  V30 9411 C 906.014 -4.32103 -3.13246 0
M  V30 9412 O 906.237 -3.79758 -4.25606 0
M  V30 9413 O 905.171 -5.24047 -2.96072 0
M  V30 9414 H 908.997 -2.98887 -0.538528 0
M  V30 9415 H 906.582 -1.48055 -0.19999 0
M  V30 9416 H 908.464 -2.9682 -2.99125 0
M  V30 9417 H 907.139 -1.81311 -2.68157 0
M  V30 9418 H 906.046 -3.55778 -1.15641 0
M  V30 9419 H 907.379 -4.67482 -1.54019 0
M  V30 9420 N 909.032 0.252966 -1.55557 0
M  V30 9421 C 909.979 1.3131 -1.89806 0
M  V30 9422 C 910.949 1.48121 -0.751633 0
M  V30 9423 O 912.134 1.62202 -1.00474 0
M  V30 9424 C 909.274 2.66467 -2.19293 0
M  V30 9425 C 908.387 2.57714 -3.46709 0
M  V30 9426 C 907.522 3.85184 -3.65796 0
M  V30 9427 C 906.561 3.71023 -4.86835 0
M  V30 9428 N 905.698 4.90371 -5.02474 0
M  V30 9429 H 910.538 1.01402 -2.80217 0
M  V30 9430 H 908.075 0.489462 -1.38718 0
M  V30 9431 H 910.033 3.45132 -2.34392 0
M  V30 9432 H 908.663 2.94536 -1.32093 0
M  V30 9433 H 907.715 1.70651 -3.39974 0
M  V30 9434 H 909.027 2.43158 -4.35517 0
M  V30 9435 H 908.181 4.72292 -3.80822 0
M  V30 9436 H 906.92 4.0263 -2.7521 0
M  V30 9437 H 905.925 2.82299 -4.71792 0
M  V30 9438 H 907.15 3.55078 -5.78875 0
M  V30 9439 H 905.096 5.0819 -4.14824 0
M  V30 9440 H 905.013 4.78423 -5.85361 0
M  V30 9441 H 906.281 5.78995 -5.21905 0
M  V30 9442 N 910.51 1.48831 0.518367 0
M  V30 9443 C 911.738 1.6112 1.298 0
M  V30 9444 C 912.153 0.275872 1.86774 0
M  V30 9445 O 911.51 -0.736416 1.66983 0
M  V30 9446 C 911.561 2.66675 2.44063 0
M  V30 9447 O 911.282 3.95027 1.89434 0
M  V30 9448 C 912.783 2.8951 3.35706 0
M  V30 9449 H 910.003 0.542916 0.394314 0
M  V30 9450 H 912.547 1.94743 0.624142 0
M  V30 9451 H 910.702 2.35879 3.07311 0
M  V30 9452 H 911.116 4.53031 2.64316 0
M  V30 9453 H 912.59 3.67142 4.12202 0
M  V30 9454 H 913.067 1.98768 3.91648 0
M  V30 9455 H 913.673 3.21656 2.7824 0
M  V30 9456 N 911.988 -0.768124 1.37614 0
M  V30 9457 C 912.951 -1.86314 1.3349 0
M  V30 9458 C 913.951 -1.59025 0.23823 0
M  V30 9459 O 915.141 -1.6704 0.494288 0
M  V30 9460 C 912.273 -3.23519 1.07462 0
M  V30 9461 H 913.466 -1.91382 2.30896 0
M  V30 9462 H 911.019 -0.968267 1.22696 0
M  V30 9463 H 911.754 -3.24127 0.106028 0
M  V30 9464 H 911.539 -3.44719 1.86846 0
M  V30 9465 H 913.029 -4.03597 1.07236 0
M  V30 9466 N 913.466 -1.22244 -0.994698 0
M  V30 9467 C 914.429 -0.992308 -2.06606 0
M  V30 9468 C 915.429 0.0405872 -1.60749 0
M  V30 9469 O 916.619 -0.197737 -1.73074 0
M  V30 9470 C 913.751 -0.498499 -3.37236 0
M  V30 9471 H 914.944 -1.9429 -2.28455 0
M  V30 9472 H 912.497 -1.04087 -1.166 0
M  V30 9473 H 913.232 0.456531 -3.21071 0
M  V30 9474 H 913.017 -1.24367 -3.71854 0
M  V30 9475 H 914.507 -0.35768 -4.16065 0
M  V30 9476 N 914.944 1.19125 -1.03184 0
M  V30 9477 C 916.174 1.92558 -0.748663 0
M  V30 9478 C 916.582 1.759 0.696837 0
M  V30 9479 O 915.925 1.08019 1.48585 0
M  V30 9480 C 915.987 3.4461 -1.02391 0
M  V30 9481 C 915.651 3.85041 -2.46155 0
M  V30 9482 C 916.648 3.89554 -3.44302 0
M  V30 9483 C 914.333 4.16594 -2.80633 0
M  V30 9484 C 916.327 4.25055 -4.74981 0
M  V30 9485 C 914.014 4.51767 -4.11521 0
M  V30 9486 C 915.012 4.55972 -5.08506 0
M  V30 9487 O 914.7 4.9033 -6.37049 0
M  V30 9488 H 914.432 0.618397 -0.273059 0
M  V30 9489 H 916.986 1.52122 -1.38015 0
M  V30 9490 H 915.216 3.85244 -0.335284 0
M  V30 9491 H 916.905 3.99283 -0.729927 0
M  V30 9492 H 917.671 3.65324 -3.19003 0
M  V30 9493 H 913.55 4.12503 -2.05821 0
M  V30 9494 H 917.094 4.28252 -5.50678 0
M  V30 9495 H 912.991 4.75455 -4.36592 0
M  V30 9496 H 913.759 5.08266 -6.41566 0
M  V30 9497 N 916.422 0.810101 1.35185 0
M  V30 9498 C 917.668 0.401839 1.99391 0
M  V30 9499 C 918.023 -1.02059 1.63101 0
M  V30 9500 O 917.316 -1.69889 0.8859 0
M  V30 9501 C 917.51 0.526561 3.535 0
M  V30 9502 C 917.339 1.95956 4.04761 0
M  V30 9503 C 916.109 2.58869 4.33953 0
M  V30 9504 C 918.307 2.92459 4.23051 0
M  V30 9505 N 916.289 3.93542 4.71166 0
M  V30 9506 C 917.66 4.12011 4.633 0
M  V30 9507 C 919.715 2.89244 4.05268 0
M  V30 9508 C 918.418 5.28784 4.87627 0
M  V30 9509 C 920.444 4.05223 4.30753 0
M  V30 9510 C 919.806 5.23524 4.71277 0
M  V30 9511 H 915.905 0.194886 0.757327 0
M  V30 9512 H 918.489 1.05209 1.63827 0
M  V30 9513 H 916.66 -0.0937151 3.88287 0
M  V30 9514 H 918.392 0.0925434 4.04594 0
M  V30 9515 H 915.147 2.10198 4.24398 0
M  V30 9516 H 915.571 4.62889 4.94027 0
M  V30 9517 H 920.213 1.98932 3.73076 0
M  V30 9518 H 917.931 6.19666 5.18691 0
M  V30 9519 H 921.517 4.04121 4.18542 0
M  V30 9520 H 920.397 6.11776 4.90612 0
M  V30 9521 N 917.9 -1.47166 0.563914 0
M  V30 9522 C 919.14 -2.04351 0.0448121 0
M  V30 9523 C 919.504 -1.42808 -1.28336 0
M  V30 9524 O 920.705 -1.91079 -1.89056 0
M  V30 9525 C 918.976 -3.57378 -0.0395795 0
M  V30 9526 S 920.535 -4.35898 -0.503833 0
M  V30 9527 H 917.353 -0.710433 0.0283795 0
M  V30 9528 H 919.955 -1.80451 0.752166 0
M  V30 9529 H 918.659 -3.99693 0.931326 0
M  V30 9530 H 918.19 -3.85785 -0.770282 0
M  V30 9531 H 920.205 -4.63852 -1.76225 0
M  V30 9532 N 919.378 -0.300708 -1.54705 0
M  V30 9533 C 920.31 0.609179 -2.20956 0
M  V30 9534 C 921.323 1.09776 -1.20221 0
M  V30 9535 O 922.512 1.01527 -1.46815 0
M  V30 9536 C 919.612 1.84595 -2.84214 0
M  V30 9537 C 918.785 1.49991 -4.10879 0
M  V30 9538 C 917.844 2.5918 -4.57943 0
M  V30 9539 O 916.87 2.24285 -5.23149 0
M  V30 9540 N 918.072 3.89714 -4.30236 0
M  V30 9541 H 920.837 0.0420111 -2.99671 0
M  V30 9542 H 918.398 -0.122896 -1.61433 0
M  V30 9543 H 920.39 2.56988 -3.12633 0
M  V30 9544 H 918.96 2.32152 -2.09342 0
M  V30 9545 H 918.18 0.608637 -3.89473 0
M  V30 9546 H 919.468 1.24409 -4.93356 0
M  V30 9547 H 918.866 4.20874 -3.77997 0
M  V30 9548 H 917.423 4.58406 -4.63365 0
M  V30 9549 N 920.856 1.57574 -0.0284266 0
M  V30 9550 C 922.081 1.96479 0.664137 0
M  V30 9551 C 922.506 0.904826 1.64908 0
M  V30 9552 O 921.864 -0.134339 1.80802 0
M  V30 9553 C 921.912 3.34479 1.34745 0
M  V30 9554 O 921.016 3.30794 2.46271 0
M  V30 9555 H 920.357 0.640654 0.174524 0
M  V30 9556 H 922.887 2.04402 -0.0900729 0
M  V30 9557 H 922.897 3.70694 1.7044 0
M  V30 9558 H 921.572 4.1117 0.625468 0
M  V30 9559 H 920.149 3.06294 2.12693 0
M  V30 9560 N 922.334 -0.244713 1.55689 0
M  V30 9561 C 923.58 -0.973886 1.77886 0
M  V30 9562 C 923.913 -1.8489 0.594071 0
M  V30 9563 O 923.188 -1.90182 -0.407564 0
M  V30 9564 C 923.471 -1.83255 3.09983 0
M  V30 9565 C 923.324 -0.985571 4.3887 0
M  V30 9566 C 924.643 -2.81464 3.38329 0
M  V30 9567 H 921.762 -0.352629 0.647165 0
M  V30 9568 H 924.404 -0.244243 1.88424 0
M  V30 9569 H 922.554 -2.45464 3.01131 0
M  V30 9570 H 924.226 -0.382005 4.59716 0
M  V30 9571 H 922.469 -0.29002 4.32829 0
M  V30 9572 H 923.14 -1.62022 5.27686 0
M  V30 9573 H 925.616 -2.2939 3.47159 0
M  V30 9574 H 924.492 -3.38663 4.31971 0
M  V30 9575 H 924.753 -3.58037 2.59349 0
M  V30 9576 N 923.813 -1.49104 -0.510467 0
M  V30 9577 C 925.041 -1.61806 -1.28944 0
M  V30 9578 C 925.456 -0.285774 -1.86625 0
M  V30 9579 O 924.813 0.727551 -1.67371 0
M  V30 9580 C 924.864 -2.67966 -2.42645 0
M  V30 9581 O 924.585 -3.96026 -1.87337 0
M  V30 9582 C 926.086 -2.91286 -3.34166 0
M  V30 9583 H 923.306 -0.544999 -0.391429 0
M  V30 9584 H 925.85 -1.95071 -0.613805 0
M  V30 9585 H 924.005 -2.37505 -3.06056 0
M  V30 9586 H 924.419 -4.54427 -2.61909 0
M  V30 9587 H 925.893 -3.69323 -4.1025 0
M  V30 9588 H 926.37 -2.00842 -3.90588 0
M  V30 9589 H 926.976 -3.23127 -2.76531 0
M  V30 9590 N 925.291 0.760815 -1.38019 0
M  V30 9591 C 926.201 1.90526 -1.36884 0
M  V30 9592 C 927.217 1.71941 -0.266908 0
M  V30 9593 O 928.393 1.94988 -0.50413 0
M  V30 9594 C 925.458 3.25799 -1.18558 0
M  V30 9595 C 924.519 3.56961 -2.3849 0
M  V30 9596 C 923.752 4.8578 -2.21029 0
M  V30 9597 O 923.975 5.57629 -1.20023 0
M  V30 9598 O 922.909 5.16254 -3.0946 0
M  V30 9599 H 926.735 1.94437 -2.33298 0
M  V30 9600 H 924.32 0.905091 -1.18863 0
M  V30 9601 H 926.202 4.0669 -1.1037 0
M  V30 9602 H 924.877 3.22716 -0.252241 0
M  V30 9603 H 923.784 2.7626 -2.52252 0
M  V30 9604 H 925.117 3.64798 -3.30429 0
M  V30 9605 N 926.769 1.22769 0.988202 0
M  V30 9606 C 927.699 1.02627 2.09738 0
M  V30 9607 C 928.68 -0.0543211 1.70013 0
M  V30 9608 O 929.865 0.108811 1.93895 0
M  V30 9609 C 926.995 0.608302 3.41931 0
M  V30 9610 C 925.949 1.63536 3.95525 0
M  V30 9611 C 925.275 1.07308 5.23822 0
M  V30 9612 C 926.575 3.02649 4.25677 0
M  V30 9613 H 928.269 1.954 2.26847 0
M  V30 9614 H 925.815 0.940888 1.09011 0
M  V30 9615 H 927.768 0.454478 4.18942 0
M  V30 9616 H 926.492 -0.355095 3.24664 0
M  V30 9617 H 925.151 1.77704 3.20651 0
M  V30 9618 H 924.799 0.100894 5.02899 0
M  V30 9619 H 924.499 1.75925 5.60646 0
M  V30 9620 H 926.023 0.930938 6.03462 0
M  V30 9621 H 927.437 2.91828 4.93467 0
M  V30 9622 H 925.834 3.68434 4.73684 0
M  V30 9623 H 926.904 3.52228 3.33262 0
M  V30 9624 N 928.247 -1.18576 1.03814 0
M  V30 9625 C 929.194 -2.2212 0.626988 0
M  V30 9626 C 930.164 -1.62064 -0.363912 0
M  V30 9627 O 931.349 -1.89041 -0.258469 0
M  V30 9628 C 928.489 -3.45099 -0.00650133 0
M  V30 9629 C 927.602 -4.19503 1.03156 0
M  V30 9630 C 926.737 -5.29932 0.366852 0
M  V30 9631 C 925.776 -5.96104 1.39018 0
M  V30 9632 N 924.913 -6.98076 0.750625 0
M  V30 9633 H 929.753 -2.56646 1.51449 0
M  V30 9634 H 927.29 -1.26084 0.757702 0
M  V30 9635 H 929.248 -4.15363 -0.391108 0
M  V30 9636 H 927.878 -3.11201 -0.857536 0
M  V30 9637 H 926.93 -3.48092 1.53414 0
M  V30 9638 H 928.242 -4.64843 1.80893 0
M  V30 9639 H 927.396 -6.06657 -0.0720979 0
M  V30 9640 H 926.135 -4.85687 -0.442631 0
M  V30 9641 H 925.14 -5.18122 1.8393 0
M  V30 9642 H 926.365 -6.42432 2.20132 0
M  V30 9643 H 924.311 -6.55989 -0.0385981 0
M  V30 9644 H 924.228 -7.41655 1.46574 0
M  V30 9645 H 925.496 -7.78776 0.335986 0
M  V30 9646 N 929.725 -0.817259 -1.34754 0
M  V30 9647 C 930.688 -0.240611 -2.27934 0
M  V30 9648 C 931.688 0.578219 -1.50044 0
M  V30 9649 O 932.878 0.395148 -1.69659 0
M  V30 9650 C 930.01 0.663318 -3.34384 0
M  V30 9651 H 931.203 -1.06257 -2.80445 0
M  V30 9652 H 928.756 -0.588697 -1.4479 0
M  V30 9653 H 929.491 1.50855 -2.87077 0
M  V30 9654 H 929.276 0.0777388 -3.92023 0
M  V30 9655 H 930.766 1.06076 -4.03903 0
M  V30 9656 N 931.203 1.46865 -0.571711 0
M  V30 9657 C 932.48 1.95596 0.0132445 0
M  V30 9658 C 932.86 1.51438 1.47071 0
M  V30 9659 O 932.208 0.759917 2.15494 0
M  V30 9660 C 932.418 3.48689 -0.147335 0
M  V30 9661 C 933.766 4.24599 -0.00946329 0
M  V30 9662 O 934.79 3.5612 -0.0756112 0
M  V30 9663 O 933.649 5.46332 0.135361 0
M  V30 9664 H 930.743 0.825102 0.0560039 0
M  V30 9665 H 933.289 1.57199 -0.639256 0
M  V30 9666 H 932.061 3.73681 -1.16096 0
M  V30 9667 H 931.684 3.93887 0.542109 0
M  V30 9668 N 932.681 0.308908 1.54543 0
M  V30 9669 C 933.928 -0.298036 2.00295 0
M  V30 9670 C 934.256 -1.53285 1.19724 0
M  V30 9671 O 933.511 -1.93917 0.263551 0
M  V30 9672 C 933.81 -0.691522 3.50646 0
M  V30 9673 C 933.476 0.442454 4.48724 0
M  V30 9674 C 932.138 0.753739 4.7526 0
M  V30 9675 C 934.49 1.20488 5.07082 0
M  V30 9676 C 931.818 1.83044 5.57415 0
M  V30 9677 C 934.17 2.27156 5.90409 0
M  V30 9678 C 932.834 2.58882 6.15253 0
M  V30 9679 H 932.104 -0.109059 0.73293 0
M  V30 9680 H 934.751 0.429647 1.86618 0
M  V30 9681 H 933.056 -1.49941 3.61974 0
M  V30 9682 H 934.753 -1.17244 3.83477 0
M  V30 9683 H 931.343 0.189744 4.2818 0
M  V30 9684 H 935.527 0.977653 4.86575 0
M  V30 9685 H 930.783 2.08088 5.749 0
M  V30 9686 H 934.957 2.86687 6.34652 0
M  V30 9687 H 932.584 3.42443 6.78702 0
M  V30 9688 N 934.159 -1.57557 0.0367827 0
M  V30 9689 C 935.57 -1.79853 -0.500971 0
M  V30 9690 C 935.921 -0.947749 -1.71791 0
M  V30 9691 O 935.046 -0.160287 -2.15806 0
M  V30 9692 C 935.641 -3.26193 -0.915626 0
M  V30 9693 C 934.2 -3.49457 -1.39845 0
M  V30 9694 C 933.347 -2.74864 -0.366784 0
M  V30 9695 H 936.298 -1.56509 0.262768 0
M  V30 9696 H 936.319 -3.36324 -1.7795 0
M  V30 9697 H 935.831 -3.88089 -0.0297227 0
M  V30 9698 H 933.932 -2.92823 -2.30402 0
M  V30 9699 H 934.045 -4.58172 -1.40054 0
M  V30 9700 H 932.409 -2.4057 -0.836554 0
M  V30 9701 H 933.192 -3.39479 0.510785 0
M  V30 9702 N 935.637 0.236453 -1.55816 0
M  V30 9703 C 936.914 0.986463 -1.68903 0
M  V30 9704 C 937.294 2.02984 -0.579722 0
M  V30 9705 O 936.642 2.24693 0.415389 0
M  V30 9706 C 936.852 1.61038 -3.09625 0
M  V30 9707 C 938.2 2.10829 -3.6856 0
M  V30 9708 O 939.224 1.7096 -3.12492 0
M  V30 9709 O 938.083 2.84064 -4.66873 0
M  V30 9710 H 935.177 0.459837 -0.687371 0
M  V30 9711 H 937.723 0.229412 -1.68142 0
M  V30 9712 H 936.495 0.856232 -3.81817 0
M  V30 9713 H 936.118 2.43336 -3.14441 0
M  V30 9714 N 937.115 1.49373 0.502552 0
M  V30 9715 C 938.063 1.66411 1.62512 0
M  V30 9716 C 939.057 0.530062 1.60893 0
M  V30 9717 O 940.263 0.709648 1.65421 0
M  V30 9718 H 936.638 0.524707 0.538689 0
M  V30 9719 H 938.609 2.60639 1.45293 0
M  V30 9720 C 937.358 1.74648 3.00655 0
M  V30 9721 H 936.681 2.61285 3.02606 0
M  V30 9722 H 938.121 1.90605 3.78742 0
M  V30 9723 C 936.58 0.490963 3.33303 0
M  V30 9724 O 937.11 -0.384039 3.9986 0
M  V30 9725 N 935.316 0.354375 2.88431 0
M  V30 9726 H 934.863 1.06742 2.34444 0
M  V30 9727 H 934.821 -0.484593 3.10643 0
M  V30 9728 N 938.594 -0.753485 1.38421 0
M  V30 9729 C 939.843 -1.50797 1.33952 0
M  V30 9730 C 940.156 -1.95482 -0.0678464 0
M  V30 9731 O 941.362 -2.7048 -0.235078 0
M  V30 9732 C 939.818 -2.72393 2.35224 0
M  V30 9733 C 939.426 -2.34733 3.81582 0
M  V30 9734 C 941.17 -3.50281 2.39798 0
M  V30 9735 C 939.077 -3.52939 4.7454 0
M  V30 9736 H 938.007 -0.566211 0.497916 0
M  V30 9737 H 940.658 -0.823659 1.63976 0
M  V30 9738 H 939.04 -3.42806 1.98243 0
M  V30 9739 H 940.214 -1.71985 4.27502 0
M  V30 9740 H 938.529 -1.69978 3.80127 0
M  V30 9741 H 941.126 -4.38172 3.06447 0
M  V30 9742 H 941.469 -3.91444 1.41695 0
M  V30 9743 H 942.002 -2.86881 2.75579 0
M  V30 9744 H 938.741 -3.16843 5.73839 0
M  V30 9745 H 938.261 -4.1473 4.33312 0
M  V30 9746 H 939.94 -4.19519 4.92557 0
M  V30 9747 N 940.072 -1.23292 -0.981677 0
M  V30 9748 C 941.318 -1.06582 -1.72535 0
M  V30 9749 C 941.651 0.396538 -1.90108 0
M  V30 9750 O 940.926 1.29363 -1.45243 0
M  V30 9751 C 941.209 -1.7904 -3.12437 0
M  V30 9752 C 941.062 -3.32941 -3.02441 0
M  V30 9753 C 942.381 -1.55185 -4.11832 0
M  V30 9754 H 939.5 -0.388585 -0.626236 0
M  V30 9755 H 942.142 -1.51779 -1.14293 0
M  V30 9756 H 940.292 -1.40619 -3.62158 0
M  V30 9757 H 941.964 -3.80875 -2.60254 0
M  V30 9758 H 940.207 -3.62039 -2.38977 0
M  V30 9759 H 940.878 -3.78827 -4.0149 0
M  V30 9760 H 943.354 -1.88581 -3.70913 0
M  V30 9761 H 942.23 -2.08362 -5.07815 0
M  V30 9762 H 942.491 -0.486925 -4.3941 0
M  V30 9763 N 941.55 1.18024 -1.04442 0
M  V30 9764 C 942.799 1.8743 -0.745185 0
M  V30 9765 C 943.112 1.81459 0.730206 0
M  V30 9766 O 944.318 2.46263 1.1431 0
M  V30 9767 C 942.774 3.36266 -1.28271 0
M  V30 9768 C 942.382 3.50757 -2.787 0
M  V30 9769 C 944.126 4.11048 -1.06018 0
M  V30 9770 C 942.033 4.93573 -3.25791 0
M  V30 9771 H 940.963 0.702038 -0.27506 0
M  V30 9772 H 943.614 1.33333 -1.26073 0
M  V30 9773 H 941.996 3.89853 -0.695002 0
M  V30 9774 H 943.17 3.07423 -3.43261 0
M  V30 9775 H 941.485 2.89385 -2.99408 0
M  V30 9776 H 944.082 5.16395 -1.38711 0
M  V30 9777 H 944.425 4.163 0.00241716 0
M  V30 9778 H 944.958 3.63644 -1.61269 0
M  V30 9779 H 941.697 4.93491 -4.31447 0
M  V30 9780 H 941.217 5.37607 -2.65968 0
M  V30 9781 H 942.896 5.62307 -3.20031 0
M  V30 9782 N 943.028 0.824394 1.34319 0
M  V30 9783 C 943.991 0.252696 2.27803 0
M  V30 9784 C 944.991 -0.570254 1.50349 0
M  V30 9785 O 946.181 -0.386145 1.69866 0
M  V30 9786 C 943.313 -0.645575 3.34731 0
M  V30 9787 H 944.506 1.07742 2.79878 0
M  V30 9788 H 942.059 0.596367 1.44475 0
M  V30 9789 H 942.794 -1.4933 2.87873 0
M  V30 9790 H 942.579 -0.0569478 3.92059 0
M  V30 9791 H 944.069 -1.03933 4.0446 0
M  V30 9792 N 944.506 -1.46559 0.579492 0
M  V30 9793 C 945.731 -2.0729 0.0674595 0
M  V30 9794 C 946.156 -1.4259 -1.22677 0
M  V30 9795 O 945.514 -0.50857 -1.74021 0
M  V30 9796 C 945.562 -3.60492 -0.0882227 0
M  V30 9797 O 944.666 -3.96172 -1.14551 0
M  V30 9798 H 944.007 -0.661159 0.0613536 0
M  V30 9799 H 946.537 -1.88247 0.801519 0
M  V30 9800 H 946.547 -4.06929 -0.295411 0
M  V30 9801 H 945.222 -4.06976 0.856943 0
M  V30 9802 H 943.799 -3.61448 -0.917033 0
M  V30 9803 N 945.984 -0.3171 -1.54377 0
M  V30 9804 C 947.233 0.288271 -1.99629 0
M  V30 9805 C 947.546 1.53754 -1.2091 0
M  V30 9806 O 948.752 2.2185 -1.56508 0
M  V30 9807 C 947.208 0.564188 -3.5545 0
M  V30 9808 C 946.816 -0.667659 -4.42997 0
M  V30 9809 C 948.56 1.12987 -4.09187 0
M  V30 9810 C 946.467 -0.364003 -5.90279 0
M  V30 9811 H 945.397 0.111492 -0.745711 0
M  V30 9812 H 948.048 -0.428317 -1.78431 0
M  V30 9813 H 946.43 1.34079 -3.72611 0
M  V30 9814 H 947.604 -1.44335 -4.37612 0
M  V30 9815 H 945.919 -1.1531 -4.00116 0
M  V30 9816 H 948.516 1.37157 -5.1681 0
M  V30 9817 H 948.859 2.07722 -3.60773 0
M  V30 9818 H 949.392 0.414595 -3.95634 0
M  V30 9819 H 946.131 -1.28035 -6.42874 0
M  V30 9820 H 945.651 0.374102 -5.98632 0
M  V30 9821 H 947.33 0.0285433 -6.46994 0
M  V30 9822 N 947.462 1.57535 -0.0451378 0
M  V30 9823 C 948.395 2.06721 0.96653 0
M  V30 9824 C 949.373 0.966392 1.30766 0
M  V30 9825 O 950.557 1.23789 1.42157 0
M  V30 9826 C 947.684 2.50266 2.2822 0
M  V30 9827 C 946.73 3.71525 2.09455 0
M  V30 9828 S 947.563 5.17453 1.37851 0
M  V30 9829 C 948.719 5.64308 2.70753 0
M  V30 9830 H 948.952 2.92207 0.547911 0
M  V30 9831 H 946.485 1.53494 0.166973 0
M  V30 9832 H 948.443 2.76019 3.03849 0
M  V30 9833 H 947.104 1.65097 2.67211 0
M  V30 9834 H 946.297 3.99894 3.06759 0
M  V30 9835 H 945.899 3.46008 1.41967 0
M  V30 9836 H 948.191 5.69525 3.66943 0
M  V30 9837 H 949.134 6.63613 2.47028 0
M  V30 9838 H 949.542 4.92014 2.76736 0
M  V30 9839 N 948.94 -0.228186 1.55939 0
M  V30 9840 C 950.18 -0.960695 1.80416 0
M  V30 9841 C 950.544 -1.81795 0.617615 0
M  V30 9842 O 951.745 -2.58369 0.741545 0
M  V30 9843 C 950.016 -1.78298 3.09749 0
M  V30 9844 S 951.575 -2.57203 3.55517 0
M  V30 9845 H 948.393 -0.322825 0.633486 0
M  V30 9846 H 950.995 -0.226852 1.94179 0
M  V30 9847 H 949.699 -1.14323 3.94155 0
M  V30 9848 H 949.23 -2.55924 2.98775 0
M  V30 9849 H 951.245 -3.80632 3.1833 0
M  V30 9850 N 950.418 -1.49637 -0.494624 0
M  V30 9851 C 951.643 -1.63431 -1.27691 0
M  V30 9852 C 952.068 -0.30813 -1.85559 0
M  V30 9853 O 951.426 0.725083 -1.66169 0
M  V30 9854 C 951.474 -2.71043 -2.3784 0
M  V30 9855 O 950.578 -2.3066 -3.41862 0
M  V30 9856 H 949.919 -0.546804 -0.376698 0
M  V30 9857 H 952.449 -1.95866 -0.591413 0
M  V30 9858 H 952.459 -2.93406 -2.83508 0
M  V30 9859 H 951.134 -3.67306 -1.95088 0
M  V30 9860 H 949.711 -2.18652 -3.02069 0
M  V30 9861 N 951.896 0.746133 -1.38819 0
M  V30 9862 C 953.126 1.53316 -1.38484 0
M  V30 9863 C 953.534 1.89183 0.0253332 0
M  V30 9864 O 952.877 1.5382 1.00424 0
M  V30 9865 C 952.939 2.85623 -2.18311 0
M  V30 9866 C 952.603 2.72253 -3.67052 0
M  V30 9867 C 953.6 2.41547 -4.60381 0
M  V30 9868 C 951.285 2.89472 -4.10501 0
M  V30 9869 C 953.279 2.28226 -5.9514 0
M  V30 9870 C 950.966 2.7577 -5.45338 0
M  V30 9871 C 951.964 2.45191 -6.37472 0
M  V30 9872 O 951.652 2.31561 -7.69828 0
M  V30 9873 H 951.384 0.480763 -0.475229 0
M  V30 9874 H 953.938 0.93057 -1.83111 0
M  V30 9875 H 952.168 3.481 -1.68414 0
M  V30 9876 H 953.857 3.47178 -2.10291 0
M  V30 9877 H 954.623 2.27905 -4.28117 0
M  V30 9878 H 950.502 3.12269 -3.3913 0
M  V30 9879 H 954.046 2.04279 -6.6702 0
M  V30 9880 H 949.943 2.88987 -5.77197 0
M  V30 9881 H 950.711 2.46716 -7.80432 0
M  V30 9882 N 953.375 1.23811 0.975125 0
M  V30 9883 C 954.323 1.02149 2.0897 0
M  V30 9884 C 955.317 -0.0412172 1.6935 0
M  V30 9885 O 956.523 0.112726 1.79647 0
M  V30 9886 H 952.898 0.313259 0.683647 0
M  V30 9887 H 954.869 1.96686 2.24404 0
M  V30 9888 C 953.618 0.635023 3.41852 0
M  V30 9889 H 952.941 1.44449 3.72793 0
M  V30 9890 H 954.381 0.52301 4.20762 0
M  V30 9891 C 952.84 -0.657207 3.30428 0
M  V30 9892 O 953.37 -1.70494 3.63723 0
M  V30 9893 N 951.576 -0.635122 2.83575 0
M  V30 9894 H 951.123 0.21784 2.56677 0
M  V30 9895 H 951.081 -1.49995 2.76313 0
M  V30 9896 N 954.853 -1.17469 1.05066 0
M  V30 9897 C 955.8 -2.21443 0.650512 0
M  V30 9898 C 956.77 -1.62441 -0.346702 0
M  V30 9899 O 957.955 -1.89305 -0.238404 0
M  V30 9900 C 955.095 -3.45087 0.0301014 0
M  V30 9901 C 954.208 -4.18385 1.07599 0
M  V30 9902 C 953.343 -5.29513 0.423038 0
M  V30 9903 C 952.382 -5.94596 1.45333 0
M  V30 9904 N 951.519 -6.97241 0.824623 0
M  V30 9905 H 956.359 -2.55025 1.54163 0
M  V30 9906 H 953.896 -1.25274 0.771032 0
M  V30 9907 H 955.854 -4.15754 -0.347032 0
M  V30 9908 H 954.484 -3.12093 -0.824481 0
M  V30 9909 H 953.536 -3.46446 1.57097 0
M  V30 9910 H 954.848 -4.62899 1.85813 0
M  V30 9911 H 954.002 -6.067 -0.00774975 0
M  V30 9912 H 952.741 -4.86129 -0.391092 0
M  V30 9913 H 951.746 -5.16142 1.89415 0
M  V30 9914 H 952.971 -6.40061 2.26934 0
M  V30 9915 H 950.917 -6.55993 0.0309804 0
M  V30 9916 H 950.834 -7.40059 1.54432 0
M  V30 9917 H 952.102 -7.78375 0.418567 0
M  V30 9918 N 956.331 -0.831506 -1.3388 0
M  V30 9919 C 957.279 -0.247896 -2.31275 0
M  V30 9920 C 958.273 0.616083 -1.578 0
M  V30 9921 O 959.479 0.506465 -1.72728 0
M  V30 9922 H 955.854 -0.0614293 -0.749487 0
M  V30 9923 H 957.825 -1.08401 -2.78014 0
M  V30 9924 C 956.574 0.568434 -3.43022 0
M  V30 9925 H 955.897 -0.0870654 -3.99705 0
M  V30 9926 H 957.337 0.942751 -4.13386 0
M  V30 9927 C 955.796 1.74431 -2.88228 0
M  V30 9928 O 956.326 2.84278 -2.83811 0
M  V30 9929 N 954.532 1.56382 -2.44935 0
M  V30 9930 H 954.079 0.670255 -2.48727 0
M  V30 9931 H 954.037 2.35208 -2.08625 0
M  V30 9932 N 957.809 1.4625 -0.587256 0
M  V30 9933 C 959.086 1.95599 -0.00750181 0
M  V30 9934 C 959.466 1.52989 1.45457 0
M  V30 9935 O 958.814 0.782731 2.14676 0
M  V30 9936 C 959.024 3.48513 -0.184309 0
M  V30 9937 C 960.372 4.24565 -0.0544972 0
M  V30 9938 O 961.396 3.5602 -0.113378 0
M  V30 9939 O 960.255 5.46445 0.0774075 0
M  V30 9940 H 957.349 0.825649 0.0472495 0
M  V30 9941 H 959.895 1.56512 -0.655893 0
M  V30 9942 H 958.667 3.72428 -1.20053 0
M  V30 9943 H 958.29 3.9444 0.500301 0
M  V30 9944 N 959.287 0.325282 1.54207 0
M  V30 9945 C 960.533 -0.269944 2.01601 0
M  V30 9946 C 960.888 -1.49643 1.20933 0
M  V30 9947 O 960.181 -1.89486 0.283838 0
M  V30 9948 C 960.375 -0.654292 3.5136 0
M  V30 9949 C 960.204 0.533397 4.46525 0
M  V30 9950 C 958.974 1.03304 4.94628 0
M  V30 9951 C 961.172 1.38613 4.95269 0
M  V30 9952 N 959.154 2.18495 5.73701 0
M  V30 9953 C 960.525 2.38519 5.72284 0
M  V30 9954 C 962.58 1.41369 4.77409 0
M  V30 9955 C 961.283 3.40988 6.3334 0
M  V30 9956 C 963.309 2.4271 5.39301 0
M  V30 9957 C 962.671 3.41343 6.16169 0
M  V30 9958 H 958.77 -0.0625778 0.779492 0
M  V30 9959 H 961.354 0.460711 1.89171 0
M  V30 9960 H 959.525 -1.35408 3.64032 0
M  V30 9961 H 961.257 -1.23114 3.85519 0
M  V30 9962 H 958.012 0.604045 4.69732 0
M  V30 9963 H 958.436 2.76605 6.17915 0
M  V30 9964 H 963.078 0.664796 4.17541 0
M  V30 9965 H 960.796 4.16784 6.92327 0
M  V30 9966 H 964.382 2.45647 5.27398 0
M  V30 9967 H 963.262 4.18476 6.6321 0
M  V30 9968 N 960.765 -1.57509 0.0534917 0
M  V30 9969 C 961.993 -1.97098 -0.629298 0
M  V30 9970 C 962.408 -0.931128 -1.64242 0
M  V30 9971 O 961.765 0.0843866 -1.82305 0
M  V30 9972 C 961.816 -3.36767 -1.31415 0
M  V30 9973 O 961.537 -4.36766 -0.341599 0
M  V30 9974 C 963.038 -3.91127 -2.08649 0
M  V30 9975 H 960.258 -0.648611 -0.171886 0
M  V30 9976 H 962.802 -2.04145 0.120479 0
M  V30 9977 H 960.957 -3.30863 -2.01515 0
M  V30 9978 H 961.371 -5.1788 -0.830715 0
M  V30 9979 H 962.845 -4.91129 -2.51985 0
M  V30 9980 H 963.322 -3.26679 -2.9356 0
M  V30 9981 H 963.928 -4.00376 -1.43456 0
M  V30 9982 N 962.243 0.219913 -1.56058 0
M  V30 9983 C 963.153 1.29349 -1.95719 0
M  V30 9984 C 964.169 1.5119 -0.861248 0
M  V30 9985 O 965.345 1.64289 -1.16495 0
M  V30 9986 C 962.41 2.6229 -2.26726 0
M  V30 9987 C 961.471 2.48738 -3.49897 0
M  V30 9988 C 960.704 3.75339 -3.79416 0
M  V30 9989 O 960.927 4.78427 -3.10586 0
M  V30 9990 O 959.861 3.72352 -4.72903 0
M  V30 9991 H 963.687 0.986979 -2.87215 0
M  V30 9992 H 961.272 0.42291 -1.43289 0
M  V30 9993 H 963.154 3.408 -2.47857 0
M  V30 9994 H 961.829 2.92619 -1.38404 0
M  V30 9995 H 960.736 1.68422 -3.34043 0
M  V30 9996 H 962.069 2.23347 -4.38608 0
M  V30 9997 N 963.721 1.49897 0.486681 0
M  V30 9998 C 964.651 1.7054 1.59494 0
M  V30 9999 C 965.632 0.554184 1.60819 0
M  V30 10000 O 966.817 0.791617 1.77333 0
M  V30 10001 C 963.947 1.78517 2.97908 0
M  V30 10002 C 962.901 2.93571 3.11449 0
M  V30 10003 C 962.227 2.86674 4.51356 0
M  V30 10004 C 963.527 4.34308 2.90127 0
M  V30 10005 H 965.221 2.63329 1.42472 0
M  V30 10006 H 962.767 1.2672 0.683969 0
M  V30 10007 H 964.72 1.91544 3.75352 0
M  V30 10008 H 963.444 0.823381 3.16051 0
M  V30 10009 H 962.103 2.80169 2.36433 0
M  V30 10010 H 961.751 1.88373 4.66395 0
M  V30 10011 H 961.451 3.63903 4.61355 0
M  V30 10012 H 962.975 3.01728 5.30841 0
M  V30 10013 H 964.389 4.48317 3.57331 0
M  V30 10014 H 962.786 5.12869 3.11585 0
M  V30 10015 H 963.856 4.47759 1.86119 0
M  V30 10016 N 965.199 -0.738761 1.39212 0
M  V30 10017 C 966.162 -1.83441 1.37412 0
M  V30 10018 C 967.162 -1.58484 0.271908 0
M  V30 10019 O 968.352 -1.65954 0.529609 0
M  V30 10020 C 965.484 -3.21167 1.143 0
M  V30 10021 H 966.677 -1.86441 2.34904 0
M  V30 10022 H 964.23 -0.942023 1.24722 0
M  V30 10023 H 964.965 -3.23829 0.174756 0
M  V30 10024 H 964.75 -3.40678 1.94116 0
M  V30 10025 H 966.24 -4.01231 1.15773 0
M  V30 10026 N 966.677 -1.24326 -0.968545 0
M  V30 10027 C 967.624 -1.0349 -2.06297 0
M  V30 10028 C 968.594 0.0515333 -1.6602 0
M  V30 10029 O 969.779 -0.102924 -1.90522 0
M  V30 10030 C 966.919 -0.64487 -3.39021 0
M  V30 10031 C 966.032 -1.80469 -3.92498 0
M  V30 10032 C 965.167 -1.36032 -5.13487 0
M  V30 10033 C 964.206 -2.49014 -5.59159 0
M  V30 10034 N 963.343 -2.05451 -6.71367 0
M  V30 10035 H 968.183 -1.97161 -2.23454 0
M  V30 10036 H 965.72 -0.982028 -1.0952 0
M  V30 10037 H 967.678 -0.399771 -4.1528 0
M  V30 10038 H 966.308 0.254845 -3.21792 0
M  V30 10039 H 965.36 -2.16348 -3.12886 0
M  V30 10040 H 966.672 -2.65365 -4.22354 0
M  V30 10041 H 965.826 -1.07405 -5.97117 0
M  V30 10042 H 964.565 -0.481887 -4.85313 0
M  V30 10043 H 963.57 -2.78402 -4.74102 0
M  V30 10044 H 964.795 -3.37413 -5.89346 0
M  V30 10045 H 962.741 -1.20004 -6.4493 0
M  V30 10046 H 962.658 -2.83901 -7.00668 0
M  V30 10047 H 963.926 -1.79962 -7.58442 0
M  V30 10048 N 968.156 1.1691 -1.05688 0
M  V30 10049 C 969.103 2.21095 -0.662246 0
M  V30 10050 C 970.073 1.62623 0.338083 0
M  V30 10051 O 971.258 1.89428 0.228362 0
M  V30 10052 C 968.398 3.45066 -0.0484018 0
M  V30 10053 C 967.511 4.17809 -1.09817 0
M  V30 10054 C 966.646 5.29281 -0.451114 0
M  V30 10055 C 965.685 5.93817 -1.48484 0
M  V30 10056 N 964.822 6.96793 -0.861588 0
M  V30 10057 H 969.662 2.54204 -1.55513 0
M  V30 10058 H 967.199 1.24863 -0.777665 0
M  V30 10059 H 969.157 4.15932 0.324978 0
M  V30 10060 H 967.787 3.12526 0.807918 0
M  V30 10061 H 966.839 3.45608 -1.58932 0
M  V30 10062 H 968.151 4.61907 -1.88265 0
M  V30 10063 H 967.305 6.06695 -0.0244251 0
M  V30 10064 H 966.044 4.8633 0.365306 0
M  V30 10065 H 965.049 5.1513 -1.92149 0
M  V30 10066 H 966.274 6.38848 -2.30325 0
M  V30 10067 H 964.22 6.55967 -0.0657688 0
M  V30 10068 H 964.137 7.39229 -1.58354 0
M  V30 10069 H 965.405 7.78142 -0.45984 0
M  V30 10070 N 969.634 0.838594 1.33437 0
M  V30 10071 C 970.859 0.446701 2.02532 0
M  V30 10072 C 971.284 -0.944275 1.62681 0
M  V30 10073 O 970.642 -1.61733 0.81927 0
M  V30 10074 C 970.69 0.574794 3.55989 0
M  V30 10075 O 969.794 -0.399063 4.10465 0
M  V30 10076 H 969.135 0.181637 0.638674 0
M  V30 10077 H 971.665 1.13335 1.70342 0
M  V30 10078 H 971.675 0.456339 4.0544 0
M  V30 10079 H 970.35 1.58921 3.8434 0
M  V30 10080 H 968.927 -0.238187 3.72139 0
M  V30 10081 N 971.112 -1.45937 0.595003 0
M  V30 10082 C 972.022 -2.34221 -0.133325 0
M  V30 10083 C 973.038 -1.50491 -0.873407 0
M  V30 10084 O 974.214 -1.83328 -0.833828 0
M  V30 10085 C 971.279 -3.27896 -1.12628 0
M  V30 10086 C 970.34 -4.27529 -0.389532 0
M  V30 10087 C 969.573 -5.16729 -1.33519 0
M  V30 10088 O 969.796 -5.09102 -2.57238 0
M  V30 10089 O 968.73 -5.96023 -0.839084 0
M  V30 10090 H 972.556 -2.97877 0.591861 0
M  V30 10091 H 970.141 -1.45113 0.355329 0
M  V30 10092 H 972.023 -3.85654 -1.69851 0
M  V30 10093 H 970.698 -2.6682 -1.83272 0
M  V30 10094 H 969.605 -3.73424 0.224843 0
M  V30 10095 H 970.938 -4.91425 0.276169 0
M  V30 10096 N 972.59 -0.333456 -1.54032 0
M  V30 10097 C 973.867 0.320902 -1.9295 0
M  V30 10098 C 974.247 1.69071 -1.26405 0
M  V30 10099 O 973.595 2.24768 -0.411311 0
M  V30 10100 C 973.805 0.403257 -3.46662 0
M  V30 10101 C 975.153 0.658875 -4.19457 0
M  V30 10102 O 976.177 0.485781 -3.52872 0
M  V30 10103 O 975.036 0.993475 -5.37394 0
M  V30 10104 H 972.13 0.185158 -0.806006 0
M  V30 10105 H 974.676 -0.383895 -1.65301 0
M  V30 10106 H 973.448 -0.558409 -3.87295 0
M  V30 10107 H 973.071 1.15524 -3.80447 0
M  V30 10108 N 974.068 1.57479 -0.061844 0
M  V30 10109 C 975.293 1.97843 0.622311 0
M  V30 10110 C 975.718 0.939602 1.62951 0
M  V30 10111 O 975.076 -0.095958 1.81046 0
M  V30 10112 C 975.124 3.37262 1.2762 0
M  V30 10113 O 974.228 3.35943 2.39199 0
M  V30 10114 H 973.569 0.644212 0.160896 0
M  V30 10115 H 976.099 2.04165 -0.133409 0
M  V30 10116 H 976.109 3.74226 1.62539 0
M  V30 10117 H 974.784 4.12404 0.538112 0
M  V30 10118 H 973.361 3.10737 2.06148 0
M  V30 10119 N 975.546 -0.211634 1.56173 0
M  V30 10120 C 976.794 -0.932704 1.7929 0
M  V30 10121 C 977.115 -1.84472 0.632076 0
M  V30 10122 O 976.385 -1.92739 -0.350519 0
M  V30 10123 H 974.965 -0.347393 0.661307 0
M  V30 10124 H 977.627 -0.22111 1.93642 0
M  V30 10125 H 976.723 -1.53365 2.71819 0
M  V30 10126 N 977.024 -1.50153 -0.478725 0
M  V30 10127 C 977.987 -1.67916 -1.56003 0
M  V30 10128 C 978.987 -0.550111 -1.51097 0
M  V30 10129 O 980.177 -0.817001 -1.53853 0
M  V30 10130 C 977.309 -1.6973 -2.95643 0
M  V30 10131 H 978.502 -2.6438 -1.41573 0
M  V30 10132 H 976.055 -1.39519 -0.704565 0
M  V30 10133 H 976.79 -0.749306 -3.15525 0
M  V30 10134 H 976.575 -2.51745 -3.00611 0
M  V30 10135 H 978.065 -1.85453 -3.74162 0
M  V30 10136 N 978.502 0.731368 -1.39602 0
M  V30 10137 C 979.779 1.48308 -1.27531 0
M  V30 10138 C 980.159 2.10795 0.113482 0
M  V30 10139 O 979.507 1.98886 1.12501 0
M  V30 10140 C 979.717 2.53156 -2.40235 0
M  V30 10141 C 981.065 3.19436 -2.79725 0
M  V30 10142 O 982.089 2.6347 -2.39712 0
M  V30 10143 O 980.948 4.20714 -3.48801 0
M  V30 10144 H 978.042 0.658753 -0.499973 0
M  V30 10145 H 980.588 0.764884 -1.51485 0
M  V30 10146 H 979.36 2.05387 -3.33064 0
M  V30 10147 H 978.983 3.3253 -2.17966 0
M  V30 10148 N 979.98 1.24838 0.961938 0
M  V30 10149 C 980.943 1.04674 2.03902 0
M  V30 10150 C 981.943 0.00204674 1.608 0
M  V30 10151 O 983.133 0.243555 1.72489 0
M  V30 10152 C 980.265 0.587736 3.35795 0
M  V30 10153 H 981.458 2.00278 2.23223 0
M  V30 10154 H 979.011 1.07142 1.138 0
M  V30 10155 H 979.746 -0.371244 3.22168 0
M  V30 10156 H 979.531 1.34182 3.68426 0
M  V30 10157 H 981.021 0.467867 4.14971 0
M  V30 10158 N 981.458 -1.16348 1.06306 0
M  V30 10159 C 982.388 -2.2291 0.695234 0
M  V30 10160 C 983.369 -1.67208 -0.312343 0
M  V30 10161 O 984.554 -1.93293 -0.187442 0
M  V30 10162 C 981.684 -3.47205 0.0810149 0
M  V30 10163 C 980.638 -4.15801 1.01458 0
M  V30 10164 C 979.964 -5.3405 0.263656 0
M  V30 10165 C 981.264 -4.66766 2.34365 0
M  V30 10166 H 982.958 -2.53934 1.58613 0
M  V30 10167 H 980.504 -1.22056 0.76409 0
M  V30 10168 H 982.457 -4.2098 -0.18818 0
M  V30 10169 H 981.181 -3.15482 -0.844897 0
M  V30 10170 H 979.84 -3.43954 1.26852 0
M  V30 10171 H 979.488 -4.9858 -0.665378 0
M  V30 10172 H 979.188 -5.80885 0.88582 0
M  V30 10173 H 980.712 -6.106 0.00200994 0
M  V30 10174 H 982.126 -5.3212 2.13356 0
M  V30 10175 H 980.523 -5.24223 2.9208 0
M  V30 10176 H 981.593 -3.82969 2.97426 0
M  V30 10177 N 982.937 -0.845659 -1.3299 0
M  V30 10178 C 983.847 -0.2864 -2.32845 0
M  V30 10179 C 984.863 0.591105 -1.63652 0
M  V30 10180 O 986.039 0.493615 -1.95257 0
M  V30 10181 C 983.104 0.523636 -3.42723 0
M  V30 10182 C 982.165 -0.378945 -4.27624 0
M  V30 10183 C 981.398 0.392526 -5.32255 0
M  V30 10184 O 981.621 1.6235 -5.46808 0
M  V30 10185 O 980.555 -0.237 -6.01433 0
M  V30 10186 H 984.381 -1.11346 -2.82552 0
M  V30 10187 H 981.966 -0.608356 -1.36453 0
M  V30 10188 H 983.848 0.983718 -4.09757 0
M  V30 10189 H 982.523 1.32764 -2.95221 0
M  V30 10190 H 981.43 -0.887012 -3.63432 0
M  V30 10191 H 982.763 -1.1479 -4.78627 0
M  V30 10192 N 984.415 1.45619 -0.602734 0
M  V30 10193 C 985.345 2.33258 0.106342 0
M  V30 10194 C 986.326 1.46543 0.863664 0
M  V30 10195 O 987.511 1.75324 0.835175 0
M  V30 10196 C 984.641 3.29168 1.10751 0
M  V30 10197 C 983.595 4.25481 0.463717 0
M  V30 10198 C 982.921 5.11046 1.57278 0
M  V30 10199 C 984.221 5.18702 -0.61199 0
M  V30 10200 H 985.915 2.92795 -0.625423 0
M  V30 10201 H 983.461 1.40793 -0.302213 0
M  V30 10202 H 985.414 3.89346 1.61208 0
M  V30 10203 H 984.138 2.6778 1.8698 0
M  V30 10204 H 982.797 3.66595 -0.0199496 0
M  V30 10205 H 982.445 4.46029 2.32524 0
M  V30 10206 H 982.145 5.76286 1.14755 0
M  V30 10207 H 983.669 5.74091 2.07972 0
M  V30 10208 H 985.083 5.72979 -0.191686 0
M  V30 10209 H 983.48 5.92393 -0.958686 0
M  V30 10210 H 984.55 4.61424 -1.4905 0
M  V30 10211 N 985.893 0.34162 1.53853 0
M  V30 10212 C 986.841 -0.531412 2.26448 0
M  V30 10213 C 987.835 -1.10357 1.28521 0
M  V30 10214 O 989.041 -1.04953 1.46236 0
M  V30 10215 H 985.416 -0.190054 0.727588 0
M  V30 10216 H 987.387 0.102922 2.98222 0
M  V30 10217 C 986.136 -1.67154 3.04885 0
M  V30 10218 H 985.459 -1.24055 3.80066 0
M  V30 10219 H 986.899 -2.25762 3.58898 0
M  V30 10220 C 985.358 -2.59984 2.14266 0
M  V30 10221 O 985.888 -3.62181 1.73746 0
M  V30 10222 N 984.094 -2.28625 1.79385 0
M  V30 10223 H 983.641 -1.45559 2.12533 0
M  V30 10224 H 983.599 -2.90995 1.19035 0
M  V30 10225 N 987.371 -1.57444 0.0701946 0
M  V30 10226 C 988.301 -2.15659 -0.895176 0
M  V30 10227 C 989.282 -1.08321 -1.31151 0
M  V30 10228 O 990.467 -1.36349 -1.38284 0
M  V30 10229 C 987.597 -2.71693 -2.16334 0
M  V30 10230 C 986.551 -3.84183 -1.88645 0
M  V30 10231 C 985.877 -4.26814 -3.22078 0
M  V30 10232 C 987.177 -5.08493 -1.19299 0
M  V30 10233 H 988.871 -2.96576 -0.410217 0
M  V30 10234 H 986.417 -1.42662 -0.195872 0
M  V30 10235 H 988.37 -3.11064 -2.84284 0
M  V30 10236 H 987.094 -1.87994 -2.67069 0
M  V30 10237 H 985.753 -3.45314 -1.23101 0
M  V30 10238 H 985.401 -3.40039 -3.70651 0
M  V30 10239 H 985.101 -5.02642 -3.04344 0
M  V30 10240 H 986.625 -4.68799 -3.91228 0
M  V30 10241 H 988.039 -5.4519 -1.77316 0
M  V30 10242 H 986.436 -5.89588 -1.11828 0
M  V30 10243 H 987.506 -4.84595 -0.171839 0
M  V30 10244 N 988.849 0.203349 -1.56283 0
M  V30 10245 C 990.074 0.945548 -1.84592 0
M  V30 10246 C 990.499 1.7641 -0.652772 0
M  V30 10247 O 989.857 1.76867 0.398468 0
M  V30 10248 C 989.905 1.82416 -3.11057 0
M  V30 10249 O 989.009 2.92191 -2.9103 0
M  V30 10250 H 988.35 0.266739 -0.608068 0
M  V30 10251 H 990.88 0.211158 -2.03507 0
M  V30 10252 H 990.89 2.23044 -3.41636 0
M  V30 10253 H 989.565 1.22267 -3.97522 0
M  V30 10254 H 988.142 2.55378 -2.71728 0
M  V30 10255 N 990.327 1.50405 0.470755 0
M  V30 10256 C 991.567 1.63049 1.23266 0
M  V30 10257 C 991.931 0.323815 1.8925 0
M  V30 10258 O 993.132 0.325692 2.6682 0
M  V30 10259 C 991.403 2.7783 2.24823 0
M  V30 10260 S 992.962 3.10609 3.09948 0
M  V30 10261 H 989.78 0.574787 0.418499 0
M  V30 10262 H 992.382 1.8819 0.529619 0
M  V30 10263 H 991.086 3.71252 1.74929 0
M  V30 10264 H 990.617 2.54776 2.99755 0
M  V30 10265 H 992.632 2.5446 4.25987 0
M  V30 10266 N 991.805 -0.723954 1.39988 0
M  V30 10267 C 993.216 -1.30273 1.33738 0
M  V30 10268 C 993.567 -1.96199 0.00690581 0
M  V30 10269 O 992.692 -1.97016 -0.895179 0
M  V30 10270 C 993.287 -2.36889 2.42217 0
M  V30 10271 C 991.846 -2.90412 2.39453 0
M  V30 10272 C 990.993 -1.64103 2.2353 0
M  V30 10273 H 993.944 -0.520672 1.49916 0
M  V30 10274 H 993.965 -3.17538 2.09642 0
M  V30 10275 H 993.477 -1.88878 3.39038 0
M  V30 10276 H 991.578 -3.42674 1.46304 0
M  V30 10277 H 991.691 -3.42775 3.34727 0
M  V30 10278 H 990.055 -1.88855 1.70897 0
M  V30 10279 H 990.838 -1.18128 3.22336 0
M  V30 10280 N 993.283 -1.25346 -0.955304 0
M  V30 10281 C 994.233 -1.02358 -2.03732 0
M  V30 10282 C 995.217 0.0392941 -1.60852 0
M  V30 10283 O 996.409 -0.175959 -1.76123 0
M  V30 10284 C 993.538 -0.643552 -3.37214 0
M  V30 10285 C 992.624 -1.74315 -3.8662 0
M  V30 10286 N 993.015 -2.97816 -4.08827 0
M  V30 10287 C 991.313 -1.62351 -4.15401 0
M  V30 10288 C 992.014 -3.69185 -4.4953 0
M  V30 10289 N 990.99 -2.96803 -4.55422 0
M  V30 10290 H 994.792 -1.96119 -2.18894 0
M  V30 10291 H 992.306 -1.15655 -1.14007 0
M  V30 10292 H 994.303 -0.460053 -4.14354 0
M  V30 10293 H 992.963 0.286738 -3.23431 0
M  V30 10294 H 993.974 -3.33868 -3.95919 0
M  V30 10295 H 990.651 -0.762133 -4.10485 0
M  V30 10296 H 992.041 -4.7519 -4.7502 0
M  V30 10297 N 994.761 1.15782 -1.06922 0
M  V30 10298 C 996.009 1.86097 -0.788192 0
M  V30 10299 C 996.33 1.82475 0.687606 0
M  V30 10300 O 995.6 1.26266 1.49778 0
M  V30 10301 H 994.18 0.689008 -0.288577 0
M  V30 10302 H 996.842 1.40377 -1.35205 0
M  V30 10303 H 995.938 2.91358 -1.1188 0
M  V30 10304 N 996.239 0.8527 1.3254 0
M  V30 10305 C 997.172 0.240733 2.26927 0
M  V30 10306 C 998.15 -0.620158 1.50309 0
M  V30 10307 O 999.334 -0.577389 1.79439 0
M  V30 10308 C 996.461 -0.660644 3.32195 0
M  V30 10309 C 995.507 0.126604 4.26312 0
M  V30 10310 S 996.34 1.49372 5.14245 0
M  V30 10311 C 997.496 0.598002 6.23037 0
M  V30 10312 H 997.729 1.04088 2.78483 0
M  V30 10313 H 995.262 0.650222 1.40041 0
M  V30 10314 H 997.22 -1.17506 3.93323 0
M  V30 10315 H 995.881 -1.43458 2.79426 0
M  V30 10316 H 995.074 -0.559851 5.00881 0
M  V30 10317 H 994.676 0.572536 3.69592 0
M  V30 10318 H 996.968 -0.198555 6.77209 0
M  V30 10319 H 997.911 1.31428 6.95796 0
M  V30 10320 H 998.319 0.173211 5.64234 0
M  V30 10321 N 997.718 -1.45297 0.610449 0
M  V30 10322 C 998.966 -2.01819 0.106548 0
M  V30 10323 C 999.287 -1.48102 -1.26849 0
M  V30 10324 O 998.557 -0.676411 -1.83852 0
M  V30 10325 H 997.137 -0.746113 0.0363982 0
M  V30 10326 H 999.799 -1.78061 0.792491 0
M  V30 10327 H 998.895 -3.12045 0.0585 0
M  V30 10328 N 999.196 -0.349774 -1.5367 0
M  V30 10329 C 1000.11 0.512421 -2.28935 0
M  V30 10330 C 1001.12 1.1065 -1.34286 0
M  V30 10331 O 1002.3 1.12084 -1.67329 0
M  V30 10332 C 999.363 1.64449 -3.05217 0
M  V30 10333 C 998.424 1.07956 -4.15505 0
M  V30 10334 C 997.657 2.15768 -4.88139 0
M  V30 10335 O 997.88 3.366 -4.60496 0
M  V30 10336 O 996.814 1.79712 -5.74445 0
M  V30 10337 H 1000.64 -0.0996001 -3.03537 0
M  V30 10338 H 998.225 -0.114629 -1.4896 0
M  V30 10339 H 1000.11 2.30302 -3.52901 0
M  V30 10340 H 998.782 2.24221 -2.33467 0
M  V30 10341 H 997.689 0.385381 -3.7211 0
M  V30 10342 H 999.022 0.526621 -4.89375 0
M  V30 10343 N 1000.67 1.57404 -0.0785433 0
M  V30 10344 C 1002.09 1.57158 0.2781 0
M  V30 10345 C 1002.29 1.08847 1.69572 0
M  V30 10346 O 1001.35 0.757407 2.40873 0
M  V30 10347 C 1002.66 3.00589 0.0816067 0
M  V30 10348 C 1004.21 3.12637 0.150627 0
M  V30 10349 C 1004.68 4.57997 -0.0176685 0
M  V30 10350 N 1006.17 4.63185 0.0377145 0
M  V30 10351 C 1006.91 5.7336 -0.0679907 0
M  V30 10352 N 1006.4 6.92426 -0.227598 0
M  V30 10353 N 1008.2 5.62099 -0.0104424 0
M  V30 10354 H 1000.35 1.87121 -1.00496 0
M  V30 10355 H 1002.61 0.862937 -0.392484 0
M  V30 10356 H 1002.32 3.40072 -0.896869 0
M  V30 10357 H 1002.19 3.67931 0.831046 0
M  V30 10358 H 1004.58 2.73037 1.11959 0
M  V30 10359 H 1004.66 2.4792 -0.630028 0
M  V30 10360 H 1004.3 4.98288 -0.983431 0
M  V30 10361 H 1004.23 5.20754 0.782475 0
M  V30 10362 H 1006.72 3.77564 0.159208 0
M  V30 10363 H 1007.04 7.72217 -0.300217 0
M  V30 10364 H 1005.38 6.94502 -0.263049 0
M  V30 10365 H 1008.57 4.67964 0.112999 0
M  V30 10366 H 1008.75 6.47928 -0.0962747 0
M  V30 10367 N 1002.15 -0.195058 1.56388 0
M  V30 10368 C 1003.4 -0.913636 1.8027 0
M  V30 10369 C 1003.72 -1.83791 0.651606 0
M  V30 10370 O 1002.99 -1.931 -0.330057 0
M  V30 10371 H 1001.57 -0.34036 0.664954 0
M  V30 10372 H 1004.23 -0.200559 1.93865 0
M  V30 10373 H 1003.33 -1.50473 2.7343 0
M  V30 10374 N 1003.63 -1.50653 -0.462772 0
M  V30 10375 C 1004.56 -1.64773 -1.57877 0
M  V30 10376 C 1005.54 -0.495664 -1.54861 0
M  V30 10377 O 1006.72 -0.716248 -1.74362 0
M  V30 10378 C 1003.85 -1.63796 -2.9646 0
M  V30 10379 C 1002.9 -2.84663 -3.17599 0
M  V30 10380 S 1003.73 -4.45852 -2.96608 0
M  V30 10381 C 1004.89 -4.47581 -4.37518 0
M  V30 10382 H 1005.12 -2.59172 -1.45661 0
M  V30 10383 H 1002.65 -1.40019 -0.650699 0
M  V30 10384 H 1004.61 -1.63918 -3.76353 0
M  V30 10385 H 1003.27 -0.706185 -3.06059 0
M  V30 10386 H 1002.46 -2.80308 -4.1886 0
M  V30 10387 H 1002.07 -2.82152 -2.45492 0
M  V30 10388 H 1004.36 -4.21656 -5.30295 0
M  V30 10389 H 1005.3 -5.49248 -4.46914 0
M  V30 10390 H 1005.71 -3.7719 -4.19985 0
M  V30 10391 N 1005.11 0.71652 -1.4037 0
M  V30 10392 C 1006.36 1.47347 -1.38324 0
M  V30 10393 C 1006.68 1.94995 0.0139949 0
M  V30 10394 O 1005.95 1.7028 0.968585 0
M  V30 10395 H 1004.53 0.546662 -0.509087 0
M  V30 10396 H 1007.19 0.849455 -1.75415 0
M  V30 10397 H 1006.29 2.34675 -2.05752 0
M  V30 10398 N 1006.59 1.25851 0.948643 0
M  V30 10399 C 1007.52 1.09248 2.06367 0
M  V30 10400 C 1008.5 -0.000205168 1.701 0
M  V30 10401 O 1009.68 0.170442 1.93451 0
M  V30 10402 C 1006.81 0.716777 3.39823 0
M  V30 10403 C 1005.77 1.76036 3.90122 0
M  V30 10404 C 1005.09 1.23918 5.20143 0
M  V30 10405 C 1006.39 3.16039 4.15833 0
M  V30 10406 H 1008.09 2.02518 2.20515 0
M  V30 10407 H 1005.63 0.975093 1.05962 0
M  V30 10408 H 1007.59 0.587531 4.17284 0
M  V30 10409 H 1006.31 -0.251626 3.25629 0
M  V30 10410 H 1004.97 1.87815 3.14835 0
M  V30 10411 H 1004.62 0.260836 5.02323 0
M  V30 10412 H 1004.32 1.93673 5.54765 0
M  V30 10413 H 1005.84 1.12245 6.00194 0
M  V30 10414 H 1007.25 3.0738 4.83933 0
M  V30 10415 H 1005.65 3.83317 4.61723 0
M  V30 10416 H 1006.72 3.62652 3.21887 0
M  V30 10417 N 1008.06 -1.15214 1.07534 0
M  V30 10418 C 1009.03 -2.18209 0.701237 0
M  V30 10419 C 1010.03 -1.58693 -0.25946 0
M  V30 10420 O 1011.22 -1.74154 -0.0401744 0
M  V30 10421 C 1008.35 -3.40883 0.0338703 0
M  V30 10422 H 1009.54 -2.5282 1.61314 0
M  V30 10423 H 1007.1 -1.29707 0.872105 0
M  V30 10424 H 1007.83 -3.11843 -0.890187 0
M  V30 10425 H 1007.62 -3.85342 0.72486 0
M  V30 10426 H 1009.11 -4.17056 -0.213152 0
M  V30 10427 N 1009.54 -0.859717 -1.32086 0
M  V30 10428 C 1010.78 -0.471939 -1.98877 0
M  V30 10429 C 1011.15 0.955689 -1.66525 0
M  V30 10430 O 1012.35 1.44829 -2.26447 0
M  V30 10431 C 1010.62 -0.710016 -3.50276 0
M  V30 10432 S 1012.18 -0.420566 -4.3678 0
M  V30 10433 H 1009 -0.176588 -0.688722 0
M  V30 10434 H 1011.6 -1.11352 -1.60689 0
M  V30 10435 H 1010.3 -1.74803 -3.71311 0
M  V30 10436 H 1009.83 -0.0550429 -3.93361 0
M  V30 10437 H 1011.85 0.751362 -4.90478 0
M  V30 10438 N 1011.02 1.44971 -0.618145 0
M  V30 10439 C 1012.27 2.0176 -0.11725 0
M  V30 10440 C 1012.59 1.48773 1.26062 0
M  V30 10441 O 1011.86 0.686152 1.83491 0
M  V30 10442 H 1010.44 0.745909 -0.0403545 0
M  V30 10443 H 1013.1 1.77638 -0.801923 0
M  V30 10444 H 1012.2 3.1201 -0.0750477 0
M  V30 10445 N 1012.5 0.357919 1.53482 0
M  V30 10446 C 1013.43 -0.526753 2.23065 0
M  V30 10447 C 1014.44 -1.05239 1.24212 0
M  V30 10448 O 1015.63 -0.960078 1.50482 0
M  V30 10449 C 1012.73 -1.73919 2.9087 0
M  V30 10450 C 1011.91 -1.34638 4.16163 0
M  V30 10451 C 1010.96 -2.42005 4.67247 0
M  V30 10452 O 1009.99 -2.04714 5.31113 0
M  V30 10453 N 1011.19 -3.73478 4.44404 0
M  V30 10454 H 1013.96 0.0692386 2.9962 0
M  V30 10455 H 1011.52 0.182726 1.60866 0
M  V30 10456 H 1013.51 -2.45207 3.21956 0
M  V30 10457 H 1012.08 -2.24223 2.17814 0
M  V30 10458 H 1011.3 -0.463667 3.91464 0
M  V30 10459 H 1012.59 -1.06012 4.97633 0
M  V30 10460 H 1011.99 -4.06555 3.93357 0
M  V30 10461 H 1010.54 -4.40893 4.80059 0
M  V30 10462 N 1013.98 -1.5736 0.0868897 0
M  V30 10463 C 1015.25 -1.85495 -0.620561 0
M  V30 10464 C 1015.63 -0.982218 -1.86857 0
M  V30 10465 O 1014.98 -0.0524529 -2.2844 0
M  V30 10466 C 1015.19 -3.35996 -0.943798 0
M  V30 10467 C 1016.54 -4.03861 -1.31079 0
M  V30 10468 O 1017.56 -3.4083 -1.03507 0
M  V30 10469 O 1016.42 -5.15062 -1.82683 0
M  V30 10470 H 1013.52 -0.766822 -0.309697 0
M  V30 10471 H 1016.06 -1.69282 0.118966 0
M  V30 10472 H 1014.83 -3.91257 -0.0580628 0
M  V30 10473 H 1014.46 -3.57525 -1.73958 0
M  V30 10474 N 1015.45 0.186762 -1.56489 0
M  V30 10475 C 1016.87 0.750675 -1.70944 0
M  V30 10476 C 1017.22 1.83483 -0.694858 0
M  V30 10477 O 1016.34 2.159 0.147009 0
M  V30 10478 C 1016.94 1.36843 -3.09934 0
M  V30 10479 C 1015.5 1.87934 -3.26125 0
M  V30 10480 C 1014.64 0.75242 -2.66897 0
M  V30 10481 H 1017.59 -0.0384292 -1.58653 0
M  V30 10482 H 1017.61 2.23795 -3.07727 0
M  V30 10483 H 1017.13 0.579135 -3.83755 0
M  V30 10484 H 1015.23 2.69556 -2.57235 0
M  V30 10485 H 1015.34 2.0354 -4.33715 0
M  V30 10486 H 1013.7 1.16888 -2.26295 0
M  V30 10487 H 1014.49 -0.0247769 -3.43291 0
M  V30 10488 N 1016.93 1.50896 0.454776 0
M  V30 10489 C 1017.84 1.73762 1.5762 0
M  V30 10490 C 1018.86 0.621206 1.62533 0
M  V30 10491 O 1020.03 0.901449 1.801 0
M  V30 10492 C 1017.1 1.84183 2.9373 0
M  V30 10493 C 1016.16 3.07982 2.99075 0
M  V30 10494 C 1015.39 3.17896 4.28693 0
M  V30 10495 O 1015.62 2.34184 5.20109 0
M  V30 10496 O 1014.55 4.10749 4.39964 0
M  V30 10497 H 1018.38 2.68856 1.41245 0
M  V30 10498 H 1015.96 1.35187 0.635984 0
M  V30 10499 H 1017.84 1.93123 3.74542 0
M  V30 10500 H 1016.52 0.922742 3.10269 0
M  V30 10501 H 1015.43 3.04531 2.17282 0
M  V30 10502 H 1016.76 3.99523 2.87476 0
M  V30 10503 N 1018.41 -0.709066 1.40748 0
M  V30 10504 C 1019.34 -1.83583 1.4429 0
M  V30 10505 C 1020.32 -1.67378 0.303067 0
M  V30 10506 O 1021.51 -1.87312 0.512612 0
M  V30 10507 C 1018.64 -3.21599 1.31116 0
M  V30 10508 C 1017.59 -3.52486 2.4277 0
M  V30 10509 C 1016.92 -4.89716 2.14668 0
M  V30 10510 C 1018.22 -3.52824 3.85113 0
M  V30 10511 H 1019.91 -1.80876 2.38588 0
M  V30 10512 H 1017.46 -0.868795 1.14839 0
M  V30 10513 H 1019.41 -4.00123 1.32209 0
M  V30 10514 H 1018.13 -3.24898 0.332965 0
M  V30 10515 H 1016.79 -2.76305 2.40937 0
M  V30 10516 H 1016.44 -4.89625 1.15224 0
M  V30 10517 H 1016.14 -5.11347 2.89478 0
M  V30 10518 H 1017.66 -5.70566 2.17455 0
M  V30 10519 H 1019.08 -4.21377 3.88734 0
M  V30 10520 H 1017.48 -3.85984 4.59496 0
M  V30 10521 H 1018.55 -2.52073 4.14231 0
M  V30 10522 N 1019.89 -1.26353 -0.941956 0
M  V30 10523 C 1021.14 -1.12017 -1.69056 0
M  V30 10524 C 1021.47 0.335856 -1.91274 0
M  V30 10525 O 1020.74 1.24677 -1.49285 0
M  V30 10526 C 1021.03 -1.88889 -3.06583 0
M  V30 10527 C 1020.88 -3.42394 -2.91696 0
M  V30 10528 C 1022.2 -1.68209 -4.06686 0
M  V30 10529 H 1019.32 -0.408311 -0.613556 0
M  V30 10530 H 1021.96 -1.55339 -1.09407 0
M  V30 10531 H 1020.11 -1.5207 -3.57501 0
M  V30 10532 H 1021.78 -3.88962 -2.48005 0
M  V30 10533 H 1020.02 -3.69459 -2.27338 0
M  V30 10534 H 1020.7 -3.91408 -3.89235 0
M  V30 10535 H 1023.17 -2.00286 -3.64726 0
M  V30 10536 H 1022.05 -2.24412 -5.00929 0
M  V30 10537 H 1022.31 -0.626474 -4.37639 0
M  V30 10538 N 1021.37 1.14642 -1.08144 0
M  V30 10539 C 1022.78 1.37604 -0.808537 0
M  V30 10540 C 1022.98 1.92868 0.583452 0
M  V30 10541 O 1022.04 2.13964 1.34073 0
M  V30 10542 C 1023.35 2.3396 -1.889 0
M  V30 10543 C 1024.9 2.47605 -1.9147 0
M  V30 10544 C 1025.38 3.47258 -2.98623 0
M  V30 10545 N 1026.87 3.548 -2.97777 0
M  V30 10546 C 1027.6 4.31751 -3.77331 0
M  V30 10547 N 1027.1 5.11966 -4.66757 0
M  V30 10548 N 1028.89 4.2692 -3.65645 0
M  V30 10549 H 1021.04 0.771154 -1.97906 0
M  V30 10550 H 1023.3 0.401694 -0.858688 0
M  V30 10551 H 1023.01 2.00484 -2.88962 0
M  V30 10552 H 1022.88 3.33833 -1.756 0
M  V30 10553 H 1025.27 2.80375 -0.920548 0
M  V30 10554 H 1025.35 1.47702 -2.08848 0
M  V30 10555 H 1025 3.15223 -3.98243 0
M  V30 10556 H 1024.93 4.46935 -2.7849 0
M  V30 10557 H 1027.42 2.97553 -2.3296 0
M  V30 10558 H 1027.73 5.67951 -5.24072 0
M  V30 10559 H 1026.08 5.11245 -4.70801 0
M  V30 10560 H 1029.27 3.63322 -2.95152 0
M  V30 10561 H 1029.44 4.8664 -4.27885 0
M  V30 10562 N 1022.85 0.866709 1.31628 0
M  V30 10563 C 1023.79 0.309128 2.30537 0
M  V30 10564 C 1024.79 -0.574028 1.59378 0
M  V30 10565 O 1025.99 -0.460491 1.7401 0
M  V30 10566 H 1022.37 0.081279 0.747595 0
M  V30 10567 H 1024.34 1.15734 2.75042 0
M  V30 10568 C 1023.09 -0.477287 3.44409 0
M  V30 10569 H 1022.41 0.19301 3.99334 0
M  V30 10570 H 1023.85 -0.832818 4.1574 0
M  V30 10571 C 1022.31 -1.66727 2.92752 0
M  V30 10572 O 1022.84 -2.76654 2.91248 0
M  V30 10573 N 1021.05 -1.49833 2.48995 0
M  V30 10574 H 1020.59 -0.604073 2.50417 0
M  V30 10575 H 1020.55 -2.29594 2.14788 0
M  V30 10576 N 1024.32 -1.44642 0.625825 0
M  V30 10577 C 1025.57 -2.01308 0.125682 0
M  V30 10578 C 1025.89 -1.49773 -1.25807 0
M  V30 10579 O 1027.09 -1.98533 -1.85194 0
M  V30 10580 C 1025.55 -3.59479 0.17395 0
M  V30 10581 C 1025.16 -4.20011 1.55868 0
M  V30 10582 C 1026.9 -4.2364 -0.270005 0
M  V30 10583 C 1024.81 -5.7039 1.56235 0
M  V30 10584 H 1023.74 -0.75276 0.0432194 0
M  V30 10585 H 1026.39 -1.65916 0.783842 0
M  V30 10586 H 1024.77 -3.92145 -0.551212 0
M  V30 10587 H 1025.94 -3.98891 2.307 0
M  V30 10588 H 1024.26 -3.68116 1.94627 0
M  V30 10589 H 1026.86 -5.33931 -0.28672 0
M  V30 10590 H 1027.2 -3.95603 -1.29629 0
M  V30 10591 H 1027.73 -3.95759 0.402487 0
M  V30 10592 H 1024.47 -6.03154 2.56683 0
M  V30 10593 H 1023.99 -5.93648 0.856881 0
M  V30 10594 H 1025.67 -6.33929 1.29396 0
M  V30 10595 N 1025.8 -0.366053 -1.5329 0
M  V30 10596 C 1027.04 0.223558 -2.03174 0
M  V30 10597 C 1027.41 1.45955 -1.24745 0
M  V30 10598 O 1028.61 2.12481 -1.64637 0
M  V30 10599 C 1026.88 0.507899 -3.53773 0
M  V30 10600 S 1028.44 1.07111 -4.25526 0
M  V30 10601 H 1025.25 0.0650309 -0.70802 0
M  V30 10602 H 1027.86 -0.509028 -1.88757 0
M  V30 10603 H 1026.56 -0.39913 -4.08455 0
M  V30 10604 H 1026.09 1.26954 -3.72352 0
M  V30 10605 H 1028.11 2.35533 -4.36737 0
M  V30 10606 N 1027.28 1.57312 -0.0952337 0
M  V30 10607 C 1028.7 1.57445 0.261416 0
M  V30 10608 C 1028.9 1.10639 1.68408 0
M  V30 10609 O 1027.95 0.782912 2.40056 0
M  V30 10610 C 1029.26 3.00659 0.0497206 0
M  V30 10611 C 1030.81 3.1278 0.117459 0
M  V30 10612 C 1031.29 4.57952 -0.0662441 0
M  V30 10613 N 1032.78 4.63199 -0.0114146 0
M  V30 10614 C 1033.51 5.73255 -0.128799 0
M  V30 10615 N 1033.01 6.92146 -0.301026 0
M  V30 10616 N 1034.8 5.62056 -0.0700599 0
M  V30 10617 H 1026.95 1.86045 -1.02475 0
M  V30 10618 H 1029.22 0.858726 -0.401614 0
M  V30 10619 H 1028.92 3.39102 -0.932888 0
M  V30 10620 H 1028.8 3.68792 0.791975 0
M  V30 10621 H 1031.18 2.74209 1.09057 0
M  V30 10622 H 1031.26 2.47238 -0.656288 0
M  V30 10623 H 1030.91 4.97217 -1.03623 0
M  V30 10624 H 1030.84 5.21555 0.727198 0
M  V30 10625 H 1033.33 3.77712 0.119154 0
M  V30 10626 H 1033.64 7.71855 -0.382104 0
M  V30 10627 H 1031.99 6.94184 -0.336695 0
M  V30 10628 H 1035.18 4.68057 0.0633587 0
M  V30 10629 H 1035.35 6.4779 -0.164991 0
M  V30 10630 N 1028.76 -0.17846 1.56586 0
M  V30 10631 C 1030 -0.892915 1.82753 0
M  V30 10632 C 1030.36 -1.8018 0.674744 0
M  V30 10633 O 1029.65 -1.8875 -0.329219 0
M  V30 10634 C 1029.85 -1.73063 3.12704 0
M  V30 10635 C 1029.67 -0.904341 4.40513 0
M  V30 10636 C 1028.44 -0.582221 5.01935 0
M  V30 10637 C 1030.64 -0.249232 5.13696 0
M  V30 10638 N 1028.62 0.260955 6.13345 0
M  V30 10639 C 1030 0.455417 6.18325 0
M  V30 10640 C 1032.05 -0.166663 4.97621 0
M  V30 10641 C 1030.75 1.23479 7.08622 0
M  V30 10642 C 1032.78 0.599362 5.88355 0
M  V30 10643 C 1032.14 1.2924 6.92442 0
M  V30 10644 H 1028.24 -0.30559 0.719818 0
M  V30 10645 H 1030.82 -0.160405 1.94038 0
M  V30 10646 H 1029 -2.43461 3.02624 0
M  V30 10647 H 1030.73 -2.38584 3.26894 0
M  V30 10648 H 1027.48 -0.910612 4.64763 0
M  V30 10649 H 1027.91 0.672643 6.7365 0
M  V30 10650 H 1032.55 -0.688116 4.17163 0
M  V30 10651 H 1030.27 1.76762 7.88531 0
M  V30 10652 H 1033.85 0.664826 5.77989 0
M  V30 10653 H 1032.73 1.87564 7.61439 0
M  V30 10654 N 1030.24 -1.51135 -0.446768 0
M  V30 10655 C 1031.48 -1.63578 -1.19875 0
M  V30 10656 C 1031.81 -0.346478 -1.91084 0
M  V30 10657 O 1031.09 0.653447 -1.83195 0
M  V30 10658 C 1031.37 -2.83275 -2.22323 0
M  V30 10659 C 1031.23 -4.22155 -1.55259 0
M  V30 10660 C 1032.54 -2.98496 -3.23401 0
M  V30 10661 H 1029.66 -0.595333 -0.434452 0
M  V30 10662 H 1032.31 -1.83593 -0.48923 0
M  V30 10663 H 1030.46 -2.6634 -2.82834 0
M  V30 10664 H 1032.13 -4.50736 -0.981571 0
M  V30 10665 H 1030.37 -4.25288 -0.855122 0
M  V30 10666 H 1031.04 -5.01882 -2.29823 0
M  V30 10667 H 1033.52 -3.14079 -2.72935 0
M  V30 10668 H 1032.39 -3.83828 -3.92386 0
M  V30 10669 H 1032.65 -2.10157 -3.88956 0
M  V30 10670 N 1031.71 0.701592 -1.41122 0
M  V30 10671 C 1033.13 1.01143 -1.23459 0
M  V30 10672 C 1033.33 2.01144 -0.11968 0
M  V30 10673 O 1032.39 2.47132 0.517889 0
M  V30 10674 C 1033.7 1.54179 -2.58165 0
M  V30 10675 C 1035.25 1.66093 -2.65296 0
M  V30 10676 C 1035.72 2.22532 -4.00304 0
M  V30 10677 N 1037.21 2.299 -4.0212 0
M  V30 10678 C 1037.95 2.74584 -5.0338 0
M  V30 10679 N 1037.44 3.18917 -6.15032 0
M  V30 10680 N 1039.24 2.74094 -4.90743 0
M  V30 10681 H 1031.39 0.0390087 -2.12364 0
M  V30 10682 H 1033.65 0.0798848 -0.944628 0
M  V30 10683 H 1033.36 0.881587 -3.40472 0
M  V30 10684 H 1033.23 2.52488 -2.80231 0
M  V30 10685 H 1035.62 2.31227 -1.83352 0
M  V30 10686 H 1035.7 0.663461 -2.47046 0
M  V30 10687 H 1035.34 1.58016 -4.82694 0
M  V30 10688 H 1035.27 3.2302 -4.15891 0
M  V30 10689 H 1037.76 1.98607 -3.21502 0
M  V30 10690 H 1038.08 3.5162 -6.88174 0
M  V30 10691 H 1036.42 3.1684 -6.18577 0
M  V30 10692 H 1039.61 2.38804 -4.02604 0
M  V30 10693 H 1039.79 3.086 -5.69798 0
M  V30 10694 N 1033.19 1.2685 0.935242 0
M  V30 10695 C 1034.12 1.04717 2.0388 0
M  V30 10696 C 1035.14 0.00567507 1.62799 0
M  V30 10697 O 1036.33 0.246408 1.76791 0
M  V30 10698 C 1033.43 0.56496 3.34158 0
M  V30 10699 C 1032.6 1.67704 4.03973 0
M  V30 10700 C 1031.66 1.19186 5.12524 0
M  V30 10701 O 1030.68 1.89008 5.36903 0
M  V30 10702 N 1031.89 0.0434554 5.80484 0
M  V30 10703 H 1034.65 1.99746 2.23431 0
M  V30 10704 H 1032.21 1.18316 1.10512 0
M  V30 10705 H 1034.2 0.224436 4.04077 0
M  V30 10706 H 1032.77 -0.291899 3.11234 0
M  V30 10707 H 1031.99 2.18821 3.27889 0
M  V30 10708 H 1033.28 2.42361 4.47368 0
M  V30 10709 H 1032.68 -0.539502 5.63122 0
M  V30 10710 H 1031.24 -0.237946 6.51366 0
M  V30 10711 N 1034.67 -1.14067 1.0875 0
M  V30 10712 C 1035.63 -2.17453 0.724341 0
M  V30 10713 C 1036.63 -1.58959 -0.242614 0
M  V30 10714 O 1037.82 -1.74186 -0.0217008 0
M  V30 10715 C 1034.96 -3.40828 0.0700236 0
M  V30 10716 H 1036.15 -2.51094 1.63987 0
M  V30 10717 H 1033.7 -1.28775 0.885813 0
M  V30 10718 H 1034.44 -3.1277 -0.857061 0
M  V30 10719 H 1034.22 -3.84551 0.76569 0
M  V30 10720 H 1035.71 -4.17258 -0.168905 0
M  V30 10721 N 1036.15 -0.873678 -1.31166 0
M  V30 10722 C 1037.39 -0.487178 -1.96861 0
M  V30 10723 C 1037.73 0.95887 -1.68877 0
M  V30 10724 O 1037 1.6758 -0.987279 0
M  V30 10725 C 1037.29 -0.74925 -3.52219 0
M  V30 10726 C 1037.14 -2.2451 -3.89763 0
M  V30 10727 C 1038.46 -0.218194 -4.39559 0
M  V30 10728 H 1035.58 -0.178477 -0.715063 0
M  V30 10729 H 1038.22 -1.0956 -1.55231 0
M  V30 10730 H 1036.37 -0.231403 -3.8781 0
M  V30 10731 H 1038.04 -2.83049 -3.64254 0
M  V30 10732 H 1036.28 -2.71621 -3.38237 0
M  V30 10733 H 1036.95 -2.37911 -4.98099 0
M  V30 10734 H 1039.43 -0.661274 -4.10812 0
M  V30 10735 H 1038.31 -0.430983 -5.47205 0
M  V30 10736 H 1038.57 0.880056 -4.33252 0
M  V30 10737 N 1037.63 1.44308 -0.633487 0
M  V30 10738 C 1038.56 2.28943 0.108474 0
M  V30 10739 C 1039.57 1.41415 0.806582 0
M  V30 10740 O 1040.76 1.65544 0.667634 0
M  V30 10741 C 1037.86 3.17845 1.1759 0
M  V30 10742 C 1037.03 4.33802 0.559842 0
M  V30 10743 C 1036.09 5.03722 1.52154 0
M  V30 10744 O 1035.12 5.5966 1.03776 0
M  V30 10745 N 1036.32 5.05392 2.85586 0
M  V30 10746 H 1039.09 2.93262 -0.617879 0
M  V30 10747 H 1036.65 1.54781 -0.474819 0
M  V30 10748 H 1038.64 3.61485 1.81963 0
M  V30 10749 H 1037.21 2.55261 1.80445 0
M  V30 10750 H 1036.43 3.93325 -0.262559 0
M  V30 10751 H 1037.72 5.08637 0.128942 0
M  V30 10752 H 1037.11 4.61282 3.27468 0
M  V30 10753 H 1035.67 5.52813 3.45313 0
M  V30 10754 N 1039.1 0.374177 1.53094 0
M  V30 10755 C 1040.35 -0.213981 2.00562 0
M  V30 10756 C 1040.67 -1.4916 1.26533 0
M  V30 10757 O 1041.87 -2.15889 1.64634 0
M  V30 10758 C 1040.33 -0.431876 3.57299 0
M  V30 10759 C 1039.94 0.831615 4.40214 0
M  V30 10760 C 1041.68 -0.977222 4.13099 0
M  V30 10761 C 1039.59 0.582831 5.88521 0
M  V30 10762 H 1038.52 -0.0837386 0.749336 0
M  V30 10763 H 1041.17 0.494245 1.76719 0
M  V30 10764 H 1039.55 -1.20158 3.7733 0
M  V30 10765 H 1040.72 1.60477 4.31953 0
M  V30 10766 H 1039.04 1.30081 3.9556 0
M  V30 10767 H 1041.64 -1.17881 5.21544 0
M  V30 10768 H 1041.98 -1.94189 3.68234 0
M  V30 10769 H 1042.51 -0.267473 3.969 0
M  V30 10770 H 1039.25 1.51807 6.37679 0
M  V30 10771 H 1038.77 -0.151666 5.99608 0
M  V30 10772 H 1040.45 0.211604 6.46654 0
M  V30 10773 N 1040.58 -1.57259 0.103575 0
M  V30 10774 C 1041.99 -1.81816 -0.424239 0
M  V30 10775 C 1042.34 -1.01976 -1.67617 0
M  V30 10776 O 1041.47 -0.251673 -2.14932 0
M  V30 10777 C 1042.06 -3.29783 -0.776453 0
M  V30 10778 C 1040.62 -3.55074 -1.24897 0
M  V30 10779 C 1039.77 -2.76172 -0.249875 0
M  V30 10780 H 1042.72 -1.55254 0.328913 0
M  V30 10781 H 1042.74 -3.43569 -1.63526 0
M  V30 10782 H 1042.25 -3.87865 0.134906 0
M  V30 10783 H 1040.36 -3.02332 -2.17775 0
M  V30 10784 H 1040.47 -4.637 -1.20495 0
M  V30 10785 H 1038.83 -2.43902 -0.733767 0
M  V30 10786 H 1039.62 -3.37007 0.65431 0
M  V30 10787 N 1042.06 0.170153 -1.56679 0
M  V30 10788 C 1043.31 0.886592 -1.8206 0
M  V30 10789 C 1043.64 1.82194 -0.680839 0
M  V30 10790 O 1042.89 1.92866 0.331822 0
M  V30 10791 C 1043.19 1.71402 -3.13618 0
M  V30 10792 C 1042.86 0.927489 -4.41258 0
M  V30 10793 C 1041.52 0.710417 -4.75927 0
M  V30 10794 C 1043.87 0.375855 -5.19843 0
M  V30 10795 C 1041.2 -0.0693691 -5.86659 0
M  V30 10796 C 1043.55 -0.390849 -6.31391 0
M  V30 10797 C 1042.21 -0.61871 -6.64626 0
M  V30 10798 H 1041.48 0.324427 -0.666204 0
M  V30 10799 H 1044.13 0.151464 -1.909 0
M  V30 10800 H 1042.44 2.51858 -3.00125 0
M  V30 10801 H 1044.13 2.27141 -3.30466 0
M  V30 10802 H 1040.72 1.10672 -4.14065 0
M  V30 10803 H 1044.91 0.530897 -4.93452 0
M  V30 10804 H 1040.16 -0.255637 -6.10865 0
M  V30 10805 H 1044.34 -0.825544 -6.9149 0
M  V30 10806 H 1041.96 -1.22482 -7.50268 0
M  V30 10807 N 1043.54 1.5137 0.438746 0
M  V30 10808 C 1044.79 1.63969 1.1883 0
M  V30 10809 C 1045.11 0.355245 1.91228 0
M  V30 10810 O 1044.37 -0.660605 1.84213 0
M  V30 10811 C 1044.67 2.79221 2.23093 0
M  V30 10812 C 1044.33 4.18547 1.67717 0
M  V30 10813 C 1043 4.5645 1.52337 0
M  V30 10814 C 1045.35 5.05494 1.26986 0
M  V30 10815 C 1042.68 5.79007 0.946996 0
M  V30 10816 C 1045.03 6.28628 0.707785 0
M  V30 10817 C 1043.69 6.65305 0.540881 0
M  V30 10818 H 1042.96 0.600003 0.43483 0
M  V30 10819 H 1045.61 1.85398 0.479565 0
M  V30 10820 H 1043.91 2.52008 2.99999 0
M  V30 10821 H 1045.61 2.86168 2.80907 0
M  V30 10822 H 1042.2 3.88663 1.80663 0
M  V30 10823 H 1046.38 4.76818 1.37689 0
M  V30 10824 H 1041.64 6.06072 0.805432 0
M  V30 10825 H 1045.81 6.95342 0.38366 0
M  V30 10826 H 1043.44 7.60144 0.0921324 0
M  V30 10827 N 1045.02 -0.694098 1.41492 0
M  V30 10828 C 1045.98 -1.78976 1.43179 0
M  V30 10829 C 1046.98 -1.57539 0.322191 0
M  V30 10830 O 1048.17 -1.64185 0.582138 0
M  V30 10831 C 1045.3 -3.17368 1.2446 0
M  V30 10832 H 1046.49 -1.78874 2.40716 0
M  V30 10833 H 1044.05 -0.901867 1.27656 0
M  V30 10834 H 1044.78 -3.23109 0.277691 0
M  V30 10835 H 1044.57 -3.3433 2.04856 0
M  V30 10836 H 1046.06 -3.97345 1.28479 0
M  V30 10837 N 1046.49 -1.27344 -0.928501 0
M  V30 10838 C 1047.44 -1.10001 -2.029 0
M  V30 10839 C 1048.41 -0.00131084 -1.661 0
M  V30 10840 O 1049.6 -0.163485 -1.90098 0
M  V30 10841 C 1046.74 -0.7524 -3.36798 0
M  V30 10842 C 1045.85 -1.92865 -3.86558 0
M  V30 10843 C 1044.98 -1.52299 -5.08899 0
M  V30 10844 C 1044.02 -2.66677 -5.50953 0
M  V30 10845 N 1043.16 -2.26706 -6.64491 0
M  V30 10846 H 1048 -2.0417 -2.17068 0
M  V30 10847 H 1045.54 -1.01637 -1.0634 0
M  V30 10848 H 1047.5 -0.531687 -4.13798 0
M  V30 10849 H 1046.13 0.15234 -3.2244 0
M  V30 10850 H 1045.18 -2.26192 -3.05845 0
M  V30 10851 H 1046.49 -2.78668 -4.13698 0
M  V30 10852 H 1045.64 -1.26348 -5.93398 0
M  V30 10853 H 1044.38 -0.636042 -4.83535 0
M  V30 10854 H 1043.39 -2.93344 -4.65004 0
M  V30 10855 H 1044.61 -3.55992 -5.78313 0
M  V30 10856 H 1042.56 -1.40462 -6.40786 0
M  V30 10857 H 1042.48 -3.06049 -6.91281 0
M  V30 10858 H 1043.74 -2.04 -7.52333 0
M  V30 10859 N 1047.97 1.13488 -1.09353 0
M  V30 10860 C 1048.9 2.20988 -0.75409 0
M  V30 10861 C 1049.88 1.67977 0.267901 0
M  V30 10862 O 1051.07 1.93722 0.136128 0
M  V30 10863 C 1048.2 3.46869 -0.173042 0
M  V30 10864 C 1047.15 4.12965 -1.12446 0
M  V30 10865 C 1046.48 5.33163 -0.405157 0
M  V30 10866 C 1047.78 4.60388 -2.46658 0
M  V30 10867 H 1049.47 2.49639 -1.6529 0
M  V30 10868 H 1047.02 1.19987 -0.796182 0
M  V30 10869 H 1048.97 4.21331 0.0764988 0
M  V30 10870 H 1047.7 3.17611 0.760956 0
M  V30 10871 H 1046.35 3.40469 -1.35927 0
M  V30 10872 H 1046 5.00169 0.532955 0
M  V30 10873 H 1045.7 5.78332 -1.03952 0
M  V30 10874 H 1047.23 6.1038 -0.163899 0
M  V30 10875 H 1048.64 5.26276 -2.27389 0
M  V30 10876 H 1047.04 5.16294 -3.05876 0
M  V30 10877 H 1048.11 3.74949 -3.07476 0
M  V30 10878 N 1049.45 0.880621 1.30701 0
M  V30 10879 C 1050.68 0.511682 2.00473 0
M  V30 10880 C 1051.09 -0.898684 1.6604 0
M  V30 10881 O 1050.45 -1.59035 0.895218 0
M  V30 10882 C 1050.5 0.671723 3.55204 0
M  V30 10883 O 1050.22 2.02656 3.8841 0
M  V30 10884 C 1051.72 0.3052 4.42248 0
M  V30 10885 H 1048.94 0.198231 0.64105 0
M  V30 10886 H 1051.49 1.18472 1.66687 0
M  V30 10887 H 1049.64 0.0461066 3.87373 0
M  V30 10888 H 1050.06 2.04202 4.83117 0
M  V30 10889 H 1051.53 0.468095 5.50012 0
M  V30 10890 H 1052.01 -0.756456 4.32637 0
M  V30 10891 H 1052.61 0.906959 4.15517 0
M  V30 10892 N 1050.93 -1.4397 0.641131 0
M  V30 10893 C 1052.34 -1.85267 0.230838 0
M  V30 10894 C 1052.69 -1.53659 -1.21998 0
M  V30 10895 O 1051.82 -0.979572 -1.92959 0
M  V30 10896 C 1052.41 -3.36284 0.412171 0
M  V30 10897 C 1050.97 -3.76358 0.0563004 0
M  V30 10898 C 1050.12 -2.67768 0.720809 0
M  V30 10899 H 1053.07 -1.34294 0.845624 0
M  V30 10900 H 1053.09 -3.78924 -0.345936 0
M  V30 10901 H 1052.6 -3.59258 1.46818 0
M  V30 10902 H 1050.7 -3.58997 -0.997582 0
M  V30 10903 H 1050.82 -4.76756 0.473335 0
M  V30 10904 H 1049.18 -2.54227 0.155164 0
M  V30 10905 H 1049.96 -2.93573 1.77961 0
M  V30 10906 N 1052.41 -0.382291 -1.52893 0
M  V30 10907 C 1053.36 0.471187 -2.27778 0
M  V30 10908 C 1054.35 1.0691 -1.31402 0
M  V30 10909 O 1055.56 1.01038 -1.48967 0
M  V30 10910 H 1051.93 0.170696 -0.732371 0
M  V30 10911 H 1053.9 -0.181954 -2.97845 0
M  V30 10912 C 1052.65 1.59012 -3.09209 0
M  V30 10913 H 1051.97 1.13935 -3.83222 0
M  V30 10914 H 1053.41 2.16167 -3.64757 0
M  V30 10915 C 1051.87 2.54212 -2.21084 0
M  V30 10916 O 1052.4 3.57447 -1.83288 0
M  V30 10917 N 1050.61 2.23789 -1.85383 0
M  V30 10918 H 1050.16 1.39872 -2.16318 0
M  V30 10919 H 1050.11 2.87737 -1.26708 0
M  V30 10920 N 1053.89 1.57202 -0.111913 0
M  V30 10921 C 1055.13 1.95239 0.548607 0
M  V30 10922 C 1055.46 0.994897 1.6678 0
M  V30 10923 O 1054.74 0.0308603 1.94476 0
M  V30 10924 C 1055.02 3.43271 1.08798 0
M  V30 10925 C 1054.88 4.49792 -0.0273064 0
M  V30 10926 C 1056.19 3.92989 1.98109 0
M  V30 10927 H 1053.31 0.709919 0.197951 0
M  V30 10928 H 1055.96 1.89087 -0.186036 0
M  V30 10929 H 1054.11 3.48644 1.71404 0
M  V30 10930 H 1055.78 4.56521 -0.662302 0
M  V30 10931 H 1054.02 4.28254 -0.691426 0
M  V30 10932 H 1054.69 5.50612 0.391201 0
M  V30 10933 H 1057.17 3.89875 1.45385 0
M  V30 10934 H 1056.04 4.97101 2.32769 0
M  V30 10935 H 1056.3 3.33267 2.90492 0
M  V30 10936 N 1055.36 -0.161842 1.56767 0
M  V30 10937 C 1056.59 -0.892247 1.86672 0
M  V30 10938 C 1057.01 -1.75407 0.69841 0
M  V30 10939 O 1056.36 -1.7945 -0.332251 0
M  V30 10940 C 1056.41 -1.7612 3.15696 0
M  V30 10941 O 1056.14 -0.934131 4.28025 0
M  V30 10942 C 1057.64 -2.60046 3.59014 0
M  V30 10943 H 1054.86 -0.258747 0.619105 0
M  V30 10944 H 1057.4 -0.159089 2.0388 0
M  V30 10945 H 1055.56 -2.44759 3.00286 0
M  V30 10946 H 1055.97 -1.52931 5.01709 0
M  V30 10947 H 1057.44 -3.16618 4.5217 0
M  V30 10948 H 1057.92 -3.35374 2.83586 0
M  V30 10949 H 1058.53 -1.96724 3.77067 0
M  V30 10950 N 1056.84 -1.516 -0.430713 0
M  V30 10951 C 1058.12 -1.55142 -1.19123 0
M  V30 10952 C 1058.5 -0.319596 -2.08667 0
M  V30 10953 O 1057.85 0.694927 -2.17676 0
M  V30 10954 C 1058.06 -2.86891 -1.98732 0
M  V30 10955 C 1059.4 -3.39089 -2.55546 0
M  V30 10956 O 1060.43 -2.88486 -2.08936 0
M  V30 10957 O 1059.29 -4.27401 -3.40574 0
M  V30 10958 H 1056.38 -0.624019 -0.542705 0
M  V30 10959 H 1058.93 -1.63917 -0.439244 0
M  V30 10960 H 1057.7 -3.68002 -1.33005 0
M  V30 10961 H 1057.32 -2.81309 -2.80982 0
M  V30 10962 N 1058.32 0.686584 -1.41858 0
M  V30 10963 C 1059.57 1.44235 -1.40994 0
M  V30 10964 C 1059.88 1.95583 -0.0254979 0
M  V30 10965 O 1061.09 2.71294 0.10576 0
M  V30 10966 C 1059.54 2.6086 -2.47952 0
M  V30 10967 C 1059.15 2.16259 -3.92347 0
M  V30 10968 C 1060.9 3.38441 -2.56237 0
M  V30 10969 C 1058.8 3.29896 -4.90838 0
M  V30 10970 H 1057.73 0.54181 -0.524364 0
M  V30 10971 H 1060.38 0.744486 -1.67719 0
M  V30 10972 H 1058.77 3.32957 -2.14373 0
M  V30 10973 H 1059.94 1.51392 -4.35221 0
M  V30 10974 H 1058.25 1.51648 -3.87804 0
M  V30 10975 H 1060.85 4.23052 -3.27003 0
M  V30 10976 H 1061.19 3.84238 -1.6021 0
M  V30 10977 H 1061.73 2.73406 -2.88953 0
M  V30 10978 H 1058.47 2.89104 -5.88302 0
M  V30 10979 H 1057.99 3.93584 -4.52606 0
M  V30 10980 H 1059.67 3.95541 -5.12012 0
M  V30 10981 N 1059.8 1.27835 0.921735 0
M  V30 10982 C 1061.04 1.14692 1.67253 0
M  V30 10983 C 1061.38 -0.305384 1.91784 0
M  V30 10984 O 1060.65 -1.22286 1.51249 0
M  V30 10985 C 1060.93 1.93743 3.03539 0
M  V30 10986 C 1060.79 3.46991 2.86212 0
M  V30 10987 C 1062.11 1.74658 4.03959 0
M  V30 10988 H 1059.23 0.418021 0.606983 0
M  V30 10989 H 1061.87 1.5706 1.06922 0
M  V30 10990 H 1060.02 1.57738 3.55037 0
M  V30 10991 H 1061.69 3.92858 2.41785 0
M  V30 10992 H 1059.93 3.73029 2.21432 0
M  V30 10993 H 1060.6 3.97551 3.82958 0
M  V30 10994 H 1063.08 2.06063 3.61493 0
M  V30 10995 H 1061.96 2.32353 4.97296 0
M  V30 10996 H 1062.22 0.696019 4.36587 0
M  V30 10997 N 1061.28 -1.12907 1.09954 0
M  V30 10998 C 1062.5 -1.88679 0.861099 0
M  V30 10999 C 1062.93 -1.78853 -0.582499 0
M  V30 11000 O 1062.28 -1.13992 -1.4098 0
M  V30 11001 C 1062.33 -3.36047 1.30785 0
M  V30 11002 O 1061.44 -4.09716 0.469728 0
M  V30 11003 H 1060.78 -0.586447 0.31141 0
M  V30 11004 H 1063.31 -1.42818 1.46507 0
M  V30 11005 H 1063.32 -3.86882 1.29562 0
M  V30 11006 H 1061.99 -3.42516 2.35914 0
M  V30 11007 H 1060.57 -3.6887 0.54674 0
M  V30 11008 N 1062.75 -0.88754 -1.30232 0
M  V30 11009 C 1064 -0.503322 -1.95319 0
M  V30 11010 C 1064.32 0.952817 -1.70824 0
M  V30 11011 O 1065.52 1.444 -2.29915 0
M  V30 11012 C 1063.98 -0.849216 -3.49738 0
M  V30 11013 C 1063.59 -2.3233 -3.83049 0
M  V30 11014 C 1065.33 -0.53432 -4.21124 0
M  V30 11015 C 1063.24 -2.61069 -5.30657 0
M  V30 11016 H 1062.17 -0.1845 -0.731078 0
M  V30 11017 H 1064.82 -1.08287 -1.48143 0
M  V30 11018 H 1063.2 -0.198729 -3.95501 0
M  V30 11019 H 1064.37 -3.01832 -3.48187 0
M  V30 11020 H 1062.69 -2.60599 -3.24773 0
M  V30 11021 H 1065.29 -0.726039 -5.29748 0
M  V30 11022 H 1065.63 0.526434 -4.12958 0
M  V30 11023 H 1066.16 -1.14211 -3.81052 0
M  V30 11024 H 1062.9 -3.65895 -5.43876 0
M  V30 11025 H 1062.42 -1.96179 -5.6681 0
M  V30 11026 H 1064.1 -2.46703 -5.98119 0
M  V30 11027 N 1064.23 1.43628 -0.648757 0
M  V30 11028 C 1065.2 2.29172 0.0360713 0
M  V30 11029 C 1066.2 1.41974 0.754976 0
M  V30 11030 O 1067.39 1.63654 0.5969 0
M  V30 11031 C 1064.52 3.23942 1.0618 0
M  V30 11032 H 1065.71 2.91214 -0.716544 0
M  V30 11033 H 1063.26 1.50833 -0.409759 0
M  V30 11034 H 1064 2.66786 1.8438 0
M  V30 11035 H 1063.78 3.88223 0.550016 0
M  V30 11036 H 1065.27 3.8816 1.54019 0
M  V30 11037 N 1065.71 0.390394 1.52688 0
M  V30 11038 C 1067.13 0.0404028 1.59549 0
M  V30 11039 C 1067.33 -1.44503 1.40432 0
M  V30 11040 O 1066.38 -2.20968 1.22187 0
M  V30 11041 C 1067.7 0.518561 2.96195 0
M  V30 11042 C 1069.24 0.474913 3.09376 0
M  V30 11043 C 1069.72 0.929278 4.48473 0
M  V30 11044 N 1071.21 0.885335 4.5466 0
M  V30 11045 C 1071.94 1.2083 5.60524 0
M  V30 11046 N 1071.44 1.6018 6.74028 0
M  V30 11047 N 1073.23 1.12949 5.50635 0
M  V30 11048 H 1065.38 1.35743 1.63363 0
M  V30 11049 H 1067.65 0.556453 0.767505 0
M  V30 11050 H 1067.35 1.55606 3.15404 0
M  V30 11051 H 1067.23 -0.081779 3.77111 0
M  V30 11052 H 1069.61 -0.553503 2.89863 0
M  V30 11053 H 1069.7 1.11107 2.3041 0
M  V30 11054 H 1069.34 1.95593 4.68728 0
M  V30 11055 H 1069.27 0.270121 5.25907 0
M  V30 11056 H 1071.76 0.595787 3.73174 0
M  V30 11057 H 1072.07 1.83184 7.50775 0
M  V30 11058 H 1070.42 1.64067 6.75357 0
M  V30 11059 H 1073.61 0.821074 4.60843 0
M  V30 11060 H 1073.78 1.3845 6.33037 0
M  V30 11061 N 1067.19 -1.57141 0.120249 0
M  V30 11062 C 1068.15 -2.14213 -0.815185 0
M  V30 11063 C 1069.15 -1.07731 -1.19376 0
M  V30 11064 O 1070.34 -1.33502 -1.11906 0
M  V30 11065 C 1067.47 -2.68339 -2.10255 0
M  V30 11066 H 1068.67 -2.98197 -0.319166 0
M  V30 11067 H 1066.22 -1.55767 -0.128997 0
M  V30 11068 H 1066.95 -1.87946 -2.64285 0
M  V30 11069 H 1066.74 -3.46216 -1.84057 0
M  V30 11070 H 1068.23 -3.124 -2.77121 0
M  V30 11071 N 1068.67 0.153526 -1.5685 0
M  V30 11072 C 1069.63 1.17362 -1.96873 0
M  V30 11073 C 1070.63 1.36219 -0.854456 0
M  V30 11074 O 1071.82 1.33322 -1.1212 0
M  V30 11075 C 1068.95 2.53523 -2.27901 0
M  V30 11076 H 1070.14 0.830432 -2.88173 0
M  V30 11077 H 1067.7 0.396633 -1.51184 0
M  V30 11078 H 1068.43 2.92824 -1.39371 0
M  V30 11079 H 1068.22 2.41198 -3.09137 0
M  V30 11080 H 1069.71 3.27006 -2.59725 0
M  V30 11081 N 1070.14 1.51827 0.422667 0
M  V30 11082 C 1071.09 1.74198 1.51406 0
M  V30 11083 C 1072.06 0.584013 1.55494 0
M  V30 11084 O 1073.25 0.820079 1.72277 0
M  V30 11085 C 1070.39 1.88627 2.88988 0
M  V30 11086 C 1069.5 3.16233 2.94314 0
M  V30 11087 C 1068.63 3.21172 4.2311 0
M  V30 11088 C 1067.67 4.43033 4.2236 0
M  V30 11089 N 1066.81 4.4544 5.42704 0
M  V30 11090 H 1071.65 2.67352 1.31632 0
M  V30 11091 H 1069.19 1.32487 0.63919 0
M  V30 11092 H 1071.15 1.94976 3.68837 0
M  V30 11093 H 1069.78 0.988673 3.07287 0
M  V30 11094 H 1068.83 3.19123 2.07039 0
M  V30 11095 H 1070.14 4.06104 2.89623 0
M  V30 11096 H 1069.29 3.26517 5.11343 0
M  V30 11097 H 1068.03 2.29216 4.30478 0
M  V30 11098 H 1067.04 4.37849 3.32518 0
M  V30 11099 H 1068.26 5.3627 4.16643 0
M  V30 11100 H 1066.21 3.56361 5.50766 0
M  V30 11101 H 1066.13 5.29138 5.39953 0
M  V30 11102 H 1067.39 4.54997 6.32928 0
M  V30 11103 N 1071.62 -0.679052 1.4222 0
M  V30 11104 C 1072.53 -1.82221 1.47759 0
M  V30 11105 C 1073.55 -1.70092 0.3667 0
M  V30 11106 O 1074.72 -1.91718 0.616957 0
M  V30 11107 C 1071.79 -3.18332 1.37351 0
M  V30 11108 C 1070.85 -3.42449 2.58896 0
M  V30 11109 C 1070.08 -4.72067 2.48976 0
M  V30 11110 O 1070.31 -5.49683 1.5233 0
M  V30 11111 O 1069.24 -4.97333 3.39033 0
M  V30 11112 H 1073.07 -1.80504 2.44238 0
M  V30 11113 H 1070.65 -0.834251 1.23938 0
M  V30 11114 H 1072.53 -3.99563 1.33893 0
M  V30 11115 H 1071.21 -3.20696 0.439965 0
M  V30 11116 H 1070.12 -2.61083 2.6793 0
M  V30 11117 H 1071.45 -3.44912 3.51136 0
M  V30 11118 N 1073.1 -1.28322 -0.914942 0
M  V30 11119 C 1074.35 -1.15179 -1.66067 0
M  V30 11120 C 1074.67 0.300279 -1.92674 0
M  V30 11121 O 1073.94 1.20821 -1.54205 0
M  V30 11122 H 1072.52 -0.423264 -0.615513 0
M  V30 11123 H 1075.18 -1.61034 -1.09791 0
M  V30 11124 H 1074.28 -1.69048 -2.62353 0
M  V30 11125 N 1074.58 1.12322 -1.10551 0
M  V30 11126 C 1075.83 1.83495 -0.846998 0
M  V30 11127 C 1076.15 1.8457 0.629205 0
M  V30 11128 O 1075.42 1.30968 1.45686 0
M  V30 11129 H 1074 0.679479 -0.310351 0
M  V30 11130 H 1076.66 1.36004 -1.39602 0
M  V30 11131 H 1075.76 2.87651 -1.21092 0
M  V30 11132 N 1076.06 0.894434 1.2976 0
M  V30 11133 C 1077.02 0.373094 2.26143 0
M  V30 11134 C 1078.02 -0.489756 1.5316 0
M  V30 11135 O 1079.21 -0.29556 1.71674 0
M  V30 11136 C 1076.34 -0.467234 3.37683 0
M  V30 11137 H 1077.53 1.22427 2.73773 0
M  V30 11138 H 1075.09 0.672112 1.41111 0
M  V30 11139 H 1075.82 -1.33861 2.95384 0
M  V30 11140 H 1075.61 0.150954 3.91809 0
M  V30 11141 H 1077.1 -0.823469 4.094 0
M  V30 11142 N 1077.53 -1.43282 0.656365 0
M  V30 11143 C 1078.48 -2.32556 -0.0452037 0
M  V30 11144 C 1079.48 -1.48789 -0.80982 0
M  V30 11145 O 1080.68 -1.64979 -0.719865 0
M  V30 11146 H 1077.06 -0.751258 -0.0334043 0
M  V30 11147 H 1079.03 -2.89448 0.725423 0
M  V30 11148 C 1077.78 -3.33138 -0.995706 0
M  V30 11149 H 1077.1 -3.97622 -0.416774 0
M  V30 11150 H 1078.54 -3.98231 -1.45562 0
M  V30 11151 C 1077 -2.63978 -2.09325 0
M  V30 11152 O 1077.53 -2.45769 -3.17743 0
M  V30 11153 N 1075.74 -2.23301 -1.8597 0
M  V30 11154 H 1075.28 -2.38312 -0.97802 0
M  V30 11155 H 1075.24 -1.77358 -2.59599 0
M  V30 11156 N 1079.01 -0.398486 -1.52479 0
M  V30 11157 C 1080.26 0.180394 -2.01293 0
M  V30 11158 C 1080.58 1.46548 -1.28641 0
M  V30 11159 O 1079.85 1.91579 -0.409173 0
M  V30 11160 H 1078.43 0.0696528 -0.743746 0
M  V30 11161 H 1081.09 -0.532285 -1.87491 0
M  V30 11162 H 1080.19 0.38409 -3.09728 0
M  V30 11163 N 1080.49 1.57075 -0.12858 0
M  V30 11164 C 1081.74 1.9581 0.527868 0
M  V30 11165 C 1082.07 1.01253 1.65715 0
M  V30 11166 O 1081.35 0.0514853 1.94432 0
M  V30 11167 C 1081.63 3.44406 1.05151 0
M  V30 11168 C 1081.48 4.49737 -0.0750113 0
M  V30 11169 C 1082.8 3.95069 1.9393 0
M  V30 11170 H 1079.92 0.711978 0.19041 0
M  V30 11171 H 1082.56 1.88879 -0.206081 0
M  V30 11172 H 1080.71 3.50443 1.67697 0
M  V30 11173 H 1082.38 4.55793 -0.710685 0
M  V30 11174 H 1080.63 4.27497 -0.736809 0
M  V30 11175 H 1081.3 5.50996 0.332779 0
M  V30 11176 H 1083.77 3.91395 1.41241 0
M  V30 11177 H 1082.65 4.99542 2.27484 0
M  V30 11178 H 1082.91 3.36329 2.86941 0
M  V30 11179 N 1081.97 -0.145205 1.5693 0
M  V30 11180 C 1083.2 -0.872398 1.87608 0
M  V30 11181 C 1083.61 -1.74657 0.716975 0
M  V30 11182 O 1082.97 -1.79792 -0.3132 0
M  V30 11183 C 1083.02 -1.72762 3.17546 0
M  V30 11184 O 1082.74 -0.888681 4.28992 0
M  V30 11185 C 1084.24 -2.56224 3.61751 0
M  V30 11186 H 1081.46 -0.252166 0.621815 0
M  V30 11187 H 1084.01 -0.137456 2.04038 0
M  V30 11188 H 1082.16 -2.41561 3.02865 0
M  V30 11189 H 1082.58 -1.47601 5.03303 0
M  V30 11190 H 1084.05 -3.11804 4.55502 0
M  V30 11191 H 1084.53 -3.32347 2.87127 0
M  V30 11192 H 1085.13 -1.92714 3.79133 0
M  V30 11193 N 1083.45 -1.52049 -0.414609 0
M  V30 11194 C 1084.41 -1.74382 -1.4874 0
M  V30 11195 C 1085.41 -0.613701 -1.48628 0
M  V30 11196 O 1086.6 -0.88152 -1.50249 0
M  V30 11197 C 1083.73 -1.82116 -2.88178 0
M  V30 11198 H 1084.93 -2.70147 -1.30233 0
M  V30 11199 H 1082.48 -1.42382 -0.644756 0
M  V30 11200 H 1083.21 -0.882457 -3.12063 0
M  V30 11201 H 1083 -2.64268 -2.89663 0
M  V30 11202 H 1084.49 -2.01155 -3.65959 0
M  V30 11203 N 1084.93 0.6715 -1.42579 0
M  V30 11204 C 1086.15 1.45972 -1.46628 0
M  V30 11205 C 1086.57 1.88636 -0.0785986 0
M  V30 11206 O 1085.93 1.58345 0.907372 0
M  V30 11207 C 1085.98 2.70668 -2.39627 0
M  V30 11208 O 1085.7 2.29793 -3.72997 0
M  V30 11209 C 1087.2 3.64201 -2.52731 0
M  V30 11210 H 1084.42 0.449044 -0.498598 0
M  V30 11211 H 1086.96 0.824811 -1.87129 0
M  V30 11212 H 1085.12 3.3034 -2.02371 0
M  V30 11213 H 1085.53 3.10341 -4.22834 0
M  V30 11214 H 1087.01 4.48412 -3.21918 0
M  V30 11215 H 1087.48 4.10323 -1.56626 0
M  V30 11216 H 1088.09 3.1042 -2.90722 0
M  V30 11217 N 1086.4 1.28806 0.908124 0
M  V30 11218 C 1087.35 1.13083 2.03261 0
M  V30 11219 C 1088.35 0.0486094 1.6933 0
M  V30 11220 O 1089.55 0.207794 1.78797 0
M  V30 11221 H 1085.93 0.349057 0.666081 0
M  V30 11222 H 1087.9 2.08304 2.13663 0
M  V30 11223 C 1086.65 0.815339 3.38005 0
M  V30 11224 H 1085.97 1.64007 3.64612 0
M  V30 11225 H 1087.41 0.745311 4.17398 0
M  V30 11226 C 1085.87 -0.48113 3.33447 0
M  V30 11227 O 1086.4 -1.50974 3.7225 0
M  V30 11228 N 1084.6 -0.483912 2.86543 0
M  V30 11229 H 1084.15 0.353593 2.55162 0
M  V30 11230 H 1084.11 -1.35138 2.83875 0
M  V30 11231 N 1087.88 -1.11734 1.11145 0
M  V30 11232 C 1089.11 -1.87215 0.880811 0
M  V30 11233 C 1089.52 -1.80016 -0.569195 0
M  V30 11234 O 1088.88 -1.17926 -1.39283 0
M  V30 11235 C 1088.93 -3.36146 1.32998 0
M  V30 11236 O 1088.65 -3.43187 2.72313 0
M  V30 11237 C 1090.15 -4.28542 1.1343 0
M  V30 11238 H 1087.37 -0.592123 0.315645 0
M  V30 11239 H 1089.92 -1.41335 1.478 0
M  V30 11240 H 1088.07 -3.79542 0.776308 0
M  V30 11241 H 1088.49 -4.359 2.91705 0
M  V30 11242 H 1089.96 -5.31295 1.49764 0
M  V30 11243 H 1090.44 -4.39138 0.0735859 0
M  V30 11244 H 1091.04 -3.90935 1.67481 0
M  V30 11245 N 1089.36 -0.901303 -1.29284 0
M  V30 11246 C 1090.61 -0.528826 -1.95784 0
M  V30 11247 C 1090.94 0.922833 -1.70873 0
M  V30 11248 O 1090.21 1.65448 -1.0226 0
M  V30 11249 C 1090.5 -0.823793 -3.50551 0
M  V30 11250 C 1090.35 -2.32727 -3.84913 0
M  V30 11251 C 1091.67 -0.311382 -4.38997 0
M  V30 11252 H 1088.79 -0.193604 -0.711116 0
M  V30 11253 H 1091.43 -1.12828 -1.52872 0
M  V30 11254 H 1089.58 -0.313612 -3.87232 0
M  V30 11255 H 1091.25 -2.90712 -3.58168 0
M  V30 11256 H 1089.49 -2.78735 -3.32399 0
M  V30 11257 H 1090.17 -2.48423 -4.9294 0
M  V30 11258 H 1092.64 -0.748265 -4.09317 0
M  V30 11259 H 1091.52 -0.546957 -5.46168 0
M  V30 11260 H 1091.78 0.787959 -4.35021 0
M  V30 11261 N 1090.84 1.42931 -0.663954 0
M  V30 11262 C 1092.06 2.06544 -0.188201 0
M  V30 11263 C 1092.49 1.495 1.14155 0
M  V30 11264 O 1091.85 0.609164 1.7076 0
M  V30 11265 C 1091.89 3.60393 -0.122105 0
M  V30 11266 O 1091 4.02176 0.91258 0
M  V30 11267 H 1090.34 0.656458 -0.0997967 0
M  V30 11268 H 1092.87 1.83253 -0.909909 0
M  V30 11269 H 1092.88 4.07959 0.0576568 0
M  V30 11270 H 1091.55 4.01287 -1.09276 0
M  V30 11271 H 1090.13 3.6618 0.704738 0
M  V30 11272 N 1092.32 0.406567 1.52266 0
M  V30 11273 C 1093.56 -0.169717 2.01386 0
M  V30 11274 C 1093.88 -1.45864 1.29417 0
M  V30 11275 O 1093.15 -1.9136 0.419327 0
M  V30 11276 H 1091.73 -0.0657075 0.744105 0
M  V30 11277 H 1094.4 0.542221 1.87206 0
M  V30 11278 H 1093.49 -0.367659 3.09927 0
M  V30 11279 N 1093.79 -1.57004 0.136909 0
M  V30 11280 C 1094.72 -2.19262 -0.802902 0
M  V30 11281 C 1095.71 -1.13786 -1.26439 0
M  V30 11282 O 1096.89 -1.42091 -1.32377 0
M  V30 11283 C 1094.02 -2.80624 -2.04615 0
M  V30 11284 C 1092.97 -3.91839 -1.72181 0
M  V30 11285 C 1092.3 -4.4009 -3.03686 0
M  V30 11286 C 1093.6 -5.13095 -0.976249 0
M  V30 11287 H 1095.29 -2.98049 -0.28406 0
M  V30 11288 H 1092.84 -1.43364 -0.135189 0
M  V30 11289 H 1094.79 -3.22842 -2.70834 0
M  V30 11290 H 1093.52 -1.99153 -2.58855 0
M  V30 11291 H 1092.18 -3.50224 -1.08344 0
M  V30 11292 H 1091.82 -3.55454 -3.55896 0
M  V30 11293 H 1091.52 -5.15098 -2.82751 0
M  V30 11294 H 1093.05 -4.84971 -3.70993 0
M  V30 11295 H 1094.46 -5.5222 -1.54033 0
M  V30 11296 H 1092.86 -5.93801 -0.867214 0
M  V30 11297 H 1093.93 -4.84888 0.0338488 0
M  V30 11298 N 1095.27 0.136881 -1.57004 0
M  V30 11299 C 1096.21 1.19853 -1.94192 0
M  V30 11300 C 1097.18 1.4104 -0.809103 0
M  V30 11301 O 1098.37 1.55487 -1.06565 0
M  V30 11302 C 1095.49 2.55565 -2.22271 0
M  V30 11303 C 1094.54 2.50913 -3.44884 0
M  V30 11304 S 1095.37 1.96619 -4.98098 0
M  V30 11305 C 1096.53 3.34039 -5.2931 0
M  V30 11306 H 1096.76 0.881316 -2.83937 0
M  V30 11307 H 1094.3 0.342915 -1.50544 0
M  V30 11308 H 1096.25 3.33659 -2.39127 0
M  V30 11309 H 1094.91 2.84472 -1.33172 0
M  V30 11310 H 1094.11 3.50839 -3.6184 0
M  V30 11311 H 1093.71 1.80932 -3.27322 0
M  V30 11312 H 1096 4.30189 -5.23397 0
M  V30 11313 H 1096.94 3.21927 -6.30689 0
M  V30 11314 H 1097.35 3.31642 -4.56808 0
M  V30 11315 N 1096.75 1.52266 0.40654 0
M  V30 11316 C 1098 1.66123 1.15097 0
M  V30 11317 C 1098.32 0.394836 1.90961 0
M  V30 11318 O 1097.59 -0.590349 1.86793 0
M  V30 11319 H 1096.17 0.612317 0.427875 0
M  V30 11320 H 1098.83 1.89318 0.463106 0
M  V30 11321 H 1097.93 2.50351 1.86361 0
M  V30 11322 N 1098.23 -0.663929 1.42933 0
M  V30 11323 C 1099.16 -1.78899 1.50058 0
M  V30 11324 C 1100.14 -1.66329 0.356164 0
M  V30 11325 O 1101.32 -1.85587 0.571944 0
M  V30 11326 C 1098.45 -3.17265 1.41281 0
M  V30 11327 C 1097.41 -3.44584 2.53861 0
M  V30 11328 C 1096.73 -4.82638 2.3014 0
M  V30 11329 C 1098.03 -3.40394 3.96143 0
M  V30 11330 H 1099.73 -1.73194 2.44222 0
M  V30 11331 H 1097.27 -0.83182 1.17545 0
M  V30 11332 H 1099.23 -3.95715 1.44872 0
M  V30 11333 H 1097.95 -3.23675 0.43616 0
M  V30 11334 H 1096.61 -2.685 2.49606 0
M  V30 11335 H 1096.26 -4.85711 1.30743 0
M  V30 11336 H 1095.96 -5.01879 3.056 0
M  V30 11337 H 1097.48 -5.63359 2.35497 0
M  V30 11338 H 1098.9 -4.08796 4.01943 0
M  V30 11339 H 1097.29 -3.7117 4.71543 0
M  V30 11340 H 1098.36 -2.38767 4.22041 0
M  V30 11341 N 1099.71 -1.29285 -0.901281 0
M  V30 11342 C 1100.65 -1.1428 -2.00521 0
M  V30 11343 C 1101.62 -0.0365428 -1.6606 0
M  V30 11344 O 1102.81 -0.203771 -1.89709 0
M  V30 11345 C 1099.95 -0.823671 -3.35126 0
M  V30 11346 C 1099.06 -2.01021 -3.8238 0
M  V30 11347 C 1098.2 -1.6306 -5.05554 0
M  V30 11348 C 1097.24 -2.78304 -5.45173 0
M  V30 11349 N 1096.37 -2.4075 -6.59533 0
M  V30 11350 H 1101.21 -2.08729 -2.12688 0
M  V30 11351 H 1098.75 -1.0387 -1.04161 0
M  V30 11352 H 1100.71 -0.61934 -4.12577 0
M  V30 11353 H 1099.34 0.0839113 -3.22691 0
M  V30 11354 H 1098.39 -2.32629 -3.00978 0
M  V30 11355 H 1099.7 -2.8738 -4.07694 0
M  V30 11356 H 1098.86 -1.38906 -5.90584 0
M  V30 11357 H 1097.59 -0.738464 -4.82077 0
M  V30 11358 H 1096.6 -3.03142 -4.58678 0
M  V30 11359 H 1097.82 -3.68179 -5.70632 0
M  V30 11360 H 1095.77 -1.54022 -6.37662 0
M  V30 11361 H 1095.69 -3.20643 -6.84634 0
M  V30 11362 H 1096.96 -2.19912 -7.47836 0
M  V30 11363 N 1101.18 1.11143 -1.11736 0
M  V30 11364 C 1102.41 1.87285 -0.891007 0
M  V30 11365 C 1102.83 1.79758 0.553971 0
M  V30 11366 O 1102.19 1.16221 1.39149 0
M  V30 11367 C 1102.24 3.33924 -1.36114 0
M  V30 11368 O 1101.34 4.08917 -0.534851 0
M  V30 11369 H 1100.69 0.581418 -0.320701 0
M  V30 11370 H 1103.22 1.40469 -1.4876 0
M  V30 11371 H 1103.23 3.84772 -1.35701 0
M  V30 11372 H 1101.9 3.38719 -2.41334 0
M  V30 11373 H 1100.48 3.67954 -0.605355 0
M  V30 11374 N 1102.66 0.908147 1.28804 0
M  V30 11375 C 1103.94 0.457561 1.90173 0
M  V30 11376 C 1104.32 -1.06333 1.82364 0
M  V30 11377 O 1103.67 -1.90892 1.25589 0
M  V30 11378 C 1103.88 0.981624 3.34911 0
M  V30 11379 C 1105.23 1.03037 4.11908 0
M  V30 11380 O 1106.25 0.929878 3.43848 0
M  V30 11381 O 1105.11 1.18257 5.33552 0
M  V30 11382 H 1102.2 0.144081 0.814352 0
M  V30 11383 H 1104.75 0.998565 1.37211 0
M  V30 11384 H 1103.52 2.02561 3.34791 0
M  V30 11385 H 1103.14 0.421122 3.95364 0
M  V30 11386 N 1104.14 -1.42577 0.671525 0
M  V30 11387 C 1105.39 -2.01185 0.192051 0
M  V30 11388 C 1105.71 -1.53349 -1.20454 0
M  V30 11389 O 1104.98 -0.753781 -1.80817 0
M  V30 11390 H 1103.56 -0.743898 0.0680106 0
M  V30 11391 H 1106.22 -1.74539 0.8673 0
M  V30 11392 H 1105.32 -3.11516 0.190796 0
M  V30 11393 N 1105.62 -0.414636 -1.52048 0
M  V30 11394 C 1106.85 0.158686 -2.06291 0
M  V30 11395 C 1107.26 1.38397 -1.2842 0
M  V30 11396 O 1106.62 1.79351 -0.337539 0
M  V30 11397 C 1106.67 0.503634 -3.57975 0
M  V30 11398 O 1106.39 -0.672996 -4.329 0
M  V30 11399 C 1107.89 1.13009 -4.28653 0
M  V30 11400 H 1105.11 0.0179622 -0.67076 0
M  V30 11401 H 1107.66 -0.587177 -1.95889 0
M  V30 11402 H 1105.81 1.19939 -3.68366 0
M  V30 11403 H 1106.22 -0.383735 -5.23094 0
M  V30 11404 H 1107.7 1.32162 -5.35945 0
M  V30 11405 H 1108.18 2.10476 -3.85482 0
M  V30 11406 H 1108.78 0.474379 -4.22646 0
M  V30 11407 N 1107.1 1.56929 -0.145233 0
M  V30 11408 C 1108.51 1.82877 0.375884 0
M  V30 11409 C 1108.86 1.06384 1.64854 0
M  V30 11410 O 1107.98 0.30857 2.14189 0
M  V30 11411 C 1108.58 3.31725 0.688744 0
M  V30 11412 C 1107.14 3.58261 1.15439 0
M  V30 11413 C 1106.28 2.76737 0.176565 0
M  V30 11414 H 1109.24 1.54328 -0.36996 0
M  V30 11415 H 1109.26 3.47784 1.54359 0
M  V30 11416 H 1108.77 3.87371 -0.237694 0
M  V30 11417 H 1106.87 3.08 2.09683 0
M  V30 11418 H 1106.98 4.66732 1.08158 0
M  V30 11419 H 1105.35 2.45761 0.668843 0
M  V30 11420 H 1106.13 3.35154 -0.743432 0
M  V30 11421 N 1108.58 -0.128553 1.57075 0
M  V30 11422 C 1109.82 -0.834322 1.85501 0
M  V30 11423 C 1110.18 -1.77943 0.731725 0
M  V30 11424 O 1109.47 -1.89702 -0.269003 0
M  V30 11425 C 1109.66 -1.63027 3.18052 0
M  V30 11426 C 1109.49 -0.763737 4.43167 0
M  V30 11427 C 1108.26 -0.42224 5.03533 0
M  V30 11428 C 1110.46 -0.0856773 5.14229 0
M  V30 11429 N 1108.44 0.455954 6.12204 0
M  V30 11430 C 1109.81 0.651902 6.16563 0
M  V30 11431 C 1111.87 -0.00826404 4.97899 0
M  V30 11432 C 1110.57 1.45961 7.04335 0
M  V30 11433 C 1112.6 0.786239 5.8615 0
M  V30 11434 C 1111.96 1.51204 6.8798 0
M  V30 11435 H 1108.06 -0.282535 0.729176 0
M  V30 11436 H 1110.64 -0.0985924 1.9445 0
M  V30 11437 H 1108.81 -2.3371 3.10216 0
M  V30 11438 H 1110.55 -2.28063 3.34319 0
M  V30 11439 H 1107.3 -0.76229 4.67425 0
M  V30 11440 H 1107.72 0.886619 6.71169 0
M  V30 11441 H 1112.37 -0.555051 4.19141 0
M  V30 11442 H 1110.08 2.01759 7.82508 0
M  V30 11443 H 1113.67 0.848372 5.75581 0
M  V30 11444 H 1112.55 2.11694 7.55086 0
M  V30 11445 N 1110.05 -1.5248 -0.398459 0
M  V30 11446 C 1111.46 -1.59107 -0.976817 0
M  V30 11447 C 1111.82 -0.438104 -1.91246 0
M  V30 11448 O 1110.94 0.440111 -2.11877 0
M  V30 11449 C 1111.54 -2.88373 -1.77838 0
M  V30 11450 C 1110.09 -2.97445 -2.30659 0
M  V30 11451 C 1109.24 -2.5414 -1.10942 0
M  V30 11452 H 1112.19 -1.57695 -0.178324 0
M  V30 11453 H 1112.21 -2.74327 -2.63676 0
M  V30 11454 H 1111.73 -3.72269 -1.09714 0
M  V30 11455 H 1109.83 -2.18066 -3.02123 0
M  V30 11456 H 1109.94 -4.019 -2.60794 0
M  V30 11457 H 1108.3 -2.08237 -1.46661 0
M  V30 11458 H 1109.09 -3.40421 -0.443684 0
M  V30 11459 N 1111.53 0.65634 -1.43283 0
M  V30 11460 C 1112.49 1.75117 -1.47874 0
M  V30 11461 C 1113.49 1.56629 -0.363846 0
M  V30 11462 O 1114.68 1.62584 -0.625464 0
M  V30 11463 C 1111.82 3.13957 -1.32831 0
M  V30 11464 H 1113.01 1.72429 -2.45374 0
M  V30 11465 H 1110.56 0.867704 -1.30002 0
M  V30 11466 H 1111.3 3.22259 -0.36326 0
M  V30 11467 H 1111.08 3.28781 -2.13649 0
M  V30 11468 H 1112.57 3.93799 -1.38969 0
M  V30 11469 N 1113.01 1.29761 0.894412 0
M  V30 11470 C 1114.26 1.18214 1.64782 0
M  V30 11471 C 1114.59 -0.264635 1.92388 0
M  V30 11472 O 1113.86 -1.19051 1.53809 0
M  V30 11473 C 1114.15 2.00138 2.99361 0
M  V30 11474 C 1114 3.52984 2.78787 0
M  V30 11475 C 1115.32 1.83187 4.00163 0
M  V30 11476 H 1112.44 0.430802 0.597979 0
M  V30 11477 H 1115.08 1.59292 1.03566 0
M  V30 11478 H 1113.23 1.65233 3.51611 0
M  V30 11479 H 1114.9 3.97898 2.33398 0
M  V30 11480 H 1113.14 3.77642 2.13469 0
M  V30 11481 H 1113.82 4.05585 3.7444 0
M  V30 11482 H 1116.29 2.13684 3.57041 0
M  V30 11483 H 1115.17 2.42849 4.92255 0
M  V30 11484 H 1115.43 0.788469 4.35012 0
M  V30 11485 N 1114.49 -1.10549 1.12324 0
M  V30 11486 C 1115.74 -1.82124 0.876083 0
M  V30 11487 C 1116.06 -1.85547 -0.599761 0
M  V30 11488 O 1115.33 -1.33269 -1.43584 0
M  V30 11489 H 1113.91 -0.674455 0.321122 0
M  V30 11490 H 1116.57 -1.33766 1.41748 0
M  V30 11491 H 1115.66 -2.85688 1.25653 0
M  V30 11492 N 1115.97 -0.914965 -1.28321 0
M  V30 11493 C 1117.21 -0.544639 -1.94208 0
M  V30 11494 C 1117.53 0.916368 -1.72806 0
M  V30 11495 O 1118.73 1.39491 -2.32926 0
M  V30 11496 C 1117.19 -0.923209 -3.47858 0
M  V30 11497 C 1116.8 -2.40403 -3.78035 0
M  V30 11498 C 1118.54 -0.623526 -4.19896 0
M  V30 11499 C 1116.45 -2.72266 -5.25 0
M  V30 11500 H 1115.38 -0.199966 -0.727 0
M  V30 11501 H 1118.03 -1.11405 -1.45812 0
M  V30 11502 H 1116.41 -0.282576 -3.94991 0
M  V30 11503 H 1117.59 -3.09149 -3.41706 0
M  V30 11504 H 1115.9 -2.67429 -3.19172 0
M  V30 11505 H 1118.5 -0.838243 -5.28089 0
M  V30 11506 H 1118.84 0.438721 -4.13982 0
M  V30 11507 H 1119.37 -1.22268 -3.78544 0
M  V30 11508 H 1116.11 -3.77349 -5.35993 0
M  V30 11509 H 1115.63 -2.08157 -5.62522 0
M  V30 11510 H 1117.31 -2.59334 -5.92752 0
M  V30 11511 N 1117.44 1.42219 -0.679077 0
M  V30 11512 C 1118.41 2.29197 -0.0125475 0
M  V30 11513 C 1119.41 1.43544 0.724691 0
M  V30 11514 O 1120.6 1.64884 0.562052 0
M  V30 11515 C 1117.73 3.26122 0.992846 0
M  V30 11516 H 1118.92 2.89629 -0.778154 0
M  V30 11517 H 1116.47 1.4993 -0.44166 0
M  V30 11518 H 1117.21 2.70637 1.78679 0
M  V30 11519 H 1116.99 3.89302 0.467544 0
M  V30 11520 H 1118.48 3.91339 1.45751 0
M  V30 11521 N 1118.92 0.422693 1.51826 0
M  V30 11522 C 1119.87 -0.396088 2.27376 0
M  V30 11523 C 1120.84 -1.02946 1.30351 0
M  V30 11524 O 1122.02 -1.05116 1.59233 0
M  V30 11525 C 1119.16 -1.49942 3.10824 0
M  V30 11526 C 1118.28 -0.885623 4.22825 0
M  V30 11527 C 1117.41 -1.96278 4.93608 0
M  V30 11528 C 1116.45 -1.32664 5.97551 0
M  V30 11529 N 1115.59 -2.34452 6.61798 0
M  V30 11530 H 1120.43 0.254571 2.96911 0
M  V30 11531 H 1117.96 0.137383 1.46457 0
M  V30 11532 H 1119.92 -2.15023 3.57521 0
M  V30 11533 H 1118.55 -2.11991 2.43433 0
M  V30 11534 H 1117.6 -0.123491 3.80199 0
M  V30 11535 H 1118.92 -0.381057 4.97342 0
M  V30 11536 H 1118.07 -2.69055 5.43778 0
M  V30 11537 H 1116.81 -2.50103 4.18688 0
M  V30 11538 H 1115.81 -0.584262 5.46687 0
M  V30 11539 H 1117.04 -0.7959 6.7442 0
M  V30 11540 H 1114.99 -2.87385 5.897 0
M  V30 11541 H 1114.9 -1.88845 7.32034 0
M  V30 11542 H 1116.17 -3.06757 7.16603 0
M  V30 11543 N 1120.4 -1.5685 0.153553 0
M  V30 11544 C 1121.82 -1.58306 -0.202801 0
M  V30 11545 C 1122.02 -1.16813 -1.64186 0
M  V30 11546 O 1121.07 -0.871468 -2.36985 0
M  V30 11547 C 1122.38 -3.00636 0.0619012 0
M  V30 11548 C 1123.93 -3.13 -0.00129219 0
M  V30 11549 C 1124.41 -4.57391 0.236164 0
M  V30 11550 N 1125.9 -4.62837 0.18332 0
M  V30 11551 C 1126.63 -5.72382 0.341471 0
M  V30 11552 N 1126.13 -6.90552 0.557704 0
M  V30 11553 N 1127.92 -5.61409 0.278615 0
M  V30 11554 H 1120.07 -1.82113 1.09309 0
M  V30 11555 H 1122.34 -0.843228 0.433209 0
M  V30 11556 H 1122.04 -3.35406 1.0581 0
M  V30 11557 H 1121.92 -3.71477 -0.654555 0
M  V30 11558 H 1124.3 -2.78068 -0.98805 0
M  V30 11559 H 1124.38 -2.44632 0.747596 0
M  V30 11560 H 1124.03 -4.93029 1.22005 0
M  V30 11561 H 1123.96 -5.23894 -0.533125 0
M  V30 11562 H 1126.45 -3.77894 0.0211138 0
M  V30 11563 H 1126.76 -7.69905 0.66831 0
M  V30 11564 H 1125.11 -6.92456 0.594105 0
M  V30 11565 H 1128.3 -4.6797 0.110401 0
M  V30 11566 H 1128.47 -6.46731 0.4053 0
M  V30 11567 N 1121.88 0.120221 -1.57141 0
M  V30 11568 C 1123.11 0.842441 -1.88972 0
M  V30 11569 C 1123.52 1.73494 -0.744671 0
M  V30 11570 O 1122.88 1.80268 0.284557 0
M  V30 11571 C 1122.93 1.67688 -3.20254 0
M  V30 11572 O 1122.65 0.820319 -4.30351 0
M  V30 11573 C 1124.15 2.50436 -3.65782 0
M  V30 11574 H 1121.37 0.242241 -0.625748 0
M  V30 11575 H 1123.91 0.104978 -2.0423 0
M  V30 11576 H 1122.07 2.36712 -3.0667 0
M  V30 11577 H 1122.48 1.39575 -5.05588 0
M  V30 11578 H 1123.96 3.04518 -4.60405 0
M  V30 11579 H 1124.43 3.27737 -2.92378 0
M  V30 11580 H 1125.04 1.86657 -3.82151 0
M  V30 11581 N 1123.36 1.52689 0.390367 0
M  V30 11582 C 1124.58 1.71541 1.15678 0
M  V30 11583 C 1125 0.433171 1.83764 0
M  V30 11584 O 1124.36 -0.592248 1.72623 0
M  V30 11585 C 1124.41 2.864 2.20584 0
M  V30 11586 O 1124.13 4.0966 1.55274 0
M  V30 11587 C 1125.63 3.1692 3.09962 0
M  V30 11588 H 1122.85 0.574381 0.346883 0
M  V30 11589 H 1125.39 1.99332 0.456851 0
M  V30 11590 H 1123.55 2.61075 2.86214 0
M  V30 11591 H 1123.96 4.73802 2.2497 0
M  V30 11592 H 1125.44 4.00755 3.79604 0
M  V30 11593 H 1125.91 2.31245 3.73393 0
M  V30 11594 H 1126.52 3.4408 2.49979 0
M  V30 11595 N 1124.83 -0.648732 1.43629 0
M  V30 11596 C 1126.06 -1.43412 1.48716 0
M  V30 11597 C 1126.47 -1.88908 0.105051 0
M  V30 11598 O 1125.82 -1.60373 -0.895896 0
M  V30 11599 C 1125.88 -2.69906 2.37468 0
M  V30 11600 C 1125.54 -2.46321 3.84935 0
M  V30 11601 C 1126.54 -2.09259 4.75927 0
M  V30 11602 C 1124.22 -2.60506 4.29467 0
M  V30 11603 C 1126.22 -1.86686 6.09448 0
M  V30 11604 C 1123.9 -2.37548 5.6304 0
M  V30 11605 C 1124.9 -2.00694 6.52848 0
M  V30 11606 O 1124.59 -1.77979 7.83951 0
M  V30 11607 H 1124.32 -0.446883 0.507219 0
M  V30 11608 H 1126.88 -0.802218 1.89086 0
M  V30 11609 H 1125.11 -3.35672 1.91993 0
M  V30 11610 H 1126.8 -3.31867 2.33707 0
M  V30 11611 H 1127.56 -1.97872 4.428 0
M  V30 11612 H 1123.44 -2.88165 3.59836 0
M  V30 11613 H 1126.98 -1.57844 6.79508 0
M  V30 11614 H 1122.88 -2.48539 5.95734 0
M  V30 11615 H 1123.65 -1.92368 7.95573 0
M  V30 11616 N 1126.31 -1.30234 -0.887518 0
M  V30 11617 C 1127.56 -1.18675 -1.63587 0
M  V30 11618 C 1127.88 0.259342 -1.93268 0
M  V30 11619 O 1127.15 1.17523 -1.56733 0
M  V30 11620 H 1125.73 -0.436224 -0.606397 0
M  V30 11621 H 1128.39 -1.63326 -1.06351 0
M  V30 11622 H 1127.49 -1.74575 -2.58708 0
M  V30 11623 N 1127.79 1.09952 -1.12909 0
M  V30 11624 C 1129.04 1.81657 -0.885729 0
M  V30 11625 C 1129.36 1.85863 0.589913 0
M  V30 11626 O 1128.63 1.34028 1.42875 0
M  V30 11627 H 1127.21 0.672743 -0.324694 0
M  V30 11628 H 1129.87 1.33013 -1.42456 0
M  V30 11629 H 1128.97 2.85018 -1.27167 0
M  V30 11630 N 1129.27 0.921757 1.27833 0
M  V30 11631 C 1130.51 0.559906 1.94918 0
M  V30 11632 C 1130.85 -0.895532 1.72319 0
M  V30 11633 O 1130.12 -1.638 1.04879 0
M  V30 11634 C 1130.41 0.879458 3.49196 0
M  V30 11635 C 1130.26 2.38821 3.81162 0
M  V30 11636 C 1131.58 0.381183 4.38446 0
M  V30 11637 H 1128.7 0.204893 0.707946 0
M  V30 11638 H 1131.34 1.15246 1.51058 0
M  V30 11639 H 1129.49 0.375177 3.86684 0
M  V30 11640 H 1131.16 2.96373 3.53498 0
M  V30 11641 H 1129.4 2.83988 3.27923 0
M  V30 11642 H 1130.07 2.56234 4.88926 0
M  V30 11643 H 1132.55 0.813289 4.08075 0
M  V30 11644 H 1131.43 0.633778 5.45229 0
M  V30 11645 H 1131.69 -0.718651 4.3622 0
M  V30 11646 N 1130.75 -1.41857 0.686609 0
M  V30 11647 C 1131.97 -2.06219 0.221037 0
M  V30 11648 C 1132.4 -1.51298 -1.11762 0
M  V30 11649 O 1131.75 -0.636253 -1.69769 0
M  V30 11650 C 1131.8 -3.60153 0.179425 0
M  V30 11651 O 1130.91 -4.03577 -0.848481 0
M  V30 11652 H 1130.25 -0.654787 0.110228 0
M  V30 11653 H 1132.78 -1.81783 0.938948 0
M  V30 11654 H 1132.79 -4.07999 0.00725332 0
M  V30 11655 H 1131.46 -3.99498 1.15647 0
M  V30 11656 H 1130.04 -3.67255 -0.646393 0
M  V30 11657 N 1132.22 -0.430739 -1.51599 0
M  V30 11658 C 1133.47 0.137657 -2.01631 0
M  V30 11659 C 1133.79 1.43787 -1.31721 0
M  V30 11660 O 1133.06 1.90668 -0.449717 0
M  V30 11661 H 1131.64 0.0538611 -0.745056 0
M  V30 11662 H 1134.31 -0.571935 -1.86319 0
M  V30 11663 H 1133.4 0.318305 -3.10473 0
M  V30 11664 N 1133.7 1.56767 -0.161869 0
M  V30 11665 C 1134.93 2.00964 0.492027 0
M  V30 11666 C 1135.35 1.04206 1.57437 0
M  V30 11667 O 1134.7 0.0413998 1.82453 0
M  V30 11668 C 1134.75 3.4502 1.07904 0
M  V30 11669 O 1134.47 4.38082 0.0399085 0
M  V30 11670 C 1135.98 4.04572 1.81209 0
M  V30 11671 H 1133.2 0.658911 0.126797 0
M  V30 11672 H 1135.74 2.0283 -0.260824 0
M  V30 11673 H 1133.89 3.43959 1.78243 0
M  V30 11674 H 1134.31 5.22372 0.471985 0
M  V30 11675 H 1135.78 5.07321 2.17554 0
M  V30 11676 H 1136.26 3.46126 2.70359 0
M  V30 11677 H 1136.87 4.09307 1.15534 0
M  V30 11678 N 1135.18 -0.111886 1.57202 0
M  V30 11679 C 1136.14 -1.12101 1.99915 0
M  V30 11680 C 1137.14 -1.33906 0.890272 0
M  V30 11681 O 1138.33 -1.30303 1.15615 0
M  V30 11682 C 1135.47 -2.47392 2.34543 0
M  V30 11683 H 1136.66 -0.753736 2.90274 0
M  V30 11684 H 1134.21 -0.35641 1.52182 0
M  V30 11685 H 1134.95 -2.89026 1.47086 0
M  V30 11686 H 1134.73 -2.32917 3.15423 0
M  V30 11687 H 1136.22 -3.20004 2.68304 0
M  V30 11688 N 1136.66 -1.52894 -0.382264 0
M  V30 11689 C 1137.91 -1.67489 -1.12385 0
M  V30 11690 C 1138.22 -0.424565 -1.90937 0
M  V30 11691 O 1139.43 -0.450763 -2.67732 0
M  V30 11692 C 1137.88 -2.96019 -2.04697 0
M  V30 11693 C 1137.49 -4.28255 -1.31535 0
M  V30 11694 C 1139.23 -3.19981 -2.78949 0
M  V30 11695 C 1137.14 -5.47887 -2.22652 0
M  V30 11696 H 1136.07 -0.624002 -0.423246 0
M  V30 11697 H 1138.72 -1.79392 -0.386107 0
M  V30 11698 H 1137.1 -2.77878 -2.82134 0
M  V30 11699 H 1138.28 -4.56971 -0.592771 0
M  V30 11700 H 1136.59 -4.10607 -0.692148 0
M  V30 11701 H 1139.19 -4.06541 -3.47316 0
M  V30 11702 H 1139.53 -2.35335 -3.43399 0
M  V30 11703 H 1140.07 -3.38718 -2.08602 0
M  V30 11704 H 1136.81 -6.3496 -1.62806 0
M  V30 11705 H 1136.33 -5.23473 -2.92807 0
M  V30 11706 H 1138 -5.82026 -2.82586 0
M  V30 11707 N 1138.14 0.641106 -1.43971 0
M  V30 11708 C 1139.55 0.958161 -1.27638 0
M  V30 11709 C 1139.75 2.00456 -0.204885 0
M  V30 11710 O 1138.81 2.49106 0.412606 0
M  V30 11711 C 1140.12 1.43091 -2.64472 0
M  V30 11712 C 1141.67 1.54692 -2.72102 0
M  V30 11713 C 1142.15 2.05353 -4.09382 0
M  V30 11714 N 1143.64 2.12638 -4.11509 0
M  V30 11715 C 1144.37 2.52987 -5.14573 0
M  V30 11716 N 1143.87 2.92544 -6.28005 0
M  V30 11717 N 1145.66 2.53033 -5.01927 0
M  V30 11718 H 1137.81 -0.0510973 -2.12339 0
M  V30 11719 H 1140.07 0.039748 -0.947166 0
M  V30 11720 H 1139.78 0.736389 -3.43904 0
M  V30 11721 H 1139.65 2.40375 -2.90688 0
M  V30 11722 H 1142.04 2.23242 -1.92994 0
M  V30 11723 H 1142.12 0.558083 -2.49638 0
M  V30 11724 H 1141.77 1.37401 -4.88962 0
M  V30 11725 H 1141.7 3.0509 -4.29218 0
M  V30 11726 H 1144.19 1.84792 -3.29636 0
M  V30 11727 H 1144.5 3.22116 -7.02468 0
M  V30 11728 H 1142.85 2.90319 -6.31458 0
M  V30 11729 H 1146.04 2.21514 -4.1237 0
M  V30 11730 H 1146.21 2.84155 -5.82375 0
M  V30 11731 N 1139.62 1.30703 0.880598 0
M  V30 11732 C 1141.03 1.17818 1.4483 0
M  V30 11733 C 1141.38 -0.219456 1.94969 0
M  V30 11734 O 1140.5 -1.11646 1.85375 0
M  V30 11735 C 1141.1 2.13275 2.63247 0
M  V30 11736 C 1139.66 2.04356 3.16094 0
M  V30 11737 C 1138.8 2.03108 1.88792 0
M  V30 11738 H 1141.75 1.42909 0.690125 0
M  V30 11739 H 1141.78 1.71615 3.39601 0
M  V30 11740 H 1141.29 3.14988 2.26725 0
M  V30 11741 H 1139.39 1.058 3.57263 0
M  V30 11742 H 1139.5 2.92953 3.79098 0
M  V30 11743 H 1137.87 1.47971 2.07308 0
M  V30 11744 H 1138.65 3.06558 1.54521 0
M  V30 11745 N 1141.09 -1.09351 1.1349 0
M  V30 11746 C 1142.34 -1.80915 0.89177 0
M  V30 11747 C 1142.66 -1.86688 -0.5837 0
M  V30 11748 O 1143.86 -2.54568 -0.943788 0
M  V30 11749 C 1142.32 -3.25009 1.54587 0
M  V30 11750 C 1141.93 -3.27501 3.05691 0
M  V30 11751 C 1143.67 -4.01323 1.38346 0
M  V30 11752 C 1141.58 -4.66123 3.63983 0
M  V30 11753 H 1140.51 -0.677961 0.329978 0
M  V30 11754 H 1143.16 -1.22893 1.3627 0
M  V30 11755 H 1141.54 -3.83098 1.0026 0
M  V30 11756 H 1142.71 -2.79174 3.66604 0
M  V30 11757 H 1141.03 -2.64677 3.21457 0
M  V30 11758 H 1143.63 -5.03739 1.79307 0
M  V30 11759 H 1143.97 -4.15003 0.328404 0
M  V30 11760 H 1144.5 -3.49679 1.89656 0
M  V30 11761 H 1141.24 -4.57646 4.69298 0
M  V30 11762 H 1140.76 -5.14772 3.07848 0
M  V30 11763 H 1142.44 -5.35097 3.63703 0
M  V30 11764 N 1142.57 -0.928524 -1.27343 0
M  V30 11765 C 1143.53 -0.43292 -2.25074 0
M  V30 11766 C 1144.53 0.448976 -1.54405 0
M  V30 11767 O 1145.72 0.249939 -1.72398 0
M  V30 11768 C 1142.86 0.377539 -3.38803 0
M  V30 11769 H 1144.05 -1.29642 -2.70431 0
M  V30 11770 H 1141.6 -0.709289 -1.3928 0
M  V30 11771 H 1142.34 1.25982 -2.98829 0
M  V30 11772 H 1142.12 -0.254782 -3.91271 0
M  V30 11773 H 1143.61 0.714634 -4.1144 0
M  V30 11774 N 1144.05 1.41491 -0.694123 0
M  V30 11775 C 1144.98 2.33462 -0.0422169 0
M  V30 11776 C 1145.96 1.51739 0.76872 0
M  V30 11777 O 1147.15 1.8028 0.721985 0
M  V30 11778 C 1144.28 3.35545 0.895925 0
M  V30 11779 C 1143.23 4.27568 0.192188 0
M  V30 11780 C 1142.56 5.20014 1.24459 0
M  V30 11781 C 1143.86 5.1376 -0.940626 0
M  V30 11782 H 1145.55 2.88225 -0.810363 0
M  V30 11783 H 1143.1 1.38586 -0.39114 0
M  V30 11784 H 1145.05 3.9881 1.36121 0
M  V30 11785 H 1143.77 2.79129 1.69572 0
M  V30 11786 H 1142.43 3.65726 -0.25305 0
M  V30 11787 H 1142.08 4.59913 2.03687 0
M  V30 11788 H 1141.78 5.82417 0.778734 0
M  V30 11789 H 1143.3 5.86155 1.71041 0
M  V30 11790 H 1144.72 5.70601 -0.555692 0
M  V30 11791 H 1143.11 5.85097 -1.33349 0
M  V30 11792 H 1144.18 4.51011 -1.78093 0
M  V30 11793 N 1145.53 0.438773 1.51369 0
M  V30 11794 C 1146.94 0.0911416 1.5934 0
M  V30 11795 C 1147.14 -1.39962 1.44958 0
M  V30 11796 O 1146.2 -2.16968 1.29155 0
M  V30 11797 C 1147.51 0.612531 2.94395 0
M  V30 11798 C 1149.06 0.573098 3.07709 0
M  V30 11799 C 1149.54 1.07149 4.4529 0
M  V30 11800 N 1151.03 1.02953 4.51614 0
M  V30 11801 C 1151.76 1.38602 5.56397 0
M  V30 11802 N 1151.26 1.81543 6.68591 0
M  V30 11803 N 1153.05 1.30409 5.46763 0
M  V30 11804 H 1145.2 1.40872 1.58962 0
M  V30 11805 H 1147.46 0.580589 0.749414 0
M  V30 11806 H 1147.17 1.65562 3.10294 0
M  V30 11807 H 1147.04 0.0382375 3.77181 0
M  V30 11808 H 1149.43 -0.461006 2.91477 0
M  V30 11809 H 1149.51 1.18381 2.26759 0
M  V30 11810 H 1149.16 2.10406 4.62268 0
M  V30 11811 H 1149.09 0.437297 5.24781 0
M  V30 11812 H 1151.58 0.714208 3.7109 0
M  V30 11813 H 1151.89 2.06977 7.44567 0
M  V30 11814 H 1150.24 1.8547 6.69795 0
M  V30 11815 H 1153.43 0.967272 4.57997 0
M  V30 11816 H 1153.6 1.5852 6.28312 0
M  V30 11817 N 1147.01 -1.56678 0.170181 0
M  V30 11818 C 1147.97 -2.16698 -0.746622 0
M  V30 11819 C 1148.97 -1.11475 -1.15888 0
M  V30 11820 O 1150.16 -1.36994 -1.07602 0
M  V30 11821 C 1147.29 -2.74892 -2.01612 0
M  V30 11822 H 1148.48 -2.99061 -0.224135 0
M  V30 11823 H 1146.04 -1.56098 -0.0793761 0
M  V30 11824 H 1146.77 -1.96259 -2.58172 0
M  V30 11825 H 1146.56 -3.51896 -1.72949 0
M  V30 11826 H 1148.05 -3.21058 -2.67042 0
M  V30 11827 N 1148.48 0.103547 -1.57259 0
M  V30 11828 C 1149.73 0.809774 -1.85931 0
M  V30 11829 C 1150.06 1.78791 -0.758122 0
M  V30 11830 O 1149.34 1.93079 0.234682 0
M  V30 11831 C 1149.62 1.54601 -3.25224 0
M  V30 11832 C 1149.47 0.586439 -4.45961 0
M  V30 11833 C 1150.79 2.4986 -3.62296 0
M  V30 11834 H 1147.91 0.29293 -0.676285 0
M  V30 11835 H 1150.55 0.0736065 -1.89857 0
M  V30 11836 H 1148.7 2.17355 -3.22008 0
M  V30 11837 H 1150.38 -0.0334441 -4.61288 0
M  V30 11838 H 1148.62 -0.10085 -4.33683 0
M  V30 11839 H 1149.29 1.13855 -5.40131 0
M  V30 11840 H 1151.77 1.97203 -3.66402 0
M  V30 11841 H 1150.64 2.98396 -4.60707 0
M  V30 11842 H 1150.9 3.33233 -2.90531 0
M  V30 11843 N 1149.96 1.53094 0.37415 0
M  V30 11844 C 1151.19 1.72758 1.13852 0
M  V30 11845 C 1151.6 0.452638 1.83294 0
M  V30 11846 O 1150.96 -0.573906 1.73241 0
M  V30 11847 C 1151.01 2.88724 2.17534 0
M  V30 11848 O 1150.73 4.11284 1.5092 0
M  V30 11849 C 1152.23 3.2019 3.06584 0
M  V30 11850 H 1149.45 0.578028 0.340771 0
M  V30 11851 H 1152 1.99805 0.435683 0
M  V30 11852 H 1150.15 2.64096 2.83429 0
M  V30 11853 H 1150.57 4.76162 2.19932 0
M  V30 11854 H 1152.04 4.04759 3.75332 0
M  V30 11855 H 1152.52 2.35193 3.70919 0
M  V30 11856 H 1153.12 3.46712 2.46315 0
M  V30 11857 N 1151.44 -0.633461 1.44309 0
M  V30 11858 C 1152.66 -1.42527 1.50668 0
M  V30 11859 C 1153.09 -1.87637 0.131861 0
M  V30 11860 O 1152.45 -1.58595 -0.878477 0
M  V30 11861 C 1152.5 -2.62328 2.47419 0
M  V30 11862 O 1151.6 -3.62081 1.97411 0
M  V30 11863 H 1150.94 -0.426559 0.508864 0
M  V30 11864 H 1153.47 -0.773392 1.8942 0
M  V30 11865 H 1153.48 -3.09901 2.65378 0
M  V30 11866 H 1152.16 -2.2884 3.47283 0
M  V30 11867 H 1150.73 -3.21333 1.89208 0
M  V30 11868 N 1152.92 -1.31168 -0.873655 0
M  V30 11869 C 1154.17 -1.20003 -1.62118 0
M  V30 11870 C 1154.48 0.241505 -1.94103 0
M  V30 11871 O 1155.69 0.474801 -2.67316 0
M  V30 11872 C 1154.14 -2.10055 -2.92241 0
M  V30 11873 C 1153.75 -3.59183 -2.67752 0
M  V30 11874 C 1155.49 -2.07681 -3.70228 0
M  V30 11875 C 1153.4 -4.41255 -3.93761 0
M  V30 11876 H 1152.33 -0.445564 -0.608267 0
M  V30 11877 H 1154.98 -1.55997 -0.966287 0
M  V30 11878 H 1153.36 -1.66956 -3.59085 0
M  V30 11879 H 1154.54 -4.10504 -2.09339 0
M  V30 11880 H 1152.85 -3.63496 -2.03125 0
M  V30 11881 H 1155.45 -2.66246 -4.637 0
M  V30 11882 H 1155.79 -1.06304 -4.02499 0
M  V30 11883 H 1156.33 -2.48961 -3.10263 0
M  V30 11884 H 1153.07 -5.43372 -3.66643 0
M  V30 11885 H 1152.59 -3.94694 -4.51638 0
M  V30 11886 H 1154.26 -4.53278 -4.6168 0
M  V30 11887 N 1154.4 1.08748 -1.14068 0
M  V30 11888 C 1155.36 2.1375 -0.827266 0
M  V30 11889 C 1156.36 1.59936 0.166496 0
M  V30 11890 O 1157.55 1.74092 -0.0614305 0
M  V30 11891 C 1154.68 3.40106 -0.232557 0
M  V30 11892 H 1155.87 2.42985 -1.7578 0
M  V30 11893 H 1153.43 1.24402 -0.946244 0
M  V30 11894 H 1154.16 3.16503 0.706859 0
M  V30 11895 H 1153.95 3.8046 -0.948293 0
M  V30 11896 H 1155.44 4.17589 -0.0303662 0
M  V30 11897 N 1155.87 0.935264 1.26849 0
M  V30 11898 C 1157.29 0.636661 1.46352 0
M  V30 11899 C 1157.49 -0.811823 1.84423 0
M  V30 11900 O 1156.55 -1.58902 1.9623 0
M  V30 11901 C 1157.86 1.59301 2.55036 0
M  V30 11902 C 1159.41 1.60207 2.68892 0
M  V30 11903 C 1159.88 2.54558 3.80742 0
M  V30 11904 N 1161.37 2.52809 3.88126 0
M  V30 11905 C 1162.11 3.225 4.74111 0
M  V30 11906 N 1161.6 4.01598 5.64527 0
M  V30 11907 N 1163.4 3.11481 4.67906 0
M  V30 11908 H 1155.55 1.8716 1.00423 0
M  V30 11909 H 1157.81 0.803968 0.502334 0
M  V30 11910 H 1157.52 2.62671 2.33874 0
M  V30 11911 H 1157.39 1.34052 3.52576 0
M  V30 11912 H 1159.78 0.575649 2.89431 0
M  V30 11913 H 1159.86 1.89508 1.71815 0
M  V30 11914 H 1159.5 3.57314 3.60956 0
M  V30 11915 H 1159.43 2.22549 4.77263 0
M  V30 11916 H 1161.92 1.9537 3.2348 0
M  V30 11917 H 1162.24 4.51742 6.27016 0
M  V30 11918 H 1160.58 4.057 5.64298 0
M  V30 11919 H 1163.77 2.49175 3.9627 0
M  V30 11920 H 1163.95 3.66064 5.34697 0
M  V30 11921 N 1157.35 -1.41121 0.701616 0
M  V30 11922 C 1158.32 -2.29148 0.0490091 0
M  V30 11923 C 1159.32 -1.44679 -0.701763 0
M  V30 11924 O 1160.51 -1.65757 -0.53575 0
M  V30 11925 C 1157.64 -3.2766 -0.940837 0
M  V30 11926 H 1158.83 -2.88354 0.824133 0
M  V30 11927 H 1156.38 -1.49209 0.465457 0
M  V30 11928 H 1157.12 -2.73445 -1.74351 0
M  V30 11929 H 1156.9 -3.89997 -0.405551 0
M  V30 11930 H 1158.39 -3.93609 -1.39507 0
M  V30 11931 N 1158.83 -0.446794 -1.51134 0
M  V30 11932 C 1159.76 0.350229 -2.30858 0
M  V30 11933 C 1160.74 1.0125 -1.36684 0
M  V30 11934 O 1161.93 1.01433 -1.65605 0
M  V30 11935 C 1159.06 1.4464 -3.15748 0
M  V30 11936 C 1158.01 0.907102 -4.18277 0
M  V30 11937 C 1157.34 2.09974 -4.91747 0
M  V30 11938 C 1158.64 -0.0649758 -5.2226 0
M  V30 11939 H 1160.33 -0.315105 -2.97737 0
M  V30 11940 H 1157.88 -0.152985 -1.43185 0
M  V30 11941 H 1159.83 2.01127 -3.70305 0
M  V30 11942 H 1158.55 2.14016 -2.46708 0
M  V30 11943 H 1157.21 0.364382 -3.64785 0
M  V30 11944 H 1156.86 2.77991 -4.19202 0
M  V30 11945 H 1156.56 1.74523 -5.61084 0
M  V30 11946 H 1158.08 2.66996 -5.49131 0
M  V30 11947 H 1159.5 0.4099 -5.71833 0
M  V30 11948 H 1157.9 -0.332529 -5.99178 0
M  V30 11949 H 1158.97 -0.998681 -4.74504 0
M  V30 11950 N 1160.31 1.56586 -0.178487 0
M  V30 11951 C 1161.72 1.83633 0.337009 0
M  V30 11952 C 1162.07 1.09857 1.6256 0
M  V30 11953 O 1161.2 0.353933 2.13486 0
M  V30 11954 C 1161.79 3.33112 0.618225 0
M  V30 11955 C 1160.35 3.60629 1.07814 0
M  V30 11956 C 1159.5 2.7705 0.117825 0
M  V30 11957 H 1162.45 1.53508 -0.402612 0
M  V30 11958 H 1162.47 3.5098 1.46947 0
M  V30 11959 H 1161.98 3.8678 -0.319808 0
M  V30 11960 H 1160.08 3.12378 2.03103 0
M  V30 11961 H 1160.19 4.68921 0.982339 0
M  V30 11962 H 1158.56 2.47125 0.616563 0
M  V30 11963 H 1159.34 3.33501 -0.814356 0
M  V30 11964 N 1161.79 -0.095206 1.57312 0
M  V30 11965 C 1163.03 -0.797142 1.85715 0
M  V30 11966 C 1163.36 -1.79275 0.767171 0
M  V30 11967 O 1162.63 -1.94808 -0.206584 0
M  V30 11968 H 1161.21 -0.297382 0.685254 0
M  V30 11969 H 1163.87 -0.0768617 1.94748 0
M  V30 11970 H 1162.96 -1.32779 2.82447 0
M  V30 11971 N 1163.26 -1.53291 -0.366026 0
M  V30 11972 C 1164.51 -1.69451 -1.10872 0
M  V30 11973 C 1164.84 -0.446078 -1.89316 0
M  V30 11974 O 1164.09 0.571962 -1.87155 0
M  V30 11975 C 1164.39 -2.89547 -2.09517 0
M  V30 11976 C 1164.06 -4.26073 -1.47556 0
M  V30 11977 C 1162.72 -4.63199 -1.30386 0
M  V30 11978 C 1165.07 -5.10977 -1.02724 0
M  V30 11979 C 1162.4 -5.82866 -0.669666 0
M  V30 11980 C 1164.75 -6.31289 -0.407052 0
M  V30 11981 C 1163.42 -6.67128 -0.222839 0
M  V30 11982 H 1162.69 -0.620066 -0.405708 0
M  V30 11983 H 1165.33 -1.87475 -0.390563 0
M  V30 11984 H 1163.64 -2.66034 -2.87634 0
M  V30 11985 H 1165.34 -2.99245 -2.66933 0
M  V30 11986 H 1161.93 -3.9684 -1.61914 0
M  V30 11987 H 1166.11 -4.82844 -1.14783 0
M  V30 11988 H 1161.37 -6.09224 -0.515351 0
M  V30 11989 H 1165.54 -6.96381 -0.0514661 0
M  V30 11990 H 1163.17 -7.59718 0.270647 0
M  V30 11991 N 1164.74 0.6258 -1.44643 0
M  V30 11992 C 1166.15 1.20751 -1.42394 0
M  V30 11993 C 1166.5 1.95685 -0.142047 0
M  V30 11994 O 1165.63 2.02715 0.757332 0
M  V30 11995 C 1166.22 2.1964 -2.57961 0
M  V30 11996 C 1164.78 2.73227 -2.5889 0
M  V30 11997 C 1163.93 1.48315 -2.34303 0
M  V30 11998 H 1166.88 0.416162 -1.53146 0
M  V30 11999 H 1166.9 3.02342 -2.31019 0
M  V30 12000 H 1166.41 1.65073 -3.51244 0
M  V30 12001 H 1164.52 3.31782 -1.69563 0
M  V30 12002 H 1164.63 3.18902 -3.57545 0
M  V30 12003 H 1162.99 1.76634 -1.83501 0
M  V30 12004 H 1163.78 0.956427 -3.29708 0
M  V30 12005 N 1166.22 1.31629 0.866686 0
M  V30 12006 C 1167.47 1.20861 1.61479 0
M  V30 12007 C 1167.78 -0.231208 1.94229 0
M  V30 12008 O 1168.99 -0.460618 2.67564 0
M  V30 12009 C 1167.44 2.11602 2.91123 0
M  V30 12010 C 1167.05 3.60598 2.65844 0
M  V30 12011 C 1168.8 2.09642 3.69121 0
M  V30 12012 C 1166.7 4.43337 3.91415 0
M  V30 12013 H 1165.63 0.448783 0.605896 0
M  V30 12014 H 1168.28 1.56507 0.958001 0
M  V30 12015 H 1166.67 1.68858 3.58194 0
M  V30 12016 H 1167.84 4.11609 2.07159 0
M  V30 12017 H 1166.16 3.64568 2.01194 0
M  V30 12018 H 1168.75 2.68701 4.62281 0
M  V30 12019 H 1169.1 1.08438 4.01929 0
M  V30 12020 H 1169.63 2.50603 3.08938 0
M  V30 12021 H 1166.37 5.45309 3.63756 0
M  V30 12022 H 1165.89 3.97083 4.49539 0
M  V30 12023 H 1167.57 4.5572 4.5927 0
M  V30 12024 N 1167.7 -1.08142 1.14644 0
M  V30 12025 C 1168.63 -2.17139 0.858667 0
M  V30 12026 C 1169.61 -1.69064 -0.187452 0
M  V30 12027 O 1170.8 -1.94151 -0.0435458 0
M  V30 12028 C 1167.93 -3.45648 0.33834 0
M  V30 12029 C 1166.88 -4.07129 1.32021 0
M  V30 12030 C 1166.21 -5.30623 0.659075 0
M  V30 12031 C 1167.51 -4.48095 2.68343 0
M  V30 12032 H 1169.2 -2.41468 1.77012 0
M  V30 12033 H 1166.75 -1.16052 0.852523 0
M  V30 12034 H 1168.7 -4.21216 0.124611 0
M  V30 12035 H 1167.42 -3.2088 -0.608553 0
M  V30 12036 H 1166.08 -3.33596 1.52016 0
M  V30 12037 H 1165.73 -5.02142 -0.293711 0
M  V30 12038 H 1165.43 -5.72714 1.31427 0
M  V30 12039 H 1166.95 -6.08903 0.454933 0
M  V30 12040 H 1168.37 -5.14828 2.5224 0
M  V30 12041 H 1166.76 -5.01113 3.30161 0
M  V30 12042 H 1167.83 -3.59852 3.25015 0
M  V30 12043 N 1169.18 -0.941978 -1.26351 0
M  V30 12044 C 1170.14 -0.456768 -2.24602 0
M  V30 12045 C 1171.14 0.432574 -1.54872 0
M  V30 12046 O 1172.33 0.23164 -1.72653 0
M  V30 12047 C 1169.46 0.341583 -3.39184 0
M  V30 12048 H 1170.66 -1.32503 -2.69041 0
M  V30 12049 H 1168.21 -0.724021 -1.38519 0
M  V30 12050 H 1168.94 1.22806 -3.00149 0
M  V30 12051 H 1168.73 -0.296268 -3.90979 0
M  V30 12052 H 1170.22 0.670955 -4.12175 0
M  V30 12053 N 1170.66 1.40747 -0.709091 0
M  V30 12054 C 1171.88 2.05319 -0.255258 0
M  V30 12055 C 1172.3 1.53406 1.10054 0
M  V30 12056 O 1171.66 0.687905 1.69039 0
M  V30 12057 C 1171.71 3.60835 -0.219251 0
M  V30 12058 O 1171.43 4.1083 -1.52151 0
M  V30 12059 C 1172.93 4.42572 0.253927 0
M  V30 12060 H 1170.15 0.660904 -0.115959 0
M  V30 12061 H 1172.69 1.80274 -0.965474 0
M  V30 12062 H 1170.85 3.84872 0.441882 0
M  V30 12063 H 1171.26 5.04979 -1.41764 0
M  V30 12064 H 1172.74 5.51529 0.22798 0
M  V30 12065 H 1173.21 4.19673 1.29504 0
M  V30 12066 H 1173.82 4.23629 -0.376694 0
M  V30 12067 N 1172.13 0.454803 1.50895 0
M  V30 12068 C 1173.38 -0.105562 2.01824 0
M  V30 12069 C 1173.7 -1.41673 1.33992 0
M  V30 12070 O 1172.97 -1.89929 0.479994 0
M  V30 12071 H 1171.55 -0.0420011 0.745818 0
M  V30 12072 H 1174.21 0.601504 1.85386 0
M  V30 12073 H 1173.31 -0.268872 3.1094 0
M  V30 12074 N 1173.61 -1.56489 0.186789 0
M  V30 12075 C 1174.86 -1.96952 -0.453261 0
M  V30 12076 C 1175.18 -1.07451 -1.62725 0
M  V30 12077 O 1174.45 -0.144046 -1.9537 0
M  V30 12078 H 1173.03 -0.727295 -0.170445 0
M  V30 12079 H 1175.69 -1.92999 0.271584 0
M  V30 12080 H 1174.79 -3.01594 -0.802951 0
M  V30 12081 N 1175.09 0.086862 -1.5736 0
M  V30 12082 C 1176.34 0.787581 -1.85688 0
M  V30 12083 C 1176.65 1.79494 -0.777263 0
M  V30 12084 O 1177.86 2.54415 -0.947914 0
M  V30 12085 C 1176.31 1.45155 -3.2933 0
M  V30 12086 C 1175.92 0.483539 -4.45383 0
M  V30 12087 C 1177.67 2.13552 -3.66873 0
M  V30 12088 C 1175.57 1.15257 -5.8006 0
M  V30 12089 H 1174.5 0.297882 -0.692663 0
M  V30 12090 H 1177.15 0.0406299 -1.83455 0
M  V30 12091 H 1175.54 2.24625 -3.26128 0
M  V30 12092 H 1176.71 -0.280254 -4.59947 0
M  V30 12093 H 1175.02 -0.0951664 -4.16291 0
M  V30 12094 H 1177.62 2.64355 -4.6478 0
M  V30 12095 H 1177.96 2.92818 -2.95911 0
M  V30 12096 H 1178.5 1.40932 -3.71999 0
M  V30 12097 H 1175.24 0.400546 -6.54275 0
M  V30 12098 H 1174.76 1.88759 -5.69324 0
M  V30 12099 H 1176.44 1.67671 -6.24896 0
M  V30 12100 N 1176.57 1.53483 0.357892 0
M  V30 12101 C 1177.84 1.60649 1.11585 0
M  V30 12102 C 1178.22 0.418789 2.06904 0
M  V30 12103 O 1177.57 -0.590279 2.20744 0
M  V30 12104 C 1177.78 2.96046 1.84818 0
M  V30 12105 C 1179.13 3.50895 2.39076 0
M  V30 12106 O 1180.15 2.98126 1.94934 0
M  V30 12107 O 1179.01 4.43163 3.19794 0
M  V30 12108 H 1176.11 0.649202 0.512315 0
M  V30 12109 H 1178.65 1.65826 0.360537 0
M  V30 12110 H 1177.43 3.73929 1.15296 0
M  V30 12111 H 1177.05 2.94395 2.6724 0
M  V30 12112 N 1178.05 -0.61812 1.44973 0
M  V30 12113 C 1179.27 -1.40921 1.52171 0
M  V30 12114 C 1179.7 -1.87487 0.151755 0
M  V30 12115 O 1179.05 -1.59518 -0.861606 0
M  V30 12116 C 1179.1 -2.59689 2.50188 0
M  V30 12117 O 1178.21 -3.59967 2.0124 0
M  V30 12118 H 1177.55 -0.421138 0.51336 0
M  V30 12119 H 1180.08 -0.753258 1.90229 0
M  V30 12120 H 1180.09 -3.07069 2.6865 0
M  V30 12121 H 1178.76 -2.25144 3.4969 0
M  V30 12122 H 1177.34 -3.19308 1.92605 0
M  V30 12123 N 1179.52 -1.32087 -0.859693 0
M  V30 12124 C 1180.49 -1.20546 -1.94939 0
M  V30 12125 C 1181.49 -0.12982 -1.60275 0
M  V30 12126 O 1182.68 -0.379853 -1.70008 0
M  V30 12127 C 1179.81 -0.852717 -3.30063 0
M  V30 12128 H 1181 -2.17384 -2.06602 0
M  V30 12129 H 1178.55 -1.15846 -1.04926 0
M  V30 12130 H 1179.29 0.114059 -3.24099 0
M  V30 12131 H 1179.07 -1.63035 -3.56598 0
M  V30 12132 H 1180.56 -0.796145 -4.09941 0
M  V30 12133 N 1181 1.07532 -1.15215 0
M  V30 12134 C 1181.91 2.18222 -0.861192 0
M  V30 12135 C 1182.93 1.73246 0.161798 0
M  V30 12136 O 1184.1 2.01397 -0.0118386 0
M  V30 12137 C 1181.17 3.44902 -0.352601 0
M  V30 12138 C 1180.23 4.04455 -1.43926 0
M  V30 12139 C 1179.46 5.25089 -0.954841 0
M  V30 12140 O 1179.69 5.70048 0.200294 0
M  V30 12141 O 1178.62 5.76269 -1.73774 0
M  V30 12142 H 1182.45 2.45599 -1.78648 0
M  V30 12143 H 1180.03 1.16835 -0.93112 0
M  V30 12144 H 1181.91 4.21333 -0.0753347 0
M  V30 12145 H 1180.59 3.19082 0.544841 0
M  V30 12146 H 1179.49 3.29573 -1.7701 0
M  V30 12147 H 1180.83 4.34544 -2.31155 0
M  V30 12148 N 1182.48 0.948665 1.2585 0
M  V30 12149 C 1183.71 0.616741 1.98018 0
M  V30 12150 C 1184.13 -0.803005 1.70098 0
M  V30 12151 O 1183.49 -1.54208 0.953392 0
M  V30 12152 C 1183.54 0.874429 3.49837 0
M  V30 12153 O 1182.64 -0.0497568 4.1237 0
M  V30 12154 H 1181.98 0.235112 0.620982 0
M  V30 12155 H 1184.51 1.27364 1.60124 0
M  V30 12156 H 1184.52 0.798309 4.00114 0
M  V30 12157 H 1183.2 1.90922 3.69488 0
M  V30 12158 H 1181.77 0.0780591 3.72818 0
M  V30 12159 N 1183.96 -1.40369 0.716545 0
M  V30 12160 C 1185.21 -2.00473 0.255959 0
M  V30 12161 C 1185.53 -1.57104 -1.15514 0
M  V30 12162 O 1184.8 -0.810925 -1.78328 0
M  V30 12163 H 1183.38 -0.741357 0.0916427 0
M  V30 12164 H 1186.04 -1.71692 0.922389 0
M  V30 12165 H 1185.14 -3.10752 0.289806 0
M  V30 12166 N 1185.44 -0.462799 -1.50652 0
M  V30 12167 C 1186.37 0.325724 -2.31217 0
M  V30 12168 C 1187.35 0.997942 -1.3775 0
M  V30 12169 O 1188.53 0.996707 -1.66671 0
M  V30 12170 C 1185.66 1.41283 -3.17264 0
M  V30 12171 C 1184.62 0.862687 -4.19216 0
M  V30 12172 C 1183.94 2.04746 -4.93946 0
M  V30 12173 C 1185.24 -0.120365 -5.22161 0
M  V30 12174 H 1186.94 -0.346666 -2.97386 0
M  V30 12175 H 1184.48 -0.168163 -1.43015 0
M  V30 12176 H 1186.44 1.97188 -3.72418 0
M  V30 12177 H 1185.16 2.11387 -2.48964 0
M  V30 12178 H 1183.82 0.325671 -3.65151 0
M  V30 12179 H 1183.47 2.73529 -4.22127 0
M  V30 12180 H 1183.17 1.68562 -5.62904 0
M  V30 12181 H 1184.69 2.61157 -5.51932 0
M  V30 12182 H 1186.1 0.349226 -5.72235 0
M  V30 12183 H 1184.5 -0.396061 -5.98792 0
M  V30 12184 H 1185.57 -1.04895 -4.73418 0
M  V30 12185 N 1186.91 1.56388 -0.195085 0
M  V30 12186 C 1187.85 2.16316 0.757643 0
M  V30 12187 C 1188.86 1.12498 1.17678 0
M  V30 12188 O 1190.05 1.39591 1.11251 0
M  V30 12189 C 1187.15 2.7104 2.03447 0
M  V30 12190 C 1186.32 3.99759 1.77514 0
M  V30 12191 C 1185.38 4.3931 2.89644 0
M  V30 12192 O 1184.41 5.06732 2.59252 0
M  V30 12193 N 1185.61 4.02813 4.17998 0
M  V30 12194 H 1188.37 2.98696 0.24517 0
M  V30 12195 H 1185.93 1.61895 -0.0131194 0
M  V30 12196 H 1187.93 2.94483 2.776 0
M  V30 12197 H 1186.5 1.93114 2.45817 0
M  V30 12198 H 1185.72 3.84448 0.8714 0
M  V30 12199 H 1187 4.83782 1.57585 0
M  V30 12200 H 1186.4 3.4858 4.45543 0
M  V30 12201 H 1184.96 4.31206 4.88779 0
M  V30 12202 N 1188.39 -0.0785156 1.57404 0
M  V30 12203 C 1189.64 -0.778938 1.86919 0
M  V30 12204 C 1189.97 -1.77915 0.785906 0
M  V30 12205 O 1189.22 -1.94473 -0.218811 0
M  V30 12206 C 1189.52 -1.52826 3.23078 0
M  V30 12207 C 1189.19 -0.668645 4.45915 0
M  V30 12208 C 1187.85 -0.43173 4.79259 0
M  V30 12209 C 1190.2 -0.0721327 5.2115 0
M  V30 12210 C 1187.53 0.41129 5.85257 0
M  V30 12211 C 1189.88 0.758303 6.28039 0
M  V30 12212 C 1188.55 1.00515 6.59889 0
M  V30 12213 H 1187.82 -0.285034 0.683986 0
M  V30 12214 H 1190.46 -0.039906 1.91458 0
M  V30 12215 H 1188.77 -2.33931 3.14299 0
M  V30 12216 H 1190.46 -2.07488 3.43147 0
M  V30 12217 H 1187.05 -0.863424 4.19813 0
M  V30 12218 H 1191.24 -0.242297 4.95708 0
M  V30 12219 H 1186.49 0.611354 6.08336 0
M  V30 12220 H 1190.67 1.2273 6.855 0
M  V30 12221 H 1188.3 1.66017 7.41851 0
M  V30 12222 N 1189.87 -1.5367 -0.349747 0
M  V30 12223 C 1190.8 -1.84208 -1.43492 0
M  V30 12224 C 1191.78 -0.696725 -1.55177 0
M  V30 12225 O 1192.97 -0.948061 -1.69486 0
M  V30 12226 C 1190.1 -2.04613 -2.80625 0
M  V30 12227 C 1189.05 -3.20419 -2.83753 0
M  V30 12228 C 1188.38 -3.26147 -4.23713 0
M  V30 12229 C 1189.68 -4.58666 -2.49846 0
M  V30 12230 H 1191.37 -2.75087 -1.18185 0
M  V30 12231 H 1188.92 -1.32363 -0.567101 0
M  V30 12232 H 1190.87 -2.2456 -3.56582 0
M  V30 12233 H 1189.59 -1.10459 -3.07354 0
M  V30 12234 H 1188.25 -3.00318 -2.10249 0
M  V30 12235 H 1187.9 -2.29599 -4.47541 0
M  V30 12236 H 1187.6 -4.03963 -4.26717 0
M  V30 12237 H 1189.12 -3.48296 -5.0152 0
M  V30 12238 H 1190.54 -4.78668 -3.15516 0
M  V30 12239 H 1188.94 -5.3884 -2.64144 0
M  V30 12240 H 1190.01 -4.62697 -1.4505 0
M  V30 12241 N 1191.35 0.610423 -1.45298 0
M  V30 12242 C 1192.3 1.71552 -1.5018 0
M  V30 12243 C 1193.28 1.56697 -0.365357 0
M  V30 12244 O 1194.47 1.66082 -0.612029 0
M  V30 12245 C 1191.6 3.10298 -1.46867 0
M  V30 12246 C 1190.69 3.30549 -2.65703 0
M  V30 12247 N 1191.08 3.21073 -3.90827 0
M  V30 12248 C 1189.38 3.6141 -2.6134 0
M  V30 12249 C 1190.08 3.42577 -4.70123 0
M  V30 12250 N 1189.06 3.66434 -4.01531 0
M  V30 12251 H 1192.86 1.62714 -2.44747 0
M  V30 12252 H 1190.37 0.813587 -1.40551 0
M  V30 12253 H 1192.37 3.89575 -1.48449 0
M  V30 12254 H 1191.03 3.20286 -0.533548 0
M  V30 12255 H 1192.04 2.99537 -4.2249 0
M  V30 12256 H 1188.72 3.78253 -1.76722 0
M  V30 12257 H 1190.11 3.40669 -5.79132 0
M  V30 12258 N 1192.83 1.32541 0.852676 0
M  V30 12259 C 1194.05 1.2636 1.64462 0
M  V30 12260 C 1194.48 -0.16508 1.87374 0
M  V30 12261 O 1193.83 -1.11712 1.42794 0
M  V30 12262 C 1193.88 2.03052 2.97997 0
M  V30 12263 O 1192.99 1.37967 3.88637 0
M  V30 12264 H 1192.33 0.435393 0.501327 0
M  V30 12265 H 1194.86 1.74888 1.06186 0
M  V30 12266 H 1194.87 2.133 3.47803 0
M  V30 12267 H 1193.54 3.06941 2.80642 0
M  V30 12268 H 1192.12 1.36279 3.47106 0
M  V30 12269 N 1194.3 -1.0692 1.15784 0
M  V30 12270 C 1195.55 -1.79245 0.933581 0
M  V30 12271 C 1195.87 -1.87362 -0.540427 0
M  V30 12272 O 1195.14 -1.37769 -1.39271 0
M  V30 12273 H 1193.72 -0.663898 0.342416 0
M  V30 12274 H 1196.39 -1.29189 1.45932 0
M  V30 12275 H 1195.48 -2.81546 1.34679 0
M  V30 12276 N 1195.78 -0.955326 -1.25345 0
M  V30 12277 C 1196.75 -0.480564 -2.24105 0
M  V30 12278 C 1197.75 0.416123 -1.55322 0
M  V30 12279 O 1198.94 0.213315 -1.72889 0
M  V30 12280 C 1196.07 0.305589 -3.39528 0
M  V30 12281 H 1197.26 -1.35349 -2.6762 0
M  V30 12282 H 1194.81 -0.738673 -1.37744 0
M  V30 12283 H 1195.55 1.19615 -3.01434 0
M  V30 12284 H 1195.33 -0.337719 -3.90643 0
M  V30 12285 H 1196.82 0.627201 -4.12863 0
M  V30 12286 N 1197.26 1.39987 -0.723979 0
M  V30 12287 C 1198.49 2.0556 -0.275634 0
M  V30 12288 C 1198.91 1.54207 1.07711 0
M  V30 12289 O 1198.27 0.681041 1.68022 0
M  V30 12290 C 1198.32 3.59551 -0.27485 0
M  V30 12291 O 1197.42 4.05685 0.741182 0
M  V30 12292 H 1196.76 0.651634 -0.12755 0
M  V30 12293 H 1199.29 1.79229 -0.986814 0
M  V30 12294 H 1199.3 4.07837 -0.115425 0
M  V30 12295 H 1197.98 3.96291 -1.26198 0
M  V30 12296 H 1196.55 3.6884 0.548795 0
M  V30 12297 N 1198.74 0.470782 1.50404 0
M  V30 12298 C 1199.99 -0.0844409 2.02624 0
M  V30 12299 C 1200.32 -1.39398 1.3521 0
M  V30 12300 O 1199.59 -1.88542 0.477707 0
M  V30 12301 C 1199.88 -0.268563 3.59097 0
M  V30 12302 C 1199.73 1.06198 4.37084 0
M  V30 12303 C 1201.05 -1.02324 4.28039 0
M  V30 12304 H 1198.17 -0.0292141 0.736421 0
M  V30 12305 H 1200.81 0.616312 1.79726 0
M  V30 12306 H 1198.96 -0.865441 3.78738 0
M  V30 12307 H 1200.63 1.69541 4.29015 0
M  V30 12308 H 1198.87 1.65868 4.00837 0
M  V30 12309 H 1199.55 0.886795 5.4483 0
M  V30 12310 H 1202.02 -0.517325 4.12872 0
M  V30 12311 H 1200.9 -1.12087 5.37334 0
M  V30 12312 H 1201.16 -2.05974 3.91187 0
M  V30 12313 N 1200.22 -1.56282 0.203376 0
M  V30 12314 C 1201.15 -2.2247 -0.709183 0
M  V30 12315 C 1202.13 -1.19046 -1.21499 0
M  V30 12316 O 1203.31 -1.47578 -1.26231 0
M  V30 12317 C 1200.44 -2.8905 -1.92529 0
M  V30 12318 C 1199.4 -3.98789 -1.55407 0
M  V30 12319 C 1198.72 -4.52574 -2.84747 0
M  V30 12320 C 1200.02 -5.16774 -0.75775 0
M  V30 12321 H 1201.72 -2.98986 -0.157392 0
M  V30 12322 H 1199.26 -1.43808 -0.0742613 0
M  V30 12323 H 1201.22 -3.34038 -2.56898 0
M  V30 12324 H 1199.94 -2.09952 -2.50175 0
M  V30 12325 H 1198.6 -3.54504 -0.933928 0
M  V30 12326 H 1198.25 -3.70229 -3.40499 0
M  V30 12327 H 1197.95 -5.26627 -2.6065 0
M  V30 12328 H 1199.47 -5.00269 -3.5009 0
M  V30 12329 H 1200.89 -5.58256 -1.30472 0
M  V30 12330 H 1199.28 -5.96945 -0.614583 0
M  V30 12331 H 1200.35 -4.84308 0.239476 0
M  V30 12332 N 1201.7 0.070167 -1.57444 0
M  V30 12333 C 1202.63 1.10996 -2.0053 0
M  V30 12334 C 1203.64 1.3489 -0.91151 0
M  V30 12335 O 1204.83 1.33102 -1.18938 0
M  V30 12336 C 1201.93 2.46053 -2.33048 0
M  V30 12337 C 1201.1 2.42092 -3.64294 0
M  V30 12338 C 1200.16 3.5927 -3.84463 0
M  V30 12339 O 1199.19 3.40625 -4.5603 0
M  V30 12340 N 1200.39 4.79677 -3.26941 0
M  V30 12341 H 1203.15 0.743029 -2.90343 0
M  V30 12342 H 1200.72 0.258794 -1.59818 0
M  V30 12343 H 1202.71 3.23089 -2.43712 0
M  V30 12344 H 1201.28 2.74742 -1.49116 0
M  V30 12345 H 1200.5 1.5043 -3.64368 0
M  V30 12346 H 1201.79 2.36548 -4.50469 0
M  V30 12347 H 1201.18 4.97729 -2.68855 0
M  V30 12348 H 1199.74 5.54219 -3.43051 0
M  V30 12349 N 1203.17 1.53854 0.341593 0
M  V30 12350 C 1204.42 1.71447 1.08322 0
M  V30 12351 C 1204.75 0.477289 1.88243 0
M  V30 12352 O 1204.03 -0.525695 1.87261 0
M  V30 12353 C 1204.31 2.97917 2.02281 0
M  V30 12354 C 1204.16 4.31847 1.25809 0
M  V30 12355 C 1205.48 3.20065 3.0207 0
M  V30 12356 H 1202.6 0.623847 0.392408 0
M  V30 12357 H 1205.24 1.86527 0.361594 0
M  V30 12358 H 1203.39 2.85191 2.63815 0
M  V30 12359 H 1205.07 4.56427 0.668737 0
M  V30 12360 H 1203.31 4.30169 0.560119 0
M  V30 12361 H 1203.98 5.16522 1.94704 0
M  V30 12362 H 1206.46 3.32135 2.50651 0
M  V30 12363 H 1205.33 4.09947 3.65013 0
M  V30 12364 H 1205.59 2.36452 3.73554 0
M  V30 12365 N 1204.65 -0.602709 1.4562 0
M  V30 12366 C 1205.89 -1.37284 1.51435 0
M  V30 12367 C 1206.26 -1.9138 0.154148 0
M  V30 12368 O 1207.46 -2.68659 0.0870009 0
M  V30 12369 C 1205.73 -2.48651 2.56724 0
M  V30 12370 S 1207.29 -3.36354 2.818 0
M  V30 12371 H 1204.1 -0.46798 0.535272 0
M  V30 12372 H 1206.71 -0.694957 1.82731 0
M  V30 12373 H 1205.41 -2.07267 3.54215 0
M  V30 12374 H 1204.94 -3.21234 2.27095 0
M  V30 12375 H 1206.96 -4.46937 2.15549 0
M  V30 12376 N 1206.13 -1.32992 -0.845635 0
M  V30 12377 C 1207.35 -1.27231 -1.6379 0
M  V30 12378 C 1207.78 0.155141 -1.87459 0
M  V30 12379 O 1207.14 1.10953 -1.43384 0
M  V30 12380 C 1207.19 -2.04629 -2.96916 0
M  V30 12381 O 1206.29 -1.40027 -3.879 0
M  V30 12382 H 1205.63 -0.438045 -0.499011 0
M  V30 12383 H 1208.16 -1.75448 -1.05257 0
M  V30 12384 H 1208.17 -2.15141 -3.46667 0
M  V30 12385 H 1206.85 -3.08425 -2.79011 0
M  V30 12386 H 1205.42 -1.38118 -3.46378 0
M  V30 12387 N 1207.61 1.06304 -1.1635 0
M  V30 12388 C 1208.57 2.11947 -0.872419 0
M  V30 12389 C 1209.57 1.60253 0.132534 0
M  V30 12390 O 1210.76 1.73922 -0.0983441 0
M  V30 12391 C 1207.89 3.39536 -0.304646 0
M  V30 12392 H 1209.09 2.39201 -1.80894 0
M  V30 12393 H 1206.64 1.22367 -0.972419 0
M  V30 12394 H 1207.37 3.17931 0.639565 0
M  V30 12395 H 1207.16 3.78363 -1.02878 0
M  V30 12396 H 1208.65 4.17431 -0.118936 0
M  V30 12397 N 1209.09 0.96196 1.24836 0
M  V30 12398 C 1210.33 0.616342 1.92052 0
M  V30 12399 C 1210.65 -0.851601 1.76088 0
M  V30 12400 O 1211.85 -1.3075 2.37943 0
M  V30 12401 C 1210.31 1.05168 3.44191 0
M  V30 12402 C 1209.92 2.54268 3.68852 0
M  V30 12403 C 1211.66 0.778938 4.17292 0
M  V30 12404 C 1209.57 2.91564 5.14533 0
M  V30 12405 H 1208.5 0.22681 0.719078 0
M  V30 12406 H 1211.15 1.1674 1.41577 0
M  V30 12407 H 1209.53 0.428979 3.9367 0
M  V30 12408 H 1210.71 3.21619 3.29997 0
M  V30 12409 H 1209.02 2.79091 3.09026 0
M  V30 12410 H 1211.62 1.03366 5.24614 0
M  V30 12411 H 1211.96 -0.284772 4.15325 0
M  V30 12412 H 1212.49 1.36233 3.73745 0
M  V30 12413 H 1209.23 3.96982 5.21618 0
M  V30 12414 H 1208.75 2.28892 5.54408 0
M  V30 12415 H 1210.43 2.81155 5.82718 0
M  V30 12416 N 1210.56 -1.39601 0.731392 0
M  V30 12417 C 1211.5 -2.29147 0.0494974 0
M  V30 12418 C 1212.51 -1.46635 -0.707248 0
M  V30 12419 O 1213.7 -1.6975 -0.552008 0
M  V30 12420 C 1210.8 -3.25191 -0.954152 0
M  V30 12421 C 1209.97 -4.36629 -0.259674 0
M  V30 12422 C 1209.03 -5.13007 -1.17092 0
M  V30 12423 O 1208.06 -5.65479 -0.64976 0
M  V30 12424 N 1209.26 -5.23865 -2.50092 0
M  V30 12425 H 1212.02 -2.88308 0.818433 0
M  V30 12426 H 1209.58 -1.51142 0.580316 0
M  V30 12427 H 1211.58 -3.73161 -1.56629 0
M  V30 12428 H 1210.15 -2.67085 -1.62432 0
M  V30 12429 H 1209.37 -3.90582 0.532888 0
M  V30 12430 H 1210.65 -5.08317 0.221753 0
M  V30 12431 H 1210.05 -4.82745 -2.94913 0
M  V30 12432 H 1208.61 -5.75288 -3.0641 0
M  V30 12433 N 1212.04 -0.478751 -1.50152 0
M  V30 12434 C 1212.99 0.325375 -2.30313 0
M  V30 12435 C 1213.98 0.983372 -1.37935 0
M  V30 12436 O 1215.19 0.913601 -1.55091 0
M  V30 12437 H 1211.57 0.123775 -0.741744 0
M  V30 12438 H 1213.54 -0.371004 -2.96085 0
M  V30 12439 C 1212.29 1.39026 -3.18696 0
M  V30 12440 H 1211.61 0.893329 -3.89692 0
M  V30 12441 H 1213.05 1.92533 -3.77766 0
M  V30 12442 C 1211.51 2.39637 -2.36803 0
M  V30 12443 O 1212.04 3.45067 -2.05649 0
M  V30 12444 N 1210.24 2.11546 -1.9924 0
M  V30 12445 H 1209.79 1.25832 -2.24775 0
M  V30 12446 H 1209.75 2.79096 -1.44751 0
M  V30 12447 N 1213.52 1.56172 -0.211661 0
M  V30 12448 C 1214.45 2.17107 0.734657 0
M  V30 12449 C 1215.47 1.1374 1.16478 0
M  V30 12450 O 1216.65 1.40763 1.09764 0
M  V30 12451 C 1213.75 2.73182 2.00561 0
M  V30 12452 C 1212.93 4.0162 1.73264 0
M  V30 12453 C 1211.99 4.42357 2.84968 0
M  V30 12454 O 1211.01 5.09453 2.53863 0
M  V30 12455 N 1212.21 4.07223 4.13702 0
M  V30 12456 H 1214.98 2.98939 0.213475 0
M  V30 12457 H 1212.54 1.61872 -0.0302898 0
M  V30 12458 H 1214.53 2.97411 2.74461 0
M  V30 12459 H 1213.1 1.9571 2.43754 0
M  V30 12460 H 1212.32 3.85351 0.830575 0
M  V30 12461 H 1213.61 4.85426 1.52445 0
M  V30 12462 H 1213.01 3.53286 4.4182 0
M  V30 12463 H 1211.57 4.36366 4.84178 0
M  V30 12464 N 1215 -0.0618163 1.57479 0
M  V30 12465 C 1216.28 -0.792636 1.7882 0
M  V30 12466 C 1216.66 -1.95283 0.801724 0
M  V30 12467 O 1216 -2.27917 -0.163095 0
M  V30 12468 C 1216.21 -1.25629 3.25605 0
M  V30 12469 C 1217.56 -1.68561 3.89708 0
M  V30 12470 O 1218.59 -1.35171 3.29556 0
M  V30 12471 O 1217.44 -2.30417 4.95551 0
M  V30 12472 H 1214.54 -0.380595 0.734218 0
M  V30 12473 H 1217.08 -0.0411205 1.6965 0
M  V30 12474 H 1215.86 -0.426582 3.88968 0
M  V30 12475 H 1215.48 -2.06882 3.39537 0
M  V30 12476 N 1216.48 -1.54033 -0.333429 0
M  V30 12477 C 1217.72 -1.71765 -1.07252 0
M  V30 12478 C 1218.05 -0.486135 -1.88327 0
M  V30 12479 O 1217.31 0.532135 -1.88326 0
M  V30 12480 C 1217.61 -2.93926 -2.03328 0
M  V30 12481 C 1217.27 -4.29107 -1.38486 0
M  V30 12482 C 1215.93 -4.6586 -1.20532 0
M  V30 12483 C 1218.29 -5.13041 -0.918624 0
M  V30 12484 C 1215.61 -5.84155 -0.545881 0
M  V30 12485 C 1217.97 -6.3201 -0.273055 0
M  V30 12486 C 1216.63 -6.67451 -0.0812815 0
M  V30 12487 H 1215.9 -0.628532 -0.392464 0
M  V30 12488 H 1218.55 -1.88261 -0.350709 0
M  V30 12489 H 1216.85 -2.72075 -2.81926 0
M  V30 12490 H 1218.55 -3.0484 -2.60526 0
M  V30 12491 H 1215.14 -4.00185 -1.5346 0
M  V30 12492 H 1219.32 -4.8517 -1.04515 0
M  V30 12493 H 1214.58 -6.1018 -0.386009 0
M  V30 12494 H 1218.75 -6.96333 0.0962582 0
M  V30 12495 H 1216.38 -7.58973 0.431734 0
M  V30 12496 N 1217.95 0.594978 -1.45938 0
M  V30 12497 C 1219.18 1.37994 -1.5416 0
M  V30 12498 C 1219.6 1.87954 -0.17848 0
M  V30 12499 O 1218.95 1.62932 0.822161 0
M  V30 12500 C 1219.01 2.57586 -2.53637 0
M  V30 12501 O 1218.73 2.09698 -3.84653 0
M  V30 12502 C 1220.23 3.50292 -2.71681 0
M  V30 12503 H 1217.45 0.421983 -0.5217 0
M  V30 12504 H 1219.99 0.724459 -1.91238 0
M  V30 12505 H 1218.15 3.19149 -2.19597 0
M  V30 12506 H 1218.56 2.87492 -4.3869 0
M  V30 12507 H 1220.03 4.30717 -3.45234 0
M  V30 12508 H 1220.51 4.01444 -1.78156 0
M  V30 12509 H 1221.12 2.94573 -3.06768 0
M  V30 12510 N 1219.43 1.33438 0.838571 0
M  V30 12511 C 1220.68 1.25097 1.5962 0
M  V30 12512 C 1221.01 -0.182798 1.93338 0
M  V30 12513 O 1220.29 -1.1242 1.5872 0
M  V30 12514 C 1220.57 2.12655 2.90603 0
M  V30 12515 C 1220.42 3.64491 2.63565 0
M  V30 12516 C 1221.74 1.99994 3.92033 0
M  V30 12517 H 1218.86 0.455776 0.579169 0
M  V30 12518 H 1221.5 1.63542 0.967169 0
M  V30 12519 H 1219.65 1.79998 3.44286 0
M  V30 12520 H 1221.32 4.0744 2.16312 0
M  V30 12521 H 1219.57 3.86356 1.9726 0
M  V30 12522 H 1220.24 4.21101 3.569 0
M  V30 12523 H 1222.71 2.28635 3.47657 0
M  V30 12524 H 1221.59 2.63509 4.81512 0
M  V30 12525 H 1221.85 0.972263 4.31277 0
M  V30 12526 N 1220.91 -1.05686 1.16912 0
M  V30 12527 C 1222.16 -1.77987 0.948875 0
M  V30 12528 C 1222.47 -1.8845 -0.524011 0
M  V30 12529 O 1223.68 -2.57442 -0.862322 0
M  V30 12530 C 1222.13 -3.19927 1.64848 0
M  V30 12531 C 1221.74 -3.1761 3.15956 0
M  V30 12532 C 1223.49 -3.96719 1.51044 0
M  V30 12533 C 1221.39 -4.54307 3.78628 0
M  V30 12534 H 1220.32 -0.667119 0.35138 0
M  V30 12535 H 1222.97 -1.18496 1.40111 0
M  V30 12536 H 1221.36 -3.79714 1.12397 0
M  V30 12537 H 1222.53 -2.67369 3.75301 0
M  V30 12538 H 1220.85 -2.54317 3.29715 0
M  V30 12539 H 1223.44 -4.97779 1.95243 0
M  V30 12540 H 1223.79 -4.13748 0.460268 0
M  V30 12541 H 1224.32 -3.43468 2.00685 0
M  V30 12542 H 1221.06 -4.42484 4.8362 0
M  V30 12543 H 1220.58 -5.04717 3.24069 0
M  V30 12544 H 1222.26 -5.23255 3.80543 0
M  V30 12545 N 1222.39 -0.968567 -1.24324 0
M  V30 12546 C 1223.3 -0.50703 -2.29055 0
M  V30 12547 C 1224.31 0.432431 -1.68541 0
M  V30 12548 O 1225.49 0.30526 -1.99073 0
M  V30 12549 C 1222.56 0.194589 -3.46153 0
M  V30 12550 C 1221.62 -0.784805 -4.22066 0
M  V30 12551 C 1220.85 -0.116574 -5.33573 0
M  V30 12552 O 1221.07 1.09492 -5.59792 0
M  V30 12553 O 1220.01 -0.809171 -5.96436 0
M  V30 12554 H 1223.83 -1.3777 -2.70653 0
M  V30 12555 H 1221.42 -0.735645 -1.30033 0
M  V30 12556 H 1223.3 0.588684 -4.17268 0
M  V30 12557 H 1221.97 1.04021 -3.06531 0
M  V30 12558 H 1220.88 -1.22938 -3.53323 0
M  V30 12559 H 1222.21 -1.59887 -4.65507 0
M  V30 12560 N 1223.87 1.39211 -0.738786 0
M  V30 12561 C 1225.14 1.9442 -0.214533 0
M  V30 12562 C 1225.52 1.67528 1.28443 0
M  V30 12563 O 1224.87 1.0056 2.05183 0
M  V30 12564 C 1225.08 3.44603 -0.552232 0
M  V30 12565 C 1226.43 4.21602 -0.503663 0
M  V30 12566 O 1227.45 3.52819 -0.489647 0
M  V30 12567 O 1226.31 5.44194 -0.50153 0
M  V30 12568 H 1223.41 0.826011 -0.0404247 0
M  V30 12569 H 1225.95 1.48689 -0.817902 0
M  V30 12570 H 1224.72 3.57626 -1.58806 0
M  V30 12571 H 1224.35 3.9752 0.0799096 0
M  V30 12572 N 1225.34 0.486708 1.49896 0
M  V30 12573 C 1226.57 -0.0599944 2.06513 0
M  V30 12574 C 1226.98 -1.32662 1.34898 0
M  V30 12575 O 1226.33 -1.78915 0.416565 0
M  V30 12576 C 1226.39 -0.39838 3.57286 0
M  V30 12577 C 1226.05 0.768465 4.50493 0
M  V30 12578 C 1227.05 1.65495 4.92856 0
M  V30 12579 C 1224.73 0.96322 4.92978 0
M  V30 12580 C 1226.73 2.72046 5.76429 0
M  V30 12581 C 1224.41 2.03193 5.7633 0
M  V30 12582 C 1225.41 2.9089 6.17958 0
M  V30 12583 O 1225.1 3.95919 6.99645 0
M  V30 12584 H 1224.83 0.0107865 0.675914 0
M  V30 12585 H 1227.39 0.679087 1.93849 0
M  V30 12586 H 1225.62 -1.19086 3.67907 0
M  V30 12587 H 1227.31 -0.882003 3.96201 0
M  V30 12588 H 1228.07 1.51624 4.6069 0
M  V30 12589 H 1223.95 0.29004 4.60087 0
M  V30 12590 H 1227.49 3.40526 6.08841 0
M  V30 12591 H 1223.39 2.17064 6.07909 0
M  V30 12592 H 1224.16 3.93097 7.17925 0
M  V30 12593 N 1226.82 -1.56058 0.219941 0
M  V30 12594 C 1228.06 -2.00162 -0.414063 0
M  V30 12595 C 1228.43 -1.10432 -1.57063 0
M  V30 12596 O 1229.63 -1.43877 -2.27053 0
M  V30 12597 C 1227.9 -3.47411 -0.839084 0
M  V30 12598 S 1229.46 -4.13536 -1.46742 0
M  V30 12599 H 1226.28 -0.698738 -0.131475 0
M  V30 12600 H 1228.88 -1.92714 0.32885 0
M  V30 12601 H 1227.58 -4.10398 0.0123666 0
M  V30 12602 H 1227.11 -3.58728 -1.61485 0
M  V30 12603 H 1229.13 -4.12592 -2.75648 0
M  V30 12604 N 1228.3 0.053464 -1.57509 0
M  V30 12605 C 1229.53 0.761533 -1.92375 0
M  V30 12606 C 1229.94 1.70179 -0.817585 0
M  V30 12607 O 1229.3 1.81313 0.207843 0
M  V30 12608 C 1229.35 1.53954 -3.27078 0
M  V30 12609 O 1229.07 0.637054 -4.33443 0
M  V30 12610 C 1230.57 2.34697 -3.76075 0
M  V30 12611 H 1227.79 0.215483 -0.635459 0
M  V30 12612 H 1230.34 0.0182624 -2.04492 0
M  V30 12613 H 1228.49 2.23492 -3.16434 0
M  V30 12614 H 1228.91 1.18006 -5.11053 0
M  V30 12615 H 1230.38 2.84716 -4.72906 0
M  V30 12616 H 1230.86 3.15041 -3.06016 0
M  V30 12617 H 1231.46 1.70281 -3.89724 0
M  V30 12618 N 1229.78 1.54207 0.325255 0
M  V30 12619 C 1231.03 1.71991 1.0613 0
M  V30 12620 C 1231.35 0.495505 1.88599 0
M  V30 12621 O 1230.62 -0.490504 1.8966 0
M  V30 12622 H 1229.2 0.634137 0.394816 0
M  V30 12623 H 1231.86 1.91507 0.362101 0
M  V30 12624 H 1230.96 2.59878 1.72829 0
M  V30 12625 N 1231.26 -0.58723 1.46251 0
M  V30 12626 C 1232.19 -1.70694 1.5933 0
M  V30 12627 C 1233.17 -1.64208 0.443831 0
M  V30 12628 O 1234.35 -1.82294 0.669516 0
M  V30 12629 C 1231.48 -3.0933 1.579 0
M  V30 12630 C 1230.44 -3.30643 2.7177 0
M  V30 12631 C 1229.76 -4.69761 2.554 0
M  V30 12632 C 1231.06 -3.18916 4.1363 0
M  V30 12633 H 1232.76 -1.60004 2.53059 0
M  V30 12634 H 1230.3 -0.768343 1.21789 0
M  V30 12635 H 1232.26 -3.87479 1.65644 0
M  V30 12636 H 1230.98 -3.20907 0.60712 0
M  V30 12637 H 1229.64 -2.54892 2.63488 0
M  V30 12638 H 1229.29 -4.78098 1.56306 0
M  V30 12639 H 1228.99 -4.84974 3.31774 0
M  V30 12640 H 1230.51 -5.50084 2.65028 0
M  V30 12641 H 1231.93 -3.86915 4.23048 0
M  V30 12642 H 1230.32 -3.45653 4.90555 0
M  V30 12643 H 1231.39 -2.1606 4.34104 0
M  V30 12644 N 1232.74 -1.33881 -0.831482 0
M  V30 12645 C 1233.68 -1.24748 -1.94182 0
M  V30 12646 C 1234.65 -0.124516 -1.65633 0
M  V30 12647 O 1235.84 -0.304045 -1.88362 0
M  V30 12648 C 1232.98 -1.00016 -3.30289 0
M  V30 12649 C 1232.09 -2.21007 -3.71187 0
M  V30 12650 C 1231.23 -1.89629 -4.962 0
M  V30 12651 C 1230.26 -3.06811 -5.29654 0
M  V30 12652 N 1229.4 -2.75372 -6.45844 0
M  V30 12653 H 1234.24 -2.19709 -2.01325 0
M  V30 12654 H 1231.78 -1.09245 -0.985081 0
M  V30 12655 H 1233.74 -0.837167 -4.08714 0
M  V30 12656 H 1232.37 -0.0872582 -3.22682 0
M  V30 12657 H 1231.42 -2.48256 -2.88224 0
M  V30 12658 H 1232.73 -3.08587 -3.91887 0
M  V30 12659 H 1231.88 -1.70016 -5.82391 0
M  V30 12660 H 1230.62 -0.992964 -4.77485 0
M  V30 12661 H 1229.63 -3.27029 -4.41964 0
M  V30 12662 H 1230.85 -3.97909 -5.50314 0
M  V30 12663 H 1228.8 -1.87607 -6.28601 0
M  V30 12664 H 1228.72 -3.56483 -6.66675 0
M  V30 12665 H 1229.98 -2.59244 -7.35128 0
M  V30 12666 N 1234.21 1.05064 -1.1747 0
M  V30 12667 C 1235.18 2.1101 -0.89485 0
M  V30 12668 C 1236.18 1.60384 0.11553 0
M  V30 12669 O 1237.37 1.73808 -0.116785 0
M  V30 12670 C 1234.5 3.39194 -0.340642 0
M  V30 12671 H 1235.69 2.37269 -1.83421 0
M  V30 12672 H 1233.24 1.21329 -0.985343 0
M  V30 12673 H 1233.98 3.18591 0.605808 0
M  V30 12674 H 1233.76 3.77251 -1.06885 0
M  V30 12675 H 1235.25 4.17281 -0.163204 0
M  V30 12676 N 1235.69 0.975146 1.23809 0
M  V30 12677 C 1236.62 0.530389 2.27396 0
M  V30 12678 C 1237.6 -0.433763 1.64476 0
M  V30 12679 O 1238.79 -0.32827 1.91405 0
M  V30 12680 C 1235.92 -0.173066 3.46869 0
M  V30 12681 C 1234.87 0.707844 4.22106 0
M  V30 12682 C 1234.2 -0.127527 5.34548 0
M  V30 12683 C 1235.5 1.99609 4.82652 0
M  V30 12684 H 1237.19 1.39622 2.64851 0
M  V30 12685 H 1234.74 0.672802 1.27316 0
M  V30 12686 H 1236.69 -0.495481 4.18477 0
M  V30 12687 H 1235.41 -1.0733 3.0846 0
M  V30 12688 H 1234.07 1.01364 3.52308 0
M  V30 12689 H 1233.72 -1.02814 4.9238 0
M  V30 12690 H 1233.42 0.458728 5.85807 0
M  V30 12691 H 1234.95 -0.444443 6.0898 0
M  V30 12692 H 1236.36 1.73878 5.46296 0
M  V30 12693 H 1234.76 2.52969 5.44175 0
M  V30 12694 H 1235.83 2.68629 4.03691 0
M  V30 12695 N 1237.17 -1.38817 0.746158 0
M  V30 12696 C 1238.1 -2.33144 0.128836 0
M  V30 12697 C 1239.08 -1.54487 -0.711873 0
M  V30 12698 O 1240.27 -1.82836 -0.654577 0
M  V30 12699 C 1237.4 -3.38639 -0.770772 0
M  V30 12700 C 1236.35 -4.27987 -0.0333669 0
M  V30 12701 C 1235.68 -5.24274 -1.05073 0
M  V30 12702 C 1236.98 -5.09915 1.13066 0
M  V30 12703 H 1238.67 -2.85019 0.916778 0
M  V30 12704 H 1236.22 -1.37039 0.442306 0
M  V30 12705 H 1238.17 -4.03587 -1.21225 0
M  V30 12706 H 1236.89 -2.8523 -1.59095 0
M  V30 12707 H 1235.55 -3.64534 0.388612 0
M  V30 12708 H 1235.2 -4.67156 -1.86478 0
M  V30 12709 H 1234.9 -5.84906 -0.562037 0
M  V30 12710 H 1236.42 -5.92099 -1.49169 0
M  V30 12711 H 1237.84 -5.68145 0.767084 0
M  V30 12712 H 1236.23 -5.79744 1.54972 0
M  V30 12713 H 1237.3 -4.4409 1.94709 0
M  V30 12714 N 1238.65 -0.49465 -1.49636 0
M  V30 12715 C 1239.88 0.0490417 -2.06542 0
M  V30 12716 C 1240.29 1.31945 -1.35599 0
M  V30 12717 O 1239.63 1.78691 -0.426047 0
M  V30 12718 C 1239.69 0.379426 -3.57492 0
M  V30 12719 C 1239.35 -0.792345 -4.50079 0
M  V30 12720 C 1240.35 -1.68106 -4.91972 0
M  V30 12721 C 1238.04 -0.98935 -4.9246 0
M  V30 12722 C 1240.03 -2.75099 -5.74978 0
M  V30 12723 C 1237.72 -2.06247 -5.75244 0
M  V30 12724 C 1238.72 -2.94163 -6.16407 0
M  V30 12725 O 1238.4 -3.99623 -6.97536 0
M  V30 12726 H 1238.14 -0.0143708 -0.675847 0
M  V30 12727 H 1240.69 -0.689358 -1.93486 0
M  V30 12728 H 1238.92 1.17133 -3.68533 0
M  V30 12729 H 1240.61 0.860979 -3.96664 0
M  V30 12730 H 1241.37 -1.54065 -4.59879 0
M  V30 12731 H 1237.25 -0.314435 -4.59926 0
M  V30 12732 H 1240.8 -3.4375 -6.07027 0
M  V30 12733 H 1236.69 -2.20285 -6.06749 0
M  V30 12734 H 1237.46 -3.96899 -7.15831 0
M  V30 12735 N 1240.13 1.55939 -0.228214 0
M  V30 12736 C 1241.06 2.2357 0.6737 0
M  V30 12737 C 1242.04 1.20964 1.1959 0
M  V30 12738 O 1243.22 1.49568 1.23867 0
M  V30 12739 C 1240.35 2.92076 1.87906 0
M  V30 12740 C 1239.31 4.01211 1.49043 0
M  V30 12741 C 1238.63 4.57047 2.77511 0
M  V30 12742 C 1239.93 5.17914 0.67544 0
M  V30 12743 H 1241.63 2.99199 0.109806 0
M  V30 12744 H 1239.17 1.43908 0.0513732 0
M  V30 12745 H 1241.12 3.38083 2.51551 0
M  V30 12746 H 1239.85 2.13906 2.46803 0
M  V30 12747 H 1238.51 3.55945 0.877411 0
M  V30 12748 H 1238.16 3.75599 3.34566 0
M  V30 12749 H 1237.86 5.30707 2.52239 0
M  V30 12750 H 1239.38 5.05776 3.42087 0
M  V30 12751 H 1240.79 5.60261 1.21575 0
M  V30 12752 H 1239.19 5.97847 0.519536 0
M  V30 12753 H 1240.26 4.83866 -0.316495 0
M  V30 12754 N 1241.6 -0.0451101 1.57535 0
M  V30 12755 C 1242.55 -1.05066 2.05499 0
M  V30 12756 C 1243.52 -1.36884 0.940843 0
M  V30 12757 O 1244.71 -1.47497 1.21034 0
M  V30 12758 C 1241.85 -2.35139 2.52594 0
M  V30 12759 C 1240.96 -2.0962 3.77735 0
M  V30 12760 C 1240.09 -3.33447 4.13505 0
M  V30 12761 C 1239.13 -3.03411 5.31609 0
M  V30 12762 N 1238.27 -4.19644 5.62888 0
M  V30 12763 H 1243.11 -0.63469 2.91163 0
M  V30 12764 H 1240.65 -0.30179 1.43971 0
M  V30 12765 H 1242.61 -3.11118 2.7796 0
M  V30 12766 H 1241.24 -2.74489 1.69869 0
M  V30 12767 H 1240.29 -1.24211 3.59549 0
M  V30 12768 H 1241.6 -1.83452 4.63839 0
M  V30 12769 H 1240.75 -4.17805 4.39914 0
M  V30 12770 H 1239.49 -3.62715 3.2602 0
M  V30 12771 H 1238.5 -2.17453 5.04969 0
M  V30 12772 H 1239.72 -2.75438 6.20734 0
M  V30 12773 H 1237.67 -4.48893 4.78363 0
M  V30 12774 H 1237.59 -3.96843 6.43468 0
M  V30 12775 H 1238.85 -5.04921 5.93865 0
M  V30 12776 N 1243.08 -1.54377 -0.317073 0
M  V30 12777 C 1244.31 -1.77184 -1.07798 0
M  V30 12778 C 1244.73 -0.52204 -1.80711 0
M  V30 12779 O 1244.09 0.52672 -1.7348 0
M  V30 12780 C 1244.14 -2.96887 -2.04671 0
M  V30 12781 O 1243.24 -2.68887 -3.12688 0
M  V30 12782 H 1242.58 -0.586937 -0.310485 0
M  V30 12783 H 1245.11 -2.01419 -0.35939 0
M  V30 12784 H 1245.12 -3.24414 -2.47426 0
M  V30 12785 H 1243.8 -3.87518 -1.51005 0
M  V30 12786 H 1242.38 -2.52329 -2.74562 0
M  V30 12787 N 1244.56 0.579466 -1.4656 0
M  V30 12788 C 1245.81 1.33379 -1.51304 0
M  V30 12789 C 1246.12 1.94855 -0.170507 0
M  V30 12790 O 1247.33 2.71331 -0.0957704 0
M  V30 12791 C 1245.78 2.41748 -2.66619 0
M  V30 12792 C 1245.39 1.8656 -4.07307 0
M  V30 12793 C 1247.14 3.18502 -2.80636 0
M  V30 12794 C 1245.04 2.92578 -5.13957 0
M  V30 12795 H 1243.97 0.501422 -0.56311 0
M  V30 12796 H 1246.62 0.618025 -1.72779 0
M  V30 12797 H 1245.01 3.16138 -2.3848 0
M  V30 12798 H 1246.18 1.18692 -4.45252 0
M  V30 12799 H 1244.5 1.22464 -3.97984 0
M  V30 12800 H 1247.09 3.9763 -3.57483 0
M  V30 12801 H 1247.44 3.71295 -1.8827 0
M  V30 12802 H 1247.97 2.51219 -3.08437 0
M  V30 12803 H 1244.71 2.44668 -6.08126 0
M  V30 12804 H 1244.23 3.58926 -4.80554 0
M  V30 12805 H 1245.91 3.56471 -5.39942 0
M  V30 12806 N 1246.04 1.3432 0.824371 0
M  V30 12807 C 1246.95 1.27847 1.96704 0
M  V30 12808 C 1247.96 0.18641 1.72999 0
M  V30 12809 O 1249.14 0.412623 1.97128 0
M  V30 12810 C 1246.21 1.03231 3.30975 0
M  V30 12811 C 1245.27 2.21579 3.67697 0
M  V30 12812 C 1244.5 1.98128 4.95561 0
M  V30 12813 O 1244.72 0.938798 5.62621 0
M  V30 12814 O 1243.66 2.85041 5.30128 0
M  V30 12815 H 1247.48 2.23974 2.05108 0
M  V30 12816 H 1245.07 1.14512 0.959554 0
M  V30 12817 H 1246.95 0.912784 4.11395 0
M  V30 12818 H 1245.62 0.101425 3.23541 0
M  V30 12819 H 1244.53 2.3909 2.87727 0
M  V30 12820 H 1245.86 3.13052 3.79815 0
M  V30 12821 N 1247.52 -1.0444 1.18026 0
M  V30 12822 C 1248.43 -2.15862 0.918747 0
M  V30 12823 C 1249.44 -1.73614 -0.115808 0
M  V30 12824 O 1250.62 -2.01294 0.0652312 0
M  V30 12825 C 1247.68 -3.43846 0.443922 0
M  V30 12826 C 1246.74 -4.00497 1.54599 0
M  V30 12827 C 1245.98 -5.22373 1.09372 0
M  V30 12828 O 1246.2 -5.70379 -0.049085 0
M  V30 12829 O 1245.13 -5.71459 1.88992 0
M  V30 12830 H 1248.96 -2.40776 1.85097 0
M  V30 12831 H 1246.55 -1.14326 0.961769 0
M  V30 12832 H 1248.43 -4.20985 0.187017 0
M  V30 12833 H 1247.1 -3.20414 -0.460051 0
M  V30 12834 H 1246.01 -3.24764 1.85686 0
M  V30 12835 H 1247.34 -4.28262 2.42595 0
M  V30 12836 N 1248.99 -0.981699 -1.2329 0
M  V30 12837 C 1249.92 -0.542441 -2.27112 0
M  V30 12838 C 1250.91 0.425034 -1.64704 0
M  V30 12839 O 1252.09 0.318114 -1.91577 0
M  V30 12840 C 1249.22 0.154668 -3.46955 0
M  V30 12841 C 1248.17 -0.73022 -4.21725 0
M  V30 12842 C 1247.5 0.0991766 -5.34608 0
M  V30 12843 C 1248.8 -2.02166 -4.81587 0
M  V30 12844 H 1250.49 -1.41024 -2.64107 0
M  V30 12845 H 1248.04 -0.679544 -1.26957 0
M  V30 12846 H 1249.99 0.473281 -4.18734 0
M  V30 12847 H 1248.72 1.05693 -3.09025 0
M  V30 12848 H 1247.38 -1.03231 -3.51765 0
M  V30 12849 H 1247.02 1.00201 -4.92919 0
M  V30 12850 H 1246.72 -0.489788 -5.85555 0
M  V30 12851 H 1248.25 0.412141 -6.09207 0
M  V30 12852 H 1249.66 -1.76773 -5.45366 0
M  V30 12853 H 1248.06 -2.55851 -5.42826 0
M  V30 12854 H 1249.13 -2.70766 -4.02261 0
M  V30 12855 N 1250.47 1.3842 -0.753509 0
M  V30 12856 C 1251.4 2.29039 -0.0859463 0
M  V30 12857 C 1252.42 1.47742 0.68383 0
M  V30 12858 O 1253.61 1.70607 0.524933 0
M  V30 12859 C 1250.71 3.26668 0.902296 0
M  V30 12860 C 1249.88 4.36986 0.190178 0
M  V30 12861 C 1248.94 5.14805 1.08916 0
M  V30 12862 O 1247.96 5.66441 0.559715 0
M  V30 12863 N 1249.17 5.27777 2.41726 0
M  V30 12864 H 1251.93 2.8697 -0.864196 0
M  V30 12865 H 1249.49 1.502 -0.604288 0
M  V30 12866 H 1251.48 3.75606 1.50672 0
M  V30 12867 H 1250.05 2.69636 1.58163 0
M  V30 12868 H 1249.27 3.89684 -0.594959 0
M  V30 12869 H 1250.56 5.07899 -0.302594 0
M  V30 12870 H 1249.96 4.87376 2.87196 0
M  V30 12871 H 1248.52 5.8009 2.97219 0
M  V30 12872 N 1251.95 0.502579 1.49372 0
M  V30 12873 C 1253.23 -0.104472 1.95321 0
M  V30 12874 C 1253.61 -1.53975 1.44412 0
M  V30 12875 O 1252.96 -2.18804 0.658566 0
M  V30 12876 C 1253.17 -0.0154833 3.48997 0
M  V30 12877 C 1254.51 -0.188615 4.24181 0
M  V30 12878 O 1255.54 -0.090595 3.56085 0
M  V30 12879 O 1254.4 -0.390068 5.45106 0
M  V30 12880 H 1251.49 -0.0944325 0.821591 0
M  V30 12881 H 1254.04 0.565229 1.6001 0
M  V30 12882 H 1252.81 0.985383 3.7869 0
M  V30 12883 H 1252.43 -0.72526 3.90929 0
M  V30 12884 N 1253.43 -1.55816 0.23648 0
M  V30 12885 C 1254.67 -1.99725 -0.384898 0
M  V30 12886 C 1255.03 -1.12169 -1.5632 0
M  V30 12887 O 1254.32 -0.17491 -1.908 0
M  V30 12888 C 1254.52 -3.47039 -0.85434 0
M  V30 12889 C 1254.35 -4.48847 0.276929 0
M  V30 12890 C 1253.12 -4.9973 0.748215 0
M  V30 12891 C 1255.31 -5.02391 1.10036 0
M  V30 12892 N 1253.3 -5.85267 1.85298 0
M  V30 12893 C 1254.67 -5.84998 2.0537 0
M  V30 12894 C 1256.72 -4.84718 1.1381 0
M  V30 12895 C 1255.42 -6.5182 3.04177 0
M  V30 12896 C 1257.45 -5.5231 2.11442 0
M  V30 12897 C 1256.81 -6.34697 3.05514 0
M  V30 12898 H 1252.91 -0.774632 -0.107094 0
M  V30 12899 H 1255.5 -1.91498 0.351673 0
M  V30 12900 H 1253.67 -3.55684 -1.56023 0
M  V30 12901 H 1255.4 -3.7784 -1.44979 0
M  V30 12902 H 1252.15 -4.7242 0.334178 0
M  V30 12903 H 1252.58 -6.32735 2.40782 0
M  V30 12904 H 1257.22 -4.20662 0.424703 0
M  V30 12905 H 1254.94 -7.15049 3.76471 0
M  V30 12906 H 1258.52 -5.40594 2.15056 0
M  V30 12907 H 1257.4 -6.86077 3.79827 0
M  V30 12908 N 1254.91 0.036755 -1.57557 0
M  V30 12909 C 1256.18 0.764087 -1.80059 0
M  V30 12910 C 1256.56 1.93983 -0.83269 0
M  V30 12911 O 1255.91 2.28148 0.126815 0
M  V30 12912 C 1256.12 1.20433 -3.27562 0
M  V30 12913 C 1257.47 1.6234 -3.9234 0
M  V30 12914 O 1258.49 1.29911 -3.31665 0
M  V30 12915 O 1257.35 2.22504 -4.99154 0
M  V30 12916 H 1254.45 0.368866 -0.74018 0
M  V30 12917 H 1256.99 0.0141254 -1.69694 0
M  V30 12918 H 1255.76 0.364646 -3.89597 0
M  V30 12919 H 1255.39 2.01454 -3.42786 0
M  V30 12920 N 1256.39 1.54543 0.308881 0
M  V30 12921 C 1257.63 1.73107 1.043 0
M  V30 12922 C 1257.95 0.515481 1.88063 0
M  V30 12923 O 1257.22 -0.47036 1.90169 0
M  V30 12924 H 1255.8 0.638289 0.388068 0
M  V30 12925 H 1258.47 1.9188 0.341769 0
M  V30 12926 H 1257.56 2.61697 1.70063 0
M  V30 12927 N 1257.86 -0.571685 1.46866 0
M  V30 12928 C 1258.8 -1.69475 1.54307 0
M  V30 12929 C 1259.81 -1.57006 0.430449 0
M  V30 12930 O 1261 -1.64229 0.69936 0
M  V30 12931 C 1258.1 -3.07824 1.41766 0
M  V30 12932 C 1257.27 -3.46189 2.67342 0
M  V30 12933 C 1256.33 -4.63642 2.48843 0
M  V30 12934 O 1255.36 -4.68949 3.22608 0
M  V30 12935 N 1256.56 -5.59223 1.55724 0
M  V30 12936 H 1259.32 -1.63543 2.51145 0
M  V30 12937 H 1256.88 -0.757957 1.43062 0
M  V30 12938 H 1258.88 -3.84208 1.27146 0
M  V30 12939 H 1257.45 -3.08063 0.530667 0
M  V30 12940 H 1256.67 -2.59399 2.96826 0
M  V30 12941 H 1257.95 -3.68591 3.50739 0
M  V30 12942 H 1257.35 -5.5768 0.949175 0
M  V30 12943 H 1255.91 -6.34993 1.47063 0
M  V30 12944 N 1259.34 -1.34755 -0.817236 0
M  V30 12945 C 1260.57 -1.30676 -1.61054 0
M  V30 12946 C 1260.99 0.115343 -1.87746 0
M  V30 12947 O 1260.35 1.07887 -1.45705 0
M  V30 12948 C 1260.4 -2.10881 -2.92509 0
M  V30 12949 O 1259.5 -1.48223 -3.84842 0
M  V30 12950 H 1258.84 -0.448531 -0.489608 0
M  V30 12951 H 1261.37 -1.77642 -1.01512 0
M  V30 12952 H 1261.38 -2.22446 -3.42026 0
M  V30 12953 H 1260.06 -3.14274 -2.72406 0
M  V30 12954 H 1258.63 -1.45434 -3.4337 0
M  V30 12955 N 1260.82 1.03812 -1.18578 0
M  V30 12956 C 1262.23 1.58509 -0.986496 0
M  V30 12957 C 1262.58 1.90655 0.463136 0
M  V30 12958 O 1261.71 1.69847 1.34093 0
M  V30 12959 C 1262.3 2.88 -1.78441 0
M  V30 12960 C 1260.86 3.39304 -1.6294 0
M  V30 12961 C 1260.01 2.12857 -1.77727 0
M  V30 12962 H 1262.96 0.864528 -1.33085 0
M  V30 12963 H 1262.98 3.58502 -1.27501 0
M  V30 12964 H 1262.49 2.64572 -2.83942 0
M  V30 12965 H 1260.59 3.6774 -0.599864 0
M  V30 12966 H 1260.71 4.12959 -2.42902 0
M  V30 12967 H 1259.07 2.24285 -1.20699 0
M  V30 12968 H 1259.85 1.91882 -2.84669 0
M  V30 12969 N 1262.3 0.988223 1.22768 0
M  V30 12970 C 1263.26 0.539813 2.22752 0
M  V30 12971 C 1264.26 -0.374796 1.56371 0
M  V30 12972 O 1265.45 -0.167402 1.73394 0
M  V30 12973 C 1262.58 -0.215461 3.40218 0
M  V30 12974 H 1263.78 1.42397 2.63938 0
M  V30 12975 H 1261.33 0.774933 1.35737 0
M  V30 12976 H 1262.06 -1.11581 3.045 0
M  V30 12977 H 1261.85 0.441173 3.8961 0
M  V30 12978 H 1263.34 -0.517517 4.14381 0
M  V30 12979 N 1263.78 -1.38018 0.760839 0
M  V30 12980 C 1265 -2.04231 0.331285 0
M  V30 12981 C 1265.42 -1.57385 -1.04285 0
M  V30 12982 O 1264.78 -0.750168 -1.66369 0
M  V30 12983 C 1264.83 -3.59772 0.353021 0
M  V30 12984 O 1264.55 -4.049 1.67294 0
M  V30 12985 C 1266.05 -4.4321 -0.0894942 0
M  V30 12986 H 1263.27 -0.656145 0.140408 0
M  V30 12987 H 1265.81 -1.76567 1.03172 0
M  V30 12988 H 1263.97 -3.86246 -0.298735 0
M  V30 12989 H 1264.38 -4.99369 1.60408 0
M  V30 12990 H 1265.86 -5.51995 -0.0231262 0
M  V30 12991 H 1266.33 -4.2419 -1.13839 0
M  V30 12992 H 1266.94 -4.21939 0.533661 0
M  V30 12993 N 1265.25 -0.510493 -1.49103 0
M  V30 12994 C 1266.5 0.030689 -2.02777 0
M  V30 12995 C 1266.83 1.35765 -1.38858 0
M  V30 12996 O 1266.11 1.87209 -0.527528 0
M  V30 12997 C 1266.39 0.173261 -3.59683 0
M  V30 12998 C 1266.24 -1.17749 -4.34114 0
M  V30 12999 C 1267.56 0.909395 -4.30602 0
M  V30 13000 H 1264.68 0.0096789 -0.736936 0
M  V30 13001 H 1267.32 -0.663746 -1.78029 0
M  V30 13002 H 1265.47 0.764721 -3.80899 0
M  V30 13003 H 1267.15 -1.80856 -4.24369 0
M  V30 13004 H 1265.39 -1.76438 -3.96298 0
M  V30 13005 H 1266.06 -1.03094 -5.42287 0
M  V30 13006 H 1268.54 0.407677 -4.14098 0
M  V30 13007 H 1267.41 0.978012 -5.40117 0
M  V30 13008 H 1267.67 1.9553 -3.96511 0
M  V30 13009 N 1266.73 1.55688 -0.24474 0
M  V30 13010 C 1267.96 2.03743 0.387776 0
M  V30 13011 C 1268.38 1.1229 1.50906 0
M  V30 13012 O 1267.74 0.115445 1.80932 0
M  V30 13013 C 1267.79 3.49825 0.874927 0
M  V30 13014 O 1266.89 3.61504 1.98466 0
M  V30 13015 H 1266.23 0.658561 0.0848107 0
M  V30 13016 H 1268.76 2.01224 -0.370165 0
M  V30 13017 H 1268.77 3.90603 1.17871 0
M  V30 13018 H 1267.45 4.15864 0.0543852 0
M  V30 13019 H 1266.02 3.32622 1.68574 0
M  V30 13020 N 1268.21 -0.0283989 1.57574 0
M  V30 13021 C 1269.16 -1.03669 2.03069 0
M  V30 13022 C 1270.14 -1.31994 0.920129 0
M  V30 13023 O 1271.34 -1.31568 1.18402 0
M  V30 13024 C 1268.46 -2.3376 2.51418 0
M  V30 13025 C 1267.55 -2.08522 3.69296 0
M  V30 13026 N 1267.94 -1.53345 4.81995 0
M  V30 13027 C 1266.24 -2.38803 3.76682 0
M  V30 13028 C 1266.94 -1.43926 5.63613 0
M  V30 13029 N 1265.92 -1.91507 5.0875 0
M  V30 13030 H 1269.72 -0.604097 2.87625 0
M  V30 13031 H 1267.23 -0.234689 1.60695 0
M  V30 13032 H 1269.23 -3.06804 2.82271 0
M  V30 13033 H 1267.89 -2.77698 1.68268 0
M  V30 13034 H 1268.9 -1.21607 5.0342 0
M  V30 13035 H 1265.58 -2.8581 3.04333 0
M  V30 13036 H 1266.97 -1.0175 6.64151 0
M  V30 13037 N 1269.69 -1.54705 -0.300681 0
M  V30 13038 C 1270.62 -1.8205 -1.39249 0
M  V30 13039 C 1271.63 -0.703476 -1.46816 0
M  V30 13040 O 1272.82 -0.980957 -1.49129 0
M  V30 13041 C 1269.92 -1.94376 -2.77617 0
M  V30 13042 C 1269.09 -3.2478 -2.92979 0
M  V30 13043 C 1268.15 -3.27518 -4.11848 0
M  V30 13044 O 1267.18 -4.01047 -4.03918 0
M  V30 13045 N 1268.38 -2.52932 -5.22499 0
M  V30 13046 H 1271.15 -2.76279 -1.16146 0
M  V30 13047 H 1268.71 -1.54283 -0.49075 0
M  V30 13048 H 1270.7 -1.93609 -3.55384 0
M  V30 13049 H 1269.27 -1.07141 -2.93666 0
M  V30 13050 H 1268.49 -3.38319 -2.02322 0
M  V30 13051 H 1269.78 -4.10835 -3.00153 0
M  V30 13052 H 1269.18 -1.92825 -5.31822 0
M  V30 13053 H 1267.73 -2.57919 -5.98599 0
M  V30 13054 N 1271.17 0.563888 -1.47167 0
M  V30 13055 C 1272.11 1.67151 -1.59152 0
M  V30 13056 C 1273.08 1.60307 -0.434852 0
M  V30 13057 O 1274.27 1.7924 -0.654049 0
M  V30 13058 C 1271.41 3.0548 -1.60549 0
M  V30 13059 C 1270.52 3.2281 -2.87085 0
M  V30 13060 C 1269.66 4.51498 -2.79862 0
M  V30 13061 C 1268.7 4.62237 -4.01252 0
M  V30 13062 N 1267.83 5.82273 -3.92305 0
M  V30 13063 H 1272.67 1.56245 -2.53755 0
M  V30 13064 H 1270.21 0.761219 -1.25872 0
M  V30 13065 H 1272.17 3.85572 -1.59343 0
M  V30 13066 H 1270.8 3.15237 -0.69464 0
M  V30 13067 H 1269.85 2.36196 -2.98188 0
M  V30 13068 H 1271.16 3.2661 -3.76997 0
M  V30 13069 H 1270.32 5.39842 -2.76867 0
M  V30 13070 H 1269.05 4.50166 -1.87621 0
M  V30 13071 H 1268.06 3.72307 -4.04558 0
M  V30 13072 H 1269.28 4.65334 -4.94612 0
M  V30 13073 H 1267.23 5.81902 -3.02862 0
M  V30 13074 H 1267.15 5.87422 -4.7589 0
M  V30 13075 H 1268.42 6.72996 -3.93315 0
M  V30 13076 N 1272.64 1.35187 0.810078 0
M  V30 13077 C 1273.89 1.28011 1.56389 0
M  V30 13078 C 1274.21 -0.14622 1.94451 0
M  V30 13079 O 1273.48 -1.08185 1.63318 0
M  V30 13080 H 1272.06 0.470837 0.579932 0
M  V30 13081 H 1274.73 1.69249 0.966476 0
M  V30 13082 H 1273.82 1.89362 2.4809 0
M  V30 13083 N 1274.12 -1.03182 1.19127 0
M  V30 13084 C 1275.07 -2.11394 0.926339 0
M  V30 13085 C 1276.04 -1.65528 -0.137703 0
M  V30 13086 O 1277.22 -1.908 0.00381804 0
M  V30 13087 C 1274.36 -3.41913 0.467894 0
M  V30 13088 C 1273.48 -4.01343 1.59837 0
M  V30 13089 C 1272.61 -5.1986 1.09175 0
M  V30 13090 C 1271.65 -5.71339 2.19632 0
M  V30 13091 N 1270.79 -6.81133 1.703 0
M  V30 13092 H 1275.63 -2.33393 1.85288 0
M  V30 13093 H 1273.17 -1.14473 0.923811 0
M  V30 13094 H 1275.12 -4.16796 0.183513 0
M  V30 13095 H 1273.75 -3.20034 -0.421656 0
M  V30 13096 H 1272.81 -3.23702 1.99803 0
M  V30 13097 H 1274.12 -4.35568 2.43068 0
M  V30 13098 H 1273.27 -6.0189 0.762427 0
M  V30 13099 H 1272.01 -4.87161 0.22914 0
M  V30 13100 H 1271.02 -4.87923 2.53399 0
M  V30 13101 H 1272.24 -6.06078 3.06344 0
M  V30 13102 H 1270.19 -6.50293 0.863415 0
M  V30 13103 H 1270.1 -7.1447 2.47122 0
M  V30 13104 H 1271.37 -7.66766 1.40321 0
M  V30 13105 N 1275.6 -0.99472 -1.22242 0
M  V30 13106 C 1277.01 -0.706456 -1.72818 0
M  V30 13107 C 1277.36 0.776566 -1.80177 0
M  V30 13108 O 1276.49 1.60698 -1.44931 0
M  V30 13109 C 1277.08 -1.27571 -3.13865 0
M  V30 13110 C 1275.64 -1.03679 -3.61839 0
M  V30 13111 C 1274.79 -1.3948 -2.39668 0
M  V30 13112 H 1277.74 -1.16687 -1.07564 0
M  V30 13113 H 1277.76 -0.655202 -3.74816 0
M  V30 13114 H 1277.27 -2.35508 -3.08476 0
M  V30 13115 H 1275.37 0.0258679 -3.72591 0
M  V30 13116 H 1275.49 -1.70145 -4.4787 0
M  V30 13117 H 1273.85 -0.813418 -2.41362 0
M  V30 13118 H 1274.63 -2.48425 -2.36939 0
M  V30 13119 N 1277.08 1.37613 -0.768148 0
M  V30 13120 C 1278.32 2.00075 -0.331331 0
M  V30 13121 C 1278.66 1.60839 1.08833 0
M  V30 13122 O 1277.93 0.852849 1.74805 0
M  V30 13123 C 1278.22 3.57009 -0.470789 0
M  V30 13124 C 1278.07 4.06166 -1.9326 0
M  V30 13125 C 1279.39 4.39916 0.127111 0
M  V30 13126 H 1276.51 0.726855 -0.121864 0
M  V30 13127 H 1279.15 1.63343 -0.970518 0
M  V30 13128 H 1277.3 3.88431 0.0733688 0
M  V30 13129 H 1278.97 3.85325 -2.53618 0
M  V30 13130 H 1277.21 3.58492 -2.44266 0
M  V30 13131 H 1277.88 5.15219 -1.98125 0
M  V30 13132 H 1280.36 4.14732 -0.337144 0
M  V30 13133 H 1279.24 5.489 -0.000624226 0
M  V30 13134 H 1279.5 4.25018 1.21704 0
M  V30 13135 N 1278.56 0.518393 1.4883 0
M  V30 13136 C 1279.97 0.0749773 1.86549 0
M  V30 13137 C 1280.32 -1.34429 1.4291 0
M  V30 13138 O 1279.44 -2.00481 0.814648 0
M  V30 13139 C 1280.04 0.129289 3.38553 0
M  V30 13140 C 1278.6 -0.258871 3.75509 0
M  V30 13141 C 1277.74 0.494185 2.72861 0
M  V30 13142 H 1280.7 0.730266 1.409 0
M  V30 13143 H 1280.72 -0.661844 3.747 0
M  V30 13144 H 1280.23 1.16237 3.70285 0
M  V30 13145 H 1278.33 -1.29453 3.49389 0
M  V30 13146 H 1278.44 0.0726769 4.79045 0
M  V30 13147 H 1276.81 -0.0581428 2.54634 0
M  V30 13148 H 1277.59 1.52767 3.07436 0
M  V30 13149 N 1280.03 -1.55556 0.252993 0
M  V30 13150 C 1281.45 -1.59276 -0.101714 0
M  V30 13151 C 1281.65 -1.27018 -1.56424 0
M  V30 13152 O 1280.71 -1.02042 -2.30963 0
M  V30 13153 C 1282.02 -2.99634 0.252969 0
M  V30 13154 C 1283.57 -3.12375 0.197767 0
M  V30 13155 C 1284.04 -4.54963 0.52657 0
M  V30 13156 N 1285.53 -4.60734 0.477296 0
M  V30 13157 C 1286.27 -5.69052 0.704793 0
M  V30 13158 N 1285.76 -6.85607 0.99574 0
M  V30 13159 N 1287.56 -5.58501 0.635086 0
M  V30 13160 H 1279.71 -1.74793 1.2067 0
M  V30 13161 H 1281.97 -0.813971 0.485958 0
M  V30 13162 H 1281.68 -3.27998 1.26926 0
M  V30 13163 H 1281.55 -3.74888 -0.416984 0
M  V30 13164 H 1283.94 -2.83788 -0.809209 0
M  V30 13165 H 1284.02 -2.39382 0.901659 0
M  V30 13166 H 1283.66 -4.84271 1.53113 0
M  V30 13167 H 1283.59 -5.26224 -0.198869 0
M  V30 13168 H 1286.08 -3.76995 0.261398 0
M  V30 13169 H 1286.4 -7.64096 1.15659 0
M  V30 13170 H 1284.74 -6.87276 1.03328 0
M  V30 13171 H 1287.93 -4.6632 0.407789 0
M  V30 13172 H 1288.11 -6.42845 0.815777 0
M  V30 13173 N 1281.51 0.0200419 -1.57587 0
M  V30 13174 C 1282.76 0.708115 -1.88861 0
M  V30 13175 C 1283.07 1.76036 -0.852693 0
M  V30 13176 O 1284.28 2.50165 -1.05497 0
M  V30 13177 C 1282.74 1.31057 -3.3519 0
M  V30 13178 C 1282.34 0.294202 -4.47033 0
M  V30 13179 C 1284.09 1.97799 -3.756 0
M  V30 13180 C 1282 0.905508 -5.84427 0
M  V30 13181 H 1280.93 0.268236 -0.704674 0
M  V30 13182 H 1283.58 -0.0372162 -1.83462 0
M  V30 13183 H 1281.96 2.1059 -3.35362 0
M  V30 13184 H 1283.13 -0.475081 -4.58344 0
M  V30 13185 H 1281.45 -0.271644 -4.15513 0
M  V30 13186 H 1284.04 2.44404 -4.75574 0
M  V30 13187 H 1284.39 2.80004 -3.08064 0
M  V30 13188 H 1284.92 1.25028 -3.77641 0
M  V30 13189 H 1281.66 0.122685 -6.55385 0
M  V30 13190 H 1281.18 1.64442 -5.76818 0
M  V30 13191 H 1282.86 1.41016 -6.31446 0
M  V30 13192 N 1282.99 1.54862 0.292472 0
M  V30 13193 C 1283.95 1.8565 1.34413 0
M  V30 13194 C 1284.95 0.729868 1.43281 0
M  V30 13195 O 1286.14 0.998128 1.42769 0
M  V30 13196 C 1283.28 2.0444 2.72795 0
M  V30 13197 H 1284.47 2.79642 1.08354 0
M  V30 13198 H 1282.02 1.47055 0.529574 0
M  V30 13199 H 1282.76 1.12765 3.04063 0
M  V30 13200 H 1282.54 2.86451 2.67747 0
M  V30 13201 H 1284.03 2.296 3.48817 0
M  V30 13202 N 1284.47 -0.556076 1.47464 0
M  V30 13203 C 1285.38 -1.69043 1.62671 0
M  V30 13204 C 1286.39 -1.66372 0.509535 0
M  V30 13205 O 1287.57 -1.85799 0.777218 0
M  V30 13206 C 1284.64 -3.05546 1.63836 0
M  V30 13207 C 1283.7 -3.19275 2.86988 0
M  V30 13208 C 1282.93 -4.49267 2.88088 0
M  V30 13209 O 1283.15 -5.34796 1.98368 0
M  V30 13210 O 1282.09 -4.66811 3.79962 0
M  V30 13211 H 1285.91 -1.59155 2.58657 0
M  V30 13212 H 1283.5 -0.726211 1.30562 0
M  V30 13213 H 1285.38 -3.86778 1.67275 0
M  V30 13214 H 1284.05 -3.15814 0.710173 0
M  V30 13215 H 1282.96 -2.37437 2.89093 0
M  V30 13216 H 1284.29 -3.13912 3.79104 0
M  V30 13217 N 1285.95 -1.35615 -0.802897 0
M  V30 13218 C 1286.88 -1.31506 -1.92947 0
M  V30 13219 C 1287.86 -0.188843 -1.69048 0
M  V30 13220 O 1289.04 -0.384384 -1.90358 0
M  V30 13221 C 1286.17 -1.09001 -3.29752 0
M  V30 13222 C 1285.13 -2.18303 -3.68141 0
M  V30 13223 C 1284.45 -1.80959 -5.03148 0
M  V30 13224 C 1285.75 -3.60296 -3.78132 0
M  V30 13225 H 1287.45 -2.25771 -1.96642 0
M  V30 13226 H 1284.99 -1.08682 -0.944685 0
M  V30 13227 H 1286.95 -1.04766 -4.08169 0
M  V30 13228 H 1285.67 -0.111832 -3.26408 0
M  V30 13229 H 1284.33 -2.21642 -2.92011 0
M  V30 13230 H 1283.98 -0.817495 -4.96312 0
M  V30 13231 H 1283.68 -2.54129 -5.29804 0
M  V30 13232 H 1285.2 -1.78255 -5.84001 0
M  V30 13233 H 1286.62 -3.59259 -4.46773 0
M  V30 13234 H 1285.01 -4.32258 -4.16261 0
M  V30 13235 H 1286.08 -3.9618 -2.79588 0
M  V30 13236 N 1287.43 1.02549 -1.19673 0
M  V30 13237 C 1288.36 2.10513 -0.880879 0
M  V30 13238 C 1289.34 1.61776 0.163455 0
M  V30 13239 O 1290.52 1.8846 0.0390085 0
M  V30 13240 C 1287.65 3.37195 -0.318936 0
M  V30 13241 C 1286.69 4.04808 -1.34286 0
M  V30 13242 S 1287.53 4.49881 -2.90461 0
M  V30 13243 C 1288.68 5.79776 -2.35819 0
M  V30 13244 H 1288.92 2.3698 -1.7952 0
M  V30 13245 H 1286.45 1.15537 -1.02423 0
M  V30 13246 H 1288.41 4.105 -0.00124931 0
M  V30 13247 H 1287.07 3.08815 0.573749 0
M  V30 13248 H 1286.26 4.9592 -0.898859 0
M  V30 13249 H 1285.86 3.37688 -1.60756 0
M  V30 13250 H 1288.15 6.54501 -1.75026 0
M  V30 13251 H 1289.1 6.2896 -3.25292 0
M  V30 13252 H 1289.51 5.35611 -1.78272 0
M  V30 13253 N 1288.9 1.00119 1.21713 0
M  V30 13254 C 1290.18 0.597366 1.86255 0
M  V30 13255 C 1290.56 -0.925124 1.89749 0
M  V30 13256 O 1289.91 -1.8105 1.39402 0
M  V30 13257 C 1290.12 1.22735 3.26707 0
M  V30 13258 C 1291.47 1.33307 4.03131 0
M  V30 13259 O 1292.49 1.18237 3.36003 0
M  V30 13260 O 1291.35 1.57509 5.2331 0
M  V30 13261 H 1288.44 0.204091 0.801421 0
M  V30 13262 H 1290.99 1.09759 1.29426 0
M  V30 13263 H 1289.76 2.26837 3.18843 0
M  V30 13264 H 1289.38 0.713232 3.91151 0
M  V30 13265 N 1290.38 -1.37203 0.775435 0
M  V30 13266 C 1291.33 -2.30228 0.162388 0
M  V30 13267 C 1292.3 -1.51284 -0.685747 0
M  V30 13268 O 1293.48 -1.7984 -0.637342 0
M  V30 13269 C 1290.62 -3.37762 -0.707858 0
M  V30 13270 C 1289.74 -4.31714 0.157287 0
M  V30 13271 C 1288.87 -5.26325 -0.718012 0
M  V30 13272 C 1287.91 -6.11918 0.149442 0
M  V30 13273 N 1287.05 -6.9876 -0.684043 0
M  V30 13274 H 1291.89 -2.82073 0.961184 0
M  V30 13275 H 1289.42 -1.38854 0.485587 0
M  V30 13276 H 1291.38 -3.98741 -1.22726 0
M  V30 13277 H 1290.01 -2.87273 -1.47222 0
M  V30 13278 H 1289.06 -3.7201 0.794533 0
M  V30 13279 H 1290.38 -4.91909 0.826262 0
M  V30 13280 H 1289.53 -5.92526 -1.30376 0
M  V30 13281 H 1288.27 -4.6655 -1.42066 0
M  V30 13282 H 1287.27 -5.44692 0.747697 0
M  V30 13283 H 1288.5 -6.73766 0.849476 0
M  V30 13284 H 1286.45 -6.41508 -1.37124 0
M  V30 13285 H 1286.36 -7.55965 -0.0724464 0
M  V30 13286 H 1287.63 -7.69346 -1.25407 0
M  V30 13287 N 1291.86 -0.526279 -1.48553 0
M  V30 13288 C 1292.81 0.238513 -2.29564 0
M  V30 13289 C 1293.78 0.937222 -1.37133 0
M  V30 13290 O 1294.96 0.93897 -1.66096 0
M  V30 13291 C 1292.1 1.28173 -3.20415 0
M  V30 13292 C 1291.21 0.592244 -4.27921 0
M  V30 13293 C 1290.35 1.61808 -5.05956 0
M  V30 13294 C 1289.39 0.911846 -6.0527 0
M  V30 13295 N 1288.53 1.88305 -6.76377 0
M  V30 13296 H 1293.37 -0.458502 -2.94452 0
M  V30 13297 H 1290.9 -0.237948 -1.45163 0
M  V30 13298 H 1292.86 1.89883 -3.71484 0
M  V30 13299 H 1291.49 1.94718 -2.57458 0
M  V30 13300 H 1290.54 -0.138714 -3.80147 0
M  V30 13301 H 1291.85 0.0375427 -4.98786 0
M  V30 13302 H 1291.01 2.30956 -5.61021 0
M  V30 13303 H 1289.75 2.20667 -4.34922 0
M  V30 13304 H 1288.75 0.206273 -5.49413 0
M  V30 13305 H 1289.98 0.329415 -6.78301 0
M  V30 13306 H 1287.92 2.46079 -6.08096 0
M  V30 13307 H 1287.84 1.37969 -7.43304 0
M  V30 13308 H 1289.11 2.56663 -7.36033 0
M  V30 13309 N 1293.34 1.5542 -0.261239 0
M  V30 13310 C 1294.27 2.24949 0.626126 0
M  V30 13311 C 1295.25 1.23474 1.16997 0
M  V30 13312 O 1296.43 1.52161 1.20667 0
M  V30 13313 C 1293.56 2.95996 1.81669 0
M  V30 13314 C 1292.52 4.04282 1.40499 0
M  V30 13315 C 1291.84 4.62831 2.67753 0
M  V30 13316 C 1293.14 5.1923 0.56543 0
M  V30 13317 H 1294.84 2.99364 0.0463164 0
M  V30 13318 H 1292.38 1.43985 0.0208366 0
M  V30 13319 H 1294.34 3.43343 2.44323 0
M  V30 13320 H 1293.06 2.19093 2.42211 0
M  V30 13321 H 1291.72 3.57726 0.801712 0
M  V30 13322 H 1291.37 3.82611 3.26524 0
M  V30 13323 H 1291.07 5.35938 2.40925 0
M  V30 13324 H 1292.59 5.12918 3.31281 0
M  V30 13325 H 1294.01 5.62714 1.09663 0
M  V30 13326 H 1292.4 5.98814 0.392607 0
M  V30 13327 H 1293.47 4.83086 -0.419059 0
M  V30 13328 N 1294.82 -0.0116844 1.57596 0
M  V30 13329 C 1296.23 -0.55604 1.78228 0
M  V30 13330 C 1296.58 -1.74624 0.894474 0
M  V30 13331 O 1295.7 -2.16196 0.0938498 0
M  V30 13332 C 1296.3 -1.0155 3.23223 0
M  V30 13333 C 1294.86 -1.50525 3.44992 0
M  V30 13334 C 1294 -0.451133 2.73606 0
M  V30 13335 H 1296.95 0.214516 1.57243 0
M  V30 13336 H 1296.98 -1.88208 3.30693 0
M  V30 13337 H 1296.49 -0.149048 3.87814 0
M  V30 13338 H 1294.59 -2.39298 2.856 0
M  V30 13339 H 1294.7 -1.54076 4.53649 0
M  V30 13340 H 1293.07 -0.910135 2.37884 0
M  V30 13341 H 1293.85 0.406152 3.40889 0
M  V30 13342 N 1296.29 -1.55015 -0.284256 0
M  V30 13343 C 1297.52 -1.79431 -1.04016 0
M  V30 13344 C 1297.94 -0.560254 -1.79563 0
M  V30 13345 O 1297.3 0.489804 -1.74558 0
M  V30 13346 C 1297.35 -3.01162 -1.98328 0
M  V30 13347 O 1296.45 -2.75459 -3.06914 0
M  V30 13348 H 1295.79 -0.593391 -0.297965 0
M  V30 13349 H 1298.32 -2.02136 -0.316585 0
M  V30 13350 H 1298.33 -3.29589 -2.40489 0
M  V30 13351 H 1297.01 -3.90634 -1.42751 0
M  V30 13352 H 1295.59 -2.58096 -2.69148 0
M  V30 13353 N 1297.77 0.548248 -1.47757 0
M  V30 13354 C 1299.02 1.30501 -1.54841 0
M  V30 13355 C 1299.35 1.93314 -0.214476 0
M  V30 13356 O 1298.6 1.7889 0.793526 0
M  V30 13357 C 1298.9 2.42911 -2.62162 0
M  V30 13358 C 1298.57 1.97871 -4.05164 0
M  V30 13359 C 1297.23 1.85304 -4.4409 0
M  V30 13360 C 1299.58 1.63606 -4.94856 0
M  V30 13361 C 1296.91 1.36781 -5.70533 0
M  V30 13362 C 1299.26 1.16552 -6.2177 0
M  V30 13363 C 1297.92 1.02588 -6.5957 0
M  V30 13364 H 1297.19 0.477536 -0.566604 0
M  V30 13365 H 1299.84 0.613837 -1.81395 0
M  V30 13366 H 1298.15 3.17622 -2.29398 0
M  V30 13367 H 1299.84 3.01078 -2.64864 0
M  V30 13368 H 1296.43 2.08597 -3.74413 0
M  V30 13369 H 1300.62 1.72184 -4.65474 0
M  V30 13370 H 1295.87 1.24641 -5.9856 0
M  V30 13371 H 1300.05 0.891041 -6.90676 0
M  V30 13372 H 1297.67 0.647675 -7.57436 0
M  V30 13373 N 1299.25 1.36039 0.795694 0
M  V30 13374 C 1300.5 1.29663 1.55023 0
M  V30 13375 C 1300.82 -0.125588 1.94595 0
M  V30 13376 O 1300.09 -1.06447 1.64456 0
M  V30 13377 H 1298.67 0.476962 0.574906 0
M  V30 13378 H 1301.33 1.70265 0.948471 0
M  V30 13379 H 1300.43 1.91982 2.46068 0
M  V30 13380 N 1300.73 -1.01913 1.20215 0
M  V30 13381 C 1302.14 -1.5692 1.01159 0
M  V30 13382 C 1302.49 -1.91368 -0.432746 0
M  V30 13383 O 1301.62 -1.71959 -1.31374 0
M  V30 13384 C 1302.21 -2.85125 1.83001 0
M  V30 13385 C 1300.77 -3.36669 1.68318 0
M  V30 13386 C 1299.92 -2.10003 1.81091 0
M  V30 13387 H 1302.87 -0.843246 1.34443 0
M  V30 13388 H 1302.89 -3.56428 1.33188 0
M  V30 13389 H 1302.4 -2.60021 2.88116 0
M  V30 13390 H 1300.5 -3.66739 0.658292 0
M  V30 13391 H 1300.61 -4.09042 2.49442 0
M  V30 13392 H 1298.98 -2.22337 1.24252 0
M  V30 13393 H 1299.76 -1.87329 2.87685 0
M  V30 13394 N 1302.21 -1.00763 -1.2118 0
M  V30 13395 C 1303.44 -0.709715 -1.94027 0
M  V30 13396 C 1303.84 0.732135 -1.7446 0
M  V30 13397 O 1303.19 1.50731 -1.05004 0
M  V30 13398 C 1303.25 -0.95427 -3.46603 0
M  V30 13399 C 1302.91 -2.38347 -3.89923 0
M  V30 13400 C 1303.91 -3.36383 -3.96412 0
M  V30 13401 C 1301.6 -2.72183 -4.22163 0
M  V30 13402 C 1303.59 -4.66321 -4.34538 0
M  V30 13403 C 1301.28 -4.02336 -4.59966 0
M  V30 13404 C 1302.27 -4.99216 -4.66125 0
M  V30 13405 O 1301.96 -6.27041 -5.03065 0
M  V30 13406 H 1301.69 -0.260545 -0.623773 0
M  V30 13407 H 1304.25 -1.34922 -1.54872 0
M  V30 13408 H 1302.48 -0.257599 -3.85841 0
M  V30 13409 H 1304.17 -0.649333 -4.00673 0
M  V30 13410 H 1304.93 -3.11578 -3.71677 0
M  V30 13411 H 1300.81 -1.97468 -4.16566 0
M  V30 13412 H 1304.36 -5.41938 -4.3926 0
M  V30 13413 H 1300.25 -4.26924 -4.84155 0
M  V30 13414 H 1301.02 -6.31196 -5.21089 0
M  V30 13415 N 1303.68 1.3679 -0.7827 0
M  V30 13416 C 1304.61 2.32721 -0.190604 0
M  V30 13417 C 1305.6 1.56321 0.670663 0
M  V30 13418 O 1306.78 1.84507 0.605871 0
M  V30 13419 C 1303.91 3.40564 0.680717 0
M  V30 13420 C 1302.86 4.27925 -0.080118 0
M  V30 13421 C 1302.19 5.26876 0.911361 0
M  V30 13422 C 1303.49 5.06738 -1.26545 0
M  V30 13423 H 1305.18 2.82488 -0.992023 0
M  V30 13424 H 1302.73 1.35818 -0.478484 0
M  V30 13425 H 1304.68 4.06659 1.10482 0
M  V30 13426 H 1303.41 2.89348 1.51477 0
M  V30 13427 H 1302.07 3.63376 -0.485125 0
M  V30 13428 H 1301.71 4.71936 1.74026 0
M  V30 13429 H 1301.41 5.8619 0.406762 0
M  V30 13430 H 1302.94 5.95846 1.33418 0
M  V30 13431 H 1304.35 5.65911 -0.917448 0
M  V30 13432 H 1302.75 5.75432 -1.70289 0
M  V30 13433 H 1303.82 4.38772 -2.06415 0
M  V30 13434 N 1305.16 0.53415 1.48272 0
M  V30 13435 C 1306.07 -0.230062 2.33469 0
M  V30 13436 C 1307.09 -0.934889 1.46751 0
M  V30 13437 O 1308.26 -0.908921 1.79724 0
M  V30 13438 C 1305.33 -1.2609 3.22958 0
M  V30 13439 C 1304.39 -0.565983 4.25553 0
M  V30 13440 C 1303.62 -1.54771 5.10766 0
M  V30 13441 O 1303.85 -2.7807 4.9803 0
M  V30 13442 O 1302.78 -1.08482 5.92043 0
M  V30 13443 H 1306.61 0.468182 3.0007 0
M  V30 13444 H 1304.19 0.29502 1.46458 0
M  V30 13445 H 1306.07 -1.85652 3.783 0
M  V30 13446 H 1304.75 -1.94148 2.59014 0
M  V30 13447 H 1303.66 0.0702391 3.74034 0
M  V30 13448 H 1304.99 0.0727277 4.92146 0
M  V30 13449 N 1306.64 -1.55279 0.269478 0
M  V30 13450 C 1307.57 -2.19684 -0.653573 0
M  V30 13451 C 1308.59 -1.17985 -1.12176 0
M  V30 13452 O 1309.77 -1.44739 -1.04464 0
M  V30 13453 C 1306.87 -2.80438 -1.90284 0
M  V30 13454 C 1306.05 -4.07774 -1.58239 0
M  V30 13455 C 1305.11 -4.52629 -2.68354 0
M  V30 13456 O 1304.13 -5.18524 -2.3478 0
M  V30 13457 N 1305.33 -4.22297 -3.98303 0
M  V30 13458 H 1308.1 -2.99525 -0.102379 0
M  V30 13459 H 1305.66 -1.61648 0.0903465 0
M  V30 13460 H 1307.65 -3.07392 -2.63234 0
M  V30 13461 H 1306.22 -2.04622 -2.36323 0
M  V30 13462 H 1305.44 -3.88168 -0.686983 0
M  V30 13463 H 1306.73 -4.90749 -1.34323 0
M  V30 13464 H 1306.13 -3.69441 -4.28404 0
M  V30 13465 H 1304.69 -4.54035 -4.67649 0
M  V30 13466 N 1308.12 0.00332656 -1.576 0
M  V30 13467 C 1309.53 0.359361 -1.55502 0
M  V30 13468 C 1309.73 1.74997 -0.998914 0
M  V30 13469 O 1308.79 2.44482 -0.631263 0
M  V30 13470 C 1310.1 0.237638 -2.9976 0
M  V30 13471 C 1311.65 0.312824 -3.11433 0
M  V30 13472 C 1312.13 0.220262 -4.5747 0
M  V30 13473 N 1313.62 0.278265 -4.62363 0
M  V30 13474 C 1314.35 0.229933 -5.72939 0
M  V30 13475 N 1313.85 0.132391 -6.92673 0
M  V30 13476 N 1315.64 0.281555 -5.61394 0
M  V30 13477 H 1307.79 -0.906404 -1.92089 0
M  V30 13478 H 1310.06 -0.347129 -0.88216 0
M  V30 13479 H 1309.76 -0.719007 -3.44272 0
M  V30 13480 H 1309.64 1.02105 -3.63118 0
M  V30 13481 H 1312.02 1.25991 -2.66852 0
M  V30 13482 H 1312.1 -0.500395 -2.50858 0
M  V30 13483 H 1311.75 -0.723267 -5.02724 0
M  V30 13484 H 1311.68 1.05192 -5.15987 0
M  V30 13485 H 1314.17 0.35512 -3.76228 0
M  V30 13486 H 1314.48 0.101317 -7.72734 0
M  V30 13487 H 1312.83 0.0980665 -6.94931 0
M  V30 13488 H 1316.02 0.355931 -4.66745 0
M  V30 13489 H 1316.19 0.240423 -6.47554 0
M  V30 13490 N 1309.6 1.55164 0.276031 0
M  V30 13491 C 1310.54 1.87836 1.34113 0
M  V30 13492 C 1311.51 0.729562 1.4922 0
M  V30 13493 O 1312.7 0.980549 1.63676 0
M  V30 13494 C 1309.84 2.15313 2.69693 0
M  V30 13495 C 1308.95 3.42845 2.62833 0
M  V30 13496 C 1308.09 3.60038 3.90572 0
M  V30 13497 C 1307.13 4.81273 3.7821 0
M  V30 13498 N 1306.26 4.95139 4.97777 0
M  V30 13499 H 1311.1 2.78681 1.0555 0
M  V30 13500 H 1308.64 1.37976 0.510001 0
M  V30 13501 H 1310.6 2.29243 3.48573 0
M  V30 13502 H 1309.23 1.27706 2.96464 0
M  V30 13503 H 1308.28 3.37403 1.75679 0
M  V30 13504 H 1309.59 4.3186 2.49597 0
M  V30 13505 H 1308.75 3.73769 4.77893 0
M  V30 13506 H 1307.48 2.69203 4.06671 0
M  V30 13507 H 1306.49 4.67549 2.89271 0
M  V30 13508 H 1307.71 5.7354 3.63632 0
M  V30 13509 H 1305.66 4.07234 5.14292 0
M  V30 13510 H 1305.58 5.78194 4.8706 0
M  V30 13511 H 1306.85 5.13253 5.86679 0
M  V30 13512 N 1311.07 -0.540404 1.48045 0
M  V30 13513 C 1312.02 -1.64598 1.61791 0
M  V30 13514 C 1312.99 -1.59595 0.460301 0
M  V30 13515 O 1314.18 -1.78176 0.682482 0
M  V30 13516 C 1311.32 -3.02887 1.65389 0
M  V30 13517 C 1310.43 -3.18202 2.92184 0
M  V30 13518 C 1309.56 -4.46989 2.87009 0
M  V30 13519 C 1308.6 -4.55795 4.08555 0
M  V30 13520 N 1307.74 -5.75958 4.01518 0
M  V30 13521 H 1312.58 -1.52188 2.56208 0
M  V30 13522 H 1310.12 -0.741097 1.27068 0
M  V30 13523 H 1312.08 -3.82988 1.65457 0
M  V30 13524 H 1310.71 -3.14092 0.744703 0
M  V30 13525 H 1309.76 -2.31422 3.01907 0
M  V30 13526 H 1311.07 -3.20571 3.82146 0
M  V30 13527 H 1310.22 -5.35369 2.85421 0
M  V30 13528 H 1308.96 -4.47125 1.94759 0
M  V30 13529 H 1307.97 -3.65824 4.1043 0
M  V30 13530 H 1309.19 -4.57406 5.01953 0
M  V30 13531 H 1307.14 -5.77011 3.12081 0
M  V30 13532 H 1307.06 -5.79777 4.85175 0
M  V30 13533 H 1308.32 -6.66653 4.03972 0
M  V30 13534 N 1312.55 -1.36459 -0.788468 0
M  V30 13535 C 1313.8 -1.3007 -1.54158 0
M  V30 13536 C 1314.11 0.117574 -1.95246 0
M  V30 13537 O 1315.32 0.303837 -2.69795 0
M  V30 13538 C 1313.78 -2.28216 -2.78291 0
M  V30 13539 C 1313.38 -3.75484 -2.44368 0
M  V30 13540 C 1315.13 -2.30806 -3.56271 0
M  V30 13541 C 1313.04 -4.65404 -3.64902 0
M  V30 13542 H 1311.97 -0.483345 -0.5787 0
M  V30 13543 H 1314.62 -1.61827 -0.865123 0
M  V30 13544 H 1313 -1.89454 -3.4774 0
M  V30 13545 H 1314.17 -4.22986 -1.82809 0
M  V30 13546 H 1312.49 -3.75678 -1.79597 0
M  V30 13547 H 1315.08 -2.95196 -4.45829 0
M  V30 13548 H 1315.43 -1.31687 -3.94923 0
M  V30 13549 H 1315.96 -2.68189 -2.93802 0
M  V30 13550 H 1312.7 -5.65589 -3.31344 0
M  V30 13551 H 1312.22 -4.22617 -4.25623 0
M  V30 13552 H 1313.9 -4.81721 -4.31919 0
M  V30 13553 N 1314.03 1.01274 -1.20754 0
M  V30 13554 C 1315.28 1.74342 -1.01428 0
M  V30 13555 C 1315.59 1.90265 0.453708 0
M  V30 13556 O 1316.8 2.60465 0.76618 0
M  V30 13557 C 1315.25 3.13588 -1.76609 0
M  V30 13558 C 1314.86 3.05664 -3.27526 0
M  V30 13559 C 1316.61 3.9084 -1.65664 0
M  V30 13560 C 1314.51 4.39942 -3.95228 0
M  V30 13561 H 1313.44 0.653619 -0.375897 0
M  V30 13562 H 1316.09 1.13214 -1.44412 0
M  V30 13563 H 1314.48 3.75281 -1.26413 0
M  V30 13564 H 1315.65 2.53256 -3.84965 0
M  V30 13565 H 1313.97 2.41904 -3.38927 0
M  V30 13566 H 1316.56 4.9019 -2.13583 0
M  V30 13567 H 1316.91 4.11754 -0.61351 0
M  V30 13568 H 1317.44 3.35783 -2.13294 0
M  V30 13569 H 1314.18 4.24229 -4.9971 0
M  V30 13570 H 1313.7 4.92342 -3.42578 0
M  V30 13571 H 1315.38 5.08771 -3.99701 0
M  V30 13572 N 1315.51 1.01404 1.20644 0
M  V30 13573 C 1316.47 0.586941 2.21557 0
M  V30 13574 C 1317.47 -0.341543 1.57131 0
M  V30 13575 O 1318.66 -0.130585 1.7371 0
M  V30 13576 C 1315.79 -0.143248 3.40599 0
M  V30 13577 H 1316.99 1.47964 2.60858 0
M  V30 13578 H 1314.54 0.803551 1.34063 0
M  V30 13579 H 1315.28 -1.05097 3.06798 0
M  V30 13580 H 1315.06 0.523716 3.88587 0
M  V30 13581 H 1316.55 -0.429504 4.15385 0
M  V30 13582 N 1316.99 -1.36373 0.789944 0
M  V30 13583 C 1317.9 -2.3383 0.189873 0
M  V30 13584 C 1318.91 -1.61068 -0.65827 0
M  V30 13585 O 1320.09 -1.93049 -0.573932 0
M  V30 13586 C 1317.15 -3.40264 -0.664905 0
M  V30 13587 C 1316.22 -4.28825 0.201798 0
M  V30 13588 C 1315.45 -5.30176 -0.612278 0
M  V30 13589 O 1315.67 -5.39627 -1.84821 0
M  V30 13590 O 1314.61 -6.01899 -0.0118964 0
M  V30 13591 H 1318.43 -2.86915 0.995671 0
M  V30 13592 H 1316.02 -1.38852 0.551412 0
M  V30 13593 H 1317.9 -4.05339 -1.15231 0
M  V30 13594 H 1316.57 -2.89478 -1.44858 0
M  V30 13595 H 1315.48 -3.66789 0.735974 0
M  V30 13596 H 1316.81 -4.82965 0.949003 0
M  V30 13597 N 1318.47 -0.542005 -1.47987 0
M  V30 13598 C 1319.41 0.227398 -2.31486 0
M  V30 13599 C 1320.41 0.923984 -1.41982 0
M  V30 13600 O 1321.61 0.847 -1.58827 0
M  V30 13601 H 1317.99 0.0922034 -0.746326 0
M  V30 13602 H 1319.96 -0.49625 -2.94245 0
M  V30 13603 C 1318.71 1.25384 -3.24306 0
M  V30 13604 H 1318.03 0.727243 -3.9313 0
M  V30 13605 H 1319.47 1.76337 -3.85592 0
M  V30 13606 C 1317.93 2.29378 -2.46754 0
M  V30 13607 O 1318.46 3.36034 -2.201 0
M  V30 13608 N 1316.67 2.02905 -2.08033 0
M  V30 13609 H 1316.21 1.16186 -2.2991 0
M  V30 13610 H 1316.17 2.72705 -1.56458 0
M  V30 13611 N 1319.94 1.55134 -0.277709 0
M  V30 13612 C 1320.89 2.2263 0.608637 0
M  V30 13613 C 1321.86 1.20067 1.14774 0
M  V30 13614 O 1323.05 1.48617 1.19657 0
M  V30 13615 C 1320.19 2.95308 1.78571 0
M  V30 13616 C 1319.3 4.12595 1.28021 0
M  V30 13617 C 1318.43 4.7291 2.41929 0
M  V30 13618 C 1317.47 5.82386 1.88395 0
M  V30 13619 N 1316.61 6.36754 2.95786 0
M  V30 13620 H 1321.45 2.97988 0.0264138 0
M  V30 13621 H 1318.99 1.471 0.00127068 0
M  V30 13622 H 1320.94 3.35662 2.47764 0
M  V30 13623 H 1319.57 2.22368 2.33992 0
M  V30 13624 H 1318.63 3.77343 0.481297 0
M  V30 13625 H 1319.94 4.91537 0.848128 0
M  V30 13626 H 1319.09 5.15997 3.1911 0
M  V30 13627 H 1317.83 3.93251 2.88453 0
M  V30 13628 H 1316.84 5.38746 1.09694 0
M  V30 13629 H 1318.06 6.63916 1.42803 0
M  V30 13630 H 1316.01 5.59987 3.41687 0
M  V30 13631 H 1315.92 7.10975 2.57002 0
M  V30 13632 H 1317.19 6.845 3.72935 0
M  V30 13633 N 1321.42 0.00503138 1.57599 0
M  V30 13634 C 1322.67 -0.677979 1.89964 0
M  V30 13635 C 1322.98 -1.74657 0.88059 0
M  V30 13636 O 1324.19 -2.48455 1.09463 0
M  V30 13637 C 1322.65 -1.25708 3.37232 0
M  V30 13638 C 1322.25 -0.223045 4.47444 0
M  V30 13639 C 1324 -1.91799 3.787 0
M  V30 13640 C 1321.9 -0.812416 5.85793 0
M  V30 13641 H 1320.83 -0.256991 0.708852 0
M  V30 13642 H 1323.49 0.0663988 1.8338 0
M  V30 13643 H 1321.87 -2.05228 3.3867 0
M  V30 13644 H 1323.04 0.54794 4.57531 0
M  V30 13645 H 1321.36 0.337714 4.15028 0
M  V30 13646 H 1323.95 -2.36808 4.79402 0
M  V30 13647 H 1324.3 -2.75067 3.1248 0
M  V30 13648 H 1324.83 -1.19004 3.79583 0
M  V30 13649 H 1321.57 -0.0184031 6.55497 0
M  V30 13650 H 1321.09 -1.55244 5.79361 0
M  V30 13651 H 1322.77 -1.30952 6.33609 0
M  V30 13652 N 1322.9 -1.55308 -0.267798 0
M  V30 13653 C 1324.32 -1.47264 -0.61526 0
M  V30 13654 C 1324.52 -0.691025 -1.8928 0
M  V30 13655 O 1323.57 -0.211964 -2.51609 0
M  V30 13656 C 1324.88 -2.91519 -0.73739 0
M  V30 13657 C 1326.43 -3.01764 -0.831102 0
M  V30 13658 C 1326.91 -4.47283 -0.984965 0
M  V30 13659 N 1328.4 -4.51134 -1.05036 0
M  V30 13660 C 1329.13 -5.60952 -1.1883 0
M  V30 13661 N 1328.63 -6.80625 -1.29311 0
M  V30 13662 N 1330.42 -5.48705 -1.21982 0
M  V30 13663 H 1322.57 -2.04577 0.57114 0
M  V30 13664 H 1324.84 -0.927908 0.194141 0
M  V30 13665 H 1324.54 -3.51456 0.130974 0
M  V30 13666 H 1324.42 -3.40829 -1.61603 0
M  V30 13667 H 1326.8 -2.4192 -1.68993 0
M  V30 13668 H 1326.88 -2.55698 0.0722509 0
M  V30 13669 H 1326.53 -5.07732 -0.130776 0
M  V30 13670 H 1326.46 -4.91011 -1.90305 0
M  V30 13671 H 1328.95 -3.6493 -0.981551 0
M  V30 13672 H 1329.26 -7.60071 -1.39685 0
M  V30 13673 H 1327.61 -6.83426 -1.26306 0
M  V30 13674 H 1330.8 -4.5415 -1.13428 0
M  V30 13675 H 1330.97 -6.34332 -1.32388 0
M  V30 13676 N 1324.38 0.532545 -1.4833 0
M  V30 13677 C 1325.31 1.64662 -1.65555 0
M  V30 13678 C 1326.29 1.62447 -0.50447 0
M  V30 13679 O 1327.47 1.79684 -0.736712 0
M  V30 13680 C 1324.6 3.03256 -1.69272 0
M  V30 13681 C 1323.56 3.20329 -2.83854 0
M  V30 13682 C 1322.88 4.59958 -2.72659 0
M  V30 13683 C 1324.18 3.03345 -4.25181 0
M  V30 13684 H 1325.88 1.50502 -2.58823 0
M  V30 13685 H 1323.42 0.722612 -1.24556 0
M  V30 13686 H 1325.38 3.81064 -1.79911 0
M  V30 13687 H 1324.1 3.18433 -0.725805 0
M  V30 13688 H 1322.76 2.44937 -2.72766 0
M  V30 13689 H 1322.41 4.71967 -1.73942 0
M  V30 13690 H 1322.11 4.72327 -3.49544 0
M  V30 13691 H 1323.63 5.39869 -2.85262 0
M  V30 13692 H 1325.05 3.70948 -4.37116 0
M  V30 13693 H 1323.44 3.27208 -5.03045 0
M  V30 13694 H 1324.51 1.998 -4.41824 0
M  V30 13695 N 1325.86 1.36875 0.78122 0
M  V30 13696 C 1326.8 1.31869 1.89418 0
M  V30 13697 C 1327.77 0.185904 1.65056 0
M  V30 13698 O 1328.96 0.373745 1.87104 0
M  V30 13699 C 1326.1 1.12205 3.2635 0
M  V30 13700 C 1325.21 2.34631 3.62729 0
M  V30 13701 C 1324.35 2.07914 4.8882 0
M  V30 13702 C 1323.38 3.26257 5.17902 0
M  V30 13703 N 1322.52 2.99152 6.35179 0
M  V30 13704 H 1327.36 2.2703 1.93032 0
M  V30 13705 H 1324.9 1.12826 0.943857 0
M  V30 13706 H 1326.86 0.988282 4.05326 0
M  V30 13707 H 1325.49 0.206959 3.22136 0
M  V30 13708 H 1324.54 2.58782 2.78812 0
M  V30 13709 H 1325.85 3.22919 3.80164 0
M  V30 13710 H 1325 1.91514 5.7568 0
M  V30 13711 H 1323.74 1.1695 4.7347 0
M  V30 13712 H 1322.75 3.43207 4.29522 0
M  V30 13713 H 1323.97 4.1806 5.35166 0
M  V30 13714 H 1321.92 2.10807 6.21205 0
M  V30 13715 H 1321.84 3.80981 6.52985 0
M  V30 13716 H 1323.1 2.86349 7.25 0
M  V30 13717 N 1327.33 -1.00632 1.21289 0
M  V30 13718 C 1328.24 -2.12829 0.986957 0
M  V30 13719 C 1329.26 -1.73895 -0.0605152 0
M  V30 13720 O 1330.44 -2.00985 0.129238 0
M  V30 13721 C 1327.5 -3.4226 0.553089 0
M  V30 13722 C 1326.56 -3.95376 1.67262 0
M  V30 13723 C 1325.79 -5.18629 1.25936 0
M  V30 13724 O 1326.02 -5.70246 0.132402 0
M  V30 13725 O 1324.95 -5.65157 2.07077 0
M  V30 13726 H 1328.78 -2.34765 1.92663 0
M  V30 13727 H 1326.36 -1.11208 0.997654 0
M  V30 13728 H 1328.24 -4.20177 0.320856 0
M  V30 13729 H 1326.92 -3.21716 -0.357881 0
M  V30 13730 H 1325.83 -3.18692 1.95924 0
M  V30 13731 H 1327.16 -4.20328 2.56097 0
M  V30 13732 N 1328.81 -1.02043 -1.20104 0
M  V30 13733 C 1329.74 -0.552093 -2.22451 0
M  V30 13734 C 1330.76 0.367547 -1.58597 0
M  V30 13735 O 1331.95 0.165285 -1.77733 0
M  V30 13736 C 1329.05 0.215833 -3.38212 0
M  V30 13737 C 1328.22 -0.70666 -4.31654 0
M  V30 13738 C 1327.28 0.0143628 -5.26198 0
M  V30 13739 O 1326.3 -0.609413 -5.65928 0
M  V30 13740 N 1327.51 1.28794 -5.66032 0
M  V30 13741 H 1330.27 -1.43229 -2.6326 0
M  V30 13742 H 1327.83 -0.89842 -1.34685 0
M  V30 13743 H 1329.82 0.707523 -3.98467 0
M  V30 13744 H 1328.39 0.997358 -2.96263 0
M  V30 13745 H 1327.61 -1.37859 -3.69308 0
M  V30 13746 H 1328.9 -1.33392 -4.91003 0
M  V30 13747 H 1328.3 1.8156 -5.35773 0
M  V30 13748 H 1326.86 1.72429 -6.28579 0
M  V30 13749 N 1330.29 1.35952 -0.797165 0
M  V30 13750 C 1331.24 2.31831 -0.188958 0
M  V30 13751 C 1332.23 1.56181 0.656042 0
M  V30 13752 O 1333.44 1.71383 0.550259 0
M  V30 13753 H 1329.81 0.750807 -0.0423354 0
M  V30 13754 H 1331.78 2.80683 -1.0129 0
M  V30 13755 C 1330.53 3.41464 0.655547 0
M  V30 13756 H 1329.86 3.99797 0.0146854 0
M  V30 13757 H 1331.3 4.10853 1.04765 0
M  V30 13758 C 1329.76 2.83696 1.81709 0
M  V30 13759 O 1330.29 2.76484 2.91409 0
M  V30 13760 N 1328.49 2.40876 1.62564 0
M  V30 13761 H 1328.04 2.46941 0.733337 0
M  V30 13762 H 1328 2.02572 2.40441 0
M  V30 13763 N 1331.77 0.549846 1.47697 0
M  V30 13764 C 1333.01 0.0230845 2.02787 0
M  V30 13765 C 1333.35 -1.32035 1.42409 0
M  V30 13766 O 1332.62 -1.85745 0.576978 0
M  V30 13767 C 1332.91 -0.0778363 3.60016 0
M  V30 13768 C 1332.76 1.29217 4.3084 0
M  V30 13769 C 1334.08 -0.794909 4.32862 0
M  V30 13770 H 1331.2 0.00986307 0.736934 0
M  V30 13771 H 1333.84 0.710714 1.76207 0
M  V30 13772 H 1331.99 -0.663464 3.82793 0
M  V30 13773 H 1333.66 1.92044 4.19424 0
M  V30 13774 H 1331.9 1.86883 3.91481 0
M  V30 13775 H 1332.57 1.17435 5.39364 0
M  V30 13776 H 1335.05 -0.297743 4.15033 0
M  V30 13777 H 1333.93 -0.834466 5.4252 0
M  V30 13778 H 1334.19 -1.84948 4.01555 0
M  V30 13779 N 1333.25 -1.54984 0.285932 0
M  V30 13780 C 1334.21 -2.2164 -0.583824 0
M  V30 13781 C 1335.21 -1.19764 -1.073 0
M  V30 13782 O 1336.4 -1.44598 -0.971439 0
M  V30 13783 C 1333.53 -2.8909 -1.80665 0
M  V30 13784 H 1334.72 -2.999 -0.00168109 0
M  V30 13785 H 1332.28 -1.56257 0.0366325 0
M  V30 13786 H 1333.01 -2.14869 -2.42903 0
M  V30 13787 H 1332.8 -3.63756 -1.4637 0
M  V30 13788 H 1334.29 -3.39982 -2.42491 0
M  V30 13789 N 1334.72 -0.0133892 -1.57594 0
M  V30 13790 C 1335.97 0.668634 -1.91143 0
M  V30 13791 C 1336.3 1.7303 -0.888299 0
M  V30 13792 O 1335.55 1.95418 0.105056 0
M  V30 13793 C 1335.85 1.33729 -3.31438 0
M  V30 13794 C 1335.52 0.407527 -4.49055 0
M  V30 13795 C 1334.18 0.151573 -4.80961 0
M  V30 13796 C 1336.53 -0.231835 -5.20684 0
M  V30 13797 C 1333.86 -0.751812 -5.81863 0
M  V30 13798 C 1336.21 -1.12318 -6.22549 0
M  V30 13799 C 1334.88 -1.38818 -6.52906 0
M  V30 13800 H 1334.15 0.24467 -0.699441 0
M  V30 13801 H 1336.79 -0.0717876 -1.91365 0
M  V30 13802 H 1335.1 2.15209 -3.27403 0
M  V30 13803 H 1336.8 1.87128 -3.5466 0
M  V30 13804 H 1333.39 0.617192 -4.24133 0
M  V30 13805 H 1337.57 -0.0471268 -4.96278 0
M  V30 13806 H 1332.83 -0.964991 -6.03737 0
M  V30 13807 H 1337 -1.62488 -6.77179 0
M  V30 13808 H 1334.63 -2.08986 -7.3091 0
M  V30 13809 N 1336.2 1.55448 0.259558 0
M  V30 13810 C 1337.43 1.81063 1.01148 0
M  V30 13811 C 1337.85 0.58875 1.78649 0
M  V30 13812 O 1337.21 -0.461971 1.75315 0
M  V30 13813 C 1337.26 3.04279 1.93512 0
M  V30 13814 O 1336.36 2.80307 3.02493 0
M  V30 13815 H 1335.7 0.598056 0.288487 0
M  V30 13816 H 1338.23 2.02614 0.284387 0
M  V30 13817 H 1338.24 3.33373 2.35215 0
M  V30 13818 H 1336.92 3.92856 1.36518 0
M  V30 13819 H 1335.5 2.62345 2.65008 0
M  V30 13820 N 1337.68 -0.524672 1.4861 0
M  V30 13821 C 1339.09 -1.10655 1.50374 0
M  V30 13822 C 1339.44 -1.94242 0.276512 0
M  V30 13823 O 1338.57 -2.07451 -0.615887 0
M  V30 13824 C 1339.16 -2.01348 2.72478 0
M  V30 13825 C 1337.72 -2.54743 2.77097 0
M  V30 13826 C 1336.87 -1.31822 2.43964 0
M  V30 13827 H 1339.82 -0.309674 1.55649 0
M  V30 13828 H 1339.84 -2.85709 2.51297 0
M  V30 13829 H 1339.35 -1.40485 3.61781 0
M  V30 13830 H 1337.45 -3.19313 1.92016 0
M  V30 13831 H 1337.57 -2.93514 3.78664 0
M  V30 13832 H 1335.93 -1.63574 1.95233 0
M  V30 13833 H 1336.71 -0.727026 3.35513 0
M  V30 13834 N 1339.16 -1.37287 -0.77395 0
M  V30 13835 C 1340.09 -1.35569 -1.90114 0
M  V30 13836 C 1341.07 -0.224658 -1.6861 0
M  V30 13837 O 1342.25 -0.424676 -1.895 0
M  V30 13838 C 1339.38 -1.15971 -3.27365 0
M  V30 13839 C 1338.34 -2.26063 -3.63427 0
M  V30 13840 C 1337.66 -1.9159 -4.99197 0
M  V30 13841 C 1338.96 -3.68236 -3.70405 0
M  V30 13842 H 1340.66 -2.29891 -1.91808 0
M  V30 13843 H 1338.2 -1.10661 -0.92142 0
M  V30 13844 H 1340.16 -1.134 -4.05855 0
M  V30 13845 H 1338.88 -0.181043 -3.26098 0
M  V30 13846 H 1337.54 -2.27786 -2.87244 0
M  V30 13847 H 1337.19 -0.922586 -4.94467 0
M  V30 13848 H 1336.89 -2.65309 -5.24294 0
M  V30 13849 H 1338.41 -1.90602 -5.80089 0
M  V30 13850 H 1339.83 -3.68655 -4.39052 0
M  V30 13851 H 1338.22 -4.4099 -4.06999 0
M  V30 13852 H 1339.29 -4.02021 -2.71122 0
M  V30 13853 N 1340.64 0.999871 -1.21821 0
M  V30 13854 C 1341.58 2.08864 -0.98206 0
M  V30 13855 C 1342.55 1.65835 0.0937677 0
M  V30 13856 O 1343.74 1.90722 -0.0544038 0
M  V30 13857 C 1340.88 3.40553 -0.558382 0
M  V30 13858 C 1339.99 3.96964 -1.70422 0
M  V30 13859 C 1339.13 5.16782 -1.2292 0
M  V30 13860 C 1338.17 5.65315 -2.34703 0
M  V30 13861 N 1337.3 6.76379 -1.88299 0
M  V30 13862 H 1342.14 2.28399 -1.9141 0
M  V30 13863 H 1339.68 1.11984 -0.953837 0
M  V30 13864 H 1341.64 4.16163 -0.293955 0
M  V30 13865 H 1340.27 3.2104 0.336656 0
M  V30 13866 H 1339.32 3.18291 -2.08315 0
M  V30 13867 H 1340.63 4.2897 -2.54531 0
M  V30 13868 H 1339.79 5.99657 -0.92174 0
M  V30 13869 H 1338.52 4.86383 -0.358222 0
M  V30 13870 H 1337.53 4.81033 -2.66246 0
M  V30 13871 H 1338.75 5.97742 -3.22306 0
M  V30 13872 H 1336.7 6.47775 -1.03552 0
M  V30 13873 H 1336.62 7.07666 -2.65978 0
M  V30 13874 H 1337.89 7.62776 -1.60601 0
M  V30 13875 N 1342.11 1.02678 1.19562 0
M  V30 13876 C 1343.53 0.743467 1.41226 0
M  V30 13877 C 1343.73 -0.672786 1.89936 0
M  V30 13878 O 1342.79 -1.43908 2.07477 0
M  V30 13879 C 1344.1 1.77781 2.42517 0
M  V30 13880 C 1345.65 1.79711 2.56267 0
M  V30 13881 C 1346.12 2.82099 3.60811 0
M  V30 13882 N 1347.61 2.80902 3.68304 0
M  V30 13883 C 1348.35 3.5678 4.48882 0
M  V30 13884 N 1347.84 4.42367 5.33182 0
M  V30 13885 N 1349.64 3.45331 4.43512 0
M  V30 13886 H 1341.79 1.94094 0.862635 0
M  V30 13887 H 1344.05 0.839015 0.441313 0
M  V30 13888 H 1343.76 2.79295 2.13745 0
M  V30 13889 H 1343.63 1.59836 3.41661 0
M  V30 13890 H 1346.02 0.788756 2.84364 0
M  V30 13891 H 1346.1 2.01731 1.57284 0
M  V30 13892 H 1345.74 3.83104 3.33457 0
M  V30 13893 H 1345.67 2.57338 4.5944 0
M  V30 13894 H 1348.16 2.18826 3.08097 0
M  V30 13895 H 1348.48 4.97008 5.9178 0
M  V30 13896 H 1346.82 4.4644 5.3265 0
M  V30 13897 H 1350.01 2.77883 3.76695 0
M  V30 13898 H 1350.19 4.04718 5.06071 0
M  V30 13899 N 1343.59 -1.35528 0.804364 0
M  V30 13900 C 1344.54 -2.31728 0.20125 0
M  V30 13901 C 1345.53 -1.56527 -0.647751 0
M  V30 13902 O 1346.74 -1.71672 -0.541163 0
M  V30 13903 H 1343.12 -0.750572 0.0463165 0
M  V30 13904 H 1345.09 -2.80142 1.02777 0
M  V30 13905 C 1343.84 -3.41807 -0.637429 0
M  V30 13906 H 1343.16 -3.99799 0.00651699 0
M  V30 13907 H 1344.6 -4.11403 -1.02585 0
M  V30 13908 C 1343.06 -2.84655 -1.80202 0
M  V30 13909 O 1343.59 -2.78026 -2.89939 0
M  V30 13910 N 1341.79 -2.41735 -1.61285 0
M  V30 13911 H 1341.34 -2.47327 -0.720231 0
M  V30 13912 H 1341.3 -2.03844 -2.39364 0
M  V30 13913 N 1345.07 -0.557671 -1.47404 0
M  V30 13914 C 1346.31 -0.0361491 -2.04368 0
M  V30 13915 C 1346.68 1.2894 -1.42262 0
M  V30 13916 O 1347.88 1.89864 -1.90276 0
M  V30 13917 C 1346.15 0.0547287 -3.57358 0
M  V30 13918 S 1347.71 0.522307 -4.3568 0
M  V30 13919 H 1344.52 -0.0253676 -0.710547 0
M  V30 13920 H 1347.13 -0.744509 -1.80769 0
M  V30 13921 H 1345.83 -0.914374 -4.00084 0
M  V30 13922 H 1345.36 0.786629 -3.85455 0
M  V30 13923 H 1347.38 1.7819 -4.63101 0
M  V30 13924 N 1346.55 1.54831 -0.294147 0
M  V30 13925 C 1347.8 2.00001 0.317135 0
M  V30 13926 C 1348.12 1.18256 1.54421 0
M  V30 13927 O 1347.38 0.245035 1.9416 0
M  V30 13928 C 1347.68 3.4997 0.72495 0
M  V30 13929 C 1347.34 4.49126 -0.399616 0
M  V30 13930 C 1346.01 4.75958 -0.708354 0
M  V30 13931 C 1348.36 5.08208 -1.15644 0
M  V30 13932 C 1345.69 5.59137 -1.77716 0
M  V30 13933 C 1348.04 5.9255 -2.21512 0
M  V30 13934 C 1346.7 6.17695 -2.52999 0
M  V30 13935 H 1345.97 0.731856 0.116048 0
M  V30 13936 H 1348.62 1.87019 -0.41182 0
M  V30 13937 H 1346.92 3.60526 1.53388 0
M  V30 13938 H 1348.62 3.82341 1.20898 0
M  V30 13939 H 1345.21 4.28341 -0.148877 0
M  V30 13940 H 1349.4 4.87486 -0.931178 0
M  V30 13941 H 1344.65 5.76859 -2.02592 0
M  V30 13942 H 1348.83 6.37359 -2.80617 0
M  V30 13943 H 1346.45 6.81939 -3.35951 0
M  V30 13944 N 1348.03 0.0217466 1.57585 0
M  V30 13945 C 1349.28 -0.657793 1.90672 0
M  V30 13946 C 1349.59 -1.73713 0.899066 0
M  V30 13947 O 1350.8 -2.4728 1.12092 0
M  V30 13948 C 1349.25 -1.22124 3.38547 0
M  V30 13949 C 1348.86 -0.175575 4.47656 0
M  V30 13950 C 1350.6 -1.87771 3.80713 0
M  V30 13951 C 1348.51 -0.750239 5.86622 0
M  V30 13952 H 1347.44 -0.249459 0.711538 0
M  V30 13953 H 1350.09 0.0858449 1.83299 0
M  V30 13954 H 1348.47 -2.01625 3.40828 0
M  V30 13955 H 1349.65 0.596436 4.56924 0
M  V30 13956 H 1347.96 0.381715 4.14647 0
M  V30 13957 H 1350.56 -2.3171 4.81887 0
M  V30 13958 H 1350.9 -2.71737 3.1538 0
M  V30 13959 H 1351.44 -1.14971 3.80823 0
M  V30 13960 H 1348.17 0.0511222 6.5548 0
M  V30 13961 H 1347.69 -1.49091 5.80975 0
M  V30 13962 H 1349.37 -1.24225 6.34962 0
M  V30 13963 N 1349.51 -1.55583 -0.251311 0
M  V30 13964 C 1350.92 -1.67693 -0.820719 0
M  V30 13965 C 1351.27 -0.618393 -1.862 0
M  V30 13966 O 1350.39 0.236158 -2.15108 0
M  V30 13967 C 1350.99 -3.04011 -1.49542 0
M  V30 13968 C 1349.55 -3.18075 -2.01259 0
M  V30 13969 C 1348.69 -2.63557 -0.862138 0
M  V30 13970 H 1351.64 -1.58677 -0.0272072 0
M  V30 13971 H 1351.67 -2.9821 -2.36328 0
M  V30 13972 H 1351.18 -3.81032 -0.737323 0
M  V30 13973 H 1349.28 -2.45869 -2.79963 0
M  V30 13974 H 1349.39 -4.24927 -2.213 0
M  V30 13975 H 1347.76 -2.21268 -1.26145 0
M  V30 13976 H 1348.54 -3.431 -0.117196 0
M  V30 13977 N 1350.98 0.516783 -1.48886 0
M  V30 13978 C 1351.93 1.62003 -1.64389 0
M  V30 13979 C 1352.9 1.58842 -0.485633 0
M  V30 13980 O 1354.09 1.77068 -0.710742 0
M  V30 13981 C 1351.23 3.00218 -1.70186 0
M  V30 13982 C 1350.34 3.13513 -2.97209 0
M  V30 13983 C 1349.47 4.42366 -2.94084 0
M  V30 13984 C 1348.51 4.49238 -4.15754 0
M  V30 13985 N 1347.65 5.69497 -4.10631 0
M  V30 13986 H 1352.49 1.48093 -2.58597 0
M  V30 13987 H 1350.03 0.720788 -1.2823 0
M  V30 13988 H 1351.98 3.80307 -1.71529 0
M  V30 13989 H 1350.61 3.12868 -0.794578 0
M  V30 13990 H 1349.67 2.26589 -3.05551 0
M  V30 13991 H 1350.98 3.14451 -3.87197 0
M  V30 13992 H 1350.13 5.3076 -2.93902 0
M  V30 13993 H 1348.87 4.43969 -2.01847 0
M  V30 13994 H 1347.88 3.59248 -4.16198 0
M  V30 13995 H 1349.1 4.49363 -5.09166 0
M  V30 13996 H 1347.05 5.71973 -3.21222 0
M  V30 13997 H 1346.96 5.71985 -4.94337 0
M  V30 13998 H 1348.23 6.60142 -4.14527 0
M  V30 13999 N 1352.46 1.37696 0.766659 0
M  V30 14000 C 1353.88 1.18607 1.06792 0
M  V30 14001 C 1354.08 0.0257195 2.01484 0
M  V30 14002 O 1353.13 -0.632608 2.44447 0
M  V30 14003 C 1354.45 2.50692 1.66054 0
M  V30 14004 C 1355.99 2.57259 1.78288 0
M  V30 14005 C 1356.47 3.89488 2.40963 0
M  V30 14006 N 1357.96 3.90957 2.48408 0
M  V30 14007 C 1358.7 4.90023 2.97767 0
M  V30 14008 N 1358.19 5.99485 3.4726 0
M  V30 14009 N 1359.98 4.77423 2.96688 0
M  V30 14010 H 1352.14 2.11951 0.138031 0
M  V30 14011 H 1354.4 0.939873 0.123863 0
M  V30 14012 H 1354.1 3.35989 1.03945 0
M  V30 14013 H 1353.98 2.68148 2.65286 0
M  V30 14014 H 1356.37 1.72366 2.39528 0
M  V30 14015 H 1356.45 2.43682 0.777981 0
M  V30 14016 H 1356.09 4.74797 1.8036 0
M  V30 14017 H 1356.02 4.0037 3.42069 0
M  V30 14018 H 1358.51 3.11888 2.13388 0
M  V30 14019 H 1358.82 6.71022 3.8334 0
M  V30 14020 H 1357.17 6.03123 3.45351 0
M  V30 14021 H 1360.36 3.91026 2.57325 0
M  V30 14022 H 1360.53 5.54783 3.34844 0
M  V30 14023 N 1353.94 -0.993397 1.22349 0
M  V30 14024 C 1355.35 -1.54739 1.04465 0
M  V30 14025 C 1355.7 -1.92243 -0.392057 0
M  V30 14026 O 1354.83 -1.74707 -1.27697 0
M  V30 14027 C 1355.42 -2.81179 1.89007 0
M  V30 14028 C 1353.98 -3.33023 1.75421 0
M  V30 14029 C 1353.13 -2.06114 1.85505 0
M  V30 14030 H 1356.08 -0.814539 1.36202 0
M  V30 14031 H 1356.1 -3.53523 1.40718 0
M  V30 14032 H 1355.61 -2.53851 2.93566 0
M  V30 14033 H 1353.71 -3.6526 0.735935 0
M  V30 14034 H 1353.83 -4.03659 2.58062 0
M  V30 14035 H 1352.19 -2.19651 1.2894 0
M  V30 14036 H 1352.97 -1.81184 2.91594 0
M  V30 14037 N 1355.42 -1.03311 -1.19015 0
M  V30 14038 C 1356.67 -0.727266 -1.88132 0
M  V30 14039 C 1356.98 0.747488 -1.80754 0
M  V30 14040 O 1358.19 1.16654 -2.45161 0
M  V30 14041 C 1356.64 -1.25056 -3.37474 0
M  V30 14042 C 1356.25 -2.7534 -3.534 0
M  V30 14043 C 1357.99 -1.02091 -4.12041 0
M  V30 14044 C 1355.9 -3.21066 -4.96659 0
M  V30 14045 H 1354.83 -0.268349 -0.704631 0
M  V30 14046 H 1357.48 -1.24795 -1.3453 0
M  V30 14047 H 1355.86 -0.65777 -3.90499 0
M  V30 14048 H 1357.04 -3.40311 -3.10684 0
M  V30 14049 H 1355.35 -2.96633 -2.92229 0
M  V30 14050 H 1357.95 -1.33777 -5.17695 0
M  V30 14051 H 1358.29 0.0421413 -4.16279 0
M  V30 14052 H 1358.83 -1.57792 -3.65166 0
M  V30 14053 H 1355.56 -4.26719 -4.97586 0
M  V30 14054 H 1355.08 -2.60826 -5.4012 0
M  V30 14055 H 1356.76 -3.14651 -5.65335 0
M  V30 14056 N 1356.9 1.35099 -0.81154 0
M  V30 14057 C 1358.31 1.81082 -0.454543 0
M  V30 14058 C 1358.66 1.67361 1.02395 0
M  V30 14059 O 1357.78 1.20707 1.79607 0
M  V30 14060 C 1358.38 3.2877 -0.818274 0
M  V30 14061 C 1356.94 3.72877 -0.513808 0
M  V30 14062 C 1356.08 2.57008 -1.04125 0
M  V30 14063 H 1359.03 1.23007 -1.00274 0
M  V30 14064 H 1359.06 3.80318 -0.117683 0
M  V30 14065 H 1358.57 3.38725 -1.89439 0
M  V30 14066 H 1356.67 3.68468 0.553368 0
M  V30 14067 H 1356.78 4.67455 -1.0499 0
M  V30 14068 H 1355.15 2.5045 -0.463337 0
M  V30 14069 H 1355.93 2.69738 -2.12358 0
M  V30 14070 N 1358.37 0.56548 1.47106 0
M  V30 14071 C 1359.6 0.0496298 2.0684 0
M  V30 14072 C 1360.02 -1.24777 1.4169 0
M  V30 14073 O 1359.37 -1.75046 0.516239 0
M  V30 14074 C 1359.42 -0.140987 3.61225 0
M  V30 14075 O 1359.15 1.10504 4.23934 0
M  V30 14076 C 1360.65 -0.693171 4.37847 0
M  V30 14077 H 1357.87 0.0496018 0.669164 0
M  V30 14078 H 1360.41 0.781247 1.88989 0
M  V30 14079 H 1358.57 -0.822762 3.78562 0
M  V30 14080 H 1358.98 0.907978 5.16581 0
M  V30 14081 H 1360.45 -0.7758 5.46521 0
M  V30 14082 H 1360.93 -1.70632 4.04699 0
M  V30 14083 H 1361.54 -0.046826 4.25274 0
M  V30 14084 N 1359.85 -1.54672 0.302354 0
M  V30 14085 C 1361.1 -1.99345 -0.307307 0
M  V30 14086 C 1361.41 -1.19437 -1.549 0
M  V30 14087 O 1362.62 -1.54384 -2.23334 0
M  V30 14088 C 1361.08 -3.54896 -0.59808 0
M  V30 14089 C 1360.68 -4.43614 0.625357 0
M  V30 14090 C 1362.43 -4.08091 -1.16886 0
M  V30 14091 C 1360.34 -5.90599 0.307661 0
M  V30 14092 H 1359.27 -0.744614 -0.118603 0
M  V30 14093 H 1361.92 -1.78832 0.411271 0
M  V30 14094 H 1360.3 -3.71314 -1.37629 0
M  V30 14095 H 1361.47 -4.38969 1.40152 0
M  V30 14096 H 1359.79 -4.01198 1.11487 0
M  V30 14097 H 1362.38 -5.15477 -1.42082 0
M  V30 14098 H 1362.73 -3.58775 -2.11155 0
M  V30 14099 H 1363.26 -3.9522 -0.452329 0
M  V30 14100 H 1360 -6.44067 1.21895 0
M  V30 14101 H 1359.52 -5.98248 -0.431208 0
M  V30 14102 H 1361.2 -6.46937 -0.0902796 0
M  V30 14103 N 1361.33 -0.0301034 -1.57571 0
M  V30 14104 C 1362.28 0.951421 -2.10277 0
M  V30 14105 C 1363.25 1.3224 -1.00508 0
M  V30 14106 O 1364.43 1.41554 -1.27934 0
M  V30 14107 C 1361.57 2.2282 -2.63525 0
M  V30 14108 C 1360.69 1.91359 -3.87306 0
M  V30 14109 C 1359.82 3.13339 -4.28943 0
M  V30 14110 C 1358.86 2.77701 -5.4548 0
M  V30 14111 N 1358 3.9231 -5.82269 0
M  V30 14112 H 1362.84 0.495049 -2.93859 0
M  V30 14113 H 1360.37 0.232756 -1.45247 0
M  V30 14114 H 1362.33 2.97502 -2.92487 0
M  V30 14115 H 1360.96 2.66072 -1.82772 0
M  V30 14116 H 1360.01 1.06915 -3.65066 0
M  V30 14117 H 1361.33 1.61112 -4.72064 0
M  V30 14118 H 1360.48 3.9634 -4.59347 0
M  V30 14119 H 1359.22 3.46747 -3.42954 0
M  V30 14120 H 1358.22 1.93113 -5.14769 0
M  V30 14121 H 1359.45 2.45508 -6.33169 0
M  V30 14122 H 1357.39 4.25559 -4.99235 0
M  V30 14123 H 1357.31 3.65691 -6.61669 0
M  V30 14124 H 1358.58 4.76012 -6.17279 0
M  V30 14125 N 1362.81 1.55714 0.243056 0
M  V30 14126 C 1364.09 1.68483 0.993614 0
M  V30 14127 C 1364.47 0.571112 2.03228 0
M  V30 14128 O 1363.81 -0.42491 2.24515 0
M  V30 14129 C 1364.02 3.0894 1.62349 0
M  V30 14130 C 1365.37 3.67663 2.12389 0
M  V30 14131 O 1366.4 3.11764 1.72283 0
M  V30 14132 O 1365.25 4.65664 2.8604 0
M  V30 14133 H 1362.35 0.685415 0.462747 0
M  V30 14134 H 1364.89 1.68043 0.236538 0
M  V30 14135 H 1363.67 3.81451 0.87241 0
M  V30 14136 H 1363.29 3.13407 2.44667 0
M  V30 14137 N 1364.29 -0.50888 1.49158 0
M  V30 14138 C 1365.53 -1.26537 1.58481 0
M  V30 14139 C 1365.87 -1.92353 0.267168 0
M  V30 14140 O 1365.14 -1.80336 -0.728639 0
M  V30 14141 C 1365.42 -2.33846 2.73839 0
M  V30 14142 C 1365.28 -1.72582 4.15374 0
M  V30 14143 C 1366.6 -3.35467 2.84868 0
M  V30 14144 H 1363.71 -0.458697 0.576859 0
M  V30 14145 H 1366.36 -0.564728 1.81413 0
M  V30 14146 H 1364.51 -2.93605 2.54417 0
M  V30 14147 H 1366.18 -1.16711 4.46292 0
M  V30 14148 H 1364.42 -1.03025 4.21389 0
M  V30 14149 H 1365.09 -2.5038 4.91949 0
M  V30 14150 H 1367.57 -2.85689 3.02524 0
M  V30 14151 H 1366.44 -4.07922 3.67275 0
M  V30 14152 H 1366.71 -3.97313 1.93894 0
M  V30 14153 N 1365.76 -1.381 -0.759346 0
M  V30 14154 C 1367.01 -1.33311 -1.51364 0
M  V30 14155 C 1367.33 0.0761325 -1.95452 0
M  V30 14156 O 1368.53 0.246541 -2.70378 0
M  V30 14157 C 1366.99 -2.34067 -2.73387 0
M  V30 14158 C 1366.6 -3.80583 -2.36348 0
M  V30 14159 C 1368.34 -2.38311 -3.51295 0
M  V30 14160 C 1366.25 -4.73039 -3.54948 0
M  V30 14161 H 1365.18 -0.495512 -0.568317 0
M  V30 14162 H 1367.83 -1.63625 -0.830602 0
M  V30 14163 H 1366.21 -1.96788 -3.43643 0
M  V30 14164 H 1367.38 -4.26769 -1.73796 0
M  V30 14165 H 1365.7 -3.79403 -1.71587 0
M  V30 14166 H 1368.3 -3.04586 -4.39467 0
M  V30 14167 H 1368.64 -1.40034 -3.92041 0
M  V30 14168 H 1369.17 -2.74361 -2.88047 0
M  V30 14169 H 1365.91 -5.7249 -3.19273 0
M  V30 14170 H 1365.43 -4.3155 -4.16563 0
M  V30 14171 H 1367.11 -4.90775 -4.21603 0
M  V30 14172 N 1367.24 0.986894 -1.22875 0
M  V30 14173 C 1368.49 1.72388 -1.05484 0
M  V30 14174 C 1368.81 1.90639 0.410074 0
M  V30 14175 O 1368.08 1.47036 1.2945 0
M  V30 14176 H 1366.66 0.638732 -0.387337 0
M  V30 14177 H 1369.32 1.18829 -1.54485 0
M  V30 14178 H 1368.42 2.71599 -1.53754 0
M  V30 14179 N 1368.72 1.0394 1.18466 0
M  V30 14180 C 1369.67 0.629352 2.22054 0
M  V30 14181 C 1370.64 -0.362187 1.62103 0
M  V30 14182 O 1371.82 -0.256457 1.89069 0
M  V30 14183 C 1368.96 -0.00282888 3.451 0
M  V30 14184 C 1368.08 1.03602 4.19393 0
M  V30 14185 C 1367.21 0.372492 5.29892 0
M  V30 14186 C 1366.25 1.39652 5.95956 0
M  V30 14187 N 1365.39 0.758053 6.97996 0
M  V30 14188 H 1370.23 1.51722 2.56485 0
M  V30 14189 H 1367.76 0.759043 1.26004 0
M  V30 14190 H 1369.72 -0.386688 4.15404 0
M  V30 14191 H 1368.35 -0.854224 3.11292 0
M  V30 14192 H 1367.4 1.53784 3.47929 0
M  V30 14193 H 1368.72 1.81387 4.64651 0
M  V30 14194 H 1367.87 -0.065642 6.06664 0
M  V30 14195 H 1366.61 -0.437462 4.85734 0
M  V30 14196 H 1365.61 1.84481 5.17926 0
M  V30 14197 H 1366.84 2.20816 6.42197 0
M  V30 14198 H 1364.78 -0.0316173 6.55992 0
M  V30 14199 H 1364.7 1.47363 7.41499 0
M  V30 14200 H 1365.97 0.344273 7.78739 0
M  V30 14201 N 1370.2 -1.34667 0.818693 0
M  V30 14202 C 1371.16 -2.27908 0.243037 0
M  V30 14203 C 1372.16 -1.50106 -0.576622 0
M  V30 14204 O 1373.35 -1.69701 -0.393342 0
M  V30 14205 C 1370.48 -3.34455 -0.659759 0
M  V30 14206 H 1371.68 -2.80332 1.06555 0
M  V30 14207 H 1369.23 -1.44727 0.590237 0
M  V30 14208 H 1369.96 -2.87238 -1.50549 0
M  V30 14209 H 1369.75 -3.92031 -0.073567 0
M  V30 14210 H 1371.24 -4.04016 -1.05646 0
M  V30 14211 N 1371.68 -0.573274 -1.46804 0
M  V30 14212 C 1372.61 0.153316 -2.32996 0
M  V30 14213 C 1373.59 0.893013 -1.44773 0
M  V30 14214 O 1374.77 0.870329 -1.73606 0
M  V30 14215 C 1371.9 1.1736 -3.2687 0
M  V30 14216 C 1370.86 0.549347 -4.2446 0
M  V30 14217 C 1370.18 1.67542 -5.07773 0
M  V30 14218 C 1371.48 -0.50736 -5.1983 0
M  V30 14219 H 1373.18 -0.566305 -2.93995 0
M  V30 14220 H 1370.72 -0.273785 -1.41373 0
M  V30 14221 H 1372.68 1.6902 -3.86019 0
M  V30 14222 H 1371.4 1.92337 -2.63958 0
M  V30 14223 H 1370.06 0.0539142 -3.6656 0
M  V30 14224 H 1369.71 2.41463 -4.41253 0
M  V30 14225 H 1369.41 1.26343 -5.73856 0
M  V30 14226 H 1370.93 2.19496 -5.69784 0
M  V30 14227 H 1372.34 -0.0762061 -5.73249 0
M  V30 14228 H 1370.74 -0.839139 -5.94204 0
M  V30 14229 H 1371.81 -1.39723 -4.64333 0
M  V30 14230 N 1373.15 1.5451 -0.310553 0
M  V30 14231 C 1374.09 2.2134 0.595098 0
M  V30 14232 C 1375.1 1.20917 1.09009 0
M  V30 14233 O 1376.29 1.47458 1.0059 0
M  V30 14234 C 1373.39 2.85384 1.82782 0
M  V30 14235 C 1372.56 4.11826 1.47372 0
M  V30 14236 C 1371.62 4.59584 2.56259 0
M  V30 14237 O 1370.65 5.24567 2.20949 0
M  V30 14238 N 1371.85 4.32709 3.86967 0
M  V30 14239 H 1374.61 2.99691 0.0229291 0
M  V30 14240 H 1372.17 1.61351 -0.133173 0
M  V30 14241 H 1374.17 3.14263 2.54992 0
M  V30 14242 H 1372.74 2.10816 2.30815 0
M  V30 14243 H 1371.96 3.89853 0.583826 0
M  V30 14244 H 1373.24 4.94138 1.21265 0
M  V30 14245 H 1372.64 3.80669 4.18458 0
M  V30 14246 H 1371.2 4.66275 4.55446 0
M  V30 14247 N 1374.63 0.0384594 1.57553 0
M  V30 14248 C 1375.86 -0.647137 1.96203 0
M  V30 14249 C 1376.27 -1.65656 0.914042 0
M  V30 14250 O 1375.61 -1.83361 -0.111617 0
M  V30 14251 C 1375.68 -1.40193 3.31038 0
M  V30 14252 C 1375.34 -0.549782 4.53681 0
M  V30 14253 C 1376.34 0.178839 5.19592 0
M  V30 14254 C 1374.02 -0.48444 4.99958 0
M  V30 14255 C 1376.02 0.961376 6.30108 0
M  V30 14256 C 1373.7 0.301795 6.10354 0
M  V30 14257 C 1374.7 1.0234 6.75289 0
M  V30 14258 O 1374.39 1.79673 7.83564 0
M  V30 14259 H 1374.12 -0.182651 0.650857 0
M  V30 14260 H 1376.68 0.0973346 2.05169 0
M  V30 14261 H 1374.91 -2.19175 3.1859 0
M  V30 14262 H 1376.59 -1.97653 3.54525 0
M  V30 14263 H 1377.36 0.137749 4.84804 0
M  V30 14264 H 1373.24 -1.03568 4.49216 0
M  V30 14265 H 1376.78 1.52513 6.80724 0
M  V30 14266 H 1372.68 0.344569 6.4458 0
M  V30 14267 H 1373.45 1.71749 8.00278 0
M  V30 14268 N 1376.11 -1.55841 -0.234795 0
M  V30 14269 C 1377.04 -1.94344 -1.29432 0
M  V30 14270 C 1378.02 -0.809912 -1.49581 0
M  V30 14271 O 1379.21 -1.07117 -1.61986 0
M  V30 14272 C 1376.34 -2.24866 -2.64675 0
M  V30 14273 C 1375.29 -3.40584 -2.59203 0
M  V30 14274 C 1374.62 -3.56678 -3.98353 0
M  V30 14275 C 1375.92 -4.75935 -2.15135 0
M  V30 14276 H 1377.61 -2.83096 -0.97454 0
M  V30 14277 H 1375.16 -1.36205 -0.467355 0
M  V30 14278 H 1377.11 -2.50392 -3.38942 0
M  V30 14279 H 1375.83 -1.32953 -2.98314 0
M  V30 14280 H 1374.49 -3.15087 -1.87393 0
M  V30 14281 H 1374.14 -2.62164 -4.29277 0
M  V30 14282 H 1373.84 -4.34503 -3.95577 0
M  V30 14283 H 1375.37 -3.84538 -4.74302 0
M  V30 14284 H 1376.78 -5.00753 -2.7914 0
M  V30 14285 H 1375.18 -5.56949 -2.23446 0
M  V30 14286 H 1376.25 -4.72182 -1.10328 0
M  V30 14287 N 1377.59 0.500963 -1.49426 0
M  V30 14288 C 1378.84 1.25261 -1.58601 0
M  V30 14289 C 1379.16 1.93056 -0.274647 0
M  V30 14290 O 1378.43 1.82736 0.706003 0
M  V30 14291 H 1377.01 0.465328 -0.584362 0
M  V30 14292 H 1379.67 0.580588 -1.86052 0
M  V30 14293 H 1378.77 2.01652 -2.38208 0
M  V30 14294 N 1379.07 1.38501 0.752011 0
M  V30 14295 C 1380.3 1.38032 1.54125 0
M  V30 14296 C 1380.71 -0.0295066 1.88777 0
M  V30 14297 O 1380.07 -0.996522 1.52891 0
M  V30 14298 C 1380.12 2.23741 2.83941 0
M  V30 14299 O 1379.84 3.59232 2.50767 0
M  V30 14300 C 1381.34 2.31469 3.7807 0
M  V30 14301 H 1378.56 0.472077 0.476848 0
M  V30 14302 H 1381.1 1.82101 0.930572 0
M  V30 14303 H 1379.26 1.8313 3.41383 0
M  V30 14304 H 1379.67 4.04376 3.34036 0
M  V30 14305 H 1381.15 2.95722 4.66103 0
M  V30 14306 H 1381.62 1.32882 4.18616 0
M  V30 14307 H 1382.23 2.72477 3.26552 0
M  V30 14308 N 1380.55 -0.980364 1.23396 0
M  V30 14309 C 1381.79 -1.72166 1.06607 0
M  V30 14310 C 1382.12 -1.90405 -0.397029 0
M  V30 14311 O 1381.38 -1.45363 -1.31027 0
M  V30 14312 C 1381.67 -3.12367 1.73671 0
M  V30 14313 C 1381.34 -3.14007 3.2359 0
M  V30 14314 C 1380 -3.14162 3.64494 0
M  V30 14315 C 1382.35 -3.09319 4.19489 0
M  V30 14316 C 1379.68 -3.07345 4.99756 0
M  V30 14317 C 1382.03 -3.04044 5.54743 0
M  V30 14318 C 1380.7 -3.02521 5.9501 0
M  V30 14319 H 1379.97 -0.63 0.390104 0
M  V30 14320 H 1382.62 -1.14727 1.5333 0
M  V30 14321 H 1380.92 -3.73193 1.19308 0
M  V30 14322 H 1382.62 -3.68493 1.58159 0
M  V30 14323 H 1379.21 -3.14644 2.91028 0
M  V30 14324 H 1383.39 -3.08339 3.88897 0
M  V30 14325 H 1378.65 -3.04519 5.30168 0
M  V30 14326 H 1382.82 -2.99374 6.28767 0
M  V30 14327 H 1380.45 -2.96994 6.99785 0
M  V30 14328 N 1382.02 -1.04567 -1.17913 0
M  V30 14329 C 1383.27 -0.750538 -1.87647 0
M  V30 14330 C 1383.59 0.72423 -1.81052 0
M  V30 14331 O 1382.86 1.52292 -1.23223 0
M  V30 14332 H 1381.44 -0.274636 -0.694683 0
M  V30 14333 H 1384.1 -1.32349 -1.43072 0
M  V30 14334 H 1383.2 -1.05987 -2.93553 0
M  V30 14335 N 1383.5 1.34231 -0.825823 0
M  V30 14336 C 1384.41 2.33245 -0.251803 0
M  V30 14337 C 1385.43 1.62756 0.615334 0
M  V30 14338 O 1386.6 1.94503 0.522547 0
M  V30 14339 C 1383.67 3.41908 0.574456 0
M  V30 14340 C 1382.73 4.2814 -0.315422 0
M  V30 14341 C 1381.96 5.31613 0.471496 0
M  V30 14342 O 1382.19 5.44337 1.70449 0
M  V30 14343 O 1381.12 6.01719 -0.147691 0
M  V30 14344 H 1384.95 2.84174 -1.07139 0
M  V30 14345 H 1382.53 1.37341 -0.588032 0
M  V30 14346 H 1384.41 4.08252 1.04444 0
M  V30 14347 H 1383.09 2.93217 1.37132 0
M  V30 14348 H 1381.99 3.64709 -0.832963 0
M  V30 14349 H 1383.33 4.80279 -1.07672 0
M  V30 14350 N 1384.98 0.581051 1.46498 0
M  V30 14351 C 1385.91 -0.140957 2.33074 0
M  V30 14352 C 1386.89 -0.885323 1.45245 0
M  V30 14353 O 1388.08 -0.86111 1.74065 0
M  V30 14354 C 1385.21 -1.15625 3.27488 0
M  V30 14355 C 1384.16 -0.526829 4.24745 0
M  V30 14356 C 1383.49 -1.64847 5.08655 0
M  V30 14357 C 1384.79 0.53492 5.19554 0
M  V30 14358 H 1386.48 0.581888 2.93691 0
M  V30 14359 H 1384.03 0.281278 1.41226 0
M  V30 14360 H 1385.98 -1.6697 3.8691 0
M  V30 14361 H 1384.7 -1.90935 2.64974 0
M  V30 14362 H 1383.36 -0.0344738 3.66584 0
M  V30 14363 H 1383.01 -2.3912 4.42528 0
M  V30 14364 H 1382.71 -1.23298 5.74518 0
M  V30 14365 H 1384.23 -2.16472 5.7094 0
M  V30 14366 H 1385.65 0.106606 5.73201 0
M  V30 14367 H 1384.04 0.870639 5.93751 0
M  V30 14368 H 1385.11 1.42184 4.63586 0
M  V30 14369 N 1386.46 -1.54343 0.318742 0
M  V30 14370 C 1387.68 -2.05361 -0.290126 0
M  V30 14371 C 1388.11 -1.19362 -1.45376 0
M  V30 14372 O 1387.47 -0.201639 -1.80175 0
M  V30 14373 C 1387.51 -3.53601 -0.707025 0
M  V30 14374 O 1386.62 -3.70561 -1.80992 0
M  V30 14375 H 1385.96 -0.661858 -0.0532933 0
M  V30 14376 H 1388.49 -1.99228 0.46575 0
M  V30 14377 H 1388.5 -3.95782 -0.991005 0
M  V30 14378 H 1387.17 -4.1565 0.144091 0
M  V30 14379 H 1385.75 -3.40286 -1.52513 0
M  V30 14380 N 1387.94 -0.0468143 -1.5753 0
M  V30 14381 C 1388.88 0.946945 -2.12452 0
M  V30 14382 C 1389.88 1.32515 -1.05527 0
M  V30 14383 O 1391.08 1.30532 -1.23941 0
M  V30 14384 H 1387.46 0.323223 -0.678993 0
M  V30 14385 H 1389.43 0.45858 -2.94855 0
M  V30 14386 C 1388.18 2.21402 -2.68098 0
M  V30 14387 H 1387.5 1.93178 -3.50032 0
M  V30 14388 H 1388.94 2.89105 -3.10152 0
M  V30 14389 C 1387.4 2.95576 -1.61668 0
M  V30 14390 O 1387.93 3.88353 -1.02689 0
M  V30 14391 N 1386.14 2.58228 -1.33291 0
M  V30 14392 H 1385.68 1.82858 -1.8144 0
M  V30 14393 H 1385.64 3.08164 -0.623092 0
M  V30 14394 N 1389.41 1.55964 0.226527 0
M  V30 14395 C 1390.66 1.7901 0.95306 0
M  V30 14396 C 1390.99 0.615608 1.84184 0
M  V30 14397 O 1390.27 -0.385341 1.90645 0
M  V30 14398 C 1390.55 3.12101 1.79624 0
M  V30 14399 C 1390.4 4.3999 0.934286 0
M  V30 14400 C 1391.72 3.4159 2.77496 0
M  V30 14401 H 1388.84 0.651236 0.345052 0
M  V30 14402 H 1391.48 1.88696 0.222236 0
M  V30 14403 H 1389.63 3.03975 2.41933 0
M  V30 14404 H 1391.31 4.6013 0.328328 0
M  V30 14405 H 1389.55 4.33138 0.239487 0
M  V30 14406 H 1390.22 5.29541 1.55853 0
M  V30 14407 H 1392.7 3.49812 2.25323 0
M  V30 14408 H 1391.57 4.35894 3.33599 0
M  V30 14409 H 1391.83 2.6351 3.54986 0
M  V30 14410 N 1390.89 -0.493031 1.4969 0
M  V30 14411 C 1391.8 -1.61991 1.69694 0
M  V30 14412 C 1392.82 -1.64061 0.579641 0
M  V30 14413 O 1393.99 -1.82335 0.855323 0
M  V30 14414 C 1391.06 -2.98323 1.76648 0
M  V30 14415 C 1390.12 -3.06816 3.00271 0
M  V30 14416 C 1389.35 -4.36644 3.06883 0
M  V30 14417 O 1389.58 -5.25901 2.20872 0
M  V30 14418 O 1388.51 -4.50275 3.99419 0
M  V30 14419 H 1392.34 -1.48042 2.65174 0
M  V30 14420 H 1389.92 -0.670182 1.33525 0
M  V30 14421 H 1391.8 -3.79335 1.83529 0
M  V30 14422 H 1390.48 -3.12517 0.843482 0
M  V30 14423 H 1389.39 -2.24962 2.98903 0
M  V30 14424 H 1390.72 -2.97551 3.92077 0
M  V30 14425 N 1392.37 -1.38898 -0.744656 0
M  V30 14426 C 1393.3 -1.32739 -1.8685 0
M  V30 14427 C 1394.32 -0.23793 -1.61052 0
M  V30 14428 O 1395.5 -0.496166 -1.71466 0
M  V30 14429 C 1392.6 -1.03602 -3.22676 0
M  V30 14430 C 1391.78 -2.23634 -3.75908 0
M  V30 14431 C 1390.84 -1.91103 -4.90271 0
M  V30 14432 O 1389.86 -2.6369 -5.04437 0
M  V30 14433 N 1391.06 -0.871358 -5.73923 0
M  V30 14434 H 1393.83 -2.29585 -1.92641 0
M  V30 14435 H 1391.39 -1.32875 -0.924979 0
M  V30 14436 H 1393.38 -0.798755 -3.96739 0
M  V30 14437 H 1391.95 -0.155218 -3.12214 0
M  V30 14438 H 1391.17 -2.63371 -2.93307 0
M  V30 14439 H 1392.46 -3.0372 -4.08205 0
M  V30 14440 H 1391.86 -0.269591 -5.65057 0
M  V30 14441 H 1390.42 -0.693984 -6.48095 0
M  V30 14442 N 1393.85 0.973806 -1.23914 0
M  V30 14443 C 1395.09 1.71852 -1.07678 0
M  V30 14444 C 1395.43 1.90357 0.384425 0
M  V30 14445 O 1394.7 1.46063 1.28436 0
M  V30 14446 C 1394.99 3.1129 -1.81026 0
M  V30 14447 C 1394.84 3.00315 -3.3486 0
M  V30 14448 C 1396.16 4.10835 -1.57805 0
M  V30 14449 H 1393.28 0.623749 -0.392564 0
M  V30 14450 H 1395.92 1.13325 -1.52504 0
M  V30 14451 H 1394.07 3.61255 -1.42922 0
M  V30 14452 H 1395.74 2.57823 -3.82524 0
M  V30 14453 H 1393.98 2.36667 -3.63553 0
M  V30 14454 H 1394.65 3.9907 -3.81376 0
M  V30 14455 H 1397.13 3.69705 -1.90939 0
M  V30 14456 H 1396.01 5.06478 -2.11591 0
M  V30 14457 H 1396.27 4.39091 -0.514894 0
M  V30 14458 N 1395.33 1.05191 1.17357 0
M  V30 14459 C 1396.57 0.763113 1.87895 0
M  V30 14460 C 1396.91 -0.708071 1.80831 0
M  V30 14461 O 1396.18 -1.51777 1.21631 0
M  V30 14462 C 1396.46 1.2442 3.37923 0
M  V30 14463 C 1396.32 2.77832 3.53737 0
M  V30 14464 C 1397.64 0.843209 4.31947 0
M  V30 14465 H 1394.75 0.27869 0.682276 0
M  V30 14466 H 1397.4 1.3059 1.38008 0
M  V30 14467 H 1395.55 0.782438 3.80539 0
M  V30 14468 H 1397.22 3.32131 3.20135 0
M  V30 14469 H 1395.46 3.17108 2.96015 0
M  V30 14470 H 1396.13 3.06555 4.59052 0
M  V30 14471 H 1398.61 1.24073 3.97171 0
M  V30 14472 H 1397.48 1.20743 5.35455 0
M  V30 14473 H 1397.75 -0.252802 4.41377 0
M  V30 14474 N 1396.8 -1.33791 0.83293 0
M  V30 14475 C 1397.77 -2.27637 0.267196 0
M  V30 14476 C 1398.77 -1.50709 -0.560669 0
M  V30 14477 O 1399.96 -1.70109 -0.375321 0
M  V30 14478 C 1397.09 -3.35136 -0.624248 0
M  V30 14479 H 1398.28 -2.79186 1.09522 0
M  V30 14480 H 1395.84 -1.44093 0.605554 0
M  V30 14481 H 1396.57 -2.88818 -1.47494 0
M  V30 14482 H 1396.36 -3.92087 -0.0319827 0
M  V30 14483 H 1397.85 -4.05113 -1.01355 0
M  V30 14484 N 1398.28 -0.588812 -1.46187 0
M  V30 14485 C 1399.22 0.189417 -2.27413 0
M  V30 14486 C 1400.19 0.891224 -1.36 0
M  V30 14487 O 1401.38 0.903883 -1.65415 0
M  V30 14488 C 1398.5 1.27233 -3.13894 0
M  V30 14489 C 1397.55 0.675705 -4.21113 0
M  V30 14490 S 1398.38 -0.502093 -5.33141 0
M  V30 14491 C 1399.54 0.581875 -6.23189 0
M  V30 14492 H 1399.77 -0.499754 -2.9307 0
M  V30 14493 H 1397.31 -0.375854 -1.49755 0
M  V30 14494 H 1399.26 1.89233 -3.64282 0
M  V30 14495 H 1397.92 1.93348 -2.47538 0
M  V30 14496 H 1397.12 1.48991 -4.81475 0
M  V30 14497 H 1396.72 0.131249 -3.7377 0
M  V30 14498 H 1399.01 1.46594 -6.6145 0
M  V30 14499 H 1399.95 0.0148739 -7.08098 0
M  V30 14500 H 1400.36 0.888764 -5.5746 0
M  V30 14501 N 1399.76 1.54172 -0.326923 0
M  V30 14502 C 1401.01 1.99809 0.275554 0
M  V30 14503 C 1401.32 1.21886 1.52981 0
M  V30 14504 O 1402.53 1.57917 2.20849 0
M  V30 14505 C 1400.98 3.55802 0.541543 0
M  V30 14506 C 1400.59 4.42563 -0.695853 0
M  V30 14507 C 1402.34 4.09898 1.10379 0
M  V30 14508 C 1400.24 5.90035 -0.401581 0
M  V30 14509 H 1399.17 0.746406 0.106742 0
M  V30 14510 H 1401.82 1.78155 -0.439669 0
M  V30 14511 H 1400.21 3.73457 1.31704 0
M  V30 14512 H 1401.38 4.36684 -1.47118 0
M  V30 14513 H 1399.7 3.99373 -1.17855 0
M  V30 14514 H 1402.29 5.17672 1.33863 0
M  V30 14515 H 1402.64 3.62089 2.0542 0
M  V30 14516 H 1403.17 3.9589 0.389395 0
M  V30 14517 H 1399.91 6.42046 -1.32126 0
M  V30 14518 H 1399.43 5.98858 0.335977 0
M  V30 14519 H 1401.11 6.46999 -0.0126539 0
M  V30 14520 N 1401.24 0.0551678 1.57503 0
M  V30 14521 C 1402.52 -0.657808 1.84207 0
M  V30 14522 C 1402.9 -1.88798 0.944372 0
M  V30 14523 O 1402.24 -2.28499 0.00641728 0
M  V30 14524 C 1402.45 -1.0113 3.34026 0
M  V30 14525 C 1403.8 -1.39189 4.01138 0
M  V30 14526 O 1404.83 -1.10353 3.38675 0
M  V30 14527 O 1403.68 -1.93023 5.11277 0
M  V30 14528 H 1400.78 -0.325084 0.760427 0
M  V30 14529 H 1403.32 0.0848352 1.69488 0
M  V30 14530 H 1402.1 -0.13688 3.91061 0
M  V30 14531 H 1401.72 -1.81126 3.53948 0
M  V30 14532 N 1402.72 -1.56081 -0.218252 0
M  V30 14533 C 1403.63 -1.95856 -1.29141 0
M  V30 14534 C 1404.64 -0.862857 -1.51099 0
M  V30 14535 O 1405.82 -1.1667 -1.64165 0
M  V30 14536 C 1402.88 -2.27005 -2.62049 0
M  V30 14537 C 1401.94 -3.50162 -2.48365 0
M  V30 14538 C 1401.18 -3.79815 -3.74935 0
M  V30 14539 O 1401.4 -3.11095 -4.78096 0
M  V30 14540 O 1400.33 -4.73299 -3.71849 0
M  V30 14541 H 1404.16 -2.8732 -0.983922 0
M  V30 14542 H 1401.75 -1.43334 -0.421385 0
M  V30 14543 H 1403.63 -2.4822 -3.40536 0
M  V30 14544 H 1402.3 -1.38715 -2.92472 0
M  V30 14545 H 1401.21 -3.34222 -1.68066 0
M  V30 14546 H 1402.54 -4.38845 -2.22881 0
M  V30 14547 N 1404.2 0.485086 -1.49949 0
M  V30 14548 C 1405.11 1.61089 -1.70551 0
M  V30 14549 C 1406.12 1.63752 -0.588333 0
M  V30 14550 O 1407.3 1.81879 -0.86498 0
M  V30 14551 C 1404.36 2.97382 -1.78227 0
M  V30 14552 C 1403.42 3.05219 -3.01894 0
M  V30 14553 C 1402.66 4.35011 -3.09195 0
M  V30 14554 O 1402.88 5.24722 -2.23658 0
M  V30 14555 O 1401.81 4.48151 -4.01802 0
M  V30 14556 H 1405.64 1.46633 -2.65956 0
M  V30 14557 H 1403.22 0.663091 -1.33879 0
M  V30 14558 H 1405.11 3.78356 -1.85538 0
M  V30 14559 H 1403.78 3.12066 -0.860043 0
M  V30 14560 H 1402.69 2.23373 -3.00092 0
M  V30 14561 H 1404.02 2.95467 -3.93649 0
M  V30 14562 N 1405.67 1.39291 0.737279 0
M  V30 14563 C 1406.61 1.32216 1.85995 0
M  V30 14564 C 1407.58 0.19623 1.61412 0
M  V30 14565 O 1408.77 0.376297 1.84706 0
M  V30 14566 C 1405.9 1.0525 3.21932 0
M  V30 14567 C 1404.94 2.20002 3.65378 0
M  V30 14568 S 1405.77 3.82265 3.75011 0
M  V30 14569 C 1406.93 3.57519 5.13742 0
M  V30 14570 H 1407.16 2.27231 1.91712 0
M  V30 14571 H 1404.7 1.25319 0.901911 0
M  V30 14572 H 1406.65 0.903753 4.00428 0
M  V30 14573 H 1405.32 0.119258 3.13874 0
M  V30 14574 H 1404.51 1.9672 4.64023 0
M  V30 14575 H 1404.11 2.31068 2.94081 0
M  V30 14576 H 1406.4 3.14643 6.00005 0
M  V30 14577 H 1407.35 4.55616 5.42051 0
M  V30 14578 H 1407.75 2.9167 4.8331 0
M  V30 14579 N 1407.15 -0.967221 1.24429 0
M  V30 14580 C 1408.39 -1.72521 1.09617 0
M  V30 14581 C 1408.76 -1.88618 -0.358774 0
M  V30 14582 O 1409.96 -2.61351 -0.628408 0
M  V30 14583 C 1408.23 -3.07818 1.81612 0
M  V30 14584 S 1409.79 -3.99031 1.82537 0
M  V30 14585 H 1406.6 -0.593148 0.392041 0
M  V30 14586 H 1409.21 -1.15456 1.57766 0
M  V30 14587 H 1407.91 -2.93762 2.86586 0
M  V30 14588 H 1407.44 -3.69948 1.33799 0
M  V30 14589 H 1409.46 -4.88091 0.893391 0
M  V30 14590 N 1408.63 -1.05812 -1.16797 0
M  V30 14591 C 1409.88 -0.767008 -1.86547 0
M  V30 14592 C 1410.19 0.708979 -1.82299 0
M  V30 14593 O 1411.4 1.11428 -2.4758 0
M  V30 14594 C 1409.85 -1.32186 -3.34746 0
M  V30 14595 C 1409.46 -2.82774 -3.4748 0
M  V30 14596 C 1411.21 -1.10808 -4.09783 0
M  V30 14597 C 1409.11 -3.31529 -4.89737 0
M  V30 14598 H 1408.04 -0.283235 -0.698781 0
M  V30 14599 H 1410.69 -1.27621 -1.31853 0
M  V30 14600 H 1409.08 -0.740453 -3.89016 0
M  V30 14601 H 1410.25 -3.46825 -3.03396 0
M  V30 14602 H 1408.56 -3.02765 -2.85871 0
M  V30 14603 H 1411.16 -1.44728 -5.14741 0
M  V30 14604 H 1411.5 -0.046167 -4.16274 0
M  V30 14605 H 1412.04 -1.65502 -3.61737 0
M  V30 14606 H 1408.78 -4.37177 -4.88422 0
M  V30 14607 H 1408.3 -2.72224 -5.34466 0
M  V30 14608 H 1409.98 -3.26572 -5.58534 0
M  V30 14609 N 1410.11 1.33347 -0.840014 0
M  V30 14610 C 1411.06 2.31113 -0.262617 0
M  V30 14611 C 1412.05 1.58189 0.606023 0
M  V30 14612 O 1413.26 1.73047 0.495457 0
M  V30 14613 H 1409.63 0.74908 -0.0662003 0
M  V30 14614 H 1411.6 2.77318 -1.10169 0
M  V30 14615 C 1410.35 3.43377 0.54658 0
M  V30 14616 H 1409.67 3.99642 -0.112514 0
M  V30 14617 H 1411.11 4.13978 0.91641 0
M  V30 14618 C 1409.57 2.89333 1.72592 0
M  V30 14619 O 1410.1 2.85615 2.82466 0
M  V30 14620 N 1408.31 2.45926 1.54819 0
M  V30 14621 H 1407.86 2.49149 0.654404 0
M  V30 14622 H 1407.81 2.10119 2.33875 0
M  V30 14623 N 1411.59 0.596556 1.45873 0
M  V30 14624 C 1412.83 0.090321 2.042 0
M  V30 14625 C 1413.19 -1.25123 1.45631 0
M  V30 14626 O 1414.39 -1.84752 1.95243 0
M  V30 14627 C 1412.66 0.0400377 3.57378 0
M  V30 14628 S 1414.22 -0.40661 4.36912 0
M  V30 14629 H 1411.04 0.0441976 0.709625 0
M  V30 14630 H 1413.64 0.792175 1.78731 0
M  V30 14631 H 1412.34 1.02013 3.97519 0
M  V30 14632 H 1411.88 -0.684156 3.87405 0
M  V30 14633 H 1413.89 -1.65849 4.67663 0
M  V30 14634 N 1413.06 -1.53996 0.335095 0
M  V30 14635 C 1414.31 -2.00375 -0.263475 0
M  V30 14636 C 1414.63 -1.22471 -1.51742 0
M  V30 14637 O 1413.9 -0.329604 -1.93107 0
M  V30 14638 H 1412.48 -0.740229 -0.100347 0
M  V30 14639 H 1415.14 -1.89531 0.454302 0
M  V30 14640 H 1414.24 -3.07874 -0.511834 0
M  V30 14641 N 1414.54 -0.0635198 -1.57472 0
M  V30 14642 C 1415.49 0.906604 -2.12248 0
M  V30 14643 C 1416.46 1.30078 -1.0329 0
M  V30 14644 O 1417.64 1.38809 -1.30907 0
M  V30 14645 C 1414.78 2.1718 -2.68192 0
M  V30 14646 C 1413.9 1.831 -3.91278 0
M  V30 14647 C 1413.03 3.0417 -4.35493 0
M  V30 14648 C 1412.07 2.66069 -5.51248 0
M  V30 14649 N 1411.21 3.79871 -5.9046 0
M  V30 14650 H 1416.05 0.432606 -2.94843 0
M  V30 14651 H 1413.58 0.201895 -1.45708 0
M  V30 14652 H 1415.54 2.91231 -2.98732 0
M  V30 14653 H 1414.17 2.62135 -1.88375 0
M  V30 14654 H 1413.22 0.991473 -3.67252 0
M  V30 14655 H 1414.54 1.51063 -4.75375 0
M  V30 14656 H 1413.69 3.86507 -4.6765 0
M  V30 14657 H 1412.43 3.39395 -3.50232 0
M  V30 14658 H 1411.43 1.82151 -5.1875 0
M  V30 14659 H 1412.66 2.32023 -6.38234 0
M  V30 14660 H 1410.61 4.14873 -5.0815 0
M  V30 14661 H 1410.52 3.51573 -6.69277 0
M  V30 14662 H 1411.79 4.62811 -6.27237 0
M  V30 14663 N 1416.02 1.56195 0.209972 0
M  V30 14664 C 1417.26 1.81525 0.939574 0
M  V30 14665 C 1417.62 0.638789 1.81062 0
M  V30 14666 O 1418.82 0.771648 2.57486 0
M  V30 14667 C 1417.1 3.11809 1.7467 0
M  V30 14668 S 1418.65 3.58494 2.53036 0
M  V30 14669 H 1415.47 0.637211 0.31541 0
M  V30 14670 H 1418.07 1.94431 0.204175 0
M  V30 14671 H 1416.78 3.95463 1.09715 0
M  V30 14672 H 1416.31 3.01742 2.52419 0
M  V30 14673 H 1418.32 3.2275 3.76891 0
M  V30 14674 N 1417.5 -0.477127 1.50204 0
M  V30 14675 C 1418.73 -1.25126 1.64399 0
M  V30 14676 C 1419.14 -1.86401 0.32424 0
M  V30 14677 O 1418.48 -1.69711 -0.703119 0
M  V30 14678 C 1418.54 -2.40428 2.67273 0
M  V30 14679 C 1418.2 -1.99837 4.10992 0
M  V30 14680 C 1419.2 -1.52435 4.97051 0
M  V30 14681 C 1416.89 -2.08742 4.56872 0
M  V30 14682 C 1418.88 -1.14472 6.27037 0
M  V30 14683 C 1416.57 -1.70391 5.86865 0
M  V30 14684 C 1417.57 -1.23333 6.71772 0
M  V30 14685 O 1417.25 -0.855111 7.99339 0
M  V30 14686 H 1416.99 -0.384801 0.555791 0
M  V30 14687 H 1419.54 -0.576654 1.97139 0
M  V30 14688 H 1417.77 -3.1104 2.29763 0
M  V30 14689 H 1419.46 -3.02406 2.7075 0
M  V30 14690 H 1420.22 -1.44981 4.62823 0
M  V30 14691 H 1416.1 -2.44319 3.90934 0
M  V30 14692 H 1419.65 -0.776712 6.93263 0
M  V30 14693 H 1415.54 -1.77501 6.20615 0
M  V30 14694 H 1416.31 -0.984492 8.12558 0
M  V30 14695 N 1418.98 -1.3968 -0.729882 0
M  V30 14696 C 1419.91 -1.33201 -1.85291 0
M  V30 14697 C 1420.89 -0.204787 -1.61305 0
M  V30 14698 O 1422.07 -0.386087 -1.84504 0
M  V30 14699 C 1419.2 -1.06955 -3.21369 0
M  V30 14700 C 1418.24 -2.21937 -3.64207 0
M  V30 14701 S 1419.08 -3.84249 -3.72979 0
M  V30 14702 C 1420.23 -3.60239 -5.11839 0
M  V30 14703 H 1420.47 -2.28244 -1.90504 0
M  V30 14704 H 1418 -1.25796 -0.895252 0
M  V30 14705 H 1419.96 -0.924975 -3.99943 0
M  V30 14706 H 1418.62 -0.135902 -3.13806 0
M  V30 14707 H 1417.81 -1.99179 -4.62973 0
M  V30 14708 H 1417.41 -2.32624 -2.92852 0
M  V30 14709 H 1419.71 -3.17821 -5.98328 0
M  V30 14710 H 1420.65 -4.58485 -5.39627 0
M  V30 14711 H 1421.06 -2.94229 -4.81757 0
M  V30 14712 N 1420.45 0.960609 -1.2494 0
M  V30 14713 C 1421.68 1.73928 -1.12057 0
M  V30 14714 C 1422.1 1.8596 0.32623 0
M  V30 14715 O 1421.45 1.35303 1.22472 0
M  V30 14716 C 1421.51 3.15614 -1.76267 0
M  V30 14717 O 1421.23 3.04177 -3.15291 0
M  V30 14718 C 1422.73 4.09786 -1.69086 0
M  V30 14719 H 1419.95 0.5452 -0.39115 0
M  V30 14720 H 1422.49 1.20556 -1.65186 0
M  V30 14721 H 1420.65 3.65949 -1.27123 0
M  V30 14722 H 1421.06 3.93513 -3.46768 0
M  V30 14723 H 1422.53 5.06835 -2.18683 0
M  V30 14724 H 1423.01 4.34312 -0.653453 0
M  V30 14725 H 1423.62 3.65365 -2.1769 0
M  V30 14726 N 1421.93 1.0643 1.16234 0
M  V30 14727 C 1423.17 0.791061 1.88472 0
M  V30 14728 C 1423.54 -0.670265 1.79921 0
M  V30 14729 O 1424.74 -1.05815 2.47096 0
M  V30 14730 C 1423.01 1.27371 3.33933 0
M  V30 14731 S 1424.57 1.12974 4.24008 0
M  V30 14732 H 1421.39 0.286924 0.650535 0
M  V30 14733 H 1423.99 1.3615 1.40298 0
M  V30 14734 H 1422.69 2.33215 3.37696 0
M  V30 14735 H 1422.22 0.698083 3.87157 0
M  V30 14736 H 1424.24 0.0614942 4.96162 0
M  V30 14737 N 1423.41 -1.329 0.847073 0
M  V30 14738 C 1424.36 -2.3097 0.27487 0
M  V30 14739 C 1425.35 -1.58508 -0.597625 0
M  V30 14740 O 1426.56 -1.73307 -0.486273 0
M  V30 14741 H 1422.93 -0.748719 0.0701719 0
M  V30 14742 H 1424.9 -2.7673 1.11638 0
M  V30 14743 C 1423.65 -3.43662 -0.528363 0
M  V30 14744 H 1422.98 -3.99576 0.133707 0
M  V30 14745 H 1424.42 -4.14458 -0.894443 0
M  V30 14746 C 1422.88 -2.90244 -1.71055 0
M  V30 14747 O 1423.41 -2.87109 -2.80947 0
M  V30 14748 N 1421.61 -2.46743 -1.53512 0
M  V30 14749 H 1421.16 -2.49493 -0.641181 0
M  V30 14750 H 1421.12 -2.11356 -2.32757 0
M  V30 14751 N 1424.89 -0.604284 -1.45555 0
M  V30 14752 C 1426.17 -0.0303285 -1.95576 0
M  V30 14753 C 1426.55 1.43661 -1.54676 0
M  V30 14754 O 1425.89 2.13747 -0.807731 0
M  V30 14755 C 1426.1 -0.22497 -3.48274 0
M  V30 14756 C 1427.45 -0.104042 -4.24473 0
M  V30 14757 O 1428.48 -0.154919 -3.55863 0
M  V30 14758 O 1427.33 0.0136297 -5.46498 0
M  V30 14759 H 1424.43 0.0376106 -0.826144 0
M  V30 14760 H 1426.97 -0.674114 -1.55736 0
M  V30 14761 H 1425.75 -1.24391 -3.71002 0
M  V30 14762 H 1425.37 0.454234 -3.94997 0
M  V30 14763 N 1426.37 1.53816 -0.343257 0
M  V30 14764 C 1427.59 2.05796 0.257418 0
M  V30 14765 C 1428.02 1.2166 1.43459 0
M  V30 14766 O 1427.37 0.230278 1.79832 0
M  V30 14767 C 1427.42 3.54681 0.65068 0
M  V30 14768 O 1426.53 3.73394 1.75074 0
M  V30 14769 H 1425.87 0.662622 0.042757 0
M  V30 14770 H 1428.4 1.98462 -0.497386 0
M  V30 14771 H 1428.41 3.97308 0.927914 0
M  V30 14772 H 1427.08 4.15368 -0.210199 0
M  V30 14773 H 1425.66 3.42669 1.4708 0
M  V30 14774 N 1427.84 0.0718701 1.57436 0
M  V30 14775 C 1429.09 -0.596052 1.9311 0
M  V30 14776 C 1429.41 -1.70146 0.952652 0
M  V30 14777 O 1428.68 -1.959 0.000812941 0
M  V30 14778 H 1427.26 -0.223165 0.712886 0
M  V30 14779 H 1429.93 0.129744 1.94468 0
M  V30 14780 H 1429.02 -1.02132 2.94916 0
M  V30 14781 N 1429.32 -1.56304 -0.201686 0
M  V30 14782 C 1430.55 -1.84074 -0.938103 0
M  V30 14783 C 1430.96 -0.651377 -1.77634 0
M  V30 14784 O 1430.3 0.389278 -1.79528 0
M  V30 14785 C 1430.37 -3.05856 -1.88924 0
M  V30 14786 C 1430.03 -4.40036 -1.2336 0
M  V30 14787 C 1431.03 -5.16265 -0.613737 0
M  V30 14788 C 1428.71 -4.86768 -1.23942 0
M  V30 14789 C 1430.71 -6.37399 -0.00844569 0
M  V30 14790 C 1428.39 -6.07841 -0.630296 0
M  V30 14791 C 1429.39 -6.82998 -0.0158799 0
M  V30 14792 O 1429.08 -8.01778 0.58372 0
M  V30 14793 H 1428.81 -0.615492 -0.279545 0
M  V30 14794 H 1431.36 -2.04262 -0.215938 0
M  V30 14795 H 1429.59 -2.81536 -2.65093 0
M  V30 14796 H 1431.28 -3.20328 -2.49289 0
M  V30 14797 H 1432.05 -4.81257 -0.601424 0
M  V30 14798 H 1427.93 -4.2823 -1.70705 0
M  V30 14799 H 1431.47 -6.96003 0.47174 0
M  V30 14800 H 1427.37 -6.42319 -0.640089 0
M  V30 14801 H 1428.14 -8.17091 0.479979 0
M  V30 14802 N 1430.8 0.469154 -1.50455 0
M  V30 14803 C 1431.73 1.58443 -1.65615 0
M  V30 14804 C 1432.75 1.53668 -0.537584 0
M  V30 14805 O 1433.93 1.59021 -0.810832 0
M  V30 14806 C 1431.03 2.97327 -1.62634 0
M  V30 14807 C 1430.21 3.2695 -2.90555 0
M  V30 14808 C 1429.27 4.45398 -2.80191 0
M  V30 14809 O 1428.29 4.45611 -3.54146 0
M  V30 14810 N 1429.49 5.47167 -1.93878 0
M  V30 14811 H 1432.26 1.45854 -2.61814 0
M  V30 14812 H 1429.82 0.657604 -1.47943 0
M  V30 14813 H 1431.81 3.74537 -1.53311 0
M  V30 14814 H 1430.38 3.03675 -0.741624 0
M  V30 14815 H 1429.6 2.38335 -3.13991 0
M  V30 14816 H 1430.89 3.43554 -3.75297 0
M  V30 14817 H 1430.29 5.49817 -1.33109 0
M  V30 14818 H 1428.85 6.23353 -1.90457 0
M  V30 14819 N 1432.28 1.40065 0.722464 0
M  V30 14820 C 1433.24 1.39544 1.81825 0
M  V30 14821 C 1434.24 0.290385 1.58156 0
M  V30 14822 O 1435.43 0.54894 1.65325 0
M  V30 14823 C 1432.56 1.18041 3.19811 0
M  V30 14824 H 1433.76 2.37063 1.83687 0
M  V30 14825 H 1431.31 1.25813 0.927404 0
M  V30 14826 H 1432.04 0.212536 3.23603 0
M  V30 14827 H 1431.83 1.98079 3.38389 0
M  V30 14828 H 1433.32 1.20447 3.99853 0
M  V30 14829 N 1433.76 -0.95397 1.25448 0
M  V30 14830 C 1435.01 -1.69305 1.09631 0
M  V30 14831 C 1435.32 -1.92213 -0.362413 0
M  V30 14832 O 1436.53 -2.63824 -0.641036 0
M  V30 14833 C 1434.98 -3.04805 1.91369 0
M  V30 14834 C 1434.59 -2.8969 3.41737 0
M  V30 14835 C 1436.33 -3.82491 1.84123 0
M  V30 14836 C 1434.24 -4.20584 4.15768 0
M  V30 14837 H 1433.17 -0.63494 0.406654 0
M  V30 14838 H 1435.82 -1.06195 1.49649 0
M  V30 14839 H 1434.2 -3.68822 1.44174 0
M  V30 14840 H 1435.38 -2.346 3.9661 0
M  V30 14841 H 1433.69 -2.25458 3.50082 0
M  V30 14842 H 1436.29 -4.79442 2.36727 0
M  V30 14843 H 1436.63 -4.08358 0.809265 0
M  V30 14844 H 1437.17 -3.25224 2.29072 0
M  V30 14845 H 1433.9 -3.99905 5.19381 0
M  V30 14846 H 1433.42 -4.75436 3.65678 0
M  V30 14847 H 1435.1 -4.89122 4.2352 0
M  V30 14848 N 1435.24 -1.07045 -1.15668 0
M  V30 14849 C 1436.17 -0.645945 -2.1991 0
M  V30 14850 C 1437.18 0.29995 -1.60013 0
M  V30 14851 O 1438.37 0.0897537 -1.78274 0
M  V30 14852 C 1435.47 0.0721917 -3.38823 0
M  V30 14853 C 1434.64 -0.889103 -4.28268 0
M  V30 14854 C 1433.7 -0.208829 -5.25785 0
M  V30 14855 O 1432.73 -0.848894 -5.62834 0
M  V30 14856 N 1433.93 1.04671 -5.70985 0
M  V30 14857 H 1436.69 -1.54266 -2.56948 0
M  V30 14858 H 1434.26 -0.954736 -1.30753 0
M  V30 14859 H 1436.25 0.537882 -4.0111 0
M  V30 14860 H 1434.82 0.870805 -3.00226 0
M  V30 14861 H 1434.04 -1.53399 -3.63129 0
M  V30 14862 H 1435.33 -1.54097 -4.84904 0
M  V30 14863 H 1434.72 1.58673 -5.42991 0
M  V30 14864 H 1433.28 1.45613 -6.35327 0
M  V30 14865 N 1436.71 1.32449 -0.85411 0
M  V30 14866 C 1437.96 1.97271 -0.457223 0
M  V30 14867 C 1438.29 1.67595 0.987031 0
M  V30 14868 O 1437.54 0.956301 1.70744 0
M  V30 14869 C 1437.84 3.51577 -0.642499 0
M  V30 14870 C 1437.51 4.01239 -2.05714 0
M  V30 14871 C 1436.17 4.14512 -2.44405 0
M  V30 14872 C 1438.52 4.27573 -2.98046 0
M  V30 14873 C 1435.85 4.5146 -3.74701 0
M  V30 14874 C 1438.2 4.65979 -4.27839 0
M  V30 14875 C 1436.87 4.77458 -4.66465 0
M  V30 14876 H 1436.14 0.721865 -0.16731 0
M  V30 14877 H 1438.78 1.57862 -1.08406 0
M  V30 14878 H 1437.09 3.91742 0.0675706 0
M  V30 14879 H 1438.79 3.99757 -0.315473 0
M  V30 14880 H 1435.38 3.91393 -1.74669 0
M  V30 14881 H 1439.56 4.16827 -2.69386 0
M  V30 14882 H 1434.82 4.58542 -4.04412 0
M  V30 14883 H 1438.99 4.8531 -4.99447 0
M  V30 14884 H 1436.62 5.05845 -5.67472 0
M  V30 14885 N 1438.19 0.611994 1.45232 0
M  V30 14886 C 1439.47 0.0407 1.95558 0
M  V30 14887 C 1439.85 -1.42839 1.55436 0
M  V30 14888 O 1439.2 -2.13316 0.819055 0
M  V30 14889 C 1439.41 0.243436 3.4815 0
M  V30 14890 C 1440.75 0.126551 4.24411 0
M  V30 14891 O 1441.78 0.17379 3.55776 0
M  V30 14892 O 1440.64 0.0153526 5.46498 0
M  V30 14893 H 1437.73 -0.0332288 0.826332 0
M  V30 14894 H 1440.28 0.682364 1.55377 0
M  V30 14895 H 1439.05 1.26357 3.70337 0
M  V30 14896 H 1438.67 -0.43328 3.95232 0
M  V30 14897 N 1439.67 -1.53632 0.351409 0
M  V30 14898 C 1441.08 -1.86241 -0.130834 0
M  V30 14899 C 1441.43 -1.27243 -1.49344 0
M  V30 14900 O 1440.56 -0.589006 -2.0823 0
M  V30 14901 C 1441.15 -3.37919 -0.244179 0
M  V30 14902 C 1439.71 -3.70377 -0.670662 0
M  V30 14903 C 1438.86 -2.76643 0.190813 0
M  V30 14904 H 1441.81 -1.48083 0.570724 0
M  V30 14905 H 1441.83 -3.65137 -1.07029 0
M  V30 14906 H 1441.34 -3.8083 0.747688 0
M  V30 14907 H 1439.44 -3.33015 -1.67127 0
M  V30 14908 H 1439.56 -4.76934 -0.455102 0
M  V30 14909 H 1437.92 -2.52446 -0.338092 0
M  V30 14910 H 1438.7 -3.22385 1.17996 0
M  V30 14911 N 1441.15 -0.0802183 -1.57396 0
M  V30 14912 C 1442.06 0.898597 -2.16708 0
M  V30 14913 C 1443.07 1.321 -1.1325 0
M  V30 14914 O 1444.25 1.39197 -1.45554 0
M  V30 14915 C 1441.31 2.14501 -2.72379 0
M  V30 14916 C 1440.38 1.77822 -3.9074 0
M  V30 14917 C 1439.61 2.96521 -4.43747 0
M  V30 14918 O 1439.83 4.10797 -3.9573 0
M  V30 14919 O 1438.77 2.75849 -5.34968 0
M  V30 14920 H 1442.59 0.424027 -3.00725 0
M  V30 14921 H 1440.18 0.14332 -1.48711 0
M  V30 14922 H 1442.06 2.87575 -3.08024 0
M  V30 14923 H 1440.73 2.61039 -1.91416 0
M  V30 14924 H 1439.64 1.01974 -3.59934 0
M  V30 14925 H 1440.97 1.36059 -4.73021 0
M  V30 14926 N 1442.63 1.56409 0.193394 0
M  V30 14927 C 1443.85 1.84837 0.929676 0
M  V30 14928 C 1444.27 0.662928 1.76779 0
M  V30 14929 O 1443.63 -0.368339 1.78744 0
M  V30 14930 C 1443.68 3.12083 1.82445 0
M  V30 14931 O 1443.4 4.26056 1.02018 0
M  V30 14932 C 1444.9 3.53701 2.67227 0
M  V30 14933 H 1442.12 0.613766 0.271168 0
M  V30 14934 H 1444.66 2.03518 0.200134 0
M  V30 14935 H 1442.82 2.95294 2.5076 0
M  V30 14936 H 1443.23 4.98526 1.63008 0
M  V30 14937 H 1444.71 4.45699 3.25663 0
M  V30 14938 H 1445.18 2.76771 3.41019 0
M  V30 14939 H 1445.79 3.73027 2.04281 0
M  V30 14940 N 1444.1 -0.461169 1.50702 0
M  V30 14941 C 1445.05 -1.55575 1.66675 0
M  V30 14942 C 1446.04 -1.52227 0.521128 0
M  V30 14943 O 1447.23 -1.59083 0.775989 0
M  V30 14944 C 1444.36 -2.93951 1.77336 0
M  V30 14945 C 1443.44 -3.02145 2.97606 0
M  V30 14946 N 1443.84 -2.80131 4.21142 0
M  V30 14947 C 1442.13 -3.33289 2.96369 0
M  V30 14948 C 1442.83 -2.93549 5.02199 0
M  V30 14949 N 1441.81 -3.24184 4.36355 0
M  V30 14950 H 1445.61 -1.3727 2.59874 0
M  V30 14951 H 1443.13 -0.668078 1.48022 0
M  V30 14952 H 1445.12 -3.72666 1.86884 0
M  V30 14953 H 1443.78 -3.13295 0.853023 0
M  V30 14954 H 1444.79 -2.55519 4.50478 0
M  V30 14955 H 1441.47 -3.58558 2.13875 0
M  V30 14956 H 1442.86 -2.80685 6.10463 0
M  V30 14957 N 1445.58 -1.40446 -0.715026 0
M  V30 14958 C 1446.51 -1.43511 -1.84193 0
M  V30 14959 C 1447.49 -0.295969 -1.67505 0
M  V30 14960 O 1448.68 -0.504667 -1.87528 0
M  V30 14961 C 1445.81 -1.29751 -3.22152 0
M  V30 14962 C 1444.76 -2.41274 -3.53512 0
M  V30 14963 C 1444.09 -2.12591 -4.90621 0
M  V30 14964 C 1445.39 -3.83614 -3.54454 0
M  V30 14965 H 1447.08 -2.37819 -1.81885 0
M  V30 14966 H 1444.63 -1.14469 -0.873655 0
M  V30 14967 H 1446.58 -1.30511 -4.0068 0
M  V30 14968 H 1445.3 -0.319189 -3.25037 0
M  V30 14969 H 1443.96 -2.39764 -2.77324 0
M  V30 14970 H 1443.61 -1.13148 -4.90109 0
M  V30 14971 H 1443.31 -2.87308 -5.1257 0
M  V30 14972 H 1444.84 -2.15034 -5.71483 0
M  V30 14973 H 1446.25 -3.86945 -4.23021 0
M  V30 14974 H 1444.65 -4.57855 -3.87929 0
M  V30 14975 H 1445.72 -4.13159 -2.53827 0
M  V30 14976 N 1447.06 0.947303 -1.25952 0
M  V30 14977 C 1448.47 1.50755 -1.10136 0
M  V30 14978 C 1448.82 1.93566 0.320437 0
M  V30 14979 O 1447.95 1.79326 1.21125 0
M  V30 14980 C 1448.54 2.7397 -1.99313 0
M  V30 14981 C 1447.1 3.26283 -1.8766 0
M  V30 14982 C 1446.25 1.99088 -1.93027 0
M  V30 14983 H 1449.2 0.763427 -1.39131 0
M  V30 14984 H 1449.22 3.48057 -1.53742 0
M  V30 14985 H 1448.73 2.42781 -3.02785 0
M  V30 14986 H 1446.83 3.62277 -0.870992 0
M  V30 14987 H 1446.95 3.93803 -2.72866 0
M  V30 14988 H 1445.31 2.14714 -1.37003 0
M  V30 14989 H 1446.09 1.70237 -2.98118 0
M  V30 14990 N 1448.54 1.07657 1.15099 0
M  V30 14991 C 1449.77 0.822825 1.89835 0
M  V30 14992 C 1450.18 -0.624281 1.7818 0
M  V30 14993 O 1449.54 -1.42844 1.13587 0
M  V30 14994 C 1449.59 1.22598 3.40076 0
M  V30 14995 O 1449.31 2.61631 3.51398 0
M  V30 14996 C 1450.81 1.00199 4.31828 0
M  V30 14997 H 1448.03 0.297288 0.601549 0
M  V30 14998 H 1450.58 1.43384 1.45813 0
M  V30 14999 H 1448.73 0.65923 3.8175 0
M  V30 15000 H 1449.14 2.78163 4.44664 0
M  V30 15001 H 1450.62 1.33355 5.35649 0
M  V30 15002 H 1451.1 -0.0614865 4.39157 0
M  V30 15003 H 1451.7 1.5538 3.959 0
M  V30 15004 N 1450.02 -1.31994 0.861122 0
M  V30 15005 C 1451.27 -1.96294 0.463868 0
M  V30 15006 C 1451.58 -1.68869 -0.98704 0
M  V30 15007 O 1452.78 -2.26959 -1.49003 0
M  V30 15008 C 1451.24 -3.51377 0.77858 0
M  V30 15009 C 1450.85 -3.87653 2.24565 0
M  V30 15010 C 1452.59 -4.22115 0.449365 0
M  V30 15011 C 1450.5 -5.35809 2.50324 0
M  V30 15012 H 1449.43 -0.734647 0.169733 0
M  V30 15013 H 1452.08 -1.50294 1.0528 0
M  V30 15014 H 1450.46 -3.95821 0.119005 0
M  V30 15015 H 1451.64 -3.54197 2.94755 0
M  V30 15016 H 1449.95 -3.29957 2.54003 0
M  V30 15017 H 1452.55 -5.31103 0.61916 0
M  V30 15018 H 1452.89 -4.11814 -0.609528 0
M  V30 15019 H 1453.42 -3.83276 1.06511 0
M  V30 15020 H 1450.16 -5.51138 3.54863 0
M  V30 15021 H 1449.68 -5.70648 1.84719 0
M  V30 15022 H 1451.36 -6.02968 2.34602 0
M  V30 15023 N 1451.49 -0.619688 -1.44906 0
M  V30 15024 C 1452.72 -0.126363 -2.06514 0
M  V30 15025 C 1453.14 1.19432 -1.46224 0
M  V30 15026 O 1452.49 1.7301 -0.580851 0
M  V30 15027 C 1452.55 0.00682319 -3.61499 0
M  V30 15028 O 1452.27 -1.26162 -4.19541 0
M  V30 15029 C 1453.77 0.530189 -4.40118 0
M  V30 15030 H 1450.99 -0.0744032 -0.666862 0
M  V30 15031 H 1453.53 -0.850851 -1.85959 0
M  V30 15032 H 1451.69 0.681694 -3.81355 0
M  V30 15033 H 1452.1 -1.09908 -5.12855 0
M  V30 15034 H 1453.57 0.572428 -5.49024 0
M  V30 15035 H 1454.05 1.55494 -4.10753 0
M  V30 15036 H 1454.66 -0.111044 -4.25155 0
M  V30 15037 N 1452.97 1.53444 -0.359552 0
M  V30 15038 C 1454.25 1.93467 0.288106 0
M  V30 15039 C 1454.63 1.29256 1.66901 0
M  V30 15040 O 1453.98 0.449402 2.24037 0
M  V30 15041 C 1454.19 3.47297 0.344359 0
M  V30 15042 C 1455.54 4.20515 0.587585 0
M  V30 15043 O 1456.56 3.53646 0.425818 0
M  V30 15044 O 1455.42 5.39003 0.902119 0
M  V30 15045 H 1452.51 0.809033 0.171451 0
M  V30 15046 H 1455.06 1.64625 -0.411896 0
M  V30 15047 H 1453.83 3.86292 -0.624064 0
M  V30 15048 H 1453.45 3.82353 1.0905 0
M  V30 15049 N 1454.45 0.0885642 1.57351 0
M  V30 15050 C 1455.68 -0.585238 1.9845 0
M  V30 15051 C 1456.09 -1.62127 0.967483 0
M  V30 15052 O 1455.45 -1.82448 -0.0437565 0
M  V30 15053 C 1455.5 -1.23881 3.39611 0
M  V30 15054 O 1455.22 -0.244223 4.37419 0
M  V30 15055 C 1456.72 -1.99885 3.95678 0
M  V30 15056 H 1453.94 -0.157396 0.652279 0
M  V30 15057 H 1456.49 0.165923 2.03826 0
M  V30 15058 H 1454.64 -1.94094 3.3527 0
M  V30 15059 H 1455.06 -0.715149 5.19602 0
M  V30 15060 H 1456.53 -2.40983 4.9662 0
M  V30 15061 H 1457.01 -2.8621 3.33137 0
M  V30 15062 H 1457.61 -1.34501 4.03472 0
M  V30 15063 N 1455.93 -1.56509 -0.185096 0
M  V30 15064 C 1457.17 -1.82997 -0.910576 0
M  V30 15065 C 1457.53 -0.667514 -1.80023 0
M  V30 15066 O 1458.73 -0.812514 -2.56226 0
M  V30 15067 C 1457 -3.14549 -1.69688 0
M  V30 15068 S 1458.56 -3.62474 -2.47301 0
M  V30 15069 H 1455.38 -0.642148 -0.305233 0
M  V30 15070 H 1457.98 -1.94731 -0.173217 0
M  V30 15071 H 1456.69 -3.97158 -1.0341 0
M  V30 15072 H 1456.22 -3.05719 -2.47587 0
M  V30 15073 H 1458.23 -3.28705 -3.71709 0
M  V30 15074 N 1457.41 0.45317 -1.50944 0
M  V30 15075 C 1458.63 1.22672 -1.66611 0
M  V30 15076 C 1459.05 1.85398 -0.356814 0
M  V30 15077 O 1458.41 1.70026 0.663122 0
M  V30 15078 C 1458.46 2.32238 -2.77034 0
M  V30 15079 O 1458.18 1.72081 -4.02889 0
M  V30 15080 C 1459.68 3.22802 -3.03832 0
M  V30 15081 H 1456.9 0.370337 -0.559546 0
M  V30 15082 H 1459.44 0.538884 -1.97272 0
M  V30 15083 H 1457.6 2.96765 -2.49017 0
M  V30 15084 H 1458.01 2.4437 -4.64095 0
M  V30 15085 H 1459.49 3.95851 -3.84716 0
M  V30 15086 H 1459.96 3.82636 -2.15608 0
M  V30 15087 H 1460.57 2.63993 -3.33449 0
M  V30 15088 N 1458.88 1.40823 0.707568 0
M  V30 15089 C 1460.13 1.39259 1.46463 0
M  V30 15090 C 1460.45 -0.00157854 1.95 0
M  V30 15091 O 1459.72 -0.957723 1.70893 0
M  V30 15092 H 1458.3 0.512558 0.543409 0
M  V30 15093 H 1460.97 1.75952 0.838269 0
M  V30 15094 H 1460.06 2.07243 2.3336 0
M  V30 15095 N 1460.36 -0.94061 1.26453 0
M  V30 15096 C 1461.6 -1.70157 1.13252 0
M  V30 15097 C 1461.97 -1.89337 -0.318684 0
M  V30 15098 O 1463.17 -2.62625 -0.57283 0
M  V30 15099 C 1461.44 -3.03896 1.88101 0
M  V30 15100 S 1463 -3.95069 1.9096 0
M  V30 15101 H 1459.82 -0.584699 0.404534 0
M  V30 15102 H 1462.42 -1.12084 1.6018 0
M  V30 15103 H 1461.12 -2.87617 2.92753 0
M  V30 15104 H 1460.65 -3.67026 1.41616 0
M  V30 15105 H 1462.67 -4.86086 0.996721 0
M  V30 15106 N 1461.84 -1.08266 -1.14527 0
M  V30 15107 C 1463.07 -0.83288 -1.89396 0
M  V30 15108 C 1463.48 0.614823 -1.78509 0
M  V30 15109 O 1462.84 1.42239 -1.14343 0
M  V30 15110 C 1462.89 -1.244 -3.39421 0
M  V30 15111 O 1462.61 -2.63491 -3.50006 0
M  V30 15112 C 1464.11 -1.02488 -4.3129 0
M  V30 15113 H 1461.33 -0.300474 -0.599964 0
M  V30 15114 H 1463.88 -1.44155 -1.4505 0
M  V30 15115 H 1462.03 -0.679466 -3.81395 0
M  V30 15116 H 1462.45 -2.80517 -4.43182 0
M  V30 15117 H 1463.92 -1.36194 -5.34935 0
M  V30 15118 H 1464.4 0.0381961 -4.39183 0
M  V30 15119 H 1465 -1.57477 -3.95071 0
M  V30 15120 N 1463.32 1.31536 -0.86811 0
M  V30 15121 C 1464.25 2.31037 -0.33822 0
M  V30 15122 C 1465.23 1.60269 0.569892 0
M  V30 15123 O 1466.42 1.87987 0.487305 0
M  V30 15124 C 1463.55 3.44203 0.462753 0
M  V30 15125 C 1462.5 4.26549 -0.3521 0
M  V30 15126 C 1461.83 5.31605 0.574443 0
M  V30 15127 C 1463.13 4.97665 -1.58516 0
M  V30 15128 H 1464.82 2.75607 -1.16967 0
M  V30 15129 H 1462.37 1.325 -0.56389 0
M  V30 15130 H 1464.32 4.12862 0.843967 0
M  V30 15131 H 1463.04 2.98396 1.32769 0
M  V30 15132 H 1461.7 3.59555 -0.715237 0
M  V30 15133 H 1461.35 4.82048 1.43661 0
M  V30 15134 H 1461.05 5.87591 0.0331436 0
M  V30 15135 H 1462.57 6.03124 0.952541 0
M  V30 15136 H 1463.99 5.58931 -1.27549 0
M  V30 15137 H 1462.38 5.63437 -2.06539 0
M  V30 15138 H 1463.45 4.24756 -2.33902 0
M  V30 15139 N 1464.8 0.627364 1.44575 0
M  V30 15140 C 1466.04 0.133615 2.03963 0
M  V30 15141 C 1466.4 -1.22005 1.48252 0
M  V30 15142 O 1467.6 -1.80569 1.99118 0
M  V30 15143 C 1465.87 0.115834 3.57212 0
M  V30 15144 S 1467.43 -0.313843 4.37676 0
M  V30 15145 H 1464.25 0.0592399 0.708528 0
M  V30 15146 H 1466.85 0.829908 1.77011 0
M  V30 15147 H 1465.56 1.10422 3.95266 0
M  V30 15148 H 1465.09 -0.601828 3.88769 0
M  V30 15149 H 1467.1 -1.55892 4.71075 0
M  V30 15150 N 1466.28 -1.53251 0.367684 0
M  V30 15151 C 1467.21 -2.28728 -0.469676 0
M  V30 15152 C 1468.19 -1.3124 -1.08213 0
M  V30 15153 O 1469.37 -1.60112 -1.09898 0
M  V30 15154 C 1466.5 -3.07808 -1.60846 0
M  V30 15155 C 1465.46 -4.13 -1.12315 0
M  V30 15156 C 1464.78 -4.80176 -2.35234 0
M  V30 15157 C 1466.08 -5.21892 -0.2064 0
M  V30 15158 H 1467.78 -2.98972 0.160019 0
M  V30 15159 H 1465.32 -1.43786 0.0784011 0
M  V30 15160 H 1467.27 -3.59358 -2.20091 0
M  V30 15161 H 1466 -2.35258 -2.26542 0
M  V30 15162 H 1464.66 -3.62399 -0.553378 0
M  V30 15163 H 1464.31 -4.04196 -2.99391 0
M  V30 15164 H 1464.01 -5.51261 -2.03433 0
M  V30 15165 H 1465.53 -5.34521 -2.9516 0
M  V30 15166 H 1466.94 -5.68932 -0.706386 0
M  V30 15167 H 1465.34 -6.00096 0.0208362 0
M  V30 15168 H 1466.41 -4.79051 0.750851 0
M  V30 15169 N 1467.75 -0.0969077 -1.57302 0
M  V30 15170 C 1468.98 0.578086 -1.99181 0
M  V30 15171 C 1469.4 1.60818 -0.975667 0
M  V30 15172 O 1468.76 1.81215 0.0556054 0
M  V30 15173 C 1468.81 1.20076 -3.40021 0
M  V30 15174 O 1467.91 2.31656 -3.41188 0
M  V30 15175 H 1467.25 0.146506 -0.647636 0
M  V30 15176 H 1469.78 -0.178855 -2.03817 0
M  V30 15177 H 1469.79 1.54162 -3.77754 0
M  V30 15178 H 1468.47 0.446114 -4.135 0
M  V30 15179 H 1467.05 1.99175 -3.15252 0
M  V30 15180 N 1469.23 1.56605 0.176793 0
M  V30 15181 C 1470.48 1.81952 0.895627 0
M  V30 15182 C 1470.81 0.673893 1.82133 0
M  V30 15183 O 1470.09 -0.324494 1.91774 0
M  V30 15184 C 1470.37 3.17658 1.69604 0
M  V30 15185 C 1470.22 4.4274 0.793834 0
M  V30 15186 C 1471.54 3.50246 2.66488 0
M  V30 15187 H 1468.66 0.661884 0.324159 0
M  V30 15188 H 1471.3 1.89307 0.162092 0
M  V30 15189 H 1469.45 3.11518 2.3214 0
M  V30 15190 H 1471.12 4.60942 0.181775 0
M  V30 15191 H 1469.37 4.33681 0.101566 0
M  V30 15192 H 1470.04 5.34231 1.38927 0
M  V30 15193 H 1472.51 3.56804 2.1408 0
M  V30 15194 H 1471.39 4.46286 3.19562 0
M  V30 15195 H 1471.65 2.7467 3.46423 0
M  V30 15196 N 1470.71 -0.445159 1.51182 0
M  V30 15197 C 1471.95 -1.2048 1.65118 0
M  V30 15198 C 1472.31 -1.88673 0.35589 0
M  V30 15199 O 1473.51 -2.66228 0.370932 0
M  V30 15200 C 1471.79 -2.20075 2.81606 0
M  V30 15201 S 1473.34 -3.04631 3.15825 0
M  V30 15202 H 1470.16 -0.408682 0.581807 0
M  V30 15203 H 1472.76 -0.497601 1.89061 0
M  V30 15204 H 1471.47 -1.68603 3.74167 0
M  V30 15205 H 1471 -2.95387 2.59827 0
M  V30 15206 H 1473.01 -4.21606 2.61654 0
M  V30 15207 N 1472.19 -1.41197 -0.700089 0
M  V30 15208 C 1473.6 -1.3593 -1.27985 0
M  V30 15209 C 1473.95 -0.0402059 -1.96159 0
M  V30 15210 O 1473.07 0.861611 -1.98508 0
M  V30 15211 C 1473.67 -2.46203 -2.32743 0
M  V30 15212 C 1472.23 -2.44348 -2.86306 0
M  V30 15213 C 1471.38 -2.26283 -1.60285 0
M  V30 15214 H 1474.33 -1.50778 -0.495152 0
M  V30 15215 H 1474.35 -2.15001 -3.13934 0
M  V30 15216 H 1473.86 -3.42195 -1.83096 0
M  V30 15217 H 1471.96 -1.521 -3.40142 0
M  V30 15218 H 1472.07 -3.40497 -3.37044 0
M  V30 15219 H 1470.44 -1.74078 -1.85928 0
M  V30 15220 H 1471.22 -3.24295 -1.1264 0
M  V30 15221 N 1473.67 0.933891 -1.2695 0
M  V30 15222 C 1474.91 1.67539 -1.1231 0
M  V30 15223 C 1475.23 1.92765 0.331788 0
M  V30 15224 O 1476.43 2.6481 0.598983 0
M  V30 15225 C 1474.89 3.01722 -1.96194 0
M  V30 15226 C 1474.5 2.84216 -3.46302 0
M  V30 15227 C 1476.24 3.79513 -1.90185 0
M  V30 15228 C 1474.15 4.13916 -4.22407 0
M  V30 15229 H 1473.08 0.62839 -0.416704 0
M  V30 15230 H 1475.73 1.03801 -1.5132 0
M  V30 15231 H 1474.11 3.66482 -1.50023 0
M  V30 15232 H 1475.29 2.28261 -4.00292 0
M  V30 15233 H 1473.6 2.1986 -3.53625 0
M  V30 15234 H 1476.2 4.75615 -2.44325 0
M  V30 15235 H 1476.54 4.07019 -0.874129 0
M  V30 15236 H 1477.07 3.21539 -2.34217 0
M  V30 15237 H 1473.81 3.91591 -5.25677 0
M  V30 15238 H 1473.33 4.69558 -3.73196 0
M  V30 15239 H 1475.01 4.82322 -4.31248 0
M  V30 15240 N 1475.14 1.08871 1.13951 0
M  V30 15241 C 1476.39 0.822504 1.85372 0
M  V30 15242 C 1476.72 -0.650183 1.82993 0
M  V30 15243 O 1476 -1.4783 1.26398 0
M  V30 15244 C 1476.28 1.35107 3.33793 0
M  V30 15245 C 1476.13 2.88945 3.44719 0
M  V30 15246 C 1477.45 0.980203 4.29045 0
M  V30 15247 H 1474.57 0.300255 0.673065 0
M  V30 15248 H 1477.21 1.34914 1.33784 0
M  V30 15249 H 1475.36 0.903108 3.77857 0
M  V30 15250 H 1477.04 3.42148 3.09407 0
M  V30 15251 H 1475.28 3.26365 2.85777 0
M  V30 15252 H 1475.95 3.21004 4.49066 0
M  V30 15253 H 1478.43 1.36646 3.93023 0
M  V30 15254 H 1477.3 1.37717 5.31343 0
M  V30 15255 H 1477.56 -0.112253 4.41957 0
M  V30 15256 N 1476.62 -1.31073 0.875073 0
M  V30 15257 C 1477.9 -1.91276 0.409015 0
M  V30 15258 C 1478.28 -1.79599 -1.10939 0
M  V30 15259 O 1477.63 -1.2069 -1.94026 0
M  V30 15260 C 1477.84 -3.373 0.896074 0
M  V30 15261 C 1479.18 -4.14397 0.925205 0
M  V30 15262 O 1480.21 -3.46104 0.842069 0
M  V30 15263 O 1479.07 -5.36389 1.0464 0
M  V30 15264 H 1476.16 -0.817755 0.12331 0
M  V30 15265 H 1478.71 -1.39708 0.963322 0
M  V30 15266 H 1477.48 -3.39837 1.93975 0
M  V30 15267 H 1477.1 -3.96307 0.320367 0
M  V30 15268 N 1478.1 -0.635022 -1.4424 0
M  V30 15269 C 1479.34 -0.144429 -2.03889 0
M  V30 15270 C 1479.7 1.21217 -1.48897 0
M  V30 15271 O 1480.91 1.79511 -2.00073 0
M  V30 15272 C 1479.18 -0.134776 -3.57146 0
M  V30 15273 S 1480.74 0.290628 -4.37836 0
M  V30 15274 H 1477.55 -0.0629965 -0.708204 0
M  V30 15275 H 1480.16 -0.839284 -1.76568 0
M  V30 15276 H 1478.86 -1.12516 -3.94675 0
M  V30 15277 H 1478.39 0.581202 -3.89083 0
M  V30 15278 H 1480.41 1.53392 -4.71896 0
M  V30 15279 N 1479.58 1.53054 -0.375806 0
M  V30 15280 C 1480.83 2.00584 0.211847 0
M  V30 15281 C 1481.14 1.26692 1.49025 0
M  V30 15282 O 1482.35 1.64863 2.15713 0
M  V30 15283 C 1480.8 3.57345 0.428074 0
M  V30 15284 C 1480.41 4.40125 -0.836299 0
M  V30 15285 C 1482.15 4.13203 0.972825 0
M  V30 15286 C 1480.06 5.88459 -0.589093 0
M  V30 15287 H 1478.99 0.749424 0.0829412 0
M  V30 15288 H 1481.64 1.76666 -0.496126 0
M  V30 15289 H 1480.02 3.77458 1.19756 0
M  V30 15290 H 1481.2 4.31782 -1.60936 0
M  V30 15291 H 1479.51 3.95422 -1.30501 0
M  V30 15292 H 1482.11 5.21669 1.17326 0
M  V30 15293 H 1482.45 3.68441 1.93797 0
M  V30 15294 H 1482.99 3.96928 0.263249 0
M  V30 15295 H 1479.73 6.37517 -1.52485 0
M  V30 15296 H 1479.25 5.99624 0.145285 0
M  V30 15297 H 1480.92 6.46631 -0.218485 0
M  V30 15298 N 1481.06 0.105248 1.57248 0
M  V30 15299 C 1482 -0.850012 2.14577 0
M  V30 15300 C 1482.97 -1.27294 1.06703 0
M  V30 15301 O 1484.16 -1.35289 1.34542 0
M  V30 15302 C 1481.3 -2.09993 2.73856 0
M  V30 15303 C 1480.41 -1.72662 3.95995 0
M  V30 15304 C 1479.55 -2.92517 4.43404 0
M  V30 15305 C 1478.59 -2.5136 5.58108 0
M  V30 15306 N 1477.72 -3.64082 6.00324 0
M  V30 15307 H 1482.56 -0.354282 2.95887 0
M  V30 15308 H 1480.1 -0.163192 1.46192 0
M  V30 15309 H 1482.06 -2.83208 3.06348 0
M  V30 15310 H 1480.69 -2.57048 1.95259 0
M  V30 15311 H 1479.74 -0.893754 3.69752 0
M  V30 15312 H 1481.05 -1.38406 4.79213 0
M  V30 15313 H 1480.21 -3.73973 4.77734 0
M  V30 15314 H 1478.94 -3.2999 3.59107 0
M  V30 15315 H 1477.95 -1.68333 5.23397 0
M  V30 15316 H 1479.17 -2.15019 6.44161 0
M  V30 15317 H 1477.12 -4.01255 5.18971 0
M  V30 15318 H 1477.04 -3.33705 6.78363 0
M  V30 15319 H 1478.31 -4.46019 6.39287 0
M  V30 15320 N 1482.53 -1.56697 -0.168486 0
M  V30 15321 C 1483.47 -1.91738 -1.23741 0
M  V30 15322 C 1484.45 -0.780522 -1.42642 0
M  V30 15323 O 1485.63 -1.0341 -1.57602 0
M  V30 15324 C 1482.76 -2.17077 -2.59991 0
M  V30 15325 C 1481.8 -3.39759 -2.5781 0
M  V30 15326 S 1482.64 -4.94035 -2.06614 0
M  V30 15327 C 1483.79 -5.22472 -3.44636 0
M  V30 15328 H 1484.02 -2.82104 -0.938344 0
M  V30 15329 H 1481.56 -1.49822 -0.373177 0
M  V30 15330 H 1483.52 -2.32356 -3.38409 0
M  V30 15331 H 1482.18 -1.27413 -2.87097 0
M  V30 15332 H 1481.37 -3.54698 -3.58058 0
M  V30 15333 H 1480.97 -3.2361 -1.8749 0
M  V30 15334 H 1483.26 -5.14623 -4.40647 0
M  V30 15335 H 1484.21 -6.24075 -3.34569 0
M  V30 15336 H 1484.61 -4.50034 -3.40779 0
M  V30 15337 N 1484.01 0.437135 -1.51416 0
M  V30 15338 C 1485.26 1.18831 -1.64338 0
M  V30 15339 C 1485.59 1.9086 -0.358638 0
M  V30 15340 O 1484.87 1.83607 0.641769 0
M  V30 15341 C 1485.15 2.20515 -2.84685 0
M  V30 15342 C 1485 1.52568 -4.23135 0
M  V30 15343 C 1486.32 3.21494 -3.00549 0
M  V30 15344 H 1483.44 0.430652 -0.598087 0
M  V30 15345 H 1486.08 0.47753 -1.83901 0
M  V30 15346 H 1484.23 2.81132 -2.68136 0
M  V30 15347 H 1485.9 0.952851 -4.51352 0
M  V30 15348 H 1484.15 0.828025 -4.25824 0
M  V30 15349 H 1484.82 2.26623 -5.03335 0
M  V30 15350 H 1487.29 2.7093 -3.1581 0
M  V30 15351 H 1486.17 3.89934 -3.86319 0
M  V30 15352 H 1486.43 3.8761 -2.12629 0
M  V30 15353 N 1485.49 1.41566 0.692592 0
M  V30 15354 C 1486.72 1.44646 1.48635 0
M  V30 15355 C 1487.14 0.0541597 1.88022 0
M  V30 15356 O 1486.5 -0.943305 1.54827 0
M  V30 15357 C 1486.55 2.3636 2.72335 0
M  V30 15358 O 1485.65 1.8227 3.69934 0
M  V30 15359 H 1484.99 0.490791 0.447236 0
M  V30 15360 H 1487.52 1.8606 0.851056 0
M  V30 15361 H 1487.53 2.52337 3.20609 0
M  V30 15362 H 1486.21 3.37523 2.43004 0
M  V30 15363 H 1484.78 1.75759 3.28882 0
M  V30 15364 N 1486.97 -0.927146 1.27443 0
M  V30 15365 C 1488.38 -1.20319 1.0486 0
M  V30 15366 C 1488.58 -2.00323 -0.217491 0
M  V30 15367 O 1487.64 -2.35032 -0.922833 0
M  V30 15368 C 1488.95 -1.9508 2.28833 0
M  V30 15369 C 1490.5 -2.08016 2.33877 0
M  V30 15370 C 1490.98 -2.86183 3.5758 0
M  V30 15371 N 1492.47 -2.93751 3.58141 0
M  V30 15372 C 1493.2 -3.54698 4.5053 0
M  V30 15373 N 1492.7 -4.17032 5.53223 0
M  V30 15374 N 1494.49 -3.52107 4.38152 0
M  V30 15375 H 1486.64 -0.392671 2.08739 0
M  V30 15376 H 1488.91 -0.236323 0.918072 0
M  V30 15377 H 1488.61 -1.43712 3.20998 0
M  V30 15378 H 1488.49 -2.95692 2.34193 0
M  V30 15379 H 1490.87 -2.5857 1.42217 0
M  V30 15380 H 1490.95 -1.06622 2.3252 0
M  V30 15381 H 1490.6 -2.36312 4.49576 0
M  V30 15382 H 1490.53 -3.87863 3.56188 0
M  V30 15383 H 1493.02 -2.49449 2.83872 0
M  V30 15384 H 1493.33 -4.61477 6.19886 0
M  V30 15385 H 1491.68 -4.15576 5.57065 0
M  V30 15386 H 1494.87 -3.02611 3.57134 0
M  V30 15387 H 1495.04 -3.99315 5.10344 0
M  V30 15388 N 1488.45 -1.09474 -1.13372 0
M  V30 15389 C 1489.67 -0.852921 -1.88502 0
M  V30 15390 C 1490.09 0.595855 -1.79151 0
M  V30 15391 O 1489.45 1.41019 -1.15845 0
M  V30 15392 C 1489.5 -1.27993 -3.38083 0
M  V30 15393 O 1489.22 -2.67189 -3.47191 0
M  V30 15394 C 1490.72 -1.07056 -4.30179 0
M  V30 15395 H 1487.94 -0.30682 -0.596743 0
M  V30 15396 H 1490.48 -1.45685 -1.43513 0
M  V30 15397 H 1488.64 -0.719879 -3.80653 0
M  V30 15398 H 1489.05 -2.85202 -4.40182 0
M  V30 15399 H 1490.53 -1.4186 -5.3346 0
M  V30 15400 H 1491 -0.00838732 -4.39199 0
M  V30 15401 H 1491.61 -1.61659 -3.93378 0
M  V30 15402 N 1489.92 1.30607 -0.882012 0
M  V30 15403 C 1491.15 2.00418 -0.513815 0
M  V30 15404 C 1491.57 1.66135 0.896916 0
M  V30 15405 O 1490.92 0.89691 1.5894 0
M  V30 15406 C 1490.98 3.55133 -0.675503 0
M  V30 15407 O 1490.7 3.88194 -2.03069 0
M  V30 15408 C 1492.2 4.42215 -0.309906 0
M  V30 15409 H 1489.42 0.640839 -0.198913 0
M  V30 15410 H 1491.96 1.66561 -1.1865 0
M  V30 15411 H 1490.12 3.87367 -0.0502289 0
M  V30 15412 H 1490.53 4.82899 -2.04717 0
M  V30 15413 H 1492 5.49962 -0.473948 0
M  V30 15414 H 1492.48 4.32717 0.751852 0
M  V30 15415 H 1493.09 4.1542 -0.91138 0
M  V30 15416 N 1491.4 0.642663 1.43901 0
M  V30 15417 C 1492.81 0.232809 1.85243 0
M  V30 15418 C 1493.16 -1.21834 1.53789 0
M  V30 15419 O 1492.29 -1.92855 0.981625 0
M  V30 15420 C 1492.88 0.415749 3.36239 0
M  V30 15421 C 1491.44 0.0603055 3.76352 0
M  V30 15422 C 1490.59 0.723658 2.67691 0
M  V30 15423 H 1493.54 0.847052 1.34204 0
M  V30 15424 H 1493.56 -0.341903 3.78961 0
M  V30 15425 H 1493.07 1.472 3.59101 0
M  V30 15426 H 1491.18 -0.993761 3.59103 0
M  V30 15427 H 1491.29 0.478408 4.76705 0
M  V30 15428 H 1489.65 0.15787 2.5421 0
M  V30 15429 H 1490.44 1.78273 2.93383 0
M  V30 15430 N 1492.88 -1.52852 0.383918 0
M  V30 15431 C 1494.11 -2.0563 -0.199926 0
M  V30 15432 C 1494.52 -1.25589 -1.41506 0
M  V30 15433 O 1493.86 -0.294254 -1.81328 0
M  V30 15434 C 1493.92 -3.53761 -0.639796 0
M  V30 15435 C 1493.59 -4.54667 0.461143 0
M  V30 15436 C 1494.59 -5.02946 1.31685 0
M  V30 15437 C 1492.27 -4.98376 0.626633 0
M  V30 15438 C 1494.26 -5.93553 2.32322 0
M  V30 15439 C 1491.95 -5.88784 1.63635 0
M  V30 15440 C 1492.95 -6.36265 2.48306 0
M  V30 15441 O 1492.64 -7.24888 3.47553 0
M  V30 15442 H 1492.37 -0.675089 -0.0350831 0
M  V30 15443 H 1494.92 -1.98009 0.546042 0
M  V30 15444 H 1493.15 -3.58982 -1.43766 0
M  V30 15445 H 1494.84 -3.89307 -1.1487 0
M  V30 15446 H 1495.61 -4.69913 1.20028 0
M  V30 15447 H 1491.49 -4.60994 -0.0226873 0
M  V30 15448 H 1495.03 -6.30536 2.98447 0
M  V30 15449 H 1490.93 -6.21232 1.75332 0
M  V30 15450 H 1491.7 -7.42934 3.43498 0
M  V30 15451 N 1494.36 -0.113586 -1.5719 0
M  V30 15452 C 1495.27 0.852428 -2.18565 0
M  V30 15453 C 1496.29 1.29668 -1.16026 0
M  V30 15454 O 1497.46 1.36079 -1.48474 0
M  V30 15455 C 1494.53 2.08675 -2.76867 0
M  V30 15456 C 1493.59 1.69493 -3.94424 0
M  V30 15457 C 1492.82 2.87042 -4.49936 0
M  V30 15458 O 1493.04 4.02311 -4.04354 0
M  V30 15459 O 1491.98 2.64439 -5.40699 0
M  V30 15460 H 1495.8 0.360144 -3.01557 0
M  V30 15461 H 1493.39 0.111744 -1.48982 0
M  V30 15462 H 1495.27 2.80976 -3.14054 0
M  V30 15463 H 1493.95 2.5692 -1.9691 0
M  V30 15464 H 1492.85 0.943161 -3.62016 0
M  V30 15465 H 1494.19 1.25995 -4.758 0
M  V30 15466 N 1495.84 1.56784 0.160173 0
M  V30 15467 C 1497.25 1.72193 0.721552 0
M  V30 15468 C 1497.6 0.725901 1.82278 0
M  V30 15469 O 1496.72 -0.110343 2.16118 0
M  V30 15470 C 1497.32 3.12212 1.31563 0
M  V30 15471 C 1495.88 3.29268 1.82371 0
M  V30 15472 C 1495.03 2.68136 0.70701 0
M  V30 15473 H 1497.98 1.58565 -0.0653521 0
M  V30 15474 H 1498 3.11481 2.1854 0
M  V30 15475 H 1497.51 3.84682 0.513917 0
M  V30 15476 H 1495.61 2.61774 2.65152 0
M  V30 15477 H 1495.72 4.37107 1.96149 0
M  V30 15478 H 1494.09 2.28246 1.1303 0
M  V30 15479 H 1494.87 3.432 -0.0830407 0
M  V30 15480 N 1497.32 -0.429099 1.51646 0
M  V30 15481 C 1498.26 -1.52143 1.73554 0
M  V30 15482 C 1499.23 -1.55741 0.577416 0
M  V30 15483 O 1500.42 -1.72623 0.812768 0
M  V30 15484 C 1497.56 -2.89785 1.874 0
M  V30 15485 C 1496.67 -2.95652 3.14982 0
M  V30 15486 C 1495.81 -4.24468 3.19375 0
M  V30 15487 C 1494.84 -4.24234 4.41239 0
M  V30 15488 N 1493.98 -5.44587 4.43135 0
M  V30 15489 H 1498.82 -1.32764 2.66791 0
M  V30 15490 H 1496.36 -0.6448 1.32215 0
M  V30 15491 H 1498.32 -3.6966 1.9341 0
M  V30 15492 H 1496.95 -3.07703 0.975638 0
M  V30 15493 H 1496 -2.0839 3.18242 0
M  V30 15494 H 1497.31 -2.91342 4.04872 0
M  V30 15495 H 1496.46 -5.12722 3.24347 0
M  V30 15496 H 1495.2 -4.31446 2.27389 0
M  V30 15497 H 1494.21 -3.34371 4.36435 0
M  V30 15498 H 1495.43 -4.18913 5.34499 0
M  V30 15499 H 1493.38 -5.52271 3.54023 0
M  V30 15500 H 1493.3 -5.42191 5.26845 0
M  V30 15501 H 1494.56 -6.34851 4.5231 0
M  V30 15502 N 1498.79 -1.41931 -0.685074 0
M  V30 15503 C 1500.21 -1.24631 -0.996957 0
M  V30 15504 C 1500.41 -0.143146 -2.00991 0
M  V30 15505 O 1499.47 0.489012 -2.47719 0
M  V30 15506 C 1500.78 -2.59947 -1.51156 0
M  V30 15507 C 1502.33 -2.67216 -1.62986 0
M  V30 15508 C 1502.8 -4.02874 -2.17845 0
M  V30 15509 N 1504.29 -4.04775 -2.25192 0
M  V30 15510 C 1505.03 -5.0655 -2.68691 0
M  V30 15511 N 1504.52 -6.18712 -3.11717 0
M  V30 15512 N 1506.32 -4.93909 -2.68348 0
M  V30 15513 H 1498.47 -2.12395 -0.0142223 0
M  V30 15514 H 1500.73 -0.945496 -0.0688552 0
M  V30 15515 H 1500.44 -3.41477 -0.841793 0
M  V30 15516 H 1500.31 -2.83159 -2.49201 0
M  V30 15517 H 1502.7 -1.86038 -2.29071 0
M  V30 15518 H 1502.78 -2.47804 -0.634584 0
M  V30 15519 H 1502.42 -4.84505 -1.52372 0
M  V30 15520 H 1502.35 -4.19633 -3.18144 0
M  V30 15521 H 1504.84 -3.23798 -1.94841 0
M  V30 15522 H 1505.16 -6.9223 -3.43565 0
M  V30 15523 H 1503.5 -6.22232 -3.096 0
M  V30 15524 H 1506.69 -4.05364 -2.34089 0
M  V30 15525 H 1506.87 -5.73361 -3.01929 0
M  V30 15526 N 1500.27 0.920374 -1.27933 0
M  V30 15527 C 1501.52 1.66554 -1.14474 0
M  V30 15528 C 1501.84 1.92545 0.308444 0
M  V30 15529 O 1501.11 1.53691 1.21473 0
M  V30 15530 H 1499.69 0.617302 -0.420651 0
M  V30 15531 H 1502.35 1.10473 -1.60567 0
M  V30 15532 H 1501.45 2.63067 -1.67935 0
M  V30 15533 N 1501.75 1.10074 1.1279 0
M  V30 15534 C 1503 0.842118 1.84489 0
M  V30 15535 C 1503.33 -0.630737 1.83672 0
M  V30 15536 O 1502.6 -1.46481 1.27959 0
M  V30 15537 C 1502.89 1.3864 3.32342 0
M  V30 15538 C 1502.74 2.92585 3.41635 0
M  V30 15539 C 1504.06 1.02565 4.27982 0
M  V30 15540 H 1501.18 0.307376 0.669842 0
M  V30 15541 H 1503.82 1.36326 1.32345 0
M  V30 15542 H 1501.97 0.943134 3.76878 0
M  V30 15543 H 1503.64 3.4541 3.0576 0
M  V30 15544 H 1501.88 3.29378 2.82299 0
M  V30 15545 H 1502.56 3.25749 4.45636 0
M  V30 15546 H 1505.03 1.40807 3.91552 0
M  V30 15547 H 1503.91 1.43345 5.29852 0
M  V30 15548 H 1504.17 -0.0653712 4.42052 0
M  V30 15549 N 1503.23 -1.30138 0.888926 0
M  V30 15550 C 1504.64 -1.78124 0.559346 0
M  V30 15551 C 1504.99 -1.73046 -0.924633 0
M  V30 15552 O 1504.11 -1.30974 -1.72264 0
M  V30 15553 C 1504.71 -3.2344 1.00856 0
M  V30 15554 C 1503.27 -3.69247 0.730332 0
M  V30 15555 C 1502.42 -2.505 1.18933 0
M  V30 15556 H 1505.37 -1.16952 1.07275 0
M  V30 15557 H 1505.39 -3.78985 0.339219 0
M  V30 15558 H 1504.9 -3.27104 2.08865 0
M  V30 15559 H 1503 -3.71067 -0.337599 0
M  V30 15560 H 1503.11 -4.60538 1.32066 0
M  V30 15561 H 1501.48 -2.47323 0.608568 0
M  V30 15562 H 1502.26 -2.56899 2.27724 0
M  V30 15563 N 1504.71 -0.650285 -1.43559 0
M  V30 15564 C 1505.64 0.0295939 -2.33481 0
M  V30 15565 C 1506.62 0.815017 -1.49303 0
M  V30 15566 O 1507.8 0.77708 -1.77975 0
M  V30 15567 C 1504.93 0.998683 -3.32631 0
M  V30 15568 C 1503.89 0.323577 -4.26775 0
M  V30 15569 C 1503.21 1.40391 -5.1594 0
M  V30 15570 C 1504.51 -0.782197 -5.1641 0
M  V30 15571 H 1506.21 -0.721349 -2.9058 0
M  V30 15572 H 1503.75 -0.348339 -1.39723 0
M  V30 15573 H 1505.7 1.4832 -3.94435 0
M  V30 15574 H 1504.43 1.78075 -2.73782 0
M  V30 15575 H 1503.09 -0.140467 -3.66331 0
M  V30 15576 H 1502.74 2.17734 -4.53432 0
M  V30 15577 H 1502.44 0.957462 -5.79747 0
M  V30 15578 H 1503.96 1.88985 -5.80618 0
M  V30 15579 H 1505.37 -0.379966 -5.72039 0
M  V30 15580 H 1503.77 -1.15293 -5.88921 0
M  V30 15581 H 1504.84 -1.6414 -4.56274 0
M  V30 15582 N 1506.18 1.52647 -0.392018 0
M  V30 15583 C 1507.41 2.06511 0.191815 0
M  V30 15584 C 1507.83 1.26162 1.39516 0
M  V30 15585 O 1507.19 0.287373 1.79008 0
M  V30 15586 C 1507.24 3.56571 0.537512 0
M  V30 15587 O 1506.34 3.78774 1.63106 0
M  V30 15588 H 1505.68 0.663647 0.0216546 0
M  V30 15589 H 1508.21 1.96779 -0.560274 0
M  V30 15590 H 1508.22 4.00059 0.801044 0
M  V30 15591 H 1506.9 4.14489 -0.342239 0
M  V30 15592 H 1505.48 3.47175 1.36103 0
M  V30 15593 N 1507.66 0.121921 1.57128 0
M  V30 15594 C 1508.91 -0.536164 1.95584 0
M  V30 15595 C 1509.24 -1.66143 1.0055 0
M  V30 15596 O 1508.52 -1.94452 0.0432427 0
M  V30 15597 C 1508.8 -1.0661 3.43957 0
M  V30 15598 C 1508.65 0.0559458 4.49765 0
M  V30 15599 C 1509.97 -1.95603 3.94243 0
M  V30 15600 H 1507.09 -0.193427 0.711165 0
M  V30 15601 H 1509.73 0.198072 1.88965 0
M  V30 15602 H 1507.88 -1.69181 3.49729 0
M  V30 15603 H 1509.55 0.691357 4.5609 0
M  V30 15604 H 1507.8 0.71868 4.27805 0
M  V30 15605 H 1508.47 -0.356133 5.5085 0
M  V30 15606 H 1510.94 -1.42899 3.90793 0
M  V30 15607 H 1509.82 -2.29599 4.98573 0
M  V30 15608 H 1510.08 -2.88364 3.3511 0
M  V30 15609 N 1509.14 -1.56867 -0.151857 0
M  V30 15610 C 1510.09 -1.98842 -1.20685 0
M  V30 15611 C 1511.08 -0.88007 -1.44745 0
M  V30 15612 O 1512.29 -1.06524 -1.45095 0
M  V30 15613 H 1508.66 -0.632904 -0.406123 0
M  V30 15614 H 1510.63 -2.86737 -0.826095 0
M  V30 15615 C 1509.38 -2.38095 -2.53389 0
M  V30 15616 H 1508.71 -3.2293 -2.35703 0
M  V30 15617 H 1510.15 -2.71292 -3.25847 0
M  V30 15618 C 1508.61 -1.23175 -3.13575 0
M  V30 15619 O 1509.14 -0.529864 -3.9819 0
M  V30 15620 N 1507.34 -0.997255 -2.72953 0
M  V30 15621 H 1506.89 -1.56979 -2.04243 0
M  V30 15622 H 1506.85 -0.23022 -3.13556 0
M  V30 15623 N 1510.62 0.421051 -1.51871 0
M  V30 15624 C 1512.03 1.00033 -1.5764 0
M  V30 15625 C 1512.38 1.91875 -0.409665 0
M  V30 15626 O 1511.51 2.11201 0.471516 0
M  V30 15627 C 1512.1 1.82099 -2.85701 0
M  V30 15628 C 1510.66 2.35049 -2.93988 0
M  V30 15629 C 1509.81 1.14703 -2.52465 0
M  V30 15630 H 1512.76 0.201715 -1.57413 0
M  V30 15631 H 1512.78 2.67719 -2.70382 0
M  V30 15632 H 1512.29 1.15229 -3.706 0
M  V30 15633 H 1510.39 3.05327 -2.13556 0
M  V30 15634 H 1510.5 2.66731 -3.97984 0
M  V30 15635 H 1508.87 1.49736 -2.06037 0
M  V30 15636 H 1509.65 0.494171 -3.39725 0
M  V30 15637 N 1512.1 1.42293 0.677538 0
M  V30 15638 C 1513.34 1.42827 1.43973 0
M  V30 15639 C 1513.68 0.0435041 1.94151 0
M  V30 15640 O 1512.95 -0.931794 1.70727 0
M  V30 15641 C 1513.23 2.45037 2.63873 0
M  V30 15642 C 1513.09 3.92694 2.19344 0
M  V30 15643 C 1514.41 2.4427 3.66087 0
M  V30 15644 H 1511.52 0.520097 0.522176 0
M  V30 15645 H 1514.17 1.73688 0.770219 0
M  V30 15646 H 1512.32 2.18851 3.20993 0
M  V30 15647 H 1513.99 4.2985 1.67412 0
M  V30 15648 H 1512.23 4.06692 1.50944 0
M  V30 15649 H 1512.9 4.59784 3.05455 0
M  V30 15650 H 1515.38 2.67551 3.18678 0
M  V30 15651 H 1514.25 3.17769 4.47564 0
M  V30 15652 H 1514.52 1.46769 4.17027 0
M  V30 15653 N 1513.57 -0.913576 1.28419 0
M  V30 15654 C 1514.81 -1.67716 1.16836 0
M  V30 15655 C 1515.18 -1.8997 -0.278452 0
M  V30 15656 O 1516.38 -2.63781 -0.516994 0
M  V30 15657 C 1514.65 -2.99838 1.94504 0
M  V30 15658 S 1516.21 -3.9093 1.99297 0
M  V30 15659 H 1513.03 -0.575987 0.416845 0
M  V30 15660 H 1515.63 -1.08661 1.62521 0
M  V30 15661 H 1514.33 -2.81343 2.98788 0
M  V30 15662 H 1513.86 -3.6394 1.4937 0
M  V30 15663 H 1515.88 -4.83863 1.0996 0
M  V30 15664 O 1515.09 -1.22839 -1.04847 0
M  V30 15665 H 1515.78 -0.996307 -1.66113 0
M  V30 END ATOM
M  V30 BEGIN BOND
M  V30 END BOND
M  V30 END CTAB
M  END
$$$$
