drugbank_target|P62942 Peptidyl-prolyl cis-trans isomerase FKBP1A (DB00337; DB00864; DB00877; DB01712; DB01723; DB01951; DB02311; DB02888; DB03338; DB03621; DB04012; DB04094; DB05814; DB08231; DB08520; DB08597)
 OpenBabel12092119373D

  0  0  0     0  0            999 V3000
M  V30 BEGIN CTAB
M  V30 COUNTS 1680 1699 0 0 0
M  V30 BEGIN ATOM
M  V30 1 H -0.908 1.98254 -0.117106 0
M  V30 2 N 0 1.576 0 0
M  V30 3 C 0.933 2.03868 1.02534 0
M  V30 4 C 1.911 0.928543 1.3348 0
M  V30 5 O 3.095 1.19667 1.45644 0
M  V30 6 C 0.222 2.43627 2.35294 0
M  V30 7 C -0.732 3.65373 2.2001 0
M  V30 8 S 0.101 5.13292 1.52614 0
M  V30 9 C 1.257 5.56322 2.86805 0
M  V30 10 H 1.49 2.90518 0.631377 0
M  V30 11 H -0.977 1.52953 0.210867 0
M  V30 12 H 0.981 2.67203 3.11629 0
M  V30 13 H -0.358 1.57376 2.7183 0
M  V30 14 H -1.165 3.90944 3.18086 0
M  V30 15 H -1.563 3.418 1.51819 0
M  V30 16 H 0.729 5.58782 3.83104 0
M  V30 17 H 1.672 6.56266 2.65933 0
M  V30 18 H 2.08 4.83886 2.90714 0
M  V30 19 N 1.4781 -0.272755 1.55222 0
M  V30 20 C 2.7261 -1.00234 1.75492 0
M  V30 21 C 3.0471 -1.8681 0.5592 0
M  V30 22 O 2.3171 -1.91215 -0.425882 0
M  V30 23 H 0.8971 -0.373076 0.647166 0
M  V30 24 H 3.5591 -0.296926 1.92625 0
M  V30 25 H 2.6551 -1.63913 2.65592 0
M  V30 26 N 2.9562 -1.48159 -0.537278 0
M  V30 27 C 4.2022 -1.56035 -1.29541 0
M  V30 28 C 4.5352 -0.230377 -1.92829 0
M  V30 29 O 3.8102 0.762952 -1.78911 0
M  V30 30 C 4.0932 -2.69323 -2.39034 0
M  V30 31 C 3.9462 -4.12002 -1.80485 0
M  V30 32 C 5.2652 -2.78408 -3.40847 0
M  V30 33 H 2.3842 -0.567992 -0.469632 0
M  V30 34 H 5.0262 -1.80302 -0.599277 0
M  V30 35 H 3.1762 -2.48763 -2.98412 0
M  V30 36 H 4.8482 -4.43981 -1.25215 0
M  V30 37 H 3.0912 -4.19344 -1.11055 0
M  V30 38 H 3.7622 -4.87077 -2.59731 0
M  V30 39 H 6.2382 -2.97012 -2.91416 0
M  V30 40 H 5.1142 -3.59416 -4.14863 0
M  V30 41 H 5.3752 -1.86269 -4.00944 0
M  V30 42 N 4.4343 0.785586 -1.36625 0
M  V30 43 C 5.3663 1.90711 -1.2713 0
M  V30 44 C 6.3793 1.61688 -0.189986 0
M  V30 45 O 7.5683 1.72864 -0.445014 0
M  V30 46 C 4.6683 3.25611 -0.939713 0
M  V30 47 C 3.8413 3.82385 -2.12369 0
M  V30 48 C 2.9003 4.95732 -1.76456 0
M  V30 49 O 1.9263 5.12047 -2.48589 0
M  V30 50 N 3.1283 5.76258 -0.700492 0
M  V30 51 H 5.8933 1.99376 -2.23762 0
M  V30 52 H 3.4543 0.964041 -1.30069 0
M  V30 53 H 5.4463 3.98937 -0.680554 0
M  V30 54 H 4.0163 3.12538 -0.0624074 0
M  V30 55 H 3.2363 3.01001 -2.54543 0
M  V30 56 H 4.5243 4.17047 -2.9146 0
M  V30 57 H 3.9223 5.65609 -0.101624 0
M  V30 58 H 2.4793 6.4987 -0.501165 0
M  V30 59 N 5.9124 1.20967 1.01018 0
M  V30 60 C 7.1584 1.02526 1.74975 0
M  V30 61 C 7.4914 -0.4408 1.89131 0
M  V30 62 O 6.7664 -1.32718 1.42184 0
M  V30 63 C 7.0494 1.71699 3.1653 0
M  V30 64 C 6.9024 3.25791 3.10129 0
M  V30 65 C 8.2214 1.45531 4.15342 0
M  V30 66 H 5.3404 0.373863 0.635134 0
M  V30 67 H 7.9824 1.49071 1.17805 0
M  V30 68 H 6.1324 1.32128 3.65341 0
M  V30 69 H 7.8044 3.74697 2.69072 0
M  V30 70 H 6.0474 3.56363 2.47362 0
M  V30 71 H 6.7184 3.69353 4.10222 0
M  V30 72 H 9.1944 1.79872 3.75213 0
M  V30 73 H 8.0704 1.96453 5.1254 0
M  V30 74 H 8.3314 0.384237 4.40427 0
M  V30 75 N 7.3905 -1.2043 1.01659 0
M  V30 76 C 8.3005 -2.2689 0.596484 0
M  V30 77 C 9.3165 -1.70107 -0.36599 0
M  V30 78 O 10.4925 -2.00117 -0.226942 0
M  V30 79 C 7.5575 -3.4665 -0.0586659 0
M  V30 80 C 6.6185 -4.18662 0.949751 0
M  V30 81 C 5.8515 -5.32705 0.32577 0
M  V30 82 O 6.0745 -5.63656 -0.874509 0
M  V30 83 O 5.0085 -5.92803 1.04249 0
M  V30 84 H 8.8345 -2.65041 1.4828 0
M  V30 85 H 6.4195 -1.27048 0.786082 0
M  V30 86 H 8.3015 -4.19256 -0.424564 0
M  V30 87 H 6.9765 -3.10375 -0.91918 0
M  V30 88 H 5.8835 -3.48229 1.36702 0
M  V30 89 H 7.2165 -4.58878 1.78023 0
M  V30 90 N 8.8686 -0.792821 -1.36206 0
M  V30 91 C 10.0966 -0.378825 -2.03402 0
M  V30 92 C 10.5116 1.00586 -1.59774 0
M  V30 93 O 9.8686 1.64574 -0.788764 0
M  V30 94 C 9.9196 -0.43683 -3.58851 0
M  V30 95 O 9.6406 -1.76691 -4.00889 0
M  V30 96 C 11.1416 -0.0138943 -4.43298 0
M  V30 97 H 8.3616 -0.155673 -0.652692 0
M  V30 98 H 10.9056 -1.07261 -1.74113 0
M  V30 99 H 9.0606 0.208575 -3.86838 0
M  V30 100 H 9.4746 -1.72011 -4.95492 0
M  V30 101 H 10.9486 -0.105615 -5.51899 0
M  V30 102 H 11.4256 1.03915 -4.2673 0
M  V30 103 H 12.0316 -0.63192 -4.20579 0
M  V30 104 N 10.3467 1.47872 -0.545128 0
M  V30 105 C 11.5957 2.01695 -0.0145033 0
M  V30 106 C 11.9087 1.42609 1.33873 0
M  V30 107 O 13.1147 1.88021 1.95858 0
M  V30 108 C 11.5707 3.59892 0.0245068 0
M  V30 109 C 11.1787 4.27966 -1.32475 0
M  V30 110 C 12.9227 4.21507 0.50316 0
M  V30 111 C 10.8297 5.78136 -1.2455 0
M  V30 112 H 9.7597 0.753998 -0.00165172 0
M  V30 113 H 12.4107 1.69985 -0.691175 0
M  V30 114 H 10.7927 3.88509 0.766575 0
M  V30 115 H 11.9667 4.11003 -2.08357 0
M  V30 116 H 10.2817 3.78286 -1.74036 0
M  V30 117 H 12.8787 5.31538 0.580656 0
M  V30 118 H 13.2217 3.87855 1.51243 0
M  V30 119 H 13.7547 3.97376 -0.183681 0
M  V30 120 H 10.4937 6.16388 -2.23039 0
M  V30 121 H 10.0137 5.97469 -0.528282 0
M  V30 122 H 11.6927 6.40099 -0.942488 0
M  V30 123 N 11.8248 0.280983 1.55075 0
M  V30 124 C 13.0498 -0.340154 2.04592 0
M  V30 125 C 13.4748 -1.48246 1.15779 0
M  V30 126 O 12.8328 -1.80614 0.15761 0
M  V30 127 C 12.8808 -0.793104 3.5177 0
M  V30 128 O 11.9848 -1.89981 3.66034 0
M  V30 129 H 11.3258 -0.0694289 0.66036 0
M  V30 130 H 13.8558 0.416993 2.00306 0
M  V30 131 H 13.8658 -1.08729 3.93245 0
M  V30 132 H 12.5408 0.0426163 4.15878 0
M  V30 133 H 11.1178 -1.60771 3.36463 0
M  V30 134 N 13.3029 -1.57598 0.00835791 0
M  V30 135 C 14.7139 -1.7892 -0.53333 0
M  V30 136 C 15.0649 -0.916609 -1.73473 0
M  V30 137 O 14.1899 -0.121336 -2.1606 0
M  V30 138 C 14.7849 -3.24488 -0.974313 0
M  V30 139 C 13.3439 -3.46878 -1.46125 0
M  V30 140 C 12.4909 -2.74157 -0.416302 0
M  V30 141 H 15.4419 -1.56958 0.234495 0
M  V30 142 H 15.4629 -3.3306 -1.83988 0
M  V30 143 H 14.9749 -3.87972 -0.099718 0
M  V30 144 H 13.0759 -2.8862 -2.35646 0
M  V30 145 H 13.1889 -4.55572 -1.48295 0
M  V30 146 H 11.5529 -2.39022 -0.87981 0
M  V30 147 H 12.3359 -3.40345 0.44947 0
M  V30 148 N 14.781 0.264519 -1.55364 0
M  V30 149 C 16.029 0.993021 -1.76021 0
M  V30 150 C 16.35 1.86511 -0.569099 0
M  V30 151 O 15.62 1.91438 0.415735 0
M  V30 152 H 14.2 0.369639 -0.649135 0
M  V30 153 H 16.862 0.286707 -1.9278 0
M  V30 154 H 15.958 1.62502 -2.66457 0
M  V30 155 N 16.2591 1.48442 0.529413 0
M  V30 156 C 17.5361 1.46978 1.29062 0
M  V30 157 C 17.9161 0.181769 2.10316 0
M  V30 158 O 17.2641 -0.836481 2.12639 0
M  V30 159 C 17.4741 2.7321 2.17157 0
M  V30 160 C 18.8221 3.21562 2.77278 0
M  V30 161 O 19.8461 2.74131 2.27444 0
M  V30 162 O 18.7051 4.04094 3.67927 0
M  V30 163 H 15.7991 0.587003 0.582543 0
M  V30 164 H 18.3451 1.60676 0.546021 0
M  V30 165 H 17.1171 3.58465 1.56903 0
M  V30 166 H 16.7401 2.62235 2.98862 0
M  V30 167 N 17.7372 -0.778329 1.37039 0
M  V30 168 C 18.9852 -1.53361 1.31623 0
M  V30 169 C 19.3062 -1.94739 -0.100831 0
M  V30 170 O 18.5762 -1.65797 -1.04347 0
M  V30 171 H 17.1562 -0.568794 0.484234 0
M  V30 172 H 19.8182 -0.926742 1.71457 0
M  V30 173 H 18.9142 -2.43606 1.95096 0
M  V30 174 N 19.2153 -1.21501 -1.00376 0
M  V30 175 C 20.6313 -0.972629 -1.26539 0
M  V30 176 C 20.8313 0.340257 -1.98606 0
M  V30 177 O 19.8873 1.06561 -2.28913 0
M  V30 178 C 21.2003 -2.16404 -2.08781 0
M  V30 179 C 22.7483 -2.20643 -2.22004 0
M  V30 180 C 23.2233 -3.39306 -3.07629 0
M  V30 181 N 24.7143 -3.39401 -3.15217 0
M  V30 182 C 25.4493 -4.27867 -3.81729 0
M  V30 183 N 24.9453 -5.26533 -4.5026 0
M  V30 184 N 26.7383 -4.15672 -3.78382 0
M  V30 185 H 18.8893 -2.05929 -0.520281 0
M  V30 186 H 21.1523 -0.901803 -0.292328 0
M  V30 187 H 20.8583 -3.11554 -1.63178 0
M  V30 188 H 20.7323 -2.15567 -3.09533 0
M  V30 189 H 23.1193 -1.26048 -2.66825 0
M  V30 190 H 23.2003 -2.25523 -1.20718 0
M  V30 191 H 22.8443 -4.34195 -2.63509 0
M  V30 192 H 22.7743 -3.31665 -4.09031 0
M  V30 193 H 25.2653 -2.67997 -2.66432 0
M  V30 194 H 25.5783 -5.90337 -4.98721 0
M  V30 195 H 23.9233 -5.30457 -4.49044 0
M  V30 196 H 27.1143 -3.3785 -3.23998 0
M  V30 197 H 27.2873 -4.84825 -4.2994 0
M  V30 198 N 20.6934 1.19889 -1.02296 0
M  V30 199 C 21.9214 1.9339 -0.735399 0
M  V30 200 C 22.3364 1.75148 0.704887 0
M  V30 201 O 21.6934 1.06954 1.47875 0
M  V30 202 C 21.7444 3.45313 -1.06962 0
M  V30 203 O 21.4654 3.62964 -2.45334 0
M  V30 204 C 22.9664 4.35948 -0.804021 0
M  V30 205 H 20.1864 0.61448 -0.269546 0
M  V30 206 H 22.7304 1.522 -1.36585 0
M  V30 207 H 20.8854 3.84359 -0.484455 0
M  V30 208 H 21.2994 4.56886 -2.57595 0
M  V30 209 H 22.7734 5.41174 -1.0879 0
M  V30 210 H 23.2504 4.3842 0.261691 0
M  V30 211 H 23.8564 4.02574 -1.37164 0
M  V30 212 N 22.1715 0.800033 1.35784 0
M  V30 213 C 23.4185 0.377342 1.98953 0
M  V30 214 C 23.7465 -1.05378 1.6348 0
M  V30 215 O 23.0015 -1.74459 0.886707 0
M  V30 216 C 23.3005 0.500276 3.53881 0
M  V30 217 C 22.9665 1.89375 4.09204 0
M  V30 218 C 21.6285 2.27499 4.24025 0
M  V30 219 C 23.9805 2.8057 4.39238 0
M  V30 220 C 21.3085 3.562 4.66195 0
M  V30 221 C 23.6605 4.0871 4.82844 0
M  V30 222 C 22.3245 4.46843 4.95871 0
M  V30 223 H 21.5945 0.138079 0.728021 0
M  V30 224 H 24.2415 1.01955 1.62103 0
M  V30 225 H 22.5465 -0.225405 3.91151 0
M  V30 226 H 24.2435 0.154097 4.00704 0
M  V30 227 H 20.8335 1.58753 3.98115 0
M  V30 228 H 25.0175 2.52367 4.27346 0
M  V30 229 H 20.2735 3.85602 4.74469 0
M  V30 230 H 24.4475 4.79481 5.05046 0
M  V30 231 H 22.0745 5.46623 5.28306 0
M  V30 232 N 23.6496 -1.47581 0.552962 0
M  V30 233 C 25.0606 -1.86324 0.118463 0
M  V30 234 C 25.4116 -1.46006 -1.3106 0
M  V30 235 O 24.5366 -0.861182 -1.98526 0
M  V30 236 C 25.1316 -3.3816 0.20821 0
M  V30 237 C 23.6906 -3.7601 -0.171226 0
M  V30 238 C 22.8376 -2.71634 0.557686 0
M  V30 239 H 25.7886 -1.39159 0.762928 0
M  V30 240 H 25.8096 -3.76141 -0.574278 0
M  V30 241 H 25.3216 -3.67473 1.24841 0
M  V30 242 H 23.4226 -3.52313 -1.21269 0
M  V30 243 H 23.5356 -4.78745 0.184379 0
M  V30 244 H 21.8996 -2.547 0.00125792 0
M  V30 245 H 22.6826 -3.0379 1.59896 0
M  V30 246 N 25.1277 -0.289203 -1.54924 0
M  V30 247 C 26.0747 0.592115 -2.23075 0
M  V30 248 C 27.0447 1.13881 -1.20915 0
M  V30 249 O 28.2297 1.18551 -1.495 0
M  V30 250 C 25.3697 1.76376 -2.96623 0
M  V30 251 C 24.4827 1.24959 -4.13533 0
M  V30 252 C 23.6177 2.38416 -4.74691 0
M  V30 253 C 22.6567 1.84072 -5.83767 0
M  V30 254 N 21.7937 2.91057 -6.38929 0
M  V30 255 H 26.6337 0.00432038 -2.98 0
M  V30 256 H 24.1707 -0.00963529 -1.47097 0
M  V30 257 H 26.1287 2.45268 -3.3749 0
M  V30 258 H 24.7587 2.32337 -2.24097 0
M  V30 259 H 23.8107 0.453307 -3.77689 0
M  V30 260 H 25.1227 0.811662 -4.92152 0
M  V30 261 H 24.2767 3.15276 -5.18349 0
M  V30 262 H 23.0157 2.8553 -3.95378 0
M  V30 263 H 22.0207 1.05697 -5.39545 0
M  V30 264 H 23.2457 1.37877 -6.64956 0
M  V30 265 H 21.1917 3.37526 -5.62505 0
M  V30 266 H 21.1087 2.51724 -7.12861 0
M  V30 267 H 22.3767 3.6785 -6.87246 0
M  V30 268 N 26.6058 1.57591 -0.0167156 0
M  V30 269 C 28.0218 1.55946 0.339557 0
M  V30 270 C 28.2218 1.02109 1.73713 0
M  V30 271 O 27.2778 0.662303 2.43659 0
M  V30 272 C 28.5908 3.00037 0.199499 0
M  V30 273 C 30.1388 3.11805 0.273193 0
M  V30 274 C 30.6138 4.57713 0.162068 0
M  V30 275 N 32.1048 4.6268 0.219444 0
M  V30 276 C 32.8398 5.73185 0.157054 0
M  V30 277 N 32.3358 6.92786 0.0442936 0
M  V30 278 N 34.1288 5.61707 0.21014 0
M  V30 279 H 26.2798 1.90921 -0.930758 0
M  V30 280 H 28.5428 0.877674 -0.358319 0
M  V30 281 H 28.2488 3.4333 -0.76273 0
M  V30 282 H 28.1228 3.64387 0.974786 0
M  V30 283 H 30.5098 2.68433 1.22587 0
M  V30 284 H 30.5908 2.50201 -0.532256 0
M  V30 285 H 30.2348 5.01763 -0.78714 0
M  V30 286 H 30.1648 5.17283 0.986222 0
M  V30 287 H 32.6558 3.76649 0.307246 0
M  V30 288 H 32.9688 7.728 0.00304069 0
M  V30 289 H 31.3138 6.94999 0.00968457 0
M  V30 290 H 34.5048 4.6716 0.296546 0
M  V30 291 H 34.6778 6.47807 0.158054 0
M  V30 292 N 28.0839 -0.256276 1.55502 0
M  V30 293 C 29.3319 -0.983672 1.76545 0
M  V30 294 C 29.6529 -1.86206 0.578982 0
M  V30 295 O 28.9229 -1.91656 -0.405577 0
M  V30 296 H 27.5029 -0.366191 0.651086 0
M  V30 297 H 30.1649 -0.276479 1.92929 0
M  V30 298 H 29.2609 -1.61087 2.67315 0
M  V30 299 N 29.562 -1.4872 -0.521534 0
M  V30 300 C 30.494 -1.59968 -1.64143 0
M  V30 301 C 31.507 -0.483463 -1.55456 0
M  V30 302 O 32.696 -0.75467 -1.61762 0
M  V30 303 C 29.796 -1.52127 -3.02838 0
M  V30 304 C 28.969 -2.78932 -3.36921 0
M  V30 305 C 28.028 -2.64428 -4.54933 0
M  V30 306 O 27.054 -3.38331 -4.57735 0
M  V30 307 N 28.256 -1.74606 -5.53618 0
M  V30 308 H 31.021 -2.56548 -1.54929 0
M  V30 309 H 28.582 -1.45551 -0.708988 0
M  V30 310 H 30.574 -1.40106 -3.79674 0
M  V30 311 H 29.144 -0.634868 -3.06085 0
M  V30 312 H 28.364 -3.05455 -2.4918 0
M  V30 313 H 29.652 -3.63041 -3.56481 0
M  V30 314 H 29.05 -1.13782 -5.54139 0
M  V30 315 H 27.607 -1.6852 -6.29638 0
M  V30 316 N 31.0401 0.771051 -1.3745 0
M  V30 317 C 32.2681 1.56015 -1.35893 0
M  V30 318 C 32.6831 1.88718 0.0555523 0
M  V30 319 O 32.0401 1.51502 1.01752 0
M  V30 320 C 32.0911 2.87001 -2.19801 0
M  V30 321 O 31.8121 2.557 -3.55738 0
M  V30 322 C 33.3131 3.81228 -2.26231 0
M  V30 323 H 30.5331 0.483317 -0.465453 0
M  V30 324 H 33.0771 0.955611 -1.80799 0
M  V30 325 H 31.2321 3.43877 -1.78402 0
M  V30 326 H 31.6461 3.39584 -3.99729 0
M  V30 327 H 33.1201 4.70139 -2.89263 0
M  V30 328 H 33.5971 4.20409 -1.27093 0
M  V30 329 H 34.2031 3.30281 -2.67945 0
M  V30 330 N 32.5182 1.22032 0.997298 0
M  V30 331 C 33.7582 1.05375 1.75144 0
M  V30 332 C 34.1222 -0.404696 1.87686 0
M  V30 333 O 35.3232 -0.691998 2.5974 0
M  V30 334 C 33.5942 1.74046 3.12158 0
M  V30 335 S 35.1532 1.72745 4.03366 0
M  V30 336 H 31.9712 0.377449 0.602539 0
M  V30 337 H 34.5732 1.54902 1.19272 0
M  V30 338 H 33.2772 2.79332 3.00669 0
M  V30 339 H 32.8082 1.24731 3.73103 0
M  V30 340 H 34.8232 0.774015 4.90126 0
M  V30 341 N 33.9963 -1.19345 1.0293 0
M  V30 342 C 35.2423 -1.89318 0.727083 0
M  V30 343 C 35.5753 -1.79446 -0.742483 0
M  V30 344 O 34.8503 -1.1871 -1.54072 0
M  V30 345 C 35.1333 -3.40238 1.17942 0
M  V30 346 C 34.9863 -3.58979 2.71024 0
M  V30 347 C 36.3053 -4.33479 0.760548 0
M  V30 348 H 33.4243 -0.687475 0.265606 0
M  V30 349 H 36.0663 -1.40477 1.2793 0
M  V30 350 H 34.2163 -3.81964 0.709608 0
M  V30 351 H 35.8883 -3.26421 3.25955 0
M  V30 352 H 34.1313 -3.02018 3.11396 0
M  V30 353 H 34.8023 -4.64823 2.9773 0
M  V30 354 H 37.2783 -3.99469 1.16464 0
M  V30 355 H 36.1543 -5.37664 1.10493 0
M  V30 356 H 36.4153 -4.40813 -0.337063 0
M  V30 357 N 35.4744 -0.807222 -1.35358 0
M  V30 358 C 36.7204 -0.388463 -1.99045 0
M  V30 359 C 37.0534 1.04184 -1.63888 0
M  V30 360 O 36.3284 1.72292 -0.902535 0
M  V30 361 C 36.6114 -0.572783 -3.55515 0
M  V30 362 C 36.4644 -2.04807 -4.00468 0
M  V30 363 C 37.7834 0.00114064 -4.401 0
M  V30 364 H 34.9024 -0.142619 -0.723069 0
M  V30 365 H 37.5444 -1.01687 -1.60498 0
M  V30 366 H 35.6944 -0.0378425 -3.88482 0
M  V30 367 H 37.3664 -2.64544 -3.77908 0
M  V30 368 H 35.6094 -2.54427 -3.51353 0
M  V30 369 H 36.2804 -2.12792 -5.09337 0
M  V30 370 H 38.7564 -0.455716 -4.13597 0
M  V30 371 H 37.6324 -0.157737 -5.48673 0
M  V30 372 H 37.8934 1.09488 -4.28328 0
M  V30 373 N 36.9525 1.47285 -0.560781 0
M  V30 374 C 37.9025 2.27073 0.205384 0
M  V30 375 C 38.8865 1.34569 0.882044 0
M  V30 376 O 40.0785 1.58899 0.77976 0
M  V30 377 C 37.2075 3.20414 1.23247 0
M  V30 378 C 36.2935 4.20399 0.559041 0
M  V30 379 N 36.6845 5.04423 -0.372927 0
M  V30 380 C 34.9825 4.38536 0.812522 0
M  V30 381 C 35.6835 5.76655 -0.764446 0
M  V30 382 N 34.6595 5.43471 -0.11848 0
M  V30 383 H 38.4615 2.89422 -0.511117 0
M  V30 384 H 35.9755 1.57868 -0.380975 0
M  V30 385 H 37.9725 3.76262 1.79534 0
M  V30 386 H 36.6325 2.59623 1.95002 0
M  V30 387 H 37.6435 5.1248 -0.747287 0
M  V30 388 H 34.3205 3.88913 1.51832 0
M  V30 389 H 35.7105 6.54238 -1.53045 0
M  V30 390 N 38.4306 0.297415 1.54768 0
M  V30 391 C 39.6606 -0.315165 2.04182 0
M  V30 392 C 40.0686 -1.4834 1.17439 0
M  V30 393 O 39.4116 -1.82695 0.191891 0
M  V30 394 C 39.4736 -0.837583 3.49607 0
M  V30 395 C 39.1376 0.204912 4.5654 0
M  V30 396 C 40.1346 1.03214 5.09552 0
M  V30 397 C 37.8196 0.345578 5.0111 0
M  V30 398 C 39.8136 1.986 6.05671 0
M  V30 399 C 37.5006 1.30289 5.97049 0
M  V30 400 C 38.4986 2.12159 6.49213 0
M  V30 401 O 38.1866 3.06268 7.43273 0
M  V30 402 H 37.9186 -0.0729646 0.672051 0
M  V30 403 H 40.4726 0.433907 2.00765 0
M  V30 404 H 38.7026 -1.63712 3.50336 0
M  V30 405 H 40.3916 -1.36566 3.82236 0
M  V30 406 H 41.1576 0.934312 4.75916 0
M  V30 407 H 37.0366 -0.28171 4.60138 0
M  V30 408 H 40.5806 2.62542 6.46311 0
M  V30 409 H 36.4776 1.40145 6.30103 0
M  V30 410 H 37.2456 3.01205 7.61064 0
M  V30 411 N 39.9087 -1.5758 0.0250728 0
M  V30 412 C 41.1367 -1.9593 -0.664747 0
M  V30 413 C 41.5517 -0.901352 -1.65895 0
M  V30 414 O 40.9087 0.117255 -1.82123 0
M  V30 415 C 40.9597 -3.34342 -1.37468 0
M  V30 416 O 40.6807 -4.36079 -0.420324 0
M  V30 417 C 42.1817 -3.873 -2.1567 0
M  V30 418 H 39.4017 -0.645405 -0.183557 0
M  V30 419 H 41.9457 -2.04329 0.0836372 0
M  V30 420 H 40.1007 -3.27175 -2.0745 0
M  V30 421 H 40.5147 -5.16297 -0.923991 0
M  V30 422 H 41.9887 -4.86504 -2.60803 0
M  V30 423 H 42.4657 -3.21331 -2.99405 0
M  V30 424 H 43.0717 -3.97723 -1.50654 0
M  V30 425 N 41.3868 0.248026 -1.55636 0
M  V30 426 C 42.6348 0.974295 -1.77065 0
M  V30 427 C 42.9558 1.85897 -0.588849 0
M  V30 428 O 42.2258 1.91868 0.395407 0
M  V30 429 H 40.8058 0.362733 -0.653019 0
M  V30 430 H 43.4678 0.266244 -1.93073 0
M  V30 431 H 42.5638 1.59667 -2.68166 0
M  V30 432 N 42.8649 1.48995 0.513639 0
M  V30 433 C 43.7979 1.59319 1.63379 0
M  V30 434 C 44.7759 0.442816 1.56454 0
M  V30 435 O 45.9599 0.656655 1.76693 0
M  V30 436 C 43.0869 1.5364 3.01848 0
M  V30 437 C 42.1329 2.7372 3.27078 0
M  V30 438 S 42.9659 4.35528 3.1157 0
M  V30 439 C 44.1219 4.32473 4.52458 0
M  V30 440 H 44.3549 2.54079 1.54374 0
M  V30 441 H 41.8879 1.3773 0.697849 0
M  V30 442 H 43.8459 1.51049 3.81699 0
M  V30 443 H 42.5069 0.601898 3.08279 0
M  V30 444 H 41.6999 2.6593 4.28132 0
M  V30 445 H 41.3019 2.73657 2.54927 0
M  V30 446 H 43.5939 4.03414 5.44301 0
M  V30 447 H 44.5369 5.33762 4.65299 0
M  V30 448 H 44.9449 3.62718 4.32546 0
M  V30 449 N 44.343 -0.763751 1.37857 0
M  V30 450 C 45.273 -1.89103 1.36975 0
M  V30 451 C 46.254 -1.68439 0.237152 0
M  V30 452 O 47.439 -1.8918 0.438713 0
M  V30 453 C 44.569 -3.26496 1.18395 0
M  V30 454 C 43.523 -3.61741 2.28751 0
M  V30 455 C 42.849 -4.97762 1.95286 0
M  V30 456 C 44.149 -3.67665 3.70972 0
M  V30 457 H 45.843 -1.90099 2.31307 0
M  V30 458 H 43.389 -0.91319 1.11341 0
M  V30 459 H 45.342 -4.05003 1.16406 0
M  V30 460 H 44.066 -3.25955 0.205215 0
M  V30 461 H 42.725 -2.85547 2.29909 0
M  V30 462 H 42.373 -4.93769 0.959221 0
M  V30 463 H 42.073 -5.22313 2.69189 0
M  V30 464 H 43.597 -5.7866 1.94898 0
M  V30 465 H 45.011 -4.36307 3.719 0
M  V30 466 H 43.408 -4.03718 4.43995 0
M  V30 467 H 44.478 -2.68134 4.0402 0
M  V30 468 N 45.8211 -1.22559 -0.990812 0
M  V30 469 C 46.7311 -1.01394 -2.11557 0
M  V30 470 C 47.7471 0.0383962 -1.73958 0
M  V30 471 O 48.9231 -0.154787 -2.00804 0
M  V30 472 C 45.9881 -0.596569 -3.41529 0
M  V30 473 C 45.0491 -1.72276 -3.93217 0
M  V30 474 C 44.2821 -1.32521 -5.16985 0
M  V30 475 O 44.5051 -0.204909 -5.70032 0
M  V30 476 O 43.4391 -2.14247 -5.62478 0
M  V30 477 H 47.2651 -1.95633 -2.32296 0
M  V30 478 H 44.8501 -1.01172 -1.0993 0
M  V30 479 H 46.7321 -0.374263 -4.19735 0
M  V30 480 H 45.4071 0.316939 -3.22145 0
M  V30 481 H 44.3141 -1.99961 -3.16174 0
M  V30 482 H 45.6471 -2.61421 -4.17037 0
M  V30 483 N 47.2992 1.18797 -1.03562 0
M  V30 484 C 48.5762 1.84469 -0.650434 0
M  V30 485 C 48.9562 1.92319 0.870433 0
M  V30 486 O 48.3042 1.44528 1.76986 0
M  V30 487 C 48.5142 3.2306 -1.32036 0
M  V30 488 C 49.8622 3.9915 -1.44792 0
M  V30 489 O 50.8862 3.32481 -1.27806 0
M  V30 490 O 49.7452 5.18587 -1.72423 0
M  V30 491 H 46.8392 0.795251 -0.226946 0
M  V30 492 H 49.3852 1.26231 -1.13419 0
M  V30 493 H 48.1572 3.1222 -2.3587 0
M  V30 494 H 47.7802 3.88949 -0.8249 0
M  V30 495 N 48.7773 0.814389 1.34928 0
M  V30 496 C 50.0253 0.397636 1.9815 0
M  V30 497 C 50.3463 -1.04069 1.64908 0
M  V30 498 O 49.6163 -1.72121 0.93548 0
M  V30 499 H 48.1963 0.144043 0.732981 0
M  V30 500 H 50.8583 1.04195 1.6471 0
M  V30 501 H 49.9543 0.509688 3.0791 0
M  V30 502 N 50.2554 -1.46986 0.568584 0
M  V30 503 C 51.2024 -2.30153 -0.172707 0
M  V30 504 C 52.1724 -1.39759 -0.897586 0
M  V30 505 O 53.3574 -1.68716 -0.891044 0
M  V30 506 C 50.4974 -3.23952 -1.1895 0
M  V30 507 C 49.6104 -4.29441 -0.469517 0
M  V30 508 C 48.7454 -5.1038 -1.47259 0
M  V30 509 C 47.7844 -6.07632 -0.738225 0
M  V30 510 N 46.9214 -6.8149 -1.68868 0
M  V30 511 H 51.7614 -2.93019 0.542596 0
M  V30 512 H 49.2984 -1.44422 0.279401 0
M  V30 513 H 51.2564 -3.76767 -1.79173 0
M  V30 514 H 49.8864 -2.62926 -1.87269 0
M  V30 515 H 48.9384 -3.79594 0.247467 0
M  V30 516 H 50.2504 -4.98689 0.105241 0
M  V30 517 H 49.4044 -5.67402 -2.14803 0
M  V30 518 H 48.1434 -4.4106 -2.08128 0
M  V30 519 H 47.1484 -5.49778 -0.0489293 0
M  V30 520 H 48.3734 -6.78966 -0.135129 0
M  V30 521 H 46.3194 -6.14891 -2.28573 0
M  V30 522 H 46.2364 -7.46948 -1.16636 0
M  V30 523 H 47.5044 -7.43078 -2.3549 0
M  V30 524 N 51.7335 -0.305618 -1.54608 0
M  V30 525 C 52.6805 0.568421 -2.23691 0
M  V30 526 C 53.6505 1.12592 -1.22116 0
M  V30 527 O 54.8355 1.16959 -1.50749 0
M  V30 528 C 51.9755 1.7322 -2.98477 0
M  V30 529 C 51.0885 1.20566 -4.14835 0
M  V30 530 C 50.2235 2.33368 -4.77193 0
M  V30 531 C 49.2625 1.7787 -5.85686 0
M  V30 532 N 48.3995 2.84263 -6.4198 0
M  V30 533 H 53.2395 -0.0272867 -2.97988 0
M  V30 534 H 50.7765 -0.0252363 -1.47078 0
M  V30 535 H 52.7345 2.41675 -3.40072 0
M  V30 536 H 51.3645 2.29947 -2.26548 0
M  V30 537 H 50.4165 0.413223 -3.78149 0
M  V30 538 H 51.7285 0.759417 -4.92985 0
M  V30 539 H 50.8825 3.09761 -5.21664 0
M  V30 540 H 49.6215 2.8132 -3.98385 0
M  V30 541 H 48.6265 0.99968 -5.40635 0
M  V30 542 H 49.8515 1.30816 -6.66381 0
M  V30 543 H 47.7975 3.31541 -5.66053 0
M  V30 544 H 47.7145 2.44149 -7.15491 0
M  V30 545 H 48.9825 3.6054 -6.91109 0
M  V30 546 N 53.2116 1.57565 -0.0334293 0
M  V30 547 C 54.4586 1.91978 0.644272 0
M  V30 548 C 54.7866 0.910231 1.71887 0
M  V30 549 O 54.0416 -0.0801961 1.95536 0
M  V30 550 C 54.3406 3.33112 1.29504 0
M  V30 551 C 54.0066 4.49537 0.350388 0
M  V30 552 C 52.6686 4.81115 0.0903974 0
M  V30 553 C 55.0206 5.20347 -0.298032 0
M  V30 554 C 52.3486 5.8086 -0.825746 0
M  V30 555 C 54.7006 6.2107 -1.20226 0
M  V30 556 C 53.3646 6.51088 -1.4711 0
M  V30 557 H 52.6346 0.702496 0.235756 0
M  V30 558 H 55.2816 1.91259 -0.0961176 0
M  V30 559 H 53.5866 3.30113 2.11028 0
M  V30 560 H 55.2836 3.57011 1.82603 0
M  V30 561 H 51.8736 4.24883 0.563205 0
M  V30 562 H 56.0576 4.96178 -0.110234 0
M  V30 563 H 51.3136 6.02461 -1.04169 0
M  V30 564 H 55.4876 6.75057 -1.71086 0
M  V30 565 H 53.1146 7.28193 -2.18264 0
M  V30 566 N 54.6897 -0.239769 1.55765 0
M  V30 567 C 55.9667 -0.990056 1.68693 0
M  V30 568 C 56.3467 -2.03107 0.5754 0
M  V30 569 O 55.6947 -2.24604 -0.42017 0
M  V30 570 C 55.9047 -1.61696 3.09282 0
M  V30 571 C 57.2527 -2.11613 3.6811 0
M  V30 572 O 58.2767 -1.71624 3.12127 0
M  V30 573 O 57.1357 -2.85057 4.66267 0
M  V30 574 H 54.2297 -0.461299 0.686391 0
M  V30 575 H 56.7757 -0.232991 1.68093 0
M  V30 576 H 55.5477 -0.864357 3.81634 0
M  V30 577 H 55.1707 -2.44005 3.13923 0
M  V30 578 N 56.1678 -1.49265 -0.50573 0
M  V30 579 C 57.3928 -1.62478 -1.28902 0
M  V30 580 C 57.8178 -0.294332 -1.85783 0
M  V30 581 O 57.1758 0.737412 -1.65626 0
M  V30 582 C 57.2238 -2.69268 -2.39848 0
M  V30 583 O 56.3278 -2.28113 -3.43567 0
M  V30 584 H 55.6688 -0.54399 -0.380751 0
M  V30 585 H 58.1988 -1.95421 -0.605952 0
M  V30 586 H 58.2088 -2.91291 -2.85681 0
M  V30 587 H 56.8838 -3.65846 -1.97812 0
M  V30 588 H 55.4608 -2.16401 -3.03685 0
M  V30 589 N 57.6459 0.756429 -1.3826 0
M  V30 590 C 58.8709 1.55077 -1.37717 0
M  V30 591 C 59.2959 1.88073 0.03164 0
M  V30 592 O 58.6539 1.50364 1.01293 0
M  V30 593 C 58.7019 2.8283 -2.23695 0
M  V30 594 O 57.8059 3.77862 -1.6521 0
M  V30 595 H 57.1469 0.469152 -0.469885 0
M  V30 596 H 59.6769 0.935019 -1.81985 0
M  V30 597 H 59.6869 3.31783 -2.37453 0
M  V30 598 H 58.3619 2.58144 -3.2609 0
M  V30 599 H 56.9389 3.36555 -1.60578 0
M  V30 600 N 59.124 1.23083 0.984299 0
M  V30 601 C 60.54 0.992637 1.24975 0
M  V30 602 C 60.74 -0.308618 1.99123 0
M  V30 603 O 59.796 -1.02905 2.30579 0
M  V30 604 C 61.109 2.19698 2.05312 0
M  V30 605 C 62.657 2.24147 2.18465 0
M  V30 606 C 63.132 3.44157 3.02192 0
M  V30 607 N 64.623 3.44372 3.09777 0
M  V30 608 C 65.358 4.33886 3.74874 0
M  V30 609 N 64.854 5.3363 4.41827 0
M  V30 610 N 66.647 4.21639 3.71721 0
M  V30 611 H 58.798 2.06731 0.487453 0
M  V30 612 H 61.061 0.906339 0.277944 0
M  V30 613 H 60.767 3.1411 1.58201 0
M  V30 614 H 60.641 2.20465 3.06064 0
M  V30 615 H 63.028 1.30277 2.64786 0
M  V30 616 H 63.109 2.27415 1.17115 0
M  V30 617 H 62.753 4.38332 2.56568 0
M  V30 618 H 62.683 3.3813 4.03702 0
M  V30 619 H 65.174 2.72201 2.62135 0
M  V30 620 H 65.487 5.98196 4.89266 0
M  V30 621 H 63.832 5.37534 4.40548 0
M  V30 622 H 67.023 3.42962 3.18582 0
M  V30 623 H 67.196 4.91604 4.22173 0
M  V30 624 N 60.6021 -1.18246 1.0419 0
M  V30 625 C 61.8791 -1.84121 0.660208 0
M  V30 626 C 62.2591 -1.92778 -0.860221 0
M  V30 627 O 61.6071 -1.45464 -1.76217 0
M  V30 628 C 61.8171 -3.22355 1.33747 0
M  V30 629 C 63.1651 -3.98376 1.46906 0
M  V30 630 O 64.1891 -3.31799 1.29568 0
M  V30 631 O 63.0481 -5.17665 1.75171 0
M  V30 632 H 60.1421 -0.794036 0.231161 0
M  V30 633 H 62.6881 -1.25628 1.14087 0
M  V30 634 H 61.4601 -3.10964 2.37522 0
M  V30 635 H 61.0831 -3.88506 0.845515 0
M  V30 636 N 62.0802 -0.821533 -1.34494 0
M  V30 637 C 63.4962 -0.507117 -1.51329 0
M  V30 638 C 63.6962 0.968964 -1.76673 0
M  V30 639 O 62.7522 1.75348 -1.81685 0
M  V30 640 C 64.0652 -1.36544 -2.67911 0
M  V30 641 C 65.6132 -1.36242 -2.81793 0
M  V30 642 C 66.0882 -2.2052 -4.01416 0
M  V30 643 N 67.5792 -2.18136 -4.08621 0
M  V30 644 C 68.3142 -2.80095 -5.00334 0
M  V30 645 N 67.8102 -3.51039 -5.9728 0
M  V30 646 N 69.6032 -2.69656 -4.93196 0
M  V30 647 H 61.7542 -1.77729 -1.16302 0
M  V30 648 H 64.0172 -0.757291 -0.570276 0
M  V30 649 H 63.7232 -2.41361 -2.55808 0
M  V30 650 H 63.5972 -1.02917 -3.62888 0
M  V30 651 H 65.9842 -0.322041 -2.93338 0
M  V30 652 H 66.0652 -1.73866 -1.87628 0
M  V30 653 H 65.7092 -3.24607 -3.90631 0
M  V30 654 H 65.6392 -1.80247 -4.94791 0
M  V30 655 H 68.1302 -1.6653 -3.39229 0
M  V30 656 H 68.4432 -3.95565 -6.63889 0
M  V30 657 H 66.7882 -3.55145 -5.97409 0
M  V30 658 H 69.9792 -2.13808 -4.16418 0
M  V30 659 H 70.1522 -3.1823 -5.64476 0
M  V30 660 N 63.5583 1.46682 -0.576371 0
M  V30 661 C 64.5063 2.31953 0.17335 0
M  V30 662 C 65.5003 1.44098 0.89062 0
M  V30 663 O 66.7063 1.60759 0.809728 0
M  V30 664 H 63.0813 0.748273 0.0747727 0
M  V30 665 H 65.0523 2.93007 -0.564738 0
M  V30 666 C 63.8013 3.27142 1.17786 0
M  V30 667 H 63.1243 3.94719 0.635361 0
M  V30 668 H 64.5643 3.896 1.67296 0
M  V30 669 C 63.0233 2.52036 2.23561 0
M  V30 670 O 63.5533 2.27877 3.3081 0
M  V30 671 N 61.7593 2.12709 1.97998 0
M  V30 672 H 61.3063 2.32557 1.10792 0
M  V30 673 H 61.2643 1.62776 2.68982 0
M  V30 674 N 65.0364 0.313813 1.54444 0
M  V30 675 C 65.9834 -0.55655 2.23989 0
M  V30 676 C 66.9534 -1.11943 1.22711 0
M  V30 677 O 68.1384 -1.16158 1.51367 0
M  V30 678 C 65.2784 -1.71635 2.99392 0
M  V30 679 C 64.3914 -1.18364 4.15468 0
M  V30 680 C 63.5264 -2.30834 4.78424 0
M  V30 681 C 62.5654 -1.74762 5.86622 0
M  V30 682 N 61.7024 -2.80855 6.43479 0
M  V30 683 H 66.5424 0.0430893 2.97969 0
M  V30 684 H 64.0794 0.0330359 1.47063 0
M  V30 685 H 66.0374 -2.39868 3.41349 0
M  V30 686 H 64.6674 -2.28742 2.27765 0
M  V30 687 H 63.7194 -0.393163 3.78363 0
M  V30 688 H 65.0314 -0.733262 4.93381 0
M  V30 689 H 64.1854 -3.0699 5.23299 0
M  V30 690 H 62.9244 -2.79204 3.99871 0
M  V30 691 H 61.9294 -0.970995 5.41158 0
M  V30 692 H 63.1544 -1.2728 6.67066 0
M  V30 693 H 61.1004 -3.28535 5.67804 0
M  V30 694 H 61.0174 -2.40351 7.16776 0
M  V30 695 H 62.2854 -3.5687 6.93011 0
M  V30 696 N 66.5145 -1.57545 0.0417849 0
M  V30 697 C 67.9255 -1.80011 -0.495259 0
M  V30 698 C 68.2765 -0.953199 -1.71489 0
M  V30 699 O 67.4015 -0.167138 -2.15754 0
M  V30 700 C 67.9965 -3.26482 -0.905265 0
M  V30 701 C 66.5555 -3.499 -1.38734 0
M  V30 702 C 65.7025 -2.74979 -0.358056 0
M  V30 703 H 68.6535 -1.56425 0.267736 0
M  V30 704 H 68.6745 -3.36887 -1.76882 0
M  V30 705 H 68.1865 -3.88096 -0.017401 0
M  V30 706 H 66.2875 -2.93553 -2.29471 0
M  V30 707 H 66.4005 -4.58615 -1.38598 0
M  V30 708 H 64.7645 -2.40834 -0.828912 0
M  V30 709 H 65.5475 -3.39315 0.521561 0
M  V30 710 N 67.9926 0.231505 -1.5589 0
M  V30 711 C 69.2396 0.957352 -1.78441 0
M  V30 712 C 69.5676 1.84726 -0.60882 0
M  V30 713 O 68.8226 1.91416 0.40725 0
M  V30 714 C 69.1216 1.83577 -3.0665 0
M  V30 715 C 68.7876 1.09993 -4.37278 0
M  V30 716 C 67.4496 0.896629 -4.72773 0
M  V30 717 C 69.8016 0.579558 -5.17968 0
M  V30 718 C 67.1296 0.160896 -5.86479 0
M  V30 719 C 69.4816 -0.142783 -6.32439 0
M  V30 720 C 68.1456 -0.357427 -6.66542 0
M  V30 721 H 67.4156 0.35032 -0.65296 0
M  V30 722 H 70.0626 0.226259 -1.90159 0
M  V30 723 H 68.3676 2.63441 -2.90011 0
M  V30 724 H 70.0646 2.39934 -3.21298 0
M  V30 725 H 66.6546 1.26835 -4.09403 0
M  V30 726 H 70.8386 0.724125 -4.90989 0
M  V30 727 H 66.0946 -0.0157293 -6.11398 0
M  V30 728 H 70.2686 -0.553559 -6.94196 0
M  V30 729 H 67.8956 -0.929466 -7.54497 0
M  V30 730 N 69.4707 1.49531 0.497807 0
M  V30 731 C 70.4177 1.66436 1.59899 0
M  V30 732 C 71.3877 0.505793 1.58212 0
M  V30 733 O 72.5727 0.733202 1.7615 0
M  V30 734 C 69.7127 1.7399 2.98029 0
M  V30 735 C 68.8257 3.01172 3.09708 0
M  V30 736 C 67.9607 2.99686 4.38591 0
M  V30 737 C 66.9997 4.21434 4.43914 0
M  V30 738 N 66.1367 4.1784 5.64229 0
M  V30 739 H 70.9767 2.60459 1.44793 0
M  V30 740 H 68.5137 1.29137 0.704423 0
M  V30 741 H 70.4717 1.76352 3.78095 0
M  V30 742 H 69.1017 0.834301 3.11832 0
M  V30 743 H 68.1537 3.08408 2.22685 0
M  V30 744 H 69.4657 3.91165 3.09502 0
M  V30 745 H 68.6197 3.00628 5.2698 0
M  V30 746 H 67.3587 2.07477 4.41367 0
M  V30 747 H 66.3637 4.20733 3.53926 0
M  V30 748 H 67.5887 5.14839 4.42851 0
M  V30 749 H 65.5347 3.28469 5.67841 0
M  V30 750 H 65.4517 5.01571 5.65652 0
M  V30 751 H 66.7197 4.22889 6.54817 0
M  V30 752 N 70.9488 -0.749086 1.3866 0
M  V30 753 C 72.1958 -1.50833 1.35114 0
M  V30 754 C 72.5238 -1.94415 -0.0574049 0
M  V30 755 O 71.7788 -1.66065 -1.03541 0
M  V30 756 C 72.0778 -2.7712 2.25697 0
M  V30 757 C 71.7438 -2.52477 3.73585 0
M  V30 758 C 70.4058 -2.45466 4.13884 0
M  V30 759 C 72.7578 -2.31066 4.67181 0
M  V30 760 C 70.0858 -2.15064 5.45861 0
M  V30 761 C 72.4378 -2.02183 5.9942 0
M  V30 762 C 71.1018 -1.93631 6.38798 0
M  V30 763 H 70.3718 -0.551936 0.494416 0
M  V30 764 H 73.0188 -0.860979 1.71054 0
M  V30 765 H 71.3238 -3.46528 1.82827 0
M  V30 766 H 73.0208 -3.35096 2.20254 0
M  V30 767 H 69.6108 -2.58807 3.41638 0
M  V30 768 H 73.7948 -2.35459 4.3689 0
M  V30 769 H 69.0508 -2.06954 5.75308 0
M  V30 770 H 73.2248 -1.8462 6.71482 0
M  V30 771 H 70.8518 -1.69839 7.40985 0
M  V30 772 N 72.4269 -1.23603 -0.977757 0
M  V30 773 C 73.3599 -0.962772 -2.06896 0
M  V30 774 C 74.3379 0.0998743 -1.62293 0
M  V30 775 O 75.5219 -0.0349421 -1.88468 0
M  V30 776 C 72.6489 -0.45095 -3.35685 0
M  V30 777 C 71.6949 -1.50061 -3.99229 0
M  V30 778 S 72.5279 -3.07884 -4.38142 0
M  V30 779 C 73.6839 -2.58378 -5.7008 0
M  V30 780 H 73.9169 -1.88677 -2.29757 0
M  V30 781 H 71.4499 -1.06876 -1.11431 0
M  V30 782 H 73.4079 -0.162261 -4.10179 0
M  V30 783 H 72.0689 0.452179 -3.10828 0
M  V30 784 H 71.2619 -1.09269 -4.92013 0
M  V30 785 H 70.8639 -1.73878 -3.31123 0
M  V30 786 H 73.1559 -2.00563 -6.47133 0
M  V30 787 H 74.0989 -3.49711 -6.15717 0
M  V30 788 H 74.5069 -1.99143 -5.28207 0
M  V30 789 N 73.905 1.17692 -1.04816 0
M  V30 790 C 74.835 2.23777 -0.666791 0
M  V30 791 C 75.816 1.66796 0.33361 0
M  V30 792 O 77.001 1.93039 0.212042 0
M  V30 793 C 74.131 3.47281 -0.0367933 0
M  V30 794 C 73.085 4.17059 -0.961546 0
M  V30 795 C 72.411 5.34342 -0.195626 0
M  V30 796 C 73.711 4.69713 -2.28402 0
M  V30 797 H 75.405 2.55933 -1.55367 0
M  V30 798 H 72.951 1.23019 -0.748484 0
M  V30 799 H 74.904 4.20706 0.241775 0
M  V30 800 H 73.628 3.14381 0.885004 0
M  V30 801 H 72.287 3.45541 -1.22462 0
M  V30 802 H 71.935 4.97692 0.728816 0
M  V30 803 H 71.635 5.81966 -0.811775 0
M  V30 804 H 73.159 6.10553 0.0757473 0
M  V30 805 H 74.573 5.34794 -2.06563 0
M  V30 806 H 72.97 5.279 -2.8538 0
M  V30 807 H 74.04 3.86726 -2.92525 0
M  V30 808 N 75.3831 0.828654 1.34056 0
M  V30 809 C 76.6311 0.41863 1.97717 0
M  V30 810 C 76.9521 -1.02314 1.66002 0
M  V30 811 O 76.2221 -1.71119 0.953683 0
M  V30 812 H 74.8021 0.151809 0.731412 0
M  V30 813 H 77.4641 1.05936 1.63596 0
M  V30 814 H 76.5601 0.542318 3.07352 0
M  V30 815 N 76.8612 -1.46375 0.584142 0
M  V30 816 C 77.8082 -2.30323 -0.148286 0
M  V30 817 C 78.7782 -1.40703 -0.882713 0
M  V30 818 O 79.9632 -1.69651 -0.873099 0
M  V30 819 C 77.1032 -3.25196 -1.15507 0
M  V30 820 C 76.2162 -4.29915 -0.423943 0
M  V30 821 C 75.3512 -5.11914 -1.41838 0
M  V30 822 C 74.3902 -6.08381 -0.673736 0
M  V30 823 N 73.5272 -6.83242 -1.6163 0
M  V30 824 H 78.3672 -2.92427 0.573644 0
M  V30 825 H 75.9042 -1.44118 0.294703 0
M  V30 826 H 77.8622 -3.78646 -1.75166 0
M  V30 827 H 76.4922 -2.64898 -1.8447 0
M  V30 828 H 75.5442 -3.7931 0.287714 0
M  V30 829 H 76.8562 -4.98549 0.158128 0
M  V30 830 H 76.0102 -5.69648 -2.08773 0
M  V30 831 H 74.7492 -4.43243 -2.03438 0
M  V30 832 H 73.7542 -5.49799 0.00938483 0
M  V30 833 H 74.9792 -6.79071 -0.0631082 0
M  V30 834 H 72.9252 -6.1728 -2.22038 0
M  V30 835 H 72.8422 -7.48144 -1.08707 0
M  V30 836 H 74.1102 -7.45534 -2.27596 0
M  V30 837 N 78.3393 -0.321999 -1.54275 0
M  V30 838 C 79.2713 0.578671 -2.21775 0
M  V30 839 C 80.2843 1.08109 -1.21722 0
M  V30 840 O 81.4733 0.994938 -1.482 0
M  V30 841 C 78.5733 1.80661 -2.86731 0
M  V30 842 C 77.7463 1.44314 -4.12907 0
M  V30 843 C 76.8053 2.52845 -4.61472 0
M  V30 844 O 75.8313 2.17054 -5.2619 0
M  V30 845 N 77.0333 3.83748 -4.35566 0
M  V30 846 H 79.7983 0.000709447 -2.997 0
M  V30 847 H 77.3593 -0.145132 -1.61248 0
M  V30 848 H 79.3513 2.52655 -3.16145 0
M  V30 849 H 77.9213 2.29245 -2.12521 0
M  V30 850 H 77.1413 0.554906 -3.90275 0
M  V30 851 H 78.4293 1.17598 -4.95023 0
M  V30 852 H 77.8273 4.15625 -3.83761 0
M  V30 853 H 76.3843 4.51977 -4.69638 0
M  V30 854 N 79.8174 1.5752 -0.0501392 0
M  V30 855 C 80.7274 2.14952 0.939827 0
M  V30 856 C 81.7434 1.10706 1.34239 0
M  V30 857 O 82.9194 1.42869 1.41952 0
M  V30 858 C 79.9844 2.68232 2.19665 0
M  V30 859 C 79.0454 3.87272 1.85253 0
M  V30 860 C 78.2784 4.38002 3.04943 0
M  V30 861 O 78.5014 3.87811 4.18281 0
M  V30 862 O 77.4354 5.29602 2.86017 0
M  V30 863 H 81.2614 2.9986 0.481392 0
M  V30 864 H 78.8464 1.4841 0.171699 0
M  V30 865 H 80.7284 3.02475 2.93406 0
M  V30 866 H 79.4034 1.86395 2.64648 0
M  V30 867 H 78.3104 3.5792 1.0883 0
M  V30 868 H 79.6434 4.70336 1.4507 0
M  V30 869 N 81.2955 -0.223234 1.56011 0
M  V30 870 C 82.5415 -0.949279 1.79211 0
M  V30 871 C 82.8745 -1.84054 0.619494 0
M  V30 872 O 82.1495 -1.90726 -0.381317 0
M  V30 873 C 82.4325 -1.78965 3.12479 0
M  V30 874 C 82.2855 -0.924997 4.40186 0
M  V30 875 C 83.6045 -2.76774 3.42175 0
M  V30 876 H 80.7235 -0.343676 0.651963 0
M  V30 877 H 83.3655 -0.218253 1.88742 0
M  V30 878 H 81.5155 -2.41291 3.04485 0
M  V30 879 H 83.1875 -0.318615 4.60198 0
M  V30 880 H 81.4305 -0.230344 4.33188 0
M  V30 881 H 82.1015 -1.54735 5.29869 0
M  V30 882 H 84.5775 -2.24584 3.50287 0
M  V30 883 H 83.4535 -3.32678 4.36597 0
M  V30 884 H 83.7145 -3.54429 2.64258 0
M  V30 885 N 82.7736 -1.49793 -0.48987 0
M  V30 886 C 84.0226 -1.59085 -1.23995 0
M  V30 887 C 84.3356 -0.287907 -1.9347 0
M  V30 888 O 85.5416 -0.259506 -2.70257 0
M  V30 889 C 83.9976 -2.80736 -2.252 0
M  V30 890 C 83.6056 -4.17833 -1.61614 0
M  V30 891 C 85.3496 -2.99364 -3.00967 0
M  V30 892 C 83.2566 -5.30693 -2.60996 0
M  V30 893 H 82.1866 -0.592372 -0.466488 0
M  V30 894 H 84.8376 -1.76197 -0.51252 0
M  V30 895 H 83.2196 -2.57142 -3.01154 0
M  V30 896 H 84.3936 -4.51608 -0.915774 0
M  V30 897 H 82.7086 -4.04656 -0.981977 0
M  V30 898 H 85.3056 -3.80851 -3.75308 0
M  V30 899 H 85.6486 -2.10356 -3.59244 0
M  V30 900 H 86.1816 -3.2305 -2.32128 0
M  V30 901 H 82.9206 -6.21796 -2.07485 0
M  V30 902 H 82.4406 -5.01359 -3.2924 0
M  V30 903 H 84.1196 -5.6049 -3.23202 0
M  V30 904 N 84.2517 0.741722 -1.39055 0
M  V30 905 C 85.6677 1.04638 -1.20512 0
M  V30 906 C 85.8677 2.01405 -0.0620218 0
M  V30 907 O 84.9237 2.45547 0.588457 0
M  V30 908 C 86.2367 1.6151 -2.53643 0
M  V30 909 C 87.7847 1.73623 -2.6043 0
M  V30 910 C 88.2597 2.33906 -3.93767 0
M  V30 911 N 89.7507 2.41323 -3.9537 0
M  V30 912 C 90.4857 2.88888 -4.95309 0
M  V30 913 N 89.9817 3.36401 -6.05645 0
M  V30 914 N 91.7747 2.88037 -4.82692 0
M  V30 915 H 83.9257 0.0998155 -2.12165 0
M  V30 916 H 86.1887 0.106907 -0.941953 0
M  V30 917 H 85.8947 0.978739 -3.37807 0
M  V30 918 H 85.7687 2.60411 -2.72885 0
M  V30 919 H 88.1557 2.36384 -1.76655 0
M  V30 920 H 88.2367 0.733945 -2.45045 0
M  V30 921 H 87.8807 1.71776 -4.7797 0
M  V30 922 H 87.8107 3.34799 -4.06469 0
M  V30 923 H 90.3017 2.07734 -3.15682 0
M  V30 924 H 90.6147 3.71186 -6.77821 0
M  V30 925 H 88.9597 3.34427 -6.09248 0
M  V30 926 H 92.1507 2.50237 -3.95599 0
M  V30 927 H 92.3237 3.24792 -5.60726 0
M  V30 928 N 85.7298 1.2412 0.971189 0
M  V30 929 C 86.9778 1.07668 1.71032 0
M  V30 930 C 87.2988 -0.385797 1.91146 0
M  V30 931 O 86.5688 -1.27569 1.4867 0
M  V30 932 H 85.1488 0.395429 0.633755 0
M  V30 933 H 87.8108 1.55984 1.16855 0
M  V30 934 H 86.9068 1.57195 2.69622 0
M  V30 935 N 87.2079 -1.17134 1.05439 0
M  V30 936 C 88.4539 -1.87979 0.776872 0
M  V30 937 C 88.8089 -1.7965 -0.688751 0
M  V30 938 O 88.1019 -1.19535 -1.4974 0
M  V30 939 C 88.2959 -3.36833 1.19491 0
M  V30 940 C 88.1249 -3.59653 2.69963 0
M  V30 941 C 86.8949 -3.76234 3.37307 0
M  V30 942 C 89.0929 -3.59091 3.68182 0
M  V30 943 N 87.0749 -3.86922 4.76618 0
M  V30 944 C 88.4459 -3.75659 4.93235 0
M  V30 945 C 90.5009 -3.42255 3.61616 0
M  V30 946 C 89.2039 -3.77133 6.12506 0
M  V30 947 C 91.2299 -3.45018 4.8033 0
M  V30 948 C 90.5919 -3.62096 6.04207 0
M  V30 949 H 86.6909 -0.705876 0.336546 0
M  V30 950 H 89.2749 -1.40602 1.34682 0
M  V30 951 H 87.4459 -3.82873 0.652884 0
M  V30 952 H 89.1779 -3.95305 0.866966 0
M  V30 953 H 85.9329 -3.76193 2.87708 0
M  V30 954 H 86.3569 -3.96055 5.49062 0
M  V30 955 H 90.9989 -3.27986 2.66805 0
M  V30 956 H 88.7169 -3.90186 7.07659 0
M  V30 957 H 92.3029 -3.33246 4.76905 0
M  V30 958 H 91.1829 -3.64142 6.94529 0
M  V30 959 N 88.686 -0.835752 -1.33615 0
M  V30 960 C 89.596 -0.269088 -2.33052 0
M  V30 961 C 90.612 0.603251 -1.63208 0
M  V30 962 O 91.788 0.508112 -1.94885 0
M  V30 963 C 88.853 0.549091 -3.42324 0
M  V30 964 C 87.914 -0.347156 -4.27894 0
M  V30 965 C 87.147 0.43207 -5.31948 0
M  V30 966 O 87.37 1.66409 -5.45586 0
M  V30 967 O 86.304 -0.192298 -6.01593 0
M  V30 968 H 90.13 -1.09243 -2.83372 0
M  V30 969 H 87.715 -0.598198 -1.36901 0
M  V30 970 H 89.597 1.01414 -4.09015 0
M  V30 971 H 88.272 1.34955 -2.94226 0
M  V30 972 H 87.179 -0.859979 -3.64081 0
M  V30 973 H 88.512 -1.1123 -4.79467 0
M  V30 974 N 90.1641 1.46063 -0.591896 0
M  V30 975 C 91.0741 2.34192 0.13831 0
M  V30 976 C 92.0901 1.50305 0.876608 0
M  V30 977 O 93.2661 1.8315 0.837728 0
M  V30 978 C 90.3311 3.27656 1.13326 0
M  V30 979 C 89.3921 4.27445 0.39863 0
M  V30 980 C 88.6251 5.16443 1.34618 0
M  V30 981 O 88.8481 5.08553 2.58321 0
M  V30 982 O 87.7821 5.95843 0.851768 0
M  V30 983 H 91.6081 2.98002 -0.58552 0
M  V30 984 H 89.1931 1.45188 -0.352239 0
M  V30 985 H 91.0751 3.85291 1.70671 0
M  V30 986 H 89.7501 2.6643 1.83839 0
M  V30 987 H 88.6571 3.73471 -0.216895 0
M  V30 988 H 89.9901 4.91482 -0.265709 0
M  V30 989 N 91.6422 0.330177 1.54103 0
M  V30 990 C 92.8902 -0.269871 2.0029 0
M  V30 991 C 93.2112 -1.52133 1.21986 0
M  V30 992 O 92.4812 -1.93212 0.323438 0
M  V30 993 H 91.0612 -0.10271 0.739905 0
M  V30 994 H 93.7232 0.448249 1.89675 0
M  V30 995 H 92.8192 -0.52166 3.07709 0
M  V30 996 N 93.1203 -1.57491 0.0584922 0
M  V30 997 C 94.3663 -1.93264 -0.614558 0
M  V30 998 C 94.6993 -0.937717 -1.7006 0
M  V30 999 O 93.9743 0.0351652 -1.94468 0
M  V30 1000 C 94.2573 -3.3938 -1.20386 0
M  V30 1001 C 94.1103 -4.49625 -0.125375 0
M  V30 1002 C 95.4293 -3.86039 -2.11334 0
M  V30 1003 H 92.5483 -0.702791 -0.221933 0
M  V30 1004 H 95.1903 -1.8961 0.12175 0
M  V30 1005 H 93.3403 -3.42626 -1.83139 0
M  V30 1006 H 95.0123 -4.58506 0.506971 0
M  V30 1007 H 93.2553 -4.30354 0.545672 0
M  V30 1008 H 93.9263 -5.48967 -0.577861 0
M  V30 1009 H 96.4023 -3.84716 -1.58534 0
M  V30 1010 H 95.2783 -4.88914 -2.49507 0
M  V30 1011 H 95.5393 -3.23215 -3.01636 0
M  V30 1012 N 94.5984 0.214957 -1.56127 0
M  V30 1013 C 95.5614 1.24997 -1.92116 0
M  V30 1014 C 96.5614 1.39467 -0.800344 0
M  V30 1015 O 97.7514 1.37619 -1.06802 0
M  V30 1016 C 94.8834 2.62271 -2.17777 0
M  V30 1017 H 96.0764 0.942875 -2.84693 0
M  V30 1018 H 93.6294 0.455654 -1.49511 0
M  V30 1019 H 94.3644 2.98068 -1.27773 0
M  V30 1020 H 94.1494 2.53143 -2.99434 0
M  V30 1021 H 95.6394 3.36946 -2.46693 0
M  V30 1022 N 96.0765 1.50051 0.48192 0
M  V30 1023 C 97.0085 1.64263 1.59844 0
M  V30 1024 C 98.0215 0.52451 1.54119 0
M  V30 1025 O 99.2105 0.797293 1.59704 0
M  V30 1026 C 96.3105 1.60102 2.98698 0
M  V30 1027 C 95.4835 2.87767 3.29407 0
M  V30 1028 C 94.5425 2.76397 4.47762 0
M  V30 1029 O 93.5685 3.50348 4.48603 0
M  V30 1030 N 94.7705 1.89222 5.48794 0
M  V30 1031 H 97.5355 2.60566 1.48073 0
M  V30 1032 H 95.0965 1.47379 0.670149 0
M  V30 1033 H 97.0885 1.50123 3.75826 0
M  V30 1034 H 95.6585 0.715798 3.04294 0
M  V30 1035 H 94.8785 3.11954 2.40994 0
M  V30 1036 H 96.1665 3.72365 3.4673 0
M  V30 1037 H 95.5645 1.28434 5.50928 0
M  V30 1038 H 94.1215 1.85154 6.24949 0
M  V30 1039 N 97.5546 -0.734337 1.39446 0
M  V30 1040 C 98.4876 -1.85715 1.32609 0
M  V30 1041 C 99.4656 -1.6137 0.199636 0
M  V30 1042 O 100.65 -1.84626 0.380195 0
M  V30 1043 C 97.7766 -3.21709 1.05929 0
M  V30 1044 C 96.8226 -3.64913 2.20773 0
M  V30 1045 S 97.6556 -3.74203 3.83056 0
M  V30 1046 C 98.8116 -5.12986 3.58603 0
M  V30 1047 H 99.0446 -1.91232 2.27635 0
M  V30 1048 H 96.5776 -0.899263 1.25509 0
M  V30 1049 H 98.5356 -4.00236 0.912203 0
M  V30 1050 H 97.1966 -3.13848 0.125883 0
M  V30 1051 H 96.3896 -4.63606 1.97699 0
M  V30 1052 H 95.9916 -2.93593 2.31688 0
M  V30 1053 H 98.2836 -5.99339 3.15909 0
M  V30 1054 H 99.2266 -5.41088 4.5676 0
M  V30 1055 H 99.6346 -4.82694 2.9269 0
M  V30 1056 N 99.0327 -1.24633 -0.964593 0
M  V30 1057 C 100.258 -1.11596 -1.74818 0
M  V30 1058 C 100.683 0.32723 -1.85232 0
M  V30 1059 O 100.041 1.23695 -1.32549 0
M  V30 1060 C 100.089 -1.76397 -3.1451 0
M  V30 1061 O 99.1927 -1.03685 -3.99153 0
M  V30 1062 H 98.5337 -0.390196 -0.537255 0
M  V30 1063 H 101.064 -1.65002 -1.20977 0
M  V30 1064 H 101.074 -1.8228 -3.65018 0
M  V30 1065 H 99.7487 -2.81401 -3.06246 0
M  V30 1066 H 98.3257 -1.05611 -3.57632 0
M  V30 1067 N 100.511 1.16574 -1.06058 0
M  V30 1068 C 101.757 1.87324 -0.777022 0
M  V30 1069 C 102.09 1.81351 0.694645 0
M  V30 1070 O 101.365 1.22753 1.50871 0
M  V30 1071 C 101.648 3.36991 -1.26922 0
M  V30 1072 C 101.501 3.51667 -2.80447 0
M  V30 1073 C 102.82 4.3131 -0.87521 0
M  V30 1074 H 99.9388 0.680191 -0.28374 0
M  V30 1075 H 102.581 1.37036 -1.3161 0
M  V30 1076 H 100.731 3.79949 -0.81063 0
M  V30 1077 H 102.403 3.17664 -3.34495 0
M  V30 1078 H 100.646 2.93656 -3.19294 0
M  V30 1079 H 101.317 4.56766 -3.0995 0
M  V30 1080 H 103.793 3.9624 -1.27014 0
M  V30 1081 H 102.669 5.34545 -1.2471 0
M  V30 1082 H 102.93 4.41552 0.220071 0
M  V30 1083 N 101.989 0.842826 1.3317 0
M  V30 1084 C 103.237 0.439577 1.97262 0
M  V30 1085 C 103.558 -1.00548 1.67078 0
M  V30 1086 O 102.828 -1.70098 0.971779 0
M  V30 1087 H 101.408 0.159558 0.72976 0
M  V30 1088 H 104.07 1.07665 1.62463 0
M  V30 1089 H 103.166 0.574886 3.0676 0
M  V30 1090 N 103.467 -1.45747 0.599634 0
M  V30 1091 C 104.399 -2.28628 -0.161879 0
M  V30 1092 C 105.412 -1.39494 -0.839367 0
M  V30 1093 O 106.601 -1.63941 -0.706089 0
M  V30 1094 C 103.701 -3.15014 -1.24976 0
M  V30 1095 C 102.874 -4.32378 -0.660935 0
M  V30 1096 C 101.933 -5.00033 -1.63869 0
M  V30 1097 O 100.959 -5.57085 -1.1681 0
M  V30 1098 N 102.161 -4.98589 -2.97303 0
M  V30 1099 H 104.926 -2.94624 0.549265 0
M  V30 1100 H 102.487 -1.55847 0.438565 0
M  V30 1101 H 104.479 -3.5714 -1.9035 0
M  V30 1102 H 103.049 -2.5098 -1.86354 0
M  V30 1103 H 102.269 -3.9383 0.170688 0
M  V30 1104 H 103.557 -5.08197 -0.247619 0
M  V30 1105 H 102.955 -4.53514 -3.38145 0
M  V30 1106 H 101.512 -5.44603 -3.58121 0
M  V30 1107 N 104.945 -0.338344 -1.53925 0
M  V30 1108 C 106.361 0.0137736 -1.59594 0
M  V30 1109 C 106.561 1.49186 -1.35447 0
M  V30 1110 O 105.617 2.24987 -1.14616 0
M  V30 1111 C 106.93 -0.41773 -2.97784 0
M  V30 1112 C 108.478 -0.369633 -3.1081 0
M  V30 1113 C 108.953 -0.776524 -4.51369 0
M  V30 1114 N 110.444 -0.730506 -4.57403 0
M  V30 1115 C 111.179 -1.01736 -5.64303 0
M  V30 1116 N 110.675 -1.3721 -6.79077 0
M  V30 1117 N 112.468 -0.941942 -5.54151 0
M  V30 1118 H 104.619 -1.3012 -1.67876 0
M  V30 1119 H 106.882 -0.530082 -0.78595 0
M  V30 1120 H 106.588 -1.44811 -3.20504 0
M  V30 1121 H 106.462 0.209729 -3.76616 0
M  V30 1122 H 108.849 0.651568 -2.87817 0
M  V30 1123 H 108.93 -1.03223 -2.34049 0
M  V30 1124 H 108.574 -1.79571 -4.75096 0
M  V30 1125 H 108.504 -0.0914649 -5.26521 0
M  V30 1126 H 110.995 -0.468783 -3.74981 0
M  V30 1127 H 111.308 -1.57597 -7.5656 0
M  V30 1128 H 109.653 -1.4105 -6.80536 0
M  V30 1129 H 112.844 -0.664184 -4.63364 0
M  V30 1130 H 113.017 -1.16884 -6.37371 0
M  V30 1131 N 106.423 1.57458 -0.0668435 0
M  V30 1132 C 107.386 2.11323 0.887422 0
M  V30 1133 C 108.386 1.03618 1.22964 0
M  V30 1134 O 109.576 1.29626 1.16373 0
M  V30 1135 C 106.708 2.61048 2.19242 0
M  V30 1136 H 107.901 2.96942 0.420194 0
M  V30 1137 H 105.454 1.55239 0.181793 0
M  V30 1138 H 106.189 1.78868 2.70512 0
M  V30 1139 H 105.974 3.39769 1.95702 0
M  V30 1140 H 107.464 3.02814 2.87565 0
M  V30 1141 N 107.901 -0.206675 1.56239 0
M  V30 1142 C 108.848 -1.25617 1.93621 0
M  V30 1143 C 109.818 -1.45824 0.795274 0
M  V30 1144 O 111.003 -1.59148 1.05245 0
M  V30 1145 C 108.143 -2.59839 2.27107 0
M  V30 1146 C 107.256 -2.47308 3.54207 0
M  V30 1147 C 106.391 -3.74155 3.7707 0
M  V30 1148 C 105.43 -3.56407 4.97635 0
M  V30 1149 N 104.567 -4.75238 5.1681 0
M  V30 1150 H 109.407 -0.930383 2.83104 0
M  V30 1151 H 106.944 -0.448065 1.4011 0
M  V30 1152 H 108.902 -3.38021 2.44535 0
M  V30 1153 H 107.532 -2.90485 1.40778 0
M  V30 1154 H 106.584 -1.60483 3.4489 0
M  V30 1155 H 107.896 -2.30122 4.42544 0
M  V30 1156 H 107.05 -4.60778 3.94675 0
M  V30 1157 H 105.789 -3.94282 2.87042 0
M  V30 1158 H 104.794 -2.68168 4.79964 0
M  V30 1159 H 106.019 -3.37736 5.89161 0
M  V30 1160 H 103.965 -4.95651 4.29728 0
M  V30 1161 H 103.882 -4.60835 5.99306 0
M  V30 1162 H 105.15 -5.63246 5.38864 0
M  V30 1163 N 109.379 -1.50304 -0.473955 0
M  V30 1164 C 110.309 -1.71886 -1.58042 0
M  V30 1165 C 111.29 -0.567799 -1.60344 0
M  V30 1166 O 112.475 -0.806623 -1.76656 0
M  V30 1167 C 109.605 -1.81036 -2.96384 0
M  V30 1168 C 108.559 -2.962 -3.08949 0
M  V30 1169 C 107.885 -2.9049 -4.48909 0
M  V30 1170 C 109.185 -4.36752 -2.86434 0
M  V30 1171 H 110.879 -2.64527 -1.40234 0
M  V30 1172 H 108.425 -1.27295 -0.673201 0
M  V30 1173 H 110.378 -1.94719 -3.73714 0
M  V30 1174 H 109.102 -0.850147 -3.15341 0
M  V30 1175 H 107.761 -2.82164 -2.3405 0
M  V30 1176 H 107.409 -1.92321 -4.64781 0
M  V30 1177 H 107.109 -3.67802 -4.58253 0
M  V30 1178 H 108.633 -3.06218 -5.28264 0
M  V30 1179 H 110.047 -4.5133 -3.53517 0
M  V30 1180 H 108.444 -5.15493 -3.07225 0
M  V30 1181 H 109.514 -4.49321 -1.82316 0
M  V30 1182 N 110.857 0.726932 -1.39834 0
M  V30 1183 C 112.085 1.51613 -1.40787 0
M  V30 1184 C 112.5 1.88799 -0.00451505 0
M  V30 1185 O 111.857 1.54662 0.968809 0
M  V30 1186 C 111.908 2.79863 -2.28821 0
M  V30 1187 O 111.629 2.44253 -3.63692 0
M  V30 1188 C 113.13 3.73837 -2.38245 0
M  V30 1189 H 110.35 0.468264 -0.480593 0
M  V30 1190 H 112.894 0.897607 -1.83748 0
M  V30 1191 H 111.049 3.38027 -1.89252 0
M  V30 1192 H 111.463 3.26695 -4.1033 0
M  V30 1193 H 112.937 4.60699 -3.04073 0
M  V30 1194 H 113.414 4.16153 -1.40403 0
M  V30 1195 H 114.02 3.21589 -2.78317 0
M  V30 1196 N 112.336 1.25143 0.95797 0
M  V30 1197 C 113.585 1.0909 1.69654 0
M  V30 1198 C 113.898 -0.368548 1.92097 0
M  V30 1199 O 115.104 -0.649455 2.63618 0
M  V30 1200 C 113.56 1.90395 3.05414 0
M  V30 1201 C 113.168 3.4081 2.90779 0
M  V30 1202 C 114.912 1.82901 3.83076 0
M  V30 1203 C 112.819 4.14423 4.21909 0
M  V30 1204 H 111.749 0.404625 0.636235 0
M  V30 1205 H 114.4 1.4931 1.06672 0
M  V30 1206 H 112.782 1.42996 3.69281 0
M  V30 1207 H 113.956 3.95859 2.35865 0
M  V30 1208 H 112.271 3.49361 2.26575 0
M  V30 1209 H 114.868 2.35196 4.80195 0
M  V30 1210 H 115.211 0.796224 4.08615 0
M  V30 1211 H 115.744 2.28033 3.25954 0
M  V30 1212 H 112.483 5.18102 4.01561 0
M  V30 1213 H 112.003 3.64159 4.76601 0
M  V30 1214 H 113.682 4.21956 4.90471 0
M  V30 1215 N 113.814 -1.1601 1.06675 0
M  V30 1216 C 115.039 -1.91068 0.806706 0
M  V30 1217 C 115.464 -1.77112 -0.633485 0
M  V30 1218 O 114.822 -1.09908 -1.44187 0
M  V30 1219 C 114.87 -3.39655 1.21106 0
M  V30 1220 O 113.974 -4.10893 0.352189 0
M  V30 1221 H 113.315 -0.595125 0.294486 0
M  V30 1222 H 115.845 -1.46955 1.42356 0
M  V30 1223 H 115.855 -3.90434 1.18428 0
M  V30 1224 H 114.53 -3.49132 2.26008 0
M  V30 1225 H 113.107 -3.70285 0.440868 0
M  V30 1226 N 115.292 -0.849877 -1.32721 0
M  V30 1227 C 116.703 -0.506188 -1.79707 0
M  V30 1228 C 117.054 0.975627 -1.70223 0
M  V30 1229 O 116.179 1.76078 -1.25799 0
M  V30 1230 C 116.774 -0.912044 -3.26293 0
M  V30 1231 C 115.333 -0.620326 -3.71253 0
M  V30 1232 C 114.48 -1.11439 -2.53922 0
M  V30 1233 H 117.431 -1.03754 -1.20087 0
M  V30 1234 H 117.452 -0.226493 -3.79825 0
M  V30 1235 H 116.964 -1.99057 -3.33164 0
M  V30 1236 H 115.065 0.447674 -3.69901 0
M  V30 1237 H 115.178 -1.18327 -4.64258 0
M  V30 1238 H 113.542 -0.534834 -2.49021 0
M  V30 1239 H 114.325 -2.19992 -2.6355 0
M  V30 1240 N 116.77 1.45427 -0.607355 0
M  V30 1241 C 118.047 1.9557 -0.0344566 0
M  V30 1242 C 118.427 1.54979 1.43334 0
M  V30 1243 O 117.775 0.812241 2.13576 0
M  V30 1244 C 117.985 3.48226 -0.232321 0
M  V30 1245 C 119.333 4.2445 -0.113001 0
M  V30 1246 O 120.357 3.55829 -0.162431 0
M  V30 1247 O 119.216 5.465 0.00209442 0
M  V30 1248 H 116.31 0.826222 0.0358667 0
M  V30 1249 H 118.856 1.55594 -0.6774 0
M  V30 1250 H 117.628 3.70739 -1.25174 0
M  V30 1251 H 117.251 3.95092 0.445896 0
M  V30 1252 N 118.248 0.346503 1.53744 0
M  V30 1253 C 119.478 -0.250047 2.05081 0
M  V30 1254 C 119.886 -1.44529 1.22098 0
M  V30 1255 O 119.229 -1.81992 0.249917 0
M  V30 1256 C 119.291 -0.725934 3.52094 0
M  V30 1257 C 118.955 0.350053 4.55657 0
M  V30 1258 C 119.952 1.19372 5.0601 0
M  V30 1259 C 117.637 0.504827 4.99757 0
M  V30 1260 C 119.631 2.17768 5.99046 0
M  V30 1261 C 117.318 1.49218 5.92602 0
M  V30 1262 C 118.316 2.32706 6.42135 0
M  V30 1263 O 118.004 3.2976 7.33153 0
M  V30 1264 H 117.736 -0.0515469 0.674032 0
M  V30 1265 H 120.29 0.497559 1.99282 0
M  V30 1266 H 118.52 -1.52483 3.55367 0
M  V30 1267 H 120.209 -1.24336 3.86388 0
M  V30 1268 H 120.975 1.08525 4.72702 0
M  V30 1269 H 116.854 -0.135178 4.60802 0
M  V30 1270 H 120.398 2.82971 6.37631 0
M  V30 1271 H 116.295 1.6012 6.25325 0
M  V30 1272 H 117.063 3.25265 7.51096 0
M  V30 1273 N 119.726 -1.57421 0.075193 0
M  V30 1274 C 120.689 -2.11791 -0.876203 0
M  V30 1275 C 121.689 -1.04268 -1.22412 0
M  V30 1276 O 122.879 -1.30242 -1.15684 0
M  V30 1277 C 120.011 -2.62207 -2.17854 0
M  V30 1278 H 121.204 -2.9716 -0.40444 0
M  V30 1279 H 118.757 -1.55333 -0.173557 0
M  V30 1280 H 119.492 -1.803 -2.6956 0
M  V30 1281 H 119.277 -3.40802 -1.93897 0
M  V30 1282 H 120.767 -3.04335 -2.85955 0
M  V30 1283 N 121.204 0.198386 -1.56346 0
M  V30 1284 C 122.434 0.934215 -1.84271 0
M  V30 1285 C 122.842 1.77496 -0.655125 0
M  V30 1286 O 122.185 1.7961 0.385488 0
M  V30 1287 C 122.247 1.88278 -3.06254 0
M  V30 1288 C 121.911 1.22431 -4.40295 0
M  V30 1289 C 122.908 0.602839 -5.16393 0
M  V30 1290 C 120.593 1.22915 -4.87029 0
M  V30 1291 C 122.587 -0.0050083 -6.374 0
M  V30 1292 C 120.274 0.617465 -6.07973 0
M  V30 1293 C 121.272 0.00146341 -6.83 0
M  V30 1294 O 120.96 -0.600642 -8.01653 0
M  V30 1295 H 120.692 0.278245 -0.616081 0
M  V30 1296 H 123.246 0.211626 -2.04307 0
M  V30 1297 H 121.476 2.64498 -2.82095 0
M  V30 1298 H 123.165 2.48612 -3.20853 0
M  V30 1299 H 123.931 0.591265 -4.81382 0
M  V30 1300 H 119.81 1.69801 -4.28589 0
M  V30 1301 H 123.354 -0.48643 -6.95902 0
M  V30 1302 H 119.251 0.62653 -6.42452 0
M  V30 1303 H 120.019 -0.497225 -8.16988 0
M  V30 1304 N 122.682 1.50554 0.465978 0
M  V30 1305 C 123.93 1.61479 1.21528 0
M  V30 1306 C 124.251 0.319596 1.92363 0
M  V30 1307 O 123.521 -0.663194 1.84333 0
M  V30 1308 H 122.101 0.595055 0.451573 0
M  V30 1309 H 124.763 1.87355 0.53704 0
M  V30 1310 H 123.859 2.42846 1.96042 0
M  V30 1311 N 124.16 -0.719506 1.40217 0
M  V30 1312 C 125.123 -1.8153 1.39927 0
M  V30 1313 C 126.123 -1.58095 0.293723 0
M  V30 1314 O 127.313 -1.65209 0.552429 0
M  V30 1315 C 124.445 -3.19561 1.18716 0
M  V30 1316 H 125.638 -1.83186 2.37451 0
M  V30 1317 H 123.191 -0.924746 1.26008 0
M  V30 1318 H 123.926 -3.23557 0.219366 0
M  V30 1319 H 123.711 -3.3797 1.98793 0
M  V30 1320 H 125.201 -3.99598 1.21291 0
M  V30 1321 N 125.638 -1.25649 -0.95132 0
M  V30 1322 C 126.866 -1.13343 -1.73092 0
M  V30 1323 C 127.281 0.312434 -1.86197 0
M  V30 1324 O 126.638 1.21465 -1.36207 0
M  V30 1325 C 126.689 -1.78602 -3.14299 0
M  V30 1326 O 126.41 -3.17537 -3.01831 0
M  V30 1327 C 127.911 -1.72119 -4.08522 0
M  V30 1328 H 125.131 -0.395181 -0.542285 0
M  V30 1329 H 127.675 -1.66076 -1.19328 0
M  V30 1330 H 125.83 -1.29832 -3.64996 0
M  V30 1331 H 126.244 -3.49676 -3.90931 0
M  V30 1332 H 127.718 -2.22435 -5.052 0
M  V30 1333 H 128.195 -0.685635 -4.33815 0
M  V30 1334 H 128.801 -2.20393 -3.63741 0
M  V30 1335 N 127.117 1.15442 -1.07289 0
M  V30 1336 C 128.365 1.85845 -0.794096 0
M  V30 1337 C 128.686 1.82692 0.681809 0
M  V30 1338 O 127.956 1.26741 1.49377 0
M  V30 1339 H 126.536 0.688089 -0.290763 0
M  V30 1340 H 129.198 1.39947 -1.3565 0
M  V30 1341 H 128.294 2.91001 -1.12804 0
M  V30 1342 N 128.595 0.856903 1.32268 0
M  V30 1343 C 129.545 0.274899 2.26337 0
M  V30 1344 C 130.529 -0.580543 1.50062 0
M  V30 1345 O 131.721 -0.429559 1.71708 0
M  V30 1346 C 128.85 -0.533841 3.39124 0
M  V30 1347 C 127.936 0.334114 4.22782 0
M  V30 1348 N 128.327 1.42143 4.85416 0
M  V30 1349 C 126.625 0.124256 4.45827 0
M  V30 1350 C 127.326 1.95559 5.47843 0
M  V30 1351 N 126.302 1.25444 5.28928 0
M  V30 1352 H 130.104 1.10612 2.72291 0
M  V30 1353 H 127.618 0.703258 1.46383 0
M  V30 1354 H 129.615 -0.96722 4.05525 0
M  V30 1355 H 128.275 -1.36283 2.94715 0
M  V30 1356 H 129.286 1.80436 4.85451 0
M  V30 1357 H 125.963 -0.669837 4.12092 0
M  V30 1358 H 127.353 2.86714 6.07655 0
M  V30 1359 N 130.073 -1.45103 0.615059 0
M  V30 1360 C 131.484 -1.85654 0.197383 0
M  V30 1361 C 131.835 -1.51433 -1.24749 0
M  V30 1362 O 130.96 -0.944608 -1.94695 0
M  V30 1363 C 131.555 -3.36972 0.351448 0
M  V30 1364 C 130.114 -3.76398 -0.011593 0
M  V30 1365 C 129.261 -2.69024 0.672394 0
M  V30 1366 H 132.212 -1.35797 0.821263 0
M  V30 1367 H 132.233 -3.78239 -0.414227 0
M  V30 1368 H 131.745 -3.61847 1.40314 0
M  V30 1369 H 129.846 -3.5714 -1.06217 0
M  V30 1370 H 129.959 -4.77532 0.387265 0
M  V30 1371 H 128.323 -2.54465 0.109284 0
M  V30 1372 H 129.106 -2.96735 1.72636 0
M  V30 1373 N 131.551 -0.354651 -1.53558 0
M  V30 1374 C 132.799 0.237972 -2.00694 0
M  V30 1375 C 133.12 1.50173 -1.24391 0
M  V30 1376 O 132.39 1.92673 -0.354135 0
M  V30 1377 H 130.97 0.0909256 -0.741446 0
M  V30 1378 H 133.632 -0.478368 -1.88938 0
M  V30 1379 H 132.728 0.47264 -3.085 0
M  V30 1380 N 133.029 1.57378 -0.0835403 0
M  V30 1381 C 134.278 1.93106 0.582498 0
M  V30 1382 C 134.591 0.96651 1.70053 0
M  V30 1383 O 135.797 1.21705 2.42693 0
M  V30 1384 C 134.253 3.43076 1.08751 0
M  V30 1385 C 133.861 4.48 -0.000146404 0
M  V30 1386 C 135.605 3.87785 1.72694 0
M  V30 1387 C 133.512 5.89113 0.519568 0
M  V30 1388 H 132.442 0.720775 0.221358 0
M  V30 1389 H 135.093 1.82821 -0.157675 0
M  V30 1390 H 133.475 3.48474 1.88101 0
M  V30 1391 H 134.649 4.54233 -0.775199 0
M  V30 1392 H 132.964 4.1283 -0.54406 0
M  V30 1393 H 135.561 4.90604 2.1263 0
M  V30 1394 H 135.904 3.25796 2.59158 0
M  V30 1395 H 136.437 3.8504 0.999457 0
M  V30 1396 H 133.176 6.54775 -0.308186 0
M  V30 1397 H 132.696 5.86376 1.26188 0
M  V30 1398 H 134.375 6.39346 0.992237 0
M  V30 1399 N 134.507 -0.190092 1.56449 0
M  V30 1400 C 135.756 -0.907912 1.80111 0
M  V30 1401 C 136.069 -1.84214 0.657619 0
M  V30 1402 O 137.275 -2.60094 0.778663 0
M  V30 1403 C 135.731 -1.66485 3.19078 0
M  V30 1404 C 135.339 -0.7752 4.41242 0
M  V30 1405 C 137.083 -2.37201 3.52045 0
M  V30 1406 C 134.99 -1.53129 5.71231 0
M  V30 1407 H 133.92 -0.34276 0.671589 0
M  V30 1408 H 136.571 -0.161109 1.82791 0
M  V30 1409 H 134.953 -2.45572 3.10661 0
M  V30 1410 H 136.127 -0.0226298 4.60794 0
M  V30 1411 H 134.442 -0.178627 4.16017 0
M  V30 1412 H 137.039 -2.94329 4.46402 0
M  V30 1413 H 137.382 -3.11632 2.76028 0
M  V30 1414 H 137.915 -1.65075 3.61932 0
M  V30 1415 H 134.654 -0.82967 6.50228 0
M  V30 1416 H 134.174 -2.25767 5.55688 0
M  V30 1417 H 135.853 -2.08377 6.12526 0
M  V30 1418 N 135.985 -1.50799 -0.457987 0
M  V30 1419 C 137.396 -1.55152 -1.0385 0
M  V30 1420 C 137.747 -0.362719 -1.92818 0
M  V30 1421 O 136.872 0.522915 -2.09987 0
M  V30 1422 C 137.467 -2.81173 -1.89017 0
M  V30 1423 C 136.026 -2.88164 -2.42154 0
M  V30 1424 C 135.173 -2.49591 -1.20829 0
M  V30 1425 H 138.124 -1.56874 -0.240068 0
M  V30 1426 H 138.145 -2.63769 -2.74238 0
M  V30 1427 H 137.657 -3.67677 -1.24238 0
M  V30 1428 H 135.758 -2.06042 -3.10447 0
M  V30 1429 H 135.871 -3.91356 -2.76364 0
M  V30 1430 H 134.235 -2.02322 -1.54719 0
M  V30 1431 H 135.018 -3.38418 -0.576927 0
M  V30 1432 N 137.463 0.71206 -1.40597 0
M  V30 1433 C 138.874 1.29135 -1.34837 0
M  V30 1434 C 139.225 1.96186 -0.0235395 0
M  V30 1435 O 138.35 1.97768 0.878444 0
M  V30 1436 C 138.945 2.34827 -2.44217 0
M  V30 1437 C 137.504 2.88371 -2.41907 0
M  V30 1438 C 136.651 1.62202 -2.24913 0
M  V30 1439 H 139.602 0.507944 -1.50352 0
M  V30 1440 H 139.623 3.15749 -2.12327 0
M  V30 1441 H 139.135 1.85996 -3.40627 0
M  V30 1442 H 137.236 3.41422 -1.49204 0
M  V30 1443 H 137.349 3.39925 -3.37621 0
M  V30 1444 H 135.713 1.874 -1.72492 0
M  V30 1445 H 136.496 1.15391 -3.23326 0
M  V30 1446 N 138.941 1.26152 0.944643 0
M  V30 1447 C 139.891 1.04081 2.02857 0
M  V30 1448 C 140.875 -0.0256555 1.6088 0
M  V30 1449 O 142.067 0.190884 1.75968 0
M  V30 1450 C 139.196 0.672118 3.36656 0
M  V30 1451 C 138.282 1.77586 3.85128 0
M  V30 1452 N 138.673 3.01272 4.06287 0
M  V30 1453 C 136.971 1.65867 4.1401 0
M  V30 1454 C 137.672 3.72983 4.46384 0
M  V30 1455 N 136.648 3.00653 4.52889 0
M  V30 1456 H 140.45 1.97968 2.17223 0
M  V30 1457 H 137.964 1.16618 1.13022 0
M  V30 1458 H 139.961 0.495166 4.13949 0
M  V30 1459 H 138.621 -0.259307 3.23663 0
M  V30 1460 H 139.632 3.37213 3.93075 0
M  V30 1461 H 136.309 0.796907 4.09824 0
M  V30 1462 H 137.699 4.792 4.70975 0
M  V30 1463 N 140.419 -1.14872 1.07899 0
M  V30 1464 C 141.382 -2.17986 0.708161 0
M  V30 1465 C 142.382 -1.58775 -0.25442 0
M  V30 1466 O 143.572 -1.74166 -0.034645 0
M  V30 1467 C 140.704 -3.40871 0.0446929 0
M  V30 1468 H 141.897 -2.52306 1.62116 0
M  V30 1469 H 139.45 -1.2943 0.876218 0
M  V30 1470 H 140.185 -3.12124 -0.880281 0
M  V30 1471 H 139.97 -3.8511 0.737091 0
M  V30 1472 H 141.46 -4.17121 -0.19991 0
M  V30 1473 N 141.898 -0.863906 -1.31812 0
M  V30 1474 C 143.126 -0.486111 -2.01108 0
M  V30 1475 C 143.541 0.919755 -1.64882 0
M  V30 1476 O 142.898 1.60162 -0.874893 0
M  V30 1477 C 142.949 -0.626435 -3.56031 0
M  V30 1478 O 142.67 -1.97693 -3.90959 0
M  V30 1479 C 144.171 -0.248857 -4.42601 0
M  V30 1480 H 141.391 -0.190052 -0.643523 0
M  V30 1481 H 143.935 -1.1634 -1.68182 0
M  V30 1482 H 142.09 0.00322717 -3.874 0
M  V30 1483 H 142.504 -1.98034 -4.85678 0
M  V30 1484 H 143.978 -0.398016 -5.50563 0
M  V30 1485 H 144.455 0.811489 -4.31638 0
M  V30 1486 H 145.061 -0.853971 -4.16638 0
M  V30 1487 N 143.376 1.44774 -0.622745 0
M  V30 1488 C 144.306 2.33382 0.0741861 0
M  V30 1489 C 145.287 1.47719 0.843387 0
M  V30 1490 O 146.472 1.76458 0.810934 0
M  V30 1491 C 143.602 3.30663 1.06204 0
M  V30 1492 C 142.556 4.26079 0.405037 0
M  V30 1493 C 141.882 5.13165 1.5022 0
M  V30 1494 C 143.182 5.1781 -0.683414 0
M  V30 1495 H 144.876 2.91905 -0.665713 0
M  V30 1496 H 142.422 1.40363 -0.321587 0
M  V30 1497 H 144.375 3.9153 1.55827 0
M  V30 1498 H 143.099 2.70331 1.83272 0
M  V30 1499 H 141.758 3.66532 -0.0704683 0
M  V30 1500 H 141.406 4.49191 2.26355 0
M  V30 1501 H 141.106 5.77812 1.06803 0
M  V30 1502 H 142.63 5.76902 2.00041 0
M  V30 1503 H 144.044 5.72661 -0.270631 0
M  V30 1504 H 142.441 5.91015 -1.04023 0
M  V30 1505 H 143.511 4.59326 -1.55395 0
M  V30 1506 N 144.854 0.36279 1.53368 0
M  V30 1507 C 146.1 -0.228113 2.01513 0
M  V30 1508 C 146.433 -1.48648 1.2497 0
M  V30 1509 O 145.708 -1.91459 0.342616 0
M  V30 1510 C 145.991 -0.522884 3.56284 0
M  V30 1511 C 145.844 0.74892 4.43521 0
M  V30 1512 C 147.163 -1.32461 4.19693 0
M  V30 1513 H 144.282 -0.0814343 0.732487 0
M  V30 1514 H 146.924 0.48713 1.83649 0
M  V30 1515 H 145.074 -1.1322 3.71636 0
M  V30 1516 H 146.746 1.38648 4.39971 0
M  V30 1517 H 144.989 1.36986 4.11603 0
M  V30 1518 H 145.66 0.497667 5.49752 0
M  V30 1519 H 148.136 -0.809203 4.08156 0
M  V30 1520 H 147.012 -1.49961 5.28018 0
M  V30 1521 H 147.273 -2.33232 3.75573 0
M  V30 1522 N 146.332 -1.57332 0.0918853 0
M  V30 1523 C 147.579 -1.94236 -0.572577 0
M  V30 1524 C 147.907 -0.973398 -1.6839 0
M  V30 1525 O 147.162 0.00756912 -1.95699 0
M  V30 1526 C 147.461 -3.37689 -1.17051 0
M  V30 1527 C 147.127 -4.50527 -0.183304 0
M  V30 1528 C 145.789 -4.81119 0.0882276 0
M  V30 1529 C 148.141 -5.18883 0.49095 0
M  V30 1530 C 145.469 -5.77395 1.04076 0
M  V30 1531 C 147.821 -6.1618 1.43193 0
M  V30 1532 C 146.485 -6.45179 1.71173 0
M  V30 1533 H 145.755 -0.710762 -0.209521 0
M  V30 1534 H 148.402 -1.9077 0.167036 0
M  V30 1535 H 146.707 -3.37718 -1.9863 0
M  V30 1536 H 148.404 -3.63543 -1.69227 0
M  V30 1537 H 144.994 -4.26681 -0.405124 0
M  V30 1538 H 149.178 -4.95427 0.294312 0
M  V30 1539 H 144.434 -5.98179 1.26457 0
M  V30 1540 H 148.608 -6.68243 1.96023 0
M  V30 1541 H 146.235 -7.1959 2.4514 0
M  V30 1542 N 147.81 0.181792 -1.56548 0
M  V30 1543 C 149.087 0.926765 -1.72251 0
M  V30 1544 C 149.467 2.00831 -0.650386 0
M  V30 1545 O 148.815 2.26008 0.336521 0
M  V30 1546 C 149.025 1.50106 -3.1507 0
M  V30 1547 C 150.373 1.97805 -3.75711 0
M  V30 1548 O 151.397 1.59922 -3.18282 0
M  V30 1549 O 150.256 2.67555 -4.76525 0
M  V30 1550 H 147.35 0.435506 -0.703039 0
M  V30 1551 H 149.896 0.170443 -1.68842 0
M  V30 1552 H 148.668 0.72212 -3.84579 0
M  V30 1553 H 148.291 2.32186 -3.22763 0
M  V30 1554 N 149.288 1.51039 0.449983 0
M  V30 1555 C 150.534 1.63322 1.20223 0
M  V30 1556 C 150.867 0.34241 1.91158 0
M  V30 1557 O 150.142 -0.657344 1.83055 0
M  V30 1558 C 150.425 2.82801 2.22925 0
M  V30 1559 C 150.278 4.21823 1.56157 0
M  V30 1560 C 151.597 2.97807 3.24035 0
M  V30 1561 H 148.716 0.594407 0.435718 0
M  V30 1562 H 151.358 1.83489 0.493136 0
M  V30 1563 H 149.508 2.65738 2.834 0
M  V30 1564 H 151.18 4.50526 0.991162 0
M  V30 1565 H 149.423 4.25105 0.864172 0
M  V30 1566 H 150.094 5.01391 2.30891 0
M  V30 1567 H 152.57 3.13497 2.73603 0
M  V30 1568 H 151.446 3.82992 3.93202 0
M  V30 1569 H 151.707 2.09328 3.89402 0
M  V30 1570 N 150.766 -0.704594 1.40972 0
M  V30 1571 C 151.676 -1.84856 1.44448 0
M  V30 1572 C 152.692 -1.70726 0.335961 0
M  V30 1573 O 153.868 -1.92799 0.582276 0
M  V30 1574 C 150.933 -3.20758 1.31587 0
M  V30 1575 C 149.994 -3.47063 2.52677 0
M  V30 1576 C 149.227 -4.76481 2.4042 0
M  V30 1577 O 149.45 -5.52341 1.42391 0
M  V30 1578 O 148.384 -5.03367 3.30007 0
M  V30 1579 H 152.21 -1.8488 2.40942 0
M  V30 1580 H 149.795 -0.85647 1.22413 0
M  V30 1581 H 151.677 -4.01913 1.26665 0
M  V30 1582 H 150.352 -3.21438 0.382049 0
M  V30 1583 H 149.259 -2.65873 2.63177 0
M  V30 1584 H 150.592 -3.5119 3.44858 0
M  V30 1585 N 152.244 -1.26651 -0.937939 0
M  V30 1586 C 153.174 -1.10993 -2.05433 0
M  V30 1587 C 154.155 -0.0142161 -1.70094 0
M  V30 1588 O 155.34 -0.186837 -1.93299 0
M  V30 1589 C 152.47 -0.745561 -3.39203 0
M  V30 1590 C 151.424 -1.79337 -3.88616 0
M  V30 1591 C 150.75 -1.28324 -5.19073 0
M  V30 1592 C 152.05 -3.19553 -4.13138 0
M  V30 1593 H 153.744 -2.0438 -2.1879 0
M  V30 1594 H 151.29 -0.984041 -1.05131 0
M  V30 1595 H 153.243 -0.622888 -4.16771 0
M  V30 1596 H 151.967 0.22401 -3.25831 0
M  V30 1597 H 150.626 -1.90477 -3.13231 0
M  V30 1598 H 150.274 -0.303414 -5.02084 0
M  V30 1599 H 149.974 -1.98369 -5.53103 0
M  V30 1600 H 151.498 -1.1733 -5.99221 0
M  V30 1601 H 152.912 -3.11471 -4.81309 0
M  V30 1602 H 151.309 -3.87218 -4.58457 0
M  V30 1603 H 152.379 -3.65368 -3.18801 0
M  V30 1604 N 153.722 1.14298 -1.08507 0
M  V30 1605 C 154.652 2.21542 -0.737646 0
M  V30 1606 C 155.633 1.67773 0.280377 0
M  V30 1607 O 156.818 1.93616 0.150521 0
M  V30 1608 C 153.948 3.46988 -0.147259 0
M  V30 1609 C 152.902 4.13789 -1.09374 0
M  V30 1610 C 152.228 5.33449 -0.365524 0
M  V30 1611 C 153.528 4.62208 -2.4323 0
M  V30 1612 H 155.222 2.5086 -1.6343 0
M  V30 1613 H 152.768 1.20576 -0.787243 0
M  V30 1614 H 154.721 4.21262 0.107808 0
M  V30 1615 H 153.445 3.17037 0.784538 0
M  V30 1616 H 152.104 3.4147 -1.33393 0
M  V30 1617 H 151.752 4.99759 0.57011 0
M  V30 1618 H 151.452 5.79088 -0.996512 0
M  V30 1619 H 152.976 6.10485 -0.118534 0
M  V30 1620 H 154.39 5.27952 -2.23472 0
M  V30 1621 H 152.787 5.18553 -3.02031 0
M  V30 1622 H 153.857 3.77224 -3.04681 0
M  V30 1623 N 155.201 0.870884 1.31352 0
M  V30 1624 C 156.148 0.325425 2.28494 0
M  V30 1625 C 157.118 -0.576615 1.5577 0
M  V30 1626 O 158.303 -0.508059 1.83911 0
M  V30 1627 C 155.443 -0.466283 3.41935 0
M  V30 1628 C 154.556 0.463378 4.29508 0
M  V30 1629 C 153.691 -0.342544 5.30094 0
M  V30 1630 C 152.73 0.583486 6.09313 0
M  V30 1631 N 151.867 -0.186244 7.01853 0
M  V30 1632 H 156.707 1.15901 2.74538 0
M  V30 1633 H 154.244 0.58294 1.35056 0
M  V30 1634 H 156.202 -0.941085 4.06447 0
M  V30 1635 H 154.832 -1.26456 2.97 0
M  V30 1636 H 153.884 1.05663 3.65431 0
M  V30 1637 H 155.196 1.1734 4.84802 0
M  V30 1638 H 154.35 -0.879816 6.00287 0
M  V30 1639 H 153.089 -1.08585 4.75458 0
M  V30 1640 H 152.094 1.13251 5.3801 0
M  V30 1641 H 153.319 1.32566 6.66035 0
M  V30 1642 H 151.265 -0.912348 6.49625 0
M  V30 1643 H 151.182 0.464422 7.54572 0
M  V30 1644 H 152.45 -0.704716 7.76308 0
M  V30 1645 N 156.679 -1.44442 0.630414 0
M  V30 1646 C 157.609 -2.33418 -0.0618083 0
M  V30 1647 C 158.59 -1.48165 -0.835541 0
M  V30 1648 O 159.775 -1.76886 -0.801564 0
M  V30 1649 C 156.905 -3.31222 -1.04449 0
M  V30 1650 C 155.859 -4.26288 -0.382436 0
M  V30 1651 C 155.185 -5.13954 -1.47497 0
M  V30 1652 C 156.485 -5.1744 0.710865 0
M  V30 1653 H 158.179 -2.91548 0.681184 0
M  V30 1654 H 155.725 -1.40191 0.329026 0
M  V30 1655 H 157.678 -3.92351 -1.53748 0
M  V30 1656 H 156.402 -2.71299 -1.81836 0
M  V30 1657 H 155.061 -3.6649 0.0899054 0
M  V30 1658 H 154.709 -4.50385 -2.2397 0
M  V30 1659 H 154.409 -5.7837 -1.03737 0
M  V30 1660 H 155.933 -5.77955 -1.96979 0
M  V30 1661 H 157.347 -5.72509 0.300996 0
M  V30 1662 H 155.744 -5.90455 1.07156 0
M  V30 1663 H 156.814 -4.58496 1.57829 0
M  V30 1664 N 158.157 -0.370918 -1.53173 0
M  V30 1665 C 159.067 0.480823 -2.2962 0
M  V30 1666 C 160.083 1.08789 -1.35798 0
M  V30 1667 O 161.259 1.09768 -1.68858 0
M  V30 1668 C 158.324 1.60227 -3.07454 0
M  V30 1669 C 157.385 1.0222 -4.16953 0
M  V30 1670 C 156.618 2.0902 -4.91066 0
M  V30 1671 O 156.841 3.30222 -4.65091 0
M  V30 1672 O 155.775 1.71778 -5.76867 0
M  V30 1673 H 159.601 -0.141421 -3.03371 0
M  V30 1674 H 157.186 -0.135146 -1.48787 0
M  V30 1675 H 159.068 2.25417 -3.56041 0
M  V30 1676 H 157.743 2.20982 -2.36535 0
M  V30 1677 H 156.65 0.334064 -3.72605 0
M  V30 1678 H 157.983 0.459131 -4.90054 0
M  V30 1679 O 159.674 1.59701 -0.240351 0
M  V30 1680 H 160.365 1.90754 0.336524 0
M  V30 END ATOM
M  V30 BEGIN BOND
M  V30 END BOND
M  V30 END CTAB
M  END
$$$$
