drugbank_target|P52270 Triosephosphate isomerase, glycosomal (DB03132)
 OpenBabel12092119573D

  0  0  0     0  0            999 V3000
M  V30 BEGIN CTAB
M  V30 COUNTS 3886 3922 0 0 0
M  V30 BEGIN ATOM
M  V30 1 H -0.908 1.98254 -0.117106 0
M  V30 2 N 0 1.576 0 0
M  V30 3 C 0.933 2.03868 1.02534 0
M  V30 4 C 1.911 0.928543 1.3348 0
M  V30 5 O 3.095 1.19667 1.45644 0
M  V30 6 C 0.222 2.43627 2.35294 0
M  V30 7 C -0.732 3.65373 2.2001 0
M  V30 8 S 0.101 5.13292 1.52614 0
M  V30 9 C 1.257 5.56322 2.86805 0
M  V30 10 H 1.49 2.90518 0.631377 0
M  V30 11 H -0.977 1.52953 0.210867 0
M  V30 12 H 0.981 2.67203 3.11629 0
M  V30 13 H -0.358 1.57376 2.7183 0
M  V30 14 H -1.165 3.90944 3.18086 0
M  V30 15 H -1.563 3.418 1.51819 0
M  V30 16 H 0.729 5.58782 3.83104 0
M  V30 17 H 1.672 6.56266 2.65933 0
M  V30 18 H 2.08 4.83886 2.90714 0
M  V30 19 N 1.4781 -0.272755 1.55222 0
M  V30 20 C 2.4411 -1.32041 1.87344 0
M  V30 21 C 3.4411 -1.42342 0.74803 0
M  V30 22 O 4.6311 -1.41488 1.0162 0
M  V30 23 C 1.7631 -2.70173 2.07893 0
M  V30 24 H 2.9561 -1.04789 2.80997 0
M  V30 25 H 0.5091 -0.51083 1.47717 0
M  V30 26 H 1.2441 -3.02605 1.16622 0
M  V30 27 H 1.0291 -2.64082 2.89833 0
M  V30 28 H 2.5191 -3.45869 2.34017 0
M  V30 29 N 2.9562 -1.48159 -0.537278 0
M  V30 30 C 4.1812 -1.59707 -1.32319 0
M  V30 31 C 4.6062 -0.254859 -1.86365 0
M  V30 32 O 3.9642 0.772378 -1.64024 0
M  V30 33 C 4.0122 -2.6412 -2.45505 0
M  V30 34 O 3.1162 -2.20774 -3.48328 0
M  V30 35 H 2.4572 -0.535791 -0.392204 0
M  V30 36 H 4.9872 -1.94092 -0.647268 0
M  V30 37 H 4.9972 -2.85166 -2.91795 0
M  V30 38 H 3.6722 -3.61567 -2.05528 0
M  V30 39 H 2.2492 -2.09911 -3.08207 0
M  V30 40 N 4.4343 0.785586 -1.36625 0
M  V30 41 C 5.3813 1.89838 -1.31264 0
M  V30 42 C 6.3513 1.65115 -0.180633 0
M  V30 43 O 7.5363 1.87222 -0.36777 0
M  V30 44 C 4.6763 3.26706 -1.11163 0
M  V30 45 C 3.7893 3.63476 -2.33472 0
M  V30 46 C 2.9243 4.89481 -2.06353 0
M  V30 47 C 1.9633 5.18941 -3.24602 0
M  V30 48 N 1.1003 6.36131 -2.97123 0
M  V30 49 H 5.9403 1.93756 -2.26413 0
M  V30 50 H 3.4773 0.947454 -1.12524 0
M  V30 51 H 5.4353 4.05639 -0.975337 0
M  V30 52 H 4.0653 3.222 -0.196674 0
M  V30 53 H 3.1173 2.79636 -2.57891 0
M  V30 54 H 4.4293 3.81193 -3.21704 0
M  V30 55 H 3.5833 5.76288 -1.89675 0
M  V30 56 H 2.3223 4.73841 -1.15437 0
M  V30 57 H 1.3273 4.30615 -3.41834 0
M  V30 58 H 2.5523 5.36498 -4.16349 0
M  V30 59 H 0.4983 6.21875 -2.08823 0
M  V30 60 H 0.4153 6.54198 -3.78894 0
M  V30 61 H 1.6833 7.2591 -2.84033 0
M  V30 62 N 5.9124 1.20967 1.01018 0
M  V30 63 C 7.3234 1.02319 1.56165 0
M  V30 64 C 7.6744 -0.418546 1.91684 0
M  V30 65 O 6.7994 -1.30096 1.72928 0
M  V30 66 C 7.3944 1.85109 2.8376 0
M  V30 67 C 5.9534 1.70809 3.35412 0
M  V30 68 C 5.1004 1.82643 2.08655 0
M  V30 69 H 8.0514 1.35065 0.833255 0
M  V30 70 H 8.0724 1.35827 3.55431 0
M  V30 71 H 7.5844 2.90035 2.57878 0
M  V30 72 H 5.6854 0.685464 3.66241 0
M  V30 73 H 5.7984 2.52467 4.07182 0
M  V30 74 H 4.1624 1.25896 2.21409 0
M  V30 75 H 4.9454 2.89066 1.85191 0
M  V30 76 N 7.3905 -1.2043 1.01659 0
M  V30 77 C 8.3225 -2.22626 0.544988 0
M  V30 78 C 9.3355 -1.58479 -0.372609 0
M  V30 79 O 10.5245 -1.77679 -0.170958 0
M  V30 80 C 7.6245 -3.38141 -0.22663 0
M  V30 81 C 6.7975 -4.31877 0.692876 0
M  V30 82 C 5.8565 -5.26191 -0.0311616 0
M  V30 83 O 4.8825 -5.6612 0.591343 0
M  V30 84 N 6.0845 -5.65618 -1.30601 0
M  V30 85 H 8.8495 -2.63716 1.42388 0
M  V30 86 H 6.4105 -1.34971 0.894116 0
M  V30 87 H 8.4025 -3.98239 -0.72024 0
M  V30 88 H 6.9725 -2.95943 -1.00681 0
M  V30 89 H 6.1925 -3.69746 1.36679 0
M  V30 90 H 7.4805 -4.91426 1.31824 0
M  V30 91 H 6.8785 -5.3519 -1.83269 0
M  V30 92 H 5.4355 -6.28025 -1.74435 0
M  V30 93 N 8.8686 -0.792821 -1.36206 0
M  V30 94 C 10.2796 -0.429513 -1.81692 0
M  V30 95 C 10.6306 1.04695 -1.65932 0
M  V30 96 O 9.7556 1.81256 -1.18218 0
M  V30 97 C 10.3506 -0.772831 -3.29868 0
M  V30 98 C 8.9096 -0.462307 -3.7355 0
M  V30 99 C 8.0566 -1.00569 -2.5842 0
M  V30 100 H 11.0076 -0.985672 -1.24379 0
M  V30 101 H 11.0286 -0.0651928 -3.80444 0
M  V30 102 H 10.5406 -1.84747 -3.41307 0
M  V30 103 H 8.6416 0.604158 -3.67669 0
M  V30 104 H 8.7546 -0.985299 -4.68859 0
M  V30 105 H 7.1186 -0.428734 -2.51066 0
M  V30 106 H 7.9016 -2.08616 -2.72643 0
M  V30 107 N 10.3467 1.47872 -0.545128 0
M  V30 108 C 11.5957 2.01695 -0.0145033 0
M  V30 109 C 11.9087 1.42609 1.33873 0
M  V30 110 O 13.1147 1.88021 1.95858 0
M  V30 111 C 11.5707 3.59892 0.0245068 0
M  V30 112 C 11.1787 4.27966 -1.32475 0
M  V30 113 C 12.9227 4.21507 0.50316 0
M  V30 114 C 10.8297 5.78136 -1.2455 0
M  V30 115 H 9.7597 0.753998 -0.00165172 0
M  V30 116 H 12.4107 1.69985 -0.691175 0
M  V30 117 H 10.7927 3.88509 0.766575 0
M  V30 118 H 11.9667 4.11003 -2.08357 0
M  V30 119 H 10.2817 3.78286 -1.74036 0
M  V30 120 H 12.8787 5.31538 0.580656 0
M  V30 121 H 13.2217 3.87855 1.51243 0
M  V30 122 H 13.7547 3.97376 -0.183681 0
M  V30 123 H 10.4937 6.16388 -2.23039 0
M  V30 124 H 10.0137 5.97469 -0.528282 0
M  V30 125 H 11.6927 6.40099 -0.942488 0
M  V30 126 N 11.8248 0.280983 1.55075 0
M  V30 127 C 12.7878 -0.590896 2.21452 0
M  V30 128 C 13.7878 -1.07682 1.19421 0
M  V30 129 O 14.9778 -0.97605 1.44288 0
M  V30 130 C 12.1098 -1.81587 2.88511 0
M  V30 131 H 13.3028 -0.0112554 2.99898 0
M  V30 132 H 10.8558 0.0316438 1.56268 0
M  V30 133 H 11.5908 -2.43587 2.14093 0
M  V30 134 H 11.3758 -1.4753 3.63287 0
M  V30 135 H 12.8658 -2.43575 3.39206 0
M  V30 136 N 13.3029 -1.57598 0.00835791 0
M  V30 137 C 14.2659 -2.07884 -0.965242 0
M  V30 138 C 15.2659 -0.989825 -1.26725 0
M  V30 139 O 16.4559 -1.25218 -1.21104 0
M  V30 140 C 13.5879 -2.52731 -2.28779 0
M  V30 141 H 14.7809 -2.95178 -0.530112 0
M  V30 142 H 12.3339 -1.54458 -0.239283 0
M  V30 143 H 13.0689 -1.68705 -2.76964 0
M  V30 144 H 12.8539 -3.32272 -2.08177 0
M  V30 145 H 14.3439 -2.91933 -2.98605 0
M  V30 146 N 14.781 0.264519 -1.55364 0
M  V30 147 C 15.744 1.31046 -1.88042 0
M  V30 148 C 16.744 1.41943 -0.755569 0
M  V30 149 O 17.934 1.40947 -1.02369 0
M  V30 150 C 15.066 2.69067 -2.09323 0
M  V30 151 H 16.259 1.03297 -2.81549 0
M  V30 152 H 13.812 0.502989 -1.47986 0
M  V30 153 H 14.547 3.01982 -1.18226 0
M  V30 154 H 14.332 2.62542 -2.91229 0
M  V30 155 H 15.822 3.44623 -2.35848 0
M  V30 156 N 16.2591 1.48442 0.529413 0
M  V30 157 C 17.2071 1.63452 1.65487 0
M  V30 158 C 18.2011 0.500955 1.61823 0
M  V30 159 O 19.4071 0.679695 1.66674 0
M  V30 160 H 15.7821 0.514905 0.548066 0
M  V30 161 H 17.7531 2.57975 1.49971 0
M  V30 162 C 16.5021 1.69196 3.03756 0
M  V30 163 H 15.8251 2.55784 3.07269 0
M  V30 164 H 17.2651 1.83743 3.82119 0
M  V30 165 C 15.7241 0.430765 3.34135 0
M  V30 166 O 16.2541 -0.4561 3.99102 0
M  V30 167 N 14.4601 0.302293 2.89023 0
M  V30 168 H 14.0071 1.02496 2.36331 0
M  V30 169 H 13.9651 -0.540546 3.09718 0
M  V30 170 N 17.7372 -0.778329 1.37039 0
M  V30 171 C 18.9832 -1.53817 1.33086 0
M  V30 172 C 19.3382 -1.92208 -0.0860346 0
M  V30 173 O 18.6312 -1.60713 -1.04316 0
M  V30 174 C 18.8252 -2.81845 2.19768 0
M  V30 175 C 18.6542 -2.55967 3.69744 0
M  V30 176 C 17.4242 -2.50428 4.38878 0
M  V30 177 C 19.6222 -2.2441 4.62758 0
M  V30 178 N 17.6042 -2.16564 5.74433 0
M  V30 179 C 18.9752 -2.0063 5.86641 0
M  V30 180 C 21.0302 -2.1051 4.5121 0
M  V30 181 C 19.7332 -1.64354 7.00272 0
M  V30 182 C 21.7592 -1.75634 5.64718 0
M  V30 183 C 21.1212 -1.52709 6.87648 0
M  V30 184 H 17.2202 -0.563434 0.542279 0
M  V30 185 H 19.8042 -0.908617 1.72198 0
M  V30 186 H 17.9752 -3.42649 1.82883 0
M  V30 187 H 19.7072 -3.47682 2.07122 0
M  V30 188 H 16.4622 -2.66056 3.91805 0
M  V30 189 H 16.8862 -2.02348 6.46053 0
M  V30 190 H 21.5282 -2.26919 3.56746 0
M  V30 191 H 19.2462 -1.46683 7.94676 0
M  V30 192 H 22.8322 -1.65546 5.57751 0
M  V30 193 H 21.7122 -1.2612 7.73992 0
M  V30 194 N 19.2153 -1.21501 -1.00376 0
M  V30 195 C 20.1623 -0.975387 -2.09177 0
M  V30 196 C 21.1323 0.0990615 -1.65804 0
M  V30 197 O 22.3173 -0.0483147 -1.90739 0
M  V30 198 C 19.4573 -0.547507 -3.40729 0
M  V30 199 C 18.5703 -1.69153 -3.97506 0
M  V30 200 C 17.7053 -1.2127 -5.17172 0
M  V30 201 C 16.7443 -2.32897 -5.66061 0
M  V30 202 N 15.8813 -1.86138 -6.76976 0
M  V30 203 H 20.7213 -1.9068 -2.29009 0
M  V30 204 H 18.2583 -0.950257 -1.12288 0
M  V30 205 H 20.2163 -0.280667 -4.16255 0
M  V30 206 H 18.8463 0.346904 -3.20931 0
M  V30 207 H 17.8983 -2.07298 -3.18954 0
M  V30 208 H 19.2103 -2.5316 -4.29781 0
M  V30 209 H 18.3643 -0.902591 -5.99948 0
M  V30 210 H 17.1033 -0.342692 -4.86495 0
M  V30 211 H 16.1083 -2.64709 -4.81881 0
M  V30 212 H 17.3333 -3.20396 -5.98768 0
M  V30 213 H 15.2793 -1.01484 -6.48103 0
M  V30 214 H 15.1963 -2.63717 -7.08512 0
M  V30 215 H 16.4643 -1.58165 -7.63285 0
M  V30 216 N 20.6934 1.19889 -1.02296 0
M  V30 217 C 21.9334 1.91125 -0.724602 0
M  V30 218 C 22.2974 1.77464 0.732835 0
M  V30 219 O 23.4984 2.43241 1.144 0
M  V30 220 C 21.7694 3.38187 -1.15604 0
M  V30 221 S 23.3284 4.27702 -0.980621 0
M  V30 222 H 20.1464 0.66018 -0.263976 0
M  V30 223 H 22.7484 1.44978 -1.31155 0
M  V30 224 H 21.4524 3.45653 -2.21251 0
M  V30 225 H 20.9834 3.89363 -0.562131 0
M  V30 226 H 22.9984 4.96073 0.112225 0
M  V30 227 N 22.1715 0.800033 1.35784 0
M  V30 228 C 23.1195 0.193851 2.31791 0
M  V30 229 C 24.1135 -0.652744 1.56319 0
M  V30 230 O 25.3195 -0.546641 1.71499 0
M  V30 231 H 21.6945 0.04392 0.750716 0
M  V30 232 H 23.6655 1.01883 2.80468 0
M  V30 233 C 22.4145 -0.648338 3.41602 0
M  V30 234 H 21.7375 -0.00624665 3.998 0
M  V30 235 H 23.1775 -1.03898 4.11073 0
M  V30 236 C 21.6365 -1.8111 2.84079 0
M  V30 237 O 22.1665 -2.90825 2.77099 0
M  V30 238 N 20.3725 -1.62056 2.41218 0
M  V30 239 H 19.9195 -0.728123 2.47095 0
M  V30 240 H 19.8775 -2.40013 2.03079 0
M  V30 241 N 23.6496 -1.47581 0.552962 0
M  V30 242 C 24.8976 -2.02082 0.0272703 0
M  V30 243 C 25.2186 -1.4301 -1.32563 0
M  V30 244 O 24.4886 -0.603745 -1.86365 0
M  V30 245 H 23.0686 -0.746966 0.00709182 0
M  V30 246 H 25.7306 -1.81033 0.722008 0
M  V30 247 H 24.8266 -3.12034 -0.0639951 0
M  V30 248 N 25.1277 -0.289203 -1.54924 0
M  V30 249 C 26.3527 0.329299 -2.04769 0
M  V30 250 C 26.7777 1.4763 -1.16564 0
M  V30 251 O 26.1357 1.80527 -0.167186 0
M  V30 252 C 26.1837 0.774438 -3.52186 0
M  V30 253 O 25.2877 1.88038 -3.67036 0
M  V30 254 H 24.6287 0.0659259 -0.660719 0
M  V30 255 H 27.1587 -0.42761 -2.00082 0
M  V30 256 H 27.1687 1.06642 -3.93816 0
M  V30 257 H 25.8437 -0.0646707 -4.1585 0
M  V30 258 H 24.4207 1.58985 -3.3731 0
M  V30 259 N 26.6058 1.57591 -0.0167156 0
M  V30 260 C 27.5158 2.1291 0.98521 0
M  V30 261 C 28.5318 1.07834 1.36557 0
M  V30 262 O 29.7078 1.39826 1.44951 0
M  V30 263 C 26.7728 2.63512 2.25305 0
M  V30 264 C 25.8338 3.83256 1.93426 0
M  V30 265 C 25.0668 4.31435 3.14165 0
M  V30 266 O 25.2898 3.78851 4.26413 0
M  V30 267 O 24.2238 5.23416 2.97186 0
M  V30 268 H 28.0498 2.98772 0.544888 0
M  V30 269 H 25.6348 1.48012 0.203141 0
M  V30 270 H 27.5168 2.96183 2.99756 0
M  V30 271 H 26.1918 1.8074 2.68542 0
M  V30 272 H 25.0988 3.55531 1.16398 0
M  V30 273 H 26.4318 4.67153 1.55013 0
M  V30 274 N 28.0839 -0.256276 1.55502 0
M  V30 275 C 29.3089 -1.00766 1.81276 0
M  V30 276 C 29.7339 -1.78524 0.59252 0
M  V30 277 O 29.0919 -1.75413 -0.45827 0
M  V30 278 C 29.1399 -1.92869 3.04687 0
M  V30 279 O 28.2439 -3.019 2.80945 0
M  V30 280 H 27.5849 -0.287224 0.598664 0
M  V30 281 H 30.1149 -0.280109 2.02674 0
M  V30 282 H 30.1249 -2.34511 3.33869 0
M  V30 283 H 28.7999 -1.35689 3.93143 0
M  V30 284 H 27.3769 -2.64454 2.62904 0
M  V30 285 N 29.562 -1.4872 -0.521534 0
M  V30 286 C 30.492 -1.66771 -1.63431 0
M  V30 287 C 31.473 -0.516499 -1.62069 0
M  V30 288 O 32.658 -0.750013 -1.79132 0
M  V30 289 C 29.788 -1.71515 -3.01993 0
M  V30 290 C 28.742 -2.86222 -3.18216 0
M  V30 291 C 28.068 -2.76061 -4.57924 0
M  V30 292 C 29.368 -4.27419 -3.00184 0
M  V30 293 H 31.062 -2.59932 -1.48579 0
M  V30 294 H 28.608 -1.25089 -0.713358 0
M  V30 295 H 30.561 -1.82731 -3.7972 0
M  V30 296 H 29.285 -0.749393 -3.17886 0
M  V30 297 H 27.944 -2.74575 -2.42908 0
M  V30 298 H 27.592 -1.77437 -4.70665 0
M  V30 299 H 27.292 -3.53037 -4.69722 0
M  V30 300 H 28.816 -2.89256 -5.37739 0
M  V30 301 H 30.23 -4.39855 -3.67697 0
M  V30 302 H 28.627 -5.05458 -3.2347 0
M  V30 303 H 29.697 -4.43293 -1.96518 0
M  V30 304 N 31.0401 0.771051 -1.3745 0
M  V30 305 C 31.9701 1.89827 -1.3597 0
M  V30 306 C 32.9511 1.68562 -0.228216 0
M  V30 307 O 34.1361 1.8941 -0.428675 0
M  V30 308 C 31.2661 3.2712 -1.16662 0
M  V30 309 C 30.2201 3.6295 -2.2683 0
M  V30 310 C 29.5461 4.98791 -1.92644 0
M  V30 311 C 30.8461 3.69627 -3.69017 0
M  V30 312 H 32.5401 1.91323 -2.30295 0
M  V30 313 H 30.0861 0.919082 -1.10855 0
M  V30 314 H 32.0391 4.05615 -1.14256 0
M  V30 315 H 30.7631 3.26059 -0.187926 0
M  V30 316 H 29.4221 2.86763 -2.28392 0
M  V30 317 H 29.0701 4.94271 -0.933021 0
M  V30 318 H 28.7701 5.23733 -2.66416 0
M  V30 319 H 30.2941 5.79685 -1.91826 0
M  V30 320 H 31.7081 4.38273 -3.69581 0
M  V30 321 H 30.1051 4.06067 -4.41848 0
M  V30 322 H 31.1751 2.70273 -4.02592 0
M  V30 323 N 32.5182 1.22032 0.997298 0
M  V30 324 C 33.7642 1.04376 1.73878 0
M  V30 325 C 34.0972 -0.420716 1.89588 0
M  V30 326 O 33.3722 -1.31202 1.43583 0
M  V30 327 C 33.6552 1.75047 3.14691 0
M  V30 328 C 33.5082 3.29062 3.06656 0
M  V30 329 C 34.8272 1.49928 4.13775 0
M  V30 330 H 31.9462 0.380578 0.631133 0
M  V30 331 H 34.5882 1.50312 1.16217 0
M  V30 332 H 32.7382 1.35996 3.63919 0
M  V30 333 H 34.4102 3.7753 2.65083 0
M  V30 334 H 32.6532 3.58967 2.43568 0
M  V30 335 H 33.3242 3.73683 4.06282 0
M  V30 336 H 35.8002 1.83842 3.73285 0
M  V30 337 H 34.6762 2.01878 5.10428 0
M  V30 338 H 34.9372 0.430929 4.39995 0
M  V30 339 N 33.9963 -1.19345 1.0293 0
M  V30 340 C 35.4073 -1.70725 0.755633 0
M  V30 341 C 35.7583 -1.82326 -0.724676 0
M  V30 342 O 34.8833 -1.49471 -1.56484 0
M  V30 343 C 35.4783 -3.10084 1.36503 0
M  V30 344 C 34.0373 -3.58723 1.13994 0
M  V30 345 C 33.1843 -2.35577 1.46283 0
M  V30 346 H 36.1353 -1.0418 1.19718 0
M  V30 347 H 36.1563 -3.72787 0.762217 0
M  V30 348 H 35.6683 -3.01609 2.44241 0
M  V30 349 H 33.7693 -3.72512 0.0807901 0
M  V30 350 H 33.8823 -4.42816 1.82894 0
M  V30 351 H 32.2463 -2.38935 0.88217 0
M  V30 352 H 33.0293 -2.29731 2.55105 0
M  V30 353 N 35.4744 -0.807222 -1.35358 0
M  V30 354 C 36.4044 -0.232509 -2.3234 0
M  V30 355 C 37.3854 0.642386 -1.57504 0
M  V30 356 O 38.5704 0.572526 -1.85569 0
M  V30 357 C 35.7004 0.619238 -3.41735 0
M  V30 358 C 34.6544 -0.157215 -4.27711 0
M  V30 359 C 33.9804 0.816273 -5.28433 0
M  V30 360 C 35.2804 -1.35656 -5.04376 0
M  V30 361 H 36.9744 -1.04276 -2.80654 0
M  V30 362 H 34.5204 -0.50288 -1.34934 0
M  V30 363 H 36.4734 1.03137 -4.08584 0
M  V30 364 H 35.1974 1.46239 -2.92031 0
M  V30 365 H 33.8564 -0.550525 -3.62443 0
M  V30 366 H 33.5044 1.65494 -4.74996 0
M  V30 367 H 33.2044 0.301067 -5.86828 0
M  V30 368 H 34.7284 1.22659 -5.98153 0
M  V30 369 H 36.1424 -1.01927 -5.64166 0
M  V30 370 H 34.5394 -1.8063 -5.7227 0
M  V30 371 H 35.6094 -2.14288 -4.34981 0
M  V30 372 N 36.9525 1.47285 -0.560781 0
M  V30 373 C 38.2015 2.01668 -0.035895 0
M  V30 374 C 38.5145 1.44021 1.32353 0
M  V30 375 O 39.7205 1.90088 1.93853 0
M  V30 376 C 38.1765 3.59897 -0.0136659 0
M  V30 377 C 37.7845 4.26536 -1.37006 0
M  V30 378 C 39.5285 4.22017 0.458425 0
M  V30 379 C 37.4355 5.76782 -1.30675 0
M  V30 380 H 36.3655 0.753938 -0.00964879 0
M  V30 381 H 39.0165 1.69243 -0.709166 0
M  V30 382 H 37.3985 3.89301 0.725325 0
M  V30 383 H 38.5725 4.0877 -2.12705 0
M  V30 384 H 36.8875 3.76419 -1.78038 0
M  V30 385 H 39.4845 5.32124 0.524247 0
M  V30 386 H 39.8275 3.89437 1.4712 0
M  V30 387 H 40.3605 3.97159 -0.225818 0
M  V30 388 H 37.0995 6.13988 -2.29564 0
M  V30 389 H 36.6195 5.96875 -0.591622 0
M  V30 390 H 38.2985 6.39063 -1.01033 0
M  V30 391 N 38.4306 0.297415 1.54768 0
M  V30 392 C 39.3406 -0.58983 2.27064 0
M  V30 393 C 40.3566 -1.15144 1.30453 0
M  V30 394 O 41.5326 -1.17699 1.63428 0
M  V30 395 C 38.5976 -1.74714 2.9946 0
M  V30 396 C 37.6586 -1.21997 4.11601 0
M  V30 397 C 36.8916 -2.32212 4.80535 0
M  V30 398 O 37.1146 -3.52036 4.48806 0
M  V30 399 O 36.0486 -1.99106 5.68014 0
M  V30 400 H 39.8746 -0.00348199 3.037 0
M  V30 401 H 37.4596 0.0640035 1.49263 0
M  V30 402 H 39.3416 -2.42147 3.44881 0
M  V30 403 H 38.0166 -2.32016 2.25722 0
M  V30 404 H 36.9236 -0.511458 3.70587 0
M  V30 405 H 38.2566 -0.692419 4.87305 0
M  V30 406 N 39.9087 -1.5758 0.0250728 0
M  V30 407 C 41.1367 -1.9593 -0.664747 0
M  V30 408 C 41.5517 -0.901352 -1.65895 0
M  V30 409 O 40.9087 0.117255 -1.82123 0
M  V30 410 C 40.9597 -3.34342 -1.37468 0
M  V30 411 O 40.6807 -4.36079 -0.420324 0
M  V30 412 C 42.1817 -3.873 -2.1567 0
M  V30 413 H 39.4017 -0.645405 -0.183557 0
M  V30 414 H 41.9457 -2.04329 0.0836372 0
M  V30 415 H 40.1007 -3.27175 -2.0745 0
M  V30 416 H 40.5147 -5.16297 -0.923991 0
M  V30 417 H 41.9887 -4.86504 -2.60803 0
M  V30 418 H 42.4657 -3.21331 -2.99405 0
M  V30 419 H 43.0717 -3.97723 -1.50654 0
M  V30 420 N 41.3868 0.248026 -1.55636 0
M  V30 421 C 42.3168 1.31079 -1.93237 0
M  V30 422 C 43.2978 1.50264 -0.797174 0
M  V30 423 O 44.4828 1.62891 -1.05737 0
M  V30 424 C 41.6128 2.66575 -2.22609 0
M  V30 425 C 40.5668 2.62087 -3.3837 0
M  V30 426 C 39.8928 4.01369 -3.53281 0
M  V30 427 C 41.1928 2.19171 -4.7409 0
M  V30 428 H 42.8868 0.998556 -2.82257 0
M  V30 429 H 40.4328 0.47891 -1.35803 0
M  V30 430 H 42.3858 3.41057 -2.47503 0
M  V30 431 H 41.1098 2.99432 -1.30414 0
M  V30 432 H 39.7688 1.90063 -3.13483 0
M  V30 433 H 39.4168 4.31489 -2.58508 0
M  V30 434 H 39.1168 3.99254 -4.31127 0
M  V30 435 H 40.6408 4.77552 -3.80495 0
M  V30 436 H 42.0548 2.83384 -4.98363 0
M  V30 437 H 40.4518 2.2817 -5.5503 0
M  V30 438 H 41.5218 1.14336 -4.71227 0
M  V30 439 N 42.8649 1.48995 0.513639 0
M  V30 440 C 43.8129 1.65199 1.63744 0
M  V30 441 C 44.8069 0.51809 1.61283 0
M  V30 442 O 46.0129 0.697335 1.65943 0
M  V30 443 H 42.3879 0.52069 0.542574 0
M  V30 444 H 44.3589 2.59552 1.47226 0
M  V30 445 C 43.1079 1.72409 3.01945 0
M  V30 446 H 42.4309 2.59029 3.04539 0
M  V30 447 H 43.8709 1.87785 3.80148 0
M  V30 448 C 42.3299 0.46618 3.33659 0
M  V30 449 O 42.8599 -0.413744 3.99564 0
M  V30 450 N 41.0659 0.332931 2.88687 0
M  V30 451 H 40.6129 1.04996 2.35231 0
M  V30 452 H 40.5709 -0.507665 3.10274 0
M  V30 453 N 44.343 -0.763751 1.37857 0
M  V30 454 C 45.306 -1.85889 1.34081 0
M  V30 455 C 46.306 -1.58949 0.243277 0
M  V30 456 O 47.496 -1.66882 0.499589 0
M  V30 457 C 44.628 -3.23176 1.08489 0
M  V30 458 H 45.821 -1.90648 2.31502 0
M  V30 459 H 43.374 -0.964367 1.23003 0
M  V30 460 H 44.109 -3.24091 0.116318 0
M  V30 461 H 43.894 -3.44124 1.8794 0
M  V30 462 H 45.384 -4.03254 1.08517 0
M  V30 463 N 45.8211 -1.22559 -0.990812 0
M  V30 464 C 46.7841 -0.998863 -2.0629 0
M  V30 465 C 47.7841 0.0354834 -1.60761 0
M  V30 466 O 48.9741 -0.203231 -1.7301 0
M  V30 467 C 46.1061 -0.509203 -3.37076 0
M  V30 468 H 47.2991 -1.95014 -2.27837 0
M  V30 469 H 44.8521 -1.04456 -1.16269 0
M  V30 470 H 45.5871 0.446335 -3.21214 0
M  V30 471 H 45.3721 -1.25547 -3.71457 0
M  V30 472 H 46.8621 -0.370888 -4.1595 0
M  V30 473 N 47.2992 1.18797 -1.03562 0
M  V30 474 C 48.5272 1.92599 -0.755869 0
M  V30 475 C 48.9422 1.75886 0.686271 0
M  V30 476 O 48.2992 1.08517 1.46732 0
M  V30 477 C 48.3502 3.44159 -1.10619 0
M  V30 478 O 48.0712 3.60341 -2.4917 0
M  V30 479 C 49.5722 4.3507 -0.850214 0
M  V30 480 H 46.7922 0.611587 -0.276048 0
M  V30 481 H 49.3362 1.50742 -1.38192 0
M  V30 482 H 47.4912 3.83823 -0.525194 0
M  V30 483 H 47.9052 4.54128 -2.62427 0
M  V30 484 H 49.3792 5.39989 -1.14523 0
M  V30 485 H 49.8562 4.38673 0.215176 0
M  V30 486 H 50.4622 4.01097 -1.41426 0
M  V30 487 N 48.7773 0.814389 1.34928 0
M  V30 488 C 50.0243 0.398423 1.98542 0
M  V30 489 C 50.3523 -1.03638 1.64589 0
M  V30 490 O 49.6073 -1.73509 0.90516 0
M  V30 491 C 49.9063 0.537781 3.53331 0
M  V30 492 C 49.5723 1.93704 4.07172 0
M  V30 493 C 48.2343 2.31984 4.21589 0
M  V30 494 C 50.5863 2.85213 4.36237 0
M  V30 495 C 47.9143 3.61125 4.62391 0
M  V30 496 C 50.2663 4.13809 4.78482 0
M  V30 497 C 48.9303 4.52077 4.91104 0
M  V30 498 H 48.2003 0.145793 0.726516 0
M  V30 499 H 50.8473 1.03669 1.61012 0
M  V30 500 H 49.1523 -0.183906 3.91368 0
M  V30 501 H 50.8493 0.196588 4.00518 0
M  V30 502 H 47.4393 1.62966 3.96409 0
M  V30 503 H 51.6233 2.56885 4.24645 0
M  V30 504 H 46.8793 3.90612 4.70353 0
M  V30 505 H 51.0533 4.84811 4.99932 0
M  V30 506 H 48.6803 5.52196 5.22478 0
M  V30 507 N 50.2554 -1.46986 0.568584 0
M  V30 508 C 51.5324 -1.95592 -0.0174074 0
M  V30 509 C 51.9124 -1.51124 -1.47393 0
M  V30 510 O 51.2604 -0.755329 -2.15655 0
M  V30 511 C 51.4704 -3.48719 0.139913 0
M  V30 512 C 52.8184 -4.246 0.000426376 0
M  V30 513 O 53.8424 -3.56135 0.0680316 0
M  V30 514 O 52.7014 -5.46302 -0.146988 0
M  V30 515 H 49.7954 -0.82498 -0.0577599 0
M  V30 516 H 52.3414 -1.57335 0.635909 0
M  V30 517 H 51.1134 -3.73927 1.15301 0
M  V30 518 H 50.7364 -3.93771 -0.550491 0
M  V30 519 N 51.7335 -0.305618 -1.54608 0
M  V30 520 C 52.6835 0.583595 -2.20405 0
M  V30 521 C 53.6675 1.09539 -1.17856 0
M  V30 522 O 54.8595 1.0354 -1.43557 0
M  V30 523 C 51.9885 1.75277 -2.95183 0
M  V30 524 C 51.0745 1.25672 -4.05052 0
M  V30 525 N 51.4655 0.478998 -5.03527 0
M  V30 526 C 49.7635 1.53704 -4.18678 0
M  V30 527 C 50.4645 0.214269 -5.81305 0
M  V30 528 N 49.4405 0.795374 -5.3775 0
M  V30 529 H 53.2425 -0.0180946 -2.93894 0
M  V30 530 H 50.7565 -0.110601 -1.62023 0
M  V30 531 H 52.7535 2.4014 -3.40791 0
M  V30 532 H 51.4135 2.35812 -2.23211 0
M  V30 533 H 52.4245 0.123473 -5.17753 0
M  V30 534 H 49.1015 2.14954 -3.57912 0
M  V30 535 H 50.4915 -0.410656 -6.70644 0
M  V30 536 N 53.2116 1.57565 -0.0334293 0
M  V30 537 C 54.4886 1.83282 0.683163 0
M  V30 538 C 54.8686 0.91823 1.90084 0
M  V30 539 O 54.2166 -0.025113 2.28486 0
M  V30 540 C 54.4266 3.32599 1.0573 0
M  V30 541 C 55.7746 3.99179 1.44711 0
M  V30 542 O 56.7986 3.3712 1.15015 0
M  V30 543 O 55.6576 5.08565 2.0006 0
M  V30 544 H 52.7516 0.755869 0.335546 0
M  V30 545 H 55.2976 1.69589 -0.0614402 0
M  V30 546 H 54.0696 3.90834 0.190828 0
M  V30 547 H 53.6926 3.51415 1.85993 0
M  V30 548 N 54.6897 -0.239769 1.55765 0
M  V30 549 C 55.9357 -0.968234 1.78194 0
M  V30 550 C 56.2687 -1.84701 0.599938 0
M  V30 551 O 55.5437 -1.9031 -0.401524 0
M  V30 552 C 55.8267 -1.8227 3.10564 0
M  V30 553 C 55.6797 -0.971633 4.3918 0
M  V30 554 C 56.9987 -2.80388 3.39221 0
M  V30 555 H 54.1177 -0.350572 0.648281 0
M  V30 556 H 56.7597 -0.238259 1.885 0
M  V30 557 H 54.9097 -2.44507 3.01908 0
M  V30 558 H 56.5817 -0.367408 4.59835 0
M  V30 559 H 54.8247 -0.276276 4.32919 0
M  V30 560 H 55.4957 -1.60346 5.28198 0
M  V30 561 H 57.9717 -2.28287 3.47885 0
M  V30 562 H 56.8477 -3.3729 4.33044 0
M  V30 563 H 57.1087 -3.57212 2.60484 0
M  V30 564 N 56.1678 -1.49265 -0.50573 0
M  V30 565 C 57.0998 -1.617 -1.62437 0
M  V30 566 C 58.1128 -0.499924 -1.54934 0
M  V30 567 O 59.3018 -0.771785 -1.60953 0
M  V30 568 C 56.4018 -1.5533 -3.01207 0
M  V30 569 C 55.5748 -2.8249 -3.33943 0
M  V30 570 C 54.6338 -2.69238 -4.52103 0
M  V30 571 O 53.6598 -3.43167 -4.5412 0
M  V30 572 N 54.8618 -1.80468 -5.51735 0
M  V30 573 H 57.6268 -2.58177 -1.52199 0
M  V30 574 H 55.1878 -1.46294 -0.693511 0
M  V30 575 H 57.1798 -1.44125 -3.78167 0
M  V30 576 H 55.7498 -0.667297 -3.05395 0
M  V30 577 H 54.9698 -3.08081 -2.45926 0
M  V30 578 H 56.2578 -3.66802 -3.5261 0
M  V30 579 H 55.6558 -1.19653 -5.52901 0
M  V30 580 H 54.2128 -1.75188 -6.27816 0
M  V30 581 N 57.6459 0.756429 -1.3826 0
M  V30 582 C 58.8859 1.52833 -1.35725 0
M  V30 583 C 59.2499 1.91926 0.0534106 0
M  V30 584 O 60.4509 2.68028 0.203613 0
M  V30 585 C 58.7219 2.74919 -2.28373 0
M  V30 586 S 60.2809 3.64817 -2.43832 0
M  V30 587 H 57.0989 0.523043 -0.481608 0
M  V30 588 H 59.7009 0.888212 -1.74158 0
M  V30 589 H 58.4049 2.44304 -3.29763 0
M  V30 590 H 57.9359 3.43878 -1.91079 0
M  V30 591 H 59.9509 4.676 -1.66027 0
M  V30 592 N 59.124 1.23083 0.984299 0
M  V30 593 C 60.37 1.06214 1.72761 0
M  V30 594 C 60.703 -0.400584 1.90024 0
M  V30 595 O 59.978 -1.29672 1.44967 0
M  V30 596 C 60.261 1.78375 3.12817 0
M  V30 597 C 60.114 3.32296 3.03149 0
M  V30 598 C 61.433 1.54309 4.12161 0
M  V30 599 H 58.552 0.387251 0.627061 0
M  V30 600 H 61.194 1.51536 1.14616 0
M  V30 601 H 59.344 1.39848 3.62457 0
M  V30 602 H 61.016 3.8032 2.61064 0
M  V30 603 H 59.259 3.6153 2.39747 0
M  V30 604 H 59.93 3.77972 4.02295 0
M  V30 605 H 62.406 1.87791 3.71314 0
M  V30 606 H 61.282 2.07281 5.08258 0
M  V30 607 H 61.543 0.477572 4.39513 0
M  V30 608 N 60.6021 -1.18246 1.0419 0
M  V30 609 C 61.8481 -1.88536 0.747122 0
M  V30 610 C 62.1811 -1.80223 -0.723409 0
M  V30 611 O 61.4561 -1.20337 -1.52804 0
M  V30 612 C 61.7391 -3.38968 1.21544 0
M  V30 613 C 61.5921 -3.56084 2.74816 0
M  V30 614 C 62.9111 -4.32648 0.806482 0
M  V30 615 H 60.0301 -0.684619 0.272883 0
M  V30 616 H 62.6721 -1.39113 1.29413 0
M  V30 617 H 60.8221 -3.8119 0.750081 0
M  V30 618 H 62.4941 -3.22946 3.29399 0
M  V30 619 H 60.7371 -2.98699 3.14582 0
M  V30 620 H 61.4081 -4.61639 3.02644 0
M  V30 621 H 63.8841 -3.98211 1.20695 0
M  V30 622 H 62.7601 -5.36462 1.1619 0
M  V30 623 H 63.0211 -4.41146 -0.29029 0
M  V30 624 N 62.0802 -0.821533 -1.34494 0
M  V30 625 C 63.0432 -0.247847 -2.27856 0
M  V30 626 C 64.0432 0.573453 -1.50227 0
M  V30 627 O 65.2332 0.389759 -1.69784 0
M  V30 628 C 62.3652 0.652698 -3.34593 0
M  V30 629 H 63.5582 -1.07146 -2.80107 0
M  V30 630 H 61.1112 -0.593291 -1.44602 0
M  V30 631 H 61.8462 1.49943 -2.87555 0
M  V30 632 H 61.6312 0.065292 -3.92046 0
M  V30 633 H 63.1212 1.04793 -4.04238 0
M  V30 634 N 63.5583 1.46682 -0.576371 0
M  V30 635 C 64.9693 1.86112 -0.148091 0
M  V30 636 C 65.3203 1.48073 1.2872 0
M  V30 637 O 64.4453 0.892656 1.97131 0
M  V30 638 C 65.0403 3.37786 -0.261982 0
M  V30 639 C 63.5993 3.76235 0.111384 0
M  V30 640 C 62.7463 2.70713 -0.60083 0
M  V30 641 H 65.6973 1.37927 -0.78497 0
M  V30 642 H 65.7183 3.77007 0.514364 0
M  V30 643 H 65.2303 3.6544 -1.30671 0
M  V30 644 H 63.3313 3.54198 1.15649 0
M  V30 645 H 63.4443 4.78391 -0.26052 0
M  V30 646 H 61.8083 2.54666 -0.0417783 0
M  V30 647 H 62.5913 3.01208 -1.64708 0
M  V30 648 N 65.0364 0.313813 1.54444 0
M  V30 649 C 66.2644 -0.293918 2.04802 0
M  V30 650 C 66.6794 -1.46537 1.19047 0
M  V30 651 O 66.0364 -1.81182 0.218939 0
M  V30 652 C 66.0874 -0.737806 3.53891 0
M  V30 653 O 65.8084 0.387038 4.36387 0
M  V30 654 C 67.3094 -1.40936 4.203 0
M  V30 655 H 64.5294 -0.0620057 0.668129 0
M  V30 656 H 67.0734 0.457169 1.99324 0
M  V30 657 H 65.2284 -1.43889 3.59687 0
M  V30 658 H 65.6424 0.0391274 5.24485 0
M  V30 659 H 67.1164 -1.67099 5.26101 0
M  V30 660 H 67.5934 -2.35355 3.70816 0
M  V30 661 H 68.1994 -0.751117 4.18615 0
M  V30 662 N 66.5145 -1.57545 0.0417849 0
M  V30 663 C 67.7615 -1.92317 -0.634082 0
M  V30 664 C 68.0895 -0.919334 -1.71402 0
M  V30 665 O 67.3445 0.0698253 -1.95575 0
M  V30 666 C 67.6435 -3.33794 -1.27735 0
M  V30 667 C 67.3095 -4.49716 -0.326543 0
M  V30 668 C 65.9715 -4.81156 -0.0648814 0
M  V30 669 C 68.3235 -5.20182 0.325623 0
M  V30 670 C 65.6515 -5.80414 0.856539 0
M  V30 671 C 68.0035 -6.20424 1.23518 0
M  V30 672 C 66.6675 -6.50298 1.5056 0
M  V30 673 H 65.9375 -0.703736 -0.232027 0
M  V30 674 H 68.5845 -1.91205 0.106259 0
M  V30 675 H 66.8895 -3.31228 -2.09274 0
M  V30 676 H 68.5865 -3.57975 -1.80707 0
M  V30 677 H 65.1765 -4.25176 -0.540665 0
M  V30 678 H 69.3605 -4.96112 0.136546 0
M  V30 679 H 64.6165 -6.019 1.07363 0
M  V30 680 H 68.7905 -6.74141 1.74664 0
M  V30 681 H 66.4175 -7.27025 2.22123 0
M  V30 682 N 67.9926 0.231505 -1.5589 0
M  V30 683 C 68.9226 1.29022 -1.94617 0
M  V30 684 C 69.9036 1.4941 -0.813067 0
M  V30 685 O 71.0886 1.6176 -1.07459 0
M  V30 686 C 68.2186 2.64199 -2.25424 0
M  V30 687 C 67.1726 2.58484 -3.41131 0
M  V30 688 C 66.4986 3.97599 -3.57518 0
M  V30 689 C 67.7986 2.1413 -4.76388 0
M  V30 690 H 69.4926 0.968563 -2.83301 0
M  V30 691 H 67.0386 0.464479 -1.36303 0
M  V30 692 H 68.9916 3.38413 -2.51107 0
M  V30 693 H 67.7156 2.98032 -1.33583 0
M  V30 694 H 66.3746 1.86727 -3.15481 0
M  V30 695 H 66.0226 4.28723 -2.6307 0
M  V30 696 H 65.7226 3.94659 -4.35337 0
M  V30 697 H 67.2466 4.7349 -3.85538 0
M  V30 698 H 68.6606 2.78083 -5.01341 0
M  V30 699 H 67.0576 2.2227 -5.57419 0
M  V30 700 H 68.1276 1.09331 -4.72414 0
M  V30 701 N 69.4707 1.49531 0.497807 0
M  V30 702 C 70.4207 1.62829 1.59596 0
M  V30 703 C 71.4047 0.483824 1.53453 0
M  V30 704 O 72.5967 0.736937 1.60929 0
M  V30 705 C 69.7257 1.7011 2.98191 0
M  V30 706 C 68.8117 2.90144 3.09317 0
M  V30 707 N 69.2027 4.1418 2.90324 0
M  V30 708 C 67.5007 2.88148 3.40422 0
M  V30 709 C 68.2017 4.94886 3.05717 0
M  V30 710 N 67.1777 4.28314 3.34736 0
M  V30 711 H 70.9797 2.56446 1.4357 0
M  V30 712 H 68.4937 1.46347 0.704001 0
M  V30 713 H 70.4907 1.77735 3.77115 0
M  V30 714 H 69.1507 0.776315 3.15283 0
M  V30 715 H 70.1617 4.44109 2.66436 0
M  V30 716 H 66.8387 2.05061 3.63671 0
M  V30 717 H 68.2287 6.03432 2.95499 0
M  V30 718 N 70.9488 -0.749086 1.3866 0
M  V30 719 C 72.1978 -1.50371 1.3443 0
M  V30 720 C 72.5108 -1.95503 -0.0616397 0
M  V30 721 O 73.7168 -2.70554 -0.226489 0
M  V30 722 C 72.1728 -2.71644 2.36088 0
M  V30 723 C 71.7808 -2.3352 3.82325 0
M  V30 724 C 73.5248 -3.49518 2.40909 0
M  V30 725 C 71.4318 -3.51431 4.75658 0
M  V30 726 H 70.3618 -0.564628 0.499712 0
M  V30 727 H 73.0128 -0.818449 1.64237 0
M  V30 728 H 71.3948 -3.42175 1.9933 0
M  V30 729 H 72.5688 -1.70627 4.28046 0
M  V30 730 H 70.8838 -1.6877 3.80665 0
M  V30 731 H 73.4808 -4.37197 3.07836 0
M  V30 732 H 73.8238 -3.90992 1.42937 0
M  V30 733 H 74.3568 -2.86005 2.76489 0
M  V30 734 H 71.0958 -3.15019 5.74842 0
M  V30 735 H 70.6158 -4.13352 4.34627 0
M  V30 736 H 72.2948 -4.17953 4.93887 0
M  V30 737 N 72.4269 -1.23603 -0.977757 0
M  V30 738 C 73.8379 -1.06424 -1.53398 0
M  V30 739 C 74.1889 0.367578 -1.92726 0
M  V30 740 O 73.3139 1.25465 -1.76316 0
M  V30 741 C 73.9089 -1.92568 -2.78753 0
M  V30 742 C 72.4679 -1.79642 -3.30765 0
M  V30 743 C 71.6149 -1.88111 -2.03739 0
M  V30 744 H 74.5659 -1.37227 -0.797152 0
M  V30 745 H 74.5869 -1.45203 -3.51705 0
M  V30 746 H 74.0989 -2.96771 -2.50098 0
M  V30 747 H 72.1999 -0.782325 -3.64294 0
M  V30 748 H 72.3129 -2.63174 -4.00345 0
M  V30 749 H 70.6769 -1.31723 -2.17994 0
M  V30 750 H 71.4599 -2.93875 -1.77461 0
M  V30 751 N 73.905 1.17692 -1.04816 0
M  V30 752 C 74.838 2.20436 -0.590173 0
M  V30 753 C 75.816 1.58115 0.379244 0
M  V30 754 O 77 1.86228 0.291762 0
M  V30 755 C 74.127 3.38424 0.136817 0
M  V30 756 C 73.173 4.19176 -0.787023 0
M  V30 757 S 74.006 4.84815 -2.27409 0
M  V30 758 C 75.162 6.06195 -1.55817 0
M  V30 759 H 75.395 2.58944 -1.46067 0
M  V30 760 H 72.928 1.28246 -0.859784 0
M  V30 761 H 74.886 4.06798 0.550076 0
M  V30 762 H 73.547 2.98312 0.983299 0
M  V30 763 H 72.74 5.03499 -0.224681 0
M  V30 764 H 72.342 3.56219 -1.13947 0
M  V30 765 H 74.634 6.72078 -0.855387 0
M  V30 766 H 75.577 6.6695 -2.37873 0
M  V30 767 H 75.985 5.54701 -1.04722 0
M  V30 768 N 75.3831 0.828654 1.34056 0
M  V30 769 C 76.6111 0.43262 2.02326 0
M  V30 770 C 77.0261 -0.963147 1.62385 0
M  V30 771 O 76.3831 -1.62425 0.832121 0
M  V30 772 C 76.4341 0.53182 3.57567 0
M  V30 773 O 76.1551 1.87258 3.96063 0
M  V30 774 C 77.6561 0.131422 4.43105 0
M  V30 775 H 74.8761 0.172923 0.648335 0
M  V30 776 H 77.4201 1.1184 1.71208 0
M  V30 777 H 75.5751 -0.105938 3.87255 0
M  V30 778 H 75.9891 1.85087 4.90758 0
M  V30 779 H 77.4631 0.251904 5.51425 0
M  V30 780 H 77.9401 -0.925645 4.29335 0
M  V30 781 H 78.5461 0.743207 4.18756 0
M  V30 782 N 76.8612 -1.46375 0.584142 0
M  V30 783 C 77.8082 -2.30323 -0.148286 0
M  V30 784 C 78.7782 -1.40703 -0.882713 0
M  V30 785 O 79.9632 -1.69651 -0.873099 0
M  V30 786 C 77.1032 -3.25196 -1.15507 0
M  V30 787 C 76.2162 -4.29915 -0.423943 0
M  V30 788 C 75.3512 -5.11914 -1.41838 0
M  V30 789 C 74.3902 -6.08381 -0.673736 0
M  V30 790 N 73.5272 -6.83242 -1.6163 0
M  V30 791 H 78.3672 -2.92427 0.573644 0
M  V30 792 H 75.9042 -1.44118 0.294703 0
M  V30 793 H 77.8622 -3.78646 -1.75166 0
M  V30 794 H 76.4922 -2.64898 -1.8447 0
M  V30 795 H 75.5442 -3.7931 0.287714 0
M  V30 796 H 76.8562 -4.98549 0.158128 0
M  V30 797 H 76.0102 -5.69648 -2.08773 0
M  V30 798 H 74.7492 -4.43243 -2.03438 0
M  V30 799 H 73.7542 -5.49799 0.00938483 0
M  V30 800 H 74.9792 -6.79071 -0.0631082 0
M  V30 801 H 72.9252 -6.1728 -2.22038 0
M  V30 802 H 72.8422 -7.48144 -1.08707 0
M  V30 803 H 74.1102 -7.45534 -2.27596 0
M  V30 804 N 78.3393 -0.321999 -1.54275 0
M  V30 805 C 79.3023 0.531975 -2.22941 0
M  V30 806 C 80.3023 1.04478 -1.22234 0
M  V30 807 O 81.4923 0.937452 -1.46825 0
M  V30 808 C 78.6243 1.73874 -2.93224 0
M  V30 809 H 79.8173 -0.0682612 -2.99822 0
M  V30 810 H 77.3703 -0.0730644 -1.56129 0
M  V30 811 H 78.1053 2.37825 -2.20476 0
M  V30 812 H 77.8903 1.37847 -3.6707 0
M  V30 813 H 79.3803 2.34496 -3.45545 0
M  V30 814 N 79.8174 1.5752 -0.0501392 0
M  V30 815 C 81.2334 1.56631 0.306402 0
M  V30 816 C 81.4334 1.0577 1.71508 0
M  V30 817 O 80.4894 0.713837 2.422 0
M  V30 818 C 81.8024 3.00393 0.135811 0
M  V30 819 C 83.3504 3.12315 0.206993 0
M  V30 820 C 83.8254 4.57954 0.064944 0
M  V30 821 N 85.3164 4.63041 0.121254 0
M  V30 822 C 86.0514 5.73389 0.0354381 0
M  V30 823 N 85.5474 6.92724 -0.102666 0
M  V30 824 N 87.3404 5.62026 0.090946 0
M  V30 825 H 79.4914 1.88903 -0.971046 0
M  V30 826 H 81.7544 0.869876 -0.376855 0
M  V30 827 H 81.4604 3.41635 -0.835384 0
M  V30 828 H 81.3344 3.66373 0.897275 0
M  V30 829 H 83.7214 2.70973 1.16866 0
M  V30 830 H 83.8024 2.49016 -0.585208 0
M  V30 831 H 83.4464 4.99981 -0.893394 0
M  V30 832 H 83.3764 5.19258 0.876277 0
M  V30 833 H 85.8674 3.77216 0.227284 0
M  V30 834 H 86.1804 7.72633 -0.160882 0
M  V30 835 H 84.5254 6.94864 -0.137737 0
M  V30 836 H 87.7164 4.67684 0.197388 0
M  V30 837 H 87.8894 6.47997 0.0206089 0
M  V30 838 N 81.2955 -0.223234 1.56011 0
M  V30 839 C 82.2255 -1.27988 1.95298 0
M  V30 840 C 83.2065 -1.48976 0.820979 0
M  V30 841 O 84.3915 -1.61188 1.08315 0
M  V30 842 C 81.5215 -2.63 2.26822 0
M  V30 843 C 80.4755 -2.56671 3.42497 0
M  V30 844 C 79.8015 -3.95697 3.59622 0
M  V30 845 C 81.1015 -2.11601 4.77517 0
M  V30 846 H 82.7955 -0.953525 2.8381 0
M  V30 847 H 80.3415 -0.457244 1.36548 0
M  V30 848 H 82.2945 -3.37077 2.52898 0
M  V30 849 H 81.0185 -2.9732 1.35161 0
M  V30 850 H 79.6775 -1.85051 3.16467 0
M  V30 851 H 79.3255 -4.27322 2.6534 0
M  V30 852 H 79.0255 -3.92345 4.37424 0
M  V30 853 H 80.5495 -4.71438 3.88044 0
M  V30 854 H 81.9635 -2.7542 5.02809 0
M  V30 855 H 80.3605 -2.19311 5.5859 0
M  V30 856 H 81.4305 -1.06824 4.72987 0
M  V30 857 N 82.7736 -1.49793 -0.48987 0
M  V30 858 C 84.0016 -1.63568 -1.26701 0
M  V30 859 C 84.4166 -0.311465 -1.86213 0
M  V30 860 O 83.7736 0.704416 -1.68357 0
M  V30 861 C 83.8246 -2.71284 -2.38929 0
M  V30 862 O 83.5456 -3.9857 -1.81861 0
M  V30 863 C 85.0466 -2.95864 -3.3012 0
M  V30 864 H 82.2666 -0.550342 -0.383881 0
M  V30 865 H 84.8106 -1.95898 -0.586864 0
M  V30 866 H 82.9656 -2.417 -3.02753 0
M  V30 867 H 83.3796 -4.57993 -2.55622 0
M  V30 868 H 84.8536 -3.74941 -4.05121 0
M  V30 869 H 85.3306 -2.06206 -3.87783 0
M  V30 870 H 85.9366 -3.26907 -2.72051 0
M  V30 871 N 84.2517 0.741722 -1.39055 0
M  V30 872 C 85.1997 1.87702 -1.3737 0
M  V30 873 C 86.1937 1.67427 -0.257812 0
M  V30 874 O 87.3997 1.7485 -0.427489 0
M  V30 875 H 83.7747 0.617757 -0.428812 0
M  V30 876 H 85.7457 1.86239 -2.33147 0
M  V30 877 C 84.4947 3.25315 -1.22741 0
M  V30 878 H 83.8177 3.41509 -2.07873 0
M  V30 879 H 85.2577 4.04964 -1.25618 0
M  V30 880 C 83.7167 3.36838 0.0647316 0
M  V30 881 O 84.2467 3.88073 1.03741 0
M  V30 882 N 82.4527 2.90329 0.125544 0
M  V30 883 H 81.9997 2.48823 -0.666682 0
M  V30 884 H 81.9577 2.98418 0.989639 0
M  V30 885 N 85.7298 1.2412 0.971189 0
M  V30 886 C 87.1408 1.07236 1.52831 0
M  V30 887 C 87.4918 -0.357352 1.92918 0
M  V30 888 O 86.6168 -1.24528 1.76979 0
M  V30 889 C 87.2118 1.94043 2.77728 0
M  V30 890 C 85.7708 1.81394 3.29808 0
M  V30 891 C 84.9178 1.89189 2.02738 0
M  V30 892 H 87.8688 1.37648 0.789864 0
M  V30 893 H 87.8898 1.47066 3.5093 0
M  V30 894 H 87.4018 2.98093 2.4852 0
M  V30 895 H 85.5028 0.801634 3.63874 0
M  V30 896 H 85.6158 2.65294 3.98944 0
M  V30 897 H 83.9798 1.32877 2.17292 0
M  V30 898 H 84.7628 2.94812 1.759 0
M  V30 899 N 87.2079 -1.17134 1.05439 0
M  V30 900 C 88.1549 -2.21235 0.657539 0
M  V30 901 C 89.1249 -1.62551 -0.341543 0
M  V30 902 O 90.3099 -1.89379 -0.232393 0
M  V30 903 C 87.4499 -3.45076 0.0410575 0
M  V30 904 C 86.5629 -4.18042 1.08927 0
M  V30 905 C 85.6979 -5.29376 0.439848 0
M  V30 906 C 84.7369 -5.94132 1.4722 0
M  V30 907 N 83.8739 -6.96975 0.846756 0
M  V30 908 H 88.7139 -2.54534 1.54972 0
M  V30 909 H 86.2509 -1.25028 0.775006 0
M  V30 910 H 88.2089 -4.15862 -0.33383 0
M  V30 911 H 86.8389 -3.12353 -0.814568 0
M  V30 912 H 85.8909 -3.45945 1.58196 0
M  V30 913 H 87.2029 -4.62306 1.87282 0
M  V30 914 H 86.3569 -6.06699 0.0115125 0
M  V30 915 H 85.0959 -4.86251 -0.375656 0
M  V30 916 H 84.1009 -5.15538 1.91052 0
M  V30 917 H 85.3259 -6.39337 2.28965 0
M  V30 918 H 83.2719 -6.5598 0.0518075 0
M  V30 919 H 83.1889 -7.39565 1.5678 0
M  V30 920 H 84.4569 -7.78239 0.443277 0
M  V30 921 N 88.686 -0.835752 -1.33615 0
M  V30 922 C 89.933 -0.429959 -1.97883 0
M  V30 923 C 90.261 1.01006 -1.66217 0
M  V30 924 O 89.516 1.72047 -0.93265 0
M  V30 925 C 89.815 -0.593925 -3.52431 0
M  V30 926 C 89.481 -2.00158 -4.04039 0
M  V30 927 C 88.143 -2.38662 -4.17844 0
M  V30 928 C 90.495 -2.92117 -4.31644 0
M  V30 929 C 87.823 -3.68435 -4.56588 0
M  V30 930 C 90.175 -4.21368 -4.71838 0
M  V30 931 C 88.839 -4.59833 -4.83849 0
M  V30 932 H 88.109 -0.157333 -0.724104 0
M  V30 933 H 90.756 -1.06217 -1.59343 0
M  V30 934 H 89.061 0.121619 -3.91611 0
M  V30 935 H 90.758 -0.260282 -4.00154 0
M  V30 936 H 87.348 -1.69252 -3.93766 0
M  V30 937 H 91.532 -2.63608 -4.20505 0
M  V30 938 H 86.788 -3.98046 -4.64079 0
M  V30 939 H 90.962 -4.92703 -4.92155 0
M  V30 940 H 88.589 -5.60438 -5.13627 0
M  V30 941 N 90.1641 1.46063 -0.591896 0
M  V30 942 C 91.0961 2.28539 0.174001 0
M  V30 943 C 92.1091 1.39047 0.846753 0
M  V30 944 O 93.2981 1.63564 0.714774 0
M  V30 945 C 90.3981 3.14347 1.26645 0
M  V30 946 C 89.5711 4.32021 0.683856 0
M  V30 947 C 88.6301 4.99157 1.66518 0
M  V30 948 O 87.6561 5.56458 1.19763 0
M  V30 949 N 88.8581 4.97005 2.99943 0
M  V30 950 H 91.6231 2.94911 -0.533633 0
M  V30 951 H 89.1841 1.56077 -0.430294 0
M  V30 952 H 91.1761 3.56125 1.92242 0
M  V30 953 H 89.7461 2.49988 1.87682 0
M  V30 954 H 88.9661 3.93915 -0.1498 0
M  V30 955 H 90.2541 5.08059 0.274567 0
M  V30 956 H 89.6521 4.51714 3.40545 0
M  V30 957 H 88.2091 5.42696 3.61004 0
M  V30 958 N 91.6422 0.330177 1.54103 0
M  V30 959 C 92.8912 -0.271336 1.99867 0
M  V30 960 C 93.2042 -1.52723 1.22209 0
M  V30 961 O 94.4102 -2.20515 1.58383 0
M  V30 962 C 92.8662 -0.534032 3.55916 0
M  V30 963 C 92.4742 0.705193 4.42415 0
M  V30 964 C 94.2182 -1.09514 4.1013 0
M  V30 965 C 92.1252 0.414035 5.89949 0
M  V30 966 H 91.0552 -0.105166 0.74663 0
M  V30 967 H 93.7062 0.443429 1.78062 0
M  V30 968 H 92.0882 -1.30915 3.73734 0
M  V30 969 H 93.2622 1.4804 4.36372 0
M  V30 970 H 91.5772 1.18698 3.99124 0
M  V30 971 H 94.1742 -1.3277 5.17954 0
M  V30 972 H 94.5172 -2.04656 3.62521 0
M  V30 973 H 95.0502 -0.381038 3.95971 0
M  V30 974 H 91.7892 1.33481 6.41766 0
M  V30 975 H 91.3092 -0.323336 5.98928 0
M  V30 976 H 92.9882 0.0263105 6.46995 0
M  V30 977 N 93.1203 -1.57491 0.0584922 0
M  V30 978 C 94.0833 -2.1085 -0.898617 0
M  V30 979 C 95.0833 -1.02964 -1.23511 0
M  V30 980 O 96.2733 -1.29007 -1.17059 0
M  V30 981 C 93.4053 -2.59881 -2.20623 0
M  V30 982 H 94.5983 -2.96715 -0.435936 0
M  V30 983 H 92.1513 -1.55141 -0.190023 0
M  V30 984 H 92.8863 -1.77431 -2.71457 0
M  V30 985 H 92.6713 -3.38727 -1.97501 0
M  V30 986 H 94.1613 -3.01285 -2.89166 0
M  V30 987 N 94.5984 0.214957 -1.56127 0
M  V30 988 C 95.5614 1.24997 -1.92116 0
M  V30 989 C 96.5614 1.39467 -0.800344 0
M  V30 990 O 97.7514 1.37619 -1.06802 0
M  V30 991 C 94.8834 2.62271 -2.17777 0
M  V30 992 H 96.0764 0.942875 -2.84693 0
M  V30 993 H 93.6294 0.455654 -1.49511 0
M  V30 994 H 94.3644 2.98068 -1.27773 0
M  V30 995 H 94.1494 2.53143 -2.99434 0
M  V30 996 H 95.6394 3.36946 -2.46693 0
M  V30 997 N 96.0765 1.50051 0.48192 0
M  V30 998 C 97.0085 1.64263 1.59844 0
M  V30 999 C 98.0215 0.52451 1.54119 0
M  V30 1000 O 99.2105 0.797293 1.59704 0
M  V30 1001 C 96.3105 1.60102 2.98698 0
M  V30 1002 C 95.4835 2.87767 3.29407 0
M  V30 1003 C 94.5425 2.76397 4.47762 0
M  V30 1004 O 93.5685 3.50348 4.48603 0
M  V30 1005 N 94.7705 1.89222 5.48794 0
M  V30 1006 H 97.5355 2.60566 1.48073 0
M  V30 1007 H 95.0965 1.47379 0.670149 0
M  V30 1008 H 97.0885 1.50123 3.75826 0
M  V30 1009 H 95.6585 0.715798 3.04294 0
M  V30 1010 H 94.8785 3.11954 2.40994 0
M  V30 1011 H 96.1665 3.72365 3.4673 0
M  V30 1012 H 95.5645 1.28434 5.50928 0
M  V30 1013 H 94.1215 1.85154 6.24949 0
M  V30 1014 N 97.5546 -0.734337 1.39446 0
M  V30 1015 C 98.5026 -1.86971 1.38364 0
M  V30 1016 C 99.4966 -1.67288 0.266687 0
M  V30 1017 O 100.703 -1.74621 0.436755 0
M  V30 1018 H 97.0776 -0.615474 0.432082 0
M  V30 1019 H 99.0486 -1.85 2.34132 0
M  V30 1020 C 97.7976 -3.2466 1.24465 0
M  V30 1021 H 97.1206 -3.40402 2.09682 0
M  V30 1022 H 98.5606 -4.04292 1.27764 0
M  V30 1023 C 97.0196 -3.36867 -0.0468674 0
M  V30 1024 O 97.5496 -3.88618 -1.01681 0
M  V30 1025 N 95.7556 -2.90391 -0.110145 0
M  V30 1026 H 95.3026 -2.48466 0.679868 0
M  V30 1027 H 95.2606 -2.98939 -0.973799 0
M  V30 1028 N 99.0327 -1.24633 -0.964593 0
M  V30 1029 C 99.9957 -1.0424 -2.04124 0
M  V30 1030 C 100.996 0.00137563 -1.608 0
M  V30 1031 O 102.186 -0.239883 -1.7254 0
M  V30 1032 C 99.3177 -0.580588 -3.3592 0
M  V30 1033 H 100.511 -1.99803 -2.23649 0
M  V30 1034 H 98.0637 -1.06899 -1.14027 0
M  V30 1035 H 98.7987 0.3781 -3.22088 0
M  V30 1036 H 98.5837 -1.33398 -3.6871 0
M  V30 1037 H 100.074 -0.459034 -4.15069 0
M  V30 1038 N 100.511 1.16574 -1.06058 0
M  V30 1039 C 101.76 1.86385 -0.770944 0
M  V30 1040 C 102.073 1.82448 0.705129 0
M  V30 1041 O 103.279 2.47815 1.10905 0
M  V30 1042 C 101.735 3.34466 -1.32893 0
M  V30 1043 C 101.343 3.46883 -2.83507 0
M  V30 1044 C 103.087 4.09548 -1.11672 0
M  V30 1045 C 100.994 4.89036 -3.32562 0
M  V30 1046 H 99.9238 0.698181 -0.284709 0
M  V30 1047 H 102.575 1.31583 -1.27899 0
M  V30 1048 H 100.957 3.88859 -0.748662 0
M  V30 1049 H 102.131 3.02663 -3.47465 0
M  V30 1050 H 100.446 2.85232 -3.03368 0
M  V30 1051 H 103.043 5.14434 -1.45814 0
M  V30 1052 H 103.386 4.16264 -0.0549535 0
M  V30 1053 H 103.919 3.61387 -1.66265 0
M  V30 1054 H 100.658 4.87499 -4.38207 0
M  V30 1055 H 100.178 5.3389 -2.73351 0
M  V30 1056 H 101.857 5.57843 -3.2775 0
M  V30 1057 N 101.989 0.842826 1.3317 0
M  V30 1058 C 103.217 0.454055 2.01856 0
M  V30 1059 C 103.632 -0.94587 1.63397 0
M  V30 1060 O 102.989 -1.61534 0.849302 0
M  V30 1061 C 103.04 0.569715 3.56982 0
M  V30 1062 O 102.761 1.91448 3.94055 0
M  V30 1063 C 104.262 0.178412 4.42941 0
M  V30 1064 H 101.482 0.17979 0.646465 0
M  V30 1065 H 104.026 1.1365 1.70012 0
M  V30 1066 H 102.181 -0.0648587 3.87346 0
M  V30 1067 H 102.595 1.90282 4.88767 0
M  V30 1068 H 104.069 0.310376 5.51127 0
M  V30 1069 H 104.546 -0.880056 4.30293 0
M  V30 1070 H 105.152 0.787579 4.17944 0
M  V30 1071 N 103.467 -1.45747 0.599634 0
M  V30 1072 C 104.883 -1.57424 0.26264 0
M  V30 1073 C 105.083 -1.59222 -1.23493 0
M  V30 1074 O 104.139 -1.51825 -2.01756 0
M  V30 1075 C 105.452 -2.86061 0.926795 0
M  V30 1076 C 107 -2.99722 0.901967 0
M  V30 1077 C 107.475 -4.31119 1.54598 0
M  V30 1078 N 108.966 -4.37858 1.5111 0
M  V30 1079 C 109.701 -5.3818 1.97863 0
M  V30 1080 N 109.197 -6.45083 2.52666 0
M  V30 1081 N 110.99 -5.29487 1.88679 0
M  V30 1082 H 103.141 -1.42823 1.57211 0
M  V30 1083 H 105.404 -0.68235 0.658105 0
M  V30 1084 H 105.11 -2.90605 1.98095 0
M  V30 1085 H 104.984 -3.74563 0.445238 0
M  V30 1086 H 107.371 -2.9475 -0.143617 0
M  V30 1087 H 107.452 -2.12652 1.42171 0
M  V30 1088 H 107.096 -4.36849 2.59085 0
M  V30 1089 H 107.026 -5.16992 1.00132 0
M  V30 1090 H 109.517 -3.61209 1.11068 0
M  V30 1091 H 109.83 -7.17869 2.86155 0
M  V30 1092 H 108.175 -6.45856 2.56701 0
M  V30 1093 H 111.366 -4.44877 1.4561 0
M  V30 1094 H 111.539 -6.07524 2.25429 0
M  V30 1095 N 104.945 -0.338344 -1.53925 0
M  V30 1096 C 106.17 0.263987 -2.05713 0
M  V30 1097 C 106.595 1.43847 -1.21201 0
M  V30 1098 O 105.953 1.79904 -0.224535 0
M  V30 1099 C 106.001 0.662 -3.54471 0
M  V30 1100 O 105.105 1.76265 -3.72833 0
M  V30 1101 H 104.446 0.0448722 -0.662482 0
M  V30 1102 H 106.976 -0.491048 -1.9862 0
M  V30 1103 H 106.986 0.940594 -3.9701 0
M  V30 1104 H 105.661 -0.196937 -4.15433 0
M  V30 1105 H 104.238 1.48173 -3.42198 0
M  V30 1106 N 106.423 1.57458 -0.0668435 0
M  V30 1107 C 107.671 1.92919 0.602214 0
M  V30 1108 C 107.992 0.947215 1.70449 0
M  V30 1109 O 107.262 -0.00544117 1.95899 0
M  V30 1110 H 105.842 0.71217 0.22544 0
M  V30 1111 H 108.504 1.94508 -0.123535 0
M  V30 1112 H 107.6 2.94589 1.03073 0
M  V30 1113 N 107.901 -0.206675 1.56239 0
M  V30 1114 C 108.864 -1.23976 1.92776 0
M  V30 1115 C 109.864 -1.39041 0.807729 0
M  V30 1116 O 111.054 -1.37051 1.0753 0
M  V30 1117 C 108.186 -2.61112 2.19165 0
M  V30 1118 H 109.379 -0.927764 2.85189 0
M  V30 1119 H 106.932 -0.447718 1.4975 0
M  V30 1120 H 107.667 -2.97386 1.29352 0
M  V30 1121 H 107.452 -2.51552 3.00772 0
M  V30 1122 H 108.942 -3.35633 2.48476 0
M  V30 1123 N 109.379 -1.50304 -0.473955 0
M  V30 1124 C 110.626 -1.6115 -1.22625 0
M  V30 1125 C 110.954 -0.310517 -1.92005 0
M  V30 1126 O 110.209 0.703419 -1.82621 0
M  V30 1127 C 110.508 -2.73938 -2.29549 0
M  V30 1128 C 110.174 -4.14519 -1.7744 0
M  V30 1129 C 108.836 -4.5277 -1.62949 0
M  V30 1130 C 111.188 -5.02392 -1.3875 0
M  V30 1131 C 108.516 -5.76639 -1.08187 0
M  V30 1132 C 110.868 -6.26805 -0.854309 0
M  V30 1133 C 109.532 -6.63861 -0.696011 0
M  V30 1134 H 108.802 -0.589691 -0.448715 0
M  V30 1135 H 111.449 -1.84228 -0.522705 0
M  V30 1136 H 109.754 -2.44937 -3.05799 0
M  V30 1137 H 111.451 -2.79534 -2.87509 0
M  V30 1138 H 108.041 -3.8434 -1.89685 0
M  V30 1139 H 112.225 -4.73474 -1.4878 0
M  V30 1140 H 107.481 -6.04027 -0.946666 0
M  V30 1141 H 111.655 -6.94258 -0.545843 0
M  V30 1142 H 109.282 -7.59722 -0.26952 0
M  V30 1143 N 110.857 0.726932 -1.39834 0
M  V30 1144 C 112.085 1.51613 -1.40787 0
M  V30 1145 C 112.5 1.88799 -0.00451505 0
M  V30 1146 O 111.857 1.54662 0.968809 0
M  V30 1147 C 111.908 2.79863 -2.28821 0
M  V30 1148 O 111.629 2.44253 -3.63692 0
M  V30 1149 C 113.13 3.73837 -2.38245 0
M  V30 1150 H 110.35 0.468264 -0.480593 0
M  V30 1151 H 112.894 0.897607 -1.83748 0
M  V30 1152 H 111.049 3.38027 -1.89252 0
M  V30 1153 H 111.463 3.26695 -4.1033 0
M  V30 1154 H 112.937 4.60699 -3.04073 0
M  V30 1155 H 113.414 4.16153 -1.40403 0
M  V30 1156 H 114.02 3.21589 -2.78317 0
M  V30 1157 N 112.336 1.25143 0.95797 0
M  V30 1158 C 113.584 1.09476 1.69881 0
M  V30 1159 C 113.905 -0.365502 1.91544 0
M  V30 1160 O 113.175 -1.25985 1.50015 0
M  V30 1161 H 111.755 0.402128 0.629525 0
M  V30 1162 H 114.417 1.57214 1.15194 0
M  V30 1163 H 113.513 1.60046 2.6794 0
M  V30 1164 N 113.814 -1.1601 1.06675 0
M  V30 1165 C 114.724 -2.24156 0.692179 0
M  V30 1166 C 115.74 -1.71507 -0.293513 0
M  V30 1167 O 116.916 -2.009 -0.141861 0
M  V30 1168 C 113.981 -3.46587 0.0884131 0
M  V30 1169 C 113.042 -4.14257 1.12646 0
M  V30 1170 C 112.275 -5.30844 0.551416 0
M  V30 1171 O 112.498 -5.66858 -0.634656 0
M  V30 1172 O 111.432 -5.87848 1.29298 0
M  V30 1173 H 115.258 -2.58513 1.59388 0
M  V30 1174 H 112.843 -1.23599 0.83926 0
M  V30 1175 H 114.725 -4.20679 -0.246361 0
M  V30 1176 H 113.4 -3.13994 -0.786712 0
M  V30 1177 H 112.307 -3.42118 1.51348 0
M  V30 1178 H 113.64 -4.50914 1.97325 0
M  V30 1179 N 115.292 -0.849877 -1.32721 0
M  V30 1180 C 116.538 -0.451591 -1.97708 0
M  V30 1181 C 116.871 0.989175 -1.6712 0
M  V30 1182 O 116.146 1.69334 -0.956891 0
M  V30 1183 C 116.429 -0.685598 -3.53513 0
M  V30 1184 C 116.282 -2.17444 -3.93749 0
M  V30 1185 C 117.601 -0.138874 -4.39881 0
M  V30 1186 H 114.72 -0.16555 -0.718166 0
M  V30 1187 H 117.362 -1.06742 -1.57182 0
M  V30 1188 H 115.512 -0.161416 -3.88165 0
M  V30 1189 H 117.184 -2.76433 -3.693 0
M  V30 1190 H 115.427 -2.65476 -3.43081 0
M  V30 1191 H 116.098 -2.28888 -5.02309 0
M  V30 1192 H 118.574 -0.587068 -4.11938 0
M  V30 1193 H 117.45 -0.332213 -5.47894 0
M  V30 1194 H 117.711 0.95806 -4.31594 0
M  V30 1195 N 116.77 1.45427 -0.607355 0
M  V30 1196 C 117.995 2.07124 -0.107006 0
M  V30 1197 C 118.42 1.44906 1.19933 0
M  V30 1198 O 117.778 0.541687 1.73019 0
M  V30 1199 C 117.826 3.60595 0.0194119 0
M  V30 1200 O 116.93 3.98285 1.0697 0
M  V30 1201 H 116.271 0.659868 -0.0739597 0
M  V30 1202 H 118.801 1.86683 -0.837297 0
M  V30 1203 H 118.811 4.07419 0.2177 0
M  V30 1204 H 117.486 4.05266 -0.934453 0
M  V30 1205 H 116.063 3.63133 0.847889 0
M  V30 1206 N 118.248 0.346503 1.53744 0
M  V30 1207 C 119.178 -0.501193 2.28058 0
M  V30 1208 C 120.159 -1.10014 1.29734 0
M  V30 1209 O 121.344 -1.12097 1.58581 0
M  V30 1210 C 118.474 -1.65078 3.05559 0
M  V30 1211 C 117.428 -1.18003 4.11411 0
M  V30 1212 C 116.754 -2.41837 4.76884 0
M  V30 1213 C 118.054 -0.278394 5.21558 0
M  V30 1214 H 119.748 0.11875 2.99164 0
M  V30 1215 H 117.294 0.0585531 1.43881 0
M  V30 1216 H 119.247 -2.25028 3.56287 0
M  V30 1217 H 117.971 -2.29767 2.32109 0
M  V30 1218 H 116.63 -0.603331 3.61601 0
M  V30 1219 H 116.278 -3.0494 4.00026 0
M  V30 1220 H 115.978 -2.1102 5.48402 0
M  V30 1221 H 117.502 -3.02508 5.30397 0
M  V30 1222 H 118.916 -0.784823 5.67903 0
M  V30 1223 H 117.313 -0.0619707 6.00068 0
M  V30 1224 H 118.383 0.684677 4.80042 0
M  V30 1225 N 119.726 -1.57421 0.075193 0
M  V30 1226 C 120.658 -2.09904 -0.920483 0
M  V30 1227 C 121.671 -1.03191 -1.25918 0
M  V30 1228 O 122.86 -1.30695 -1.21577 0
M  V30 1229 C 119.96 -2.54726 -2.23534 0
M  V30 1230 C 119.133 -3.8505 -2.07498 0
M  V30 1231 C 118.192 -4.15929 -3.22319 0
M  V30 1232 O 117.218 -4.85474 -2.9716 0
M  V30 1233 N 118.42 -3.69745 -4.47514 0
M  V30 1234 H 121.185 -2.95954 -0.472359 0
M  V30 1235 H 118.746 -1.61523 -0.110444 0
M  V30 1236 H 120.738 -2.72443 -2.9926 0
M  V30 1237 H 119.308 -1.73795 -2.59835 0
M  V30 1238 H 118.528 -3.76679 -1.16219 0
M  V30 1239 H 119.816 -4.70348 -1.94038 0
M  V30 1240 H 119.214 -3.13569 -4.7084 0
M  V30 1241 H 117.771 -3.92655 -5.20255 0
M  V30 1242 N 121.204 0.198386 -1.56346 0
M  V30 1243 C 122.453 0.917451 -1.79627 0
M  V30 1244 C 122.766 1.8456 -0.64784 0
M  V30 1245 O 123.972 2.60504 -0.764859 0
M  V30 1246 C 122.428 1.68175 -3.18191 0
M  V30 1247 C 122.036 0.798589 -4.40825 0
M  V30 1248 C 123.78 2.39065 -3.50782 0
M  V30 1249 C 121.687 1.56157 -5.70411 0
M  V30 1250 H 120.617 0.346317 -0.669762 0
M  V30 1251 H 123.268 0.170801 -1.82703 0
M  V30 1252 H 121.65 2.47216 -3.09354 0
M  V30 1253 H 122.824 0.0470665 -4.60776 0
M  V30 1254 H 121.139 0.200686 -4.15916 0
M  V30 1255 H 123.736 2.96692 -4.44835 0
M  V30 1256 H 124.079 3.13091 -2.74371 0
M  V30 1257 H 124.612 1.66993 -3.61052 0
M  V30 1258 H 121.351 0.864142 -6.49779 0
M  V30 1259 H 120.871 2.2871 -5.54483 0
M  V30 1260 H 122.55 2.11622 -6.11412 0
M  V30 1261 N 122.682 1.50554 0.465978 0
M  V30 1262 C 123.612 1.72722 1.57128 0
M  V30 1263 C 124.593 0.576294 1.6004 0
M  V30 1264 O 125.778 0.81598 1.76225 0
M  V30 1265 C 122.908 1.82605 2.95419 0
M  V30 1266 C 121.862 2.97835 3.07373 0
M  V30 1267 C 121.188 2.92867 4.47363 0
M  V30 1268 C 122.488 4.38265 2.84114 0
M  V30 1269 H 124.182 2.65267 1.38829 0
M  V30 1270 H 121.728 1.2765 0.666441 0
M  V30 1271 H 123.681 1.96698 3.72677 0
M  V30 1272 H 122.405 0.866858 3.14886 0
M  V30 1273 H 121.064 2.83401 2.3255 0
M  V30 1274 H 120.712 1.94783 4.63755 0
M  V30 1275 H 120.412 3.70227 4.56296 0
M  V30 1276 H 121.936 3.09015 5.26633 0
M  V30 1277 H 123.35 4.53198 3.51118 0
M  V30 1278 H 121.747 5.17115 3.04487 0
M  V30 1279 H 122.817 4.50281 1.7993 0
M  V30 1280 N 124.16 -0.719506 1.40217 0
M  V30 1281 C 125.107 -1.83359 1.40172 0
M  V30 1282 C 126.077 -1.64065 0.259206 0
M  V30 1283 O 127.262 -1.85254 0.456677 0
M  V30 1284 C 124.402 -3.2103 1.26624 0
M  V30 1285 C 123.515 -3.51923 2.50548 0
M  V30 1286 C 122.65 -4.79079 2.29471 0
M  V30 1287 C 121.689 -5.02863 3.48992 0
M  V30 1288 N 120.826 -6.2123 3.27135 0
M  V30 1289 H 125.666 -1.82733 2.35399 0
M  V30 1290 H 123.203 -0.892688 1.16917 0
M  V30 1291 H 125.161 -4.00524 1.16776 0
M  V30 1292 H 123.791 -3.20895 0.350176 0
M  V30 1293 H 122.843 -2.67014 2.70939 0
M  V30 1294 H 124.155 -3.6541 3.39525 0
M  V30 1295 H 123.309 -5.66582 2.16955 0
M  V30 1296 H 122.048 -4.67794 1.37913 0
M  V30 1297 H 121.053 -4.13816 3.6199 0
M  V30 1298 H 122.278 -5.16023 4.41472 0
M  V30 1299 H 120.224 -6.11204 2.38256 0
M  V30 1300 H 120.141 -6.35375 4.09675 0
M  V30 1301 H 121.409 -7.11532 3.18344 0
M  V30 1302 N 125.638 -1.25649 -0.95132 0
M  V30 1303 C 126.915 -1.01361 -1.67288 0
M  V30 1304 C 127.295 0.459135 -2.06046 0
M  V30 1305 O 126.643 1.43723 -1.7764 0
M  V30 1306 C 126.853 -1.95256 -2.89268 0
M  V30 1307 C 128.201 -2.23289 -3.61147 0
M  V30 1308 O 129.225 -1.93041 -2.99355 0
M  V30 1309 O 128.084 -2.74741 -4.72419 0
M  V30 1310 H 125.178 -0.38464 -0.732107 0
M  V30 1311 H 127.724 -1.36817 -1.00395 0
M  V30 1312 H 126.496 -2.94685 -2.57442 0
M  V30 1313 H 126.119 -1.60218 -3.6389 0
M  V30 1314 N 127.117 1.15442 -1.07289 0
M  V30 1315 C 128.347 1.89821 -0.815576 0
M  V30 1316 C 128.755 1.7823 0.634867 0
M  V30 1317 O 128.098 1.13152 1.44715 0
M  V30 1318 C 128.16 3.40817 -1.14385 0
M  V30 1319 C 127.824 3.76193 -2.59476 0
M  V30 1320 C 128.821 3.77269 -3.57721 0
M  V30 1321 C 126.506 4.0652 -2.95037 0
M  V30 1322 C 128.5 4.08176 -4.89562 0
M  V30 1323 C 126.187 4.37092 -4.27076 0
M  V30 1324 C 127.185 4.37902 -5.24148 0
M  V30 1325 O 126.873 4.67741 -6.53815 0
M  V30 1326 H 126.605 0.608465 -0.294528 0
M  V30 1327 H 129.159 1.472 -1.43252 0
M  V30 1328 H 127.389 3.83835 -0.469865 0
M  V30 1329 H 129.078 3.96485 -0.869179 0
M  V30 1330 H 129.844 3.5394 -3.3159 0
M  V30 1331 H 125.723 4.05049 -2.20128 0
M  V30 1332 H 129.267 4.08723 -5.65324 0
M  V30 1333 H 125.164 4.59889 -4.5296 0
M  V30 1334 H 125.932 4.85509 -6.58957 0
M  V30 1335 N 128.595 0.856903 1.32268 0
M  V30 1336 C 129.843 0.460474 1.96784 0
M  V30 1337 C 130.164 -0.987701 1.68135 0
M  V30 1338 O 129.434 -1.69058 0.989765 0
M  V30 1339 H 128.014 0.167289 0.728027 0
M  V30 1340 H 130.676 1.09383 1.61312 0
M  V30 1341 H 129.772 0.60739 3.06133 0
M  V30 1342 N 130.073 -1.45103 0.615059 0
M  V30 1343 C 131.322 -2.01396 0.110718 0
M  V30 1344 C 131.635 -1.48834 -1.26916 0
M  V30 1345 O 132.841 -1.97152 -1.86664 0
M  V30 1346 C 131.297 -3.59599 0.14723 0
M  V30 1347 C 130.905 -4.21158 1.52743 0
M  V30 1348 C 132.649 -4.23428 -0.30148 0
M  V30 1349 C 130.556 -5.71535 1.51992 0
M  V30 1350 H 129.486 -0.753061 0.0376241 0
M  V30 1351 H 132.137 -1.66494 0.77149 0
M  V30 1352 H 130.519 -3.91724 -0.580339 0
M  V30 1353 H 131.693 -4.00594 2.2773 0
M  V30 1354 H 130.008 -3.69552 1.91886 0
M  V30 1355 H 132.605 -5.33703 -0.326392 0
M  V30 1356 H 132.948 -3.94629 -1.32565 0
M  V30 1357 H 133.481 -3.96047 0.373065 0
M  V30 1358 H 130.22 -6.05044 2.52193 0
M  V30 1359 H 129.74 -5.94268 0.81274 0
M  V30 1360 H 131.419 -6.34873 1.24681 0
M  V30 1361 N 131.551 -0.354651 -1.53558 0
M  V30 1362 C 132.776 0.242153 -2.05981 0
M  V30 1363 C 133.201 1.42553 -1.2272 0
M  V30 1364 O 132.559 1.79656 -0.243604 0
M  V30 1365 C 132.607 0.624367 -3.55154 0
M  V30 1366 O 131.711 1.72301 -3.74681 0
M  V30 1367 H 131.052 0.0378432 -0.662921 0
M  V30 1368 H 133.582 -0.512087 -1.98088 0
M  V30 1369 H 133.592 0.898433 -3.97985 0
M  V30 1370 H 132.267 -0.240989 -4.15201 0
M  V30 1371 H 130.844 1.44535 -3.4375 0
M  V30 1372 N 133.029 1.57378 -0.0835403 0
M  V30 1373 C 134.275 1.95025 0.577664 0
M  V30 1374 C 134.63 0.964049 1.66505 0
M  V30 1375 O 133.923 -0.0118235 1.91596 0
M  V30 1376 C 134.117 3.37063 1.1884 0
M  V30 1377 C 133.946 4.49409 0.16171 0
M  V30 1378 C 132.716 5.04642 -0.257756 0
M  V30 1379 C 134.914 5.10722 -0.605634 0
M  V30 1380 N 132.896 6.00537 -1.27393 0
M  V30 1381 C 134.267 6.02225 -1.47395 0
M  V30 1382 C 136.322 4.93501 -0.660418 0
M  V30 1383 C 135.025 6.78355 -2.39221 0
M  V30 1384 C 137.051 5.70283 -1.56623 0
M  V30 1385 C 136.413 6.61444 -2.4222 0
M  V30 1386 H 132.512 0.760512 0.182058 0
M  V30 1387 H 135.096 1.94013 -0.163419 0
M  V30 1388 H 133.267 3.3879 1.89936 0
M  V30 1389 H 134.999 3.61917 1.81103 0
M  V30 1390 H 131.754 4.73428 0.127702 0
M  V30 1391 H 132.178 6.53184 -1.77987 0
M  V30 1392 H 136.82 4.22798 -0.0128221 0
M  V30 1393 H 134.538 7.48327 -3.05011 0
M  V30 1394 H 138.124 5.58976 -1.61361 0
M  V30 1395 H 137.004 7.1982 -3.11174 0
M  V30 1396 N 134.507 -0.190092 1.56449 0
M  V30 1397 C 135.753 -0.911052 1.81184 0
M  V30 1398 C 136.086 -1.82699 0.658396 0
M  V30 1399 O 135.361 -1.91491 -0.340775 0
M  V30 1400 C 135.644 -1.72297 3.16205 0
M  V30 1401 C 135.497 -0.831419 4.42049 0
M  V30 1402 C 136.816 -2.69454 3.47969 0
M  V30 1403 H 133.935 -0.32977 0.659106 0
M  V30 1404 H 136.577 -0.178169 1.89163 0
M  V30 1405 H 134.727 -2.34778 3.09534 0
M  V30 1406 H 136.399 -0.220929 4.60771 0
M  V30 1407 H 134.642 -0.138406 4.33579 0
M  V30 1408 H 135.313 -1.43461 5.33032 0
M  V30 1409 H 137.789 -2.17104 3.54972 0
M  V30 1410 H 136.665 -3.23342 4.43555 0
M  V30 1411 H 136.926 -3.48744 2.71717 0
M  V30 1412 N 135.985 -1.50799 -0.457987 0
M  V30 1413 C 137.231 -1.62683 -1.21088 0
M  V30 1414 C 137.564 -0.332268 -1.91336 0
M  V30 1415 O 136.839 0.667043 -1.82704 0
M  V30 1416 C 137.122 -2.81615 -2.24422 0
M  V30 1417 C 136.975 -4.20989 -1.58392 0
M  V30 1418 C 138.294 -2.96085 -3.2561 0
M  V30 1419 H 135.413 -0.592087 -0.438864 0
M  V30 1420 H 138.055 -1.83225 -0.50286 0
M  V30 1421 H 136.205 -2.64231 -2.84806 0
M  V30 1422 H 137.877 -4.49994 -1.01504 0
M  V30 1423 H 136.12 -4.24641 -0.886704 0
M  V30 1424 H 136.791 -5.0016 -2.33547 0
M  V30 1425 H 139.267 -3.12042 -2.75262 0
M  V30 1426 H 138.143 -3.80902 -3.95228 0
M  V30 1427 H 138.404 -2.0726 -3.90507 0
M  V30 1428 N 137.463 0.71206 -1.40597 0
M  V30 1429 C 138.393 1.83889 -1.43899 0
M  V30 1430 C 139.374 1.67442 -0.299504 0
M  V30 1431 O 140.559 1.87421 -0.508624 0
M  V30 1432 C 137.689 3.21877 -1.30431 0
M  V30 1433 C 136.643 3.53002 -2.42019 0
M  V30 1434 C 135.969 4.90172 -2.13626 0
M  V30 1435 C 137.269 3.53643 -3.84362 0
M  V30 1436 H 138.963 1.81383 -2.38203 0
M  V30 1437 H 136.509 0.871237 -1.14654 0
M  V30 1438 H 138.462 4.00404 -1.31357 0
M  V30 1439 H 137.186 3.24968 -0.326049 0
M  V30 1440 H 135.845 2.76818 -2.40349 0
M  V30 1441 H 135.493 4.89869 -1.14182 0
M  V30 1442 H 135.193 5.11962 -2.88389 0
M  V30 1443 H 136.717 5.71028 -2.1624 0
M  V30 1444 H 138.131 4.22203 -3.87837 0
M  V30 1445 H 136.528 3.86961 -4.58673 0
M  V30 1446 H 137.598 2.52954 -4.13693 0
M  V30 1447 N 138.941 1.26152 0.944643 0
M  V30 1448 C 140.189 1.11271 1.6871 0
M  V30 1449 C 140.51 -0.345166 1.91921 0
M  V30 1450 O 139.78 -1.24387 1.51343 0
M  V30 1451 H 138.36 0.408783 0.625224 0
M  V30 1452 H 141.022 1.58427 1.1352 0
M  V30 1453 H 140.118 1.62879 2.66227 0
M  V30 1454 N 140.419 -1.14872 1.07899 0
M  V30 1455 C 141.369 -2.17809 0.674027 0
M  V30 1456 C 142.353 -1.58008 -0.303699 0
M  V30 1457 O 143.545 -1.76616 -0.11654 0
M  V30 1458 C 140.674 -3.43208 0.0793318 0
M  V30 1459 C 139.76 -4.10051 1.08253 0
M  V30 1460 N 140.151 -4.52296 2.2641 0
M  V30 1461 C 138.449 -4.36469 0.917124 0
M  V30 1462 C 139.15 -5.04199 2.901 0
M  V30 1463 N 138.126 -4.98088 2.17736 0
M  V30 1464 H 141.928 -2.48207 1.57386 0
M  V30 1465 H 139.442 -1.315 0.952976 0
M  V30 1466 H 141.439 -4.16272 -0.228719 0
M  V30 1467 H 140.099 -3.14291 -0.815551 0
M  V30 1468 H 141.11 -4.45504 2.64096 0
M  V30 1469 H 137.787 -4.17432 0.0756078 0
M  V30 1470 H 139.177 -5.46802 3.90458 0
M  V30 1471 N 141.898 -0.863906 -1.31812 0
M  V30 1472 C 143.123 -0.48527 -2.01643 0
M  V30 1473 C 143.548 0.913058 -1.64453 0
M  V30 1474 O 142.906 1.6014 -0.849985 0
M  V30 1475 C 142.954 -0.642625 -3.54828 0
M  V30 1476 O 142.058 0.320659 -4.11151 0
M  V30 1477 H 141.399 -0.193793 -0.635091 0
M  V30 1478 H 143.929 -1.16565 -1.68148 0
M  V30 1479 H 143.939 -0.533628 -4.04495 0
M  V30 1480 H 142.614 -1.66227 -3.81237 0
M  V30 1481 H 141.191 0.167126 -3.72525 0
M  V30 1482 N 143.376 1.44774 -0.622745 0
M  V30 1483 C 144.286 2.34433 0.0886031 0
M  V30 1484 C 145.302 1.52131 0.844529 0
M  V30 1485 O 146.478 1.84886 0.798691 0
M  V30 1486 C 143.543 3.29986 1.0635 0
M  V30 1487 C 142.604 4.28195 0.307873 0
M  V30 1488 C 141.837 5.19183 1.23633 0
M  V30 1489 O 142.06 5.13918 2.47476 0
M  V30 1490 O 140.994 5.97515 0.725189 0
M  V30 1491 H 144.82 2.96693 -0.648599 0
M  V30 1492 H 142.405 1.44408 -0.382957 0
M  V30 1493 H 144.287 3.88825 1.6246 0
M  V30 1494 H 142.962 2.70269 1.78146 0
M  V30 1495 H 141.869 3.72927 -0.296064 0
M  V30 1496 H 143.202 4.90808 -0.3699 0
M  V30 1497 N 144.854 0.36279 1.53368 0
M  V30 1498 C 146.27 0.0116182 1.59596 0
M  V30 1499 C 146.47 -1.47012 1.37803 0
M  V30 1500 O 145.526 -2.23136 1.18181 0
M  V30 1501 C 146.839 0.465052 2.97082 0
M  V30 1502 C 148.387 0.419033 3.10182 0
M  V30 1503 C 148.862 0.848235 4.50077 0
M  V30 1504 N 150.353 0.803183 4.56183 0
M  V30 1505 C 151.088 1.107 5.62613 0
M  V30 1506 N 150.584 1.47996 6.76808 0
M  V30 1507 N 152.377 1.02998 5.52583 0
M  V30 1508 H 144.528 1.32775 1.65785 0
M  V30 1509 H 146.791 0.542518 0.777417 0
M  V30 1510 H 146.497 1.49892 3.18159 0
M  V30 1511 H 146.371 -0.149786 3.76902 0
M  V30 1512 H 148.758 -0.605696 2.88817 0
M  V30 1513 H 148.839 1.06933 2.32377 0
M  V30 1514 H 148.483 1.87107 4.7218 0
M  V30 1515 H 148.413 0.175218 5.26308 0
M  V30 1516 H 150.904 0.52838 3.74188 0
M  V30 1517 H 151.217 1.69613 7.53957 0
M  V30 1518 H 149.562 1.51859 6.78206 0
M  V30 1519 H 152.753 0.737817 4.62249 0
M  V30 1520 H 152.926 1.2701 6.35431 0
M  V30 1521 N 146.332 -1.57332 0.0918853 0
M  V30 1522 C 147.748 -1.57389 -0.264766 0
M  V30 1523 C 147.948 -1.10281 -1.68643 0
M  V30 1524 O 147.004 -0.777801 -2.40222 0
M  V30 1525 C 148.317 -3.00648 -0.0561195 0
M  V30 1526 C 149.865 -3.12754 -0.124116 0
M  V30 1527 C 150.34 -4.57965 0.0564972 0
M  V30 1528 N 151.831 -4.632 0.00155611 0
M  V30 1529 C 152.566 -5.73281 0.116598 0
M  V30 1530 N 152.062 -6.92208 0.286294 0
M  V30 1531 N 153.855 -5.6207 0.0580973 0
M  V30 1532 H 146.006 -1.86262 1.02079 0
M  V30 1533 H 148.269 -0.859579 0.399786 0
M  V30 1534 H 147.975 -3.393 0.925669 0
M  V30 1535 H 147.849 -3.68623 -0.799823 0
M  V30 1536 H 150.236 -2.73976 -1.09641 0
M  V30 1537 H 150.317 -2.47377 0.651024 0
M  V30 1538 H 149.961 -4.97436 1.02564 0
M  V30 1539 H 149.891 -5.21399 -0.738297 0
M  V30 1540 H 152.382 -3.77686 -0.127192 0
M  V30 1541 H 152.695 -7.71934 0.365676 0
M  V30 1542 H 151.04 -6.94254 0.32192 0
M  V30 1543 H 154.231 -4.68043 -0.0733204 0
M  V30 1544 H 154.404 -6.47824 0.151203 0
M  V30 1545 N 147.81 0.181792 -1.56548 0
M  V30 1546 C 148.74 1.22765 -1.98623 0
M  V30 1547 C 149.721 1.46747 -0.860189 0
M  V30 1548 O 150.906 1.58259 -1.12551 0
M  V30 1549 C 148.036 2.56894 -2.33715 0
M  V30 1550 C 146.99 2.475 -3.49182 0
M  V30 1551 C 146.316 3.86023 -3.69986 0
M  V30 1552 C 147.616 1.98866 -4.82959 0
M  V30 1553 H 149.31 0.877942 -2.86239 0
M  V30 1554 H 146.856 0.42088 -1.37712 0
M  V30 1555 H 148.809 3.30253 -2.61746 0
M  V30 1556 H 147.533 2.93632 -1.42997 0
M  V30 1557 H 146.192 1.76596 -3.21262 0
M  V30 1558 H 145.84 4.20136 -2.76576 0
M  V30 1559 H 145.54 3.80609 -4.47672 0
M  V30 1560 H 147.064 4.60984 -4.00407 0
M  V30 1561 H 148.478 2.61992 -5.09934 0
M  V30 1562 H 146.875 2.04424 -5.64208 0
M  V30 1563 H 147.945 0.942465 -4.75653 0
M  V30 1564 N 149.288 1.51039 0.449983 0
M  V30 1565 C 150.518 1.66627 1.22143 0
M  V30 1566 C 150.926 0.357776 1.85786 0
M  V30 1567 O 150.269 -0.672424 1.70951 0
M  V30 1568 C 150.331 2.71562 2.35573 0
M  V30 1569 C 149.995 4.14526 1.92399 0
M  V30 1570 C 150.992 4.99717 1.43453 0
M  V30 1571 C 148.677 4.60559 2.00475 0
M  V30 1572 C 150.671 6.28998 1.03155 0
M  V30 1573 C 148.358 5.8984 1.59788 0
M  V30 1574 C 149.356 6.73886 1.11208 0
M  V30 1575 O 149.044 8.0075 0.710935 0
M  V30 1576 H 148.776 0.562635 0.374724 0
M  V30 1577 H 151.33 1.98146 0.541036 0
M  V30 1578 H 149.56 2.3533 3.06849 0
M  V30 1579 H 151.249 2.76156 2.97478 0
M  V30 1580 H 152.015 4.65361 1.36618 0
M  V30 1581 H 147.894 3.95273 2.37235 0
M  V30 1582 H 151.438 6.9455 0.651663 0
M  V30 1583 H 147.335 6.23713 1.66289 0
M  V30 1584 H 148.103 8.142 0.837913 0
M  V30 1585 N 150.766 -0.704594 1.40972 0
M  V30 1586 C 151.996 -1.49138 1.42974 0
M  V30 1587 C 152.404 -1.89175 0.0308406 0
M  V30 1588 O 151.747 -1.56734 -0.958138 0
M  V30 1589 C 151.809 -2.79016 2.26694 0
M  V30 1590 C 151.473 -2.61236 3.74973 0
M  V30 1591 C 152.47 -2.27773 4.67349 0
M  V30 1592 C 150.155 -2.77158 4.18914 0
M  V30 1593 C 152.149 -2.10457 6.01653 0
M  V30 1594 C 149.836 -2.59459 5.53285 0
M  V30 1595 C 150.834 -2.26158 6.4447 0
M  V30 1596 O 150.522 -2.08605 7.76363 0
M  V30 1597 H 150.254 -0.466443 0.489292 0
M  V30 1598 H 152.808 -0.8758 1.85793 0
M  V30 1599 H 151.038 -3.42947 1.78673 0
M  V30 1600 H 152.727 -3.40782 2.20504 0
M  V30 1601 H 153.493 -2.15095 4.34694 0
M  V30 1602 H 149.372 -3.02064 3.48251 0
M  V30 1603 H 152.916 -1.84387 6.72791 0
M  V30 1604 H 148.813 -2.71725 5.85522 0
M  V30 1605 H 149.581 -2.23439 7.87412 0
M  V30 1606 N 152.244 -1.26651 -0.937939 0
M  V30 1607 C 153.492 -1.12165 -1.68118 0
M  V30 1608 C 153.813 0.334983 -1.92101 0
M  V30 1609 O 153.083 1.23583 -1.52 0
M  V30 1610 H 151.663 -0.412093 -0.623048 0
M  V30 1611 H 154.325 -1.59027 -1.12678 0
M  V30 1612 H 153.421 -1.64289 -2.6536 0
M  V30 1613 N 153.722 1.14298 -1.08507 0
M  V30 1614 C 154.632 2.23027 -0.727753 0
M  V30 1615 C 155.648 1.71952 0.26619 0
M  V30 1616 O 156.824 2.011 0.109882 0
M  V30 1617 C 153.889 3.46403 -0.143541 0
M  V30 1618 C 152.95 4.12413 -1.19223 0
M  V30 1619 C 152.183 5.29899 -0.635798 0
M  V30 1620 O 152.406 5.67796 0.544393 0
M  V30 1621 O 151.34 5.85717 -1.38634 0
M  V30 1622 H 155.166 2.55945 -1.63481 0
M  V30 1623 H 152.751 1.22248 -0.858817 0
M  V30 1624 H 154.633 4.21018 0.179404 0
M  V30 1625 H 153.308 3.15206 0.736659 0
M  V30 1626 H 152.215 3.39667 -1.56772 0
M  V30 1627 H 153.548 4.47718 -2.04474 0
M  V30 1628 N 155.201 0.870884 1.31352 0
M  V30 1629 C 156.429 0.49677 2.00848 0
M  V30 1630 C 156.844 -0.910998 1.65367 0
M  V30 1631 O 156.201 -1.59696 0.883374 0
M  V30 1632 C 156.252 0.645308 3.55694 0
M  V30 1633 O 155.973 1.99764 3.89905 0
M  V30 1634 C 157.474 0.272326 4.42463 0
M  V30 1635 H 154.694 0.193462 0.642506 0
M  V30 1636 H 157.238 1.1723 1.67563 0
M  V30 1637 H 155.393 0.0173176 3.87396 0
M  V30 1638 H 155.807 2.00607 4.84621 0
M  V30 1639 H 157.281 0.427208 5.50344 0
M  V30 1640 H 157.758 -0.788587 4.32062 0
M  V30 1641 H 158.364 0.876054 4.1618 0
M  V30 1642 N 156.679 -1.44442 0.630414 0
M  V30 1643 C 157.627 -2.32437 -0.0871428 0
M  V30 1644 C 158.621 -1.47304 -0.836525 0
M  V30 1645 O 159.827 -1.63653 -0.749506 0
M  V30 1646 H 156.202 -0.750533 -0.0469495 0
M  V30 1647 H 158.173 -2.90709 0.673096 0
M  V30 1648 C 156.922 -3.31288 -1.05563 0
M  V30 1649 H 156.245 -3.96805 -0.488426 0
M  V30 1650 H 157.685 -3.9554 -1.52721 0
M  V30 1651 C 156.144 -2.6016 -2.14052 0
M  V30 1652 O 156.674 -2.39997 -3.22124 0
M  V30 1653 N 154.88 -2.19911 -1.89967 0
M  V30 1654 H 154.427 -2.36509 -1.02085 0
M  V30 1655 H 154.385 -1.72646 -2.62756 0
M  V30 1656 N 158.157 -0.370918 -1.53173 0
M  V30 1657 C 159.067 0.480823 -2.2962 0
M  V30 1658 C 160.083 1.08789 -1.35798 0
M  V30 1659 O 161.259 1.09768 -1.68858 0
M  V30 1660 C 158.324 1.60227 -3.07454 0
M  V30 1661 C 157.385 1.0222 -4.16953 0
M  V30 1662 C 156.618 2.0902 -4.91066 0
M  V30 1663 O 156.841 3.30222 -4.65091 0
M  V30 1664 O 155.775 1.71778 -5.76867 0
M  V30 1665 H 159.601 -0.141421 -3.03371 0
M  V30 1666 H 157.186 -0.135146 -1.48787 0
M  V30 1667 H 159.068 2.25417 -3.56041 0
M  V30 1668 H 157.743 2.20982 -2.36535 0
M  V30 1669 H 156.65 0.334064 -3.72605 0
M  V30 1670 H 157.983 0.459131 -4.90054 0
M  V30 1671 N 159.635 1.57281 -0.100228 0
M  V30 1672 C 160.884 1.93713 0.561984 0
M  V30 1673 C 161.197 0.984492 1.69018 0
M  V30 1674 O 162.403 1.24273 2.41389 0
M  V30 1675 C 160.859 3.4421 1.05106 0
M  V30 1676 C 160.467 4.47975 -0.0476628 0
M  V30 1677 C 162.211 3.89595 1.68571 0
M  V30 1678 C 160.118 5.89631 0.457055 0
M  V30 1679 H 159.048 0.723082 0.2137 0
M  V30 1680 H 161.699 1.82644 -0.177057 0
M  V30 1681 H 160.081 3.50449 1.84395 0
M  V30 1682 H 161.255 4.53385 -0.823333 0
M  V30 1683 H 159.57 4.1223 -0.587816 0
M  V30 1684 H 162.167 4.92832 2.07414 0
M  V30 1685 H 162.51 3.28526 2.55688 0
M  V30 1686 H 163.043 3.86078 0.958562 0
M  V30 1687 H 159.782 6.54411 -0.377616 0
M  V30 1688 H 159.302 5.87681 1.19962 0
M  V30 1689 H 160.981 6.40363 0.92437 0
M  V30 1690 N 161.113 -0.173488 1.56642 0
M  V30 1691 C 162.359 -0.891784 1.8214 0
M  V30 1692 C 162.692 -1.8199 0.677736 0
M  V30 1693 O 161.967 -1.91842 -0.320446 0
M  V30 1694 C 162.25 -1.68933 3.18015 0
M  V30 1695 C 162.103 -0.784487 4.42906 0
M  V30 1696 C 163.422 -2.65748 3.50808 0
M  V30 1697 H 160.541 -0.322761 0.662567 0
M  V30 1698 H 163.183 -0.158095 1.89341 0
M  V30 1699 H 161.333 -2.31482 3.12007 0
M  V30 1700 H 163.005 -0.172046 4.60979 0
M  V30 1701 H 161.248 -0.0924117 4.33702 0
M  V30 1702 H 161.919 -1.37799 5.34524 0
M  V30 1703 H 164.395 -2.13327 3.57255 0
M  V30 1704 H 163.271 -3.18619 4.4696 0
M  V30 1705 H 163.532 -3.45842 2.75401 0
M  V30 1706 N 162.591 -1.51276 -0.441967 0
M  V30 1707 C 163.554 -1.7167 -1.51862 0
M  V30 1708 C 164.554 -0.586793 -1.49711 0
M  V30 1709 O 165.744 -0.854276 -1.51815 0
M  V30 1710 C 162.876 -1.76889 -2.91416 0
M  V30 1711 H 164.069 -2.67754 -1.35084 0
M  V30 1712 H 161.622 -1.41196 -0.670333 0
M  V30 1713 H 162.357 -0.826026 -3.13604 0
M  V30 1714 H 162.142 -2.59001 -2.94382 0
M  V30 1715 H 163.632 -1.94522 -3.69528 0
M  V30 1716 N 164.069 0.697108 -1.41344 0
M  V30 1717 C 164.979 1.84088 -1.45427 0
M  V30 1718 C 165.995 1.70545 -0.34501 0
M  V30 1719 O 167.171 1.92488 -0.592492 0
M  V30 1720 C 164.236 3.20056 -1.33286 0
M  V30 1721 C 163.297 3.45718 -2.54514 0
M  V30 1722 C 162.53 4.75199 -2.42944 0
M  V30 1723 O 162.753 5.51579 -1.45318 0
M  V30 1724 O 161.687 5.0161 -3.32672 0
M  V30 1725 H 165.513 1.836 -2.41919 0
M  V30 1726 H 163.098 0.849966 -1.22866 0
M  V30 1727 H 164.98 4.01236 -1.28794 0
M  V30 1728 H 163.655 3.2123 -0.39909 0
M  V30 1729 H 162.562 2.64474 -2.64583 0
M  V30 1730 H 163.895 3.49356 -3.46715 0
M  V30 1731 N 165.547 1.27147 0.931209 0
M  V30 1732 C 166.494 1.09568 2.03134 0
M  V30 1733 C 167.464 -0.00222433 1.661 0
M  V30 1734 O 168.649 0.159439 1.90133 0
M  V30 1735 C 165.789 0.745231 3.36957 0
M  V30 1736 C 164.902 1.92041 3.86968 0
M  V30 1737 C 164.037 1.51216 5.09222 0
M  V30 1738 C 163.076 2.65504 5.5152 0
M  V30 1739 N 162.213 2.25291 6.64972 0
M  V30 1740 H 167.053 2.03708 2.17502 0
M  V30 1741 H 164.59 1.01411 1.06556 0
M  V30 1742 H 166.548 0.522878 4.1391 0
M  V30 1743 H 165.178 -0.159202 3.22407 0
M  V30 1744 H 164.23 2.25541 3.06326 0
M  V30 1745 H 165.542 2.77787 4.1429 0
M  V30 1746 H 164.696 1.25084 5.93666 0
M  V30 1747 H 163.435 0.625749 4.83669 0
M  V30 1748 H 162.44 2.92354 4.65628 0
M  V30 1749 H 163.665 3.54761 5.7907 0
M  V30 1750 H 161.611 1.39098 6.41083 0
M  V30 1751 H 161.528 3.04577 6.91931 0
M  V30 1752 H 162.796 2.02398 7.52765 0
M  V30 1753 N 167.025 -1.13721 1.09112 0
M  V30 1754 C 168.271 -1.85198 0.826414 0
M  V30 1755 C 168.604 -1.83129 -0.646319 0
M  V30 1756 O 167.879 -1.2671 -1.47563 0
M  V30 1757 C 168.162 -3.33507 1.35812 0
M  V30 1758 C 168.015 -3.44108 2.89672 0
M  V30 1759 C 169.334 -4.28838 0.989256 0
M  V30 1760 H 166.453 -0.67243 0.301675 0
M  V30 1761 H 169.095 -1.33499 1.35197 0
M  V30 1762 H 167.245 -3.77666 0.911082 0
M  V30 1763 H 168.917 -3.08684 3.428 0
M  V30 1764 H 167.16 -2.85087 3.26967 0
M  V30 1765 H 167.831 -4.48388 3.21951 0
M  V30 1766 H 170.307 -3.92734 1.37475 0
M  V30 1767 H 169.183 -5.31051 1.38838 0
M  V30 1768 H 169.444 -4.4198 -0.102924 0
M  V30 1769 N 168.503 -0.877838 -1.30888 0
M  V30 1770 C 169.466 -0.344265 -2.266 0
M  V30 1771 C 170.466 0.50922 -1.52524 0
M  V30 1772 O 171.656 0.317398 -1.71284 0
M  V30 1773 C 168.788 0.510198 -3.37061 0
M  V30 1774 H 169.981 -1.1893 -2.7531 0
M  V30 1775 H 167.534 -0.654088 -1.41956 0
M  V30 1776 H 168.269 1.37612 -2.93655 0
M  V30 1777 H 168.054 -0.101047 -3.9197 0
M  V30 1778 H 169.544 0.875537 -4.08319 0
M  V30 1779 N 169.982 1.44106 -0.638065 0
M  V30 1780 C 170.914 2.28976 0.101205 0
M  V30 1781 C 171.927 1.4167 0.802088 0
M  V30 1782 O 173.116 1.65755 0.662375 0
M  V30 1783 C 170.216 3.18217 1.16581 0
M  V30 1784 C 169.389 4.33978 0.546066 0
M  V30 1785 C 168.448 5.04202 1.50554 0
M  V30 1786 O 167.474 5.59986 1.01999 0
M  V30 1787 N 168.676 5.06296 2.8398 0
M  V30 1788 H 171.441 2.93064 -0.627186 0
M  V30 1789 H 169.002 1.54629 -0.479731 0
M  V30 1790 H 170.994 3.62061 1.80815 0
M  V30 1791 H 169.564 2.55833 1.79634 0
M  V30 1792 H 168.784 3.93239 -0.275046 0
M  V30 1793 H 170.072 5.08675 0.112793 0
M  V30 1794 H 169.47 4.62319 3.26002 0
M  V30 1795 H 168.027 5.53907 3.43556 0
M  V30 1796 N 171.46 0.379036 1.52974 0
M  V30 1797 C 172.423 -0.448865 2.24762 0
M  V30 1798 C 173.423 -0.998689 1.26027 0
M  V30 1799 O 174.613 -0.882313 1.50203 0
M  V30 1800 C 171.745 -1.62872 2.99476 0
M  V30 1801 H 172.938 0.179491 2.99362 0
M  V30 1802 H 170.491 0.13096 1.5575 0
M  V30 1803 H 171.226 -2.29479 2.29151 0
M  V30 1804 H 171.011 -1.24128 3.71934 0
M  V30 1805 H 172.501 -2.2151 3.5401 0
M  V30 1806 N 172.938 -1.57226 0.108567 0
M  V30 1807 C 174.178 -1.96717 -0.555155 0
M  V30 1808 C 174.542 -0.990003 -1.64508 0
M  V30 1809 O 175.743 -1.2739 -2.36696 0
M  V30 1810 C 174.014 -3.40575 -1.08367 0
M  V30 1811 S 175.573 -4.02072 -1.75737 0
M  V30 1812 H 172.391 -0.687638 -0.180762 0
M  V30 1813 H 174.993 -1.94563 0.191172 0
M  V30 1814 H 173.697 -4.0945 -0.279092 0
M  V30 1815 H 173.228 -3.46356 -1.86551 0
M  V30 1816 H 175.243 -3.91977 -3.04251 0
M  V30 1817 N 174.416 0.165178 -1.56732 0
M  V30 1818 C 175.379 1.18822 -1.95995 0
M  V30 1819 C 176.379 1.3685 -0.84431 0
M  V30 1820 O 177.569 1.34152 -1.11126 0
M  V30 1821 C 174.701 2.5521 -2.26011 0
M  V30 1822 H 175.894 0.851825 -2.87548 0
M  V30 1823 H 173.447 0.407857 -1.50885 0
M  V30 1824 H 174.182 2.93852 -1.37191 0
M  V30 1825 H 173.967 2.43489 -3.07336 0
M  V30 1826 H 175.457 3.28927 -2.57288 0
M  V30 1827 N 175.894 1.51508 0.433938 0
M  V30 1828 C 176.857 1.72473 1.50949 0
M  V30 1829 C 177.857 0.594725 1.49398 0
M  V30 1830 O 179.047 0.862315 1.5136 0
M  V30 1831 C 176.179 1.78431 2.90474 0
M  V30 1832 H 177.372 2.68467 1.33662 0
M  V30 1833 H 174.925 1.41549 0.662836 0
M  V30 1834 H 175.66 0.842645 3.13161 0
M  V30 1835 H 175.445 2.60558 2.93005 0
M  V30 1836 H 176.935 1.96479 3.68491 0
M  V30 1837 N 177.372 -0.689602 1.41712 0
M  V30 1838 C 178.62 -1.4468 1.4111 0
M  V30 1839 C 178.941 -1.94986 0.0232196 0
M  V30 1840 O 178.211 -1.72097 -0.935913 0
M  V30 1841 H 176.791 -0.536847 0.519427 0
M  V30 1842 H 179.453 -0.815825 1.77004 0
M  V30 1843 H 178.549 -2.30706 2.10193 0
M  V30 1844 N 178.85 -1.27639 -0.924453 0
M  V30 1845 C 180.097 -1.14167 -1.67249 0
M  V30 1846 C 180.425 0.311863 -1.91984 0
M  V30 1847 O 179.68 1.24425 -1.51053 0
M  V30 1848 C 179.979 -1.87407 -3.04325 0
M  V30 1849 C 179.645 -3.37249 -2.99289 0
M  V30 1850 C 178.307 -3.7812 -2.97622 0
M  V30 1851 C 180.659 -4.32845 -2.90336 0
M  V30 1852 C 177.987 -5.12944 -2.8479 0
M  V30 1853 C 180.339 -5.6773 -2.79045 0
M  V30 1854 C 179.003 -6.07889 -2.7573 0
M  V30 1855 H 178.273 -0.417766 -0.612007 0
M  V30 1856 H 180.92 -1.58286 -1.07786 0
M  V30 1857 H 179.225 -1.35805 -3.67511 0
M  V30 1858 H 180.922 -1.74408 -3.61086 0
M  V30 1859 H 177.512 -3.04748 -3.01374 0
M  V30 1860 H 181.696 -4.02239 -2.90719 0
M  V30 1861 H 176.952 -5.432 -2.80612 0
M  V30 1862 H 181.126 -6.41472 -2.71083 0
M  V30 1863 H 178.753 -7.12314 -2.65544 0
M  V30 1864 N 180.328 1.1314 -1.09713 0
M  V30 1865 C 181.278 2.16709 -0.708593 0
M  V30 1866 C 182.262 1.58471 0.278523 0
M  V30 1867 O 183.454 1.76779 0.088427 0
M  V30 1868 C 180.583 3.43039 -0.133923 0
M  V30 1869 C 179.669 4.08277 -1.14763 0
M  V30 1870 N 180.06 4.48637 -2.33577 0
M  V30 1871 C 178.358 4.34954 -0.986446 0
M  V30 1872 C 179.059 4.9952 -2.98085 0
M  V30 1873 N 178.035 4.94561 -2.25632 0
M  V30 1874 H 181.837 2.45672 -1.61315 0
M  V30 1875 H 179.351 1.29967 -0.973775 0
M  V30 1876 H 181.348 4.16583 0.162465 0
M  V30 1877 H 180.008 3.15549 0.765447 0
M  V30 1878 H 181.019 4.41246 -2.7115 0
M  V30 1879 H 177.696 4.17258 -0.142008 0
M  V30 1880 H 179.086 5.40521 -3.99108 0
M  V30 1881 N 181.806 0.884767 1.30421 0
M  V30 1882 C 183.052 0.503851 1.96441 0
M  V30 1883 C 183.385 -0.944518 1.69684 0
M  V30 1884 O 182.66 -1.66737 1.00145 0
M  V30 1885 C 182.943 0.779085 3.51571 0
M  V30 1886 C 182.796 2.27807 3.87846 0
M  V30 1887 C 184.115 0.255452 4.39358 0
M  V30 1888 H 181.234 0.184533 0.713524 0
M  V30 1889 H 183.876 1.10872 1.54297 0
M  V30 1890 H 182.026 0.264274 3.876 0
M  V30 1891 H 183.698 2.86127 3.61841 0
M  V30 1892 H 181.941 2.74479 3.35922 0
M  V30 1893 H 182.612 2.42125 4.96064 0
M  V30 1894 H 185.088 0.696079 4.10236 0
M  V30 1895 H 183.964 0.477361 5.4682 0
M  V30 1896 H 184.225 -0.843293 4.33983 0
M  V30 1897 N 183.284 -1.43765 0.645699 0
M  V30 1898 C 184.533 -2.01116 0.153412 0
M  V30 1899 C 184.846 -1.51493 -1.23731 0
M  V30 1900 O 186.052 -2.01067 -1.8244 0
M  V30 1901 C 184.508 -3.59206 0.223473 0
M  V30 1902 C 184.116 -4.17823 1.61642 0
M  V30 1903 C 185.86 -4.23972 -0.211597 0
M  V30 1904 C 183.767 -5.68183 1.64081 0
M  V30 1905 H 182.697 -0.752093 0.0535891 0
M  V30 1906 H 185.348 -1.6482 0.806633 0
M  V30 1907 H 183.73 -3.92867 -0.497118 0
M  V30 1908 H 184.904 -3.95674 2.36176 0
M  V30 1909 H 183.219 -3.65399 1.99681 0
M  V30 1910 H 185.816 -5.34275 -0.213112 0
M  V30 1911 H 186.159 -3.97352 -1.24165 0
M  V30 1912 H 186.692 -3.95166 0.456988 0
M  V30 1913 H 183.431 -5.99559 2.64971 0
M  V30 1914 H 182.951 -5.9241 0.938611 0
M  V30 1915 H 184.63 -6.32085 1.3812 0
M  V30 1916 N 184.763 -0.387143 -1.52771 0
M  V30 1917 C 186.009 0.196025 -2.0185 0
M  V30 1918 C 186.342 1.46641 -1.27319 0
M  V30 1919 O 185.617 1.90889 -0.373032 0
M  V30 1920 C 185.9 0.466136 -3.5707 0
M  V30 1921 C 185.753 -0.819385 -4.42274 0
M  V30 1922 C 187.072 1.25768 -4.21747 0
M  V30 1923 H 184.191 0.0697708 -0.73369 0
M  V30 1924 H 186.833 -0.516286 -1.82851 0
M  V30 1925 H 184.983 1.07293 -3.7339 0
M  V30 1926 H 186.655 -1.4563 -4.37709 0
M  V30 1927 H 184.898 -1.43517 -4.09372 0
M  V30 1928 H 185.569 -0.585065 -5.48891 0
M  V30 1929 H 188.045 0.744167 -4.09391 0
M  V30 1930 H 186.921 1.41541 -5.30337 0
M  V30 1931 H 187.182 2.27228 -3.79236 0
M  V30 1932 N 186.241 1.57166 -0.116904 0
M  V30 1933 C 187.481 1.97008 0.544715 0
M  V30 1934 C 187.845 0.998713 1.63981 0
M  V30 1935 O 189.046 1.28644 2.36018 0
M  V30 1936 C 187.317 3.41145 1.06559 0
M  V30 1937 S 188.876 4.02998 1.73603 0
M  V30 1938 H 185.694 0.688587 0.177112 0
M  V30 1939 H 188.296 1.94459 -0.201487 0
M  V30 1940 H 187 4.09592 0.257374 0
M  V30 1941 H 186.531 3.4734 1.84712 0
M  V30 1942 H 188.546 3.93585 3.02168 0
M  V30 1943 N 187.719 -0.156864 1.56817 0
M  V30 1944 C 188.965 -0.872416 1.83076 0
M  V30 1945 C 189.298 -1.81261 0.697001 0
M  V30 1946 O 188.573 -1.92171 -0.30008 0
M  V30 1947 C 188.856 -1.65551 3.19789 0
M  V30 1948 C 188.709 -0.737467 4.43713 0
M  V30 1949 C 190.028 -2.62012 3.53606 0
M  V30 1950 H 187.147 -0.315715 0.665953 0
M  V30 1951 H 189.789 -0.138004 1.89498 0
M  V30 1952 H 187.939 -2.28159 3.14445 0
M  V30 1953 H 189.611 -0.123143 4.61136 0
M  V30 1954 H 187.854 -0.0464067 4.33775 0
M  V30 1955 H 188.525 -1.32122 5.35955 0
M  V30 1956 H 191.001 -2.09525 3.59497 0
M  V30 1957 H 189.877 -3.13861 4.50314 0
M  V30 1958 H 190.138 -3.42902 2.79053 0
M  V30 1959 N 189.197 -1.51736 -0.425897 0
M  V30 1960 C 190.445 -1.64644 -1.17204 0
M  V30 1961 C 190.766 -0.370486 -1.91448 0
M  V30 1962 O 190.036 0.614088 -1.86026 0
M  V30 1963 H 188.616 -0.606819 -0.435638 0
M  V30 1964 H 191.278 -1.88713 -0.487177 0
M  V30 1965 H 190.374 -2.47958 -1.89534 0
M  V30 1966 N 190.675 0.682077 -1.42076 0
M  V30 1967 C 191.585 1.82535 -1.47371 0
M  V30 1968 C 192.601 1.7017 -0.363079 0
M  V30 1969 O 193.777 1.91848 -0.612875 0
M  V30 1970 C 190.842 3.18624 -1.36674 0
M  V30 1971 C 189.903 3.42999 -2.58167 0
M  V30 1972 C 189.136 4.72595 -2.4797 0
M  V30 1973 O 189.359 5.50006 -1.5116 0
M  V30 1974 O 188.293 4.98054 -3.37974 0
M  V30 1975 H 192.119 1.81023 -2.43853 0
M  V30 1976 H 189.704 0.836887 -1.2376 0
M  V30 1977 H 191.586 3.99847 -1.33043 0
M  V30 1978 H 190.261 3.20789 -0.433138 0
M  V30 1979 H 189.168 2.61653 -2.67373 0
M  V30 1980 H 190.501 3.45659 -3.50401 0
M  V30 1981 N 192.153 1.28127 0.917671 0
M  V30 1982 C 193.381 1.17892 1.70026 0
M  V30 1983 C 193.796 -0.262958 1.8696 0
M  V30 1984 O 193.153 -1.17811 1.3938 0
M  V30 1985 C 193.204 1.86872 3.09453 0
M  V30 1986 O 192.925 3.25428 2.93306 0
M  V30 1987 C 194.426 1.8289 4.03815 0
M  V30 1988 H 191.646 0.40942 0.531617 0
M  V30 1989 H 194.19 1.69181 1.14883 0
M  V30 1990 H 192.345 1.39464 3.61426 0
M  V30 1991 H 192.759 3.59918 3.81523 0
M  V30 1992 H 194.233 2.35751 4.99125 0
M  V30 1993 H 194.71 0.800412 4.31845 0
M  V30 1994 H 195.316 2.29959 3.57769 0
M  V30 1995 N 193.631 -1.12557 1.10312 0
M  V30 1996 C 194.579 -2.20325 0.745629 0
M  V30 1997 C 195.573 -1.67429 -0.25763 0
M  V30 1998 O 196.779 -1.79612 -0.118132 0
M  V30 1999 H 193.154 -0.718118 0.223182 0
M  V30 2000 H 195.125 -2.47733 1.66346 0
M  V30 2001 C 193.874 -3.47168 0.192262 0
M  V30 2002 H 193.197 -3.88215 0.955475 0
M  V30 2003 H 194.637 -4.23995 -0.0198274 0
M  V30 2004 C 193.096 -3.19298 -1.07472 0
M  V30 2005 O 193.626 -3.3891 -2.15645 0
M  V30 2006 N 191.832 -2.73113 -0.992847 0
M  V30 2007 H 191.379 -2.57354 -0.112474 0
M  V30 2008 H 191.337 -2.54842 -1.84127 0
M  V30 2009 N 195.109 -0.891671 -1.2995 0
M  V30 2010 C 196.019 -0.367691 -2.31701 0
M  V30 2011 C 197.035 0.533486 -1.6562 0
M  V30 2012 O 198.211 0.424997 -1.96865 0
M  V30 2013 C 195.276 0.403406 -3.44345 0
M  V30 2014 C 194.337 -0.528328 -4.26037 0
M  V30 2015 C 193.57 0.206063 -5.33302 0
M  V30 2016 O 193.793 1.43119 -5.52153 0
M  V30 2017 O 192.727 -0.447281 -6.00236 0
M  V30 2018 H 196.553 -1.21163 -2.78484 0
M  V30 2019 H 194.138 -0.655725 -1.34241 0
M  V30 2020 H 196.02 0.839753 -4.12948 0
M  V30 2021 H 194.695 1.22354 -2.99685 0
M  V30 2022 H 193.602 -1.01362 -3.60106 0
M  V30 2023 H 194.935 -1.31465 -4.74318 0
M  V30 2024 N 196.587 1.43421 -0.653314 0
M  V30 2025 C 197.497 2.34568 0.0388565 0
M  V30 2026 C 198.513 1.53888 0.81207 0
M  V30 2027 O 199.689 1.86539 0.759294 0
M  V30 2028 C 196.754 3.32167 0.993269 0
M  V30 2029 C 195.815 4.28751 0.216977 0
M  V30 2030 C 195.048 5.21688 1.12593 0
M  V30 2031 O 195.271 5.19052 2.36519 0
M  V30 2032 O 194.205 5.98919 0.598284 0
M  V30 2033 H 198.031 2.95251 -0.711386 0
M  V30 2034 H 195.616 1.43564 -0.413502 0
M  V30 2035 H 197.498 3.92183 1.54176 0
M  V30 2036 H 196.173 2.73987 1.72374 0
M  V30 2037 H 195.08 3.72215 -0.375101 0
M  V30 2038 H 196.413 4.89913 -0.473924 0
M  V30 2039 N 198.065 0.39524 1.52563 0
M  V30 2040 C 199.481 0.0454682 1.59535 0
M  V30 2041 C 199.681 -1.44056 1.4089 0
M  V30 2042 O 198.737 -2.20579 1.22888 0
M  V30 2043 C 200.05 0.527963 2.96029 0
M  V30 2044 C 201.598 0.484733 3.09224 0
M  V30 2045 C 202.073 0.943512 4.48176 0
M  V30 2046 N 203.564 0.899765 4.54377 0
M  V30 2047 C 204.299 1.22609 5.60138 0
M  V30 2048 N 203.795 1.62319 6.73516 0
M  V30 2049 N 205.588 1.14696 5.50274 0
M  V30 2050 H 197.739 1.36261 1.62931 0
M  V30 2051 H 200.002 0.558887 0.765735 0
M  V30 2052 H 199.708 1.56607 3.14908 0
M  V30 2053 H 199.582 -0.0698056 3.77135 0
M  V30 2054 H 201.969 -0.544298 2.90037 0
M  V30 2055 H 202.05 1.11838 2.30056 0
M  V30 2056 H 201.694 1.9708 4.68104 0
M  V30 2057 H 201.624 0.286817 5.25818 0
M  V30 2058 H 204.115 0.607632 3.72983 0
M  V30 2059 H 204.428 1.85567 7.5019 0
M  V30 2060 H 202.773 1.66211 6.74833 0
M  V30 2061 H 205.964 0.835701 4.6058 0
M  V30 2062 H 206.137 1.40459 6.32594 0
M  V30 2063 N 199.544 -1.57102 0.125237 0
M  V30 2064 C 200.454 -2.19191 -0.8362 0
M  V30 2065 C 201.47 -1.16985 -1.28805 0
M  V30 2066 O 202.646 -1.49479 -1.34974 0
M  V30 2067 C 199.711 -2.78407 -2.06617 0
M  V30 2068 C 198.772 -3.9567 -1.66565 0
M  V30 2069 C 198.005 -4.52052 -2.83698 0
M  V30 2070 O 198.228 -4.07326 -3.99302 0
M  V30 2071 O 197.162 -5.42645 -2.60423 0
M  V30 2072 H 200.988 -3.01816 -0.337776 0
M  V30 2073 H 198.573 -1.4906 -0.100695 0
M  V30 2074 H 200.455 -3.16129 -2.7864 0
M  V30 2075 H 199.13 -1.9881 -2.55453 0
M  V30 2076 H 198.037 -3.62705 -0.916296 0
M  V30 2077 H 199.37 -4.76722 -1.22464 0
M  V30 2078 N 201.022 0.148545 -1.56898 0
M  V30 2079 C 201.985 1.16736 -1.97244 0
M  V30 2080 C 202.985 1.35947 -0.858777 0
M  V30 2081 O 204.175 1.32966 -1.12542 0
M  V30 2082 C 201.307 2.52798 -2.28705 0
M  V30 2083 H 202.5 0.821279 -2.88435 0
M  V30 2084 H 200.053 0.391831 -1.51309 0
M  V30 2085 H 200.788 2.92381 -1.403 0
M  V30 2086 H 200.573 2.40216 -3.09901 0
M  V30 2087 H 202.063 3.26179 -2.60762 0
M  V30 2088 N 202.5 1.5196 0.417844 0
M  V30 2089 C 203.748 1.65263 1.16329 0
M  V30 2090 C 204.069 0.380634 1.91249 0
M  V30 2091 O 203.339 -0.604214 1.86349 0
M  V30 2092 H 201.919 0.60912 0.432414 0
M  V30 2093 H 204.581 1.88969 0.477162 0
M  V30 2094 H 203.677 2.4896 1.88217 0
M  V30 2095 N 203.978 -0.674533 1.42435 0
M  V30 2096 C 205.394 -0.98769 1.25367 0
M  V30 2097 C 205.594 -2.00879 0.158044 0
M  V30 2098 O 204.65 -2.48075 -0.470633 0
M  V30 2099 C 205.963 -1.49224 2.6106 0
M  V30 2100 C 207.511 -1.61 2.68417 0
M  V30 2101 C 207.986 -2.14852 4.04478 0
M  V30 2102 N 209.477 -2.22185 4.06434 0
M  V30 2103 C 210.212 -2.64928 5.08528 0
M  V30 2104 N 209.708 -3.07121 6.21006 0
M  V30 2105 N 211.501 -2.64679 4.95885 0
M  V30 2106 H 203.652 0.00152503 2.124 0
M  V30 2107 H 205.915 -0.0618434 0.945981 0
M  V30 2108 H 205.621 -0.816453 3.42092 0
M  V30 2109 H 205.495 -2.47094 2.84999 0
M  V30 2110 H 207.882 -2.27686 1.87732 0
M  V30 2111 H 207.963 -0.616195 2.48267 0
M  V30 2112 H 207.607 -1.48775 4.85622 0
M  V30 2113 H 207.537 -3.15024 4.2198 0
M  V30 2114 H 210.028 -1.92435 3.25234 0
M  V30 2115 H 210.341 -3.38423 6.94759 0
M  V30 2116 H 208.686 -3.04978 6.24511 0
M  V30 2117 H 211.877 -2.31078 4.07088 0
M  V30 2118 H 212.05 -2.9767 5.75584 0
M  V30 2119 N 205.456 -1.28612 -0.910864 0
M  V30 2120 C 206.684 -1.18792 -1.69399 0
M  V30 2121 C 207.099 0.253039 -1.87097 0
M  V30 2122 O 206.456 1.17071 -1.40003 0
M  V30 2123 C 206.507 -1.88511 -3.08457 0
M  V30 2124 O 206.228 -3.26979 -2.91576 0
M  V30 2125 C 207.729 -1.85029 -4.02839 0
M  V30 2126 H 204.949 -0.412233 -0.529438 0
M  V30 2127 H 207.493 -1.69788 -1.13984 0
M  V30 2128 H 205.648 -1.41379 -3.60681 0
M  V30 2129 H 206.062 -3.61936 -3.79608 0
M  V30 2130 H 207.536 -2.38395 -4.97867 0
M  V30 2131 H 208.013 -0.823303 -4.31414 0
M  V30 2132 H 208.619 -2.31853 -3.56545 0
M  V30 2133 N 206.934 1.1197 -1.10907 0
M  V30 2134 C 207.897 2.16031 -0.765707 0
M  V30 2135 C 208.897 1.59393 0.212235 0
M  V30 2136 O 210.087 1.74196 -0.0115441 0
M  V30 2137 C 207.219 3.40632 -0.135053 0
M  V30 2138 H 208.412 2.47919 -1.68748 0
M  V30 2139 H 205.965 1.27061 -0.910226 0
M  V30 2140 H 206.7 3.14348 0.797218 0
M  V30 2141 H 206.485 3.8302 -0.838937 0
M  V30 2142 H 207.975 4.17505 0.0892469 0
M  V30 2143 N 208.412 0.89855 1.29475 0
M  V30 2144 C 209.375 0.380272 2.26023 0
M  V30 2145 C 210.375 -0.484891 1.53315 0
M  V30 2146 O 211.565 -0.290108 1.71767 0
M  V30 2147 C 208.697 -0.45651 3.3783 0
M  V30 2148 H 209.89 1.23295 2.73383 0
M  V30 2149 H 207.443 0.676589 1.40897 0
M  V30 2150 H 208.178 -1.32922 2.95808 0
M  V30 2151 H 207.963 0.163393 3.91759 0
M  V30 2152 H 209.453 -0.810466 4.0966 0
M  V30 2153 N 209.89 -1.43072 0.660911 0
M  V30 2154 C 211.136 -2.0202 0.177708 0
M  V30 2155 C 211.469 -1.52066 -1.20787 0
M  V30 2156 O 210.744 -0.716987 -1.80802 0
M  V30 2157 C 211.027 -3.59561 0.197019 0
M  V30 2158 C 210.88 -4.19727 1.61706 0
M  V30 2159 C 212.199 -4.37664 -0.462396 0
M  V30 2160 H 209.318 -0.734034 0.0660494 0
M  V30 2161 H 211.96 -1.70272 0.843058 0
M  V30 2162 H 210.11 -3.86739 -0.369527 0
M  V30 2163 H 211.782 -4.03553 2.23479 0
M  V30 2164 H 210.025 -3.76084 2.16201 0
M  V30 2165 H 210.696 -5.28834 1.58237 0
M  V30 2166 H 213.172 -4.16095 0.0197215 0
M  V30 2167 H 212.048 -5.47305 -0.418188 0
M  V30 2168 H 212.309 -4.14493 -1.53778 0
M  V30 2169 N 211.368 -0.403325 -1.52352 0
M  V30 2170 C 212.614 0.174605 -2.02047 0
M  V30 2171 C 212.947 1.45282 -1.28867 0
M  V30 2172 O 212.222 1.90483 -0.393257 0
M  V30 2173 C 212.505 0.428238 -3.57545 0
M  V30 2174 C 212.358 -0.866248 -4.4138 0
M  V30 2175 C 213.677 1.21287 -4.23057 0
M  V30 2176 H 210.796 0.0619851 -0.734389 0
M  V30 2177 H 213.438 -0.53565 -1.82293 0
M  V30 2178 H 211.588 1.03327 -3.74507 0
M  V30 2179 H 213.26 -1.50265 -4.3614 0
M  V30 2180 H 211.503 -1.47851 -4.07827 0
M  V30 2181 H 212.174 -0.643249 -5.48239 0
M  V30 2182 H 214.65 0.700703 -4.10158 0
M  V30 2183 H 213.526 1.35909 -5.31808 0
M  V30 2184 H 213.787 2.23193 -3.81625 0
M  V30 2185 N 212.846 1.57033 -0.133567 0
M  V30 2186 C 213.776 2.1909 0.807567 0
M  V30 2187 C 214.757 1.13517 1.26681 0
M  V30 2188 O 215.942 1.41809 1.32679 0
M  V30 2189 C 213.072 2.80188 2.05212 0
M  V30 2190 C 212.026 3.91471 1.73015 0
M  V30 2191 C 211.352 4.39443 3.04622 0
M  V30 2192 C 212.652 5.12886 0.987168 0
M  V30 2193 H 214.346 2.97988 0.290403 0
M  V30 2194 H 211.892 1.43335 0.138239 0
M  V30 2195 H 213.845 3.22264 2.71521 0
M  V30 2196 H 212.569 1.98601 2.59278 0
M  V30 2197 H 211.228 3.49993 1.0909 0
M  V30 2198 H 210.876 3.54695 3.56651 0
M  V30 2199 H 210.576 5.14495 2.83847 0
M  V30 2200 H 212.1 4.8418 3.72024 0
M  V30 2201 H 213.514 5.51891 1.55208 0
M  V30 2202 H 211.911 5.93615 0.87985 0
M  V30 2203 H 212.981 4.84894 -0.0235286 0
M  V30 2204 N 214.325 -0.140222 1.56975 0
M  V30 2205 C 215.553 -0.866437 1.87884 0
M  V30 2206 C 215.968 -1.74428 0.722517 0
M  V30 2207 O 215.325 -1.79891 -0.30749 0
M  V30 2208 C 215.376 -1.71753 3.18093 0
M  V30 2209 O 215.097 -0.875056 4.29272 0
M  V30 2210 C 216.598 -2.55074 3.62563 0
M  V30 2211 H 213.818 -0.25019 0.622612 0
M  V30 2212 H 216.362 -0.130977 2.0408 0
M  V30 2213 H 214.517 -2.40598 3.03631 0
M  V30 2214 H 214.931 -1.46002 5.03769 0
M  V30 2215 H 216.405 -3.10356 4.5649 0
M  V30 2216 H 216.882 -3.31434 2.88181 0
M  V30 2217 H 217.488 -1.91509 3.79743 0
M  V30 2218 N 215.803 -1.52179 -0.40978 0
M  V30 2219 C 216.735 -1.71703 -1.51825 0
M  V30 2220 C 217.748 -0.597445 -1.51441 0
M  V30 2221 O 218.937 -0.872582 -1.55719 0
M  V30 2222 C 216.037 -1.74171 -2.90719 0
M  V30 2223 C 215.21 -3.03156 -3.15302 0
M  V30 2224 C 214.269 -2.97445 -4.34065 0
M  V30 2225 O 213.295 -3.71352 -4.31377 0
M  V30 2226 N 214.497 -2.15191 -5.39141 0
M  V30 2227 H 217.262 -2.67334 -1.35472 0
M  V30 2228 H 214.823 -1.50409 -0.599069 0
M  V30 2229 H 216.815 -1.67884 -3.68235 0
M  V30 2230 H 215.385 -0.860166 -3.00533 0
M  V30 2231 H 214.605 -3.23097 -2.25836 0
M  V30 2232 H 215.893 -3.88484 -3.28569 0
M  V30 2233 H 215.291 -1.54573 -5.44173 0
M  V30 2234 H 213.848 -2.1476 -6.15403 0
M  V30 2235 N 217.281 0.66697 -1.42791 0
M  V30 2236 C 218.211 1.79218 -1.49677 0
M  V30 2237 C 219.192 1.66405 -0.352623 0
M  V30 2238 O 220.377 1.85708 -0.567993 0
M  V30 2239 C 217.507 3.17565 -1.40605 0
M  V30 2240 C 216.461 3.45124 -2.53127 0
M  V30 2241 C 215.787 4.83127 -2.29112 0
M  V30 2242 C 217.087 3.41236 -3.95418 0
M  V30 2243 H 218.781 1.73713 -2.43853 0
M  V30 2244 H 216.327 0.83432 -1.17367 0
M  V30 2245 H 218.28 3.96022 -1.44029 0
M  V30 2246 H 217.004 3.23767 -0.429271 0
M  V30 2247 H 215.663 2.69031 -2.49034 0
M  V30 2248 H 215.311 4.85988 -1.29709 0
M  V30 2249 H 215.011 5.02528 -3.04531 0
M  V30 2250 H 216.535 5.63859 -2.34297 0
M  V30 2251 H 217.949 4.09651 -4.01073 0
M  V30 2252 H 216.346 3.72173 -4.70752 0
M  V30 2253 H 217.416 2.39665 -4.21532 0
M  V30 2254 N 218.759 1.29093 0.90403 0
M  V30 2255 C 219.722 1.1386 1.98919 0
M  V30 2256 C 220.722 0.0753457 1.60623 0
M  V30 2257 O 221.912 0.321931 1.71199 0
M  V30 2258 C 219.044 0.740198 3.32767 0
M  V30 2259 H 220.237 2.10246 2.13861 0
M  V30 2260 H 217.79 1.12218 1.08797 0
M  V30 2261 H 218.525 -0.223997 3.23525 0
M  V30 2262 H 218.31 1.50838 3.61926 0
M  V30 2263 H 219.8 0.656546 4.12407 0
M  V30 2264 N 220.237 -1.11381 1.11499 0
M  V30 2265 C 221.2 -2.15622 0.777153 0
M  V30 2266 C 222.2 -1.59504 -0.203779 0
M  V30 2267 O 223.39 -1.74188 0.020782 0
M  V30 2268 C 220.522 -3.40556 0.153116 0
M  V30 2269 H 221.715 -2.47021 1.70061 0
M  V30 2270 H 219.268 -1.26577 0.916952 0
M  V30 2271 H 220.003 -3.14767 -0.780536 0
M  V30 2272 H 219.788 -3.8257 0.859238 0
M  V30 2273 H 221.278 -4.17546 -0.0671044 0
M  V30 2274 N 221.715 -0.905404 -1.28997 0
M  V30 2275 C 222.961 -0.535039 -1.95615 0
M  V30 2276 C 223.294 0.917404 -1.71165 0
M  V30 2277 O 222.569 1.65123 -1.02785 0
M  V30 2278 C 222.852 -0.834918 -3.50287 0
M  V30 2279 C 222.705 -2.33948 -3.84172 0
M  V30 2280 C 224.024 -0.325318 -4.38896 0
M  V30 2281 H 221.143 -0.195861 -0.710498 0
M  V30 2282 H 223.785 -1.13313 -1.52513 0
M  V30 2283 H 221.935 -0.325904 -3.87131 0
M  V30 2284 H 223.607 -2.91847 -3.57243 0
M  V30 2285 H 221.85 -2.79789 -3.31513 0
M  V30 2286 H 222.521 -2.49987 -4.92149 0
M  V30 2287 H 224.997 -0.761256 -4.09077 0
M  V30 2288 H 223.873 -0.564295 -5.45992 0
M  V30 2289 H 224.134 0.774144 -4.35269 0
M  V30 2290 N 223.193 1.4272 -0.668489 0
M  V30 2291 C 224.156 2.292 0.00448567 0
M  V30 2292 C 225.156 1.43001 0.735339 0
M  V30 2293 O 226.346 1.64461 0.57429 0
M  V30 2294 C 223.478 3.25375 1.01705 0
M  V30 2295 H 224.671 2.90199 -0.756608 0
M  V30 2296 H 222.224 1.50254 -0.430506 0
M  V30 2297 H 222.959 2.69301 1.80686 0
M  V30 2298 H 222.744 3.88944 0.496463 0
M  V30 2299 H 224.234 3.90245 1.48655 0
M  V30 2300 N 224.671 0.411399 1.52136 0
M  V30 2301 C 225.603 -0.448386 2.24771 0
M  V30 2302 C 226.616 -1.00828 1.27818 0
M  V30 2303 O 227.805 -0.906841 1.53749 0
M  V30 2304 C 224.905 -1.63636 2.96777 0
M  V30 2305 C 224.078 -1.19995 4.20618 0
M  V30 2306 C 223.137 -2.25509 4.75428 0
M  V30 2307 O 222.163 -1.86007 5.3795 0
M  V30 2308 N 223.365 -3.577 4.57199 0
M  V30 2309 H 226.13 0.174025 2.99194 0
M  V30 2310 H 223.691 0.238897 1.60128 0
M  V30 2311 H 225.683 -2.33793 3.30338 0
M  V30 2312 H 224.253 -2.16465 2.25526 0
M  V30 2313 H 223.473 -0.326421 3.92846 0
M  V30 2314 H 224.761 -0.885365 5.01038 0
M  V30 2315 H 224.159 -3.92543 4.07341 0
M  V30 2316 H 222.716 -4.23827 4.95191 0
M  V30 2317 N 226.149 -1.5696 0.141893 0
M  V30 2318 C 227.096 -2.16501 -0.799737 0
M  V30 2319 C 228.066 -1.09643 -1.24771 0
M  V30 2320 O 229.251 -1.3766 -1.32115 0
M  V30 2321 C 226.391 -2.78679 -2.03549 0
M  V30 2322 C 225.504 -3.99914 -1.6338 0
M  V30 2323 C 224.639 -4.50106 -2.82096 0
M  V30 2324 C 223.678 -5.63819 -2.38275 0
M  V30 2325 N 222.815 -6.08651 -3.49983 0
M  V30 2326 H 227.655 -2.96632 -0.285179 0
M  V30 2327 H 225.192 -1.46533 -0.129053 0
M  V30 2328 H 227.15 -3.1287 -2.75986 0
M  V30 2329 H 225.78 -2.012 -2.52425 0
M  V30 2330 H 224.832 -3.71735 -0.807279 0
M  V30 2331 H 226.144 -4.82311 -1.27192 0
M  V30 2332 H 225.298 -4.86325 -3.62729 0
M  V30 2333 H 224.037 -3.66706 -3.21525 0
M  V30 2334 H 223.042 -5.2718 -1.56081 0
M  V30 2335 H 224.267 -6.49 -1.99938 0
M  V30 2336 H 222.213 -5.28188 -3.89042 0
M  V30 2337 H 222.13 -6.85961 -3.17794 0
M  V30 2338 H 223.398 -6.49515 -4.30988 0
M  V30 2339 N 227.627 0.131896 -1.57047 0
M  V30 2340 C 228.557 1.16384 -2.02428 0
M  V30 2341 C 229.538 1.43936 -0.90644 0
M  V30 2342 O 230.723 1.54599 -1.17528 0
M  V30 2343 C 227.853 2.49328 -2.4177 0
M  V30 2344 C 226.807 2.36266 -3.56879 0
M  V30 2345 C 226.133 3.74057 -3.8208 0
M  V30 2346 C 227.433 1.834 -4.89042 0
M  V30 2347 H 229.127 0.786433 -2.88887 0
M  V30 2348 H 226.673 0.376855 -1.38981 0
M  V30 2349 H 228.626 3.21759 -2.7212 0
M  V30 2350 H 227.35 2.88934 -1.52266 0
M  V30 2351 H 226.009 1.66286 -3.26718 0
M  V30 2352 H 225.657 4.11125 -2.89803 0
M  V30 2353 H 225.357 3.66174 -4.59554 0
M  V30 2354 H 226.881 4.48012 -4.1487 0
M  V30 2355 H 228.295 2.45636 -5.18011 0
M  V30 2356 H 226.692 1.8637 -5.70426 0
M  V30 2357 H 227.762 0.790662 -4.7841 0
M  V30 2358 N 229.106 1.52395 0.401703 0
M  V30 2359 C 230.331 1.70972 1.17403 0
M  V30 2360 C 230.756 0.421615 1.83314 0
M  V30 2361 O 230.114 -0.621564 1.70312 0
M  V30 2362 C 230.162 2.85151 2.20728 0
M  V30 2363 O 229.266 2.51238 3.27037 0
M  V30 2364 H 228.607 0.568927 0.342372 0
M  V30 2365 H 231.137 1.99131 0.469891 0
M  V30 2366 H 231.147 3.10279 2.64936 0
M  V30 2367 H 229.822 3.78603 1.7214 0
M  V30 2368 H 228.399 2.36808 2.88057 0
M  V30 2369 N 230.584 -0.659388 1.43143 0
M  V30 2370 C 231.531 -1.77249 1.47822 0
M  V30 2371 C 232.501 -1.62818 0.328558 0
M  V30 2372 O 233.686 -1.83151 0.534838 0
M  V30 2373 C 230.826 -3.15371 1.40126 0
M  V30 2374 C 229.939 -3.4098 2.65249 0
M  V30 2375 C 229.074 -4.68915 2.49584 0
M  V30 2376 C 228.113 -4.87608 3.70006 0
M  V30 2377 N 227.25 -6.06796 3.53189 0
M  V30 2378 H 232.09 -1.72584 2.42938 0
M  V30 2379 H 229.627 -0.842297 1.20598 0
M  V30 2380 H 231.585 -3.9521 1.33659 0
M  V30 2381 H 230.215 -3.19121 0.485964 0
M  V30 2382 H 229.267 -2.55282 2.8202 0
M  V30 2383 H 230.579 -3.50681 3.54717 0
M  V30 2384 H 229.733 -5.56871 2.4079 0
M  V30 2385 H 228.472 -4.61524 1.5763 0
M  V30 2386 H 227.477 -3.9809 3.79215 0
M  V30 2387 H 228.702 -4.96834 4.62961 0
M  V30 2388 H 226.648 -6.00549 2.63965 0
M  V30 2389 H 226.565 -6.17428 4.36255 0
M  V30 2390 H 227.833 -6.9739 3.48236 0
M  V30 2391 N 232.062 -1.29571 -0.897171 0
M  V30 2392 C 232.972 -1.16808 -2.03453 0
M  V30 2393 C 233.988 -0.0907471 -1.73763 0
M  V30 2394 O 235.164 -0.303312 -1.99103 0
M  V30 2395 C 232.229 -0.848264 -3.36163 0
M  V30 2396 C 231.29 -2.0097 -3.79354 0
M  V30 2397 C 230.523 -1.70505 -5.05731 0
M  V30 2398 O 230.746 -0.62718 -5.66941 0
M  V30 2399 O 229.68 -2.5538 -5.45036 0
M  V30 2400 H 233.506 -2.12325 -2.17144 0
M  V30 2401 H 231.091 -1.09047 -1.02123 0
M  V30 2402 H 232.973 -0.684581 -4.15802 0
M  V30 2403 H 231.648 0.0771071 -3.23608 0
M  V30 2404 H 230.555 -2.22863 -3.00471 0
M  V30 2405 H 231.888 -2.91636 -3.96496 0
M  V30 2406 N 233.54 1.10788 -1.12088 0
M  V30 2407 C 234.503 2.15207 -0.788577 0
M  V30 2408 C 235.503 1.59609 0.195317 0
M  V30 2409 O 236.693 1.74174 -0.0300193 0
M  V30 2410 C 233.825 3.4047 -0.171174 0
M  V30 2411 H 235.018 2.46116 -1.71368 0
M  V30 2412 H 232.571 1.26089 -0.923652 0
M  V30 2413 H 233.306 3.15176 0.763832 0
M  V30 2414 H 233.091 3.82109 -0.879514 0
M  V30 2415 H 234.581 4.17576 0.04496 0
M  V30 2416 N 235.018 0.912232 1.28515 0
M  V30 2417 C 236.264 0.554851 1.95686 0
M  V30 2418 C 236.619 -0.89138 1.70506 0
M  V30 2419 O 235.912 -1.62529 1.01464 0
M  V30 2420 C 236.106 0.798392 3.48368 0
M  V30 2421 C 235.935 2.26674 3.88393 0
M  V30 2422 C 234.705 2.91657 4.12631 0
M  V30 2423 C 236.903 3.24303 3.99164 0
M  V30 2424 N 234.885 4.28805 4.39317 0
M  V30 2425 C 236.256 4.4661 4.30046 0
M  V30 2426 C 238.311 3.19723 3.81683 0
M  V30 2427 C 237.014 5.64915 4.45268 0
M  V30 2428 C 239.04 4.37325 3.98121 0
M  V30 2429 C 238.402 5.58406 4.29375 0
M  V30 2430 H 234.501 0.252876 0.739985 0
M  V30 2431 H 237.085 1.17565 1.55199 0
M  V30 2432 H 235.256 0.20688 3.87849 0
M  V30 2433 H 236.988 0.405193 4.02666 0
M  V30 2434 H 233.743 2.42393 4.06869 0
M  V30 2435 H 234.167 4.99712 4.56746 0
M  V30 2436 H 238.809 2.27191 3.56573 0
M  V30 2437 H 236.527 6.57927 4.6921 0
M  V30 2438 H 240.113 4.35282 3.86033 0
M  V30 2439 H 238.993 6.47889 4.41825 0
M  V30 2440 N 236.496 -1.42363 0.676048 0
M  V30 2441 C 237.721 -2.06377 0.205705 0
M  V30 2442 C 238.146 -1.50463 -1.12883 0
M  V30 2443 O 237.504 -0.623619 -1.70237 0
M  V30 2444 C 237.552 -3.60277 0.152655 0
M  V30 2445 O 236.656 -4.02935 -0.87845 0
M  V30 2446 H 235.997 -0.655588 0.105359 0
M  V30 2447 H 238.527 -1.82475 0.925412 0
M  V30 2448 H 238.537 -4.07993 -0.0230675 0
M  V30 2449 H 237.212 -4.00346 1.12675 0
M  V30 2450 H 235.789 -3.66764 -0.673668 0
M  V30 2451 N 237.974 -0.419461 -1.51915 0
M  V30 2452 C 239.39 -0.0708431 -1.59443 0
M  V30 2453 C 239.59 1.41796 -1.43164 0
M  V30 2454 O 238.646 2.18596 -1.26381 0
M  V30 2455 C 239.959 -0.574991 -2.95151 0
M  V30 2456 C 241.507 -0.533867 -3.08413 0
M  V30 2457 C 241.982 -1.01469 -4.46618 0
M  V30 2458 N 243.473 -0.971939 -4.52888 0
M  V30 2459 C 244.208 -1.31505 -5.58116 0
M  V30 2460 N 243.704 -1.73014 -6.70849 0
M  V30 2461 N 245.497 -1.23436 -5.48379 0
M  V30 2462 H 237.648 -1.38836 -1.60743 0
M  V30 2463 H 239.911 -0.570998 -0.756747 0
M  V30 2464 H 239.617 -1.61597 -3.12377 0
M  V30 2465 H 239.491 0.00979777 -3.77199 0
M  V30 2466 H 241.878 0.498086 -2.90866 0
M  V30 2467 H 241.959 -1.15484 -2.28248 0
M  V30 2468 H 241.603 -2.04502 -4.6491 0
M  V30 2469 H 241.533 -0.370433 -5.25295 0
M  V30 2470 H 244.024 -0.666893 -3.71969 0
M  V30 2471 H 244.337 -1.97479 -7.47143 0
M  V30 2472 H 242.682 -1.76926 -6.72103 0
M  V30 2473 H 245.873 -0.908869 -4.59192 0
M  V30 2474 H 246.046 -1.50506 -6.30279 0
M  V30 2475 N 239.452 1.56882 -0.150215 0
M  V30 2476 C 240.698 1.96518 0.500834 0
M  V30 2477 C 241.031 1.03527 1.64304 0
M  V30 2478 O 240.306 0.0782751 1.94342 0
M  V30 2479 C 240.589 3.45822 1.00395 0
M  V30 2480 C 240.442 4.49591 -0.136983 0
M  V30 2481 C 241.761 3.97704 1.88467 0
M  V30 2482 H 238.88 0.714535 0.18058 0
M  V30 2483 H 241.522 1.88577 -0.232091 0
M  V30 2484 H 239.672 3.5272 1.62851 0
M  V30 2485 H 241.344 4.5477 -0.77343 0
M  V30 2486 H 239.587 4.26441 -0.795652 0
M  V30 2487 H 240.258 5.51402 0.256815 0
M  V30 2488 H 242.734 3.93304 1.35834 0
M  V30 2489 H 241.61 5.0263 2.20578 0
M  V30 2490 H 241.871 3.40252 2.82279 0
M  V30 2491 N 240.93 -0.123565 1.57115 0
M  V30 2492 C 242.176 -0.833386 1.84885 0
M  V30 2493 C 242.509 -1.79742 0.735292 0
M  V30 2494 O 241.784 -1.92764 -0.25925 0
M  V30 2495 C 242.067 -1.5873 3.23228 0
M  V30 2496 C 241.92 -0.643183 4.45178 0
M  V30 2497 C 243.239 -2.54453 3.59085 0
M  V30 2498 H 240.358 -0.301518 0.6725 0
M  V30 2499 H 243 -0.097778 1.89748 0
M  V30 2500 H 241.15 -2.21438 3.19214 0
M  V30 2501 H 242.822 -0.0253015 4.61293 0
M  V30 2502 H 241.065 0.0456139 4.33776 0
M  V30 2503 H 241.736 -1.20724 5.38637 0
M  V30 2504 H 244.212 -2.01853 3.63861 0
M  V30 2505 H 243.088 -3.04238 4.5687 0
M  V30 2506 H 243.349 -3.36906 2.86264 0
M  V30 2507 N 242.408 -1.52605 -0.393616 0
M  V30 2508 C 243.657 -1.66649 -1.13627 0
M  V30 2509 C 243.97 -0.410364 -1.91247 0
M  V30 2510 O 245.176 -0.430854 -2.68059 0
M  V30 2511 C 243.632 -2.9449 -2.06891 0
M  V30 2512 C 243.24 -4.27266 -1.34714 0
M  V30 2513 C 244.984 -3.17899 -2.81319 0
M  V30 2514 C 242.891 -5.46217 -2.26717 0
M  V30 2515 H 241.821 -0.62084 -0.427871 0
M  V30 2516 H 244.472 -1.791 -0.399428 0
M  V30 2517 H 242.854 -2.75774 -2.84191 0
M  V30 2518 H 244.028 -4.56518 -0.626714 0
M  V30 2519 H 242.343 -4.10081 -0.722643 0
M  V30 2520 H 244.94 -4.03949 -3.50328 0
M  V30 2521 H 245.283 -2.32777 -3.45139 0
M  V30 2522 H 245.816 -3.37159 -2.11113 0
M  V30 2523 H 242.555 -6.33733 -1.67521 0
M  V30 2524 H 242.075 -5.21283 -2.96689 0
M  V30 2525 H 243.754 -5.7991 -2.86903 0
M  V30 2526 N 243.887 0.651787 -1.4349 0
M  V30 2527 C 244.85 1.74647 -1.48429 0
M  V30 2528 C 245.85 1.56513 -0.368817 0
M  V30 2529 O 247.04 1.62385 -0.630623 0
M  V30 2530 C 244.172 3.13533 -1.33827 0
M  V30 2531 H 245.365 1.71649 -2.4592 0
M  V30 2532 H 242.918 0.863573 -1.30277 0
M  V30 2533 H 243.653 3.22142 -0.37349 0
M  V30 2534 H 243.438 3.28101 -2.14691 0
M  V30 2535 H 244.928 3.93356 -1.40218 0
M  V30 2536 N 245.365 1.30045 0.890287 0
M  V30 2537 C 246.595 1.21296 1.67245 0
M  V30 2538 C 247.003 -0.227471 1.87828 0
M  V30 2539 O 246.346 -1.16296 1.422 0
M  V30 2540 C 246.408 1.86519 3.07329 0
M  V30 2541 C 246.072 3.35837 3.09939 0
M  V30 2542 C 247.069 4.31915 2.89389 0
M  V30 2543 C 244.754 3.77196 3.31706 0
M  V30 2544 C 246.748 5.67325 2.90552 0
M  V30 2545 C 244.435 5.12725 3.32499 0
M  V30 2546 C 245.433 6.076 3.11947 0
M  V30 2547 O 245.121 7.40655 3.12547 0
M  V30 2548 H 244.853 0.4211 0.528821 0
M  V30 2549 H 247.407 1.72111 1.12103 0
M  V30 2550 H 245.637 1.30228 3.64112 0
M  V30 2551 H 247.326 1.71963 3.67673 0
M  V30 2552 H 248.092 4.01294 2.72375 0
M  V30 2553 H 243.971 3.03796 3.4674 0
M  V30 2554 H 247.515 6.41354 2.74429 0
M  V30 2555 H 243.412 5.42988 3.49047 0
M  V30 2556 H 244.18 7.49577 3.28749 0
M  V30 2557 N 246.843 -1.10192 1.12674 0
M  V30 2558 C 247.753 -2.20172 0.810026 0
M  V30 2559 C 248.769 -1.72821 -0.202188 0
M  V30 2560 O 249.945 -2.01369 -0.0351691 0
M  V30 2561 C 247.01 -3.45631 0.272007 0
M  V30 2562 C 246.071 -4.07704 1.34447 0
M  V30 2563 C 245.304 -5.27175 0.832029 0
M  V30 2564 O 245.527 -5.69425 -0.333284 0
M  V30 2565 O 244.461 -5.80168 1.60277 0
M  V30 2566 H 248.287 -2.49701 1.72867 0
M  V30 2567 H 245.872 -1.18977 0.903597 0
M  V30 2568 H 247.754 -4.21394 -0.0230219 0
M  V30 2569 H 246.429 -3.17723 -0.619164 0
M  V30 2570 H 245.336 -3.33614 1.6927 0
M  V30 2571 H 246.669 -4.3982 2.2095 0
M  V30 2572 N 248.321 -0.919034 -1.28029 0
M  V30 2573 C 249.732 -0.600735 -1.76771 0
M  V30 2574 C 250.083 0.884024 -1.75156 0
M  V30 2575 O 249.208 1.69163 -1.34956 0
M  V30 2576 C 249.803 -1.08372 -3.21 0
M  V30 2577 C 248.362 -0.816248 -3.67443 0
M  V30 2578 C 247.509 -1.24742 -2.47658 0
M  V30 2579 H 250.46 -1.09974 -1.14418 0
M  V30 2580 H 250.481 -0.427512 -3.78091 0
M  V30 2581 H 249.993 -2.16437 -3.22144 0
M  V30 2582 H 248.094 0.250968 -3.71754 0
M  V30 2583 H 248.207 -1.4277 -4.57333 0
M  V30 2584 H 246.571 -0.666083 -2.45836 0
M  V30 2585 H 247.354 -2.33653 -2.51518 0
M  V30 2586 N 249.799 1.42003 -0.683588 0
M  V30 2587 C 251.045 2.01712 -0.209825 0
M  V30 2588 C 251.378 1.53968 1.18353 0
M  V30 2589 O 250.653 0.745661 1.79639 0
M  V30 2590 C 250.936 3.59202 -0.254197 0
M  V30 2591 C 250.789 4.17102 -1.68363 0
M  V30 2592 C 252.108 4.38344 0.392709 0
M  V30 2593 H 249.227 0.732891 -0.0777189 0
M  V30 2594 H 251.869 1.68909 -0.87004 0
M  V30 2595 H 250.019 3.87278 0.307954 0
M  V30 2596 H 251.691 3.99946 -2.29871 0
M  V30 2597 H 249.934 3.72597 -2.22157 0
M  V30 2598 H 250.605 5.26249 -1.6663 0
M  V30 2599 H 253.081 4.16011 -0.0859162 0
M  V30 2600 H 251.957 5.47901 0.331063 0
M  V30 2601 H 252.218 4.16887 1.47164 0
M  V30 2602 N 251.277 0.427512 1.51691 0
M  V30 2603 C 252.523 -0.134744 2.02953 0
M  V30 2604 C 252.878 -1.41235 1.30654 0
M  V30 2605 O 252.171 -1.87168 0.409713 0
M  V30 2606 C 252.365 -0.418249 3.54944 0
M  V30 2607 C 252.194 0.830327 4.41968 0
M  V30 2608 C 250.964 1.36097 4.86627 0
M  V30 2609 C 253.162 1.7137 4.84909 0
M  V30 2610 N 251.144 2.56311 5.57833 0
M  V30 2611 C 252.515 2.76195 5.55082 0
M  V30 2612 C 254.57 1.72928 4.66905 0
M  V30 2613 C 253.273 3.82512 6.09161 0
M  V30 2614 C 255.299 2.78175 5.21894 0
M  V30 2615 C 254.661 3.8172 5.92004 0
M  V30 2616 H 250.76 -0.0103958 0.781931 0
M  V30 2617 H 253.344 0.585981 1.85673 0
M  V30 2618 H 251.515 -1.10801 3.7226 0
M  V30 2619 H 253.247 -0.970999 3.92879 0
M  V30 2620 H 250.002 0.916311 4.64651 0
M  V30 2621 H 250.426 3.17242 5.98069 0
M  V30 2622 H 255.068 0.942081 4.12171 0
M  V30 2623 H 252.786 4.62077 6.62956 0
M  V30 2624 H 256.372 2.8031 5.09821 0
M  V30 2625 H 255.252 4.61821 6.33791 0
M  V30 2626 N 252.755 -1.56801 0.158532 0
M  V30 2627 C 253.718 -2.16138 -0.762705 0
M  V30 2628 C 254.718 -1.1061 -1.16713 0
M  V30 2629 O 255.908 -1.36191 -1.08617 0
M  V30 2630 C 253.04 -2.73386 -2.03649 0
M  V30 2631 H 254.233 -2.98886 -0.246354 0
M  V30 2632 H 251.786 -1.56035 -0.0909744 0
M  V30 2633 H 252.521 -1.94335 -2.59623 0
M  V30 2634 H 252.306 -3.50601 -1.75559 0
M  V30 2635 H 253.796 -3.19065 -2.6942 0
M  V30 2636 N 254.233 0.115231 -1.57178 0
M  V30 2637 C 255.482 0.820945 -1.84237 0
M  V30 2638 C 255.795 1.80866 -0.744761 0
M  V30 2639 O 257.001 2.56083 -0.901871 0
M  V30 2640 C 255.457 1.51072 -3.26658 0
M  V30 2641 C 255.065 0.563795 -4.44438 0
M  V30 2642 C 256.809 2.20134 -3.62962 0
M  V30 2643 C 254.716 1.25701 -5.77887 0
M  V30 2644 H 253.646 0.310328 -0.687177 0
M  V30 2645 H 256.297 0.0737134 -1.83352 0
M  V30 2646 H 254.679 2.30471 -3.22024 0
M  V30 2647 H 255.853 -0.197247 -4.60378 0
M  V30 2648 H 254.168 -0.0200638 -4.16395 0
M  V30 2649 H 256.765 2.72696 -4.59936 0
M  V30 2650 H 257.108 2.98107 -2.90582 0
M  V30 2651 H 257.641 1.47619 -3.69396 0
M  V30 2652 H 254.38 0.518493 -6.53446 0
M  V30 2653 H 253.9 1.98997 -5.65827 0
M  V30 2654 H 255.579 1.78915 -6.2177 0
M  V30 2655 N 255.711 1.52812 0.385517 0
M  V30 2656 C 256.959 1.67694 1.12797 0
M  V30 2657 C 257.28 0.421115 1.90399 0
M  V30 2658 O 256.55 -0.564551 1.87589 0
M  V30 2659 H 255.13 0.618155 0.419396 0
M  V30 2660 H 257.792 1.89938 0.436972 0
M  V30 2661 H 256.888 2.52896 1.82894 0
M  V30 2662 N 257.189 -0.644168 1.43834 0
M  V30 2663 C 258.417 -1.43147 1.49387 0
M  V30 2664 C 258.832 -1.88452 0.114583 0
M  V30 2665 O 258.189 -1.60047 -0.876989 0
M  V30 2666 C 258.24 -2.66046 2.44748 0
M  V30 2667 O 257.961 -2.22633 3.77314 0
M  V30 2668 C 259.462 -3.59311 2.59635 0
M  V30 2669 H 256.682 -0.439447 0.507077 0
M  V30 2670 H 259.226 -0.78895 1.88669 0
M  V30 2671 H 257.381 -3.26418 2.08638 0
M  V30 2672 H 257.795 -3.02216 4.28679 0
M  V30 2673 H 259.269 -4.42187 3.30416 0
M  V30 2674 H 259.746 -4.07259 1.64427 0
M  V30 2675 H 260.352 -3.04816 2.96593 0
M  V30 2676 N 258.668 -1.30515 -0.883378 0
M  V30 2677 C 259.916 -1.19194 -1.63209 0
M  V30 2678 C 260.237 0.253205 -1.93349 0
M  V30 2679 O 259.507 1.17025 -1.57105 0
M  V30 2680 H 258.087 -0.438148 -0.605009 0
M  V30 2681 H 260.749 -1.63663 -1.05832 0
M  V30 2682 H 259.845 -1.75396 -2.58153 0
M  V30 2683 N 260.146 1.09593 -1.13257 0
M  V30 2684 C 261.093 2.1618 -0.808381 0
M  V30 2685 C 262.063 1.64517 0.228754 0
M  V30 2686 O 263.248 1.9053 0.101381 0
M  V30 2687 C 260.388 3.43973 -0.278675 0
M  V30 2688 C 259.501 4.09545 -1.37466 0
M  V30 2689 C 258.636 5.25088 -0.803479 0
M  V30 2690 C 257.675 5.82579 -1.87799 0
M  V30 2691 N 256.812 6.89486 -1.32488 0
M  V30 2692 H 261.652 2.43254 -1.72138 0
M  V30 2693 H 259.189 1.19392 -0.859294 0
M  V30 2694 H 261.147 4.17174 0.0465583 0
M  V30 2695 H 259.777 3.17223 0.597459 0
M  V30 2696 H 258.829 3.34226 -1.81652 0
M  V30 2697 H 260.141 4.48307 -2.18684 0
M  V30 2698 H 259.295 6.05178 -0.429427 0
M  V30 2699 H 258.034 4.87684 0.0397956 0
M  V30 2700 H 257.039 5.01152 -2.26113 0
M  V30 2701 H 258.264 6.22045 -2.72463 0
M  V30 2702 H 256.21 6.54064 -0.503575 0
M  V30 2703 H 256.127 7.27007 -2.07355 0
M  V30 2704 H 257.395 7.73336 -0.978336 0
M  V30 2705 N 261.624 0.925811 1.2754 0
M  V30 2706 C 262.87 0.566092 1.94739 0
M  V30 2707 C 263.203 -0.890057 1.72603 0
M  V30 2708 O 262.478 -1.63467 1.05399 0
M  V30 2709 C 262.761 0.89054 3.48915 0
M  V30 2710 C 262.614 2.4003 3.80402 0
M  V30 2711 C 263.933 0.395101 4.38323 0
M  V30 2712 H 261.052 0.20714 0.707292 0
M  V30 2713 H 263.694 1.15725 1.50691 0
M  V30 2714 H 261.844 0.387452 3.86563 0
M  V30 2715 H 263.516 2.97494 3.52555 0
M  V30 2716 H 261.759 2.85028 3.2702 0
M  V30 2717 H 262.43 2.57785 4.8811 0
M  V30 2718 H 264.906 0.826241 4.07814 0
M  V30 2719 H 263.782 0.651086 5.45025 0
M  V30 2720 H 264.043 -0.704798 4.36446 0
M  V30 2721 N 263.102 -1.41638 0.69111 0
M  V30 2722 C 264.065 -2.29178 0.0319786 0
M  V30 2723 C 265.065 -1.44153 -0.712496 0
M  V30 2724 O 266.255 -1.65354 -0.548053 0
M  V30 2725 C 263.387 -3.26952 -0.965161 0
M  V30 2726 H 264.58 -2.88959 0.802681 0
M  V30 2727 H 262.133 -1.4955 0.454356 0
M  V30 2728 H 262.868 -2.72142 -1.76378 0
M  V30 2729 H 262.653 -3.89685 -0.434522 0
M  V30 2730 H 264.143 -3.92561 -1.42428 0
M  V30 2731 N 264.58 -0.43555 -1.51462 0
M  V30 2732 C 265.808 0.130242 -2.0649 0
M  V30 2733 C 266.223 1.36614 -1.30315 0
M  V30 2734 O 265.58 1.78869 -0.362223 0
M  V30 2735 C 265.631 0.454253 -3.58635 0
M  V30 2736 O 265.352 -0.73259 -4.31931 0
M  V30 2737 C 266.853 1.07091 -4.3017 0
M  V30 2738 H 264.073 0.00871669 -0.670943 0
M  V30 2739 H 266.617 -0.614117 -1.95061 0
M  V30 2740 H 264.772 1.14851 -3.69984 0
M  V30 2741 H 265.186 -0.455787 -5.22516 0
M  V30 2742 H 266.66 1.24764 -5.37716 0
M  V30 2743 H 267.137 2.05144 -3.88346 0
M  V30 2744 H 267.743 0.416089 -4.2326 0
M  V30 2745 N 266.058 1.56714 -0.166846 0
M  V30 2746 C 267.469 1.83378 0.350646 0
M  V30 2747 C 267.82 1.08646 1.63372 0
M  V30 2748 O 266.945 0.338058 2.13743 0
M  V30 2749 C 267.54 3.32643 0.642963 0
M  V30 2750 C 266.099 3.59818 1.10491 0
M  V30 2751 C 265.246 2.76954 0.138411 0
M  V30 2752 H 268.197 1.53803 -0.391193 0
M  V30 2753 H 268.218 3.49878 1.49551 0
M  V30 2754 H 267.73 3.87007 -0.291055 0
M  V30 2755 H 265.831 3.1086 2.05418 0
M  V30 2756 H 265.944 4.68178 1.01716 0
M  V30 2757 H 264.308 2.4666 0.634911 0
M  V30 2758 H 265.091 3.34097 -0.789549 0
M  V30 2759 N 267.536 -0.106894 1.57237 0
M  V30 2760 C 268.468 -1.15646 1.97885 0
M  V30 2761 C 269.481 -1.36981 0.879779 0
M  V30 2762 O 270.67 -1.35841 1.15799 0
M  V30 2763 C 267.77 -2.51425 2.27241 0
M  V30 2764 C 266.943 -2.50529 3.58545 0
M  V30 2765 C 266.002 -3.68145 3.75973 0
M  V30 2766 O 265.028 -3.51176 4.47956 0
M  V30 2767 N 266.23 -4.87177 3.15656 0
M  V30 2768 H 268.995 -0.81059 2.8853 0
M  V30 2769 H 266.556 -0.296024 1.59171 0
M  V30 2770 H 268.548 -3.28689 2.36105 0
M  V30 2771 H 267.118 -2.78147 1.42663 0
M  V30 2772 H 266.338 -1.58894 3.60758 0
M  V30 2773 H 267.626 -2.46997 4.44826 0
M  V30 2774 H 267.024 -5.03868 2.57165 0
M  V30 2775 H 265.581 -5.62075 3.30023 0
M  V30 2776 N 269.014 -1.53014 -0.377408 0
M  V30 2777 C 269.946 -1.74884 -1.48149 0
M  V30 2778 C 270.959 -0.629433 -1.5014 0
M  V30 2779 O 272.148 -0.905416 -1.53833 0
M  V30 2780 C 269.248 -1.80299 -2.86959 0
M  V30 2781 C 268.421 -3.09776 -3.08801 0
M  V30 2782 C 267.48 -3.06586 -4.27658 0
M  V30 2783 O 266.506 -3.80419 -4.23403 0
M  V30 2784 N 267.708 -2.26578 -5.34455 0
M  V30 2785 H 270.473 -2.70147 -1.29771 0
M  V30 2786 H 268.034 -1.51646 -0.56703 0
M  V30 2787 H 270.026 -1.75657 -3.64591 0
M  V30 2788 H 268.596 -0.92372 -2.98641 0
M  V30 2789 H 267.816 -3.27815 -2.18931 0
M  V30 2790 H 269.104 -3.95366 -3.20255 0
M  V30 2791 H 268.502 -1.66081 -5.40771 0
M  V30 2792 H 267.059 -2.27766 -6.10709 0
M  V30 2793 N 270.492 0.636531 -1.44174 0
M  V30 2794 C 271.455 1.73063 -1.50273 0
M  V30 2795 C 272.455 1.56113 -0.385397 0
M  V30 2796 O 273.645 1.61707 -0.64781 0
M  V30 2797 C 270.777 3.12096 -1.37145 0
M  V30 2798 H 271.97 1.69031 -2.47727 0
M  V30 2799 H 269.523 0.849706 -1.31186 0
M  V30 2800 H 270.258 3.21728 -0.407636 0
M  V30 2801 H 270.043 3.25805 -2.18159 0
M  V30 2802 H 271.533 3.91846 -1.44382 0
M  V30 2803 N 271.97 1.30982 0.876444 0
M  V30 2804 C 272.902 1.13902 1.98894 0
M  V30 2805 C 273.915 0.0798815 1.62604 0
M  V30 2806 O 275.104 0.326743 1.75484 0
M  V30 2807 C 272.204 0.716699 3.31235 0
M  V30 2808 C 271.377 1.85945 3.95908 0
M  V30 2809 C 270.436 1.42426 5.06558 0
M  V30 2810 O 269.462 2.13287 5.27729 0
M  V30 2811 N 270.664 0.308025 5.79682 0
M  V30 2812 H 273.429 2.09724 2.14094 0
M  V30 2813 H 270.99 1.2323 1.05004 0
M  V30 2814 H 272.982 0.408403 4.02634 0
M  V30 2815 H 271.552 -0.149719 3.12241 0
M  V30 2816 H 270.772 2.33541 3.17573 0
M  V30 2817 H 272.06 2.62503 4.35855 0
M  V30 2818 H 271.458 -0.282241 5.64995 0
M  V30 2819 H 270.015 0.0592282 6.51773 0
M  V30 2820 N 273.449 -1.08991 1.13837 0
M  V30 2821 C 274.359 -2.19301 0.833333 0
M  V30 2822 C 275.375 -1.73026 -0.183847 0
M  V30 2823 O 276.551 -2.01395 -0.0138092 0
M  V30 2824 C 273.616 -3.45323 0.308651 0
M  V30 2825 C 272.677 -4.06255 1.38764 0
M  V30 2826 C 271.91 -5.26262 0.887896 0
M  V30 2827 O 272.133 -5.69747 -0.27287 0
M  V30 2828 O 271.067 -5.78435 1.66421 0
M  V30 2829 H 274.893 -2.47854 1.75506 0
M  V30 2830 H 272.478 -1.18012 0.916166 0
M  V30 2831 H 274.36 -4.21394 0.0216739 0
M  V30 2832 H 273.035 -3.18362 -0.585431 0
M  V30 2833 H 271.942 -3.318 1.72799 0
M  V30 2834 H 273.275 -4.37452 2.25602 0
M  V30 2835 N 274.927 -0.932562 -1.27047 0
M  V30 2836 C 276.173 -0.576412 -1.94436 0
M  V30 2837 C 276.506 0.880891 -1.73072 0
M  V30 2838 O 275.781 1.62905 -1.06264 0
M  V30 2839 C 276.064 -0.909031 -3.48437 0
M  V30 2840 C 275.917 -2.42044 -3.79123 0
M  V30 2841 C 277.236 -0.418341 -4.38107 0
M  V30 2842 H 274.355 -0.210888 -0.706184 0
M  V30 2843 H 276.997 -1.16522 -1.50075 0
M  V30 2844 H 275.147 -0.407947 -3.86352 0
M  V30 2845 H 276.819 -2.99359 -3.50973 0
M  V30 2846 H 275.062 -2.86758 -3.25503 0
M  V30 2847 H 275.733 -2.6037 -4.86736 0
M  V30 2848 H 278.209 -0.847856 -4.0737 0
M  V30 2849 H 277.085 -0.679981 -5.44672 0
M  V30 2850 H 277.346 0.681642 -4.36814 0
M  V30 2851 N 276.405 1.4127 -0.698611 0
M  V30 2852 C 277.355 2.27997 -0.0119836 0
M  V30 2853 C 278.339 1.42363 0.749765 0
M  V30 2854 O 279.531 1.65607 0.624758 0
M  V30 2855 C 276.66 3.30702 0.921458 0
M  V30 2856 C 275.746 4.23814 0.155796 0
M  V30 2857 N 276.137 4.98572 -0.852015 0
M  V30 2858 C 274.435 4.44284 0.390836 0
M  V30 2859 C 275.136 5.66744 -1.3106 0
M  V30 2860 N 274.112 5.39867 -0.635944 0
M  V30 2861 H 277.914 2.83232 -0.784649 0
M  V30 2862 H 275.428 1.53518 -0.529711 0
M  V30 2863 H 277.425 3.91661 1.42854 0
M  V30 2864 H 276.085 2.77028 1.69369 0
M  V30 2865 H 277.096 5.03024 -1.23235 0
M  V30 2866 H 273.773 4.01614 1.14071 0
M  V30 2867 H 275.163 6.36672 -2.14707 0
M  V30 2868 N 277.883 0.443576 1.51229 0
M  V30 2869 C 278.793 -0.370721 2.31652 0
M  V30 2870 C 279.809 -1.02186 1.40833 0
M  V30 2871 O 280.985 -1.01586 1.73903 0
M  V30 2872 C 278.05 -1.45376 3.14749 0
M  V30 2873 C 277.111 -0.822099 4.21355 0
M  V30 2874 C 276.344 -1.85353 5.0048 0
M  V30 2875 O 276.567 -3.07656 4.80316 0
M  V30 2876 O 275.501 -1.4406 5.84406 0
M  V30 2877 H 279.327 0.286002 3.0235 0
M  V30 2878 H 276.912 0.20598 1.47973 0
M  V30 2879 H 278.794 -2.08173 3.66391 0
M  V30 2880 H 277.469 -2.09445 2.46809 0
M  V30 2881 H 276.376 -0.155909 3.73775 0
M  V30 2882 H 277.709 -0.224797 4.91686 0
M  V30 2883 N 279.361 -1.56624 0.175154 0
M  V30 2884 C 280.291 -2.21155 -0.749195 0
M  V30 2885 C 281.272 -1.16836 -1.23626 0
M  V30 2886 O 282.457 -1.45277 -1.28873 0
M  V30 2887 C 279.587 -2.8553 -1.97711 0
M  V30 2888 C 278.541 -3.95921 -1.62575 0
M  V30 2889 C 277.867 -4.47365 -2.92864 0
M  V30 2890 C 279.167 -5.15323 -0.850838 0
M  V30 2891 H 280.861 -2.98653 -0.211295 0
M  V30 2892 H 278.407 -1.43651 -0.100188 0
M  V30 2893 H 280.36 -3.2935 -2.62881 0
M  V30 2894 H 279.084 -2.05406 -2.53921 0
M  V30 2895 H 277.743 -3.52762 -0.997719 0
M  V30 2896 H 277.391 -3.64027 -3.47122 0
M  V30 2897 H 277.091 -5.21839 -2.70106 0
M  V30 2898 H 278.615 -4.93873 -3.59056 0
M  V30 2899 H 280.029 -5.55812 -1.40521 0
M  V30 2900 H 278.426 -5.95739 -0.722154 0
M  V30 2901 H 279.496 -4.84661 0.152082 0
M  V30 2902 N 280.839 0.0985539 -1.57292 0
M  V30 2903 C 281.769 1.12064 -2.04851 0
M  V30 2904 C 282.75 1.41981 -0.936767 0
M  V30 2905 O 283.935 1.52071 -1.20781 0
M  V30 2906 C 281.065 2.44144 -2.47004 0
M  V30 2907 C 280.019 2.28643 -3.6181 0
M  V30 2908 C 279.345 3.65869 -3.89929 0
M  V30 2909 C 280.645 1.72986 -4.92822 0
M  V30 2910 H 282.339 0.724979 -2.9049 0
M  V30 2911 H 279.885 0.34729 -1.39749 0
M  V30 2912 H 281.838 3.15914 -2.78884 0
M  V30 2913 H 280.562 2.85639 -1.5836 0
M  V30 2914 H 279.221 1.59318 -3.30172 0
M  V30 2915 H 278.869 4.04885 -2.98458 0
M  V30 2916 H 278.569 3.56344 -4.67218 0
M  V30 2917 H 280.093 4.39112 -4.2428 0
M  V30 2918 H 281.507 2.34593 -5.23105 0
M  V30 2919 H 279.904 1.74229 -5.74251 0
M  V30 2920 H 280.974 0.689007 -4.7998 0
M  V30 2921 N 282.317 1.53212 0.369288 0
M  V30 2922 C 283.733 1.42902 0.710712 0
M  V30 2923 C 283.933 0.565135 1.93413 0
M  V30 2924 O 282.989 0.0461484 2.52458 0
M  V30 2925 C 284.302 2.86042 0.927382 0
M  V30 2926 C 285.85 2.9565 1.02762 0
M  V30 2927 C 286.325 4.39843 1.27679 0
M  V30 2928 N 287.816 4.43256 1.34457 0
M  V30 2929 C 288.551 5.51929 1.55439 0
M  V30 2930 N 288.047 6.70655 1.73762 0
M  V30 2931 N 289.84 5.39502 1.57779 0
M  V30 2932 H 281.991 2.07888 -0.435457 0
M  V30 2933 H 284.254 0.938661 -0.132739 0
M  V30 2934 H 283.96 3.51557 0.100287 0
M  V30 2935 H 283.834 3.29472 1.83653 0
M  V30 2936 H 286.221 2.30291 1.84527 0
M  V30 2937 H 286.302 2.5562 0.0959504 0
M  V30 2938 H 285.946 5.05774 0.464175 0
M  V30 2939 H 285.876 4.77443 2.22162 0
M  V30 2940 H 288.367 3.5769 1.21926 0
M  V30 2941 H 288.68 7.49248 1.89335 0
M  V30 2942 H 287.025 6.73648 1.70948 0
M  V30 2943 H 290.216 4.45713 1.43029 0
M  V30 2944 H 290.389 6.2426 1.7379 0
M  V30 2945 N 283.795 -0.628877 1.44509 0
M  V30 2946 C 285.211 -0.947305 1.28446 0
M  V30 2947 C 285.411 -2.00275 0.221872 0
M  V30 2948 O 284.467 -2.49447 -0.391471 0
M  V30 2949 C 285.78 -1.40843 2.65676 0
M  V30 2950 C 287.328 -1.52379 2.73404 0
M  V30 2951 C 287.803 -2.01875 4.11109 0
M  V30 2952 N 289.294 -2.09142 4.13296 0
M  V30 2953 C 290.029 -2.48615 5.16699 0
M  V30 2954 N 289.525 -2.87209 6.30462 0
M  V30 2955 N 291.318 -2.48768 5.04054 0
M  V30 2956 H 283.469 0.0690977 2.12288 0
M  V30 2957 H 285.732 -0.0317164 0.947469 0
M  V30 2958 H 285.438 -0.707206 3.44516 0
M  V30 2959 H 285.312 -2.37902 2.92716 0
M  V30 2960 H 287.699 -2.21598 1.9488 0
M  V30 2961 H 287.78 -0.536898 2.50102 0
M  V30 2962 H 287.424 -1.3325 4.90109 0
M  V30 2963 H 287.354 -3.0144 4.31789 0
M  V30 2964 H 289.845 -1.81991 3.31191 0
M  V30 2965 H 290.158 -3.16149 7.05174 0
M  V30 2966 H 288.503 -2.84955 6.33897 0
M  V30 2967 H 291.694 -2.18009 4.14234 0
M  V30 2968 H 291.867 -2.79207 5.84763 0
M  V30 2969 N 285.273 -1.31445 -0.869486 0
M  V30 2970 C 286.519 -1.22347 -1.62489 0
M  V30 2971 C 286.874 0.216204 -1.91181 0
M  V30 2972 O 286.167 1.14977 -1.53268 0
M  V30 2973 C 286.361 -2.00145 -2.96102 0
M  V30 2974 C 286.19 -3.51531 -2.80456 0
M  V30 2975 C 284.96 -4.20882 -2.79618 0
M  V30 2976 C 287.158 -4.46471 -2.5528 0
M  V30 2977 N 285.14 -5.58421 -2.55027 0
M  V30 2978 C 286.511 -5.71682 -2.39957 0
M  V30 2979 C 288.566 -4.35892 -2.40629 0
M  V30 2980 C 287.269 -6.87511 -2.11472 0
M  V30 2981 C 289.295 -5.51505 -2.13532 0
M  V30 2982 C 288.657 -6.75707 -1.98998 0
M  V30 2983 H 284.756 -0.502815 -0.598917 0
M  V30 2984 H 287.34 -1.65639 -1.02332 0
M  V30 2985 H 285.511 -1.59221 -3.54264 0
M  V30 2986 H 287.243 -1.83063 -3.60929 0
M  V30 2987 H 283.998 -3.72857 -2.92018 0
M  V30 2988 H 284.422 -6.30841 -2.45701 0
M  V30 2989 H 289.064 -3.40533 -2.50593 0
M  V30 2990 H 286.782 -7.82897 -2.00245 0
M  V30 2991 H 290.368 -5.45238 -2.02995 0
M  V30 2992 H 289.248 -7.63655 -1.78326 0
M  V30 2993 N 286.751 1.08385 -1.14413 0
M  V30 2994 C 287.997 1.81044 -0.913834 0
M  V30 2995 C 288.33 1.86004 0.558209 0
M  V30 2996 O 287.605 1.33606 1.4135 0
M  V30 2997 C 287.888 3.26648 -1.51569 0
M  V30 2998 C 287.741 3.29895 -3.0576 0
M  V30 2999 C 289.06 4.23629 -1.19273 0
M  V30 3000 H 286.179 0.65727 -0.333414 0
M  V30 3001 H 288.821 1.26896 -1.41412 0
M  V30 3002 H 286.971 3.72889 -1.09023 0
M  V30 3003 H 288.643 2.91977 -3.57137 0
M  V30 3004 H 286.886 2.69163 -3.40197 0
M  V30 3005 H 287.557 4.32516 -3.42977 0
M  V30 3006 H 290.033 3.85727 -1.56057 0
M  V30 3007 H 288.909 5.23822 -1.64017 0
M  V30 3008 H 289.17 4.41968 -0.108068 0
M  V30 3009 N 288.23 0.939286 1.26551 0
M  V30 3010 C 289.646 0.641304 1.46149 0
M  V30 3011 C 289.846 -0.805964 1.84679 0
M  V30 3012 O 288.902 -1.58278 1.96734 0
M  V30 3013 C 290.215 1.6011 2.54529 0
M  V30 3014 C 291.763 1.6106 2.68382 0
M  V30 3015 C 292.238 2.55765 3.79932 0
M  V30 3016 N 293.729 2.5404 3.87322 0
M  V30 3017 C 294.464 3.24004 4.73085 0
M  V30 3018 N 293.96 4.03388 5.63249 0
M  V30 3019 N 295.753 3.12965 4.66914 0
M  V30 3020 H 287.904 1.87478 0.998285 0
M  V30 3021 H 290.167 0.805559 0.499779 0
M  V30 3022 H 289.873 2.63412 2.33039 0
M  V30 3023 H 289.747 1.35171 3.52149 0
M  V30 3024 H 292.134 0.584835 2.89247 0
M  V30 3025 H 292.215 1.90053 1.71212 0
M  V30 3026 H 291.859 3.58458 3.5982 0
M  V30 3027 H 291.789 2.24063 4.76554 0
M  V30 3028 H 294.28 1.96396 3.22858 0
M  V30 3029 H 294.593 4.5373 6.25579 0
M  V30 3030 H 292.938 4.07489 5.63008 0
M  V30 3031 H 296.129 2.50432 3.95476 0
M  V30 3032 H 296.302 3.67759 5.33533 0
M  V30 3033 N 289.708 -1.40897 0.706093 0
M  V30 3034 C 290.933 -2.05895 0.249435 0
M  V30 3035 C 291.358 -1.52823 -1.09666 0
M  V30 3036 O 290.716 -0.659589 -1.68876 0
M  V30 3037 C 290.764 -3.59872 0.22904 0
M  V30 3038 O 289.868 -4.04708 -0.792784 0
M  V30 3039 H 289.209 -0.653206 0.119241 0
M  V30 3040 H 291.739 -1.80471 0.96391 0
M  V30 3041 H 291.749 -4.07951 0.0634791 0
M  V30 3042 H 290.424 -3.97866 1.21141 0
M  V30 3043 H 289.001 -3.68111 -0.59572 0
M  V30 3044 N 291.186 -0.45159 -1.50991 0
M  V30 3045 C 292.133 0.352625 -2.2809 0
M  V30 3046 C 293.103 1.0044 -1.32291 0
M  V30 3047 O 294.288 1.02058 -1.6121 0
M  V30 3048 C 291.428 1.43983 -3.13629 0
M  V30 3049 C 290.541 0.804772 -4.24438 0
M  V30 3050 C 289.676 1.86822 -4.97263 0
M  V30 3051 C 288.715 1.21236 -5.99973 0
M  V30 3052 N 287.852 2.2178 -6.66152 0
M  V30 3053 H 292.692 -0.311186 -2.96371 0
M  V30 3054 H 290.229 -0.165308 -1.46168 0
M  V30 3055 H 292.187 2.08161 -3.61559 0
M  V30 3056 H 290.817 2.07307 -2.47434 0
M  V30 3057 H 289.869 0.0509129 -3.80366 0
M  V30 3058 H 291.181 0.286076 -4.97979 0
M  V30 3059 H 290.335 2.58628 -5.48813 0
M  V30 3060 H 289.074 2.42068 -4.23385 0
M  V30 3061 H 288.079 0.479828 -5.47702 0
M  V30 3062 H 289.304 0.667051 -6.75816 0
M  V30 3063 H 287.25 2.76079 -5.95077 0
M  V30 3064 H 287.167 1.74841 -7.35504 0
M  V30 3065 H 288.435 2.93026 -7.22327 0
M  V30 3066 N 292.664 1.56529 -0.183458 0
M  V30 3067 C 293.594 2.21549 0.737456 0
M  V30 3068 C 294.575 1.17489 1.23005 0
M  V30 3069 O 295.76 1.45959 1.281 0
M  V30 3070 C 292.89 2.86575 1.96194 0
M  V30 3071 C 291.844 3.96778 1.60473 0
M  V30 3072 C 291.17 4.48911 2.90487 0
M  V30 3073 C 292.47 5.15767 0.823497 0
M  V30 3074 H 294.164 2.98761 0.195453 0
M  V30 3075 H 291.71 1.43702 0.0925686 0
M  V30 3076 H 293.663 3.30739 2.61131 0
M  V30 3077 H 292.387 2.06749 2.52828 0
M  V30 3078 H 291.046 3.53286 0.978997 0
M  V30 3079 H 290.694 3.65862 3.45186 0
M  V30 3080 H 290.394 5.23265 2.67335 0
M  V30 3081 H 291.918 4.95771 3.56432 0
M  V30 3082 H 293.332 5.56549 1.37571 0
M  V30 3083 H 291.729 5.96114 0.690551 0
M  V30 3084 H 292.799 4.84574 -0.177782 0
M  V30 3085 N 294.142 -0.090211 1.57342 0
M  V30 3086 C 295.39 -0.791241 1.85967 0
M  V30 3087 C 295.711 -1.7903 0.772859 0
M  V30 3088 O 294.981 -1.94872 -0.200398 0
M  V30 3089 H 293.561 -0.295205 0.686195 0
M  V30 3090 H 296.223 -0.0706782 1.94772 0
M  V30 3091 H 295.319 -1.31882 2.82867 0
M  V30 3092 N 295.62 -1.53406 -0.361157 0
M  V30 3093 C 296.848 -1.73717 -1.12383 0
M  V30 3094 C 297.263 -0.468161 -1.82904 0
M  V30 3095 O 296.62 0.559198 -1.73722 0
M  V30 3096 C 296.671 -2.90558 -2.15078 0
M  V30 3097 O 296.392 -4.12549 -1.47428 0
M  V30 3098 C 297.893 -3.22777 -3.03858 0
M  V30 3099 H 295.113 -0.580896 -0.335858 0
M  V30 3100 H 297.657 -2.00167 -0.418728 0
M  V30 3101 H 295.812 -2.66489 -2.8118 0
M  V30 3102 H 296.226 -4.78009 -2.15887 0
M  V30 3103 H 297.7 -4.07927 -3.71887 0
M  V30 3104 H 298.177 -2.38329 -3.68912 0
M  V30 3105 H 298.783 -3.48787 -2.43367 0
M  V30 3106 N 297.098 0.621204 -1.44841 0
M  V30 3107 C 298.375 1.38 -1.38619 0
M  V30 3108 C 298.755 2.11041 -0.0498935 0
M  V30 3109 O 298.103 2.06992 0.967816 0
M  V30 3110 C 298.313 2.33817 -2.59096 0
M  V30 3111 C 299.661 2.96844 -3.03593 0
M  V30 3112 O 300.685 2.44141 -2.59371 0
M  V30 3113 O 299.544 3.92476 -3.80296 0
M  V30 3114 H 296.638 0.61811 -0.549426 0
M  V30 3115 H 299.184 0.645429 -1.56947 0
M  V30 3116 H 297.956 1.79012 -3.47952 0
M  V30 3117 H 297.579 3.14676 -2.43032 0
M  V30 3118 N 298.576 1.31904 0.862503 0
M  V30 3119 C 299.825 1.21373 1.61094 0
M  V30 3120 C 300.138 -0.22504 1.94301 0
M  V30 3121 O 301.344 -0.452121 2.67709 0
M  V30 3122 C 299.8 2.12525 2.9045 0
M  V30 3123 C 299.408 3.61441 2.64697 0
M  V30 3124 C 301.152 2.10813 3.68454 0
M  V30 3125 C 299.059 4.44578 3.90006 0
M  V30 3126 H 297.989 0.450705 0.604468 0
M  V30 3127 H 300.64 1.56811 0.953027 0
M  V30 3128 H 299.022 1.69994 3.57656 0
M  V30 3129 H 300.196 4.12264 2.05851 0
M  V30 3130 H 298.511 3.65205 2.00036 0
M  V30 3131 H 301.108 2.70167 4.61426 0
M  V30 3132 H 301.451 1.09713 4.01583 0
M  V30 3133 H 301.984 2.51583 3.08141 0
M  V30 3134 H 298.723 5.46461 3.62023 0
M  V30 3135 H 298.243 3.98508 4.48276 0
M  V30 3136 H 299.922 4.57176 4.5782 0
M  V30 3137 N 300.054 -1.07777 1.14986 0
M  V30 3138 C 301.017 -2.13041 0.845358 0
M  V30 3139 C 302.017 -1.60071 -0.152931 0
M  V30 3140 O 303.207 -1.74033 0.0761879 0
M  V30 3141 C 300.339 -3.39896 0.261383 0
M  V30 3142 H 301.532 -2.41485 1.77834 0
M  V30 3143 H 299.085 -1.23595 0.956757 0
M  V30 3144 H 299.82 -3.17091 -0.68 0
M  V30 3145 H 299.605 -3.79642 0.980514 0
M  V30 3146 H 301.095 -4.17548 0.0657687 0
M  V30 3147 N 301.532 -0.945985 -1.26051 0
M  V30 3148 C 302.495 -0.463897 -2.24456 0
M  V30 3149 C 303.495 0.427655 -1.55009 0
M  V30 3150 O 304.685 0.226157 -1.72726 0
M  V30 3151 C 301.817 0.330812 -3.39291 0
M  V30 3152 H 303.01 -1.33357 -2.68619 0
M  V30 3153 H 300.563 -0.728416 -1.38289 0
M  V30 3154 H 301.298 1.21852 -3.00537 0
M  V30 3155 H 301.083 -0.308679 -3.90883 0
M  V30 3156 H 302.573 0.657865 -4.12386 0
M  V30 3157 N 303.011 1.40521 -0.713556 0
M  V30 3158 C 303.943 2.29191 -0.0203126 0
M  V30 3159 C 304.956 1.45723 0.725864 0
M  V30 3160 O 306.145 1.69033 0.573581 0
M  V30 3161 C 303.245 3.2395 0.995486 0
M  V30 3162 C 302.418 4.36262 0.315256 0
M  V30 3163 C 301.477 5.11474 1.23616 0
M  V30 3164 O 300.503 5.64606 0.721719 0
M  V30 3165 N 301.705 5.20638 2.56743 0
M  V30 3166 H 304.47 2.89327 -0.781652 0
M  V30 3167 H 302.031 1.51869 -0.561022 0
M  V30 3168 H 304.023 3.71137 1.61368 0
M  V30 3169 H 302.593 2.64995 1.6582 0
M  V30 3170 H 301.813 3.91228 -0.483106 0
M  V30 3171 H 303.101 5.08558 -0.157004 0
M  V30 3172 H 302.499 4.7895 3.01037 0
M  V30 3173 H 301.056 5.71339 3.13712 0
M  V30 3174 N 304.489 0.459591 1.5075 0
M  V30 3175 C 305.419 -0.330644 2.31147 0
M  V30 3176 C 306.4 -1.00087 1.37538 0
M  V30 3177 O 307.585 -1.00025 1.66459 0
M  V30 3178 C 304.715 -1.41958 3.16962 0
M  V30 3179 C 303.669 -0.871608 4.19031 0
M  V30 3180 C 302.995 -2.05797 4.9351 0
M  V30 3181 C 304.295 0.109251 5.22186 0
M  V30 3182 H 305.989 0.340336 2.97459 0
M  V30 3183 H 303.535 0.165119 1.4305 0
M  V30 3184 H 305.488 -1.9798 3.71997 0
M  V30 3185 H 304.212 -2.11917 2.48513 0
M  V30 3186 H 302.871 -0.333442 3.6508 0
M  V30 3187 H 302.519 -2.74427 4.21544 0
M  V30 3188 H 302.219 -1.6976 5.62544 0
M  V30 3189 H 303.743 -2.62331 5.51375 0
M  V30 3190 H 305.157 -0.361405 5.7216 0
M  V30 3191 H 303.554 0.383316 5.98875 0
M  V30 3192 H 304.624 1.03887 4.73641 0
M  V30 3193 N 305.967 -1.56429 0.191757 0
M  V30 3194 C 307.383 -1.58754 -0.164137 0
M  V30 3195 C 307.583 -1.20782 -1.61288 0
M  V30 3196 O 306.639 -0.928999 -2.34789 0
M  V30 3197 C 307.952 -3.00396 0.135195 0
M  V30 3198 C 309.5 -3.1291 0.0750351 0
M  V30 3199 C 309.975 -4.56679 0.347632 0
M  V30 3200 N 311.466 -4.62252 0.296131 0
M  V30 3201 C 312.201 -5.71379 0.480948 0
M  V30 3202 N 311.697 -6.88986 0.725933 0
M  V30 3203 N 313.49 -5.60563 0.415435 0
M  V30 3204 H 305.641 -1.79393 1.13718 0
M  V30 3205 H 307.904 -0.832414 0.453643 0
M  V30 3206 H 307.61 -3.32726 1.13958 0
M  V30 3207 H 307.484 -3.72963 -0.563773 0
M  V30 3208 H 309.871 -2.80394 -0.919948 0
M  V30 3209 H 309.952 -2.42736 0.807029 0
M  V30 3210 H 309.596 -4.89907 1.33992 0
M  V30 3211 H 309.526 -5.25039 -0.405212 0
M  V30 3212 H 312.017 -3.7773 0.113259 0
M  V30 3213 H 312.33 -7.68046 0.855857 0
M  V30 3214 H 310.675 -6.90801 0.762788 0
M  V30 3215 H 313.866 -4.67561 0.224486 0
M  V30 3216 H 314.039 -6.45551 0.562889 0
M  V30 3217 N 307.445 0.0818655 -1.57387 0
M  V30 3218 C 308.694 0.781681 -1.85937 0
M  V30 3219 C 309.007 1.79246 -0.782957 0
M  V30 3220 O 310.213 2.54112 -0.955987 0
M  V30 3221 C 308.669 1.44109 -3.29789 0
M  V30 3222 C 308.277 0.469396 -4.45534 0
M  V30 3223 C 310.021 2.12386 -3.67549 0
M  V30 3224 C 307.928 1.13415 -5.80423 0
M  V30 3225 H 306.858 0.295682 -0.693605 0
M  V30 3226 H 309.509 0.0348051 -1.83467 0
M  V30 3227 H 307.891 2.23588 -3.2684 0
M  V30 3228 H 309.065 -0.294856 -4.59856 0
M  V30 3229 H 307.38 -0.108383 -4.16259 0
M  V30 3230 H 309.977 2.62878 -4.65617 0
M  V30 3231 H 310.32 2.91877 -2.96839 0
M  V30 3232 H 310.853 1.39751 -3.72444 0
M  V30 3233 H 307.592 0.379771 -6.54399 0
M  V30 3234 H 307.112 1.8695 -5.69921 0
M  V30 3235 H 308.791 1.65686 -6.25426 0
M  V30 3236 N 308.923 1.53595 0.353017 0
M  V30 3237 C 309.853 1.83902 1.43883 0
M  V30 3238 C 310.834 0.693421 1.55324 0
M  V30 3239 O 312.019 0.944452 1.69687 0
M  V30 3240 C 309.149 2.04016 2.8106 0
M  V30 3241 C 308.103 3.19814 2.84434 0
M  V30 3242 C 307.429 3.25244 4.24406 0
M  V30 3243 C 308.729 4.58133 2.50822 0
M  V30 3244 H 310.423 2.74835 1.1877 0
M  V30 3245 H 307.969 1.32242 0.569917 0
M  V30 3246 H 309.922 2.238 3.57059 0
M  V30 3247 H 308.646 1.09804 3.07588 0
M  V30 3248 H 307.305 2.9987 2.10887 0
M  V30 3249 H 306.953 2.28646 4.48029 0
M  V30 3250 H 306.653 4.03054 4.27576 0
M  V30 3251 H 308.177 3.47228 5.0226 0
M  V30 3252 H 309.591 4.77995 3.16534 0
M  V30 3253 H 307.988 5.38276 2.6529 0
M  V30 3254 H 309.058 4.62387 1.46034 0
M  V30 3255 N 310.401 -0.613514 1.45168 0
M  V30 3256 C 311.631 -1.39743 1.52169 0
M  V30 3257 C 312.039 -1.88596 0.151086 0
M  V30 3258 O 311.382 -1.6251 -0.856521 0
M  V30 3259 C 311.444 -2.64035 2.43979 0
M  V30 3260 C 311.108 -2.36861 3.90827 0
M  V30 3261 C 312.105 -1.97591 4.80889 0
M  V30 3262 C 309.79 -2.49956 4.35692 0
M  V30 3263 C 311.784 -1.71768 6.1382 0
M  V30 3264 C 309.471 -2.23747 5.68665 0
M  V30 3265 C 310.469 -1.84714 6.57548 0
M  V30 3266 O 310.157 -1.58809 7.88058 0
M  V30 3267 H 309.889 -0.434382 0.517966 0
M  V30 3268 H 312.443 -0.75587 1.90986 0
M  V30 3269 H 310.673 -3.3089 2.00122 0
M  V30 3270 H 312.362 -3.26069 2.41731 0
M  V30 3271 H 313.128 -1.87015 4.47493 0
M  V30 3272 H 309.007 -2.79305 3.66756 0
M  V30 3273 H 312.551 -1.41227 6.83155 0
M  V30 3274 H 308.448 -2.33938 6.01617 0
M  V30 3275 H 309.216 -1.7291 8.00028 0
M  V30 3276 N 311.879 -1.3236 -0.855495 0
M  V30 3277 C 313.127 -1.22629 -1.60644 0
M  V30 3278 C 313.448 0.212136 -1.93843 0
M  V30 3279 O 312.718 1.13666 -1.59552 0
M  V30 3280 H 311.298 -0.450882 -0.595579 0
M  V30 3281 H 313.96 -1.65871 -1.02337 0
M  V30 3282 H 313.056 -1.80832 -2.54374 0
M  V30 3283 N 313.357 1.07166 -1.15556 0
M  V30 3284 C 314.605 1.79443 -0.929764 0
M  V30 3285 C 314.926 1.87246 0.544414 0
M  V30 3286 O 314.196 1.37473 1.39564 0
M  V30 3287 H 312.776 0.664625 -0.341003 0
M  V30 3288 H 315.438 1.29499 -1.45657 0
M  V30 3289 H 314.534 2.81832 -1.34079 0
M  V30 3290 N 314.835 0.952656 1.25548 0
M  V30 3291 C 316.06 0.623025 1.97821 0
M  V30 3292 C 316.485 -0.7976 1.70352 0
M  V30 3293 O 315.843 -1.53905 0.958283 0
M  V30 3294 C 315.891 0.885532 3.49558 0
M  V30 3295 O 314.995 -0.0366641 4.12384 0
M  V30 3296 H 314.336 0.237082 0.620232 0
M  V30 3297 H 316.866 1.27871 1.59719 0
M  V30 3298 H 316.876 0.811009 3.99858 0
M  V30 3299 H 315.551 1.92094 3.6888 0
M  V30 3300 H 314.128 0.0898954 3.72792 0
M  V30 3301 N 316.313 -1.40141 0.720998 0
M  V30 3302 C 317.559 -2.01084 0.263231 0
M  V30 3303 C 317.892 -1.57052 -1.14229 0
M  V30 3304 O 317.167 -0.793027 -1.77599 0
M  V30 3305 C 317.45 -3.58401 0.349344 0
M  V30 3306 C 317.303 -4.12491 1.79363 0
M  V30 3307 C 318.622 -4.39231 -0.276351 0
M  V30 3308 H 315.741 -0.730572 0.0971228 0
M  V30 3309 H 318.383 -1.66543 0.914518 0
M  V30 3310 H 316.533 -3.87958 -0.205165 0
M  V30 3311 H 318.205 -3.93711 2.40394 0
M  V30 3312 H 316.448 -3.66576 2.31958 0
M  V30 3313 H 317.119 -5.21646 1.80524 0
M  V30 3314 H 319.595 -4.15637 0.196184 0
M  V30 3315 H 318.471 -5.48586 -0.185681 0
M  V30 3316 H 318.732 -4.20643 -1.36059 0
M  V30 3317 N 317.792 -0.46758 -1.50504 0
M  V30 3318 C 319.02 0.0864133 -2.06719 0
M  V30 3319 C 319.435 1.33819 -1.33184 0
M  V30 3320 O 318.792 1.78061 -0.400083 0
M  V30 3321 C 318.843 0.378079 -3.59517 0
M  V30 3322 O 318.564 -0.824044 -4.3028 0
M  V30 3323 C 320.065 0.979426 -4.32345 0
M  V30 3324 H 317.285 -0.00551697 -0.670977 0
M  V30 3325 H 319.829 -0.655354 -1.93715 0
M  V30 3326 H 317.984 1.06977 -3.72337 0
M  V30 3327 H 318.398 -0.566518 -5.21432 0
M  V30 3328 H 319.872 1.1333 -5.40241 0
M  V30 3329 H 320.349 1.9686 -3.9261 0
M  V30 3330 H 320.955 0.326216 -4.24047 0
M  V30 3331 N 319.27 1.56325 -0.20005 0
M  V30 3332 C 320.233 2.18084 0.705132 0
M  V30 3333 C 321.233 1.13666 1.1374 0
M  V30 3334 O 322.423 1.39023 1.04968 0
M  V30 3335 C 319.555 2.78689 1.96329 0
M  V30 3336 H 320.748 2.99435 0.167023 0
M  V30 3337 H 318.301 1.56221 0.0495725 0
M  V30 3338 H 319.036 2.0115 2.5438 0
M  V30 3339 H 318.821 3.55133 1.66202 0
M  V30 3340 H 320.311 3.26096 2.60866 0
M  V30 3341 N 320.748 -0.0735177 1.57428 0
M  V30 3342 C 321.695 -1.08756 2.0357 0
M  V30 3343 C 322.665 -1.38559 0.916 0
M  V30 3344 O 323.85 -1.49656 1.18354 0
M  V30 3345 C 320.99 -2.39657 2.48311 0
M  V30 3346 C 320.103 -2.16399 3.73892 0
M  V30 3347 C 319.238 -3.40852 4.07423 0
M  V30 3348 C 318.277 -3.1295 5.2605 0
M  V30 3349 N 317.414 -4.29729 5.55228 0
M  V30 3350 H 322.254 -0.687104 2.8997 0
M  V30 3351 H 319.791 -0.327709 1.43403 0
M  V30 3352 H 321.749 -3.16081 2.72303 0
M  V30 3353 H 320.379 -2.77508 1.64891 0
M  V30 3354 H 319.431 -1.30676 3.57251 0
M  V30 3355 H 320.743 -1.91788 4.60455 0
M  V30 3356 H 319.897 -4.25671 4.32306 0
M  V30 3357 H 318.636 -3.68537 3.19425 0
M  V30 3358 H 317.641 -2.26526 5.00965 0
M  V30 3359 H 318.866 -2.86589 6.15665 0
M  V30 3360 H 316.812 -4.57448 4.70188 0
M  V30 3361 H 316.729 -4.08385 6.36206 0
M  V30 3362 H 317.997 -5.1555 5.84661 0
M  V30 3363 N 322.226 -1.5378 -0.344866 0
M  V30 3364 C 323.174 -1.82373 -1.4437 0
M  V30 3365 C 324.168 -0.694128 -1.54526 0
M  V30 3366 O 325.374 -0.877442 -1.57165 0
M  V30 3367 H 321.749 -0.577765 -0.481344 0
M  V30 3368 H 323.72 -2.74306 -1.17468 0
M  V30 3369 C 322.469 -2.04898 -2.80913 0
M  V30 3370 H 321.792 -2.9127 -2.73865 0
M  V30 3371 H 323.232 -2.28871 -3.56923 0
M  V30 3372 C 321.691 -0.834116 -3.26411 0
M  V30 3373 O 322.221 -0.0328885 -4.01687 0
M  V30 3374 N 320.427 -0.65171 -2.83198 0
M  V30 3375 H 319.974 -1.30489 -2.22104 0
M  V30 3376 H 319.932 0.159686 -3.13994 0
M  V30 3377 N 323.704 0.605807 -1.45491 0
M  V30 3378 C 324.667 1.69836 -1.5391 0
M  V30 3379 C 325.667 1.55261 -0.418424 0
M  V30 3380 O 326.857 1.60296 -0.681965 0
M  V30 3381 C 323.989 3.09117 -1.43734 0
M  V30 3382 H 325.182 1.63738 -2.51257 0
M  V30 3383 H 322.735 0.821689 -1.32959 0
M  V30 3384 H 323.47 3.20791 -0.475788 0
M  V30 3385 H 323.255 3.21104 -2.25021 0
M  V30 3386 H 324.745 3.88696 -1.52661 0
M  V30 3387 N 325.182 1.32811 0.848464 0
M  V30 3388 C 326.598 1.11937 1.13764 0
M  V30 3389 C 326.798 -0.0960789 2.01271 0
M  V30 3390 O 325.854 -0.779165 2.40178 0
M  V30 3391 C 327.167 2.402 1.809 0
M  V30 3392 C 328.715 2.46016 1.93508 0
M  V30 3393 C 329.19 3.74215 2.64059 0
M  V30 3394 N 330.681 3.75232 2.71579 0
M  V30 3395 C 331.416 4.71134 3.26833 0
M  V30 3396 N 330.912 5.77406 3.8285 0
M  V30 3397 N 332.705 4.58623 3.24995 0
M  V30 3398 H 324.856 2.1073 0.265855 0
M  V30 3399 H 327.119 0.930671 0.180431 0
M  V30 3400 H 326.825 3.29093 1.24058 0
M  V30 3401 H 326.699 2.51628 2.81004 0
M  V30 3402 H 329.086 1.57577 2.49506 0
M  V30 3403 H 329.167 2.38536 0.923811 0
M  V30 3404 H 328.811 4.63031 2.08722 0
M  V30 3405 H 328.741 3.78968 3.65637 0
M  V30 3406 H 331.232 2.98423 2.31845 0
M  V30 3407 H 331.545 6.46632 4.23187 0
M  V30 3408 H 329.89 5.81152 3.81165 0
M  V30 3409 H 333.081 3.74762 2.80484 0
M  V30 3410 H 333.254 5.33535 3.67756 0
M  V30 3411 N 326.66 -1.06551 1.16123 0
M  V30 3412 C 327.888 -1.83005 0.965237 0
M  V30 3413 C 328.303 -1.82423 -0.486542 0
M  V30 3414 O 327.66 -1.24152 -1.33763 0
M  V30 3415 C 327.711 -3.29733 1.48183 0
M  V30 3416 O 327.432 -3.30416 2.87674 0
M  V30 3417 C 328.933 -4.22926 1.32848 0
M  V30 3418 H 326.153 -0.577118 0.342309 0
M  V30 3419 H 328.697 -1.3445 1.54089 0
M  V30 3420 H 326.852 -3.75609 0.948517 0
M  V30 3421 H 327.266 -4.22149 3.11272 0
M  V30 3422 H 328.74 -5.23916 1.73827 0
M  V30 3423 H 329.217 -4.38346 0.273692 0
M  V30 3424 H 329.823 -3.82894 1.85127 0
M  V30 3425 N 328.138 -0.959301 -1.25041 0
M  V30 3426 C 329.068 -0.501388 -2.28053 0
M  V30 3427 C 330.049 0.454673 -1.63911 0
M  V30 3428 O 331.234 0.352618 -1.90972 0
M  V30 3429 C 328.364 0.217224 -3.4662 0
M  V30 3430 C 327.318 -0.654034 -4.22973 0
M  V30 3431 C 326.644 0.195589 -5.34342 0
M  V30 3432 C 327.944 -1.93447 -4.85155 0
M  V30 3433 H 329.638 -1.36238 -2.66608 0
M  V30 3434 H 327.184 -0.656534 -1.28163 0
M  V30 3435 H 329.137 0.548732 -4.17812 0
M  V30 3436 H 327.861 1.1125 -3.07068 0
M  V30 3437 H 326.52 -0.968693 -3.5357 0
M  V30 3438 H 326.168 1.09076 -4.91031 0
M  V30 3439 H 325.868 -0.384091 -5.86343 0
M  V30 3440 H 327.392 0.521958 -6.08365 0
M  V30 3441 H 328.806 -1.66908 -5.48466 0
M  V30 3442 H 327.203 -2.46018 -5.47353 0
M  V30 3443 H 328.273 -2.63466 -4.07079 0
M  V30 3444 N 329.616 1.39756 -0.72842 0
M  V30 3445 C 330.846 2.04651 -0.283117 0
M  V30 3446 C 331.254 1.5502 1.08469 0
M  V30 3447 O 330.597 0.707343 1.69536 0
M  V30 3448 C 330.659 3.58947 -0.199309 0
M  V30 3449 C 330.323 4.31525 -1.5045 0
M  V30 3450 C 331.32 4.5861 -2.44894 0
M  V30 3451 C 329.005 4.70195 -1.76698 0
M  V30 3452 C 330.999 5.23366 -3.63822 0
M  V30 3453 C 328.686 5.3468 -2.95906 0
M  V30 3454 C 329.684 5.61198 -3.89289 0
M  V30 3455 O 329.372 6.24347 -5.06404 0
M  V30 3456 H 329.104 0.664777 -0.122666 0
M  V30 3457 H 331.658 1.79913 -0.990987 0
M  V30 3458 H 329.888 3.82556 0.56461 0
M  V30 3459 H 331.577 4.0534 0.213125 0
M  V30 3460 H 332.343 4.29187 -2.25883 0
M  V30 3461 H 328.222 4.48916 -1.04859 0
M  V30 3462 H 331.766 5.4398 -4.36728 0
M  V30 3463 H 327.663 5.63524 -3.14819 0
M  V30 3464 H 328.431 6.42842 -5.06652 0
M  V30 3465 N 331.094 0.475555 1.50254 0
M  V30 3466 C 332.026 -0.352649 2.26471 0
M  V30 3467 C 333.039 -0.953165 1.3198 0
M  V30 3468 O 334.228 -0.840815 1.57457 0
M  V30 3469 C 331.328 -1.50902 3.0345 0
M  V30 3470 C 330.501 -1.02047 4.25329 0
M  V30 3471 C 329.56 -2.05142 4.84565 0
M  V30 3472 O 328.586 -1.63023 5.45355 0
M  V30 3473 N 329.788 -3.37987 4.71959 0
M  V30 3474 H 332.553 0.300767 2.98187 0
M  V30 3475 H 330.114 0.306598 1.5897 0
M  V30 3476 H 332.106 -2.19572 3.39956 0
M  V30 3477 H 330.676 -2.06705 2.34504 0
M  V30 3478 H 329.896 -0.159507 3.93877 0
M  V30 3479 H 331.184 -0.672061 5.04342 0
M  V30 3480 H 330.582 -3.74913 4.23623 0
M  V30 3481 H 329.139 -4.02443 5.12721 0
M  V30 3482 N 332.573 -1.56217 0.208337 0
M  V30 3483 C 333.506 -2.15633 -0.746842 0
M  V30 3484 C 334.484 -1.09685 -1.20034 0
M  V30 3485 O 335.668 -1.3787 -1.28547 0
M  V30 3486 C 332.795 -2.72594 -2.01023 0
M  V30 3487 C 331.841 -3.91251 -1.69779 0
M  V30 3488 S 332.674 -5.28962 -0.834209 0
M  V30 3489 C 333.83 -5.89353 -2.10745 0
M  V30 3490 H 334.063 -2.96315 -0.241789 0
M  V30 3491 H 331.596 -1.54398 -0.00682183 0
M  V30 3492 H 333.554 -3.06053 -2.73572 0
M  V30 3493 H 332.215 -1.91929 -2.48641 0
M  V30 3494 H 331.408 -4.29562 -2.63614 0
M  V30 3495 H 331.01 -3.58869 -1.05303 0
M  V30 3496 H 333.302 -6.04522 -3.05875 0
M  V30 3497 H 334.245 -6.85661 -1.76845 0
M  V30 3498 H 334.653 -5.1807 -2.24196 0
M  V30 3499 N 334.051 0.0651679 -1.57465 0
M  V30 3500 C 335.467 0.420105 -1.53972 0
M  V30 3501 C 335.667 1.78782 -0.929474 0
M  V30 3502 O 334.723 2.46771 -0.534839 0
M  V30 3503 C 336.036 0.355084 -2.98596 0
M  V30 3504 C 337.584 0.434792 -3.09965 0
M  V30 3505 C 338.059 0.399609 -4.56253 0
M  V30 3506 N 339.55 0.459488 -4.60915 0
M  V30 3507 C 340.285 0.454584 -5.71595 0
M  V30 3508 N 339.781 0.404102 -6.9162 0
M  V30 3509 N 341.574 0.501635 -5.59857 0
M  V30 3510 H 333.725 -0.830328 -1.95498 0
M  V30 3511 H 335.988 -0.312244 -0.895102 0
M  V30 3512 H 335.694 -0.583357 -3.46828 0
M  V30 3513 H 335.568 1.16275 -3.58831 0
M  V30 3514 H 337.955 1.36366 -2.61703 0
M  V30 3515 H 338.036 -0.40157 -2.52628 0
M  V30 3516 H 337.68 -0.525436 -5.05175 0
M  V30 3517 H 337.61 1.25359 -5.11461 0
M  V30 3518 H 340.101 0.502482 -3.74544 0
M  V30 3519 H 340.414 0.404468 -7.71741 0
M  V30 3520 H 338.759 0.37069 -6.94011 0
M  V30 3521 H 341.95 0.538812 -4.64989 0
M  V30 3522 H 342.123 0.494345 -6.46112 0
M  V30 3523 N 335.529 1.53961 0.336706 0
M  V30 3524 C 336.806 1.62171 1.09361 0
M  V30 3525 C 337.186 0.447263 2.06307 0
M  V30 3526 O 336.534 -0.559802 2.21537 0
M  V30 3527 C 336.744 2.98565 1.80721 0
M  V30 3528 C 338.092 3.54157 2.34218 0
M  V30 3529 O 339.116 3.00784 1.90807 0
M  V30 3530 O 337.975 4.47528 3.13657 0
M  V30 3531 H 335.069 0.6562 0.503319 0
M  V30 3532 H 337.615 1.66307 0.33765 0
M  V30 3533 H 336.387 3.75482 1.10132 0
M  V30 3534 H 336.01 2.9805 2.63158 0
M  V30 3535 N 337.007 -0.598083 1.45811 0
M  V30 3536 C 338.256 -1.35295 1.49594 0
M  V30 3537 C 338.569 -1.95057 0.145679 0
M  V30 3538 O 339.775 -2.71431 0.0612099 0
M  V30 3539 C 338.231 -2.45124 2.63519 0
M  V30 3540 C 337.839 -1.91732 4.04899 0
M  V30 3541 C 339.583 -3.2205 2.76558 0
M  V30 3542 C 337.49 -2.991 5.1019 0
M  V30 3543 H 336.42 -0.508552 0.556679 0
M  V30 3544 H 339.071 -0.639977 1.71978 0
M  V30 3545 H 337.453 -3.19149 2.34435 0
M  V30 3546 H 338.627 -1.24352 4.43704 0
M  V30 3547 H 336.942 -1.27522 3.96393 0
M  V30 3548 H 339.539 -4.0215 3.52391 0
M  V30 3549 H 339.882 -3.73663 1.83526 0
M  V30 3550 H 340.415 -2.55127 3.05213 0
M  V30 3551 H 337.154 -2.52393 6.04961 0
M  V30 3552 H 336.674 -3.65017 4.75944 0
M  V30 3553 H 338.353 -3.63318 5.35359 0
M  V30 3554 N 338.485 -1.33259 -0.841409 0
M  V30 3555 C 339.433 -1.23279 -1.97244 0
M  V30 3556 C 340.427 -0.134706 -1.68864 0
M  V30 3557 O 341.633 -0.298501 -1.77508 0
M  V30 3558 H 338.008 -0.382497 -0.647457 0
M  V30 3559 H 339.979 -2.18906 -2.02787 0
M  V30 3560 C 338.728 -0.986268 -3.33419 0
M  V30 3561 H 338.051 -1.82347 -3.55794 0
M  V30 3562 H 339.491 -0.956728 -4.13065 0
M  V30 3563 C 337.95 0.310842 -3.35463 0
M  V30 3564 O 338.48 1.31838 -3.79449 0
M  V30 3565 N 336.686 0.337485 -2.88634 0
M  V30 3566 H 336.233 -0.482967 -2.53032 0
M  V30 3567 H 336.191 1.20518 -2.90384 0
M  V30 3568 N 339.963 1.05934 -1.16686 0
M  V30 3569 C 341.211 1.78447 -0.948744 0
M  V30 3570 C 341.532 1.87813 0.524523 0
M  V30 3571 O 340.802 1.38945 1.38098 0
M  V30 3572 H 339.382 0.660971 -0.348033 0
M  V30 3573 H 342.044 1.27947 -1.47022 0
M  V30 3574 H 341.14 2.80394 -1.37061 0
M  V30 3575 N 341.441 0.965919 1.2453 0
M  V30 3576 C 342.688 0.626831 1.92554 0
M  V30 3577 C 343.016 -0.837739 1.75534 0
M  V30 3578 O 342.271 -1.61793 1.10098 0
M  V30 3579 C 342.57 0.945428 3.44669 0
M  V30 3580 C 342.236 2.39785 3.81856 0
M  V30 3581 C 340.898 2.79483 3.91718 0
M  V30 3582 C 343.25 3.34055 4.00071 0
M  V30 3583 C 340.578 4.12496 4.1721 0
M  V30 3584 C 342.93 4.66694 4.27059 0
M  V30 3585 C 341.594 5.06172 4.3514 0
M  V30 3586 H 340.864 0.229374 0.704605 0
M  V30 3587 H 343.511 1.21707 1.4785 0
M  V30 3588 H 341.816 0.272926 3.90848 0
M  V30 3589 H 343.513 0.661484 3.95507 0
M  V30 3590 H 340.103 2.08003 3.74743 0
M  V30 3591 H 344.287 3.04571 3.91855 0
M  V30 3592 H 339.543 4.42709 4.21685 0
M  V30 3593 H 343.717 5.3971 4.40097 0
M  V30 3594 H 341.344 6.09262 4.54646 0
M  V30 3595 N 342.919 -1.39368 0.735821 0
M  V30 3596 C 343.849 -2.33234 0.111506 0
M  V30 3597 C 344.83 -1.53954 -0.723334 0
M  V30 3598 O 346.015 -1.82344 -0.668147 0
M  V30 3599 C 343.145 -3.38057 -0.795917 0
M  V30 3600 C 342.099 -4.2795 -0.065172 0
M  V30 3601 C 341.425 -5.23479 -1.08967 0
M  V30 3602 C 342.725 -5.10741 1.09273 0
M  V30 3603 H 344.419 -2.85692 0.895571 0
M  V30 3604 H 341.965 -1.37364 0.432109 0
M  V30 3605 H 343.918 -4.02675 -1.24221 0
M  V30 3606 H 342.642 -2.8404 -1.61211 0
M  V30 3607 H 341.301 -3.64813 0.361511 0
M  V30 3608 H 340.949 -4.65758 -1.89944 0
M  V30 3609 H 340.649 -5.84472 -0.605489 0
M  V30 3610 H 342.173 -5.90974 -1.53565 0
M  V30 3611 H 343.587 -5.68699 0.724841 0
M  V30 3612 H 341.984 -5.8088 1.50659 0
M  V30 3613 H 343.054 -4.45525 1.91404 0
M  V30 3614 N 344.397 -0.483516 -1.5 0
M  V30 3615 C 345.643 0.0672592 -2.02688 0
M  V30 3616 C 345.976 1.38247 -1.36387 0
M  V30 3617 O 345.251 1.88131 -0.493675 0
M  V30 3618 C 345.534 0.238109 -3.59312 0
M  V30 3619 C 345.387 -1.099 -4.36168 0
M  V30 3620 C 346.706 0.986916 -4.28892 0
M  V30 3621 H 343.825 0.0229696 -0.736642 0
M  V30 3622 H 346.467 -0.631527 -1.79197 0
M  V30 3623 H 344.617 0.8333 -3.79458 0
M  V30 3624 H 346.289 -1.73172 -4.27562 0
M  V30 3625 H 344.532 -1.69261 -3.99416 0
M  V30 3626 H 345.203 -0.932954 -5.44059 0
M  V30 3627 H 347.679 0.482302 -4.13295 0
M  V30 3628 H 346.555 1.07527 -5.38265 0
M  V30 3629 H 346.816 2.0265 -3.92919 0
M  V30 3630 N 345.875 1.56104 -0.216619 0
M  V30 3631 C 347.123 1.97781 0.415593 0
M  V30 3632 C 347.444 1.10536 1.60645 0
M  V30 3633 O 346.714 0.181303 1.95059 0
M  V30 3634 H 345.294 0.730415 0.156534 0
M  V30 3635 H 347.956 1.92445 -0.308366 0
M  V30 3636 H 347.052 3.03072 0.74525 0
M  V30 3637 N 347.353 -0.0568162 1.57498 0
M  V30 3638 C 348.601 -0.751617 1.87604 0
M  V30 3639 C 348.922 -1.77351 0.81066 0
M  V30 3640 O 348.192 -1.95254 -0.159018 0
M  V30 3641 H 346.772 -0.280583 0.692302 0
M  V30 3642 H 349.434 -0.0293483 1.94878 0
M  V30 3643 H 348.53 -1.25852 2.856 0
M  V30 3644 N 348.832 -1.54138 -0.328536 0
M  V30 3645 C 349.795 -1.82462 -1.38709 0
M  V30 3646 C 350.795 -0.696229 -1.44946 0
M  V30 3647 O 351.985 -0.964535 -1.4506 0
M  V30 3648 C 349.117 -1.98018 -2.77492 0
M  V30 3649 H 350.31 -2.77037 -1.14851 0
M  V30 3650 H 347.863 -1.45779 -0.563751 0
M  V30 3651 H 348.598 -1.05637 -3.06613 0
M  V30 3652 H 348.383 -2.80124 -2.74359 0
M  V30 3653 H 349.873 -2.21396 -3.54081 0
M  V30 3654 N 350.31 0.590341 -1.46126 0
M  V30 3655 C 351.535 1.37991 -1.54833 0
M  V30 3656 C 351.96 1.87163 -0.187506 0
M  V30 3657 O 351.318 1.61133 0.831008 0
M  V30 3658 C 351.366 2.54867 -2.55098 0
M  V30 3659 O 350.47 3.56061 -2.08073 0
M  V30 3660 H 349.811 0.411265 -0.521303 0
M  V30 3661 H 352.341 0.716819 -1.91632 0
M  V30 3662 H 352.351 3.01886 -2.74461 0
M  V30 3663 H 351.026 2.18429 -3.53923 0
M  V30 3664 H 349.603 3.15574 -1.98664 0
M  V30 3665 N 351.788 1.33704 0.83433 0
M  V30 3666 C 352.718 1.26967 1.95963 0
M  V30 3667 C 353.699 0.149337 1.69443 0
M  V30 3668 O 354.884 0.339852 1.91203 0
M  V30 3669 C 352.014 1.01275 3.32206 0
M  V30 3670 C 350.968 2.09652 3.73136 0
M  V30 3671 C 350.294 1.69166 5.07235 0
M  V30 3672 C 351.594 3.51372 3.86439 0
M  V30 3673 H 353.288 2.2112 2.01857 0
M  V30 3674 H 350.834 1.06447 0.969793 0
M  V30 3675 H 352.787 0.952106 4.10503 0
M  V30 3676 H 351.511 0.0356203 3.26581 0
M  V30 3677 H 350.17 2.14766 2.97104 0
M  V30 3678 H 349.818 0.701437 4.98085 0
M  V30 3679 H 349.518 2.41694 5.35591 0
M  V30 3680 H 351.042 1.64576 5.88003 0
M  V30 3681 H 352.456 3.48734 4.55036 0
M  V30 3682 H 350.853 4.22425 4.26236 0
M  V30 3683 H 351.923 3.89546 2.88759 0
M  V30 3684 N 353.266 -1.05314 1.17247 0
M  V30 3685 C 354.213 -2.13031 0.888058 0
M  V30 3686 C 355.183 -1.65253 -0.167537 0
M  V30 3687 O 356.368 -1.90775 -0.0305974 0
M  V30 3688 C 353.508 -3.42702 0.406147 0
M  V30 3689 C 352.621 -4.04161 1.52572 0
M  V30 3690 C 351.756 -5.21744 0.997808 0
M  V30 3691 C 350.795 -5.75207 2.09291 0
M  V30 3692 N 349.932 -6.84094 1.57986 0
M  V30 3693 H 354.772 -2.36698 1.81048 0
M  V30 3694 H 352.309 -1.16121 0.903013 0
M  V30 3695 H 354.267 -4.17059 0.108305 0
M  V30 3696 H 352.897 -3.19222 -0.479313 0
M  V30 3697 H 351.949 -3.27253 1.93931 0
M  V30 3698 H 353.261 -4.39881 2.35172 0
M  V30 3699 H 352.415 -6.03168 0.653739 0
M  V30 3700 H 351.154 -4.87495 0.141232 0
M  V30 3701 H 350.159 -4.92414 2.44557 0
M  V30 3702 H 351.384 -6.11505 2.95362 0
M  V30 3703 H 349.33 -6.51745 0.74598 0
M  V30 3704 H 349.247 -7.18811 2.34195 0
M  V30 3705 H 350.515 -7.69172 1.26468 0
M  V30 3706 N 354.744 -0.972509 -1.24016 0
M  V30 3707 C 356.155 -0.67517 -1.74064 0
M  V30 3708 C 356.506 0.808939 -1.78747 0
M  V30 3709 O 355.631 1.63286 -1.42009 0
M  V30 3710 C 356.226 -1.21889 -3.16115 0
M  V30 3711 C 354.785 -0.971358 -3.6365 0
M  V30 3712 C 353.932 -1.35134 -2.42145 0
M  V30 3713 H 356.883 -1.14727 -1.09651 0
M  V30 3714 H 356.904 -0.587489 -3.75937 0
M  V30 3715 H 356.416 -2.29906 -3.12674 0
M  V30 3716 H 354.517 0.0930686 -3.72484 0
M  V30 3717 H 354.63 -1.62039 -4.50866 0
M  V30 3718 H 352.994 -0.769751 -2.4279 0
M  V30 3719 H 353.777 -2.4411 -2.41381 0
M  V30 3720 N 356.222 1.38976 -0.743202 0
M  V30 3721 C 357.132 2.3434 -0.110399 0
M  V30 3722 C 358.148 1.58741 0.712559 0
M  V30 3723 O 359.324 1.9099 0.639125 0
M  V30 3724 C 356.389 3.37812 0.780012 0
M  V30 3725 C 355.45 4.29263 -0.0561319 0
M  V30 3726 C 354.683 5.27793 0.791875 0
M  V30 3727 O 354.906 5.33043 2.03031 0
M  V30 3728 O 353.84 6.01512 0.216183 0
M  V30 3729 H 357.666 2.90129 -0.897714 0
M  V30 3730 H 355.251 1.40643 -0.503966 0
M  V30 3731 H 357.133 4.01194 1.28923 0
M  V30 3732 H 355.808 2.84395 1.546 0
M  V30 3733 H 354.715 3.69076 -0.611056 0
M  V30 3734 H 356.048 4.85907 -0.784531 0
M  V30 3735 N 357.7 0.491464 1.49741 0
M  V30 3736 C 358.947 -0.0564256 2.02421 0
M  V30 3737 C 359.275 -1.37872 1.37192 0
M  V30 3738 O 358.53 -1.89375 0.493508 0
M  V30 3739 C 358.829 -0.267329 3.56399 0
M  V30 3740 C 358.495 0.975775 4.40215 0
M  V30 3741 C 357.157 1.31655 4.62839 0
M  V30 3742 C 359.509 1.80251 4.89039 0
M  V30 3743 C 356.837 2.48375 5.31532 0
M  V30 3744 C 359.189 2.96116 5.59015 0
M  V30 3745 C 357.853 3.30585 5.79888 0
M  V30 3746 H 357.123 -0.0206476 0.740712 0
M  V30 3747 H 359.77 0.649686 1.80143 0
M  V30 3748 H 358.075 -1.05588 3.77304 0
M  V30 3749 H 359.772 -0.705549 3.94744 0
M  V30 3750 H 356.362 0.700315 4.2284 0
M  V30 3751 H 360.546 1.55239 4.71396 0
M  V30 3752 H 355.802 2.7533 5.45897 0
M  V30 3753 H 359.976 3.60509 5.95824 0
M  V30 3754 H 357.603 4.21132 6.32892 0
M  V30 3755 N 359.178 -1.55987 0.224894 0
M  V30 3756 C 360.424 -1.98684 -0.406502 0
M  V30 3757 C 360.757 -1.11248 -1.59177 0
M  V30 3758 O 360.032 -0.170909 -1.93748 0
M  V30 3759 C 360.315 -3.50218 -0.837808 0
M  V30 3760 C 360.168 -4.48426 0.351332 0
M  V30 3761 C 361.487 -4.06243 -1.69278 0
M  V30 3762 H 358.606 -0.722337 -0.146283 0
M  V30 3763 H 361.248 -1.87255 0.321799 0
M  V30 3764 H 359.398 -3.60089 -1.45837 0
M  V30 3765 H 361.07 -4.50562 0.989526 0
M  V30 3766 H 359.313 -4.22159 0.998207 0
M  V30 3767 H 359.984 -5.52 0.00655905 0
M  V30 3768 H 362.46 -3.99337 -1.16914 0
M  V30 3769 H 361.336 -5.12581 -1.96346 0
M  V30 3770 H 361.597 -3.53332 -2.65723 0
M  V30 3771 N 360.656 0.0484629 -1.57525 0
M  V30 3772 C 361.566 1.07241 -2.08654 0
M  V30 3773 C 362.582 1.409 -1.02095 0
M  V30 3774 O 363.758 1.50609 -1.33712 0
M  V30 3775 C 360.823 2.36008 -2.5397 0
M  V30 3776 C 359.884 2.09108 -3.7493 0
M  V30 3777 C 359.117 3.31736 -4.18075 0
M  V30 3778 O 359.34 4.41714 -3.60895 0
M  V30 3779 O 358.274 3.18576 -5.10679 0
M  V30 3780 H 362.1 0.667965 -2.96263 0
M  V30 3781 H 359.685 0.26417 -1.47046 0
M  V30 3782 H 361.567 3.11747 -2.83535 0
M  V30 3783 H 360.242 2.75786 -1.69481 0
M  V30 3784 H 359.149 1.31 -3.50414 0
M  V30 3785 H 360.482 1.74198 -4.60343 0
M  V30 3786 N 362.134 1.5431 0.320358 0
M  V30 3787 C 363.383 1.7188 1.05546 0
M  V30 3788 C 363.696 0.501143 1.89071 0
M  V30 3789 O 364.902 0.558258 2.65699 0
M  V30 3790 C 363.358 3.04025 1.92605 0
M  V30 3791 C 362.966 4.33207 1.14176 0
M  V30 3792 C 364.71 3.30959 2.65832 0
M  V30 3793 C 362.617 5.56412 2.00399 0
M  V30 3794 H 361.547 0.640547 0.397763 0
M  V30 3795 H 364.198 1.80802 0.313522 0
M  V30 3796 H 362.58 2.89019 2.7071 0
M  V30 3797 H 363.754 4.58989 0.40819 0
M  V30 3798 H 362.069 4.13062 0.526165 0
M  V30 3799 H 364.666 4.20203 3.30656 0
M  V30 3800 H 365.009 2.48979 3.33639 0
M  V30 3801 H 365.542 3.46847 1.94787 0
M  V30 3802 H 362.281 6.41004 1.37094 0
M  V30 3803 H 361.801 5.34844 2.7148 0
M  V30 3804 H 363.48 5.92938 2.58908 0
M  V30 3805 N 363.613 -0.582584 1.46437 0
M  V30 3806 C 364.862 -1.337 1.5102 0
M  V30 3807 C 365.175 -1.94891 0.166359 0
M  V30 3808 O 366.381 -2.71351 0.0899954 0
M  V30 3809 C 364.837 -2.42315 2.66104 0
M  V30 3810 C 364.445 -1.87427 4.06909 0
M  V30 3811 C 366.189 -3.19099 2.79958 0
M  V30 3812 C 364.096 -2.93672 5.13333 0
M  V30 3813 H 363.026 -0.502619 0.562041 0
M  V30 3814 H 365.677 -0.621701 1.72647 0
M  V30 3815 H 364.059 -3.16645 2.37807 0
M  V30 3816 H 365.233 -1.19639 4.44998 0
M  V30 3817 H 363.548 -1.2331 3.97723 0
M  V30 3818 H 366.145 -3.9839 3.56636 0
M  V30 3819 H 366.488 -3.71695 1.87479 0
M  V30 3820 H 367.021 -2.51875 3.07902 0
M  V30 3821 H 363.76 -2.45962 6.07604 0
M  V30 3822 H 363.28 -3.59948 4.79789 0
M  V30 3823 H 364.959 -3.5762 5.39182 0
M  V30 3824 N 365.091 -1.34144 -0.827227 0
M  V30 3825 C 366.001 -1.27428 -1.96975 0
M  V30 3826 C 367.017 -0.182728 -1.73038 0
M  V30 3827 O 368.193 -0.408426 -1.97215 0
M  V30 3828 C 365.258 -1.02526 -3.31194 0
M  V30 3829 C 364.319 -2.20796 -3.68168 0
M  V30 3830 C 363.552 -1.97073 -4.95982 0
M  V30 3831 O 363.775 -0.926822 -5.6282 0
M  V30 3832 O 362.709 -2.83912 -5.30733 0
M  V30 3833 H 366.535 -2.23537 -2.05584 0
M  V30 3834 H 364.12 -1.14307 -0.961989 0
M  V30 3835 H 366.002 -0.904026 -4.11589 0
M  V30 3836 H 364.677 -0.0945389 -3.23562 0
M  V30 3837 H 363.584 -2.38477 -2.88235 0
M  V30 3838 H 364.917 -3.12243 -3.8048 0
M  V30 3839 N 366.569 1.04691 -1.17803 0
M  V30 3840 C 367.532 2.10724 -0.901545 0
M  V30 3841 C 368.532 1.6042 0.110437 0
M  V30 3842 O 369.722 1.7377 -0.122303 0
M  V30 3843 C 366.854 3.39084 -0.351409 0
M  V30 3844 H 368.047 2.36686 -1.84174 0
M  V30 3845 H 365.6 1.21015 -0.98919 0
M  V30 3846 H 366.335 3.18782 0.59569 0
M  V30 3847 H 366.12 3.76909 -1.08083 0
M  V30 3848 H 367.61 4.17227 -0.176451 0
M  V30 3849 N 368.047 0.979072 1.23499 0
M  V30 3850 C 369.275 0.665202 1.95915 0
M  V30 3851 C 369.69 -0.767571 1.72493 0
M  V30 3852 O 369.047 -1.51635 1.01554 0
M  V30 3853 C 369.098 0.944438 3.48945 0
M  V30 3854 O 368.819 2.3209 3.71572 0
M  V30 3855 C 370.32 0.646336 4.38563 0
M  V30 3856 H 367.54 0.247218 0.623798 0
M  V30 3857 H 370.084 1.31009 1.57025 0
M  V30 3858 H 368.239 0.345575 3.85856 0
M  V30 3859 H 368.653 2.40957 4.65876 0
M  V30 3860 H 370.127 0.892091 5.44744 0
M  V30 3861 H 370.604 -0.419575 4.37191 0
M  V30 3862 H 371.21 1.22562 4.07258 0
M  V30 3863 N 369.525 -1.3858 0.750561 0
M  V30 3864 C 370.472 -2.30483 0.120835 0
M  V30 3865 C 371.442 -1.50022 -0.712923 0
M  V30 3866 O 372.627 -1.78662 -0.669676 0
M  V30 3867 C 369.767 -3.36431 -0.768666 0
M  V30 3868 C 368.88 -4.31927 0.0793922 0
M  V30 3869 C 368.015 -5.24944 -0.81283 0
M  V30 3870 C 367.054 -6.12088 0.0390447 0
M  V30 3871 N 366.191 -6.97412 -0.809969 0
M  V30 3872 H 371.031 -2.83761 0.91015 0
M  V30 3873 H 368.568 -1.39707 0.460463 0
M  V30 3874 H 370.526 -3.96462 -1.29898 0
M  V30 3875 H 369.156 -2.8457 -1.5238 0
M  V30 3876 H 368.208 -3.73382 0.727303 0
M  V30 3877 H 369.52 -4.93319 0.737401 0
M  V30 3878 H 368.674 -5.90078 -1.41042 0
M  V30 3879 H 367.413 -4.63911 -1.50458 0
M  V30 3880 H 366.418 -5.45952 0.649328 0
M  V30 3881 H 367.643 -6.75189 0.727809 0
M  V30 3882 H 365.589 -6.38931 -1.48672 0
M  V30 3883 H 365.506 -7.55712 -0.208789 0
M  V30 3884 H 366.774 -7.66959 -1.39263 0
M  V30 3885 O 371.042 -0.64105 -1.48232 0
M  V30 3886 H 371.733 -0.162855 -1.93014 0
M  V30 END ATOM
M  V30 BEGIN BOND
M  V30 END BOND
M  V30 END CTAB
M  END
$$$$
