drugbank_target|Q56232 Aspartate aminotransferase (DB02142; DB04299)
 OpenBabel12092119543D

  0  0  0     0  0            999 V3000
M  V30 BEGIN CTAB
M  V30 COUNTS 5950 6011 0 0 0
M  V30 BEGIN ATOM
M  V30 1 H -0.908 1.98254 -0.117106 0
M  V30 2 N 0 1.576 0 0
M  V30 3 C 0.933 2.03868 1.02534 0
M  V30 4 C 1.911 0.928543 1.3348 0
M  V30 5 O 3.095 1.19667 1.45644 0
M  V30 6 C 0.222 2.43627 2.35294 0
M  V30 7 C -0.732 3.65373 2.2001 0
M  V30 8 S 0.101 5.13292 1.52614 0
M  V30 9 C 1.257 5.56322 2.86805 0
M  V30 10 H 1.49 2.90518 0.631377 0
M  V30 11 H -0.977 1.52953 0.210867 0
M  V30 12 H 0.981 2.67203 3.11629 0
M  V30 13 H -0.358 1.57376 2.7183 0
M  V30 14 H -1.165 3.90944 3.18086 0
M  V30 15 H -1.563 3.418 1.51819 0
M  V30 16 H 0.729 5.58782 3.83104 0
M  V30 17 H 1.672 6.56266 2.65933 0
M  V30 18 H 2.08 4.83886 2.90714 0
M  V30 19 N 1.4781 -0.272755 1.55222 0
M  V30 20 C 2.8941 -0.619959 1.47067 0
M  V30 21 C 3.0941 -1.895 0.684978 0
M  V30 22 O 2.1501 -2.51675 0.203931 0
M  V30 23 C 3.4631 -0.746693 2.91282 0
M  V30 24 C 5.0111 -0.840731 3.01497 0
M  V30 25 C 5.4861 -0.99924 4.46967 0
M  V30 26 N 6.9771 -1.06476 4.50796 0
M  V30 27 C 7.7121 -1.20621 5.6057 0
M  V30 28 N 7.2081 -1.31483 6.80209 0
M  V30 29 N 9.0011 -1.23733 5.48312 0
M  V30 30 H 1.1521 0.564606 2.04758 0
M  V30 31 H 3.4151 0.191177 0.928523 0
M  V30 32 H 3.1211 0.119753 3.51496 0
M  V30 33 H 2.9951 -1.6269 3.40311 0
M  V30 34 H 5.3821 -1.69764 2.41379 0
M  V30 35 H 5.4631 0.0640874 2.5572 0
M  V30 36 H 5.1071 -0.146984 5.07687 0
M  V30 37 H 5.0371 -1.91871 4.90401 0
M  V30 38 H 7.5281 -0.993196 3.64615 0
M  V30 39 H 7.8411 -1.42111 7.59621 0
M  V30 40 H 6.1861 -1.28487 6.8302 0
M  V30 41 H 9.3771 -1.14877 4.53785 0
M  V30 42 H 9.5501 -1.34412 6.33906 0
M  V30 43 N 2.9562 -1.48159 -0.537278 0
M  V30 44 C 4.2042 -1.55497 -1.29094 0
M  V30 45 C 4.5252 -0.227454 -1.93669 0
M  V30 46 O 3.7952 0.750386 -1.80959 0
M  V30 47 H 2.3752 -0.572832 -0.47945 0
M  V30 48 H 5.0372 -1.84579 -0.625818 0
M  V30 49 H 4.1332 -2.33216 -2.07405 0
M  V30 50 N 4.4343 0.785586 -1.36625 0
M  V30 51 C 5.3643 1.91259 -1.33949 0
M  V30 52 C 6.3453 1.68795 -0.210325 0
M  V30 53 O 7.5303 1.89854 -0.408561 0
M  V30 54 C 4.6603 3.28339 -1.13186 0
M  V30 55 C 3.6143 3.65335 -2.22967 0
M  V30 56 C 2.9403 5.00806 -1.87342 0
M  V30 57 C 4.2403 3.7352 -3.65075 0
M  V30 58 H 5.9343 1.93755 -2.28253 0
M  V30 59 H 3.4803 0.930788 -1.09874 0
M  V30 60 H 5.4333 4.06804 -1.09948 0
M  V30 61 H 4.1573 3.2624 -0.153332 0
M  V30 62 H 2.8163 2.89169 -2.25337 0
M  V30 63 H 2.4643 4.95233 -0.880545 0
M  V30 64 H 2.1643 5.26529 -2.60846 0
M  V30 65 H 3.6883 5.81687 -1.85667 0
M  V30 66 H 5.1023 4.42168 -3.64911 0
M  V30 67 H 3.4993 4.10731 -4.37516 0
M  V30 68 H 4.5693 2.74527 -3.99703 0
M  V30 69 N 5.9124 1.20967 1.01018 0
M  V30 70 C 7.1374 1.0503 1.78839 0
M  V30 71 C 7.5624 -0.395752 1.8389 0
M  V30 72 O 6.9204 -1.28529 1.27867 0
M  V30 73 C 6.9684 1.64602 3.2084 0
M  V30 74 O 6.0724 0.887988 4.02726 0
M  V30 75 H 5.4134 0.369987 0.551367 0
M  V30 76 H 7.9434 1.60399 1.27018 0
M  V30 77 H 7.9534 1.68607 3.71532 0
M  V30 78 H 6.6284 2.69841 3.16479 0
M  V30 79 H 5.2054 0.922648 3.61305 0
M  V30 80 N 7.3905 -1.2043 1.01659 0
M  V30 81 C 8.8065 -1.41852 0.731442 0
M  V30 82 C 9.0065 -1.89358 -0.688898 0
M  V30 83 O 8.0625 -2.06247 -1.45666 0
M  V30 84 C 9.3755 -2.44019 1.75714 0
M  V30 85 C 10.9235 -2.57785 1.77527 0
M  V30 86 C 11.3985 -3.63194 2.79023 0
M  V30 87 N 12.8895 -3.70678 2.77763 0
M  V30 88 C 13.6245 -4.51897 3.52954 0
M  V30 89 N 13.1205 -5.36921 4.37821 0
M  V30 90 N 14.9135 -4.4643 3.41551 0
M  V30 91 H 7.0645 -0.879093 1.93354 0
M  V30 92 H 9.3275 -0.448425 0.835236 0
M  V30 93 H 9.0335 -2.1611 2.77469 0
M  V30 94 H 8.9075 -3.43007 1.56927 0
M  V30 95 H 11.2945 -2.85023 0.764569 0
M  V30 96 H 11.3755 -1.58992 2.00387 0
M  V30 97 H 11.0195 -3.36699 3.80258 0
M  V30 98 H 10.9495 -4.61609 2.53425 0
M  V30 99 H 13.4405 -3.09944 2.16201 0
M  V30 100 H 13.7535 -5.95981 4.91962 0
M  V30 101 H 12.0985 -5.36424 4.41899 0
M  V30 102 H 15.2895 -3.79042 2.74672 0
M  V30 103 H 15.4625 -5.09491 4.00404 0
M  V30 104 N 8.8686 -0.792821 -1.36206 0
M  V30 105 C 10.2846 -0.474903 -1.52371 0
M  V30 106 C 10.4846 1.00622 -1.74578 0
M  V30 107 O 9.5406 1.79162 -1.77924 0
M  V30 108 C 10.8536 -1.3083 -2.70747 0
M  V30 109 C 12.4016 -1.30234 -2.84619 0
M  V30 110 C 12.8766 -2.11956 -4.06004 0
M  V30 111 N 14.3676 -2.09419 -4.13156 0
M  V30 112 C 15.1026 -2.69419 -5.06163 0
M  V30 113 N 14.5986 -3.3829 -6.04592 0
M  V30 114 N 16.3916 -2.59134 -4.98804 0
M  V30 115 H 8.5426 -1.75222 -1.20046 0
M  V30 116 H 10.8056 -0.745024 -0.586211 0
M  V30 117 H 10.5116 -2.35881 -2.6087 0
M  V30 118 H 10.3856 -0.95196 -3.6499 0
M  V30 119 H 12.7726 -0.259748 -2.93955 0
M  V30 120 H 12.8536 -1.69847 -1.91274 0
M  V30 121 H 12.4976 -3.16248 -3.97429 0
M  V30 122 H 12.4276 -1.69711 -4.98503 0
M  V30 123 H 14.9186 -1.59297 -3.42685 0
M  V30 124 H 15.2316 -3.81394 -6.7213 0
M  V30 125 H 13.5766 -3.42393 -6.04807 0
M  V30 126 H 16.7676 -2.04927 -4.20859 0
M  V30 127 H 16.9406 -3.06185 -5.711 0
M  V30 128 N 10.3467 1.47872 -0.545128 0
M  V30 129 C 11.5927 2.02793 -0.0166104 0
M  V30 130 C 11.9257 1.41987 1.32489 0
M  V30 131 O 11.2007 0.571045 1.85928 0
M  V30 132 C 11.4837 3.59989 0.0893294 0
M  V30 133 C 11.3367 4.3125 -1.27841 0
M  V30 134 C 12.6557 4.32606 0.808724 0
M  V30 135 H 9.7747 0.736962 -0.00751035 0
M  V30 136 H 12.4167 1.76433 -0.705085 0
M  V30 137 H 10.5667 3.82579 0.675681 0
M  V30 138 H 12.2387 4.20035 -1.90704 0
M  V30 139 H 10.4817 3.92076 -1.85632 0
M  V30 140 H 11.1527 5.39736 -1.15713 0
M  V30 141 H 13.6287 4.14936 0.310992 0
M  V30 142 H 12.5047 5.42251 0.851782 0
M  V30 143 H 12.7657 4.00963 1.86229 0
M  V30 144 N 11.8248 0.280983 1.55075 0
M  V30 145 C 12.7568 -0.637268 2.20163 0
M  V30 146 C 13.7698 -1.11298 1.18813 0
M  V30 147 O 14.9588 -1.03388 1.4551 0
M  V30 148 C 12.0588 -1.88199 2.81841 0
M  V30 149 C 11.2318 -1.55211 4.08936 0
M  V30 150 C 10.2908 -2.64991 4.54606 0
M  V30 151 O 9.3168 -2.30929 5.2025 0
M  V30 152 N 10.5188 -3.95161 4.25238 0
M  V30 153 H 13.2838 -0.0801694 2.99593 0
M  V30 154 H 10.8448 0.102329 1.61576 0
M  V30 155 H 12.8368 -2.60948 3.09335 0
M  V30 156 H 11.4068 -2.34799 2.06369 0
M  V30 157 H 10.6268 -0.658185 3.88666 0
M  V30 158 H 11.9148 -1.30681 4.91732 0
M  V30 159 H 11.3128 -4.25653 3.72607 0
M  V30 160 H 9.8698 -4.6427 4.5749 0
M  V30 161 N 13.3029 -1.57598 0.00835791 0
M  V30 162 C 14.2659 -2.07884 -0.965242 0
M  V30 163 C 15.2659 -0.989825 -1.26725 0
M  V30 164 O 16.4559 -1.25218 -1.21104 0
M  V30 165 C 13.5879 -2.52731 -2.28779 0
M  V30 166 H 14.7809 -2.95178 -0.530112 0
M  V30 167 H 12.3339 -1.54458 -0.239283 0
M  V30 168 H 13.0689 -1.68705 -2.76964 0
M  V30 169 H 12.8539 -3.32272 -2.08177 0
M  V30 170 H 14.3439 -2.91933 -2.98605 0
M  V30 171 N 14.781 0.264519 -1.55364 0
M  V30 172 C 15.714 1.35297 -1.83766 0
M  V30 173 C 16.692 1.47171 -0.691336 0
M  V30 174 O 17.876 1.63663 -0.935238 0
M  V30 175 C 15.003 2.72847 -2.00679 0
M  V30 176 C 14.049 2.78214 -3.23263 0
M  V30 177 S 14.882 2.36601 -4.80396 0
M  V30 178 C 16.038 3.7611 -5.00292 0
M  V30 179 H 16.271 1.11003 -2.758 0
M  V30 180 H 13.804 0.464596 -1.47244 0
M  V30 181 H 15.762 3.52057 -2.11108 0
M  V30 182 H 14.423 2.94388 -1.09518 0
M  V30 183 H 13.616 3.7919 -3.3201 0
M  V30 184 H 13.218 2.07034 -3.11469 0
M  V30 185 H 15.51 4.71457 -4.86554 0
M  V30 186 H 16.453 3.7231 -6.02321 0
M  V30 187 H 16.861 3.67806 -4.28228 0
M  V30 188 N 16.2591 1.48442 0.529413 0
M  V30 189 C 17.2061 1.63007 1.63394 0
M  V30 190 C 18.1761 0.47212 1.59249 0
M  V30 191 O 19.3611 0.695673 1.77666 0
M  V30 192 C 16.5011 1.6763 3.01653 0
M  V30 193 C 15.6141 2.94535 3.16027 0
M  V30 194 C 14.7491 2.90316 4.44849 0
M  V30 195 C 13.7881 4.11923 4.52754 0
M  V30 196 N 12.9251 4.05777 5.72965 0
M  V30 197 H 17.7651 2.5733 1.50285 0
M  V30 198 H 15.3021 1.27613 0.731656 0
M  V30 199 H 17.2601 1.68292 3.81751 0
M  V30 200 H 15.8901 0.76797 3.13532 0
M  V30 201 H 14.9421 3.03615 2.29177 0
M  V30 202 H 16.2541 3.84512 3.17729 0
M  V30 203 H 15.4081 2.89382 5.33238 0
M  V30 204 H 14.1471 1.98068 4.45668 0
M  V30 205 H 13.1521 4.13131 3.62771 0
M  V30 206 H 14.3771 5.0533 4.53672 0
M  V30 207 H 12.3231 3.16351 5.74681 0
M  V30 208 H 12.2401 4.8946 5.76164 0
M  V30 209 H 13.5081 4.08904 6.6364 0
M  V30 210 N 17.7372 -0.778329 1.37039 0
M  V30 211 C 19.1482 -1.35421 1.28523 0
M  V30 212 C 19.4992 -1.96075 -0.0700901 0
M  V30 213 O 18.6242 -1.93352 -0.971801 0
M  V30 214 C 19.2192 -2.46211 2.32735 0
M  V30 215 C 17.7782 -2.99585 2.27873 0
M  V30 216 C 16.9252 -1.72748 2.16918 0
M  V30 217 H 19.8762 -0.5791 1.47757 0
M  V30 218 H 19.8972 -3.2552 1.9702 0
M  V30 219 H 19.4092 -2.02036 3.31365 0
M  V30 220 H 17.5102 -3.48152 1.32745 0
M  V30 221 H 17.6232 -3.55646 3.21018 0
M  V30 222 H 15.9872 -1.95416 1.63354 0
M  V30 223 H 16.7702 -1.30686 3.17452 0
M  V30 224 N 19.2153 -1.21501 -1.00376 0
M  V30 225 C 20.4403 -1.05977 -1.78279 0
M  V30 226 C 20.8653 0.385994 -1.84097 0
M  V30 227 O 20.2233 1.27849 -1.28547 0
M  V30 228 C 20.2713 -1.66302 -3.19963 0
M  V30 229 O 19.3753 -0.909333 -4.0225 0
M  V30 230 H 18.7163 -0.372906 -0.549397 0
M  V30 231 H 21.2463 -1.6107 -1.26165 0
M  V30 232 H 21.2563 -1.70574 -3.70632 0
M  V30 233 H 19.9313 -2.71515 -3.15043 0
M  V30 234 H 18.5083 -0.941795 -3.60811 0
M  V30 235 N 20.6934 1.19889 -1.02296 0
M  V30 236 C 21.6564 2.21116 -0.603351 0
M  V30 237 C 22.6564 1.5738 0.329884 0
M  V30 238 O 23.8464 1.73802 0.117702 0
M  V30 239 C 20.9784 3.40696 0.117992 0
M  V30 240 H 22.1714 2.59754 -1.49893 0
M  V30 241 H 19.7244 1.33463 -0.813468 0
M  V30 242 H 20.4594 3.07569 1.0282 0
M  V30 243 H 20.2444 3.88188 -0.552511 0
M  V30 244 H 21.7344 4.15692 0.398696 0
M  V30 245 N 22.1715 0.800033 1.35784 0
M  V30 246 C 23.3995 0.389606 2.03199 0
M  V30 247 C 23.8145 -0.997375 1.60306 0
M  V30 248 O 23.1715 -1.64154 0.797481 0
M  V30 249 C 23.2225 0.455855 3.58614 0
M  V30 250 O 22.9435 1.78815 3.99946 0
M  V30 251 C 24.4445 0.0374032 4.43284 0
M  V30 252 H 21.6645 0.159132 0.651857 0
M  V30 253 H 24.2085 1.08183 1.73541 0
M  V30 254 H 22.3635 -0.188057 3.86943 0
M  V30 255 H 22.7775 1.74636 4.94573 0
M  V30 256 H 24.2515 0.134882 5.51835 0
M  V30 257 H 24.7285 -1.01651 4.27275 0
M  V30 258 H 25.3345 0.654215 4.20238 0
M  V30 259 N 23.6496 -1.47581 0.552962 0
M  V30 260 C 24.8956 -2.02782 0.0273648 0
M  V30 261 C 25.2286 -1.42687 -1.31734 0
M  V30 262 O 24.5036 -0.580897 -1.85623 0
M  V30 263 C 24.7866 -3.60031 -0.0702371 0
M  V30 264 C 24.6396 -4.30566 1.30126 0
M  V30 265 C 25.9586 -4.33028 -0.785771 0
M  V30 266 H 23.0776 -0.736912 0.0114185 0
M  V30 267 H 25.7196 -1.76056 0.714432 0
M  V30 268 H 23.8696 -3.82932 -0.655382 0
M  V30 269 H 25.5416 -4.19018 1.92929 0
M  V30 270 H 23.7846 -3.91086 1.87709 0
M  V30 271 H 24.4556 -5.39114 1.18573 0
M  V30 272 H 26.9316 -4.15095 -0.288982 0
M  V30 273 H 25.8076 -5.42695 -0.823013 0
M  V30 274 H 26.0686 -4.01945 -1.841 0
M  V30 275 N 25.1277 -0.289203 -1.54924 0
M  V30 276 C 26.0907 0.579144 -2.21762 0
M  V30 277 C 27.0907 1.07047 -1.1999 0
M  V30 278 O 28.2807 0.968384 -1.44803 0
M  V30 279 C 25.4127 1.80055 -2.8947 0
M  V30 280 H 26.6057 -0.00464908 -2.999 0
M  V30 281 H 24.1587 -0.0399306 -1.56249 0
M  V30 282 H 24.8937 2.42449 -2.15381 0
M  V30 283 H 24.6787 1.45602 -3.64064 0
M  V30 284 H 26.1687 2.41773 -3.40493 0
M  V30 285 N 26.6058 1.57591 -0.0167156 0
M  V30 286 C 27.8518 1.91567 0.665582 0
M  V30 287 C 28.1848 0.892298 1.72487 0
M  V30 288 O 27.4598 -0.0867127 1.94307 0
M  V30 289 C 27.7428 3.36069 1.29342 0
M  V30 290 C 27.5958 4.49135 0.244541 0
M  V30 291 C 28.9148 3.803 2.21495 0
M  V30 292 H 26.0338 0.69666 0.240488 0
M  V30 293 H 28.6758 1.89866 -0.0714356 0
M  V30 294 H 26.8258 3.3765 1.92158 0
M  V30 295 H 28.4978 4.59689 -0.385228 0
M  V30 296 H 26.7408 4.3165 -0.431379 0
M  V30 297 H 27.4118 5.47242 0.723207 0
M  V30 298 H 29.8878 3.80377 1.68678 0
M  V30 299 H 28.7638 4.82127 2.62382 0
M  V30 300 H 29.0248 3.15104 3.101 0
M  V30 301 N 28.0839 -0.256276 1.55502 0
M  V30 302 C 29.0319 -1.33694 1.90338 0
M  V30 303 C 30.0259 -1.50299 0.781441 0
M  V30 304 O 31.2319 -1.51885 0.965966 0
M  V30 305 H 27.6069 -0.447483 0.60437 0
M  V30 306 H 29.5779 -1.01574 2.8058 0
M  V30 307 C 28.3269 -2.68724 2.20642 0
M  V30 308 H 27.6499 -2.56743 3.06469 0
M  V30 309 H 29.0899 -3.43237 2.48926 0
M  V30 310 C 27.5489 -3.21101 1.01959 0
M  V30 311 O 28.0789 -4.0084 0.262762 0
M  V30 312 N 26.2849 -2.79003 0.812746 0
M  V30 313 H 25.8319 -2.14271 1.42989 0
M  V30 314 H 25.7899 -3.14393 0.0203076 0
M  V30 315 N 29.562 -1.4872 -0.521534 0
M  V30 316 C 30.525 -1.63379 -1.60748 0
M  V30 317 C 31.525 -0.50661 -1.52611 0
M  V30 318 O 32.715 -0.772601 -1.5613 0
M  V30 319 C 29.847 -1.61192 -3.00383 0
M  V30 320 H 31.04 -2.60217 -1.49087 0
M  V30 321 H 28.593 -1.37444 -0.744235 0
M  V30 322 H 29.328 -0.65863 -3.17541 0
M  V30 323 H 29.113 -2.43032 -3.07698 0
M  V30 324 H 30.603 -1.7466 -3.7932 0
M  V30 325 N 31.0401 0.771051 -1.3745 0
M  V30 326 C 31.9871 1.88435 -1.3327 0
M  V30 327 C 32.9571 1.64914 -0.198136 0
M  V30 328 O 34.1421 1.86821 -0.387606 0
M  V30 329 C 31.2821 3.25509 -1.14622 0
M  V30 330 C 30.3951 3.60979 -2.37314 0
M  V30 331 C 29.5301 4.87265 -2.11533 0
M  V30 332 C 28.5691 5.15469 -3.30088 0
M  V30 333 N 27.7061 6.32944 -3.03853 0
M  V30 334 H 32.5461 1.91344 -2.28455 0
M  V30 335 H 30.0831 0.935466 -1.13523 0
M  V30 336 H 32.0411 4.04582 -1.01831 0
M  V30 337 H 30.6711 3.21974 -0.230837 0
M  V30 338 H 29.7231 2.76885 -2.60842 0
M  V30 339 H 31.0351 3.77759 -3.25729 0
M  V30 340 H 30.1891 5.74244 -1.95777 0
M  V30 341 H 28.9281 4.7259 -1.20457 0
M  V30 342 H 27.9331 4.26966 -3.46382 0
M  V30 343 H 29.1581 5.32052 -4.22016 0
M  V30 344 H 27.1041 6.19625 -2.15407 0
M  V30 345 H 27.0211 6.50143 -3.85812 0
M  V30 346 H 28.2891 7.22857 -2.91716 0
M  V30 347 N 32.5182 1.22032 0.997298 0
M  V30 348 C 33.4812 0.987909 2.06816 0
M  V30 349 C 34.4812 -0.0440084 1.6074 0
M  V30 350 O 35.6712 0.194053 1.73116 0
M  V30 351 C 32.8032 0.49132 3.37341 0
M  V30 352 H 33.9962 1.93803 2.28868 0
M  V30 353 H 31.5492 1.03838 1.16822 0
M  V30 354 H 32.2842 -0.463364 3.20973 0
M  V30 355 H 32.0692 1.23575 3.72118 0
M  V30 356 H 33.5592 0.348824 4.16141 0
M  V30 357 N 33.9963 -1.19345 1.0293 0
M  V30 358 C 34.9263 -2.2481 0.631105 0
M  V30 359 C 35.9073 -1.66245 -0.360104 0
M  V30 360 O 37.0923 -1.92677 -0.242726 0
M  V30 361 C 34.2223 -3.47295 -0.0184607 0
M  V30 362 C 33.1763 -4.18536 0.895073 0
M  V30 363 C 32.5023 -5.34586 0.110592 0
M  V30 364 C 33.8023 -4.73287 2.209 0
M  V30 365 H 35.4963 -2.58372 1.51275 0
M  V30 366 H 33.0423 -1.24194 0.728818 0
M  V30 367 H 34.9953 -4.20268 -0.308675 0
M  V30 368 H 33.7193 -3.12933 -0.934907 0
M  V30 369 H 32.3783 -3.47446 1.16949 0
M  V30 370 H 32.0263 -4.96469 -0.807902 0
M  V30 371 H 31.7263 -5.83183 0.719087 0
M  V30 372 H 33.2503 -6.10355 -0.172871 0
M  V30 373 H 34.6643 -5.38013 1.98028 0
M  V30 374 H 33.0613 -5.32373 2.76946 0
M  V30 375 H 34.1313 -3.91331 2.86336 0
M  V30 376 N 35.4744 -0.807222 -1.35358 0
M  V30 377 C 36.3844 -0.219594 -2.3357 0
M  V30 378 C 37.4004 0.637734 -1.61892 0
M  V30 379 O 38.5764 0.549336 -1.93763 0
M  V30 380 C 35.6414 0.62158 -3.41083 0
M  V30 381 C 34.7024 -0.256315 -4.28534 0
M  V30 382 C 33.9354 0.544807 -5.30912 0
M  V30 383 O 34.1584 1.77944 -5.41934 0
M  V30 384 O 33.0924 -0.0646478 -6.01865 0
M  V30 385 H 36.9184 -1.03208 -2.85625 0
M  V30 386 H 34.5034 -0.569025 -1.38139 0
M  V30 387 H 36.3854 1.10067 -4.06772 0
M  V30 388 H 35.0604 1.41165 -2.91297 0
M  V30 389 H 33.9674 -0.782559 -3.65823 0
M  V30 390 H 35.3004 -1.01034 -4.81719 0
M  V30 391 N 36.9525 1.47285 -0.560781 0
M  V30 392 C 37.8825 2.32857 0.173105 0
M  V30 393 C 38.8635 1.44009 0.905281 0
M  V30 394 O 40.0485 1.7286 0.885046 0
M  V30 395 C 37.1785 3.25861 1.20133 0
M  V30 396 C 36.1325 4.23978 0.585388 0
M  V30 397 C 35.4585 5.06332 1.7185 0
M  V30 398 C 36.7585 5.20242 -0.463178 0
M  V30 399 H 38.4525 2.94466 -0.541307 0
M  V30 400 H 35.9985 1.41601 -0.261764 0
M  V30 401 H 37.9515 3.84569 1.72293 0
M  V30 402 H 36.6755 2.62315 1.94573 0
M  V30 403 H 35.3345 3.66501 0.085054 0
M  V30 404 H 34.9825 4.39186 2.45203 0
M  V30 405 H 34.6825 5.72762 1.31213 0
M  V30 406 H 36.2065 5.67899 2.24329 0
M  V30 407 H 37.6205 5.73293 -0.027502 0
M  V30 408 H 36.0175 5.94896 -0.788627 0
M  V30 409 H 37.0875 4.65504 -1.35773 0
M  V30 410 N 38.4306 0.297415 1.54768 0
M  V30 411 C 39.8466 -0.0560823 1.59501 0
M  V30 412 C 40.0466 -1.52725 1.31444 0
M  V30 413 O 39.1026 -2.27947 1.08611 0
M  V30 414 C 40.4156 0.338631 2.98787 0
M  V30 415 C 41.9636 0.287097 3.11681 0
M  V30 416 C 42.4386 0.656579 4.53269 0
M  V30 417 N 43.9296 0.608977 4.59179 0
M  V30 418 C 44.6646 0.867385 5.66802 0
M  V30 419 N 44.1606 1.19157 6.82476 0
M  V30 420 N 45.9536 0.794687 5.56454 0
M  V30 421 H 38.1046 1.25624 1.71267 0
M  V30 422 H 40.3676 0.509057 0.799728 0
M  V30 423 H 40.0736 1.36263 3.2423 0
M  V30 424 H 39.9476 -0.309508 3.75928 0
M  V30 425 H 42.3346 -0.727649 2.85988 0
M  V30 426 H 42.4156 0.969809 2.36703 0
M  V30 427 H 42.0596 1.66912 4.7969 0
M  V30 428 H 41.9896 -0.0481649 5.26578 0
M  V30 429 H 44.4806 0.369198 3.76092 0
M  V30 430 H 44.7936 1.37482 7.60473 0
M  V30 431 H 43.1386 1.22958 6.84037 0
M  V30 432 H 46.3296 0.541098 4.64962 0
M  V30 433 H 46.5026 0.999445 6.40246 0
M  V30 434 N 39.9087 -1.5758 0.0250728 0
M  V30 435 C 41.3247 -1.56124 -0.331282 0
M  V30 436 C 41.5247 -1.03029 -1.73169 0
M  V30 437 O 40.5807 -0.675215 -2.43305 0
M  V30 438 C 41.8937 -3.00139 -0.183584 0
M  V30 439 C 43.4417 -3.11946 -0.256654 0
M  V30 440 C 43.9167 -4.57793 -0.137792 0
M  V30 441 N 45.4077 -4.6279 -0.194904 0
M  V30 442 C 46.1427 -5.7326 -0.126655 0
M  V30 443 N 45.6387 -6.928 -0.00755288 0
M  V30 444 N 47.4317 -5.61811 -0.180348 0
M  V30 445 H 39.5827 -1.90424 0.94087 0
M  V30 446 H 41.8457 -0.875761 0.362968 0
M  V30 447 H 41.5517 -3.4292 0.780927 0
M  V30 448 H 41.4257 -3.64899 -0.955448 0
M  V30 449 H 43.8127 -2.69079 -1.21162 0
M  V30 450 H 43.8937 -2.49915 0.545517 0
M  V30 451 H 43.5377 -5.01339 0.813739 0
M  V30 452 H 43.4677 -5.17798 -0.958775 0
M  V30 453 H 45.9587 -3.76807 -0.287267 0
M  V30 454 H 46.2717 -7.72791 0.0379428 0
M  V30 455 H 44.6167 -6.94995 0.0271731 0
M  V30 456 H 47.8077 -4.6731 -0.271767 0
M  V30 457 H 47.9807 -6.47882 -0.123697 0
M  V30 458 N 41.3868 0.248026 -1.55636 0
M  V30 459 C 42.3188 1.32993 -1.8667 0
M  V30 460 C 43.3318 1.44345 -0.752877 0
M  V30 461 O 44.5208 1.45715 -1.03098 0
M  V30 462 C 41.6208 2.70863 -2.03682 0
M  V30 463 C 40.7938 2.81792 -3.34532 0
M  V30 464 C 39.8528 4.005 -3.41301 0
M  V30 465 O 38.8788 3.9008 -4.14519 0
M  V30 466 N 40.0808 5.13618 -2.70512 0
M  V30 467 H 42.8458 1.06707 -2.8006 0
M  V30 468 H 40.4068 0.438129 -1.55859 0
M  V30 469 H 42.3988 3.48612 -2.05553 0
M  V30 470 H 40.9688 2.89862 -1.17041 0
M  V30 471 H 40.1888 1.90729 -3.44987 0
M  V30 472 H 41.4768 2.86043 -4.20781 0
M  V30 473 H 40.8748 5.24975 -2.10755 0
M  V30 474 H 39.4318 5.89505 -2.78077 0
M  V30 475 N 42.8649 1.48995 0.513639 0
M  V30 476 C 44.1129 1.57531 1.26604 0
M  V30 477 C 44.4339 0.258236 1.93283 0
M  V30 478 O 43.7039 -0.721502 1.8213 0
M  V30 479 H 42.2839 0.580387 0.470276 0
M  V30 480 H 44.9459 1.85552 0.596373 0
M  V30 481 H 44.0419 2.36486 2.03669 0
M  V30 482 N 44.343 -0.763751 1.37857 0
M  V30 483 C 45.589 -1.52483 1.33704 0
M  V30 484 C 45.922 -1.94051 -0.0759612 0
M  V30 485 O 45.197 -1.64675 -1.03501 0
M  V30 486 C 45.48 -2.78441 2.28348 0
M  V30 487 C 45.333 -2.43075 3.78463 0
M  V30 488 C 46.652 -3.80415 2.21298 0
M  V30 489 H 43.771 -0.553169 0.487005 0
M  V30 490 H 46.413 -0.875562 1.68624 0
M  V30 491 H 44.563 -3.33842 1.987 0
M  V30 492 H 46.235 -1.93527 4.18742 0
M  V30 493 H 44.478 -1.75666 3.96641 0
M  V30 494 H 45.149 -3.33149 4.40132 0
M  V30 495 H 47.625 -3.34527 2.47449 0
M  V30 496 H 46.501 -4.66257 2.89647 0
M  V30 497 H 46.762 -4.25262 1.20849 0
M  V30 498 N 45.8211 -1.22559 -0.990812 0
M  V30 499 C 47.0981 -0.959875 -1.70428 0
M  V30 500 C 47.4781 0.524455 -2.04481 0
M  V30 501 O 46.8261 1.49302 -1.72977 0
M  V30 502 C 47.0361 -1.85955 -2.95333 0
M  V30 503 C 48.3841 -2.11687 -3.68068 0
M  V30 504 O 49.4081 -1.8342 -3.05345 0
M  V30 505 O 48.2671 -2.59572 -4.80921 0
M  V30 506 H 45.3611 -0.361154 -0.743974 0
M  V30 507 H 47.9071 -1.33554 -1.04697 0
M  V30 508 H 46.6791 -2.86346 -2.66687 0
M  V30 509 H 46.3021 -1.4856 -3.68803 0
M  V30 510 N 47.2992 1.18797 -1.03562 0
M  V30 511 C 48.2292 2.24472 -0.643019 0
M  V30 512 C 49.2102 1.66433 0.351283 0
M  V30 513 O 50.3952 1.92803 0.232505 0
M  V30 514 C 47.5252 3.473 4.24935e-05 0
M  V30 515 C 46.4792 4.18055 -0.917257 0
M  V30 516 C 45.8052 5.34519 -0.138941 0
M  V30 517 C 47.1052 4.72109 -2.23407 0
M  V30 518 H 48.7992 2.57566 -1.52643 0
M  V30 519 H 46.3452 1.23806 -0.735394 0
M  V30 520 H 48.2982 4.20426 0.286383 0
M  V30 521 H 47.0222 3.13424 0.918299 0
M  V30 522 H 45.6812 3.46821 -1.1879 0
M  V30 523 H 45.3292 4.96891 0.781562 0
M  V30 524 H 45.0292 5.82794 -0.750005 0
M  V30 525 H 46.5532 6.10438 0.1405 0
M  V30 526 H 47.9672 5.36955 -2.00879 0
M  V30 527 H 46.3642 5.30897 -2.79765 0
M  V30 528 H 47.4342 3.89807 -2.88407 0
M  V30 529 N 48.7773 0.814389 1.34928 0
M  V30 530 C 50.0233 0.399013 1.98836 0
M  V30 531 C 50.3563 -1.03314 1.64438 0
M  V30 532 O 49.6313 -1.71811 0.911659 0
M  V30 533 C 49.9143 0.591629 3.55207 0
M  V30 534 C 49.7673 2.06928 3.99376 0
M  V30 535 C 51.0863 0.022199 4.40094 0
M  V30 536 H 48.2053 0.146451 0.722303 0
M  V30 537 H 50.8473 1.02537 1.59957 0
M  V30 538 H 48.9973 0.0584441 3.88456 0
M  V30 539 H 50.6693 2.66544 3.76499 0
M  V30 540 H 48.9123 2.56287 3.49999 0
M  V30 541 H 49.5833 2.1549 5.08201 0
M  V30 542 H 52.0593 0.477643 4.13349 0
M  V30 543 H 50.9353 0.186832 5.48582 0
M  V30 544 H 51.1963 -1.07215 4.28902 0
M  V30 545 N 50.2554 -1.46986 0.568584 0
M  V30 546 C 51.2184 -2.28624 -0.162366 0
M  V30 547 C 52.2184 -1.37596 -0.832103 0
M  V30 548 O 53.4084 -1.60115 -0.68622 0
M  V30 549 C 50.5404 -3.17596 -1.23878 0
M  V30 550 H 51.7334 -2.94722 0.554899 0
M  V30 551 H 49.2864 -1.52863 0.325976 0
M  V30 552 H 50.0214 -2.56214 -1.98808 0
M  V30 553 H 49.8064 -3.846 -0.763219 0
M  V30 554 H 51.2964 -3.79078 -1.75185 0
M  V30 555 N 51.7335 -0.305618 -1.54608 0
M  V30 556 C 52.6635 0.561482 -2.26649 0
M  V30 557 C 53.6445 1.13415 -1.26772 0
M  V30 558 O 54.8295 1.16262 -1.55553 0
M  V30 559 C 51.9595 1.73122 -3.01075 0
M  V30 560 C 50.9135 1.2887 -4.08138 0
M  V30 561 C 50.2395 2.54396 -4.70305 0
M  V30 562 C 51.5395 0.416578 -5.20636 0
M  V30 563 H 53.2335 -0.0393902 -2.99374 0
M  V30 564 H 50.7795 -0.020385 -1.43986 0
M  V30 565 H 52.7325 2.34396 -3.50195 0
M  V30 566 H 51.4565 2.3584 -2.25936 0
M  V30 567 H 50.1155 0.698991 -3.59875 0
M  V30 568 H 49.7635 3.15439 -3.918 0
M  V30 569 H 49.4635 2.25486 -5.42614 0
M  V30 570 H 50.9875 3.16464 -5.2219 0
M  V30 571 H 52.4015 0.935116 -5.65622 0
M  V30 572 H 50.7985 0.221046 -5.99693 0
M  V30 573 H 51.8685 -0.557162 -4.81688 0
M  V30 574 N 53.2116 1.57565 -0.0334293 0
M  V30 575 C 54.4396 1.9628 0.654347 0
M  V30 576 C 54.8546 0.910138 1.65414 0
M  V30 577 O 54.2116 -0.107595 1.82183 0
M  V30 578 C 54.2626 3.35067 1.35693 0
M  V30 579 O 53.9836 4.36296 0.397191 0
M  V30 580 C 55.4846 3.88439 2.13613 0
M  V30 581 H 52.7046 0.646369 0.180132 0
M  V30 582 H 55.2486 2.04282 -0.0944721 0
M  V30 583 H 53.4036 3.2827 2.05712 0
M  V30 584 H 53.8176 5.1678 0.896597 0
M  V30 585 H 55.2916 4.8788 2.58219 0
M  V30 586 H 55.7686 3.22914 2.97696 0
M  V30 587 H 56.3746 3.98516 1.48543 0
M  V30 588 N 54.6897 -0.239769 1.55765 0
M  V30 589 C 55.6527 -1.28038 1.90103 0
M  V30 590 C 56.6527 -1.40723 0.778055 0
M  V30 591 O 57.8427 -1.39301 1.04599 0
M  V30 592 C 54.9747 -2.65702 2.13577 0
M  V30 593 H 56.1677 -0.988048 2.83157 0
M  V30 594 H 53.7207 -0.479382 1.48767 0
M  V30 595 H 54.4557 -3.00063 1.23015 0
M  V30 596 H 54.2407 -2.57875 2.95369 0
M  V30 597 H 55.7307 -3.40828 2.41301 0
M  V30 598 N 56.1678 -1.49265 -0.50573 0
M  V30 599 C 57.4158 -1.582 -1.25766 0
M  V30 600 C 57.7368 -0.268482 -1.93143 0
M  V30 601 O 57.0068 0.711833 -1.8251 0
M  V30 602 H 55.5868 -0.582873 -0.467191 0
M  V30 603 H 58.2488 -1.85865 -0.586525 0
M  V30 604 H 57.3448 -2.37563 -2.02412 0
M  V30 605 N 57.6459 0.756429 -1.3826 0
M  V30 606 C 58.5559 1.9009 -1.37488 0
M  V30 607 C 59.5719 1.71855 -0.272366 0
M  V30 608 O 60.7479 1.94827 -0.510318 0
M  V30 609 C 57.8129 3.25421 -1.19592 0
M  V30 610 C 56.8739 3.56202 -2.39622 0
M  V30 611 C 56.1069 4.85075 -2.2257 0
M  V30 612 O 56.3299 5.57246 -1.21793 0
M  V30 613 O 55.2639 5.15269 -3.11098 0
M  V30 614 H 59.0899 1.93695 -2.33914 0
M  V30 615 H 56.6749 0.901313 -1.1915 0
M  V30 616 H 58.5569 4.06337 -1.11661 0
M  V30 617 H 57.2319 3.22634 -0.262486 0
M  V30 618 H 56.1389 2.75458 -2.53128 0
M  V30 619 H 57.4719 3.63747 -3.31586 0
M  V30 620 N 59.124 1.23083 0.984299 0
M  V30 621 C 60.535 1.05609 1.5396 0
M  V30 622 C 60.886 -0.377793 1.92528 0
M  V30 623 O 60.011 -1.26398 1.75649 0
M  V30 624 C 60.606 1.91087 2.7977 0
M  V30 625 C 59.165 1.77885 3.31713 0
M  V30 626 C 58.312 1.87028 2.04733 0
M  V30 627 H 61.263 1.36802 0.804419 0
M  V30 628 H 61.284 1.43336 3.5247 0
M  V30 629 H 60.796 2.9544 2.51668 0
M  V30 630 H 58.897 0.762995 3.64704 0
M  V30 631 H 59.01 2.61047 4.01735 0
M  V30 632 H 57.374 1.30565 2.18689 0
M  V30 633 H 58.157 2.92929 1.79017 0
M  V30 634 N 60.6021 -1.18246 1.0419 0
M  V30 635 C 61.8791 -1.84121 0.660208 0
M  V30 636 C 62.2591 -1.92778 -0.860221 0
M  V30 637 O 61.6071 -1.45464 -1.76217 0
M  V30 638 C 61.8171 -3.22355 1.33747 0
M  V30 639 C 63.1651 -3.98376 1.46906 0
M  V30 640 O 64.1891 -3.31799 1.29568 0
M  V30 641 O 63.0481 -5.17665 1.75171 0
M  V30 642 H 60.1421 -0.794036 0.231161 0
M  V30 643 H 62.6881 -1.25628 1.14087 0
M  V30 644 H 61.4601 -3.10964 2.37522 0
M  V30 645 H 61.0831 -3.88506 0.845515 0
M  V30 646 N 62.0802 -0.821533 -1.34494 0
M  V30 647 C 63.3272 -0.408946 -1.98328 0
M  V30 648 C 63.6552 1.02764 -1.65136 0
M  V30 649 O 62.9102 1.73026 -0.914349 0
M  V30 650 C 63.2092 -0.556512 -3.53041 0
M  V30 651 C 62.8752 -1.95861 -4.0614 0
M  V30 652 C 61.5372 -2.34217 -4.20352 0
M  V30 653 C 63.8892 -2.87523 -4.34718 0
M  V30 654 C 61.2172 -3.63572 -4.6047 0
M  V30 655 C 63.5692 -4.1634 -4.76281 0
M  V30 656 C 62.2332 -4.54675 -4.88699 0
M  V30 657 H 61.5032 -0.149644 -0.725732 0
M  V30 658 H 64.1502 -1.04521 -1.6046 0
M  V30 659 H 62.4552 0.163148 -3.9146 0
M  V30 660 H 64.1522 -0.217826 -4.00408 0
M  V30 661 H 60.7422 -1.65066 -3.95539 0
M  V30 662 H 64.9262 -2.59133 -4.23277 0
M  V30 663 H 60.1822 -3.93101 -4.68275 0
M  V30 664 H 64.3562 -4.87455 -4.97354 0
M  V30 665 H 61.9832 -5.54959 -5.19542 0
M  V30 666 N 63.5583 1.46682 -0.576371 0
M  V30 667 C 64.8353 1.95599 0.00703437 0
M  V30 668 C 65.2153 1.51904 1.46589 0
M  V30 669 O 64.5633 0.766755 2.15251 0
M  V30 670 C 64.7733 3.4864 -0.158404 0
M  V30 671 C 66.1213 4.24594 -0.0229439 0
M  V30 672 O 67.1453 3.56094 -0.0869173 0
M  V30 673 O 66.0043 5.46373 0.118015 0
M  V30 674 H 63.0983 0.825275 0.053384 0
M  V30 675 H 65.6443 1.56996 -0.644244 0
M  V30 676 H 64.4163 3.7331 -1.17282 0
M  V30 677 H 64.0393 3.94057 0.5296 0
M  V30 678 N 65.0364 0.313813 1.54444 0
M  V30 679 C 66.2644 -0.293918 2.04802 0
M  V30 680 C 66.6794 -1.46537 1.19047 0
M  V30 681 O 66.0364 -1.81182 0.218939 0
M  V30 682 C 66.0874 -0.737806 3.53891 0
M  V30 683 O 65.8084 0.387038 4.36387 0
M  V30 684 C 67.3094 -1.40936 4.203 0
M  V30 685 H 64.5294 -0.0620057 0.668129 0
M  V30 686 H 67.0734 0.457169 1.99324 0
M  V30 687 H 65.2284 -1.43889 3.59687 0
M  V30 688 H 65.6424 0.0391274 5.24485 0
M  V30 689 H 67.1164 -1.67099 5.26101 0
M  V30 690 H 67.5934 -2.35355 3.70816 0
M  V30 691 H 68.1994 -0.751117 4.18615 0
M  V30 692 N 66.5145 -1.57545 0.0417849 0
M  V30 693 C 67.9255 -1.80011 -0.495259 0
M  V30 694 C 68.2765 -0.953199 -1.71489 0
M  V30 695 O 67.4015 -0.167138 -2.15754 0
M  V30 696 C 67.9965 -3.26482 -0.905265 0
M  V30 697 C 66.5555 -3.499 -1.38734 0
M  V30 698 C 65.7025 -2.74979 -0.358056 0
M  V30 699 H 68.6535 -1.56425 0.267736 0
M  V30 700 H 68.6745 -3.36887 -1.76882 0
M  V30 701 H 68.1865 -3.88096 -0.017401 0
M  V30 702 H 66.2875 -2.93553 -2.29471 0
M  V30 703 H 66.4005 -4.58615 -1.38598 0
M  V30 704 H 64.7645 -2.40834 -0.828912 0
M  V30 705 H 65.5475 -3.39315 0.521561 0
M  V30 706 N 67.9926 0.231505 -1.5589 0
M  V30 707 C 68.9026 1.308 -1.94752 0
M  V30 708 C 69.9186 1.51826 -0.849989 0
M  V30 709 O 71.0946 1.6515 -1.15271 0
M  V30 710 C 68.1596 2.63968 -2.24771 0
M  V30 711 C 67.2206 2.51331 -3.48039 0
M  V30 712 C 66.4536 3.78148 -3.76616 0
M  V30 713 O 66.6766 4.80722 -3.07022 0
M  V30 714 O 65.6106 3.75857 -4.70123 0
M  V30 715 H 69.4366 1.0083 -2.86474 0
M  V30 716 H 67.0216 0.433547 -1.42971 0
M  V30 717 H 68.9036 3.42633 -2.45318 0
M  V30 718 H 67.5786 2.9364 -1.36225 0
M  V30 719 H 66.4856 1.709 -3.32782 0
M  V30 720 H 67.8186 2.26601 -4.36936 0
M  V30 721 N 69.4707 1.49531 0.497807 0
M  V30 722 C 70.4207 1.62829 1.59596 0
M  V30 723 C 71.4047 0.483824 1.53453 0
M  V30 724 O 72.5967 0.736937 1.60929 0
M  V30 725 C 69.7257 1.7011 2.98191 0
M  V30 726 C 68.8117 2.90144 3.09317 0
M  V30 727 N 69.2027 4.1418 2.90324 0
M  V30 728 C 67.5007 2.88148 3.40422 0
M  V30 729 C 68.2017 4.94886 3.05717 0
M  V30 730 N 67.1777 4.28314 3.34736 0
M  V30 731 H 70.9797 2.56446 1.4357 0
M  V30 732 H 68.4937 1.46347 0.704001 0
M  V30 733 H 70.4907 1.77735 3.77115 0
M  V30 734 H 69.1507 0.776315 3.15283 0
M  V30 735 H 70.1617 4.44109 2.66436 0
M  V30 736 H 66.8387 2.05061 3.63671 0
M  V30 737 H 68.2287 6.03432 2.95499 0
M  V30 738 N 70.9488 -0.749086 1.3866 0
M  V30 739 C 72.1948 -1.51056 1.35314 0
M  V30 740 C 72.5278 -1.94121 -0.0553751 0
M  V30 741 O 71.8028 -1.65763 -1.01749 0
M  V30 742 C 72.0858 -2.76003 2.31288 0
M  V30 743 C 71.9388 -2.39047 3.8102 0
M  V30 744 C 73.2578 -3.78046 2.2532 0
M  V30 745 H 70.3768 -0.547972 0.492844 0
M  V30 746 H 73.0188 -0.857628 1.69543 0
M  V30 747 H 71.1688 -3.31716 2.02229 0
M  V30 748 H 72.8408 -1.89074 4.20771 0
M  V30 749 H 71.0838 -1.71449 3.98482 0
M  V30 750 H 71.7548 -3.28462 4.4364 0
M  V30 751 H 74.2308 -3.31884 2.50983 0
M  V30 752 H 73.1068 -4.63159 2.94576 0
M  V30 753 H 73.3678 -4.23957 1.25352 0
M  V30 754 N 72.4269 -1.23603 -0.977757 0
M  V30 755 C 73.3739 -1.01954 -2.07061 0
M  V30 756 C 74.3439 0.0638697 -1.65977 0
M  V30 757 O 75.5289 -0.0887624 -1.90593 0
M  V30 758 C 72.6689 -0.619658 -3.39491 0
M  V30 759 C 71.7819 -1.77547 -3.93829 0
M  V30 760 C 70.9169 -1.32212 -5.14484 0
M  V30 761 C 69.9559 -2.44852 -5.60994 0
M  V30 762 N 69.0929 -2.00456 -6.72876 0
M  V30 763 H 73.9329 -1.95495 -2.24913 0
M  V30 764 H 71.4699 -0.973861 -1.10247 0
M  V30 765 H 73.4279 -0.368898 -4.15566 0
M  V30 766 H 72.0579 0.278752 -3.21594 0
M  V30 767 H 71.1099 -2.14016 -3.14486 0
M  V30 768 H 72.4219 -2.62219 -4.24314 0
M  V30 769 H 71.5759 -1.02965 -5.97899 0
M  V30 770 H 70.3149 -0.445808 -4.85658 0
M  V30 771 H 69.3199 -2.74871 -4.76157 0
M  V30 772 H 70.5449 -3.33024 -5.91837 0
M  V30 773 H 68.4909 -1.15208 -6.45804 0
M  V30 774 H 68.4079 -2.78687 -7.02759 0
M  V30 775 H 69.6759 -1.7432 -7.59758 0
M  V30 776 N 73.905 1.17692 -1.04816 0
M  V30 777 C 74.815 2.25229 -0.65643 0
M  V30 778 C 75.831 1.71018 0.320761 0
M  V30 779 O 77.007 2.00649 0.173805 0
M  V30 780 C 74.072 3.46684 -0.0332629 0
M  V30 781 C 73.133 4.15997 -1.06042 0
M  V30 782 C 72.366 5.31654 -0.466893 0
M  V30 783 O 72.589 5.65777 0.724758 0
M  V30 784 O 71.523 5.89831 -1.1993 0
M  V30 785 H 75.349 2.61016 -1.55255 0
M  V30 786 H 72.934 1.24919 -0.81949 0
M  V30 787 H 74.816 4.20234 0.313256 0
M  V30 788 H 73.491 3.12703 0.836566 0
M  V30 789 H 72.398 3.44482 -1.45886 0
M  V30 790 H 73.731 4.53996 -1.90127 0
M  V30 791 N 75.3831 0.828654 1.34056 0
M  V30 792 C 76.3461 0.259927 2.27721 0
M  V30 793 C 77.3461 -0.565478 1.50529 0
M  V30 794 O 78.5361 -0.38075 1.69988 0
M  V30 795 C 75.6681 -0.634944 3.34935 0
M  V30 796 H 76.8611 1.0863 2.79534 0
M  V30 797 H 74.4141 0.600951 1.44285 0
M  V30 798 H 75.1491 -1.48416 2.88346 0
M  V30 799 H 74.9341 -0.0444999 3.92075 0
M  V30 800 H 76.4241 -1.02648 4.04788 0
M  V30 801 N 76.8612 -1.46375 0.584142 0
M  V30 802 C 77.8242 -2.28784 -0.138108 0
M  V30 803 C 78.8242 -1.38471 -0.817462 0
M  V30 804 O 80.0142 -1.60833 -0.669199 0
M  V30 805 C 77.1462 -3.18892 -1.20503 0
M  V30 806 H 78.3392 -2.94117 0.586127 0
M  V30 807 H 75.8922 -1.52509 0.342171 0
M  V30 808 H 76.6272 -2.58309 -1.96079 0
M  V30 809 H 76.4122 -3.85388 -0.722384 0
M  V30 810 H 77.9022 -3.80914 -1.71155 0
M  V30 811 N 78.3393 -0.321999 -1.54275 0
M  V30 812 C 79.7553 0.0306999 -1.5957 0
M  V30 813 C 79.9553 1.50614 -1.33857 0
M  V30 814 O 79.0113 2.2619 -1.12223 0
M  V30 815 C 80.3243 -0.386122 -2.98211 0
M  V30 816 C 81.8723 -0.336647 -3.11184 0
M  V30 817 C 82.3473 -0.728607 -4.52167 0
M  V30 818 N 83.8383 -0.681952 -4.58152 0
M  V30 819 C 84.5733 -0.957449 -5.6535 0
M  V30 820 N 84.0693 -1.3 -6.80494 0
M  V30 821 N 85.8623 -0.883113 -5.55119 0
M  V30 822 H 78.0133 -1.28332 -1.69247 0
M  V30 823 H 80.2763 -0.521716 -0.791528 0
M  V30 824 H 79.9823 -1.41404 -3.22022 0
M  V30 825 H 79.8563 0.249662 -3.76373 0
M  V30 826 H 82.2433 0.682058 -2.8711 0
M  V30 827 H 82.3243 -1.00734 -2.3513 0
M  V30 828 H 81.9683 -1.74522 -4.76974 0
M  V30 829 H 81.8983 -0.0356152 -5.26588 0
M  V30 830 H 84.3893 -0.428985 -3.75457 0
M  V30 831 H 84.7023 -1.49563 -7.58189 0
M  V30 832 H 83.0473 -1.33824 -6.81994 0
M  V30 833 H 86.2383 -0.615001 -4.64042 0
M  V30 834 H 86.4113 -1.10118 -6.38575 0
M  V30 835 N 79.8174 1.5752 -0.0501392 0
M  V30 836 C 81.2334 1.56631 0.306402 0
M  V30 837 C 81.4334 1.0577 1.71508 0
M  V30 838 O 80.4894 0.713837 2.422 0
M  V30 839 C 81.8024 3.00393 0.135811 0
M  V30 840 C 83.3504 3.12315 0.206993 0
M  V30 841 C 83.8254 4.57954 0.064944 0
M  V30 842 N 85.3164 4.63041 0.121254 0
M  V30 843 C 86.0514 5.73389 0.0354381 0
M  V30 844 N 85.5474 6.92724 -0.102666 0
M  V30 845 N 87.3404 5.62026 0.090946 0
M  V30 846 H 79.4914 1.88903 -0.971046 0
M  V30 847 H 81.7544 0.869876 -0.376855 0
M  V30 848 H 81.4604 3.41635 -0.835384 0
M  V30 849 H 81.3344 3.66373 0.897275 0
M  V30 850 H 83.7214 2.70973 1.16866 0
M  V30 851 H 83.8024 2.49016 -0.585208 0
M  V30 852 H 83.4464 4.99981 -0.893394 0
M  V30 853 H 83.3764 5.19258 0.876277 0
M  V30 854 H 85.8674 3.77216 0.227284 0
M  V30 855 H 86.1804 7.72633 -0.160882 0
M  V30 856 H 84.5254 6.94864 -0.137737 0
M  V30 857 H 87.7164 4.67684 0.197388 0
M  V30 858 H 87.8894 6.47997 0.0206089 0
M  V30 859 N 81.2955 -0.223234 1.56011 0
M  V30 860 C 82.2585 -1.26014 1.9145 0
M  V30 861 C 83.2585 -1.3989 0.792937 0
M  V30 862 O 84.4485 -1.38184 1.0607 0
M  V30 863 C 81.5805 -2.63422 2.16383 0
M  V30 864 H 82.7735 -0.95796 2.84189 0
M  V30 865 H 80.3265 -0.463576 1.49267 0
M  V30 866 H 81.0615 -2.98741 1.2619 0
M  V30 867 H 80.8465 -2.54728 2.98088 0
M  V30 868 H 82.3365 -3.38249 2.44903 0
M  V30 869 N 82.7736 -1.49793 -0.48987 0
M  V30 870 C 83.7036 -1.70201 -1.59856 0
M  V30 871 C 84.6846 -0.55076 -1.60937 0
M  V30 872 O 85.8696 -0.787841 -1.77501 0
M  V30 873 C 82.9996 -1.77882 -2.98287 0
M  V30 874 C 81.9536 -2.92907 -3.12073 0
M  V30 875 C 81.2796 -2.85712 -4.51965 0
M  V30 876 C 82.5796 -4.3369 -2.91051 0
M  V30 877 H 84.2736 -2.63025 -1.43032 0
M  V30 878 H 81.8196 -1.26574 -0.686664 0
M  V30 879 H 83.7726 -1.90744 -3.75759 0
M  V30 880 H 82.4966 -0.816653 -3.16225 0
M  V30 881 H 81.1556 -2.79665 -2.37029 0
M  V30 882 H 80.8036 -1.8738 -4.66795 0
M  V30 883 H 80.5036 -3.62921 -4.62128 0
M  V30 884 H 82.0276 -3.00598 -5.31482 0
M  V30 885 H 83.4416 -4.47555 -3.58284 0
M  V30 886 H 81.8386 -5.12205 -3.12675 0
M  V30 887 H 82.9086 -4.47362 -1.87071 0
M  V30 888 N 84.2517 0.741722 -1.39055 0
M  V30 889 C 85.2147 1.83733 -1.37021 0
M  V30 890 C 86.2147 1.58542 -0.268534 0
M  V30 891 O 87.4047 1.66067 -0.526076 0
M  V30 892 C 84.5367 3.2141 -1.13617 0
M  V30 893 H 85.7297 1.86941 -2.34506 0
M  V30 894 H 83.2827 0.944676 -1.24521 0
M  V30 895 H 84.0177 3.23865 -0.167863 0
M  V30 896 H 83.8027 3.4109 -1.93391 0
M  V30 897 H 85.2927 4.01477 -1.14918 0
M  V30 898 N 85.7298 1.2412 0.971189 0
M  V30 899 C 86.6618 0.988349 2.06795 0
M  V30 900 C 87.6748 -0.0409541 1.62748 0
M  V30 901 O 88.8638 0.195673 1.77424 0
M  V30 902 C 85.9638 0.469023 3.35639 0
M  V30 903 C 85.1368 1.56065 4.08611 0
M  V30 904 C 84.1958 1.04458 5.15728 0
M  V30 905 O 83.2218 1.73553 5.42096 0
M  V30 906 N 84.4238 -0.122817 5.8037 0
M  V30 907 H 87.1888 1.93265 2.29061 0
M  V30 908 H 84.7498 1.15102 1.13856 0
M  V30 909 H 86.7418 0.108613 4.04554 0
M  V30 910 H 85.3118 -0.380919 3.1027 0
M  V30 911 H 84.5318 2.09341 3.34021 0
M  V30 912 H 85.8198 2.29449 4.54126 0
M  V30 913 H 85.2178 -0.700563 5.61345 0
M  V30 914 H 83.7748 -0.424404 6.50417 0
M  V30 915 N 87.2079 -1.17134 1.05439 0
M  V30 916 C 88.4559 -1.87085 0.764429 0
M  V30 917 C 88.7769 -1.81584 -0.710787 0
M  V30 918 O 88.0469 -1.24349 -1.51374 0
M  V30 919 H 86.6269 -0.692627 0.279779 0
M  V30 920 H 89.2889 -1.42087 1.33406 0
M  V30 921 H 88.3849 -2.92759 1.0816 0
M  V30 922 N 88.686 -0.835752 -1.33615 0
M  V30 923 C 89.633 -0.26473 -2.29277 0
M  V30 924 C 90.603 0.617712 -1.54187 0
M  V30 925 O 91.788 0.556641 -1.825 0
M  V30 926 C 88.928 0.556777 -3.40579 0
M  V30 927 C 88.041 -0.349339 -4.30585 0
M  V30 928 C 87.176 0.482969 -5.29 0
M  V30 929 C 86.215 -0.421732 -6.10645 0
M  V30 930 N 85.352 0.372262 -7.01112 0
M  V30 931 H 90.192 -1.08582 -2.77514 0
M  V30 932 H 87.729 -0.546927 -1.36554 0
M  V30 933 H 89.687 1.04852 -4.03809 0
M  V30 934 H 88.317 1.34286 -2.93542 0
M  V30 935 H 87.369 -0.959372 -3.68104 0
M  V30 936 H 88.681 -1.04445 -4.87742 0
M  V30 937 H 87.835 1.03866 -5.97743 0
M  V30 938 H 86.574 1.21153 -4.72412 0
M  V30 939 H 85.579 -0.989464 -5.40823 0
M  V30 940 H 86.804 -1.14861 -6.69316 0
M  V30 941 H 84.75 1.08426 -6.46977 0
M  V30 942 H 84.667 -0.264198 -7.55538 0
M  V30 943 H 85.935 0.910293 -7.74167 0
M  V30 944 N 90.1641 1.46063 -0.591896 0
M  V30 945 C 91.3921 2.06717 -0.0868936 0
M  V30 946 C 91.8071 1.43916 1.22203 0
M  V30 947 O 91.1641 0.547698 1.74088 0
M  V30 948 C 91.2151 3.6142 0.0758725 0
M  V30 949 O 90.9361 4.21874 -1.18126 0
M  V30 950 C 92.4371 4.39025 0.61416 0
M  V30 951 H 89.6571 0.668162 -0.0616518 0
M  V30 952 H 92.2011 1.8755 -0.815175 0
M  V30 953 H 90.3561 3.79983 0.754413 0
M  V30 954 H 90.7701 5.14861 -1.00092 0
M  V30 955 H 92.2441 5.4783 0.677193 0
M  V30 956 H 92.7211 4.07708 1.63312 0
M  V30 957 H 93.3271 4.2529 -0.0298142 0
M  V30 958 N 91.6422 0.330177 1.54103 0
M  V30 959 C 92.5892 -0.532762 2.24567 0
M  V30 960 C 93.5592 -1.10635 1.23892 0
M  V30 961 O 94.7442 -1.14546 1.5259 0
M  V30 962 C 91.8842 -1.6845 3.01195 0
M  V30 963 C 90.9972 -1.13951 4.167 0
M  V30 964 C 90.1322 -2.25746 4.80845 0
M  V30 965 C 89.1712 -1.6853 5.88442 0
M  V30 966 N 88.3082 -2.74014 6.46421 0
M  V30 967 H 93.1482 0.0746905 2.97906 0
M  V30 968 H 90.6852 0.048632 1.4702 0
M  V30 969 H 92.6432 -2.36234 3.43874 0
M  V30 970 H 91.2732 -2.26314 2.30178 0
M  V30 971 H 90.3252 -0.35301 3.78758 0
M  V30 972 H 91.6372 -0.680892 4.94131 0
M  V30 973 H 90.7912 -3.01422 5.26526 0
M  V30 974 H 89.5302 -2.74947 4.0281 0
M  V30 975 H 88.5352 -0.913543 5.42157 0
M  V30 976 H 89.7602 -1.20198 6.68378 0
M  V30 977 H 87.7062 -3.22494 5.71256 0
M  V30 978 H 87.6232 -2.32735 7.19285 0
M  V30 979 H 88.8912 -3.49499 6.96757 0
M  V30 980 N 93.1203 -1.57491 0.0584922 0
M  V30 981 C 94.3503 -1.9701 -0.622134 0
M  V30 982 C 94.7583 -0.935034 -1.6448 0
M  V30 983 O 94.1013 0.0882904 -1.83488 0
M  V30 984 C 94.1633 -3.32794 -1.35972 0
M  V30 985 C 93.8273 -4.54343 -0.492043 0
M  V30 986 C 94.8243 -5.19323 0.244901 0
M  V30 987 C 92.5093 -5.00534 -0.420821 0
M  V30 988 C 94.5033 -6.28835 1.04143 0
M  V30 989 C 92.1903 -6.09921 0.379389 0
M  V30 990 C 93.1883 -6.73933 1.10919 0
M  V30 991 O 92.8763 -7.81216 1.89623 0
M  V30 992 H 92.6083 -0.653127 -0.174359 0
M  V30 993 H 95.1623 -2.05029 0.123418 0
M  V30 994 H 93.3923 -3.21351 -2.15105 0
M  V30 995 H 95.0813 -3.5701 -1.93129 0
M  V30 996 H 95.8473 -4.8459 0.19939 0
M  V30 997 H 91.7263 -4.50496 -0.978474 0
M  V30 998 H 95.2703 -6.7873 1.61157 0
M  V30 999 H 91.1673 -6.44089 0.426512 0
M  V30 1000 H 91.9353 -7.98029 1.81913 0
M  V30 1001 N 94.5984 0.214957 -1.56127 0
M  V30 1002 C 95.5614 1.24997 -1.92116 0
M  V30 1003 C 96.5614 1.39467 -0.800344 0
M  V30 1004 O 97.7514 1.37619 -1.06802 0
M  V30 1005 C 94.8834 2.62271 -2.17777 0
M  V30 1006 H 96.0764 0.942875 -2.84693 0
M  V30 1007 H 93.6294 0.455654 -1.49511 0
M  V30 1008 H 94.3644 2.98068 -1.27773 0
M  V30 1009 H 94.1494 2.53143 -2.99434 0
M  V30 1010 H 95.6394 3.36946 -2.46693 0
M  V30 1011 N 96.0765 1.50051 0.48192 0
M  V30 1012 C 97.4875 1.5348 1.06305 0
M  V30 1013 C 97.8385 0.331997 1.93371 0
M  V30 1014 O 96.9635 -0.556256 2.09129 0
M  V30 1015 C 97.5585 2.7813 1.93466 0
M  V30 1016 C 96.1175 2.84275 2.46707 0
M  V30 1017 C 95.2645 2.47637 1.24785 0
M  V30 1018 H 98.2155 1.56472 0.264995 0
M  V30 1019 H 98.2365 2.59372 2.78399 0
M  V30 1020 H 97.7485 3.65654 1.30072 0
M  V30 1021 H 95.8495 2.01077 3.13686 0
M  V30 1022 H 95.9625 3.8691 2.82555 0
M  V30 1023 H 94.3265 1.99835 1.57918 0
M  V30 1024 H 95.1095 3.37457 0.630694 0
M  V30 1025 N 97.5546 -0.734337 1.39446 0
M  V30 1026 C 98.9656 -1.31264 1.32766 0
M  V30 1027 C 99.3166 -1.96198 -0.00767497 0
M  V30 1028 O 98.4416 -1.96346 -0.909796 0
M  V30 1029 C 99.0366 -2.38682 2.4045 0
M  V30 1030 C 97.5956 -2.92184 2.37288 0
M  V30 1031 C 96.7426 -1.6576 2.22304 0
M  V30 1032 H 99.6936 -0.531799 1.49525 0
M  V30 1033 H 99.7146 -3.19087 2.07276 0
M  V30 1034 H 99.2266 -1.91392 3.37625 0
M  V30 1035 H 97.3276 -3.43752 1.43754 0
M  V30 1036 H 97.4406 -3.45253 3.3217 0
M  V30 1037 H 95.8046 -1.9012 1.69489 0
M  V30 1038 H 96.5876 -1.20521 3.21449 0
M  V30 1039 N 99.0327 -1.24633 -0.964593 0
M  V30 1040 C 99.9957 -1.0424 -2.04124 0
M  V30 1041 C 100.996 0.00137563 -1.608 0
M  V30 1042 O 102.186 -0.239883 -1.7254 0
M  V30 1043 C 99.3177 -0.580588 -3.3592 0
M  V30 1044 H 100.511 -1.99803 -2.23649 0
M  V30 1045 H 98.0637 -1.06899 -1.14027 0
M  V30 1046 H 98.7987 0.3781 -3.22088 0
M  V30 1047 H 98.5837 -1.33398 -3.6871 0
M  V30 1048 H 100.074 -0.459034 -4.15069 0
M  V30 1049 N 100.511 1.16574 -1.06058 0
M  V30 1050 C 101.759 1.86677 -0.77434 0
M  V30 1051 C 102.08 1.81959 0.701147 0
M  V30 1052 O 101.35 1.2515 1.50713 0
M  V30 1053 H 99.9298 0.691134 -0.283449 0
M  V30 1054 H 102.592 1.41378 -1.34158 0
M  V30 1055 H 101.688 2.92181 -1.09711 0
M  V30 1056 N 101.989 0.842826 1.3317 0
M  V30 1057 C 103.238 0.436738 1.96915 0
M  V30 1058 C 103.551 -1.01025 1.67491 0
M  V30 1059 O 104.757 -1.5212 2.24881 0
M  V30 1060 C 103.213 0.730021 3.52418 0
M  V30 1061 C 102.821 2.19195 3.90714 0
M  V30 1062 C 104.565 0.391076 4.22695 0
M  V30 1063 C 102.472 2.42907 5.39212 0
M  V30 1064 H 101.402 0.15958 0.736919 0
M  V30 1065 H 104.053 1.03196 1.51733 0
M  V30 1066 H 102.435 0.0643755 3.95948 0
M  V30 1067 H 103.609 2.8984 3.58231 0
M  V30 1068 H 101.924 2.49425 3.33431 0
M  V30 1069 H 104.521 0.545817 5.31907 0
M  V30 1070 H 104.864 -0.666294 4.10933 0
M  V30 1071 H 105.397 1.01212 3.84709 0
M  V30 1072 H 102.136 3.47224 5.55982 0
M  V30 1073 H 101.656 1.76827 5.73142 0
M  V30 1074 H 103.335 2.2626 6.06148 0
M  V30 1075 N 103.467 -1.45747 0.599634 0
M  V30 1076 C 104.878 -1.85853 0.177681 0
M  V30 1077 C 105.229 -1.50102 -1.26348 0
M  V30 1078 O 104.354 -0.923905 -1.95686 0
M  V30 1079 C 104.949 -3.37326 0.315688 0
M  V30 1080 C 103.508 -3.76365 -0.0515144 0
M  V30 1081 C 102.655 -2.69722 0.643822 0
M  V30 1082 H 105.606 -1.36661 0.806814 0
M  V30 1083 H 105.627 -3.77778 -0.454321 0
M  V30 1084 H 105.139 -3.63315 1.36468 0
M  V30 1085 H 103.24 -3.55993 -1.09999 0
M  V30 1086 H 103.353 -4.77916 0.336594 0
M  V30 1087 H 101.717 -2.54567 0.0822881 0
M  V30 1088 H 102.5 -2.98549 1.6948 0
M  V30 1089 N 104.945 -0.338344 -1.53925 0
M  V30 1090 C 105.855 0.529421 -2.28548 0
M  V30 1091 C 106.871 1.11645 -1.3346 0
M  V30 1092 O 108.047 1.13325 -1.66492 0
M  V30 1093 C 105.112 1.66713 -3.03987 0
M  V30 1094 C 104.173 1.11041 -4.14691 0
M  V30 1095 C 103.406 2.19389 -4.86522 0
M  V30 1096 O 103.629 3.40013 -4.57982 0
M  V30 1097 O 102.563 1.83976 -5.73094 0
M  V30 1098 H 106.389 -0.0770399 -3.03602 0
M  V30 1099 H 103.974 -0.103555 -1.49041 0
M  V30 1100 H 105.856 2.32918 -3.5118 0
M  V30 1101 H 104.531 2.25949 -2.31794 0
M  V30 1102 H 103.438 0.413024 -3.71813 0
M  V30 1103 H 104.771 0.562975 -4.8897 0
M  V30 1104 N 106.423 1.57458 -0.0668435 0
M  V30 1105 C 107.353 2.15468 0.899764 0
M  V30 1106 C 108.334 1.08042 1.31381 0
M  V30 1107 O 109.519 1.36054 1.38574 0
M  V30 1108 C 106.649 2.71232 2.16911 0
M  V30 1109 C 105.603 3.83781 1.89463 0
M  V30 1110 C 104.929 4.26127 3.22986 0
M  V30 1111 C 106.229 5.08238 1.20381 0
M  V30 1112 H 107.923 2.96488 0.416529 0
M  V30 1113 H 105.469 1.4262 0.198908 0
M  V30 1114 H 107.422 3.10458 2.84945 0
M  V30 1115 H 106.146 1.87426 2.67468 0
M  V30 1116 H 104.805 3.45051 1.23836 0
M  V30 1117 H 104.453 3.39249 3.71374 0
M  V30 1118 H 104.153 5.01993 3.05413 0
M  V30 1119 H 105.677 4.67966 3.92225 0
M  V30 1120 H 107.091 5.44811 1.78475 0
M  V30 1121 H 105.488 5.89349 1.13083 0
M  V30 1122 H 106.558 4.84558 0.182153 0
M  V30 1123 N 107.901 -0.206675 1.56239 0
M  V30 1124 C 109.317 -0.557025 1.49564 0
M  V30 1125 C 109.517 -1.86424 0.764735 0
M  V30 1126 O 108.573 -2.50584 0.310491 0
M  V30 1127 C 109.886 -0.622478 2.94186 0
M  V30 1128 C 111.434 -0.712099 3.04792 0
M  V30 1129 C 111.909 -0.808767 4.50803 0
M  V30 1130 N 113.4 -0.8726 4.54907 0
M  V30 1131 C 114.135 -0.967365 5.65181 0
M  V30 1132 N 113.631 -1.02515 6.85173 0
M  V30 1133 N 115.424 -1.00366 5.53067 0
M  V30 1134 H 107.575 0.650943 2.02179 0
M  V30 1135 H 109.838 0.230387 0.919579 0
M  V30 1136 H 109.544 0.268727 3.50672 0
M  V30 1137 H 109.418 -1.4811 3.46905 0
M  V30 1138 H 111.805 -1.59374 2.48363 0
M  V30 1139 H 111.886 0.172489 2.55218 0
M  V30 1140 H 111.53 0.0684754 5.07854 0
M  V30 1141 H 111.46 -1.70899 4.98098 0
M  V30 1142 H 113.951 -0.837657 3.68499 0
M  V30 1143 H 114.264 -1.09765 7.64965 0
M  V30 1144 H 112.609 -0.994026 6.87855 0
M  V30 1145 H 115.8 -0.95527 4.58249 0
M  V30 1146 H 115.973 -1.07405 6.39037 0
M  V30 1147 N 109.379 -1.50304 -0.473955 0
M  V30 1148 C 110.289 -1.7174 -1.5982 0
M  V30 1149 C 111.305 -0.600457 -1.63311 0
M  V30 1150 O 112.481 -0.878441 -1.81233 0
M  V30 1151 C 109.546 -1.80427 -2.96052 0
M  V30 1152 C 108.607 -3.04148 -3.02972 0
M  V30 1153 C 107.84 -3.12411 -4.32706 0
M  V30 1154 O 108.063 -2.27542 -5.23049 0
M  V30 1155 O 106.997 -4.05113 -4.45159 0
M  V30 1156 H 110.823 -2.67035 -1.44657 0
M  V30 1157 H 108.408 -1.34366 -0.653148 0
M  V30 1158 H 110.29 -1.88338 -3.7697 0
M  V30 1159 H 108.965 -0.883156 -3.11419 0
M  V30 1160 H 107.872 -3.0174 -2.21142 0
M  V30 1161 H 109.205 -3.95829 -2.92541 0
M  V30 1162 N 110.857 0.726932 -1.39834 0
M  V30 1163 C 111.82 1.82269 -1.38962 0
M  V30 1164 C 112.82 1.58248 -0.285334 0
M  V30 1165 O 114.01 1.65499 -0.54366 0
M  V30 1166 C 111.142 3.20186 -1.17019 0
M  V30 1167 H 112.335 1.84443 -2.36476 0
M  V30 1168 H 109.888 0.931416 -1.25516 0
M  V30 1169 H 110.623 3.23669 -0.202204 0
M  V30 1170 H 110.408 3.3902 -1.96998 0
M  V30 1171 H 111.898 4.00235 -1.1917 0
M  V30 1172 N 112.336 1.25143 0.95797 0
M  V30 1173 C 113.266 1.07711 2.07173 0
M  V30 1174 C 114.247 -0.0128462 1.70095 0
M  V30 1175 O 115.432 0.156061 1.93572 0
M  V30 1176 C 112.562 0.691503 3.40346 0
M  V30 1177 C 111.516 1.73132 3.9142 0
M  V30 1178 C 110.842 1.20049 5.21049 0
M  V30 1179 C 112.142 3.1294 4.1817 0
M  V30 1180 H 113.836 2.00873 2.22014 0
M  V30 1181 H 111.382 0.967191 1.06684 0
M  V30 1182 H 113.335 0.556505 4.17709 0
M  V30 1183 H 112.059 -0.275819 3.25433 0
M  V30 1184 H 110.718 1.8547 3.16222 0
M  V30 1185 H 110.366 0.223499 5.02503 0
M  V30 1186 H 110.066 1.89545 5.56189 0
M  V30 1187 H 111.59 1.07782 6.01012 0
M  V30 1188 H 113.004 3.03775 4.86203 0
M  V30 1189 H 111.401 3.79875 4.64559 0
M  V30 1190 H 112.471 3.6025 3.24573 0
M  V30 1191 N 113.814 -1.1601 1.06675 0
M  V30 1192 C 114.777 -2.18724 0.685001 0
M  V30 1193 C 115.777 -1.58496 -0.271246 0
M  V30 1194 O 116.967 -1.74119 -0.0531156 0
M  V30 1195 C 114.099 -3.40899 0.00853648 0
M  V30 1196 H 115.292 -2.54011 1.59431 0
M  V30 1197 H 112.845 -1.30352 0.862441 0
M  V30 1198 H 113.58 -3.11173 -0.913337 0
M  V30 1199 H 113.365 -3.8587 0.696204 0
M  V30 1200 H 114.855 -4.16886 -0.24414 0
M  V30 1201 N 115.292 -0.849877 -1.32721 0
M  V30 1202 C 116.202 -0.293791 -2.32753 0
M  V30 1203 C 117.218 0.585906 -1.63839 0
M  V30 1204 O 118.394 0.487413 -1.95413 0
M  V30 1205 C 115.459 0.512752 -3.42887 0
M  V30 1206 C 114.52 -0.39252 -4.27502 0
M  V30 1207 C 113.753 0.375625 -5.32377 0
M  V30 1208 O 113.976 1.60613 -5.4732 0
M  V30 1209 O 112.91 -0.256094 -6.01355 0
M  V30 1210 H 116.736 -1.12242 -2.82197 0
M  V30 1211 H 114.321 -0.612685 -1.36259 0
M  V30 1212 H 116.203 0.970704 -4.10067 0
M  V30 1213 H 114.878 1.31826 -2.95641 0
M  V30 1214 H 113.785 -0.898547 -3.63149 0
M  V30 1215 H 115.118 -1.16309 -4.7826 0
M  V30 1216 N 116.77 1.45427 -0.607355 0
M  V30 1217 C 117.717 2.3053 0.111625 0
M  V30 1218 C 118.687 1.4209 0.860216 0
M  V30 1219 O 119.872 1.71019 0.845998 0
M  V30 1220 C 117.012 3.26992 1.10319 0
M  V30 1221 C 116.125 4.30535 0.355493 0
M  V30 1222 C 115.26 5.14105 1.33676 0
M  V30 1223 C 114.299 6.09376 0.576862 0
M  V30 1224 N 113.436 6.85727 1.5074 0
M  V30 1225 H 118.276 2.91477 -0.620093 0
M  V30 1226 H 115.813 1.43631 -0.317594 0
M  V30 1227 H 117.771 3.81385 1.6912 0
M  V30 1228 H 116.401 2.67799 1.80232 0
M  V30 1229 H 115.453 3.78805 -0.348023 0
M  V30 1230 H 116.765 4.98235 -0.237423 0
M  V30 1231 H 115.919 5.72897 1.99684 0
M  V30 1232 H 114.658 4.46423 1.9636 0
M  V30 1233 H 113.663 5.49715 -0.0968519 0
M  V30 1234 H 114.888 6.79085 -0.0449341 0
M  V30 1235 H 112.834 6.20735 2.12189 0
M  V30 1236 H 112.751 7.49778 0.967913 0
M  V30 1237 H 114.019 7.4906 2.15706 0
M  V30 1238 N 118.248 0.346503 1.53744 0
M  V30 1239 C 119.495 -0.249104 2.00962 0
M  V30 1240 C 119.823 -1.5032 1.23426 0
M  V30 1241 O 119.078 -1.93217 0.310761 0
M  V30 1242 C 119.377 -0.605809 3.52228 0
M  V30 1243 C 119.043 0.551747 4.47512 0
M  V30 1244 C 117.705 0.86941 4.73281 0
M  V30 1245 C 120.057 1.32818 5.03993 0
M  V30 1246 C 117.385 1.96582 5.52786 0
M  V30 1247 C 119.737 2.41486 5.84694 0
M  V30 1248 C 118.401 2.73808 6.08757 0
M  V30 1249 H 117.671 -0.0911538 0.735372 0
M  V30 1250 H 120.318 0.475027 1.85515 0
M  V30 1251 H 118.623 -1.4107 3.65522 0
M  V30 1252 H 120.32 -1.07858 3.86222 0
M  V30 1253 H 116.91 0.294102 4.2759 0
M  V30 1254 H 121.094 1.09602 4.84047 0
M  V30 1255 H 116.35 2.22045 5.69654 0
M  V30 1256 H 120.524 3.02078 6.27473 0
M  V30 1257 H 118.151 3.58892 6.7015 0
M  V30 1258 N 119.726 -1.57421 0.075193 0
M  V30 1259 C 121.142 -1.57099 -0.281444 0
M  V30 1260 C 121.342 -1.08486 -1.69803 0
M  V30 1261 O 120.398 -0.752279 -2.41033 0
M  V30 1262 C 121.711 -3.00571 -0.0880041 0
M  V30 1263 C 123.259 -3.12605 -0.157281 0
M  V30 1264 C 123.734 -4.57999 0.0079207 0
M  V30 1265 N 125.225 -4.63176 -0.0475725 0
M  V30 1266 C 125.96 -5.73373 0.0557876 0
M  V30 1267 N 125.456 -6.92473 0.21286 0
M  V30 1268 N 127.249 -5.621 -0.00152098 0
M  V30 1269 H 119.4 -1.87335 1.00098 0
M  V30 1270 H 121.663 -0.86377 0.390646 0
M  V30 1271 H 121.369 -3.40262 0.889629 0
M  V30 1272 H 121.243 -3.67754 -0.838875 0
M  V30 1273 H 123.63 -2.72798 -1.1254 0
M  V30 1274 H 123.711 -2.48053 0.62475 0
M  V30 1275 H 123.355 -4.98496 0.972824 0
M  V30 1276 H 123.285 -5.20586 -0.793556 0
M  V30 1277 H 125.776 -3.7753 -0.167244 0
M  V30 1278 H 126.089 -7.72279 0.283781 0
M  V30 1279 H 124.434 -6.94556 0.248267 0
M  V30 1280 H 127.625 -4.67938 -0.122958 0
M  V30 1281 H 127.798 -6.47948 0.0824844 0
M  V30 1282 N 121.204 0.198386 -1.56346 0
M  V30 1283 C 122.62 0.549085 -1.49857 0
M  V30 1284 C 122.82 1.86016 -0.774611 0
M  V30 1285 O 121.876 2.50416 -0.323776 0
M  V30 1286 C 123.189 0.606868 -2.94512 0
M  V30 1287 C 124.737 0.695925 -3.05165 0
M  V30 1288 C 125.212 0.784848 -4.51225 0
M  V30 1289 N 126.703 0.848463 -4.55363 0
M  V30 1290 C 127.438 0.937378 -5.65686 0
M  V30 1291 N 126.934 0.9888 -6.85707 0
M  V30 1292 N 128.727 0.974312 -5.53592 0
M  V30 1293 H 120.878 -0.661655 -2.01831 0
M  V30 1294 H 123.141 -0.235261 -0.918344 0
M  V30 1295 H 122.847 -0.28732 -3.50524 0
M  V30 1296 H 122.721 1.46268 -3.47686 0
M  V30 1297 H 125.108 1.58055 -2.49204 0
M  V30 1298 H 125.189 -0.186022 -2.55123 0
M  V30 1299 H 124.833 -0.0954072 -5.0781 0
M  V30 1300 H 124.763 1.68255 -4.98997 0
M  V30 1301 H 127.254 0.818103 -3.68938 0
M  V30 1302 H 127.567 1.05707 -7.65536 0
M  V30 1303 H 125.912 0.957534 -6.88372 0
M  V30 1304 H 129.103 0.930954 -4.58749 0
M  V30 1305 H 129.276 1.04015 -6.39597 0
M  V30 1306 N 122.682 1.50554 0.465978 0
M  V30 1307 C 123.592 1.72585 1.58907 0
M  V30 1308 C 124.608 0.60911 1.6299 0
M  V30 1309 O 125.784 0.88804 1.80765 0
M  V30 1310 C 122.849 1.81995 2.95091 0
M  V30 1311 C 121.91 3.05751 3.01355 0
M  V30 1312 C 121.143 3.14702 4.31043 0
M  V30 1313 O 121.366 2.30313 5.21835 0
M  V30 1314 O 120.3 4.07468 4.43005 0
M  V30 1315 H 124.126 2.67799 1.43239 0
M  V30 1316 H 121.711 1.34711 0.646013 0
M  V30 1317 H 123.593 1.90335 3.75966 0
M  V30 1318 H 122.268 0.899659 3.10947 0
M  V30 1319 H 121.175 3.02908 2.19539 0
M  V30 1320 H 122.508 3.97375 2.90437 0
M  V30 1321 N 124.16 -0.719506 1.40217 0
M  V30 1322 C 125.108 -1.85493 1.40339 0
M  V30 1323 C 126.102 -1.66995 0.284415 0
M  V30 1324 O 127.308 -1.74148 0.455252 0
M  V30 1325 H 123.683 -0.610857 0.438586 0
M  V30 1326 H 125.654 -1.82506 2.36081 0
M  V30 1327 C 124.403 -3.23321 1.27901 0
M  V30 1328 H 123.726 -3.38159 2.1328 0
M  V30 1329 H 125.166 -4.02914 1.32045 0
M  V30 1330 C 123.625 -3.36898 -0.0111355 0
M  V30 1331 O 124.155 -3.89674 -0.975538 0
M  V30 1332 N 122.361 -2.90492 -0.0793393 0
M  V30 1333 H 121.908 -2.47731 0.706183 0
M  V30 1334 H 121.866 -2.99955 -0.942038 0
M  V30 1335 N 125.638 -1.25649 -0.95132 0
M  V30 1336 C 126.886 -1.10375 -1.69298 0
M  V30 1337 C 127.207 0.355339 -1.91735 0
M  V30 1338 O 126.477 1.25188 -1.50681 0
M  V30 1339 H 125.057 -0.405461 -0.627384 0
M  V30 1340 H 127.719 -1.57823 -1.14358 0
M  V30 1341 H 126.815 -1.61465 -2.67087 0
M  V30 1342 N 127.117 1.15442 -1.07289 0
M  V30 1343 C 128.047 2.22312 -0.714107 0
M  V30 1344 C 129.028 1.67467 0.298155 0
M  V30 1345 O 130.213 1.93445 0.171048 0
M  V30 1346 C 127.343 3.47124 -0.110448 0
M  V30 1347 C 126.297 4.14926 -1.04979 0
M  V30 1348 C 125.623 5.33807 -0.308924 0
M  V30 1349 C 126.923 4.64762 -2.38314 0
M  V30 1350 H 128.617 2.5258 -1.6076 0
M  V30 1351 H 126.163 1.21404 -0.77441 0
M  V30 1352 H 128.116 4.21124 0.152482 0
M  V30 1353 H 126.84 3.16187 0.81812 0
M  V30 1354 H 125.499 3.42866 -1.29764 0
M  V30 1355 H 125.147 4.99126 0.623084 0
M  V30 1356 H 124.847 5.80113 -0.935036 0
M  V30 1357 H 126.371 6.10576 -0.0537771 0
M  V30 1358 H 127.785 5.30292 -2.1786 0
M  V30 1359 H 126.182 5.21728 -2.96514 0
M  V30 1360 H 127.252 3.80434 -3.00663 0
M  V30 1361 N 128.595 0.856903 1.32268 0
M  V30 1362 C 129.82 0.474569 2.01897 0
M  V30 1363 C 130.245 -0.921766 1.63967 0
M  V30 1364 O 129.603 -1.60589 0.84148 0
M  V30 1365 C 129.651 0.623799 3.55164 0
M  V30 1366 O 128.755 -0.342459 4.10976 0
M  V30 1367 H 128.096 0.190422 0.63611 0
M  V30 1368 H 130.626 1.15672 1.68764 0
M  V30 1369 H 130.636 0.512169 4.04773 0
M  V30 1370 H 129.311 1.64202 3.82113 0
M  V30 1371 H 127.888 -0.18688 3.72431 0
M  V30 1372 N 130.073 -1.45103 0.615059 0
M  V30 1373 C 131.319 -2.02483 0.113347 0
M  V30 1374 C 131.652 -1.48146 -1.25564 0
M  V30 1375 O 130.927 -0.659104 -1.82992 0
M  V30 1376 C 131.21 -3.60005 0.0825278 0
M  V30 1377 C 131.063 -4.2466 1.48271 0
M  V30 1378 C 132.382 -4.35972 -0.601401 0
M  V30 1379 H 129.501 -0.735764 0.0426632 0
M  V30 1380 H 132.143 -1.72868 0.788461 0
M  V30 1381 H 130.293 -3.85367 -0.492378 0
M  V30 1382 H 131.965 -4.10458 2.10527 0
M  V30 1383 H 130.208 -3.82772 2.04127 0
M  V30 1384 H 130.879 -5.336 1.41332 0
M  V30 1385 H 133.355 -4.15947 -0.112666 0
M  V30 1386 H 132.231 -5.45697 -0.592097 0
M  V30 1387 H 132.492 -4.09391 -1.66887 0
M  V30 1388 N 131.551 -0.354651 -1.53558 0
M  V30 1389 C 132.779 0.239515 -2.05509 0
M  V30 1390 C 133.194 1.4333 -1.2289 0
M  V30 1391 O 132.551 1.80538 -0.266899 0
M  V30 1392 C 132.602 0.643719 -3.55723 0
M  V30 1393 O 132.323 -0.502602 -4.35207 0
M  V30 1394 C 133.824 1.29743 -4.23889 0
M  V30 1395 H 131.044 0.0442697 -0.669538 0
M  V30 1396 H 133.588 -0.509856 -1.98042 0
M  V30 1397 H 131.743 1.34302 -3.63376 0
M  V30 1398 H 132.157 -0.178172 -5.24197 0
M  V30 1399 H 133.631 1.53091 -5.30346 0
M  V30 1400 H 134.108 2.25441 -3.76926 0
M  V30 1401 H 134.714 0.639865 -4.20459 0
M  V30 1402 N 133.029 1.57378 -0.0835403 0
M  V30 1403 C 134.44 1.81261 0.447358 0
M  V30 1404 C 134.791 0.998331 1.68902 0
M  V30 1405 O 133.916 0.224282 2.15235 0
M  V30 1406 C 134.511 3.28767 0.818386 0
M  V30 1407 C 133.07 3.53455 1.29409 0
M  V30 1408 C 132.217 2.75831 0.285024 0
M  V30 1409 H 135.168 1.5566 -0.309115 0
M  V30 1410 H 135.189 3.41459 1.67887 0
M  V30 1411 H 134.701 3.88006 -0.0855019 0
M  V30 1412 H 132.802 2.99534 2.21608 0
M  V30 1413 H 132.915 4.62128 1.2639 0
M  V30 1414 H 131.279 2.42947 0.764767 0
M  V30 1415 H 132.062 3.37813 -0.611341 0
M  V30 1416 N 134.507 -0.190092 1.56449 0
M  V30 1417 C 135.417 -1.25591 1.98152 0
M  V30 1418 C 136.433 -1.49519 0.889944 0
M  V30 1419 O 137.609 -1.62036 1.19609 0
M  V30 1420 C 134.674 -2.57916 2.3169 0
M  V30 1421 C 133.735 -2.42015 3.5458 0
M  V30 1422 C 132.968 -3.6803 3.8651 0
M  V30 1423 O 133.191 -4.72413 3.1966 0
M  V30 1424 O 132.125 -3.6326 4.79923 0
M  V30 1425 H 135.951 -0.931988 2.89046 0
M  V30 1426 H 133.536 -0.395488 1.4407 0
M  V30 1427 H 135.418 -3.36008 2.54316 0
M  V30 1428 H 134.093 -2.89925 1.43963 0
M  V30 1429 H 133 -1.62017 3.37196 0
M  V30 1430 H 134.333 -2.14937 4.4279 0
M  V30 1431 N 135.985 -1.50799 -0.457987 0
M  V30 1432 C 136.895 -1.73426 -1.57989 0
M  V30 1433 C 137.911 -0.617745 -1.62665 0
M  V30 1434 O 139.087 -0.897614 -1.80291 0
M  V30 1435 C 136.152 -1.83557 -2.94122 0
M  V30 1436 C 135.213 -3.07345 -2.99729 0
M  V30 1437 C 134.446 -3.16983 -4.29368 0
M  V30 1438 O 134.669 -2.33077 -5.20607 0
M  V30 1439 O 133.603 -4.09812 -4.40837 0
M  V30 1440 H 137.429 -2.68555 -1.41817 0
M  V30 1441 H 135.014 -1.35052 -0.638859 0
M  V30 1442 H 136.896 -1.92326 -3.74952 0
M  V30 1443 H 135.571 -0.916137 -3.10465 0
M  V30 1444 H 134.478 -3.04068 -2.1793 0
M  V30 1445 H 135.811 -3.9891 -2.88326 0
M  V30 1446 N 137.463 0.71206 -1.40597 0
M  V30 1447 C 138.691 1.50111 -1.42388 0
M  V30 1448 C 139.106 1.88784 -0.0245395 0
M  V30 1449 O 138.463 1.55681 0.952351 0
M  V30 1450 C 138.514 2.7742 -2.31776 0
M  V30 1451 O 138.235 2.40382 -3.66262 0
M  V30 1452 C 139.736 3.7129 -2.42196 0
M  V30 1453 H 136.956 0.46314 -0.485533 0
M  V30 1454 H 139.5 0.878068 -1.8469 0
M  V30 1455 H 137.655 3.36001 -1.92827 0
M  V30 1456 H 138.069 3.22324 -4.13772 0
M  V30 1457 H 139.543 4.57448 -3.08943 0
M  V30 1458 H 140.02 4.14641 -1.44809 0
M  V30 1459 H 140.626 3.18619 -2.81712 0
M  V30 1460 N 138.941 1.26152 0.944643 0
M  V30 1461 C 140.19 1.10883 1.68487 0
M  V30 1462 C 140.503 -0.348153 1.92477 0
M  V30 1463 O 141.709 -0.621459 2.64292 0
M  V30 1464 C 140.165 1.93624 3.03377 0
M  V30 1465 C 139.773 3.43875 2.87148 0
M  V30 1466 C 141.517 1.86954 3.81115 0
M  V30 1467 C 139.424 4.18875 4.1749 0
M  V30 1468 H 138.354 0.41135 0.631907 0
M  V30 1469 H 141.005 1.50433 1.05082 0
M  V30 1470 H 139.387 1.46904 3.67743 0
M  V30 1471 H 140.561 3.98338 2.31653 0
M  V30 1472 H 138.876 3.51744 2.22856 0
M  V30 1473 H 141.473 2.40275 4.77673 0
M  V30 1474 H 141.816 0.839518 4.07747 0
M  V30 1475 H 142.349 2.31477 3.23517 0
M  V30 1476 H 139.088 5.22332 3.96043 0
M  V30 1477 H 138.608 3.69193 4.72712 0
M  V30 1478 H 140.287 4.27134 4.85968 0
M  V30 1479 N 140.419 -1.14872 1.07899 0
M  V30 1480 C 141.665 -1.86064 0.806725 0
M  V30 1481 C 141.998 -1.82434 -0.665706 0
M  V30 1482 O 141.273 -1.25138 -1.48899 0
M  V30 1483 C 141.556 -3.34929 1.32267 0
M  V30 1484 C 141.409 -3.47161 2.86006 0
M  V30 1485 C 142.728 -4.29863 0.943717 0
M  V30 1486 H 139.847 -0.675591 0.294526 0
M  V30 1487 H 142.489 -1.34925 1.33773 0
M  V30 1488 H 140.639 -3.78611 0.870974 0
M  V30 1489 H 142.311 -3.12302 3.39507 0
M  V30 1490 H 140.554 -2.88539 3.23925 0
M  V30 1491 H 141.225 -4.51777 3.17177 0
M  V30 1492 H 143.701 -3.9417 1.33302 0
M  V30 1493 H 142.577 -5.32494 1.33198 0
M  V30 1494 H 142.838 -4.41846 -0.149796 0
M  V30 1495 N 141.898 -0.863906 -1.31812 0
M  V30 1496 C 143.126 -0.486111 -2.01108 0
M  V30 1497 C 143.541 0.919755 -1.64882 0
M  V30 1498 O 142.898 1.60162 -0.874893 0
M  V30 1499 C 142.949 -0.626435 -3.56031 0
M  V30 1500 O 142.67 -1.97693 -3.90959 0
M  V30 1501 C 144.171 -0.248857 -4.42601 0
M  V30 1502 H 141.391 -0.190052 -0.643523 0
M  V30 1503 H 143.935 -1.1634 -1.68182 0
M  V30 1504 H 142.09 0.00322717 -3.874 0
M  V30 1505 H 142.504 -1.98034 -4.85678 0
M  V30 1506 H 143.978 -0.398016 -5.50563 0
M  V30 1507 H 144.455 0.811489 -4.31638 0
M  V30 1508 H 145.061 -0.853971 -4.16638 0
M  V30 1509 N 143.376 1.44774 -0.622745 0
M  V30 1510 C 144.622 2.0242 -0.124083 0
M  V30 1511 C 144.955 1.4881 1.24777 0
M  V30 1512 O 144.23 0.668799 1.8264 0
M  V30 1513 C 144.513 3.59957 -0.101619 0
M  V30 1514 C 144.366 4.23867 -1.50521 0
M  V30 1515 C 145.685 4.36284 0.578272 0
M  V30 1516 H 142.804 0.735528 -0.0465645 0
M  V30 1517 H 145.446 1.72447 -0.797617 0
M  V30 1518 H 143.596 3.85623 0.471934 0
M  V30 1519 H 145.268 4.09336 -2.12701 0
M  V30 1520 H 143.511 3.81684 -2.06154 0
M  V30 1521 H 144.182 5.32843 -1.4416 0
M  V30 1522 H 146.658 4.16001 0.0906057 0
M  V30 1523 H 145.534 5.46004 0.563149 0
M  V30 1524 H 145.795 4.10271 1.64713 0
M  V30 1525 N 144.854 0.36279 1.53368 0
M  V30 1526 C 146.102 -0.227326 2.00817 0
M  V30 1527 C 146.423 -1.49511 1.25186 0
M  V30 1528 O 145.693 -1.92482 0.364348 0
M  V30 1529 H 144.273 -0.0869923 0.741917 0
M  V30 1530 H 146.935 0.488381 1.88682 0
M  V30 1531 H 146.031 -0.456273 3.08747 0
M  V30 1532 N 146.332 -1.57332 0.0918853 0
M  V30 1533 C 147.58 -1.93853 -0.571446 0
M  V30 1534 C 147.901 -0.974212 -1.6892 0
M  V30 1535 O 147.171 -0.0257254 -1.95883 0
M  V30 1536 H 145.751 -0.715666 -0.214082 0
M  V30 1537 H 148.413 -1.94287 0.154464 0
M  V30 1538 H 147.509 -2.96191 -0.983729 0
M  V30 1539 N 147.81 0.181792 -1.56548 0
M  V30 1540 C 148.757 1.22521 -1.95595 0
M  V30 1541 C 149.727 1.4454 -0.818373 0
M  V30 1542 O 150.912 1.57454 -1.07763 0
M  V30 1543 C 148.052 2.56193 -2.31212 0
M  V30 1544 C 147.165 2.41641 -3.58097 0
M  V30 1545 C 146.3 3.68108 -3.82975 0
M  V30 1546 C 145.339 3.48445 -5.03242 0
M  V30 1547 N 144.476 4.66956 -5.24306 0
M  V30 1548 H 149.316 0.885226 -2.84548 0
M  V30 1549 H 146.853 0.425718 -1.40805 0
M  V30 1550 H 148.811 3.34088 -2.49882 0
M  V30 1551 H 147.441 2.88208 -1.45382 0
M  V30 1552 H 146.493 1.54976 -3.474 0
M  V30 1553 H 147.805 2.23052 -4.46149 0
M  V30 1554 H 146.959 4.54441 -4.01956 0
M  V30 1555 H 145.698 3.89666 -2.93278 0
M  V30 1556 H 144.703 2.60499 -4.8417 0
M  V30 1557 H 145.928 3.2832 -5.9446 0
M  V30 1558 H 143.874 4.88752 -4.37559 0
M  V30 1559 H 143.791 4.51242 -6.06561 0
M  V30 1560 H 145.059 5.54602 -5.47756 0
M  V30 1561 N 149.288 1.51039 0.449983 0
M  V30 1562 C 150.22 1.67617 1.56324 0
M  V30 1563 C 151.233 0.557083 1.52972 0
M  V30 1564 O 152.422 0.830989 1.57977 0
M  V30 1565 C 149.522 1.66402 2.95235 0
M  V30 1566 C 148.695 2.9469 3.23229 0
M  V30 1567 C 147.754 2.85832 4.41799 0
M  V30 1568 O 146.78 3.59785 4.41071 0
M  V30 1569 N 147.982 2.00821 5.44657 0
M  V30 1570 H 150.747 2.63648 1.42512 0
M  V30 1571 H 148.308 1.48767 0.638737 0
M  V30 1572 H 150.3 1.58062 3.72557 0
M  V30 1573 H 148.87 0.780182 3.02708 0
M  V30 1574 H 148.09 3.16996 2.34323 0
M  V30 1575 H 149.378 3.79636 3.38754 0
M  V30 1576 H 148.776 1.40091 5.48079 0
M  V30 1577 H 147.333 1.98368 6.20881 0
M  V30 1578 N 150.766 -0.704594 1.40972 0
M  V30 1579 C 151.729 -1.80035 1.41845 0
M  V30 1580 C 152.729 -1.57774 0.310474 0
M  V30 1581 O 153.919 -1.64613 0.56992 0
M  V30 1582 C 151.051 -3.18284 1.22098 0
M  V30 1583 H 152.244 -1.80658 2.3938 0
M  V30 1584 H 149.797 -0.911329 1.26982 0
M  V30 1585 H 150.532 -3.23306 0.253672 0
M  V30 1586 H 150.317 -3.35843 2.02366 0
M  V30 1587 H 151.807 -3.98289 1.25522 0
M  V30 1588 N 152.244 -1.26651 -0.937939 0
M  V30 1589 C 153.174 -1.10993 -2.05433 0
M  V30 1590 C 154.155 -0.0142161 -1.70094 0
M  V30 1591 O 155.34 -0.186837 -1.93299 0
M  V30 1592 C 152.47 -0.745561 -3.39203 0
M  V30 1593 C 151.424 -1.79337 -3.88616 0
M  V30 1594 C 150.75 -1.28324 -5.19073 0
M  V30 1595 C 152.05 -3.19553 -4.13138 0
M  V30 1596 H 153.744 -2.0438 -2.1879 0
M  V30 1597 H 151.29 -0.984041 -1.05131 0
M  V30 1598 H 153.243 -0.622888 -4.16771 0
M  V30 1599 H 151.967 0.22401 -3.25831 0
M  V30 1600 H 150.626 -1.90477 -3.13231 0
M  V30 1601 H 150.274 -0.303414 -5.02084 0
M  V30 1602 H 149.974 -1.98369 -5.53103 0
M  V30 1603 H 151.498 -1.1733 -5.99221 0
M  V30 1604 H 152.912 -3.11471 -4.81309 0
M  V30 1605 H 151.309 -3.87218 -4.58457 0
M  V30 1606 H 152.379 -3.65368 -3.18801 0
M  V30 1607 N 153.722 1.14298 -1.08507 0
M  V30 1608 C 154.969 1.85359 -0.815373 0
M  V30 1609 C 155.297 1.83001 0.658865 0
M  V30 1610 O 154.552 1.25655 1.50031 0
M  V30 1611 C 154.851 3.33547 -1.28379 0
M  V30 1612 C 154.517 3.56093 -2.76602 0
M  V30 1613 C 153.179 3.61955 -3.17084 0
M  V30 1614 C 155.531 3.64834 -3.72217 0
M  V30 1615 C 152.859 3.74082 -4.51973 0
M  V30 1616 C 155.211 3.78487 -5.06883 0
M  V30 1617 C 153.875 3.82598 -5.46969 0
M  V30 1618 H 153.145 0.678276 -0.298366 0
M  V30 1619 H 155.792 1.35002 -1.35819 0
M  V30 1620 H 154.097 3.86191 -0.660593 0
M  V30 1621 H 155.794 3.86959 -1.05186 0
M  V30 1622 H 152.384 3.52179 -2.4427 0
M  V30 1623 H 156.568 3.59595 -3.42061 0
M  V30 1624 H 151.824 3.75527 -4.82483 0
M  V30 1625 H 155.998 3.84193 -5.80834 0
M  V30 1626 H 153.625 3.91747 -6.51489 0
M  V30 1627 N 155.201 0.870884 1.31352 0
M  V30 1628 C 156.149 0.316445 2.30437 0
M  V30 1629 C 157.143 -0.568965 1.59559 0
M  V30 1630 O 158.349 -0.454964 1.74155 0
M  V30 1631 H 154.724 0.0836521 0.747333 0
M  V30 1632 H 156.695 1.16606 2.74673 0
M  V30 1633 C 155.444 -0.46635 3.44558 0
M  V30 1634 H 154.767 0.205687 3.99271 0
M  V30 1635 H 156.207 -0.819614 4.16003 0
M  V30 1636 C 154.666 -1.65797 2.9328 0
M  V30 1637 O 155.196 -2.75728 2.92125 0
M  V30 1638 N 153.402 -1.49041 2.4947 0
M  V30 1639 H 152.949 -0.59612 2.50608 0
M  V30 1640 H 152.907 -2.28911 2.15516 0
M  V30 1641 N 156.679 -1.44442 0.630414 0
M  V30 1642 C 157.609 -2.33418 -0.0618083 0
M  V30 1643 C 158.59 -1.48165 -0.835541 0
M  V30 1644 O 159.775 -1.76886 -0.801564 0
M  V30 1645 C 156.905 -3.31222 -1.04449 0
M  V30 1646 C 155.859 -4.26288 -0.382436 0
M  V30 1647 C 155.185 -5.13954 -1.47497 0
M  V30 1648 C 156.485 -5.1744 0.710865 0
M  V30 1649 H 158.179 -2.91548 0.681184 0
M  V30 1650 H 155.725 -1.40191 0.329026 0
M  V30 1651 H 157.678 -3.92351 -1.53748 0
M  V30 1652 H 156.402 -2.71299 -1.81836 0
M  V30 1653 H 155.061 -3.6649 0.0899054 0
M  V30 1654 H 154.709 -4.50385 -2.2397 0
M  V30 1655 H 154.409 -5.7837 -1.03737 0
M  V30 1656 H 155.933 -5.77955 -1.96979 0
M  V30 1657 H 157.347 -5.72509 0.300996 0
M  V30 1658 H 155.744 -5.90455 1.07156 0
M  V30 1659 H 156.814 -4.58496 1.57829 0
M  V30 1660 N 158.157 -0.370918 -1.53173 0
M  V30 1661 C 159.404 0.217102 -2.01333 0
M  V30 1662 C 159.732 1.48338 -1.25802 0
M  V30 1663 O 158.987 1.92698 -0.34146 0
M  V30 1664 C 159.286 0.549696 -3.53147 0
M  V30 1665 C 158.952 -0.622872 -4.46577 0
M  V30 1666 C 157.614 -0.944595 -4.71838 0
M  V30 1667 C 159.966 -1.40819 -5.01816 0
M  V30 1668 C 157.294 -2.05351 -5.49589 0
M  V30 1669 C 159.646 -2.50757 -5.80778 0
M  V30 1670 C 158.31 -2.83458 -6.04324 0
M  V30 1671 H 157.58 0.0794431 -0.736729 0
M  V30 1672 H 160.227 -0.504481 -1.84736 0
M  V30 1673 H 158.532 1.35237 -3.6772 0
M  V30 1674 H 160.229 1.017 -3.87889 0
M  V30 1675 H 156.819 -0.36209 -4.27068 0
M  V30 1676 H 161.003 -1.17289 -4.82242 0
M  V30 1677 H 156.259 -2.3108 -5.6605 0
M  V30 1678 H 160.433 -3.12022 -6.22588 0
M  V30 1679 H 158.06 -3.69508 -6.64355 0
M  V30 1680 N 159.635 1.57281 -0.100228 0
M  V30 1681 C 160.567 2.11342 0.886972 0
M  V30 1682 C 161.58 1.05182 1.24261 0
M  V30 1683 O 162.769 1.32613 1.19483 0
M  V30 1684 C 159.869 2.5825 2.19454 0
M  V30 1685 C 159.042 3.88302 2.01346 0
M  V30 1686 C 158.101 4.21004 3.15661 0
M  V30 1687 O 157.127 4.9014 2.89398 0
M  V30 1688 N 158.329 3.76818 4.41575 0
M  V30 1689 H 161.094 2.96668 0.425216 0
M  V30 1690 H 158.655 1.61678 0.0847334 0
M  V30 1691 H 160.647 2.7717 2.94888 0
M  V30 1692 H 159.217 1.77907 2.57037 0
M  V30 1693 H 158.437 3.7848 1.10212 0
M  V30 1694 H 159.725 4.73375 1.8653 0
M  V30 1695 H 159.123 3.2102 4.65792 0
M  V30 1696 H 157.68 4.00882 5.13942 0
M  V30 1697 N 161.113 -0.173488 1.56642 0
M  V30 1698 C 162.076 -1.19859 1.95362 0
M  V30 1699 C 163.076 -1.37296 0.83704 0
M  V30 1700 O 164.266 -1.34739 1.10413 0
M  V30 1701 C 161.398 -2.56405 2.24654 0
M  V30 1702 H 162.591 -0.867062 2.87092 0
M  V30 1703 H 160.144 -0.415853 1.50666 0
M  V30 1704 H 160.879 -2.94576 1.35631 0
M  V30 1705 H 160.664 -2.45115 3.06041 0
M  V30 1706 H 162.154 -3.30287 2.5554 0
M  V30 1707 N 162.591 -1.51276 -0.441967 0
M  V30 1708 C 163.84 -1.6295 -1.18871 0
M  V30 1709 C 164.153 -0.349312 -1.92456 0
M  V30 1710 O 165.359 -0.345355 -2.69295 0
M  V30 1711 C 163.815 -2.87759 -2.16155 0
M  V30 1712 C 163.423 -4.22764 -1.48239 0
M  V30 1713 C 165.167 -3.08788 -2.91291 0
M  V30 1714 C 163.074 -5.38728 -2.4398 0
M  V30 1715 H 162.004 -0.606913 -0.447406 0
M  V30 1716 H 164.655 -1.77739 -0.456205 0
M  V30 1717 H 163.037 -2.66593 -2.92821 0
M  V30 1718 H 164.211 -4.54293 -0.771635 0
M  V30 1719 H 162.526 -4.07575 -0.852741 0
M  V30 1720 H 165.123 -3.92599 -3.63002 0
M  V30 1721 H 165.466 -2.21679 -3.5237 0
M  V30 1722 H 165.999 -3.30272 -2.21733 0
M  V30 1723 H 162.738 -6.28082 -1.87598 0
M  V30 1724 H 162.258 -5.1158 -3.13123 0
M  V30 1725 H 163.937 -5.70489 -3.05207 0
M  V30 1726 N 164.069 0.697108 -1.41344 0
M  V30 1727 C 164.999 1.82353 -1.45841 0
M  V30 1728 C 165.98 1.67115 -0.317247 0
M  V30 1729 O 167.165 1.86871 -0.528474 0
M  V30 1730 C 164.295 3.20476 -1.33838 0
M  V30 1731 C 163.249 3.50415 -2.4575 0
M  V30 1732 C 162.575 4.87878 -2.18813 0
M  V30 1733 C 163.875 3.49546 -3.88091 0
M  V30 1734 H 165.569 1.78846 -2.40113 0
M  V30 1735 H 163.115 0.859028 -1.15571 0
M  V30 1736 H 165.068 3.98988 -1.35596 0
M  V30 1737 H 163.792 3.24604 -0.360498 0
M  V30 1738 H 162.451 2.74253 -2.43271 0
M  V30 1739 H 162.099 4.8863 -1.19371 0
M  V30 1740 H 161.799 5.08875 -2.93803 0
M  V30 1741 H 163.323 5.68702 -2.22284 0
M  V30 1742 H 164.737 4.18066 -3.92293 0
M  V30 1743 H 163.134 3.82075 -4.62751 0
M  V30 1744 H 164.204 2.48552 -4.16353 0
M  V30 1745 N 165.547 1.27147 0.931209 0
M  V30 1746 C 166.824 1.0401 1.65654 0
M  V30 1747 C 167.204 -0.426297 2.06751 0
M  V30 1748 O 166.552 -1.40879 1.79904 0
M  V30 1749 C 166.762 1.99834 2.86125 0
M  V30 1750 C 168.11 2.29007 3.57549 0
M  V30 1751 O 169.134 1.97779 2.96246 0
M  V30 1752 O 167.993 2.82222 4.67989 0
M  V30 1753 H 165.087 0.396239 0.725895 0
M  V30 1754 H 167.633 1.38397 0.982056 0
M  V30 1755 H 166.405 2.98744 2.52721 0
M  V30 1756 H 166.028 1.65987 3.61295 0
M  V30 1757 N 167.025 -1.13721 1.09112 0
M  V30 1758 C 168.436 -1.6648 0.845068 0
M  V30 1759 C 168.787 -1.85911 -0.62701 0
M  V30 1760 O 167.912 -1.57556 -1.48341 0
M  V30 1761 C 168.507 -3.02413 1.52748 0
M  V30 1762 C 167.066 -3.52176 1.32849 0
M  V30 1763 C 166.213 -2.27492 1.58564 0
M  V30 1764 H 169.164 -0.976872 1.25072 0
M  V30 1765 H 169.185 -3.68223 0.958752 0
M  V30 1766 H 168.697 -2.88238 2.59885 0
M  V30 1767 H 166.798 -3.7156 0.278137 0
M  V30 1768 H 166.911 -4.32499 2.0611 0
M  V30 1769 H 165.275 -2.33923 1.00758 0
M  V30 1770 H 166.058 -2.15886 2.66924 0
M  V30 1771 N 168.503 -0.877838 -1.30888 0
M  V30 1772 C 169.751 -0.491723 -1.96027 0
M  V30 1773 C 170.072 0.960827 -1.69685 0
M  V30 1774 O 169.342 1.67462 -1.01654 0
M  V30 1775 H 167.922 -0.17885 -0.725273 0
M  V30 1776 H 170.584 -1.11935 -1.59551 0
M  V30 1777 H 169.68 -0.656016 -3.05128 0
M  V30 1778 N 169.982 1.44106 -0.638065 0
M  V30 1779 C 171.259 1.95453 -0.0759321 0
M  V30 1780 C 171.639 1.57984 1.40015 0
M  V30 1781 O 170.987 0.857361 2.11806 0
M  V30 1782 C 171.197 3.47655 -0.306132 0
M  V30 1783 C 172.545 4.24114 -0.203008 0
M  V30 1784 O 173.569 3.55405 -0.237871 0
M  V30 1785 O 172.428 5.46381 -0.113827 0
M  V30 1786 H 169.522 0.826797 0.0183332 0
M  V30 1787 H 172.068 1.54122 -0.710251 0
M  V30 1788 H 170.84 3.68 -1.3301 0
M  V30 1789 H 170.463 3.95949 0.361991 0
M  V30 1790 N 171.46 0.379036 1.52974 0
M  V30 1791 C 172.37 -0.468639 2.29872 0
M  V30 1792 C 173.386 -1.08067 1.36373 0
M  V30 1793 O 174.562 -1.08871 1.69438 0
M  V30 1794 C 171.627 -1.58594 3.083 0
M  V30 1795 C 170.688 -1.00007 4.17489 0
M  V30 1796 C 169.921 -2.06413 4.92168 0
M  V30 1797 O 170.144 -3.27751 4.66835 0
M  V30 1798 O 169.078 -1.68717 5.7777 0
M  V30 1799 H 172.904 0.157508 3.03291 0
M  V30 1800 H 170.489 0.143035 1.48714 0
M  V30 1801 H 172.371 -2.23525 3.57232 0
M  V30 1802 H 171.046 -2.19724 2.37703 0
M  V30 1803 H 169.953 -0.314299 3.72777 0
M  V30 1804 H 171.286 -0.433135 4.90291 0
M  V30 1805 N 172.938 -1.57226 0.108567 0
M  V30 1806 C 174.184 -1.95121 -0.552761 0
M  V30 1807 C 174.517 -0.991345 -1.66991 0
M  V30 1808 O 173.792 -0.0267211 -1.94482 0
M  V30 1809 C 174.075 -3.43039 -1.09528 0
M  V30 1810 C 173.928 -4.49797 0.0177332 0
M  V30 1811 C 175.247 -3.92567 -1.98945 0
M  V30 1812 H 172.366 -0.709496 -0.199461 0
M  V30 1813 H 175.008 -1.89126 0.182011 0
M  V30 1814 H 173.158 -3.48279 -1.72146 0
M  V30 1815 H 174.83 -4.56661 0.652584 0
M  V30 1816 H 173.073 -4.284 0.682309 0
M  V30 1817 H 173.744 -5.50528 -0.402919 0
M  V30 1818 H 176.22 -3.89565 -1.46214 0
M  V30 1819 H 175.096 -4.96605 -2.33827 0
M  V30 1820 H 175.357 -3.32648 -2.91201 0
M  V30 1821 N 174.416 0.165178 -1.56732 0
M  V30 1822 C 175.665 0.879143 -1.81532 0
M  V30 1823 C 175.978 1.83144 -0.686842 0
M  V30 1824 O 177.184 2.58823 -0.819944 0
M  V30 1825 C 175.64 1.61388 -3.21686 0
M  V30 1826 C 175.248 0.704904 -4.4242 0
M  V30 1827 C 176.992 2.3157 -3.55774 0
M  V30 1828 C 174.899 1.44022 -5.73595 0
M  V30 1829 H 173.829 0.332033 -0.676957 0
M  V30 1830 H 176.48 0.132008 -1.83025 0
M  V30 1831 H 174.862 2.40599 -3.14529 0
M  V30 1832 H 176.036 -0.0506815 -4.60772 0
M  V30 1833 H 174.351 0.112419 -4.16248 0
M  V30 1834 H 176.948 2.8719 -4.51028 0
M  V30 1835 H 177.291 3.07201 -2.8095 0
M  V30 1836 H 177.824 1.59297 -3.64513 0
M  V30 1837 H 174.563 0.72612 -6.51466 0
M  V30 1838 H 174.083 2.16898 -5.5921 0
M  V30 1839 H 175.762 1.98606 -6.15764 0
M  V30 1840 N 175.894 1.51508 0.433938 0
M  V30 1841 C 177.14 1.64588 1.18484 0
M  V30 1842 C 177.473 0.362666 1.90784 0
M  V30 1843 O 176.748 -0.637892 1.83742 0
M  V30 1844 C 177.031 2.85149 2.19913 0
M  V30 1845 C 176.884 4.23456 1.51674 0
M  V30 1846 C 178.203 3.01227 3.20858 0
M  V30 1847 H 175.322 0.598994 0.429389 0
M  V30 1848 H 177.964 1.84002 0.473647 0
M  V30 1849 H 176.114 2.68729 2.80566 0
M  V30 1850 H 177.786 4.51552 0.943322 0
M  V30 1851 H 176.029 4.25998 0.819035 0
M  V30 1852 H 176.7 5.03812 2.2556 0
M  V30 1853 H 179.176 3.16382 2.70263 0
M  V30 1854 H 178.052 3.87141 3.89118 0
M  V30 1855 H 178.313 2.13447 3.8716 0
M  V30 1856 N 177.372 -0.689602 1.41712 0
M  V30 1857 C 178.302 -1.81577 1.46806 0
M  V30 1858 C 179.283 -1.66945 0.326105 0
M  V30 1859 O 180.468 -1.86588 0.538377 0
M  V30 1860 C 177.598 -3.19762 1.35535 0
M  V30 1861 C 176.552 -3.49107 2.47605 0
M  V30 1862 C 175.878 -4.86711 2.21397 0
M  V30 1863 C 177.178 -3.47483 3.89939 0
M  V30 1864 H 178.872 -1.7757 2.41058 0
M  V30 1865 H 176.418 -0.852887 1.16025 0
M  V30 1866 H 178.371 -3.98263 1.3771 0
M  V30 1867 H 177.095 -3.24409 0.377708 0
M  V30 1868 H 175.754 -2.72959 2.44722 0
M  V30 1869 H 175.402 -4.8799 1.21961 0
M  V30 1870 H 175.102 -5.0731 2.96497 0
M  V30 1871 H 176.626 -5.67515 2.25297 0
M  V30 1872 H 178.04 -4.1598 3.94505 0
M  V30 1873 H 176.437 -3.79615 4.64771 0
M  V30 1874 H 177.507 -2.46341 4.17665 0
M  V30 1875 N 178.85 -1.27639 -0.924453 0
M  V30 1876 C 180.075 -1.17101 -1.71179 0
M  V30 1877 C 180.5 0.268134 -1.86179 0
M  V30 1878 O 179.858 1.19415 -1.36418 0
M  V30 1879 C 179.906 -1.86313 -3.08739 0
M  V30 1880 O 179.01 -1.16331 -3.95652 0
M  V30 1881 H 178.351 -0.407091 -0.524569 0
M  V30 1882 H 180.881 -1.68767 -1.15666 0
M  V30 1883 H 180.891 -1.938 -3.59034 0
M  V30 1884 H 179.566 -2.91001 -2.97138 0
M  V30 1885 H 178.143 -1.16935 -3.54091 0
M  V30 1886 N 180.328 1.1314 -1.09713 0
M  V30 1887 C 181.739 1.66029 -0.853885 0
M  V30 1888 C 182.09 1.86241 0.617142 0
M  V30 1889 O 181.215 1.5834 1.47503 0
M  V30 1890 C 181.81 3.01599 -1.5435 0
M  V30 1891 C 180.369 3.51467 -1.34714 0
M  V30 1892 C 179.516 2.26648 -1.59769 0
M  V30 1893 H 182.467 0.970226 -1.25588 0
M  V30 1894 H 182.488 3.67709 -0.978267 0
M  V30 1895 H 182 2.86856 -2.6141 0
M  V30 1896 H 180.101 3.71408 -0.297838 0
M  V30 1897 H 180.214 4.314 -2.08401 0
M  V30 1898 H 178.578 2.33385 -1.01998 0
M  V30 1899 H 179.361 2.14467 -2.68065 0
M  V30 1900 N 181.806 0.884767 1.30421 0
M  V30 1901 C 183.036 0.517293 2.00019 0
M  V30 1902 C 183.444 -0.898632 1.66497 0
M  V30 1903 O 182.787 -1.60245 0.898181 0
M  V30 1904 C 182.849 0.612025 3.54252 0
M  V30 1905 C 182.513 1.99222 4.1129 0
M  V30 1906 C 183.51 2.9616 4.273 0
M  V30 1907 C 181.195 2.29755 4.46674 0
M  V30 1908 C 183.189 4.21764 4.77906 0
M  V30 1909 C 180.876 3.55606 4.96979 0
M  V30 1910 C 181.874 4.51425 5.12547 0
M  V30 1911 O 181.562 5.75043 5.61766 0
M  V30 1912 H 181.294 0.198529 0.64619 0
M  V30 1913 H 183.848 1.1919 1.67281 0
M  V30 1914 H 182.078 -0.119561 3.86515 0
M  V30 1915 H 183.767 0.255859 4.05093 0
M  V30 1916 H 184.533 2.73882 4.00267 0
M  V30 1917 H 180.412 1.55942 4.33824 0
M  V30 1918 H 183.956 4.96561 4.89972 0
M  V30 1919 H 179.853 3.7772 5.23448 0
M  V30 1920 H 180.621 5.77422 5.80109 0
M  V30 1921 N 183.284 -1.43765 0.645699 0
M  V30 1922 C 184.53 -2.02731 0.164844 0
M  V30 1923 C 184.885 -1.49983 -1.2051 0
M  V30 1924 O 184.178 -0.680208 -1.79119 0
M  V30 1925 C 184.372 -3.57238 0.107679 0
M  V30 1926 C 184.201 -4.24977 1.47054 0
M  V30 1927 C 182.971 -4.61356 2.06103 0
M  V30 1928 C 185.169 -4.54476 2.40741 0
M  V30 1929 N 183.151 -5.14132 3.35473 0
M  V30 1930 C 184.522 -5.08489 3.54737 0
M  V30 1931 C 186.577 -4.36438 2.39637 0
M  V30 1932 C 185.28 -5.46364 4.67845 0
M  V30 1933 C 187.306 -4.7537 3.5182 0
M  V30 1934 C 186.668 -5.2951 4.64541 0
M  V30 1935 H 182.767 -0.774976 0.104578 0
M  V30 1936 H 185.351 -1.75051 0.852367 0
M  V30 1937 H 183.522 -3.84498 -0.549165 0
M  V30 1938 H 185.254 -4.0288 -0.383351 0
M  V30 1939 H 182.009 -4.46151 1.58892 0
M  V30 1940 H 182.433 -5.4498 4.01654 0
M  V30 1941 H 187.075 -3.93861 1.53731 0
M  V30 1942 H 184.793 -5.87888 5.54448 0
M  V30 1943 H 188.379 -4.63115 3.52159 0
M  V30 1944 H 187.259 -5.59077 5.49911 0
M  V30 1945 N 184.763 -0.387143 -1.52771 0
M  V30 1946 C 186.009 0.196025 -2.0185 0
M  V30 1947 C 186.342 1.46641 -1.27319 0
M  V30 1948 O 185.617 1.90889 -0.373032 0
M  V30 1949 C 185.9 0.466136 -3.5707 0
M  V30 1950 C 185.753 -0.819385 -4.42274 0
M  V30 1951 C 187.072 1.25768 -4.21747 0
M  V30 1952 H 184.191 0.0697708 -0.73369 0
M  V30 1953 H 186.833 -0.516286 -1.82851 0
M  V30 1954 H 184.983 1.07293 -3.7339 0
M  V30 1955 H 186.655 -1.4563 -4.37709 0
M  V30 1956 H 184.898 -1.43517 -4.09372 0
M  V30 1957 H 185.569 -0.585065 -5.48891 0
M  V30 1958 H 188.045 0.744167 -4.09391 0
M  V30 1959 H 186.921 1.41541 -5.30337 0
M  V30 1960 H 187.182 2.27228 -3.79236 0
M  V30 1961 N 186.241 1.57166 -0.116904 0
M  V30 1962 C 187.466 1.999 0.55271 0
M  V30 1963 C 187.891 0.996039 1.59564 0
M  V30 1964 O 187.249 -0.032556 1.81271 0
M  V30 1965 C 187.297 3.4152 1.15742 0
M  V30 1966 O 186.401 3.44106 2.27299 0
M  V30 1967 H 185.742 0.649447 0.138258 0
M  V30 1968 H 188.272 2.03573 -0.204759 0
M  V30 1969 H 188.282 3.79684 1.49346 0
M  V30 1970 H 186.957 4.14034 0.393493 0
M  V30 1971 H 185.534 3.17759 1.9515 0
M  V30 1972 N 187.719 -0.156864 1.56817 0
M  V30 1973 C 188.949 -0.885031 1.86684 0
M  V30 1974 C 189.357 -1.75696 0.701954 0
M  V30 1975 O 188.7 -1.80569 -0.337732 0
M  V30 1976 C 188.762 -1.80092 3.11138 0
M  V30 1977 C 188.426 -1.10714 4.43386 0
M  V30 1978 C 189.423 -0.465714 5.1781 0
M  V30 1979 C 187.108 -1.09959 4.90117 0
M  V30 1980 C 189.102 0.174002 6.37162 0
M  V30 1981 C 186.789 -0.456055 6.09396 0
M  V30 1982 C 187.787 0.179622 6.82764 0
M  V30 1983 O 187.475 0.812975 7.99779 0
M  V30 1984 H 187.207 -0.261813 0.623242 0
M  V30 1985 H 189.761 -0.157383 2.04796 0
M  V30 1986 H 187.991 -2.56926 2.89009 0
M  V30 1987 H 189.68 -2.40018 3.27332 0
M  V30 1988 H 190.446 -0.463427 4.82781 0
M  V30 1989 H 186.325 -1.58378 4.3294 0
M  V30 1990 H 189.869 0.670765 6.94368 0
M  V30 1991 H 185.766 -0.455975 6.43888 0
M  V30 1992 H 186.534 0.71366 8.15383 0
M  V30 1993 N 189.197 -1.51736 -0.425897 0
M  V30 1994 C 190.608 -1.5732 -1.00536 0
M  V30 1995 C 190.959 -0.403537 -1.92005 0
M  V30 1996 O 190.084 0.478256 -2.11049 0
M  V30 1997 C 190.679 -2.85119 -1.8301 0
M  V30 1998 C 189.238 -2.93236 -2.35987 0
M  V30 1999 C 188.385 -2.52098 -1.15508 0
M  V30 2000 H 191.336 -1.57348 -0.206739 0
M  V30 2001 H 191.357 -2.69526 -2.68581 0
M  V30 2002 H 190.869 -3.7023 -1.16411 0
M  V30 2003 H 188.97 -2.12581 -3.06007 0
M  V30 2004 H 189.083 -3.9713 -2.68001 0
M  V30 2005 H 187.447 -2.05558 -1.50393 0
M  V30 2006 H 188.23 -3.39565 -0.505014 0
M  V30 2007 N 190.675 0.682077 -1.42076 0
M  V30 2008 C 191.585 1.82535 -1.47371 0
M  V30 2009 C 192.601 1.7017 -0.363079 0
M  V30 2010 O 193.777 1.91848 -0.612875 0
M  V30 2011 C 190.842 3.18624 -1.36674 0
M  V30 2012 C 189.903 3.42999 -2.58167 0
M  V30 2013 C 189.136 4.72595 -2.4797 0
M  V30 2014 O 189.359 5.50006 -1.5116 0
M  V30 2015 O 188.293 4.98054 -3.37974 0
M  V30 2016 H 192.119 1.81023 -2.43853 0
M  V30 2017 H 189.704 0.836887 -1.2376 0
M  V30 2018 H 191.586 3.99847 -1.33043 0
M  V30 2019 H 190.261 3.20789 -0.433138 0
M  V30 2020 H 189.168 2.61653 -2.67373 0
M  V30 2021 H 190.501 3.45659 -3.50401 0
M  V30 2022 N 192.153 1.28127 0.917671 0
M  V30 2023 C 193.086 1.06039 2.02067 0
M  V30 2024 C 194.064 -0.0223285 1.62585 0
M  V30 2025 O 195.248 0.124823 1.88086 0
M  V30 2026 C 192.375 0.610596 3.33151 0
M  V30 2027 C 191.421 1.68937 3.91615 0
M  V30 2028 S 192.254 3.28437 4.22953 0
M  V30 2029 C 193.41 2.85283 5.57103 0
M  V30 2030 H 193.643 1.99425 2.20493 0
M  V30 2031 H 191.176 1.12071 1.06205 0
M  V30 2032 H 193.134 0.357778 4.08938 0
M  V30 2033 H 191.795 -0.303364 3.12632 0
M  V30 2034 H 190.988 1.32619 4.86239 0
M  V30 2035 H 190.59 1.89478 3.2245 0
M  V30 2036 H 192.882 2.3121 6.36827 0
M  V30 2037 H 193.825 3.7869 5.98331 0
M  V30 2038 H 194.233 2.24118 5.18104 0
M  V30 2039 N 193.631 -1.12557 1.10312 0
M  V30 2040 C 194.877 -1.84311 0.846011 0
M  V30 2041 C 195.21 -1.83805 -0.626859 0
M  V30 2042 O 194.485 -1.28268 -1.46211 0
M  V30 2043 C 194.768 -3.32048 1.39341 0
M  V30 2044 C 194.621 -3.41016 2.93305 0
M  V30 2045 C 195.94 -4.27764 1.03468 0
M  V30 2046 H 193.059 -0.669192 0.30879 0
M  V30 2047 H 195.701 -1.32057 1.36605 0
M  V30 2048 H 193.851 -3.76678 0.951087 0
M  V30 2049 H 195.523 -3.05031 3.46055 0
M  V30 2050 H 193.766 -2.81603 3.29973 0
M  V30 2051 H 194.437 -4.44948 3.26689 0
M  V30 2052 H 196.913 -3.91253 1.41633 0
M  V30 2053 H 195.789 -5.29549 1.44463 0
M  V30 2054 H 196.05 -4.42064 -0.0560404 0
M  V30 2055 N 195.109 -0.891671 -1.2995 0
M  V30 2056 C 196.525 -0.58662 -1.48428 0
M  V30 2057 C 196.725 0.873951 -1.81561 0
M  V30 2058 O 195.781 1.65471 -1.90724 0
M  V30 2059 C 197.094 -1.50553 -2.60296 0
M  V30 2060 C 198.642 -1.50988 -2.74175 0
M  V30 2061 C 199.117 -2.41488 -3.89163 0
M  V30 2062 N 200.608 -2.39489 -3.96483 0
M  V30 2063 C 201.343 -3.06223 -4.84784 0
M  V30 2064 N 200.839 -3.82206 -5.77833 0
M  V30 2065 N 202.632 -2.95421 -4.78208 0
M  V30 2066 H 194.783 -1.83644 -1.06718 0
M  V30 2067 H 197.046 -0.786455 -0.529332 0
M  V30 2068 H 196.752 -2.54581 -2.42654 0
M  V30 2069 H 196.626 -1.22008 -3.56923 0
M  V30 2070 H 199.013 -0.47708 -2.91218 0
M  V30 2071 H 199.094 -1.83567 -1.78148 0
M  V30 2072 H 198.738 -3.44857 -3.72876 0
M  V30 2073 H 198.668 -2.06222 -4.84541 0
M  V30 2074 H 201.159 -1.84278 -3.29924 0
M  V30 2075 H 201.472 -4.302 -6.41988 0
M  V30 2076 H 199.817 -3.86313 -5.77743 0
M  V30 2077 H 203.008 -2.35581 -4.04499 0
M  V30 2078 H 203.181 -3.47704 -5.46814 0
M  V30 2079 N 196.587 1.43421 -0.653314 0
M  V30 2080 C 197.834 2.01812 -0.166745 0
M  V30 2081 C 198.162 1.51535 1.21931 0
M  V30 2082 O 197.417 0.698975 1.82792 0
M  V30 2083 C 197.716 3.57176 -0.126623 0
M  V30 2084 C 197.382 4.26798 -1.45444 0
M  V30 2085 C 196.044 4.45534 -1.81805 0
M  V30 2086 C 198.396 4.66225 -2.32989 0
M  V30 2087 C 195.724 5.00961 -3.05377 0
M  V30 2088 C 198.076 5.23021 -3.55853 0
M  V30 2089 C 196.74 5.39973 -3.9241 0
M  V30 2090 H 196.01 0.738484 -0.0610162 0
M  V30 2091 H 198.657 1.71896 -0.84404 0
M  V30 2092 H 196.962 3.86634 0.634123 0
M  V30 2093 H 198.659 4.00112 0.266723 0
M  V30 2094 H 195.249 4.12561 -1.16153 0
M  V30 2095 H 199.433 4.51443 -2.06187 0
M  V30 2096 H 194.689 5.12271 -3.3375 0
M  V30 2097 H 198.863 5.52518 -4.23907 0
M  V30 2098 H 196.49 5.82687 -4.88242 0
M  V30 2099 N 198.065 0.39524 1.52563 0
M  V30 2100 C 199.028 -0.425001 2.25225 0
M  V30 2101 C 200.028 -0.985266 1.27079 0
M  V30 2102 O 201.218 -0.866332 1.5113 0
M  V30 2103 C 198.35 -1.59686 3.01186 0
M  V30 2104 H 199.543 0.211233 2.99155 0
M  V30 2105 H 197.096 0.147472 1.55603 0
M  V30 2106 H 197.831 -2.27035 2.31572 0
M  V30 2107 H 197.616 -1.20176 3.73229 0
M  V30 2108 H 199.106 -2.17743 3.5634 0
M  V30 2109 N 199.544 -1.57102 0.125237 0
M  V30 2110 C 200.792 -1.95021 -0.530198 0
M  V30 2111 C 201.113 -1.00982 -1.66816 0
M  V30 2112 O 200.383 -0.0672693 -1.95784 0
M  V30 2113 H 198.963 -0.720046 -0.198853 0
M  V30 2114 H 201.625 -1.93916 0.19564 0
M  V30 2115 H 200.721 -2.98211 -0.920681 0
M  V30 2116 N 201.022 0.148545 -1.56898 0
M  V30 2117 C 202.27 0.859717 -1.82902 0
M  V30 2118 C 202.591 1.81775 -0.70588 0
M  V30 2119 O 201.861 1.93994 0.272586 0
M  V30 2120 H 200.441 0.320469 -0.674766 0
M  V30 2121 H 203.103 0.142918 -1.94375 0
M  V30 2122 H 202.199 1.4229 -2.77777 0
M  V30 2123 N 202.5 1.5196 0.417844 0
M  V30 2124 C 203.746 1.65836 1.16732 0
M  V30 2125 C 204.079 0.382881 1.90388 0
M  V30 2126 O 203.354 -0.618368 1.84408 0
M  V30 2127 C 203.637 2.87466 2.16876 0
M  V30 2128 C 203.49 4.25041 1.47174 0
M  V30 2129 C 204.809 3.04613 3.17646 0
M  V30 2130 H 201.928 0.603515 0.423011 0
M  V30 2131 H 204.57 1.84494 0.454105 0
M  V30 2132 H 202.72 2.71689 2.777 0
M  V30 2133 H 204.392 4.52527 0.895376 0
M  V30 2134 H 202.635 4.26843 0.773806 0
M  V30 2135 H 203.306 5.06176 2.20204 0
M  V30 2136 H 205.782 3.1923 2.66892 0
M  V30 2137 H 204.658 3.91247 3.8499 0
M  V30 2138 H 204.919 2.17541 3.84874 0
M  V30 2139 N 203.978 -0.674533 1.42435 0
M  V30 2140 C 205.224 -1.43671 1.43131 0
M  V30 2141 C 205.557 -1.94142 0.0476021 0
M  V30 2142 O 204.832 -1.70924 -0.928188 0
M  V30 2143 C 205.115 -2.63355 2.45594 0
M  V30 2144 C 204.968 -2.18514 3.93156 0
M  V30 2145 C 206.287 -3.65571 2.45043 0
M  V30 2146 H 203.406 -0.521077 0.521198 0
M  V30 2147 H 206.048 -0.766551 1.7385 0
M  V30 2148 H 204.198 -3.2053 2.19528 0
M  V30 2149 H 205.87 -1.66504 4.30202 0
M  V30 2150 H 204.113 -1.50086 4.07009 0
M  V30 2151 H 204.784 -3.04484 4.60428 0
M  V30 2152 H 207.26 -3.18113 2.68223 0
M  V30 2153 H 206.136 -4.46893 3.18713 0
M  V30 2154 H 206.397 -4.16716 1.47649 0
M  V30 2155 N 205.456 -1.28612 -0.910864 0
M  V30 2156 C 206.702 -1.16106 -1.66274 0
M  V30 2157 C 207.035 0.289113 -1.92036 0
M  V30 2158 O 206.31 1.21 -1.52281 0
M  V30 2159 C 206.593 -1.96309 -3.01885 0
M  V30 2160 C 206.446 -3.49405 -2.8326 0
M  V30 2161 C 207.765 -1.78076 -4.02463 0
M  V30 2162 H 204.884 -0.423152 -0.603417 0
M  V30 2163 H 207.526 -1.57961 -1.05586 0
M  V30 2164 H 205.676 -1.60742 -3.53687 0
M  V30 2165 H 207.348 -3.94894 -2.38446 0
M  V30 2166 H 205.591 -3.74893 -2.18261 0
M  V30 2167 H 206.262 -4.00784 -3.79574 0
M  V30 2168 H 208.738 -2.0912 -3.59733 0
M  V30 2169 H 207.614 -2.36561 -4.95308 0
M  V30 2170 H 207.875 -0.733008 -4.35981 0
M  V30 2171 N 206.934 1.1197 -1.10907 0
M  V30 2172 C 207.844 2.21433 -0.774896 0
M  V30 2173 C 208.86 1.72478 0.229657 0
M  V30 2174 O 210.036 2.01288 0.0672008 0
M  V30 2175 C 207.101 3.4602 -0.216986 0
M  V30 2176 C 206.162 4.09791 -1.27944 0
M  V30 2177 C 205.395 5.28431 -0.748055 0
M  V30 2178 O 205.618 5.68823 0.423833 0
M  V30 2179 O 204.552 5.82644 -1.51027 0
M  V30 2180 H 208.378 2.5242 -1.68873 0
M  V30 2181 H 205.963 1.20399 -0.884555 0
M  V30 2182 H 207.845 4.21304 0.090059 0
M  V30 2183 H 206.52 3.16698 0.669633 0
M  V30 2184 H 205.427 3.36265 -1.63941 0
M  V30 2185 H 206.76 4.4328 -2.13925 0
M  V30 2186 N 208.412 0.89855 1.29475 0
M  V30 2187 C 209.658 0.524658 1.95896 0
M  V30 2188 C 209.991 -0.926468 1.70676 0
M  V30 2189 O 209.266 -1.65665 1.01908 0
M  V30 2190 C 209.549 0.81633 3.50725 0
M  V30 2191 C 209.402 2.31907 3.85408 0
M  V30 2192 C 210.721 0.302038 4.39062 0
M  V30 2193 H 207.84 0.19209 0.711527 0
M  V30 2194 H 210.482 1.12502 1.53112 0
M  V30 2195 H 208.632 0.305369 3.87298 0
M  V30 2196 H 210.304 2.89949 3.58786 0
M  V30 2197 H 208.547 2.78027 3.32992 0
M  V30 2198 H 209.218 2.47373 4.93468 0
M  V30 2199 H 211.694 0.739551 4.09475 0
M  V30 2200 H 210.57 0.535331 5.46283 0
M  V30 2201 H 210.831 -0.797216 4.34853 0
M  V30 2202 N 209.89 -1.43072 0.660911 0
M  V30 2203 C 210.8 -2.34585 -0.0264163 0
M  V30 2204 C 211.816 -1.54316 -0.803898 0
M  V30 2205 O 212.992 -1.86939 -0.749391 0
M  V30 2206 C 210.057 -3.32689 -0.975639 0
M  V30 2207 C 209.118 -4.2886 -0.194236 0
M  V30 2208 C 208.351 -5.22278 -1.09825 0
M  V30 2209 O 208.574 -5.20299 -2.33763 0
M  V30 2210 O 207.508 -5.99228 -0.566513 0
M  V30 2211 H 211.334 -2.94869 0.727034 0
M  V30 2212 H 208.919 -1.43342 0.42111 0
M  V30 2213 H 210.801 -3.92995 -1.52094 0
M  V30 2214 H 209.476 -2.74898 -1.70918 0
M  V30 2215 H 208.383 -3.72011 0.394835 0
M  V30 2216 H 209.716 -4.89655 0.499899 0
M  V30 2217 N 211.368 -0.403325 -1.52352 0
M  V30 2218 C 212.596 0.174012 -2.06167 0
M  V30 2219 C 213.011 1.39347 -1.27388 0
M  V30 2220 O 212.368 1.79597 -0.324201 0
M  V30 2221 C 212.419 0.530223 -3.5759 0
M  V30 2222 O 212.14 -0.640806 -4.33388 0
M  V30 2223 C 213.641 1.16192 -4.27802 0
M  V30 2224 H 210.861 0.0229464 -0.670608 0
M  V30 2225 H 213.405 -0.572604 -1.9632 0
M  V30 2226 H 211.56 1.22673 -3.67464 0
M  V30 2227 H 211.974 -0.344851 -5.23365 0
M  V30 2228 H 213.448 1.36141 -5.34948 0
M  V30 2229 H 213.925 2.13335 -3.83907 0
M  V30 2230 H 214.531 0.505775 -4.22282 0
M  V30 2231 N 212.846 1.57033 -0.133567 0
M  V30 2232 C 213.776 2.1909 0.807567 0
M  V30 2233 C 214.757 1.13517 1.26681 0
M  V30 2234 O 215.942 1.41809 1.32679 0
M  V30 2235 C 213.072 2.80188 2.05212 0
M  V30 2236 C 212.026 3.91471 1.73015 0
M  V30 2237 C 211.352 4.39443 3.04622 0
M  V30 2238 C 212.652 5.12886 0.987168 0
M  V30 2239 H 214.346 2.97988 0.290403 0
M  V30 2240 H 211.892 1.43335 0.138239 0
M  V30 2241 H 213.845 3.22264 2.71521 0
M  V30 2242 H 212.569 1.98601 2.59278 0
M  V30 2243 H 211.228 3.49993 1.0909 0
M  V30 2244 H 210.876 3.54695 3.56651 0
M  V30 2245 H 210.576 5.14495 2.83847 0
M  V30 2246 H 212.1 4.8418 3.72024 0
M  V30 2247 H 213.514 5.51891 1.55208 0
M  V30 2248 H 211.911 5.93615 0.87985 0
M  V30 2249 H 212.981 4.84894 -0.0235286 0
M  V30 2250 N 214.325 -0.140222 1.56975 0
M  V30 2251 C 215.736 -0.699596 1.73097 0
M  V30 2252 C 216.087 -1.8134 0.749022 0
M  V30 2253 O 215.212 -2.16241 -0.0828503 0
M  V30 2254 C 215.807 -1.27582 3.1386 0
M  V30 2255 C 214.366 -1.78169 3.31561 0
M  V30 2256 C 213.513 -0.672855 2.69013 0
M  V30 2257 H 216.464 0.0855115 1.58469 0
M  V30 2258 H 216.485 -2.14561 3.14235 0
M  V30 2259 H 215.997 -0.464955 3.85305 0
M  V30 2260 H 214.098 -2.61801 2.65124 0
M  V30 2261 H 214.211 -1.90574 4.39566 0
M  V30 2262 H 212.575 -1.10118 2.29665 0
M  V30 2263 H 213.358 0.126679 3.43066 0
M  V30 2264 N 215.803 -1.52179 -0.40978 0
M  V30 2265 C 216.713 -1.78364 -1.52392 0
M  V30 2266 C 217.729 -0.669183 -1.60617 0
M  V30 2267 O 218.905 -0.954518 -1.77344 0
M  V30 2268 C 215.97 -1.92822 -2.88133 0
M  V30 2269 C 215.031 -3.16725 -2.898 0
M  V30 2270 C 214.264 -3.30483 -4.19067 0
M  V30 2271 O 214.487 -2.49522 -5.12928 0
M  V30 2272 O 213.421 -4.2363 -4.27576 0
M  V30 2273 H 217.247 -2.72931 -1.33201 0
M  V30 2274 H 214.832 -1.37016 -0.59557 0
M  V30 2275 H 216.714 -2.04157 -3.68643 0
M  V30 2276 H 215.389 -1.01444 -3.07393 0
M  V30 2277 H 214.296 -3.10848 -2.08146 0
M  V30 2278 H 215.629 -4.07881 -2.75489 0
M  V30 2279 N 217.281 0.66697 -1.42791 0
M  V30 2280 C 218.191 1.80962 -1.49299 0
M  V30 2281 C 219.207 1.69775 -0.381108 0
M  V30 2282 O 220.383 1.91188 -0.633188 0
M  V30 2283 C 217.448 3.17156 -1.40045 0
M  V30 2284 C 216.509 3.40242 -2.6179 0
M  V30 2285 C 215.742 4.69939 -2.52969 0
M  V30 2286 O 215.965 5.48372 -1.56985 0
M  V30 2287 O 214.899 4.94441 -3.43237 0
M  V30 2288 H 218.725 1.78427 -2.45759 0
M  V30 2289 H 216.31 0.823713 -1.24641 0
M  V30 2290 H 218.192 3.98413 -1.37276 0
M  V30 2291 H 216.867 3.20312 -0.467138 0
M  V30 2292 H 215.774 2.58802 -2.70134 0
M  V30 2293 H 217.107 3.41923 -3.54047 0
M  V30 2294 N 218.759 1.29093 0.90403 0
M  V30 2295 C 220.007 1.16583 1.65085 0
M  V30 2296 C 220.328 -0.283933 1.92922 0
M  V30 2297 O 219.598 -1.19509 1.55224 0
M  V30 2298 H 218.178 0.428467 0.611903 0
M  V30 2299 H 220.84 1.61959 1.08422 0
M  V30 2300 H 219.936 1.71266 2.6091 0
M  V30 2301 N 220.237 -1.11381 1.11499 0
M  V30 2302 C 221.484 -1.83132 0.864231 0
M  V30 2303 C 221.812 -1.84683 -0.610114 0
M  V30 2304 O 221.067 -1.29589 -1.46646 0
M  V30 2305 C 221.366 -3.30026 1.37177 0
M  V30 2306 C 221.032 -3.48634 2.85946 0
M  V30 2307 C 219.694 -3.53421 3.26569 0
M  V30 2308 C 222.046 -3.54837 3.81759 0
M  V30 2309 C 219.374 -3.61967 4.61733 0
M  V30 2310 C 221.726 -3.64915 5.1674 0
M  V30 2311 C 220.39 -3.67962 5.5692 0
M  V30 2312 H 219.66 -0.670127 0.316245 0
M  V30 2313 H 222.307 -1.31354 1.3935 0
M  V30 2314 H 220.612 -3.84304 0.762753 0
M  V30 2315 H 222.309 -3.84034 1.15408 0
M  V30 2316 H 218.899 -3.45579 2.53521 0
M  V30 2317 H 223.083 -3.50399 3.51474 0
M  V30 2318 H 218.339 -3.62603 4.92269 0
M  V30 2319 H 222.513 -3.68658 5.90816 0
M  V30 2320 H 220.14 -3.74336 6.61647 0
M  V30 2321 N 221.715 -0.905404 -1.28997 0
M  V30 2322 C 222.961 -0.535039 -1.95615 0
M  V30 2323 C 223.294 0.917404 -1.71165 0
M  V30 2324 O 222.569 1.65123 -1.02785 0
M  V30 2325 C 222.852 -0.834918 -3.50287 0
M  V30 2326 C 222.705 -2.33948 -3.84172 0
M  V30 2327 C 224.024 -0.325318 -4.38896 0
M  V30 2328 H 221.143 -0.195861 -0.710498 0
M  V30 2329 H 223.785 -1.13313 -1.52513 0
M  V30 2330 H 221.935 -0.325904 -3.87131 0
M  V30 2331 H 223.607 -2.91847 -3.57243 0
M  V30 2332 H 221.85 -2.79789 -3.31513 0
M  V30 2333 H 222.521 -2.49987 -4.92149 0
M  V30 2334 H 224.997 -0.761256 -4.09077 0
M  V30 2335 H 223.873 -0.564295 -5.45992 0
M  V30 2336 H 224.134 0.774144 -4.35269 0
M  V30 2337 N 223.193 1.4272 -0.668489 0
M  V30 2338 C 224.604 1.84793 -0.266151 0
M  V30 2339 C 224.955 1.55959 1.19043 0
M  V30 2340 O 224.08 1.01622 1.91055 0
M  V30 2341 C 224.675 3.35436 -0.476271 0
M  V30 2342 C 223.234 3.76182 -0.128113 0
M  V30 2343 C 222.381 2.66344 -0.771777 0
M  V30 2344 H 225.332 1.32656 -0.871098 0
M  V30 2345 H 225.353 3.79515 0.273561 0
M  V30 2346 H 224.865 3.5639 -1.53647 0
M  V30 2347 H 222.966 3.60836 0.928891 0
M  V30 2348 H 223.079 4.75766 -0.564231 0
M  V30 2349 H 221.443 2.53885 -0.203652 0
M  V30 2350 H 222.226 2.90123 -1.83531 0
M  V30 2351 N 224.671 0.411399 1.52136 0
M  V30 2352 C 225.948 -0.222308 1.94333 0
M  V30 2353 C 226.328 -1.6242 1.34844 0
M  V30 2354 O 225.676 -2.22384 0.525145 0
M  V30 2355 C 225.886 -0.226345 3.48265 0
M  V30 2356 C 227.234 -0.444592 4.22266 0
M  V30 2357 O 228.258 -0.305602 3.54887 0
M  V30 2358 O 227.117 -0.718749 5.41753 0
M  V30 2359 H 224.211 -0.143907 0.814383 0
M  V30 2360 H 226.757 0.467506 1.63133 0
M  V30 2361 H 225.529 0.75475 3.83952 0
M  V30 2362 H 225.152 -0.960163 3.85832 0
M  V30 2363 N 226.149 -1.5696 0.141893 0
M  V30 2364 C 227.56 -1.82797 -0.379776 0
M  V30 2365 C 227.911 -1.06033 -1.6508 0
M  V30 2366 O 227.036 -0.304011 -2.14254 0
M  V30 2367 C 227.631 -3.31578 -0.695802 0
M  V30 2368 C 226.19 -3.58014 -1.16201 0
M  V30 2369 C 225.337 -2.76699 -0.182455 0
M  V30 2370 H 228.288 -1.54406 0.366675 0
M  V30 2371 H 228.309 -3.47454 -1.55099 0
M  V30 2372 H 227.821 -3.87421 0.229449 0
M  V30 2373 H 225.922 -3.07553 -2.10338 0
M  V30 2374 H 226.035 -4.66501 -1.09151 0
M  V30 2375 H 224.399 -2.45618 -0.674072 0
M  V30 2376 H 225.182 -3.35311 0.736297 0
M  V30 2377 N 227.627 0.131896 -1.57047 0
M  V30 2378 C 228.537 1.1815 -2.02676 0
M  V30 2379 C 229.553 1.46113 -0.944824 0
M  V30 2380 O 230.729 1.57485 -1.25541 0
M  V30 2381 C 227.794 2.49139 -2.41103 0
M  V30 2382 C 226.855 2.28688 -3.63318 0
M  V30 2383 C 226.088 3.53431 -3.99903 0
M  V30 2384 O 226.311 4.60223 -3.36973 0
M  V30 2385 O 225.245 3.45198 -4.93074 0
M  V30 2386 H 229.071 0.824069 -2.92306 0
M  V30 2387 H 226.656 0.341745 -1.45439 0
M  V30 2388 H 228.538 3.26338 -2.66611 0
M  V30 2389 H 227.213 2.84382 -1.54624 0
M  V30 2390 H 226.12 1.4939 -3.42977 0
M  V30 2391 H 227.453 1.98355 -4.50462 0
M  V30 2392 N 229.106 1.52395 0.401703 0
M  V30 2393 C 230.522 1.41363 0.740864 0
M  V30 2394 C 230.722 0.523982 1.94568 0
M  V30 2395 O 229.778 -0.00741204 2.52499 0
M  V30 2396 C 231.091 2.84011 0.987847 0
M  V30 2397 C 232.639 2.93404 1.09011 0
M  V30 2398 C 233.114 4.37036 1.3698 0
M  V30 2399 N 234.605 4.40304 1.43829 0
M  V30 2400 C 235.34 5.48508 1.67112 0
M  V30 2401 N 234.836 6.66819 1.87949 0
M  V30 2402 N 236.629 5.36034 1.69187 0
M  V30 2403 H 228.78 2.08765 -0.391262 0
M  V30 2404 H 231.043 0.941265 -0.112798 0
M  V30 2405 H 230.749 3.51265 0.174835 0
M  V30 2406 H 230.623 3.25502 1.906 0
M  V30 2407 H 233.01 2.26325 1.8937 0
M  V30 2408 H 233.091 2.55359 0.15015 0
M  V30 2409 H 232.735 5.04676 0.571353 0
M  V30 2410 H 232.665 4.72623 2.3224 0
M  V30 2411 H 235.156 3.55024 1.29486 0
M  V30 2412 H 235.469 7.45063 2.05185 0
M  V30 2413 H 233.814 6.6987 1.85199 0
M  V30 2414 H 237.005 4.42579 1.52451 0
M  V30 2415 H 237.178 6.20434 1.86993 0
M  V30 2416 N 230.584 -0.659388 1.43143 0
M  V30 2417 C 231.83 -1.42145 1.44647 0
M  V30 2418 C 232.163 -1.9408 0.0681907 0
M  V30 2419 O 231.438 -1.71899 -0.910007 0
M  V30 2420 C 231.721 -2.60735 2.48373 0
M  V30 2421 C 231.574 -2.14332 3.95451 0
M  V30 2422 C 232.893 -3.62951 2.48906 0
M  V30 2423 H 230.012 -0.51552 0.526696 0
M  V30 2424 H 232.654 -0.748069 1.74654 0
M  V30 2425 H 230.804 -3.18184 2.22916 0
M  V30 2426 H 232.476 -1.61932 4.31944 0
M  V30 2427 H 230.719 -1.4576 4.08578 0
M  V30 2428 H 231.39 -2.99583 4.63631 0
M  V30 2429 H 233.866 -3.1525 2.71582 0
M  V30 2430 H 232.742 -4.43487 3.23435 0
M  V30 2431 H 233.003 -4.15126 1.52061 0
M  V30 2432 N 232.062 -1.29571 -0.897171 0
M  V30 2433 C 233.478 -1.07637 -1.17841 0
M  V30 2434 C 233.678 0.170713 -2.00776 0
M  V30 2435 O 232.734 0.867768 -2.3712 0
M  V30 2436 C 234.047 -2.3332 -1.8969 0
M  V30 2437 C 235.595 -2.38664 -2.02505 0
M  V30 2438 C 236.07 -3.64157 -2.77765 0
M  V30 2439 N 237.561 -3.64894 -2.85318 0
M  V30 2440 C 238.296 -4.58679 -3.44094 0
M  V30 2441 N 237.792 -5.62799 -4.04017 0
M  V30 2442 N 239.585 -4.46245 -3.41793 0
M  V30 2443 H 231.736 -2.09598 -0.343883 0
M  V30 2444 H 233.999 -0.923333 -0.214848 0
M  V30 2445 H 233.705 -3.24262 -1.36187 0
M  V30 2446 H 233.579 -2.41025 -2.9015 0
M  V30 2447 H 235.966 -1.48208 -2.55183 0
M  V30 2448 H 236.047 -2.34943 -1.01171 0
M  V30 2449 H 235.691 -4.54965 -2.25763 0
M  V30 2450 H 235.621 -3.65137 -3.7945 0
M  V30 2451 H 238.112 -2.89613 -2.42761 0
M  V30 2452 H 238.425 -6.3048 -4.46895 0
M  V30 2453 H 236.77 -5.66605 -4.02472 0
M  V30 2454 H 239.961 -3.64094 -2.94199 0
M  V30 2455 H 240.134 -5.19518 -3.87304 0
M  V30 2456 N 233.54 1.10788 -1.12088 0
M  V30 2457 C 234.956 1.34691 -0.856186 0
M  V30 2458 C 235.156 1.94791 0.515615 0
M  V30 2459 O 234.212 2.18524 1.26505 0
M  V30 2460 C 235.525 2.27208 -1.9697 0
M  V30 2461 C 237.073 2.40755 -2.00016 0
M  V30 2462 C 237.548 3.36598 -3.1059 0
M  V30 2463 N 239.039 3.44164 -3.10008 0
M  V30 2464 C 239.774 4.18284 -3.92206 0
M  V30 2465 N 239.27 4.95322 -4.84384 0
M  V30 2466 N 241.063 4.13865 -3.80357 0
M  V30 2467 H 233.214 0.70144 -2.00483 0
M  V30 2468 H 235.477 0.371405 -0.872217 0
M  V30 2469 H 235.183 1.90251 -2.958 0
M  V30 2470 H 235.057 3.27485 -1.87172 0
M  V30 2471 H 237.444 2.76982 -1.01808 0
M  V30 2472 H 237.525 1.40305 -2.13888 0
M  V30 2473 H 237.169 3.01096 -4.09028 0
M  V30 2474 H 237.099 4.36918 -2.93956 0
M  V30 2475 H 239.59 2.8922 -2.43228 0
M  V30 2476 H 239.903 5.49267 -5.43623 0
M  V30 2477 H 238.248 4.94459 -4.884 0
M  V30 2478 H 241.439 3.52773 -3.07683 0
M  V30 2479 H 241.612 4.71372 -4.44649 0
M  V30 2480 N 235.018 0.912232 1.28515 0
M  V30 2481 C 235.981 0.404223 2.25607 0
M  V30 2482 C 236.981 -0.468602 1.53821 0
M  V30 2483 O 238.171 -0.271873 1.72065 0
M  V30 2484 C 235.303 -0.420653 3.38295 0
M  V30 2485 H 236.496 1.26188 2.7206 0
M  V30 2486 H 234.049 0.691495 1.40171 0
M  V30 2487 H 234.784 -1.29777 2.97201 0
M  V30 2488 H 234.569 0.204935 3.91564 0
M  V30 2489 H 236.059 -0.766971 4.10496 0
M  V30 2490 N 236.496 -1.42363 0.676048 0
M  V30 2491 C 237.745 -2.00745 0.196037 0
M  V30 2492 C 238.058 -1.54083 -1.20489 0
M  V30 2493 O 239.264 -2.04891 -1.78134 0
M  V30 2494 C 237.72 -3.58651 0.299616 0
M  V30 2495 C 237.328 -4.143 1.70468 0
M  V30 2496 C 239.072 -4.24326 -0.121619 0
M  V30 2497 C 236.979 -5.64574 1.76096 0
M  V30 2498 H 235.909 -0.750787 0.0695301 0
M  V30 2499 H 238.56 -1.63072 0.841412 0
M  V30 2500 H 236.942 -3.93833 -0.413673 0
M  V30 2501 H 238.116 -3.90575 2.44515 0
M  V30 2502 H 236.431 -3.61081 2.07387 0
M  V30 2503 H 239.028 -5.34607 -0.0997362 0
M  V30 2504 H 239.371 -3.99897 -1.15708 0
M  V30 2505 H 239.904 -3.94108 0.540706 0
M  V30 2506 H 236.643 -5.93804 2.77628 0
M  V30 2507 H 236.163 -5.90286 1.06406 0
M  V30 2508 H 237.842 -6.29013 1.51496 0
M  V30 2509 N 237.974 -0.419461 -1.51915 0
M  V30 2510 C 239.202 0.152136 -2.0634 0
M  V30 2511 C 239.617 1.37988 -1.28859 0
M  V30 2512 O 238.974 1.79243 -0.343232 0
M  V30 2513 C 239.025 0.492266 -3.58133 0
M  V30 2514 O 238.746 -0.686736 -4.32684 0
M  V30 2515 C 240.247 1.11648 -4.2901 0
M  V30 2516 H 237.467 0.0158325 -0.670813 0
M  V30 2517 H 240.011 -0.593394 -1.95702 0
M  V30 2518 H 238.166 1.18769 -3.68745 0
M  V30 2519 H 238.58 -0.400341 -5.2297 0
M  V30 2520 H 240.054 1.3046 -5.36362 0
M  V30 2521 H 240.531 2.09251 -3.86148 0
M  V30 2522 H 241.137 0.460958 -4.22795 0
M  V30 2523 N 239.452 1.56882 -0.150215 0
M  V30 2524 C 240.863 1.82995 0.370076 0
M  V30 2525 C 241.214 1.06907 1.64515 0
M  V30 2526 O 240.339 0.315369 2.1409 0
M  V30 2527 C 240.934 3.31942 0.678208 0
M  V30 2528 C 239.493 3.58625 1.14301 0
M  V30 2529 C 238.64 2.76792 0.167778 0
M  V30 2530 H 241.591 1.54209 -0.374858 0
M  V30 2531 H 241.612 3.48272 1.53254 0
M  V30 2532 H 241.124 3.87294 -0.249991 0
M  V30 2533 H 239.225 3.08664 2.08704 0
M  V30 2534 H 239.338 4.67073 1.06676 0
M  V30 2535 H 237.702 2.45972 0.661037 0
M  V30 2536 H 238.485 3.34916 -0.754069 0
M  V30 2537 N 240.93 -0.123565 1.57115 0
M  V30 2538 C 242.346 -0.476961 1.52306 0
M  V30 2539 C 242.546 -1.82109 0.86248 0
M  V30 2540 O 241.602 -2.48586 0.442884 0
M  V30 2541 C 242.915 -0.465661 2.97073 0
M  V30 2542 C 244.463 -0.549534 3.08138 0
M  V30 2543 C 244.938 -0.568669 4.54456 0
M  V30 2544 N 246.429 -0.630237 4.58892 0
M  V30 2545 C 247.164 -0.666415 5.69514 0
M  V30 2546 N 246.66 -0.660514 6.89644 0
M  V30 2547 N 248.453 -0.709077 5.5761 0
M  V30 2548 H 240.604 0.757198 1.98445 0
M  V30 2549 H 242.867 0.278808 0.906074 0
M  V30 2550 H 242.573 0.454232 3.48754 0
M  V30 2551 H 242.447 -1.29513 3.54269 0
M  V30 2552 H 244.834 -1.45985 2.56461 0
M  V30 2553 H 244.915 0.307532 2.53945 0
M  V30 2554 H 244.559 0.337581 5.06777 0
M  V30 2555 H 244.489 -1.44256 5.06456 0
M  V30 2556 H 246.98 -0.641146 3.72421 0
M  V30 2557 H 247.293 -0.690616 7.69708 0
M  V30 2558 H 245.638 -0.628012 6.92157 0
M  V30 2559 H 248.829 -0.711019 4.62668 0
M  V30 2560 H 249.002 -0.733804 6.43832 0
M  V30 2561 N 242.408 -1.52605 -0.393616 0
M  V30 2562 C 243.636 -1.71294 -1.16043 0
M  V30 2563 C 244.051 -0.429259 -1.83855 0
M  V30 2564 O 243.408 0.595921 -1.72496 0
M  V30 2565 C 243.459 -2.8593 -2.21193 0
M  V30 2566 O 243.18 -4.09329 -1.56146 0
M  V30 2567 C 244.681 -3.16259 -3.10636 0
M  V30 2568 H 241.901 -0.573641 -0.348104 0
M  V30 2569 H 244.445 -1.99234 -0.461092 0
M  V30 2570 H 242.6 -2.60465 -2.86769 0
M  V30 2571 H 243.014 -4.73323 -2.25978 0
M  V30 2572 H 244.488 -3.99946 -3.80456 0
M  V30 2573 H 244.965 -2.3045 -3.73884 0
M  V30 2574 H 245.571 -3.43547 -2.50711 0
M  V30 2575 N 243.887 0.651787 -1.4349 0
M  V30 2576 C 244.834 1.76462 -1.4876 0
M  V30 2577 C 245.804 1.62641 -0.337189 0
M  V30 2578 O 246.989 1.82864 -0.544544 0
M  V30 2579 C 244.129 3.14623 -1.41796 0
M  V30 2580 C 243.242 3.39568 -2.67053 0
M  V30 2581 C 242.377 4.67585 -2.52068 0
M  V30 2582 C 241.416 4.85639 -3.72587 0
M  V30 2583 N 240.553 6.04915 -3.56402 0
M  V30 2584 H 245.393 1.71293 -2.43849 0
M  V30 2585 H 242.93 0.835889 -1.21043 0
M  V30 2586 H 244.888 3.94496 -1.35753 0
M  V30 2587 H 243.518 3.18859 -0.50288 0
M  V30 2588 H 242.57 2.53783 -2.8337 0
M  V30 2589 H 243.882 3.48795 -3.56572 0
M  V30 2590 H 243.036 5.55586 -2.4374 0
M  V30 2591 H 241.775 4.60681 -1.60075 0
M  V30 2592 H 240.78 3.96073 -3.81321 0
M  V30 2593 H 242.005 4.94372 -4.65589 0
M  V30 2594 H 239.951 5.9914 -2.67146 0
M  V30 2595 H 239.868 6.15106 -4.39524 0
M  V30 2596 H 241.136 6.95533 -3.51929 0
M  V30 2597 N 245.365 1.30045 0.890287 0
M  V30 2598 C 246.328 1.15963 1.977 0
M  V30 2599 C 247.328 0.0923777 1.60534 0
M  V30 2600 O 248.518 0.340071 1.70848 0
M  V30 2601 C 245.65 0.775451 3.31963 0
M  V30 2602 H 246.843 2.12502 2.11619 0
M  V30 2603 H 244.396 1.13366 1.07601 0
M  V30 2604 H 245.131 -0.189671 3.23745 0
M  V30 2605 H 244.916 1.54668 3.60306 0
M  V30 2606 H 246.406 0.700251 4.11687 0
M  V30 2607 N 246.843 -1.10192 1.12674 0
M  V30 2608 C 247.773 -2.18652 0.819362 0
M  V30 2609 C 248.754 -1.68698 -0.217915 0
M  V30 2610 O 249.939 -1.94041 -0.0785581 0
M  V30 2611 C 247.069 -3.46202 0.27594 0
M  V30 2612 C 246.023 -4.09444 1.24656 0
M  V30 2613 C 245.349 -5.31725 0.563258 0
M  V30 2614 C 246.649 -4.52863 2.60217 0
M  V30 2615 H 248.343 -2.44622 1.72628 0
M  V30 2616 H 245.889 -1.17571 0.831451 0
M  V30 2617 H 247.842 -4.21372 0.0486149 0
M  V30 2618 H 246.566 -3.1973 -0.666331 0
M  V30 2619 H 245.225 -3.36284 1.45974 0
M  V30 2620 H 244.873 -5.0153 -0.384235 0
M  V30 2621 H 244.573 -5.74991 1.21075 0
M  V30 2622 H 246.097 -6.09624 0.34503 0
M  V30 2623 H 247.511 -5.19294 2.42913 0
M  V30 2624 H 245.908 -5.06986 3.21068 0
M  V30 2625 H 246.978 -3.65656 3.18471 0
M  V30 2626 N 248.321 -0.919034 -1.28029 0
M  V30 2627 C 249.567 -0.555757 -1.95036 0
M  V30 2628 C 249.9 0.899198 -1.72128 0
M  V30 2629 O 249.175 1.64023 -1.04531 0
M  V30 2630 C 249.458 -0.872024 -3.49382 0
M  V30 2631 C 249.311 -2.3801 -3.81669 0
M  V30 2632 C 250.63 -0.37185 -4.38526 0
M  V30 2633 H 247.749 -0.203386 -0.708381 0
M  V30 2634 H 250.391 -1.14924 -1.51303 0
M  V30 2635 H 248.541 -0.366946 -3.86763 0
M  V30 2636 H 250.213 -2.9562 -3.54128 0
M  V30 2637 H 248.456 -2.83289 -3.28526 0
M  V30 2638 H 249.127 -2.55192 -4.8947 0
M  V30 2639 H 251.603 -0.804602 -4.08247 0
M  V30 2640 H 250.479 -0.622173 -5.45362 0
M  V30 2641 H 250.74 0.727934 -4.36066 0
M  V30 2642 N 249.799 1.42003 -0.683588 0
M  V30 2643 C 251.045 2.01712 -0.209825 0
M  V30 2644 C 251.378 1.53968 1.18353 0
M  V30 2645 O 250.653 0.745661 1.79639 0
M  V30 2646 C 250.936 3.59202 -0.254197 0
M  V30 2647 C 250.789 4.17102 -1.68363 0
M  V30 2648 C 252.108 4.38344 0.392709 0
M  V30 2649 H 249.227 0.732891 -0.0777189 0
M  V30 2650 H 251.869 1.68909 -0.87004 0
M  V30 2651 H 250.019 3.87278 0.307954 0
M  V30 2652 H 251.691 3.99946 -2.29871 0
M  V30 2653 H 249.934 3.72597 -2.22157 0
M  V30 2654 H 250.605 5.26249 -1.6663 0
M  V30 2655 H 253.081 4.16011 -0.0859162 0
M  V30 2656 H 251.957 5.47901 0.331063 0
M  V30 2657 H 252.218 4.16887 1.47164 0
M  V30 2658 N 251.277 0.427512 1.51691 0
M  V30 2659 C 252.225 -0.403359 2.29076 0
M  V30 2660 C 253.219 -1.02962 1.34518 0
M  V30 2661 O 254.425 -0.965715 1.51901 0
M  V30 2662 H 250.8 -0.148879 0.737115 0
M  V30 2663 H 252.771 0.270295 2.97173 0
M  V30 2664 C 251.52 -1.49763 3.13794 0
M  V30 2665 H 250.843 -1.02508 3.86435 0
M  V30 2666 H 252.283 -2.05244 3.71014 0
M  V30 2667 C 250.742 -2.47536 2.28533 0
M  V30 2668 O 251.272 -3.51848 1.93819 0
M  V30 2669 N 249.478 -2.18187 1.91945 0
M  V30 2670 H 249.025 -1.33389 2.20375 0
M  V30 2671 H 248.983 -2.83848 1.35195 0
M  V30 2672 N 252.755 -1.56801 0.158532 0
M  V30 2673 C 253.98 -2.01295 -0.499516 0
M  V30 2674 C 254.405 -1.03799 -1.56867 0
M  V30 2675 O 253.763 -0.0155162 -1.81293 0
M  V30 2676 C 253.811 -3.44469 -1.06647 0
M  V30 2677 O 252.915 -3.50012 -2.18095 0
M  V30 2678 H 252.256 -0.652884 -0.12099 0
M  V30 2679 H 254.786 -2.02958 0.258661 0
M  V30 2680 H 254.796 -3.8351 -1.39227 0
M  V30 2681 H 253.471 -4.14932 -0.283581 0
M  V30 2682 H 252.048 -3.22822 -1.86656 0
M  V30 2683 N 254.233 0.115231 -1.57178 0
M  V30 2684 C 255.644 0.67197 -1.74188 0
M  V30 2685 C 255.995 1.80125 -0.777777 0
M  V30 2686 O 255.12 2.16346 0.0484376 0
M  V30 2687 C 255.715 1.22573 -3.1585 0
M  V30 2688 C 254.274 1.72872 -3.34353 0
M  V30 2689 C 253.421 0.629972 -2.70049 0
M  V30 2690 H 256.372 -0.110712 -1.58313 0
M  V30 2691 H 256.393 2.09535 -3.17609 0
M  V30 2692 H 255.905 0.403598 -3.85996 0
M  V30 2693 H 254.006 2.5755 -2.69256 0
M  V30 2694 H 254.119 1.83557 -4.42542 0
M  V30 2695 H 252.483 1.0645 -2.31388 0
M  V30 2696 H 253.266 -0.181241 -3.42821 0
M  V30 2697 N 255.711 1.52812 0.385517 0
M  V30 2698 C 256.659 1.78482 1.49155 0
M  V30 2699 C 257.653 0.652914 1.56312 0
M  V30 2700 O 258.859 0.835464 1.59436 0
M  V30 2701 H 255.234 0.5648 0.496493 0
M  V30 2702 H 257.205 2.71095 1.24699 0
M  V30 2703 C 255.954 1.97378 2.86247 0
M  V30 2704 H 255.277 2.83907 2.81491 0
M  V30 2705 H 256.717 2.19327 3.62866 0
M  V30 2706 C 255.176 0.74728 3.28508 0
M  V30 2707 O 255.706 -0.0736232 4.01633 0
M  V30 2708 N 253.912 0.576396 2.84826 0
M  V30 2709 H 253.459 1.24555 2.25486 0
M  V30 2710 H 253.417 -0.24288 3.1346 0
M  V30 2711 N 257.189 -0.644168 1.43834 0
M  V30 2712 C 258.137 -1.77793 1.49974 0
M  V30 2713 C 259.131 -1.65253 0.372536 0
M  V30 2714 O 260.337 -1.7149 0.546924 0
M  V30 2715 H 256.712 -0.58675 0.47035 0
M  V30 2716 H 258.683 -1.69736 2.45423 0
M  V30 2717 C 257.432 -3.16087 1.4486 0
M  V30 2718 H 256.755 -3.26378 2.30905 0
M  V30 2719 H 258.195 -3.95349 1.53217 0
M  V30 2720 C 256.654 -3.36484 0.167463 0
M  V30 2721 O 257.184 -3.94298 -0.767609 0
M  V30 2722 N 255.39 -2.90504 0.0747556 0
M  V30 2723 H 254.937 -2.4364 0.836507 0
M  V30 2724 H 254.895 -3.04527 -0.781714 0
M  V30 2725 N 258.668 -1.30515 -0.883378 0
M  V30 2726 C 260.079 -1.17509 -1.45081 0
M  V30 2727 C 260.43 0.223605 -1.94922 0
M  V30 2728 O 259.555 1.12041 -1.85137 0
M  V30 2729 C 260.15 -2.12715 -2.63701 0
M  V30 2730 C 258.709 -2.03682 -3.16529 0
M  V30 2731 C 257.856 -2.02706 -1.89224 0
M  V30 2732 H 260.807 -1.42762 -0.693165 0
M  V30 2733 H 260.828 -1.70891 -3.39965 0
M  V30 2734 H 260.34 -3.14505 -2.27395 0
M  V30 2735 H 258.441 -1.05039 -3.57488 0
M  V30 2736 H 258.554 -2.92146 -3.7972 0
M  V30 2737 H 256.918 -1.4753 -2.07622 0
M  V30 2738 H 257.701 -3.06229 -1.55174 0
M  V30 2739 N 260.146 1.09593 -1.13257 0
M  V30 2740 C 261.374 1.855 -0.916378 0
M  V30 2741 C 261.789 1.81069 0.534738 0
M  V30 2742 O 261.146 1.20562 1.37007 0
M  V30 2743 C 261.197 3.33546 -1.39388 0
M  V30 2744 O 260.918 3.37927 -2.78813 0
M  V30 2745 C 262.419 4.26299 -1.21588 0
M  V30 2746 H 259.639 0.585991 -0.326887 0
M  V30 2747 H 262.183 1.38488 -1.5047 0
M  V30 2748 H 260.338 3.77992 -0.848597 0
M  V30 2749 H 260.752 4.30254 -2.9997 0
M  V30 2750 H 262.226 5.28341 -1.59876 0
M  V30 2751 H 262.703 4.38918 -0.157376 0
M  V30 2752 H 263.309 3.87668 -1.7491 0
M  V30 2753 N 261.624 0.925811 1.2754 0
M  V30 2754 C 262.872 0.564138 1.94067 0
M  V30 2755 C 263.193 -0.897188 1.73134 0
M  V30 2756 O 262.463 -1.63573 1.07799 0
M  V30 2757 H 261.043 0.205645 0.718136 0
M  V30 2758 H 263.705 1.1778 1.55287 0
M  V30 2759 H 262.801 0.76881 3.02483 0
M  V30 2760 N 263.102 -1.41638 0.69111 0
M  V30 2761 C 264.065 -2.29178 0.0319786 0
M  V30 2762 C 265.065 -1.44153 -0.712496 0
M  V30 2763 O 266.255 -1.65354 -0.548053 0
M  V30 2764 C 263.387 -3.26952 -0.965161 0
M  V30 2765 H 264.58 -2.88959 0.802681 0
M  V30 2766 H 262.133 -1.4955 0.454356 0
M  V30 2767 H 262.868 -2.72142 -1.76378 0
M  V30 2768 H 262.653 -3.89685 -0.434522 0
M  V30 2769 H 264.143 -3.92561 -1.42428 0
M  V30 2770 N 264.58 -0.43555 -1.51462 0
M  V30 2771 C 265.826 0.131709 -2.02372 0
M  V30 2772 C 266.159 1.42516 -1.3192 0
M  V30 2773 O 265.434 1.89606 -0.433573 0
M  V30 2774 C 265.717 0.352301 -3.58373 0
M  V30 2775 C 265.57 -0.959676 -4.39443 0
M  V30 2776 C 266.889 1.12286 -4.25535 0
M  V30 2777 H 264.008 0.0463936 -0.735538 0
M  V30 2778 H 266.65 -0.574197 -1.81116 0
M  V30 2779 H 264.8 0.9536 -3.76615 0
M  V30 2780 H 266.472 -1.59482 -4.32855 0
M  V30 2781 H 264.715 -1.56468 -4.04599 0
M  V30 2782 H 265.386 -0.759394 -5.46752 0
M  V30 2783 H 267.862 0.613545 -4.11552 0
M  V30 2784 H 266.738 1.24598 -5.34571 0
M  V30 2785 H 266.999 2.15048 -3.86273 0
M  V30 2786 N 266.058 1.56714 -0.166846 0
M  V30 2787 C 267.288 2.00828 0.48494 0
M  V30 2788 C 267.696 1.04612 1.57648 0
M  V30 2789 O 267.039 0.0383201 1.8366 0
M  V30 2790 C 267.101 3.4137 1.12723 0
M  V30 2791 C 266.765 4.56654 0.177886 0
M  V30 2792 C 267.762 5.16402 -0.60207 0
M  V30 2793 C 265.447 5.02244 0.0750139 0
M  V30 2794 C 267.441 6.20167 -1.47215 0
M  V30 2795 C 265.128 6.05859 -0.798649 0
M  V30 2796 C 266.126 6.64691 -1.57082 0
M  V30 2797 O 265.814 7.66297 -2.42989 0
M  V30 2798 H 265.546 0.663587 0.128953 0
M  V30 2799 H 268.1 2.03692 -0.264365 0
M  V30 2800 H 266.33 3.35406 1.92457 0
M  V30 2801 H 268.019 3.69466 1.68076 0
M  V30 2802 H 268.785 4.82065 -0.53274 0
M  V30 2803 H 264.664 4.56167 0.665812 0
M  V30 2804 H 268.208 6.66016 -2.07531 0
M  V30 2805 H 264.105 6.39621 -0.869199 0
M  V30 2806 H 264.873 7.83601 -2.36455 0
M  V30 2807 N 267.536 -0.106894 1.57237 0
M  V30 2808 C 268.947 -0.662723 1.74542 0
M  V30 2809 C 269.298 -1.7971 0.787319 0
M  V30 2810 O 268.423 -2.16368 -0.0369636 0
M  V30 2811 C 269.018 -1.20896 3.16496 0
M  V30 2812 C 267.577 -1.71096 3.35266 0
M  V30 2813 C 266.724 -0.615642 2.7038 0
M  V30 2814 H 269.675 0.119106 1.58252 0
M  V30 2815 H 269.696 -2.07847 3.18716 0
M  V30 2816 H 269.208 -0.383122 3.86204 0
M  V30 2817 H 267.309 -2.56119 2.70618 0
M  V30 2818 H 267.422 -1.81208 4.43509 0
M  V30 2819 H 265.786 -1.05222 2.31949 0
M  V30 2820 H 266.569 0.199419 3.4272 0
M  V30 2821 N 269.014 -1.53014 -0.377408 0
M  V30 2822 C 269.961 -1.78616 -1.46168 0
M  V30 2823 C 270.931 -0.629917 -1.53692 0
M  V30 2824 O 272.116 -0.870861 -1.69766 0
M  V30 2825 C 269.256 -1.97123 -2.8326 0
M  V30 2826 C 268.369 -3.24831 -2.84796 0
M  V30 2827 C 267.504 -3.33591 -4.13389 0
M  V30 2828 C 266.543 -4.55377 -4.09021 0
M  V30 2829 N 265.68 -4.61355 -5.29241 0
M  V30 2830 H 270.52 -2.71142 -1.23637 0
M  V30 2831 H 268.057 -1.34326 -0.599577 0
M  V30 2832 H 270.015 -2.05839 -3.62886 0
M  V30 2833 H 268.645 -1.07946 -3.04216 0
M  V30 2834 H 267.697 -3.25128 -1.97474 0
M  V30 2835 H 269.009 -4.14523 -2.77439 0
M  V30 2836 H 268.163 -3.41554 -5.01424 0
M  V30 2837 H 266.902 -2.41894 -4.23484 0
M  V30 2838 H 265.907 -4.47527 -3.19373 0
M  V30 2839 H 267.132 -5.48402 -4.00539 0
M  V30 2840 H 265.078 -3.72554 -5.39944 0
M  V30 2841 H 264.995 -5.44935 -5.24006 0
M  V30 2842 H 266.263 -4.73586 -6.19141 0
M  V30 2843 N 270.492 0.636531 -1.44174 0
M  V30 2844 C 271.402 1.77754 -1.53103 0
M  V30 2845 C 272.418 1.68928 -0.417034 0
M  V30 2846 O 273.594 1.89801 -0.6736 0
M  V30 2847 C 270.659 3.14115 -1.46741 0
M  V30 2848 C 269.72 3.34612 -2.68948 0
M  V30 2849 C 268.953 4.64467 -2.6288 0
M  V30 2850 O 269.176 5.44919 -1.68581 0
M  V30 2851 O 268.11 4.87049 -3.53648 0
M  V30 2852 H 271.936 1.73174 -2.49489 0
M  V30 2853 H 269.521 0.79709 -1.2636 0
M  V30 2854 H 271.403 3.95412 -1.45696 0
M  V30 2855 H 270.078 3.19249 -0.534975 0
M  V30 2856 H 268.985 2.53014 -2.75562 0
M  V30 2857 H 270.318 3.34336 -3.61221 0
M  V30 2858 N 271.97 1.30982 0.876444 0
M  V30 2859 C 273.216 1.20474 1.63138 0
M  V30 2860 C 273.549 -0.238096 1.92735 0
M  V30 2861 O 272.824 -1.1692 1.55435 0
M  V30 2862 C 273.107 2.04244 2.96574 0
M  V30 2863 C 272.96 3.56793 2.73896 0
M  V30 2864 C 274.279 1.88684 3.97601 0
M  V30 2865 H 271.398 0.439001 0.591985 0
M  V30 2866 H 274.04 1.60704 1.01361 0
M  V30 2867 H 272.19 1.70063 3.493 0
M  V30 2868 H 273.862 4.01077 2.27892 0
M  V30 2869 H 272.105 3.80548 2.08245 0
M  V30 2870 H 272.776 4.10706 3.68815 0
M  V30 2871 H 275.252 2.18584 3.54062 0
M  V30 2872 H 274.128 2.4961 4.88862 0
M  V30 2873 H 274.389 0.848343 4.33884 0
M  V30 2874 N 273.449 -1.08991 1.13837 0
M  V30 2875 C 274.379 -2.17771 0.842507 0
M  V30 2876 C 275.36 -1.6892 -0.20001 0
M  V30 2877 O 276.545 -1.94113 -0.0579731 0
M  V30 2878 C 273.675 -3.4589 0.312644 0
M  V30 2879 C 272.629 -4.08099 1.28992 0
M  V30 2880 C 271.955 -5.31098 0.619623 0
M  V30 2881 C 273.255 -4.50077 2.65005 0
M  V30 2882 H 274.949 -2.42777 1.75213 0
M  V30 2883 H 272.495 -1.16682 0.843875 0
M  V30 2884 H 274.448 -4.21297 0.0933043 0
M  V30 2885 H 273.172 -3.20419 -0.632382 0
M  V30 2886 H 271.831 -3.34717 1.49533 0
M  V30 2887 H 271.479 -5.0191 -0.33102 0
M  V30 2888 H 271.179 -5.73674 1.27167 0
M  V30 2889 H 272.703 -6.09224 0.409669 0
M  V30 2890 H 274.117 -5.16688 2.48407 0
M  V30 2891 H 272.514 -5.03553 3.26427 0
M  V30 2892 H 273.584 -3.62257 3.22332 0
M  V30 2893 N 274.927 -0.932562 -1.27047 0
M  V30 2894 C 275.837 -0.441219 -2.30414 0
M  V30 2895 C 276.853 0.480525 -1.67233 0
M  V30 2896 O 278.029 0.362151 -1.98117 0
M  V30 2897 C 275.094 0.293651 -3.45454 0
M  V30 2898 C 274.155 -0.663601 -4.2414 0
M  V30 2899 C 273.388 0.0362932 -5.33688 0
M  V30 2900 O 273.611 1.2548 -5.56427 0
M  V30 2901 O 272.545 -0.638015 -5.98509 0
M  V30 2902 H 276.371 -1.29962 -2.74488 0
M  V30 2903 H 273.956 -0.6981 -1.32087 0
M  V30 2904 H 275.838 0.707951 -4.15411 0
M  V30 2905 H 274.513 1.12758 -3.03426 0
M  V30 2906 H 273.42 -1.12768 -3.56699 0
M  V30 2907 H 274.753 -1.46489 -4.69896 0
M  V30 2908 N 276.405 1.4127 -0.698611 0
M  V30 2909 C 277.368 2.29158 -0.044132 0
M  V30 2910 C 278.368 1.44529 0.704841 0
M  V30 2911 O 279.558 1.65643 0.539276 0
M  V30 2912 C 276.69 3.27459 0.947809 0
M  V30 2913 H 277.883 2.88529 -0.817994 0
M  V30 2914 H 275.436 1.49307 -0.46228 0
M  V30 2915 H 276.171 2.73073 1.74933 0
M  V30 2916 H 275.956 3.8991 0.41385 0
M  V30 2917 H 277.446 3.93311 1.40344 0
M  V30 2918 N 277.883 0.443576 1.51229 0
M  V30 2919 C 278.813 -0.355142 2.30783 0
M  V30 2920 C 279.794 -1.0154 1.36468 0
M  V30 2921 O 280.979 -1.01785 1.65389 0
M  V30 2922 C 278.109 -1.45312 3.15439 0
M  V30 2923 C 277.063 -0.916002 4.18083 0
M  V30 2924 C 276.389 -2.1102 4.91299 0
M  V30 2925 C 277.689 0.0538602 5.22272 0
M  V30 2926 H 279.383 0.308767 2.97804 0
M  V30 2927 H 276.929 0.149937 1.43217 0
M  V30 2928 H 278.882 -2.01914 3.69876 0
M  V30 2929 H 277.606 -2.14541 2.46252 0
M  V30 2930 H 276.265 -0.372145 3.64706 0
M  V30 2931 H 275.913 -2.78882 4.18609 0
M  V30 2932 H 275.613 -1.75717 5.60712 0
M  V30 2933 H 277.137 -2.68164 5.48562 0
M  V30 2934 H 278.551 -0.422069 5.71744 0
M  V30 2935 H 276.948 0.319776 5.99247 0
M  V30 2936 H 278.018 0.98858 4.74716 0
M  V30 2937 N 279.361 -1.56624 0.175154 0
M  V30 2938 C 280.324 -2.16934 -0.739738 0
M  V30 2939 C 281.324 -1.11842 -1.15533 0
M  V30 2940 O 282.514 -1.37335 -1.07167 0
M  V30 2941 C 279.646 -2.75531 -2.00738 0
M  V30 2942 H 280.839 -2.99131 -0.214639 0
M  V30 2943 H 278.392 -1.56123 -0.0744197 0
M  V30 2944 H 279.127 -1.97078 -2.57548 0
M  V30 2945 H 278.912 -3.52444 -1.71831 0
M  V30 2946 H 280.402 -3.21904 -2.66021 0
M  V30 2947 N 280.839 0.0985539 -1.57292 0
M  V30 2948 C 282.255 0.45267 -1.53046 0
M  V30 2949 C 282.455 1.80713 -0.891342 0
M  V30 2950 O 281.511 2.4785 -0.482375 0
M  V30 2951 C 282.824 0.418341 -2.97776 0
M  V30 2952 C 284.372 0.500443 -3.08973 0
M  V30 2953 C 284.847 0.496297 -4.55303 0
M  V30 2954 N 286.338 0.557151 -4.59837 0
M  V30 2955 C 287.073 0.575726 -5.70502 0
M  V30 2956 N 286.569 0.550714 -6.90608 0
M  V30 2957 N 288.362 0.620277 -5.58667 0
M  V30 2958 H 280.513 -0.788673 -1.97215 0
M  V30 2959 H 282.776 -0.293188 -0.901524 0
M  V30 2960 H 282.482 -0.509659 -3.47988 0
M  V30 2961 H 282.356 1.2386 -3.56284 0
M  V30 2962 H 284.743 1.41886 -2.58751 0
M  V30 2963 H 284.824 -0.347894 -2.53423 0
M  V30 2964 H 284.468 -0.418162 -5.06176 0
M  V30 2965 H 284.398 1.3618 -5.08687 0
M  V30 2966 H 286.889 0.581816 -3.73394 0
M  V30 2967 H 287.202 0.568075 -7.70709 0
M  V30 2968 H 285.547 0.517816 -6.93068 0
M  V30 2969 H 288.738 0.637322 -4.63741 0
M  V30 2970 H 288.911 0.631283 -6.44918 0
M  V30 2971 N 282.317 1.53212 0.369288 0
M  V30 2972 C 283.247 1.82365 1.45826 0
M  V30 2973 C 284.228 0.676907 1.56051 0
M  V30 2974 O 285.413 0.926401 1.70679 0
M  V30 2975 C 282.543 2.01023 2.83208 0
M  V30 2976 C 281.497 3.1678 2.8781 0
M  V30 2977 C 280.823 3.20724 4.27832 0
M  V30 2978 C 282.123 4.55447 2.55667 0
M  V30 2979 H 283.817 2.73559 1.21678 0
M  V30 2980 H 281.363 1.3163 0.583911 0
M  V30 2981 H 283.316 2.20001 3.59413 0
M  V30 2982 H 282.04 1.06536 3.08736 0
M  V30 2983 H 280.699 2.97616 2.14056 0
M  V30 2984 H 280.347 2.23882 4.50429 0
M  V30 2985 H 280.047 3.98496 4.31827 0
M  V30 2986 H 281.571 3.41881 5.05915 0
M  V30 2987 H 282.985 4.74611 3.21586 0
M  V30 2988 H 281.382 5.35432 2.70984 0
M  V30 2989 H 282.452 4.60812 1.5093 0
M  V30 2990 N 283.795 -0.628877 1.44509 0
M  V30 2991 C 284.758 -1.72263 1.51188 0
M  V30 2992 C 285.758 -1.55907 0.39367 0
M  V30 2993 O 286.948 -1.61361 0.656377 0
M  V30 2994 C 284.08 -3.11365 1.38798 0
M  V30 2995 H 285.273 -1.67714 2.4862 0
M  V30 2996 H 282.826 -0.842737 1.31634 0
M  V30 2997 H 283.561 -3.21507 0.424693 0
M  V30 2998 H 283.346 -3.24644 2.19884 0
M  V30 2999 H 284.836 -3.91075 1.46458 0
M  V30 3000 N 285.273 -1.31445 -0.869486 0
M  V30 3001 C 286.519 -1.21337 -1.62496 0
M  V30 3002 C 286.852 0.227872 -1.92858 0
M  V30 3003 O 286.127 1.16094 -1.56053 0
M  V30 3004 C 286.41 -2.05814 -2.95487 0
M  V30 3005 C 286.263 -3.5824 -2.72 0
M  V30 3006 C 287.582 -1.9079 -3.96594 0
M  V30 3007 H 284.701 -0.442135 -0.589649 0
M  V30 3008 H 287.343 -1.6124 -1.00507 0
M  V30 3009 H 285.493 -1.71913 -3.48394 0
M  V30 3010 H 287.165 -4.0228 -2.25762 0
M  V30 3011 H 285.408 -3.81647 -2.06224 0
M  V30 3012 H 286.079 -4.12657 -3.66631 0
M  V30 3013 H 288.555 -2.20459 -3.52898 0
M  V30 3014 H 287.431 -2.52199 -4.87531 0
M  V30 3015 H 287.692 -0.871341 -4.33428 0
M  V30 3016 N 286.751 1.08385 -1.14413 0
M  V30 3017 C 287.661 2.18856 -0.844951 0
M  V30 3018 C 288.677 1.73121 0.174668 0
M  V30 3019 O 289.853 2.014 0.00312857 0
M  V30 3020 C 286.918 3.45155 -0.32696 0
M  V30 3021 C 285.979 4.05513 -1.40916 0
M  V30 3022 C 285.212 5.25784 -0.915793 0
M  V30 3023 O 285.435 5.69884 0.242651 0
M  V30 3024 O 284.369 5.77545 -1.69487 0
M  V30 3025 H 288.195 2.46919 -1.76818 0
M  V30 3026 H 285.78 1.17524 -0.922411 0
M  V30 3027 H 287.662 4.21377 -0.0440211 0
M  V30 3028 H 286.337 3.18668 0.568539 0
M  V30 3029 H 285.244 3.30879 -1.74556 0
M  V30 3030 H 286.577 4.3625 -2.27919 0
M  V30 3031 N 288.23 0.939286 1.26551 0
M  V30 3032 C 289.18 0.418284 2.2413 0
M  V30 3033 C 290.164 -0.483935 1.5345 0
M  V30 3034 O 291.356 -0.319489 1.74093 0
M  V30 3035 C 288.485 -0.31709 3.41832 0
M  V30 3036 C 287.571 0.602311 4.19801 0
M  V30 3037 N 287.962 1.72726 4.75394 0
M  V30 3038 C 286.26 0.407534 4.44134 0
M  V30 3039 C 286.961 2.30004 5.34297 0
M  V30 3040 N 285.937 1.58828 5.1988 0
M  V30 3041 H 289.739 1.27705 2.64705 0
M  V30 3042 H 287.253 0.794929 1.41614 0
M  V30 3043 H 289.25 -0.707364 4.10855 0
M  V30 3044 H 287.91 -1.17264 3.02786 0
M  V30 3045 H 288.921 2.10944 4.72994 0
M  V30 3046 H 285.598 -0.406406 4.15517 0
M  V30 3047 H 286.988 3.24778 5.88191 0
M  V30 3048 N 289.708 -1.40897 0.706093 0
M  V30 3049 C 290.985 -1.94868 0.169099 0
M  V30 3050 C 291.365 -1.64485 -1.32318 0
M  V30 3051 O 290.713 -0.95744 -2.07474 0
M  V30 3052 C 290.923 -3.45798 0.471654 0
M  V30 3053 C 292.271 -4.22663 0.405127 0
M  V30 3054 O 293.295 -3.53865 0.407168 0
M  V30 3055 O 292.154 -5.45216 0.374383 0
M  V30 3056 H 289.248 -0.82673 0.0211352 0
M  V30 3057 H 291.794 -1.50558 0.782976 0
M  V30 3058 H 290.566 -3.61235 1.50416 0
M  V30 3059 H 290.189 -3.97225 -0.172666 0
M  V30 3060 N 291.186 -0.45159 -1.50991 0
M  V30 3061 C 292.433 0.110074 -2.02201 0
M  V30 3062 C 292.761 1.4146 -1.33489 0
M  V30 3063 O 292.016 1.90617 -0.443125 0
M  V30 3064 C 292.315 0.361728 -3.55565 0
M  V30 3065 C 291.981 -0.858717 -4.42648 0
M  V30 3066 C 290.643 -1.19338 -4.66167 0
M  V30 3067 C 292.995 -1.67221 -4.93646 0
M  V30 3068 C 290.323 -2.34195 -5.37931 0
M  V30 3069 C 292.675 -2.8119 -5.6667 0
M  V30 3070 C 291.339 -3.15094 -5.88449 0
M  V30 3071 H 290.609 0.040279 -0.739904 0
M  V30 3072 H 293.256 -0.601696 -1.81802 0
M  V30 3073 H 291.561 1.15554 -3.74372 0
M  V30 3074 H 293.258 0.80996 -3.92735 0
M  V30 3075 H 289.848 -0.58796 -4.24548 0
M  V30 3076 H 294.032 -1.42686 -4.75347 0
M  V30 3077 H 289.288 -2.6076 -5.53005 0
M  V30 3078 H 293.462 -3.44585 -6.05173 0
M  V30 3079 H 291.089 -4.04204 -6.43835 0
M  V30 3080 N 292.664 1.56529 -0.183458 0
M  V30 3081 C 293.894 2.01331 0.463612 0
M  V30 3082 C 294.302 1.06278 1.5653 0
M  V30 3083 O 293.645 0.0577976 1.83609 0
M  V30 3084 C 293.707 3.42547 1.09096 0
M  V30 3085 C 293.371 4.56817 0.129442 0
M  V30 3086 C 294.368 5.15734 -0.656807 0
M  V30 3087 C 292.053 5.02295 0.02174 0
M  V30 3088 C 294.047 6.1857 -1.53784 0
M  V30 3089 C 291.734 6.04978 -0.862864 0
M  V30 3090 C 292.732 6.62988 -1.64123 0
M  V30 3091 O 292.42 7.63677 -2.51103 0
M  V30 3092 H 292.152 0.664917 0.121907 0
M  V30 3093 H 294.706 2.034 -0.285954 0
M  V30 3094 H 292.936 3.37428 1.88889 0
M  V30 3095 H 294.625 3.71228 1.64148 0
M  V30 3096 H 295.391 4.81473 -0.583839 0
M  V30 3097 H 291.27 4.56847 0.617392 0
M  V30 3098 H 294.814 6.63777 -2.14583 0
M  V30 3099 H 290.711 6.38663 -0.93699 0
M  V30 3100 H 291.479 7.81049 -2.44753 0
M  V30 3101 N 294.142 -0.090211 1.57342 0
M  V30 3102 C 295.072 -1.10976 2.05443 0
M  V30 3103 C 296.053 -1.41482 0.944284 0
M  V30 3104 O 297.238 -1.51428 1.21586 0
M  V30 3105 C 294.368 -2.42831 2.48295 0
M  V30 3106 C 293.322 -2.26721 3.63018 0
M  V30 3107 C 292.648 -3.63796 3.91863 0
M  V30 3108 C 293.948 -1.7037 4.93732 0
M  V30 3109 H 295.642 -0.709564 2.9087 0
M  V30 3110 H 293.188 -0.339874 1.39932 0
M  V30 3111 H 295.141 -3.14431 2.80555 0
M  V30 3112 H 293.865 -2.84795 1.59873 0
M  V30 3113 H 292.524 -1.57565 3.31012 0
M  V30 3114 H 292.172 -4.03297 3.00601 0
M  V30 3115 H 291.872 -3.53861 4.69101 0
M  V30 3116 H 293.396 -4.36855 4.26603 0
M  V30 3117 H 294.81 -2.31816 5.24342 0
M  V30 3118 H 293.207 -1.71181 5.75167 0
M  V30 3119 H 294.277 -0.663542 4.80339 0
M  V30 3120 N 295.62 -1.53406 -0.361157 0
M  V30 3121 C 296.866 -1.70054 -1.10496 0
M  V30 3122 C 297.199 -0.453278 -1.88836 0
M  V30 3123 O 296.474 0.5495 -1.86576 0
M  V30 3124 C 296.757 -2.95317 -2.06058 0
M  V30 3125 C 296.61 -4.3021 -1.31298 0
M  V30 3126 C 297.929 -3.16193 -3.06121 0
M  V30 3127 H 295.048 -0.618799 -0.400321 0
M  V30 3128 H 297.69 -1.86052 -0.385318 0
M  V30 3129 H 295.84 -2.81809 -2.67425 0
M  V30 3130 H 297.512 -4.55538 -0.726807 0
M  V30 3131 H 295.755 -4.29421 -0.614853 0
M  V30 3132 H 296.426 -5.14 -2.01265 0
M  V30 3133 H 298.902 -3.28916 -2.5486 0
M  V30 3134 H 297.778 -4.05266 -3.70204 0
M  V30 3135 H 298.039 -2.31676 -3.76535 0
M  V30 3136 N 297.098 0.621204 -1.44841 0
M  V30 3137 C 298.323 1.41244 -1.51871 0
M  V30 3138 C 298.748 1.87519 -0.147764 0
M  V30 3139 O 298.106 1.59334 0.865 0
M  V30 3140 C 298.154 2.60221 -2.49634 0
M  V30 3141 O 297.258 3.60395 -2.00473 0
M  V30 3142 H 296.599 0.42223 -0.512463 0
M  V30 3143 H 299.129 0.757305 -1.90069 0
M  V30 3144 H 299.139 3.0764 -2.67996 0
M  V30 3145 H 297.814 2.25887 -3.4921 0
M  V30 3146 H 296.391 3.19717 -1.91925 0
M  V30 3147 N 298.576 1.31904 0.862503 0
M  V30 3148 C 299.853 1.12644 1.59908 0
M  V30 3149 C 300.233 -0.316104 2.0872 0
M  V30 3150 O 299.581 -1.31145 1.87118 0
M  V30 3151 C 299.791 2.1472 2.7513 0
M  V30 3152 C 301.139 2.47637 3.44907 0
M  V30 3153 O 302.163 2.13205 2.85346 0
M  V30 3154 O 301.022 3.06632 4.52371 0
M  V30 3155 H 298.116 0.43416 0.703871 0
M  V30 3156 H 300.662 1.43408 0.907314 0
M  V30 3157 H 299.434 3.1172 2.3653 0
M  V30 3158 H 299.057 1.84905 3.51989 0
M  V30 3159 N 300.054 -1.07777 1.14986 0
M  V30 3160 C 300.964 -2.18404 0.856546 0
M  V30 3161 C 301.98 -1.73211 -0.165485 0
M  V30 3162 O 303.156 -2.01399 0.00755219 0
M  V30 3163 C 300.221 -3.44977 0.34526 0
M  V30 3164 C 299.282 -4.0476 1.43065 0
M  V30 3165 C 298.515 -5.25291 0.943663 0
M  V30 3166 O 298.738 -5.70004 -0.212426 0
M  V30 3167 O 297.672 -5.76638 1.72547 0
M  V30 3168 H 301.498 -2.45978 1.78125 0
M  V30 3169 H 299.083 -1.17033 0.928631 0
M  V30 3170 H 300.965 -4.21348 0.0663671 0
M  V30 3171 H 299.64 -3.18965 -0.551631 0
M  V30 3172 H 298.547 -3.29949 1.76309 0
M  V30 3173 H 299.88 -4.35035 2.30229 0
M  V30 3174 N 301.532 -0.945985 -1.26051 0
M  V30 3175 C 302.781 -0.591836 -1.92822 0
M  V30 3176 C 303.094 0.873956 -1.7499 0
M  V30 3177 O 304.3 1.33769 -2.36259 0
M  V30 3178 C 302.756 -1.00776 -3.45503 0
M  V30 3179 C 302.364 -2.4955 -3.7206 0
M  V30 3180 C 304.108 -0.725735 -4.1825 0
M  V30 3181 C 302.015 -2.84988 -5.18205 0
M  V30 3182 H 300.945 -0.217635 -0.721908 0
M  V30 3183 H 303.596 -1.14927 -1.43052 0
M  V30 3184 H 301.978 -0.378812 -3.94184 0
M  V30 3185 H 303.152 -3.1739 -3.34066 0
M  V30 3186 H 301.467 -2.75133 -3.12555 0
M  V30 3187 H 304.064 -0.966771 -5.25887 0
M  V30 3188 H 304.407 0.337639 -4.14929 0
M  V30 3189 H 304.94 -1.31463 -3.7545 0
M  V30 3190 H 301.679 -3.90307 -5.26631 0
M  V30 3191 H 301.199 -2.21813 -5.57278 0
M  V30 3192 H 302.878 -2.73712 -5.86252 0
M  V30 3193 N 303.011 1.40521 -0.713556 0
M  V30 3194 C 304.241 2.0494 -0.261395 0
M  V30 3195 C 304.649 1.53861 1.10107 0
M  V30 3196 O 303.992 0.689321 1.70276 0
M  V30 3197 C 304.054 3.59138 -0.161227 0
M  V30 3198 C 303.718 4.33096 -1.45865 0
M  V30 3199 C 304.715 4.61182 -2.40016 0
M  V30 3200 C 302.4 4.72043 -1.71701 0
M  V30 3201 C 304.394 5.27196 -3.58251 0
M  V30 3202 C 302.081 5.37789 -2.90218 0
M  V30 3203 C 303.079 5.65295 -3.83315 0
M  V30 3204 O 302.767 6.29683 -4.99754 0
M  V30 3205 H 302.499 0.666041 -0.115608 0
M  V30 3206 H 305.053 1.80954 -0.971849 0
M  V30 3207 H 303.283 3.81936 0.605153 0
M  V30 3208 H 304.972 4.05091 0.256105 0
M  V30 3209 H 305.738 4.31559 -2.21318 0
M  V30 3210 H 301.617 4.50003 -1.00092 0
M  V30 3211 H 305.161 5.48582 -4.30934 0
M  V30 3212 H 301.058 5.66831 -3.08825 0
M  V30 3213 H 301.826 6.4818 -4.99805 0
M  V30 3214 N 304.489 0.459591 1.5075 0
M  V30 3215 C 305.399 -0.34613 2.32033 0
M  V30 3216 C 306.415 -1.00686 1.41909 0
M  V30 3217 O 307.591 -0.997361 1.7497 0
M  V30 3218 C 304.656 -1.42029 3.16273 0
M  V30 3219 C 303.717 -0.777362 4.22203 0
M  V30 3220 C 302.95 -1.80034 5.02418 0
M  V30 3221 O 303.173 -3.02544 4.83553 0
M  V30 3222 O 302.107 -1.37853 5.85901 0
M  V30 3223 H 305.933 0.318054 3.0203 0
M  V30 3224 H 303.518 0.221663 1.47746 0
M  V30 3225 H 305.4 -2.04275 3.68578 0
M  V30 3226 H 304.075 -2.06815 2.49016 0
M  V30 3227 H 302.982 -0.116256 3.73919 0
M  V30 3228 H 304.315 -0.172634 4.91897 0
M  V30 3229 N 305.967 -1.56429 0.191757 0
M  V30 3230 C 306.917 -2.15548 -0.743184 0
M  V30 3231 C 307.901 -1.09531 -1.17863 0
M  V30 3232 O 309.093 -1.35602 -1.13759 0
M  V30 3233 C 306.222 -2.81577 -1.96391 0
M  V30 3234 C 305.308 -3.9478 -1.54951 0
M  V30 3235 N 305.699 -4.98677 -0.845876 0
M  V30 3236 C 303.997 -4.06319 -1.83905 0
M  V30 3237 C 304.698 -5.78183 -0.638724 0
M  V30 3238 N 303.674 -5.30495 -1.18643 0
M  V30 3239 H 307.476 -2.9324 -0.196839 0
M  V30 3240 H 304.99 -1.62398 -0.0081603 0
M  V30 3241 H 306.987 -3.22321 -2.64415 0
M  V30 3242 H 305.647 -2.05371 -2.51501 0
M  V30 3243 H 306.658 -5.15464 -0.501704 0
M  V30 3244 H 303.335 -3.41238 -2.40548 0
M  V30 3245 H 304.725 -6.71851 -0.0807929 0
M  V30 3246 N 307.445 0.0818655 -1.57387 0
M  V30 3247 C 308.375 1.09885 -2.06028 0
M  V30 3248 C 309.356 1.4098 -0.951774 0
M  V30 3249 O 310.541 1.50781 -1.22387 0
M  V30 3250 C 307.671 2.4151 -2.4958 0
M  V30 3251 C 306.625 2.24792 -3.64215 0
M  V30 3252 C 305.951 3.61712 -3.93787 0
M  V30 3253 C 307.251 1.67749 -4.94629 0
M  V30 3254 H 308.945 0.694128 -2.91243 0
M  V30 3255 H 306.491 0.332448 -1.4011 0
M  V30 3256 H 308.444 3.12939 -2.82219 0
M  V30 3257 H 307.168 2.83943 -1.61381 0
M  V30 3258 H 305.827 1.55807 -3.31843 0
M  V30 3259 H 305.475 4.01697 -3.02735 0
M  V30 3260 H 305.175 3.51368 -4.70971 0
M  V30 3261 H 306.699 4.34587 -4.28913 0
M  V30 3262 H 308.113 2.29032 -5.25564 0
M  V30 3263 H 306.51 1.68128 -5.76067 0
M  V30 3264 H 307.58 0.638059 -4.80684 0
M  V30 3265 N 308.923 1.53595 0.353017 0
M  V30 3266 C 309.853 1.83902 1.43883 0
M  V30 3267 C 310.834 0.693421 1.55324 0
M  V30 3268 O 312.019 0.944452 1.69687 0
M  V30 3269 C 309.149 2.04016 2.8106 0
M  V30 3270 C 308.103 3.19814 2.84434 0
M  V30 3271 C 307.429 3.25244 4.24406 0
M  V30 3272 C 308.729 4.58133 2.50822 0
M  V30 3273 H 310.423 2.74835 1.1877 0
M  V30 3274 H 307.969 1.32242 0.569917 0
M  V30 3275 H 309.922 2.238 3.57059 0
M  V30 3276 H 308.646 1.09804 3.07588 0
M  V30 3277 H 307.305 2.9987 2.10887 0
M  V30 3278 H 306.953 2.28646 4.48029 0
M  V30 3279 H 306.653 4.03054 4.27576 0
M  V30 3280 H 308.177 3.47228 5.0226 0
M  V30 3281 H 309.591 4.77995 3.16534 0
M  V30 3282 H 307.988 5.38276 2.6529 0
M  V30 3283 H 309.058 4.62387 1.46034 0
M  V30 3284 N 310.401 -0.613514 1.45168 0
M  V30 3285 C 311.631 -1.39743 1.52169 0
M  V30 3286 C 312.039 -1.88596 0.151086 0
M  V30 3287 O 311.382 -1.6251 -0.856521 0
M  V30 3288 C 311.444 -2.64035 2.43979 0
M  V30 3289 C 311.108 -2.36861 3.90827 0
M  V30 3290 C 312.105 -1.97591 4.80889 0
M  V30 3291 C 309.79 -2.49956 4.35692 0
M  V30 3292 C 311.784 -1.71768 6.1382 0
M  V30 3293 C 309.471 -2.23747 5.68665 0
M  V30 3294 C 310.469 -1.84714 6.57548 0
M  V30 3295 O 310.157 -1.58809 7.88058 0
M  V30 3296 H 309.889 -0.434382 0.517966 0
M  V30 3297 H 312.443 -0.75587 1.90986 0
M  V30 3298 H 310.673 -3.3089 2.00122 0
M  V30 3299 H 312.362 -3.26069 2.41731 0
M  V30 3300 H 313.128 -1.87015 4.47493 0
M  V30 3301 H 309.007 -2.79305 3.66756 0
M  V30 3302 H 312.551 -1.41227 6.83155 0
M  V30 3303 H 308.448 -2.33938 6.01617 0
M  V30 3304 H 309.216 -1.7291 8.00028 0
M  V30 3305 N 311.879 -1.3236 -0.855495 0
M  V30 3306 C 312.789 -1.23221 -1.99634 0
M  V30 3307 C 313.805 -0.145983 -1.73387 0
M  V30 3308 O 314.981 -0.366502 -1.98037 0
M  V30 3309 C 312.046 -0.954782 -3.33294 0
M  V30 3310 C 311.107 -2.12937 -3.72769 0
M  V30 3311 C 310.34 -1.86508 -5.00051 0
M  V30 3312 O 310.563 -0.807231 -5.64659 0
M  V30 3313 O 309.497 -2.72591 -5.36636 0
M  V30 3314 H 313.323 -2.19126 -2.1028 0
M  V30 3315 H 310.908 -1.12241 -0.986018 0
M  V30 3316 H 312.79 -0.816519 -4.13414 0
M  V30 3317 H 311.465 -0.0258854 -3.2369 0
M  V30 3318 H 310.372 -2.3231 -2.93228 0
M  V30 3319 H 311.705 -3.04102 -3.87018 0
M  V30 3320 N 313.357 1.07166 -1.15556 0
M  V30 3321 C 314.605 1.79443 -0.929764 0
M  V30 3322 C 314.926 1.87246 0.544414 0
M  V30 3323 O 314.196 1.37473 1.39564 0
M  V30 3324 H 312.776 0.664625 -0.341003 0
M  V30 3325 H 315.438 1.29499 -1.45657 0
M  V30 3326 H 314.534 2.81832 -1.34079 0
M  V30 3327 N 314.835 0.952656 1.25548 0
M  V30 3328 C 315.745 0.47782 2.29682 0
M  V30 3329 C 316.761 -0.453859 1.67977 0
M  V30 3330 O 317.937 -0.330587 1.98668 0
M  V30 3331 C 315.002 -0.238655 3.45878 0
M  V30 3332 C 314.063 0.730994 4.23031 0
M  V30 3333 C 313.296 0.0486165 5.33678 0
M  V30 3334 O 313.519 -1.16612 5.58353 0
M  V30 3335 O 312.453 0.733152 5.97418 0
M  V30 3336 H 316.279 1.34312 2.72386 0
M  V30 3337 H 313.864 0.719026 1.30959 0
M  V30 3338 H 315.746 -0.641774 4.16484 0
M  V30 3339 H 314.421 -1.07916 3.05181 0
M  V30 3340 H 313.328 1.18428 3.5486 0
M  V30 3341 H 314.661 1.53946 4.67506 0
M  V30 3342 N 316.313 -1.40141 0.720998 0
M  V30 3343 C 317.263 -2.27949 0.0482544 0
M  V30 3344 C 318.247 -1.43538 -0.727021 0
M  V30 3345 O 319.439 -1.6658 -0.598332 0
M  V30 3346 C 316.568 -3.32126 -0.868729 0
M  V30 3347 C 315.654 -4.24008 -0.0883515 0
M  V30 3348 N 316.045 -4.97154 0.931226 0
M  V30 3349 C 314.343 -4.4485 -0.320105 0
M  V30 3350 C 315.044 -5.64587 1.4006 0
M  V30 3351 N 314.02 -5.38787 0.721752 0
M  V30 3352 H 317.822 -2.81948 0.829609 0
M  V30 3353 H 315.336 -1.52656 0.554067 0
M  V30 3354 H 317.333 -3.93884 -1.36605 0
M  V30 3355 H 315.993 -2.79687 -1.6494 0
M  V30 3356 H 317.004 -5.01 1.31222 0
M  V30 3357 H 313.681 -4.03378 -1.07668 0
M  V30 3358 H 315.071 -6.33175 2.24808 0
M  V30 3359 N 317.792 -0.46758 -1.50504 0
M  V30 3360 C 319.039 0.0886219 -2.02306 0
M  V30 3361 C 319.367 1.40037 -1.34981 0
M  V30 3362 O 318.622 1.90136 -0.463318 0
M  V30 3363 C 318.921 0.323995 -3.55928 0
M  V30 3364 C 318.587 -0.905618 -4.41712 0
M  V30 3365 C 317.249 -1.24275 -4.64875 0
M  V30 3366 C 319.601 -1.72448 -4.91845 0
M  V30 3367 C 316.929 -2.39888 -5.35417 0
M  V30 3368 C 319.281 -2.87185 -5.63656 0
M  V30 3369 C 317.945 -3.21317 -5.85074 0
M  V30 3370 H 317.215 0.0324291 -0.74029 0
M  V30 3371 H 319.862 -0.620945 -1.81153 0
M  V30 3372 H 318.167 1.11577 -3.75577 0
M  V30 3373 H 319.864 0.76826 -3.93572 0
M  V30 3374 H 316.454 -0.632956 -4.239 0
M  V30 3375 H 320.638 -1.4772 -4.73806 0
M  V30 3376 H 315.894 -2.66611 -5.50208 0
M  V30 3377 H 320.068 -3.50985 -6.01484 0
M  V30 3378 H 317.695 -4.1101 -6.39511 0
M  V30 3379 N 319.27 1.56325 -0.20005 0
M  V30 3380 C 320.495 2.02548 0.44597 0
M  V30 3381 C 320.92 1.07922 1.5406 0
M  V30 3382 O 320.278 0.0635775 1.81188 0
M  V30 3383 C 320.326 3.47175 0.974761 0
M  V30 3384 O 319.43 3.55671 2.08739 0
M  V30 3385 H 318.771 0.655862 0.103638 0
M  V30 3386 H 321.301 2.02201 -0.312381 0
M  V30 3387 H 321.311 3.87067 1.2901 0
M  V30 3388 H 319.986 4.15538 0.17347 0
M  V30 3389 H 318.563 3.27657 1.78032 0
M  V30 3390 N 320.748 -0.0735177 1.57428 0
M  V30 3391 C 322.159 -0.625551 1.75908 0
M  V30 3392 C 322.51 -1.78 0.825261 0
M  V30 3393 O 321.635 -2.16398 0.00893964 0
M  V30 3394 C 322.23 -1.14155 3.18989 0
M  V30 3395 C 320.789 -1.63946 3.38819 0
M  V30 3396 C 319.936 -0.558151 2.71625 0
M  V30 3397 H 322.887 0.152647 1.57964 0
M  V30 3398 H 322.908 -2.0104 3.23053 0
M  V30 3399 H 322.42 -0.301116 3.8693 0
M  V30 3400 H 320.521 -2.50321 2.7599 0
M  V30 3401 H 320.634 -1.71759 4.47253 0
M  V30 3402 H 318.998 -1.00278 2.34129 0
M  V30 3403 H 319.781 0.272071 3.4222 0
M  V30 3404 N 322.226 -1.5378 -0.344866 0
M  V30 3405 C 323.474 -1.70625 -1.08311 0
M  V30 3406 C 323.795 -0.471447 -1.89215 0
M  V30 3407 O 323.065 0.514616 -1.8902 0
M  V30 3408 H 321.645 -0.629058 -0.402859 0
M  V30 3409 H 324.307 -1.9103 -0.386459 0
M  V30 3410 H 323.403 -2.57656 -1.76124 0
M  V30 3411 N 323.704 0.605807 -1.45491 0
M  V30 3412 C 325.12 0.926751 -1.29936 0
M  V30 3413 C 325.32 1.99896 -0.253706 0
M  V30 3414 O 324.376 2.50038 0.351737 0
M  V30 3415 C 325.689 1.36599 -2.67883 0
M  V30 3416 C 327.237 1.4801 -2.75793 0
M  V30 3417 C 327.712 1.95309 -4.14268 0
M  V30 3418 N 329.203 2.0254 -4.16571 0
M  V30 3419 C 329.938 2.40363 -5.20589 0
M  V30 3420 N 329.434 2.77143 -6.34952 0
M  V30 3421 N 331.227 2.40718 -5.07948 0
M  V30 3422 H 323.378 -0.102862 -2.12151 0
M  V30 3423 H 325.641 0.016639 -0.947854 0
M  V30 3424 H 325.347 0.652306 -3.45598 0
M  V30 3425 H 325.221 2.33215 -2.96463 0
M  V30 3426 H 327.608 2.1847 -1.98381 0
M  V30 3427 H 327.689 0.497041 -2.50925 0
M  V30 3428 H 327.333 1.25436 -4.92167 0
M  V30 3429 H 327.263 2.94532 -4.3653 0
M  V30 3430 H 329.754 1.76699 -3.34045 0
M  V30 3431 H 330.067 3.0489 -7.10114 0
M  V30 3432 H 328.412 2.74834 -6.3835 0
M  V30 3433 H 331.603 2.11392 -4.1765 0
M  V30 3434 H 331.776 2.69869 -5.89131 0
M  V30 3435 N 325.182 1.32811 0.848464 0
M  V30 3436 C 326.428 1.23907 1.60546 0
M  V30 3437 C 326.761 -0.197161 1.93197 0
M  V30 3438 O 326.036 -1.13596 1.5788 0
M  V30 3439 C 326.319 2.10489 2.92175 0
M  V30 3440 C 326.172 3.62522 2.66266 0
M  V30 3441 C 327.491 1.97075 3.93509 0
M  V30 3442 H 324.61 0.451459 0.58254 0
M  V30 3443 H 327.252 1.62818 0.979296 0
M  V30 3444 H 325.402 1.77434 3.45614 0
M  V30 3445 H 327.074 4.05821 2.19334 0
M  V30 3446 H 325.317 3.84879 2.00126 0
M  V30 3447 H 325.988 4.18437 3.6002 0
M  V30 3448 H 328.464 2.26045 3.49346 0
M  V30 3449 H 327.34 2.59923 4.83457 0
M  V30 3450 H 327.601 0.940186 4.31987 0
M  V30 3451 N 326.66 -1.06551 1.16123 0
M  V30 3452 C 327.623 -2.12132 0.867906 0
M  V30 3453 C 328.623 -1.60224 -0.135944 0
M  V30 3454 O 329.813 -1.73943 0.0946422 0
M  V30 3455 C 326.945 -3.396 0.297419 0
M  V30 3456 H 328.138 -2.39586 1.80385 0
M  V30 3457 H 325.691 -1.22574 0.969812 0
M  V30 3458 H 326.426 -3.17794 -0.64633 0
M  V30 3459 H 326.211 -3.78581 1.02073 0
M  V30 3460 H 327.701 -4.17455 0.110052 0
M  V30 3461 N 328.138 -0.959301 -1.25041 0
M  V30 3462 C 329.549 -0.65667 -1.74771 0
M  V30 3463 C 329.9 0.827852 -1.77879 0
M  V30 3464 O 329.025 1.64783 -1.40269 0
M  V30 3465 C 329.62 -1.1853 -3.1739 0
M  V30 3466 C 328.179 -0.932734 -3.6466 0
M  V30 3467 C 327.326 -1.32558 -2.43564 0
M  V30 3468 H 330.277 -1.13558 -1.10862 0
M  V30 3469 H 330.298 -0.547582 -3.76539 0
M  V30 3470 H 329.81 -2.26576 -3.15095 0
M  V30 3471 H 327.911 0.13257 -3.72364 0
M  V30 3472 H 328.024 -1.57248 -4.52559 0
M  V30 3473 H 326.388 -0.743956 -2.43593 0
M  V30 3474 H 327.171 -2.41537 -2.43957 0
M  V30 3475 N 329.616 1.39756 -0.72842 0
M  V30 3476 C 330.526 2.34444 -0.0855374 0
M  V30 3477 C 331.542 1.57976 0.729356 0
M  V30 3478 O 332.718 1.90301 0.659346 0
M  V30 3479 C 329.783 3.36965 0.815798 0
M  V30 3480 C 328.844 4.29299 -0.0105996 0
M  V30 3481 C 328.077 5.26923 0.84781 0
M  V30 3482 O 328.3 5.30859 2.08673 0
M  V30 3483 O 327.234 6.01249 0.279969 0
M  V30 3484 H 331.06 2.91065 -0.866892 0
M  V30 3485 H 328.645 1.4117 -0.48902 0
M  V30 3486 H 330.527 3.99804 1.33171 0
M  V30 3487 H 329.202 2.82739 1.57608 0
M  V30 3488 H 328.109 3.69703 -0.571877 0
M  V30 3489 H 329.442 4.86712 -0.73295 0
M  V30 3490 N 331.094 0.475555 1.50254 0
M  V30 3491 C 332.044 -0.335025 2.25525 0
M  V30 3492 C 333.028 -0.957625 1.29299 0
M  V30 3493 O 334.22 -0.869436 1.54175 0
M  V30 3494 C 331.349 -1.41385 3.12834 0
M  V30 3495 C 330.435 -0.798762 4.1651 0
M  V30 3496 N 330.826 0.0835815 5.05731 0
M  V30 3497 C 329.124 -1.06221 4.33166 0
M  V30 3498 C 329.825 0.433113 5.80085 0
M  V30 3499 N 328.801 -0.1928 5.43258 0
M  V30 3500 H 332.603 0.344612 2.91873 0
M  V30 3501 H 330.117 0.289986 1.5979 0
M  V30 3502 H 332.114 -2.00777 3.65368 0
M  V30 3503 H 330.774 -2.09543 2.48036 0
M  V30 3504 H 331.785 0.452715 5.15918 0
M  V30 3505 H 328.462 -1.73844 3.79585 0
M  V30 3506 H 329.852 1.15346 6.61925 0
M  V30 3507 N 332.573 -1.56217 0.208337 0
M  V30 3508 C 333.801 -2.02337 -0.43215 0
M  V30 3509 C 334.216 -1.08834 -1.54275 0
M  V30 3510 O 333.573 -0.0955462 -1.8225 0
M  V30 3511 C 333.624 -3.48072 -0.976138 0
M  V30 3512 O 333.345 -4.38007 0.0901621 0
M  V30 3513 C 334.846 -4.09773 -1.69119 0
M  V30 3514 H 332.066 -0.662385 -0.10718 0
M  V30 3515 H 334.61 -2.01966 0.320923 0
M  V30 3516 H 332.765 -3.49099 -1.67954 0
M  V30 3517 H 333.179 -5.23543 -0.316701 0
M  V30 3518 H 334.653 -5.13556 -2.02397 0
M  V30 3519 H 335.13 -3.53999 -2.59964 0
M  V30 3520 H 335.736 -4.12556 -1.03332 0
M  V30 3521 N 334.051 0.0651679 -1.57465 0
M  V30 3522 C 334.981 1.07693 -2.07182 0
M  V30 3523 C 335.962 1.39962 -0.966673 0
M  V30 3524 O 337.147 1.49475 -1.2398 0
M  V30 3525 C 334.277 2.3885 -2.52127 0
M  V30 3526 C 333.231 2.20917 -3.66579 0
M  V30 3527 C 332.557 3.57515 -3.97601 0
M  V30 3528 C 333.857 1.62493 -4.9638 0
M  V30 3529 H 335.551 0.663199 -2.91962 0
M  V30 3530 H 333.097 0.317569 -1.40455 0
M  V30 3531 H 335.05 3.09928 -2.85522 0
M  V30 3532 H 333.774 2.82215 -1.64384 0
M  V30 3533 H 332.433 1.52279 -3.33477 0
M  V30 3534 H 332.081 3.98463 -3.06979 0
M  V30 3535 H 331.781 3.46353 -4.74672 0
M  V30 3536 H 333.305 4.30013 -4.33499 0
M  V30 3537 H 334.719 2.23445 -5.27963 0
M  V30 3538 H 333.116 1.62009 -5.77818 0
M  V30 3539 H 334.186 0.587041 -4.81333 0
M  V30 3540 N 335.529 1.53961 0.336706 0
M  V30 3541 C 336.757 1.75483 1.09605 0
M  V30 3542 C 337.172 0.4972 1.82136 0
M  V30 3543 O 336.529 -0.53149 1.74589 0
M  V30 3544 C 336.58 2.93943 2.10428 0
M  V30 3545 O 336.301 4.14842 1.40846 0
M  V30 3546 C 337.802 3.27571 2.98684 0
M  V30 3547 H 335.022 0.586166 0.326574 0
M  V30 3548 H 337.566 2.00808 0.38683 0
M  V30 3549 H 335.721 2.70929 2.76905 0
M  V30 3550 H 336.135 4.81383 2.08255 0
M  V30 3551 H 337.609 4.13791 3.6535 0
M  V30 3552 H 338.086 2.44168 3.65074 0
M  V30 3553 H 338.692 3.52615 2.37787 0
M  V30 3554 N 337.007 -0.598083 1.45811 0
M  V30 3555 C 338.253 -1.35882 1.50545 0
M  V30 3556 C 338.586 -1.93616 0.150445 0
M  V30 3557 O 337.861 -1.75604 -0.83628 0
M  V30 3558 C 338.144 -2.49966 2.59208 0
M  V30 3559 C 337.997 -1.97367 4.04186 0
M  V30 3560 C 339.316 -3.52068 2.64076 0
M  V30 3561 H 336.435 -0.492717 0.548087 0
M  V30 3562 H 339.077 -0.673319 1.77669 0
M  V30 3563 H 337.227 -3.08443 2.3621 0
M  V30 3564 H 338.899 -1.43466 4.38423 0
M  V30 3565 H 337.142 -1.283 4.14393 0
M  V30 3566 H 337.813 -2.79649 4.75921 0
M  V30 3567 H 340.289 -3.03448 2.84708 0
M  V30 3568 H 339.165 -4.2937 3.41954 0
M  V30 3569 H 339.426 -4.08304 1.69531 0
M  V30 3570 N 338.485 -1.33259 -0.841409 0
M  V30 3571 C 339.433 -1.23279 -1.97244 0
M  V30 3572 C 340.427 -0.134706 -1.68864 0
M  V30 3573 O 341.633 -0.298501 -1.77508 0
M  V30 3574 H 338.008 -0.382497 -0.647457 0
M  V30 3575 H 339.979 -2.18906 -2.02787 0
M  V30 3576 C 338.728 -0.986268 -3.33419 0
M  V30 3577 H 338.051 -1.82347 -3.55794 0
M  V30 3578 H 339.491 -0.956728 -4.13065 0
M  V30 3579 C 337.95 0.310842 -3.35463 0
M  V30 3580 O 338.48 1.31838 -3.79449 0
M  V30 3581 N 336.686 0.337485 -2.88634 0
M  V30 3582 H 336.233 -0.482967 -2.53032 0
M  V30 3583 H 336.191 1.20518 -2.90384 0
M  V30 3584 N 339.963 1.05934 -1.16686 0
M  V30 3585 C 341.211 1.78447 -0.948744 0
M  V30 3586 C 341.532 1.87813 0.524523 0
M  V30 3587 O 340.802 1.38945 1.38098 0
M  V30 3588 H 339.382 0.660971 -0.348033 0
M  V30 3589 H 342.044 1.27947 -1.47022 0
M  V30 3590 H 341.14 2.80394 -1.37061 0
M  V30 3591 N 341.441 0.965919 1.2453 0
M  V30 3592 C 342.404 0.499547 2.2369 0
M  V30 3593 C 343.404 -0.40294 1.5567 0
M  V30 3594 O 344.594 -0.19865 1.73064 0
M  V30 3595 C 341.726 -0.276792 3.39774 0
M  V30 3596 H 342.919 1.37613 2.66463 0
M  V30 3597 H 340.472 0.750324 1.37112 0
M  V30 3598 H 341.207 -1.17055 3.02438 0
M  V30 3599 H 340.992 0.370826 3.90343 0
M  V30 3600 H 342.482 -0.592175 4.1338 0
M  V30 3601 N 342.919 -1.39368 0.735821 0
M  V30 3602 C 343.882 -2.2896 0.104874 0
M  V30 3603 C 344.882 -1.46347 -0.666274 0
M  V30 3604 O 346.072 -1.67014 -0.49517 0
M  V30 3605 C 343.204 -3.29857 -0.860656 0
M  V30 3606 H 344.397 -2.86259 0.894205 0
M  V30 3607 H 341.95 -1.48029 0.501704 0
M  V30 3608 H 342.685 -2.77615 -1.67631 0
M  V30 3609 H 342.47 -3.9087 -0.310327 0
M  V30 3610 H 343.96 -3.96893 -1.29867 0
M  V30 3611 N 344.397 -0.483516 -1.5 0
M  V30 3612 C 345.344 0.304164 -2.28787 0
M  V30 3613 C 346.314 0.976114 -1.34392 0
M  V30 3614 O 347.499 0.986156 -1.63339 0
M  V30 3615 C 344.639 1.37298 -3.16612 0
M  V30 3616 C 343.752 0.714561 -4.26049 0
M  V30 3617 C 342.887 1.76232 -5.01114 0
M  V30 3618 C 341.926 1.08483 -6.0241 0
M  V30 3619 N 341.063 2.076 -6.70706 0
M  V30 3620 H 345.903 -0.373981 -2.95644 0
M  V30 3621 H 343.44 -0.196275 -1.45785 0
M  V30 3622 H 345.398 2.00445 -3.65893 0
M  V30 3623 H 344.028 2.02012 -2.51776 0
M  V30 3624 H 343.08 -0.0297798 -3.80388 0
M  V30 3625 H 344.392 0.180383 -4.98474 0
M  V30 3626 H 343.546 2.46929 -5.54176 0
M  V30 3627 H 342.285 2.33033 -4.28424 0
M  V30 3628 H 341.29 0.363545 -5.48597 0
M  V30 3629 H 342.515 0.523551 -6.77079 0
M  V30 3630 H 340.461 2.63394 -6.00799 0
M  V30 3631 H 340.378 1.59201 -7.39047 0
M  V30 3632 H 341.646 2.77639 -7.2838 0
M  V30 3633 N 345.875 1.56104 -0.216619 0
M  V30 3634 C 346.838 2.18819 0.681962 0
M  V30 3635 C 347.838 1.14866 1.12528 0
M  V30 3636 O 349.028 1.40128 1.03488 0
M  V30 3637 C 346.16 2.80756 1.93362 0
M  V30 3638 H 347.353 2.99595 0.135254 0
M  V30 3639 H 344.906 1.56265 0.0330003 0
M  V30 3640 H 345.641 2.03837 2.52232 0
M  V30 3641 H 345.426 3.56876 1.62426 0
M  V30 3642 H 346.916 3.28844 2.57393 0
M  V30 3643 N 347.353 -0.0568162 1.57498 0
M  V30 3644 C 348.6 -0.753104 1.87975 0
M  V30 3645 C 348.928 -1.76815 0.81035 0
M  V30 3646 O 348.183 -1.94756 -0.19199 0
M  V30 3647 C 348.482 -1.48359 3.25153 0
M  V30 3648 C 348.148 -0.60713 4.46794 0
M  V30 3649 C 346.81 -0.365642 4.79809 0
M  V30 3650 C 349.162 -0.000305978 5.212 0
M  V30 3651 C 346.49 0.491905 5.84634 0
M  V30 3652 C 348.842 0.844781 6.26934 0
M  V30 3653 C 347.506 1.096 6.58441 0
M  V30 3654 H 346.776 -0.27558 0.687849 0
M  V30 3655 H 349.423 -0.0135173 1.91495 0
M  V30 3656 H 347.728 -2.29577 3.17492 0
M  V30 3657 H 349.425 -2.02739 3.45974 0
M  V30 3658 H 346.015 -0.805487 4.20963 0
M  V30 3659 H 350.199 -0.173961 4.95995 0
M  V30 3660 H 345.455 0.695131 6.07436 0
M  V30 3661 H 349.629 1.32165 6.83744 0
M  V30 3662 H 347.256 1.76224 7.39492 0
M  V30 3663 N 348.832 -1.54138 -0.328536 0
M  V30 3664 C 349.795 -1.82462 -1.38709 0
M  V30 3665 C 350.795 -0.696229 -1.44946 0
M  V30 3666 O 351.985 -0.964535 -1.4506 0
M  V30 3667 C 349.117 -1.98018 -2.77492 0
M  V30 3668 H 350.31 -2.77037 -1.14851 0
M  V30 3669 H 347.863 -1.45779 -0.563751 0
M  V30 3670 H 348.598 -1.05637 -3.06613 0
M  V30 3671 H 348.383 -2.80124 -2.74359 0
M  V30 3672 H 349.873 -2.21396 -3.54081 0
M  V30 3673 N 350.31 0.590341 -1.46126 0
M  V30 3674 C 351.243 1.71434 -1.50617 0
M  V30 3675 C 352.221 1.58543 -0.360948 0
M  V30 3676 O 353.405 1.79865 -0.563985 0
M  V30 3677 C 350.532 3.09422 -1.37753 0
M  V30 3678 C 349.578 3.40854 -2.5636 0
M  V30 3679 S 350.411 3.33773 -4.18755 0
M  V30 3680 C 351.567 4.74312 -4.08386 0
M  V30 3681 H 351.8 1.67364 -2.45717 0
M  V30 3682 H 349.333 0.76845 -1.33919 0
M  V30 3683 H 351.291 3.8903 -1.31018 0
M  V30 3684 H 349.952 3.10989 -0.440949 0
M  V30 3685 H 349.145 4.41368 -2.43332 0
M  V30 3686 H 348.747 2.68798 -2.60046 0
M  V30 3687 H 351.039 5.64522 -3.74595 0
M  V30 3688 H 351.982 4.92397 -5.08872 0
M  V30 3689 H 352.39 4.50803 -3.3976 0
M  V30 3690 N 351.788 1.33704 0.83433 0
M  V30 3691 C 353.016 1.28467 1.62185 0
M  V30 3692 C 353.431 -0.143526 1.88254 0
M  V30 3693 O 352.788 -1.08709 1.4659 0
M  V30 3694 C 352.839 2.06174 2.96942 0
M  V30 3695 O 352.56 3.43422 2.72016 0
M  V30 3696 C 354.061 2.08201 3.91366 0
M  V30 3697 H 351.281 0.4424 0.504503 0
M  V30 3698 H 353.825 1.76145 1.03891 0
M  V30 3699 H 351.98 1.62167 3.51825 0
M  V30 3700 H 352.394 3.83453 3.57861 0
M  V30 3701 H 353.868 2.67017 4.83121 0
M  V30 3702 H 354.345 1.07343 4.2588 0
M  V30 3703 H 354.951 2.52246 3.42421 0
M  V30 3704 N 353.266 -1.05314 1.17247 0
M  V30 3705 C 354.514 -1.77941 0.958194 0
M  V30 3706 C 354.835 -1.88089 -0.514556 0
M  V30 3707 O 354.105 -1.39676 -1.37359 0
M  V30 3708 H 352.685 -0.659116 0.351533 0
M  V30 3709 H 355.347 -1.27166 1.47699 0
M  V30 3710 H 354.443 -2.79663 1.38546 0
M  V30 3711 N 354.744 -0.972509 -1.24016 0
M  V30 3712 C 355.99 -0.647583 -1.92816 0
M  V30 3713 C 356.345 0.809015 -1.74564 0
M  V30 3714 O 355.638 1.57502 -1.09103 0
M  V30 3715 C 355.832 -0.963694 -3.44162 0
M  V30 3716 C 355.661 -2.44947 -3.77135 0
M  V30 3717 C 354.431 -3.11012 -3.98246 0
M  V30 3718 C 356.629 -3.42978 -3.83237 0
M  V30 3719 N 354.611 -4.49277 -4.18358 0
M  V30 3720 C 355.982 -4.66619 -4.08248 0
M  V30 3721 C 358.037 -3.37569 -3.65994 0
M  V30 3722 C 356.74 -5.85516 -4.17808 0
M  V30 3723 C 358.766 -4.55822 -3.76802 0
M  V30 3724 C 358.128 -5.78256 -4.02243 0
M  V30 3725 H 354.227 -0.287894 -0.727077 0
M  V30 3726 H 356.811 -1.24835 -1.49413 0
M  V30 3727 H 354.982 -0.391692 -3.8642 0
M  V30 3728 H 356.714 -0.596849 -4.00275 0
M  V30 3729 H 353.469 -2.61529 -3.94841 0
M  V30 3730 H 353.893 -5.20935 -4.32384 0
M  V30 3731 H 358.535 -2.43945 -3.45327 0
M  V30 3732 H 356.253 -6.79564 -4.37285 0
M  V30 3733 H 359.839 -4.53204 -3.64825 0
M  V30 3734 H 358.719 -6.68231 -4.10411 0
M  V30 3735 N 356.222 1.38976 -0.743202 0
M  V30 3736 C 357.638 1.53984 -0.419664 0
M  V30 3737 C 357.838 1.70837 1.0685 0
M  V30 3738 O 356.894 1.7135 1.8546 0
M  V30 3739 C 358.207 2.75287 -1.20985 0
M  V30 3740 C 359.755 2.89129 -1.19889 0
M  V30 3741 C 360.23 4.13381 -1.97181 0
M  V30 3742 N 361.721 4.20437 -1.94389 0
M  V30 3743 C 362.456 5.15547 -2.50996 0
M  V30 3744 N 361.952 6.16395 -3.16274 0
M  V30 3745 N 363.745 5.07822 -2.40984 0
M  V30 3746 H 355.896 1.26285 -1.7078 0
M  V30 3747 H 358.159 0.612689 -0.723406 0
M  V30 3748 H 357.865 2.69204 -2.26323 0
M  V30 3749 H 357.739 3.68184 -0.819759 0
M  V30 3750 H 360.126 2.947 -0.153606 0
M  V30 3751 H 360.207 1.97272 -1.62841 0
M  V30 3752 H 359.851 4.08572 -3.01714 0
M  V30 3753 H 359.781 5.04298 -1.51629 0
M  V30 3754 H 362.272 3.48205 -1.46839 0
M  V30 3755 H 362.585 6.85443 -3.56915 0
M  V30 3756 H 360.93 6.16758 -3.20367 0
M  V30 3757 H 364.121 4.27973 -1.89622 0
M  V30 3758 H 364.294 5.81767 -2.85397 0
M  V30 3759 N 357.7 0.491464 1.49741 0
M  V30 3760 C 358.949 -0.0582189 2.01616 0
M  V30 3761 C 359.262 -1.38927 1.3769 0
M  V30 3762 O 360.468 -2.02509 1.80838 0
M  V30 3763 C 358.924 -0.154235 3.59569 0
M  V30 3764 C 358.532 1.1696 4.32463 0
M  V30 3765 C 360.276 -0.65479 4.1942 0
M  V30 3766 C 358.183 1.03627 5.8225 0
M  V30 3767 H 357.113 -0.0255317 0.753568 0
M  V30 3768 H 359.764 0.629445 1.72367 0
M  V30 3769 H 358.146 -0.906138 3.85493 0
M  V30 3770 H 359.32 1.93405 4.18248 0
M  V30 3771 H 357.635 1.60285 3.84315 0
M  V30 3772 H 360.232 -0.771903 5.29099 0
M  V30 3773 H 360.575 -1.65127 3.8215 0
M  V30 3774 H 361.108 0.040304 3.9778 0
M  V30 3775 H 357.847 2.00672 6.24028 0
M  V30 3776 H 357.367 0.312546 5.98985 0
M  V30 3777 H 359.046 0.711114 6.4308 0
M  V30 3778 N 359.178 -1.55987 0.224894 0
M  V30 3779 C 360.426 -1.97998 -0.405099 0
M  V30 3780 C 360.747 -1.11387 -1.60056 0
M  V30 3781 O 360.017 -0.191645 -1.9496 0
M  V30 3782 H 358.597 -0.731235 -0.152658 0
M  V30 3783 H 361.259 -1.92279 0.318567 0
M  V30 3784 H 360.355 -3.03463 -0.729167 0
M  V30 3785 N 360.656 0.0484629 -1.57525 0
M  V30 3786 C 361.886 0.754326 -1.92337 0
M  V30 3787 C 362.294 1.70443 -0.82132 0
M  V30 3788 O 361.637 1.82466 0.21254 0
M  V30 3789 C 361.699 1.58231 -3.22805 0
M  V30 3790 C 361.363 0.799074 -4.4996 0
M  V30 3791 C 362.36 0.1079 -5.19788 0
M  V30 3792 C 360.045 0.759345 -4.96527 0
M  V30 3793 C 362.039 -0.612516 -6.3445 0
M  V30 3794 C 359.726 0.0351713 -6.1109 0
M  V30 3795 C 360.724 -0.649537 -6.79904 0
M  V30 3796 O 360.412 -1.36199 -7.92278 0
M  V30 3797 H 360.144 0.218257 -0.639797 0
M  V30 3798 H 362.698 0.0159295 -2.05394 0
M  V30 3799 H 360.928 2.36406 -3.06021 0
M  V30 3800 H 362.617 2.16898 -3.43089 0
M  V30 3801 H 363.383 0.129748 -4.84826 0
M  V30 3802 H 359.262 1.28177 -4.42822 0
M  V30 3803 H 362.806 -1.14751 -6.88097 0
M  V30 3804 H 358.703 0.0113314 -6.45499 0
M  V30 3805 H 359.471 -1.27366 -8.0853 0
M  V30 3806 N 362.134 1.5431 0.320358 0
M  V30 3807 C 363.097 1.83195 1.3774 0
M  V30 3808 C 364.097 0.703906 1.44575 0
M  V30 3809 O 365.287 0.972214 1.44546 0
M  V30 3810 C 362.419 1.99487 2.76438 0
M  V30 3811 H 363.612 2.77642 1.1338 0
M  V30 3812 H 361.165 1.46076 0.556012 0
M  V30 3813 H 361.9 1.07262 3.06048 0
M  V30 3814 H 361.685 2.81575 2.7287 0
M  V30 3815 H 363.175 2.23271 3.52902 0
M  V30 3816 N 363.613 -0.582584 1.46437 0
M  V30 3817 C 364.853 -1.35184 1.53312 0
M  V30 3818 C 365.217 -1.9115 0.180508 0
M  V30 3819 O 366.418 -2.68514 0.124017 0
M  V30 3820 C 364.689 -2.45089 2.60127 0
M  V30 3821 S 366.248 -3.32439 2.86408 0
M  V30 3822 H 363.066 -0.460559 0.54167 0
M  V30 3823 H 365.668 -0.669709 1.83671 0
M  V30 3824 H 364.372 -2.02366 3.57038 0
M  V30 3825 H 363.903 -3.18074 2.315 0
M  V30 3826 H 365.918 -4.43924 2.21688 0
M  V30 3827 N 365.091 -1.34144 -0.827227 0
M  V30 3828 C 366.339 -1.26009 -1.58007 0
M  V30 3829 C 366.66 0.170971 -1.94249 0
M  V30 3830 O 365.93 1.10256 -1.61927 0
M  V30 3831 H 364.51 -0.463414 -0.585881 0
M  V30 3832 H 367.172 -1.68005 -0.987951 0
M  V30 3833 H 366.268 -1.86187 -2.50481 0
M  V30 3834 N 366.569 1.04691 -1.17803 0
M  V30 3835 C 367.98 1.59238 -0.974689 0
M  V30 3836 C 368.331 1.90306 0.477292 0
M  V30 3837 O 367.456 1.68846 1.35352 0
M  V30 3838 C 368.051 2.89318 -1.76296 0
M  V30 3839 C 366.61 3.40506 -1.60414 0
M  V30 3840 C 365.757 2.14172 -1.76141 0
M  V30 3841 H 368.708 0.874395 -1.32439 0
M  V30 3842 H 368.729 3.5944 -1.24833 0
M  V30 3843 H 368.241 2.66675 -2.81968 0
M  V30 3844 H 366.342 3.68175 -0.572519 0
M  V30 3845 H 366.455 4.14753 -2.39827 0
M  V30 3846 H 364.819 2.25176 -1.19028 0
M  V30 3847 H 365.602 1.93992 -2.83235 0
M  V30 3848 N 368.047 0.979072 1.23499 0
M  V30 3849 C 368.994 0.517904 2.24914 0
M  V30 3850 C 369.964 -0.442525 1.60097 0
M  V30 3851 O 371.149 -0.350365 1.87556 0
M  V30 3852 C 368.289 -0.174813 3.44657 0
M  V30 3853 C 367.402 0.825721 4.24035 0
M  V30 3854 C 366.537 0.107946 5.3109 0
M  V30 3855 C 365.576 1.09778 6.02175 0
M  V30 3856 N 364.713 0.40925 7.00906 0
M  V30 3857 H 369.553 1.38751 2.63727 0
M  V30 3858 H 367.09 0.695303 1.2963 0
M  V30 3859 H 369.048 -0.593233 4.12961 0
M  V30 3860 H 367.678 -1.0083 3.06648 0
M  V30 3861 H 366.73 1.36253 3.55161 0
M  V30 3862 H 368.042 1.58005 4.73113 0
M  V30 3863 H 367.196 -0.367904 6.05583 0
M  V30 3864 H 365.935 -0.678994 4.8295 0
M  V30 3865 H 364.94 1.5844 5.26476 0
M  V30 3866 H 366.165 1.88536 6.52404 0
M  V30 3867 H 364.111 -0.358506 6.5502 0
M  V30 3868 H 364.028 1.10226 7.47921 0
M  V30 3869 H 365.296 -0.0442557 7.79487 0
M  V30 3870 N 369.525 -1.3858 0.750561 0
M  V30 3871 C 370.435 -2.34278 0.122825 0
M  V30 3872 C 371.451 -1.59116 -0.704131 0
M  V30 3873 O 372.627 -1.91326 -0.628987 0
M  V30 3874 C 369.692 -3.38221 -0.762086 0
M  V30 3875 C 368.753 -4.29227 0.078896 0
M  V30 3876 C 367.986 -5.28205 -0.763874 0
M  V30 3877 O 368.209 -5.34112 -2.00201 0
M  V30 3878 O 367.143 -6.01618 -0.18428 0
M  V30 3879 H 370.969 -2.89649 0.913088 0
M  V30 3880 H 368.554 -1.40374 0.511417 0
M  V30 3881 H 370.436 -4.01872 -1.26793 0
M  V30 3882 H 369.111 -2.85211 -1.5309 0
M  V30 3883 H 368.018 -3.68747 0.630621 0
M  V30 3884 H 369.351 -4.85484 0.810289 0
M  V30 3885 N 371.003 -0.499398 -1.49478 0
M  V30 3886 C 372.249 0.0457576 -2.02748 0
M  V30 3887 C 372.582 1.36793 -1.37846 0
M  V30 3888 O 371.857 1.87596 -0.513601 0
M  V30 3889 C 372.14 0.199986 -3.59544 0
M  V30 3890 C 371.993 -1.1452 -4.34977 0
M  V30 3891 C 373.312 0.94137 -4.29914 0
M  V30 3892 H 370.431 0.0151552 -0.736844 0
M  V30 3893 H 373.073 -0.650498 -1.78518 0
M  V30 3894 H 371.223 0.793007 -3.8032 0
M  V30 3895 H 372.895 -1.77697 -4.25701 0
M  V30 3896 H 371.138 -1.73488 -3.97598 0
M  V30 3897 H 371.809 -0.990607 -5.43039 0
M  V30 3898 H 374.285 0.43844 -4.13784 0
M  V30 3899 H 373.161 1.01812 -5.39375 0
M  V30 3900 H 373.422 1.98471 -3.95046 0
M  V30 3901 N 372.481 1.55866 -0.233164 0
M  V30 3902 C 373.73 1.97779 0.39579 0
M  V30 3903 C 374.043 1.12419 1.60066 0
M  V30 3904 O 375.249 1.44283 2.29988 0
M  V30 3905 C 373.705 3.5188 0.755556 0
M  V30 3906 C 373.313 4.45959 -0.427152 0
M  V30 3907 C 375.057 4.02479 1.34946 0
M  V30 3908 C 372.964 5.91383 -0.0443043 0
M  V30 3909 H 371.894 0.738592 0.15165 0
M  V30 3910 H 374.545 1.80486 -0.331212 0
M  V30 3911 H 372.927 3.64816 1.5403 0
M  V30 3912 H 374.101 4.44776 -1.20462 0
M  V30 3913 H 372.416 4.05765 -0.935068 0
M  V30 3914 H 375.013 5.08637 1.649 0
M  V30 3915 H 375.356 3.49014 2.26925 0
M  V30 3916 H 375.889 3.92813 0.62791 0
M  V30 3917 H 372.628 6.48857 -0.930874 0
M  V30 3918 H 372.148 5.95734 0.697238 0
M  V30 3919 H 373.827 6.45893 0.378334 0
M  V30 3920 N 373.959 -0.0401083 1.57549 0
M  V30 3921 C 374.906 -1.04413 2.05831 0
M  V30 3922 C 375.876 -1.36585 0.945184 0
M  V30 3923 O 377.061 -1.47112 1.21502 0
M  V30 3924 C 374.201 -2.34336 2.53339 0
M  V30 3925 C 373.314 -2.08419 3.78398 0
M  V30 3926 C 372.449 -3.32133 4.14561 0
M  V30 3927 C 371.488 -3.01721 5.3257 0
M  V30 3928 N 370.625 -4.17855 5.64218 0
M  V30 3929 H 375.465 -0.625442 2.91363 0
M  V30 3930 H 373.002 -0.297218 1.44066 0
M  V30 3931 H 374.96 -3.10234 2.78946 0
M  V30 3932 H 373.59 -2.73948 1.7074 0
M  V30 3933 H 372.642 -1.23069 3.59942 0
M  V30 3934 H 373.954 -1.81978 4.64419 0
M  V30 3935 H 373.108 -4.16406 4.41238 0
M  V30 3936 H 371.847 -3.61678 3.2717 0
M  V30 3937 H 370.852 -2.15849 5.05657 0
M  V30 3938 H 372.077 -2.73466 6.21605 0
M  V30 3939 H 370.023 -4.47372 4.79786 0
M  V30 3940 H 369.94 -3.94798 6.44725 0
M  V30 3941 H 371.208 -5.03033 5.95465 0
M  V30 3942 N 375.437 -1.54477 -0.31217 0
M  V30 3943 C 376.4 -1.83923 -1.36766 0
M  V30 3944 C 377.4 -0.711563 -1.44199 0
M  V30 3945 O 378.59 -0.979866 -1.44029 0
M  V30 3946 C 375.722 -2.0095 -2.75376 0
M  V30 3947 H 376.915 -2.78239 -1.11906 0
M  V30 3948 H 374.468 -1.46369 -0.548257 0
M  V30 3949 H 375.203 -1.08883 -3.05475 0
M  V30 3950 H 374.988 -2.83018 -2.71373 0
M  V30 3951 H 376.478 -2.2514 -3.51713 0
M  V30 3952 N 376.915 0.57481 -1.46744 0
M  V30 3953 C 377.848 1.69827 -1.52427 0
M  V30 3954 C 378.826 1.58151 -0.377744 0
M  V30 3955 O 380.01 1.79257 -0.58303 0
M  V30 3956 C 377.137 3.07943 -1.41027 0
M  V30 3957 C 376.183 3.38116 -2.59961 0
M  V30 3958 S 377.016 3.29313 -4.22272 0
M  V30 3959 C 378.172 4.69953 -4.13394 0
M  V30 3960 H 378.405 1.64748 -2.47478 0
M  V30 3961 H 375.938 0.754203 -1.34726 0
M  V30 3962 H 377.896 3.87619 -1.35137 0
M  V30 3963 H 376.557 3.10504 -0.473909 0
M  V30 3964 H 375.75 4.38762 -2.47999 0
M  V30 3965 H 375.352 2.66024 -2.62882 0
M  V30 3966 H 377.644 5.60517 -3.80562 0
M  V30 3967 H 378.587 4.86972 -5.14066 0
M  V30 3968 H 378.995 4.47174 -3.44522 0
M  V30 3969 N 378.394 1.34581 0.820102 0
M  V30 3970 C 379.357 1.2628 1.91275 0
M  V30 3971 C 380.357 0.177344 1.59819 0
M  V30 3972 O 381.547 0.430156 1.68806 0
M  V30 3973 C 378.679 0.950327 3.27386 0
M  V30 3974 H 379.872 2.23421 2.00057 0
M  V30 3975 H 377.425 1.1891 1.0144 0
M  V30 3976 H 378.16 -0.0177938 3.24295 0
M  V30 3977 H 377.945 1.73549 3.51601 0
M  V30 3978 H 379.435 0.917492 4.07396 0
M  V30 3979 N 379.872 -1.04064 1.18357 0
M  V30 3980 C 381.097 -1.81454 1.00445 0
M  V30 3981 C 381.522 -1.82823 -0.442423 0
M  V30 3982 O 380.88 -1.24555 -1.31741 0
M  V30 3983 C 380.928 -3.24925 1.56384 0
M  V30 3984 O 380.032 -4.04856 0.785209 0
M  V30 3985 H 379.373 -0.560604 0.355835 0
M  V30 3986 H 381.903 -1.31059 1.57114 0
M  V30 3987 H 381.913 -3.75702 1.59097 0
M  V30 3988 H 380.588 -3.23244 2.61699 0
M  V30 3989 H 379.165 -3.63537 0.830399 0
M  V30 3990 N 381.35 -0.985608 -1.22978 0
M  V30 3991 C 382.596 -0.65836 -1.91816 0
M  V30 3992 C 382.929 0.806692 -1.76653 0
M  V30 3993 O 382.204 1.58252 -1.13078 0
M  V30 3994 C 382.487 -1.056 -3.44268 0
M  V30 3995 C 382.34 -2.57906 -3.68516 0
M  V30 3996 C 383.659 -0.603781 -4.35939 0
M  V30 3997 H 380.778 -0.24065 -0.696604 0
M  V30 3998 H 383.42 -1.22783 -1.44998 0
M  V30 3999 H 381.57 -0.571445 -3.84274 0
M  V30 4000 H 383.242 -3.13976 -3.3796 0
M  V30 4001 H 381.485 -3.00305 -3.13048 0
M  V30 4002 H 382.156 -2.80779 -4.75255 0
M  V30 4003 H 384.632 -1.01987 -4.03408 0
M  V30 4004 H 383.508 -0.910383 -5.41298 0
M  V30 4005 H 383.769 0.495761 -4.39312 0
M  V30 4006 N 382.828 1.3818 -0.7579 0
M  V30 4007 C 384.053 2.04827 -0.325679 0
M  V30 4008 C 384.478 1.56788 1.03919 0
M  V30 4009 O 383.836 0.721811 1.66312 0
M  V30 4010 C 383.884 3.58774 -0.362447 0
M  V30 4011 O 382.988 4.07372 0.642033 0
M  V30 4012 H 382.329 0.64833 -0.143402 0
M  V30 4013 H 384.859 1.7677 -1.03023 0
M  V30 4014 H 384.869 4.07434 -0.214844 0
M  V30 4015 H 383.544 3.93096 -1.35824 0
M  V30 4016 H 382.121 3.70068 0.458688 0
M  V30 4017 N 384.306 0.507319 1.49211 0
M  V30 4018 C 385.531 -0.033725 2.07373 0
M  V30 4019 C 385.956 -1.29485 1.36437 0
M  V30 4020 O 385.314 -1.76294 0.423087 0
M  V30 4021 C 385.362 -0.263945 3.59633 0
M  V30 4022 O 384.466 -1.33737 3.90113 0
M  V30 4023 H 383.807 0.0290331 0.663365 0
M  V30 4024 H 386.337 0.708749 1.91932 0
M  V30 4025 H 386.347 -0.493536 4.05004 0
M  V30 4026 H 385.022 0.657424 4.10671 0
M  V30 4027 H 383.599 -1.09224 3.56545 0
M  V30 4028 N 385.784 -1.5574 0.241426 0
M  V30 4029 C 386.716 -2.18469 -0.693091 0
M  V30 4030 C 387.729 -1.15942 -1.14286 0
M  V30 4031 O 388.918 -1.42832 -1.07058 0
M  V30 4032 C 386.018 -2.7696 -1.95311 0
M  V30 4033 C 385.191 -4.04853 -1.65568 0
M  V30 4034 C 384.25 -4.47715 -2.76474 0
M  V30 4035 O 383.276 -5.14205 -2.44094 0
M  V30 4036 N 384.478 -4.15044 -4.05855 0
M  V30 4037 H 387.243 -2.99292 -0.156388 0
M  V30 4038 H 384.804 -1.61784 0.0611752 0
M  V30 4039 H 386.796 -3.02594 -2.68736 0
M  V30 4040 H 385.366 -2.00326 -2.39975 0
M  V30 4041 H 384.586 -3.86865 -0.756886 0
M  V30 4042 H 385.874 -4.88246 -1.43153 0
M  V30 4043 H 385.272 -3.61654 -4.34998 0
M  V30 4044 H 383.829 -4.45526 -4.75762 0
M  V30 4045 N 387.262 0.0317525 -1.57568 0
M  V30 4046 C 388.487 0.738664 -1.938 0
M  V30 4047 C 388.912 1.68242 -0.841208 0
M  V30 4048 O 388.27 1.80157 0.203267 0
M  V30 4049 C 388.318 1.47417 -3.29091 0
M  V30 4050 O 387.422 2.5872 -3.2115 0
M  V30 4051 H 386.763 0.198856 -0.633524 0
M  V30 4052 H 389.293 -0.0119713 -2.04596 0
M  V30 4053 H 389.303 1.84468 -3.63917 0
M  V30 4054 H 387.978 0.781988 -4.08482 0
M  V30 4055 H 386.555 2.24231 -2.97951 0
M  V30 4056 N 388.74 1.54641 0.303973 0
M  V30 4057 C 389.968 1.77768 1.05858 0
M  V30 4058 C 390.383 0.535722 1.8104 0
M  V30 4059 O 389.74 -0.494337 1.75677 0
M  V30 4060 C 389.791 2.9834 2.04146 0
M  V30 4061 O 389.512 4.17736 1.32015 0
M  V30 4062 C 391.013 3.33832 2.91669 0
M  V30 4063 H 388.233 0.592961 0.314067 0
M  V30 4064 H 390.777 2.01583 0.344149 0
M  V30 4065 H 388.932 2.76742 2.71096 0
M  V30 4066 H 389.346 4.85693 1.97998 0
M  V30 4067 H 390.82 4.21448 3.56491 0
M  V30 4068 H 391.297 2.51857 3.59812 0
M  V30 4069 H 391.903 3.57579 2.30254 0
M  V30 4070 N 390.218 -0.567019 1.47046 0
M  V30 4071 C 391.446 -1.35027 1.56765 0
M  V30 4072 C 391.861 -1.8758 0.214316 0
M  V30 4073 O 391.218 -1.64471 -0.790919 0
M  V30 4074 C 391.269 -2.52698 2.58507 0
M  V30 4075 O 390.99 -2.0232 3.88585 0
M  V30 4076 C 392.491 -3.45043 2.78316 0
M  V30 4077 H 389.711 -0.41195 0.529658 0
M  V30 4078 H 392.255 -0.687832 1.92585 0
M  V30 4079 H 390.41 -3.149 2.25648 0
M  V30 4080 H 390.824 -2.79068 4.44096 0
M  V30 4081 H 392.298 -4.2405 3.53391 0
M  V30 4082 H 392.775 -3.97971 1.85784 0
M  V30 4083 H 393.381 -2.88665 3.12334 0
M  V30 4084 N 391.696 -1.35014 -0.812953 0
M  V30 4085 C 392.921 -1.31187 -1.60639 0
M  V30 4086 C 393.346 0.109382 -1.87782 0
M  V30 4087 O 392.704 1.07424 -1.46047 0
M  V30 4088 C 392.752 -2.11809 -2.91838 0
M  V30 4089 O 391.856 -1.49444 -3.8437 0
M  V30 4090 H 391.197 -0.450084 -0.488181 0
M  V30 4091 H 393.727 -1.77963 -1.00947 0
M  V30 4092 H 393.737 -2.23531 -3.41318 0
M  V30 4093 H 392.412 -3.15137 -2.71407 0
M  V30 4094 H 390.989 -1.46524 -3.42907 0
M  V30 4095 N 393.175 1.03435 -1.18907 0
M  V30 4096 C 394.586 1.58195 -0.991523 0
M  V30 4097 C 394.937 1.90801 0.457081 0
M  V30 4098 O 394.062 1.70272 1.33553 0
M  V30 4099 C 394.657 2.87432 -1.79355 0
M  V30 4100 C 393.216 3.38785 -1.64017 0
M  V30 4101 C 392.363 2.12292 -1.78402 0
M  V30 4102 H 395.314 0.860299 -1.33359 0
M  V30 4103 H 395.335 3.58096 -1.28638 0
M  V30 4104 H 394.847 2.63669 -2.84781 0
M  V30 4105 H 392.948 3.67547 -0.611536 0
M  V30 4106 H 393.061 4.12186 -2.44212 0
M  V30 4107 H 391.425 2.23901 -1.2141 0
M  V30 4108 H 392.208 1.90977 -2.85277 0
M  V30 4109 N 394.653 0.992116 1.22453 0
M  V30 4110 C 395.93 0.583508 1.86694 0
M  V30 4111 C 396.31 -0.9392 1.89056 0
M  V30 4112 O 395.658 -1.82081 1.38053 0
M  V30 4113 C 395.868 1.20304 3.2761 0
M  V30 4114 C 397.216 1.30308 4.0411 0
M  V30 4115 O 398.24 1.15737 3.36873 0
M  V30 4116 O 397.099 1.53615 5.24466 0
M  V30 4117 H 394.193 0.198129 0.802916 0
M  V30 4118 H 396.739 1.08794 1.30238 0
M  V30 4119 H 395.511 2.24461 3.2052 0
M  V30 4120 H 395.134 0.684144 3.9167 0
M  V30 4121 N 396.131 -1.37776 0.765217 0
M  V30 4122 C 397.359 -2.04124 0.337767 0
M  V30 4123 C 397.774 -1.57715 -1.03785 0
M  V30 4124 O 397.131 -0.755447 -1.6613 0
M  V30 4125 C 397.182 -3.59658 0.364442 0
M  V30 4126 O 396.903 -4.04367 1.68579 0
M  V30 4127 C 398.404 -4.43236 -0.0754221 0
M  V30 4128 H 395.624 -0.655696 0.142491 0
M  V30 4129 H 398.168 -1.76238 1.03732 0
M  V30 4130 H 396.323 -3.86339 -0.286471 0
M  V30 4131 H 396.737 -4.98857 1.61993 0
M  V30 4132 H 398.211 -5.52 -0.00560067 0
M  V30 4133 H 398.688 -4.2455 -1.12491 0
M  V30 4134 H 399.294 -4.21767 0.547055 0
M  V30 4135 N 397.609 -0.515225 -1.4894 0
M  V30 4136 C 398.858 0.0261361 -2.01683 0
M  V30 4137 C 399.171 1.36719 -1.39883 0
M  V30 4138 O 400.377 1.99606 -1.84037 0
M  V30 4139 C 398.833 0.0970111 -3.59769 0
M  V30 4140 C 398.441 -1.23825 -4.30548 0
M  V30 4141 C 400.185 0.587981 -4.20408 0
M  V30 4142 C 398.092 -1.12877 -5.80528 0
M  V30 4143 H 397.022 0.0135398 -0.753878 0
M  V30 4144 H 399.673 -0.656787 -1.71343 0
M  V30 4145 H 398.055 0.844694 -3.86886 0
M  V30 4146 H 399.229 -2.00034 -4.15118 0
M  V30 4147 H 397.544 -1.66379 -3.81716 0
M  V30 4148 H 400.141 0.68763 -5.3026 0
M  V30 4149 H 400.484 1.59026 -3.84729 0
M  V30 4150 H 401.017 -0.103582 -3.97665 0
M  V30 4151 H 397.756 -2.10575 -6.20756 0
M  V30 4152 H 397.276 -0.407799 -5.98412 0
M  V30 4153 H 398.955 -0.813332 -6.41868 0
M  V30 4154 N 399.087 1.5561 -0.249682 0
M  V30 4155 C 400.05 2.20217 0.635394 0
M  V30 4156 C 401.05 1.17227 1.10066 0
M  V30 4157 O 402.24 1.42292 1.00492 0
M  V30 4158 C 399.372 2.84794 1.87363 0
M  V30 4159 H 400.565 2.99814 0.0716752 0
M  V30 4160 H 398.118 1.563 -0.000153234 0
M  V30 4161 H 398.853 2.09142 2.47851 0
M  V30 4162 H 398.638 3.60241 1.5482 0
M  V30 4163 H 400.128 3.3423 2.5036 0
M  V30 4164 N 400.565 -0.0233959 1.57583 0
M  V30 4165 C 401.497 -1.04994 2.03737 0
M  V30 4166 C 402.51 -1.32125 0.951152 0
M  V30 4167 O 403.699 -1.29512 1.22837 0
M  V30 4168 C 400.799 -2.39026 2.40249 0
M  V30 4169 C 399.972 -2.31171 3.7132 0
M  V30 4170 C 399.031 -3.47698 3.94959 0
M  V30 4171 O 398.057 -3.26937 4.65941 0
M  V30 4172 N 399.259 -4.6976 3.41037 0
M  V30 4173 H 402.024 -0.656507 2.92421 0
M  V30 4174 H 399.585 -0.211235 1.60516 0
M  V30 4175 H 401.577 -3.15712 2.53196 0
M  V30 4176 H 400.147 -2.70194 1.57207 0
M  V30 4177 H 399.367 -1.39547 3.68674 0
M  V30 4178 H 400.655 -2.23071 4.57293 0
M  V30 4179 H 400.053 -4.89528 2.83512 0
M  V30 4180 H 398.61 -5.43791 3.59353 0
M  V30 4181 N 402.043 -1.548 -0.295768 0
M  V30 4182 C 403.289 -1.75517 -1.02789 0
M  V30 4183 C 403.644 -0.537266 -1.84746 0
M  V30 4184 O 402.937 0.470299 -1.85738 0
M  V30 4185 C 403.131 -2.98797 -1.961 0
M  V30 4186 C 402.96 -4.3246 -1.23321 0
M  V30 4187 C 401.73 -4.96131 -0.95822 0
M  V30 4188 C 403.928 -5.10365 -0.635024 0
M  V30 4189 N 401.91 -6.1357 -0.201257 0
M  V30 4190 C 403.281 -6.19999 -0.0110937 0
M  V30 4191 C 405.336 -4.94957 -0.540594 0
M  V30 4192 C 404.039 -7.15904 0.698136 0
M  V30 4193 C 406.065 -5.91197 0.154992 0
M  V30 4194 C 405.427 -7.00203 0.767752 0
M  V30 4195 H 401.526 -0.694786 -0.358882 0
M  V30 4196 H 404.11 -1.92281 -0.305943 0
M  V30 4197 H 402.281 -2.83448 -2.6554 0
M  V30 4198 H 404.013 -3.08017 -2.62502 0
M  V30 4199 H 400.768 -4.56595 -1.25771 0
M  V30 4200 H 401.192 -6.76802 0.16389 0
M  V30 4201 H 405.834 -4.10803 -1.00003 0
M  V30 4202 H 403.552 -7.99595 1.16933 0
M  V30 4203 H 407.138 -5.81353 0.228069 0
M  V30 4204 H 406.018 -7.73393 1.29743 0
M  V30 4205 N 403.521 0.559213 -1.47345 0
M  V30 4206 C 404.484 1.64854 -1.59235 0
M  V30 4207 C 405.484 1.53851 -0.467607 0
M  V30 4208 O 406.674 1.58045 -0.732617 0
M  V30 4209 C 403.806 3.04388 -1.53496 0
M  V30 4210 H 404.999 1.55662 -2.56339 0
M  V30 4211 H 402.552 0.778973 -1.35505 0
M  V30 4212 H 403.287 3.19115 -0.577604 0
M  V30 4213 H 403.072 3.13783 -2.35123 0
M  V30 4214 H 404.562 3.83642 -1.6495 0
M  V30 4215 N 404.999 1.35443 0.805782 0
M  V30 4216 C 406.227 1.31878 1.59423 0
M  V30 4217 C 406.642 -0.103562 1.88516 0
M  V30 4218 O 405.999 -1.05575 1.48863 0
M  V30 4219 C 406.05 2.12426 2.92502 0
M  V30 4220 O 405.771 3.49115 2.6467 0
M  V30 4221 C 407.272 2.16455 3.86862 0
M  V30 4222 H 404.492 0.453002 0.495005 0
M  V30 4223 H 407.036 1.78309 1.00131 0
M  V30 4224 H 405.191 1.69593 3.48306 0
M  V30 4225 H 405.605 3.90957 3.49647 0
M  V30 4226 H 407.079 2.77204 4.77349 0
M  V30 4227 H 407.556 1.16352 4.23508 0
M  V30 4228 H 408.162 2.59453 3.36993 0
M  V30 4229 N 406.477 -1.02803 1.19454 0
M  V30 4230 C 407.407 -2.12999 0.956758 0
M  V30 4231 C 408.388 -1.69743 -0.110188 0
M  V30 4232 O 409.573 -1.94148 0.0450038 0
M  V30 4233 C 406.703 -3.43746 0.495553 0
M  V30 4234 C 405.657 -4.00688 1.50443 0
M  V30 4235 C 404.983 -5.27067 0.900275 0
M  V30 4236 C 406.283 -4.35397 2.8849 0
M  V30 4237 H 407.977 -2.33148 1.87836 0
M  V30 4238 H 405.523 -1.12045 0.904539 0
M  V30 4239 H 407.476 -4.2021 0.316493 0
M  V30 4240 H 406.2 -3.23321 -0.461646 0
M  V30 4241 H 404.859 -3.2632 1.67065 0
M  V30 4242 H 404.507 -5.02959 -0.064503 0
M  V30 4243 H 404.207 -5.66127 1.57397 0
M  V30 4244 H 405.731 -6.06196 0.73203 0
M  V30 4245 H 407.145 -5.02795 2.75446 0
M  V30 4246 H 405.542 -4.85541 3.52661 0
M  V30 4247 H 406.612 -3.44662 3.41081 0
M  V30 4248 N 407.956 -0.998596 -1.21925 0
M  V30 4249 C 408.866 -0.562736 -2.27751 0
M  V30 4250 C 409.882 0.391203 -1.69545 0
M  V30 4251 O 411.058 0.256625 -1.99758 0
M  V30 4252 C 408.123 0.11012 -3.46525 0
M  V30 4253 C 407.184 -0.887495 -4.20026 0
M  V30 4254 C 406.417 -0.246654 -5.3313 0
M  V30 4255 O 406.64 0.958088 -5.62296 0
M  V30 4256 O 405.574 -0.954374 -5.94286 0
M  V30 4257 H 409.4 -1.44329 -2.67213 0
M  V30 4258 H 406.985 -0.767135 -1.28201 0
M  V30 4259 H 408.867 0.486756 -4.18579 0
M  V30 4260 H 407.542 0.965154 -3.08976 0
M  V30 4261 H 406.449 -1.31517 -3.5022 0
M  V30 4262 H 407.782 -1.71191 -4.6147 0
M  V30 4263 N 409.434 1.37368 -0.772513 0
M  V30 4264 C 410.397 2.28601 -0.165541 0
M  V30 4265 C 411.397 1.48062 0.627238 0
M  V30 4266 O 412.587 1.68268 0.450715 0
M  V30 4267 C 409.719 3.32023 0.772897 0
M  V30 4268 H 410.912 2.83787 -0.969787 0
M  V30 4269 H 408.465 1.46647 -0.540775 0
M  V30 4270 H 409.2 2.81962 1.60212 0
M  V30 4271 H 408.985 3.91555 0.206585 0
M  V30 4272 H 410.475 4.00197 1.19298 0
M  V30 4273 N 410.912 0.523116 1.48665 0
M  V30 4274 C 411.842 -0.23231 2.32342 0
M  V30 4275 C 412.823 -0.941637 1.41659 0
M  V30 4276 O 414.008 -0.928751 1.70552 0
M  V30 4277 C 411.138 -1.28387 3.22698 0
M  V30 4278 C 410.092 -0.693098 4.22351 0
M  V30 4279 C 409.418 -1.8468 5.01794 0
M  V30 4280 C 410.718 0.33063 5.21252 0
M  V30 4281 H 412.412 0.466192 2.95748 0
M  V30 4282 H 409.958 0.225643 1.42221 0
M  V30 4283 H 411.911 -1.82024 3.80059 0
M  V30 4284 H 410.635 -2.01186 2.57278 0
M  V30 4285 H 409.294 -0.178299 3.66166 0
M  V30 4286 H 408.942 -2.56301 4.32804 0
M  V30 4287 H 408.642 -1.45747 5.69238 0
M  V30 4288 H 410.166 -2.38709 5.62006 0
M  V30 4289 H 411.58 -0.118407 5.73178 0
M  V30 4290 H 409.977 0.636974 5.9671 0
M  V30 4291 H 411.047 1.23883 4.68808 0
M  V30 4292 N 412.39 -1.55475 0.257931 0
M  V30 4293 C 413.618 -2.03609 -0.367559 0
M  V30 4294 C 414.033 -1.13687 -1.50734 0
M  V30 4295 O 413.39 -0.153479 -1.81853 0
M  V30 4296 C 413.441 -3.51001 -0.864908 0
M  V30 4297 O 413.162 -4.37499 0.229465 0
M  V30 4298 C 414.663 -4.14946 -1.55997 0
M  V30 4299 H 411.883 -0.665459 -0.0860521 0
M  V30 4300 H 414.427 -2.00843 0.385014 0
M  V30 4301 H 412.582 -3.54266 -1.56762 0
M  V30 4302 H 412.996 -5.24286 -0.14998 0
M  V30 4303 H 414.47 -5.19735 -1.85956 0
M  V30 4304 H 414.947 -3.6209 -2.4857 0
M  V30 4305 H 415.553 -4.15635 -0.901543 0
M  V30 4306 N 413.868 0.0150385 -1.57593 0
M  V30 4307 C 414.816 1.02958 -2.08572 0
M  V30 4308 C 415.81 1.36554 -1.00246 0
M  V30 4309 O 417.016 1.35295 -1.18724 0
M  V30 4310 H 413.391 0.349619 -0.665786 0
M  V30 4311 H 415.362 0.573932 -2.92829 0
M  V30 4312 C 414.111 2.31752 -2.59203 0
M  V30 4313 H 413.434 2.06765 -3.42182 0
M  V30 4314 H 414.874 3.01053 -2.98568 0
M  V30 4315 C 413.333 3.01692 -1.49945 0
M  V30 4316 O 413.863 3.92083 -0.873704 0
M  V30 4317 N 412.069 2.6326 -1.23056 0
M  V30 4318 H 411.616 1.89838 -1.74125 0
M  V30 4319 H 411.574 3.10372 -0.501685 0
M  V30 4320 N 415.346 1.54954 0.287554 0
M  V30 4321 C 416.278 1.83224 1.37701 0
M  V30 4322 C 417.291 0.715898 1.46215 0
M  V30 4323 O 418.48 0.993565 1.48292 0
M  V30 4324 C 415.58 1.96723 2.75959 0
M  V30 4325 C 414.753 3.27253 2.90215 0
M  V30 4326 C 413.812 3.30998 4.09056 0
M  V30 4327 O 412.838 4.04457 4.00503 0
M  V30 4328 N 414.04 2.57353 5.20336 0
M  V30 4329 H 416.805 2.77254 1.138 0
M  V30 4330 H 414.366 1.54694 0.477652 0
M  V30 4331 H 416.358 1.96615 3.5373 0
M  V30 4332 H 414.928 1.09626 2.92747 0
M  V30 4333 H 414.148 3.40022 1.99447 0
M  V30 4334 H 415.436 4.13365 2.96659 0
M  V30 4335 H 414.834 1.97327 5.30169 0
M  V30 4336 H 413.391 2.62984 5.96391 0
M  V30 4337 N 416.824 -0.551391 1.4764 0
M  V30 4338 C 417.734 -1.68525 1.63207 0
M  V30 4339 C 418.75 -1.6621 0.514815 0
M  V30 4340 O 419.926 -1.85551 0.783113 0
M  V30 4341 C 416.991 -3.05025 1.64805 0
M  V30 4342 C 416.052 -3.18362 2.88 0
M  V30 4343 C 415.285 -4.4835 2.89513 0
M  V30 4344 O 415.508 -5.34163 2.00065 0
M  V30 4345 O 414.442 -4.65602 3.81443 0
M  V30 4346 H 418.268 -1.58333 2.59161 0
M  V30 4347 H 415.853 -0.722063 1.30792 0
M  V30 4348 H 417.735 -3.86245 1.68502 0
M  V30 4349 H 416.41 -3.15587 0.720197 0
M  V30 4350 H 415.317 -2.36518 2.89845 0
M  V30 4351 H 416.65 -3.12707 3.80099 0
M  V30 4352 N 418.302 -1.35869 -0.798587 0
M  V30 4353 C 419.265 -1.29307 -1.89242 0
M  V30 4354 C 420.265 -0.202747 -1.59517 0
M  V30 4355 O 421.455 -0.456957 -1.681 0
M  V30 4356 C 418.587 -1.00229 -3.25833 0
M  V30 4357 H 419.78 -2.26576 -1.96478 0
M  V30 4358 H 417.333 -1.20509 -0.995358 0
M  V30 4359 H 418.068 -0.033801 -3.24282 0
M  V30 4360 H 417.853 -1.79121 -3.48795 0
M  V30 4361 H 419.343 -0.98219 -4.05885 0
M  V30 4362 N 419.78 1.02168 -1.19998 0
M  V30 4363 C 421.005 1.79833 -1.03319 0
M  V30 4364 C 421.43 1.83504 0.413281 0
M  V30 4365 O 420.788 1.26635 1.29743 0
M  V30 4366 C 420.836 3.22396 -1.61533 0
M  V30 4367 O 419.94 4.03555 -0.849519 0
M  V30 4368 H 419.281 0.554872 -0.364709 0
M  V30 4369 H 421.811 1.28542 -1.59179 0
M  V30 4370 H 421.821 3.73124 -1.65054 0
M  V30 4371 H 420.496 3.19039 -2.66809 0
M  V30 4372 H 419.073 3.62169 -0.888129 0
M  V30 4373 N 421.258 1.00505 1.21394 0
M  V30 4374 C 422.674 0.717873 1.42544 0
M  V30 4375 C 422.874 -0.706936 1.88692 0
M  V30 4376 O 421.93 -1.47627 2.04847 0
M  V30 4377 C 423.243 1.73377 2.45684 0
M  V30 4378 C 424.791 1.75059 2.59467 0
M  V30 4379 C 425.266 2.75545 3.6584 0
M  V30 4380 N 426.757 2.74213 3.73311 0
M  V30 4381 C 427.492 3.48626 4.55245 0
M  V30 4382 N 426.988 4.32678 5.41075 0
M  V30 4383 N 428.781 3.37276 4.49668 0
M  V30 4384 H 420.932 1.92506 0.897503 0
M  V30 4385 H 423.195 0.830919 0.456375 0
M  V30 4386 H 422.901 2.75395 2.18748 0
M  V30 4387 H 422.775 1.53647 3.44489 0
M  V30 4388 H 425.162 0.737337 2.8574 0
M  V30 4389 H 425.243 1.98861 1.60897 0
M  V30 4390 H 424.887 3.77028 3.40313 0
M  V30 4391 H 424.817 2.49009 4.64007 0
M  V30 4392 H 427.308 2.13234 3.11993 0
M  V30 4393 H 427.621 4.86253 6.00648 0
M  V30 4394 H 425.966 4.3676 5.40616 0
M  V30 4395 H 429.157 2.71043 3.81646 0
M  V30 4396 H 429.33 3.95524 5.13288 0
M  V30 4397 N 422.737 -1.36956 0.779787 0
M  V30 4398 C 423.7 -2.2851 0.177662 0
M  V30 4399 C 424.7 -1.48393 -0.619377 0
M  V30 4400 O 425.89 -1.68505 -0.441785 0
M  V30 4401 C 423.022 -3.32428 -0.755279 0
M  V30 4402 H 424.215 -2.83269 0.984823 0
M  V30 4403 H 421.768 -1.46358 0.548544 0
M  V30 4404 H 422.503 -2.82808 -1.58714 0
M  V30 4405 H 422.288 -3.91659 -0.185817 0
M  V30 4406 H 423.778 -4.00824 -1.17174 0
M  V30 4407 N 424.215 -0.530993 -1.48385 0
M  V30 4408 C 425.462 0.0027373 -2.025 0
M  V30 4409 C 425.79 1.34186 -1.40799 0
M  V30 4410 O 425.045 1.88 -0.543544 0
M  V30 4411 C 425.344 0.172742 -3.56982 0
M  V30 4412 C 425.01 -1.09215 -4.37473 0
M  V30 4413 C 423.672 -1.43881 -4.59186 0
M  V30 4414 C 426.024 -1.93153 -4.84088 0
M  V30 4415 C 423.352 -2.62381 -5.2476 0
M  V30 4416 C 425.704 -3.10833 -5.50968 0
M  V30 4417 C 424.368 -3.45843 -5.70919 0
M  V30 4418 H 423.638 0.00100165 -0.740999 0
M  V30 4419 H 426.285 -0.697219 -1.78357 0
M  V30 4420 H 424.59 0.955473 -3.79971 0
M  V30 4421 H 426.287 0.600642 -3.96476 0
M  V30 4422 H 422.877 -0.812177 -4.20834 0
M  V30 4423 H 427.061 -1.67683 -4.67115 0
M  V30 4424 H 422.317 -2.89707 -5.38405 0
M  V30 4425 H 426.491 -3.7618 -5.86056 0
M  V30 4426 H 424.118 -4.37764 -6.21503 0
M  V30 4427 N 425.693 1.55336 -0.266172 0
M  V30 4428 C 426.939 1.99692 0.353681 0
M  V30 4429 C 427.272 1.1543 1.56172 0
M  V30 4430 O 426.547 0.222218 1.93226 0
M  V30 4431 C 426.83 3.52316 0.74466 0
M  V30 4432 C 426.683 4.47337 -0.470101 0
M  V30 4433 C 428.002 4.10588 1.58447 0
M  V30 4434 H 425.121 0.725961 0.12708 0
M  V30 4435 H 427.763 1.86336 -0.371333 0
M  V30 4436 H 425.913 3.63829 1.36239 0
M  V30 4437 H 427.585 4.4778 -1.10864 0
M  V30 4438 H 425.828 4.19364 -1.10978 0
M  V30 4439 H 426.499 5.51788 -0.15291 0
M  V30 4440 H 428.975 4.02297 1.06286 0
M  V30 4441 H 427.851 5.17607 1.82686 0
M  V30 4442 H 428.112 3.60253 2.56262 0
M  V30 4443 N 427.171 -0.0066808 1.57599 0
M  V30 4444 C 428.081 -1.01671 2.11424 0
M  V30 4445 C 429.097 -1.38143 1.05795 0
M  V30 4446 O 430.273 -1.47011 1.37658 0
M  V30 4447 C 427.338 -2.29192 2.60139 0
M  V30 4448 C 426.399 -1.99094 3.80342 0
M  V30 4449 C 425.632 -3.20535 4.26724 0
M  V30 4450 O 425.855 -4.3199 3.72479 0
M  V30 4451 O 424.789 -3.04924 5.18946 0
M  V30 4452 H 428.615 -0.589181 2.9793 0
M  V30 4453 H 426.2 -0.225091 1.47695 0
M  V30 4454 H 428.082 -3.0412 2.917 0
M  V30 4455 H 426.757 -2.71195 1.76733 0
M  V30 4456 H 425.664 -1.21663 3.53764 0
M  V30 4457 H 426.997 -1.61931 4.648 0
M  V30 4458 N 428.649 -1.55105 -0.279332 0
M  V30 4459 C 429.582 -1.82467 -1.37044 0
M  V30 4460 C 430.56 -0.677261 -1.47824 0
M  V30 4461 O 431.744 -0.919578 -1.64548 0
M  V30 4462 C 428.871 -1.98066 -2.7475 0
M  V30 4463 C 427.917 -3.20594 -2.81286 0
M  V30 4464 S 428.75 -4.78116 -2.41175 0
M  V30 4465 C 429.906 -4.9668 -3.80867 0
M  V30 4466 H 430.139 -2.74728 -1.1363 0
M  V30 4467 H 427.672 -1.46794 -0.478625 0
M  V30 4468 H 429.63 -2.07739 -3.54055 0
M  V30 4469 H 428.291 -1.06704 -2.9542 0
M  V30 4470 H 427.484 -3.28376 -3.82341 0
M  V30 4471 H 427.086 -3.09479 -2.09996 0
M  V30 4472 H 429.378 -4.82033 -4.76078 0
M  V30 4473 H 430.321 -5.98741 -3.78041 0
M  V30 4474 H 430.729 -4.24698 -3.71876 0
M  V30 4475 N 430.127 0.543554 -1.4793 0
M  V30 4476 C 431.09 1.63156 -1.60975 0
M  V30 4477 C 432.09 1.53346 -0.483899 0
M  V30 4478 O 433.28 1.5726 -0.749339 0
M  V30 4479 C 430.412 3.02743 -1.56716 0
M  V30 4480 H 431.605 1.52934 -2.57975 0
M  V30 4481 H 429.158 0.764557 -1.36324 0
M  V30 4482 H 429.893 3.18484 -0.611418 0
M  V30 4483 H 429.678 3.11272 -2.38438 0
M  V30 4484 H 431.168 3.81871 -1.6901 0
M  V30 4485 N 431.605 1.3629 0.791371 0
M  V30 4486 C 433.021 1.16661 1.08914 0
M  V30 4487 C 433.221 -0.0106266 2.01497 0
M  V30 4488 O 432.277 -0.676596 2.43266 0
M  V30 4489 C 433.59 2.47656 1.70549 0
M  V30 4490 C 435.138 2.54002 1.82899 0
M  V30 4491 C 435.613 3.85078 2.47949 0
M  V30 4492 N 437.104 3.86413 2.5542 0
M  V30 4493 C 437.839 4.84572 3.06557 0
M  V30 4494 N 437.335 5.93124 3.58016 0
M  V30 4495 N 439.128 4.71994 3.05251 0
M  V30 4496 H 431.279 2.11668 0.176238 0
M  V30 4497 H 433.542 0.937486 0.140796 0
M  V30 4498 H 433.248 3.34059 1.09989 0
M  V30 4499 H 433.122 2.63319 2.70079 0
M  V30 4500 H 435.509 1.68018 2.42598 0
M  V30 4501 H 435.59 2.42239 0.821808 0
M  V30 4502 H 435.234 4.71467 1.88895 0
M  V30 4503 H 435.164 3.94135 3.49235 0
M  V30 4504 H 437.655 3.07988 2.18979 0
M  V30 4505 H 437.968 6.63999 3.95381 0
M  V30 4506 H 436.313 5.96796 3.56173 0
M  V30 4507 H 439.504 3.86321 2.64336 0
M  V30 4508 H 439.677 5.48653 3.44796 0
M  V30 4509 N 433.083 -1.0153 1.20538 0
M  V30 4510 C 433.993 -2.13557 0.971113 0
M  V30 4511 C 435.009 -1.73845 -0.0734366 0
M  V30 4512 O 436.185 -2.01075 0.114299 0
M  V30 4513 C 433.25 -3.42661 0.527639 0
M  V30 4514 C 432.311 -3.96608 1.64319 0
M  V30 4515 C 431.544 -5.1955 1.22078 0
M  V30 4516 O 431.767 -5.70329 0.0900198 0
M  V30 4517 O 430.701 -5.66681 2.02871 0
M  V30 4518 H 434.527 -2.3619 1.90913 0
M  V30 4519 H 432.112 -1.11946 0.989362 0
M  V30 4520 H 433.994 -4.20404 0.289621 0
M  V30 4521 H 432.669 -3.21441 -0.381779 0
M  V30 4522 H 431.576 -3.20139 1.93551 0
M  V30 4523 H 432.909 -4.22219 2.52966 0
M  V30 4524 N 434.561 -1.01147 -1.20859 0
M  V30 4525 C 435.524 -0.582224 -2.21682 0
M  V30 4526 C 436.524 0.344887 -1.57058 0
M  V30 4527 O 437.714 0.134281 -1.73682 0
M  V30 4528 C 434.846 0.150496 -3.40568 0
M  V30 4529 H 436.039 -1.47408 -2.61172 0
M  V30 4530 H 433.592 -0.800695 -1.34233 0
M  V30 4531 H 434.327 1.0575 -3.06574 0
M  V30 4532 H 434.112 -0.515444 -3.88697 0
M  V30 4533 H 435.602 0.438344 -4.15293 0
M  V30 4534 N 436.039 1.36541 -0.78704 0
M  V30 4535 C 437.269 2.03266 -0.369662 0
M  V30 4536 C 437.677 1.59481 1.01796 0
M  V30 4537 O 437.02 0.778612 1.66383 0
M  V30 4538 C 437.082 3.57779 -0.351371 0
M  V30 4539 C 436.746 4.24756 -1.68617 0
M  V30 4540 C 437.743 4.47811 -2.64124 0
M  V30 4541 C 435.428 4.62277 -1.96481 0
M  V30 4542 C 437.422 5.07464 -3.85693 0
M  V30 4543 C 435.109 5.21649 -3.18317 0
M  V30 4544 C 436.107 5.44182 -4.12741 0
M  V30 4545 O 435.795 6.02307 -5.32429 0
M  V30 4546 H 435.527 0.658977 -0.150751 0
M  V30 4547 H 438.081 1.75548 -1.0664 0
M  V30 4548 H 436.311 3.84606 0.401847 0
M  V30 4549 H 438 4.05879 0.0410147 0
M  V30 4550 H 438.766 4.19221 -2.43883 0
M  V30 4551 H 434.645 4.44065 -1.23805 0
M  V30 4552 H 438.189 5.24968 -4.59407 0
M  V30 4553 H 434.086 5.49664 -3.38437 0
M  V30 4554 H 434.854 6.20775 -5.33461 0
M  V30 4555 N 437.518 0.538854 1.48102 0
M  V30 4556 C 438.934 0.19732 1.58376 0
M  V30 4557 C 439.134 -1.29971 1.5398 0
M  V30 4558 O 438.19 -2.07861 1.43352 0
M  V30 4559 C 439.503 0.807716 2.89649 0
M  V30 4560 C 441.051 0.77726 3.03196 0
M  V30 4561 C 441.526 1.36639 4.37143 0
M  V30 4562 N 443.017 1.32875 4.43732 0
M  V30 4563 C 443.752 1.7544 5.45901 0
M  V30 4564 N 443.248 2.25776 6.54979 0
M  V30 4565 N 445.041 1.66623 5.36836 0
M  V30 4566 H 437.192 1.5117 1.49202 0
M  V30 4567 H 439.455 0.629327 0.708979 0
M  V30 4568 H 439.161 1.85909 2.98548 0
M  V30 4569 H 439.035 0.289975 3.76084 0
M  V30 4570 H 441.422 -0.265374 2.93904 0
M  V30 4571 H 441.503 1.33256 2.18349 0
M  V30 4572 H 441.147 2.408 4.47189 0
M  V30 4573 H 441.077 0.786689 5.20691 0
M  V30 4574 H 443.568 0.96037 3.65493 0
M  V30 4575 H 443.881 2.56226 7.29087 0
M  V30 4576 H 442.226 2.29775 6.55918 0
M  V30 4577 H 445.417 1.27089 4.50517 0
M  V30 4578 H 445.59 2.00115 6.16326 0
M  V30 4579 N 438.996 -1.55193 0.274407 0
M  V30 4580 C 440.412 -1.59401 -0.0797543 0
M  V30 4581 C 440.612 -1.29162 -1.54659 0
M  V30 4582 O 439.668 -1.05215 -2.29534 0
M  V30 4583 C 440.981 -2.99257 0.294238 0
M  V30 4584 C 442.529 -3.12072 0.240796 0
M  V30 4585 C 443.004 -4.54194 0.589218 0
M  V30 4586 N 444.495 -4.60033 0.540744 0
M  V30 4587 C 445.23 -5.68027 0.783147 0
M  V30 4588 N 444.726 -6.8417 1.09013 0
M  V30 4589 N 446.519 -5.57572 0.711993 0
M  V30 4590 H 438.67 -1.73113 1.23067 0
M  V30 4591 H 440.933 -0.807197 0.497129 0
M  V30 4592 H 440.639 -3.26217 1.31435 0
M  V30 4593 H 440.513 -3.75427 -0.365281 0
M  V30 4594 H 442.9 -2.84877 -0.770024 0
M  V30 4595 H 442.981 -2.38117 0.934563 0
M  V30 4596 H 442.625 -4.82115 1.59772 0
M  V30 4597 H 442.555 -5.26448 -0.126331 0
M  V30 4598 H 445.046 -3.76599 0.313327 0
M  V30 4599 H 445.359 -7.6243 1.26178 0
M  V30 4600 H 443.704 -6.85787 1.12789 0
M  V30 4601 H 446.895 -4.65714 0.472014 0
M  V30 4602 H 447.068 -6.41659 0.90429 0
M  V30 4603 N 440.474 -0.00167713 -1.576 0
M  V30 4604 C 441.89 0.354422 -1.55615 0
M  V30 4605 C 442.09 1.74679 -1.00447 0
M  V30 4606 O 441.146 2.4428 -0.639022 0
M  V30 4607 C 442.459 0.22812 -2.99833 0
M  V30 4608 C 444.007 0.302934 -3.11531 0
M  V30 4609 C 444.482 0.205737 -4.57538 0
M  V30 4610 N 445.973 0.263584 -4.62449 0
M  V30 4611 C 446.708 0.211742 -5.73009 0
M  V30 4612 N 446.204 0.110399 -6.92712 0
M  V30 4613 N 447.997 0.263729 -5.61481 0
M  V30 4614 H 440.148 -0.912498 -1.918 0
M  V30 4615 H 442.411 -0.349928 -0.881053 0
M  V30 4616 H 442.117 -0.729934 -3.44042 0
M  V30 4617 H 441.991 1.00951 -3.6344 0
M  V30 4618 H 444.378 1.25143 -2.67251 0
M  V30 4619 H 444.459 -0.508357 -2.50698 0
M  V30 4620 H 444.103 -0.739225 -5.02492 0
M  V30 4621 H 444.033 1.03554 -5.16318 0
M  V30 4622 H 446.524 0.343173 -3.76339 0
M  V30 4623 H 446.837 0.0767828 -7.72762 0
M  V30 4624 H 445.182 0.0760025 -6.94958 0
M  V30 4625 H 448.373 0.34111 -4.66855 0
M  V30 4626 H 448.546 0.219862 -6.47627 0
M  V30 4627 N 441.952 1.55251 0.271103 0
M  V30 4628 C 443.368 1.47133 0.618393 0
M  V30 4629 C 443.568 0.686994 1.89427 0
M  V30 4630 O 442.624 0.206609 2.51653 0
M  V30 4631 C 443.937 2.91361 0.743593 0
M  V30 4632 C 445.485 3.01587 0.837522 0
M  V30 4633 C 445.96 4.47073 0.994483 0
M  V30 4634 N 447.451 4.50909 1.05996 0
M  V30 4635 C 448.186 5.60698 1.20024 0
M  V30 4636 N 447.682 6.80348 1.30759 0
M  V30 4637 N 449.475 5.48444 1.23149 0
M  V30 4638 H 441.626 2.04698 -0.566784 0
M  V30 4639 H 443.889 0.928319 -0.192165 0
M  V30 4640 H 443.595 3.51483 -0.123493 0
M  V30 4641 H 443.469 3.40484 1.62328 0
M  V30 4642 H 445.856 2.4156 1.69507 0
M  V30 4643 H 445.937 2.55713 -0.0668086 0
M  V30 4644 H 445.581 5.07703 0.141582 0
M  V30 4645 H 445.511 4.90605 1.91349 0
M  V30 4646 H 448.002 3.6472 0.989316 0
M  V30 4647 H 448.315 7.59772 1.41303 0
M  V30 4648 H 446.66 6.83156 1.27761 0
M  V30 4649 H 449.851 4.53907 1.14394 0
M  V30 4650 H 450.024 6.34049 1.33738 0
M  V30 4651 N 443.43 -0.535701 1.48216 0
M  V30 4652 C 444.707 -1.29683 1.46429 0
M  V30 4653 C 445.087 -2.10391 0.172852 0
M  V30 4654 O 444.435 -2.12282 -0.845488 0
M  V30 4655 C 444.645 -2.18313 2.72287 0
M  V30 4656 C 445.993 -2.78639 3.20383 0
M  V30 4657 O 447.017 -2.28604 2.73164 0
M  V30 4658 O 445.876 -3.69636 4.02531 0
M  V30 4659 H 442.97 -0.585026 0.584529 0
M  V30 4660 H 445.516 -0.552827 1.60443 0
M  V30 4661 H 444.288 -1.58421 3.57797 0
M  V30 4662 H 443.911 -2.99971 2.60966 0
M  V30 4663 N 444.908 -1.36708 -0.784132 0
M  V30 4664 C 445.838 -1.34153 -1.91116 0
M  V30 4665 C 446.819 -0.212121 -1.68772 0
M  V30 4666 O 448.004 -0.410581 -1.8981 0
M  V30 4667 C 445.134 -1.13535 -3.28218 0
M  V30 4668 C 444.088 -2.23356 -3.65097 0
M  V30 4669 C 443.414 -1.87875 -5.00607 0
M  V30 4670 C 444.714 -3.65473 -3.73131 0
M  V30 4671 H 446.408 -2.28459 -1.93512 0
M  V30 4672 H 443.954 -1.09973 -0.929618 0
M  V30 4673 H 445.907 -1.10381 -4.06687 0
M  V30 4674 H 444.631 -0.156804 -3.26223 0
M  V30 4675 H 443.29 -2.25645 -2.88929 0
M  V30 4676 H 442.938 -0.885814 -4.95139 0
M  V30 4677 H 442.638 -2.61406 -5.26252 0
M  V30 4678 H 444.162 -1.86286 -5.81489 0
M  V30 4679 H 445.576 -3.65382 -4.41779 0
M  V30 4680 H 443.973 -4.37953 -4.10265 0
M  V30 4681 H 445.043 -3.99995 -2.74102 0
M  V30 4682 N 446.386 1.0089 -1.21074 0
M  V30 4683 C 447.316 2.1145 -0.990523 0
M  V30 4684 C 448.297 1.69897 0.0831699 0
M  V30 4685 O 449.482 1.94052 -0.0758853 0
M  V30 4686 C 446.612 3.42914 -0.550177 0
M  V30 4687 C 445.566 3.98244 -1.56799 0
M  V30 4688 C 444.892 5.25568 -0.984013 0
M  V30 4689 C 446.192 4.30752 -2.95381 0
M  V30 4690 H 447.886 2.3013 -1.91521 0
M  V30 4691 H 445.432 1.10592 -0.92225 0
M  V30 4692 H 447.385 4.19653 -0.383305 0
M  V30 4693 H 446.109 3.24014 0.41015 0
M  V30 4694 H 444.768 3.23621 -1.72236 0
M  V30 4695 H 444.416 5.02998 -0.0155216 0
M  V30 4696 H 444.116 5.63551 -1.66384 0
M  V30 4697 H 445.64 6.04955 -0.828378 0
M  V30 4698 H 447.054 4.98349 -2.8341 0
M  V30 4699 H 445.451 4.79869 -3.60341 0
M  V30 4700 H 446.521 3.39192 -3.46521 0
M  V30 4701 N 447.864 1.01787 1.20321 0
M  V30 4702 C 448.794 0.609625 2.25401 0
M  V30 4703 C 449.775 -0.375951 1.65893 0
M  V30 4704 O 450.96 -0.261101 1.92437 0
M  V30 4705 C 448.09 -0.0515995 3.47262 0
M  V30 4706 C 447.044 0.855095 4.19371 0
M  V30 4707 C 446.37 0.0595757 5.34667 0
M  V30 4708 C 447.67 2.16374 4.75373 0
M  V30 4709 H 449.364 1.48803 2.59804 0
M  V30 4710 H 446.91 0.716934 1.24884 0
M  V30 4711 H 448.863 -0.348764 4.19954 0
M  V30 4712 H 447.587 -0.964726 3.12027 0
M  V30 4713 H 446.246 1.13628 3.48546 0
M  V30 4714 H 445.894 -0.85524 4.95676 0
M  V30 4715 H 445.594 0.663406 5.83843 0
M  V30 4716 H 447.118 -0.231105 6.10162 0
M  V30 4717 H 448.532 1.92885 5.39878 0
M  V30 4718 H 446.929 2.71853 5.34991 0
M  V30 4719 H 447.999 2.82589 3.94045 0
M  V30 4720 N 449.342 -1.36122 0.79427 0
M  V30 4721 C 450.252 -2.33769 0.197296 0
M  V30 4722 C 451.268 -1.61276 -0.653153 0
M  V30 4723 O 452.444 -1.9323 -0.5678 0
M  V30 4724 C 449.509 -3.40474 -0.654098 0
M  V30 4725 C 448.57 -4.28759 0.215411 0
M  V30 4726 C 447.803 -5.30368 -0.595443 0
M  V30 4727 O 448.026 -5.40211 -1.83107 0
M  V30 4728 O 446.96 -6.019 0.00721351 0
M  V30 4729 H 450.786 -2.86597 1.00478 0
M  V30 4730 H 448.371 -1.38676 0.555818 0
M  V30 4731 H 450.253 -4.05703 -1.13944 0
M  V30 4732 H 448.928 -2.89937 -1.43938 0
M  V30 4733 H 447.835 -3.66554 0.747615 0
M  V30 4734 H 449.168 -4.82661 0.964332 0
M  V30 4735 N 450.82 -0.546701 -1.47814 0
M  V30 4736 C 452.068 -0.0187037 -2.02091 0
M  V30 4737 C 452.389 1.33168 -1.42447 0
M  V30 4738 O 451.659 1.86619 -0.595839 0
M  V30 4739 H 450.239 -0.00392531 -0.74699 0
M  V30 4740 H 452.901 -0.714327 -1.81338 0
M  V30 4741 H 451.997 0.0772219 -3.12004 0
M  V30 4742 N 452.299 1.55045 -0.282633 0
M  V30 4743 C 453.229 2.2579 0.595066 0
M  V30 4744 C 454.21 1.25074 1.15284 0
M  V30 4745 O 455.395 1.5381 1.18559 0
M  V30 4746 C 452.525 2.98472 1.77572 0
M  V30 4747 C 451.479 4.0618 1.34914 0
M  V30 4748 C 450.805 4.66477 2.6135 0
M  V30 4749 C 452.105 5.1996 0.493821 0
M  V30 4750 H 453.799 2.994 0.00505653 0
M  V30 4751 H 451.345 1.44 0.000992001 0
M  V30 4752 H 453.298 3.46677 2.39568 0
M  V30 4753 H 452.022 2.2241 2.39168 0
M  V30 4754 H 450.681 3.58797 0.752338 0
M  V30 4755 H 450.329 3.87074 3.2122 0
M  V30 4756 H 450.029 5.39207 2.33516 0
M  V30 4757 H 451.553 5.17435 3.24181 0
M  V30 4758 H 452.967 5.64172 1.01898 0
M  V30 4759 H 451.364 5.99299 0.310047 0
M  V30 4760 H 452.434 4.82462 -0.485593 0
M  V30 4761 N 453.777 0.010035 1.57597 0
M  V30 4762 C 455.005 -0.683413 1.95287 0
M  V30 4763 C 455.42 -1.66747 0.885481 0
M  V30 4764 O 454.777 -1.82003 -0.134629 0
M  V30 4765 C 454.828 -1.40652 3.33015 0
M  V30 4766 O 454.549 -0.461916 4.35658 0
M  V30 4767 C 456.05 -2.19356 3.85225 0
M  V30 4768 H 453.27 -0.189708 0.643624 0
M  V30 4769 H 455.814 0.0641359 2.04399 0
M  V30 4770 H 453.969 -2.10562 3.2518 0
M  V30 4771 H 454.383 -0.973215 5.15392 0
M  V30 4772 H 455.857 -2.65433 4.83993 0
M  V30 4773 H 456.334 -3.02457 3.18459 0
M  V30 4774 H 456.94 -1.54442 3.96267 0
M  V30 4775 N 455.255 -1.55392 -0.262866 0
M  V30 4776 C 456.218 -1.88181 -1.30846 0
M  V30 4777 C 457.218 -0.757079 -1.41862 0
M  V30 4778 O 458.408 -1.02519 -1.40838 0
M  V30 4779 C 455.54 -2.09609 -2.68844 0
M  V30 4780 H 456.733 -2.81659 -1.02997 0
M  V30 4781 H 454.286 -1.48039 -0.501414 0
M  V30 4782 H 455.021 -1.18547 -3.01856 0
M  V30 4783 H 454.806 -2.91508 -2.62231 0
M  V30 4784 H 456.296 -2.36215 -3.44372 0
M  V30 4785 N 456.733 0.527833 -1.48498 0
M  V30 4786 C 457.663 1.64136 -1.66077 0
M  V30 4787 C 458.644 1.62286 -0.509625 0
M  V30 4788 O 459.829 1.79449 -0.742413 0
M  V30 4789 C 456.959 3.02717 -1.70234 0
M  V30 4790 C 455.913 3.19426 -2.8487 0
M  V30 4791 C 455.239 4.5909 -2.74118 0
M  V30 4792 C 456.539 3.01993 -4.26142 0
M  V30 4793 H 458.233 1.4968 -2.593 0
M  V30 4794 H 455.779 0.718654 -1.24785 0
M  V30 4795 H 457.732 3.80491 -1.8112 0
M  V30 4796 H 456.456 3.18201 -0.735911 0
M  V30 4797 H 455.115 2.4407 -2.73542 0
M  V30 4798 H 454.763 4.71413 -1.7544 0
M  V30 4799 H 454.463 4.71214 -3.51042 0
M  V30 4800 H 455.987 5.3896 -2.86974 0
M  V30 4801 H 457.401 3.69558 -4.38292 0
M  V30 4802 H 455.798 3.2561 -5.04082 0
M  V30 4803 H 456.868 1.98396 -4.42456 0
M  V30 4804 N 458.211 1.37122 0.776871 0
M  V30 4805 C 459.459 1.31787 1.53221 0
M  V30 4806 C 459.78 -0.0987589 1.9475 0
M  V30 4807 O 459.05 -1.0417 1.65908 0
M  V30 4808 H 457.63 0.484839 0.568278 0
M  V30 4809 H 460.292 1.71556 0.924917 0
M  V30 4810 H 459.388 1.95355 2.43398 0
M  V30 4811 N 459.689 -1.00246 1.21608 0
M  V30 4812 C 460.619 -2.10921 1.00172 0
M  V30 4813 C 461.6 -1.69938 -0.0741587 0
M  V30 4814 O 462.785 -1.94009 0.0861753 0
M  V30 4815 C 459.915 -3.42618 0.568355 0
M  V30 4816 C 458.869 -3.97407 1.58909 0
M  V30 4817 C 458.195 -5.25038 1.01187 0
M  V30 4818 C 459.495 -4.2918 2.97661 0
M  V30 4819 H 461.189 -2.29112 1.92739 0
M  V30 4820 H 458.735 -1.10101 0.928102 0
M  V30 4821 H 460.688 -4.19444 0.405555 0
M  V30 4822 H 459.412 -3.24227 -0.392961 0
M  V30 4823 H 458.071 -3.22703 1.73949 0
M  V30 4824 H 457.719 -5.02982 0.0421965 0
M  V30 4825 H 457.419 -5.62661 1.6937 0
M  V30 4826 H 458.943 -6.04507 0.860448 0
M  V30 4827 H 460.357 -4.96839 2.86049 0
M  V30 4828 H 458.754 -4.77952 3.6288 0
M  V30 4829 H 459.824 -3.3735 3.48315 0
M  V30 4830 N 461.167 -1.02423 -1.1978 0
M  V30 4831 C 462.114 -0.601023 -2.22837 0
M  V30 4832 C 463.084 0.382801 -1.61629 0
M  V30 4833 O 464.269 0.280514 -1.88727 0
M  V30 4834 C 461.409 0.0467755 -3.45068 0
M  V30 4835 C 460.522 -0.98253 -4.20678 0
M  V30 4836 C 459.657 -0.304982 -5.30324 0
M  V30 4837 C 458.696 -1.32052 -5.97686 0
M  V30 4838 N 457.833 -0.669105 -6.98904 0
M  V30 4839 H 462.673 -1.48444 -2.58396 0
M  V30 4840 H 460.21 -0.742936 -1.2696 0
M  V30 4841 H 462.168 0.439556 -4.14878 0
M  V30 4842 H 460.798 0.893796 -3.10179 0
M  V30 4843 H 459.85 -1.49341 -3.49859 0
M  V30 4844 H 461.162 -1.75455 -4.66923 0
M  V30 4845 H 460.316 0.142893 -6.06532 0
M  V30 4846 H 459.055 0.499283 -4.85138 0
M  V30 4847 H 458.06 -1.7787 -5.20233 0
M  V30 4848 H 459.285 -2.1262 -6.44957 0
M  V30 4849 H 457.231 0.115152 -6.55899 0
M  V30 4850 H 457.148 -1.37908 -7.43315 0
M  V30 4851 H 458.416 -0.245076 -7.79115 0
M  V30 4852 N 462.645 1.35699 -0.801477 0
M  V30 4853 C 463.608 2.28199 -0.213994 0
M  V30 4854 C 464.608 1.49359 0.595691 0
M  V30 4855 O 465.798 1.69186 0.414921 0
M  V30 4856 C 462.93 3.33587 0.702297 0
M  V30 4857 H 464.123 2.81666 -1.02976 0
M  V30 4858 H 461.676 1.45467 -0.571759 0
M  V30 4859 H 462.411 2.85297 1.54195 0
M  V30 4860 H 462.196 3.91906 0.123484 0
M  V30 4861 H 463.686 4.02638 1.10783 0
M  V30 4862 N 464.123 0.554532 1.47522 0
M  V30 4863 C 465.369 0.0295227 2.02779 0
M  V30 4864 C 465.702 -1.31582 1.42828 0
M  V30 4865 O 464.977 -1.85561 0.582872 0
M  V30 4866 C 465.26 -0.0664057 3.60039 0
M  V30 4867 C 465.113 1.30585 4.30427 0
M  V30 4868 C 466.432 -0.781162 4.33112 0
M  V30 4869 H 463.551 0.0122027 0.736899 0
M  V30 4870 H 466.193 0.716305 1.7598 0
M  V30 4871 H 464.343 -0.651307 3.83002 0
M  V30 4872 H 466.015 1.93374 4.18813 0
M  V30 4873 H 464.258 1.88125 3.90886 0
M  V30 4874 H 464.929 1.19147 5.38988 0
M  V30 4875 H 467.405 -0.284565 4.15126 0
M  V30 4876 H 466.281 -0.817237 5.42782 0
M  V30 4877 H 466.542 -1.83672 4.0214 0
M  V30 4878 N 465.601 -1.54893 0.290851 0
M  V30 4879 C 467.017 -1.59476 -0.0628432 0
M  V30 4880 C 467.217 -1.30795 -1.5328 0
M  V30 4881 O 466.273 -1.07644 -2.28406 0
M  V30 4882 C 467.586 -2.98928 0.325962 0
M  V30 4883 C 469.134 -3.11799 0.273882 0
M  V30 4884 C 469.609 -4.53544 0.637359 0
M  V30 4885 N 471.1 -4.59433 0.589507 0
M  V30 4886 C 471.835 -5.67164 0.84335 0
M  V30 4887 N 471.331 -6.82975 1.16263 0
M  V30 4888 N 473.124 -5.56786 0.771091 0
M  V30 4889 H 465.275 -1.71798 1.24896 0
M  V30 4890 H 467.538 -0.801879 0.505663 0
M  V30 4891 H 467.244 -3.24805 1.34887 0
M  V30 4892 H 467.118 -3.75793 -0.325441 0
M  V30 4893 H 469.505 -2.85677 -0.739765 0
M  V30 4894 H 469.586 -2.37112 0.959766 0
M  V30 4895 H 469.23 -4.80394 1.64877 0
M  V30 4896 H 469.16 -5.26553 -0.0704866 0
M  V30 4897 H 471.651 -3.76245 0.353252 0
M  V30 4898 H 471.964 -7.61048 1.34257 0
M  V30 4899 H 470.309 -6.84552 1.20057 0
M  V30 4900 H 473.5 -4.65187 0.521383 0
M  V30 4901 H 473.673 -6.40664 0.972295 0
M  V30 4902 N 467.08 -0.0183926 -1.57589 0
M  V30 4903 C 468.491 0.521927 -1.79256 0
M  V30 4904 C 468.842 1.72885 -0.927636 0
M  V30 4905 O 467.967 2.15978 -0.135091 0
M  V30 4906 C 468.562 0.953632 -3.25102 0
M  V30 4907 C 467.121 1.43913 -3.47801 0
M  V30 4908 C 466.268 0.398837 -2.74417 0
M  V30 4909 H 469.219 -0.244485 -1.56805 0
M  V30 4910 H 469.24 1.81863 -3.34224 0
M  V30 4911 H 468.752 0.0750123 -3.88028 0
M  V30 4912 H 466.853 2.33804 -2.90115 0
M  V30 4913 H 466.966 1.45391 -4.56507 0
M  V30 4914 H 465.33 0.864572 -2.39577 0
M  V30 4915 H 466.113 -0.471132 -3.40052 0
M  V30 4916 N 468.558 1.5553 0.254621 0
M  V30 4917 C 469.783 1.81383 1.00573 0
M  V30 4918 C 470.208 0.594419 1.78461 0
M  V30 4919 O 469.566 -0.456403 1.75461 0
M  V30 4920 C 469.614 3.04892 1.92545 0
M  V30 4921 O 468.718 2.81266 3.01601 0
M  V30 4922 H 468.059 0.598969 0.286587 0
M  V30 4923 H 470.589 2.02703 0.277952 0
M  V30 4924 H 470.599 3.34119 2.34155 0
M  V30 4925 H 469.274 3.93287 1.3527 0
M  V30 4926 H 467.851 2.63185 2.64174 0
M  V30 4927 N 470.036 -0.519951 1.48776 0
M  V30 4928 C 471.284 -1.2727 1.56993 0
M  V30 4929 C 471.605 -1.9339 0.25004 0
M  V30 4930 O 470.875 -1.81822 -0.729216 0
M  V30 4931 H 469.455 -0.472732 0.578389 0
M  V30 4932 H 472.117 -0.604234 1.85297 0
M  V30 4933 H 471.213 -2.04669 2.3562 0
M  V30 4934 N 471.514 -1.37532 -0.769588 0
M  V30 4935 C 472.477 -1.33292 -1.86456 0
M  V30 4936 C 473.477 -0.236537 -1.59051 0
M  V30 4937 O 474.667 -0.492511 -1.67093 0
M  V30 4938 C 471.799 -1.07118 -3.23633 0
M  V30 4939 H 472.992 -2.30692 -1.91628 0
M  V30 4940 H 470.545 -1.22593 -0.969572 0
M  V30 4941 H 471.28 -0.102578 -3.24138 0
M  V30 4942 H 471.065 -1.86479 -3.44917 0
M  V30 4943 H 472.555 -1.06806 -4.03711 0
M  V30 4944 N 472.992 0.995999 -1.22138 0
M  V30 4945 C 474.239 1.7351 -1.04406 0
M  V30 4946 C 474.567 1.89884 0.421244 0
M  V30 4947 O 473.822 1.43683 1.32867 0
M  V30 4948 C 474.121 3.14553 -1.6968 0
M  V30 4949 C 473.787 3.18102 -3.19565 0
M  V30 4950 C 472.449 3.18778 -3.60464 0
M  V30 4951 C 474.801 3.14636 -4.15516 0
M  V30 4952 C 472.129 3.13684 -4.95801 0
M  V30 4953 C 474.481 3.11084 -5.50826 0
M  V30 4954 C 473.145 3.10074 -5.91109 0
M  V30 4955 H 472.415 0.634916 -0.38205 0
M  V30 4956 H 475.062 1.1667 -1.51857 0
M  V30 4957 H 473.367 3.74682 -1.14546 0
M  V30 4958 H 475.064 3.70477 -1.53454 0
M  V30 4959 H 471.654 3.18324 -2.86998 0
M  V30 4960 H 475.838 3.13266 -3.84939 0
M  V30 4961 H 471.094 3.11245 -5.26247 0
M  V30 4962 H 475.268 3.07357 -6.24904 0
M  V30 4963 H 472.895 3.05882 -6.95946 0
M  V30 4964 N 474.47 1.03057 1.19235 0
M  V30 4965 C 475.7 0.746613 1.92638 0
M  V30 4966 C 476.108 -0.698708 1.75826 0
M  V30 4967 O 475.451 -1.487 1.07861 0
M  V30 4968 C 475.513 1.02024 3.44719 0
M  V30 4969 C 475.177 2.45745 3.85303 0
M  V30 4970 C 476.174 3.43887 3.8992 0
M  V30 4971 C 473.859 2.8019 4.16892 0
M  V30 4972 C 475.853 4.74529 4.2556 0
M  V30 4973 C 473.54 4.1104 4.52205 0
M  V30 4974 C 474.538 5.0802 4.56513 0
M  V30 4975 O 474.226 6.36527 4.91008 0
M  V30 4976 H 473.958 0.272401 0.618687 0
M  V30 4977 H 476.512 1.37853 1.52269 0
M  V30 4978 H 474.742 0.331184 3.85279 0
M  V30 4979 H 476.431 0.725677 3.9936 0
M  V30 4980 H 477.197 3.18614 3.65664 0
M  V30 4981 H 473.076 2.05382 4.12722 0
M  V30 4982 H 476.62 5.50222 4.28838 0
M  V30 4983 H 472.517 4.36086 4.7592 0
M  V30 4984 H 473.285 6.41025 5.08949 0
M  V30 4985 N 475.948 -1.35272 0.808662 0
M  V30 4986 C 477.194 -1.99003 0.390581 0
M  V30 4987 C 477.527 -1.63999 -1.0401 0
M  V30 4988 O 476.802 -0.904368 -1.72196 0
M  V30 4989 C 477.085 -3.55454 0.576566 0
M  V30 4990 C 476.938 -4.00249 2.05233 0
M  V30 4991 C 478.257 -4.401 0.00354277 0
M  V30 4992 H 475.376 -0.722917 0.143388 0
M  V30 4993 H 478.018 -1.6039 1.01858 0
M  V30 4994 H 476.168 -3.88477 0.0419766 0
M  V30 4995 H 477.84 -3.77626 2.64946 0
M  V30 4996 H 476.083 -3.51082 2.54801 0
M  V30 4997 H 476.754 -5.0911 2.13333 0
M  V30 4998 H 479.23 -4.13548 0.460117 0
M  V30 4999 H 478.106 -5.48656 0.163575 0
M  V30 5000 H 478.367 -4.28444 -1.09032 0
M  V30 5001 N 477.426 -0.562348 -1.47226 0
M  V30 5002 C 478.356 0.170627 -2.32876 0
M  V30 5003 C 479.337 0.903748 -1.44106 0
M  V30 5004 O 480.522 0.883206 -1.72954 0
M  V30 5005 C 477.652 1.19786 -3.25989 0
M  V30 5006 C 476.606 0.580875 -4.2404 0
M  V30 5007 C 475.932 1.71311 -5.06514 0
M  V30 5008 C 477.232 -0.468714 -5.20193 0
M  V30 5009 H 478.926 -0.544441 -2.94408 0
M  V30 5010 H 476.472 -0.263271 -1.41573 0
M  V30 5011 H 478.425 1.71884 -3.84752 0
M  V30 5012 H 477.149 1.94294 -2.62521 0
M  V30 5013 H 475.808 0.0811538 -3.6651 0
M  V30 5014 H 475.456 2.44736 -4.39447 0
M  V30 5015 H 475.156 1.30604 -5.72902 0
M  V30 5016 H 476.68 2.23725 -5.68137 0
M  V30 5017 H 478.094 -0.0336028 -5.7329 0
M  V30 5018 H 476.491 -0.794957 -5.94811 0
M  V30 5019 H 477.561 -1.36269 -4.65359 0
M  V30 5020 N 478.904 1.54736 -0.299062 0
M  V30 5021 C 479.837 2.1962 0.619851 0
M  V30 5022 C 480.815 1.16496 1.13434 0
M  V30 5023 O 481.999 1.4513 1.2029 0
M  V30 5024 C 479.126 2.8385 1.84788 0
M  V30 5025 C 478.172 4.00484 1.46679 0
M  V30 5026 S 479.005 5.32926 0.524389 0
M  V30 5027 C 480.161 6.00638 1.76026 0
M  V30 5028 H 480.394 2.97221 0.0686177 0
M  V30 5029 H 477.927 1.54176 -0.0832085 0
M  V30 5030 H 479.885 3.21483 2.55263 0
M  V30 5031 H 478.546 2.06099 2.37028 0
M  V30 5032 H 477.739 4.44201 2.38121 0
M  V30 5033 H 477.341 3.64398 0.842008 0
M  V30 5034 H 479.633 6.21327 2.70109 0
M  V30 5035 H 480.576 6.94805 1.36569 0
M  V30 5036 H 480.984 5.3026 1.93609 0
M  V30 5037 N 480.382 0.0267497 1.57577 0
M  V30 5038 C 481.659 -0.690926 1.82991 0
M  V30 5039 C 482.039 -1.90471 0.910164 0
M  V30 5040 O 481.387 -2.28474 -0.0347985 0
M  V30 5041 C 481.597 -1.07139 3.32148 0
M  V30 5042 C 482.945 -1.46402 3.98562 0
M  V30 5043 O 483.969 -1.16443 3.36629 0
M  V30 5044 O 482.828 -2.02214 5.07712 0
M  V30 5045 H 479.922 -0.338747 0.75444 0
M  V30 5046 H 482.468 0.0542506 1.69613 0
M  V30 5047 H 481.24 -0.207394 3.9075 0
M  V30 5048 H 480.863 -1.87481 3.50623 0
M  V30 5049 N 481.861 -1.55662 -0.24637 0
M  V30 5050 C 483.089 -1.81575 -0.991876 0
M  V30 5051 C 483.504 -0.602545 -1.78927 0
M  V30 5052 O 482.861 0.428795 -1.77391 0
M  V30 5053 C 482.912 -3.05711 -1.92933 0
M  V30 5054 O 482.633 -4.22348 -1.1642 0
M  V30 5055 C 484.134 -3.44428 -2.79078 0
M  V30 5056 H 481.354 -0.604209 -0.291844 0
M  V30 5057 H 483.898 -2.02722 -0.269095 0
M  V30 5058 H 482.053 -2.86612 -2.60638 0
M  V30 5059 H 482.467 -4.92706 -1.79835 0
M  V30 5060 H 483.941 -4.34388 -3.40603 0
M  V30 5061 H 484.418 -2.65037 -3.50217 0
M  V30 5062 H 485.024 -3.65879 -2.16824 0
M  V30 5063 N 483.339 0.512053 -1.4905 0
M  V30 5064 C 484.564 1.2959 -1.6193 0
M  V30 5065 C 484.989 1.85906 -0.286454 0
M  V30 5066 O 484.347 1.65312 0.744426 0
M  V30 5067 C 484.395 2.40987 -2.68249 0
M  V30 5068 O 483.499 3.44531 -2.26654 0
M  V30 5069 H 482.84 0.383053 -0.542371 0
M  V30 5070 H 485.37 0.614231 -1.95162 0
M  V30 5071 H 485.38 2.86913 -2.90078 0
M  V30 5072 H 484.055 1.99361 -3.65004 0
M  V30 5073 H 482.632 3.046 -2.15112 0
M  V30 5074 N 484.817 1.37938 0.762283 0
M  V30 5075 C 486.228 1.30094 1.33912 0
M  V30 5076 C 486.579 -0.0472026 1.96143 0
M  V30 5077 O 485.704 -0.94917 1.94473 0
M  V30 5078 C 486.299 2.35592 2.43478 0
M  V30 5079 C 484.858 2.31353 2.96905 0
M  V30 5080 C 484.005 2.18919 1.70205 0
M  V30 5081 H 486.956 1.48423 0.561816 0
M  V30 5082 H 486.977 2.00806 3.23199 0
M  V30 5083 H 486.489 3.33701 1.98155 0
M  V30 5084 H 484.59 1.36799 3.46579 0
M  V30 5085 H 484.703 3.25147 3.51875 0
M  V30 5086 H 483.067 1.65624 1.93496 0
M  V30 5087 H 483.85 3.18956 1.26973 0
M  V30 5088 N 486.295 -0.989507 1.22664 0
M  V30 5089 C 487.544 -1.72375 1.04737 0
M  V30 5090 C 487.857 -1.91096 -0.417316 0
M  V30 5091 O 489.063 -2.6188 -0.716334 0
M  V30 5092 C 487.519 -3.10161 1.82561 0
M  V30 5093 C 487.127 -2.99358 3.333 0
M  V30 5094 C 488.871 -3.87607 1.73093 0
M  V30 5095 C 486.778 -4.32319 4.03552 0
M  V30 5096 H 485.708 -0.646326 0.388302 0
M  V30 5097 H 488.359 -1.10437 1.46546 0
M  V30 5098 H 486.741 -3.728 1.33552 0
M  V30 5099 H 487.915 -2.45863 3.89728 0
M  V30 5100 H 486.23 -2.35392 3.43481 0
M  V30 5101 H 488.827 -4.86025 2.22899 0
M  V30 5102 H 489.17 -4.10509 0.691976 0
M  V30 5103 H 489.703 -3.31652 2.19663 0
M  V30 5104 H 486.442 -4.14616 5.07714 0
M  V30 5105 H 485.962 -4.85714 3.51911 0
M  V30 5106 H 487.641 -5.01051 4.09337 0
M  V30 5107 N 487.773 -1.03688 -1.18687 0
M  V30 5108 C 488.736 -0.629115 -2.20397 0
M  V30 5109 C 489.736 0.311495 -1.57754 0
M  V30 5110 O 490.926 0.0974107 -1.73927 0
M  V30 5111 C 488.058 0.0782231 -3.4081 0
M  V30 5112 H 489.251 -1.52915 -2.57987 0
M  V30 5113 H 486.804 -0.828988 -1.32505 0
M  V30 5114 H 487.539 0.992233 -3.08748 0
M  V30 5115 H 487.324 -0.597776 -3.87517 0
M  V30 5116 H 488.814 0.350156 -4.16129 0
M  V30 5117 N 489.251 1.34841 -0.815825 0
M  V30 5118 C 490.662 1.80937 -0.46029 0
M  V30 5119 C 491.013 1.67685 1.01863 0
M  V30 5120 O 490.138 1.21277 1.79223 0
M  V30 5121 C 490.733 3.28509 -0.828708 0
M  V30 5122 C 489.292 3.72712 -0.525644 0
M  V30 5123 C 488.439 2.56676 -1.04941 0
M  V30 5124 H 491.39 1.22688 -1.00664 0
M  V30 5125 H 491.411 3.80279 -0.129757 0
M  V30 5126 H 490.923 3.38122 -1.90513 0
M  V30 5127 H 489.024 3.68642 0.541666 0
M  V30 5128 H 489.137 4.67119 -1.06474 0
M  V30 5129 H 487.501 2.50302 -0.471286 0
M  V30 5130 H 488.284 2.69063 -2.13214 0
M  V30 5131 N 490.729 0.570148 1.46925 0
M  V30 5132 C 492.006 -0.0153259 1.95594 0
M  V30 5133 C 492.386 -1.47232 1.51281 0
M  V30 5134 O 491.734 -2.15574 0.757624 0
M  V30 5135 C 491.944 0.143624 3.48704 0
M  V30 5136 C 493.292 0.00494484 4.246 0
M  V30 5137 O 494.316 0.0718214 3.56128 0
M  V30 5138 O 493.175 -0.141175 5.46318 0
M  V30 5139 H 490.269 -0.0568819 0.825041 0
M  V30 5140 H 492.815 0.637583 1.57267 0
M  V30 5141 H 491.587 1.15699 3.73804 0
M  V30 5142 H 491.21 -0.5463 3.93829 0
M  V30 5143 N 492.207 -1.54576 0.307264 0
M  V30 5144 C 493.117 -2.27435 -0.57536 0
M  V30 5145 C 494.133 -1.31183 -1.14311 0
M  V30 5146 O 495.309 -1.64175 -1.16656 0
M  V30 5147 C 492.374 -3.00566 -1.72803 0
M  V30 5148 C 491.435 -4.12369 -1.19373 0
M  V30 5149 C 490.668 -4.82003 -2.29147 0
M  V30 5150 O 490.891 -4.51038 -3.49171 0
M  V30 5151 O 489.825 -5.69271 -1.95485 0
M  V30 5152 H 493.651 -3.03696 0.0158558 0
M  V30 5153 H 491.236 -1.49219 0.0735064 0
M  V30 5154 H 493.118 -3.46416 -2.39946 0
M  V30 5155 H 491.793 -2.27195 -2.30574 0
M  V30 5156 H 490.7 -3.70905 -0.487851 0
M  V30 5157 H 492.033 -4.87736 -0.661376 0
M  V30 5158 N 493.685 -0.035106 -1.57561 0
M  V30 5159 C 494.931 0.64318 -1.92331 0
M  V30 5160 C 495.264 1.71434 -0.912368 0
M  V30 5161 O 494.539 1.94395 0.0640303 0
M  V30 5162 C 494.822 1.25411 -3.37556 0
M  V30 5163 C 494.675 0.192109 -4.4939 0
M  V30 5164 C 495.994 2.17041 -3.82859 0
M  V30 5165 H 493.113 0.232341 -0.699419 0
M  V30 5166 H 495.755 -0.0935889 -1.89769 0
M  V30 5167 H 493.905 1.88205 -3.39869 0
M  V30 5168 H 495.577 -0.438849 -4.59208 0
M  V30 5169 H 493.82 -0.481725 -4.31117 0
M  V30 5170 H 494.491 0.659292 -5.48049 0
M  V30 5171 H 496.967 1.64228 -3.8232 0
M  V30 5172 H 495.843 2.56738 -4.85157 0
M  V30 5173 H 496.104 3.06401 -3.18702 0
M  V30 5174 N 495.163 1.55791 0.238111 0
M  V30 5175 C 496.579 1.48411 0.587045 0
M  V30 5176 C 496.779 0.72702 1.87927 0
M  V30 5177 O 495.835 0.259942 2.51158 0
M  V30 5178 C 497.148 2.92873 0.681623 0
M  V30 5179 C 498.696 3.03295 0.773363 0
M  V30 5180 C 499.171 4.49082 0.899428 0
M  V30 5181 N 500.662 4.53056 0.964075 0
M  V30 5182 C 501.397 5.63117 1.08104 0
M  V30 5183 N 500.893 6.82969 1.16299 0
M  V30 5184 N 502.686 5.50933 1.11488 0
M  V30 5185 H 494.837 2.0345 -0.610076 0
M  V30 5186 H 497.1 0.924034 -0.211813 0
M  V30 5187 H 496.806 3.51142 -0.19802 0
M  V30 5188 H 496.68 3.43851 1.55069 0
M  V30 5189 H 499.067 2.45101 1.64346 0
M  V30 5190 H 499.148 2.55513 -0.121034 0
M  V30 5191 H 498.792 5.07889 0.0338586 0
M  V30 5192 H 498.722 4.94553 1.809 0
M  V30 5193 H 501.213 3.66737 0.91173 0
M  V30 5194 H 501.526 7.62598 1.25155 0
M  V30 5195 H 499.871 6.85712 1.13241 0
M  V30 5196 H 503.062 4.56231 1.0474 0
M  V30 5197 H 503.235 6.36743 1.20259 0
M  V30 5198 N 496.642 -0.504142 1.49319 0
M  V30 5199 C 497.605 -1.5883 1.65244 0
M  V30 5200 C 498.605 -1.52009 0.524386 0
M  V30 5201 O 499.795 -1.55218 0.79077 0
M  V30 5202 C 496.927 -2.98481 1.64687 0
M  V30 5203 H 498.12 -1.4604 2.61939 0
M  V30 5204 H 495.673 -0.728144 1.38303 0
M  V30 5205 H 496.408 -3.16751 0.695644 0
M  V30 5206 H 496.193 -3.0484 2.46607 0
M  V30 5207 H 497.683 -3.77256 1.79075 0
M  V30 5208 N 498.12 -1.38341 -0.754957 0
M  V30 5209 C 499.083 -1.35262 -1.85032 0
M  V30 5210 C 500.083 -0.253393 -1.58791 0
M  V30 5211 O 501.273 -0.510205 -1.66561 0
M  V30 5212 C 498.405 -1.10544 -3.22479 0
M  V30 5213 H 499.598 -2.32712 -1.8917 0
M  V30 5214 H 497.151 -1.23614 -0.956515 0
M  V30 5215 H 497.886 -0.136952 -3.24011 0
M  V30 5216 H 497.671 -1.90127 -3.4292 0
M  V30 5217 H 499.161 -1.11082 -4.02555 0
M  V30 5218 N 499.598 0.982988 -1.23187 0
M  V30 5219 C 500.508 2.10907 -1.02739 0
M  V30 5220 C 501.524 1.73979 0.0273188 0
M  V30 5221 O 502.7 2.00702 -0.16757 0
M  V30 5222 C 499.765 3.41142 -0.618304 0
M  V30 5223 C 498.826 3.92112 -1.74777 0
M  V30 5224 C 498.059 5.16131 -1.3581 0
M  V30 5225 O 498.282 5.6989 -0.241201 0
M  V30 5226 O 497.216 5.61103 -2.17824 0
M  V30 5227 H 501.042 2.31046 -1.97108 0
M  V30 5228 H 498.627 1.09284 -1.01869 0
M  V30 5229 H 500.509 4.19488 -0.400982 0
M  V30 5230 H 499.184 3.2234 0.296421 0
M  V30 5231 H 498.091 3.14895 -2.0197 0
M  V30 5232 H 499.424 4.15364 -2.64071 0
M  V30 5233 N 501.076 1.04316 1.18135 0
M  V30 5234 C 502.492 0.762858 1.40188 0
M  V30 5235 C 502.692 -0.646547 1.90846 0
M  V30 5236 O 501.748 -1.41036 2.0944 0
M  V30 5237 C 503.061 1.81106 2.40044 0
M  V30 5238 C 504.609 1.83226 2.53766 0
M  V30 5239 C 505.084 2.87044 3.56889 0
M  V30 5240 N 506.575 2.85951 3.64398 0
M  V30 5241 C 507.31 3.62932 4.43923 0
M  V30 5242 N 506.806 4.49672 5.27036 0
M  V30 5243 N 508.599 3.51411 4.38711 0
M  V30 5244 H 500.75 1.95264 0.835805 0
M  V30 5245 H 503.013 0.845017 0.429709 0
M  V30 5246 H 502.719 2.82214 2.09876 0
M  V30 5247 H 502.593 1.64529 3.39426 0
M  V30 5248 H 504.98 0.827869 2.8325 0
M  V30 5249 H 505.061 2.03879 1.54489 0
M  V30 5250 H 504.705 3.87663 3.28145 0
M  V30 5251 H 504.635 2.63645 4.5585 0
M  V30 5252 H 507.126 2.23051 3.05052 0
M  V30 5253 H 507.439 5.05116 5.84874 0
M  V30 5254 H 505.784 4.53738 5.26447 0
M  V30 5255 H 508.975 2.83047 3.72829 0
M  V30 5256 H 509.148 4.11654 5.00445 0
M  V30 5257 N 502.554 -1.34406 0.822964 0
M  V30 5258 C 503.484 -2.32052 0.259608 0
M  V30 5259 C 504.465 -1.58243 -0.623961 0
M  V30 5260 O 505.65 -1.86224 -0.55083 0
M  V30 5261 C 502.78 -3.42434 -0.579314 0
M  V30 5262 C 501.734 -4.27499 0.20712 0
M  V30 5263 C 501.06 -5.29349 -0.754547 0
M  V30 5264 C 502.36 -5.02758 1.41533 0
M  V30 5265 H 504.054 -2.79418 1.07545 0
M  V30 5266 H 501.6 -1.34338 0.518593 0
M  V30 5267 H 503.553 -4.0976 -0.983612 0
M  V30 5268 H 502.277 -2.93717 -1.4282 0
M  V30 5269 H 500.936 -3.61776 0.592787 0
M  V30 5270 H 500.584 -4.76895 -1.59939 0
M  V30 5271 H 500.284 -5.8714 -0.232561 0
M  V30 5272 H 501.808 -5.99544 -1.1567 0
M  V30 5273 H 503.222 -5.62938 1.08504 0
M  V30 5274 H 501.619 -5.70123 1.87296 0
M  V30 5275 H 502.689 -4.32451 2.1935 0
M  V30 5276 N 504.032 -0.577932 -1.46621 0
M  V30 5277 C 504.962 0.145917 -2.33044 0
M  V30 5278 C 505.943 0.888412 -1.45056 0
M  V30 5279 O 507.128 0.864812 -1.73881 0
M  V30 5280 C 504.258 1.16322 -3.27241 0
M  V30 5281 C 503.212 0.535868 -4.24632 0
M  V30 5282 C 502.538 1.65929 -5.08303 0
M  V30 5283 C 503.838 -0.523861 -5.19666 0
M  V30 5284 H 505.532 -0.575636 -2.93814 0
M  V30 5285 H 503.078 -0.278272 -1.41286 0
M  V30 5286 H 505.031 1.67793 -3.86553 0
M  V30 5287 H 503.755 1.91498 -2.64567 0
M  V30 5288 H 502.414 0.0422759 -3.66576 0
M  V30 5289 H 502.062 2.40061 -4.42018 0
M  V30 5290 H 501.762 1.2452 -5.74255 0
M  V30 5291 H 503.286 2.17686 -5.70478 0
M  V30 5292 H 504.7 -0.0944059 -5.73222 0
M  V30 5293 H 503.097 -0.858 -5.93935 0
M  V30 5294 H 504.167 -1.41197 -4.63887 0
M  V30 5295 N 505.51 1.54411 -0.315457 0
M  V30 5296 C 506.42 2.27737 0.56329 0
M  V30 5297 C 507.436 1.31787 1.13614 0
M  V30 5298 O 508.612 1.64791 1.15784 0
M  V30 5299 C 505.677 3.01478 1.71207 0
M  V30 5300 C 504.738 4.12997 1.17185 0
M  V30 5301 C 503.971 4.83212 2.26588 0
M  V30 5302 O 504.194 4.52884 3.46775 0
M  V30 5303 O 503.128 5.70299 1.92463 0
M  V30 5304 H 506.954 3.03683 -0.0319614 0
M  V30 5305 H 504.539 1.49178 -0.0814188 0
M  V30 5306 H 506.421 3.47683 2.38106 0
M  V30 5307 H 505.096 2.28414 2.29366 0
M  V30 5308 H 504.003 3.71159 0.468174 0
M  V30 5309 H 505.336 4.8808 0.635501 0
M  V30 5310 N 506.988 0.0434614 1.5754 0
M  V30 5311 C 507.951 -0.918696 2.09982 0
M  V30 5312 C 508.951 -1.24488 1.01781 0
M  V30 5313 O 510.141 -1.18284 1.27885 0
M  V30 5314 C 507.273 -2.23093 2.57764 0
M  V30 5315 H 508.466 -0.464229 2.96285 0
M  V30 5316 H 506.019 -0.204818 1.54952 0
M  V30 5317 H 506.754 -2.73137 1.74832 0
M  V30 5318 H 506.539 -2.00724 3.36827 0
M  V30 5319 H 508.029 -2.92028 2.98512 0
M  V30 5320 N 508.466 -1.55915 -0.229846 0
M  V30 5321 C 509.714 -1.7819 -0.953565 0
M  V30 5322 C 510.035 -0.610504 -1.85197 0
M  V30 5323 O 509.305 0.372988 -1.92316 0
M  V30 5324 H 507.885 -0.657208 -0.355087 0
M  V30 5325 H 510.547 -1.9337 -0.243693 0
M  V30 5326 H 509.643 -2.70011 -1.56527 0
M  V30 5327 N 509.944 0.496216 -1.49584 0
M  V30 5328 C 511.19 1.25189 -1.59548 0
M  V30 5329 C 511.523 1.9212 -0.283466 0
M  V30 5330 O 510.798 1.80947 0.713324 0
M  V30 5331 C 511.081 2.31516 -2.75812 0
M  V30 5332 C 510.934 1.69054 -4.16822 0
M  V30 5333 C 512.253 3.3304 -2.87702 0
M  V30 5334 H 509.372 0.45379 -0.580727 0
M  V30 5335 H 512.014 0.549327 -1.81886 0
M  V30 5336 H 510.164 2.91438 -2.56897 0
M  V30 5337 H 511.836 1.12923 -4.47265 0
M  V30 5338 H 510.079 0.994485 -4.22247 0
M  V30 5339 H 510.75 2.462 -4.94054 0
M  V30 5340 H 513.226 2.83114 -3.04936 0
M  V30 5341 H 512.102 4.04794 -3.7072 0
M  V30 5342 H 512.363 3.95655 -1.97255 0
M  V30 5343 N 511.423 1.38739 0.74761 0
M  V30 5344 C 512.386 1.36241 1.84312 0
M  V30 5345 C 513.386 0.261811 1.58654 0
M  V30 5346 O 514.576 0.519031 1.66288 0
M  V30 5347 C 511.708 1.12253 3.21888 0
M  V30 5348 H 512.901 2.33712 1.87933 0
M  V30 5349 H 510.454 1.2412 0.949946 0
M  V30 5350 H 511.189 0.154133 3.23934 0
M  V30 5351 H 510.974 1.91943 3.41907 0
M  V30 5352 H 512.464 1.13215 4.0196 0
M  V30 5353 N 512.901 -0.976442 1.23707 0
M  V30 5354 C 514.147 -1.72081 1.07312 0
M  V30 5355 C 514.48 -1.90275 -0.388476 0
M  V30 5356 O 513.755 -1.4579 -1.28746 0
M  V30 5357 C 514.038 -3.11675 1.80363 0
M  V30 5358 C 513.891 -3.01027 3.3422 0
M  V30 5359 C 515.21 -4.1117 1.5693 0
M  V30 5360 H 512.329 -0.624583 0.391236 0
M  V30 5361 H 514.971 -1.13649 1.52263 0
M  V30 5362 H 513.121 -3.61559 1.42153 0
M  V30 5363 H 514.793 -2.58637 3.81975 0
M  V30 5364 H 513.036 -2.3744 3.63049 0
M  V30 5365 H 513.707 -3.9988 3.80525 0
M  V30 5366 H 516.183 -3.7011 1.90151 0
M  V30 5367 H 515.059 -5.06928 2.10513 0
M  V30 5368 H 515.32 -4.392 0.505548 0
M  V30 5369 N 514.379 -1.04941 -1.1758 0
M  V30 5370 C 515.625 -0.759112 -1.88057 0
M  V30 5371 C 515.958 0.711918 -1.8068 0
M  V30 5372 O 515.233 1.52035 -1.21308 0
M  V30 5373 C 515.516 -1.237 -3.38187 0
M  V30 5374 C 515.369 -2.77078 -3.54327 0
M  V30 5375 C 516.688 -0.834014 -4.32125 0
M  V30 5376 H 513.807 -0.277237 -0.682868 0
M  V30 5377 H 516.449 -1.30296 -1.38286 0
M  V30 5378 H 514.599 -0.774337 -3.80705 0
M  V30 5379 H 516.271 -3.31449 -3.20842 0
M  V30 5380 H 514.514 -3.16477 -2.96689 0
M  V30 5381 H 515.185 -3.05577 -4.59703 0
M  V30 5382 H 517.661 -1.23228 -3.97434 0
M  V30 5383 H 516.537 -1.19603 -5.35711 0
M  V30 5384 H 516.798 0.262195 -4.41322 0
M  V30 5385 N 515.857 1.33968 -0.830081 0
M  V30 5386 C 517.268 1.80439 -0.479455 0
M  V30 5387 C 517.619 1.68756 1.00079 0
M  V30 5388 O 516.744 1.23171 1.77927 0
M  V30 5389 C 517.339 3.27611 -0.863505 0
M  V30 5390 C 515.898 3.72133 -0.565145 0
M  V30 5391 C 515.045 2.55549 -1.07657 0
M  V30 5392 H 517.996 1.21614 -1.0196 0
M  V30 5393 H 518.017 3.8012 -0.170083 0
M  V30 5394 H 517.529 3.36082 -1.94089 0
M  V30 5395 H 515.63 3.69196 0.502536 0
M  V30 5396 H 515.743 4.65963 -1.11422 0
M  V30 5397 H 514.107 2.49788 -0.497807 0
M  V30 5398 H 514.89 2.66786 -2.16055 0
M  V30 5399 N 517.335 0.585699 1.46312 0
M  V30 5400 C 518.583 0.072278 2.01971 0
M  V30 5401 C 518.904 -1.29345 1.45928 0
M  V30 5402 O 518.174 -1.84973 0.645109 0
M  V30 5403 H 516.754 0.023729 0.746623 0
M  V30 5404 H 519.416 0.762155 1.7938 0
M  V30 5405 H 518.512 0.00552767 3.121 0
M  V30 5406 N 518.813 -1.54241 0.323641 0
M  V30 5407 C 520.041 -2.04985 -0.280871 0
M  V30 5408 C 520.456 -1.19978 -1.45777 0
M  V30 5409 O 519.813 -0.230471 -1.81039 0
M  V30 5410 C 519.864 -3.54353 -0.715258 0
M  V30 5411 O 519.585 -4.36132 0.414817 0
M  V30 5412 C 521.086 -4.21189 -1.38257 0
M  V30 5413 H 518.306 -0.66851 -0.0577502 0
M  V30 5414 H 520.85 -1.99029 0.469852 0
M  V30 5415 H 519.005 -3.60596 -1.41596 0
M  V30 5416 H 519.419 -5.2445 0.0725227 0
M  V30 5417 H 520.893 -5.27154 -1.63745 0
M  V30 5418 H 521.37 -3.72307 -2.32989 0
M  V30 5419 H 521.976 -4.19085 -0.724447 0
M  V30 5420 N 520.291 -0.0518155 -1.57515 0
M  V30 5421 C 521.568 0.661727 -1.84067 0
M  V30 5422 C 521.948 1.88999 -0.940351 0
M  V30 5423 O 521.296 2.285 -0.00155404 0
M  V30 5424 C 521.506 1.01841 -3.3381 0
M  V30 5425 C 522.854 1.40043 -4.00841 0
M  V30 5426 O 523.878 1.11073 -3.38439 0
M  V30 5427 O 522.737 1.94111 -5.10865 0
M  V30 5428 H 519.831 0.326702 -0.759733 0
M  V30 5429 H 522.377 -0.0812277 -1.69505 0
M  V30 5430 H 521.149 0.145202 -3.91031 0
M  V30 5431 H 520.772 1.81879 -3.53562 0
M  V30 5432 N 521.769 1.56035 0.221574 0
M  V30 5433 C 523.016 1.79047 0.94597 0
M  V30 5434 C 523.344 0.62057 1.84334 0
M  V30 5435 O 522.599 -0.395053 1.91671 0
M  V30 5436 C 522.898 3.07813 1.8162 0
M  V30 5437 C 522.564 4.3797 1.07206 0
M  V30 5438 C 521.226 4.73334 0.866508 0
M  V30 5439 C 523.578 5.18326 0.546565 0
M  V30 5440 C 520.906 5.8657 0.123549 0
M  V30 5441 C 523.258 6.32335 -0.18305 0
M  V30 5442 C 521.922 6.66301 -0.399861 0
M  V30 5443 H 521.192 0.655178 0.346155 0
M  V30 5444 H 523.839 1.90299 0.214146 0
M  V30 5445 H 522.144 2.91682 2.61589 0
M  V30 5446 H 523.841 3.2282 2.37884 0
M  V30 5447 H 520.431 4.10202 1.24226 0
M  V30 5448 H 524.615 4.9144 0.692847 0
M  V30 5449 H 519.871 6.11376 -0.0546591 0
M  V30 5450 H 524.045 6.9383 -0.59775 0
M  V30 5451 H 521.672 7.53889 -0.977489 0
M  V30 5452 N 523.247 -0.488276 1.49845 0
M  V30 5453 C 524.21 -1.57069 1.66919 0
M  V30 5454 C 525.21 -1.51445 0.540479 0
M  V30 5455 O 526.4 -1.5437 0.807188 0
M  V30 5456 C 523.532 -2.96718 1.67844 0
M  V30 5457 H 524.725 -1.43254 2.63474 0
M  V30 5458 H 522.278 -0.713435 1.39068 0
M  V30 5459 H 523.013 -3.15996 0.7292 0
M  V30 5460 H 522.798 -3.02208 2.49826 0
M  V30 5461 H 524.288 -3.75335 1.83066 0
M  V30 5462 N 524.725 -1.39134 -0.740242 0
M  V30 5463 C 525.688 -1.37217 -1.83587 0
M  V30 5464 C 526.688 -0.270221 -1.58513 0
M  V30 5465 O 527.878 -0.527843 -1.6601 0
M  V30 5466 C 525.01 -1.13959 -3.21288 0
M  V30 5467 H 526.203 -2.34705 -1.86691 0
M  V30 5468 H 523.756 -1.24622 -0.94335 0
M  V30 5469 H 524.491 -0.17131 -3.23847 0
M  V30 5470 H 524.276 -1.93754 -3.40884 0
M  V30 5471 H 525.766 -1.15346 -4.01354 0
M  V30 5472 N 526.204 0.969867 -1.24223 0
M  V30 5473 C 527.451 1.71256 -1.08063 0
M  V30 5474 C 527.779 1.90734 0.380872 0
M  V30 5475 O 527.034 1.46469 1.29789 0
M  V30 5476 C 527.333 3.10883 -1.76314 0
M  V30 5477 C 526.999 3.11252 -3.26241 0
M  V30 5478 C 525.661 3.1106 -3.67144 0
M  V30 5479 C 528.013 3.05751 -4.22097 0
M  V30 5480 C 525.341 3.03097 -5.02344 0
M  V30 5481 C 527.693 2.9933 -5.57301 0
M  V30 5482 C 526.357 2.97466 -5.97554 0
M  V30 5483 H 525.627 0.62667 -0.395431 0
M  V30 5484 H 528.274 1.13422 -1.54297 0
M  V30 5485 H 526.579 3.72168 -1.22468 0
M  V30 5486 H 528.276 3.67138 -1.61277 0
M  V30 5487 H 524.866 3.12165 -2.93685 0
M  V30 5488 H 529.05 3.05031 -3.91497 0
M  V30 5489 H 524.306 3.00013 -5.32731 0
M  V30 5490 H 528.48 2.94033 -6.31283 0
M  V30 5491 H 526.107 2.91051 -7.02277 0
M  V30 5492 N 527.682 1.05563 1.17022 0
M  V30 5493 C 528.93 0.76642 1.87004 0
M  V30 5494 C 529.251 -0.708854 1.8166 0
M  V30 5495 O 528.521 -1.51242 1.2451 0
M  V30 5496 H 527.101 0.280516 0.692329 0
M  V30 5497 H 529.763 1.33557 1.41945 0
M  V30 5498 H 528.859 1.08472 2.92644 0
M  V30 5499 N 529.16 -1.33526 0.837174 0
M  V30 5500 C 530.11 -2.2672 0.241269 0
M  V30 5501 C 531.094 -1.49183 -0.602756 0
M  V30 5502 O 532.286 -1.71052 -0.455002 0
M  V30 5503 C 529.415 -3.38294 -0.584125 0
M  V30 5504 C 528.501 -4.23231 0.271315 0
M  V30 5505 N 528.892 -4.87473 1.34922 0
M  V30 5506 C 527.19 -4.45962 0.0580589 0
M  V30 5507 C 527.891 -5.50685 1.87405 0
M  V30 5508 N 526.867 -5.30732 1.17578 0
M  V30 5509 H 530.669 -2.73903 1.06558 0
M  V30 5510 H 528.183 -1.47411 0.68145 0
M  V30 5511 H 530.18 -4.04044 -1.02731 0
M  V30 5512 H 528.84 -2.9266 -1.40643 0
M  V30 5513 H 529.851 -4.88077 1.7321 0
M  V30 5514 H 526.528 -4.11052 -0.730938 0
M  V30 5515 H 527.918 -6.11845 2.77661 0
M  V30 5516 N 530.638 -0.59345 -1.46 0
M  V30 5517 C 531.884 -0.0832754 -2.02629 0
M  V30 5518 C 532.217 1.27749 -1.46266 0
M  V30 5519 O 531.492 1.8395 -0.631866 0
M  V30 5520 C 531.775 -0.0290756 -3.60088 0
M  V30 5521 C 531.628 -1.41951 -4.26814 0
M  V30 5522 C 532.947 0.666055 -4.35031 0
M  V30 5523 H 530.066 -0.031736 -0.736316 0
M  V30 5524 H 532.708 -0.762711 -1.74019 0
M  V30 5525 H 530.858 0.549532 -3.84594 0
M  V30 5526 H 532.53 -2.04411 -4.13538 0
M  V30 5527 H 530.773 -1.98422 -3.8576 0
M  V30 5528 H 531.444 -1.33395 -5.3564 0
M  V30 5529 H 533.92 0.174401 -4.15734 0
M  V30 5530 H 532.796 0.673041 -5.44758 0
M  V30 5531 H 533.057 1.72946 -4.06869 0
M  V30 5532 N 532.116 1.54067 -0.331816 0
M  V30 5533 C 533.532 1.59587 0.0205388 0
M  V30 5534 C 533.732 1.34813 1.49759 0
M  V30 5535 O 532.788 1.13661 2.25471 0
M  V30 5536 C 534.101 2.97959 -0.405103 0
M  V30 5537 C 535.649 3.10964 -0.356454 0
M  V30 5538 C 536.124 4.51694 -0.757384 0
M  V30 5539 N 537.615 4.57709 -0.71111 0
M  V30 5540 C 538.35 5.64729 -0.993427 0
M  V30 5541 N 537.846 6.79652 -1.3433 0
M  V30 5542 N 539.639 5.54546 -0.918442 0
M  V30 5543 H 531.79 1.68426 -1.29407 0
M  V30 5544 H 534.053 0.78819 -0.526745 0
M  V30 5545 H 533.759 3.21115 -1.43451 0
M  V30 5546 H 533.633 3.76524 0.225692 0
M  V30 5547 H 536.02 2.87538 0.663763 0
M  V30 5548 H 536.101 2.34484 -1.02229 0
M  V30 5549 H 535.745 4.75853 -1.77555 0
M  V30 5550 H 535.675 5.26555 -0.0691444 0
M  V30 5551 H 538.166 3.75176 -0.452883 0
M  V30 5552 H 538.479 7.57221 -1.54388 0
M  V30 5553 H 536.824 6.81128 -1.38164 0
M  V30 5554 H 540.015 4.63641 -0.644536 0
M  V30 5555 H 540.188 6.37861 -1.14181 0
M  V30 5556 N 533.594 0.0601682 1.57485 0
M  V30 5557 C 534.524 -0.90889 2.15085 0
M  V30 5558 C 535.505 -1.31838 1.07484 0
M  V30 5559 O 536.69 -1.3915 1.35466 0
M  V30 5560 C 533.82 -2.18059 2.7031 0
M  V30 5561 C 532.774 -1.91088 3.82974 0
M  V30 5562 C 532.1 -3.24789 4.24754 0
M  V30 5563 C 533.4 -1.22535 5.07723 0
M  V30 5564 H 535.094 -0.429093 2.96309 0
M  V30 5565 H 532.64 -0.204952 1.42534 0
M  V30 5566 H 534.593 -2.86258 3.09248 0
M  V30 5567 H 533.317 -2.6826 1.8629 0
M  V30 5568 H 531.976 -1.25297 3.44523 0
M  V30 5569 H 531.624 -3.72809 3.37672 0
M  V30 5570 H 531.324 -3.07538 5.00694 0
M  V30 5571 H 532.848 -3.94205 4.66299 0
M  V30 5572 H 534.262 -1.80783 5.4405 0
M  V30 5573 H 532.659 -1.1558 5.88864 0
M  V30 5574 H 533.729 -0.202692 4.84476 0
M  V30 5575 N 535.072 -1.5615 -0.213296 0
M  V30 5576 C 536.297 -1.83986 -0.957282 0
M  V30 5577 C 536.722 -0.641526 -1.76822 0
M  V30 5578 O 536.08 0.409722 -1.7661 0
M  V30 5579 C 536.128 -3.09889 -1.84393 0
M  V30 5580 O 535.232 -2.89163 -2.94038 0
M  V30 5581 H 534.573 -0.606357 -0.270605 0
M  V30 5582 H 537.103 -2.03369 -0.224111 0
M  V30 5583 H 537.113 -3.40209 -2.25215 0
M  V30 5584 H 535.788 -3.96735 -1.24795 0
M  V30 5585 H 534.365 -2.70097 -2.57103 0
M  V30 5586 N 536.55 0.480323 -1.50102 0
M  V30 5587 C 537.78 1.25475 -1.64133 0
M  V30 5588 C 538.188 1.8647 -0.320272 0
M  V30 5589 O 537.531 1.69561 0.70673 0
M  V30 5590 C 537.593 2.40996 -2.6676 0
M  V30 5591 C 537.257 2.00711 -4.10565 0
M  V30 5592 C 538.254 1.53492 -4.96725 0
M  V30 5593 C 535.939 2.09714 -4.56427 0
M  V30 5594 C 537.933 1.15806 -6.26792 0
M  V30 5595 C 535.62 1.7164 -5.86501 0
M  V30 5596 C 536.618 1.24763 -6.71508 0
M  V30 5597 O 536.306 0.872122 -7.99155 0
M  V30 5598 H 536.038 0.385983 -0.554971 0
M  V30 5599 H 538.592 0.580848 -1.97016 0
M  V30 5600 H 536.822 3.11528 -2.291 0
M  V30 5601 H 538.511 3.02981 -2.70106 0
M  V30 5602 H 539.277 1.45966 -4.62514 0
M  V30 5603 H 535.156 2.4515 -3.90413 0
M  V30 5604 H 538.7 0.791465 -6.93096 0
M  V30 5605 H 534.597 1.78822 -6.20236 0
M  V30 5606 H 535.365 1.00178 -8.12346 0
M  V30 5607 N 538.028 1.39524 0.732853 0
M  V30 5608 C 538.991 1.38189 1.82857 0
M  V30 5609 C 539.991 0.278624 1.58368 0
M  V30 5610 O 541.181 0.536639 1.65728 0
M  V30 5611 C 538.313 1.15661 3.2068 0
M  V30 5612 H 539.506 2.35692 1.85444 0
M  V30 5613 H 537.059 1.2512 0.936728 0
M  V30 5614 H 537.794 0.188482 3.23752 0
M  V30 5615 H 537.579 1.95559 3.39852 0
M  V30 5616 H 539.069 1.17472 4.00737 0
M  V30 5617 N 539.506 -0.963266 1.24736 0
M  V30 5618 C 540.734 -1.74166 1.11686 0
M  V30 5619 C 541.149 -1.8589 -0.330187 0
M  V30 5620 O 540.506 -1.35042 -1.2276 0
M  V30 5621 C 540.557 -3.15989 1.75595 0
M  V30 5622 O 540.278 -3.04847 3.14642 0
M  V30 5623 C 541.779 -4.10145 1.68213 0
M  V30 5624 H 538.999 -0.546031 0.389989 0
M  V30 5625 H 541.543 -1.20907 1.64929 0
M  V30 5626 H 539.698 -3.66219 1.26343 0
M  V30 5627 H 540.112 -3.9425 3.4593 0
M  V30 5628 H 541.586 -5.07299 2.17604 0
M  V30 5629 H 542.063 -4.3445 0.644208 0
M  V30 5630 H 542.669 -3.65827 2.16912 0
M  V30 5631 N 540.985 -1.06182 -1.16461 0
M  V30 5632 C 542.21 -0.798599 -1.91408 0
M  V30 5633 C 542.635 0.640987 -1.76842 0
M  V30 5634 O 541.993 1.44652 -1.09296 0
M  V30 5635 C 542.041 -1.19665 -3.40165 0
M  V30 5636 O 541.145 -0.334768 -4.11039 0
M  V30 5637 H 540.486 -0.291961 -0.596368 0
M  V30 5638 H 543.016 -1.41732 -1.47557 0
M  V30 5639 H 543.026 -1.16772 -3.90933 0
M  V30 5640 H 541.701 -2.24526 -3.50087 0
M  V30 5641 H 540.278 -0.425168 -3.70468 0
M  V30 5642 N 542.463 1.3308 -0.844243 0
M  V30 5643 C 543.373 2.32876 -0.283922 0
M  V30 5644 C 544.389 1.63589 0.592846 0
M  V30 5645 O 545.565 1.95205 0.495693 0
M  V30 5646 C 542.63 3.42667 0.527283 0
M  V30 5647 C 541.691 4.27664 -0.374394 0
M  V30 5648 C 540.924 5.32212 0.39819 0
M  V30 5649 O 541.147 5.46635 1.62932 0
M  V30 5650 O 540.081 6.01458 -0.2306 0
M  V30 5651 H 543.907 2.82671 -1.11045 0
M  V30 5652 H 541.492 1.36518 -0.606903 0
M  V30 5653 H 543.374 4.09652 0.988078 0
M  V30 5654 H 542.049 2.95079 1.33078 0
M  V30 5655 H 540.956 3.63526 -0.883144 0
M  V30 5656 H 542.289 4.78749 -1.1428 0
M  V30 5657 N 543.941 0.601185 1.45683 0
M  V30 5658 C 544.851 -0.123395 2.34275 0
M  V30 5659 C 545.867 -0.86702 1.5086 0
M  V30 5660 O 547.043 -0.826049 1.8368 0
M  V30 5661 C 544.108 -1.11237 3.2837 0
M  V30 5662 C 543.169 -0.371405 4.2769 0
M  V30 5663 C 542.402 -1.31327 5.1729 0
M  V30 5664 O 542.625 -2.55078 5.10188 0
M  V30 5665 O 541.559 -0.813811 5.96373 0
M  V30 5666 H 545.385 0.604483 2.97623 0
M  V30 5667 H 542.97 0.361477 1.44961 0
M  V30 5668 H 544.852 -1.68214 3.8637 0
M  V30 5669 H 543.527 -1.82139 2.67595 0
M  V30 5670 H 542.434 0.24067 3.73325 0
M  V30 5671 H 543.767 0.296998 4.91303 0
M  V30 5672 N 545.419 -1.53889 0.339982 0
M  V30 5673 C 546.367 -2.26391 -0.533822 0
M  V30 5674 C 547.361 -1.28404 -1.10493 0
M  V30 5675 O 548.567 -1.46124 -1.05108 0
M  V30 5676 H 544.942 -0.727385 -0.190828 0
M  V30 5677 H 546.913 -2.98233 0.0997484 0
M  V30 5678 C 545.662 -3.04707 -1.67479 0
M  V30 5679 H 544.985 -3.79934 -1.2446 0
M  V30 5680 H 546.425 -3.58657 -2.26144 0
M  V30 5681 C 544.884 -2.13989 -2.60212 0
M  V30 5682 O 545.414 -1.73361 -3.62366 0
M  V30 5683 N 543.62 -1.79141 -2.28816 0
M  V30 5684 H 543.167 -2.12378 -1.45785 0
M  V30 5685 H 543.125 -1.18725 -2.91121 0
M  V30 5686 N 546.897 -0.0685191 -1.57451 0
M  V30 5687 C 547.827 0.89747 -2.15564 0
M  V30 5688 C 548.808 1.31266 -1.08181 0
M  V30 5689 O 549.993 1.38429 -1.36202 0
M  V30 5690 C 547.123 2.16623 -2.71463 0
M  V30 5691 C 546.077 1.89054 -3.83982 0
M  V30 5692 C 545.403 3.22532 -4.26471 0
M  V30 5693 C 546.703 1.1984 -5.08366 0
M  V30 5694 H 548.397 0.413373 -2.96533 0
M  V30 5695 H 545.943 0.197391 -1.42641 0
M  V30 5696 H 547.896 2.84614 -3.10761 0
M  V30 5697 H 546.62 2.67269 -1.8771 0
M  V30 5698 H 545.279 1.23469 -3.45183 0
M  V30 5699 H 544.927 3.71013 -3.39644 0
M  V30 5700 H 544.627 3.04879 -5.02317 0
M  V30 5701 H 546.151 3.91727 -4.68383 0
M  V30 5702 H 547.565 1.77896 -5.45001 0
M  V30 5703 H 545.962 1.12456 -5.89469 0
M  V30 5704 H 547.032 0.176996 -4.84577 0
M  V30 5705 N 548.375 1.56261 0.205012 0
M  V30 5706 C 549.791 1.49623 0.555433 0
M  V30 5707 C 549.991 0.766719 1.86343 0
M  V30 5708 O 549.047 0.313158 2.50551 0
M  V30 5709 C 550.36 2.94253 0.619347 0
M  V30 5710 C 551.908 3.04868 0.708855 0
M  V30 5711 C 552.383 4.50888 0.803969 0
M  V30 5712 N 553.874 4.54999 0.867758 0
M  V30 5713 C 554.609 5.65284 0.96135 0
M  V30 5714 N 554.105 6.85282 1.01786 0
M  V30 5715 N 555.898 5.53174 0.997771 0
M  V30 5716 H 548.049 2.0211 -0.653094 0
M  V30 5717 H 550.312 0.919333 -0.231366 0
M  V30 5718 H 550.018 3.50643 -0.272458 0
M  V30 5719 H 549.892 3.47063 1.47741 0
M  V30 5720 H 552.279 2.48532 1.5911 0
M  V30 5721 H 552.36 2.55199 -0.175205 0
M  V30 5722 H 552.004 5.07846 -0.0738798 0
M  V30 5723 H 551.934 4.98279 1.70369 0
M  V30 5724 H 554.425 3.68588 0.833735 0
M  V30 5725 H 554.738 7.65081 1.08951 0
M  V30 5726 H 553.083 6.8796 0.986706 0
M  V30 5727 H 556.274 4.5835 0.950392 0
M  V30 5728 H 556.447 6.39151 1.06725 0
M  V30 5729 N 549.853 -0.472356 1.50355 0
M  V30 5730 C 550.8 -1.57051 1.69126 0
M  V30 5731 C 551.77 -1.5733 0.532574 0
M  V30 5732 O 552.955 -1.7488 0.762994 0
M  V30 5733 C 550.095 -2.95033 1.79024 0
M  V30 5734 C 549.208 -3.04552 3.06386 0
M  V30 5735 C 548.343 -4.33441 3.07087 0
M  V30 5736 C 547.382 -4.36697 4.28908 0
M  V30 5737 N 546.519 -5.57056 4.27356 0
M  V30 5738 H 551.359 -1.40351 2.62879 0
M  V30 5739 H 548.896 -0.682403 1.30314 0
M  V30 5740 H 550.854 -3.75048 1.82744 0
M  V30 5741 H 549.484 -3.10371 0.887109 0
M  V30 5742 H 548.536 -2.17419 3.12143 0
M  V30 5743 H 549.848 -3.02818 3.96362 0
M  V30 5744 H 549.002 -5.21801 3.09529 0
M  V30 5745 H 547.741 -4.37782 2.14939 0
M  V30 5746 H 546.746 -3.46734 4.2668 0
M  V30 5747 H 547.971 -4.34049 5.22282 0
M  V30 5748 H 545.917 -5.62184 3.3806 0
M  V30 5749 H 545.834 -5.57058 5.111 0
M  V30 5750 H 547.102 -6.47545 4.33942 0
M  V30 5751 N 551.331 -1.39911 -0.725443 0
M  V30 5752 C 552.294 -1.39156 -1.82121 0
M  V30 5753 C 553.294 -0.287018 -1.58218 0
M  V30 5754 O 554.484 -0.545421 -1.65441 0
M  V30 5755 C 551.616 -1.1736 -3.20062 0
M  V30 5756 H 552.809 -2.36672 -1.84191 0
M  V30 5757 H 550.362 -1.25615 -0.930079 0
M  V30 5758 H 551.097 -0.205648 -3.23647 0
M  V30 5759 H 550.882 -1.97358 -3.3881 0
M  V30 5760 H 552.372 -1.19596 -4.00108 0
M  V30 5761 N 552.809 0.956637 -1.25245 0
M  V30 5762 C 553.739 2.07058 -1.07931 0
M  V30 5763 C 554.72 1.70096 0.0110361 0
M  V30 5764 O 555.905 1.93555 -0.158121 0
M  V30 5765 C 553.035 3.40272 -0.695124 0
M  V30 5766 C 551.989 3.91235 -1.73549 0
M  V30 5767 C 551.315 5.20921 -1.20604 0
M  V30 5768 C 552.615 4.17837 -3.13385 0
M  V30 5769 H 554.309 2.218 -2.01109 0
M  V30 5770 H 551.855 1.06581 -0.968326 0
M  V30 5771 H 553.808 4.1765 -0.560949 0
M  V30 5772 H 552.532 3.25462 0.272355 0
M  V30 5773 H 551.191 3.16025 -1.85807 0
M  V30 5774 H 550.839 5.02479 -0.228846 0
M  V30 5775 H 550.539 5.55987 -1.90136 0
M  V30 5776 H 552.063 6.00897 -1.08421 0
M  V30 5777 H 553.477 4.8588 -3.04292 0
M  V30 5778 H 551.874 4.64154 -3.80369 0
M  V30 5779 H 552.944 3.2419 -3.60595 0
M  V30 5780 N 554.287 1.06798 1.15896 0
M  V30 5781 C 555.197 0.694564 2.24083 0
M  V30 5782 C 556.213 -0.291687 1.71538 0
M  V30 5783 O 557.389 -0.139723 2.00915 0
M  V30 5784 C 554.454 0.0921014 3.46578 0
M  V30 5785 C 553.515 1.13087 4.14137 0
M  V30 5786 C 552.748 0.557064 5.30785 0
M  V30 5787 O 552.971 -0.628623 5.66925 0
M  V30 5788 O 551.905 1.29924 5.8771 0
M  V30 5789 H 555.731 1.59663 2.58344 0
M  V30 5790 H 553.316 0.840575 1.2351 0
M  V30 5791 H 555.198 -0.241884 4.20705 0
M  V30 5792 H 553.873 -0.78337 3.14078 0
M  V30 5793 H 552.78 1.51712 3.41957 0
M  V30 5794 H 554.113 1.97805 4.50704 0
M  V30 5795 N 555.766 -1.3263 0.851289 0
M  V30 5796 C 557.182 -1.50162 0.5407 0
M  V30 5797 C 557.382 -1.78788 -0.929369 0
M  V30 5798 O 556.438 -1.85545 -1.71258 0
M  V30 5799 C 557.751 -2.64803 1.42478 0
M  V30 5800 C 559.299 -2.78688 1.42485 0
M  V30 5801 C 559.774 -3.96405 2.29407 0
M  V30 5802 N 561.265 -4.0366 2.27184 0
M  V30 5803 C 562 -4.93971 2.9117 0
M  V30 5804 N 561.496 -5.89313 3.64256 0
M  V30 5805 N 563.289 -4.87066 2.80576 0
M  V30 5806 H 555.44 -1.12315 1.80275 0
M  V30 5807 H 557.703 -0.553266 0.769806 0
M  V30 5808 H 557.409 -2.50368 2.46999 0
M  V30 5809 H 557.283 -3.60506 1.10974 0
M  V30 5810 H 559.67 -2.92547 0.387304 0
M  V30 5811 H 559.751 -1.83708 1.78002 0
M  V30 5812 H 559.395 -3.83304 3.33228 0
M  V30 5813 H 559.325 -4.90654 1.91224 0
M  V30 5814 H 561.816 -3.35435 1.74045 0
M  V30 5815 H 562.129 -6.54913 4.10255 0
M  V30 5816 H 560.474 -5.8935 3.68364 0
M  V30 5817 H 563.665 -4.11552 2.23031 0
M  V30 5818 H 563.838 -5.57248 3.30725 0
M  V30 5819 N 557.244 -0.608902 -1.45362 0
M  V30 5820 C 558.491 -0.104607 -2.0223 0
M  V30 5821 C 558.819 1.26534 -1.47714 0
M  V30 5822 O 558.074 1.84855 -0.642435 0
M  V30 5823 C 558.373 -0.0167296 -3.57396 0
M  V30 5824 C 558.039 -1.32251 -4.31069 0
M  V30 5825 C 556.701 -1.68019 -4.50914 0
M  V30 5826 C 559.053 -2.18542 -4.73169 0
M  V30 5827 C 556.381 -2.89828 -5.10114 0
M  V30 5828 C 558.733 -3.39602 -5.33717 0
M  V30 5829 C 557.397 -3.7562 -5.51784 0
M  V30 5830 H 556.667 -0.0382785 -0.740011 0
M  V30 5831 H 559.314 -0.790782 -1.7441 0
M  V30 5832 H 557.619 0.752715 -3.84502 0
M  V30 5833 H 559.316 0.389634 -3.99103 0
M  V30 5834 H 555.906 -1.03411 -4.15938 0
M  V30 5835 H 560.09 -1.92208 -4.5757 0
M  V30 5836 H 555.346 -3.17839 -5.22291 0
M  V30 5837 H 559.52 -4.06716 -5.65292 0
M  V30 5838 H 557.147 -4.70093 -5.97425 0
M  V30 5839 N 558.722 1.53707 -0.348139 0
M  V30 5840 C 559.685 2.23812 0.494058 0
M  V30 5841 C 560.685 1.23989 1.02388 0
M  V30 5842 O 561.875 1.48395 0.912396 0
M  V30 5843 C 559.007 2.96133 1.68872 0
M  V30 5844 H 560.2 2.99663 -0.119141 0
M  V30 5845 H 557.753 1.55983 -0.0995539 0
M  V30 5846 H 558.488 2.24481 2.34049 0
M  V30 5847 H 558.273 3.69357 1.31596 0
M  V30 5848 H 559.763 3.49475 2.28597 0
M  V30 5849 N 560.2 0.0768682 1.57412 0
M  V30 5850 C 561.616 -0.279772 1.57129 0
M  V30 5851 C 561.816 -1.69688 1.08666 0
M  V30 5852 O 560.872 -2.40953 0.754843 0
M  V30 5853 C 562.185 -0.0848055 3.0058 0
M  V30 5854 C 563.733 -0.153954 3.12621 0
M  V30 5855 C 564.208 0.0127946 4.57998 0
M  V30 5856 N 565.699 -0.0426435 4.6318 0
M  V30 5857 C 566.434 0.0618892 5.73367 0
M  V30 5858 N 565.93 0.220229 6.9245 0
M  V30 5859 N 567.723 0.00446072 5.621 0
M  V30 5860 H 559.874 1.00297 1.87228 0
M  V30 5861 H 562.137 0.391565 0.863354 0
M  V30 5862 H 561.843 0.89325 3.40168 0
M  V30 5863 H 561.717 -0.834961 3.67843 0
M  V30 5864 H 564.104 -1.1225 2.72917 0
M  V30 5865 H 564.185 0.627389 2.47987 0
M  V30 5866 H 563.829 0.978128 4.98392 0
M  V30 5867 H 563.759 -0.788016 5.20671 0
M  V30 5868 H 566.25 -0.163226 3.77547 0
M  V30 5869 H 566.563 0.291999 7.72248 0
M  V30 5870 H 564.908 0.255658 6.9453 0
M  V30 5871 H 568.099 -0.117979 4.67951 0
M  V30 5872 H 568.272 0.0893796 6.47938 0
M  V30 5873 N 561.678 -1.56367 -0.196722 0
M  V30 5874 C 562.924 -1.80796 -0.918725 0
M  V30 5875 C 563.257 -0.650645 -1.82976 0
M  V30 5876 O 562.532 0.348889 -1.91345 0
M  V30 5877 C 562.815 -3.15472 -1.73636 0
M  V30 5878 C 562.668 -4.41693 -0.85015 0
M  V30 5879 C 563.987 -3.46824 -2.70927 0
M  V30 5880 H 561.106 -0.657702 -0.332561 0
M  V30 5881 H 563.748 -1.89086 -0.186186 0
M  V30 5882 H 561.898 -3.08536 -2.36088 0
M  V30 5883 H 563.57 -4.60673 -0.240459 0
M  V30 5884 H 561.813 -4.33517 -0.156785 0
M  V30 5885 H 562.484 -5.32419 -1.45719 0
M  V30 5886 H 564.96 -3.54049 -2.18607 0
M  V30 5887 H 563.836 -4.4218 -3.25219 0
M  V30 5888 H 564.097 -2.70236 -3.49893 0
M  V30 5889 N 563.156 0.464375 -1.50603 0
M  V30 5890 C 564.086 1.56944 -1.72889 0
M  V30 5891 C 565.067 1.59979 -0.577997 0
M  V30 5892 O 566.252 1.76138 -0.817855 0
M  V30 5893 C 563.382 2.95225 -1.8292 0
M  V30 5894 C 562.336 3.07056 -2.98162 0
M  V30 5895 C 561.662 4.47051 -2.93343 0
M  V30 5896 C 562.962 2.83648 -4.38567 0
M  V30 5897 H 564.656 1.38547 -2.65415 0
M  V30 5898 H 562.202 0.665082 -1.27721 0
M  V30 5899 H 564.155 3.72467 -1.97095 0
M  V30 5900 H 562.879 3.14793 -0.870209 0
M  V30 5901 H 561.538 2.32248 -2.83648 0
M  V30 5902 H 561.186 4.63547 -1.95276 0
M  V30 5903 H 560.886 4.55902 -3.70712 0
M  V30 5904 H 562.41 5.26304 -3.09575 0
M  V30 5905 H 563.824 3.50636 -4.53572 0
M  V30 5906 H 562.221 3.03937 -5.17438 0
M  V30 5907 H 563.291 1.79451 -4.50472 0
M  V30 5908 N 564.634 1.40294 0.718013 0
M  V30 5909 C 565.882 1.38167 1.47494 0
M  V30 5910 C 566.203 -0.01607 1.94993 0
M  V30 5911 O 565.473 -0.970396 1.70177 0
M  V30 5912 H 564.053 0.508505 0.547203 0
M  V30 5913 H 566.715 1.75324 0.851322 0
M  V30 5914 H 565.811 2.05503 2.34894 0
M  V30 5915 N 566.112 -0.949982 1.2575 0
M  V30 5916 C 567.528 -1.22191 1.02672 0
M  V30 5917 C 567.728 -1.99898 -0.253588 0
M  V30 5918 O 566.784 -2.33329 -0.965076 0
M  V30 5919 C 568.097 -1.99175 2.25277 0
M  V30 5920 C 569.645 -2.12201 2.30087 0
M  V30 5921 C 570.12 -2.92586 3.5236 0
M  V30 5922 N 571.611 -3.00163 3.52784 0
M  V30 5923 C 572.346 -3.62766 4.44059 0
M  V30 5924 N 571.842 -4.26943 5.45611 0
M  V30 5925 N 573.635 -3.59953 4.3173 0
M  V30 5926 H 565.786 -0.430258 2.07996 0
M  V30 5927 H 568.049 -0.252844 0.91366 0
M  V30 5928 H 567.755 -1.49479 3.18354 0
M  V30 5929 H 567.629 -2.99868 2.28821 0
M  V30 5930 H 570.016 -2.61093 1.3753 0
M  V30 5931 H 570.097 -1.10799 2.30559 0
M  V30 5932 H 569.741 -2.44383 4.45241 0
M  V30 5933 H 569.671 -3.94224 3.49134 0
M  V30 5934 H 572.162 -2.54529 2.79327 0
M  V30 5935 H 572.475 -4.72583 6.11461 0
M  V30 5936 H 570.82 -4.25557 5.49478 0
M  V30 5937 H 574.011 -3.09003 3.51617 0
M  V30 5938 H 574.184 -4.08455 5.03059 0
M  V30 5939 N 567.59 -1.07411 -1.15328 0
M  V30 5940 C 568.553 -0.698914 -2.18284 0
M  V30 5941 C 569.553 0.261149 -1.58665 0
M  V30 5942 O 570.743 0.0420277 -1.74149 0
M  V30 5943 C 567.875 -0.0302427 -3.40887 0
M  V30 5944 H 569.068 -1.61045 -2.52991 0
M  V30 5945 H 566.621 -0.870724 -1.298 0
M  V30 5946 H 567.356 0.893505 -3.11748 0
M  V30 5947 H 567.141 -0.720759 -3.85419 0
M  V30 5948 H 568.631 0.21759 -4.17033 0
M  V30 5949 O 569.107 1.27418 -0.99231 0
M  V30 5950 H 569.798 1.82762 -0.641704 0
M  V30 END ATOM
M  V30 BEGIN BOND
M  V30 END BOND
M  V30 END CTAB
M  END
$$$$
