drugbank_target|O43741 5'-AMP-activated protein kinase subunit beta-2 (DB00131; DB00945; DB12010)
 OpenBabel12092121003D

  0  0  0     0  0            999 V3000
M  V30 BEGIN CTAB
M  V30 COUNTS 4230 4287 0 0 0
M  V30 BEGIN ATOM
M  V30 1 H -0.908 1.98254 -0.117106 0
M  V30 2 N 0 1.576 0 0
M  V30 3 C 0.933 2.03868 1.02534 0
M  V30 4 C 1.911 0.928543 1.3348 0
M  V30 5 O 3.095 1.19667 1.45644 0
M  V30 6 C 0.222 2.43627 2.35294 0
M  V30 7 C -0.732 3.65373 2.2001 0
M  V30 8 S 0.101 5.13292 1.52614 0
M  V30 9 C 1.257 5.56322 2.86805 0
M  V30 10 H 1.49 2.90518 0.631377 0
M  V30 11 H -0.977 1.52953 0.210867 0
M  V30 12 H 0.981 2.67203 3.11629 0
M  V30 13 H -0.358 1.57376 2.7183 0
M  V30 14 H -1.165 3.90944 3.18086 0
M  V30 15 H -1.563 3.418 1.51819 0
M  V30 16 H 0.729 5.58782 3.83104 0
M  V30 17 H 1.672 6.56266 2.65933 0
M  V30 18 H 2.08 4.83886 2.90714 0
M  V30 19 N 1.4781 -0.272755 1.55222 0
M  V30 20 C 2.7261 -1.00234 1.75492 0
M  V30 21 C 3.0471 -1.8681 0.5592 0
M  V30 22 O 2.3171 -1.91215 -0.425882 0
M  V30 23 H 0.8971 -0.373076 0.647166 0
M  V30 24 H 3.5591 -0.296926 1.92625 0
M  V30 25 H 2.6551 -1.63913 2.65592 0
M  V30 26 N 2.9562 -1.48159 -0.537278 0
M  V30 27 C 3.9042 -1.62573 -1.66352 0
M  V30 28 C 4.8982 -0.492366 -1.62087 0
M  V30 29 O 6.1042 -0.670847 -1.67032 0
M  V30 30 H 2.4792 -0.511992 -0.550789 0
M  V30 31 H 4.4502 -2.57176 -1.51337 0
M  V30 32 C 3.1992 -1.67583 -3.04649 0
M  V30 33 H 2.5222 -2.54151 -3.08622 0
M  V30 34 H 3.9622 -1.81713 -3.83088 0
M  V30 35 C 2.4212 -0.413039 -3.34358 0
M  V30 36 O 2.9512 0.477259 -3.98855 0
M  V30 37 N 1.1572 -0.286961 -2.8918 0
M  V30 38 H 0.7042 -1.01241 -2.36871 0
M  V30 39 H 0.6622 0.556963 -3.09427 0
M  V30 40 N 4.4343 0.785586 -1.36625 0
M  V30 41 C 5.6623 1.57448 -1.3423 0
M  V30 42 C 6.0773 1.88649 0.0755653 0
M  V30 43 O 5.4343 1.50414 1.03354 0
M  V30 44 C 5.4853 2.89316 -2.16745 0
M  V30 45 O 5.2063 2.59459 -3.53005 0
M  V30 46 C 6.7073 3.83606 -2.22174 0
M  V30 47 H 3.9273 0.488226 -0.4603 0
M  V30 48 H 6.4713 0.974733 -1.79775 0
M  V30 49 H 4.6263 3.4575 -1.74745 0
M  V30 50 H 5.0403 3.43804 -3.96105 0
M  V30 51 H 6.5143 4.73181 -2.8426 0
M  V30 52 H 6.9913 4.21734 -1.22627 0
M  V30 53 H 7.5973 3.33104 -2.64427 0
M  V30 54 N 5.9124 1.20967 1.01018 0
M  V30 55 C 7.1404 1.04956 1.78303 0
M  V30 56 C 7.5554 -0.400915 1.84494 0
M  V30 57 O 6.9124 -1.27826 1.30257 0
M  V30 58 C 6.9634 1.63403 3.22462 0
M  V30 59 O 6.6844 3.02775 3.16637 0
M  V30 60 C 8.1854 1.52432 4.16268 0
M  V30 61 H 5.4054 0.368858 0.560522 0
M  V30 62 H 7.9494 1.60193 1.27116 0
M  V30 63 H 6.1044 1.1227 3.70775 0
M  V30 64 H 6.5184 3.30626 4.07169 0
M  V30 65 H 7.9924 1.98078 5.15237 0
M  V30 66 H 8.4694 0.477875 4.36592 0
M  V30 67 H 9.0754 2.02787 3.73841 0
M  V30 68 N 7.3905 -1.2043 1.01659 0
M  V30 69 C 8.6155 -1.94318 0.724942 0
M  V30 70 C 9.0405 -1.74266 -0.708034 0
M  V30 71 O 8.3985 -1.03694 -1.48719 0
M  V30 72 C 8.4465 -3.44486 1.06591 0
M  V30 73 O 7.5505 -4.12017 0.177599 0
M  V30 74 H 6.8915 -0.60708 0.26898 0
M  V30 75 H 9.4215 -1.52861 1.35995 0
M  V30 76 H 9.4315 -3.95106 1.01762 0
M  V30 77 H 8.1065 -3.58404 2.10997 0
M  V30 78 H 6.6835 -3.71821 0.283421 0
M  V30 79 N 8.8686 -0.792821 -1.36206 0
M  V30 80 C 10.1456 -0.290627 -1.93429 0
M  V30 81 C 10.5256 1.21773 -1.72437 0
M  V30 82 O 9.8736 2.0108 -1.08531 0
M  V30 83 C 10.0836 -0.686973 -3.42172 0
M  V30 84 C 11.4316 -0.668643 -4.19302 0
M  V30 85 O 12.4556 -0.627658 -3.50626 0
M  V30 86 O 11.3146 -0.714597 -5.41808 0
M  V30 87 H 8.4086 -0.0727927 -0.82379 0
M  V30 88 H 10.9546 -0.875593 -1.45367 0
M  V30 89 H 9.7266 -1.72711 -3.51122 0
M  V30 90 H 9.3496 -0.0760733 -3.97527 0
M  V30 91 N 10.3467 1.47872 -0.545128 0
M  V30 92 C 11.7627 1.5829 -0.204032 0
M  V30 93 C 11.9627 1.54529 1.29317 0
M  V30 94 O 11.0187 1.44232 2.07252 0
M  V30 95 C 12.3317 2.89304 -0.819987 0
M  V30 96 C 13.8797 3.02864 -0.790105 0
M  V30 97 C 14.3547 4.3656 -1.38491 0
M  V30 98 N 15.8457 4.43165 -1.34755 0
M  V30 99 C 16.5807 5.45153 -1.77753 0
M  V30 100 N 16.0767 6.54016 -2.2855 0
M  V30 101 N 17.8697 5.36125 -1.68897 0
M  V30 102 H 10.0207 1.4856 -1.51802 0
M  V30 103 H 12.2837 0.706305 -0.632327 0
M  V30 104 H 11.9897 2.97757 -1.87173 0
M  V30 105 H 11.8637 3.75957 -0.305915 0
M  V30 106 H 14.2507 2.94014 0.252913 0
M  V30 107 H 14.3317 2.17782 -1.34181 0
M  V30 108 H 13.9757 4.46164 -2.42693 0
M  V30 109 H 13.9057 5.20353 -0.808754 0
M  V30 110 H 16.3967 3.65083 -0.975855 0
M  V30 111 H 16.7097 7.27994 -2.59314 0
M  V30 112 H 15.0547 6.54938 -2.32553 0
M  V30 113 H 18.2457 4.49975 -1.28998 0
M  V30 114 H 18.4187 6.15472 -2.02726 0
M  V30 115 N 11.8248 0.280983 1.55075 0
M  V30 116 C 13.0708 -0.33461 2.00021 0
M  V30 117 C 13.4038 -1.55063 1.16915 0
M  V30 118 O 12.6788 -1.93006 0.240646 0
M  V30 119 C 12.9618 -0.711007 3.53011 0
M  V30 120 C 12.8148 0.512766 4.46868 0
M  V30 121 C 14.1338 -1.54522 4.12081 0
M  V30 122 H 11.2528 -0.120147 0.727141 0
M  V30 123 H 13.8948 0.389097 1.85973 0
M  V30 124 H 12.0448 -1.32761 3.65112 0
M  V30 125 H 13.7168 1.15131 4.46702 0
M  V30 126 H 11.9598 1.14975 4.18286 0
M  V30 127 H 12.6308 0.205556 5.51617 0
M  V30 128 H 15.1068 -1.02442 4.03293 0
M  V30 129 H 13.9828 -1.77739 5.19327 0
M  V30 130 H 14.2438 -2.52813 3.62682 0
M  V30 131 N 13.3029 -1.57598 0.00835791 0
M  V30 132 C 14.5279 -1.95617 -0.689103 0
M  V30 133 C 14.9529 -0.883753 -1.66046 0
M  V30 134 O 14.3109 0.157352 -1.80616 0
M  V30 135 C 14.3589 -3.32736 -1.38994 0
M  V30 136 O 13.4629 -3.27631 -2.50463 0
M  V30 137 H 12.8039 -0.638379 -0.182668 0
M  V30 138 H 15.3339 -2.045 0.064036 0
M  V30 139 H 15.3439 -3.68494 -1.75147 0
M  V30 140 H 14.0189 -4.1034 -0.677778 0
M  V30 141 H 12.5959 -3.03561 -2.16576 0
M  V30 142 N 14.781 0.264519 -1.55364 0
M  V30 143 C 16.029 0.993021 -1.76021 0
M  V30 144 C 16.35 1.86511 -0.569099 0
M  V30 145 O 15.62 1.91438 0.415735 0
M  V30 146 H 14.2 0.369639 -0.649135 0
M  V30 147 H 16.862 0.286707 -1.9278 0
M  V30 148 H 15.958 1.62502 -2.66457 0
M  V30 149 N 16.2591 1.48442 0.529413 0
M  V30 150 C 17.1691 1.6569 1.66084 0
M  V30 151 C 18.1851 0.539432 1.65427 0
M  V30 152 O 19.3611 0.810572 1.84368 0
M  V30 153 C 16.4261 1.69315 3.02545 0
M  V30 154 C 15.4871 2.92694 3.14052 0
M  V30 155 C 14.7201 2.96137 4.44003 0
M  V30 156 O 14.9431 2.07973 5.31134 0
M  V30 157 O 13.8771 3.88312 4.59888 0
M  V30 158 H 17.7031 2.61483 1.54469 0
M  V30 159 H 15.2881 1.3185 0.702567 0
M  V30 160 H 17.1701 1.74217 3.83701 0
M  V30 161 H 15.8451 0.766966 3.14483 0
M  V30 162 H 14.7521 2.93324 2.32189 0
M  V30 163 H 16.0851 3.84699 3.0703 0
M  V30 164 N 17.7372 -0.778329 1.37039 0
M  V30 165 C 19.1532 -1.07796 1.17695 0
M  V30 166 C 19.3532 -2.01498 0.00860115 0
M  V30 167 O 18.4092 -2.43901 -0.653352 0
M  V30 168 C 19.7222 -1.68178 2.49272 0
M  V30 169 C 21.2702 -1.80467 2.55735 0
M  V30 170 C 21.7452 -2.44263 3.87427 0
M  V30 171 N 23.2362 -2.51721 3.88833 0
M  V30 172 C 23.9712 -3.01919 4.87476 0
M  V30 173 N 23.4672 -3.5234 5.96513 0
M  V30 174 N 25.2602 -3.00733 4.74885 0
M  V30 175 H 17.4112 -0.156032 2.11826 0
M  V30 176 H 19.6742 -0.131844 0.938787 0
M  V30 177 H 19.3802 -1.06796 3.35093 0
M  V30 178 H 19.2542 -2.67554 2.65885 0
M  V30 179 H 21.6412 -2.40984 1.70325 0
M  V30 180 H 21.7222 -0.798656 2.43013 0
M  V30 181 H 21.3662 -1.84388 4.73248 0
M  V30 182 H 21.2962 -3.45458 3.9745 0
M  V30 183 H 23.7872 -2.1603 3.10063 0
M  V30 184 H 24.1002 -3.89027 6.67741 0
M  V30 185 H 22.4452 -3.50462 6.00168 0
M  V30 186 H 25.6362 -2.60638 3.88826 0
M  V30 187 H 25.8092 -3.39545 5.51918 0
M  V30 188 N 19.2153 -1.21501 -1.00376 0
M  V30 189 C 20.1653 -0.942843 -2.07592 0
M  V30 190 C 21.1493 0.102384 -1.60574 0
M  V30 191 O 22.3413 -0.10671 -1.76678 0
M  V30 192 C 19.4703 -0.510729 -3.3948 0
M  V30 193 C 18.5563 -1.59009 -3.93163 0
M  V30 194 N 18.9473 -2.81544 -4.20198 0
M  V30 195 C 17.2453 -1.45925 -4.21452 0
M  V30 196 C 17.9463 -3.51261 -4.63671 0
M  V30 197 N 16.9223 -2.78703 -4.66718 0
M  V30 198 H 20.7243 -1.87378 -2.26421 0
M  V30 199 H 18.2383 -1.11093 -1.18458 0
M  V30 200 H 20.2353 -0.297101 -4.1584 0
M  V30 201 H 18.8953 0.413436 -3.22057 0
M  V30 202 H 19.9063 -3.18075 -4.08716 0
M  V30 203 H 16.5833 -0.600467 -4.13159 0
M  V30 204 H 17.9733 -4.56183 -4.93302 0
M  V30 205 N 20.6934 1.19889 -1.02296 0
M  V30 206 C 21.9414 1.89046 -0.714558 0
M  V30 207 C 22.2624 1.79636 0.758681 0
M  V30 208 O 21.5324 1.20292 1.54618 0
M  V30 209 H 20.1124 0.699802 -0.261317 0
M  V30 210 H 22.7744 1.45574 -1.29592 0
M  V30 211 H 21.8704 2.95524 -1.0036 0
M  V30 212 N 22.1715 0.800033 1.35784 0
M  V30 213 C 23.1345 0.211565 2.28221 0
M  V30 214 C 24.1345 -0.59728 1.49296 0
M  V30 215 O 25.3245 -0.416721 1.69142 0
M  V30 216 C 22.4565 -0.705846 3.33513 0
M  V30 217 H 23.6495 1.02677 2.81776 0
M  V30 218 H 21.2025 0.570211 1.45528 0
M  V30 219 H 21.9375 -1.54498 2.85133 0
M  V30 220 H 21.7225 -0.127655 3.91892 0
M  V30 221 H 23.2125 -1.11211 4.02519 0
M  V30 222 N 23.6496 -1.47581 0.552962 0
M  V30 223 C 24.5966 -2.29957 -0.197108 0
M  V30 224 C 25.5666 -1.38799 -0.912359 0
M  V30 225 O 26.7516 -1.67761 -0.908888 0
M  V30 226 C 23.8916 -3.22672 -1.22379 0
M  V30 227 C 23.0046 -4.28919 -0.515038 0
M  V30 228 C 22.1396 -5.0879 -1.52664 0
M  V30 229 C 21.1786 -6.06815 -0.802631 0
M  V30 230 N 20.3156 -6.7966 -1.76086 0
M  V30 231 H 25.1556 -2.93578 0.511486 0
M  V30 232 H 22.6926 -1.4471 0.264067 0
M  V30 233 H 24.6506 -3.74845 -1.83159 0
M  V30 234 H 23.2806 -2.60925 -1.90047 0
M  V30 235 H 22.3326 -3.79835 0.207192 0
M  V30 236 H 23.6446 -4.98773 0.0523425 0
M  V30 237 H 22.7986 -5.65091 -2.20809 0
M  V30 238 H 21.5376 -4.38828 -2.12794 0
M  V30 239 H 20.5426 -5.49695 -0.107238 0
M  V30 240 H 21.7676 -6.78784 -0.207135 0
M  V30 241 H 19.7136 -6.12432 -2.35081 0
M  V30 242 H 19.6306 -7.45669 -1.24552 0
M  V30 243 H 20.8986 -7.40538 -2.43359 0
M  V30 244 N 25.1277 -0.289203 -1.54924 0
M  V30 245 C 26.0907 0.579144 -2.21762 0
M  V30 246 C 27.0907 1.07047 -1.1999 0
M  V30 247 O 28.2807 0.968384 -1.44803 0
M  V30 248 C 25.4127 1.80055 -2.8947 0
M  V30 249 H 26.6057 -0.00464908 -2.999 0
M  V30 250 H 24.1587 -0.0399306 -1.56249 0
M  V30 251 H 24.8937 2.42449 -2.15381 0
M  V30 252 H 24.6787 1.45602 -3.64064 0
M  V30 253 H 26.1687 2.41773 -3.40493 0
M  V30 254 N 26.6058 1.57591 -0.0167156 0
M  V30 255 C 27.5688 2.08393 0.954204 0
M  V30 256 C 28.5688 0.996531 1.26198 0
M  V30 257 O 29.7588 1.25858 1.20438 0
M  V30 258 C 26.8908 2.5394 2.27436 0
M  V30 259 H 28.0838 2.95455 0.514451 0
M  V30 260 H 25.6368 1.54582 0.231089 0
M  V30 261 H 26.3718 1.70171 2.76066 0
M  V30 262 H 26.1568 3.33371 2.06412 0
M  V30 263 H 27.6468 2.93512 2.97053 0
M  V30 264 N 28.0839 -0.256276 1.55502 0
M  V30 265 C 29.4999 -0.604325 1.47716 0
M  V30 266 C 29.6999 -1.88763 0.705039 0
M  V30 267 O 28.7559 -2.51445 0.230613 0
M  V30 268 C 30.0689 -0.715756 2.92057 0
M  V30 269 C 31.6169 -0.808706 3.02372 0
M  V30 270 C 32.0919 -0.951777 4.48001 0
M  V30 271 N 33.5829 -1.01688 4.519 0
M  V30 272 C 34.3179 -1.14668 5.61817 0
M  V30 273 N 33.8139 -1.24261 6.81565 0
M  V30 274 N 35.6069 -1.1791 5.49594 0
M  V30 275 H 27.7579 0.586291 2.04148 0
M  V30 276 H 30.0209 0.201015 0.926443 0
M  V30 277 H 29.7269 0.157027 3.51349 0
M  V30 278 H 29.6009 -1.59071 3.42018 0
M  V30 279 H 31.9879 -1.67195 2.43166 0
M  V30 280 H 32.0689 0.0912063 2.55637 0
M  V30 281 H 31.7129 -0.0931291 5.07815 0
M  V30 282 H 31.6429 -1.86659 4.92408 0
M  V30 283 H 34.1339 -0.954468 3.65648 0
M  V30 284 H 34.4469 -1.34046 7.61086 0
M  V30 285 H 32.7919 -1.21236 6.84344 0
M  V30 286 H 35.9829 -1.10057 4.54978 0
M  V30 287 H 36.1559 -1.27681 6.35296 0
M  V30 288 N 29.562 -1.4872 -0.521534 0
M  V30 289 C 30.787 -1.61101 -1.30618 0
M  V30 290 C 31.212 -0.274611 -1.86085 0
M  V30 291 O 30.57 0.754937 -1.64834 0
M  V30 292 C 30.618 -2.66709 -2.4269 0
M  V30 293 O 29.722 -2.24456 -3.45967 0
M  V30 294 H 29.063 -0.539921 -0.386499 0
M  V30 295 H 31.593 -1.94767 -0.626645 0
M  V30 296 H 31.603 -2.88245 -2.88754 0
M  V30 297 H 30.278 -3.63727 -2.01682 0
M  V30 298 H 28.855 -2.13168 -3.05964 0
M  V30 299 N 31.0401 0.771051 -1.3745 0
M  V30 300 C 31.9501 1.91538 -1.35464 0
M  V30 301 C 32.9661 1.72134 -0.254123 0
M  V30 302 O 34.1421 1.95358 -0.489626 0
M  V30 303 C 31.2071 3.26671 -1.16134 0
M  V30 304 C 30.2681 3.58723 -2.35831 0
M  V30 305 C 29.5011 4.87409 -2.17413 0
M  V30 306 O 29.7241 5.58506 -1.15876 0
M  V30 307 O 28.6581 5.18539 -3.05615 0
M  V30 308 H 32.4841 1.96165 -2.31847 0
M  V30 309 H 30.0691 0.9139 -1.18187 0
M  V30 310 H 31.9511 4.07499 -1.07345 0
M  V30 311 H 30.6261 3.22894 -0.228251 0
M  V30 312 H 29.5331 2.78127 -2.50192 0
M  V30 313 H 30.8661 3.67243 -3.27709 0
M  V30 314 N 32.5182 1.22032 0.997298 0
M  V30 315 C 33.7662 1.04016 1.73278 0
M  V30 316 C 34.0872 -0.426255 1.90284 0
M  V30 317 O 33.3572 -1.30694 1.45931 0
M  V30 318 H 31.9372 0.381897 0.642 0
M  V30 319 H 34.5992 1.5347 1.20137 0
M  V30 320 H 33.6952 1.51441 2.72896 0
M  V30 321 N 33.9963 -1.19345 1.0293 0
M  V30 322 C 34.9593 -2.20793 0.615069 0
M  V30 323 C 35.9593 -1.57553 -0.321533 0
M  V30 324 O 37.1493 -1.73862 -0.108483 0
M  V30 325 C 34.2813 -3.40754 -0.0999222 0
M  V30 326 H 35.4743 -2.58955 1.51269 0
M  V30 327 H 33.0273 -1.3303 0.820534 0
M  V30 328 H 33.7623 -3.0811 -1.01187 0
M  V30 329 H 33.5473 -3.87889 0.57309 0
M  V30 330 H 35.0373 -4.15898 -0.376645 0
M  V30 331 N 35.4744 -0.807222 -1.35358 0
M  V30 332 C 36.7224 -0.387122 -1.98358 0
M  V30 333 C 37.0434 1.04942 -1.64354 0
M  V30 334 O 36.3134 1.72615 -0.926339 0
M  V30 335 H 34.8934 -0.140154 -0.733734 0
M  V30 336 H 37.5554 -1.0332 -1.6526 0
M  V30 337 H 36.6514 -0.493352 -3.08176 0
M  V30 338 N 36.9525 1.47285 -0.560781 0
M  V30 339 C 38.2005 2.02064 -0.0379868 0
M  V30 340 C 38.5215 1.43711 1.31803 0
M  V30 341 O 37.7915 0.61362 1.86042 0
M  V30 342 H 36.3715 0.746918 -0.0110531 0
M  V30 343 H 39.0335 1.80648 -0.731598 0
M  V30 344 H 38.1295 3.12064 0.0474463 0
M  V30 345 N 38.4306 0.297415 1.54768 0
M  V30 346 C 39.3806 -0.595275 2.20092 0
M  V30 347 C 40.3646 -1.10163 1.17273 0
M  V30 348 O 41.5566 -1.043 1.43006 0
M  V30 349 C 38.6856 -1.7684 2.94249 0
M  V30 350 C 37.7716 -1.27818 4.0438 0
M  V30 351 N 38.1626 -0.505695 5.03266 0
M  V30 352 C 36.4606 -1.55923 4.17857 0
M  V30 353 C 37.1616 -0.245094 5.81183 0
M  V30 354 N 36.1376 -0.823881 5.3732 0
M  V30 355 H 39.9396 0.00250837 2.939 0
M  V30 356 H 37.4536 0.102007 1.62079 0
M  V30 357 H 39.4506 -2.41944 3.39513 0
M  V30 358 H 38.1106 -2.36992 2.21957 0
M  V30 359 H 39.1216 -0.150928 5.1768 0
M  V30 360 H 35.7986 -2.16849 3.56767 0
M  V30 361 H 37.1886 0.375084 6.70852 0
M  V30 362 N 39.9087 -1.5758 0.0250728 0
M  V30 363 C 40.8717 -2.08896 -0.943139 0
M  V30 364 C 41.8717 -1.00321 -1.25668 0
M  V30 365 O 43.0617 -1.26495 -1.19769 0
M  V30 366 C 40.1937 -2.55143 -2.26086 0
M  V30 367 H 41.3867 -2.95723 -0.498775 0
M  V30 368 H 38.9397 -1.54703 -0.222888 0
M  V30 369 H 39.6747 -1.71633 -2.75159 0
M  V30 370 H 39.4597 -3.34461 -2.04641 0
M  V30 371 H 40.9497 -2.95083 -2.95492 0
M  V30 372 N 41.3868 0.248026 -1.55636 0
M  V30 373 C 42.7978 0.817177 -1.67866 0
M  V30 374 C 43.1488 1.86069 -0.622322 0
M  V30 375 O 42.2738 2.15157 0.231618 0
M  V30 376 C 42.8688 1.489 -3.04326 0
M  V30 377 C 41.4278 2.00587 -3.185 0
M  V30 378 C 40.5748 0.856573 -2.63739 0
M  V30 379 H 43.5258 0.0238579 -1.58682 0
M  V30 380 H 43.5468 2.35698 -2.98708 0
M  V30 381 H 43.0588 0.729279 -3.81186 0
M  V30 382 H 41.1598 2.79443 -2.4646 0
M  V30 383 H 41.2728 2.20402 -4.25393 0
M  V30 384 H 39.6368 1.25678 -2.21534 0
M  V30 385 H 40.4198 0.109953 -3.43124 0
M  V30 386 N 42.8649 1.48995 0.513639 0
M  V30 387 C 44.1129 1.57531 1.26604 0
M  V30 388 C 44.4339 0.258236 1.93283 0
M  V30 389 O 43.7039 -0.721502 1.8213 0
M  V30 390 H 42.2839 0.580387 0.470276 0
M  V30 391 H 44.9459 1.85552 0.596373 0
M  V30 392 H 44.0419 2.36486 2.03669 0
M  V30 393 N 44.343 -0.763751 1.37857 0
M  V30 394 C 45.29 -1.87726 1.34267 0
M  V30 395 C 46.26 -1.64807 0.206879 0
M  V30 396 O 47.445 -1.86613 0.397508 0
M  V30 397 C 44.585 -3.24896 1.16346 0
M  V30 398 C 43.698 -3.59716 2.39225 0
M  V30 399 C 42.833 -4.86137 2.14114 0
M  V30 400 C 41.872 -5.13711 3.32817 0
M  V30 401 N 41.009 -6.31323 3.07206 0
M  V30 402 H 45.849 -1.90129 2.29466 0
M  V30 403 H 43.386 -0.929433 1.14017 0
M  V30 404 H 45.344 -4.04036 1.03975 0
M  V30 405 H 43.974 -3.21847 0.247909 0
M  V30 406 H 43.026 -2.75498 2.62307 0
M  V30 407 H 44.338 -3.76027 3.27728 0
M  V30 408 H 43.492 -5.73198 1.9882 0
M  V30 409 H 42.231 -4.71945 1.22961 0
M  V30 410 H 41.236 -4.25123 3.48641 0
M  V30 411 H 42.461 -5.29807 4.24832 0
M  V30 412 H 40.407 -6.18474 2.1869 0
M  V30 413 H 40.324 -6.48087 3.89254 0
M  V30 414 H 41.592 -7.213 2.95546 0
M  V30 415 N 45.8211 -1.22559 -0.990812 0
M  V30 416 C 46.7311 -1.01394 -2.11557 0
M  V30 417 C 47.7471 0.0383962 -1.73958 0
M  V30 418 O 48.9231 -0.154787 -2.00804 0
M  V30 419 C 45.9881 -0.596569 -3.41529 0
M  V30 420 C 45.0491 -1.72276 -3.93217 0
M  V30 421 C 44.2821 -1.32521 -5.16985 0
M  V30 422 O 44.5051 -0.204909 -5.70032 0
M  V30 423 O 43.4391 -2.14247 -5.62478 0
M  V30 424 H 47.2651 -1.95633 -2.32296 0
M  V30 425 H 44.8501 -1.01172 -1.0993 0
M  V30 426 H 46.7321 -0.374263 -4.19735 0
M  V30 427 H 45.4071 0.316939 -3.22145 0
M  V30 428 H 44.3141 -1.99961 -3.16174 0
M  V30 429 H 45.6471 -2.61421 -4.17037 0
M  V30 430 N 47.2992 1.18797 -1.03562 0
M  V30 431 C 48.2492 2.20161 -0.592724 0
M  V30 432 C 49.2332 1.56772 0.362133 0
M  V30 433 O 50.4252 1.76062 0.182009 0
M  V30 434 C 47.5542 3.43266 0.0481024 0
M  V30 435 C 46.6402 4.13786 -0.9296 0
M  V30 436 N 47.0312 4.60388 -2.09467 0
M  V30 437 C 45.3292 4.39572 -0.754499 0
M  V30 438 C 46.0302 5.14619 -2.71187 0
M  V30 439 N 45.0062 5.05826 -1.991 0
M  V30 440 H 48.8082 2.53877 -1.48066 0
M  V30 441 H 46.3222 1.34946 -0.903514 0
M  V30 442 H 48.3192 4.15136 0.383058 0
M  V30 443 H 46.9792 3.11048 0.931636 0
M  V30 444 H 47.9902 4.54999 -2.47379 0
M  V30 445 H 44.6672 4.17425 0.0793713 0
M  V30 446 H 46.0572 5.60917 -3.69895 0
M  V30 447 N 48.7773 0.814389 1.34928 0
M  V30 448 C 49.7243 0.22822 2.29669 0
M  V30 449 C 50.6943 -0.642164 1.53184 0
M  V30 450 O 51.8793 -0.585605 1.81591 0
M  V30 451 C 49.0193 -0.61089 3.3965 0
M  V30 452 C 48.1323 0.280792 4.31086 0
M  V30 453 C 47.2673 -0.567067 5.28165 0
M  V30 454 C 46.3063 0.324531 6.11239 0
M  V30 455 N 45.4433 -0.483756 7.00431 0
M  V30 456 H 50.2833 1.04153 2.79206 0
M  V30 457 H 47.8203 0.525133 1.37407 0
M  V30 458 H 49.7783 -1.11263 4.0209 0
M  V30 459 H 48.4083 -1.38939 2.91369 0
M  V30 460 H 47.4603 0.900688 3.69583 0
M  V30 461 H 48.7723 0.966723 4.89342 0
M  V30 462 H 47.9263 -1.13363 5.96015 0
M  V30 463 H 46.6653 -1.28654 4.70425 0
M  V30 464 H 45.6703 0.903298 5.42329 0
M  V30 465 H 46.8953 1.04198 6.71059 0
M  V30 466 H 44.8413 -1.18706 6.45171 0
M  V30 467 H 44.7583 0.143965 7.55863 0
M  V30 468 H 46.0263 -1.03334 7.7262 0
M  V30 469 N 50.2554 -1.46986 0.568584 0
M  V30 470 C 51.5044 -2.01646 0.0465894 0
M  V30 471 C 51.8174 -1.44721 -1.31587 0
M  V30 472 O 53.0234 -1.91113 -1.92842 0
M  V30 473 C 51.4794 -3.59885 0.032752 0
M  V30 474 C 51.0874 -4.25804 1.39266 0
M  V30 475 C 52.8314 -4.22255 -0.436038 0
M  V30 476 C 50.7384 -5.76081 1.33732 0
M  V30 477 H 49.6684 -0.753876 0.013647 0
M  V30 478 H 52.3194 -1.68864 0.718131 0
M  V30 479 H 50.7014 -3.8968 -0.704669 0
M  V30 480 H 51.8754 -4.07637 2.1487 0
M  V30 481 H 50.1904 -3.7547 1.80032 0
M  V30 482 H 52.7874 -5.32394 -0.49602 0
M  V30 483 H 53.1304 -3.90212 -1.45053 0
M  V30 484 H 53.6634 -3.97033 0.246877 0
M  V30 485 H 50.4024 -6.12761 2.32817 0
M  V30 486 H 49.9224 -5.96553 0.623267 0
M  V30 487 H 51.6014 -6.38518 1.0442 0
M  V30 488 N 51.7335 -0.305618 -1.54608 0
M  V30 489 C 52.6665 0.610536 -2.19881 0
M  V30 490 C 53.6445 1.1294 -1.16976 0
M  V30 491 O 54.8285 1.19673 -1.45638 0
M  V30 492 C 51.9555 1.83583 -2.84631 0
M  V30 493 C 51.0015 1.4498 -4.01102 0
M  V30 494 S 51.8345 0.501793 -5.33144 0
M  V30 495 C 52.9905 1.73478 -6.01379 0
M  V30 496 H 53.2235 0.0560177 -2.97247 0
M  V30 497 H 50.7565 -0.0897434 -1.54139 0
M  V30 498 H 52.7145 2.53898 -3.22562 0
M  V30 499 H 51.3755 2.36152 -2.07102 0
M  V30 500 H 50.5685 2.36236 -4.45206 0
M  V30 501 H 50.1705 0.826553 -3.64752 0
M  V30 502 H 52.4625 2.67473 -6.22467 0
M  V30 503 H 53.4055 1.33622 -6.95378 0
M  V30 504 H 53.8135 1.9136 -5.31076 0
M  V30 505 N 53.2116 1.57565 -0.0334293 0
M  V30 506 C 54.4576 1.92262 0.645226 0
M  V30 507 C 54.7906 0.910543 1.71531 0
M  V30 508 O 54.0656 -0.066099 1.94388 0
M  V30 509 C 54.3486 3.37422 1.2577 0
M  V30 510 C 54.2016 4.49369 0.196891 0
M  V30 511 C 55.5206 3.82628 2.17449 0
M  V30 512 H 52.6396 0.699171 0.233085 0
M  V30 513 H 55.2816 1.89779 -0.0915694 0
M  V30 514 H 53.4316 3.39669 1.88566 0
M  V30 515 H 55.1036 4.59254 -0.433962 0
M  V30 516 H 53.3466 4.31168 -0.477137 0
M  V30 517 H 54.0176 5.47978 0.665124 0
M  V30 518 H 56.4936 3.82145 1.64634 0
M  V30 519 H 55.3696 4.84883 2.57254 0
M  V30 520 H 55.6306 3.18376 3.0674 0
M  V30 521 N 54.6897 -0.239769 1.55765 0
M  V30 522 C 55.9377 -0.964892 1.77579 0
M  V30 523 C 56.2587 -1.85582 0.598699 0
M  V30 524 O 55.5287 -1.92075 -0.385226 0
M  V30 525 H 54.1087 -0.359265 0.654933 0
M  V30 526 H 56.7707 -0.256001 1.93211 0
M  V30 527 H 55.8667 -1.58243 2.69009 0
M  V30 528 N 56.1678 -1.49265 -0.50573 0
M  V30 529 C 57.3928 -1.62478 -1.28902 0
M  V30 530 C 57.8178 -0.294332 -1.85783 0
M  V30 531 O 57.1758 0.737412 -1.65626 0
M  V30 532 C 57.2238 -2.69268 -2.39848 0
M  V30 533 O 56.3278 -2.28113 -3.43567 0
M  V30 534 H 55.6688 -0.54399 -0.380751 0
M  V30 535 H 58.1988 -1.95421 -0.605952 0
M  V30 536 H 58.2088 -2.91291 -2.85681 0
M  V30 537 H 56.8838 -3.65846 -1.97812 0
M  V30 538 H 55.4608 -2.16401 -3.03685 0
M  V30 539 N 57.6459 0.756429 -1.3826 0
M  V30 540 C 58.8739 1.54565 -1.3754 0
M  V30 541 C 59.2889 1.88767 0.0355331 0
M  V30 542 O 58.6459 1.52572 1.0014 0
M  V30 543 C 58.6969 2.84654 -2.22833 0
M  V30 544 O 58.4179 2.51912 -3.5843 0
M  V30 545 C 59.9189 3.78807 -2.30261 0
M  V30 546 H 57.1389 0.478353 -0.470553 0
M  V30 547 H 59.6829 0.936381 -1.81803 0
M  V30 548 H 57.8379 3.41965 -1.8204 0
M  V30 549 H 58.2519 3.35325 -4.03308 0
M  V30 550 H 59.7259 4.67045 -2.94233 0
M  V30 551 H 60.2029 4.19038 -1.31545 0
M  V30 552 H 60.8089 3.2742 -2.71433 0
M  V30 553 N 59.124 1.23083 0.984299 0
M  V30 554 C 60.401 0.9689 1.69917 0
M  V30 555 C 60.781 -0.513604 2.04757 0
M  V30 556 O 60.129 -1.48383 1.73767 0
M  V30 557 C 60.339 1.87518 2.94343 0
M  V30 558 C 61.687 2.13636 3.6694 0
M  V30 559 O 62.711 1.85036 3.04368 0
M  V30 560 O 61.57 2.62119 4.79537 0
M  V30 561 H 58.664 0.365095 0.742048 0
M  V30 562 H 61.21 1.34107 1.03987 0
M  V30 563 H 59.982 2.87756 2.65164 0
M  V30 564 H 59.605 1.50514 3.6801 0
M  V30 565 N 60.6021 -1.18246 1.0419 0
M  V30 566 C 61.8791 -1.84121 0.660208 0
M  V30 567 C 62.2591 -1.92778 -0.860221 0
M  V30 568 O 61.6071 -1.45464 -1.76217 0
M  V30 569 C 61.8171 -3.22355 1.33747 0
M  V30 570 C 63.1651 -3.98376 1.46906 0
M  V30 571 O 64.1891 -3.31799 1.29568 0
M  V30 572 O 63.0481 -5.17665 1.75171 0
M  V30 573 H 60.1421 -0.794036 0.231161 0
M  V30 574 H 62.6881 -1.25628 1.14087 0
M  V30 575 H 61.4601 -3.10964 2.37522 0
M  V30 576 H 61.0831 -3.88506 0.845515 0
M  V30 577 N 62.0802 -0.821533 -1.34494 0
M  V30 578 C 63.4912 -0.467956 -1.8074 0
M  V30 579 C 63.8422 1.01151 -1.68116 0
M  V30 580 O 62.9672 1.78707 -1.22036 0
M  V30 581 C 63.5622 -0.842627 -3.28154 0
M  V30 582 C 62.1212 -0.541439 -3.72485 0
M  V30 583 C 61.2682 -1.06028 -2.56229 0
M  V30 584 H 64.2192 -1.01183 -1.22261 0
M  V30 585 H 64.2402 -0.145876 -3.8022 0
M  V30 586 H 63.7522 -1.91945 -3.37311 0
M  V30 587 H 61.8532 0.526034 -3.68868 0
M  V30 588 H 61.9662 -1.08453 -4.66663 0
M  V30 589 H 60.3302 -0.481892 -2.501 0
M  V30 590 H 61.1132 -2.14352 -2.68157 0
M  V30 591 N 63.5583 1.46682 -0.576371 0
M  V30 592 C 64.7833 2.07304 -0.0630475 0
M  V30 593 C 65.2083 1.42329 1.2298 0
M  V30 594 O 64.5663 0.504865 1.74129 0
M  V30 595 C 64.6143 3.60472 0.095895 0
M  V30 596 O 63.7183 3.95927 1.15394 0
M  V30 597 H 63.0593 0.661288 -0.0599463 0
M  V30 598 H 65.5893 1.88417 -0.797511 0
M  V30 599 H 65.5993 4.06865 0.304071 0
M  V30 600 H 64.2743 4.07157 -0.84828 0
M  V30 601 H 62.8513 3.61252 0.924724 0
M  V30 602 N 65.0364 0.313813 1.54444 0
M  V30 603 C 66.2824 -0.292108 2.00685 0
M  V30 604 C 66.6154 -1.52548 1.20177 0
M  V30 605 O 65.8904 -1.92452 0.281531 0
M  V30 606 C 66.1734 -0.635968 3.5444 0
M  V30 607 C 66.0264 0.607437 4.4568 0
M  V30 608 C 67.3454 -1.45747 4.15266 0
M  V30 609 H 64.4644 -0.104697 0.729526 0
M  V30 610 H 67.1064 0.428457 1.85106 0
M  V30 611 H 65.2564 -1.24986 3.67846 0
M  V30 612 H 66.9284 1.24581 4.44159 0
M  V30 613 H 65.1714 1.23822 4.15753 0
M  V30 614 H 65.8424 0.322515 5.51057 0
M  V30 615 H 68.3184 -0.938645 4.05375 0
M  V30 616 H 67.1944 -1.66683 5.2298 0
M  V30 617 H 67.4554 -2.45063 3.67963 0
M  V30 618 N 66.5145 -1.57545 0.0417849 0
M  V30 619 C 67.7615 -1.92317 -0.634082 0
M  V30 620 C 68.0895 -0.919334 -1.71402 0
M  V30 621 O 67.3445 0.0698253 -1.95575 0
M  V30 622 C 67.6435 -3.33794 -1.27735 0
M  V30 623 C 67.3095 -4.49716 -0.326543 0
M  V30 624 C 65.9715 -4.81156 -0.0648814 0
M  V30 625 C 68.3235 -5.20182 0.325623 0
M  V30 626 C 65.6515 -5.80414 0.856539 0
M  V30 627 C 68.0035 -6.20424 1.23518 0
M  V30 628 C 66.6675 -6.50298 1.5056 0
M  V30 629 H 65.9375 -0.703736 -0.232027 0
M  V30 630 H 68.5845 -1.91205 0.106259 0
M  V30 631 H 66.8895 -3.31228 -2.09274 0
M  V30 632 H 68.5865 -3.57975 -1.80707 0
M  V30 633 H 65.1765 -4.25176 -0.540665 0
M  V30 634 H 69.3605 -4.96112 0.136546 0
M  V30 635 H 64.6165 -6.019 1.07363 0
M  V30 636 H 68.7905 -6.74141 1.74664 0
M  V30 637 H 66.4175 -7.27025 2.22123 0
M  V30 638 N 67.9926 0.231505 -1.5589 0
M  V30 639 C 69.2176 0.978689 -1.82856 0
M  V30 640 C 69.6426 1.77559 -0.620846 0
M  V30 641 O 69.0006 1.76119 0.430305 0
M  V30 642 C 69.0486 1.87997 -3.07716 0
M  V30 643 O 68.1526 2.97393 -2.85712 0
M  V30 644 H 67.4936 0.277663 -0.603158 0
M  V30 645 H 70.0236 0.24783 -2.03093 0
M  V30 646 H 70.0336 2.2917 -3.37558 0
M  V30 647 H 68.7086 1.29417 -3.95252 0
M  V30 648 H 67.2856 2.60238 -2.67078 0
M  V30 649 N 69.4707 1.49531 0.497807 0
M  V30 650 C 70.4007 1.6935 1.60757 0
M  V30 651 C 71.3817 0.542218 1.61227 0
M  V30 652 O 72.5667 0.778417 1.77917 0
M  V30 653 C 69.6967 1.76298 2.99226 0
M  V30 654 C 68.6507 2.91248 3.13622 0
M  V30 655 C 67.9767 2.83312 4.53474 0
M  V30 656 C 69.2767 4.3214 2.93346 0
M  V30 657 H 70.9707 2.62263 1.44425 0
M  V30 658 H 68.5167 1.26208 0.693367 0
M  V30 659 H 70.4697 1.88749 3.76765 0
M  V30 660 H 69.1937 0.799871 3.16654 0
M  V30 661 H 67.8527 2.78404 2.38509 0
M  V30 662 H 67.5007 1.84902 4.67782 0
M  V30 663 H 67.2007 3.60465 4.64046 0
M  V30 664 H 68.7247 2.97775 5.33069 0
M  V30 665 H 70.1387 4.45649 3.60652 0
M  V30 666 H 68.5357 5.1054 3.15387 0
M  V30 667 H 69.6057 4.46363 1.89441 0
M  V30 668 N 70.9488 -0.749086 1.3866 0
M  V30 669 C 72.3598 -1.32664 1.31366 0
M  V30 670 C 72.7108 -1.96179 -0.028484 0
M  V30 671 O 71.8358 -1.9537 -0.93057 0
M  V30 672 C 72.4308 -2.41219 2.37905 0
M  V30 673 C 70.9898 -2.94684 2.34176 0
M  V30 674 C 70.1368 -1.68108 2.20533 0
M  V30 675 H 73.0878 -0.547628 1.48952 0
M  V30 676 H 73.1088 -3.21268 2.0388 0
M  V30 677 H 72.6208 -1.94962 3.35576 0
M  V30 678 H 70.7218 -3.45258 1.401 0
M  V30 679 H 70.8348 -3.48757 3.2849 0
M  V30 680 H 69.1988 -1.91907 1.67463 0
M  V30 681 H 69.9818 -1.23923 3.20153 0
M  V30 682 N 72.4269 -1.23603 -0.977757 0
M  V30 683 C 73.7039 -0.977897 -1.69401 0
M  V30 684 C 74.0839 0.502738 -2.05026 0
M  V30 685 O 73.4319 1.47459 -1.74551 0
M  V30 686 C 73.6419 -1.89077 -2.93345 0
M  V30 687 C 74.9899 -2.15579 -3.65802 0
M  V30 688 O 76.0139 -1.86648 -3.03383 0
M  V30 689 O 74.8729 -2.64658 -4.78141 0
M  V30 690 H 71.9669 -0.369025 -0.740101 0
M  V30 691 H 74.5129 -1.34657 -1.03274 0
M  V30 692 H 73.2849 -2.89158 -2.63634 0
M  V30 693 H 72.9079 -1.52463 -3.67207 0
M  V30 694 N 73.905 1.17692 -1.04816 0
M  V30 695 C 75.13 1.92327 -0.776207 0
M  V30 696 C 75.555 1.76082 0.661581 0
M  V30 697 O 74.913 1.076 1.45917 0
M  V30 698 C 74.961 3.41539 -1.15687 0
M  V30 699 O 74.065 4.11402 -0.286775 0
M  V30 700 H 73.406 0.599735 -0.284981 0
M  V30 701 H 75.936 1.49201 -1.4 0
M  V30 702 H 75.946 3.92269 -1.12202 0
M  V30 703 H 74.621 3.52684 -2.20425 0
M  V30 704 H 73.198 3.70939 -0.381903 0
M  V30 705 N 75.3831 0.828654 1.34056 0
M  V30 706 C 76.3301 0.252567 2.29414 0
M  V30 707 C 77.3001 -0.62588 1.53857 0
M  V30 708 O 78.4851 -0.566312 1.82202 0
M  V30 709 C 75.6251 -0.574831 3.40279 0
M  V30 710 C 74.7381 0.326499 4.30764 0
M  V30 711 C 73.8731 -0.511016 5.28736 0
M  V30 712 C 72.9121 0.389342 6.1086 0
M  V30 713 N 72.0491 -0.409439 7.00905 0
M  V30 714 H 76.8891 1.07108 2.78086 0
M  V30 715 H 74.4261 0.539677 1.36843 0
M  V30 716 H 76.3841 -1.06992 4.03248 0
M  V30 717 H 75.0141 -1.35841 2.92826 0
M  V30 718 H 74.0661 0.939837 3.68607 0
M  V30 719 H 75.3781 1.01857 4.88289 0
M  V30 720 H 74.5321 -1.07035 5.97184 0
M  V30 721 H 73.2711 -1.23657 4.71763 0
M  V30 722 H 72.2761 0.960769 5.4134 0
M  V30 723 H 73.5011 1.1131 6.69916 0
M  V30 724 H 71.4471 -1.11856 6.46393 0
M  V30 725 H 71.3641 0.224126 7.55668 0
M  V30 726 H 72.6321 -0.951336 7.73673 0
M  V30 727 N 76.8612 -1.46375 0.584142 0
M  V30 728 C 77.7912 -2.33103 -0.136037 0
M  V30 729 C 78.7722 -1.45431 -0.882255 0
M  V30 730 O 79.9572 -1.74246 -0.857434 0
M  V30 731 C 77.0872 -3.27731 -1.14933 0
M  V30 732 C 76.0412 -4.24855 -0.517862 0
M  V30 733 C 75.3672 -5.09001 -1.63773 0
M  V30 734 C 76.6672 -5.19439 0.545886 0
M  V30 735 H 78.3612 -2.93568 0.588086 0
M  V30 736 H 75.9072 -1.41166 0.284259 0
M  V30 737 H 77.8602 -3.87261 -1.66153 0
M  V30 738 H 76.5842 -2.65377 -1.90375 0
M  V30 739 H 75.2432 -3.6659 -0.0267361 0
M  V30 740 H 74.8912 -4.43031 -2.38185 0
M  V30 741 H 74.5912 -5.74777 -1.22085 0
M  V30 742 H 76.1152 -5.71396 -2.15266 0
M  V30 743 H 77.5292 -5.73177 0.118704 0
M  V30 744 H 75.9262 -5.93566 0.88317 0
M  V30 745 H 76.9962 -4.63285 1.43162 0
M  V30 746 N 78.3393 -0.321999 -1.54275 0
M  V30 747 C 79.7503 0.166384 -1.85957 0
M  V30 748 C 80.1013 1.51747 -1.24367 0
M  V30 749 O 79.2263 2.09317 -0.549124 0
M  V30 750 C 79.8213 0.308681 -3.37391 0
M  V30 751 C 78.3803 0.741286 -3.69028 0
M  V30 752 C 77.5273 -0.137937 -2.76957 0
M  V30 753 H 80.4783 -0.542335 -1.49146 0
M  V30 754 H 80.4993 1.13984 -3.63026 0
M  V30 755 H 80.0113 -0.674809 -3.82188 0
M  V30 756 H 78.1123 1.73458 -3.29762 0
M  V30 757 H 78.2253 0.546118 -4.75977 0
M  V30 758 H 76.5893 0.386251 -2.51754 0
M  V30 759 H 77.3723 -1.11816 -3.2458 0
M  V30 760 N 79.8174 1.5752 -0.0501392 0
M  V30 761 C 81.0654 1.9227 0.622642 0
M  V30 762 C 81.3864 0.929083 1.71444 0
M  V30 763 O 80.6564 -0.0262186 1.95882 0
M  V30 764 H 79.2364 0.709739 0.232981 0
M  V30 765 H 81.8984 1.94628 -0.102898 0
M  V30 766 H 80.9944 2.93479 1.06191 0
M  V30 767 N 81.2955 -0.223234 1.56011 0
M  V30 768 C 82.5725 -0.972108 1.69733 0
M  V30 769 C 82.9525 -2.02485 0.59691 0
M  V30 770 O 82.3005 -2.25037 -0.396324 0
M  V30 771 C 82.5105 -1.58407 3.10979 0
M  V30 772 C 83.8585 -2.07696 3.70334 0
M  V30 773 O 84.8825 -1.68304 3.1393 0
M  V30 774 O 83.7415 -2.80096 4.69264 0
M  V30 775 H 80.8355 -0.453993 0.691245 0
M  V30 776 H 83.3815 -0.215149 1.68331 0
M  V30 777 H 82.1535 -0.823831 3.82529 0
M  V30 778 H 81.7765 -2.40661 3.16493 0
M  V30 779 N 82.7736 -1.49793 -0.48987 0
M  V30 780 C 83.7206 -1.67281 -1.59014 0
M  V30 781 C 84.6906 -0.514177 -1.57941 0
M  V30 782 O 85.8756 -0.742533 -1.75759 0
M  V30 783 C 83.0156 -1.75569 -2.97102 0
M  V30 784 C 82.1286 -3.0281 -3.08107 0
M  V30 785 C 81.2636 -3.02008 -4.36995 0
M  V30 786 C 80.3026 -4.23782 -4.41673 0
M  V30 787 N 79.4396 -4.20826 -5.62005 0
M  V30 788 H 84.2796 -2.61224 -1.43409 0
M  V30 789 H 81.8166 -1.29508 -0.697565 0
M  V30 790 H 83.7746 -1.78354 -3.77155 0
M  V30 791 H 82.4046 -0.850827 -3.11385 0
M  V30 792 H 81.4566 -3.09584 -2.21047 0
M  V30 793 H 82.7686 -3.92801 -3.07423 0
M  V30 794 H 81.9226 -3.03418 -5.25378 0
M  V30 795 H 80.6616 -2.09815 -4.4026 0
M  V30 796 H 79.6666 -4.22604 -3.5169 0
M  V30 797 H 80.8916 -5.17181 -4.40115 0
M  V30 798 H 78.8376 -3.31476 -5.66091 0
M  V30 799 H 78.7546 -5.04564 -5.62984 0
M  V30 800 H 80.0226 -4.26355 -6.52565 0
M  V30 801 N 84.2517 0.741722 -1.39055 0
M  V30 802 C 85.1617 1.88621 -1.39496 0
M  V30 803 C 86.1777 1.71557 -0.290578 0
M  V30 804 O 87.3537 1.94275 -0.530954 0
M  V30 805 C 84.4187 3.24134 -1.23037 0
M  V30 806 C 83.4797 3.5364 -2.43387 0
M  V30 807 C 82.7127 4.82687 -2.27703 0
M  V30 808 O 82.9357 5.55922 -1.27696 0
M  V30 809 O 81.8697 5.1194 -3.16545 0
M  V30 810 H 85.6957 1.91203 -2.35956 0
M  V30 811 H 83.2807 0.888625 -1.20099 0
M  V30 812 H 85.1627 4.0513 -1.15964 0
M  V30 813 H 83.8377 3.22337 -0.296691 0
M  V30 814 H 82.7447 2.72758 -2.56035 0
M  V30 815 H 84.0777 3.60209 -3.35425 0
M  V30 816 N 85.7298 1.2412 0.971189 0
M  V30 817 C 86.9768 1.07881 1.71371 0
M  V30 818 C 87.3048 -0.382901 1.90694 0
M  V30 819 O 86.5598 -1.29945 1.46331 0
M  V30 820 C 86.8588 1.75983 3.11071 0
M  V30 821 C 86.5248 3.25909 3.11599 0
M  V30 822 C 85.1868 3.66813 3.11451 0
M  V30 823 C 87.5388 4.21771 3.062 0
M  V30 824 C 84.8668 5.02021 3.03631 0
M  V30 825 C 87.2188 5.56982 2.99923 0
M  V30 826 C 85.8828 5.97237 2.98102 0
M  V30 827 H 85.1528 0.394764 0.62709 0
M  V30 828 H 87.7998 1.54176 1.13587 0
M  V30 829 H 86.1048 1.22072 3.72298 0
M  V30 830 H 87.8018 1.60887 3.6731 0
M  V30 831 H 84.3918 2.93353 3.12477 0
M  V30 832 H 88.5758 3.91172 3.05447 0
M  V30 833 H 83.8318 5.32411 3.0058 0
M  V30 834 H 88.0058 6.30969 2.94704 0
M  V30 835 H 85.6328 7.01967 2.91798 0
M  V30 836 N 87.2079 -1.17134 1.05439 0
M  V30 837 C 88.4539 -1.87733 0.767077 0
M  V30 838 C 88.7869 -1.8098 -0.704253 0
M  V30 839 O 88.0619 -1.21951 -1.5152 0
M  V30 840 C 88.3449 -3.37659 1.25133 0
M  V30 841 C 88.1979 -3.53149 2.78578 0
M  V30 842 C 89.5169 -4.31768 0.852324 0
M  V30 843 H 86.6359 -0.681687 0.280129 0
M  V30 844 H 89.2779 -1.37732 1.30881 0
M  V30 845 H 87.4279 -3.80373 0.790469 0
M  V30 846 H 89.0999 -3.19434 3.32806 0
M  V30 847 H 87.3429 -2.95345 3.17732 0
M  V30 848 H 88.0139 -4.58403 3.07523 0
M  V30 849 H 90.4899 -3.96909 1.24911 0
M  V30 850 H 89.3659 -5.35199 1.21873 0
M  V30 851 H 89.6269 -4.41429 -0.243485 0
M  V30 852 N 88.686 -0.835752 -1.33615 0
M  V30 853 C 89.911 -0.442389 -2.02627 0
M  V30 854 C 90.336 0.947735 -1.62479 0
M  V30 855 O 89.694 1.61907 -0.815826 0
M  V30 856 C 89.742 -0.567216 -3.56111 0
M  V30 857 O 88.846 0.407799 -4.10379 0
M  V30 858 H 88.187 -0.180278 -0.639059 0
M  V30 859 H 90.717 -1.12972 -1.70583 0
M  V30 860 H 90.727 -0.447708 -4.05536 0
M  V30 861 H 89.402 -1.58103 -3.84677 0
M  V30 862 H 87.979 0.246107 -3.72087 0
M  V30 863 N 90.1641 1.46063 -0.591896 0
M  V30 864 C 91.4101 2.03203 -0.0894879 0
M  V30 865 C 91.7651 1.45407 1.25994 0
M  V30 866 O 91.0581 0.61326 1.8152 0
M  V30 867 C 91.2521 3.57391 0.0249813 0
M  V30 868 C 91.0811 4.30142 -1.3118 0
M  V30 869 C 89.8511 4.68688 -1.88838 0
M  V30 870 C 92.0491 4.63098 -2.23708 0
M  V30 871 N 90.0311 5.26228 -3.1616 0
M  V30 872 C 91.4021 5.21305 -3.3562 0
M  V30 873 C 93.4571 4.45031 -2.23274 0
M  V30 874 C 92.1601 5.63351 -4.47245 0
M  V30 875 C 94.1861 4.881 -3.33935 0
M  V30 876 C 93.5481 5.46386 -4.44569 0
M  V30 877 H 89.6471 0.778323 -0.0757431 0
M  V30 878 H 92.2311 1.78094 -0.78681 0
M  V30 879 H 90.4021 3.82195 0.69149 0
M  V30 880 H 92.1341 4.0118 0.532613 0
M  V30 881 H 88.8891 4.5174 -1.42223 0
M  V30 882 H 89.3131 5.59512 -3.8115 0
M  V30 883 H 93.9551 3.99295 -1.39008 0
M  V30 884 H 91.6731 6.08061 -5.32247 0
M  V30 885 H 95.2591 4.75866 -3.34728 0
M  V30 886 H 94.1391 5.79102 -5.28782 0
M  V30 887 N 91.6422 0.330177 1.54103 0
M  V30 888 C 92.5742 -0.566902 2.22079 0
M  V30 889 C 93.5872 -1.07462 1.22294 0
M  V30 890 O 94.7762 -0.987065 1.48726 0
M  V30 891 C 91.8762 -1.79138 2.87685 0
M  V30 892 C 91.0492 -1.42123 4.13666 0
M  V30 893 C 90.1082 -2.50394 4.62806 0
M  V30 894 O 89.1342 -2.14261 5.27334 0
M  V30 895 N 90.3362 -3.81433 4.37595 0
M  V30 896 H 93.1012 0.0151844 2.99696 0
M  V30 897 H 90.6622 0.153681 1.61169 0
M  V30 898 H 92.6542 -2.50975 3.1748 0
M  V30 899 H 91.2242 -2.28115 2.13734 0
M  V30 900 H 90.4442 -0.534201 3.90564 0
M  V30 901 H 91.7322 -1.14971 4.9564 0
M  V30 902 H 91.1302 -4.13584 3.8596 0
M  V30 903 H 89.6872 -4.4948 4.72029 0
M  V30 904 N 93.1203 -1.57491 0.0584922 0
M  V30 905 C 94.0523 -2.08916 -0.942694 0
M  V30 906 C 95.0653 -1.0185 -1.27006 0
M  V30 907 O 96.2543 -1.29398 -1.22957 0
M  V30 908 C 93.3543 -2.52341 -2.26224 0
M  V30 909 C 92.5273 -3.82827 -2.1157 0
M  V30 910 C 91.5863 -4.12487 -3.26712 0
M  V30 911 O 90.6123 -4.82295 -3.02292 0
M  V30 912 N 91.8143 -3.64978 -4.5141 0
M  V30 913 H 94.5793 -2.95437 -0.503722 0
M  V30 914 H 92.1403 -1.61397 -0.12757 0
M  V30 915 H 94.1323 -2.69254 -3.02133 0
M  V30 916 H 92.7023 -1.7103 -2.61663 0
M  V30 917 H 91.9223 -3.75425 -1.20208 0
M  V30 918 H 93.2103 -4.68263 -1.99015 0
M  V30 919 H 92.6083 -3.08558 -4.7414 0
M  V30 920 H 91.1653 -3.87115 -5.2439 0
M  V30 921 N 94.5984 0.214957 -1.56127 0
M  V30 922 C 95.8754 0.963093 -1.70247 0
M  V30 923 C 96.2554 2.02166 -0.60764 0
M  V30 924 O 95.6034 2.25244 0.384385 0
M  V30 925 C 95.8134 1.56756 -3.11815 0
M  V30 926 C 97.1614 2.0573 -3.7143 0
M  V30 927 O 98.1854 1.66637 -3.14818 0
M  V30 928 O 97.0444 2.77603 -4.70743 0
M  V30 929 H 94.1384 0.450321 -0.693643 0
M  V30 930 H 96.6844 0.206219 -1.68442 0
M  V30 931 H 95.4564 0.803533 -3.82961 0
M  V30 932 H 95.0794 2.3898 -3.17765 0
M  V30 933 N 96.0765 1.50051 0.48192 0
M  V30 934 C 97.0065 1.71046 1.58951 0
M  V30 935 C 97.9875 0.559288 1.60642 0
M  V30 936 O 99.1725 0.797243 1.77081 0
M  V30 937 C 96.3025 1.79462 2.97339 0
M  V30 938 C 95.2565 2.94558 3.10515 0
M  V30 939 C 94.5825 2.88105 4.50444 0
M  V30 940 C 95.8825 4.35227 2.88747 0
M  V30 941 H 97.5765 2.6378 1.41635 0
M  V30 942 H 95.1225 1.26936 0.679942 0
M  V30 943 H 97.0755 1.92734 3.74742 0
M  V30 944 H 95.7995 0.833412 3.15788 0
M  V30 945 H 94.4585 2.80918 2.35543 0
M  V30 946 H 94.1065 1.89853 4.65795 0
M  V30 947 H 93.8065 3.65366 4.60197 0
M  V30 948 H 95.3305 3.03412 5.29881 0
M  V30 949 H 96.7445 4.49449 3.55905 0
M  V30 950 H 95.1415 5.13856 3.09955 0
M  V30 951 H 96.2115 4.48347 1.84696 0
M  V30 952 N 97.5546 -0.734337 1.39446 0
M  V30 953 C 98.4646 -1.87879 1.40495 0
M  V30 954 C 99.4806 -1.714 0.299672 0
M  V30 955 O 100.657 -1.93991 0.541249 0
M  V30 956 C 97.7216 -3.23477 1.24754 0
M  V30 957 C 96.7826 -3.52344 2.45259 0
M  V30 958 C 96.0156 -4.81473 2.30259 0
M  V30 959 O 96.2386 -5.55237 1.30643 0
M  V30 960 O 95.1726 -5.10254 3.19256 0
M  V30 961 H 98.9986 -1.89949 2.36966 0
M  V30 962 H 96.5836 -0.882243 1.20569 0
M  V30 963 H 98.4656 -4.04509 1.18111 0
M  V30 964 H 97.1406 -3.22176 0.313781 0
M  V30 965 H 96.0476 -2.71396 2.57478 0
M  V30 966 H 97.3806 -3.58426 3.37331 0
M  V30 967 N 99.0327 -1.24633 -0.964593 0
M  V30 968 C 100.31 -0.995809 -1.68354 0
M  V30 969 C 100.69 0.480964 -2.05548 0
M  V30 970 O 100.038 1.45599 -1.76105 0
M  V30 971 C 100.248 -1.92177 -2.91323 0
M  V30 972 C 101.596 -2.19446 -3.63495 0
M  V30 973 O 102.62 -1.89855 -3.01386 0
M  V30 974 O 101.479 -2.69714 -4.75307 0
M  V30 975 H 98.5727 -0.376854 -0.736146 0
M  V30 976 H 101.119 -1.35745 -1.0184 0
M  V30 977 H 99.8907 -2.91938 -2.60553 0
M  V30 978 H 99.5137 -1.56349 -3.65569 0
M  V30 979 N 100.511 1.16574 -1.06058 0
M  V30 980 C 101.736 1.91493 -0.796562 0
M  V30 981 C 102.161 1.76773 0.642868 0
M  V30 982 O 101.519 1.09142 1.44768 0
M  V30 983 C 101.567 3.40293 -1.19303 0
M  V30 984 O 100.671 4.11074 -0.330394 0
M  V30 985 H 100.012 0.596678 -0.291326 0
M  V30 986 H 102.542 1.47708 -1.41575 0
M  V30 987 H 102.552 3.91057 -1.16356 0
M  V30 988 H 101.227 3.50326 -2.24153 0
M  V30 989 H 99.8038 3.70513 -0.421225 0
M  V30 990 N 101.989 0.842826 1.3317 0
M  V30 991 C 103.235 0.441099 1.97945 0
M  V30 992 C 103.568 -0.998024 1.66593 0
M  V30 993 O 102.843 -1.69839 0.947898 0
M  V30 994 C 103.126 0.666841 3.53872 0
M  V30 995 C 102.979 2.15352 3.94897 0
M  V30 996 C 104.298 0.115544 4.39948 0
M  V30 997 H 101.417 0.161739 0.719034 0
M  V30 998 H 104.059 1.05907 1.57746 0
M  V30 999 H 102.209 0.140828 3.88245 0
M  V30 1000 H 103.881 2.7447 3.70761 0
M  V30 1001 H 102.124 2.63653 3.44484 0
M  V30 1002 H 102.795 2.26221 5.03516 0
M  V30 1003 H 105.271 0.565213 4.12243 0
M  V30 1004 H 104.147 0.303152 5.48062 0
M  V30 1005 H 104.408 -0.980935 4.3108 0
M  V30 1006 N 103.467 -1.45747 0.599634 0
M  V30 1007 C 104.414 -2.30467 -0.123849 0
M  V30 1008 C 105.384 -1.41632 -0.86774 0
M  V30 1009 O 106.569 -1.70568 -0.855056 0
M  V30 1010 C 103.709 -3.26402 -1.12051 0
M  V30 1011 C 102.822 -4.3034 -0.37832 0
M  V30 1012 C 101.957 -5.13389 -1.364 0
M  V30 1013 C 100.996 -6.09061 -0.609171 0
M  V30 1014 N 100.133 -6.84918 -1.54374 0
M  V30 1015 H 104.973 -2.91802 0.604627 0
M  V30 1016 H 102.51 -1.43797 0.309972 0
M  V30 1017 H 104.468 -3.80482 -1.7114 0
M  V30 1018 H 103.098 -2.66839 -1.8165 0
M  V30 1019 H 102.15 -3.78984 0.327929 0
M  V30 1020 H 103.462 -4.98354 0.210997 0
M  V30 1021 H 102.616 -5.7183 -2.02719 0
M  V30 1022 H 101.355 -4.45376 -1.98725 0
M  V30 1023 H 100.36 -5.49758 0.0676979 0
M  V30 1024 H 101.585 -6.79099 0.00891991 0
M  V30 1025 H 99.531 -6.19601 -2.15478 0
M  V30 1026 H 99.448 -7.49254 -1.00766 0
M  V30 1027 H 100.716 -7.47906 -2.19676 0
M  V30 1028 N 104.945 -0.338344 -1.53925 0
M  V30 1029 C 106.356 0.146651 -1.86123 0
M  V30 1030 C 106.707 1.5042 -1.2597 0
M  V30 1031 O 105.832 2.08723 -0.571294 0
M  V30 1032 C 106.427 0.272879 -3.37699 0
M  V30 1033 C 104.986 0.702103 -3.69794 0
M  V30 1034 C 104.133 -0.167304 -2.76795 0
M  V30 1035 H 107.084 -0.558123 -1.48562 0
M  V30 1036 H 107.105 1.10128 -3.64214 0
M  V30 1037 H 106.617 -0.715307 -3.81451 0
M  V30 1038 H 104.718 1.6995 -3.31584 0
M  V30 1039 H 104.831 0.495604 -4.7653 0
M  V30 1040 H 103.195 0.359527 -2.5215 0
M  V30 1041 H 103.978 -1.15253 -3.23375 0
M  V30 1042 N 106.423 1.57458 -0.0668435 0
M  V30 1043 C 107.651 1.97624 0.612565 0
M  V30 1044 C 108.066 0.94502 1.63447 0
M  V30 1045 O 107.423 -0.0689276 1.8237 0
M  V30 1046 C 107.474 3.37869 1.28555 0
M  V30 1047 O 107.195 4.3704 0.304557 0
M  V30 1048 C 108.696 3.92882 2.05325 0
M  V30 1049 H 105.916 0.650045 0.166381 0
M  V30 1050 H 108.46 2.04035 -0.137782 0
M  V30 1051 H 106.615 3.3256 1.98702 0
M  V30 1052 H 107.029 5.18565 0.786779 0
M  V30 1053 H 108.503 4.93247 2.47812 0
M  V30 1054 H 108.98 3.29156 2.9078 0
M  V30 1055 H 109.586 4.01577 1.40056 0
M  V30 1056 N 107.901 -0.206675 1.56239 0
M  V30 1057 C 108.833 -1.27997 1.9013 0
M  V30 1058 C 109.846 -1.42299 0.790883 0
M  V30 1059 O 111.035 -1.42931 1.06925 0
M  V30 1060 C 108.135 -2.65368 2.10792 0
M  V30 1061 C 107.308 -2.72824 3.41886 0
M  V30 1062 C 106.367 -3.9131 3.51799 0
M  V30 1063 O 105.393 -3.78953 4.24716 0
M  V30 1064 N 106.595 -5.06265 2.84035 0
M  V30 1065 H 109.36 -0.992444 2.82791 0
M  V30 1066 H 106.921 -0.396652 1.56966 0
M  V30 1067 H 108.913 -3.43039 2.14724 0
M  V30 1068 H 107.483 -2.86657 1.24685 0
M  V30 1069 H 106.703 -1.81515 3.49923 0
M  V30 1070 H 107.991 -2.74786 4.28217 0
M  V30 1071 H 107.389 -5.19203 2.246 0
M  V30 1072 H 105.946 -5.81925 2.93609 0
M  V30 1073 N 109.379 -1.50304 -0.473955 0
M  V30 1074 C 110.311 -1.65109 -1.58971 0
M  V30 1075 C 111.324 -0.532676 -1.53839 0
M  V30 1076 O 112.513 -0.805751 -1.59279 0
M  V30 1077 C 109.613 -1.61684 -2.97845 0
M  V30 1078 C 108.786 -2.8951 -3.27876 0
M  V30 1079 C 107.845 -2.78768 -4.4629 0
M  V30 1080 O 106.871 -3.52722 -4.46739 0
M  V30 1081 N 108.073 -1.9213 -5.47783 0
M  V30 1082 H 110.838 -2.61347 -1.46689 0
M  V30 1083 H 108.399 -1.47732 -0.662324 0
M  V30 1084 H 110.391 -1.52114 -3.75024 0
M  V30 1085 H 108.961 -0.731925 -3.03911 0
M  V30 1086 H 108.181 -3.13228 -2.39336 0
M  V30 1087 H 109.469 -3.74199 -3.4475 0
M  V30 1088 H 108.867 -1.31353 -5.50239 0
M  V30 1089 H 107.424 -1.88466 -6.23958 0
M  V30 1090 N 110.857 0.726932 -1.39834 0
M  V30 1091 C 111.82 1.82269 -1.38962 0
M  V30 1092 C 112.82 1.58248 -0.285334 0
M  V30 1093 O 114.01 1.65499 -0.54366 0
M  V30 1094 C 111.142 3.20186 -1.17019 0
M  V30 1095 H 112.335 1.84443 -2.36476 0
M  V30 1096 H 109.888 0.931416 -1.25516 0
M  V30 1097 H 110.623 3.23669 -0.202204 0
M  V30 1098 H 110.408 3.3902 -1.96998 0
M  V30 1099 H 111.898 4.00235 -1.1917 0
M  V30 1100 N 112.336 1.25143 0.95797 0
M  V30 1101 C 113.752 1.01892 1.22842 0
M  V30 1102 C 113.952 -0.266311 1.99732 0
M  V30 1103 O 113.008 -0.979913 2.3271 0
M  V30 1104 C 114.321 2.24004 2.00606 0
M  V30 1105 C 115.869 2.28731 2.13662 0
M  V30 1106 C 116.344 3.5049 2.94823 0
M  V30 1107 N 117.835 3.50866 3.02403 0
M  V30 1108 C 118.57 4.4174 3.65586 0
M  V30 1109 N 118.066 5.42882 4.30408 0
M  V30 1110 N 119.859 4.29429 3.62694 0
M  V30 1111 H 112.01 2.07718 0.443493 0
M  V30 1112 H 114.273 0.912031 0.258657 0
M  V30 1113 H 113.979 3.17395 1.51503 0
M  V30 1114 H 113.853 2.26907 3.01319 0
M  V30 1115 H 116.24 1.35865 2.61963 0
M  V30 1116 H 116.321 2.29848 1.12265 0
M  V30 1117 H 115.965 4.43676 2.47213 0
M  V30 1118 H 115.895 3.46617 3.96439 0
M  V30 1119 H 118.386 2.777 2.56302 0
M  V30 1120 H 118.699 6.0844 4.76467 0
M  V30 1121 H 117.044 5.46758 4.29047 0
M  V30 1122 H 120.235 3.49643 3.11236 0
M  V30 1123 H 120.408 5.00448 4.1165 0
M  V30 1124 N 113.814 -1.1601 1.06675 0
M  V30 1125 C 115.225 -1.68235 0.809565 0
M  V30 1126 C 115.576 -1.8454 -0.666303 0
M  V30 1127 O 114.701 -1.54374 -1.5165 0
M  V30 1128 C 115.296 -3.05585 1.46299 0
M  V30 1129 C 113.855 -3.54915 1.25349 0
M  V30 1130 C 113.002 -2.30804 1.53703 0
M  V30 1131 H 115.953 -1.00318 1.22971 0
M  V30 1132 H 115.974 -3.70174 0.880431 0
M  V30 1133 H 115.486 -2.93686 2.53713 0
M  V30 1134 H 113.587 -3.72067 0.199261 0
M  V30 1135 H 113.7 -4.36774 1.9689 0
M  V30 1136 H 112.064 -2.36007 0.957739 0
M  V30 1137 H 112.847 -2.21499 2.62284 0
M  V30 1138 N 115.292 -0.849877 -1.32721 0
M  V30 1139 C 116.52 -0.464754 -2.01613 0
M  V30 1140 C 116.935 0.937191 -1.63897 0
M  V30 1141 O 116.292 1.61081 -0.857856 0
M  V30 1142 C 116.343 -0.588638 -3.56675 0
M  V30 1143 O 116.064 -1.93535 -3.93034 0
M  V30 1144 C 117.565 -0.2019 -4.4284 0
M  V30 1145 H 114.785 -0.183215 -0.645502 0
M  V30 1146 H 117.329 -1.1455 -1.69407 0
M  V30 1147 H 115.484 0.0443159 -3.87375 0
M  V30 1148 H 115.898 -1.92871 -4.87751 0
M  V30 1149 H 117.372 -0.339599 -5.50954 0
M  V30 1150 H 117.849 0.857224 -4.30753 0
M  V30 1151 H 118.455 -0.809733 -4.17521 0
M  V30 1152 N 116.77 1.45427 -0.607355 0
M  V30 1153 C 118.016 2.0254 -0.102607 0
M  V30 1154 C 118.349 1.47478 1.26348 0
M  V30 1155 O 117.624 0.64939 1.83339 0
M  V30 1156 C 117.907 3.60044 -0.0634347 0
M  V30 1157 C 117.76 4.2544 -1.46017 0
M  V30 1158 C 119.079 4.35646 0.624514 0
M  V30 1159 H 116.198 0.73598 -0.0387607 0
M  V30 1160 H 118.84 1.73284 -0.779282 0
M  V30 1161 H 116.99 3.85101 0.512808 0
M  V30 1162 H 118.662 4.11569 -2.08347 0
M  V30 1163 H 116.905 3.83849 -2.02094 0
M  V30 1164 H 117.576 5.34342 -1.385 0
M  V30 1165 H 120.052 4.15882 0.134723 0
M  V30 1166 H 118.928 5.45376 0.621028 0
M  V30 1167 H 119.189 4.08501 1.69055 0
M  V30 1168 N 118.248 0.346503 1.53744 0
M  V30 1169 C 119.497 -0.250122 2.00143 0
M  V30 1170 C 119.81 -1.51418 1.23822 0
M  V30 1171 O 121.016 -2.18823 1.60713 0
M  V30 1172 C 119.472 -0.496252 3.56462 0
M  V30 1173 C 119.08 0.752077 4.41642 0
M  V30 1174 C 120.824 -1.05157 4.11269 0
M  V30 1175 C 118.731 0.476583 5.89477 0
M  V30 1176 H 117.661 -0.0972409 0.747703 0
M  V30 1177 H 120.312 0.46229 1.77581 0
M  V30 1178 H 118.694 -1.26944 3.75102 0
M  V30 1179 H 119.868 1.5266 4.34778 0
M  V30 1180 H 118.183 1.22925 3.97842 0
M  V30 1181 H 120.78 -1.27269 5.19333 0
M  V30 1182 H 121.123 -2.00799 3.64672 0
M  V30 1183 H 121.656 -0.339019 3.96353 0
M  V30 1184 H 118.395 1.4028 6.40314 0
M  V30 1185 H 117.915 -0.259794 5.99237 0
M  V30 1186 H 119.594 0.0949315 6.4693 0
M  V30 1187 N 119.726 -1.57421 0.075193 0
M  V30 1188 C 121.142 -1.57099 -0.281444 0
M  V30 1189 C 121.342 -1.08486 -1.69803 0
M  V30 1190 O 120.398 -0.752279 -2.41033 0
M  V30 1191 C 121.711 -3.00571 -0.0880041 0
M  V30 1192 C 123.259 -3.12605 -0.157281 0
M  V30 1193 C 123.734 -4.57999 0.0079207 0
M  V30 1194 N 125.225 -4.63176 -0.0475725 0
M  V30 1195 C 125.96 -5.73373 0.0557876 0
M  V30 1196 N 125.456 -6.92473 0.21286 0
M  V30 1197 N 127.249 -5.621 -0.00152098 0
M  V30 1198 H 119.4 -1.87335 1.00098 0
M  V30 1199 H 121.663 -0.86377 0.390646 0
M  V30 1200 H 121.369 -3.40262 0.889629 0
M  V30 1201 H 121.243 -3.67754 -0.838875 0
M  V30 1202 H 123.63 -2.72798 -1.1254 0
M  V30 1203 H 123.711 -2.48053 0.62475 0
M  V30 1204 H 123.355 -4.98496 0.972824 0
M  V30 1205 H 123.285 -5.20586 -0.793556 0
M  V30 1206 H 125.776 -3.7753 -0.167244 0
M  V30 1207 H 126.089 -7.72279 0.283781 0
M  V30 1208 H 124.434 -6.94556 0.248267 0
M  V30 1209 H 127.625 -4.67938 -0.122958 0
M  V30 1210 H 127.798 -6.47948 0.0824844 0
M  V30 1211 N 121.204 0.198386 -1.56346 0
M  V30 1212 C 122.45 0.916115 -1.81601 0
M  V30 1213 C 122.805 1.81025 -0.651744 0
M  V30 1214 O 122.098 1.88316 0.353229 0
M  V30 1215 C 122.292 1.77031 -3.10475 0
M  V30 1216 C 122.121 0.960365 -4.39326 0
M  V30 1217 C 120.891 0.646093 -5.01152 0
M  V30 1218 C 123.089 0.314628 -5.13337 0
M  V30 1219 N 121.071 -0.182828 -6.13628 0
M  V30 1220 C 122.442 -0.37664 -6.18855 0
M  V30 1221 C 124.497 0.230019 -4.97368 0
M  V30 1222 C 123.2 -1.14445 -7.10137 0
M  V30 1223 C 125.226 -0.524389 -5.89071 0
M  V30 1224 C 124.588 -1.20412 -6.94032 0
M  V30 1225 H 120.687 0.314732 -0.715868 0
M  V30 1226 H 123.271 0.185102 -1.93818 0
M  V30 1227 H 121.442 2.47295 -2.99499 0
M  V30 1228 H 123.174 2.42727 -3.2383 0
M  V30 1229 H 119.929 0.969724 -4.63566 0
M  V30 1230 H 120.353 -0.586802 -6.74452 0
M  V30 1231 H 124.995 0.741184 -4.16253 0
M  V30 1232 H 122.713 -1.66706 -7.90718 0
M  V30 1233 H 126.299 -0.591167 -5.78789 0
M  V30 1234 H 125.179 -1.77853 -7.63766 0
M  V30 1235 N 122.682 1.50554 0.465978 0
M  V30 1236 C 123.907 1.65838 1.24549 0
M  V30 1237 C 124.332 0.343486 1.84937 0
M  V30 1238 O 123.69 -0.69324 1.67523 0
M  V30 1239 C 123.738 2.75533 2.32624 0
M  V30 1240 O 122.842 2.37142 3.37398 0
M  V30 1241 H 122.183 0.553893 0.366194 0
M  V30 1242 H 124.713 1.96959 0.553927 0
M  V30 1243 H 124.723 2.98763 2.77857 0
M  V30 1244 H 123.398 3.70962 1.88043 0
M  V30 1245 H 121.975 2.24377 2.97841 0
M  V30 1246 N 124.16 -0.719506 1.40217 0
M  V30 1247 C 125.07 -1.86378 1.42479 0
M  V30 1248 C 126.086 -1.71073 0.317834 0
M  V30 1249 O 127.262 -1.93406 0.561794 0
M  V30 1250 C 124.327 -3.22136 1.28178 0
M  V30 1251 C 123.388 -3.49723 2.48982 0
M  V30 1252 C 122.621 -4.79004 2.35353 0
M  V30 1253 O 122.844 -5.53821 1.36524 0
M  V30 1254 O 121.778 -5.06839 3.2465 0
M  V30 1255 H 125.604 -1.87425 2.38968 0
M  V30 1256 H 123.189 -0.869405 1.21498 0
M  V30 1257 H 125.071 -4.03234 1.22395 0
M  V30 1258 H 123.746 -3.21825 0.347934 0
M  V30 1259 H 122.653 -2.6865 2.60342 0
M  V30 1260 H 123.986 -3.54828 3.41113 0
M  V30 1261 N 125.638 -1.25649 -0.95132 0
M  V30 1262 C 126.886 -1.10375 -1.69298 0
M  V30 1263 C 127.207 0.355339 -1.91735 0
M  V30 1264 O 126.477 1.25188 -1.50681 0
M  V30 1265 H 125.057 -0.405461 -0.627384 0
M  V30 1266 H 127.719 -1.57823 -1.14358 0
M  V30 1267 H 126.815 -1.61465 -2.67087 0
M  V30 1268 N 127.117 1.15442 -1.07289 0
M  V30 1269 C 128.365 1.85845 -0.794096 0
M  V30 1270 C 128.686 1.82692 0.681809 0
M  V30 1271 O 127.956 1.26741 1.49377 0
M  V30 1272 H 126.536 0.688089 -0.290763 0
M  V30 1273 H 129.198 1.39947 -1.3565 0
M  V30 1274 H 128.294 2.91001 -1.12804 0
M  V30 1275 N 128.595 0.856903 1.32268 0
M  V30 1276 C 129.542 0.301172 2.28827 0
M  V30 1277 C 130.512 -0.593104 1.5515 0
M  V30 1278 O 131.697 -0.527537 1.83362 0
M  V30 1279 C 128.837 -0.502523 3.41422 0
M  V30 1280 C 127.95 0.417797 4.29975 0
M  V30 1281 C 127.085 -0.398749 5.29701 0
M  V30 1282 C 126.124 0.518827 6.09897 0
M  V30 1283 N 125.261 -0.260674 7.01616 0
M  V30 1284 H 130.101 1.12983 2.75751 0
M  V30 1285 H 127.638 0.568582 1.35667 0
M  V30 1286 H 129.596 -0.984141 4.05426 0
M  V30 1287 H 128.226 -1.29599 2.95642 0
M  V30 1288 H 127.278 1.01781 3.66531 0
M  V30 1289 H 128.59 1.12191 4.86019 0
M  V30 1290 H 127.744 -0.943435 5.9932 0
M  V30 1291 H 126.483 -1.13622 4.7428 0
M  V30 1292 H 125.488 1.07538 5.39181 0
M  V30 1293 H 126.713 1.25495 6.67404 0
M  V30 1294 H 124.659 -0.981198 6.4862 0
M  V30 1295 H 124.576 0.384364 7.55022 0
M  V30 1296 H 125.844 -0.787014 7.75517 0
M  V30 1297 N 130.073 -1.45103 0.615059 0
M  V30 1298 C 130.983 -2.34382 -0.101034 0
M  V30 1299 C 131.999 -1.51681 -0.852585 0
M  V30 1300 O 133.175 -1.8446 -0.808484 0
M  V30 1301 C 130.24 -3.29417 -1.08099 0
M  V30 1302 C 129.301 -4.28025 -0.330577 0
M  V30 1303 C 128.534 -5.1852 -1.26385 0
M  V30 1304 O 128.757 -5.12598 -2.50198 0
M  V30 1305 O 127.691 -5.97122 -0.756866 0
M  V30 1306 H 131.517 -2.97033 0.632855 0
M  V30 1307 H 129.102 -1.4461 0.375293 0
M  V30 1308 H 130.984 -3.87958 -1.6452 0
M  V30 1309 H 129.659 -2.69321 -1.79577 0
M  V30 1310 H 128.566 -3.73078 0.276283 0
M  V30 1311 H 129.899 -4.90997 0.343866 0
M  V30 1312 N 131.551 -0.354651 -1.53558 0
M  V30 1313 C 132.797 0.238797 -2.01389 0
M  V30 1314 C 133.13 1.49309 -1.2418 0
M  V30 1315 O 132.405 1.91638 -0.332457 0
M  V30 1316 C 132.688 0.541771 -3.56001 0
M  V30 1317 C 132.541 -0.725388 -4.43912 0
M  V30 1318 C 133.86 1.34685 -4.18984 0
M  V30 1319 H 130.979 0.0853177 -0.732045 0
M  V30 1320 H 133.621 -0.477384 -1.83905 0
M  V30 1321 H 131.771 1.15189 -3.71031 0
M  V30 1322 H 133.443 -1.36313 -4.407 0
M  V30 1323 H 131.686 -1.34801 -4.12324 0
M  V30 1324 H 132.357 -0.468505 -5.50008 0
M  V30 1325 H 134.833 0.830837 -4.07721 0
M  V30 1326 H 133.709 1.52759 -5.27215 0
M  V30 1327 H 133.97 2.35221 -3.74331 0
M  V30 1328 N 133.029 1.57378 -0.0835403 0
M  V30 1329 C 134.276 1.9393 0.58287 0
M  V30 1330 C 134.604 0.964455 1.68904 0
M  V30 1331 O 133.859 -0.0179474 1.95692 0
M  V30 1332 C 134.158 3.37063 1.1884 0
M  V30 1333 C 133.824 4.50424 0.207194 0
M  V30 1334 C 132.486 4.81159 -0.0627115 0
M  V30 1335 C 134.838 5.19136 -0.463426 0
M  V30 1336 C 132.166 5.77939 -1.01012 0
M  V30 1337 C 134.518 6.16931 -1.39924 0
M  V30 1338 C 133.182 6.46078 -1.67749 0
M  V30 1339 H 132.452 0.70964 0.213287 0
M  V30 1340 H 135.099 1.90856 -0.156916 0
M  V30 1341 H 133.404 3.3666 2.00418 0
M  V30 1342 H 135.101 3.6264 1.71153 0
M  V30 1343 H 131.691 4.2646 0.427747 0
M  V30 1344 H 135.875 4.95576 -0.268034 0
M  V30 1345 H 131.131 5.98842 -1.23283 0
M  V30 1346 H 135.305 6.69273 -1.92476 0
M  V30 1347 H 132.932 7.2088 -2.41321 0
M  V30 1348 N 134.507 -0.190092 1.56449 0
M  V30 1349 C 135.756 -0.907912 1.80111 0
M  V30 1350 C 136.069 -1.84214 0.657619 0
M  V30 1351 O 137.275 -2.60094 0.778663 0
M  V30 1352 C 135.731 -1.66485 3.19078 0
M  V30 1353 C 135.339 -0.7752 4.41242 0
M  V30 1354 C 137.083 -2.37201 3.52045 0
M  V30 1355 C 134.99 -1.53129 5.71231 0
M  V30 1356 H 133.92 -0.34276 0.671589 0
M  V30 1357 H 136.571 -0.161109 1.82791 0
M  V30 1358 H 134.953 -2.45572 3.10661 0
M  V30 1359 H 136.127 -0.0226298 4.60794 0
M  V30 1360 H 134.442 -0.178627 4.16017 0
M  V30 1361 H 137.039 -2.94329 4.46402 0
M  V30 1362 H 137.382 -3.11632 2.76028 0
M  V30 1363 H 137.915 -1.65075 3.61932 0
M  V30 1364 H 134.654 -0.82967 6.50228 0
M  V30 1365 H 134.174 -2.25767 5.55688 0
M  V30 1366 H 135.853 -2.08377 6.12526 0
M  V30 1367 N 135.985 -1.50799 -0.457987 0
M  V30 1368 C 137.21 -1.66496 -1.23668 0
M  V30 1369 C 137.635 -0.353288 -1.84752 0
M  V30 1370 O 136.993 0.684346 -1.67888 0
M  V30 1371 C 137.041 -2.76763 -2.3116 0
M  V30 1372 O 136.145 -2.38928 -3.36136 0
M  V30 1373 H 135.486 -0.555828 -0.363252 0
M  V30 1374 H 138.016 -1.9725 -0.543474 0
M  V30 1375 H 138.026 -3.00232 -2.76269 0
M  V30 1376 H 136.701 -3.71954 -1.86073 0
M  V30 1377 H 135.278 -2.25953 -2.96647 0
M  V30 1378 N 137.463 0.71206 -1.40597 0
M  V30 1379 C 138.711 1.46907 -1.38791 0
M  V30 1380 C 139.032 1.94998 0.00780391 0
M  V30 1381 O 138.302 1.70587 0.963174 0
M  V30 1382 H 136.882 0.545043 -0.51082 0
M  V30 1383 H 139.544 0.843882 -1.75683 0
M  V30 1384 H 138.64 2.34021 -2.06496 0
M  V30 1385 N 138.941 1.26152 0.944643 0
M  V30 1386 C 140.166 1.14363 1.7302 0
M  V30 1387 C 140.591 -0.29772 1.85729 0
M  V30 1388 O 139.949 -1.2157 1.34501 0
M  V30 1389 C 139.997 1.81378 3.11664 0
M  V30 1390 O 139.101 1.10022 3.97453 0
M  V30 1391 H 138.442 0.398694 0.53098 0
M  V30 1392 H 140.972 1.66906 1.18337 0
M  V30 1393 H 140.982 1.88064 3.62072 0
M  V30 1394 H 139.657 2.86237 3.0173 0
M  V30 1395 H 138.234 1.11287 3.55907 0
M  V30 1396 N 140.419 -1.14872 1.07899 0
M  V30 1397 C 141.666 -1.85789 0.805532 0
M  V30 1398 C 141.994 -1.82649 -0.668561 0
M  V30 1399 O 141.249 -1.24858 -1.50695 0
M  V30 1400 C 141.548 -3.34223 1.26609 0
M  V30 1401 C 141.214 -3.57555 2.74709 0
M  V30 1402 C 139.876 -3.63631 3.1516 0
M  V30 1403 C 142.228 -3.66803 3.70277 0
M  V30 1404 C 139.556 -3.76473 4.49983 0
M  V30 1405 C 141.908 -3.8117 5.04869 0
M  V30 1406 C 140.572 -3.85494 5.44932 0
M  V30 1407 H 139.842 -0.679849 0.294765 0
M  V30 1408 H 142.489 -1.3572 1.35101 0
M  V30 1409 H 140.794 -3.86536 0.640103 0
M  V30 1410 H 142.491 -3.87511 1.03132 0
M  V30 1411 H 139.081 -3.5347 2.42398 0
M  V30 1412 H 143.265 -3.61404 3.40149 0
M  V30 1413 H 138.521 -3.7808 4.80484 0
M  V30 1414 H 142.695 -3.87268 5.78789 0
M  V30 1415 H 140.322 -3.95197 6.49403 0
M  V30 1416 N 141.898 -0.863906 -1.31812 0
M  V30 1417 C 142.846 -0.30422 -2.30602 0
M  V30 1418 C 143.84 0.577419 -1.59255 0
M  V30 1419 O 145.046 0.464194 -1.73912 0
M  V30 1420 H 141.421 -0.0796877 -0.747766 0
M  V30 1421 H 143.392 -1.15148 -2.75288 0
M  V30 1422 C 142.141 0.484617 -3.44306 0
M  V30 1423 H 141.464 -0.18451 -3.99374 0
M  V30 1424 H 142.904 0.841664 -4.15562 0
M  V30 1425 C 141.363 1.6735 -2.92396 0
M  V30 1426 O 141.893 2.77273 -2.90659 0
M  V30 1427 N 140.099 1.50362 -2.48676 0
M  V30 1428 H 139.646 0.609402 -2.50288 0
M  V30 1429 H 139.604 2.30051 -2.14299 0
M  V30 1430 N 143.376 1.44774 -0.622745 0
M  V30 1431 C 144.324 2.32387 0.0994683 0
M  V30 1432 C 145.318 1.46859 0.844326 0
M  V30 1433 O 146.524 1.63254 0.758174 0
M  V30 1434 H 142.899 0.750273 0.0509291 0
M  V30 1435 H 144.87 2.91062 -0.65767 0
M  V30 1436 C 143.619 3.30723 1.07319 0
M  V30 1437 H 142.942 3.96541 0.509462 0
M  V30 1438 H 144.382 3.94725 1.54817 0
M  V30 1439 C 142.841 2.59021 2.15429 0
M  V30 1440 O 143.371 2.38286 3.23393 0
M  V30 1441 N 141.577 2.189 1.91131 0
M  V30 1442 H 141.124 2.35964 1.03337 0
M  V30 1443 H 141.082 1.71251 2.63668 0
M  V30 1444 N 144.854 0.36279 1.53368 0
M  V30 1445 C 146.1 -0.220702 2.02199 0
M  V30 1446 C 146.455 -1.46649 1.24546 0
M  V30 1447 O 145.748 -1.88737 0.32996 0
M  V30 1448 C 145.942 -0.568417 3.52851 0
M  V30 1449 C 145.771 0.642126 4.45092 0
M  V30 1450 C 144.541 1.15335 4.91961 0
M  V30 1451 C 146.739 1.50649 4.91741 0
M  V30 1452 N 144.721 2.3242 5.68202 0
M  V30 1453 C 146.092 2.52404 5.66297 0
M  V30 1454 C 148.147 1.52969 4.73819 0
M  V30 1455 C 146.85 3.56331 6.24836 0
M  V30 1456 C 148.876 2.55789 5.33222 0
M  V30 1457 C 148.238 3.56268 6.07662 0
M  V30 1458 H 144.337 -0.0435508 0.780786 0
M  V30 1459 H 146.921 0.506704 1.87991 0
M  V30 1460 H 145.092 -1.2649 3.67226 0
M  V30 1461 H 146.824 -1.13676 3.88407 0
M  V30 1462 H 143.579 0.718412 4.68119 0
M  V30 1463 H 144.003 2.91591 6.10986 0
M  V30 1464 H 148.645 0.766418 4.15795 0
M  V30 1465 H 146.363 4.33543 6.81958 0
M  V30 1466 H 149.949 2.58435 5.21251 0
M  V30 1467 H 148.829 4.34524 6.52808 0
M  V30 1468 N 146.332 -1.57332 0.0918853 0
M  V30 1469 C 147.557 -1.98995 -0.584442 0
M  V30 1470 C 147.982 -0.970528 -1.61128 0
M  V30 1471 O 147.34 0.0613904 -1.81196 0
M  V30 1472 C 147.388 -3.39636 -1.21161 0
M  V30 1473 O 146.492 -3.40447 -2.32744 0
M  V30 1474 H 145.833 -0.647165 -0.148572 0
M  V30 1475 H 148.363 -2.03873 0.172347 0
M  V30 1476 H 148.373 -3.7726 -1.55367 0
M  V30 1477 H 147.048 -4.13356 -0.459313 0
M  V30 1478 H 145.625 -3.14614 -2.0018 0
M  V30 1479 N 147.81 0.181792 -1.56548 0
M  V30 1480 C 149.038 0.915947 -1.85521 0
M  V30 1481 C 149.453 1.76282 -0.676016 0
M  V30 1482 O 148.81 1.79012 0.355077 0
M  V30 1483 C 148.861 1.80126 -3.13427 0
M  V30 1484 O 148.582 0.988562 -4.26801 0
M  V30 1485 C 150.083 2.64597 -3.55673 0
M  V30 1486 H 147.303 0.26661 -0.61576 0
M  V30 1487 H 149.847 0.185039 -2.03661 0
M  V30 1488 H 148.002 2.48563 -2.97145 0
M  V30 1489 H 148.416 1.59308 -4.99721 0
M  V30 1490 H 149.89 3.2235 -4.48101 0
M  V30 1491 H 150.367 3.38958 -2.79292 0
M  V30 1492 H 150.973 2.0151 -3.74532 0
M  V30 1493 N 149.288 1.51039 0.449983 0
M  V30 1494 C 150.235 1.71439 1.54523 0
M  V30 1495 C 151.205 0.555871 1.56522 0
M  V30 1496 O 152.39 0.788871 1.73728 0
M  V30 1497 C 149.53 1.83384 2.92343 0
M  V30 1498 C 148.643 3.10873 2.9997 0
M  V30 1499 C 147.778 3.13488 4.28834 0
M  V30 1500 C 146.817 4.35343 4.30282 0
M  V30 1501 N 145.954 4.35579 5.5065 0
M  V30 1502 H 150.794 2.64934 1.36433 0
M  V30 1503 H 148.331 1.31312 0.662982 0
M  V30 1504 H 150.289 1.88291 3.72293 0
M  V30 1505 H 148.919 0.933086 3.0902 0
M  V30 1506 H 147.971 3.15336 2.12761 0
M  V30 1507 H 149.283 4.00814 2.96901 0
M  V30 1508 H 148.437 3.17241 5.17149 0
M  V30 1509 H 147.176 2.21414 4.34543 0
M  V30 1510 H 146.181 4.3178 3.40362 0
M  V30 1511 H 147.406 5.28668 4.26248 0
M  V30 1512 H 145.352 3.46369 5.57104 0
M  V30 1513 H 145.269 5.19313 5.49409 0
M  V30 1514 H 146.537 4.43507 6.41032 0
M  V30 1515 N 150.766 -0.704594 1.40972 0
M  V30 1516 C 152.015 -1.46018 1.39146 0
M  V30 1517 C 152.328 -1.956 0.000589254 0
M  V30 1518 O 153.534 -2.71137 -0.1403 0
M  V30 1519 C 151.99 -2.63996 2.4461 0
M  V30 1520 C 151.598 -2.21238 3.89561 0
M  V30 1521 C 153.342 -3.41677 2.51907 0
M  V30 1522 C 151.249 -3.3612 4.86598 0
M  V30 1523 H 150.179 -0.548444 0.517422 0
M  V30 1524 H 152.83 -0.765784 1.66757 0
M  V30 1525 H 151.212 -3.3566 2.10115 0
M  V30 1526 H 152.386 -1.56923 4.33257 0
M  V30 1527 H 150.701 -1.56574 3.85841 0
M  V30 1528 H 153.298 -4.27182 3.2159 0
M  V30 1529 H 153.641 -3.86247 1.55303 0
M  V30 1530 H 154.174 -2.77064 2.85448 0
M  V30 1531 H 150.913 -2.96572 5.84573 0
M  V30 1532 H 150.433 -3.99315 4.47557 0
M  V30 1533 H 152.112 -4.02029 5.06934 0
M  V30 1534 N 152.244 -1.26651 -0.937939 0
M  V30 1535 C 153.655 -1.1125 -1.49934 0
M  V30 1536 C 154.006 0.306077 -1.93798 0
M  V30 1537 O 153.131 1.19792 -1.80219 0
M  V30 1538 C 153.726 -2.01339 -2.72485 0
M  V30 1539 C 152.285 -1.90074 -3.24883 0
M  V30 1540 C 151.432 -1.94498 -1.97651 0
M  V30 1541 H 154.383 -1.39693 -0.753091 0
M  V30 1542 H 154.404 -1.56319 -3.46907 0
M  V30 1543 H 153.916 -3.04577 -2.40529 0
M  V30 1544 H 152.017 -0.897827 -3.61621 0
M  V30 1545 H 152.13 -2.75778 -3.9177 0
M  V30 1546 H 150.494 -1.38591 -2.13693 0
M  V30 1547 H 151.277 -2.99372 -1.68022 0
M  V30 1548 N 153.722 1.14298 -1.08507 0
M  V30 1549 C 154.652 2.21542 -0.737646 0
M  V30 1550 C 155.633 1.67773 0.280377 0
M  V30 1551 O 156.818 1.93616 0.150521 0
M  V30 1552 C 153.948 3.46988 -0.147259 0
M  V30 1553 C 152.902 4.13789 -1.09374 0
M  V30 1554 C 152.228 5.33449 -0.365524 0
M  V30 1555 C 153.528 4.62208 -2.4323 0
M  V30 1556 H 155.222 2.5086 -1.6343 0
M  V30 1557 H 152.768 1.20576 -0.787243 0
M  V30 1558 H 154.721 4.21262 0.107808 0
M  V30 1559 H 153.445 3.17037 0.784538 0
M  V30 1560 H 152.104 3.4147 -1.33393 0
M  V30 1561 H 151.752 4.99759 0.57011 0
M  V30 1562 H 151.452 5.79088 -0.996512 0
M  V30 1563 H 152.976 6.10485 -0.118534 0
M  V30 1564 H 154.39 5.27952 -2.23472 0
M  V30 1565 H 152.787 5.18553 -3.02031 0
M  V30 1566 H 153.857 3.77224 -3.04681 0
M  V30 1567 N 155.201 0.870884 1.31352 0
M  V30 1568 C 156.45 0.478408 1.95944 0
M  V30 1569 C 156.763 -0.974493 1.69597 0
M  V30 1570 O 157.969 -1.47316 2.28058 0
M  V30 1571 C 156.425 0.804609 3.50791 0
M  V30 1572 C 156.033 2.27433 3.85977 0
M  V30 1573 C 157.777 0.480648 4.2177 0
M  V30 1574 C 155.684 2.5429 5.33939 0
M  V30 1575 H 154.614 0.175175 0.733369 0
M  V30 1576 H 157.265 1.06391 1.4951 0
M  V30 1577 H 155.647 0.148347 3.95722 0
M  V30 1578 H 156.821 2.97373 3.52002 0
M  V30 1579 H 155.136 2.56442 3.28065 0
M  V30 1580 H 157.733 0.658519 5.30629 0
M  V30 1581 H 158.076 -0.578979 4.12254 0
M  V30 1582 H 158.609 1.09349 3.82476 0
M  V30 1583 H 155.348 3.58939 5.48491 0
M  V30 1584 H 154.868 1.88945 5.69263 0
M  V30 1585 H 156.547 2.39066 6.01212 0
M  V30 1586 N 156.679 -1.44442 0.630414 0
M  V30 1587 C 157.626 -2.30678 -0.0749355 0
M  V30 1588 C 158.596 -1.4344 -0.837502 0
M  V30 1589 O 159.781 -1.72343 -0.818684 0
M  V30 1590 C 156.921 -3.28706 -1.05103 0
M  V30 1591 C 156.034 -4.31046 -0.286954 0
M  V30 1592 C 155.169 -5.16167 -1.2548 0
M  V30 1593 C 154.208 -6.10216 -0.479843 0
M  V30 1594 N 153.345 -6.88039 -1.39811 0
M  V30 1595 H 158.185 -2.90454 0.666386 0
M  V30 1596 H 155.722 -1.43107 0.340404 0
M  V30 1597 H 157.68 -3.84027 -1.63031 0
M  V30 1598 H 156.31 -2.70632 -1.75949 0
M  V30 1599 H 155.362 -3.78203 0.408243 0
M  V30 1600 H 156.674 -4.97794 0.316657 0
M  V30 1601 H 155.828 -5.76002 -1.90544 0
M  V30 1602 H 154.567 -4.49491 -1.89233 0
M  V30 1603 H 153.572 -5.49491 0.184295 0
M  V30 1604 H 154.797 -6.78928 0.152965 0
M  V30 1605 H 152.743 -6.24032 -2.02287 0
M  V30 1606 H 152.66 -7.51223 -0.848508 0
M  V30 1607 H 153.928 -7.52397 -2.03762 0
M  V30 1608 N 158.157 -0.370918 -1.53173 0
M  V30 1609 C 159.382 0.220293 -2.06227 0
M  V30 1610 C 159.807 1.41243 -1.24225 0
M  V30 1611 O 159.165 1.79387 -0.262645 0
M  V30 1612 C 159.213 0.586663 -3.55796 0
M  V30 1613 O 158.317 1.68317 -3.76488 0
M  V30 1614 H 157.658 0.0308099 -0.663285 0
M  V30 1615 H 160.188 -0.533068 -1.97534 0
M  V30 1616 H 160.198 0.85617 -3.98916 0
M  V30 1617 H 158.873 -0.285013 -4.14922 0
M  V30 1618 H 157.45 1.40881 -3.45264 0
M  V30 1619 N 159.635 1.57281 -0.100228 0
M  V30 1620 C 160.585 2.10848 0.86759 0
M  V30 1621 C 161.569 1.02473 1.24049 0
M  V30 1622 O 162.761 1.28739 1.21471 0
M  V30 1623 C 159.89 2.69648 2.12474 0
M  V30 1624 C 158.976 3.85074 1.77704 0
M  V30 1625 N 159.367 4.92897 1.13518 0
M  V30 1626 C 157.665 3.94905 2.07282 0
M  V30 1627 C 158.366 5.73475 0.974735 0
M  V30 1628 N 157.342 5.22675 1.4937 0
M  V30 1629 H 161.144 2.91594 0.367471 0
M  V30 1630 H 158.658 1.62074 0.102829 0
M  V30 1631 H 160.655 3.06356 2.82757 0
M  V30 1632 H 159.315 1.90359 2.63047 0
M  V30 1633 H 160.326 5.11662 0.801381 0
M  V30 1634 H 157.003 3.26633 2.60033 0
M  V30 1635 H 158.393 6.70238 0.472364 0
M  V30 1636 N 161.113 -0.173488 1.56642 0
M  V30 1637 C 162.061 -1.23417 1.97157 0
M  V30 1638 C 163.055 -1.45946 0.860013 0
M  V30 1639 O 164.261 -1.46551 1.04512 0
M  V30 1640 H 160.636 -0.414818 0.62724 0
M  V30 1641 H 162.607 -0.865582 2.8557 0
M  V30 1642 C 161.356 -2.5665 2.34576 0
M  V30 1643 H 160.679 -2.40137 3.19647 0
M  V30 1644 H 162.119 -3.2956 2.6677 0
M  V30 1645 C 160.578 -3.15245 1.18836 0
M  V30 1646 O 161.108 -3.98883 0.474869 0
M  V30 1647 N 159.314 -2.74303 0.959497 0
M  V30 1648 H 158.861 -2.0639 1.54146 0
M  V30 1649 H 158.819 -3.13844 0.186932 0
M  V30 1650 N 162.591 -1.51276 -0.441967 0
M  V30 1651 C 163.868 -1.54252 -1.20273 0
M  V30 1652 C 164.248 -0.30408 -2.08898 0
M  V30 1653 O 163.596 0.711084 -2.17154 0
M  V30 1654 C 163.806 -2.85406 -2.00859 0
M  V30 1655 C 165.154 -3.37181 -2.58059 0
M  V30 1656 O 166.178 -2.86925 -2.11074 0
M  V30 1657 O 165.037 -4.24858 -3.43741 0
M  V30 1658 H 162.131 -0.619969 -0.547328 0
M  V30 1659 H 164.677 -1.63586 -0.451413 0
M  V30 1660 H 163.449 -3.67003 -1.35736 0
M  V30 1661 H 163.072 -2.79213 -2.83065 0
M  V30 1662 N 164.069 0.697108 -1.41344 0
M  V30 1663 C 165.316 1.45714 -1.40619 0
M  V30 1664 C 165.644 1.94494 -0.0147907 0
M  V30 1665 O 164.899 1.69794 0.973066 0
M  V30 1666 C 165.198 2.68553 -2.35826 0
M  V30 1667 C 164.864 2.38438 -3.82698 0
M  V30 1668 C 163.526 2.29936 -4.22709 0
M  V30 1669 C 165.878 2.13567 -4.75435 0
M  V30 1670 C 163.206 1.94656 -5.53467 0
M  V30 1671 C 165.558 1.79797 -6.06511 0
M  V30 1672 C 164.222 1.69789 -6.45545 0
M  V30 1673 H 163.492 0.533206 -0.51456 0
M  V30 1674 H 166.139 0.796901 -1.74131 0
M  V30 1675 H 164.444 3.39503 -1.95563 0
M  V30 1676 H 166.141 3.2669 -2.32539 0
M  V30 1677 H 162.731 2.4595 -3.51008 0
M  V30 1678 H 166.915 2.19082 -4.45328 0
M  V30 1679 H 162.171 1.8546 -5.82593 0
M  V30 1680 H 166.345 1.59572 -6.77872 0
M  V30 1681 H 163.972 1.4222 -7.46778 0
M  V30 1682 N 165.547 1.27147 0.931209 0
M  V30 1683 C 166.793 1.13446 1.68101 0
M  V30 1684 C 167.126 -0.319628 1.91552 0
M  V30 1685 O 166.401 -1.23407 1.50336 0
M  V30 1686 C 166.684 1.91482 3.0497 0
M  V30 1687 C 166.537 3.44855 2.88782 0
M  V30 1688 C 167.856 1.71651 4.05246 0
M  V30 1689 H 164.975 0.413498 0.610072 0
M  V30 1690 H 167.617 1.56261 1.08086 0
M  V30 1691 H 165.767 1.55095 3.56199 0
M  V30 1692 H 167.439 3.9105 2.44698 0
M  V30 1693 H 165.682 3.71373 2.24198 0
M  V30 1694 H 166.353 3.94694 3.85902 0
M  V30 1695 H 168.829 2.0337 3.63015 0
M  V30 1696 H 167.705 2.28651 4.99009 0
M  V30 1697 H 167.966 0.663555 4.37092 0
M  V30 1698 N 167.025 -1.13721 1.09112 0
M  V30 1699 C 167.988 -2.17222 0.731241 0
M  V30 1700 C 168.988 -1.59035 -0.237566 0
M  V30 1701 O 170.178 -1.74192 -0.0161704 0
M  V30 1702 C 167.31 -3.40804 0.0808443 0
M  V30 1703 H 168.503 -2.50573 1.64783 0
M  V30 1704 H 166.056 -1.28493 0.889897 0
M  V30 1705 H 166.791 -3.1304 -0.847127 0
M  V30 1706 H 166.576 -3.84306 0.777896 0
M  V30 1707 H 168.066 -4.1731 -0.155657 0
M  V30 1708 N 168.503 -0.877838 -1.30888 0
M  V30 1709 C 169.752 -0.488793 -1.95688 0
M  V30 1710 C 170.065 0.965485 -1.70111 0
M  V30 1711 O 171.271 1.46104 -2.28836 0
M  V30 1712 C 169.727 -0.823201 -3.50359 0
M  V30 1713 C 169.335 -2.29477 -3.84765 0
M  V30 1714 C 171.079 -0.503009 -4.21509 0
M  V30 1715 C 168.986 -2.57118 -5.32583 0
M  V30 1716 H 167.916 -0.179062 -0.732429 0
M  V30 1717 H 170.567 -1.07183 -1.48943 0
M  V30 1718 H 168.949 -0.169331 -3.95638 0
M  V30 1719 H 170.123 -2.99236 -3.5042 0
M  V30 1720 H 168.438 -2.58178 -3.267 0
M  V30 1721 H 171.035 -0.68665 -5.30273 0
M  V30 1722 H 171.378 0.557109 -4.12555 0
M  V30 1723 H 171.911 -1.11376 -3.8189 0
M  V30 1724 H 168.65 -3.61843 -5.4658 0
M  V30 1725 H 168.17 -1.91961 -5.68253 0
M  V30 1726 H 169.849 -2.42251 -5.99936 0
M  V30 1727 N 169.982 1.44106 -0.638065 0
M  V30 1728 C 170.912 2.33448 0.0494287 0
M  V30 1729 C 171.893 1.48606 0.827672 0
M  V30 1730 O 173.078 1.77308 0.792173 0
M  V30 1731 C 170.208 3.31771 1.02691 0
M  V30 1732 C 169.162 4.26485 0.359823 0
M  V30 1733 C 168.488 5.14729 1.44769 0
M  V30 1734 C 169.788 5.17056 -0.738296 0
M  V30 1735 H 171.482 2.91183 -0.696636 0
M  V30 1736 H 169.028 1.40014 -0.336456 0
M  V30 1737 H 170.981 3.93161 1.51666 0
M  V30 1738 H 169.705 2.7226 1.80395 0
M  V30 1739 H 168.364 3.66437 -0.10934 0
M  V30 1740 H 168.012 4.51566 2.21578 0
M  V30 1741 H 167.712 5.78913 1.00668 0
M  V30 1742 H 169.236 5.78991 1.93911 0
M  V30 1743 H 170.65 5.72342 -0.331354 0
M  V30 1744 H 169.047 5.89879 -1.10286 0
M  V30 1745 H 170.117 4.57652 -1.60258 0
M  V30 1746 N 171.46 0.379036 1.52974 0
M  V30 1747 C 172.737 -0.263479 1.93817 0
M  V30 1748 C 173.117 -1.65244 1.31368 0
M  V30 1749 O 172.465 -2.23448 0.477856 0
M  V30 1750 C 172.675 -0.300166 3.47707 0
M  V30 1751 C 174.023 -0.534061 4.21228 0
M  V30 1752 O 175.047 -0.38081 3.54159 0
M  V30 1753 O 173.906 -0.833501 5.40106 0
M  V30 1754 H 171 -0.161149 0.811147 0
M  V30 1755 H 173.546 0.432798 1.64088 0
M  V30 1756 H 172.318 0.673138 3.85467 0
M  V30 1757 H 171.941 -1.04179 3.83709 0
M  V30 1758 N 172.938 -1.57226 0.108567 0
M  V30 1759 C 173.868 -2.17778 -0.84232 0
M  V30 1760 C 174.849 -1.11487 -1.2847 0
M  V30 1761 O 176.034 -1.39681 -1.34918 0
M  V30 1762 C 173.164 -2.76888 -2.09644 0
M  V30 1763 C 172.118 -3.88669 -1.79221 0
M  V30 1764 C 171.444 -4.34541 -3.11574 0
M  V30 1765 C 172.744 -5.11251 -1.06864 0
M  V30 1766 H 174.438 -2.97489 -0.337774 0
M  V30 1767 H 171.984 -1.43097 -0.161025 0
M  V30 1768 H 173.937 -3.17904 -2.76614 0
M  V30 1769 H 172.661 -1.94451 -2.62405 0
M  V30 1770 H 171.32 -3.48213 -1.14644 0
M  V30 1771 H 170.968 -3.48977 -3.62249 0
M  V30 1772 H 170.668 -5.09914 -2.91996 0
M  V30 1773 H 172.192 -4.782 -3.7968 0
M  V30 1774 H 173.606 -5.49352 -1.63968 0
M  V30 1775 H 172.003 -5.9214 -0.974178 0
M  V30 1776 H 173.073 -4.8487 -0.0536168 0
M  V30 1777 N 174.416 0.165178 -1.56732 0
M  V30 1778 C 175.827 0.727046 -1.71962 0
M  V30 1779 C 176.178 1.82508 -0.720078 0
M  V30 1780 O 175.303 2.16082 0.117242 0
M  V30 1781 C 175.898 1.32559 -3.11791 0
M  V30 1782 C 174.457 1.83422 -3.28684 0
M  V30 1783 C 173.604 0.715567 -2.67908 0
M  V30 1784 H 176.555 -0.0602896 -1.58585 0
M  V30 1785 H 176.576 2.19533 -3.10782 0
M  V30 1786 H 176.088 0.526195 -3.84516 0
M  V30 1787 H 174.189 2.65986 -2.60926 0
M  V30 1788 H 174.302 1.97543 -4.36478 0
M  V30 1789 H 172.666 1.13758 -2.27884 0
M  V30 1790 H 173.449 -0.0720836 -3.43224 0
M  V30 1791 N 175.894 1.51508 0.433938 0
M  V30 1792 C 176.804 1.75917 1.5521 0
M  V30 1793 C 177.82 0.643545 1.61662 0
M  V30 1794 O 178.996 0.926183 1.7884 0
M  V30 1795 C 176.061 1.88213 2.91164 0
M  V30 1796 C 175.122 3.12074 2.94802 0
M  V30 1797 C 174.355 3.23774 4.24271 0
M  V30 1798 O 174.578 2.4133 5.16833 0
M  V30 1799 O 173.512 4.16774 4.34262 0
M  V30 1800 H 177.338 2.70777 1.37527 0
M  V30 1801 H 174.923 1.36051 0.617293 0
M  V30 1802 H 176.805 1.98267 3.71845 0
M  V30 1803 H 175.48 0.965413 3.08968 0
M  V30 1804 H 174.387 3.07497 2.13065 0
M  V30 1805 H 175.72 4.03446 2.81943 0
M  V30 1806 N 177.372 -0.689602 1.41712 0
M  V30 1807 C 178.62 -1.4468 1.4111 0
M  V30 1808 C 178.941 -1.94986 0.0232196 0
M  V30 1809 O 178.211 -1.72097 -0.935913 0
M  V30 1810 H 176.791 -0.536847 0.519427 0
M  V30 1811 H 179.453 -0.815825 1.77004 0
M  V30 1812 H 178.549 -2.30706 2.10193 0
M  V30 1813 N 178.85 -1.27639 -0.924453 0
M  V30 1814 C 179.76 -1.12466 -2.05885 0
M  V30 1815 C 180.776 -0.053869 -1.73917 0
M  V30 1816 O 181.952 -0.261012 -1.99702 0
M  V30 1817 C 179.017 -0.776768 -3.37886 0
M  V30 1818 C 178.078 -1.92878 -3.83532 0
M  V30 1819 C 177.311 -1.59739 -5.09234 0
M  V30 1820 O 177.534 -0.506782 -5.68144 0
M  V30 1821 O 176.468 -2.43761 -5.50331 0
M  V30 1822 H 180.294 -2.07671 -2.21599 0
M  V30 1823 H 177.879 -1.06857 -1.04413 0
M  V30 1824 H 179.761 -0.596229 -4.17161 0
M  V30 1825 H 178.436 0.145732 -3.23372 0
M  V30 1826 H 177.343 -2.1644 -3.0513 0
M  V30 1827 H 178.676 -2.8316 -4.02593 0
M  V30 1828 N 180.328 1.1314 -1.09713 0
M  V30 1829 C 181.278 2.16709 -0.708593 0
M  V30 1830 C 182.262 1.58471 0.278523 0
M  V30 1831 O 183.454 1.76779 0.088427 0
M  V30 1832 C 180.583 3.43039 -0.133923 0
M  V30 1833 C 179.669 4.08277 -1.14763 0
M  V30 1834 N 180.06 4.48637 -2.33577 0
M  V30 1835 C 178.358 4.34954 -0.986446 0
M  V30 1836 C 179.059 4.9952 -2.98085 0
M  V30 1837 N 178.035 4.94561 -2.25632 0
M  V30 1838 H 181.837 2.45672 -1.61315 0
M  V30 1839 H 179.351 1.29967 -0.973775 0
M  V30 1840 H 181.348 4.16583 0.162465 0
M  V30 1841 H 180.008 3.15549 0.765447 0
M  V30 1842 H 181.019 4.41246 -2.7115 0
M  V30 1843 H 177.696 4.17258 -0.142008 0
M  V30 1844 H 179.086 5.40521 -3.99108 0
M  V30 1845 N 181.806 0.884767 1.30421 0
M  V30 1846 C 182.738 0.308655 2.27112 0
M  V30 1847 C 183.751 -0.536655 1.53701 0
M  V30 1848 O 184.94 -0.35624 1.74909 0
M  V30 1849 C 182.04 -0.579782 3.33904 0
M  V30 1850 C 181.213 0.236417 4.36761 0
M  V30 1851 C 180.272 -0.582482 5.22966 0
M  V30 1852 O 179.298 -0.00525502 5.692 0
M  V30 1853 N 180.5 -1.89163 5.48815 0
M  V30 1854 H 183.265 1.13964 2.77186 0
M  V30 1855 H 180.826 0.747731 1.43599 0
M  V30 1856 H 182.818 -1.13366 3.88497 0
M  V30 1857 H 181.388 -1.31144 2.83761 0
M  V30 1858 H 180.608 0.97174 3.82035 0
M  V30 1859 H 181.896 0.795924 5.02536 0
M  V30 1860 H 181.294 -2.38352 5.13035 0
M  V30 1861 H 179.851 -2.39296 6.06284 0
M  V30 1862 N 183.284 -1.43765 0.645699 0
M  V30 1863 C 184.514 -2.05953 0.163318 0
M  V30 1864 C 184.922 -1.48432 -1.17322 0
M  V30 1865 O 184.265 -0.607295 -1.73371 0
M  V30 1866 C 184.327 -3.59499 -0.0103065 0
M  V30 1867 C 183.991 -4.39563 1.25035 0
M  V30 1868 C 184.988 -4.72108 2.17739 0
M  V30 1869 C 182.673 -4.79697 1.48983 0
M  V30 1870 C 184.667 -5.43688 3.3269 0
M  V30 1871 C 182.354 -5.51023 2.64229 0
M  V30 1872 C 183.352 -5.8294 3.55908 0
M  V30 1873 O 183.04 -6.5281 4.69142 0
M  V30 1874 H 182.772 -0.670798 0.0836986 0
M  V30 1875 H 185.326 -1.85384 0.884407 0
M  V30 1876 H 183.556 -3.78613 -0.78669 0
M  V30 1877 H 185.245 -4.03408 -0.449087 0
M  V30 1878 H 186.011 -4.41627 2.00476 0
M  V30 1879 H 181.89 -4.54266 0.785078 0
M  V30 1880 H 185.434 -5.68517 4.04269 0
M  V30 1881 H 181.331 -5.8092 2.81429 0
M  V30 1882 H 182.099 -6.71288 4.6831 0
M  V30 1883 N 184.763 -0.387143 -1.52771 0
M  V30 1884 C 185.71 0.449048 -2.26389 0
M  V30 1885 C 186.68 1.05961 -1.27912 0
M  V30 1886 O 187.865 1.08804 -1.56737 0
M  V30 1887 C 185.005 1.57155 -3.0724 0
M  V30 1888 C 184.118 0.984066 -4.20643 0
M  V30 1889 C 183.253 2.07745 -4.88892 0
M  V30 1890 C 182.292 1.46574 -5.94292 0
M  V30 1891 N 181.429 2.49834 -6.56146 0
M  V30 1892 H 186.269 -0.185205 -2.97424 0
M  V30 1893 H 183.806 -0.103164 -1.46738 0
M  V30 1894 H 185.764 2.23309 -3.52405 0
M  V30 1895 H 184.394 2.17615 -2.38419 0
M  V30 1896 H 183.446 0.212193 -3.79808 0
M  V30 1897 H 184.758 0.497029 -4.96318 0
M  V30 1898 H 183.912 2.81673 -5.3735 0
M  V30 1899 H 182.651 2.59807 -4.12737 0
M  V30 1900 H 181.656 0.711696 -5.45174 0
M  V30 1901 H 182.881 0.953088 -6.72379 0
M  V30 1902 H 180.827 3.0107 -5.82832 0
M  V30 1903 H 180.744 2.05879 -7.27427 0
M  V30 1904 H 182.012 3.23399 -7.09249 0
M  V30 1905 N 186.241 1.57166 -0.116904 0
M  V30 1906 C 187.488 1.95123 0.541603 0
M  V30 1907 C 187.816 1.00006 1.6682 0
M  V30 1908 O 187.071 0.0235658 1.95686 0
M  V30 1909 C 187.37 3.39508 1.11664 0
M  V30 1910 C 187.036 4.50762 0.111606 0
M  V30 1911 C 185.698 4.80918 -0.164758 0
M  V30 1912 C 188.05 5.18036 -0.573438 0
M  V30 1913 C 185.378 5.75666 -1.13249 0
M  V30 1914 C 187.73 6.13824 -1.52978 0
M  V30 1915 C 186.394 6.42374 -1.81415 0
M  V30 1916 H 185.664 0.714005 0.198187 0
M  V30 1917 H 188.311 1.9048 -0.197365 0
M  V30 1918 H 186.616 3.40835 1.93232 0
M  V30 1919 H 188.313 3.66189 1.63422 0
M  V30 1920 H 184.903 4.27272 0.337192 0
M  V30 1921 H 189.087 4.94896 -0.373092 0
M  V30 1922 H 184.343 5.96092 -1.35958 0
M  V30 1923 H 188.517 6.65039 -2.06629 0
M  V30 1924 H 186.144 7.15599 -2.56557 0
M  V30 1925 N 187.719 -0.156864 1.56817 0
M  V30 1926 C 188.966 -0.871125 1.82805 0
M  V30 1927 C 189.294 -1.81611 0.696262 0
M  V30 1928 O 188.549 -1.93141 -0.315459 0
M  V30 1929 C 188.848 -1.68737 3.1506 0
M  V30 1930 C 188.514 -0.890045 4.42028 0
M  V30 1931 C 187.176 -0.670042 4.76512 0
M  V30 1932 C 189.528 -0.331769 5.20143 0
M  V30 1933 C 186.856 0.119104 5.86579 0
M  V30 1934 C 189.208 0.444365 6.31037 0
M  V30 1935 C 187.872 0.675035 6.64078 0
M  V30 1936 H 187.142 -0.318767 0.668931 0
M  V30 1937 H 189.789 -0.135274 1.91022 0
M  V30 1938 H 188.094 -2.49304 3.0225 0
M  V30 1939 H 189.791 -2.24331 3.3238 0
M  V30 1940 H 186.381 -1.07157 4.14988 0
M  V30 1941 H 190.565 -0.489043 4.93885 0
M  V30 1942 H 185.821 0.307417 6.10627 0
M  V30 1943 H 189.995 0.884139 6.90765 0
M  V30 1944 H 187.622 1.28839 7.49203 0
M  V30 1945 N 189.197 -1.51736 -0.425897 0
M  V30 1946 C 190.443 -1.65214 -1.1761 0
M  V30 1947 C 190.776 -0.372778 -1.90589 0
M  V30 1948 O 190.051 0.628139 -1.84078 0
M  V30 1949 C 190.334 -2.86312 -2.18398 0
M  V30 1950 C 190.187 -4.24254 -1.49426 0
M  V30 1951 C 191.506 -3.02925 -3.19256 0
M  V30 1952 H 188.625 -0.601263 -0.426206 0
M  V30 1953 H 191.267 -1.8425 -0.463882 0
M  V30 1954 H 189.417 -2.70213 -2.79137 0
M  V30 1955 H 191.089 -4.52046 -0.919362 0
M  V30 1956 H 189.332 -4.26426 -0.796432 0
M  V30 1957 H 190.003 -5.05001 -2.22885 0
M  V30 1958 H 192.479 -3.1781 -2.68581 0
M  V30 1959 H 191.355 -3.89199 -3.8706 0
M  V30 1960 H 191.616 -2.15497 -3.86023 0
M  V30 1961 N 190.675 0.682077 -1.42076 0
M  V30 1962 C 191.952 1.43755 -1.32642 0
M  V30 1963 C 192.332 2.11063 0.0396611 0
M  V30 1964 O 191.68 2.02701 1.05474 0
M  V30 1965 C 191.89 2.44596 -2.48946 0
M  V30 1966 C 193.238 3.09454 -2.9073 0
M  V30 1967 O 194.262 2.54922 -2.48783 0
M  V30 1968 O 193.121 4.08253 -3.63307 0
M  V30 1969 H 190.215 0.640857 -0.522715 0
M  V30 1970 H 192.761 0.711415 -1.54068 0
M  V30 1971 H 191.533 1.93609 -3.40046 0
M  V30 1972 H 191.156 3.24701 -2.29467 0
M  V30 1973 N 192.153 1.28127 0.917671 0
M  V30 1974 C 193.401 1.14825 1.66312 0
M  V30 1975 C 193.722 -0.304379 1.9261 0
M  V30 1976 O 192.992 -1.21149 1.53947 0
M  V30 1977 H 191.572 0.421953 0.616413 0
M  V30 1978 H 194.234 1.608 1.10134 0
M  V30 1979 H 193.33 1.68489 2.62712 0
M  V30 1980 N 193.631 -1.12557 1.10312 0
M  V30 1981 C 194.563 -2.17971 0.708625 0
M  V30 1982 C 195.576 -1.60806 -0.254027 0
M  V30 1983 O 196.765 -1.78458 -0.0386891 0
M  V30 1984 C 193.865 -3.38891 0.0248198 0
M  V30 1985 C 193.038 -4.25548 1.01132 0
M  V30 1986 C 192.097 -5.24972 0.35924 0
M  V30 1987 O 191.123 -5.60174 1.00965 0
M  V30 1988 N 192.325 -5.73747 -0.882847 0
M  V30 1989 H 195.09 -2.52427 1.61557 0
M  V30 1990 H 192.651 -1.27967 0.991771 0
M  V30 1991 H 194.643 -4.02485 -0.422852 0
M  V30 1992 H 193.213 -3.02596 -0.784514 0
M  V30 1993 H 192.433 -3.58589 1.6373 0
M  V30 1994 H 193.721 -4.80294 1.67914 0
M  V30 1995 H 193.119 -5.4731 -1.43065 0
M  V30 1996 H 191.676 -6.39234 -1.27369 0
M  V30 1997 N 195.109 -0.891671 -1.2995 0
M  V30 1998 C 196.355 -0.523649 -1.96544 0
M  V30 1999 C 196.71 0.918394 -1.69066 0
M  V30 2000 O 196.003 1.64122 -0.988659 0
M  V30 2001 C 196.197 -0.742868 -3.49594 0
M  V30 2002 C 196.026 -2.20467 -3.9195 0
M  V30 2003 C 194.796 -2.85055 -4.17219 0
M  V30 2004 C 196.994 -3.17912 -4.04273 0
M  V30 2005 N 194.976 -4.21762 -4.46083 0
M  V30 2006 C 196.347 -4.39712 -4.37097 0
M  V30 2007 C 198.402 -3.1361 -3.86721 0
M  V30 2008 C 197.105 -5.5776 -4.54199 0
M  V30 2009 C 199.131 -4.30936 -4.05028 0
M  V30 2010 C 198.493 -5.51504 -4.38204 0
M  V30 2011 H 194.592 -0.241072 -0.743914 0
M  V30 2012 H 197.176 -1.15081 -1.5705 0
M  V30 2013 H 195.347 -0.14515 -3.88129 0
M  V30 2014 H 197.079 -0.341081 -4.0326 0
M  V30 2015 H 193.834 -2.35889 -4.10674 0
M  V30 2016 H 194.258 -4.92382 -4.64638 0
M  V30 2017 H 198.9 -2.21489 -3.60142 0
M  V30 2018 H 196.618 -6.50379 -4.79618 0
M  V30 2019 H 200.204 -4.29085 -3.92909 0
M  V30 2020 H 199.084 -6.40778 -4.52077 0
M  V30 2021 N 196.587 1.43421 -0.653314 0
M  V30 2022 C 197.833 2.02111 -0.166992 0
M  V30 2023 C 198.166 1.51423 1.21592 0
M  V30 2024 O 197.441 0.707389 1.8118 0
M  V30 2025 C 197.724 3.5966 -0.177948 0
M  V30 2026 C 197.577 4.20579 -1.59478 0
M  V30 2027 C 198.896 4.37413 0.4856 0
M  V30 2028 H 196.015 0.734374 -0.0621557 0
M  V30 2029 H 198.657 1.70717 -0.834016 0
M  V30 2030 H 196.807 3.86537 0.390032 0
M  V30 2031 H 198.479 4.04732 -2.21336 0
M  V30 2032 H 196.722 3.77226 -2.14204 0
M  V30 2033 H 197.393 5.29665 -1.5543 0
M  V30 2034 H 199.869 4.161 0.00234528 0
M  V30 2035 H 198.745 5.47075 0.447207 0
M  V30 2036 H 199.006 4.13672 1.55974 0
M  V30 2037 N 198.065 0.39524 1.52563 0
M  V30 2038 C 199.015 -0.4541 2.23432 0
M  V30 2039 C 199.999 -1.02482 1.24042 0
M  V30 2040 O 201.191 -0.949938 1.49349 0
M  V30 2041 C 198.32 -1.57769 3.049 0
M  V30 2042 C 197.406 -1.01842 4.1169 0
M  V30 2043 N 197.797 -0.184613 5.05463 0
M  V30 2044 C 196.095 -1.29033 4.26927 0
M  V30 2045 C 196.796 0.125013 5.81566 0
M  V30 2046 N 195.772 -0.480498 5.41472 0
M  V30 2047 H 199.574 0.189413 2.93289 0
M  V30 2048 H 197.088 0.204877 1.61102 0
M  V30 2049 H 199.085 -2.19862 3.54212 0
M  V30 2050 H 197.745 -2.22397 2.36579 0
M  V30 2051 H 198.756 0.178602 5.17592 0
M  V30 2052 H 195.433 -1.93721 3.69836 0
M  V30 2053 H 196.823 0.800962 6.67109 0
M  V30 2054 N 199.544 -1.57102 0.125237 0
M  V30 2055 C 200.821 -1.86953 -0.575142 0
M  V30 2056 C 201.201 -1.02749 -1.84407 0
M  V30 2057 O 200.549 -0.108144 -2.28244 0
M  V30 2058 C 200.759 -3.38198 -0.861583 0
M  V30 2059 C 202.107 -4.06937 -1.21192 0
M  V30 2060 O 203.131 -3.43252 -0.951645 0
M  V30 2061 O 201.99 -5.19364 -1.70068 0
M  V30 2062 H 199.084 -0.774147 -0.290906 0
M  V30 2063 H 201.63 -1.68942 0.160211 0
M  V30 2064 H 200.402 -3.91282 0.0373647 0
M  V30 2065 H 200.025 -3.61661 -1.65188 0
M  V30 2066 N 201.022 0.148545 -1.56898 0
M  V30 2067 C 202.433 0.708766 -1.72723 0
M  V30 2068 C 202.784 1.81734 -0.739395 0
M  V30 2069 O 201.909 2.16194 0.0943169 0
M  V30 2070 C 202.504 1.29245 -3.13179 0
M  V30 2071 C 201.063 1.79925 -3.30611 0
M  V30 2072 C 200.21 0.687111 -2.68652 0
M  V30 2073 H 203.161 -0.0771063 -1.58513 0
M  V30 2074 H 203.182 2.16224 -3.13093 0
M  V30 2075 H 202.694 0.485382 -3.85053 0
M  V30 2076 H 200.795 2.63203 -2.63732 0
M  V30 2077 H 200.908 1.92903 -4.38549 0
M  V30 2078 H 199.272 1.11335 -2.29078 0
M  V30 2079 H 200.055 -0.108483 -3.43129 0
M  V30 2080 N 202.5 1.5196 0.417844 0
M  V30 2081 C 203.725 1.69717 1.1921 0
M  V30 2082 C 204.15 0.402148 1.83751 0
M  V30 2083 O 203.508 -0.639593 1.69643 0
M  V30 2084 C 203.556 2.82794 2.2374 0
M  V30 2085 O 202.66 2.47756 3.29683 0
M  V30 2086 H 202.001 0.565263 0.348387 0
M  V30 2087 H 204.531 1.98621 0.490985 0
M  V30 2088 H 204.541 3.07452 2.68212 0
M  V30 2089 H 203.216 3.76756 1.76146 0
M  V30 2090 H 201.793 2.33739 2.90552 0
M  V30 2091 N 203.978 -0.674533 1.42435 0
M  V30 2092 C 204.888 -1.81751 1.48337 0
M  V30 2093 C 205.904 -1.69975 0.372099 0
M  V30 2094 O 207.08 -1.91521 0.62304 0
M  V30 2095 C 204.145 -3.17895 1.38361 0
M  V30 2096 C 203.206 -3.41625 2.59982 0
M  V30 2097 C 202.439 -4.71274 2.50473 0
M  V30 2098 O 202.662 -5.49197 1.54075 0
M  V30 2099 O 201.596 -4.96254 3.4061 0
M  V30 2100 H 205.422 -1.79728 2.44809 0
M  V30 2101 H 203.007 -0.830312 1.24202 0
M  V30 2102 H 204.889 -3.99136 1.35161 0
M  V30 2103 H 203.564 -3.20555 0.450144 0
M  V30 2104 H 202.471 -2.60231 2.68757 0
M  V30 2105 H 203.804 -3.43796 3.52229 0
M  V30 2106 N 205.456 -1.28612 -0.910864 0
M  V30 2107 C 206.867 -1.14406 -1.47541 0
M  V30 2108 C 207.218 0.264901 -1.94403 0
M  V30 2109 O 206.343 1.15942 -1.82719 0
M  V30 2110 C 206.938 -2.07073 -2.68153 0
M  V30 2111 C 205.497 -1.96923 -3.20778 0
M  V30 2112 C 204.644 -1.98646 -1.93481 0
M  V30 2113 H 207.595 -1.41259 -0.723291 0
M  V30 2114 H 207.616 -1.63642 -3.43514 0
M  V30 2115 H 207.128 -3.09611 -2.34015 0
M  V30 2116 H 205.229 -0.97433 -3.59635 0
M  V30 2117 H 205.342 -2.84026 -3.85832 0
M  V30 2118 H 203.706 -1.43093 -2.10705 0
M  V30 2119 H 204.489 -3.02868 -1.61634 0
M  V30 2120 N 206.934 1.1197 -1.10907 0
M  V30 2121 C 208.18 1.8386 -0.855773 0
M  V30 2122 C 208.513 1.84134 0.617103 0
M  V30 2123 O 207.788 1.29041 1.45529 0
M  V30 2124 C 208.071 3.31305 -1.411 0
M  V30 2125 C 207.924 3.39456 -2.9511 0
M  V30 2126 C 209.243 4.2721 -1.05736 0
M  V30 2127 H 206.362 0.667545 -0.312334 0
M  V30 2128 H 209.004 1.31331 -1.37303 0
M  V30 2129 H 207.154 3.76169 -0.97105 0
M  V30 2130 H 208.826 3.03191 -3.47668 0
M  V30 2131 H 207.069 2.79849 -3.31462 0
M  V30 2132 H 207.74 4.43209 -3.29044 0
M  V30 2133 H 210.216 3.90497 -1.43706 0
M  V30 2134 H 209.092 5.28775 -1.47269 0
M  V30 2135 H 209.353 4.42088 0.0325958 0
M  V30 2136 N 208.412 0.89855 1.29475 0
M  V30 2137 C 209.658 0.524658 1.95896 0
M  V30 2138 C 209.991 -0.926468 1.70676 0
M  V30 2139 O 209.266 -1.65665 1.01908 0
M  V30 2140 C 209.549 0.81633 3.50725 0
M  V30 2141 C 209.402 2.31907 3.85408 0
M  V30 2142 C 210.721 0.302038 4.39062 0
M  V30 2143 H 207.84 0.19209 0.711527 0
M  V30 2144 H 210.482 1.12502 1.53112 0
M  V30 2145 H 208.632 0.305369 3.87298 0
M  V30 2146 H 210.304 2.89949 3.58786 0
M  V30 2147 H 208.547 2.78027 3.32992 0
M  V30 2148 H 209.218 2.47373 4.93468 0
M  V30 2149 H 211.694 0.739551 4.09475 0
M  V30 2150 H 210.57 0.535331 5.46283 0
M  V30 2151 H 210.831 -0.797216 4.34853 0
M  V30 2152 N 209.89 -1.43072 0.660911 0
M  V30 2153 C 211.118 -2.06067 0.185422 0
M  V30 2154 C 211.533 -1.49582 -1.15198 0
M  V30 2155 O 210.89 -0.630134 -1.71276 0
M  V30 2156 C 210.941 -3.61371 0.0966523 0
M  V30 2157 O 210.662 -4.15758 1.38119 0
M  V30 2158 C 212.163 -4.41455 -0.403996 0
M  V30 2159 H 209.383 -0.664459 0.0934604 0
M  V30 2160 H 211.927 -1.83447 0.90373 0
M  V30 2161 H 210.082 -3.8315 -0.572259 0
M  V30 2162 H 210.496 -5.09499 1.24542 0
M  V30 2163 H 211.97 -5.50437 -0.415045 0
M  V30 2164 H 212.447 -4.15036 -1.43674 0
M  V30 2165 H 213.053 -4.24663 0.232691 0
M  V30 2166 N 211.368 -0.403325 -1.52352 0
M  V30 2167 C 212.593 0.176499 -2.06648 0
M  V30 2168 C 213.018 1.38577 -1.27193 0
M  V30 2169 O 212.376 1.7879 -0.300637 0
M  V30 2170 C 212.424 0.511061 -3.5696 0
M  V30 2171 O 211.528 1.60294 -3.79973 0
M  V30 2172 H 210.869 0.0167337 -0.663789 0
M  V30 2173 H 213.399 -0.574848 -1.96359 0
M  V30 2174 H 213.409 0.771362 -4.00642 0
M  V30 2175 H 212.084 -0.37296 -4.14224 0
M  V30 2176 H 210.661 1.33526 -3.48174 0
M  V30 2177 N 212.846 1.57033 -0.133567 0
M  V30 2178 C 213.778 2.13176 0.841944 0
M  V30 2179 C 214.791 1.07794 1.22001 0
M  V30 2180 O 215.98 1.35117 1.16643 0
M  V30 2181 C 213.08 2.62847 2.13926 0
M  V30 2182 C 212.253 3.92486 1.93064 0
M  V30 2183 C 211.312 4.27605 3.0666 0
M  V30 2184 O 210.338 4.96168 2.78937 0
M  V30 2185 N 211.54 3.861 4.33483 0
M  V30 2186 H 214.305 2.97503 0.362192 0
M  V30 2187 H 211.866 1.61821 0.05042 0
M  V30 2188 H 213.858 2.83363 2.88942 0
M  V30 2189 H 212.428 1.83319 2.53205 0
M  V30 2190 H 211.648 3.80732 1.02159 0
M  V30 2191 H 212.936 4.77225 1.76447 0
M  V30 2192 H 212.334 3.30828 4.58878 0
M  V30 2193 H 210.891 4.11694 5.05323 0
M  V30 2194 N 214.325 -0.140222 1.56975 0
M  V30 2195 C 215.255 -1.17456 2.01808 0
M  V30 2196 C 216.236 -1.44415 0.898794 0
M  V30 2197 O 217.421 -1.5522 1.16707 0
M  V30 2198 C 214.551 -2.50607 2.40444 0
M  V30 2199 C 213.505 -2.38155 3.55621 0
M  V30 2200 C 212.831 -3.76078 3.80091 0
M  V30 2201 C 214.131 -1.85991 4.88062 0
M  V30 2202 H 215.825 -0.801743 2.88466 0
M  V30 2203 H 213.371 -0.38422 1.38779 0
M  V30 2204 H 215.324 -3.23197 2.7041 0
M  V30 2205 H 214.048 -2.89737 1.50732 0
M  V30 2206 H 212.707 -1.68016 3.25832 0
M  V30 2207 H 212.355 -4.12656 2.87618 0
M  V30 2208 H 212.055 -3.68606 4.57606 0
M  V30 2209 H 213.579 -4.50206 4.12488 0
M  V30 2210 H 214.993 -2.4838 5.16701 0
M  V30 2211 H 213.39 -1.89393 5.6943 0
M  V30 2212 H 214.46 -0.816023 4.77984 0
M  V30 2213 N 215.803 -1.52179 -0.40978 0
M  V30 2214 C 217.051 -1.65878 -1.15451 0
M  V30 2215 C 217.372 -0.390771 -1.91044 0
M  V30 2216 O 216.642 0.594323 -1.86667 0
M  V30 2217 H 215.222 -0.611405 -0.429177 0
M  V30 2218 H 217.884 -1.89219 -0.467134 0
M  V30 2219 H 216.98 -2.49954 -1.86894 0
M  V30 2220 N 217.281 0.66697 -1.42791 0
M  V30 2221 C 218.509 1.45505 -1.47091 0
M  V30 2222 C 218.924 1.8861 -0.0845873 0
M  V30 2223 O 218.281 1.58632 0.90234 0
M  V30 2224 C 218.332 2.69906 -2.40485 0
M  V30 2225 O 218.053 2.28608 -3.73725 0
M  V30 2226 C 219.554 3.63396 -2.53886 0
M  V30 2227 H 216.774 0.447459 -0.500022 0
M  V30 2228 H 219.318 0.818866 -1.8739 0
M  V30 2229 H 217.473 3.29696 -2.03419 0
M  V30 2230 H 217.887 3.08997 -4.23817 0
M  V30 2231 H 219.361 4.47387 -3.2334 0
M  V30 2232 H 219.838 4.09824 -1.57927 0
M  V30 2233 H 220.444 3.09495 -2.91706 0
M  V30 2234 N 218.759 1.29093 0.90403 0
M  V30 2235 C 220.008 1.16187 1.64874 0
M  V30 2236 C 220.321 -0.286742 1.93487 0
M  V30 2237 O 221.527 -0.537062 2.66135 0
M  V30 2238 C 219.983 2.03177 2.97064 0
M  V30 2239 C 219.591 3.52836 2.76062 0
M  V30 2240 C 221.335 1.98984 3.74974 0
M  V30 2241 C 219.242 4.31945 4.03952 0
M  V30 2242 H 218.172 0.431246 0.618501 0
M  V30 2243 H 220.823 1.53699 1.00243 0
M  V30 2244 H 219.205 1.5853 3.62883 0
M  V30 2245 H 220.379 4.05507 2.18863 0
M  V30 2246 H 218.694 3.58656 2.11553 0
M  V30 2247 H 221.291 2.55351 4.69787 0
M  V30 2248 H 221.634 0.968815 4.0487 0
M  V30 2249 H 222.167 2.41652 3.15989 0
M  V30 2250 H 218.906 5.34667 3.79225 0
M  V30 2251 H 218.426 3.84045 4.60727 0
M  V30 2252 H 220.105 4.42379 4.72133 0
M  V30 2253 N 220.237 -1.11381 1.11499 0
M  V30 2254 C 221.185 -2.19522 0.768956 0
M  V30 2255 C 222.179 -1.67693 -0.239857 0
M  V30 2256 O 223.385 -1.79727 -0.0990755 0
M  V30 2257 H 219.76 -0.715711 0.230786 0
M  V30 2258 H 221.731 -2.45954 1.68964 0
M  V30 2259 C 220.48 -3.46945 0.229073 0
M  V30 2260 H 219.803 -3.8718 0.996596 0
M  V30 2261 H 221.243 -4.23993 0.0251441 0
M  V30 2262 C 219.702 -3.2042 -1.04079 0
M  V30 2263 O 220.232 -3.41178 -2.12038 0
M  V30 2264 N 218.438 -2.74151 -0.963823 0
M  V30 2265 H 217.985 -2.57459 -0.0851722 0
M  V30 2266 H 217.943 -2.56781 -1.81414 0
M  V30 2267 N 221.715 -0.905404 -1.28997 0
M  V30 2268 C 222.663 -0.377431 -2.29517 0
M  V30 2269 C 223.657 0.526461 -1.61012 0
M  V30 2270 O 224.863 0.40863 -1.753 0
M  V30 2271 H 221.238 -0.103437 -0.744852 0
M  V30 2272 H 223.209 -1.23848 -2.71485 0
M  V30 2273 C 221.958 0.374833 -3.45674 0
M  V30 2274 H 221.281 -0.311474 -3.98585 0
M  V30 2275 H 222.721 0.70903 -4.1803 0
M  V30 2276 C 221.18 1.57963 -2.97572 0
M  V30 2277 O 221.71 2.67886 -2.99333 0
M  V30 2278 N 219.916 1.42375 -2.53333 0
M  V30 2279 H 219.463 0.529466 -2.521 0
M  V30 2280 H 219.421 2.23117 -2.21509 0
M  V30 2281 N 223.193 1.4272 -0.668489 0
M  V30 2282 C 224.123 2.335 -0.000100175 0
M  V30 2283 C 225.104 1.50328 0.795964 0
M  V30 2284 O 226.289 1.78949 0.754385 0
M  V30 2285 C 223.419 3.33874 0.956302 0
M  V30 2286 C 222.373 4.27152 0.269278 0
M  V30 2287 C 221.699 5.17684 1.33818 0
M  V30 2288 C 222.999 5.15373 -0.847805 0
M  V30 2289 H 224.693 2.89639 -0.758244 0
M  V30 2290 H 222.239 1.39269 -0.366079 0
M  V30 2291 H 224.192 3.9629 1.43292 0
M  V30 2292 H 222.916 2.76025 1.74579 0
M  V30 2293 H 221.575 3.66123 -0.187042 0
M  V30 2294 H 221.223 4.56165 2.1195 0
M  V30 2295 H 220.923 5.80918 0.883659 0
M  V30 2296 H 222.447 5.82974 1.81586 0
M  V30 2297 H 223.861 5.7151 -0.452681 0
M  V30 2298 H 222.258 5.87407 -1.22773 0
M  V30 2299 H 223.328 4.5415 -1.69929 0
M  V30 2300 N 224.671 0.411399 1.52136 0
M  V30 2301 C 225.92 -0.165009 2.01024 0
M  V30 2302 C 226.233 -1.4603 1.30133 0
M  V30 2303 O 227.439 -2.1181 1.69849 0
M  V30 2304 C 225.895 -0.344618 3.58246 0
M  V30 2305 C 225.503 0.938716 4.38055 0
M  V30 2306 C 227.247 -0.876195 4.15359 0
M  V30 2307 C 225.154 0.726172 5.86925 0
M  V30 2308 H 224.084 -0.0654407 0.751155 0
M  V30 2309 H 226.735 0.537192 1.75461 0
M  V30 2310 H 225.117 -1.10921 3.80148 0
M  V30 2311 H 226.291 1.70963 4.27912 0
M  V30 2312 H 224.606 1.39688 3.92271 0
M  V30 2313 H 227.203 -1.05128 5.24263 0
M  V30 2314 H 227.546 -1.85152 3.7286 0
M  V30 2315 H 228.079 -0.170607 3.97434 0
M  V30 2316 H 224.818 1.67312 6.33788 0
M  V30 2317 H 224.338 -0.00540283 5.998 0
M  V30 2318 H 226.017 0.369231 6.45946 0
M  V30 2319 N 226.149 -1.5696 0.141893 0
M  V30 2320 C 227.099 -2.13074 -0.811383 0
M  V30 2321 C 228.083 -1.05726 -1.21288 0
M  V30 2322 O 229.275 -1.31914 -1.18015 0
M  V30 2323 C 226.404 -2.75186 -2.0525 0
M  V30 2324 C 225.49 -3.8965 -1.67432 0
M  V30 2325 N 225.881 -4.95733 -1.0041 0
M  V30 2326 C 224.179 -4.00262 -1.96739 0
M  V30 2327 C 224.88 -5.75858 -0.822345 0
M  V30 2328 N 223.856 -5.26452 -1.3546 0
M  V30 2329 H 227.658 -2.92465 -0.290031 0
M  V30 2330 H 225.172 -1.6229 -0.0598218 0
M  V30 2331 H 227.169 -3.13745 -2.74535 0
M  V30 2332 H 225.829 -1.97266 -2.57907 0
M  V30 2333 H 226.84 -5.13607 -0.665441 0
M  V30 2334 H 223.517 -3.33412 -2.51282 0
M  V30 2335 H 224.907 -6.71254 -0.294496 0
M  V30 2336 N 227.627 0.131896 -1.57047 0
M  V30 2337 C 228.873 0.843179 -1.84441 0
M  V30 2338 C 229.206 1.80129 -0.725749 0
M  V30 2339 O 228.481 1.92624 0.269469 0
M  V30 2340 C 228.764 1.60442 -3.22382 0
M  V30 2341 C 228.617 0.666782 -4.4483 0
M  V30 2342 C 229.936 2.56354 -3.5773 0
M  V30 2343 H 227.055 0.305081 -0.670891 0
M  V30 2344 H 229.697 0.107839 -1.89694 0
M  V30 2345 H 227.847 2.23128 -3.18035 0
M  V30 2346 H 229.519 0.0497646 -4.61273 0
M  V30 2347 H 227.762 -0.022609 -4.33794 0
M  V30 2348 H 228.433 1.23579 -5.37989 0
M  V30 2349 H 230.909 2.0378 -3.62785 0
M  V30 2350 H 229.785 3.06657 -4.5525 0
M  V30 2351 H 230.046 3.38419 -2.84473 0
M  V30 2352 N 229.106 1.52395 0.401703 0
M  V30 2353 C 230.053 1.76268 1.48991 0
M  V30 2354 C 231.023 0.605386 1.54675 0
M  V30 2355 O 232.208 0.843742 1.7113 0
M  V30 2356 C 229.348 1.92592 2.86361 0
M  V30 2357 C 228.461 3.20259 2.89928 0
M  V30 2358 C 227.596 3.26972 4.18644 0
M  V30 2359 C 226.635 4.48812 4.16214 0
M  V30 2360 N 225.772 4.52877 5.36514 0
M  V30 2361 H 230.612 2.6914 1.27935 0
M  V30 2362 H 228.149 1.33355 0.620871 0
M  V30 2363 H 230.107 2.0004 3.66115 0
M  V30 2364 H 228.737 1.03093 3.05895 0
M  V30 2365 H 227.789 3.21945 2.02621 0
M  V30 2366 H 229.101 4.10056 2.83999 0
M  V30 2367 H 228.255 3.33533 5.06794 0
M  V30 2368 H 226.994 2.35126 4.27278 0
M  V30 2369 H 225.999 4.4239 3.26453 0
M  V30 2370 H 227.224 5.41961 4.09213 0
M  V30 2371 H 225.17 3.63917 5.45802 0
M  V30 2372 H 225.087 5.36529 5.32609 0
M  V30 2373 H 226.355 4.63676 6.26597 0
M  V30 2374 N 230.584 -0.659388 1.43143 0
M  V30 2375 C 231.531 -1.77249 1.47822 0
M  V30 2376 C 232.501 -1.62818 0.328558 0
M  V30 2377 O 233.686 -1.83151 0.534838 0
M  V30 2378 C 230.826 -3.15371 1.40126 0
M  V30 2379 C 229.939 -3.4098 2.65249 0
M  V30 2380 C 229.074 -4.68915 2.49584 0
M  V30 2381 C 228.113 -4.87608 3.70006 0
M  V30 2382 N 227.25 -6.06796 3.53189 0
M  V30 2383 H 232.09 -1.72584 2.42938 0
M  V30 2384 H 229.627 -0.842297 1.20598 0
M  V30 2385 H 231.585 -3.9521 1.33659 0
M  V30 2386 H 230.215 -3.19121 0.485964 0
M  V30 2387 H 229.267 -2.55282 2.8202 0
M  V30 2388 H 230.579 -3.50681 3.54717 0
M  V30 2389 H 229.733 -5.56871 2.4079 0
M  V30 2390 H 228.472 -4.61524 1.5763 0
M  V30 2391 H 227.477 -3.9809 3.79215 0
M  V30 2392 H 228.702 -4.96834 4.62961 0
M  V30 2393 H 226.648 -6.00549 2.63965 0
M  V30 2394 H 226.565 -6.17428 4.36255 0
M  V30 2395 H 227.833 -6.9739 3.48236 0
M  V30 2396 N 232.062 -1.29571 -0.897171 0
M  V30 2397 C 233.287 -1.20705 -1.68656 0
M  V30 2398 C 233.712 0.228582 -1.86706 0
M  V30 2399 O 233.07 1.16494 -1.3892 0
M  V30 2400 C 233.118 -1.9282 -3.04717 0
M  V30 2401 O 232.222 -1.24697 -3.93096 0
M  V30 2402 H 231.563 -0.418126 -0.515816 0
M  V30 2403 H 234.093 -1.71183 -1.12061 0
M  V30 2404 H 234.103 -2.01372 -3.54843 0
M  V30 2405 H 232.778 -2.97239 -2.90899 0
M  V30 2406 H 231.355 -1.2442 -3.51531 0
M  V30 2407 N 233.54 1.10788 -1.12088 0
M  V30 2408 C 234.817 1.79136 -0.785476 0
M  V30 2409 C 235.197 1.98246 0.725377 0
M  V30 2410 O 234.545 1.57258 1.65778 0
M  V30 2411 C 234.755 3.12375 -1.55636 0
M  V30 2412 C 236.103 3.8731 -1.74001 0
M  V30 2413 O 237.127 3.22085 -1.52117 0
M  V30 2414 O 235.986 5.04369 -2.10415 0
M  V30 2415 H 233.08 0.776226 -0.285311 0
M  V30 2416 H 235.626 1.1747 -1.2247 0
M  V30 2417 H 234.398 2.93863 -2.5838 0
M  V30 2418 H 234.021 3.81758 -1.11114 0
M  V30 2419 N 235.018 0.912232 1.28515 0
M  V30 2420 C 236.265 0.544599 1.95039 0
M  V30 2421 C 236.593 -0.911435 1.71823 0
M  V30 2422 O 235.848 -1.66317 1.03137 0
M  V30 2423 C 236.147 0.798392 3.48368 0
M  V30 2424 C 235.813 2.23374 3.91682 0
M  V30 2425 C 234.475 2.62617 4.03219 0
M  V30 2426 C 236.827 3.16786 4.13879 0
M  V30 2427 C 234.155 3.94429 4.3433 0
M  V30 2428 C 236.507 4.48161 4.46469 0
M  V30 2429 C 235.171 4.8726 4.56217 0
M  V30 2430 H 234.441 0.199283 0.7137 0
M  V30 2431 H 237.088 1.15327 1.52879 0
M  V30 2432 H 235.393 0.106908 3.91654 0
M  V30 2433 H 237.09 0.493141 3.97956 0
M  V30 2434 H 233.68 1.91922 3.83228 0
M  V30 2435 H 237.864 2.87677 4.0442 0
M  V30 2436 H 233.12 4.24426 4.40082 0
M  V30 2437 H 237.294 5.20559 4.62592 0
M  V30 2438 H 234.921 5.89431 4.80078 0
M  V30 2439 N 236.496 -1.42363 0.676048 0
M  V30 2440 C 237.406 -2.346 -0.00153389 0
M  V30 2441 C 238.422 -1.5516 -0.787485 0
M  V30 2442 O 239.598 -1.87723 -0.729521 0
M  V30 2443 C 236.663 -3.33705 -0.940298 0
M  V30 2444 C 235.724 -4.29042 -0.148739 0
M  V30 2445 C 234.957 -5.23413 -1.04279 0
M  V30 2446 O 235.18 -5.22749 -2.28232 0
M  V30 2447 O 234.114 -5.99795 -0.502925 0
M  V30 2448 H 237.94 -2.94082 0.758268 0
M  V30 2449 H 235.525 -1.42888 0.436289 0
M  V30 2450 H 237.407 -3.94586 -1.47917 0
M  V30 2451 H 236.082 -2.76695 -1.67993 0
M  V30 2452 H 234.989 -3.71571 0.43427 0
M  V30 2453 H 236.322 -4.89097 0.551805 0
M  V30 2454 N 237.974 -0.419461 -1.51915 0
M  V30 2455 C 239.22 0.153166 -2.02221 0
M  V30 2456 C 239.553 1.43907 -1.30401 0
M  V30 2457 O 238.828 1.90055 -0.413438 0
M  V30 2458 C 239.111 0.390291 -3.57979 0
M  V30 2459 C 238.964 -0.913014 -4.40436 0
M  V30 2460 C 240.283 1.16794 -4.2432 0
M  V30 2461 H 237.402 0.0541924 -0.735005 0
M  V30 2462 H 240.044 -0.554955 -1.81715 0
M  V30 2463 H 238.194 0.993491 -3.75582 0
M  V30 2464 H 239.866 -1.54882 -4.34522 0
M  V30 2465 H 238.109 -1.52168 -4.06236 0
M  V30 2466 H 238.78 -0.701361 -5.47526 0
M  V30 2467 H 241.256 0.657161 -4.10878 0
M  V30 2468 H 240.132 1.3026 -5.3322 0
M  V30 2469 H 240.393 2.19132 -3.83971 0
M  V30 2470 N 239.452 1.56882 -0.150215 0
M  V30 2471 C 240.699 1.96228 0.500093 0
M  V30 2472 C 241.027 1.03522 1.64661 0
M  V30 2473 O 240.282 0.0650683 1.95592 0
M  V30 2474 C 240.581 3.41801 1.04437 0
M  V30 2475 C 240.247 4.50897 0.0159671 0
M  V30 2476 C 238.909 4.8046 -0.266731 0
M  V30 2477 C 241.261 5.16703 -0.683192 0
M  V30 2478 C 238.589 5.73135 -1.25434 0
M  V30 2479 C 240.941 6.10441 -1.65964 0
M  V30 2480 C 239.605 6.38382 -1.95 0
M  V30 2481 H 238.875 0.718048 0.182997 0
M  V30 2482 H 241.522 1.90019 -0.237724 0
M  V30 2483 H 239.827 3.44857 1.85959 0
M  V30 2484 H 241.524 3.69573 1.55618 0
M  V30 2485 H 238.114 4.27891 0.246485 0
M  V30 2486 H 242.298 4.93993 -0.477983 0
M  V30 2487 H 237.554 5.93074 -1.48571 0
M  V30 2488 H 241.728 6.60507 -2.20689 0
M  V30 2489 H 239.355 7.09996 -2.71679 0
M  V30 2490 N 240.93 -0.123565 1.57115 0
M  V30 2491 C 242.207 -0.862196 1.75572 0
M  V30 2492 C 242.587 -1.98279 0.724475 0
M  V30 2493 O 241.935 -2.27102 -0.252407 0
M  V30 2494 C 242.145 -1.38309 3.20424 0
M  V30 2495 C 243.493 -1.83724 3.82793 0
M  V30 2496 O 244.517 -1.47999 3.23998 0
M  V30 2497 O 243.376 -2.49685 4.86127 0
M  V30 2498 H 240.47 -0.409113 0.718718 0
M  V30 2499 H 243.016 -0.107661 1.69358 0
M  V30 2500 H 241.788 -0.578889 3.86994 0
M  V30 2501 H 241.411 -2.20046 3.31158 0
M  V30 2502 N 242.408 -1.52605 -0.393616 0
M  V30 2503 C 243.371 -1.76415 -1.46323 0
M  V30 2504 C 244.371 -0.634126 -1.47768 0
M  V30 2505 O 245.561 -0.902142 -1.4902 0
M  V30 2506 C 242.693 -1.8607 -2.85641 0
M  V30 2507 H 243.886 -2.71916 -1.26498 0
M  V30 2508 H 241.439 -1.43257 -0.625073 0
M  V30 2509 H 242.174 -0.925378 -3.10817 0
M  V30 2510 H 241.959 -2.68235 -2.85993 0
M  V30 2511 H 243.449 -2.06179 -3.63153 0
M  V30 2512 N 243.887 0.651787 -1.4349 0
M  V30 2513 C 244.817 1.77621 -1.51569 0
M  V30 2514 C 245.798 1.66022 -0.370253 0
M  V30 2515 O 246.983 1.85095 -0.587658 0
M  V30 2516 C 244.113 3.16056 -1.43966 0
M  V30 2517 C 243.067 3.4242 -2.56774 0
M  V30 2518 C 242.393 4.8067 -2.34223 0
M  V30 2519 C 243.693 3.37023 -3.99015 0
M  V30 2520 H 245.387 1.71117 -2.45681 0
M  V30 2521 H 242.933 0.821825 -1.18246 0
M  V30 2522 H 244.886 3.94472 -1.48221 0
M  V30 2523 H 243.61 3.23293 -0.463586 0
M  V30 2524 H 242.269 2.66375 -2.51873 0
M  V30 2525 H 241.917 4.84585 -1.34856 0
M  V30 2526 H 241.617 4.9927 -3.09844 0
M  V30 2527 H 243.141 5.61342 -2.40265 0
M  V30 2528 H 244.555 4.05374 -4.05395 0
M  V30 2529 H 242.952 3.67159 -4.74673 0
M  V30 2530 H 244.022 2.3518 -4.2405 0
M  V30 2531 N 245.365 1.30045 0.890287 0
M  V30 2532 C 246.312 1.15976 1.99545 0
M  V30 2533 C 247.282 0.0506202 1.66023 0
M  V30 2534 O 248.467 0.219847 1.89529 0
M  V30 2535 C 245.607 0.852054 3.34416 0
M  V30 2536 C 244.72 2.04255 3.80662 0
M  V30 2537 C 243.855 1.6734 5.04154 0
M  V30 2538 C 242.894 2.82916 5.42794 0
M  V30 2539 N 242.031 2.46333 6.57468 0
M  V30 2540 H 246.871 2.10524 2.10911 0
M  V30 2541 H 244.408 1.04749 1.03276 0
M  V30 2542 H 246.366 0.654296 4.12037 0
M  V30 2543 H 244.996 -0.0565502 3.2275 0
M  V30 2544 H 244.048 2.35172 2.98995 0
M  V30 2545 H 245.36 2.90826 4.05242 0
M  V30 2546 H 244.514 1.43908 5.89386 0
M  V30 2547 H 243.253 0.779308 4.81433 0
M  V30 2548 H 242.258 3.0702 4.56091 0
M  V30 2549 H 243.483 3.73004 5.6749 0
M  V30 2550 H 241.429 1.59423 6.36334 0
M  V30 2551 H 241.346 3.26436 6.81891 0
M  V30 2552 H 242.614 2.26244 7.45945 0
M  V30 2553 N 246.843 -1.10192 1.12674 0
M  V30 2554 C 247.773 -2.18652 0.819362 0
M  V30 2555 C 248.754 -1.68698 -0.217915 0
M  V30 2556 O 249.939 -1.94041 -0.0785581 0
M  V30 2557 C 247.069 -3.46202 0.27594 0
M  V30 2558 C 246.023 -4.09444 1.24656 0
M  V30 2559 C 245.349 -5.31725 0.563258 0
M  V30 2560 C 246.649 -4.52863 2.60217 0
M  V30 2561 H 248.343 -2.44622 1.72628 0
M  V30 2562 H 245.889 -1.17571 0.831451 0
M  V30 2563 H 247.842 -4.21372 0.0486149 0
M  V30 2564 H 246.566 -3.1973 -0.666331 0
M  V30 2565 H 245.225 -3.36284 1.45974 0
M  V30 2566 H 244.873 -5.0153 -0.384235 0
M  V30 2567 H 244.573 -5.74991 1.21075 0
M  V30 2568 H 246.097 -6.09624 0.34503 0
M  V30 2569 H 247.511 -5.19294 2.42913 0
M  V30 2570 H 245.908 -5.06986 3.21068 0
M  V30 2571 H 246.978 -3.65656 3.18471 0
M  V30 2572 N 248.321 -0.919034 -1.28029 0
M  V30 2573 C 249.598 -0.473668 -1.89778 0
M  V30 2574 C 249.978 1.04783 -1.83259 0
M  V30 2575 O 249.326 1.8982 -1.27202 0
M  V30 2576 C 249.536 -1.00998 -3.34066 0
M  V30 2577 C 250.884 -1.06525 -4.1102 0
M  V30 2578 O 251.908 -0.958996 -3.43048 0
M  V30 2579 O 250.767 -1.22776 -5.3253 0
M  V30 2580 H 247.861 -0.15098 -0.813101 0
M  V30 2581 H 250.407 -1.01016 -1.36359 0
M  V30 2582 H 249.179 -2.05392 -3.33061 0
M  V30 2583 H 248.802 -0.454626 -3.94992 0
M  V30 2584 N 249.799 1.42003 -0.683588 0
M  V30 2585 C 251.024 2.06265 -0.216647 0
M  V30 2586 C 251.449 1.51059 1.12083 0
M  V30 2587 O 250.807 0.632638 1.69904 0
M  V30 2588 C 250.855 3.60191 -0.171759 0
M  V30 2589 O 249.959 4.03396 0.857069 0
M  V30 2590 H 249.3 0.65502 -0.108834 0
M  V30 2591 H 251.83 1.81982 -0.935077 0
M  V30 2592 H 251.84 4.08 0.0014303 0
M  V30 2593 H 250.515 3.99743 -1.14796 0
M  V30 2594 H 249.092 3.67117 0.654208 0
M  V30 2595 N 251.277 0.427512 1.51691 0
M  V30 2596 C 252.21 -0.433876 2.24037 0
M  V30 2597 C 253.188 -1.03287 1.25581 0
M  V30 2598 O 254.372 -1.07722 1.54688 0
M  V30 2599 C 251.499 -1.60385 2.98319 0
M  V30 2600 C 250.545 -1.12648 4.11355 0
M  V30 2601 S 251.378 -0.076543 5.35445 0
M  V30 2602 C 252.534 -1.25141 6.13262 0
M  V30 2603 H 252.767 0.180367 2.96752 0
M  V30 2604 H 250.3 0.211946 1.52938 0
M  V30 2605 H 252.258 -2.27462 3.41718 0
M  V30 2606 H 250.919 -2.18948 2.25213 0
M  V30 2607 H 250.112 -2.0011 4.62571 0
M  V30 2608 H 249.714 -0.534088 3.70167 0
M  V30 2609 H 252.006 -2.17162 6.41753 0
M  V30 2610 H 252.949 -0.779411 7.03797 0
M  V30 2611 H 253.357 -1.48553 5.44603 0
M  V30 2612 N 252.755 -1.56801 0.158532 0
M  V30 2613 C 253.665 -2.20916 -0.789518 0
M  V30 2614 C 254.681 -1.1969 -1.26294 0
M  V30 2615 O 255.857 -1.52308 -1.31773 0
M  V30 2616 C 252.922 -2.82727 -2.00665 0
M  V30 2617 C 251.983 -3.99114 -1.58134 0
M  V30 2618 C 251.216 -4.57968 -2.74045 0
M  V30 2619 O 251.439 -4.15704 -3.90572 0
M  V30 2620 O 250.373 -5.48047 -2.48855 0
M  V30 2621 H 254.199 -3.02464 -0.273681 0
M  V30 2622 H 251.784 -1.4924 -0.0690548 0
M  V30 2623 H 253.666 -3.21968 -2.71872 0
M  V30 2624 H 252.341 -2.04184 -2.51179 0
M  V30 2625 H 251.248 -3.64567 -0.839155 0
M  V30 2626 H 252.581 -4.79212 -1.12325 0
M  V30 2627 N 254.233 0.115231 -1.57178 0
M  V30 2628 C 255.458 0.840354 -1.89612 0
M  V30 2629 C 255.883 1.72464 -0.750845 0
M  V30 2630 O 255.241 1.78826 0.298478 0
M  V30 2631 C 255.289 1.64654 -3.20814 0
M  V30 2632 O 254.393 2.7538 -3.06985 0
M  V30 2633 H 253.734 0.232158 -0.622092 0
M  V30 2634 H 256.264 0.0964977 -2.04372 0
M  V30 2635 H 256.274 2.03499 -3.53627 0
M  V30 2636 H 254.949 0.997416 -4.03763 0
M  V30 2637 H 253.526 2.3971 -2.85646 0
M  V30 2638 N 255.711 1.52812 0.385517 0
M  V30 2639 C 256.936 1.72207 1.15583 0
M  V30 2640 C 257.361 0.441034 1.82857 0
M  V30 2641 O 256.719 -0.603465 1.70962 0
M  V30 2642 C 256.767 2.87476 2.17692 0
M  V30 2643 O 255.871 2.54693 3.24354 0
M  V30 2644 H 255.212 0.572526 0.336319 0
M  V30 2645 H 257.742 1.99618 0.448744 0
M  V30 2646 H 257.752 3.13072 2.6163 0
M  V30 2647 H 256.427 3.80408 1.68115 0
M  V30 2648 H 255.004 2.3985 2.85529 0
M  V30 2649 N 257.189 -0.644168 1.43834 0
M  V30 2650 C 258.099 -1.78563 1.52159 0
M  V30 2651 C 259.115 -1.69147 0.408069 0
M  V30 2652 O 260.291 -1.90156 0.663524 0
M  V30 2653 C 257.356 -3.14888 1.45073 0
M  V30 2654 C 256.417 -3.36034 2.6717 0
M  V30 2655 C 255.65 -4.65855 2.60413 0
M  V30 2656 O 255.873 -5.45805 1.65689 0
M  V30 2657 O 254.807 -4.88918 3.5106 0
M  V30 2658 H 258.633 -1.74494 2.48567 0
M  V30 2659 H 256.218 -0.80378 1.25935 0
M  V30 2660 H 258.1 -3.96179 1.43597 0
M  V30 2661 H 256.775 -3.19528 0.518037 0
M  V30 2662 H 255.682 -2.54472 2.74217 0
M  V30 2663 H 257.015 -3.36247 3.59442 0
M  V30 2664 N 258.668 -1.30515 -0.883378 0
M  V30 2665 C 259.896 -1.22359 -1.66841 0
M  V30 2666 C 260.311 0.213296 -1.87591 0
M  V30 2667 O 259.668 1.14075 -1.42454 0
M  V30 2668 C 259.719 -1.95011 -3.04389 0
M  V30 2669 O 259.44 -3.3309 -2.84575 0
M  V30 2670 C 260.941 -1.93532 -3.98824 0
M  V30 2671 H 258.161 -0.423371 -0.520575 0
M  V30 2672 H 260.705 -1.72167 -1.10357 0
M  V30 2673 H 258.86 -1.48997 -3.57601 0
M  V30 2674 H 259.274 -3.69907 -3.71846 0
M  V30 2675 H 260.748 -2.48902 -4.92699 0
M  V30 2676 H 261.225 -0.914627 -4.29571 0
M  V30 2677 H 261.831 -2.39364 -3.51547 0
M  V30 2678 N 260.146 1.09593 -1.13257 0
M  V30 2679 C 261.371 1.8604 -0.916732 0
M  V30 2680 C 261.796 1.80504 0.529146 0
M  V30 2681 O 261.154 1.18127 1.37534 0
M  V30 2682 C 261.202 3.32017 -1.40703 0
M  V30 2683 O 260.306 4.08141 -0.591153 0
M  V30 2684 H 259.647 0.576943 -0.328683 0
M  V30 2685 H 262.177 1.38405 -1.50682 0
M  V30 2686 H 262.187 3.82865 -1.4099 0
M  V30 2687 H 260.862 3.35361 -2.45979 0
M  V30 2688 H 259.439 3.67084 -0.656005 0
M  V30 2689 N 261.624 0.925811 1.2754 0
M  V30 2690 C 262.864 0.572521 1.96218 0
M  V30 2691 C 263.228 -0.869719 1.71172 0
M  V30 2692 O 264.429 -1.33119 2.33523 0
M  V30 2693 C 262.7 0.887325 3.4621 0
M  V30 2694 S 264.259 0.642266 4.34074 0
M  V30 2695 H 261.077 0.211403 0.678845 0
M  V30 2696 H 263.679 1.19384 1.54815 0
M  V30 2697 H 262.383 1.93469 3.61936 0
M  V30 2698 H 261.914 0.255123 3.92572 0
M  V30 2699 H 263.929 -0.500822 4.93666 0
M  V30 2700 N 263.102 -1.41638 0.69111 0
M  V30 2701 C 264.518 -1.55435 0.362224 0
M  V30 2702 C 264.718 -1.66754 -1.13117 0
M  V30 2703 O 263.774 -1.64348 -1.91692 0
M  V30 2704 C 265.087 -2.79588 1.10684 0
M  V30 2705 C 266.635 -2.9338 1.09075 0
M  V30 2706 C 267.11 -4.20414 1.81703 0
M  V30 2707 N 268.601 -4.27362 1.7865 0
M  V30 2708 C 269.336 -5.24507 2.31689 0
M  V30 2709 N 268.832 -6.27708 2.93179 0
M  V30 2710 N 270.625 -5.16416 2.2197 0
M  V30 2711 H 262.776 -1.32536 1.65976 0
M  V30 2712 H 265.039 -0.639115 0.700168 0
M  V30 2713 H 264.745 -2.77419 2.16175 0
M  V30 2714 H 264.619 -3.70973 0.682545 0
M  V30 2715 H 267.006 -2.95067 0.0441238 0
M  V30 2716 H 267.087 -2.0318 1.55407 0
M  V30 2717 H 266.731 -4.19488 2.86343 0
M  V30 2718 H 266.661 -5.09578 1.32808 0
M  V30 2719 H 269.152 -3.53415 1.33815 0
M  V30 2720 H 269.465 -6.98217 3.31229 0
M  V30 2721 H 267.81 -6.28223 2.97255 0
M  V30 2722 H 271.001 -4.34716 1.73607 0
M  V30 2723 H 271.174 -5.91958 2.63609 0
M  V30 2724 N 264.58 -0.43555 -1.51462 0
M  V30 2725 C 265.857 0.191364 -1.94662 0
M  V30 2726 C 266.237 1.60254 -1.37411 0
M  V30 2727 O 265.585 2.2152 -0.560458 0
M  V30 2728 C 265.795 0.17091 -3.48581 0
M  V30 2729 C 267.143 0.377357 -4.2292 0
M  V30 2730 O 268.167 0.249104 -3.55328 0
M  V30 2731 O 267.026 0.63247 -5.42828 0
M  V30 2732 H 264.12 0.130932 -0.816569 0
M  V30 2733 H 266.666 -0.4934 -1.62369 0
M  V30 2734 H 265.438 -0.815738 -3.82703 0
M  V30 2735 H 265.061 0.898659 -3.87311 0
M  V30 2736 N 266.058 1.56714 -0.166846 0
M  V30 2737 C 266.988 2.20754 0.760913 0
M  V30 2738 C 267.969 1.16178 1.24244 0
M  V30 2739 O 269.154 1.44592 1.29641 0
M  V30 2740 C 266.284 2.84478 1.99223 0
M  V30 2741 C 265.238 3.95053 1.64672 0
M  V30 2742 C 264.564 4.45805 2.95232 0
M  V30 2743 C 265.864 5.14865 0.878155 0
M  V30 2744 H 267.558 2.98537 0.22713 0
M  V30 2745 H 265.104 1.43596 0.107805 0
M  V30 2746 H 267.057 3.27951 2.64624 0
M  V30 2747 H 265.781 2.04056 2.55007 0
M  V30 2748 H 264.44 3.52228 1.01641 0
M  V30 2749 H 264.088 3.62181 3.49047 0
M  V30 2750 H 263.788 5.204 2.7287 0
M  V30 2751 H 265.312 4.91962 3.6167 0
M  V30 2752 H 266.726 5.55059 1.43466 0
M  V30 2753 H 265.123 5.95348 0.753738 0
M  V30 2754 H 266.193 4.84735 -0.126377 0
M  V30 2755 N 267.536 -0.106894 1.57237 0
M  V30 2756 C 268.761 -0.830287 1.90055 0
M  V30 2757 C 269.186 -1.72064 0.75998 0
M  V30 2758 O 268.544 -1.78982 -0.288991 0
M  V30 2759 C 268.592 -1.6295 3.21683 0
M  V30 2760 O 267.696 -2.73748 3.08441 0
M  V30 2761 H 267.037 -0.228855 0.623315 0
M  V30 2762 H 269.567 -0.085658 2.04421 0
M  V30 2763 H 269.577 -2.01621 3.54701 0
M  V30 2764 H 268.252 -0.975989 4.04286 0
M  V30 2765 H 266.829 -2.38192 2.86913 0
M  V30 2766 N 269.014 -1.53014 -0.377408 0
M  V30 2767 C 270.239 -1.72818 -1.14668 0
M  V30 2768 C 270.664 -0.450725 -1.8262 0
M  V30 2769 O 270.022 0.59439 -1.7128 0
M  V30 2770 C 270.07 -2.88627 -2.16164 0
M  V30 2771 O 269.174 -2.56409 -3.22998 0
M  V30 2772 H 268.515 -0.574301 -0.333278 0
M  V30 2773 H 271.045 -1.99853 -0.438152 0
M  V30 2774 H 271.055 -3.14455 -2.59966 0
M  V30 2775 H 269.73 -3.81294 -1.66095 0
M  V30 2776 H 268.307 -2.4136 -2.84253 0
M  V30 2777 N 270.492 0.636531 -1.44174 0
M  V30 2778 C 271.717 1.42847 -1.50364 0
M  V30 2779 C 272.142 1.87665 -0.127867 0
M  V30 2780 O 271.5 1.58408 0.88185 0
M  V30 2781 C 271.548 2.62854 -2.4686 0
M  V30 2782 O 270.652 3.62501 -1.9664 0
M  V30 2783 H 269.993 0.427642 -0.507955 0
M  V30 2784 H 272.523 0.777422 -1.89255 0
M  V30 2785 H 272.533 3.10465 -2.64718 0
M  V30 2786 H 271.208 2.29578 -3.46795 0
M  V30 2787 H 269.785 3.21735 -1.88523 0
M  V30 2788 N 271.97 1.30982 0.876444 0
M  V30 2789 C 273.381 1.18277 1.44456 0
M  V30 2790 C 273.732 -0.213265 1.95037 0
M  V30 2791 O 272.857 -1.11057 1.85729 0
M  V30 2792 C 273.452 2.1411 2.62569 0
M  V30 2793 C 272.011 2.05358 3.15444 0
M  V30 2794 C 271.158 2.03706 1.88146 0
M  V30 2795 H 274.109 1.43127 0.685584 0
M  V30 2796 H 274.13 1.72692 3.39054 0
M  V30 2797 H 273.642 3.15706 2.25724 0
M  V30 2798 H 271.743 1.06934 3.56926 0
M  V30 2799 H 271.856 2.94156 3.78166 0
M  V30 2800 H 270.22 1.48629 2.06837 0
M  V30 2801 H 271.003 3.07047 1.53547 0
M  V30 2802 N 273.449 -1.08991 1.13837 0
M  V30 2803 C 274.86 -1.62746 0.914917 0
M  V30 2804 C 275.211 -1.88403 -0.547594 0
M  V30 2805 O 274.336 -1.63706 -1.41525 0
M  V30 2806 C 274.931 -2.95662 1.65437 0
M  V30 2807 C 273.49 -3.46225 1.47666 0
M  V30 2808 C 272.637 -2.20562 1.6807 0
M  V30 2809 H 275.588 -0.922946 1.29102 0
M  V30 2810 H 275.609 -3.63825 1.11407 0
M  V30 2811 H 275.121 -2.76956 2.71877 0
M  V30 2812 H 273.222 -3.70046 0.435478 0
M  V30 2813 H 273.335 -4.23368 2.24268 0
M  V30 2814 H 271.699 -2.29439 1.10589 0
M  V30 2815 H 272.482 -2.0437 2.7584 0
M  V30 2816 N 274.927 -0.932562 -1.27047 0
M  V30 2817 C 276.175 -0.574422 -1.93765 0
M  V30 2818 C 276.496 0.887993 -1.73608 0
M  V30 2819 O 275.766 1.62999 -1.08665 0
M  V30 2820 H 274.346 -0.209451 -0.717035 0
M  V30 2821 H 277.008 -1.18601 -1.5466 0
M  V30 2822 H 276.104 -0.784841 -3.02071 0
M  V30 2823 N 276.405 1.4127 -0.698611 0
M  V30 2824 C 277.816 1.84187 -0.305289 0
M  V30 2825 C 278.167 1.58449 1.15708 0
M  V30 2826 O 277.292 1.05651 1.88856 0
M  V30 2827 C 277.887 3.3435 -0.547314 0
M  V30 2828 C 276.446 3.75826 -0.207878 0
M  V30 2829 C 275.593 2.64647 -0.828099 0
M  V30 2830 H 278.544 1.30778 -0.89904 0
M  V30 2831 H 278.565 3.8001 0.192998 0
M  V30 2832 H 278.077 3.53051 -1.61172 0
M  V30 2833 H 276.178 3.62725 0.852143 0
M  V30 2834 H 276.291 4.74462 -0.665021 0
M  V30 2835 H 274.655 2.53395 -0.257458 0
M  V30 2836 H 275.438 2.86165 -1.89643 0
M  V30 2837 N 277.883 0.443576 1.51229 0
M  V30 2838 C 279.113 -0.119117 2.06256 0
M  V30 2839 C 279.521 -1.36471 1.31043 0
M  V30 2840 O 278.864 -1.80034 0.365151 0
M  V30 2841 C 278.926 -0.500546 3.55998 0
M  V30 2842 C 278.59 0.639125 4.52509 0
M  V30 2843 C 279.587 1.51311 4.97394 0
M  V30 2844 C 277.272 0.821632 4.95535 0
M  V30 2845 C 279.266 2.55425 5.83984 0
M  V30 2846 C 276.953 1.86603 5.81913 0
M  V30 2847 C 277.951 2.73072 6.26036 0
M  V30 2848 O 277.639 3.75718 7.10698 0
M  V30 2849 H 277.371 -0.00857665 0.675946 0
M  V30 2850 H 279.925 0.623288 1.95715 0
M  V30 2851 H 278.155 -1.29575 3.64345 0
M  V30 2852 H 279.844 -0.995116 3.93513 0
M  V30 2853 H 280.61 1.38367 4.64844 0
M  V30 2854 H 276.489 0.158149 4.60729 0
M  V30 2855 H 280.033 3.22949 6.18344 0
M  V30 2856 H 275.93 1.99564 6.13876 0
M  V30 2857 H 276.698 3.72374 7.2889 0
M  V30 2858 N 279.361 -1.56624 0.175154 0
M  V30 2859 C 280.609 -1.96609 -0.467885 0
M  V30 2860 C 280.93 -1.06238 -1.63519 0
M  V30 2861 O 280.2 -0.129523 -1.95471 0
M  V30 2862 H 278.78 -0.726008 -0.175845 0
M  V30 2863 H 281.442 -1.93195 0.257234 0
M  V30 2864 H 280.538 -3.00989 -0.825342 0
M  V30 2865 N 280.839 0.0985539 -1.57292 0
M  V30 2866 C 281.771 1.14595 -1.98496 0
M  V30 2867 C 282.784 1.36512 -0.887031 0
M  V30 2868 O 283.973 1.35225 -1.16518 0
M  V30 2869 C 281.073 2.50216 -2.28572 0
M  V30 2870 C 280.246 2.48624 -3.59868 0
M  V30 2871 C 279.305 3.66146 -3.7792 0
M  V30 2872 O 278.331 3.48795 -4.49812 0
M  V30 2873 N 279.533 4.85496 -3.18235 0
M  V30 2874 H 282.298 0.795277 -2.88956 0
M  V30 2875 H 279.859 0.287579 -1.59325 0
M  V30 2876 H 281.851 3.27432 -2.37845 0
M  V30 2877 H 280.421 2.77387 -1.44136 0
M  V30 2878 H 279.641 1.56978 -3.61596 0
M  V30 2879 H 280.929 2.44635 -4.46129 0
M  V30 2880 H 280.327 5.02497 -2.59833 0
M  V30 2881 H 278.884 5.60317 -3.32999 0
M  V30 2882 N 282.317 1.53212 0.369288 0
M  V30 2883 C 283.227 1.82342 1.47609 0
M  V30 2884 C 284.243 0.711532 1.58787 0
M  V30 2885 O 285.419 1.0012 1.74751 0
M  V30 2886 C 282.484 2.00393 2.8292 0
M  V30 2887 C 281.545 3.24297 2.81301 0
M  V30 2888 C 280.778 3.41478 4.10157 0
M  V30 2889 O 281.001 2.63033 5.06132 0
M  V30 2890 O 279.935 4.34817 4.16194 0
M  V30 2891 H 283.761 2.76366 1.25918 0
M  V30 2892 H 281.346 1.38547 0.559034 0
M  V30 2893 H 283.228 2.13859 3.63101 0
M  V30 2894 H 281.903 1.09559 3.04596 0
M  V30 2895 H 280.81 3.16257 1.99831 0
M  V30 2896 H 282.143 4.15041 2.64578 0
M  V30 2897 N 283.795 -0.628877 1.44509 0
M  V30 2898 C 284.728 -1.75367 1.46019 0
M  V30 2899 C 285.706 -1.59444 0.318787 0
M  V30 2900 O 286.89 -1.81297 0.516099 0
M  V30 2901 C 284.017 -3.12965 1.29501 0
M  V30 2902 C 283.063 -3.47532 2.47233 0
M  V30 2903 S 283.896 -3.44758 4.09758 0
M  V30 2904 C 285.052 -4.84973 3.95667 0
M  V30 2905 H 285.285 -1.7382 2.41193 0
M  V30 2906 H 282.818 -0.803686 1.31834 0
M  V30 2907 H 284.776 -3.92367 1.20658 0
M  V30 2908 H 283.437 -3.12049 0.358341 0
M  V30 2909 H 282.63 -4.47664 2.31544 0
M  V30 2910 H 282.232 -2.75598 2.52828 0
M  V30 2911 H 284.524 -5.74255 3.59496 0
M  V30 2912 H 285.467 -5.05716 4.95638 0
M  V30 2913 H 285.875 -4.59653 3.27688 0
M  V30 2914 N 285.273 -1.31445 -0.869486 0
M  V30 2915 C 286.503 -1.23942 -1.65294 0
M  V30 2916 C 286.911 0.197561 -1.88166 0
M  V30 2917 O 286.254 1.14019 -1.44033 0
M  V30 2918 C 286.316 -1.91385 -3.04322 0
M  V30 2919 C 285.98 -3.40726 -3.04557 0
M  V30 2920 C 286.977 -4.36464 -2.82481 0
M  V30 2921 C 284.662 -3.82425 -3.25663 0
M  V30 2922 C 286.656 -5.71876 -2.8149 0
M  V30 2923 C 284.343 -5.1795 -3.243 0
M  V30 2924 C 285.341 -6.12486 -3.02241 0
M  V30 2925 O 285.029 -7.45534 -3.00724 0
M  V30 2926 H 284.761 -0.429459 -0.522054 0
M  V30 2927 H 287.315 -1.73873 -1.0935 0
M  V30 2928 H 285.545 -1.36004 -3.61994 0
M  V30 2929 H 287.234 -1.77791 -3.64891 0
M  V30 2930 H 288 -4.05576 -2.65956 0
M  V30 2931 H 283.879 -3.09274 -3.41863 0
M  V30 2932 H 287.423 -6.45638 -2.64191 0
M  V30 2933 H 283.32 -5.48473 -3.40365 0
M  V30 2934 H 284.088 -7.54713 -3.16782 0
M  V30 2935 N 286.751 1.08385 -1.14413 0
M  V30 2936 C 287.714 2.13486 -0.834048 0
M  V30 2937 C 288.714 1.59988 0.161418 0
M  V30 2938 O 289.904 1.74071 -0.0669575 0
M  V30 2939 C 287.036 3.4003 -0.243354 0
M  V30 2940 H 288.229 2.42425 -1.7655 0
M  V30 2941 H 285.782 1.24101 -0.950189 0
M  V30 2942 H 286.517 3.16726 0.696807 0
M  V30 2943 H 286.302 3.80157 -0.960367 0
M  V30 2944 H 287.792 4.17577 -0.0436242 0
M  V30 2945 N 288.23 0.939286 1.26551 0
M  V30 2946 C 289.477 0.585847 1.9384 0
M  V30 2947 C 289.805 -0.874784 1.73718 0
M  V30 2948 O 289.06 -1.64092 1.06642 0
M  V30 2949 C 289.359 0.872106 3.46596 0
M  V30 2950 C 289.025 2.31632 3.86856 0
M  V30 2951 C 287.687 2.71111 3.97558 0
M  V30 2952 C 290.039 3.25494 4.07066 0
M  V30 2953 C 287.367 4.03553 4.25866 0
M  V30 2954 C 289.719 4.57531 4.36862 0
M  V30 2955 C 288.383 4.96828 4.45778 0
M  V30 2956 H 287.653 0.214377 0.709312 0
M  V30 2957 H 290.3 1.18544 1.50398 0
M  V30 2958 H 288.605 0.18996 3.91339 0
M  V30 2959 H 290.302 0.577442 3.96821 0
M  V30 2960 H 286.892 2.00008 3.79071 0
M  V30 2961 H 291.076 2.9619 3.98227 0
M  V30 2962 H 286.332 4.33665 4.30981 0
M  V30 2963 H 290.506 5.30254 4.51446 0
M  V30 2964 H 288.133 5.99482 4.67468 0
M  V30 2965 N 289.708 -1.40897 0.706093 0
M  V30 2966 C 291.124 -1.55042 0.37869 0
M  V30 2967 C 291.324 -1.67944 -1.11342 0
M  V30 2968 O 290.38 -1.66372 -1.89938 0
M  V30 2969 C 291.693 -2.78398 1.13643 0
M  V30 2970 C 293.241 -2.92206 1.12181 0
M  V30 2971 C 293.716 -4.18463 1.86152 0
M  V30 2972 N 295.207 -4.25443 1.83173 0
M  V30 2973 C 295.942 -5.2202 2.37239 0
M  V30 2974 N 295.438 -6.24563 2.99821 0
M  V30 2975 N 297.231 -5.14033 2.27435 0
M  V30 2976 H 289.382 -1.30769 1.67372 0
M  V30 2977 H 291.645 -0.631653 0.706907 0
M  V30 2978 H 291.351 -2.7511 2.19106 0
M  V30 2979 H 291.225 -3.70228 0.721853 0
M  V30 2980 H 293.612 -2.95004 0.0754171 0
M  V30 2981 H 293.693 -2.01521 1.57554 0
M  V30 2982 H 293.337 -4.16427 2.90776 0
M  V30 2983 H 293.267 -5.08141 1.38206 0
M  V30 2984 H 295.758 -3.51976 1.37556 0
M  V30 2985 H 296.071 -6.94665 3.38616 0
M  V30 2986 H 294.416 -6.25035 3.03902 0
M  V30 2987 H 297.607 -4.3285 1.78208 0
M  V30 2988 H 297.78 -5.89129 2.69873 0
M  V30 2989 N 291.186 -0.45159 -1.50991 0
M  V30 2990 C 292.411 0.110667 -2.07105 0
M  V30 2991 C 292.836 1.3446 -1.31538 0
M  V30 2992 O 292.194 1.77743 -0.357365 0
M  V30 2993 C 292.242 0.397238 -3.58405 0
M  V30 2994 O 291.346 1.48124 -3.84881 0
M  V30 2995 H 290.687 -0.00439271 -0.663985 0
M  V30 2996 H 293.217 -0.637026 -1.9443 0
M  V30 2997 H 293.227 0.64351 -4.02893 0
M  V30 2998 H 291.902 -0.504553 -4.12828 0
M  V30 2999 H 290.479 1.22381 -3.52246 0
M  V30 3000 N 292.664 1.56529 -0.183458 0
M  V30 3001 C 293.574 2.22144 0.754272 0
M  V30 3002 C 294.59 1.21684 1.24374 0
M  V30 3003 O 295.766 1.54385 1.29333 0
M  V30 3004 C 292.831 2.85884 1.96141 0
M  V30 3005 C 291.892 4.01579 1.51765 0
M  V30 3006 C 291.125 4.6227 2.66725 0
M  V30 3007 O 291.348 4.21865 3.83909 0
M  V30 3008 O 290.282 5.51936 2.40104 0
M  V30 3009 H 294.108 3.02861 0.225527 0
M  V30 3010 H 291.693 1.49331 0.0453032 0
M  V30 3011 H 293.575 3.26253 2.66715 0
M  V30 3012 H 292.25 2.08154 2.47899 0
M  V30 3013 H 291.157 3.65856 0.781049 0
M  V30 3014 H 292.49 4.80938 1.04686 0
M  V30 3015 N 294.142 -0.090211 1.57342 0
M  V30 3016 C 295.052 -1.12735 2.05738 0
M  V30 3017 C 296.068 -1.43557 0.983231 0
M  V30 3018 O 297.244 -1.54101 1.29672 0
M  V30 3019 C 294.309 -2.42659 2.47624 0
M  V30 3020 C 293.37 -2.18975 3.69254 0
M  V30 3021 C 292.603 -3.42704 4.09133 0
M  V30 3022 O 292.826 -4.51127 3.49057 0
M  V30 3023 O 291.76 -3.32003 5.02053 0
M  V30 3024 H 295.586 -0.746279 2.94388 0
M  V30 3025 H 293.171 -0.303064 1.46294 0
M  V30 3026 H 295.053 -3.19155 2.7517 0
M  V30 3027 H 293.728 -2.80182 1.62109 0
M  V30 3028 H 292.635 -1.40244 3.46818 0
M  V30 3029 H 293.968 -1.86342 4.55563 0
M  V30 3030 N 295.62 -1.53406 -0.361157 0
M  V30 3031 C 297.036 -1.43277 -0.703124 0
M  V30 3032 C 297.236 -0.575384 -1.9311 0
M  V30 3033 O 296.292 -0.0595362 -2.5243 0
M  V30 3034 C 297.605 -2.8653 -0.9122 0
M  V30 3035 C 299.153 -2.96191 -1.01193 0
M  V30 3036 C 299.628 -4.40514 -1.25345 0
M  V30 3037 N 301.119 -4.43962 -1.32105 0
M  V30 3038 C 301.854 -5.52746 -1.5251 0
M  V30 3039 N 301.35 -6.71567 -1.70203 0
M  V30 3040 N 303.143 -5.40331 -1.54916 0
M  V30 3041 H 295.294 -2.07654 0.446475 0
M  V30 3042 H 297.557 -0.937944 0.137715 0
M  V30 3043 H 297.263 -3.51605 -0.0816414 0
M  V30 3044 H 297.137 -3.30441 -1.81903 0
M  V30 3045 H 299.524 -2.31266 -1.83303 0
M  V30 3046 H 299.605 -2.55667 -0.0823929 0
M  V30 3047 H 299.249 -5.06014 -0.437346 0
M  V30 3048 H 299.179 -4.78614 -2.19627 0
M  V30 3049 H 301.67 -3.58332 -1.20028 0
M  V30 3050 H 301.983 -7.50241 -1.85359 0
M  V30 3051 H 300.328 -6.74545 -1.67373 0
M  V30 3052 H 303.519 -4.46465 -1.40663 0
M  V30 3053 H 303.692 -6.25173 -1.70477 0
M  V30 3054 N 297.098 0.621204 -1.44841 0
M  V30 3055 C 298.345 1.38055 -1.48145 0
M  V30 3056 C 298.673 1.94143 -0.117867 0
M  V30 3057 O 297.928 1.74713 0.881694 0
M  V30 3058 C 298.227 2.55675 -2.4973 0
M  V30 3059 C 297.893 2.17817 -3.94799 0
M  V30 3060 C 296.555 2.07205 -4.34303 0
M  V30 3061 C 298.907 1.88065 -4.86087 0
M  V30 3062 C 296.235 1.65045 -5.63007 0
M  V30 3063 C 298.587 1.47394 -6.15189 0
M  V30 3064 C 297.251 1.35331 -6.53637 0
M  V30 3065 H 296.521 0.505181 -0.542101 0
M  V30 3066 H 299.168 0.703477 -1.78111 0
M  V30 3067 H 297.473 3.2866 -2.13284 0
M  V30 3068 H 299.17 3.13904 -2.4953 0
M  V30 3069 H 295.76 2.26998 -3.63552 0
M  V30 3070 H 299.944 1.95168 -4.56315 0
M  V30 3071 H 295.2 1.54317 -5.91605 0
M  V30 3072 H 299.374 1.23415 -6.85377 0
M  V30 3073 H 297.001 1.02435 -7.53267 0
M  V30 3074 N 298.576 1.31904 0.862503 0
M  V30 3075 C 299.523 1.20182 1.9704 0
M  V30 3076 C 300.493 0.0858247 1.65878 0
M  V30 3077 O 301.678 0.26 1.8902 0
M  V30 3078 C 298.818 0.922797 3.32533 0
M  V30 3079 C 297.931 2.12284 3.76244 0
M  V30 3080 C 297.066 1.77996 5.00491 0
M  V30 3081 C 296.105 2.94366 5.36671 0
M  V30 3082 N 295.242 2.60223 6.52095 0
M  V30 3083 H 300.082 2.14951 2.06398 0
M  V30 3084 H 297.619 1.06917 1.01031 0
M  V30 3085 H 299.577 0.741548 4.10557 0
M  V30 3086 H 298.207 0.0119227 3.22798 0
M  V30 3087 H 297.259 2.41461 2.9394 0
M  V30 3088 H 298.571 2.99357 3.98982 0
M  V30 3089 H 297.725 1.56377 5.862 0
M  V30 3090 H 296.464 0.881252 4.79672 0
M  V30 3091 H 295.469 3.16625 4.49476 0
M  V30 3092 H 296.694 3.84957 5.59451 0
M  V30 3093 H 294.64 1.72884 6.32809 0
M  V30 3094 H 294.557 3.40827 6.74814 0
M  V30 3095 H 295.825 2.42016 7.40978 0
M  V30 3096 N 300.054 -1.07777 1.14986 0
M  V30 3097 C 301.279 -1.84558 0.946213 0
M  V30 3098 C 301.704 -1.81323 -0.500362 0
M  V30 3099 O 301.062 -1.20301 -1.35637 0
M  V30 3100 C 301.11 -3.29736 1.45968 0
M  V30 3101 O 300.214 -4.07149 0.65601 0
M  V30 3102 H 299.555 -0.571641 0.33782 0
M  V30 3103 H 302.085 -1.35991 1.52865 0
M  V30 3104 H 302.095 -3.80574 1.47063 0
M  V30 3105 H 300.77 -3.31406 2.51283 0
M  V30 3106 H 299.347 -3.65994 0.714322 0
M  V30 3107 N 301.532 -0.945985 -1.26051 0
M  V30 3108 C 302.943 -0.638096 -1.75457 0
M  V30 3109 C 303.294 0.846672 -1.76991 0
M  V30 3110 O 302.419 1.66262 -1.38513 0
M  V30 3111 C 303.014 -1.15157 -3.18629 0
M  V30 3112 C 301.573 -0.894004 -3.65629 0
M  V30 3113 C 300.72 -1.29967 -2.44957 0
M  V30 3114 H 303.671 -1.12376 -1.1206 0
M  V30 3115 H 303.692 -0.507615 -3.77099 0
M  V30 3116 H 303.204 -2.23222 -3.1748 0
M  V30 3117 H 301.305 0.172057 -3.72203 0
M  V30 3118 H 301.418 -1.52439 -4.54202 0
M  V30 3119 H 299.782 -0.718078 -2.44368 0
M  V30 3120 H 300.565 -2.38935 -2.46505 0
M  V30 3121 N 303.011 1.40521 -0.713556 0
M  V30 3122 C 304.422 1.83853 -0.324807 0
M  V30 3123 C 304.773 1.59667 1.14021 0
M  V30 3124 O 303.898 1.07649 1.87725 0
M  V30 3125 C 304.493 3.33751 -0.582746 0
M  V30 3126 C 303.052 3.75584 -0.247727 0
M  V30 3127 C 302.199 2.63753 -0.856121 0
M  V30 3128 H 305.15 1.29817 -0.91286 0
M  V30 3129 H 305.171 3.80194 0.152682 0
M  V30 3130 H 304.683 3.51322 -1.64908 0
M  V30 3131 H 302.784 3.63608 0.813624 0
M  V30 3132 H 302.897 4.7373 -0.715307 0
M  V30 3133 H 301.261 2.53108 -0.28432 0
M  V30 3134 H 302.044 2.84137 -1.92668 0
M  V30 3135 N 304.489 0.459591 1.5075 0
M  V30 3136 C 305.738 -0.100971 2.01447 0
M  V30 3137 C 306.051 -1.41816 1.34713 0
M  V30 3138 O 307.257 -2.06299 1.76502 0
M  V30 3139 C 305.713 -0.23047 3.59161 0
M  V30 3140 C 305.321 1.0776 4.34847 0
M  V30 3141 C 307.065 -0.743608 4.17936 0
M  V30 3142 C 304.972 0.91253 5.84317 0
M  V30 3143 H 303.902 -0.0415102 0.752856 0
M  V30 3144 H 306.553 0.592742 1.73663 0
M  V30 3145 H 304.935 -0.987703 3.83485 0
M  V30 3146 H 306.109 1.8449 4.22256 0
M  V30 3147 H 304.424 1.52097 3.87628 0
M  V30 3148 H 307.021 -0.883959 5.27343 0
M  V30 3149 H 307.364 -1.73196 3.78562 0
M  V30 3150 H 307.897 -0.04408 3.97776 0
M  V30 3151 H 304.636 1.87391 6.28144 0
M  V30 3152 H 304.156 0.185422 5.99513 0
M  V30 3153 H 305.835 0.574547 6.44444 0
M  V30 3154 N 305.967 -1.56429 0.191757 0
M  V30 3155 C 306.897 -2.21937 -0.725696 0
M  V30 3156 C 307.878 -1.1814 -1.2238 0
M  V30 3157 O 309.063 -1.46636 -1.27325 0
M  V30 3158 C 306.193 -2.87611 -1.94672 0
M  V30 3159 C 305.147 -3.97623 -1.58366 0
M  V30 3160 C 304.473 -4.50446 -2.88102 0
M  V30 3161 C 305.773 -5.16197 -0.796133 0
M  V30 3162 H 307.467 -2.98861 -0.179606 0
M  V30 3163 H 305.013 -1.43749 -0.0849464 0
M  V30 3164 H 306.966 -3.3212 -2.59373 0
M  V30 3165 H 305.69 -2.08087 -2.51728 0
M  V30 3166 H 304.349 -3.53801 -0.960247 0
M  V30 3167 H 303.997 -3.67688 -3.43241 0
M  V30 3168 H 303.697 -5.24675 -2.64556 0
M  V30 3169 H 305.221 -4.97654 -3.53798 0
M  V30 3170 H 306.635 -5.57271 -1.34618 0
M  V30 3171 H 305.032 -5.96471 -0.658928 0
M  V30 3172 H 306.102 -4.84473 0.203478 0
M  V30 3173 N 307.445 0.0818655 -1.57387 0
M  V30 3174 C 308.856 0.634871 -1.75574 0
M  V30 3175 C 309.207 1.78435 -0.815809 0
M  V30 3176 O 308.332 2.164 0.0025366 0
M  V30 3177 C 308.927 1.15845 -3.18379 0
M  V30 3178 C 307.486 1.65741 -3.37945 0
M  V30 3179 C 306.633 0.572549 -2.71325 0
M  V30 3180 H 309.584 -0.144268 -1.58043 0
M  V30 3181 H 309.605 2.02751 -3.21982 0
M  V30 3182 H 309.117 0.321631 -3.86765 0
M  V30 3183 H 307.218 2.51781 -2.74658 0
M  V30 3184 H 307.331 1.74129 -4.46336 0
M  V30 3185 H 305.695 1.01518 -2.33594 0
M  V30 3186 H 306.478 -0.253918 -3.4236 0
M  V30 3187 N 308.923 1.53595 0.353017 0
M  V30 3188 C 310.334 1.61937 0.929153 0
M  V30 3189 C 310.685 0.494686 1.89861 0
M  V30 3190 O 309.81 -0.377017 2.1309 0
M  V30 3191 C 310.405 2.93526 1.69199 0
M  V30 3192 C 308.964 3.04161 2.21727 0
M  V30 3193 C 308.111 2.57322 1.03348 0
M  V30 3194 H 311.062 1.58155 0.131431 0
M  V30 3195 H 311.083 2.82034 2.55416 0
M  V30 3196 H 310.595 3.75362 0.986144 0
M  V30 3197 H 308.696 2.26938 2.95516 0
M  V30 3198 H 308.809 4.09465 2.48748 0
M  V30 3199 H 307.173 2.12499 1.40414 0
M  V30 3200 H 307.956 3.41588 0.342428 0
M  V30 3201 N 310.401 -0.613514 1.45168 0
M  V30 3202 C 311.351 -1.71871 1.49815 0
M  V30 3203 C 312.335 -1.56774 0.362021 0
M  V30 3204 O 313.527 -1.66212 0.608493 0
M  V30 3205 C 310.656 -3.1061 1.46207 0
M  V30 3206 C 309.742 -3.31114 2.64999 0
M  V30 3207 N 310.133 -3.21904 3.90143 0
M  V30 3208 C 308.431 -3.61966 2.6057 0
M  V30 3209 C 309.132 -3.43577 4.69393 0
M  V30 3210 N 308.108 -3.67287 4.00751 0
M  V30 3211 H 311.91 -1.63235 2.444 0
M  V30 3212 H 309.424 -0.816577 1.40377 0
M  V30 3213 H 311.421 -3.8989 1.4762 0
M  V30 3214 H 310.081 -3.20399 0.52673 0
M  V30 3215 H 311.092 -3.00436 4.21852 0
M  V30 3216 H 307.769 -3.78629 1.75916 0
M  V30 3217 H 309.159 -3.41901 5.78406 0
M  V30 3218 N 311.879 -1.3236 -0.855495 0
M  V30 3219 C 312.809 -1.23833 -1.97958 0
M  V30 3220 C 313.79 -0.122361 -1.69659 0
M  V30 3221 O 314.975 -0.30939 -1.9172 0
M  V30 3222 C 312.105 -0.959772 -3.33775 0
M  V30 3223 C 311.059 -2.03689 -3.76424 0
M  V30 3224 C 310.385 -1.61075 -5.09862 0
M  V30 3225 C 311.685 -3.4518 -3.9198 0
M  V30 3226 H 313.379 -2.1788 -2.0535 0
M  V30 3227 H 310.925 -1.04891 -0.986605 0
M  V30 3228 H 312.878 -0.886678 -4.11966 0
M  V30 3229 H 311.602 0.0163404 -3.26596 0
M  V30 3230 H 310.261 -2.10012 -3.00484 0
M  V30 3231 H 309.909 -0.622107 -4.99138 0
M  V30 3232 H 309.609 -2.33143 -5.39368 0
M  V30 3233 H 311.133 -1.55201 -5.90546 0
M  V30 3234 H 312.547 -3.4145 -4.60526 0
M  V30 3235 H 310.944 -4.1559 -4.32903 0
M  V30 3236 H 312.014 -3.84903 -2.94919 0
M  V30 3237 N 313.357 1.07166 -1.15556 0
M  V30 3238 C 314.287 2.16403 -0.877046 0
M  V30 3239 C 315.268 1.69217 0.173111 0
M  V30 3240 O 316.453 1.94181 0.027084 0
M  V30 3241 C 313.583 3.45349 -0.367632 0
M  V30 3242 C 312.537 4.05995 -1.35468 0
M  V30 3243 C 311.863 5.30045 -0.704038 0
M  V30 3244 C 313.163 4.45804 -2.72132 0
M  V30 3245 H 314.857 2.39959 -1.79053 0
M  V30 3246 H 312.403 1.15325 -0.862331 0
M  V30 3247 H 314.356 4.21095 -0.160317 0
M  V30 3248 H 313.08 3.21385 0.581326 0
M  V30 3249 H 311.739 3.32296 -1.54839 0
M  V30 3250 H 311.387 5.02373 0.251128 0
M  V30 3251 H 311.087 5.71579 -1.36277 0
M  V30 3252 H 312.611 6.08495 -0.50654 0
M  V30 3253 H 314.025 5.12671 -2.56595 0
M  V30 3254 H 312.422 4.98296 -3.34397 0
M  V30 3255 H 313.492 3.57083 -3.28054 0
M  V30 3256 N 314.835 0.952656 1.25548 0
M  V30 3257 C 315.767 0.428609 2.25157 0
M  V30 3258 C 316.78 -0.454428 1.56329 0
M  V30 3259 O 317.969 -0.263023 1.76552 0
M  V30 3260 C 315.069 -0.401972 3.36508 0
M  V30 3261 C 314.242 0.467601 4.34893 0
M  V30 3262 C 313.301 -0.30445 5.25319 0
M  V30 3263 O 312.327 0.296473 5.68427 0
M  V30 3264 N 313.529 -1.59805 5.5807 0
M  V30 3265 H 316.294 1.28497 2.70756 0
M  V30 3266 H 313.855 0.822798 1.39433 0
M  V30 3267 H 315.847 -0.926134 3.9396 0
M  V30 3268 H 314.417 -1.15918 2.90313 0
M  V30 3269 H 313.637 1.17288 3.76347 0
M  V30 3270 H 314.925 1.06119 4.97611 0
M  V30 3271 H 314.323 -2.10823 5.24948 0
M  V30 3272 H 312.88 -2.06822 6.18116 0
M  V30 3273 N 316.313 -1.40141 0.720998 0
M  V30 3274 C 317.559 -2.01084 0.263231 0
M  V30 3275 C 317.892 -1.57052 -1.14229 0
M  V30 3276 O 317.167 -0.793027 -1.77599 0
M  V30 3277 C 317.45 -3.58401 0.349344 0
M  V30 3278 C 317.303 -4.12491 1.79363 0
M  V30 3279 C 318.622 -4.39231 -0.276351 0
M  V30 3280 H 315.741 -0.730572 0.0971228 0
M  V30 3281 H 318.383 -1.66543 0.914518 0
M  V30 3282 H 316.533 -3.87958 -0.205165 0
M  V30 3283 H 318.205 -3.93711 2.40394 0
M  V30 3284 H 316.448 -3.66576 2.31958 0
M  V30 3285 H 317.119 -5.21646 1.80524 0
M  V30 3286 H 319.595 -4.15637 0.196184 0
M  V30 3287 H 318.471 -5.48586 -0.185681 0
M  V30 3288 H 318.732 -4.20643 -1.36059 0
M  V30 3289 N 317.792 -0.46758 -1.50504 0
M  V30 3290 C 319.041 0.0902868 -2.01498 0
M  V30 3291 C 319.354 1.411 -1.35463 0
M  V30 3292 O 320.56 2.0536 -1.77594 0
M  V30 3293 C 319.016 0.21142 -3.59278 0
M  V30 3294 C 318.624 -1.10065 -4.34269 0
M  V30 3295 C 320.368 0.721433 -4.18325 0
M  V30 3296 C 318.275 -0.943505 -5.83825 0
M  V30 3297 H 317.205 0.037517 -0.753066 0
M  V30 3298 H 319.856 -0.601943 -1.73346 0
M  V30 3299 H 318.238 0.967352 -3.84003 0
M  V30 3300 H 319.412 -1.86726 -4.21272 0
M  V30 3301 H 317.727 -1.5415 -3.86816 0
M  V30 3302 H 320.324 0.85598 -5.27804 0
M  V30 3303 H 320.667 1.71186 -3.79475 0
M  V30 3304 H 321.2 0.0229843 -3.97793 0
M  V30 3305 H 317.939 -1.90719 -6.27141 0
M  V30 3306 H 317.459 -0.217213 -5.99407 0
M  V30 3307 H 319.138 -0.608715 -6.4413 0
M  V30 3308 N 319.27 1.56325 -0.20005 0
M  V30 3309 C 320.2 2.22318 0.713916 0
M  V30 3310 C 321.181 1.18788 1.21752 0
M  V30 3311 O 322.366 1.47309 1.26545 0
M  V30 3312 C 319.496 2.88639 1.93144 0
M  V30 3313 C 318.45 3.98457 1.56255 0
M  V30 3314 C 317.776 4.51967 2.85709 0
M  V30 3315 C 319.076 5.16612 0.768747 0
M  V30 3316 H 320.77 2.98952 0.163755 0
M  V30 3317 H 318.316 1.43792 0.0773219 0
M  V30 3318 H 320.269 3.33491 2.57608 0
M  V30 3319 H 318.993 2.09419 2.50621 0
M  V30 3320 H 317.652 3.54305 0.941471 0
M  V30 3321 H 317.3 3.69503 3.41287 0
M  V30 3322 H 317 5.26071 2.6177 0
M  V30 3323 H 318.524 4.99523 3.51154 0
M  V30 3324 H 319.938 5.57977 1.3166 0
M  V30 3325 H 318.335 5.96812 0.627286 0
M  V30 3326 H 319.405 4.84358 -0.229168 0
M  V30 3327 N 320.748 -0.0735177 1.57428 0
M  V30 3328 C 321.696 -1.10628 2.04607 0
M  V30 3329 C 322.69 -1.40181 0.951088 0
M  V30 3330 O 323.896 -1.39608 1.1362 0
M  V30 3331 H 320.271 -0.374088 0.652351 0
M  V30 3332 H 322.242 -0.682218 2.90497 0
M  V30 3333 C 320.991 -2.41212 2.50423 0
M  V30 3334 H 320.314 -2.19322 3.34272 0
M  V30 3335 H 321.754 -3.11927 2.87189 0
M  V30 3336 C 320.213 -3.0705 1.38644 0
M  V30 3337 O 320.743 -3.95056 0.727582 0
M  V30 3338 N 318.949 -2.67645 1.132 0
M  V30 3339 H 318.496 -1.96169 1.66959 0
M  V30 3340 H 318.454 -3.1202 0.386147 0
M  V30 3341 N 322.226 -1.5378 -0.344866 0
M  V30 3342 C 323.173 -1.81676 -1.42346 0
M  V30 3343 C 324.143 -0.662376 -1.52321 0
M  V30 3344 O 325.328 -0.906675 -1.67881 0
M  V30 3345 C 322.468 -2.03087 -2.79015 0
M  V30 3346 C 321.581 -3.30799 -2.77842 0
M  V30 3347 C 320.716 -3.42285 -4.0622 0
M  V30 3348 C 319.755 -4.6395 -3.9927 0
M  V30 3349 N 318.892 -4.72477 -5.19336 0
M  V30 3350 H 323.732 -2.73703 -1.17858 0
M  V30 3351 H 321.269 -1.35568 -0.570949 0
M  V30 3352 H 323.227 -2.1349 -3.58438 0
M  V30 3353 H 321.857 -1.14375 -3.01858 0
M  V30 3354 H 320.909 -3.29244 -1.90533 0
M  V30 3355 H 322.221 -4.20314 -2.68584 0
M  V30 3356 H 321.375 -3.52113 -4.94066 0
M  V30 3357 H 320.114 -2.50823 -4.18258 0
M  V30 3358 H 319.119 -4.54201 -3.09809 0
M  V30 3359 H 320.344 -5.56775 -3.88817 0
M  V30 3360 H 318.29 -3.83924 -5.3192 0
M  V30 3361 H 318.207 -5.55927 -5.12329 0
M  V30 3362 H 319.475 -4.86613 -6.08957 0
M  V30 3363 N 323.704 0.605807 -1.45491 0
M  V30 3364 C 324.981 1.36522 -1.40075 0
M  V30 3365 C 325.361 2.10976 -0.0722744 0
M  V30 3366 O 324.709 2.08007 0.945808 0
M  V30 3367 C 324.919 2.31056 -2.61561 0
M  V30 3368 C 326.267 2.93608 -3.06724 0
M  V30 3369 O 327.291 2.41376 -2.61946 0
M  V30 3370 O 326.15 3.88421 -3.84437 0
M  V30 3371 H 323.244 0.612248 -0.555951 0
M  V30 3372 H 325.79 0.628747 -1.57623 0
M  V30 3373 H 324.562 1.75311 -3.49831 0
M  V30 3374 H 324.185 3.12081 -2.46356 0
M  V30 3375 N 325.182 1.32811 0.848464 0
M  V30 3376 C 326.41 1.26739 1.63538 0
M  V30 3377 C 326.825 -0.163484 1.88091 0
M  V30 3378 O 326.182 -1.10258 1.45429 0
M  V30 3379 C 326.233 2.03013 2.99112 0
M  V30 3380 O 325.954 3.40518 2.75643 0
M  V30 3381 C 327.455 2.04038 3.93552 0
M  V30 3382 H 324.675 0.437024 0.509167 0
M  V30 3383 H 327.219 1.75033 1.05753 0
M  V30 3384 H 325.374 1.58426 3.53525 0
M  V30 3385 H 325.788 3.79635 3.61908 0
M  V30 3386 H 327.262 2.61877 4.85926 0
M  V30 3387 H 327.739 1.0282 4.26995 0
M  V30 3388 H 328.345 2.486 3.45077 0
M  V30 3389 N 326.66 -1.06551 1.16123 0
M  V30 3390 C 327.608 -2.16063 0.861371 0
M  V30 3391 C 328.602 -1.6856 -0.168517 0
M  V30 3392 O 329.808 -1.79986 -0.0227579 0
M  V30 3393 H 326.183 -0.705278 0.260934 0
M  V30 3394 H 328.154 -2.38567 1.79244 0
M  V30 3395 C 326.903 -3.45661 0.376018 0
M  V30 3396 H 326.226 -3.82604 1.15992 0
M  V30 3397 H 327.666 -4.23504 0.204951 0
M  V30 3398 C 326.125 -3.24546 -0.903954 0
M  V30 3399 O 326.655 -3.49865 -1.97377 0
M  V30 3400 N 324.861 -2.77992 -0.846679 0
M  V30 3401 H 324.408 -2.57589 0.0241017 0
M  V30 3402 H 324.366 -2.64244 -1.70359 0
M  V30 3403 N 328.138 -0.959301 -1.25041 0
M  V30 3404 C 329.387 -0.612254 -1.92183 0
M  V30 3405 C 329.7 0.855347 -1.75907 0
M  V30 3406 O 330.906 1.31256 -2.37664 0
M  V30 3407 C 329.362 -1.04435 -3.44414 0
M  V30 3408 C 328.97 -2.53482 -3.69393 0
M  V30 3409 C 330.714 -0.770055 -4.17457 0
M  V30 3410 C 328.621 -2.90468 -5.15153 0
M  V30 3411 H 327.551 -0.225279 -0.719559 0
M  V30 3412 H 330.202 -1.16438 -1.41825 0
M  V30 3413 H 328.584 -0.4206 -3.9376 0
M  V30 3414 H 329.758 -3.20916 -3.30681 0
M  V30 3415 H 328.073 -2.78432 -3.0962 0
M  V30 3416 H 330.67 -1.02249 -5.24832 0
M  V30 3417 H 331.013 0.293611 -4.15263 0
M  V30 3418 H 331.546 -1.35437 -3.74034 0
M  V30 3419 H 328.285 -3.95871 -5.22462 0
M  V30 3420 H 327.805 -2.27711 -5.54894 0
M  V30 3421 H 329.484 -2.79914 -5.83315 0
M  V30 3422 N 329.616 1.39756 -0.72842 0
M  V30 3423 C 330.841 2.05472 -0.282159 0
M  V30 3424 C 331.266 1.54549 1.07221 0
M  V30 3425 O 330.624 0.686372 1.67805 0
M  V30 3426 C 330.672 3.59462 -0.286264 0
M  V30 3427 O 329.776 4.05918 0.728298 0
M  V30 3428 H 329.117 0.651226 -0.129618 0
M  V30 3429 H 331.647 1.78915 -0.992499 0
M  V30 3430 H 331.657 4.07798 -0.128373 0
M  V30 3431 H 330.332 3.95889 -1.27456 0
M  V30 3432 H 328.909 3.69012 0.537081 0
M  V30 3433 N 331.094 0.475555 1.50254 0
M  V30 3434 C 332.334 -0.0765802 2.04256 0
M  V30 3435 C 332.698 -1.36587 1.34937 0
M  V30 3436 O 333.899 -2.00066 1.79519 0
M  V30 3437 C 332.17 -0.251668 3.56513 0
M  V30 3438 S 333.729 -0.761716 4.32138 0
M  V30 3439 H 330.547 -0.0138456 0.710865 0
M  V30 3440 H 333.149 0.643714 1.84598 0
M  V30 3441 H 331.853 0.692404 4.04517 0
M  V30 3442 H 331.384 -0.997946 3.80532 0
M  V30 3443 H 333.399 -2.03451 4.52573 0
M  V30 3444 N 332.573 -1.56217 0.208337 0
M  V30 3445 C 333.85 -1.89739 -0.475234 0
M  V30 3446 C 334.23 -1.1238 -1.78701 0
M  V30 3447 O 333.578 -0.228979 -2.2735 0
M  V30 3448 C 333.788 -3.42289 -0.681101 0
M  V30 3449 C 335.136 -4.12789 -0.994507 0
M  V30 3450 O 336.16 -3.47814 -0.768357 0
M  V30 3451 O 335.019 -5.27649 -1.42299 0
M  V30 3452 H 332.113 -0.788478 -0.249461 0
M  V30 3453 H 334.659 -1.67855 0.249538 0
M  V30 3454 H 333.431 -3.90534 0.244722 0
M  V30 3455 H 333.054 -3.69909 -1.45785 0
M  V30 3456 N 334.051 0.0651679 -1.57465 0
M  V30 3457 C 335.462 0.616213 -1.76238 0
M  V30 3458 C 335.813 1.7756 -0.834689 0
M  V30 3459 O 334.938 2.1639 -0.0204156 0
M  V30 3460 C 335.533 1.12462 -3.1959 0
M  V30 3461 C 334.092 1.62147 -3.39684 0
M  V30 3462 C 333.239 0.543739 -2.71917 0
M  V30 3463 H 336.19 -0.161022 -1.57881 0
M  V30 3464 H 336.211 1.99324 -3.24114 0
M  V30 3465 H 335.723 0.280592 -3.87084 0
M  V30 3466 H 333.824 2.48854 -2.77313 0
M  V30 3467 H 333.937 1.69385 -4.48158 0
M  V30 3468 H 332.301 0.990352 -2.34657 0
M  V30 3469 H 333.084 -0.290216 -3.42071 0
M  V30 3470 N 335.529 1.53961 0.336706 0
M  V30 3471 C 336.492 1.81724 1.39675 0
M  V30 3472 C 337.492 0.688532 1.45313 0
M  V30 3473 O 338.682 0.956829 1.45569 0
M  V30 3474 C 335.814 1.96543 2.78538 0
M  V30 3475 H 337.007 2.76424 1.16318 0
M  V30 3476 H 334.56 1.45478 0.571474 0
M  V30 3477 H 335.295 1.0401 3.07168 0
M  V30 3478 H 335.08 2.78665 2.75841 0
M  V30 3479 H 336.57 2.19516 3.5525 0
M  V30 3480 N 337.007 -0.598083 1.45811 0
M  V30 3481 C 337.937 -1.71873 1.58057 0
M  V30 3482 C 338.918 -1.64533 0.431615 0
M  V30 3483 O 340.103 -1.82787 0.65595 0
M  V30 3484 C 337.233 -3.10495 1.55597 0
M  V30 3485 C 336.187 -3.32654 2.69305 0
M  V30 3486 C 335.513 -4.71646 2.51902 0
M  V30 3487 C 336.813 -3.21981 4.11248 0
M  V30 3488 H 338.507 -1.61881 2.51863 0
M  V30 3489 H 336.053 -0.777372 1.21214 0
M  V30 3490 H 338.006 -3.88699 1.6276 0
M  V30 3491 H 336.73 -3.2135 0.583255 0
M  V30 3492 H 335.389 -2.56843 2.61586 0
M  V30 3493 H 335.037 -4.79246 1.52748 0
M  V30 3494 H 334.737 -4.87426 3.2816 0
M  V30 3495 H 336.261 -5.52038 2.60933 0
M  V30 3496 H 337.675 -3.90049 4.20161 0
M  V30 3497 H 336.072 -3.49289 4.87972 0
M  V30 3498 H 337.142 -2.1928 4.32486 0
M  V30 3499 N 338.485 -1.33259 -0.841409 0
M  V30 3500 C 339.415 -1.25926 -1.96634 0
M  V30 3501 C 340.396 -0.140349 -1.6952 0
M  V30 3502 O 341.581 -0.329707 -1.91381 0
M  V30 3503 C 338.711 -0.99512 -3.32738 0
M  V30 3504 C 337.665 -2.0767 -3.74242 0
M  V30 3505 C 336.991 -1.66474 -5.08125 0
M  V30 3506 C 338.291 -3.49318 -3.88297 0
M  V30 3507 H 339.985 -2.20046 -2.03027 0
M  V30 3508 H 337.531 -1.05931 -0.975425 0
M  V30 3509 H 339.484 -0.930323 -4.11002 0
M  V30 3510 H 338.208 -0.0183004 -3.26595 0
M  V30 3511 H 336.867 -2.13187 -2.98239 0
M  V30 3512 H 336.515 -0.675012 -4.9845 0
M  V30 3513 H 336.215 -2.3885 -5.36865 0
M  V30 3514 H 337.739 -1.61455 -5.88867 0
M  V30 3515 H 339.153 -3.46316 -4.56879 0
M  V30 3516 H 337.55 -4.20158 -4.28471 0
M  V30 3517 H 338.62 -3.8801 -2.9082 0
M  V30 3518 N 339.963 1.05934 -1.16686 0
M  V30 3519 C 341.374 1.60263 -0.957745 0
M  V30 3520 C 341.725 1.89789 0.49745 0
M  V30 3521 O 340.85 1.67401 1.37135 0
M  V30 3522 C 341.445 2.91172 -1.73218 0
M  V30 3523 C 340.004 3.42188 -1.56794 0
M  V30 3524 C 339.151 2.16028 -1.73859 0
M  V30 3525 H 342.102 0.888392 -1.31504 0
M  V30 3526 H 342.123 3.60744 -1.21014 0
M  V30 3527 H 341.635 2.6965 -2.79124 0
M  V30 3528 H 339.736 3.68762 -0.533437 0
M  V30 3529 H 339.849 4.17273 -2.35414 0
M  V30 3530 H 338.213 2.26426 -1.16633 0
M  V30 3531 H 338.996 1.96985 -2.81161 0
M  V30 3532 N 341.441 0.965919 1.2453 0
M  V30 3533 C 342.351 0.502154 2.29163 0
M  V30 3534 C 343.367 -0.436017 1.68448 0
M  V30 3535 O 344.543 -0.309497 1.99008 0
M  V30 3536 C 341.608 -0.201956 3.46111 0
M  V30 3537 C 340.669 0.775821 4.22232 0
M  V30 3538 C 339.902 0.105217 5.33596 0
M  V30 3539 O 340.125 -1.10683 5.59558 0
M  V30 3540 O 339.059 0.796475 5.96607 0
M  V30 3541 H 342.885 1.37194 2.70946 0
M  V30 3542 H 340.47 0.732875 1.30189 0
M  V30 3543 H 342.352 -0.597564 4.17142 0
M  V30 3544 H 341.027 -1.04673 3.06309 0
M  V30 3545 H 339.934 1.22185 3.53584 0
M  V30 3546 H 341.267 1.58896 4.65846 0
M  V30 3547 N 342.919 -1.39368 0.735821 0
M  V30 3548 C 344.33 -1.83313 0.354015 0
M  V30 3549 C 344.681 -1.61461 -1.11466 0
M  V30 3550 O 343.806 -1.10621 -1.85989 0
M  V30 3551 C 344.401 -3.32781 0.635769 0
M  V30 3552 C 342.96 -3.75142 0.307448 0
M  V30 3553 C 342.107 -2.62358 0.897974 0
M  V30 3554 H 345.058 -1.28349 0.933398 0
M  V30 3555 H 345.079 -3.80388 -0.0921773 0
M  V30 3556 H 344.591 -3.48654 1.70476 0
M  V30 3557 H 342.692 -3.64857 -0.755674 0
M  V30 3558 H 342.805 -4.72532 0.790583 0
M  V30 3559 H 341.169 -2.52624 0.324551 0
M  V30 3560 H 341.952 -2.81036 1.97164 0
M  V30 3561 N 344.397 -0.483516 -1.5 0
M  V30 3562 C 345.345 0.318061 -2.30415 0
M  V30 3563 C 346.339 0.978988 -1.38247 0
M  V30 3564 O 347.545 0.908673 -1.55381 0
M  V30 3565 H 343.92 0.121419 -0.742133 0
M  V30 3566 H 345.891 -0.380403 -2.95965 0
M  V30 3567 C 344.64 1.38013 -3.19136 0
M  V30 3568 H 343.963 0.880952 -3.89973 0
M  V30 3569 H 345.403 1.91332 -3.78375 0
M  V30 3570 C 343.862 2.38884 -2.37563 0
M  V30 3571 O 344.392 3.44412 -2.06744 0
M  V30 3572 N 342.598 2.10912 -1.99911 0
M  V30 3573 H 342.145 1.25118 -2.25174 0
M  V30 3574 H 342.103 2.78635 -1.45636 0
M  V30 3575 N 345.875 1.56104 -0.216619 0
M  V30 3576 C 346.825 2.16703 0.708798 0
M  V30 3577 C 347.809 1.11392 1.16106 0
M  V30 3578 O 349.001 1.37395 1.11587 0
M  V30 3579 C 346.13 2.84666 1.91886 0
M  V30 3580 C 345.216 3.97195 1.48651 0
M  V30 3581 N 345.607 4.99959 0.766434 0
M  V30 3582 C 343.905 4.09193 1.77418 0
M  V30 3583 C 344.606 5.79126 0.546659 0
M  V30 3584 N 343.582 5.32315 1.10188 0
M  V30 3585 H 347.384 2.93516 0.150162 0
M  V30 3586 H 344.898 1.6239 -0.0176768 0
M  V30 3587 H 346.895 3.26486 2.59253 0
M  V30 3588 H 345.555 2.09347 2.48202 0
M  V30 3589 H 346.566 5.16197 0.419634 0
M  V30 3590 H 343.243 3.45021 2.35088 0
M  V30 3591 H 344.633 6.71895 -0.026103 0
M  V30 3592 N 347.353 -0.0568162 1.57498 0
M  V30 3593 C 348.599 -0.75422 1.88253 0
M  V30 3594 C 348.932 -1.76461 0.810865 0
M  V30 3595 O 348.207 -1.93691 -0.177259 0
M  V30 3596 C 348.49 -1.44878 3.2967 0
M  V30 3597 C 348.343 -0.453789 4.47505 0
M  V30 3598 C 349.662 -2.38994 3.69554 0
M  V30 3599 H 346.781 -0.272724 0.684683 0
M  V30 3600 H 349.423 -0.0172113 1.89992 0
M  V30 3601 H 347.573 -2.077 3.28318 0
M  V30 3602 H 349.245 0.170371 4.60985 0
M  V30 3603 H 347.488 0.229552 4.33192 0
M  V30 3604 H 348.159 -0.977699 5.43273 0
M  V30 3605 H 350.635 -1.86239 3.72095 0
M  V30 3606 H 349.511 -2.84587 4.69363 0
M  V30 3607 H 349.772 -3.24461 3.00296 0
M  V30 3608 N 348.832 -1.54138 -0.328536 0
M  V30 3609 C 349.765 -1.78014 -1.4278 0
M  V30 3610 C 350.743 -0.629889 -1.49904 0
M  V30 3611 O 351.927 -0.866763 -1.6739 0
M  V30 3612 C 349.054 -1.89225 -2.80912 0
M  V30 3613 C 348.1 -3.11483 -2.91343 0
M  V30 3614 S 348.933 -4.70201 -2.56263 0
M  V30 3615 C 350.089 -4.84312 -3.96476 0
M  V30 3616 H 350.322 -2.70974 -1.22313 0
M  V30 3617 H 347.855 -1.45197 -0.525084 0
M  V30 3618 H 349.813 -1.9637 -3.60485 0
M  V30 3619 H 348.474 -0.972518 -2.98665 0
M  V30 3620 H 347.667 -3.16046 -3.92595 0
M  V30 3621 H 347.269 -3.02642 -2.19736 0
M  V30 3622 H 349.561 -4.66643 -4.91173 0
M  V30 3623 H 350.504 -5.86411 -3.96898 0
M  V30 3624 H 350.912 -4.12652 -3.85199 0
M  V30 3625 N 350.31 0.590341 -1.46126 0
M  V30 3626 C 351.24 1.71032 -1.58966 0
M  V30 3627 C 352.221 1.64302 -0.440335 0
M  V30 3628 O 353.406 1.82436 -0.665634 0
M  V30 3629 C 350.536 3.09665 -1.57241 0
M  V30 3630 C 349.49 3.31221 -2.71066 0
M  V30 3631 C 348.816 4.70303 -2.54399 0
M  V30 3632 C 350.116 3.19796 -4.1295 0
M  V30 3633 H 351.81 1.60543 -2.52718 0
M  V30 3634 H 349.356 0.770933 -1.21625 0
M  V30 3635 H 351.309 3.87831 -1.64819 0
M  V30 3636 H 350.033 3.21036 -0.600289 0
M  V30 3637 H 348.692 2.55452 -2.62944 0
M  V30 3638 H 348.34 4.78429 -1.55288 0
M  V30 3639 H 348.04 4.85679 -3.30741 0
M  V30 3640 H 349.564 5.50647 -2.63857 0
M  V30 3641 H 350.978 3.87815 -4.22223 0
M  V30 3642 H 349.375 3.46696 -4.89818 0
M  V30 3643 H 350.445 2.16983 -4.33643 0
M  V30 3644 N 351.788 1.33704 0.83433 0
M  V30 3645 C 352.736 1.24323 1.96587 0
M  V30 3646 C 353.73 0.143659 1.6879 0
M  V30 3647 O 354.936 0.30791 1.77347 0
M  V30 3648 H 351.311 0.385925 0.645419 0
M  V30 3649 H 353.282 2.19978 2.01624 0
M  V30 3650 C 352.031 1.00394 3.32891 0
M  V30 3651 H 351.354 1.84231 3.54822 0
M  V30 3652 H 352.794 0.97862 4.12552 0
M  V30 3653 C 351.253 -0.293047 3.35623 0
M  V30 3654 O 351.783 -1.29823 3.80143 0
M  V30 3655 N 349.989 -0.322174 2.88809 0
M  V30 3656 H 349.536 0.496379 2.52772 0
M  V30 3657 H 349.494 -1.18977 2.91019 0
M  V30 3658 N 353.266 -1.05314 1.17247 0
M  V30 3659 C 354.216 -2.11313 0.856196 0
M  V30 3660 C 355.2 -1.60013 -0.168694 0
M  V30 3661 O 356.392 -1.76968 0.0335624 0
M  V30 3662 C 353.521 -3.41301 0.369917 0
M  V30 3663 C 352.607 -3.99401 1.42616 0
M  V30 3664 N 352.998 -4.31481 2.63928 0
M  V30 3665 C 351.296 -4.27126 1.28373 0
M  V30 3666 C 351.997 -4.77799 3.31787 0
M  V30 3667 N 350.973 -4.77843 2.59166 0
M  V30 3668 H 354.775 -2.33976 1.77856 0
M  V30 3669 H 352.289 -1.2295 1.06099 0
M  V30 3670 H 354.286 -4.16713 0.124897 0
M  V30 3671 H 352.946 -3.20072 -0.546253 0
M  V30 3672 H 353.957 -4.21519 3.00902 0
M  V30 3673 H 350.634 -4.15289 0.429111 0
M  V30 3674 H 352.024 -5.11743 4.35395 0
M  V30 3675 N 354.744 -0.972509 -1.24016 0
M  V30 3676 C 355.674 -0.525548 -2.27509 0
M  V30 3677 C 356.655 0.437262 -1.64384 0
M  V30 3678 O 357.84 0.332343 -1.91335 0
M  V30 3679 C 354.97 0.180448 -3.46831 0
M  V30 3680 C 353.924 -0.698859 -4.22256 0
M  V30 3681 C 353.25 0.138903 -5.3452 0
M  V30 3682 C 354.55 -1.98582 -4.83076 0
M  V30 3683 H 356.244 -1.39058 -2.65148 0
M  V30 3684 H 353.79 -0.67009 -1.27459 0
M  V30 3685 H 355.743 0.504387 -4.18371 0
M  V30 3686 H 354.467 1.07987 -3.08231 0
M  V30 3687 H 353.126 -1.00614 -3.52523 0
M  V30 3688 H 352.774 1.03862 -4.9216 0
M  V30 3689 H 352.474 -0.446259 -5.85903 0
M  V30 3690 H 353.998 0.457404 -6.08884 0
M  V30 3691 H 355.412 -1.72715 -5.46665 0
M  V30 3692 H 353.809 -2.5181 -5.44713 0
M  V30 3693 H 354.879 -2.67769 -4.04262 0
M  V30 3694 N 356.222 1.38976 -0.743202 0
M  V30 3695 C 357.452 2.04339 -0.304807 0
M  V30 3696 C 357.86 1.56162 1.06819 0
M  V30 3697 O 357.203 0.725284 1.68776 0
M  V30 3698 C 357.265 3.58716 -0.237369 0
M  V30 3699 C 356.929 4.29905 -1.55018 0
M  V30 3700 C 357.926 4.55987 -2.49744 0
M  V30 3701 C 355.611 4.68294 -1.81675 0
M  V30 3702 C 357.605 5.19478 -3.69353 0
M  V30 3703 C 355.292 5.31512 -3.0156 0
M  V30 3704 C 356.29 5.57037 -3.9522 0
M  V30 3705 O 355.978 6.18941 -5.12998 0
M  V30 3706 H 355.71 0.663439 -0.12971 0
M  V30 3707 H 358.264 1.78852 -1.01001 0
M  V30 3708 H 356.494 3.83133 0.524003 0
M  V30 3709 H 358.183 4.05543 0.170121 0
M  V30 3710 H 358.949 4.26767 -2.30423 0
M  V30 3711 H 354.828 4.47779 -1.09615 0
M  V30 3712 H 358.372 5.39318 -4.42473 0
M  V30 3713 H 354.269 5.60153 -3.20778 0
M  V30 3714 H 355.037 6.37433 -5.13441 0
M  V30 3715 N 357.7 0.491464 1.49741 0
M  V30 3716 C 358.663 -0.280906 2.27472 0
M  V30 3717 C 359.663 -0.902454 1.33088 0
M  V30 3718 O 360.853 -0.768465 1.56334 0
M  V30 3719 C 357.985 -1.40209 3.10732 0
M  V30 3720 H 359.178 0.401056 2.97206 0
M  V30 3721 H 356.731 0.246131 1.5435 0
M  V30 3722 H 357.466 -2.11849 2.45541 0
M  V30 3723 H 357.251 -0.961969 3.80117 0
M  V30 3724 H 358.741 -1.9464 3.69466 0
M  V30 3725 N 359.178 -1.55987 0.224894 0
M  V30 3726 C 360.108 -2.23426 -0.678457 0
M  V30 3727 C 361.089 -1.20709 -1.19847 0
M  V30 3728 O 362.274 -1.49304 -1.24186 0
M  V30 3729 C 359.404 -2.91676 -1.88527 0
M  V30 3730 C 358.358 -4.00893 -1.49896 0
M  V30 3731 C 357.684 -4.56455 -2.78483 0
M  V30 3732 C 358.984 -5.17769 -0.686461 0
M  V30 3733 H 360.678 -2.99175 -0.116173 0
M  V30 3734 H 358.224 -1.43897 -0.054436 0
M  V30 3735 H 360.177 -3.37547 -2.5227 0
M  V30 3736 H 358.901 -2.1338 -2.47258 0
M  V30 3737 H 357.56 -3.55758 -0.884985 0
M  V30 3738 H 357.208 -3.74886 -3.35365 0
M  V30 3739 H 356.908 -5.30169 -2.53368 0
M  V30 3740 H 358.432 -5.05047 -3.43162 0
M  V30 3741 H 359.846 -5.60001 -1.22767 0
M  V30 3742 H 358.243 -5.97735 -0.532259 0
M  V30 3743 H 359.313 -4.83932 0.306196 0
M  V30 3744 N 360.656 0.0484629 -1.57525 0
M  V30 3745 C 361.881 0.759177 -1.93006 0
M  V30 3746 C 362.306 1.69125 -0.823317 0
M  V30 3747 O 361.664 1.79931 0.222364 0
M  V30 3748 C 361.712 1.50899 -3.27509 0
M  V30 3749 O 360.816 2.62112 -3.18388 0
M  V30 3750 H 360.157 0.205564 -0.631379 0
M  V30 3751 H 362.687 0.00972959 -2.04598 0
M  V30 3752 H 362.697 1.88317 -3.6194 0
M  V30 3753 H 361.372 0.825269 -4.0763 0
M  V30 3754 H 359.949 2.27379 -2.95556 0
M  V30 3755 N 362.134 1.5431 0.320358 0
M  V30 3756 C 363.383 1.7188 1.05546 0
M  V30 3757 C 363.696 0.501143 1.89071 0
M  V30 3758 O 364.902 0.558258 2.65699 0
M  V30 3759 C 363.358 3.04025 1.92605 0
M  V30 3760 C 362.966 4.33207 1.14176 0
M  V30 3761 C 364.71 3.30959 2.65832 0
M  V30 3762 C 362.617 5.56412 2.00399 0
M  V30 3763 H 361.547 0.640547 0.397763 0
M  V30 3764 H 364.198 1.80802 0.313522 0
M  V30 3765 H 362.58 2.89019 2.7071 0
M  V30 3766 H 363.754 4.58989 0.40819 0
M  V30 3767 H 362.069 4.13062 0.526165 0
M  V30 3768 H 364.666 4.20203 3.30656 0
M  V30 3769 H 365.009 2.48979 3.33639 0
M  V30 3770 H 365.542 3.46847 1.94787 0
M  V30 3771 H 362.281 6.41004 1.37094 0
M  V30 3772 H 361.801 5.34844 2.7148 0
M  V30 3773 H 363.48 5.92938 2.58908 0
M  V30 3774 N 363.613 -0.582584 1.46437 0
M  V30 3775 C 364.56 -1.69164 1.5701 0
M  V30 3776 C 365.53 -1.60847 0.414403 0
M  V30 3777 O 366.715 -1.80058 0.631171 0
M  V30 3778 C 363.855 -3.075 1.56646 0
M  V30 3779 C 362.968 -3.2644 2.82951 0
M  V30 3780 C 362.103 -4.55026 2.7409 0
M  V30 3781 C 361.142 -4.6731 3.95333 0
M  V30 3782 N 360.279 -5.87221 3.84858 0
M  V30 3783 H 365.119 -1.59464 2.51744 0
M  V30 3784 H 362.656 -0.777186 1.24893 0
M  V30 3785 H 364.614 -3.8757 1.5442 0
M  V30 3786 H 363.244 -3.16096 0.654439 0
M  V30 3787 H 362.296 -2.39974 2.95155 0
M  V30 3788 H 363.608 -3.31385 3.72808 0
M  V30 3789 H 362.762 -5.43324 2.6997 0
M  V30 3790 H 361.501 -4.52519 1.81873 0
M  V30 3791 H 360.506 -3.77429 3.99784 0
M  V30 3792 H 361.731 -4.71595 4.88646 0
M  V30 3793 H 359.677 -5.85712 2.95427 0
M  V30 3794 H 359.594 -5.93435 4.6837 0
M  V30 3795 H 360.862 -6.7795 3.84713 0
M  V30 3796 N 365.091 -1.34144 -0.827227 0
M  V30 3797 C 366.368 -1.16844 -1.56865 0
M  V30 3798 C 366.748 0.260654 -2.09485 0
M  V30 3799 O 366.096 1.26138 -1.9053 0
M  V30 3800 C 366.306 -2.21939 -2.6934 0
M  V30 3801 C 367.654 -2.56695 -3.3822 0
M  V30 3802 O 368.678 -2.20695 -2.79593 0
M  V30 3803 O 367.537 -3.18518 -4.44082 0
M  V30 3804 H 364.631 -0.452669 -0.692112 0
M  V30 3805 H 367.177 -1.45763 -0.868973 0
M  V30 3806 H 365.949 -3.17882 -2.28182 0
M  V30 3807 H 365.572 -1.94172 -3.46962 0
M  V30 3808 N 366.569 1.04691 -1.17803 0
M  V30 3809 C 367.794 1.81984 -0.994813 0
M  V30 3810 C 368.219 1.82586 0.452112 0
M  V30 3811 O 367.577 1.23854 1.324 0
M  V30 3812 C 367.625 3.2575 -1.54659 0
M  V30 3813 O 366.729 4.05267 -0.763728 0
M  V30 3814 H 366.07 0.562483 -0.352857 0
M  V30 3815 H 368.6 1.3189 -1.56417 0
M  V30 3816 H 368.61 3.76541 -1.57102 0
M  V30 3817 H 367.285 3.24627 -2.59981 0
M  V30 3818 H 365.862 3.63972 -0.811108 0
M  V30 3819 N 368.047 0.979072 1.23499 0
M  V30 3820 C 369.293 0.648178 1.92163 0
M  V30 3821 C 369.626 -0.816049 1.76222 0
M  V30 3822 O 368.901 -1.58849 1.12237 0
M  V30 3823 C 369.184 1.03773 3.44824 0
M  V30 3824 C 369.037 2.55948 3.69879 0
M  V30 3825 C 370.356 0.580653 4.36253 0
M  V30 3826 H 367.475 0.236952 0.69787 0
M  V30 3827 H 370.117 1.22012 1.45647 0
M  V30 3828 H 368.267 0.551058 3.84572 0
M  V30 3829 H 369.939 3.12179 3.3962 0
M  V30 3830 H 368.182 2.98641 3.14636 0
M  V30 3831 H 368.853 2.78255 4.76737 0
M  V30 3832 H 371.329 0.998465 4.03943 0
M  V30 3833 H 370.205 0.881663 5.41773 0
M  V30 3834 H 370.466 -0.519052 4.39042 0
M  V30 3835 N 369.525 -1.3858 0.750561 0
M  V30 3836 C 370.458 -2.28095 0.0693139 0
M  V30 3837 C 371.436 -1.45217 -0.731491 0
M  V30 3838 O 372.62 -1.74587 -0.71076 0
M  V30 3839 C 369.747 -3.26282 -0.90871 0
M  V30 3840 C 368.793 -4.26056 -0.194507 0
M  V30 3841 S 369.626 -5.24026 1.10257 0
M  V30 3842 C 370.782 -6.2577 0.127542 0
M  V30 3843 H 371.015 -2.85526 0.8284 0
M  V30 3844 H 368.548 -1.44536 0.543014 0
M  V30 3845 H 370.506 -3.83367 -1.46766 0
M  V30 3846 H 369.167 -2.6784 -1.64075 0
M  V30 3847 H 368.36 -4.95249 -0.93512 0
M  V30 3848 H 367.962 -3.72852 0.292837 0
M  V30 3849 H 370.254 -6.73796 -0.707516 0
M  V30 3850 H 371.197 -7.03712 0.787044 0
M  V30 3851 H 371.605 -5.63938 -0.251803 0
M  V30 3852 N 371.003 -0.499398 -1.49478 0
M  V30 3853 C 372.249 0.0457576 -2.02748 0
M  V30 3854 C 372.582 1.36793 -1.37846 0
M  V30 3855 O 371.857 1.87596 -0.513601 0
M  V30 3856 C 372.14 0.199986 -3.59544 0
M  V30 3857 C 371.993 -1.1452 -4.34977 0
M  V30 3858 C 373.312 0.94137 -4.29914 0
M  V30 3859 H 370.431 0.0151552 -0.736844 0
M  V30 3860 H 373.073 -0.650498 -1.78518 0
M  V30 3861 H 371.223 0.793007 -3.8032 0
M  V30 3862 H 372.895 -1.77697 -4.25701 0
M  V30 3863 H 371.138 -1.73488 -3.97598 0
M  V30 3864 H 371.809 -0.990607 -5.43039 0
M  V30 3865 H 374.285 0.43844 -4.13784 0
M  V30 3866 H 373.161 1.01812 -5.39375 0
M  V30 3867 H 373.422 1.98471 -3.95046 0
M  V30 3868 N 372.481 1.55866 -0.233164 0
M  V30 3869 C 373.411 2.23783 0.666599 0
M  V30 3870 C 374.392 1.21343 1.19205 0
M  V30 3871 O 375.577 1.4996 1.23392 0
M  V30 3872 C 372.707 2.92671 1.86978 0
M  V30 3873 C 371.661 4.01682 1.47768 0
M  V30 3874 C 370.987 4.57926 2.76058 0
M  V30 3875 C 372.287 5.18126 0.658993 0
M  V30 3876 H 373.981 2.99232 0.100306 0
M  V30 3877 H 371.527 1.43924 0.046804 0
M  V30 3878 H 373.48 3.3888 2.50476 0
M  V30 3879 H 372.204 2.14688 2.46123 0
M  V30 3880 H 370.863 3.56222 0.866106 0
M  V30 3881 H 370.511 3.76659 3.33372 0
M  V30 3882 H 370.211 5.31505 2.50552 0
M  V30 3883 H 371.735 5.06859 3.40479 0
M  V30 3884 H 373.149 5.60644 1.19795 0
M  V30 3885 H 371.546 5.98009 0.500552 0
M  V30 3886 H 372.616 4.83763 -0.331856 0
M  V30 3887 N 373.959 -0.0401083 1.57549 0
M  V30 3888 C 375.184 -0.748931 1.93406 0
M  V30 3889 C 375.609 -1.68686 0.832274 0
M  V30 3890 O 374.967 -1.80047 -0.212818 0
M  V30 3891 C 375.015 -1.4916 3.28304 0
M  V30 3892 O 374.119 -2.6042 3.19774 0
M  V30 3893 H 373.46 -0.202212 0.63246 0
M  V30 3894 H 375.99 0.00112086 2.046 0
M  V30 3895 H 376 -1.86395 3.62934 0
M  V30 3896 H 374.675 -0.80364 4.08062 0
M  V30 3897 H 373.252 -2.25808 2.96758 0
M  V30 3898 N 375.437 -1.54477 -0.31217 0
M  V30 3899 C 376.4 -1.83923 -1.36766 0
M  V30 3900 C 377.4 -0.711563 -1.44199 0
M  V30 3901 O 378.59 -0.979866 -1.44029 0
M  V30 3902 C 375.722 -2.0095 -2.75376 0
M  V30 3903 H 376.915 -2.78239 -1.11906 0
M  V30 3904 H 374.468 -1.46369 -0.548257 0
M  V30 3905 H 375.203 -1.08883 -3.05475 0
M  V30 3906 H 374.988 -2.83018 -2.71373 0
M  V30 3907 H 376.478 -2.2514 -3.51713 0
M  V30 3908 N 376.915 0.57481 -1.46744 0
M  V30 3909 C 378.143 1.35856 -1.56047 0
M  V30 3910 C 378.558 1.87691 -0.204365 0
M  V30 3911 O 377.915 1.64049 0.79963 0
M  V30 3912 C 377.966 2.54066 -2.57163 0
M  V30 3913 O 377.687 2.04377 -3.87507 0
M  V30 3914 C 379.188 3.46514 -2.76483 0
M  V30 3915 H 376.408 0.414754 -0.527466 0
M  V30 3916 H 378.952 0.698035 -1.92218 0
M  V30 3917 H 377.107 3.16092 -2.23974 0
M  V30 3918 H 377.521 2.81419 -4.4261 0
M  V30 3919 H 378.995 4.25919 -3.51137 0
M  V30 3920 H 379.472 3.98951 -1.83671 0
M  V30 3921 H 380.078 2.90318 -3.10799 0
M  V30 3922 N 378.394 1.34581 0.820102 0
M  V30 3923 C 379.344 1.22943 1.92013 0
M  V30 3924 C 380.328 0.127802 1.60392 0
M  V30 3925 O 381.52 0.357737 1.73347 0
M  V30 3926 C 378.649 0.989938 3.28717 0
M  V30 3927 C 377.735 2.13486 3.66449 0
M  V30 3928 N 378.126 3.38625 3.75722 0
M  V30 3929 C 376.424 2.04573 3.96315 0
M  V30 3930 C 377.125 4.13832 4.08801 0
M  V30 3931 N 376.101 3.42451 4.22171 0
M  V30 3932 H 379.903 2.17771 1.97365 0
M  V30 3933 H 377.417 1.2686 1.01392 0
M  V30 3934 H 379.414 0.887462 4.07345 0
M  V30 3935 H 378.074 0.0503691 3.24661 0
M  V30 3936 H 379.085 3.73143 3.59144 0
M  V30 3937 H 375.762 1.1839 4.00362 0
M  V30 3938 H 377.152 5.21909 4.23156 0
M  V30 3939 N 379.872 -1.04064 1.18357 0
M  V30 3940 C 381.288 -1.2947 0.933258 0
M  V30 3941 C 381.488 -1.97466 -0.401169 0
M  V30 3942 O 380.544 -2.25528 -1.13549 0
M  V30 3943 C 381.857 -2.15337 2.09882 0
M  V30 3944 C 383.405 -2.28683 2.13712 0
M  V30 3945 C 383.88 -3.17917 3.29686 0
M  V30 3946 N 385.371 -3.25504 3.29547 0
M  V30 3947 C 386.106 -3.94706 4.15926 0
M  V30 3948 N 385.602 -4.66239 5.12439 0
M  V30 3949 N 387.395 -3.90986 4.0384 0
M  V30 3950 H 379.546 -0.583359 2.04232 0
M  V30 3951 H 381.809 -0.319921 0.892387 0
M  V30 3952 H 381.515 -1.72682 3.06389 0
M  V30 3953 H 381.389 -3.16015 2.05947 0
M  V30 3954 H 383.776 -2.70575 1.17784 0
M  V30 3955 H 383.857 -1.27596 2.21705 0
M  V30 3956 H 383.501 -2.76736 4.25887 0
M  V30 3957 H 383.431 -4.19036 3.1893 0
M  V30 3958 H 385.922 -2.74547 2.59677 0
M  V30 3959 H 386.235 -5.16638 5.74722 0
M  V30 3960 H 384.58 -4.65143 5.16398 0
M  V30 3961 H 387.771 -3.34234 3.27727 0
M  V30 3962 H 387.944 -4.44646 4.71375 0
M  V30 3963 N 381.35 -0.985608 -1.22978 0
M  V30 3964 C 382.58 -0.674603 -1.95276 0
M  V30 3965 C 382.988 0.763483 -1.73111 0
M  V30 3966 O 382.331 1.52601 -1.02268 0
M  V30 3967 C 382.393 -0.891597 -3.48268 0
M  V30 3968 C 382.057 -2.31275 -3.94158 0
M  V30 3969 C 383.054 -3.29179 -4.02415 0
M  V30 3970 C 380.739 -2.64524 -4.27004 0
M  V30 3971 C 382.733 -4.58407 -4.42879 0
M  V30 3972 C 380.42 -3.93974 -4.67149 0
M  V30 3973 C 381.418 -4.90727 -4.75053 0
M  V30 3974 O 381.106 -6.17865 -5.14294 0
M  V30 3975 H 380.838 -0.249251 -0.628371 0
M  V30 3976 H 383.392 -1.32106 -1.5728 0
M  V30 3977 H 381.622 -0.187962 -3.86243 0
M  V30 3978 H 383.311 -0.576957 -4.01779 0
M  V30 3979 H 384.077 -3.04823 -3.77237 0
M  V30 3980 H 379.956 -1.89923 -4.2006 0
M  V30 3981 H 383.5 -5.33926 -4.48964 0
M  V30 3982 H 379.397 -4.18122 -4.91777 0
M  V30 3983 H 380.165 -6.21694 -5.32389 0
M  V30 3984 N 382.828 1.3818 -0.7579 0
M  V30 3985 C 383.775 2.30416 -0.133057 0
M  V30 3986 C 384.745 1.50398 0.704957 0
M  V30 3987 O 385.93 1.79014 0.660192 0
M  V30 3988 C 383.07 3.36834 0.750813 0
M  V30 3989 C 382.183 4.31879 -0.102297 0
M  V30 3990 C 381.318 5.25368 0.784979 0
M  V30 3991 C 380.357 6.12058 -0.0715046 0
M  V30 3992 N 379.494 6.97832 0.772972 0
M  V30 3993 H 384.334 2.83274 -0.925186 0
M  V30 3994 H 381.871 1.39461 -0.467866 0
M  V30 3995 H 383.829 3.97145 1.27794 0
M  V30 3996 H 382.459 2.85374 1.50868 0
M  V30 3997 H 381.511 3.72991 -0.747095 0
M  V30 3998 H 382.823 4.92921 -0.763552 0
M  V30 3999 H 381.977 5.90818 1.37911 0
M  V30 4000 H 380.716 4.64703 1.47996 0
M  V30 4001 H 379.721 5.456 -0.678272 0
M  V30 4002 H 380.946 6.74793 -0.763606 0
M  V30 4003 H 378.892 6.3971 1.45282 0
M  V30 4004 H 378.809 7.55812 0.168709 0
M  V30 4005 H 380.077 7.67687 1.35194 0
M  V30 4006 N 384.306 0.507319 1.49211 0
M  V30 4007 C 385.253 -0.267728 2.29242 0
M  V30 4008 C 386.223 -0.954609 1.35928 0
M  V30 4009 O 387.408 -0.960046 1.64887 0
M  V30 4010 C 384.548 -1.32243 3.18756 0
M  V30 4011 C 383.661 -0.64669 4.27132 0
M  V30 4012 C 382.796 -1.68238 5.03855 0
M  V30 4013 C 381.835 -0.98885 6.0406 0
M  V30 4014 N 380.972 -1.96903 6.73924 0
M  V30 4015 H 385.812 0.420968 2.95012 0
M  V30 4016 H 383.349 0.219443 1.45454 0
M  V30 4017 H 385.307 -1.94599 3.69036 0
M  V30 4018 H 383.937 -1.97981 2.54958 0
M  V30 4019 H 382.989 0.0902926 3.80293 0
M  V30 4020 H 384.301 -0.101058 4.98698 0
M  V30 4021 H 383.455 -2.38081 5.58034 0
M  V30 4022 H 382.194 -2.26187 4.32077 0
M  V30 4023 H 381.199 -0.276222 5.49106 0
M  V30 4024 H 382.424 -0.415767 6.77826 0
M  V30 4025 H 380.37 -2.53803 6.04913 0
M  V30 4026 H 380.287 -1.47423 7.41487 0
M  V30 4027 H 381.555 -2.66015 7.32705 0
M  V30 4028 N 385.784 -1.5574 0.241426 0
M  V30 4029 C 386.731 -2.21149 -0.660432 0
M  V30 4030 C 387.701 -1.17356 -1.17545 0
M  V30 4031 O 388.886 -1.45784 -1.23093 0
M  V30 4032 C 386.026 -2.91059 -1.85414 0
M  V30 4033 C 385.139 -4.09495 -1.37616 0
M  V30 4034 C 384.274 -4.67135 -2.529 0
M  V30 4035 C 383.313 -5.77831 -2.01936 0
M  V30 4036 N 382.45 -6.29677 -3.10566 0
M  V30 4037 H 387.29 -2.97845 -0.095955 0
M  V30 4038 H 384.827 -1.47057 -0.0356024 0
M  V30 4039 H 386.785 -3.29788 -2.5553 0
M  V30 4040 H 385.415 -2.16846 -2.39118 0
M  V30 4041 H 384.467 -3.76117 -0.569235 0
M  V30 4042 H 385.779 -4.89423 -0.962618 0
M  V30 4043 H 384.933 -5.08409 -3.31067 0
M  V30 4044 H 383.672 -3.86411 -2.97553 0
M  V30 4045 H 382.677 -5.36039 -1.22238 0
M  V30 4046 H 383.902 -6.60402 -1.58259 0
M  V30 4047 H 381.848 -5.5186 -3.54664 0
M  V30 4048 H 381.765 -7.04783 -2.73526 0
M  V30 4049 H 383.033 -6.75609 -3.88809 0
M  V30 4050 N 387.262 0.0317525 -1.57568 0
M  V30 4051 C 388.492 0.733884 -1.93126 0
M  V30 4052 C 388.9 1.69563 -0.839352 0
M  V30 4053 O 388.243 1.82681 0.193175 0
M  V30 4054 C 388.305 1.54798 -3.24465 0
M  V30 4055 C 387.969 0.751304 -4.50782 0
M  V30 4056 C 388.966 0.0527632 -5.19873 0
M  V30 4057 C 386.651 0.706639 -4.97305 0
M  V30 4058 C 388.645 -0.679774 -6.33765 0
M  V30 4059 C 386.332 -0.0296449 -6.11093 0
M  V30 4060 C 387.33 -0.721614 -6.79177 0
M  V30 4061 O 387.018 -1.44595 -7.90789 0
M  V30 4062 H 386.75 0.211459 -0.642076 0
M  V30 4063 H 389.304 -0.00585615 -2.05399 0
M  V30 4064 H 387.534 2.33147 -3.08512 0
M  V30 4065 H 389.223 2.13247 -3.4537 0
M  V30 4066 H 389.989 0.0783188 -4.84937 0
M  V30 4067 H 385.868 1.23474 -4.44157 0
M  V30 4068 H 389.412 -1.22042 -6.86842 0
M  V30 4069 H 385.309 -0.0571331 -6.45475 0
M  V30 4070 H 386.077 -1.35935 -8.07133 0
M  V30 4071 N 388.74 1.54641 0.303973 0
M  V30 4072 C 389.986 1.74038 1.04109 0
M  V30 4073 C 390.319 0.523051 1.87024 0
M  V30 4074 O 389.594 -0.479874 1.88487 0
M  V30 4075 C 389.877 3.02761 1.94955 0
M  V30 4076 C 389.73 4.34787 1.1524 0
M  V30 4077 C 391.049 3.27336 2.94175 0
M  V30 4078 H 388.168 0.63323 0.377079 0
M  V30 4079 H 390.81 1.87354 0.316001 0
M  V30 4080 H 388.96 2.9154 2.56782 0
M  V30 4081 H 390.632 4.57922 0.557236 0
M  V30 4082 H 388.875 4.31407 0.455053 0
M  V30 4083 H 389.546 5.21116 1.8205 0
M  V30 4084 H 392.022 3.38148 2.42477 0
M  V30 4085 H 390.898 4.18726 3.54908 0
M  V30 4086 H 391.159 2.45491 3.67677 0
M  V30 4087 N 390.218 -0.567019 1.47046 0
M  V30 4088 C 391.446 -1.35027 1.56765 0
M  V30 4089 C 391.861 -1.8758 0.214316 0
M  V30 4090 O 391.218 -1.64471 -0.790919 0
M  V30 4091 C 391.269 -2.52698 2.58507 0
M  V30 4092 O 390.99 -2.0232 3.88585 0
M  V30 4093 C 392.491 -3.45043 2.78316 0
M  V30 4094 H 389.711 -0.41195 0.529658 0
M  V30 4095 H 392.255 -0.687832 1.92585 0
M  V30 4096 H 390.41 -3.149 2.25648 0
M  V30 4097 H 390.824 -2.79068 4.44096 0
M  V30 4098 H 392.298 -4.2405 3.53391 0
M  V30 4099 H 392.775 -3.97971 1.85784 0
M  V30 4100 H 393.381 -2.88665 3.12334 0
M  V30 4101 N 391.696 -1.35014 -0.812953 0
M  V30 4102 C 392.924 -1.31031 -1.6012 0
M  V30 4103 C 393.339 0.113558 -1.88458 0
M  V30 4104 O 392.696 1.06363 -1.48301 0
M  V30 4105 C 392.747 -2.10872 -2.93624 0
M  V30 4106 O 392.468 -3.47706 -2.66518 0
M  V30 4107 C 393.969 -2.14401 -3.88004 0
M  V30 4108 H 391.189 -0.45037 -0.497401 0
M  V30 4109 H 393.733 -1.77775 -1.01076 0
M  V30 4110 H 391.888 -1.67744 -3.492 0
M  V30 4111 H 392.302 -3.89097 -3.51715 0
M  V30 4112 H 393.776 -2.74669 -4.78812 0
M  V30 4113 H 394.253 -1.14105 -4.24119 0
M  V30 4114 H 394.859 -2.57662 -3.38364 0
M  V30 4115 N 393.175 1.03435 -1.18907 0
M  V30 4116 C 394.105 2.13503 -0.945448 0
M  V30 4117 C 395.086 1.69682 0.119189 0
M  V30 4118 O 396.271 1.94169 -0.034707 0
M  V30 4119 C 393.401 3.44004 -0.477316 0
M  V30 4120 C 392.355 4.0148 -1.48316 0
M  V30 4121 C 391.681 5.27537 -0.872311 0
M  V30 4122 C 392.981 4.36921 -2.86177 0
M  V30 4123 H 394.675 2.34141 -1.86597 0
M  V30 4124 H 392.221 1.12523 -0.898584 0
M  V30 4125 H 394.174 4.20372 -0.294204 0
M  V30 4126 H 392.898 3.23072 0.478786 0
M  V30 4127 H 391.557 3.27201 -1.65332 0
M  V30 4128 H 391.205 5.02917 0.0911752 0
M  V30 4129 H 390.905 5.66954 -1.54393 0
M  V30 4130 H 392.429 6.06576 -0.699871 0
M  V30 4131 H 393.843 5.04248 -2.72776 0
M  V30 4132 H 392.24 4.87405 -3.50081 0
M  V30 4133 H 393.31 3.46466 -3.39248 0
M  V30 4134 N 394.653 0.992116 1.22453 0
M  V30 4135 C 395.583 0.561677 2.26644 0
M  V30 4136 C 396.564 -0.411055 1.65059 0
M  V30 4137 O 397.749 -0.301861 1.9184 0
M  V30 4138 C 394.879 -0.125247 3.47074 0
M  V30 4139 C 393.833 0.765948 4.21091 0
M  V30 4140 C 393.159 -0.0538484 5.34673 0
M  V30 4141 C 394.459 2.06242 4.79856 0
M  V30 4142 H 396.153 1.43259 2.62902 0
M  V30 4143 H 393.699 0.690283 1.26377 0
M  V30 4144 H 395.652 -0.437764 4.1912 0
M  V30 4145 H 394.376 -1.03069 3.0991 0
M  V30 4146 H 393.035 1.0621 3.50878 0
M  V30 4147 H 392.683 -0.960188 4.9375 0
M  V30 4148 H 392.383 0.539415 5.85119 0
M  V30 4149 H 393.907 -0.360477 6.09535 0
M  V30 4150 H 395.321 1.8139 5.43848 0
M  V30 4151 H 393.718 2.60444 5.40638 0
M  V30 4152 H 394.788 2.74167 3.99951 0
M  V30 4153 N 396.131 -1.37776 0.765217 0
M  V30 4154 C 397.361 -2.03828 0.337277 0
M  V30 4155 C 397.769 -1.57841 -1.04321 0
M  V30 4156 O 397.112 -0.752043 -1.67601 0
M  V30 4157 C 397.174 -3.58292 0.294407 0
M  V30 4158 C 396.838 -4.27384 1.61838 0
M  V30 4159 C 397.835 -4.51956 2.56967 0
M  V30 4160 C 395.52 -4.65345 1.89102 0
M  V30 4161 C 397.514 -5.13536 3.77571 0
M  V30 4162 C 395.201 -5.26647 3.09978 0
M  V30 4163 C 396.199 -5.50679 4.04032 0
M  V30 4164 O 395.887 -6.10702 5.2278 0
M  V30 4165 H 395.619 -0.661292 0.140248 0
M  V30 4166 H 398.173 -1.77222 1.03834 0
M  V30 4167 H 396.403 -3.83918 -0.462983 0
M  V30 4168 H 398.092 -4.05763 -0.105581 0
M  V30 4169 H 398.858 -4.23048 2.37183 0
M  V30 4170 H 394.737 -4.45978 1.16725 0
M  V30 4171 H 398.281 -5.3221 4.50997 0
M  V30 4172 H 394.178 -5.54979 3.29649 0
M  V30 4173 H 394.946 -6.29183 5.23517 0
M  V30 4174 N 397.609 -0.515225 -1.4894 0
M  V30 4175 C 398.556 0.255567 -2.29381 0
M  V30 4176 C 399.526 0.947387 -1.36432 0
M  V30 4177 O 400.711 0.951288 -1.65394 0
M  V30 4178 C 397.851 1.30551 -3.19453 0
M  V30 4179 C 396.964 0.624029 -4.27469 0
M  V30 4180 C 396.099 1.65563 -5.0474 0
M  V30 4181 C 395.138 0.956802 -6.04576 0
M  V30 4182 N 394.275 1.93326 -6.74959 0
M  V30 4183 H 399.115 -0.436607 -2.94784 0
M  V30 4184 H 396.652 -0.227154 -1.45336 0
M  V30 4185 H 398.61 1.92639 -3.70062 0
M  V30 4186 H 397.24 1.96626 -2.56004 0
M  V30 4187 H 396.292 -0.110459 -3.8024 0
M  V30 4188 H 397.604 0.0746092 -4.98744 0
M  V30 4189 H 396.758 2.35119 -5.59289 0
M  V30 4190 H 395.497 2.23893 -4.3327 0
M  V30 4191 H 394.502 0.247097 -5.49244 0
M  V30 4192 H 395.727 0.379814 -6.78037 0
M  V30 4193 H 393.673 2.50591 -6.06251 0
M  V30 4194 H 393.59 1.43489 -7.42258 0
M  V30 4195 H 394.858 2.62126 -7.34105 0
M  V30 4196 N 399.087 1.5561 -0.249682 0
M  V30 4197 C 400.498 1.84979 0.252949 0
M  V30 4198 C 400.849 1.17153 1.57384 0
M  V30 4199 O 399.974 0.450884 2.11651 0
M  V30 4200 C 400.569 3.35584 0.465732 0
M  V30 4201 C 399.128 3.65169 0.912624 0
M  V30 4202 C 398.275 2.77299 -0.00859085 0
M  V30 4203 H 401.226 1.51513 -0.47217 0
M  V30 4204 H 401.247 3.57313 1.30795 0
M  V30 4205 H 400.759 3.8492 -0.49579 0
M  V30 4206 H 398.86 3.21312 1.88652 0
M  V30 4207 H 398.973 4.72912 0.767559 0
M  V30 4208 H 397.337 2.49678 0.50327 0
M  V30 4209 H 398.12 3.29442 -0.965537 0
M  V30 4210 N 400.565 -0.0233959 1.57583 0
M  V30 4211 C 401.814 -0.712133 1.8871 0
M  V30 4212 C 402.127 -1.76217 0.848944 0
M  V30 4213 O 403.333 -2.50389 1.04964 0
M  V30 4214 C 401.789 -1.3177 3.3491 0
M  V30 4215 C 401.397 -0.303715 4.46969 0
M  V30 4216 C 403.141 -1.98598 3.75179 0
M  V30 4217 C 401.048 -0.917945 5.84233 0
M  V30 4218 H 399.978 -0.269735 0.704101 0
M  V30 4219 H 402.629 0.0333114 1.8347 0
M  V30 4220 H 401.011 -2.11304 3.34913 0
M  V30 4221 H 402.185 0.465325 4.58445 0
M  V30 4222 H 400.5 0.2628 4.1557 0
M  V30 4223 H 403.097 -2.45416 4.75053 0
M  V30 4224 H 403.44 -2.80659 3.07468 0
M  V30 4225 H 403.973 -1.25831 3.77374 0
M  V30 4226 H 400.712 -0.136633 6.55358 0
M  V30 4227 H 400.232 -1.65669 5.76467 0
M  V30 4228 H 401.911 -1.4236 6.31144 0
M  V30 4229 O 402.082 -1.60643 -0.16613 0
M  V30 4230 H 402.773 -1.76304 -0.80228 0
M  V30 END ATOM
M  V30 BEGIN BOND
M  V30 END BOND
M  V30 END CTAB
M  END
$$$$
