drugbank_target|P07900 Heat shock protein HSP 90-alpha (DB00615; DB00716; DB02359; DB02424; DB02550; DB02754; DB02840; DB03093; DB03137; DB03504; DB03749; DB03809; DB03899; DB04054; DB04216; DB04254; DB04505; DB04588; DB05134; DB06070; DB06956; DB06957; DB06958; DB06961; DB06964; DB06969; DB07100; DB07317; DB07319; DB07324; DB07325; DB07495; DB07502; DB07594; DB07601; DB07877; DB08194; DB08197; DB08436; DB08442; DB08443; DB08557; DB08786; DB08787; DB08788; DB08789; DB09130; DB09221; DB12442)
 OpenBabel12092119483D

  0  0  0     0  0            999 V3000
M  V30 BEGIN CTAB
M  V30 COUNTS 11845 11935 0 0 0
M  V30 BEGIN ATOM
M  V30 1 H -0.908 1.98254 -0.117106 0
M  V30 2 N 0 1.576 0 0
M  V30 3 C 0.933 2.03868 1.02534 0
M  V30 4 C 1.911 0.928543 1.3348 0
M  V30 5 O 3.095 1.19667 1.45644 0
M  V30 6 C 0.222 2.43627 2.35294 0
M  V30 7 C -0.732 3.65373 2.2001 0
M  V30 8 S 0.101 5.13292 1.52614 0
M  V30 9 C 1.257 5.56322 2.86805 0
M  V30 10 H 1.49 2.90518 0.631377 0
M  V30 11 H -0.977 1.52953 0.210867 0
M  V30 12 H 0.981 2.67203 3.11629 0
M  V30 13 H -0.358 1.57376 2.7183 0
M  V30 14 H -1.165 3.90944 3.18086 0
M  V30 15 H -1.563 3.418 1.51819 0
M  V30 16 H 0.729 5.58782 3.83104 0
M  V30 17 H 1.672 6.56266 2.65933 0
M  V30 18 H 2.08 4.83886 2.90714 0
M  V30 19 N 1.4781 -0.272755 1.55222 0
M  V30 20 C 2.8891 -0.84378 1.66545 0
M  V30 21 C 3.2401 -1.87035 0.592641 0
M  V30 22 O 2.3651 -2.14761 -0.265818 0
M  V30 23 C 2.9601 -1.53723 3.01918 0
M  V30 24 C 1.5191 -2.05628 3.15268 0
M  V30 25 C 0.6661 -0.898424 2.62343 0
M  V30 26 H 3.6171 -0.0490998 1.58624 0
M  V30 27 H 3.6381 -2.40421 2.94921 0
M  V30 28 H 3.1501 -0.78983 3.79978 0
M  V30 29 H 1.2511 -2.83329 2.41983 0
M  V30 30 H 1.3641 -2.27142 4.21833 0
M  V30 31 H -0.2719 -1.29186 2.19506 0
M  V30 32 H 0.5111 -0.164528 3.42906 0
M  V30 33 N 2.9562 -1.48159 -0.537278 0
M  V30 34 C 3.8662 -1.64807 -1.6696 0
M  V30 35 C 4.8822 -0.530651 -1.65711 0
M  V30 36 O 6.0582 -0.800784 -1.84796 0
M  V30 37 C 3.1232 -1.67708 -3.03438 0
M  V30 38 C 2.1842 -2.91025 -3.156 0
M  V30 39 C 1.4172 -2.93778 -4.45567 0
M  V30 40 O 1.6402 -2.05153 -5.3223 0
M  V30 41 O 0.5742 -3.85868 -4.61941 0
M  V30 42 H 4.4002 -2.6066 -1.55853 0
M  V30 43 H 1.9852 -1.31475 -0.709549 0
M  V30 44 H 3.8672 -1.7218 -3.84619 0
M  V30 45 H 2.5422 -0.750278 -3.14885 0
M  V30 46 H 1.4492 -2.92089 -2.33741 0
M  V30 47 H 2.7822 -3.83065 -3.09066 0
M  V30 48 N 4.4343 0.785586 -1.36625 0
M  V30 49 C 5.3443 1.92964 -1.33425 0
M  V30 50 C 6.3603 1.72394 -0.235851 0
M  V30 51 O 7.5363 1.95866 -0.468878 0
M  V30 52 C 4.6013 3.27884 -1.12662 0
M  V30 53 C 3.6623 3.61204 -2.32013 0
M  V30 54 C 2.8953 4.89687 -2.12231 0
M  V30 55 O 3.1183 5.59704 -1.09945 0
M  V30 56 O 2.0523 5.21752 -3.00098 0
M  V30 57 H 5.8783 1.98613 -2.29753 0
M  V30 58 H 3.4633 0.926384 -1.17211 0
M  V30 59 H 5.3453 4.08614 -1.03016 0
M  V30 60 H 4.0203 3.23118 -0.193991 0
M  V30 61 H 2.9273 2.80765 -2.47228 0
M  V30 62 H 4.2603 3.70698 -3.23796 0
M  V30 63 N 5.9124 1.20967 1.01018 0
M  V30 64 C 7.1404 1.04956 1.78303 0
M  V30 65 C 7.5554 -0.400915 1.84494 0
M  V30 66 O 6.9124 -1.27826 1.30257 0
M  V30 67 C 6.9634 1.63403 3.22462 0
M  V30 68 O 6.6844 3.02775 3.16637 0
M  V30 69 C 8.1854 1.52432 4.16268 0
M  V30 70 H 5.4054 0.368858 0.560522 0
M  V30 71 H 7.9494 1.60193 1.27116 0
M  V30 72 H 6.1044 1.1227 3.70775 0
M  V30 73 H 6.5184 3.30626 4.07169 0
M  V30 74 H 7.9924 1.98078 5.15237 0
M  V30 75 H 8.4694 0.477875 4.36592 0
M  V30 76 H 9.0754 2.02787 3.73841 0
M  V30 77 N 7.3905 -1.2043 1.01659 0
M  V30 78 C 8.3225 -2.22626 0.544988 0
M  V30 79 C 9.3355 -1.58479 -0.372609 0
M  V30 80 O 10.5245 -1.77679 -0.170958 0
M  V30 81 C 7.6245 -3.38141 -0.22663 0
M  V30 82 C 6.7975 -4.31877 0.692876 0
M  V30 83 C 5.8565 -5.26191 -0.0311616 0
M  V30 84 O 4.8825 -5.6612 0.591343 0
M  V30 85 N 6.0845 -5.65618 -1.30601 0
M  V30 86 H 8.8495 -2.63716 1.42388 0
M  V30 87 H 6.4105 -1.34971 0.894116 0
M  V30 88 H 8.4025 -3.98239 -0.72024 0
M  V30 89 H 6.9725 -2.95943 -1.00681 0
M  V30 90 H 6.1925 -3.69746 1.36679 0
M  V30 91 H 7.4805 -4.91426 1.31824 0
M  V30 92 H 6.8785 -5.3519 -1.83269 0
M  V30 93 H 5.4355 -6.28025 -1.74435 0
M  V30 94 N 8.8686 -0.792821 -1.36206 0
M  V30 95 C 10.0966 -0.378825 -2.03402 0
M  V30 96 C 10.5116 1.00586 -1.59774 0
M  V30 97 O 9.8686 1.64574 -0.788764 0
M  V30 98 C 9.9196 -0.43683 -3.58851 0
M  V30 99 O 9.6406 -1.76691 -4.00889 0
M  V30 100 C 11.1416 -0.0138943 -4.43298 0
M  V30 101 H 8.3616 -0.155673 -0.652692 0
M  V30 102 H 10.9056 -1.07261 -1.74113 0
M  V30 103 H 9.0606 0.208575 -3.86838 0
M  V30 104 H 9.4746 -1.72011 -4.95492 0
M  V30 105 H 10.9486 -0.105615 -5.51899 0
M  V30 106 H 11.4256 1.03915 -4.2673 0
M  V30 107 H 12.0316 -0.63192 -4.20579 0
M  V30 108 N 10.3467 1.47872 -0.545128 0
M  V30 109 C 11.2787 2.27869 0.246621 0
M  V30 110 C 12.2917 1.36282 0.890561 0
M  V30 111 O 13.4807 1.61207 0.766449 0
M  V30 112 C 10.5807 3.10159 1.36582 0
M  V30 113 C 9.7537 4.29627 0.820954 0
M  V30 114 C 8.8127 4.93607 1.82314 0
M  V30 115 O 7.8387 5.52366 1.37406 0
M  V30 116 N 9.0407 4.87211 3.15603 0
M  V30 117 H 11.8057 2.96459 -0.439539 0
M  V30 118 H 9.3667 1.57367 -0.380421 0
M  V30 119 H 11.3587 3.49829 2.03474 0
M  V30 120 H 9.9287 2.43891 1.9554 0
M  V30 121 H 9.1487 3.94192 -0.0244032 0
M  V30 122 H 10.4367 5.06928 0.436063 0
M  V30 123 H 9.8347 4.40651 3.54744 0
M  V30 124 H 8.3917 5.30937 3.78087 0
M  V30 125 N 11.8248 0.280983 1.55075 0
M  V30 126 C 13.1018 -0.386207 1.91749 0
M  V30 127 C 13.4818 -1.73264 1.20594 0
M  V30 128 O 12.8298 -2.26034 0.334784 0
M  V30 129 C 13.0398 -0.520687 3.45094 0
M  V30 130 C 14.3878 -0.800865 4.16979 0
M  V30 131 O 15.4118 -0.605271 3.5102 0
M  V30 132 O 14.2708 -1.1753 5.33712 0
M  V30 133 H 11.3648 -0.212408 0.799257 0
M  V30 134 H 13.9108 0.327568 1.66509 0
M  V30 135 H 12.6828 0.426633 3.88967 0
M  V30 136 H 12.3058 -1.2837 3.76307 0
M  V30 137 N 13.3029 -1.57598 0.00835791 0
M  V30 138 C 14.2349 -2.05811 -1.00868 0
M  V30 139 C 15.2479 -0.977579 -1.30182 0
M  V30 140 O 16.4369 -1.25421 -1.27011 0
M  V30 141 C 13.5369 -2.45016 -2.34137 0
M  V30 142 C 12.7099 -3.75903 -2.23643 0
M  V30 143 C 11.7689 -4.01884 -3.3967 0
M  V30 144 O 10.7949 -4.72433 -3.17483 0
M  V30 145 N 11.9969 -3.50432 -4.62793 0
M  V30 146 H 14.7619 -2.93684 -0.597458 0
M  V30 147 H 12.3229 -1.60909 -0.178852 0
M  V30 148 H 14.3149 -2.59506 -3.10546 0
M  V30 149 H 12.8849 -1.62618 -2.66972 0
M  V30 150 H 12.1049 -3.7141 -1.32091 0
M  V30 151 H 13.3929 -4.61695 -2.13812 0
M  V30 152 H 12.7909 -2.93317 -4.83716 0
M  V30 153 H 11.3479 -3.70236 -5.3644 0
M  V30 154 N 14.781 0.264519 -1.55364 0
M  V30 155 C 16.192 0.834936 -1.6699 0
M  V30 156 C 16.543 1.86718 -0.602552 0
M  V30 157 O 15.668 2.14899 0.254425 0
M  V30 158 C 16.263 1.5212 -3.02729 0
M  V30 159 C 14.822 2.03954 -3.16354 0
M  V30 160 C 13.969 0.884498 -2.62815 0
M  V30 161 H 16.92 0.0406869 -1.58648 0
M  V30 162 H 16.941 2.38853 -2.96191 0
M  V30 163 H 16.453 0.769668 -3.80392 0
M  V30 164 H 14.554 2.82041 -2.43482 0
M  V30 165 H 14.667 2.24902 -4.23032 0
M  V30 166 H 13.031 1.2802 -2.20188 0
M  V30 167 H 13.814 0.14634 -3.42988 0
M  V30 168 N 16.2591 1.48442 0.529413 0
M  V30 169 C 17.1921 1.57577 1.65059 0
M  V30 170 C 18.1701 0.426198 1.56915 0
M  V30 171 O 19.3541 0.637877 1.77379 0
M  V30 172 C 16.4811 1.5043 3.03461 0
M  V30 173 C 15.5271 2.70235 3.29962 0
M  V30 174 S 16.3601 4.32198 3.16172 0
M  V30 175 C 17.5161 4.2765 4.57019 0
M  V30 176 H 17.7491 2.52427 1.5706 0
M  V30 177 H 15.2821 1.36982 0.712417 0
M  V30 178 H 17.2401 1.46992 3.8328 0
M  V30 179 H 15.9011 0.569167 3.089 0
M  V30 180 H 15.0941 2.61374 4.30929 0
M  V30 181 H 14.6961 2.70938 2.57815 0
M  V30 182 H 16.9881 3.97618 5.48549 0
M  V30 183 H 17.9311 5.28797 4.70934 0
M  V30 184 H 18.3391 3.5811 4.36368 0
M  V30 185 N 17.7372 -0.778329 1.37039 0
M  V30 186 C 18.6472 -1.92253 1.34446 0
M  V30 187 C 19.6632 -1.72267 0.244991 0
M  V30 188 O 20.8392 -1.95615 0.479258 0
M  V30 189 C 17.9042 -3.27282 1.144 0
M  V30 190 C 16.9652 -3.59969 2.33925 0
M  V30 191 C 16.1982 -4.88555 2.14825 0
M  V30 192 O 16.4212 -5.59113 1.12912 0
M  V30 193 O 15.3552 -5.20153 3.02861 0
M  V30 194 H 19.1812 -1.97392 2.30803 0
M  V30 195 H 16.7662 -0.920154 1.17701 0
M  V30 196 H 18.6482 -4.08062 1.05182 0
M  V30 197 H 17.3232 -3.23011 0.211124 0
M  V30 198 H 16.2302 -2.7945 2.48714 0
M  V30 199 H 17.5632 -3.68976 3.25757 0
M  V30 200 N 19.2153 -1.21501 -1.00376 0
M  V30 201 C 20.1253 -0.991447 -2.12621 0
M  V30 202 C 21.1413 0.0568446 -1.73907 0
M  V30 203 O 22.3173 -0.13348 -2.00957 0
M  V30 204 C 19.3823 -0.560312 -3.42142 0
M  V30 205 C 18.4433 -1.68096 -3.95022 0
M  V30 206 C 17.6763 -1.2703 -5.18362 0
M  V30 207 O 17.8993 -0.144438 -5.70217 0
M  V30 208 O 16.8333 -2.08269 -5.64719 0
M  V30 209 H 20.6593 -1.93158 -2.34358 0
M  V30 210 H 18.2443 -0.999999 -1.10997 0
M  V30 211 H 20.1263 -0.329724 -4.20108 0
M  V30 212 H 18.8013 0.351089 -3.2179 0
M  V30 213 H 17.7083 -1.96597 -3.18278 0
M  V30 214 H 19.0413 -2.56983 -4.19786 0
M  V30 215 N 20.6934 1.19889 -1.02296 0
M  V30 216 C 21.6034 2.26571 -0.608508 0
M  V30 217 C 22.6194 1.70299 0.356964 0
M  V30 218 O 23.7954 2.00235 0.216326 0
M  V30 219 C 20.8604 3.46677 0.0402814 0
M  V30 220 C 19.9214 4.18153 -0.97194 0
M  V30 221 C 19.1544 5.32525 -0.354016 0
M  V30 222 O 19.3774 5.64112 0.844604 0
M  V30 223 O 18.3114 5.92242 -1.07391 0
M  V30 224 H 22.1374 2.64251 -1.49684 0
M  V30 225 H 19.7224 1.26629 -0.792809 0
M  V30 226 H 21.6044 4.19475 0.402324 0
M  V30 227 H 20.2794 3.10858 0.902707 0
M  V30 228 H 19.1864 3.47499 -1.38546 0
M  V30 229 H 20.5194 4.57927 -1.80454 0
M  V30 230 N 22.1715 0.800033 1.35784 0
M  V30 231 C 23.0815 0.207204 2.33683 0
M  V30 232 C 24.0975 -0.64631 1.61551 0
M  V30 233 O 25.2735 -0.559604 1.93469 0
M  V30 234 C 22.3385 -0.639659 3.40748 0
M  V30 235 C 21.3995 0.233585 4.28664 0
M  V30 236 C 20.6325 -0.572954 5.30616 0
M  V30 237 O 20.8555 -1.80816 5.40982 0
M  V30 238 O 19.7895 0.0327285 6.01891 0
M  V30 239 H 23.6155 1.01692 2.86169 0
M  V30 240 H 21.2005 0.561691 1.38439 0
M  V30 241 H 23.0825 -1.12223 4.06182 0
M  V30 242 H 21.7575 -1.42708 2.90544 0
M  V30 243 H 20.6645 0.763147 3.66233 0
M  V30 244 H 21.9975 0.984784 4.82248 0
M  V30 245 N 23.6496 -1.47581 0.552962 0
M  V30 246 C 24.8956 -2.02782 0.0273648 0
M  V30 247 C 25.2286 -1.42687 -1.31734 0
M  V30 248 O 24.5036 -0.580897 -1.85623 0
M  V30 249 C 24.7866 -3.60031 -0.0702371 0
M  V30 250 C 24.6396 -4.30566 1.30126 0
M  V30 251 C 25.9586 -4.33028 -0.785771 0
M  V30 252 H 23.0776 -0.736912 0.0114185 0
M  V30 253 H 25.7196 -1.76056 0.714432 0
M  V30 254 H 23.8696 -3.82932 -0.655382 0
M  V30 255 H 25.5416 -4.19018 1.92929 0
M  V30 256 H 23.7846 -3.91086 1.87709 0
M  V30 257 H 24.4556 -5.39114 1.18573 0
M  V30 258 H 26.9316 -4.15095 -0.288982 0
M  V30 259 H 25.8076 -5.42695 -0.823013 0
M  V30 260 H 26.0686 -4.01945 -1.841 0
M  V30 261 N 25.1277 -0.289203 -1.54924 0
M  V30 262 C 26.0377 0.601863 -2.26748 0
M  V30 263 C 27.0537 1.15834 -1.2984 0
M  V30 264 O 28.2297 1.18564 -1.62802 0
M  V30 265 C 25.2947 1.76299 -2.98529 0
M  V30 266 C 24.3557 1.24178 -4.10948 0
M  V30 267 C 23.5887 2.34757 -4.79296 0
M  V30 268 O 23.8117 3.54411 -4.46933 0
M  V30 269 O 22.7457 2.02115 -5.66951 0
M  V30 270 H 26.5717 0.0195879 -3.03694 0
M  V30 271 H 24.1567 -0.0560868 -1.49295 0
M  V30 272 H 26.0387 2.43973 -3.43592 0
M  V30 273 H 24.7137 2.33209 -2.24488 0
M  V30 274 H 23.6207 0.531104 -3.70311 0
M  V30 275 H 24.9537 0.718252 -4.86931 0
M  V30 276 N 26.6058 1.57591 -0.0167156 0
M  V30 277 C 27.8338 1.95575 0.675128 0
M  V30 278 C 28.2488 0.892542 1.6637 0
M  V30 279 O 27.6058 -0.126912 1.82058 0
M  V30 280 C 27.6568 3.33608 1.39239 0
M  V30 281 O 27.3778 4.3585 0.443444 0
M  V30 282 C 28.8788 3.86151 2.17721 0
M  V30 283 H 26.0988 0.644423 0.186978 0
M  V30 284 H 28.6428 2.0437 -0.0728 0
M  V30 285 H 26.7978 3.2607 2.09182 0
M  V30 286 H 27.2118 5.158 0.951358 0
M  V30 287 H 28.6858 4.85114 2.63379 0
M  V30 288 H 29.1628 3.19738 3.01105 0
M  V30 289 H 29.7688 3.96918 1.52761 0
M  V30 290 N 28.0839 -0.256276 1.55502 0
M  V30 291 C 29.3309 -0.985619 1.76895 0
M  V30 292 C 29.6589 -1.85671 0.579355 0
M  V30 293 O 28.9139 -1.90744 -0.437651 0
M  V30 294 C 29.2129 -1.88432 3.03691 0
M  V30 295 C 28.8789 -1.16936 4.35473 0
M  V30 296 C 27.5409 -0.97173 4.71286 0
M  V30 297 C 29.8929 -0.661889 5.1698 0
M  V30 298 C 27.2209 -0.254179 5.86149 0
M  V30 299 C 29.5729 0.042149 6.32586 0
M  V30 300 C 28.2369 0.25134 6.67027 0
M  V30 301 H 27.5069 -0.360663 0.647304 0
M  V30 302 H 30.1539 -0.256483 1.89775 0
M  V30 303 H 28.4589 -2.68021 2.85783 0
M  V30 304 H 30.1559 -2.45015 3.1744 0
M  V30 305 H 26.7459 -1.33332 4.07333 0
M  V30 306 H 30.9299 -0.802145 4.89775 0
M  V30 307 H 26.1859 -0.0815408 6.11346 0
M  V30 308 H 30.3599 0.443049 6.94989 0
M  V30 309 H 27.9869 0.809314 7.5588 0
M  V30 310 N 29.562 -1.4872 -0.521534 0
M  V30 311 C 30.525 -1.63379 -1.60748 0
M  V30 312 C 31.525 -0.50661 -1.52611 0
M  V30 313 O 32.715 -0.772601 -1.5613 0
M  V30 314 C 29.847 -1.61192 -3.00383 0
M  V30 315 H 31.04 -2.60217 -1.49087 0
M  V30 316 H 28.593 -1.37444 -0.744235 0
M  V30 317 H 29.328 -0.65863 -3.17541 0
M  V30 318 H 29.113 -2.43032 -3.07698 0
M  V30 319 H 30.603 -1.7466 -3.7932 0
M  V30 320 N 31.0401 0.771051 -1.3745 0
M  V30 321 C 32.2871 1.52963 -1.32697 0
M  V30 322 C 32.6151 1.94299 0.0883274 0
M  V30 323 O 31.8701 1.64397 1.0617 0
M  V30 324 C 32.1691 2.80676 -2.2126 0
M  V30 325 C 31.8351 2.58389 -3.69521 0
M  V30 326 C 30.4971 2.52019 -4.09927 0
M  V30 327 C 32.8491 2.38469 -4.63446 0
M  V30 328 C 30.1771 2.23721 -5.42371 0
M  V30 329 C 32.5291 2.11694 -5.96128 0
M  V30 330 C 31.1931 2.03769 -6.35637 0
M  V30 331 H 30.4631 0.559732 -0.485573 0
M  V30 332 H 33.1101 0.888083 -1.69662 0
M  V30 333 H 31.4151 3.49392 -1.77291 0
M  V30 334 H 33.1121 3.38557 -2.14895 0
M  V30 335 H 29.7021 2.6421 -3.37478 0
M  V30 336 H 33.8861 2.4238 -4.33089 0
M  V30 337 H 29.1421 2.16081 -5.71943 0
M  V30 338 H 33.3161 1.9528 -6.6846 0
M  V30 339 H 30.9431 1.81606 -7.38189 0
M  V30 340 N 32.5182 1.22032 0.997298 0
M  V30 341 C 33.4502 0.944263 2.08845 0
M  V30 342 C 34.4632 -0.0754663 1.62625 0
M  V30 343 O 35.6522 0.157994 1.77799 0
M  V30 344 C 32.7522 0.397723 3.36558 0
M  V30 345 C 31.9252 1.47362 4.11829 0
M  V30 346 C 30.9842 0.934951 5.17827 0
M  V30 347 O 30.0102 1.62016 5.45655 0
M  V30 348 N 31.2122 -0.245895 5.79979 0
M  V30 349 H 33.9772 1.88363 2.33109 0
M  V30 350 H 31.5382 1.12661 1.16272 0
M  V30 351 H 33.5302 0.0227771 4.04694 0
M  V30 352 H 32.1002 -0.446646 3.09393 0
M  V30 353 H 31.3202 2.02208 3.38386 0
M  V30 354 H 32.6082 2.19764 4.58891 0
M  V30 355 H 32.0062 -0.819475 5.59733 0
M  V30 356 H 30.5632 -0.562272 6.4937 0
M  V30 357 N 33.9963 -1.19345 1.0293 0
M  V30 358 C 34.9593 -2.20793 0.615069 0
M  V30 359 C 35.9593 -1.57553 -0.321533 0
M  V30 360 O 37.1493 -1.73862 -0.108483 0
M  V30 361 C 34.2813 -3.40754 -0.0999222 0
M  V30 362 H 35.4743 -2.58955 1.51269 0
M  V30 363 H 33.0273 -1.3303 0.820534 0
M  V30 364 H 33.7623 -3.0811 -1.01187 0
M  V30 365 H 33.5473 -3.87889 0.57309 0
M  V30 366 H 35.0373 -4.15898 -0.376645 0
M  V30 367 N 35.4744 -0.807222 -1.35358 0
M  V30 368 C 36.3844 -0.219594 -2.3357 0
M  V30 369 C 37.4004 0.637734 -1.61892 0
M  V30 370 O 38.5764 0.549336 -1.93763 0
M  V30 371 C 35.6414 0.62158 -3.41083 0
M  V30 372 C 34.7024 -0.256315 -4.28534 0
M  V30 373 C 33.9354 0.544807 -5.30912 0
M  V30 374 O 34.1584 1.77944 -5.41934 0
M  V30 375 O 33.0924 -0.0646478 -6.01865 0
M  V30 376 H 36.9184 -1.03208 -2.85625 0
M  V30 377 H 34.5034 -0.569025 -1.38139 0
M  V30 378 H 36.3854 1.10067 -4.06772 0
M  V30 379 H 35.0604 1.41165 -2.91297 0
M  V30 380 H 33.9674 -0.782559 -3.65823 0
M  V30 381 H 35.3004 -1.01034 -4.81719 0
M  V30 382 N 36.9525 1.47285 -0.560781 0
M  V30 383 C 38.2015 2.01668 -0.035895 0
M  V30 384 C 38.5145 1.44021 1.32353 0
M  V30 385 O 39.7205 1.90088 1.93853 0
M  V30 386 C 38.1765 3.59897 -0.0136659 0
M  V30 387 C 37.7845 4.26536 -1.37006 0
M  V30 388 C 39.5285 4.22017 0.458425 0
M  V30 389 C 37.4355 5.76782 -1.30675 0
M  V30 390 H 36.3655 0.753938 -0.00964879 0
M  V30 391 H 39.0165 1.69243 -0.709166 0
M  V30 392 H 37.3985 3.89301 0.725325 0
M  V30 393 H 38.5725 4.0877 -2.12705 0
M  V30 394 H 36.8875 3.76419 -1.78038 0
M  V30 395 H 39.4845 5.32124 0.524247 0
M  V30 396 H 39.8275 3.89437 1.4712 0
M  V30 397 H 40.3605 3.97159 -0.225818 0
M  V30 398 H 37.0995 6.13988 -2.29564 0
M  V30 399 H 36.6195 5.96875 -0.591622 0
M  V30 400 H 38.2985 6.39063 -1.01033 0
M  V30 401 N 38.4306 0.297415 1.54768 0
M  V30 402 C 39.3936 -0.567375 2.22066 0
M  V30 403 C 40.3936 -1.06409 1.20556 0
M  V30 404 O 41.5836 -0.960691 1.45315 0
M  V30 405 C 38.7156 -1.78517 2.90421 0
M  V30 406 H 39.9086 0.0205534 2.99893 0
M  V30 407 H 37.4616 0.0482163 1.56226 0
M  V30 408 H 38.1966 -2.41303 2.16664 0
M  V30 409 H 37.9816 -1.43669 3.64831 0
M  V30 410 H 39.4716 -2.39964 3.41771 0
M  V30 411 N 39.9087 -1.5758 0.0250728 0
M  V30 412 C 40.8407 -2.06869 -0.986796 0
M  V30 413 C 41.8537 -0.991332 -1.29137 0
M  V30 414 O 43.0427 -1.26761 -1.25674 0
M  V30 415 C 40.1427 -2.47486 -2.31525 0
M  V30 416 C 39.3157 -3.78253 -2.19643 0
M  V30 417 C 38.3747 -4.05464 -3.35388 0
M  V30 418 O 37.4007 -4.75774 -3.12454 0
M  V30 419 N 38.6027 -3.55321 -4.59051 0
M  V30 420 H 41.3677 -2.94302 -0.566276 0
M  V30 421 H 38.9287 -1.6109 -0.161776 0
M  V30 422 H 40.9207 -2.62785 -3.07776 0
M  V30 423 H 39.4907 -1.65441 -2.65232 0
M  V30 424 H 38.7107 -3.7279 -1.28144 0
M  V30 425 H 39.9987 -4.63936 -2.08903 0
M  V30 426 H 39.3967 -2.98431 -4.80578 0
M  V30 427 H 37.9537 -3.75905 -5.32483 0
M  V30 428 N 41.3868 0.248026 -1.55636 0
M  V30 429 C 42.3168 1.31079 -1.93237 0
M  V30 430 C 43.2978 1.50264 -0.797174 0
M  V30 431 O 44.4828 1.62891 -1.05737 0
M  V30 432 C 41.6128 2.66575 -2.22609 0
M  V30 433 C 40.5668 2.62087 -3.3837 0
M  V30 434 C 39.8928 4.01369 -3.53281 0
M  V30 435 C 41.1928 2.19171 -4.7409 0
M  V30 436 H 42.8868 0.998556 -2.82257 0
M  V30 437 H 40.4328 0.47891 -1.35803 0
M  V30 438 H 42.3858 3.41057 -2.47503 0
M  V30 439 H 41.1098 2.99432 -1.30414 0
M  V30 440 H 39.7688 1.90063 -3.13483 0
M  V30 441 H 39.4168 4.31489 -2.58508 0
M  V30 442 H 39.1168 3.99254 -4.31127 0
M  V30 443 H 40.6408 4.77552 -3.80495 0
M  V30 444 H 42.0548 2.83384 -4.98363 0
M  V30 445 H 40.4518 2.2817 -5.5503 0
M  V30 446 H 41.5218 1.14336 -4.71227 0
M  V30 447 N 42.8649 1.48995 0.513639 0
M  V30 448 C 43.7979 1.59319 1.63379 0
M  V30 449 C 44.7759 0.442816 1.56454 0
M  V30 450 O 45.9599 0.656655 1.76693 0
M  V30 451 C 43.0869 1.5364 3.01848 0
M  V30 452 C 42.1329 2.7372 3.27078 0
M  V30 453 S 42.9659 4.35528 3.1157 0
M  V30 454 C 44.1219 4.32473 4.52458 0
M  V30 455 H 44.3549 2.54079 1.54374 0
M  V30 456 H 41.8879 1.3773 0.697849 0
M  V30 457 H 43.8459 1.51049 3.81699 0
M  V30 458 H 42.5069 0.601898 3.08279 0
M  V30 459 H 41.6999 2.6593 4.28132 0
M  V30 460 H 41.3019 2.73657 2.54927 0
M  V30 461 H 43.5939 4.03414 5.44301 0
M  V30 462 H 44.5369 5.33762 4.65299 0
M  V30 463 H 44.9449 3.62718 4.32546 0
M  V30 464 N 44.343 -0.763751 1.37857 0
M  V30 465 C 45.568 -1.55805 1.36893 0
M  V30 466 C 45.993 -1.88054 -0.0416135 0
M  V30 467 O 45.351 -1.49825 -1.02089 0
M  V30 468 C 45.399 -2.84012 2.22192 0
M  V30 469 O 44.503 -3.78732 1.63204 0
M  V30 470 H 43.844 -0.471638 0.46739 0
M  V30 471 H 46.374 -0.944657 1.81487 0
M  V30 472 H 46.384 -3.33037 2.35691 0
M  V30 473 H 45.059 -2.59869 3.24716 0
M  V30 474 H 43.636 -3.37402 1.58791 0
M  V30 475 N 45.8211 -1.22559 -0.990812 0
M  V30 476 C 46.7511 -1.0218 -2.09956 0
M  V30 477 C 47.7321 0.0579394 -1.70001 0
M  V30 478 O 48.9171 -0.104684 -1.93918 0
M  V30 479 C 46.0471 -0.601023 -3.4206 0
M  V30 480 C 45.0011 -1.62694 -3.95872 0
M  V30 481 C 44.3271 -1.06193 -5.24049 0
M  V30 482 C 45.6271 -3.01743 -4.2632 0
M  V30 483 H 47.3211 -1.94916 -2.27262 0
M  V30 484 H 44.8671 -0.938566 -1.09211 0
M  V30 485 H 46.8201 -0.445561 -4.19038 0
M  V30 486 H 45.5441 0.362005 -3.24588 0
M  V30 487 H 44.2031 -1.77021 -3.21028 0
M  V30 488 H 43.8511 -0.0901903 -5.02919 0
M  V30 489 H 43.5511 -1.74732 -5.61019 0
M  V30 490 H 45.0751 -0.918092 -6.03658 0
M  V30 491 H 46.4891 -2.90777 -4.94087 0
M  V30 492 H 44.8861 -3.67425 -4.74467 0
M  V30 493 H 45.9561 -3.51518 -3.34011 0
M  V30 494 N 47.2992 1.18797 -1.03562 0
M  V30 495 C 48.5482 1.87978 -0.731235 0
M  V30 496 C 48.8612 1.80911 0.743671 0
M  V30 497 O 50.0672 2.45407 1.16137 0
M  V30 498 C 48.5232 3.3721 -1.25768 0
M  V30 499 C 48.1312 3.52818 -2.76085 0
M  V30 500 C 49.8752 4.11825 -1.0296 0
M  V30 501 C 47.7822 4.9598 -3.22114 0
M  V30 502 H 46.7122 0.704063 -0.269835 0
M  V30 503 H 49.3632 1.34266 -1.25079 0
M  V30 504 H 47.7452 3.90359 -0.666011 0
M  V30 505 H 48.9192 3.09965 -3.40966 0
M  V30 506 H 47.2342 2.91602 -2.97249 0
M  V30 507 H 49.8312 5.17411 -1.34869 0
M  V30 508 H 50.1742 4.16287 0.0333546 0
M  V30 509 H 50.7072 3.64833 -1.58562 0
M  V30 510 H 47.4462 4.96684 -4.27768 0
M  V30 511 H 46.9662 5.39569 -2.61965 0
M  V30 512 H 48.6452 5.6467 -3.15844 0
M  V30 513 N 48.7773 0.814389 1.34928 0
M  V30 514 C 50.0263 0.394871 1.97797 0
M  V30 515 C 50.3393 -1.04555 1.65311 0
M  V30 516 O 51.5453 -1.56856 2.21604 0
M  V30 517 C 50.0013 0.655103 3.53888 0
M  V30 518 C 49.6093 2.10858 3.95276 0
M  V30 519 C 51.3533 0.301329 4.23429 0
M  V30 520 C 49.2603 2.31415 5.44244 0
M  V30 521 H 48.1903 0.143913 0.740139 0
M  V30 522 H 50.8413 0.999544 1.53888 0
M  V30 523 H 49.2233 -0.0196253 3.95995 0
M  V30 524 H 50.3973 2.82176 3.64298 0
M  V30 525 H 48.7123 2.42297 3.38646 0
M  V30 526 H 51.3093 0.432869 5.32945 0
M  V30 527 H 51.6523 -0.75331 4.09428 0
M  V30 528 H 52.1853 0.930288 3.86769 0
M  V30 529 H 48.9243 3.35353 5.63222 0
M  V30 530 H 48.4443 1.6463 5.76764 0
M  V30 531 H 50.1233 2.13352 6.10811 0
M  V30 532 N 50.2554 -1.46986 0.568584 0
M  V30 533 C 51.2034 -2.31858 -0.185649 0
M  V30 534 C 52.1974 -1.43624 -0.898249 0
M  V30 535 O 53.4034 -1.60327 -0.818242 0
M  V30 536 H 49.7784 -0.747866 -0.0787399 0
M  V30 537 H 51.7494 -2.93303 0.549191 0
M  V30 538 C 50.4984 -3.26513 -1.19519 0
M  V30 539 H 49.8214 -3.94377 -0.656285 0
M  V30 540 H 51.2614 -3.88707 -1.6936 0
M  V30 541 C 49.7204 -2.50847 -2.24894 0
M  V30 542 O 50.2504 -2.26119 -3.32014 0
M  V30 543 N 48.4564 -2.11656 -1.99124 0
M  V30 544 H 48.0034 -2.31966 -1.12024 0
M  V30 545 H 47.9614 -1.61347 -2.69842 0
M  V30 546 N 51.7335 -0.305618 -1.54608 0
M  V30 547 C 52.9615 0.304775 -2.04643 0
M  V30 548 C 53.3765 1.47167 -1.18268 0
M  V30 549 O 52.7335 1.81296 -0.209328 0
M  V30 550 C 52.7845 0.756564 -3.53495 0
M  V30 551 O 52.5055 -0.36389 -4.36586 0
M  V30 552 C 54.0065 1.43163 -4.19546 0
M  V30 553 H 51.2265 0.0655481 -0.667791 0
M  V30 554 H 53.7705 -0.446592 -1.99564 0
M  V30 555 H 51.9255 1.45794 -3.58919 0
M  V30 556 H 52.3395 -0.0113121 -5.24499 0
M  V30 557 H 53.8135 1.69886 -5.25207 0
M  V30 558 H 54.2905 2.37318 -3.69563 0
M  V30 559 H 54.8965 0.773307 -4.18211 0
M  V30 560 N 53.2116 1.57565 -0.0334293 0
M  V30 561 C 54.4586 1.91978 0.644272 0
M  V30 562 C 54.7866 0.910231 1.71887 0
M  V30 563 O 54.0416 -0.0801961 1.95536 0
M  V30 564 C 54.3406 3.33112 1.29504 0
M  V30 565 C 54.0066 4.49537 0.350388 0
M  V30 566 C 52.6686 4.81115 0.0903974 0
M  V30 567 C 55.0206 5.20347 -0.298032 0
M  V30 568 C 52.3486 5.8086 -0.825746 0
M  V30 569 C 54.7006 6.2107 -1.20226 0
M  V30 570 C 53.3646 6.51088 -1.4711 0
M  V30 571 H 52.6346 0.702496 0.235756 0
M  V30 572 H 55.2816 1.91259 -0.0961176 0
M  V30 573 H 53.5866 3.30113 2.11028 0
M  V30 574 H 55.2836 3.57011 1.82603 0
M  V30 575 H 51.8736 4.24883 0.563205 0
M  V30 576 H 56.0576 4.96178 -0.110234 0
M  V30 577 H 51.3136 6.02461 -1.04169 0
M  V30 578 H 55.4876 6.75057 -1.71086 0
M  V30 579 H 53.1146 7.28193 -2.18264 0
M  V30 580 N 54.6897 -0.239769 1.55765 0
M  V30 581 C 55.9197 -0.982743 1.8173 0
M  V30 582 C 56.3277 -1.7917 0.607835 0
M  V30 583 O 55.6707 -1.78525 -0.432973 0
M  V30 584 C 55.7327 -1.96332 3.01155 0
M  V30 585 C 55.3967 -1.34062 4.36894 0
M  V30 586 C 56.3937 -0.739539 5.14613 0
M  V30 587 C 54.0787 -1.35784 4.83599 0
M  V30 588 C 56.0727 -0.163989 6.37189 0
M  V30 589 C 53.7597 -0.778441 6.06122 0
M  V30 590 C 54.7577 -0.182548 6.82756 0
M  V30 591 O 54.4457 0.387887 8.02964 0
M  V30 592 H 54.1777 -0.294481 0.608487 0
M  V30 593 H 56.7317 -0.26572 2.03674 0
M  V30 594 H 54.9617 -2.71884 2.74984 0
M  V30 595 H 56.6507 -2.57032 3.14149 0
M  V30 596 H 57.4167 -0.718687 4.79646 0
M  V30 597 H 53.2957 -1.81105 4.23936 0
M  V30 598 H 56.8397 0.301753 6.96947 0
M  V30 599 H 52.7367 -0.796645 6.40565 0
M  V30 600 H 53.5047 0.28044 8.18019 0
M  V30 601 N 56.1678 -1.49265 -0.50573 0
M  V30 602 C 57.3928 -1.62478 -1.28902 0
M  V30 603 C 57.8178 -0.294332 -1.85783 0
M  V30 604 O 57.1758 0.737412 -1.65626 0
M  V30 605 C 57.2238 -2.69268 -2.39848 0
M  V30 606 O 56.3278 -2.28113 -3.43567 0
M  V30 607 H 55.6688 -0.54399 -0.380751 0
M  V30 608 H 58.1988 -1.95421 -0.605952 0
M  V30 609 H 58.2088 -2.91291 -2.85681 0
M  V30 610 H 56.8838 -3.65846 -1.97812 0
M  V30 611 H 55.4608 -2.16401 -3.03685 0
M  V30 612 N 57.6459 0.756429 -1.3826 0
M  V30 613 C 58.5939 1.89149 -1.35372 0
M  V30 614 C 59.5879 1.67691 -0.24004 0
M  V30 615 O 60.7939 1.75294 -0.408919 0
M  V30 616 H 57.1689 0.622271 -0.422236 0
M  V30 617 H 59.1399 1.88701 -2.31159 0
M  V30 618 C 57.8889 3.26599 -1.19284 0
M  V30 619 H 57.2119 3.43695 -2.0424 0
M  V30 620 H 58.6519 4.06274 -1.21316 0
M  V30 621 C 57.1109 3.3675 0.100454 0
M  V30 622 O 57.6409 3.86951 1.07851 0
M  V30 623 N 55.8469 2.90179 0.15633 0
M  V30 624 H 55.3939 2.49517 -0.640253 0
M  V30 625 H 55.3519 2.97352 1.02123 0
M  V30 626 N 59.124 1.23083 0.984299 0
M  V30 627 C 60.071 1.00854 2.07598 0
M  V30 628 C 61.041 -0.0726709 1.65941 0
M  V30 629 O 62.226 0.0786535 1.90638 0
M  V30 630 C 59.366 0.601645 3.39815 0
M  V30 631 C 58.479 1.75456 3.94765 0
M  V30 632 C 57.614 1.29482 5.15177 0
M  V30 633 C 56.653 2.41873 5.62284 0
M  V30 634 N 55.79 1.96885 6.73929 0
M  V30 635 H 60.63 1.943 2.25946 0
M  V30 636 H 58.167 0.968001 1.10762 0
M  V30 637 H 60.125 0.346854 4.15756 0
M  V30 638 H 58.755 -0.295803 3.21442 0
M  V30 639 H 57.807 2.12346 3.15616 0
M  V30 640 H 59.119 2.59965 4.25699 0
M  V30 641 H 58.273 0.997923 5.98437 0
M  V30 642 H 57.012 0.420046 4.85888 0
M  V30 643 H 56.017 2.72342 4.77608 0
M  V30 644 H 57.242 3.29881 5.93595 0
M  V30 645 H 55.188 1.11782 6.46406 0
M  V30 646 H 55.105 2.74956 7.04227 0
M  V30 647 H 56.373 1.70289 7.60672 0
M  V30 648 N 60.6021 -1.18246 1.0419 0
M  V30 649 C 61.5121 -2.25574 0.644476 0
M  V30 650 C 62.5281 -1.70845 -0.329826 0
M  V30 651 O 63.7041 -2.00554 -0.184443 0
M  V30 652 C 60.7691 -3.46697 0.014877 0
M  V30 653 C 59.8301 -4.16554 1.03834 0
M  V30 654 C 59.0631 -5.31894 0.438692 0
M  V30 655 O 59.2861 -5.65385 -0.754752 0
M  V30 656 O 58.2201 -5.90459 1.168 0
M  V30 657 H 62.0461 -2.61836 1.53869 0
M  V30 658 H 59.6311 -1.25352 0.812854 0
M  V30 659 H 61.5131 -4.20062 -0.335538 0
M  V30 660 H 60.1881 -3.12255 -0.853138 0
M  V30 661 H 59.0951 -3.45251 1.44057 0
M  V30 662 H 60.4281 -4.54998 1.87716 0
M  V30 663 N 62.0802 -0.821533 -1.34494 0
M  V30 664 C 63.3292 -0.405355 -1.97585 0
M  V30 665 C 63.6422 1.03677 -1.65863 0
M  V30 666 O 64.8482 1.55679 -2.22433 0
M  V30 667 C 63.3042 -0.673861 -3.53535 0
M  V30 668 C 62.9122 -2.12951 -3.94152 0
M  V30 669 C 64.6562 -0.32378 -4.23263 0
M  V30 670 C 62.5632 -2.34298 -5.43009 0
M  V30 671 H 61.4932 -0.147836 -0.739365 0
M  V30 672 H 64.1442 -1.00769 -1.53355 0
M  V30 673 H 62.5262 -0.00137554 -3.96 0
M  V30 674 H 63.7002 -2.84104 -3.62797 0
M  V30 675 H 62.0152 -2.44089 -3.37356 0
M  V30 676 H 64.6122 -0.461126 -5.32708 0
M  V30 677 H 64.9552 0.731586 -4.09821 0
M  V30 678 H 65.4882 -0.950786 -3.8627 0
M  V30 679 H 62.2272 -3.38335 -5.61435 0
M  V30 680 H 61.7472 -1.67687 -5.75883 0
M  V30 681 H 63.4262 -2.16588 -6.09671 0
M  V30 682 N 63.5583 1.46682 -0.576371 0
M  V30 683 C 64.8053 2.02412 -0.0595339 0
M  V30 684 C 65.1333 1.44859 1.29793 0
M  V30 685 O 64.3883 0.601099 1.8624 0
M  V30 686 C 64.6873 3.57345 0.062886 0
M  V30 687 C 64.3533 4.33908 -1.22616 0
M  V30 688 C 63.0153 4.54544 -1.57933 0
M  V30 689 C 65.3673 4.77919 -2.07948 0
M  V30 690 C 62.6953 5.16444 -2.78393 0
M  V30 691 C 65.0473 5.41149 -3.27629 0
M  V30 692 C 63.7113 5.60014 -3.63236 0
M  V30 693 H 62.9813 0.74068 -0.021785 0
M  V30 694 H 65.6283 1.76128 -0.751735 0
M  V30 695 H 63.9333 3.82729 0.838178 0
M  V30 696 H 65.6303 3.98136 0.478439 0
M  V30 697 H 62.2203 4.18138 -0.941202 0
M  V30 698 H 66.4043 4.61738 -1.81967 0
M  V30 699 H 61.6603 5.29242 -3.06126 0
M  V30 700 H 65.8343 5.74211 -3.94023 0
M  V30 701 H 63.4613 6.07748 -4.56669 0
M  V30 702 N 65.0364 0.313813 1.54444 0
M  V30 703 C 65.9664 -0.549454 2.26943 0
M  V30 704 C 66.9474 -1.12741 1.27372 0
M  V30 705 O 68.1324 -1.15436 1.56167 0
M  V30 706 C 65.2624 -1.71523 3.01989 0
M  V30 707 C 64.2164 -1.26703 4.08816 0
M  V30 708 C 63.5424 -2.51898 4.71647 0
M  V30 709 C 64.8424 -0.388962 5.2085 0
M  V30 710 H 66.5364 0.0552661 2.99349 0
M  V30 711 H 64.0824 0.0280207 1.43973 0
M  V30 712 H 66.0354 -2.32535 3.51433 0
M  V30 713 H 64.7594 -2.34639 2.27183 0
M  V30 714 H 63.4184 -0.679896 3.6024 0
M  V30 715 H 63.0664 -3.13356 3.93468 0
M  V30 716 H 62.7664 -2.22605 5.43802 0
M  V30 717 H 64.2904 -3.1369 5.23861 0
M  V30 718 H 65.7044 -0.905107 5.6611 0
M  V30 719 H 64.1014 -0.18924 5.99802 0
M  V30 720 H 65.1714 0.582699 4.81386 0
M  V30 721 N 66.5145 -1.57545 0.0417849 0
M  V30 722 C 67.9305 -1.56467 -0.314704 0
M  V30 723 C 68.1305 -1.04859 -1.72066 0
M  V30 724 O 67.1865 -0.700983 -2.42575 0
M  V30 725 C 68.4995 -3.00317 -0.15174 0
M  V30 726 C 70.0475 -3.12201 -0.223553 0
M  V30 727 C 70.5225 -4.57913 -0.0892295 0
M  V30 728 N 72.0135 -4.6297 -0.145808 0
M  V30 729 C 72.7485 -5.73362 -0.0658459 0
M  V30 730 N 72.2445 -6.92769 0.0659282 0
M  V30 731 N 74.0375 -5.6197 -0.12075 0
M  V30 732 H 66.1885 -1.89416 0.961014 0
M  V30 733 H 68.4515 -0.871862 0.372237 0
M  V30 734 H 68.1575 -3.42073 0.817254 0
M  V30 735 H 68.0315 -3.65892 -0.916692 0
M  V30 736 H 70.4185 -2.70349 -1.18301 0
M  V30 737 H 70.4995 -2.49323 0.571994 0
M  V30 738 H 70.1435 -5.00448 0.866867 0
M  V30 739 H 70.0735 -5.18786 -0.903802 0
M  V30 740 H 72.5645 -3.7709 -0.247286 0
M  V30 741 H 72.8775 -7.72707 0.119905 0
M  V30 742 H 71.2225 -6.94927 0.100885 0
M  V30 743 H 74.4135 -4.67572 -0.222187 0
M  V30 744 H 74.5865 -6.47977 -0.0549735 0
M  V30 745 N 67.9926 0.231505 -1.5589 0
M  V30 746 C 68.9026 1.308 -1.94752 0
M  V30 747 C 69.9186 1.51826 -0.849989 0
M  V30 748 O 71.0946 1.6515 -1.15271 0
M  V30 749 C 68.1596 2.63968 -2.24771 0
M  V30 750 C 67.2206 2.51331 -3.48039 0
M  V30 751 C 66.4536 3.78148 -3.76616 0
M  V30 752 O 66.6766 4.80722 -3.07022 0
M  V30 753 O 65.6106 3.75857 -4.70123 0
M  V30 754 H 69.4366 1.0083 -2.86474 0
M  V30 755 H 67.0216 0.433547 -1.42971 0
M  V30 756 H 68.9036 3.42633 -2.45318 0
M  V30 757 H 67.5786 2.9364 -1.36225 0
M  V30 758 H 66.4856 1.709 -3.32782 0
M  V30 759 H 67.8186 2.26601 -4.36936 0
M  V30 760 N 69.4707 1.49531 0.497807 0
M  V30 761 C 70.4007 1.6935 1.60757 0
M  V30 762 C 71.3817 0.542218 1.61227 0
M  V30 763 O 72.5667 0.778417 1.77917 0
M  V30 764 C 69.6967 1.76298 2.99226 0
M  V30 765 C 68.6507 2.91248 3.13622 0
M  V30 766 C 67.9767 2.83312 4.53474 0
M  V30 767 C 69.2767 4.3214 2.93346 0
M  V30 768 H 70.9707 2.62263 1.44425 0
M  V30 769 H 68.5167 1.26208 0.693367 0
M  V30 770 H 70.4697 1.88749 3.76765 0
M  V30 771 H 69.1937 0.799871 3.16654 0
M  V30 772 H 67.8527 2.78404 2.38509 0
M  V30 773 H 67.5007 1.84902 4.67782 0
M  V30 774 H 67.2007 3.60465 4.64046 0
M  V30 775 H 68.7247 2.97775 5.33069 0
M  V30 776 H 70.1387 4.45649 3.60652 0
M  V30 777 H 68.5357 5.1054 3.15387 0
M  V30 778 H 69.6057 4.46363 1.89441 0
M  V30 779 N 70.9488 -0.749086 1.3866 0
M  V30 780 C 72.1978 -1.50371 1.3443 0
M  V30 781 C 72.5108 -1.95503 -0.0616397 0
M  V30 782 O 73.7168 -2.70554 -0.226489 0
M  V30 783 C 72.1728 -2.71644 2.36088 0
M  V30 784 C 71.7808 -2.3352 3.82325 0
M  V30 785 C 73.5248 -3.49518 2.40909 0
M  V30 786 C 71.4318 -3.51431 4.75658 0
M  V30 787 H 70.3618 -0.564628 0.499712 0
M  V30 788 H 73.0128 -0.818449 1.64237 0
M  V30 789 H 71.3948 -3.42175 1.9933 0
M  V30 790 H 72.5688 -1.70627 4.28046 0
M  V30 791 H 70.8838 -1.6877 3.80665 0
M  V30 792 H 73.4808 -4.37197 3.07836 0
M  V30 793 H 73.8238 -3.90992 1.42937 0
M  V30 794 H 74.3568 -2.86005 2.76489 0
M  V30 795 H 71.0958 -3.15019 5.74842 0
M  V30 796 H 70.6158 -4.13352 4.34627 0
M  V30 797 H 72.2948 -4.17953 4.93887 0
M  V30 798 N 72.4269 -1.23603 -0.977757 0
M  V30 799 C 73.6519 -1.09735 -1.75991 0
M  V30 800 C 74.0769 0.346858 -1.84874 0
M  V30 801 O 73.4349 1.25093 -1.3123 0
M  V30 802 C 73.4829 -1.73051 -3.16363 0
M  V30 803 O 72.5869 -0.994452 -4.0023 0
M  V30 804 H 71.9279 -0.384476 -0.541364 0
M  V30 805 H 74.4579 -1.6371 -1.2272 0
M  V30 806 H 74.4679 -1.78398 -3.66931 0
M  V30 807 H 73.1429 -2.78137 -3.09213 0
M  V30 808 H 71.7199 -1.01812 -3.58732 0
M  V30 809 N 73.905 1.17692 -1.04816 0
M  V30 810 C 74.853 2.23632 -0.63966 0
M  V30 811 C 75.847 1.6601 0.337219 0
M  V30 812 O 77.053 1.78844 0.203693 0
M  V30 813 H 73.428 0.727949 -0.188665 0
M  V30 814 H 75.399 2.55387 -1.54337 0
M  V30 815 C 74.148 3.4769 -0.0264051 0
M  V30 816 H 73.471 3.92331 -0.769164 0
M  V30 817 H 74.911 4.23418 0.222098 0
M  V30 818 C 73.37 3.13807 1.22584 0
M  V30 819 O 73.9 3.28236 2.31569 0
M  V30 820 N 72.106 2.68065 1.12202 0
M  V30 821 H 71.653 2.56525 0.235133 0
M  V30 822 H 71.611 2.45767 1.96076 0
M  V30 823 N 75.3831 0.828654 1.34056 0
M  V30 824 C 76.6081 0.431637 2.02859 0
M  V30 825 C 77.0331 -0.956339 1.61975 0
M  V30 826 O 76.3911 -1.62338 0.807228 0
M  V30 827 C 76.4391 0.548323 3.56407 0
M  V30 828 O 75.5431 -0.429556 4.10157 0
M  V30 829 H 74.8841 0.176886 0.640006 0
M  V30 830 H 77.4141 1.12066 1.71179 0
M  V30 831 H 77.4241 0.426196 4.05768 0
M  V30 832 H 76.0991 1.5606 3.8551 0
M  V30 833 H 74.6761 -0.265836 3.71951 0
M  V30 834 N 76.8612 -1.46375 0.584142 0
M  V30 835 C 78.0862 -2.07268 0.0740405 0
M  V30 836 C 78.5112 -1.42979 -1.22223 0
M  V30 837 O 77.8692 -0.514092 -1.73859 0
M  V30 838 C 77.9172 -3.60518 -0.0767769 0
M  V30 839 O 77.0212 -3.96533 -1.13292 0
M  V30 840 H 76.3622 -0.660961 0.0634524 0
M  V30 841 H 78.8922 -1.87991 0.807492 0
M  V30 842 H 78.9022 -4.07021 -0.282489 0
M  V30 843 H 77.5772 -4.06702 0.86986 0
M  V30 844 H 76.1542 -3.61738 -0.905553 0
M  V30 845 N 78.3393 -0.321999 -1.54275 0
M  V30 846 C 79.6163 0.335232 -1.92706 0
M  V30 847 C 79.9963 1.70006 -1.25145 0
M  V30 848 O 79.3443 2.25067 -0.394596 0
M  V30 849 C 79.5543 0.429008 -3.46353 0
M  V30 850 C 80.9023 0.690029 -4.18956 0
M  V30 851 O 81.9263 0.511992 -3.52501 0
M  V30 852 O 80.7853 1.03338 -5.36641 0
M  V30 853 H 77.8793 0.191143 -0.804608 0
M  V30 854 H 80.4253 -0.3716 -1.65581 0
M  V30 855 H 79.1973 -0.529611 -3.87699 0
M  V30 856 H 78.8203 1.18348 -3.79578 0
M  V30 857 N 79.8174 1.5752 -0.0501392 0
M  V30 858 C 80.7804 2.1037 0.909786 0
M  V30 859 C 81.7804 1.02308 1.24056 0
M  V30 860 O 82.9704 1.28385 1.17741 0
M  V30 861 C 80.1024 2.58708 2.21998 0
M  V30 862 H 81.2954 2.96479 0.451665 0
M  V30 863 H 78.8484 1.55038 0.198248 0
M  V30 864 H 79.5834 1.75989 2.72394 0
M  V30 865 H 79.3684 3.37675 1.99295 0
M  V30 866 H 80.8584 2.99747 2.9076 0
M  V30 867 N 81.2955 -0.223234 1.56011 0
M  V30 868 C 82.2255 -1.27988 1.95298 0
M  V30 869 C 83.2065 -1.48976 0.820979 0
M  V30 870 O 84.3915 -1.61188 1.08315 0
M  V30 871 C 81.5215 -2.63 2.26822 0
M  V30 872 C 80.4755 -2.56671 3.42497 0
M  V30 873 C 79.8015 -3.95697 3.59622 0
M  V30 874 C 81.1015 -2.11601 4.77517 0
M  V30 875 H 82.7955 -0.953525 2.8381 0
M  V30 876 H 80.3415 -0.457244 1.36548 0
M  V30 877 H 82.2945 -3.37077 2.52898 0
M  V30 878 H 81.0185 -2.9732 1.35161 0
M  V30 879 H 79.6775 -1.85051 3.16467 0
M  V30 880 H 79.3255 -4.27322 2.6534 0
M  V30 881 H 79.0255 -3.92345 4.37424 0
M  V30 882 H 80.5495 -4.71438 3.88044 0
M  V30 883 H 81.9635 -2.7542 5.02809 0
M  V30 884 H 80.3605 -2.19311 5.5859 0
M  V30 885 H 81.4305 -1.06824 4.72987 0
M  V30 886 N 82.7736 -1.49793 -0.48987 0
M  V30 887 C 84.0506 -1.50348 -1.25119 0
M  V30 888 C 84.4306 -0.237466 -2.0976 0
M  V30 889 O 83.7786 0.77981 -2.14782 0
M  V30 890 C 83.9886 -2.78872 -2.09837 0
M  V30 891 C 85.3366 -3.288 -2.68655 0
M  V30 892 O 86.3606 -2.80065 -2.20096 0
M  V30 893 O 85.2196 -4.13707 -3.57083 0
M  V30 894 H 82.3136 -0.602242 -0.566775 0
M  V30 895 H 84.8596 -1.62067 -0.503229 0
M  V30 896 H 83.6316 -3.62499 -1.47343 0
M  V30 897 H 83.2546 -2.70066 -2.91805 0
M  V30 898 N 84.2517 0.741722 -1.39055 0
M  V30 899 C 85.1987 1.85566 -1.37237 0
M  V30 900 C 86.1687 1.64457 -0.233072 0
M  V30 901 O 87.3537 1.85957 -0.427147 0
M  V30 902 C 84.4937 3.23004 -1.215 0
M  V30 903 C 83.6067 3.55864 -2.44918 0
M  V30 904 C 82.7417 4.82669 -2.21821 0
M  V30 905 C 81.7807 5.08351 -3.40948 0
M  V30 906 N 80.9177 6.26356 -3.17211 0
M  V30 907 H 85.7577 1.86455 -2.32462 0
M  V30 908 H 83.2947 0.911176 -1.15482 0
M  V30 909 H 85.2527 4.02331 -1.10389 0
M  V30 910 H 83.8827 3.21411 -0.29908 0
M  V30 911 H 82.9347 2.7129 -2.66657 0
M  V30 912 H 84.2467 3.70765 -3.33668 0
M  V30 913 H 83.4007 5.69962 -2.07914 0
M  V30 914 H 82.1397 4.69929 -1.30454 0
M  V30 915 H 81.1447 4.19522 -3.55361 0
M  V30 916 H 82.3697 5.22981 -4.33207 0
M  V30 917 H 80.3157 6.14917 -2.28502 0
M  V30 918 H 80.2327 6.41813 -3.99515 0
M  V30 919 H 81.5007 7.16506 -3.06984 0
M  V30 920 N 85.7298 1.2412 0.971189 0
M  V30 921 C 86.9788 1.07284 1.70801 0
M  V30 922 C 87.2918 -0.388902 1.91695 0
M  V30 923 O 88.4978 -0.677379 2.62914 0
M  V30 924 C 86.9538 1.87145 3.07416 0
M  V30 925 C 86.5618 3.37707 2.94377 0
M  V30 926 C 88.3058 1.78828 3.84995 0
M  V30 927 C 86.2128 4.09925 4.26281 0
M  V30 928 H 85.1428 0.397854 0.64049 0
M  V30 929 H 87.7938 1.4817 1.0825 0
M  V30 930 H 86.1758 1.39071 3.70777 0
M  V30 931 H 87.3498 3.93335 2.4005 0
M  V30 932 H 85.6648 3.46938 2.30267 0
M  V30 933 H 88.2618 2.30089 4.82662 0
M  V30 934 H 88.6048 0.75284 4.09436 0
M  V30 935 H 89.1378 2.24563 3.28354 0
M  V30 936 H 85.8768 5.13813 4.07033 0
M  V30 937 H 85.3968 3.59083 4.80437 0
M  V30 938 H 87.0758 4.1673 4.94919 0
M  V30 939 N 87.2079 -1.17134 1.05439 0
M  V30 940 C 88.6239 -1.39454 0.776201 0
M  V30 941 C 88.8239 -1.91454 -0.628307 0
M  V30 942 O 87.8799 -2.10777 -1.39031 0
M  V30 943 C 89.1929 -2.38305 1.83388 0
M  V30 944 C 90.7409 -2.52006 1.85639 0
M  V30 945 C 91.2159 -3.54133 2.90437 0
M  V30 946 N 92.7069 -3.61653 2.89415 0
M  V30 947 C 93.4419 -4.4044 3.67152 0
M  V30 948 N 92.9379 -5.22721 4.54681 0
M  V30 949 N 94.7309 -4.35337 3.55581 0
M  V30 950 H 86.8819 -0.817134 1.96053 0
M  V30 951 H 89.1449 -0.421626 0.849079 0
M  V30 952 H 88.8509 -2.07173 2.84204 0
M  V30 953 H 88.7249 -3.37841 1.67761 0
M  V30 954 H 91.1119 -2.82447 0.85486 0
M  V30 955 H 91.1929 -1.52537 2.05344 0
M  V30 956 H 90.8369 -3.24431 3.90777 0
M  V30 957 H 90.7669 -4.53313 2.67983 0
M  V30 958 H 93.2579 -3.02909 2.25952 0
M  V30 959 H 93.5709 -5.80027 5.10674 0
M  V30 960 H 91.9159 -5.22093 4.58741 0
M  V30 961 H 95.1069 -3.70112 2.86592 0
M  V30 962 H 95.2799 -4.96494 4.1641 0
M  V30 963 N 88.686 -0.835752 -1.33615 0
M  V30 964 C 89.916 -0.442701 -2.01801 0
M  V30 965 C 90.324 0.959807 -1.63047 0
M  V30 966 O 89.667 1.63468 -0.838088 0
M  V30 967 C 89.729 -0.480125 -3.56279 0
M  V30 968 C 89.393 -1.8382 -4.18401 0
M  V30 969 C 90.39 -2.80097 -4.37998 0
M  V30 970 C 88.075 -2.13019 -4.54894 0
M  V30 971 C 90.069 -4.03736 -4.9323 0
M  V30 972 C 87.756 -3.36916 -5.09834 0
M  V30 973 C 88.754 -4.32091 -5.28948 0
M  V30 974 O 88.442 -5.53797 -5.82721 0
M  V30 975 H 88.174 -0.17441 -0.653114 0
M  V30 976 H 90.728 -1.129 -1.71589 0
M  V30 977 H 88.958 0.262931 -3.85805 0
M  V30 978 H 90.647 -0.105335 -4.05763 0
M  V30 979 H 91.413 -2.58838 -4.10156 0
M  V30 980 H 87.292 -1.39733 -4.39313 0
M  V30 981 H 90.836 -4.78034 -5.08064 0
M  V30 982 H 86.733 -3.58033 -5.37106 0
M  V30 983 H 87.501 -5.55494 -6.0114 0
M  V30 984 N 90.1641 1.46063 -0.591896 0
M  V30 985 C 91.0741 2.34192 0.13831 0
M  V30 986 C 92.0901 1.50305 0.876608 0
M  V30 987 O 93.2661 1.8315 0.837728 0
M  V30 988 C 90.3311 3.27656 1.13326 0
M  V30 989 C 89.3921 4.27445 0.39863 0
M  V30 990 C 88.6251 5.16443 1.34618 0
M  V30 991 O 88.8481 5.08553 2.58321 0
M  V30 992 O 87.7821 5.95843 0.851768 0
M  V30 993 H 91.6081 2.98002 -0.58552 0
M  V30 994 H 89.1931 1.45188 -0.352239 0
M  V30 995 H 91.0751 3.85291 1.70671 0
M  V30 996 H 89.7501 2.6643 1.83839 0
M  V30 997 H 88.6571 3.73471 -0.216895 0
M  V30 998 H 89.9901 4.91482 -0.265709 0
M  V30 999 N 91.6422 0.330177 1.54103 0
M  V30 1000 C 92.8672 -0.274893 2.0557 0
M  V30 1001 C 93.2922 -1.44487 1.20437 0
M  V30 1002 O 92.6502 -1.80021 0.214991 0
M  V30 1003 C 92.6982 -0.68079 3.54115 0
M  V30 1004 O 91.8022 -1.7824 3.71893 0
M  V30 1005 H 91.1432 -0.0483849 0.662235 0
M  V30 1006 H 93.6732 0.480508 1.98878 0
M  V30 1007 H 93.6832 -0.961635 3.96505 0
M  V30 1008 H 92.3582 0.174903 4.15532 0
M  V30 1009 H 90.9352 -1.49985 3.41407 0
M  V30 1010 N 93.1203 -1.57491 0.0584922 0
M  V30 1011 C 94.0503 -2.14988 -0.911178 0
M  V30 1012 C 95.0313 -1.07343 -1.31952 0
M  V30 1013 O 96.2163 -1.35318 -1.39294 0
M  V30 1014 C 93.3463 -2.70078 -2.18347 0
M  V30 1015 C 92.3003 -3.82771 -1.91495 0
M  V30 1016 C 91.6263 -4.24408 -3.25241 0
M  V30 1017 C 92.9263 -5.07592 -1.23075 0
M  V30 1018 H 94.6203 -2.96263 -0.432246 0
M  V30 1019 H 92.1663 -1.42512 -0.206469 0
M  V30 1020 H 94.1193 -3.08943 -2.86587 0
M  V30 1021 H 92.8433 -1.86005 -2.68458 0
M  V30 1022 H 91.5023 -3.44389 -1.25664 0
M  V30 1023 H 91.1503 -3.37275 -3.73168 0
M  V30 1024 H 90.8503 -5.00366 -3.08071 0
M  V30 1025 H 92.3743 -4.65879 -3.94701 0
M  V30 1026 H 93.7883 -5.43857 -1.81362 0
M  V30 1027 H 92.1853 -5.88741 -1.16207 0
M  V30 1028 H 93.2553 -4.84454 -0.207847 0
M  V30 1029 N 94.5984 0.214957 -1.56127 0
M  V30 1030 C 95.8264 0.955092 -1.83536 0
M  V30 1031 C 96.2414 1.77677 -0.638472 0
M  V30 1032 O 95.5984 1.78219 0.392968 0
M  V30 1033 C 95.6494 1.86734 -3.09536 0
M  V30 1034 O 95.3704 1.07887 -4.24608 0
M  V30 1035 C 96.8714 2.72082 -3.4998 0
M  V30 1036 H 94.0914 0.279611 -0.609966 0
M  V30 1037 H 96.6354 0.228197 -2.03223 0
M  V30 1038 H 94.7904 2.5481 -2.91806 0
M  V30 1039 H 95.2044 1.69872 -4.9623 0
M  V30 1040 H 96.6784 3.31782 -4.41163 0
M  V30 1041 H 97.1554 3.44806 -2.7204 0
M  V30 1042 H 97.7614 2.09409 -3.70173 0
M  V30 1043 N 96.0765 1.50051 0.48192 0
M  V30 1044 C 97.3535 1.51009 1.2432 0
M  V30 1045 C 97.7335 0.248587 2.09631 0
M  V30 1046 O 97.0815 -0.768409 2.15192 0
M  V30 1047 C 97.2915 2.79981 2.08355 0
M  V30 1048 C 98.6395 3.3022 2.66908 0
M  V30 1049 O 99.6635 2.81228 2.18607 0
M  V30 1050 O 98.5225 4.15595 3.54884 0
M  V30 1051 H 95.6165 0.605239 0.563573 0
M  V30 1052 H 98.1625 1.62332 0.494627 0
M  V30 1053 H 96.9345 3.63275 1.45419 0
M  V30 1054 H 96.5575 2.7161 2.90368 0
M  V30 1055 N 97.5546 -0.734337 1.39446 0
M  V30 1056 C 98.9656 -1.31264 1.32766 0
M  V30 1057 C 99.3166 -1.96198 -0.00767497 0
M  V30 1058 O 98.4416 -1.96346 -0.909796 0
M  V30 1059 C 99.0366 -2.38682 2.4045 0
M  V30 1060 C 97.5956 -2.92184 2.37288 0
M  V30 1061 C 96.7426 -1.6576 2.22304 0
M  V30 1062 H 99.6936 -0.531799 1.49525 0
M  V30 1063 H 99.7146 -3.19087 2.07276 0
M  V30 1064 H 99.2266 -1.91392 3.37625 0
M  V30 1065 H 97.3276 -3.43752 1.43754 0
M  V30 1066 H 97.4406 -3.45253 3.3217 0
M  V30 1067 H 95.8046 -1.9012 1.69489 0
M  V30 1068 H 96.5876 -1.20521 3.21449 0
M  V30 1069 N 99.0327 -1.24633 -0.964593 0
M  V30 1070 C 100.258 -1.11596 -1.74818 0
M  V30 1071 C 100.683 0.32723 -1.85232 0
M  V30 1072 O 100.041 1.23695 -1.32549 0
M  V30 1073 C 100.089 -1.76397 -3.1451 0
M  V30 1074 O 99.1927 -1.03685 -3.99153 0
M  V30 1075 H 98.5337 -0.390196 -0.537255 0
M  V30 1076 H 101.064 -1.65002 -1.20977 0
M  V30 1077 H 101.074 -1.8228 -3.65018 0
M  V30 1078 H 99.7487 -2.81401 -3.06246 0
M  V30 1079 H 98.3257 -1.05611 -3.57632 0
M  V30 1080 N 100.511 1.16574 -1.06058 0
M  V30 1081 C 101.458 2.20883 -0.669263 0
M  V30 1082 C 102.428 1.62729 0.332918 0
M  V30 1083 O 103.613 1.895 0.222346 0
M  V30 1084 C 100.753 3.45049 -0.0593572 0
M  V30 1085 C 99.8658 4.17458 -1.11143 0
M  V30 1086 C 99.0008 5.29135 -0.467916 0
M  V30 1087 C 98.0398 5.93343 -1.50369 0
M  V30 1088 N 97.1768 6.96516 -0.883706 0
M  V30 1089 H 102.017 2.53709 -1.5632 0
M  V30 1090 H 99.5538 1.24616 -0.781625 0
M  V30 1091 H 101.512 4.16033 0.311771 0
M  V30 1092 H 100.142 3.12781 0.797992 0
M  V30 1093 H 99.1938 3.45101 -1.60029 0
M  V30 1094 H 100.506 4.61307 -1.89731 0
M  V30 1095 H 99.6598 6.06684 -0.0436871 0
M  V30 1096 H 98.3988 4.86443 0.349864 0
M  V30 1097 H 97.4038 5.14517 -1.93784 0
M  V30 1098 H 98.6288 6.38114 -2.32352 0
M  V30 1099 H 96.5748 6.55943 -0.086595 0
M  V30 1100 H 96.4918 7.38723 -1.607 0
M  V30 1101 H 97.7598 7.77993 -0.484543 0
M  V30 1102 N 101.989 0.842826 1.3317 0
M  V30 1103 C 102.919 0.294028 2.31641 0
M  V30 1104 C 103.9 -0.600401 1.59151 0
M  V30 1105 O 105.085 -0.523124 1.87022 0
M  V30 1106 C 102.215 -0.528416 3.43257 0
M  V30 1107 C 101.169 0.27056 4.27144 0
M  V30 1108 C 100.495 -0.675881 5.30411 0
M  V30 1109 C 101.795 1.48981 5.00602 0
M  V30 1110 H 103.489 1.11681 2.77791 0
M  V30 1111 H 101.035 0.538478 1.33553 0
M  V30 1112 H 102.988 -0.922674 4.11175 0
M  V30 1113 H 101.712 -1.38445 2.95805 0
M  V30 1114 H 100.371 0.646427 3.60856 0
M  V30 1115 H 100.019 -1.52842 4.79216 0
M  V30 1116 H 99.7189 -0.145374 5.8742 0
M  V30 1117 H 101.243 -1.06757 6.01195 0
M  V30 1118 H 102.657 1.16849 5.61266 0
M  V30 1119 H 101.054 1.95739 5.6728 0
M  V30 1120 H 102.124 2.25746 4.29147 0
M  V30 1121 N 103.467 -1.45747 0.599634 0
M  V30 1122 C 104.744 -1.95585 0.0240846 0
M  V30 1123 C 105.124 -1.54217 -1.44154 0
M  V30 1124 O 104.472 -0.800903 -2.14004 0
M  V30 1125 C 104.682 -3.48344 0.21385 0
M  V30 1126 C 106.03 -4.24504 0.0904902 0
M  V30 1127 O 107.054 -3.55911 0.143558 0
M  V30 1128 O 105.913 -5.46491 -0.0310766 0
M  V30 1129 H 103.007 -0.82602 -0.0402478 0
M  V30 1130 H 105.553 -1.55951 0.669139 0
M  V30 1131 H 104.325 -3.71397 1.23206 0
M  V30 1132 H 103.948 -3.9485 -0.466842 0
M  V30 1133 N 104.945 -0.338344 -1.53925 0
M  V30 1134 C 106.17 0.263987 -2.05713 0
M  V30 1135 C 106.595 1.43847 -1.21201 0
M  V30 1136 O 105.953 1.79904 -0.224535 0
M  V30 1137 C 106.001 0.662 -3.54471 0
M  V30 1138 O 105.105 1.76265 -3.72833 0
M  V30 1139 H 104.446 0.0448722 -0.662482 0
M  V30 1140 H 106.976 -0.491048 -1.9862 0
M  V30 1141 H 106.986 0.940594 -3.9701 0
M  V30 1142 H 105.661 -0.196937 -4.15433 0
M  V30 1143 H 104.238 1.48173 -3.42198 0
M  V30 1144 N 106.423 1.57458 -0.0668435 0
M  V30 1145 C 107.671 1.92919 0.602214 0
M  V30 1146 C 107.992 0.947215 1.70449 0
M  V30 1147 O 107.262 -0.00544117 1.95899 0
M  V30 1148 H 105.842 0.71217 0.22544 0
M  V30 1149 H 108.504 1.94508 -0.123535 0
M  V30 1150 H 107.6 2.94589 1.03073 0
M  V30 1151 N 107.901 -0.206675 1.56239 0
M  V30 1152 C 108.848 -1.25617 1.93621 0
M  V30 1153 C 109.818 -1.45824 0.795274 0
M  V30 1154 O 111.003 -1.59148 1.05245 0
M  V30 1155 C 108.143 -2.59839 2.27107 0
M  V30 1156 C 107.256 -2.47308 3.54207 0
M  V30 1157 C 106.391 -3.74155 3.7707 0
M  V30 1158 C 105.43 -3.56407 4.97635 0
M  V30 1159 N 104.567 -4.75238 5.1681 0
M  V30 1160 H 109.407 -0.930383 2.83104 0
M  V30 1161 H 106.944 -0.448065 1.4011 0
M  V30 1162 H 108.902 -3.38021 2.44535 0
M  V30 1163 H 107.532 -2.90485 1.40778 0
M  V30 1164 H 106.584 -1.60483 3.4489 0
M  V30 1165 H 107.896 -2.30122 4.42544 0
M  V30 1166 H 107.05 -4.60778 3.94675 0
M  V30 1167 H 105.789 -3.94282 2.87042 0
M  V30 1168 H 104.794 -2.68168 4.79964 0
M  V30 1169 H 106.019 -3.37736 5.89161 0
M  V30 1170 H 103.965 -4.95651 4.29728 0
M  V30 1171 H 103.882 -4.60835 5.99306 0
M  V30 1172 H 105.15 -5.63246 5.38864 0
M  V30 1173 N 109.379 -1.50304 -0.473955 0
M  V30 1174 C 110.289 -1.7174 -1.5982 0
M  V30 1175 C 111.305 -0.600457 -1.63311 0
M  V30 1176 O 112.481 -0.878441 -1.81233 0
M  V30 1177 C 109.546 -1.80427 -2.96052 0
M  V30 1178 C 108.607 -3.04148 -3.02972 0
M  V30 1179 C 107.84 -3.12411 -4.32706 0
M  V30 1180 O 108.063 -2.27542 -5.23049 0
M  V30 1181 O 106.997 -4.05113 -4.45159 0
M  V30 1182 H 110.823 -2.67035 -1.44657 0
M  V30 1183 H 108.408 -1.34366 -0.653148 0
M  V30 1184 H 110.29 -1.88338 -3.7697 0
M  V30 1185 H 108.965 -0.883156 -3.11419 0
M  V30 1186 H 107.872 -3.0174 -2.21142 0
M  V30 1187 H 109.205 -3.95829 -2.92541 0
M  V30 1188 N 110.857 0.726932 -1.39834 0
M  V30 1189 C 111.787 1.85405 -1.41941 0
M  V30 1190 C 112.768 1.67751 -0.281728 0
M  V30 1191 O 113.953 1.8795 -0.488717 0
M  V30 1192 C 111.083 3.23243 -1.2701 0
M  V30 1193 C 110.037 3.55549 -2.38262 0
M  V30 1194 C 109.363 4.9241 -2.08415 0
M  V30 1195 C 110.663 3.577 -3.80589 0
M  V30 1196 H 112.357 1.83899 -2.36266 0
M  V30 1197 H 109.903 0.883349 -1.13723 0
M  V30 1198 H 111.856 4.01775 -1.27103 0
M  V30 1199 H 110.58 3.25296 -0.291564 0
M  V30 1200 H 109.239 2.79351 -2.37399 0
M  V30 1201 H 108.887 4.91052 -1.0898 0
M  V30 1202 H 108.587 5.14992 -2.82943 0
M  V30 1203 H 110.111 5.73289 -2.10171 0
M  V30 1204 H 111.525 4.26293 -3.83337 0
M  V30 1205 H 109.922 3.91804 -4.54543 0
M  V30 1206 H 110.992 2.57328 -4.10987 0
M  V30 1207 N 112.336 1.25143 0.95797 0
M  V30 1208 C 113.286 1.01924 2.0395 0
M  V30 1209 C 114.27 -0.0427175 1.60843 0
M  V30 1210 O 115.462 0.17221 1.7616 0
M  V30 1211 C 112.591 0.636373 3.3735 0
M  V30 1212 C 111.677 1.73492 3.8699 0
M  V30 1213 N 112.068 2.96945 4.0946 0
M  V30 1214 C 110.366 1.61467 4.15746 0
M  V30 1215 C 111.067 3.68228 4.50315 0
M  V30 1216 N 110.043 2.95833 4.56053 0
M  V30 1217 H 113.845 1.95653 2.19311 0
M  V30 1218 H 111.359 1.15413 1.14253 0
M  V30 1219 H 113.356 0.451233 4.14451 0
M  V30 1220 H 112.016 -0.293621 3.2337 0
M  V30 1221 H 113.027 3.33025 3.96629 0
M  V30 1222 H 109.704 0.753394 4.10646 0
M  V30 1223 H 111.094 4.74178 4.76031 0
M  V30 1224 N 113.814 -1.1601 1.06675 0
M  V30 1225 C 115.063 -1.85973 0.780818 0
M  V30 1226 C 115.376 -1.82819 -0.695444 0
M  V30 1227 O 116.582 -2.484 -1.09589 0
M  V30 1228 C 115.038 -3.33757 1.34665 0
M  V30 1229 C 114.646 -3.45374 2.85343 0
M  V30 1230 C 116.39 -4.0895 1.13843 0
M  V30 1231 C 114.297 -4.87266 3.35151 0
M  V30 1232 H 113.227 -0.696661 0.288407 0
M  V30 1233 H 115.878 -1.30903 1.28595 0
M  V30 1234 H 114.26 -3.88456 0.769274 0
M  V30 1235 H 115.434 -3.00816 3.49065 0
M  V30 1236 H 113.749 -2.83619 3.04876 0
M  V30 1237 H 116.346 -5.13654 1.4854 0
M  V30 1238 H 116.689 -4.16229 0.0770282 0
M  V30 1239 H 117.222 -3.605 1.68179 0
M  V30 1240 H 113.961 -4.85168 4.40786 0
M  V30 1241 H 113.481 -5.32433 2.76179 0
M  V30 1242 H 115.16 -5.56097 3.30704 0
M  V30 1243 N 115.292 -0.849877 -1.32721 0
M  V30 1244 C 116.24 -0.279745 -2.30912 0
M  V30 1245 C 117.234 0.594278 -1.58634 0
M  V30 1246 O 118.44 0.482613 -1.73409 0
M  V30 1247 H 114.815 -0.0717521 -0.748569 0
M  V30 1248 H 116.786 -1.12222 -2.76494 0
M  V30 1249 C 115.535 0.521108 -3.43773 0
M  V30 1250 H 114.858 -0.142141 -3.99547 0
M  V30 1251 H 116.298 0.885693 -4.14646 0
M  V30 1252 C 114.757 1.70442 -2.90605 0
M  V30 1253 O 115.287 2.8034 -2.87702 0
M  V30 1254 N 113.493 1.52991 -2.47067 0
M  V30 1255 H 113.04 0.635914 -2.49628 0
M  V30 1256 H 112.998 2.32311 -2.11847 0
M  V30 1257 N 116.77 1.45427 -0.607355 0
M  V30 1258 C 117.7 2.3329 0.0989352 0
M  V30 1259 C 118.681 1.46816 0.859007 0
M  V30 1260 O 119.866 1.75588 0.829604 0
M  V30 1261 C 116.996 3.29518 1.09705 0
M  V30 1262 C 115.95 4.25626 0.450206 0
M  V30 1263 C 115.276 5.11542 1.55655 0
M  V30 1264 C 116.576 5.18505 -0.628455 0
M  V30 1265 H 118.27 2.92595 -0.634716 0
M  V30 1266 H 115.816 1.40696 -0.306681 0
M  V30 1267 H 117.769 3.89855 1.59971 0
M  V30 1268 H 116.493 2.68372 1.86129 0
M  V30 1269 H 115.152 3.66586 -0.0315886 0
M  V30 1270 H 114.8 4.46765 2.31107 0
M  V30 1271 H 114.5 5.76647 1.12925 0
M  V30 1272 H 116.024 5.74748 2.06148 0
M  V30 1273 H 117.438 5.72916 -0.209877 0
M  V30 1274 H 115.835 5.92085 -0.977489 0
M  V30 1275 H 116.905 4.60948 -1.50514 0
M  V30 1276 N 118.248 0.346503 1.53744 0
M  V30 1277 C 119.497 -0.250122 2.00143 0
M  V30 1278 C 119.81 -1.51418 1.23822 0
M  V30 1279 O 121.016 -2.18823 1.60713 0
M  V30 1280 C 119.472 -0.496252 3.56462 0
M  V30 1281 C 119.08 0.752077 4.41642 0
M  V30 1282 C 120.824 -1.05157 4.11269 0
M  V30 1283 C 118.731 0.476583 5.89477 0
M  V30 1284 H 117.661 -0.0972409 0.747703 0
M  V30 1285 H 120.312 0.46229 1.77581 0
M  V30 1286 H 118.694 -1.26944 3.75102 0
M  V30 1287 H 119.868 1.5266 4.34778 0
M  V30 1288 H 118.183 1.22925 3.97842 0
M  V30 1289 H 120.78 -1.27269 5.19333 0
M  V30 1290 H 121.123 -2.00799 3.64672 0
M  V30 1291 H 121.656 -0.339019 3.96353 0
M  V30 1292 H 118.395 1.4028 6.40314 0
M  V30 1293 H 117.915 -0.259794 5.99237 0
M  V30 1294 H 119.594 0.0949315 6.4693 0
M  V30 1295 N 119.726 -1.57421 0.075193 0
M  V30 1296 C 121.137 -1.81021 -0.456964 0
M  V30 1297 C 121.488 -0.98936 -1.69429 0
M  V30 1298 O 120.613 -0.212865 -2.15351 0
M  V30 1299 C 121.208 -3.28329 -0.83581 0
M  V30 1300 C 119.767 -3.52764 -1.31281 0
M  V30 1301 C 118.914 -2.75676 -0.299648 0
M  V30 1302 H 121.865 -1.55822 0.300856 0
M  V30 1303 H 121.886 -3.40564 -1.69696 0
M  V30 1304 H 121.398 -3.88046 0.0649238 0
M  V30 1305 H 119.499 -2.98355 -2.23193 0
M  V30 1306 H 119.612 -4.61451 -1.28839 0
M  V30 1307 H 117.976 -2.42538 -0.777641 0
M  V30 1308 H 118.759 -3.38132 0.593417 0
M  V30 1309 N 121.204 0.198386 -1.56346 0
M  V30 1310 C 122.152 1.26538 -1.95169 0
M  V30 1311 C 123.146 1.47295 -0.836685 0
M  V30 1312 O 124.352 1.48195 -1.02167 0
M  V30 1313 H 120.727 0.424744 -0.620561 0
M  V30 1314 H 122.698 0.910904 -2.84157 0
M  V30 1315 C 121.447 2.6035 -2.30463 0
M  V30 1316 H 120.77 2.45192 -3.15786 0
M  V30 1317 H 122.21 3.33762 -2.61494 0
M  V30 1318 C 120.669 3.17096 -1.13806 0
M  V30 1319 O 121.199 3.99588 -0.41135 0
M  V30 1320 N 119.405 2.75795 -0.915736 0
M  V30 1321 H 118.952 2.08816 -1.50843 0
M  V30 1322 H 118.91 3.14101 -0.136979 0
M  V30 1323 N 122.682 1.50554 0.465978 0
M  V30 1324 C 123.629 1.6979 1.56333 0
M  V30 1325 C 124.599 0.539239 1.57103 0
M  V30 1326 O 125.784 0.770401 1.74555 0
M  V30 1327 C 122.924 1.80273 2.94271 0
M  V30 1328 C 122.037 3.07674 3.0325 0
M  V30 1329 C 121.172 3.08922 4.32135 0
M  V30 1330 C 120.211 4.30755 4.34875 0
M  V30 1331 N 119.348 4.29714 5.55239 0
M  V30 1332 H 124.188 2.63472 1.39235 0
M  V30 1333 H 121.725 1.30602 0.676873 0
M  V30 1334 H 123.683 1.84332 3.74269 0
M  V30 1335 H 122.313 0.900258 3.09992 0
M  V30 1336 H 121.365 3.13062 2.16094 0
M  V30 1337 H 122.677 3.97642 3.01135 0
M  V30 1338 H 121.831 3.11738 5.20485 0
M  V30 1339 H 120.57 2.16792 4.36866 0
M  V30 1340 H 119.575 4.28146 3.44922 0
M  V30 1341 H 120.8 5.24117 4.31831 0
M  V30 1342 H 118.746 3.4044 5.60746 0
M  V30 1343 H 118.663 5.13456 5.54886 0
M  V30 1344 H 119.931 4.36683 6.457 0
M  V30 1345 N 124.16 -0.719506 1.40217 0
M  V30 1346 C 125.092 -1.84428 1.36084 0
M  V30 1347 C 126.105 -1.60597 0.266913 0
M  V30 1348 O 127.294 -1.70544 0.526983 0
M  V30 1349 C 124.394 -3.20757 1.094 0
M  V30 1350 C 123.567 -3.71817 2.30372 0
M  V30 1351 C 122.626 -4.86748 1.99907 0
M  V30 1352 O 121.652 -4.99603 2.72737 0
M  V30 1353 N 122.854 -5.7226 0.974635 0
M  V30 1354 H 125.619 -1.88473 2.33019 0
M  V30 1355 H 123.18 -0.900885 1.3452 0
M  V30 1356 H 125.172 -3.95235 0.870116 0
M  V30 1357 H 123.742 -3.11884 0.211452 0
M  V30 1358 H 122.962 -2.88514 2.68614 0
M  V30 1359 H 124.25 -4.02666 3.11026 0
M  V30 1360 H 123.648 -5.6448 0.371368 0
M  V30 1361 H 122.205 -6.46739 0.810656 0
M  V30 1362 N 125.638 -1.25649 -0.95132 0
M  V30 1363 C 126.915 -1.01361 -1.67288 0
M  V30 1364 C 127.295 0.459135 -2.06046 0
M  V30 1365 O 126.643 1.43723 -1.7764 0
M  V30 1366 C 126.853 -1.95256 -2.89268 0
M  V30 1367 C 128.201 -2.23289 -3.61147 0
M  V30 1368 O 129.225 -1.93041 -2.99355 0
M  V30 1369 O 128.084 -2.74741 -4.72419 0
M  V30 1370 H 125.178 -0.38464 -0.732107 0
M  V30 1371 H 127.724 -1.36817 -1.00395 0
M  V30 1372 H 126.496 -2.94685 -2.57442 0
M  V30 1373 H 126.119 -1.60218 -3.6389 0
M  V30 1374 N 127.117 1.15442 -1.07289 0
M  V30 1375 C 128.533 1.38201 -0.798288 0
M  V30 1376 C 128.733 1.92429 0.597769 0
M  V30 1377 O 127.789 2.12962 1.3566 0
M  V30 1378 C 129.102 2.35357 -1.87156 0
M  V30 1379 C 130.65 2.49021 -1.89624 0
M  V30 1380 C 131.125 3.49468 -2.96034 0
M  V30 1381 N 132.616 3.57003 -2.95132 0
M  V30 1382 C 133.351 4.34543 -3.74112 0
M  V30 1383 N 132.847 5.15421 -4.6294 0
M  V30 1384 N 134.64 4.29625 -3.62462 0
M  V30 1385 H 126.791 0.78584 -1.97328 0
M  V30 1386 H 129.054 0.408065 -0.855679 0
M  V30 1387 H 128.76 2.02626 -2.87464 0
M  V30 1388 H 128.634 3.35129 -1.73114 0
M  V30 1389 H 131.021 2.81051 -0.899687 0
M  V30 1390 H 131.102 1.4925 -2.07745 0
M  V30 1391 H 130.746 3.18173 -3.95889 0
M  V30 1392 H 130.676 4.48992 -2.75161 0
M  V30 1393 H 133.167 2.99276 -2.30743 0
M  V30 1394 H 133.48 5.7183 -5.19837 0
M  V30 1395 H 131.825 5.14729 -4.66989 0
M  V30 1396 H 135.016 3.65505 -2.92444 0
M  V30 1397 H 135.189 4.89807 -4.24256 0
M  V30 1398 N 128.595 0.856903 1.32268 0
M  V30 1399 C 129.823 0.475439 2.01363 0
M  V30 1400 C 130.238 -0.928486 1.64392 0
M  V30 1401 O 129.595 -1.60624 0.866387 0
M  V30 1402 C 129.646 0.607545 3.56358 0
M  V30 1403 O 129.367 1.95617 3.92002 0
M  V30 1404 C 130.868 0.225382 4.42727 0
M  V30 1405 H 128.088 0.186636 0.644521 0
M  V30 1406 H 130.632 1.15446 1.68797 0
M  V30 1407 H 128.787 -0.0237719 3.87393 0
M  V30 1408 H 129.201 1.95455 4.86721 0
M  V30 1409 H 130.675 0.368813 5.50767 0
M  V30 1410 H 131.152 -0.834369 4.31202 0
M  V30 1411 H 131.758 0.831864 4.17085 0
M  V30 1412 N 130.073 -1.45103 0.615059 0
M  V30 1413 C 131.003 -2.33339 -0.0865619 0
M  V30 1414 C 131.984 -1.4727 -0.851209 0
M  V30 1415 O 133.169 -1.76026 -0.820281 0
M  V30 1416 C 130.299 -3.30095 -1.07956 0
M  V30 1417 C 129.253 -4.25858 -0.427628 0
M  V30 1418 C 128.579 -5.12361 -1.5294 0
M  V30 1419 C 129.879 -5.18165 0.655944 0
M  V30 1420 H 131.573 -2.92254 0.650224 0
M  V30 1421 H 129.119 -1.40532 0.314138 0
M  V30 1422 H 131.072 -3.90698 -1.57901 0
M  V30 1423 H 129.796 -2.69355 -1.84703 0
M  V30 1424 H 128.455 -3.66564 0.0510292 0
M  V30 1425 H 128.103 -4.47984 -2.28734 0
M  V30 1426 H 127.803 -5.77238 -1.09865 0
M  V30 1427 H 129.327 -5.75833 -2.03098 0
M  V30 1428 H 130.741 -5.72796 0.240257 0
M  V30 1429 H 129.138 -5.91559 1.00888 0
M  V30 1430 H 130.208 -4.60144 1.52957 0
M  V30 1431 N 131.551 -0.354651 -1.53558 0
M  V30 1432 C 132.779 0.239515 -2.05509 0
M  V30 1433 C 133.194 1.4333 -1.2289 0
M  V30 1434 O 132.551 1.80538 -0.266899 0
M  V30 1435 C 132.602 0.643719 -3.55723 0
M  V30 1436 O 132.323 -0.502602 -4.35207 0
M  V30 1437 C 133.824 1.29743 -4.23889 0
M  V30 1438 H 131.044 0.0442697 -0.669538 0
M  V30 1439 H 133.588 -0.509856 -1.98042 0
M  V30 1440 H 131.743 1.34302 -3.63376 0
M  V30 1441 H 132.157 -0.178172 -5.24197 0
M  V30 1442 H 133.631 1.53091 -5.30346 0
M  V30 1443 H 134.108 2.25441 -3.76926 0
M  V30 1444 H 134.714 0.639865 -4.20459 0
M  V30 1445 N 133.029 1.57378 -0.0835403 0
M  V30 1446 C 134.278 1.93106 0.582498 0
M  V30 1447 C 134.591 0.96651 1.70053 0
M  V30 1448 O 135.797 1.21705 2.42693 0
M  V30 1449 C 134.253 3.43076 1.08751 0
M  V30 1450 C 133.861 4.48 -0.000146404 0
M  V30 1451 C 135.605 3.87785 1.72694 0
M  V30 1452 C 133.512 5.89113 0.519568 0
M  V30 1453 H 132.442 0.720775 0.221358 0
M  V30 1454 H 135.093 1.82821 -0.157675 0
M  V30 1455 H 133.475 3.48474 1.88101 0
M  V30 1456 H 134.649 4.54233 -0.775199 0
M  V30 1457 H 132.964 4.1283 -0.54406 0
M  V30 1458 H 135.561 4.90604 2.1263 0
M  V30 1459 H 135.904 3.25796 2.59158 0
M  V30 1460 H 136.437 3.8504 0.999457 0
M  V30 1461 H 133.176 6.54775 -0.308186 0
M  V30 1462 H 132.696 5.86376 1.26188 0
M  V30 1463 H 134.375 6.39346 0.992237 0
M  V30 1464 N 134.507 -0.190092 1.56449 0
M  V30 1465 C 135.753 -0.911052 1.81184 0
M  V30 1466 C 136.086 -1.82699 0.658396 0
M  V30 1467 O 135.361 -1.91491 -0.340775 0
M  V30 1468 C 135.644 -1.72297 3.16205 0
M  V30 1469 C 135.497 -0.831419 4.42049 0
M  V30 1470 C 136.816 -2.69454 3.47969 0
M  V30 1471 H 133.935 -0.32977 0.659106 0
M  V30 1472 H 136.577 -0.178169 1.89163 0
M  V30 1473 H 134.727 -2.34778 3.09534 0
M  V30 1474 H 136.399 -0.220929 4.60771 0
M  V30 1475 H 134.642 -0.138406 4.33579 0
M  V30 1476 H 135.313 -1.43461 5.33032 0
M  V30 1477 H 137.789 -2.17104 3.54972 0
M  V30 1478 H 136.665 -3.23342 4.43555 0
M  V30 1479 H 136.926 -3.48744 2.71717 0
M  V30 1480 N 135.985 -1.50799 -0.457987 0
M  V30 1481 C 137.262 -1.52968 -1.21902 0
M  V30 1482 C 137.642 -0.281906 -2.09209 0
M  V30 1483 O 136.99 0.734076 -2.16388 0
M  V30 1484 C 137.2 -2.8326 -2.03875 0
M  V30 1485 C 138.548 -3.34425 -2.6162 0
M  V30 1486 O 139.572 -2.8467 -2.14106 0
M  V30 1487 O 138.431 -4.21188 -3.48228 0
M  V30 1488 H 135.525 -0.614129 -0.553873 0
M  V30 1489 H 138.071 -1.63098 -0.468739 0
M  V30 1490 H 136.843 -3.65543 -1.39621 0
M  V30 1491 H 136.466 -2.76195 -2.8601 0
M  V30 1492 N 137.463 0.71206 -1.40597 0
M  V30 1493 C 138.691 1.50111 -1.42388 0
M  V30 1494 C 139.106 1.88784 -0.0245395 0
M  V30 1495 O 138.463 1.55681 0.952351 0
M  V30 1496 C 138.514 2.7742 -2.31776 0
M  V30 1497 O 138.235 2.40382 -3.66262 0
M  V30 1498 C 139.736 3.7129 -2.42196 0
M  V30 1499 H 136.956 0.46314 -0.485533 0
M  V30 1500 H 139.5 0.878068 -1.8469 0
M  V30 1501 H 137.655 3.36001 -1.92827 0
M  V30 1502 H 138.069 3.22324 -4.13772 0
M  V30 1503 H 139.543 4.57448 -3.08943 0
M  V30 1504 H 140.02 4.14641 -1.44809 0
M  V30 1505 H 140.626 3.18619 -2.81712 0
M  V30 1506 N 138.941 1.26152 0.944643 0
M  V30 1507 C 140.189 1.11271 1.6871 0
M  V30 1508 C 140.51 -0.345166 1.91921 0
M  V30 1509 O 139.78 -1.24387 1.51343 0
M  V30 1510 H 138.36 0.408783 0.625224 0
M  V30 1511 H 141.022 1.58427 1.1352 0
M  V30 1512 H 140.118 1.62879 2.66227 0
M  V30 1513 N 140.419 -1.14872 1.07899 0
M  V30 1514 C 141.668 -1.85135 0.800499 0
M  V30 1515 C 141.981 -1.83547 -0.676014 0
M  V30 1516 O 143.187 -2.49548 -1.06948 0
M  V30 1517 C 141.643 -3.3231 1.38197 0
M  V30 1518 C 141.251 -3.42329 2.8899 0
M  V30 1519 C 142.995 -4.0772 1.18174 0
M  V30 1520 C 140.902 -4.83684 3.403 0
M  V30 1521 H 139.832 -0.693563 0.29578 0
M  V30 1522 H 142.483 -1.29532 1.29976 0
M  V30 1523 H 140.865 -3.87618 0.810431 0
M  V30 1524 H 142.039 -2.97097 3.52236 0
M  V30 1525 H 140.354 -2.80369 3.07867 0
M  V30 1526 H 142.951 -5.12049 1.5398 0
M  V30 1527 H 143.294 -4.16124 0.12117 0
M  V30 1528 H 143.827 -3.58696 1.71994 0
M  V30 1529 H 140.566 -4.80465 4.45907 0
M  V30 1530 H 140.086 -5.29474 2.81811 0
M  V30 1531 H 141.765 -5.52558 3.36584 0
M  V30 1532 N 141.898 -0.863906 -1.31812 0
M  V30 1533 C 143.146 -0.470904 -1.96537 0
M  V30 1534 C 143.467 0.978771 -1.68657 0
M  V30 1535 O 142.737 1.6853 -0.998717 0
M  V30 1536 H 141.317 -0.171148 -0.72713 0
M  V30 1537 H 143.979 -1.10236 -1.60729 0
M  V30 1538 H 143.075 -0.623616 -3.05806 0
M  V30 1539 N 143.376 1.44774 -0.622745 0
M  V30 1540 C 144.309 2.27792 0.136329 0
M  V30 1541 C 145.287 1.38041 0.859264 0
M  V30 1542 O 146.471 1.67478 0.86506 0
M  V30 1543 C 143.598 3.16776 1.19878 0
M  V30 1544 C 142.644 4.22575 0.57731 0
M  V30 1545 S 143.477 5.31825 -0.626294 0
M  V30 1546 C 144.633 6.24377 0.436378 0
M  V30 1547 H 144.866 2.91824 -0.567967 0
M  V30 1548 H 142.399 1.48838 -0.410677 0
M  V30 1549 H 144.357 3.68596 1.80686 0
M  V30 1550 H 143.018 2.5198 1.87523 0
M  V30 1551 H 142.211 4.84818 1.37721 0
M  V30 1552 H 141.813 3.73974 0.0440439 0
M  V30 1553 H 144.105 6.64689 1.31128 0
M  V30 1554 H 145.048 7.07941 -0.150271 0
M  V30 1555 H 145.456 5.59381 0.758513 0
M  V30 1556 N 144.854 0.36279 1.53368 0
M  V30 1557 C 146.082 -0.228613 2.05633 0
M  V30 1558 C 146.497 -1.42676 1.23649 0
M  V30 1559 O 145.854 -1.80394 0.27647 0
M  V30 1560 C 145.905 -0.624845 3.56059 0
M  V30 1561 O 145.626 0.525675 4.34935 0
M  V30 1562 C 147.127 -1.27493 4.24571 0
M  V30 1563 H 144.347 -0.0407183 0.669763 0
M  V30 1564 H 146.891 0.520352 1.97769 0
M  V30 1565 H 145.046 -1.32373 3.64083 0
M  V30 1566 H 145.46 0.205969 5.24095 0
M  V30 1567 H 146.934 -1.50277 5.31151 0
M  V30 1568 H 147.411 -2.23439 3.78116 0
M  V30 1569 H 148.017 -0.617558 4.20792 0
M  V30 1570 N 146.332 -1.57332 0.0918853 0
M  V30 1571 C 147.279 -2.13847 -0.868211 0
M  V30 1572 C 148.249 -1.05618 -1.28196 0
M  V30 1573 O 149.434 -1.33387 -1.36427 0
M  V30 1574 C 146.574 -2.72062 -2.12312 0
M  V30 1575 C 145.687 -3.94514 -1.7602 0
M  V30 1576 C 144.822 -4.40903 -2.96273 0
M  V30 1577 C 143.861 -5.55953 -2.56092 0
M  V30 1578 N 142.998 -5.97209 -3.69169 0
M  V30 1579 H 147.838 -2.95575 -0.379406 0
M  V30 1580 H 145.375 -1.46048 -0.175606 0
M  V30 1581 H 147.333 -3.03931 -2.858 0
M  V30 1582 H 145.963 -1.93068 -2.58698 0
M  V30 1583 H 145.015 -3.68979 -0.925135 0
M  V30 1584 H 146.327 -4.7802 -1.42472 0
M  V30 1585 H 145.481 -4.74539 -3.78018 0
M  V30 1586 H 144.22 -3.56291 -3.33029 0
M  V30 1587 H 143.225 -5.21948 -1.72773 0
M  V30 1588 H 144.45 -6.42311 -2.20484 0
M  V30 1589 H 142.396 -5.15543 -4.05649 0
M  V30 1590 H 142.313 -6.75504 -3.39456 0
M  V30 1591 H 143.581 -6.35475 -4.51434 0
M  V30 1592 N 147.81 0.181792 -1.56548 0
M  V30 1593 C 148.773 1.20894 -1.94724 0
M  V30 1594 C 149.773 1.37738 -0.829747 0
M  V30 1595 O 150.963 1.35323 -1.09697 0
M  V30 1596 C 148.095 2.57593 -2.23291 0
M  V30 1597 H 149.288 0.882275 -2.86629 0
M  V30 1598 H 146.841 0.423838 -1.50444 0
M  V30 1599 H 147.576 2.95291 -1.34067 0
M  V30 1600 H 147.361 2.46735 -3.04736 0
M  V30 1601 H 148.851 3.31637 -2.53785 0
M  V30 1602 N 149.288 1.51039 0.449983 0
M  V30 1603 C 150.565 1.53612 1.21089 0
M  V30 1604 C 150.945 0.292997 2.09057 0
M  V30 1605 O 150.293 -0.72259 2.16774 0
M  V30 1606 C 150.503 2.84337 2.0237 0
M  V30 1607 C 151.851 3.35807 2.59843 0
M  V30 1608 O 152.875 2.85802 2.12593 0
M  V30 1609 O 151.734 4.23029 3.45989 0
M  V30 1610 H 148.828 0.617057 0.550608 0
M  V30 1611 H 151.374 1.63344 0.460082 0
M  V30 1612 H 150.146 3.66278 1.37681 0
M  V30 1613 H 149.769 2.77708 2.84542 0
M  V30 1614 N 150.766 -0.704594 1.40972 0
M  V30 1615 C 151.696 -1.83124 1.44872 0
M  V30 1616 C 152.677 -1.67281 0.30838 0
M  V30 1617 O 153.862 -1.87149 0.518556 0
M  V30 1618 C 150.992 -3.21181 1.32136 0
M  V30 1619 C 149.946 -3.51714 2.43888 0
M  V30 1620 C 149.272 -4.89032 2.16222 0
M  V30 1621 C 150.572 -3.516 3.86232 0
M  V30 1622 H 152.266 -1.80117 2.39161 0
M  V30 1623 H 149.812 -0.865145 1.15114 0
M  V30 1624 H 151.765 -3.99702 1.33479 0
M  V30 1625 H 150.489 -3.24791 0.343279 0
M  V30 1626 H 149.148 -2.75539 2.41813 0
M  V30 1627 H 148.796 -4.89256 1.16778 0
M  V30 1628 H 148.496 -5.10426 2.911 0
M  V30 1629 H 150.02 -5.69873 2.19265 0
M  V30 1630 H 151.434 -4.2014 3.9007 0
M  V30 1631 H 149.831 -3.84523 4.60719 0
M  V30 1632 H 150.901 -2.50757 4.15029 0
M  V30 1633 N 152.244 -1.26651 -0.937939 0
M  V30 1634 C 153.493 -1.11775 -1.67897 0
M  V30 1635 C 153.806 0.33794 -1.92659 0
M  V30 1636 O 155.012 0.607434 -2.64618 0
M  V30 1637 C 153.468 -1.9523 -3.02346 0
M  V30 1638 C 153.076 -3.45393 -2.8532 0
M  V30 1639 C 154.82 -1.88972 -3.80118 0
M  V30 1640 C 152.727 -4.21083 -4.15263 0
M  V30 1641 H 151.657 -0.414696 -0.629717 0
M  V30 1642 H 154.308 -1.50988 -1.04283 0
M  V30 1643 H 152.69 -1.48853 -3.66959 0
M  V30 1644 H 153.864 -3.99561 -2.29537 0
M  V30 1645 H 152.179 -3.52921 -2.20988 0
M  V30 1646 H 154.776 -2.42805 -4.76392 0
M  V30 1647 H 155.119 -0.86113 -4.07296 0
M  V30 1648 H 155.652 -2.33189 -3.22285 0
M  V30 1649 H 152.391 -5.24425 -3.93267 0
M  V30 1650 H 151.911 -3.71695 -4.70747 0
M  V30 1651 H 153.59 -4.29706 -4.83696 0
M  V30 1652 N 153.722 1.14298 -1.08507 0
M  V30 1653 C 154.67 2.21483 -0.710483 0
M  V30 1654 C 155.664 1.66998 0.284234 0
M  V30 1655 O 156.87 1.79401 0.146692 0
M  V30 1656 H 153.245 0.721578 -0.211729 0
M  V30 1657 H 155.216 2.50348 -1.62384 0
M  V30 1658 C 153.965 3.4743 -0.137007 0
M  V30 1659 H 153.288 3.89686 -0.893592 0
M  V30 1660 H 154.728 4.2391 0.0872789 0
M  V30 1661 C 153.187 3.17548 1.12538 0
M  V30 1662 O 153.717 3.35437 2.21009 0
M  V30 1663 N 151.923 2.71499 1.03617 0
M  V30 1664 H 151.47 2.57143 0.153403 0
M  V30 1665 H 151.428 2.51881 1.88158 0
M  V30 1666 N 155.201 0.870884 1.31352 0
M  V30 1667 C 156.149 0.316445 2.30437 0
M  V30 1668 C 157.143 -0.568965 1.59559 0
M  V30 1669 O 158.349 -0.454964 1.74155 0
M  V30 1670 H 154.724 0.0836521 0.747333 0
M  V30 1671 H 156.695 1.16606 2.74673 0
M  V30 1672 C 155.444 -0.46635 3.44558 0
M  V30 1673 H 154.767 0.205687 3.99271 0
M  V30 1674 H 156.207 -0.819614 4.16003 0
M  V30 1675 C 154.666 -1.65797 2.9328 0
M  V30 1676 O 155.196 -2.75728 2.92125 0
M  V30 1677 N 153.402 -1.49041 2.4947 0
M  V30 1678 H 152.949 -0.59612 2.50608 0
M  V30 1679 H 152.907 -2.28911 2.15516 0
M  V30 1680 N 156.679 -1.44442 0.630414 0
M  V30 1681 C 157.609 -2.33418 -0.0618083 0
M  V30 1682 C 158.59 -1.48165 -0.835541 0
M  V30 1683 O 159.775 -1.76886 -0.801564 0
M  V30 1684 C 156.905 -3.31222 -1.04449 0
M  V30 1685 C 155.859 -4.26288 -0.382436 0
M  V30 1686 C 155.185 -5.13954 -1.47497 0
M  V30 1687 C 156.485 -5.1744 0.710865 0
M  V30 1688 H 158.179 -2.91548 0.681184 0
M  V30 1689 H 155.725 -1.40191 0.329026 0
M  V30 1690 H 157.678 -3.92351 -1.53748 0
M  V30 1691 H 156.402 -2.71299 -1.81836 0
M  V30 1692 H 155.061 -3.6649 0.0899054 0
M  V30 1693 H 154.709 -4.50385 -2.2397 0
M  V30 1694 H 154.409 -5.7837 -1.03737 0
M  V30 1695 H 155.933 -5.77955 -1.96979 0
M  V30 1696 H 157.347 -5.72509 0.300996 0
M  V30 1697 H 155.744 -5.90455 1.07156 0
M  V30 1698 H 156.814 -4.58496 1.57829 0
M  V30 1699 N 158.157 -0.370918 -1.53173 0
M  V30 1700 C 159.405 0.216673 -2.00935 0
M  V30 1701 C 159.726 1.48845 -1.25977 0
M  V30 1702 O 158.996 1.92286 -0.374551 0
M  V30 1703 H 157.576 0.0830565 -0.742368 0
M  V30 1704 H 160.238 -0.49838 -1.8842 0
M  V30 1705 H 159.334 0.439893 -3.08984 0
M  V30 1706 N 159.635 1.57281 -0.100228 0
M  V30 1707 C 160.863 1.98879 0.570509 0
M  V30 1708 C 161.278 0.979476 1.61405 0
M  V30 1709 O 160.635 -0.0302288 1.82475 0
M  V30 1710 C 160.686 3.4052 1.2136 0
M  V30 1711 O 160.407 4.37588 0.211786 0
M  V30 1712 C 161.908 3.97149 1.96945 0
M  V30 1713 H 159.128 0.653428 0.152555 0
M  V30 1714 H 161.672 2.03697 -0.18103 0
M  V30 1715 H 159.827 3.367 1.91603 0
M  V30 1716 H 160.241 5.20118 0.676607 0
M  V30 1717 H 161.715 4.98393 2.37294 0
M  V30 1718 H 162.192 3.3525 2.83733 0
M  V30 1719 H 162.798 4.04458 1.31506 0
M  V30 1720 N 161.113 -0.173488 1.56642 0
M  V30 1721 C 162.362 -0.888758 1.81063 0
M  V30 1722 C 162.675 -1.83506 0.67712 0
M  V30 1723 O 163.881 -2.59254 0.806206 0
M  V30 1724 C 162.337 -1.63091 3.20826 0
M  V30 1725 C 161.945 -0.728357 4.4204 0
M  V30 1726 C 163.689 -2.33454 3.54541 0
M  V30 1727 C 161.596 -1.47062 5.72823 0
M  V30 1728 H 160.526 -0.335618 0.675186 0
M  V30 1729 H 163.177 -0.141712 1.82952 0
M  V30 1730 H 161.559 -2.42263 3.13248 0
M  V30 1731 H 162.733 0.0262449 4.60793 0
M  V30 1732 H 161.048 -0.134492 4.16183 0
M  V30 1733 H 163.645 -2.89578 4.49498 0
M  V30 1734 H 163.988 -3.08687 2.79317 0
M  V30 1735 H 164.521 -1.61227 3.63663 0
M  V30 1736 H 161.26 -0.760658 6.51072 0
M  V30 1737 H 160.78 -2.1986 5.58052 0
M  V30 1738 H 162.459 -2.01868 6.14702 0
M  V30 1739 N 162.591 -1.51276 -0.441967 0
M  V30 1740 C 163.554 -1.7167 -1.51862 0
M  V30 1741 C 164.554 -0.586793 -1.49711 0
M  V30 1742 O 165.744 -0.854276 -1.51815 0
M  V30 1743 C 162.876 -1.76889 -2.91416 0
M  V30 1744 H 164.069 -2.67754 -1.35084 0
M  V30 1745 H 161.622 -1.41196 -0.670333 0
M  V30 1746 H 162.357 -0.826026 -3.13604 0
M  V30 1747 H 162.142 -2.59001 -2.94382 0
M  V30 1748 H 163.632 -1.94522 -3.69528 0
M  V30 1749 N 164.069 0.697108 -1.41344 0
M  V30 1750 C 165.016 1.81106 -1.43071 0
M  V30 1751 C 165.986 1.63632 -0.285275 0
M  V30 1752 O 167.171 1.84504 -0.486091 0
M  V30 1753 C 164.311 3.18975 -1.31715 0
M  V30 1754 C 163.424 3.47892 -2.56115 0
M  V30 1755 C 162.559 4.75367 -2.37064 0
M  V30 1756 C 161.598 4.97247 -3.56948 0
M  V30 1757 N 160.735 6.15947 -3.36977 0
M  V30 1758 H 165.575 1.78965 -2.38276 0
M  V30 1759 H 163.112 0.873975 -1.18322 0
M  V30 1760 H 165.07 3.98615 -1.23133 0
M  V30 1761 H 163.7 3.20297 -0.401183 0
M  V30 1762 H 162.752 2.62669 -2.75153 0
M  V30 1763 H 164.064 3.59962 -3.45295 0
M  V30 1764 H 163.218 5.63059 -2.25941 0
M  V30 1765 H 161.957 4.65541 -1.45338 0
M  V30 1766 H 160.962 4.08004 -3.68527 0
M  V30 1767 H 162.187 5.08934 -4.49626 0
M  V30 1768 H 160.133 6.07336 -2.47949 0
M  V30 1769 H 160.05 6.28777 -4.19732 0
M  V30 1770 H 161.318 7.06377 -3.29623 0
M  V30 1771 N 165.547 1.27147 0.931209 0
M  V30 1772 C 166.772 1.16191 1.71797 0
M  V30 1773 C 167.197 -0.278004 1.86034 0
M  V30 1774 O 166.555 -1.20137 1.35782 0
M  V30 1775 C 166.603 1.84673 3.09723 0
M  V30 1776 O 165.707 1.14231 3.96264 0
M  V30 1777 H 165.048 0.404303 0.526721 0
M  V30 1778 H 167.578 1.68152 1.1656 0
M  V30 1779 H 167.588 1.91893 3.60057 0
M  V30 1780 H 166.263 2.89421 2.98677 0
M  V30 1781 H 164.84 1.15056 3.54706 0
M  V30 1782 N 167.025 -1.13721 1.09112 0
M  V30 1783 C 168.273 -1.84559 0.823562 0
M  V30 1784 C 168.594 -1.83754 -0.652658 0
M  V30 1785 O 167.864 -1.29102 -1.47342 0
M  V30 1786 H 166.444 -0.683376 0.301673 0
M  V30 1787 H 169.106 -1.37771 1.37859 0
M  V30 1788 H 168.202 -2.8917 1.17419 0
M  V30 1789 N 168.503 -0.877838 -1.30888 0
M  V30 1790 C 169.731 -0.507414 -2.00581 0
M  V30 1791 C 170.146 0.902216 -1.65848 0
M  V30 1792 O 169.503 1.59225 -0.891831 0
M  V30 1793 C 169.554 -0.664162 -3.55347 0
M  V30 1794 O 169.275 -2.01829 -3.8884 0
M  V30 1795 C 170.776 -0.295787 -4.42312 0
M  V30 1796 H 167.996 -0.196866 -0.641471 0
M  V30 1797 H 170.54 -1.18117 -1.66939 0
M  V30 1798 H 168.695 -0.0378619 -3.87381 0
M  V30 1799 H 169.109 -2.03174 -4.8355 0
M  V30 1800 H 170.583 -0.456388 -5.5011 0
M  V30 1801 H 171.06 0.765663 -4.32475 0
M  V30 1802 H 171.666 -0.898113 -4.15709 0
M  V30 1803 N 169.982 1.44106 -0.638065 0
M  V30 1804 C 170.929 2.30715 0.062701 0
M  V30 1805 C 171.899 1.43882 0.829883 0
M  V30 1806 O 173.084 1.72775 0.809532 0
M  V30 1807 C 170.224 3.29258 1.03358 0
M  V30 1808 C 169.337 4.31192 0.26409 0
M  V30 1809 C 168.472 5.16825 1.22741 0
M  V30 1810 C 167.511 6.10462 0.447475 0
M  V30 1811 N 166.648 6.8877 1.36161 0
M  V30 1812 H 171.488 2.90096 -0.681781 0
M  V30 1813 H 169.025 1.42925 -0.347988 0
M  V30 1814 H 170.983 3.84886 1.60992 0
M  V30 1815 H 169.613 2.71562 1.74511 0
M  V30 1816 H 168.665 3.77981 -0.428295 0
M  V30 1817 H 169.977 4.97619 -0.343052 0
M  V30 1818 H 169.131 5.77004 1.87487 0
M  V30 1819 H 167.87 4.50488 1.86847 0
M  V30 1820 H 166.875 5.49386 -0.213433 0
M  V30 1821 H 168.1 6.78837 -0.188968 0
M  V30 1822 H 166.046 6.25096 1.98975 0
M  V30 1823 H 165.963 7.51663 0.808656 0
M  V30 1824 H 167.231 7.53467 1.99769 0
M  V30 1825 N 171.46 0.379036 1.52974 0
M  V30 1826 C 172.423 -0.448865 2.24762 0
M  V30 1827 C 173.423 -0.998689 1.26027 0
M  V30 1828 O 174.613 -0.882313 1.50203 0
M  V30 1829 C 171.745 -1.62872 2.99476 0
M  V30 1830 H 172.938 0.179491 2.99362 0
M  V30 1831 H 170.491 0.13096 1.5575 0
M  V30 1832 H 171.226 -2.29479 2.29151 0
M  V30 1833 H 171.011 -1.24128 3.71934 0
M  V30 1834 H 172.501 -2.2151 3.5401 0
M  V30 1835 N 172.938 -1.57226 0.108567 0
M  V30 1836 C 174.185 -1.94833 -0.551943 0
M  V30 1837 C 174.513 -0.991204 -1.67348 0
M  V30 1838 O 173.768 -0.0131878 -1.95696 0
M  V30 1839 C 174.067 -3.38911 -1.13463 0
M  V30 1840 C 173.733 -4.50696 -0.135509 0
M  V30 1841 C 172.395 -4.80998 0.139252 0
M  V30 1842 C 174.747 -5.18333 0.545957 0
M  V30 1843 C 172.075 -5.76259 1.10194 0
M  V30 1844 C 174.427 -6.14627 1.49721 0
M  V30 1845 C 173.091 -6.43327 1.78006 0
M  V30 1846 H 172.361 -0.712944 -0.20197 0
M  V30 1847 H 175.008 -1.90582 0.18726 0
M  V30 1848 H 173.313 -3.39805 -1.95037 0
M  V30 1849 H 175.01 -3.65317 -1.65362 0
M  V30 1850 H 171.6 -4.27087 -0.359846 0
M  V30 1851 H 175.784 -4.95087 0.346842 0
M  V30 1852 H 171.04 -5.96804 1.32795 0
M  V30 1853 H 175.214 -6.66126 2.03099 0
M  V30 1854 H 172.841 -7.1695 2.52759 0
M  V30 1855 N 174.416 0.165178 -1.56732 0
M  V30 1856 C 175.349 1.23336 -1.91998 0
M  V30 1857 C 176.327 1.42476 -0.783531 0
M  V30 1858 O 177.511 1.57384 -1.03743 0
M  V30 1859 C 174.638 2.59533 -2.17625 0
M  V30 1860 C 173.684 2.57093 -3.40302 0
M  V30 1861 S 174.517 2.05571 -4.9447 0
M  V30 1862 C 175.673 3.43532 -5.23198 0
M  V30 1863 H 175.906 0.932387 -2.82301 0
M  V30 1864 H 173.439 0.370013 -1.49901 0
M  V30 1865 H 175.397 3.37918 -2.3307 0
M  V30 1866 H 174.058 2.86827 -1.28019 0
M  V30 1867 H 173.251 3.57308 -3.55453 0
M  V30 1868 H 172.853 1.86806 -3.24005 0
M  V30 1869 H 175.145 4.39559 -5.15552 0
M  V30 1870 H 176.088 3.33251 -6.2478 0
M  V30 1871 H 176.496 3.39828 -4.50752 0
M  V30 1872 N 175.894 1.51508 0.433938 0
M  V30 1873 C 176.804 1.75917 1.5521 0
M  V30 1874 C 177.82 0.643545 1.61662 0
M  V30 1875 O 178.996 0.926183 1.7884 0
M  V30 1876 C 176.061 1.88213 2.91164 0
M  V30 1877 C 175.122 3.12074 2.94802 0
M  V30 1878 C 174.355 3.23774 4.24271 0
M  V30 1879 O 174.578 2.4133 5.16833 0
M  V30 1880 O 173.512 4.16774 4.34262 0
M  V30 1881 H 177.338 2.70777 1.37527 0
M  V30 1882 H 174.923 1.36051 0.617293 0
M  V30 1883 H 176.805 1.98267 3.71845 0
M  V30 1884 H 175.48 0.965413 3.08968 0
M  V30 1885 H 174.387 3.07497 2.13065 0
M  V30 1886 H 175.72 4.03446 2.81943 0
M  V30 1887 N 177.372 -0.689602 1.41712 0
M  V30 1888 C 178.335 -1.78521 1.43746 0
M  V30 1889 C 179.335 -1.57436 0.327191 0
M  V30 1890 O 180.525 -1.64 0.587348 0
M  V30 1891 C 177.657 -3.16971 1.25467 0
M  V30 1892 H 178.85 -1.78108 2.41283 0
M  V30 1893 H 176.403 -0.89781 1.27942 0
M  V30 1894 H 177.138 -3.23019 0.287948 0
M  V30 1895 H 176.923 -3.33678 2.05917 0
M  V30 1896 H 178.413 -3.96935 1.2974 0
M  V30 1897 N 178.85 -1.27639 -0.924453 0
M  V30 1898 C 179.78 -1.13166 -2.04244 0
M  V30 1899 C 180.761 -0.032256 -1.70069 0
M  V30 1900 O 181.946 -0.207328 -1.9309 0
M  V30 1901 C 179.076 -0.781496 -3.38393 0
M  V30 1902 C 178.03 -1.83449 -3.86692 0
M  V30 1903 C 177.356 -1.33822 -5.17683 0
M  V30 1904 C 178.656 -3.23917 -4.09726 0
M  V30 1905 H 180.35 -2.06689 -2.1661 0
M  V30 1906 H 177.896 -0.995136 -1.04082 0
M  V30 1907 H 179.849 -0.667057 -4.16087 0
M  V30 1908 H 178.573 0.189439 -3.2605 0
M  V30 1909 H 177.232 -1.93789 -3.11193 0
M  V30 1910 H 176.88 -0.35665 -5.01734 0
M  V30 1911 H 176.58 -2.04224 -5.50968 0
M  V30 1912 H 178.104 -1.23679 -5.97943 0
M  V30 1913 H 179.518 -3.16559 -4.77978 0
M  V30 1914 H 177.915 -3.92059 -4.54324 0
M  V30 1915 H 178.985 -3.68729 -3.14908 0
M  V30 1916 N 180.328 1.1314 -1.09713 0
M  V30 1917 C 181.26 2.18343 -0.697056 0
M  V30 1918 C 182.273 1.60669 0.262551 0
M  V30 1919 O 183.462 1.78435 0.0481527 0
M  V30 1920 C 180.562 3.38899 -0.00684728 0
M  V30 1921 C 179.735 4.26078 -0.988741 0
M  V30 1922 C 178.794 5.25155 -0.331394 0
M  V30 1923 O 177.82 5.60701 -0.979926 0
M  V30 1924 N 179.022 5.73271 0.913261 0
M  V30 1925 H 181.787 2.5328 -1.60216 0
M  V30 1926 H 179.348 1.28491 -0.984971 0
M  V30 1927 H 181.34 4.02255 0.444191 0
M  V30 1928 H 179.91 3.02175 0.800551 0
M  V30 1929 H 179.13 3.59453 -1.61826 0
M  V30 1930 H 180.418 4.81178 -1.65364 0
M  V30 1931 H 179.816 5.46544 1.45966 0
M  V30 1932 H 178.373 6.3855 1.30757 0
M  V30 1933 N 181.806 0.884767 1.30421 0
M  V30 1934 C 182.769 0.356277 2.26414 0
M  V30 1935 C 183.769 -0.501124 1.52792 0
M  V30 1936 O 184.959 -0.30831 1.7145 0
M  V30 1937 C 182.091 -0.492316 3.37326 0
M  V30 1938 H 183.284 1.20389 2.74675 0
M  V30 1939 H 180.837 0.661607 1.41607 0
M  V30 1940 H 181.572 -1.36052 2.94381 0
M  V30 1941 H 181.357 0.121832 3.91911 0
M  V30 1942 H 182.847 -0.853871 4.08777 0
M  V30 1943 N 183.284 -1.43765 0.645699 0
M  V30 1944 C 184.532 -2.01499 0.155731 0
M  V30 1945 C 184.853 -1.51151 -1.232 0
M  V30 1946 O 184.123 -0.721044 -1.82148 0
M  V30 1947 H 182.703 -0.745003 0.0545817 0
M  V30 1948 H 185.365 -1.76075 0.835677 0
M  V30 1949 H 184.461 -3.1181 0.134577 0
M  V30 1950 N 184.763 -0.387143 -1.52771 0
M  V30 1951 C 185.726 0.436939 -2.24997 0
M  V30 1952 C 186.726 0.991991 -1.26555 0
M  V30 1953 O 187.916 0.874335 -1.50669 0
M  V30 1954 C 185.048 1.61281 -3.00335 0
M  V30 1955 H 186.241 -0.195365 -2.99263 0
M  V30 1956 H 183.794 -0.139218 -1.55679 0
M  V30 1957 H 184.529 2.2826 -2.30364 0
M  V30 1958 H 184.314 1.22154 -3.72587 0
M  V30 1959 H 185.804 2.19629 -3.5518 0
M  V30 1960 N 186.241 1.57166 -0.116904 0
M  V30 1961 C 187.518 1.86645 0.585049 0
M  V30 1962 C 187.898 1.0177 1.84949 0
M  V30 1963 O 187.246 0.0960379 2.28298 0
M  V30 1964 C 187.456 3.37736 0.879507 0
M  V30 1965 C 188.804 4.06289 1.23348 0
M  V30 1966 O 189.828 3.42743 0.969836 0
M  V30 1967 O 188.687 5.18455 1.7282 0
M  V30 1968 H 185.781 0.772593 0.295007 0
M  V30 1969 H 188.327 1.69025 -0.151249 0
M  V30 1970 H 187.099 3.91296 -0.0166136 0
M  V30 1971 H 186.722 3.6078 1.67103 0
M  V30 1972 N 187.719 -0.156864 1.56817 0
M  V30 1973 C 188.968 -0.869504 1.81996 0
M  V30 1974 C 189.281 -1.82777 0.696545 0
M  V30 1975 O 190.487 -2.58384 0.833658 0
M  V30 1976 C 188.943 -1.59679 3.22538 0
M  V30 1977 C 188.551 -0.681431 4.42787 0
M  V30 1978 C 190.295 -2.2968 3.56997 0
M  V30 1979 C 188.202 -1.40978 5.74351 0
M  V30 1980 H 187.132 -0.328438 0.678708 0
M  V30 1981 H 189.783 -0.1223 1.83092 0
M  V30 1982 H 188.165 -2.38927 3.158 0
M  V30 1983 H 189.339 0.0751166 4.60739 0
M  V30 1984 H 187.654 -0.0903431 4.16302 0
M  V30 1985 H 190.251 -2.84794 4.52544 0
M  V30 1986 H 190.594 -3.05707 2.82576 0
M  V30 1987 H 191.127 -1.57361 3.65352 0
M  V30 1988 H 187.866 -0.691561 6.51842 0
M  V30 1989 H 187.386 -2.13929 5.60352 0
M  V30 1990 H 189.065 -1.95337 6.16808 0
M  V30 1991 N 189.197 -1.51736 -0.425897 0
M  V30 1992 C 190.422 -1.69082 -1.20108 0
M  V30 1993 C 190.847 -0.392398 -1.83962 0
M  V30 1994 O 190.205 0.64858 -1.69302 0
M  V30 1995 C 190.253 -2.81604 -2.25237 0
M  V30 1996 O 189.357 -2.46004 -3.30992 0
M  V30 1997 H 188.698 -0.563408 -0.35138 0
M  V30 1998 H 191.228 -1.98358 -0.501512 0
M  V30 1999 H 191.238 -3.06025 -2.69838 0
M  V30 2000 H 189.913 -3.75817 -1.78142 0
M  V30 2001 H 188.49 -2.32195 -2.91787 0
M  V30 2002 N 190.675 0.682077 -1.42076 0
M  V30 2003 C 191.608 1.80666 -1.3941 0
M  V30 2004 C 192.586 1.60518 -0.25939 0
M  V30 2005 O 193.77 1.83088 -0.448456 0
M  V30 2006 C 190.897 3.17556 -1.17796 0
M  V30 2007 C 189.943 3.56468 -2.34164 0
M  V30 2008 S 190.776 3.59729 -3.96681 0
M  V30 2009 C 191.932 4.99323 -3.77395 0
M  V30 2010 H 192.165 1.82652 -2.34575 0
M  V30 2011 H 189.698 0.852062 -1.2876 0
M  V30 2012 H 191.656 3.96575 -1.06012 0
M  V30 2013 H 190.317 3.13164 -0.242279 0
M  V30 2014 H 189.51 4.5595 -2.1477 0
M  V30 2015 H 189.112 2.84792 -2.42425 0
M  V30 2016 H 191.404 5.87202 -3.37935 0
M  V30 2017 H 192.347 5.23763 -4.76527 0
M  V30 2018 H 192.755 4.71498 -3.10403 0
M  V30 2019 N 192.153 1.28127 0.917671 0
M  V30 2020 C 193.402 1.14432 1.66097 0
M  V30 2021 C 193.715 -0.307247 1.93172 0
M  V30 2022 O 194.921 -0.565259 2.65551 0
M  V30 2023 C 193.377 2.00015 2.99202 0
M  V30 2024 C 192.985 3.49889 2.79789 0
M  V30 2025 C 194.729 1.94996 3.77064 0
M  V30 2026 C 192.636 4.27636 4.08511 0
M  V30 2027 H 191.566 0.424662 0.62304 0
M  V30 2028 H 194.217 1.52628 1.01868 0
M  V30 2029 H 192.599 1.54672 3.64544 0
M  V30 2030 H 193.773 4.03162 2.23152 0
M  V30 2031 H 192.088 3.56392 2.15345 0
M  V30 2032 H 194.685 2.50354 4.72469 0
M  V30 2033 H 195.028 0.925819 4.05875 0
M  V30 2034 H 195.561 2.38287 3.18534 0
M  V30 2035 H 192.3 5.30615 3.84874 0
M  V30 2036 H 191.82 3.79137 4.64774 0
M  V30 2037 H 193.499 4.37346 4.76799 0
M  V30 2038 N 193.631 -1.12557 1.10312 0
M  V30 2039 C 194.879 -1.83675 0.843091 0
M  V30 2040 C 195.2 -1.84435 -0.633131 0
M  V30 2041 O 194.47 -1.30657 -1.45964 0
M  V30 2042 H 193.05 -0.680138 0.308904 0
M  V30 2043 H 195.712 -1.36301 1.39313 0
M  V30 2044 H 194.808 -2.87908 1.2048 0
M  V30 2045 N 195.109 -0.891671 -1.2995 0
M  V30 2046 C 196.041 -0.320695 -2.26945 0
M  V30 2047 C 197.054 0.528497 -1.53983 0
M  V30 2048 O 198.243 0.346959 -1.75096 0
M  V30 2049 C 195.343 0.562066 -3.34207 0
M  V30 2050 C 194.516 -0.259576 -4.36629 0
M  V30 2051 C 193.575 0.554739 -5.23268 0
M  V30 2052 O 192.601 -0.0249311 -5.69195 0
M  V30 2053 N 193.803 1.8625 -5.4981 0
M  V30 2054 H 196.568 -1.15432 -2.76578 0
M  V30 2055 H 194.129 -0.755336 -1.432 0
M  V30 2056 H 196.121 1.11304 -3.89093 0
M  V30 2057 H 194.691 1.29637 -2.84452 0
M  V30 2058 H 193.911 -0.991986 -3.81514 0
M  V30 2059 H 195.199 -0.822564 -5.02107 0
M  V30 2060 H 194.597 2.35628 -5.14292 0
M  V30 2061 H 193.154 2.36078 -6.07545 0
M  V30 2062 N 196.587 1.43421 -0.653314 0
M  V30 2063 C 197.834 2.01812 -0.166745 0
M  V30 2064 C 198.162 1.51535 1.21931 0
M  V30 2065 O 197.417 0.698975 1.82792 0
M  V30 2066 C 197.716 3.57176 -0.126623 0
M  V30 2067 C 197.382 4.26798 -1.45444 0
M  V30 2068 C 196.044 4.45534 -1.81805 0
M  V30 2069 C 198.396 4.66225 -2.32989 0
M  V30 2070 C 195.724 5.00961 -3.05377 0
M  V30 2071 C 198.076 5.23021 -3.55853 0
M  V30 2072 C 196.74 5.39973 -3.9241 0
M  V30 2073 H 196.01 0.738484 -0.0610162 0
M  V30 2074 H 198.657 1.71896 -0.84404 0
M  V30 2075 H 196.962 3.86634 0.634123 0
M  V30 2076 H 198.659 4.00112 0.266723 0
M  V30 2077 H 195.249 4.12561 -1.16153 0
M  V30 2078 H 199.433 4.51443 -2.06187 0
M  V30 2079 H 194.689 5.12271 -3.3375 0
M  V30 2080 H 198.863 5.52518 -4.23907 0
M  V30 2081 H 196.49 5.82687 -4.88242 0
M  V30 2082 N 198.065 0.39524 1.52563 0
M  V30 2083 C 199.313 -0.184678 2.01254 0
M  V30 2084 C 199.634 -1.46822 1.28329 0
M  V30 2085 O 198.904 -1.91666 0.405094 0
M  V30 2086 H 197.484 -0.0712355 0.743596 0
M  V30 2087 H 200.146 0.528293 1.87603 0
M  V30 2088 H 199.242 -0.390681 3.09645 0
M  V30 2089 N 199.544 -1.57102 0.125237 0
M  V30 2090 C 200.79 -1.95697 -0.532035 0
M  V30 2091 C 201.123 -1.009 -1.6593 0
M  V30 2092 O 200.398 -0.047347 -1.94442 0
M  V30 2093 C 200.681 -3.44181 -1.05884 0
M  V30 2094 C 200.534 -4.49752 0.0654392 0
M  V30 2095 C 201.853 -3.94655 -1.9477 0
M  V30 2096 H 198.972 -0.711571 -0.191925 0
M  V30 2097 H 201.614 -1.88923 0.20206 0
M  V30 2098 H 199.764 -3.50085 -1.68442 0
M  V30 2099 H 201.436 -4.55943 0.700982 0
M  V30 2100 H 199.679 -4.27653 0.727709 0
M  V30 2101 H 200.35 -5.50924 -0.344505 0
M  V30 2102 H 202.826 -3.91094 -1.42074 0
M  V30 2103 H 201.702 -4.99057 -2.28546 0
M  V30 2104 H 201.963 -3.35718 -2.87656 0
M  V30 2105 N 201.022 0.148545 -1.56898 0
M  V30 2106 C 202.27 0.859717 -1.82902 0
M  V30 2107 C 202.591 1.81775 -0.70588 0
M  V30 2108 O 201.861 1.93994 0.272586 0
M  V30 2109 H 200.441 0.320469 -0.674766 0
M  V30 2110 H 203.103 0.142918 -1.94375 0
M  V30 2111 H 202.199 1.4229 -2.77777 0
M  V30 2112 N 202.5 1.5196 0.417844 0
M  V30 2113 C 203.747 1.65591 1.16559 0
M  V30 2114 C 204.075 0.381565 1.90721 0
M  V30 2115 O 203.33 -0.635156 1.85106 0
M  V30 2116 C 203.629 2.82269 2.19223 0
M  V30 2117 C 203.295 4.20819 1.61933 0
M  V30 2118 C 201.957 4.58506 1.46033 0
M  V30 2119 C 204.309 5.07196 1.20008 0
M  V30 2120 C 201.637 5.80257 0.867113 0
M  V30 2121 C 203.989 6.29544 0.621086 0
M  V30 2122 C 202.653 6.65987 0.449144 0
M  V30 2123 H 201.923 0.605939 0.42652 0
M  V30 2124 H 204.57 1.86041 0.45397 0
M  V30 2125 H 202.875 2.56118 2.96498 0
M  V30 2126 H 204.572 2.90012 2.76936 0
M  V30 2127 H 201.162 3.91116 1.7529 0
M  V30 2128 H 205.346 4.7867 1.31105 0
M  V30 2129 H 200.602 6.07124 0.721833 0
M  V30 2130 H 204.776 6.95805 0.287798 0
M  V30 2131 H 202.403 7.60199 -0.012632 0
M  V30 2132 N 203.978 -0.674533 1.42435 0
M  V30 2133 C 205.208 -1.46071 1.46105 0
M  V30 2134 C 205.616 -1.89067 0.0709605 0
M  V30 2135 O 204.959 -1.58731 -0.924677 0
M  V30 2136 C 205.021 -2.74145 2.32561 0
M  V30 2137 C 204.685 -2.53224 3.8043 0
M  V30 2138 C 205.682 -2.17809 4.72075 0
M  V30 2139 C 203.367 -2.6821 4.24698 0
M  V30 2140 C 205.361 -1.97648 6.05982 0
M  V30 2141 C 203.048 -2.47665 5.58664 0
M  V30 2142 C 204.046 -2.12437 6.49122 0
M  V30 2143 O 203.734 -1.9209 7.80613 0
M  V30 2144 H 203.466 -0.455959 0.499076 0
M  V30 2145 H 206.02 -0.836193 1.87609 0
M  V30 2146 H 204.25 -3.3908 1.85908 0
M  V30 2147 H 205.939 -3.36028 2.27683 0
M  V30 2148 H 206.705 -2.05826 4.39159 0
M  V30 2149 H 202.584 -2.94609 3.54579 0
M  V30 2150 H 206.128 -1.70075 6.7655 0
M  V30 2151 H 202.025 -2.59244 5.91154 0
M  V30 2152 H 202.793 -2.06686 7.91974 0
M  V30 2153 N 205.456 -1.28612 -0.910864 0
M  V30 2154 C 206.681 -1.1891 -1.69927 0
M  V30 2155 C 207.106 0.248372 -1.86453 0
M  V30 2156 O 206.464 1.17961 -1.37676 0
M  V30 2157 C 206.512 -1.89578 -3.06745 0
M  V30 2158 O 205.616 -1.20521 -3.94396 0
M  V30 2159 H 204.957 -0.412632 -0.520222 0
M  V30 2160 H 207.487 -1.69985 -1.1387 0
M  V30 2161 H 207.497 -1.97597 -3.56958 0
M  V30 2162 H 206.172 -2.94136 -2.94035 0
M  V30 2163 H 204.749 -1.20684 -3.52831 0
M  V30 2164 N 206.934 1.1197 -1.10907 0
M  V30 2165 C 207.897 2.16031 -0.765707 0
M  V30 2166 C 208.897 1.59393 0.212235 0
M  V30 2167 O 210.087 1.74196 -0.0115441 0
M  V30 2168 C 207.219 3.40632 -0.135053 0
M  V30 2169 H 208.412 2.47919 -1.68748 0
M  V30 2170 H 205.965 1.27061 -0.910226 0
M  V30 2171 H 206.7 3.14348 0.797218 0
M  V30 2172 H 206.485 3.8302 -0.838937 0
M  V30 2173 H 207.975 4.17505 0.0892469 0
M  V30 2174 N 208.412 0.89855 1.29475 0
M  V30 2175 C 209.642 0.538479 1.99459 0
M  V30 2176 C 210.05 -0.880922 1.67441 0
M  V30 2177 O 209.393 -1.59283 0.915127 0
M  V30 2178 C 209.455 0.649564 3.53583 0
M  V30 2179 C 209.119 2.03573 4.09154 0
M  V30 2180 C 210.116 3.00675 4.24135 0
M  V30 2181 C 207.801 2.3448 4.44212 0
M  V30 2182 C 209.795 4.26809 4.73405 0
M  V30 2183 C 207.482 3.60857 4.93179 0
M  V30 2184 C 208.48 4.56836 5.0773 0
M  V30 2185 O 208.168 5.80969 5.55635 0
M  V30 2186 H 207.9 0.205372 0.644048 0
M  V30 2187 H 210.454 1.20958 1.66007 0
M  V30 2188 H 208.684 -0.0785592 3.8662 0
M  V30 2189 H 210.373 0.29881 4.04799 0
M  V30 2190 H 211.139 2.78112 3.97339 0
M  V30 2191 H 207.018 1.60534 4.32145 0
M  V30 2192 H 210.562 5.0173 4.84678 0
M  V30 2193 H 206.459 3.83251 5.19412 0
M  V30 2194 H 207.227 5.83542 5.73952 0
M  V30 2195 N 209.89 -1.43072 0.660911 0
M  V30 2196 C 210.82 -2.33497 -0.0122829 0
M  V30 2197 C 211.801 -1.49903 -0.803925 0
M  V30 2198 O 212.986 -1.78546 -0.763864 0
M  V30 2199 C 210.116 -3.33363 -0.973994 0
M  V30 2200 C 209.07 -4.27003 -0.291928 0
M  V30 2201 C 208.396 -5.16967 -1.36562 0
M  V30 2202 C 209.696 -5.15816 0.820462 0
M  V30 2203 H 211.39 -2.90038 0.742873 0
M  V30 2204 H 208.936 -1.39461 0.358688 0
M  V30 2205 H 210.889 -3.95524 -1.45392 0
M  V30 2206 H 209.613 -2.75095 -1.7604 0
M  V30 2207 H 208.272 -3.66217 0.167623 0
M  V30 2208 H 207.92 -4.55034 -2.14366 0
M  V30 2209 H 207.62 -5.80441 -0.914454 0
M  V30 2210 H 209.144 -5.82003 -1.84675 0
M  V30 2211 H 210.558 -5.71742 0.422366 0
M  V30 2212 H 208.955 -5.8805 1.19656 0
M  V30 2213 H 210.025 -4.55045 1.67518 0
M  V30 2214 N 211.368 -0.403325 -1.52352 0
M  V30 2215 C 212.614 0.174605 -2.02047 0
M  V30 2216 C 212.947 1.45282 -1.28867 0
M  V30 2217 O 212.222 1.90483 -0.393257 0
M  V30 2218 C 212.505 0.428238 -3.57545 0
M  V30 2219 C 212.358 -0.866248 -4.4138 0
M  V30 2220 C 213.677 1.21287 -4.23057 0
M  V30 2221 H 210.796 0.0619851 -0.734389 0
M  V30 2222 H 213.438 -0.53565 -1.82293 0
M  V30 2223 H 211.588 1.03327 -3.74507 0
M  V30 2224 H 213.26 -1.50265 -4.3614 0
M  V30 2225 H 211.503 -1.47851 -4.07827 0
M  V30 2226 H 212.174 -0.643249 -5.48239 0
M  V30 2227 H 214.65 0.700703 -4.10158 0
M  V30 2228 H 213.526 1.35909 -5.31808 0
M  V30 2229 H 213.787 2.23193 -3.81625 0
M  V30 2230 N 212.846 1.57033 -0.133567 0
M  V30 2231 C 213.809 2.14897 0.796995 0
M  V30 2232 C 214.809 1.0874 1.18458 0
M  V30 2233 O 215.999 1.34446 1.1077 0
M  V30 2234 C 213.131 2.70112 2.07973 0
M  V30 2235 H 214.324 2.98457 0.293873 0
M  V30 2236 H 211.877 1.55871 0.115787 0
M  V30 2237 H 212.612 1.9018 2.62682 0
M  V30 2238 H 212.397 3.47764 1.81115 0
M  V30 2239 H 213.887 3.14738 2.74462 0
M  V30 2240 N 214.325 -0.140222 1.56975 0
M  V30 2241 C 215.235 -1.19223 2.02047 0
M  V30 2242 C 216.251 -1.46612 0.937062 0
M  V30 2243 O 217.427 -1.58148 1.24704 0
M  V30 2244 C 214.492 -2.50414 2.39778 0
M  V30 2245 C 213.553 -2.30612 3.621 0
M  V30 2246 C 212.786 -3.55547 3.98023 0
M  V30 2247 O 213.009 -4.62004 3.34528 0
M  V30 2248 O 211.943 -3.47808 4.91237 0
M  V30 2249 H 215.769 -0.839559 2.91865 0
M  V30 2250 H 213.354 -0.349453 1.45256 0
M  V30 2251 H 215.236 -3.27747 2.64877 0
M  V30 2252 H 213.911 -2.85198 1.53114 0
M  V30 2253 H 212.818 -1.51207 3.4218 0
M  V30 2254 H 214.151 -2.00741 4.49404 0
M  V30 2255 N 215.803 -1.52179 -0.40978 0
M  V30 2256 C 216.75 -1.75475 -1.49924 0
M  V30 2257 C 217.72 -0.597175 -1.54994 0
M  V30 2258 O 218.905 -0.834655 -1.71575 0
M  V30 2259 C 216.045 -1.9107 -2.87378 0
M  V30 2260 C 215.158 -3.18717 -2.91622 0
M  V30 2261 C 214.293 -3.24747 -4.20372 0
M  V30 2262 C 213.332 -4.46598 -4.18588 0
M  V30 2263 N 212.469 -4.50025 -5.38908 0
M  V30 2264 H 217.309 -2.68458 -1.29361 0
M  V30 2265 H 214.846 -1.33024 -0.627934 0
M  V30 2266 H 216.804 -1.98096 -3.6717 0
M  V30 2267 H 215.434 -1.01469 -3.06437 0
M  V30 2268 H 214.486 -3.20866 -2.04326 0
M  V30 2269 H 215.798 -4.08544 -2.86169 0
M  V30 2270 H 214.952 -3.30841 -5.08556 0
M  V30 2271 H 213.691 -2.32857 -4.28519 0
M  V30 2272 H 212.696 -4.40652 -3.28794 0
M  V30 2273 H 213.921 -5.39783 -4.12081 0
M  V30 2274 H 211.867 -3.61017 -5.47725 0
M  V30 2275 H 211.784 -5.33697 -5.35447 0
M  V30 2276 H 213.052 -4.60347 -6.29048 0
M  V30 2277 N 217.281 0.66697 -1.42791 0
M  V30 2278 C 218.527 1.4291 -1.43891 0
M  V30 2279 C 218.86 1.94114 -0.0578972 0
M  V30 2280 O 218.135 1.71414 0.91911 0
M  V30 2281 C 218.418 2.62049 -2.46987 0
M  V30 2282 C 218.271 2.16426 -3.94309 0
M  V30 2283 C 219.59 3.64266 -2.46978 0
M  V30 2284 H 216.709 0.518306 -0.523954 0
M  V30 2285 H 219.351 0.757321 -1.74255 0
M  V30 2286 H 217.501 3.19361 -2.21225 0
M  V30 2287 H 219.173 1.64221 -4.31079 0
M  V30 2288 H 217.416 1.47925 -4.078 0
M  V30 2289 H 218.087 3.02038 -4.62036 0
M  V30 2290 H 220.563 3.16686 -2.69906 0
M  V30 2291 H 219.439 4.45196 -3.21079 0
M  V30 2292 H 219.7 4.15927 -1.49857 0
M  V30 2293 N 218.759 1.29093 0.90403 0
M  V30 2294 C 219.987 1.19689 1.68766 0
M  V30 2295 C 220.402 -0.243113 1.87228 0
M  V30 2296 O 219.759 -1.16326 1.40621 0
M  V30 2297 C 219.81 1.90144 3.07453 0
M  V30 2298 O 219.531 3.2852 2.89838 0
M  V30 2299 C 221.032 1.87162 4.01852 0
M  V30 2300 H 218.252 0.415035 0.527244 0
M  V30 2301 H 220.796 1.7039 1.13082 0
M  V30 2302 H 218.951 1.43289 3.59926 0
M  V30 2303 H 219.365 3.63944 3.77684 0
M  V30 2304 H 220.839 2.41032 4.96596 0
M  V30 2305 H 221.316 0.84617 4.30972 0
M  V30 2306 H 221.922 2.33741 3.5531 0
M  V30 2307 N 220.237 -1.11381 1.11499 0
M  V30 2308 C 221.483 -1.83403 0.865512 0
M  V30 2309 C 221.816 -1.84459 -0.607329 0
M  V30 2310 O 221.091 -1.29811 -1.44842 0
M  V30 2311 C 221.374 -3.30552 1.42855 0
M  V30 2312 C 221.227 -3.37886 2.96906 0
M  V30 2313 C 222.546 -4.26643 1.08 0
M  V30 2314 H 219.665 -0.665879 0.31587 0
M  V30 2315 H 222.307 -1.30601 1.37998 0
M  V30 2316 H 220.457 -3.75648 0.990985 0
M  V30 2317 H 222.129 -3.01343 3.49271 0
M  V30 2318 H 220.372 -2.78088 3.32941 0
M  V30 2319 H 221.043 -4.41458 3.31389 0
M  V30 2320 H 223.519 -3.89729 1.45775 0
M  V30 2321 H 222.395 -5.27986 1.50072 0
M  V30 2322 H 222.656 -4.42099 -0.00915037 0
M  V30 2323 N 221.715 -0.905404 -1.28997 0
M  V30 2324 C 222.964 -0.530191 -1.94607 0
M  V30 2325 C 223.277 0.929185 -1.72121 0
M  V30 2326 O 224.483 1.41218 -2.31883 0
M  V30 2327 C 222.939 -0.897333 -3.48534 0
M  V30 2328 C 222.547 -2.37587 -3.79811 0
M  V30 2329 C 224.291 -0.592304 -4.20347 0
M  V30 2330 C 222.198 -2.68357 -5.27009 0
M  V30 2331 H 221.128 -0.194558 -0.728466 0
M  V30 2332 H 223.779 -1.10318 -1.46636 0
M  V30 2333 H 222.161 -0.253214 -3.9519 0
M  V30 2334 H 223.335 -3.06602 -3.43994 0
M  V30 2335 H 221.65 -2.6505 -3.2115 0
M  V30 2336 H 224.247 -0.798975 -5.28697 0
M  V30 2337 H 224.59 0.469474 -4.13644 0
M  V30 2338 H 225.123 -1.19452 -3.79442 0
M  V30 2339 H 221.862 -3.73355 -5.38782 0
M  V30 2340 H 221.382 -2.03971 -5.64053 0
M  V30 2341 H 223.061 -2.54922 -5.94663 0
M  V30 2342 N 223.193 1.4272 -0.668489 0
M  V30 2343 C 224.421 2.05966 -0.196348 0
M  V30 2344 C 224.836 1.50191 1.14403 0
M  V30 2345 O 224.193 0.639208 1.7094 0
M  V30 2346 C 224.244 3.61314 -0.115815 0
M  V30 2347 O 223.965 4.1502 -1.40322 0
M  V30 2348 C 225.466 4.41663 0.380579 0
M  V30 2349 H 222.686 0.663954 -0.0969829 0
M  V30 2350 H 225.23 1.82966 -0.913446 0
M  V30 2351 H 223.385 3.83448 0.551931 0
M  V30 2352 H 223.799 5.08832 -1.27243 0
M  V30 2353 H 225.273 5.5065 0.385848 0
M  V30 2354 H 225.75 4.15792 1.41471 0
M  V30 2355 H 226.356 4.24534 -0.255209 0
M  V30 2356 N 224.671 0.411399 1.52136 0
M  V30 2357 C 225.618 -0.412975 2.27075 0
M  V30 2358 C 226.588 -1.03912 1.29582 0
M  V30 2359 O 227.773 -1.06296 1.58448 0
M  V30 2360 C 224.913 -1.52247 3.09701 0
M  V30 2361 C 224.026 -0.917021 4.22155 0
M  V30 2362 C 223.161 -1.9994 4.92135 0
M  V30 2363 C 222.2 -1.37101 5.96548 0
M  V30 2364 N 221.337 -2.39364 6.60038 0
M  V30 2365 H 226.177 0.232499 2.97092 0
M  V30 2366 H 223.714 0.126496 1.46555 0
M  V30 2367 H 225.672 -2.17674 3.55913 0
M  V30 2368 H 224.302 -2.13794 2.41851 0
M  V30 2369 H 223.354 -0.151742 3.80097 0
M  V30 2370 H 224.666 -0.418006 4.97045 0
M  V30 2371 H 223.82 -2.73088 5.41763 0
M  V30 2372 H 222.559 -2.53208 4.16818 0
M  V30 2373 H 221.564 -0.624873 5.46237 0
M  V30 2374 H 222.789 -0.845998 6.7381 0
M  V30 2375 H 220.735 -2.91759 5.87548 0
M  V30 2376 H 220.652 -1.9428 7.3061 0
M  V30 2377 H 221.92 -3.12074 7.14304 0
M  V30 2378 N 226.149 -1.5696 0.141893 0
M  V30 2379 C 227.099 -2.13074 -0.811383 0
M  V30 2380 C 228.083 -1.05726 -1.21288 0
M  V30 2381 O 229.275 -1.31914 -1.18015 0
M  V30 2382 C 226.404 -2.75186 -2.0525 0
M  V30 2383 C 225.49 -3.8965 -1.67432 0
M  V30 2384 N 225.881 -4.95733 -1.0041 0
M  V30 2385 C 224.179 -4.00262 -1.96739 0
M  V30 2386 C 224.88 -5.75858 -0.822345 0
M  V30 2387 N 223.856 -5.26452 -1.3546 0
M  V30 2388 H 227.658 -2.92465 -0.290031 0
M  V30 2389 H 225.172 -1.6229 -0.0598218 0
M  V30 2390 H 227.169 -3.13745 -2.74535 0
M  V30 2391 H 225.829 -1.97266 -2.57907 0
M  V30 2392 H 226.84 -5.13607 -0.665441 0
M  V30 2393 H 223.517 -3.33412 -2.51282 0
M  V30 2394 H 224.907 -6.71254 -0.294496 0
M  V30 2395 N 227.627 0.131896 -1.57047 0
M  V30 2396 C 228.575 1.18146 -2.0036 0
M  V30 2397 C 229.569 1.43614 -0.898406 0
M  V30 2398 O 230.775 1.43729 -1.08361 0
M  V30 2399 H 227.15 0.398042 -0.638018 0
M  V30 2400 H 229.121 0.789564 -2.87765 0
M  V30 2401 C 227.87 2.50341 -2.41298 0
M  V30 2402 H 227.193 2.31578 -3.25902 0
M  V30 2403 H 228.633 3.22371 -2.75414 0
M  V30 2404 C 227.092 3.11984 -1.27153 0
M  V30 2405 O 227.622 3.97484 -0.580459 0
M  V30 2406 N 225.828 2.71662 -1.03189 0
M  V30 2407 H 225.375 2.02231 -1.59564 0
M  V30 2408 H 225.333 3.13238 -0.270077 0
M  V30 2409 N 229.106 1.52395 0.401703 0
M  V30 2410 C 230.383 1.57387 1.16141 0
M  V30 2411 C 230.763 0.359359 2.08019 0
M  V30 2412 O 230.111 -0.65326 2.18963 0
M  V30 2413 C 230.321 2.90631 1.93221 0
M  V30 2414 C 231.669 3.43904 2.49028 0
M  V30 2415 O 232.693 2.92421 2.03393 0
M  V30 2416 O 231.552 4.33823 3.32356 0
M  V30 2417 H 228.646 0.634262 0.530698 0
M  V30 2418 H 231.192 1.64725 0.407883 0
M  V30 2419 H 229.964 3.70473 1.25958 0
M  V30 2420 H 229.587 2.8662 2.75563 0
M  V30 2421 N 230.584 -0.659388 1.43143 0
M  V30 2422 C 231.861 -1.41627 1.34912 0
M  V30 2423 C 232.241 -2.11099 -0.00607785 0
M  V30 2424 O 231.589 -2.04353 -1.02236 0
M  V30 2425 C 231.799 -2.40604 2.52805 0
M  V30 2426 C 233.147 -3.04789 2.95616 0
M  V30 2427 O 234.171 -2.50932 2.52807 0
M  V30 2428 O 233.03 -4.02421 3.69756 0
M  V30 2429 H 230.124 -0.63246 0.532844 0
M  V30 2430 H 232.67 -0.686814 1.5518 0
M  V30 2431 H 231.442 -1.88174 3.43083 0
M  V30 2432 H 231.065 -3.21009 2.34604 0
M  V30 2433 N 232.062 -1.29571 -0.897171 0
M  V30 2434 C 232.972 -1.16808 -2.03453 0
M  V30 2435 C 233.988 -0.0907471 -1.73763 0
M  V30 2436 O 235.164 -0.303312 -1.99103 0
M  V30 2437 C 232.229 -0.848264 -3.36163 0
M  V30 2438 C 231.29 -2.0097 -3.79354 0
M  V30 2439 C 230.523 -1.70505 -5.05731 0
M  V30 2440 O 230.746 -0.62718 -5.66941 0
M  V30 2441 O 229.68 -2.5538 -5.45036 0
M  V30 2442 H 233.506 -2.12325 -2.17144 0
M  V30 2443 H 231.091 -1.09047 -1.02123 0
M  V30 2444 H 232.973 -0.684581 -4.15802 0
M  V30 2445 H 231.648 0.0771071 -3.23608 0
M  V30 2446 H 230.555 -2.22863 -3.00471 0
M  V30 2447 H 231.888 -2.91636 -3.96496 0
M  V30 2448 N 233.54 1.10788 -1.12088 0
M  V30 2449 C 234.472 2.16816 -0.743213 0
M  V30 2450 C 235.485 1.6119 0.228412 0
M  V30 2451 O 236.674 1.78497 0.0102931 0
M  V30 2452 C 233.774 3.38809 -0.0787313 0
M  V30 2453 C 232.947 4.23885 -1.0789 0
M  V30 2454 C 232.006 5.24334 -0.442713 0
M  V30 2455 O 231.032 5.58497 -1.09864 0
M  V30 2456 N 232.234 5.75079 0.791457 0
M  V30 2457 H 234.999 2.49825 -1.65552 0
M  V30 2458 H 232.56 1.26373 -1.012 0
M  V30 2459 H 234.552 4.03107 0.358766 0
M  V30 2460 H 233.122 3.03805 0.736275 0
M  V30 2461 H 232.342 3.55939 -1.69414 0
M  V30 2462 H 233.63 4.77562 -1.75533 0
M  V30 2463 H 233.028 5.49517 1.3434 0
M  V30 2464 H 231.585 6.4118 1.17183 0
M  V30 2465 N 235.018 0.912232 1.28515 0
M  V30 2466 C 236.248 0.559604 1.98877 0
M  V30 2467 C 236.656 -0.863113 1.68366 0
M  V30 2468 O 235.999 -1.58304 0.931969 0
M  V30 2469 C 236.061 0.68703 3.52874 0
M  V30 2470 C 235.725 2.07901 4.06972 0
M  V30 2471 C 236.722 3.05157 4.20922 0
M  V30 2472 C 234.407 2.39178 4.417 0
M  V30 2473 C 236.401 4.31806 4.68852 0
M  V30 2474 C 234.088 3.66068 4.89324 0
M  V30 2475 C 235.086 4.62195 5.02856 0
M  V30 2476 O 234.774 5.86829 5.49442 0
M  V30 2477 H 234.506 0.212191 0.641834 0
M  V30 2478 H 237.06 1.22712 1.64715 0
M  V30 2479 H 235.29 -0.0375486 3.86682 0
M  V30 2480 H 236.979 0.341727 4.04459 0
M  V30 2481 H 237.745 2.82311 3.94367 0
M  V30 2482 H 233.624 1.65109 4.30418 0
M  V30 2483 H 237.168 5.06842 4.79329 0
M  V30 2484 H 233.065 3.88739 5.15318 0
M  V30 2485 H 233.833 5.89597 5.6773 0
M  V30 2486 N 236.496 -1.42363 0.676048 0
M  V30 2487 C 237.459 -2.29199 0.00766941 0
M  V30 2488 C 238.459 -1.43389 -0.727745 0
M  V30 2489 O 239.649 -1.64764 -0.56556 0
M  V30 2490 C 236.781 -3.2591 -0.999785 0
M  V30 2491 H 237.974 -2.89794 0.771988 0
M  V30 2492 H 235.527 -1.50024 0.438468 0
M  V30 2493 H 236.262 -2.70256 -1.79255 0
M  V30 2494 H 236.047 -3.89202 -0.475829 0
M  V30 2495 H 237.537 -3.91028 -1.46583 0
M  V30 2496 N 237.974 -0.419461 -1.51915 0
M  V30 2497 C 239.22 0.145505 -2.02879 0
M  V30 2498 C 239.575 1.41926 -1.29903 0
M  V30 2499 O 238.868 1.87383 -0.399782 0
M  V30 2500 C 239.062 0.437067 -3.54717 0
M  V30 2501 C 238.891 -0.806877 -4.42402 0
M  V30 2502 C 237.661 -1.33514 -4.87342 0
M  V30 2503 C 239.859 -1.68796 -4.85811 0
M  V30 2504 N 237.841 -2.53349 -5.59185 0
M  V30 2505 C 239.212 -2.73247 -5.56539 0
M  V30 2506 C 241.267 -1.70449 -4.67816 0
M  V30 2507 C 239.97 -3.79276 -6.11181 0
M  V30 2508 C 241.996 -2.75403 -5.23361 0
M  V30 2509 C 241.358 -3.78575 -5.9402 0
M  V30 2510 H 237.457 0.0145424 -0.781865 0
M  V30 2511 H 240.041 -0.576126 -1.85981 0
M  V30 2512 H 238.212 1.12774 -3.71667 0
M  V30 2513 H 239.944 0.99182 -3.92358 0
M  V30 2514 H 236.699 -0.891657 -4.65131 0
M  V30 2515 H 237.123 -3.14066 -5.99743 0
M  V30 2516 H 241.765 -0.920209 -4.12664 0
M  V30 2517 H 239.483 -4.58554 -6.65397 0
M  V30 2518 H 243.069 -2.77603 -5.113 0
M  V30 2519 H 241.949 -4.58453 -6.36231 0
M  V30 2520 N 239.452 1.56882 -0.150215 0
M  V30 2521 C 240.362 2.20494 0.801222 0
M  V30 2522 C 241.378 1.19019 1.26927 0
M  V30 2523 O 242.554 1.51607 1.32579 0
M  V30 2524 C 239.619 2.81659 2.02161 0
M  V30 2525 C 238.68 3.9827 1.60249 0
M  V30 2526 C 237.913 4.56508 2.7647 0
M  V30 2527 O 238.136 4.13627 3.92771 0
M  V30 2528 O 237.07 5.46719 2.51757 0
M  V30 2529 H 240.896 3.02315 0.289717 0
M  V30 2530 H 238.481 1.49202 0.0769684 0
M  V30 2531 H 240.363 3.20522 2.73576 0
M  V30 2532 H 239.038 2.02849 2.52258 0
M  V30 2533 H 237.945 3.64117 0.858477 0
M  V30 2534 H 239.278 4.78609 1.14864 0
M  V30 2535 N 240.93 -0.123565 1.57115 0
M  V30 2536 C 242.155 -0.850398 1.89164 0
M  V30 2537 C 242.58 -1.7286 0.741688 0
M  V30 2538 O 241.938 -1.78665 -0.307958 0
M  V30 2539 C 241.986 -1.66353 3.19936 0
M  V30 2540 O 241.09 -2.77004 3.0552 0
M  V30 2541 H 240.431 -0.235454 0.620852 0
M  V30 2542 H 242.961 -0.107335 2.04318 0
M  V30 2543 H 242.971 -2.05372 3.52543 0
M  V30 2544 H 241.646 -1.01881 4.03228 0
M  V30 2545 H 240.223 -2.41221 2.84371 0
M  V30 2546 N 242.408 -1.52605 -0.393616 0
M  V30 2547 C 243.633 -1.71592 -1.16495 0
M  V30 2548 C 244.058 -0.43133 -1.83088 0
M  V30 2549 O 243.416 0.612523 -1.7064 0
M  V30 2550 C 243.464 -2.86318 -2.19213 0
M  V30 2551 O 242.568 -2.52969 -3.257 0
M  V30 2552 H 241.909 -0.570734 -0.33935 0
M  V30 2553 H 244.439 -1.99377 -0.459324 0
M  V30 2554 H 244.449 -3.1168 -2.63286 0
M  V30 2555 H 243.124 -3.79511 -1.7013 0
M  V30 2556 H 241.701 -2.38332 -2.86797 0
M  V30 2557 N 243.887 0.651787 -1.4349 0
M  V30 2558 C 244.85 1.74647 -1.48429 0
M  V30 2559 C 245.85 1.56513 -0.368817 0
M  V30 2560 O 247.04 1.62385 -0.630623 0
M  V30 2561 C 244.172 3.13533 -1.33827 0
M  V30 2562 H 245.365 1.71649 -2.4592 0
M  V30 2563 H 242.918 0.863573 -1.30277 0
M  V30 2564 H 243.653 3.22142 -0.37349 0
M  V30 2565 H 243.438 3.28101 -2.14691 0
M  V30 2566 H 244.928 3.93356 -1.40218 0
M  V30 2567 N 245.365 1.30045 0.890287 0
M  V30 2568 C 246.613 1.18327 1.63839 0
M  V30 2569 C 246.934 -0.263455 1.93212 0
M  V30 2570 O 246.204 -1.17856 1.56482 0
M  V30 2571 H 244.784 0.434933 0.607324 0
M  V30 2572 H 247.446 1.631 1.06698 0
M  V30 2573 H 246.542 1.74024 2.59079 0
M  V30 2574 N 246.843 -1.10192 1.12674 0
M  V30 2575 C 248.091 -1.81845 0.881861 0
M  V30 2576 C 248.412 -1.85737 -0.593867 0
M  V30 2577 O 247.682 -1.33724 -1.4316 0
M  V30 2578 H 246.262 -0.673432 0.323261 0
M  V30 2579 H 248.924 -1.33316 1.42172 0
M  V30 2580 H 248.02 -2.85288 1.2656 0
M  V30 2581 N 248.321 -0.919034 -1.28029 0
M  V30 2582 C 249.546 -0.570357 -1.99403 0
M  V30 2583 C 249.971 0.842486 -1.68178 0
M  V30 2584 O 249.329 1.56391 -0.917141 0
M  V30 2585 C 249.377 -0.792541 -3.51783 0
M  V30 2586 O 248.481 0.145988 -4.12142 0
M  V30 2587 H 247.822 -0.220555 -0.6263 0
M  V30 2588 H 250.352 -1.23592 -1.63053 0
M  V30 2589 H 250.362 -0.704708 -4.01868 0
M  V30 2590 H 249.037 -1.82247 -3.73844 0
M  V30 2591 H 247.614 0.00897528 -3.72899 0
M  V30 2592 N 249.799 1.42003 -0.683588 0
M  V30 2593 C 251.046 2.01413 -0.209514 0
M  V30 2594 C 251.374 1.54088 1.1869 0
M  V30 2595 O 250.629 0.737591 1.81268 0
M  V30 2596 C 250.928 3.56827 -0.202357 0
M  V30 2597 C 250.594 4.23617 -1.54464 0
M  V30 2598 C 249.256 4.41577 -1.91215 0
M  V30 2599 C 251.608 4.61178 -2.42826 0
M  V30 2600 C 248.936 4.9437 -3.15935 0
M  V30 2601 C 251.288 5.15355 -3.66867 0
M  V30 2602 C 249.952 5.31528 -4.03776 0
M  V30 2603 H 249.222 0.737023 -0.0766668 0
M  V30 2604 H 251.869 1.70067 -0.880312 0
M  V30 2605 H 250.174 3.87892 0.551969 0
M  V30 2606 H 251.871 4.00588 0.181793 0
M  V30 2607 H 248.461 4.10004 -1.24877 0
M  V30 2608 H 252.645 4.46968 -2.15717 0
M  V30 2609 H 247.901 5.05076 -3.44541 0
M  V30 2610 H 252.075 5.43402 -4.35531 0
M  V30 2611 H 249.702 5.72199 -5.00492 0
M  V30 2612 N 251.277 0.427512 1.51691 0
M  V30 2613 C 252.505 -0.141191 2.06418 0
M  V30 2614 C 252.92 -1.37303 1.29589 0
M  V30 2615 O 252.277 -1.79059 0.352732 0
M  V30 2616 C 252.328 -0.473266 3.58389 0
M  V30 2617 O 252.049 0.709673 4.32314 0
M  V30 2618 C 253.55 -1.09371 4.29596 0
M  V30 2619 H 250.77 -0.0122747 0.670888 0
M  V30 2620 H 253.314 0.603764 1.95384 0
M  V30 2621 H 251.469 -1.16812 3.69369 0
M  V30 2622 H 251.883 0.42807 5.2275 0
M  V30 2623 H 253.357 -1.27613 5.37046 0
M  V30 2624 H 253.834 -2.072 3.87253 0
M  V30 2625 H 254.44 -0.43853 4.23033 0
M  V30 2626 N 252.755 -1.56801 0.158532 0
M  V30 2627 C 254.001 -1.96781 -0.490405 0
M  V30 2628 C 254.334 -1.04397 -1.63753 0
M  V30 2629 O 253.609 -0.0885805 -1.94298 0
M  V30 2630 C 253.892 -3.4635 -0.985594 0
M  V30 2631 C 253.745 -4.49512 0.160824 0
M  V30 2632 C 255.064 -3.98697 -1.86355 0
M  V30 2633 H 252.183 -0.715482 -0.176788 0
M  V30 2634 H 254.825 -1.88451 0.242088 0
M  V30 2635 H 252.975 -3.53579 -1.60978 0
M  V30 2636 H 254.647 -4.54353 0.797537 0
M  V30 2637 H 252.89 -4.26013 0.818256 0
M  V30 2638 H 253.561 -5.51531 -0.227569 0
M  V30 2639 H 256.037 -3.94019 -1.33746 0
M  V30 2640 H 254.913 -5.03792 -2.17909 0
M  V30 2641 H 255.174 -3.41744 -2.8047 0
M  V30 2642 N 254.233 0.115231 -1.57178 0
M  V30 2643 C 255.649 0.468877 -1.52557 0
M  V30 2644 C 255.849 1.81649 -0.872125 0
M  V30 2645 O 254.905 2.48347 -0.45606 0
M  V30 2646 C 256.218 0.4499 -2.97315 0
M  V30 2647 C 257.766 0.533185 -3.08425 0
M  V30 2648 C 258.241 0.54456 -4.54751 0
M  V30 2649 N 259.732 0.605892 -4.5922 0
M  V30 2650 C 260.467 0.636203 -5.6986 0
M  V30 2651 N 259.963 0.623931 -6.89985 0
M  V30 2652 N 261.756 0.679496 -5.57978 0
M  V30 2653 H 253.907 -0.767712 -1.9804 0
M  V30 2654 H 256.17 -0.283609 -0.904583 0
M  V30 2655 H 255.876 -0.472721 -3.48509 0
M  V30 2656 H 255.75 1.27632 -3.5495 0
M  V30 2657 H 258.137 1.44623 -2.57232 0
M  V30 2658 H 258.218 -0.320995 -2.53778 0
M  V30 2659 H 257.862 -0.364452 -5.06591 0
M  V30 2660 H 257.792 1.41568 -5.07214 0
M  V30 2661 H 260.283 0.621386 -3.72756 0
M  V30 2662 H 260.596 0.649787 -7.70063 0
M  V30 2663 H 258.941 0.591296 -6.9248 0
M  V30 2664 H 262.132 0.686472 -4.63039 0
M  V30 2665 H 262.305 0.69965 -6.44212 0
M  V30 2666 N 255.711 1.52812 0.385517 0
M  V30 2667 C 256.939 1.71907 1.15133 0
M  V30 2668 C 257.354 0.439004 1.83625 0
M  V30 2669 O 256.711 -0.586765 1.7281 0
M  V30 2670 C 256.762 2.87099 2.19673 0
M  V30 2671 O 256.483 4.10151 1.53973 0
M  V30 2672 C 257.984 3.17902 3.08955 0
M  V30 2673 H 255.204 0.575479 0.345057 0
M  V30 2674 H 257.748 1.99476 0.45052 0
M  V30 2675 H 255.903 2.61982 2.85384 0
M  V30 2676 H 256.317 4.74514 2.23465 0
M  V30 2677 H 257.791 4.01959 3.7833 0
M  V30 2678 H 258.268 2.3243 3.72657 0
M  V30 2679 H 258.874 3.44871 2.48885 0
M  V30 2680 N 257.189 -0.644168 1.43834 0
M  V30 2681 C 258.466 -1.40188 1.36406 0
M  V30 2682 C 258.846 -2.11094 0.0163124 0
M  V30 2683 O 258.194 -2.05426 -1.00062 0
M  V30 2684 C 258.404 -2.3791 2.55343 0
M  V30 2685 C 259.752 -3.01637 2.98832 0
M  V30 2686 O 260.776 -2.48237 2.55455 0
M  V30 2687 O 259.635 -3.98477 3.74003 0
M  V30 2688 H 256.729 -0.626773 0.539523 0
M  V30 2689 H 259.275 -0.670317 1.559 0
M  V30 2690 H 258.047 -1.84525 3.4506 0
M  V30 2691 H 257.67 -3.18503 2.37995 0
M  V30 2692 N 258.668 -1.30515 -0.883378 0
M  V30 2693 C 259.896 -1.22359 -1.66841 0
M  V30 2694 C 260.311 0.213296 -1.87591 0
M  V30 2695 O 259.668 1.14075 -1.42454 0
M  V30 2696 C 259.719 -1.95011 -3.04389 0
M  V30 2697 O 259.44 -3.3309 -2.84575 0
M  V30 2698 C 260.941 -1.93532 -3.98824 0
M  V30 2699 H 258.161 -0.423371 -0.520575 0
M  V30 2700 H 260.705 -1.72167 -1.10357 0
M  V30 2701 H 258.86 -1.48997 -3.57601 0
M  V30 2702 H 259.274 -3.69907 -3.71846 0
M  V30 2703 H 260.748 -2.48902 -4.92699 0
M  V30 2704 H 261.225 -0.914627 -4.29571 0
M  V30 2705 H 261.831 -2.39364 -3.51547 0
M  V30 2706 N 260.146 1.09593 -1.13257 0
M  V30 2707 C 261.394 1.81375 -0.891492 0
M  V30 2708 C 261.715 1.86049 0.584009 0
M  V30 2709 O 260.985 1.34481 1.42449 0
M  V30 2710 H 259.565 0.671708 -0.326828 0
M  V30 2711 H 262.227 1.3256 -1.42877 0
M  V30 2712 H 261.323 2.84612 -1.28071 0
M  V30 2713 N 261.624 0.925811 1.2754 0
M  V30 2714 C 262.534 0.428993 2.30644 0
M  V30 2715 C 263.55 -0.489387 1.66976 0
M  V30 2716 O 264.726 -0.372653 1.97922 0
M  V30 2717 C 261.791 -0.311967 3.45294 0
M  V30 2718 C 260.852 0.641098 4.24486 0
M  V30 2719 C 260.085 -0.0645955 5.33661 0
M  V30 2720 O 260.308 -1.28429 5.55754 0
M  V30 2721 O 259.242 0.606265 5.98839 0
M  V30 2722 H 263.068 1.28504 2.75173 0
M  V30 2723 H 260.653 0.691086 1.32455 0
M  V30 2724 H 262.535 -0.729972 4.15029 0
M  V30 2725 H 261.21 -1.14365 3.02824 0
M  V30 2726 H 260.117 1.10874 3.57292 0
M  V30 2727 H 261.45 1.43995 4.70666 0
M  V30 2728 N 263.102 -1.41638 0.69111 0
M  V30 2729 C 264.513 -1.84346 0.295517 0
M  V30 2730 C 264.864 -1.57833 -1.16547 0
M  V30 2731 O 263.989 -1.04648 -1.89414 0
M  V30 2732 C 264.584 -3.34636 0.529575 0
M  V30 2733 C 263.143 -3.7593 0.187944 0
M  V30 2734 C 262.29 -2.65082 0.814052 0
M  V30 2735 H 265.241 -1.31253 0.892092 0
M  V30 2736 H 265.262 -3.79903 -0.213148 0
M  V30 2737 H 264.774 -3.53901 1.59297 0
M  V30 2738 H 262.875 -3.62268 -0.871367 0
M  V30 2739 H 262.988 -4.74808 0.63985 0
M  V30 2740 H 261.352 -2.53528 0.244017 0
M  V30 2741 H 262.135 -2.87167 1.88123 0
M  V30 2742 N 264.58 -0.43555 -1.51462 0
M  V30 2743 C 265.513 0.421989 -2.24264 0
M  V30 2744 C 266.491 1.02619 -1.26127 0
M  V30 2745 O 267.675 1.069 -1.55257 0
M  V30 2746 C 264.802 1.588 -2.99166 0
M  V30 2747 C 263.848 1.10465 -4.11946 0
M  V30 2748 S 264.681 0.048146 -5.35478 0
M  V30 2749 C 265.837 1.21887 -6.13917 0
M  V30 2750 H 266.07 -0.196102 -2.96653 0
M  V30 2751 H 263.603 -0.220054 -1.52824 0
M  V30 2752 H 265.561 2.25647 -3.42919 0
M  V30 2753 H 264.222 2.1775 -2.26371 0
M  V30 2754 H 263.415 1.97654 -4.63626 0
M  V30 2755 H 263.017 0.51445 -3.70445 0
M  V30 2756 H 265.309 2.13756 -6.42895 0
M  V30 2757 H 266.252 0.742076 -7.04201 0
M  V30 2758 H 266.66 1.45663 -5.45383 0
M  V30 2759 N 266.058 1.56714 -0.166846 0
M  V30 2760 C 267.306 1.96358 0.478305 0
M  V30 2761 C 267.627 1.0537 1.6408 0
M  V30 2762 O 266.897 0.119154 1.95537 0
M  V30 2763 H 265.477 0.725065 0.179692 0
M  V30 2764 H 268.139 1.93329 -0.246985 0
M  V30 2765 H 267.235 3.00547 0.841292 0
M  V30 2766 N 267.536 -0.106894 1.57237 0
M  V30 2767 C 268.952 -0.46078 1.52804 0
M  V30 2768 C 269.152 -1.81184 0.881746 0
M  V30 2769 O 268.208 -2.48102 0.469224 0
M  V30 2770 C 269.521 -0.434127 2.9755 0
M  V30 2771 C 271.069 -0.516821 3.08704 0
M  V30 2772 C 271.544 -0.520436 4.55033 0
M  V30 2773 N 273.035 -0.58153 4.59535 0
M  V30 2774 C 273.77 -0.605973 5.70189 0
M  V30 2775 N 273.266 -0.587331 6.90306 0
M  V30 2776 N 275.059 -0.649895 5.5833 0
M  V30 2777 H 267.21 0.778203 1.9763 0
M  V30 2778 H 269.473 0.288403 0.903066 0
M  V30 2779 H 269.179 0.491197 3.48253 0
M  V30 2780 H 269.053 -1.25748 3.55622 0
M  V30 2781 H 271.44 -1.43256 2.57995 0
M  V30 2782 H 271.521 0.334449 2.53604 0
M  V30 2783 H 271.165 0.391313 5.0639 0
M  V30 2784 H 271.095 -1.38876 5.07958 0
M  V30 2785 H 273.586 -0.60161 3.73081 0
M  V30 2786 H 273.899 -0.60894 7.70397 0
M  V30 2787 H 272.244 -0.554564 6.92784 0
M  V30 2788 H 275.435 -0.661907 4.63397 0
M  V30 2789 H 275.608 -0.665476 6.44574 0
M  V30 2790 N 269.014 -1.53014 -0.377408 0
M  V30 2791 C 270.262 -1.6829 -1.11906 0
M  V30 2792 C 270.583 -0.431206 -1.90173 0
M  V30 2793 O 269.853 0.554595 -1.87886 0
M  V30 2794 H 268.433 -0.620371 -0.416112 0
M  V30 2795 H 271.095 -1.90167 -0.426893 0
M  V30 2796 H 270.191 -2.53862 -1.8155 0
M  V30 2797 N 270.492 0.636531 -1.44174 0
M  V30 2798 C 271.72 1.42353 -1.50144 0
M  V30 2799 C 272.135 1.88389 -0.124575 0
M  V30 2800 O 271.492 1.6051 0.868489 0
M  V30 2801 C 271.543 2.64744 -2.46156 0
M  V30 2802 O 271.264 2.20629 -3.7849 0
M  V30 2803 C 272.765 3.57929 -2.61537 0
M  V30 2804 H 269.985 0.436752 -0.5094 0
M  V30 2805 H 272.529 0.778933 -1.89084 0
M  V30 2806 H 270.684 3.25307 -2.10366 0
M  V30 2807 H 271.098 2.99938 -4.30276 0
M  V30 2808 H 272.572 4.40428 -3.32757 0
M  V30 2809 H 273.049 4.06382 -1.66585 0
M  V30 2810 H 273.655 3.03238 -2.98206 0
M  V30 2811 N 271.97 1.30982 0.876444 0
M  V30 2812 C 272.917 1.18085 1.98304 0
M  V30 2813 C 273.887 0.0682263 1.6596 0
M  V30 2814 O 275.072 0.239937 1.89285 0
M  V30 2815 C 272.212 0.887475 3.33493 0
M  V30 2816 C 271.325 2.08281 3.78475 0
M  V30 2817 C 270.46 1.72678 5.0235 0
M  V30 2818 C 269.499 2.88657 5.39762 0
M  V30 2819 N 268.636 2.53292 6.54819 0
M  V30 2820 H 273.476 2.1275 2.08666 0
M  V30 2821 H 271.013 1.05839 1.02159 0
M  V30 2822 H 272.971 0.697961 4.1132 0
M  V30 2823 H 271.601 -0.022315 3.22792 0
M  V30 2824 H 270.653 2.3833 2.96484 0
M  V30 2825 H 271.965 2.95108 4.02135 0
M  V30 2826 H 271.119 1.50151 5.87826 0
M  V30 2827 H 269.858 0.830327 4.8058 0
M  V30 2828 H 268.863 3.1184 4.52809 0
M  V30 2829 H 270.088 3.79002 5.63502 0
M  V30 2830 H 268.034 1.66163 6.34607 0
M  V30 2831 H 267.951 3.3365 6.7839 0
M  V30 2832 H 269.219 2.34143 7.43503 0
M  V30 2833 N 273.449 -1.08991 1.13837 0
M  V30 2834 C 274.695 -1.81526 0.90422 0
M  V30 2835 C 275.028 -1.85706 -0.568066 0
M  V30 2836 O 274.303 -1.32855 -1.42056 0
M  V30 2837 C 274.586 -3.27447 1.49835 0
M  V30 2838 C 274.439 -3.31512 3.04006 0
M  V30 2839 C 275.758 -4.24256 1.17025 0
M  V30 2840 H 272.877 -0.659029 0.329923 0
M  V30 2841 H 275.519 -1.27644 1.40737 0
M  V30 2842 H 273.669 -3.73462 1.07044 0
M  V30 2843 H 275.341 -2.93867 3.55584 0
M  V30 2844 H 273.584 -2.70963 3.38765 0
M  V30 2845 H 274.255 -4.34329 3.40679 0
M  V30 2846 H 276.731 -3.86549 1.54009 0
M  V30 2847 H 275.607 -5.24684 1.61237 0
M  V30 2848 H 275.868 -4.42019 0.0846274 0
M  V30 2849 N 274.927 -0.932562 -1.27047 0
M  V30 2850 C 276.176 -0.571351 -1.93439 0
M  V30 2851 C 276.489 0.892467 -1.74053 0
M  V30 2852 O 277.695 1.36267 -2.34826 0
M  V30 2853 C 276.151 -0.97106 -3.46552 0
M  V30 2854 C 275.759 -2.4559 -3.74686 0
M  V30 2855 C 277.503 -0.681333 -4.18997 0
M  V30 2856 C 275.41 -2.79475 -5.21198 0
M  V30 2857 H 274.34 -0.209966 -0.724176 0
M  V30 2858 H 276.991 -1.13403 -1.44263 0
M  V30 2859 H 275.373 -0.336983 -3.94564 0
M  V30 2860 H 276.547 -3.13829 -3.37414 0
M  V30 2861 H 274.862 -2.71802 -3.15456 0
M  V30 2862 H 277.459 -0.910939 -5.26883 0
M  V30 2863 H 277.802 0.381628 -4.14547 0
M  V30 2864 H 278.335 -1.27473 -3.76823 0
M  V30 2865 H 275.074 -3.847 -5.30741 0
M  V30 2866 H 274.594 -2.1589 -5.596 0
M  V30 2867 H 276.273 -2.67478 -5.89122 0
M  V30 2868 N 276.405 1.4127 -0.698611 0
M  V30 2869 C 277.335 2.33447 -0.049629 0
M  V30 2870 C 278.316 1.51982 0.763898 0
M  V30 2871 O 279.501 1.80509 0.716257 0
M  V30 2872 C 276.631 3.35828 0.885267 0
M  V30 2873 C 275.585 4.27627 0.178613 0
M  V30 2874 C 274.911 5.20406 1.22807 0
M  V30 2875 C 276.211 5.13459 -0.956933 0
M  V30 2876 H 277.905 2.87966 -0.81951 0
M  V30 2877 H 275.451 1.38461 -0.395538 0
M  V30 2878 H 277.404 3.9924 1.34854 0
M  V30 2879 H 276.128 2.79666 1.68685 0
M  V30 2880 H 274.787 3.65643 -0.26466 0
M  V30 2881 H 274.435 4.60558 2.02226 0
M  V30 2882 H 274.135 5.82661 0.760239 0
M  V30 2883 H 275.659 5.86695 1.69179 0
M  V30 2884 H 277.073 5.70421 -0.573805 0
M  V30 2885 H 275.47 5.8467 -1.35205 0
M  V30 2886 H 276.54 4.50443 -1.79524 0
M  V30 2887 N 277.883 0.443576 1.51229 0
M  V30 2888 C 278.833 -0.382787 2.24764 0
M  V30 2889 C 279.817 -0.984836 1.27239 0
M  V30 2890 O 281.009 -0.901943 1.52296 0
M  V30 2891 C 278.138 -1.47989 3.09765 0
M  V30 2892 C 277.224 -0.886931 4.14722 0
M  V30 2893 N 277.615 -0.0237103 5.05794 0
M  V30 2894 C 275.913 -1.15385 4.30816 0
M  V30 2895 C 276.614 0.309971 5.80874 0
M  V30 2896 N 275.59 -0.307989 5.42727 0
M  V30 2897 H 279.392 0.282624 2.92538 0
M  V30 2898 H 276.906 0.256027 1.60369 0
M  V30 2899 H 278.903 -2.08482 3.61027 0
M  V30 2900 H 277.563 -2.14758 2.43535 0
M  V30 2901 H 278.574 0.34318 5.16762 0
M  V30 2902 H 275.251 -1.81857 3.75812 0
M  V30 2903 H 276.641 1.01279 6.64223 0
M  V30 2904 N 279.361 -1.56624 0.175154 0
M  V30 2905 C 280.291 -2.21155 -0.749195 0
M  V30 2906 C 281.272 -1.16836 -1.23626 0
M  V30 2907 O 282.457 -1.45277 -1.28873 0
M  V30 2908 C 279.587 -2.8553 -1.97711 0
M  V30 2909 C 278.541 -3.95921 -1.62575 0
M  V30 2910 C 277.867 -4.47365 -2.92864 0
M  V30 2911 C 279.167 -5.15323 -0.850838 0
M  V30 2912 H 280.861 -2.98653 -0.211295 0
M  V30 2913 H 278.407 -1.43651 -0.100188 0
M  V30 2914 H 280.36 -3.2935 -2.62881 0
M  V30 2915 H 279.084 -2.05406 -2.53921 0
M  V30 2916 H 277.743 -3.52762 -0.997719 0
M  V30 2917 H 277.391 -3.64027 -3.47122 0
M  V30 2918 H 277.091 -5.21839 -2.70106 0
M  V30 2919 H 278.615 -4.93873 -3.59056 0
M  V30 2920 H 280.029 -5.55812 -1.40521 0
M  V30 2921 H 278.426 -5.95739 -0.722154 0
M  V30 2922 H 279.496 -4.84661 0.152082 0
M  V30 2923 N 280.839 0.0985539 -1.57292 0
M  V30 2924 C 281.786 1.11981 -2.01814 0
M  V30 2925 C 282.756 1.39999 -0.89384 0
M  V30 2926 O 283.941 1.5152 -1.15958 0
M  V30 2927 C 281.081 2.43577 -2.44467 0
M  V30 2928 C 280.194 2.2232 -3.70402 0
M  V30 2929 C 279.329 3.4729 -4.01949 0
M  V30 2930 C 278.368 3.2128 -5.21005 0
M  V30 2931 N 277.505 4.38507 -5.48321 0
M  V30 2932 H 282.345 0.733149 -2.88841 0
M  V30 2933 H 279.882 0.350482 -1.42864 0
M  V30 2934 H 281.84 3.20373 -2.6724 0
M  V30 2935 H 280.47 2.80097 -1.60455 0
M  V30 2936 H 279.522 1.36343 -3.55126 0
M  V30 2937 H 280.834 1.99089 -4.57345 0
M  V30 2938 H 279.988 4.32495 -4.25479 0
M  V30 2939 H 278.727 3.73572 -3.13521 0
M  V30 2940 H 277.732 2.34468 -4.97298 0
M  V30 2941 H 278.957 2.96348 -6.11028 0
M  V30 2942 H 276.903 4.64871 -4.62851 0
M  V30 2943 H 276.82 4.18455 -6.29628 0
M  V30 2944 H 278.088 5.24787 -5.76385 0
M  V30 2945 N 282.317 1.53212 0.369288 0
M  V30 2946 C 283.227 1.82342 1.47609 0
M  V30 2947 C 284.243 0.711532 1.58787 0
M  V30 2948 O 285.419 1.0012 1.74751 0
M  V30 2949 C 282.484 2.00393 2.8292 0
M  V30 2950 C 281.545 3.24297 2.81301 0
M  V30 2951 C 280.778 3.41478 4.10157 0
M  V30 2952 O 281.001 2.63033 5.06132 0
M  V30 2953 O 279.935 4.34817 4.16194 0
M  V30 2954 H 283.761 2.76366 1.25918 0
M  V30 2955 H 281.346 1.38547 0.559034 0
M  V30 2956 H 283.228 2.13859 3.63101 0
M  V30 2957 H 281.903 1.09559 3.04596 0
M  V30 2958 H 280.81 3.16257 1.99831 0
M  V30 2959 H 282.143 4.15041 2.64578 0
M  V30 2960 N 283.795 -0.628877 1.44509 0
M  V30 2961 C 285.072 -1.38733 1.37886 0
M  V30 2962 C 285.452 -2.11065 0.0387008 0
M  V30 2963 O 284.8 -2.06476 -0.97878 0
M  V30 2964 C 285.01 -2.35188 2.57852 0
M  V30 2965 C 286.358 -2.9845 3.02014 0
M  V30 2966 O 287.382 -2.45513 2.58073 0
M  V30 2967 O 286.241 -3.94487 3.78209 0
M  V30 2968 H 283.335 -0.621015 0.54614 0
M  V30 2969 H 285.881 -0.653744 1.56602 0
M  V30 2970 H 284.653 -1.80855 3.46998 0
M  V30 2971 H 284.276 -3.1596 2.4136 0
M  V30 2972 N 285.273 -1.31445 -0.869486 0
M  V30 2973 C 286.205 -1.14955 -1.98287 0
M  V30 2974 C 287.218 -0.0885037 -1.62559 0
M  V30 2975 O 288.407 -0.336044 -1.75308 0
M  V30 2976 C 285.507 -0.734255 -3.3085 0
M  V30 2977 C 284.68 -1.88042 -3.94917 0
M  V30 2978 C 283.739 -1.4511 -5.05796 0
M  V30 2979 O 282.765 -2.16082 -5.2659 0
M  V30 2980 N 283.967 -0.338763 -5.79511 0
M  V30 2981 H 286.732 -2.10856 -2.12979 0
M  V30 2982 H 284.293 -1.23786 -1.04349 0
M  V30 2983 H 286.285 -0.42975 -4.02412 0
M  V30 2984 H 284.855 0.133158 -3.12316 0
M  V30 2985 H 284.075 -2.35222 -3.1633 0
M  V30 2986 H 285.363 -2.6481 -4.34457 0
M  V30 2987 H 284.761 0.252274 -5.65137 0
M  V30 2988 H 283.318 -0.0937925 -6.51733 0
M  V30 2989 N 286.751 1.08385 -1.14413 0
M  V30 2990 C 287.979 1.84517 -0.936001 0
M  V30 2991 C 288.394 1.81626 0.515503 0
M  V30 2992 O 287.751 1.22008 1.35721 0
M  V30 2993 C 287.802 3.32049 -1.42918 0
M  V30 2994 O 287.523 3.34951 -2.82381 0
M  V30 2995 C 289.024 4.24986 -1.26103 0
M  V30 2996 H 286.244 0.582491 -0.333084 0
M  V30 2997 H 288.788 1.36885 -1.5193 0
M  V30 2998 H 286.943 3.7707 -0.888641 0
M  V30 2999 H 287.357 4.27048 -3.04517 0
M  V30 3000 H 288.831 5.26615 -1.6547 0
M  V30 3001 H 289.308 4.38726 -0.20392 0
M  V30 3002 H 289.914 3.85791 -1.79012 0
M  V30 3003 N 288.23 0.939286 1.26551 0
M  V30 3004 C 289.14 0.453432 2.30176 0
M  V30 3005 C 290.156 -0.471649 1.67486 0
M  V30 3006 O 291.332 -0.35164 1.98306 0
M  V30 3007 C 288.397 -0.275326 3.45605 0
M  V30 3008 C 287.458 0.686084 4.23782 0
M  V30 3009 C 286.691 -0.00798994 5.33699 0
M  V30 3010 O 286.914 -1.22528 5.57085 0
M  V30 3011 O 285.848 0.669746 5.98162 0
M  V30 3012 H 289.674 1.31416 2.73795 0
M  V30 3013 H 287.259 0.705095 1.31715 0
M  V30 3014 H 289.141 -0.685911 4.1578 0
M  V30 3015 H 287.816 -1.11147 3.0402 0
M  V30 3016 H 286.723 1.14658 3.56096 0
M  V30 3017 H 288.056 1.48979 4.69112 0
M  V30 3018 N 289.708 -1.40897 0.706093 0
M  V30 3019 C 290.938 -2.05075 0.250523 0
M  V30 3020 C 291.346 -1.53275 -1.10921 0
M  V30 3021 O 290.689 -0.680281 -1.7064 0
M  V30 3022 C 290.751 -3.59219 0.142178 0
M  V30 3023 C 290.415 -4.33864 1.43566 0
M  V30 3024 C 291.412 -4.62448 2.37566 0
M  V30 3025 C 289.097 -4.72946 1.69195 0
M  V30 3026 C 291.091 -5.29088 3.5545 0
M  V30 3027 C 288.778 -5.3932 2.87362 0
M  V30 3028 C 289.776 -5.6732 3.80312 0
M  V30 3029 O 289.464 -6.32325 4.96408 0
M  V30 3030 H 289.196 -0.666645 0.112074 0
M  V30 3031 H 291.75 -1.81467 0.962239 0
M  V30 3032 H 289.98 -3.81609 -0.6254 0
M  V30 3033 H 291.669 -4.0495 -0.277584 0
M  V30 3034 H 292.435 -4.32727 2.19027 0
M  V30 3035 H 288.314 -4.50527 0.977042 0
M  V30 3036 H 291.858 -5.50859 4.28018 0
M  V30 3037 H 287.755 -5.68461 3.05814 0
M  V30 3038 H 288.523 -6.50821 4.9636 0
M  V30 3039 N 291.186 -0.45159 -1.50991 0
M  V30 3040 C 292.116 0.342898 -2.30969 0
M  V30 3041 C 293.097 1.00815 -1.37005 0
M  V30 3042 O 294.282 1.00907 -1.65926 0
M  V30 3043 C 291.412 1.43637 -3.16205 0
M  V30 3044 C 290.366 0.893818 -4.18563 0
M  V30 3045 C 289.692 2.08411 -4.92411 0
M  V30 3046 C 290.992 -0.0815568 -5.22236 0
M  V30 3047 H 292.686 -0.324556 -2.97636 0
M  V30 3048 H 290.232 -0.157531 -1.43136 0
M  V30 3049 H 292.185 1.9995 -3.70942 0
M  V30 3050 H 290.909 2.13232 -2.47386 0
M  V30 3051 H 289.568 0.352798 -3.64898 0
M  V30 3052 H 289.216 2.76658 -4.20082 0
M  V30 3053 H 288.916 1.72741 -5.61636 0
M  V30 3054 H 290.44 2.65251 -5.49976 0
M  V30 3055 H 291.854 0.391742 -5.7196 0
M  V30 3056 H 290.251 -0.351551 -5.99069 0
M  V30 3057 H 291.321 -1.01374 -4.74185 0
M  V30 3058 N 292.664 1.56529 -0.183458 0
M  V30 3059 C 293.574 2.22144 0.754272 0
M  V30 3060 C 294.59 1.21684 1.24374 0
M  V30 3061 O 295.766 1.54385 1.29333 0
M  V30 3062 C 292.831 2.85884 1.96141 0
M  V30 3063 C 291.892 4.01579 1.51765 0
M  V30 3064 C 291.125 4.6227 2.66725 0
M  V30 3065 O 291.348 4.21865 3.83909 0
M  V30 3066 O 290.282 5.51936 2.40104 0
M  V30 3067 H 294.108 3.02861 0.225527 0
M  V30 3068 H 291.693 1.49331 0.0453032 0
M  V30 3069 H 293.575 3.26253 2.66715 0
M  V30 3070 H 292.25 2.08154 2.47899 0
M  V30 3071 H 291.157 3.65856 0.781049 0
M  V30 3072 H 292.49 4.80938 1.04686 0
M  V30 3073 N 294.142 -0.090211 1.57342 0
M  V30 3074 C 295.052 -1.12735 2.05738 0
M  V30 3075 C 296.068 -1.43557 0.983231 0
M  V30 3076 O 297.244 -1.54101 1.29672 0
M  V30 3077 C 294.309 -2.42659 2.47624 0
M  V30 3078 C 293.37 -2.18975 3.69254 0
M  V30 3079 C 292.603 -3.42704 4.09133 0
M  V30 3080 O 292.826 -4.51127 3.49057 0
M  V30 3081 O 291.76 -3.32003 5.02053 0
M  V30 3082 H 295.586 -0.746279 2.94388 0
M  V30 3083 H 293.171 -0.303064 1.46294 0
M  V30 3084 H 295.053 -3.19155 2.7517 0
M  V30 3085 H 293.728 -2.80182 1.62109 0
M  V30 3086 H 292.635 -1.40244 3.46818 0
M  V30 3087 H 293.968 -1.86342 4.55563 0
M  V30 3088 N 295.62 -1.53406 -0.361157 0
M  V30 3089 C 297.036 -1.43277 -0.703124 0
M  V30 3090 C 297.236 -0.575384 -1.9311 0
M  V30 3091 O 296.292 -0.0595362 -2.5243 0
M  V30 3092 C 297.605 -2.8653 -0.9122 0
M  V30 3093 C 299.153 -2.96191 -1.01193 0
M  V30 3094 C 299.628 -4.40514 -1.25345 0
M  V30 3095 N 301.119 -4.43962 -1.32105 0
M  V30 3096 C 301.854 -5.52746 -1.5251 0
M  V30 3097 N 301.35 -6.71567 -1.70203 0
M  V30 3098 N 303.143 -5.40331 -1.54916 0
M  V30 3099 H 295.294 -2.07654 0.446475 0
M  V30 3100 H 297.557 -0.937944 0.137715 0
M  V30 3101 H 297.263 -3.51605 -0.0816414 0
M  V30 3102 H 297.137 -3.30441 -1.81903 0
M  V30 3103 H 299.524 -2.31266 -1.83303 0
M  V30 3104 H 299.605 -2.55667 -0.0823929 0
M  V30 3105 H 299.249 -5.06014 -0.437346 0
M  V30 3106 H 299.179 -4.78614 -2.19627 0
M  V30 3107 H 301.67 -3.58332 -1.20028 0
M  V30 3108 H 301.983 -7.50241 -1.85359 0
M  V30 3109 H 300.328 -6.74545 -1.67373 0
M  V30 3110 H 303.519 -4.46465 -1.40663 0
M  V30 3111 H 303.692 -6.25173 -1.70477 0
M  V30 3112 N 297.098 0.621204 -1.44841 0
M  V30 3113 C 298.514 0.94048 -1.28946 0
M  V30 3114 C 298.714 2.00154 -0.23249 0
M  V30 3115 O 297.77 2.49651 0.378237 0
M  V30 3116 C 299.083 1.39433 -2.66419 0
M  V30 3117 C 300.631 1.50927 -2.74208 0
M  V30 3118 C 301.106 1.99692 -4.12174 0
M  V30 3119 N 302.597 2.06947 -4.144 0
M  V30 3120 C 303.332 2.45871 -5.1801 0
M  V30 3121 N 302.828 2.83862 -6.31977 0
M  V30 3122 N 304.621 2.46092 -5.05366 0
M  V30 3123 H 296.772 -0.0803548 -2.12248 0
M  V30 3124 H 299.035 0.0266913 -0.947624 0
M  V30 3125 H 298.741 0.688925 -3.44887 0
M  V30 3126 H 298.615 2.36347 -2.93973 0
M  V30 3127 H 301.002 2.20561 -1.96053 0
M  V30 3128 H 301.083 0.523627 -2.50383 0
M  V30 3129 H 300.727 1.30649 -4.90809 0
M  V30 3130 H 300.657 2.99146 -4.33381 0
M  V30 3131 H 303.148 1.80232 -3.32152 0
M  V30 3132 H 303.461 3.12405 -7.0684 0
M  V30 3133 H 301.806 2.8159 -6.35399 0
M  V30 3134 H 304.997 2.1581 -4.15384 0
M  V30 3135 H 305.17 2.76102 -5.86235 0
M  V30 3136 N 298.576 1.31904 0.862503 0
M  V30 3137 C 299.825 1.21373 1.61094 0
M  V30 3138 C 300.138 -0.22504 1.94301 0
M  V30 3139 O 301.344 -0.452121 2.67709 0
M  V30 3140 C 299.8 2.12525 2.9045 0
M  V30 3141 C 299.408 3.61441 2.64697 0
M  V30 3142 C 301.152 2.10813 3.68454 0
M  V30 3143 C 299.059 4.44578 3.90006 0
M  V30 3144 H 297.989 0.450705 0.604468 0
M  V30 3145 H 300.64 1.56811 0.953027 0
M  V30 3146 H 299.022 1.69994 3.57656 0
M  V30 3147 H 300.196 4.12264 2.05851 0
M  V30 3148 H 298.511 3.65205 2.00036 0
M  V30 3149 H 301.108 2.70167 4.61426 0
M  V30 3150 H 301.451 1.09713 4.01583 0
M  V30 3151 H 301.984 2.51583 3.08141 0
M  V30 3152 H 298.723 5.46461 3.62023 0
M  V30 3153 H 298.243 3.98508 4.48276 0
M  V30 3154 H 299.922 4.57176 4.5782 0
M  V30 3155 N 300.054 -1.07777 1.14986 0
M  V30 3156 C 301.001 -2.14867 0.842672 0
M  V30 3157 C 301.971 -1.6486 -0.202552 0
M  V30 3158 O 303.156 -1.90668 -0.0710568 0
M  V30 3159 C 300.296 -3.43486 0.333363 0
M  V30 3160 C 299.409 -4.07306 1.43965 0
M  V30 3161 C 298.544 -5.23744 0.886914 0
M  V30 3162 C 297.583 -5.79517 1.97043 0
M  V30 3163 N 296.72 -6.87291 1.4344 0
M  V30 3164 H 301.56 -2.40485 1.75986 0
M  V30 3165 H 299.097 -1.1801 0.878179 0
M  V30 3166 H 301.055 -4.17195 0.0198163 0
M  V30 3167 H 299.685 -3.18133 -0.546916 0
M  V30 3168 H 298.737 -3.31293 1.86946 0
M  V30 3169 H 300.049 -4.44771 2.25788 0
M  V30 3170 H 299.203 -6.04419 0.525651 0
M  V30 3171 H 297.942 -4.87685 0.0377957 0
M  V30 3172 H 296.947 -4.97491 2.34057 0
M  V30 3173 H 298.172 -6.17632 2.82325 0
M  V30 3174 H 296.118 -6.5318 0.607567 0
M  V30 3175 H 296.035 -7.23617 2.18895 0
M  V30 3176 H 297.303 -7.71682 1.10124 0
M  V30 3177 N 301.532 -0.945985 -1.26051 0
M  V30 3178 C 302.442 -0.465633 -2.29933 0
M  V30 3179 C 303.458 0.462761 -1.67733 0
M  V30 3180 O 304.634 0.341118 -1.9849 0
M  V30 3181 C 301.699 0.256994 -3.45746 0
M  V30 3182 C 300.76 -0.708549 -4.23412 0
M  V30 3183 C 299.993 -0.0203135 -5.33696 0
M  V30 3184 O 300.216 1.19571 -5.57726 0
M  V30 3185 O 299.15 -0.701459 -5.97799 0
M  V30 3186 H 302.976 -1.32866 -2.73094 0
M  V30 3187 H 300.561 -0.712071 -1.31339 0
M  V30 3188 H 302.443 0.663852 -4.16138 0
M  V30 3189 H 301.118 1.09533 -3.04605 0
M  V30 3190 H 300.025 -1.16545 -3.55483 0
M  V30 3191 H 301.358 -1.51465 -4.68315 0
M  V30 3192 N 303.011 1.40521 -0.713556 0
M  V30 3193 C 304.26 2.00155 -0.249192 0
M  V30 3194 C 304.573 1.57224 1.16362 0
M  V30 3195 O 305.779 2.09542 1.72639 0
M  V30 3196 C 304.235 3.5773 -0.3946 0
M  V30 3197 C 303.843 4.09635 -1.81392 0
M  V30 3198 C 305.587 4.24499 0.00907364 0
M  V30 3199 C 303.494 5.59707 -1.91003 0
M  V30 3200 H 302.424 0.74868 -0.0894114 0
M  V30 3201 H 305.075 1.60784 -0.884352 0
M  V30 3202 H 303.457 3.94792 0.30911 0
M  V30 3203 H 304.631 3.83955 -2.54785 0
M  V30 3204 H 302.946 3.55456 -2.16888 0
M  V30 3205 H 305.543 5.34683 -0.0420404 0
M  V30 3206 H 305.886 4.02824 1.05065 0
M  V30 3207 H 306.419 3.92536 -0.645007 0
M  V30 3208 H 303.158 5.86234 -2.93275 0
M  V30 3209 H 302.678 5.87258 -1.22019 0
M  V30 3210 H 304.357 6.24776 -1.6812 0
M  V30 3211 N 304.489 0.459591 1.5075 0
M  V30 3212 C 305.735 -0.0994966 2.02556 0
M  V30 3213 C 306.068 -1.40399 1.3417 0
M  V30 3214 O 305.343 -1.88892 0.463683 0
M  V30 3215 C 305.626 -0.295242 3.58888 0
M  V30 3216 C 305.479 1.02947 4.37861 0
M  V30 3217 C 306.798 -1.05502 4.27267 0
M  V30 3218 H 303.917 -0.034686 0.736183 0
M  V30 3219 H 306.559 0.602938 1.8018 0
M  V30 3220 H 304.709 -0.893563 3.78084 0
M  V30 3221 H 306.381 1.66348 4.30263 0
M  V30 3222 H 304.624 1.62885 4.02058 0
M  V30 3223 H 305.295 0.846281 5.45474 0
M  V30 3224 H 307.771 -0.547993 4.12476 0
M  V30 3225 H 306.647 -1.16077 5.36486 0
M  V30 3226 H 306.908 -2.08875 3.89645 0
M  V30 3227 N 305.967 -1.56429 0.191757 0
M  V30 3228 C 306.914 -2.18936 -0.730454 0
M  V30 3229 C 307.884 -1.13557 -1.21219 0
M  V30 3230 O 309.069 -1.41794 -1.27668 0
M  V30 3231 C 306.209 -2.85013 -1.9458 0
M  V30 3232 C 305.322 -4.04909 -1.50574 0
M  V30 3233 C 304.457 -4.58853 -2.67634 0
M  V30 3234 C 303.496 -5.71114 -2.20217 0
M  V30 3235 N 302.633 -6.19478 -3.30442 0
M  V30 3236 H 307.473 -2.97389 -0.190664 0
M  V30 3237 H 305.01 -1.46869 -0.0823694 0
M  V30 3238 H 306.968 -3.21492 -2.65893 0
M  V30 3239 H 305.598 -2.09129 -2.45896 0
M  V30 3240 H 304.65 -3.74115 -0.688605 0
M  V30 3241 H 305.962 -4.86113 -1.11784 0
M  V30 3242 H 305.116 -4.97619 -3.47074 0
M  V30 3243 H 303.855 -3.76749 -3.09696 0
M  V30 3244 H 302.86 -5.31879 -1.3923 0
M  V30 3245 H 304.085 -6.55033 -1.79189 0
M  V30 3246 H 302.031 -5.40297 -3.72041 0
M  V30 3247 H 301.948 -6.95725 -2.9581 0
M  V30 3248 H 303.216 -6.62898 -4.10106 0
M  V30 3249 N 307.445 0.0818655 -1.57387 0
M  V30 3250 C 308.392 1.09834 -2.0299 0
M  V30 3251 C 309.362 1.39043 -0.908639 0
M  V30 3252 O 310.547 1.50282 -1.17559 0
M  V30 3253 C 307.687 2.40971 -2.47037 0
M  V30 3254 C 306.8 2.18379 -3.7274 0
M  V30 3255 C 305.935 3.43008 -4.0561 0
M  V30 3256 C 304.974 3.15736 -5.24383 0
M  V30 3257 N 304.111 4.32667 -5.52941 0
M  V30 3258 H 308.951 0.702472 -2.89602 0
M  V30 3259 H 306.488 0.33531 -1.43227 0
M  V30 3260 H 308.446 3.1752 -2.70623 0
M  V30 3261 H 307.076 2.78379 -1.63417 0
M  V30 3262 H 306.128 1.32569 -3.56552 0
M  V30 3263 H 307.44 1.94227 -4.59431 0
M  V30 3264 H 306.594 4.27958 -4.30043 0
M  V30 3265 H 305.333 3.70225 -3.17466 0
M  V30 3266 H 304.338 2.2918 -4.99757 0
M  V30 3267 H 305.563 2.8985 -6.14136 0
M  V30 3268 H 303.509 4.59935 -4.67756 0
M  V30 3269 H 303.426 4.11753 -6.34031 0
M  V30 3270 H 304.694 5.18644 -5.81918 0
M  V30 3271 N 308.923 1.53595 0.353017 0
M  V30 3272 C 309.873 1.77299 1.43349 0
M  V30 3273 C 310.857 0.627884 1.48143 0
M  V30 3274 O 312.049 0.88697 1.53173 0
M  V30 3275 C 309.178 1.97757 2.80619 0
M  V30 3276 C 308.264 3.18305 2.80254 0
M  V30 3277 N 308.655 4.39967 2.49526 0
M  V30 3278 C 306.953 3.19283 3.11407 0
M  V30 3279 C 307.654 5.21772 2.57156 0
M  V30 3280 N 306.63 4.58269 2.92388 0
M  V30 3281 H 310.432 2.68963 1.18474 0
M  V30 3282 H 307.946 1.52391 0.561306 0
M  V30 3283 H 309.943 2.1287 3.58458 0
M  V30 3284 H 308.603 1.07329 3.06448 0
M  V30 3285 H 309.614 4.67482 2.22893 0
M  V30 3286 H 306.291 2.3879 3.4247 0
M  V30 3287 H 307.681 6.2885 2.36638 0
M  V30 3288 N 310.401 -0.613514 1.45168 0
M  V30 3289 C 311.626 -1.40437 1.52618 0
M  V30 3290 C 312.051 -1.87438 0.157707 0
M  V30 3291 O 311.409 -1.59791 -0.856537 0
M  V30 3292 C 311.457 -2.58894 2.51011 0
M  V30 3293 O 310.561 -3.59326 2.02382 0
M  V30 3294 H 309.902 -0.419506 0.514695 0
M  V30 3295 H 312.432 -0.747215 1.90467 0
M  V30 3296 H 312.442 -3.06214 2.69624 0
M  V30 3297 H 311.117 -2.24032 3.50403 0
M  V30 3298 H 309.694 -3.18695 1.93618 0
M  V30 3299 N 311.879 -1.3236 -0.855495 0
M  V30 3300 C 312.811 -1.17052 -1.97057 0
M  V30 3301 C 313.824 -0.10574 -1.62456 0
M  V30 3302 O 315.013 -0.354619 -1.74942 0
M  V30 3303 C 312.113 -0.769305 -3.30053 0
M  V30 3304 C 311.286 -1.9222 -3.929 0
M  V30 3305 C 310.345 -1.50466 -5.04228 0
M  V30 3306 O 309.371 -2.21655 -5.24269 0
M  V30 3307 N 310.573 -0.400209 -5.79119 0
M  V30 3308 H 313.338 -2.13103 -2.1073 0
M  V30 3309 H 310.899 -1.24885 -1.0303 0
M  V30 3310 H 312.891 -0.472407 -4.01933 0
M  V30 3311 H 311.461 0.100025 -3.1244 0
M  V30 3312 H 310.681 -2.38563 -3.13817 0
M  V30 3313 H 311.969 -2.69403 -4.31624 0
M  V30 3314 H 311.367 0.192319 -5.65373 0
M  V30 3315 H 309.924 -0.162912 -6.51596 0
M  V30 3316 N 313.357 1.07166 -1.15556 0
M  V30 3317 C 314.604 1.79798 -0.931604 0
M  V30 3318 C 314.932 1.8682 0.54115 0
M  V30 3319 O 314.187 1.34942 1.41736 0
M  V30 3320 C 314.486 3.24707 -1.49332 0
M  V30 3321 C 314.152 3.37781 -2.98688 0
M  V30 3322 C 312.814 3.41057 -3.39461 0
M  V30 3323 C 315.166 3.40424 -3.94665 0
M  V30 3324 C 312.494 3.4458 -4.74849 0
M  V30 3325 C 314.846 3.45485 -5.29927 0
M  V30 3326 C 313.51 3.47039 -5.70193 0
M  V30 3327 H 312.78 0.657928 -0.340898 0
M  V30 3328 H 315.427 1.26091 -1.44129 0
M  V30 3329 H 313.732 3.81208 -0.904859 0
M  V30 3330 H 315.429 3.79486 -1.29582 0
M  V30 3331 H 312.019 3.35932 -2.66172 0
M  V30 3332 H 316.203 3.37113 -3.64237 0
M  V30 3333 H 311.459 3.44083 -5.05388 0
M  V30 3334 H 315.633 3.46476 -6.04092 0
M  V30 3335 H 313.26 3.49522 -6.75084 0
M  V30 3336 N 314.835 0.952656 1.25548 0
M  V30 3337 C 316.084 0.602053 1.92505 0
M  V30 3338 C 316.397 -0.864663 1.75451 0
M  V30 3339 O 317.603 -1.32514 2.36965 0
M  V30 3340 C 316.059 1.02607 3.44963 0
M  V30 3341 C 315.667 2.51519 3.70732 0
M  V30 3342 C 317.411 0.747905 4.1786 0
M  V30 3343 C 315.318 2.87732 5.16686 0
M  V30 3344 H 314.248 0.22146 0.720744 0
M  V30 3345 H 316.899 1.15684 1.42441 0
M  V30 3346 H 315.281 0.399712 3.93978 0
M  V30 3347 H 316.455 3.19157 3.32378 0
M  V30 3348 H 314.77 2.76786 3.11092 0
M  V30 3349 H 317.367 0.994647 5.25367 0
M  V30 3350 H 317.71 -0.315629 4.15102 0
M  V30 3351 H 318.243 1.33452 3.74747 0
M  V30 3352 H 314.982 3.93095 5.24554 0
M  V30 3353 H 314.502 2.24765 5.56094 0
M  V30 3354 H 316.181 2.76817 5.84792 0
M  V30 3355 N 316.313 -1.40141 0.720998 0
M  V30 3356 C 317.561 -2.0039 0.262323 0
M  V30 3357 C 317.882 -1.57469 -1.15015 0
M  V30 3358 O 317.152 -0.816582 -1.78069 0
M  V30 3359 H 315.732 -0.741063 0.093996 0
M  V30 3360 H 318.394 -1.71398 0.927835 0
M  V30 3361 H 317.49 -3.10658 0.299671 0
M  V30 3362 N 317.792 -0.46758 -1.50504 0
M  V30 3363 C 319.022 0.086288 -2.0642 0
M  V30 3364 C 319.43 1.34369 -1.33197 0
M  V30 3365 O 318.773 1.79431 -0.393747 0
M  V30 3366 C 318.835 0.443846 -3.5675 0
M  V30 3367 C 318.499 -0.711035 -4.51435 0
M  V30 3368 C 319.496 -1.59205 -4.94924 0
M  V30 3369 C 317.181 -0.900363 -4.94165 0
M  V30 3370 C 319.175 -2.64683 -5.79846 0
M  V30 3371 C 316.862 -1.95837 -5.7887 0
M  V30 3372 C 317.86 -2.82997 -6.21612 0
M  V30 3373 O 317.548 -3.86977 -7.0463 0
M  V30 3374 H 317.28 -0.00217814 -0.675996 0
M  V30 3375 H 319.834 -0.654346 -1.94698 0
M  V30 3376 H 318.064 1.23762 -3.6636 0
M  V30 3377 H 319.753 0.932386 -3.95046 0
M  V30 3378 H 320.519 -1.45745 -4.62583 0
M  V30 3379 H 316.398 -0.231427 -4.60419 0
M  V30 3380 H 319.942 -3.32745 -6.13128 0
M  V30 3381 H 315.839 -2.09305 -6.10624 0
M  V30 3382 H 316.607 -3.83923 -7.22873 0
M  V30 3383 N 319.27 1.56325 -0.20005 0
M  V30 3384 C 320.681 1.8408 0.31167 0
M  V30 3385 C 321.032 1.12087 1.61031 0
M  V30 3386 O 320.157 0.38332 2.12978 0
M  V30 3387 C 320.752 3.33932 0.57226 0
M  V30 3388 C 319.311 3.6208 1.02834 0
M  V30 3389 C 318.458 2.77186 0.079634 0
M  V30 3390 H 321.409 1.52939 -0.423729 0
M  V30 3391 H 321.43 3.52971 1.42096 0
M  V30 3392 H 320.942 3.86303 -0.37308 0
M  V30 3393 H 319.043 3.15147 1.98778 0
M  V30 3394 H 319.156 4.7023 0.917624 0
M  V30 3395 H 317.52 2.47951 0.582448 0
M  V30 3396 H 318.303 3.32347 -0.860238 0
M  V30 3397 N 320.748 -0.0735177 1.57428 0
M  V30 3398 C 321.997 -0.771809 1.86349 0
M  V30 3399 C 322.31 -1.78828 0.792452 0
M  V30 3400 O 323.516 -2.53602 0.96945 0
M  V30 3401 C 321.972 -1.42358 3.30548 0
M  V30 3402 C 321.58 -0.445761 4.45777 0
M  V30 3403 C 323.324 -2.10434 3.6867 0
M  V30 3404 C 321.231 -1.10335 5.81016 0
M  V30 3405 H 320.161 -0.291999 0.695164 0
M  V30 3406 H 322.812 -0.0250749 1.83483 0
M  V30 3407 H 321.194 -2.21852 3.28021 0
M  V30 3408 H 322.368 0.319239 4.59693 0
M  V30 3409 H 320.683 0.130457 4.16196 0
M  V30 3410 H 323.28 -2.60405 4.67004 0
M  V30 3411 H 323.623 -2.90298 2.98383 0
M  V30 3412 H 324.156 -1.37773 3.7318 0
M  V30 3413 H 320.895 -0.345061 6.54591 0
M  V30 3414 H 320.415 -1.83925 5.70904 0
M  V30 3415 H 322.094 -1.62367 6.26295 0
M  V30 3416 N 322.226 -1.5378 -0.344866 0
M  V30 3417 C 323.454 -1.74899 -1.10534 0
M  V30 3418 C 323.869 -0.487534 -1.82397 0
M  V30 3419 O 323.226 0.540741 -1.74305 0
M  V30 3420 C 323.277 -2.92822 -2.11984 0
M  V30 3421 O 322.998 -4.14089 -1.43044 0
M  V30 3422 C 324.499 -3.25982 -3.00417 0
M  V30 3423 H 321.719 -0.584426 -0.329678 0
M  V30 3424 H 324.263 -2.006 -0.397474 0
M  V30 3425 H 322.418 -2.69457 -2.78338 0
M  V30 3426 H 322.832 -4.80272 -2.10805 0
M  V30 3427 H 324.306 -4.11848 -3.67539 0
M  V30 3428 H 324.783 -2.42228 -3.66363 0
M  V30 3429 H 325.389 -3.51349 -2.39654 0
M  V30 3430 N 323.704 0.605807 -1.45491 0
M  V30 3431 C 324.634 1.72709 -1.57143 0
M  V30 3432 C 325.615 1.6476 -0.422884 0
M  V30 3433 O 326.8 1.83132 -0.646247 0
M  V30 3434 C 323.93 3.11316 -1.53948 0
M  V30 3435 C 322.884 3.34077 -2.67537 0
M  V30 3436 C 322.21 4.72975 -2.49397 0
M  V30 3437 C 323.51 3.24158 -4.09535 0
M  V30 3438 H 325.204 1.63214 -2.51001 0
M  V30 3439 H 322.75 0.78379 -1.208 0
M  V30 3440 H 324.703 3.89557 -1.60696 0
M  V30 3441 H 323.427 3.21655 -0.566205 0
M  V30 3442 H 322.086 2.58227 -2.6022 0
M  V30 3443 H 321.734 4.8005 -1.50205 0
M  V30 3444 H 321.434 4.8916 -3.25571 0
M  V30 3445 H 322.958 5.53414 -2.58002 0
M  V30 3446 H 324.372 3.92271 -4.18086 0
M  V30 3447 H 322.769 3.51872 -4.86113 0
M  V30 3448 H 323.839 2.2157 -4.31317 0
M  V30 3449 N 325.182 1.32811 0.848464 0
M  V30 3450 C 326.429 1.23724 1.60308 0
M  V30 3451 C 326.757 -0.1994 1.93475 0
M  V30 3452 O 326.012 -1.15406 1.5805 0
M  V30 3453 C 326.311 2.04831 2.92881 0
M  V30 3454 C 325.977 3.54125 2.79117 0
M  V30 3455 C 324.639 3.94829 2.7507 0
M  V30 3456 C 326.991 4.49036 2.64606 0
M  V30 3457 C 324.319 5.28675 2.544 0
M  V30 3458 C 326.671 5.83033 2.4547 0
M  V30 3459 C 325.335 6.22931 2.39819 0
M  V30 3460 H 324.605 0.452737 0.586609 0
M  V30 3461 H 327.252 1.64301 0.983743 0
M  V30 3462 H 325.557 1.57001 3.58968 0
M  V30 3463 H 327.254 1.95164 3.50303 0
M  V30 3464 H 323.844 3.21801 2.83094 0
M  V30 3465 H 328.028 4.18505 2.66772 0
M  V30 3466 H 323.284 5.58637 2.48465 0
M  V30 3467 H 327.458 6.56186 2.33222 0
M  V30 3468 H 325.085 7.26584 2.23562 0
M  V30 3469 N 326.66 -1.06551 1.16123 0
M  V30 3470 C 327.906 -1.79567 0.94252 0
M  V30 3471 C 328.239 -1.86869 -0.528547 0
M  V30 3472 O 327.514 -1.35838 -1.39206 0
M  V30 3473 C 327.797 -3.24195 1.56747 0
M  V30 3474 C 327.65 -3.24989 3.10969 0
M  V30 3475 C 328.969 -4.21678 1.25998 0
M  V30 3476 H 326.088 -0.651883 0.343828 0
M  V30 3477 H 328.73 -1.2463 1.43413 0
M  V30 3478 H 326.88 -3.71107 1.14942 0
M  V30 3479 H 328.552 -2.86258 3.61737 0
M  V30 3480 H 326.795 -2.63716 3.44436 0
M  V30 3481 H 327.466 -4.27005 3.49815 0
M  V30 3482 H 329.942 -3.83196 1.62174 0
M  V30 3483 H 328.818 -5.21146 1.7233 0
M  V30 3484 H 329.079 -4.4174 0.178367 0
M  V30 3485 N 328.138 -0.959301 -1.25041 0
M  V30 3486 C 329.048 -0.489994 -2.29426 0
M  V30 3487 C 330.064 0.444944 -1.68215 0
M  V30 3488 O 331.24 0.320046 -1.98841 0
M  V30 3489 C 328.305 0.220309 -3.45999 0
M  V30 3490 C 327.366 -0.753418 -4.22637 0
M  V30 3491 C 326.599 -0.076918 -5.33645 0
M  V30 3492 O 326.822 1.13649 -5.58963 0
M  V30 3493 O 325.756 -0.764824 -5.97021 0
M  V30 3494 H 329.582 -1.35755 -2.71669 0
M  V30 3495 H 327.167 -0.725961 -1.30576 0
M  V30 3496 H 329.049 0.619677 -4.16819 0
M  V30 3497 H 327.724 1.06296 -3.0575 0
M  V30 3498 H 326.631 -1.20308 -3.54227 0
M  V30 3499 H 327.964 -1.56423 -4.66683 0
M  V30 3500 N 329.616 1.39756 -0.72842 0
M  V30 3501 C 330.563 2.30647 -0.0841519 0
M  V30 3502 C 331.533 1.48869 0.7367 0
M  V30 3503 O 332.718 1.77574 0.698015 0
M  V30 3504 C 329.858 3.35165 0.822091 0
M  V30 3505 C 328.971 4.31999 -0.0106663 0
M  V30 3506 C 328.106 5.23585 0.896241 0
M  V30 3507 C 327.145 6.12072 0.0583381 0
M  V30 3508 N 326.282 6.96035 0.920818 0
M  V30 3509 H 331.122 2.85173 -0.864891 0
M  V30 3510 H 328.659 1.40422 -0.438179 0
M  V30 3511 H 330.617 3.94345 1.36189 0
M  V30 3512 H 329.247 2.8211 1.56888 0
M  V30 3513 H 328.299 3.74492 -0.66781 0
M  V30 3514 H 329.611 4.9443 -0.658825 0
M  V30 3515 H 328.765 5.87759 1.50412 0
M  V30 3516 H 327.504 4.61459 1.57819 0
M  V30 3517 H 326.509 5.46916 -0.562389 0
M  V30 3518 H 327.734 6.76261 -0.6203 0
M  V30 3519 H 325.68 6.36485 1.58818 0
M  V30 3520 H 325.597 7.55284 0.32899 0
M  V30 3521 H 326.865 7.64646 1.51447 0
M  V30 3522 N 331.094 0.475555 1.50254 0
M  V30 3523 C 332.004 -0.321501 2.32387 0
M  V30 3524 C 333.02 -0.991755 1.42969 0
M  V30 3525 O 334.196 -0.978747 1.76018 0
M  V30 3526 C 331.261 -1.38667 3.17762 0
M  V30 3527 C 330.322 -0.732538 4.23004 0
M  V30 3528 C 329.555 -1.74695 5.04299 0
M  V30 3529 O 329.778 -2.97399 4.86734 0
M  V30 3530 O 328.712 -1.31631 5.8733 0
M  V30 3531 H 332.538 0.350071 3.01676 0
M  V30 3532 H 330.123 0.237321 1.47503 0
M  V30 3533 H 332.005 -2.00354 3.70724 0
M  V30 3534 H 330.68 -2.04163 2.51196 0
M  V30 3535 H 329.587 -0.0765902 3.74022 0
M  V30 3536 H 330.92 -0.120452 4.92053 0
M  V30 3537 N 332.573 -1.56217 0.208337 0
M  V30 3538 C 333.989 -1.58919 -0.14729 0
M  V30 3539 C 334.189 -1.22486 -1.59998 0
M  V30 3540 O 333.245 -0.953849 -2.3379 0
M  V30 3541 C 334.558 -3.00236 0.167048 0
M  V30 3542 C 336.106 -3.12813 0.108219 0
M  V30 3543 C 336.581 -4.56284 0.396049 0
M  V30 3544 N 338.072 -4.61912 0.345142 0
M  V30 3545 C 338.807 -5.70837 0.541523 0
M  V30 3546 N 338.303 -6.88178 0.798968 0
M  V30 3547 N 340.096 -5.60091 0.474867 0
M  V30 3548 H 332.247 -1.78177 1.15614 0
M  V30 3549 H 334.51 -0.827555 0.462446 0
M  V30 3550 H 334.216 -3.31499 1.1748 0
M  V30 3551 H 334.09 -3.7354 -0.524184 0
M  V30 3552 H 336.477 -2.81354 -0.890157 0
M  V30 3553 H 336.558 -2.41866 0.832729 0
M  V30 3554 H 336.202 -4.88458 1.3918 0
M  V30 3555 H 336.132 -5.25439 -0.349502 0
M  V30 3556 H 338.623 -3.77589 0.153316 0
M  V30 3557 H 338.936 -7.67095 0.93727 0
M  V30 3558 H 337.281 -6.89953 0.836013 0
M  V30 3559 H 340.472 -4.67297 0.274064 0
M  V30 3560 H 340.645 -6.44917 0.631326 0
M  V30 3561 N 334.051 0.0651679 -1.57465 0
M  V30 3562 C 335.328 0.79644 -1.78651 0
M  V30 3563 C 335.708 1.95454 -0.797566 0
M  V30 3564 O 335.056 2.27882 0.167946 0
M  V30 3565 C 335.266 1.26322 -3.25337 0
M  V30 3566 C 336.614 1.6939 -3.89348 0
M  V30 3567 O 337.638 1.35872 -3.29268 0
M  V30 3568 O 336.497 2.31471 -4.95059 0
M  V30 3569 H 333.591 0.382157 -0.733407 0
M  V30 3570 H 336.137 0.0447311 -1.69641 0
M  V30 3571 H 334.909 0.434859 -3.88876 0
M  V30 3572 H 334.532 2.07604 -3.39096 0
M  V30 3573 N 335.529 1.53961 0.336706 0
M  V30 3574 C 336.476 1.82428 1.41381 0
M  V30 3575 C 337.446 0.670444 1.51968 0
M  V30 3576 O 338.631 0.915565 1.67398 0
M  V30 3577 C 335.771 2.04564 2.77934 0
M  V30 3578 C 334.884 3.32267 2.76084 0
M  V30 3579 C 334.019 3.44434 4.04399 0
M  V30 3580 C 333.058 4.66061 3.96804 0
M  V30 3581 N 332.195 4.75224 5.16823 0
M  V30 3582 H 337.035 2.74324 1.16405 0
M  V30 3583 H 334.572 1.35869 0.563752 0
M  V30 3584 H 336.53 2.15388 3.57301 0
M  V30 3585 H 335.16 1.15974 3.01247 0
M  V30 3586 H 334.212 3.3025 1.88784 0
M  V30 3587 H 335.524 4.21733 2.66351 0
M  V30 3588 H 334.678 3.54728 4.92192 0
M  V30 3589 H 333.417 2.53037 4.16921 0
M  V30 3590 H 332.422 4.55838 3.07396 0
M  V30 3591 H 333.647 5.58829 3.85858 0
M  V30 3592 H 331.593 3.86739 5.29876 0
M  V30 3593 H 331.51 5.58636 5.09374 0
M  V30 3594 H 332.778 4.89835 6.06367 0
M  V30 3595 N 337.007 -0.598083 1.45811 0
M  V30 3596 C 337.917 -1.73632 1.57763 0
M  V30 3597 C 338.933 -1.67763 0.461676 0
M  V30 3598 O 340.109 -1.87949 0.723685 0
M  V30 3599 C 337.174 -3.10114 1.55018 0
M  V30 3600 C 336.235 -3.27364 2.77726 0
M  V30 3601 C 335.468 -4.57334 2.75102 0
M  V30 3602 O 335.691 -5.40258 1.8297 0
M  V30 3603 O 334.625 -4.77502 3.66437 0
M  V30 3604 H 338.451 -1.66498 2.53992 0
M  V30 3605 H 336.036 -0.763308 1.28429 0
M  V30 3606 H 337.918 -3.9141 1.56129 0
M  V30 3607 H 336.593 -3.17718 0.619431 0
M  V30 3608 H 335.5 -2.45619 2.82174 0
M  V30 3609 H 336.833 -3.24641 3.69958 0
M  V30 3610 N 338.485 -1.33259 -0.841409 0
M  V30 3611 C 339.731 -1.24757 -1.59886 0
M  V30 3612 C 340.064 0.186913 -1.93298 0
M  V30 3613 O 339.339 1.12757 -1.5848 0
M  V30 3614 C 339.622 -2.12036 -2.91055 0
M  V30 3615 C 339.475 -3.63929 -2.6434 0
M  V30 3616 C 340.794 -1.9916 -3.92458 0
M  V30 3617 H 337.913 -0.454542 -0.580138 0
M  V30 3618 H 340.555 -1.63335 -0.970647 0
M  V30 3619 H 338.705 -1.79265 -3.44669 0
M  V30 3620 H 340.377 -4.06978 -2.17178 0
M  V30 3621 H 338.62 -3.85935 -1.98082 0
M  V30 3622 H 339.291 -4.20341 -3.57796 0
M  V30 3623 H 341.767 -2.27895 -3.48143 0
M  V30 3624 H 340.643 -2.62484 -4.82072 0
M  V30 3625 H 340.904 -0.963082 -4.31482 0
M  V30 3626 N 339.963 1.05934 -1.16686 0
M  V30 3627 C 341.188 1.83029 -0.975455 0
M  V30 3628 C 341.613 1.82096 0.471452 0
M  V30 3629 O 340.971 1.22443 1.33706 0
M  V30 3630 C 341.019 3.27372 -1.51195 0
M  V30 3631 O 340.123 4.06054 -0.720701 0
M  V30 3632 H 339.464 0.566194 -0.346872 0
M  V30 3633 H 341.994 1.33541 -1.55009 0
M  V30 3634 H 342.004 3.78186 -1.53099 0
M  V30 3635 H 340.679 3.27366 -2.56523 0
M  V30 3636 H 339.256 3.64812 -0.772458 0
M  V30 3637 N 341.441 0.965919 1.2453 0
M  V30 3638 C 342.718 0.543777 1.87889 0
M  V30 3639 C 343.098 -0.97909 1.87021 0
M  V30 3640 O 342.446 -1.84969 1.3416 0
M  V30 3641 C 342.656 1.13327 3.30088 0
M  V30 3642 C 344.004 1.21707 4.06783 0
M  V30 3643 O 345.028 1.08566 3.39252 0
M  V30 3644 O 343.887 1.42456 5.27606 0
M  V30 3645 H 340.981 0.181054 0.806938 0
M  V30 3646 H 343.527 1.06007 1.32516 0
M  V30 3647 H 342.299 2.17612 3.25209 0
M  V30 3648 H 341.922 0.600911 3.93033 0
M  V30 3649 N 342.919 -1.39368 0.735821 0
M  V30 3650 C 344.196 -1.94465 0.210395 0
M  V30 3651 C 344.576 -1.67254 -1.28799 0
M  V30 3652 O 343.924 -1.00123 -2.05396 0
M  V30 3653 C 344.134 -3.4472 0.544897 0
M  V30 3654 C 345.482 -4.21708 0.494689 0
M  V30 3655 O 346.506 -3.52922 0.482136 0
M  V30 3656 O 345.365 -5.44299 0.489947 0
M  V30 3657 H 342.459 -0.826096 0.0386666 0
M  V30 3658 H 345.005 -1.48863 0.814735 0
M  V30 3659 H 343.777 -3.57963 1.58045 0
M  V30 3660 H 343.4 -3.97502 -0.08837 0
M  V30 3661 N 344.397 -0.483516 -1.5 0
M  V30 3662 C 345.307 0.309172 -2.32554 0
M  V30 3663 C 346.323 0.984159 -1.43493 0
M  V30 3664 O 347.499 0.969399 -1.76535 0
M  V30 3665 C 344.564 1.36979 -3.18493 0
M  V30 3666 C 343.625 0.710095 -4.23387 0
M  V30 3667 C 342.858 1.72018 -5.05218 0
M  V30 3668 O 343.081 2.94813 -4.88305 0
M  V30 3669 O 342.015 1.28515 -5.8802 0
M  V30 3670 H 345.841 -0.366064 -3.01486 0
M  V30 3671 H 343.426 -0.24514 -1.47375 0
M  V30 3672 H 345.308 1.98385 -3.71781 0
M  V30 3673 H 343.983 2.02828 -2.52275 0
M  V30 3674 H 342.89 0.0567539 -3.74057 0
M  V30 3675 H 344.223 0.0943557 -4.9211 0
M  V30 3676 N 345.875 1.56104 -0.216619 0
M  V30 3677 C 346.838 2.18819 0.681962 0
M  V30 3678 C 347.838 1.14866 1.12528 0
M  V30 3679 O 349.028 1.40128 1.03488 0
M  V30 3680 C 346.16 2.80756 1.93362 0
M  V30 3681 H 347.353 2.99595 0.135254 0
M  V30 3682 H 344.906 1.56265 0.0330003 0
M  V30 3683 H 345.641 2.03837 2.52232 0
M  V30 3684 H 345.426 3.56876 1.62426 0
M  V30 3685 H 346.916 3.28844 2.57393 0
M  V30 3686 N 347.353 -0.0568162 1.57498 0
M  V30 3687 C 348.263 -1.08346 2.08083 0
M  V30 3688 C 349.279 -1.41439 1.01346 0
M  V30 3689 O 350.455 -1.51316 1.32912 0
M  V30 3690 C 347.52 -2.37352 2.52715 0
M  V30 3691 C 346.581 -2.11093 3.73816 0
M  V30 3692 C 345.814 -3.33949 4.1631 0
M  V30 3693 O 346.037 -4.43622 3.58547 0
M  V30 3694 O 344.971 -3.21279 5.08983 0
M  V30 3695 H 348.797 -0.683667 2.95905 0
M  V30 3696 H 346.382 -0.271965 1.46904 0
M  V30 3697 H 348.264 -3.13246 2.81877 0
M  V30 3698 H 346.939 -2.76681 1.68016 0
M  V30 3699 H 345.846 -1.32856 3.49714 0
M  V30 3700 H 347.179 -1.76637 4.59413 0
M  V30 3701 N 348.832 -1.54138 -0.328536 0
M  V30 3702 C 349.742 -1.86192 -1.42723 0
M  V30 3703 C 350.758 -0.753382 -1.56844 0
M  V30 3704 O 351.934 -1.04718 -1.72035 0
M  V30 3705 C 348.999 -2.07824 -2.77507 0
M  V30 3706 C 348.06 -3.31641 -2.72603 0
M  V30 3707 C 347.293 -3.52232 -4.00959 0
M  V30 3708 O 347.516 -2.7636 -4.9898 0
M  V30 3709 O 346.45 -4.45699 -4.0452 0
M  V30 3710 H 350.276 -2.79608 -1.18547 0
M  V30 3711 H 347.861 -1.3998 -0.522104 0
M  V30 3712 H 349.743 -2.23411 -3.57303 0
M  V30 3713 H 348.418 -1.17596 -3.01584 0
M  V30 3714 H 347.325 -3.21444 -1.91376 0
M  V30 3715 H 348.658 -4.2191 -2.53481 0
M  V30 3716 N 350.31 0.590341 -1.46126 0
M  V30 3717 C 351.257 1.69994 -1.56111 0
M  V30 3718 C 352.227 1.61065 -0.405867 0
M  V30 3719 O 353.412 1.8039 -0.621613 0
M  V30 3720 C 350.552 3.08326 -1.55013 0
M  V30 3721 C 349.665 3.27936 -2.81215 0
M  V30 3722 C 348.8 4.56473 -2.71673 0
M  V30 3723 C 347.839 4.694 -3.92849 0
M  V30 3724 N 346.976 5.89254 -3.81738 0
M  V30 3725 H 351.816 1.60797 -2.50895 0
M  V30 3726 H 349.353 0.783799 -1.24479 0
M  V30 3727 H 351.311 3.88383 -1.52362 0
M  V30 3728 H 349.941 3.16439 -0.637667 0
M  V30 3729 H 348.993 2.41536 -2.93879 0
M  V30 3730 H 350.305 3.33357 -3.71045 0
M  V30 3731 H 349.459 5.44748 -2.67085 0
M  V30 3732 H 348.198 4.53477 -1.7947 0
M  V30 3733 H 347.203 3.79544 -3.97777 0
M  V30 3734 H 348.428 4.7418 -4.86138 0
M  V30 3735 H 346.374 5.87271 -2.92317 0
M  V30 3736 H 346.291 5.95911 -4.65217 0
M  V30 3737 H 347.559 6.79981 -3.81112 0
M  V30 3738 N 351.788 1.33704 0.83433 0
M  V30 3739 C 352.698 1.26382 1.97648 0
M  V30 3740 C 353.714 0.173548 1.73132 0
M  V30 3741 O 354.89 0.397962 1.97429 0
M  V30 3742 C 351.955 1.00769 3.31733 0
M  V30 3743 C 351.016 2.1884 3.69334 0
M  V30 3744 C 350.249 1.9444 4.9702 0
M  V30 3745 O 350.472 0.896961 5.63303 0
M  V30 3746 O 349.406 2.81093 5.32231 0
M  V30 3747 H 353.232 2.22444 2.06767 0
M  V30 3748 H 350.817 1.13795 0.968037 0
M  V30 3749 H 352.699 0.882186 4.12062 0
M  V30 3750 H 351.374 0.0773783 3.23608 0
M  V30 3751 H 350.281 2.36946 2.89495 0
M  V30 3752 H 351.614 3.10221 3.82131 0
M  V30 3753 N 353.266 -1.05314 1.17247 0
M  V30 3754 C 354.543 -1.75184 0.87005 0
M  V30 3755 C 354.923 -2.01481 -0.629965 0
M  V30 3756 O 354.271 -1.64988 -1.58086 0
M  V30 3757 C 354.481 -3.04594 1.70363 0
M  V30 3758 C 355.829 -3.78567 1.92281 0
M  V30 3759 O 356.853 -3.14461 1.67311 0
M  V30 3760 O 355.712 -4.93755 2.3424 0
M  V30 3761 H 352.806 -0.761729 0.322021 0
M  V30 3762 H 355.352 -1.11493 1.27935 0
M  V30 3763 H 354.124 -2.81201 2.72106 0
M  V30 3764 H 353.747 -3.76022 1.29202 0
M  V30 3765 N 354.744 -0.972509 -1.24016 0
M  V30 3766 C 355.691 -0.505969 -2.25186 0
M  V30 3767 C 356.661 0.451009 -1.5986 0
M  V30 3768 O 357.846 0.360307 -1.87367 0
M  V30 3769 C 354.986 0.193089 -3.44559 0
M  V30 3770 C 354.099 -0.803222 -4.24467 0
M  V30 3771 C 353.234 -0.0797793 -5.3114 0
M  V30 3772 C 352.273 -1.06583 -6.02749 0
M  V30 3773 N 351.41 -0.372074 -7.01113 0
M  V30 3774 H 356.25 -1.37351 -2.64459 0
M  V30 3775 H 353.787 -0.688419 -1.29997 0
M  V30 3776 H 355.745 0.615125 -4.1264 0
M  V30 3777 H 354.375 1.02455 -3.06109 0
M  V30 3778 H 353.427 -1.34368 -3.55878 0
M  V30 3779 H 354.739 -1.55494 -4.73944 0
M  V30 3780 H 353.893 0.400015 -6.0538 0
M  V30 3781 H 352.632 0.704597 -4.82583 0
M  V30 3782 H 351.637 -1.55645 -5.27309 0
M  V30 3783 H 352.862 -1.85074 -6.53395 0
M  V30 3784 H 350.808 0.393238 -6.5482 0
M  V30 3785 H 350.725 -1.06258 -7.48495 0
M  V30 3786 H 351.993 0.0855932 -7.79453 0
M  V30 3787 N 356.222 1.38976 -0.743202 0
M  V30 3788 C 357.132 2.3434 -0.110399 0
M  V30 3789 C 358.148 1.58741 0.712559 0
M  V30 3790 O 359.324 1.9099 0.639125 0
M  V30 3791 C 356.389 3.37812 0.780012 0
M  V30 3792 C 355.45 4.29263 -0.0561319 0
M  V30 3793 C 354.683 5.27793 0.791875 0
M  V30 3794 O 354.906 5.33043 2.03031 0
M  V30 3795 O 353.84 6.01512 0.216183 0
M  V30 3796 H 357.666 2.90129 -0.897714 0
M  V30 3797 H 355.251 1.40643 -0.503966 0
M  V30 3798 H 357.133 4.01194 1.28923 0
M  V30 3799 H 355.808 2.84395 1.546 0
M  V30 3800 H 354.715 3.69076 -0.611056 0
M  V30 3801 H 356.048 4.85907 -0.784531 0
M  V30 3802 N 357.7 0.491464 1.49741 0
M  V30 3803 C 358.61 -0.296835 2.32715 0
M  V30 3804 C 359.626 -0.976536 1.44013 0
M  V30 3805 O 360.802 -0.960023 1.77047 0
M  V30 3806 C 357.867 -1.35288 3.19215 0
M  V30 3807 C 356.928 -0.687632 4.23757 0
M  V30 3808 C 356.161 -1.69336 5.06123 0
M  V30 3809 O 356.384 -2.92219 4.89861 0
M  V30 3810 O 355.318 -1.25394 5.88693 0
M  V30 3811 H 359.144 0.382048 3.01287 0
M  V30 3812 H 356.729 0.252953 1.47243 0
M  V30 3813 H 358.611 -1.96411 3.72828 0
M  V30 3814 H 357.286 -2.01487 2.53347 0
M  V30 3815 H 356.193 -0.0369159 3.74082 0
M  V30 3816 H 357.526 -0.0682566 4.92153 0
M  V30 3817 N 359.178 -1.55987 0.224894 0
M  V30 3818 C 360.088 -2.24066 -0.69511 0
M  V30 3819 C 361.104 -1.24939 -1.21104 0
M  V30 3820 O 362.28 -1.5776 -1.25195 0
M  V30 3821 C 359.345 -2.90983 -1.88493 0
M  V30 3822 C 358.406 -4.05462 -1.41064 0
M  V30 3823 C 357.639 -4.69179 -2.54375 0
M  V30 3824 O 357.862 -4.31895 -3.72589 0
M  V30 3825 O 356.796 -5.58108 -2.25386 0
M  V30 3826 H 360.622 -3.03353 -0.145149 0
M  V30 3827 H 358.207 -1.49399 -0.00569476 0
M  V30 3828 H 360.089 -3.33209 -2.57972 0
M  V30 3829 H 358.764 -2.14653 -2.42293 0
M  V30 3830 H 357.671 -3.67798 -0.683774 0
M  V30 3831 H 359.004 -4.83545 -0.918985 0
M  V30 3832 N 360.656 0.0484629 -1.57525 0
M  V30 3833 C 361.603 1.05504 -2.05275 0
M  V30 3834 C 362.573 1.37084 -0.937927 0
M  V30 3835 O 363.758 1.47754 -1.2072 0
M  V30 3836 C 360.898 2.35676 -2.52093 0
M  V30 3837 C 360.011 2.10423 -3.77288 0
M  V30 3838 C 359.146 3.34327 -4.12794 0
M  V30 3839 C 358.185 3.04542 -5.30962 0
M  V30 3840 N 357.322 4.20841 -5.61994 0
M  V30 3841 H 362.162 0.640885 -2.91027 0
M  V30 3842 H 359.699 0.304854 -1.43906 0
M  V30 3843 H 361.657 3.11709 -2.77297 0
M  V30 3844 H 360.287 2.7485 -1.69285 0
M  V30 3845 H 359.339 1.24976 -3.59284 0
M  V30 3846 H 360.651 1.84438 -4.63448 0
M  V30 3847 H 359.805 4.1874 -4.39024 0
M  V30 3848 H 358.544 3.63408 -3.25247 0
M  V30 3849 H 357.549 2.18528 -5.04505 0
M  V30 3850 H 358.774 2.76758 -6.20146 0
M  V30 3851 H 356.72 4.4991 -4.77406 0
M  V30 3852 H 356.637 3.98212 -6.42622 0
M  V30 3853 H 357.905 5.06184 -5.92789 0
M  V30 3854 N 362.134 1.5431 0.320358 0
M  V30 3855 C 363.044 1.86946 1.41734 0
M  V30 3856 C 364.06 0.761689 1.56443 0
M  V30 3857 O 365.236 1.05629 1.71477 0
M  V30 3858 C 362.301 2.09293 2.76401 0
M  V30 3859 C 361.362 3.33082 2.70841 0
M  V30 3860 C 360.595 3.54353 3.99086 0
M  V30 3861 O 360.818 2.79002 4.97508 0
M  V30 3862 O 359.752 4.47838 4.0215 0
M  V30 3863 H 363.578 2.80232 1.17062 0
M  V30 3864 H 361.163 1.40255 0.514673 0
M  V30 3865 H 363.045 2.25303 3.56113 0
M  V30 3866 H 361.72 1.19194 3.00956 0
M  V30 3867 H 360.627 3.22454 1.89668 0
M  V30 3868 H 361.96 4.23249 2.5124 0
M  V30 3869 N 363.613 -0.582584 1.46437 0
M  V30 3870 C 364.56 -1.69164 1.5701 0
M  V30 3871 C 365.53 -1.60847 0.414403 0
M  V30 3872 O 366.715 -1.80058 0.631171 0
M  V30 3873 C 363.855 -3.075 1.56646 0
M  V30 3874 C 362.968 -3.2644 2.82951 0
M  V30 3875 C 362.103 -4.55026 2.7409 0
M  V30 3876 C 361.142 -4.6731 3.95333 0
M  V30 3877 N 360.279 -5.87221 3.84858 0
M  V30 3878 H 365.119 -1.59464 2.51744 0
M  V30 3879 H 362.656 -0.777186 1.24893 0
M  V30 3880 H 364.614 -3.8757 1.5442 0
M  V30 3881 H 363.244 -3.16096 0.654439 0
M  V30 3882 H 362.296 -2.39974 2.95155 0
M  V30 3883 H 363.608 -3.31385 3.72808 0
M  V30 3884 H 362.762 -5.43324 2.6997 0
M  V30 3885 H 361.501 -4.52519 1.81873 0
M  V30 3886 H 360.506 -3.77429 3.99784 0
M  V30 3887 H 361.731 -4.71595 4.88646 0
M  V30 3888 H 359.677 -5.85712 2.95427 0
M  V30 3889 H 359.594 -5.93435 4.6837 0
M  V30 3890 H 360.862 -6.7795 3.84713 0
M  V30 3891 N 365.091 -1.34144 -0.827227 0
M  V30 3892 C 366.001 -1.27428 -1.96975 0
M  V30 3893 C 367.017 -0.182728 -1.73038 0
M  V30 3894 O 368.193 -0.408426 -1.97215 0
M  V30 3895 C 365.258 -1.02526 -3.31194 0
M  V30 3896 C 364.319 -2.20796 -3.68168 0
M  V30 3897 C 363.552 -1.97073 -4.95982 0
M  V30 3898 O 363.775 -0.926822 -5.6282 0
M  V30 3899 O 362.709 -2.83912 -5.30733 0
M  V30 3900 H 366.535 -2.23537 -2.05584 0
M  V30 3901 H 364.12 -1.14307 -0.961989 0
M  V30 3902 H 366.002 -0.904026 -4.11589 0
M  V30 3903 H 364.677 -0.0945389 -3.23562 0
M  V30 3904 H 363.584 -2.38477 -2.88235 0
M  V30 3905 H 364.917 -3.12243 -3.8048 0
M  V30 3906 N 366.569 1.04691 -1.17803 0
M  V30 3907 C 367.479 2.16057 -0.914151 0
M  V30 3908 C 368.495 1.73589 0.119503 0
M  V30 3909 O 369.671 2.01308 -0.0609468 0
M  V30 3910 C 366.736 3.4394 -0.436603 0
M  V30 3911 C 365.797 4.00825 -1.53746 0
M  V30 3912 C 365.03 5.22604 -1.0826 0
M  V30 3913 O 365.253 5.70367 0.0612244 0
M  V30 3914 O 364.187 5.7186 -1.87775 0
M  V30 3915 H 368.013 2.41169 -1.84584 0
M  V30 3916 H 365.598 1.1453 -0.959334 0
M  V30 3917 H 367.48 4.21024 -0.178057 0
M  V30 3918 H 366.155 3.20316 0.466869 0
M  V30 3919 H 365.062 3.25158 -1.84995 0
M  V30 3920 H 366.395 4.28778 -2.41683 0
M  V30 3921 N 368.047 0.979072 1.23499 0
M  V30 3922 C 368.994 0.517904 2.24914 0
M  V30 3923 C 369.964 -0.442525 1.60097 0
M  V30 3924 O 371.149 -0.350365 1.87556 0
M  V30 3925 C 368.289 -0.174813 3.44657 0
M  V30 3926 C 367.402 0.825721 4.24035 0
M  V30 3927 C 366.537 0.107946 5.3109 0
M  V30 3928 C 365.576 1.09778 6.02175 0
M  V30 3929 N 364.713 0.40925 7.00906 0
M  V30 3930 H 369.553 1.38751 2.63727 0
M  V30 3931 H 367.09 0.695303 1.2963 0
M  V30 3932 H 369.048 -0.593233 4.12961 0
M  V30 3933 H 367.678 -1.0083 3.06648 0
M  V30 3934 H 366.73 1.36253 3.55161 0
M  V30 3935 H 368.042 1.58005 4.73113 0
M  V30 3936 H 367.196 -0.367904 6.05583 0
M  V30 3937 H 365.935 -0.678994 4.8295 0
M  V30 3938 H 364.94 1.5844 5.26476 0
M  V30 3939 H 366.165 1.88536 6.52404 0
M  V30 3940 H 364.111 -0.358506 6.5502 0
M  V30 3941 H 364.028 1.10226 7.47921 0
M  V30 3942 H 365.296 -0.0442557 7.79487 0
M  V30 3943 N 369.525 -1.3858 0.750561 0
M  V30 3944 C 370.435 -2.34278 0.122825 0
M  V30 3945 C 371.451 -1.59116 -0.704131 0
M  V30 3946 O 372.627 -1.91326 -0.628987 0
M  V30 3947 C 369.692 -3.38221 -0.762086 0
M  V30 3948 C 368.753 -4.29227 0.078896 0
M  V30 3949 C 367.986 -5.28205 -0.763874 0
M  V30 3950 O 368.209 -5.34112 -2.00201 0
M  V30 3951 O 367.143 -6.01618 -0.18428 0
M  V30 3952 H 370.969 -2.89649 0.913088 0
M  V30 3953 H 368.554 -1.40374 0.511417 0
M  V30 3954 H 370.436 -4.01872 -1.26793 0
M  V30 3955 H 369.111 -2.85211 -1.5309 0
M  V30 3956 H 368.018 -3.68747 0.630621 0
M  V30 3957 H 369.351 -4.85484 0.810289 0
M  V30 3958 N 371.003 -0.499398 -1.49478 0
M  V30 3959 C 372.228 0.044722 -2.07352 0
M  V30 3960 C 372.653 1.30207 -1.35749 0
M  V30 3961 O 372.011 1.76516 -0.413732 0
M  V30 3962 C 372.059 0.283013 -3.59488 0
M  V30 3963 O 371.163 1.35804 -3.89398 0
M  V30 3964 H 370.504 -0.0255147 -0.66351 0
M  V30 3965 H 373.034 -0.698561 -1.92305 0
M  V30 3966 H 373.044 0.515007 -4.04737 0
M  V30 3967 H 371.719 -0.635636 -4.11014 0
M  V30 3968 H 370.296 1.11113 -3.55961 0
M  V30 3969 N 372.481 1.55866 -0.233164 0
M  V30 3970 C 373.391 2.24431 0.683217 0
M  V30 3971 C 374.407 1.2558 1.2044 0
M  V30 3972 O 375.583 1.58422 1.24356 0
M  V30 3973 C 372.648 2.91979 1.86947 0
M  V30 3974 C 371.709 4.06204 1.38912 0
M  V30 3975 C 370.942 4.70522 2.51883 0
M  V30 3976 O 371.165 4.33865 3.70293 0
M  V30 3977 O 370.099 5.59296 2.22423 0
M  V30 3978 H 373.925 3.03426 0.129059 0
M  V30 3979 H 371.51 1.494 -0.0022283 0
M  V30 3980 H 373.392 3.34573 2.56201 0
M  V30 3981 H 372.067 2.15935 2.41151 0
M  V30 3982 H 370.974 3.68155 0.664259 0
M  V30 3983 H 372.307 4.84025 0.893328 0
M  V30 3984 N 373.959 -0.0401083 1.57549 0
M  V30 3985 C 375.236 -0.767917 1.79896 0
M  V30 3986 C 375.616 -1.9416 0.82856 0
M  V30 3987 O 374.964 -2.2812 -0.131671 0
M  V30 3988 C 375.174 -1.2113 3.27305 0
M  V30 3989 C 376.522 -1.63175 3.91994 0
M  V30 3990 O 377.546 -1.30616 3.31388 0
M  V30 3991 O 376.405 -2.23565 4.98679 0
M  V30 3992 H 373.499 -0.370441 0.739393 0
M  V30 3993 H 376.045 -0.017737 1.69691 0
M  V30 3994 H 374.817 -0.372937 3.89519 0
M  V30 3995 H 374.44 -2.02183 3.42356 0
M  V30 3996 N 375.437 -1.54477 -0.31217 0
M  V30 3997 C 376.384 -1.84655 -1.38461 0
M  V30 3998 C 377.354 -0.694536 -1.50882 0
M  V30 3999 O 378.539 -0.942081 -1.6592 0
M  V30 4000 C 375.679 -2.0896 -2.74645 0
M  V30 4001 C 374.792 -3.36618 -2.70763 0
M  V30 4002 C 373.927 -3.50824 -3.98868 0
M  V30 4003 C 372.966 -4.72315 -3.89339 0
M  V30 4004 N 372.103 -4.83387 -5.09197 0
M  V30 4005 H 376.943 -2.76142 -1.12026 0
M  V30 4006 H 374.48 -1.36748 -0.542065 0
M  V30 4007 H 376.438 -2.21045 -3.53829 0
M  V30 4008 H 375.068 -1.20752 -2.99364 0
M  V30 4009 H 374.12 -3.33211 -1.83506 0
M  V30 4010 H 375.432 -4.25917 -2.59608 0
M  V30 4011 H 374.586 -3.62513 -4.86486 0
M  V30 4012 H 373.325 -2.59638 -4.12843 0
M  V30 4013 H 372.33 -4.6067 -3.00105 0
M  V30 4014 H 373.555 -5.64897 -3.76919 0
M  V30 4015 H 371.501 -3.9512 -5.23657 0
M  V30 4016 H 371.418 -5.66669 -5.00422 0
M  V30 4017 H 372.686 -4.9942 -5.98498 0
M  V30 4018 N 376.915 0.57481 -1.46744 0
M  V30 4019 C 378.326 1.15695 -1.46532 0
M  V30 4020 C 378.677 1.95068 -0.210425 0
M  V30 4021 O 377.802 2.05241 0.685944 0
M  V30 4022 C 378.397 2.1048 -2.65487 0
M  V30 4023 C 376.956 2.64002 -2.68291 0
M  V30 4024 C 376.103 1.40026 -2.39349 0
M  V30 4025 H 379.054 0.362325 -1.54509 0
M  V30 4026 H 379.075 2.94074 -2.41455 0
M  V30 4027 H 378.587 1.52683 -3.56805 0
M  V30 4028 H 376.688 3.25646 -1.81067 0
M  V30 4029 H 376.801 3.06197 -3.68483 0
M  V30 4030 H 375.165 1.70106 -1.89568 0
M  V30 4031 H 375.948 0.840485 -3.32852 0
M  V30 4032 N 378.394 1.34581 0.820102 0
M  V30 4033 C 379.304 1.28471 1.96297 0
M  V30 4034 C 380.32 0.191902 1.72939 0
M  V30 4035 O 381.496 0.418879 1.96996 0
M  V30 4036 C 378.561 1.04281 3.30645 0
M  V30 4037 C 377.622 2.22745 3.66992 0
M  V30 4038 C 376.855 1.997 4.9493 0
M  V30 4039 O 377.078 0.956656 5.6232 0
M  V30 4040 O 376.012 2.86723 5.2922 0
M  V30 4041 H 379.838 2.24624 2.04396 0
M  V30 4042 H 377.423 1.14816 0.955913 0
M  V30 4043 H 379.305 0.925841 4.11104 0
M  V30 4044 H 377.98 0.111697 3.23507 0
M  V30 4045 H 376.887 2.40003 2.86966 0
M  V30 4046 H 378.22 3.14257 3.78819 0
M  V30 4047 N 379.872 -1.04064 1.18357 0
M  V30 4048 C 381.121 -1.76662 0.973313 0
M  V30 4049 C 381.434 -1.89154 -0.497991 0
M  V30 4050 O 382.64 -2.58606 -0.826762 0
M  V30 4051 C 381.096 -3.17624 1.69242 0
M  V30 4052 C 380.704 -3.13225 3.20303 0
M  V30 4053 C 382.448 -3.946 1.56497 0
M  V30 4054 C 380.355 -4.49046 3.84853 0
M  V30 4055 H 379.285 -0.662214 0.36054 0
M  V30 4056 H 381.936 -1.16553 1.41731 0
M  V30 4057 H 380.318 -3.78129 1.1762 0
M  V30 4058 H 381.492 -2.62172 3.78949 0
M  V30 4059 H 379.807 -2.49749 3.33189 0
M  V30 4060 H 382.404 -4.95042 2.02084 0
M  V30 4061 H 382.747 -4.13074 0.517243 0
M  V30 4062 H 383.28 -3.4067 2.05399 0
M  V30 4063 H 380.019 -4.35777 4.89672 0
M  V30 4064 H 379.539 -5.00203 3.30994 0
M  V30 4065 H 381.218 -5.17961 3.87718 0
M  V30 4066 N 381.35 -0.985608 -1.22978 0
M  V30 4067 C 382.26 -0.538548 -2.28335 0
M  V30 4068 C 383.276 0.409163 -1.69121 0
M  V30 4069 O 384.452 0.277797 -1.99475 0
M  V30 4070 C 381.517 0.146867 -3.46389 0
M  V30 4071 C 380.578 -0.842896 -4.20944 0
M  V30 4072 C 379.811 -0.190095 -5.33361 0
M  V30 4073 O 380.034 1.01767 -5.61248 0
M  V30 4074 O 378.968 -0.891289 -5.95264 0
M  V30 4075 H 382.794 -1.41487 -2.68729 0
M  V30 4076 H 380.379 -0.753495 -1.29007 0
M  V30 4077 H 382.261 0.531125 -4.1804 0
M  V30 4078 H 380.936 0.997871 -3.07935 0
M  V30 4079 H 379.843 -1.27795 -3.51595 0
M  V30 4080 H 381.176 -1.66287 -4.6326 0
M  V30 4081 N 382.828 1.3818 -0.7579 0
M  V30 4082 C 384.105 1.94106 -0.241306 0
M  V30 4083 C 384.485 1.69282 1.26122 0
M  V30 4084 O 383.833 1.03378 2.03777 0
M  V30 4085 C 384.043 3.43809 -0.59967 0
M  V30 4086 C 385.391 4.20868 -0.561717 0
M  V30 4087 O 386.415 3.5211 -0.538222 0
M  V30 4088 O 385.274 5.43451 -0.576478 0
M  V30 4089 H 382.368 0.825376 -0.0518042 0
M  V30 4090 H 384.914 1.47548 -0.838315 0
M  V30 4091 H 383.686 3.55403 -1.6372 0
M  V30 4092 H 383.309 3.97592 0.0251197 0
M  V30 4093 N 384.306 0.507319 1.49211 0
M  V30 4094 C 385.552 -0.0350047 2.0277 0
M  V30 4095 C 385.885 -1.3606 1.38569 0
M  V30 4096 O 385.16 -1.87321 0.523542 0
M  V30 4097 C 385.443 -0.180916 3.59645 0
M  V30 4098 C 385.296 1.16825 4.34364 0
M  V30 4099 C 386.615 -0.918558 4.30407 0
M  V30 4100 H 383.734 -0.0112473 0.736914 0
M  V30 4101 H 386.376 0.659956 1.7817 0
M  V30 4102 H 384.526 -0.772826 3.80736 0
M  V30 4103 H 386.198 1.79952 4.24753 0
M  V30 4104 H 384.441 1.75594 3.96673 0
M  V30 4105 H 385.112 1.01939 5.42506 0
M  V30 4106 H 387.588 -0.41649 4.1401 0
M  V30 4107 H 386.464 -0.989505 5.39907 0
M  V30 4108 H 386.725 -1.96373 3.96093 0
M  V30 4109 N 385.784 -1.5574 0.241426 0
M  V30 4110 C 387.032 -1.98417 -0.384075 0
M  V30 4111 C 387.353 -1.13078 -1.58866 0
M  V30 4112 O 386.623 -0.212312 -1.94746 0
M  V30 4113 H 385.203 -0.732813 -0.144894 0
M  V30 4114 H 387.865 -1.9193 0.338943 0
M  V30 4115 H 386.961 -3.04219 -0.696939 0
M  V30 4116 N 387.262 0.0317525 -1.57568 0
M  V30 4117 C 388.487 0.738664 -1.938 0
M  V30 4118 C 388.912 1.68242 -0.841208 0
M  V30 4119 O 388.27 1.80157 0.203267 0
M  V30 4120 C 388.318 1.47417 -3.29091 0
M  V30 4121 O 387.422 2.5872 -3.2115 0
M  V30 4122 H 386.763 0.198856 -0.633524 0
M  V30 4123 H 389.293 -0.0119713 -2.04596 0
M  V30 4124 H 389.303 1.84468 -3.63917 0
M  V30 4125 H 387.978 0.781988 -4.08482 0
M  V30 4126 H 386.555 2.24231 -2.97951 0
M  V30 4127 N 388.74 1.54641 0.303973 0
M  V30 4128 C 390.017 1.64455 1.05896 0
M  V30 4129 C 390.397 0.490923 2.05312 0
M  V30 4130 O 389.745 -0.512685 2.22674 0
M  V30 4131 C 389.955 3.02331 1.74347 0
M  V30 4132 C 391.303 3.59045 2.26653 0
M  V30 4133 O 392.327 3.04764 1.84384 0
M  V30 4134 O 391.186 4.54081 3.04093 0
M  V30 4135 H 388.28 0.666729 0.489287 0
M  V30 4136 H 390.826 1.66986 0.302298 0
M  V30 4137 H 389.598 3.77734 1.02142 0
M  V30 4138 H 389.221 3.03565 2.56777 0
M  V30 4139 N 390.218 -0.567019 1.47046 0
M  V30 4140 C 391.128 -1.70247 1.6141 0
M  V30 4141 C 392.144 -1.66746 0.497157 0
M  V30 4142 O 393.32 -1.86371 0.763389 0
M  V30 4143 C 390.385 -3.06756 1.61561 0
M  V30 4144 C 389.446 -3.21399 2.84607 0
M  V30 4145 C 388.679 -4.51396 2.84741 0
M  V30 4146 O 388.902 -5.36255 1.94388 0
M  V30 4147 O 387.836 -4.69621 3.76483 0
M  V30 4148 H 391.662 -1.61073 2.57467 0
M  V30 4149 H 389.247 -0.735894 1.30019 0
M  V30 4150 H 391.129 -3.8801 1.64396 0
M  V30 4151 H 389.804 -3.16333 0.686684 0
M  V30 4152 H 388.711 -2.39579 2.8732 0
M  V30 4153 H 390.044 -3.16721 3.76761 0
M  V30 4154 N 391.696 -1.35014 -0.812953 0
M  V30 4155 C 392.606 -1.2951 -1.95613 0
M  V30 4156 C 393.622 -0.20107 -1.72834 0
M  V30 4157 O 394.798 -0.42932 -1.96771 0
M  V30 4158 C 391.863 -1.06033 -3.30088 0
M  V30 4159 C 390.924 -2.24688 -3.65805 0
M  V30 4160 C 390.157 -2.02322 -4.93864 0
M  V30 4161 O 390.38 -0.986464 -5.61805 0
M  V30 4162 O 389.314 -2.89525 -5.27692 0
M  V30 4163 H 393.14 -2.25705 -2.03202 0
M  V30 4164 H 390.725 -1.15321 -0.949811 0
M  V30 4165 H 392.607 -0.94763 -4.10607 0
M  V30 4166 H 391.282 -0.128852 -3.23443 0
M  V30 4167 H 390.189 -2.41521 -2.85689 0
M  V30 4168 H 391.522 -3.16261 -3.77147 0
M  V30 4169 N 393.175 1.03435 -1.18907 0
M  V30 4170 C 394.085 2.15075 -0.937015 0
M  V30 4171 C 395.101 1.73706 0.101085 0
M  V30 4172 O 396.277 2.01232 -0.0822948 0
M  V30 4173 C 393.342 3.43458 -0.473057 0
M  V30 4174 C 392.403 3.99172 -1.57989 0
M  V30 4175 C 391.636 5.21427 -1.13797 0
M  V30 4176 O 391.859 5.704 0.000725941 0
M  V30 4177 O 390.793 5.69837 -1.9383 0
M  V30 4178 H 394.619 2.39198 -1.87131 0
M  V30 4179 H 392.204 1.13506 -0.971427 0
M  V30 4180 H 394.086 4.20811 -0.222702 0
M  V30 4181 H 392.761 3.20793 0.432869 0
M  V30 4182 H 391.668 3.23178 -1.88433 0
M  V30 4183 H 393.001 4.2619 -2.46217 0
M  V30 4184 N 394.653 0.992116 1.22453 0
M  V30 4185 C 395.563 0.55065 2.28046 0
M  V30 4186 C 396.579 -0.400189 1.69335 0
M  V30 4187 O 397.755 -0.267215 1.99619 0
M  V30 4188 C 394.82 -0.128496 3.46462 0
M  V30 4189 C 393.881 0.865208 4.20491 0
M  V30 4190 C 393.114 0.218377 5.33253 0
M  V30 4191 O 393.337 -0.987894 5.6178 0
M  V30 4192 O 392.271 0.922845 5.94783 0
M  V30 4193 H 396.097 1.4291 2.67975 0
M  V30 4194 H 393.682 0.760326 1.28606 0
M  V30 4195 H 395.564 -0.508947 4.18315 0
M  V30 4196 H 394.239 -0.981526 3.0846 0
M  V30 4197 H 393.146 1.29658 3.50913 0
M  V30 4198 H 394.479 1.68741 4.62371 0
M  V30 4199 N 396.131 -1.37776 0.765217 0
M  V30 4200 C 397.078 -2.30342 0.145274 0
M  V30 4201 C 398.048 -1.5077 -0.696971 0
M  V30 4202 O 399.233 -1.79362 -0.650689 0
M  V30 4203 C 396.373 -3.37227 -0.732939 0
M  V30 4204 C 395.486 -4.31819 0.125199 0
M  V30 4205 C 394.621 -5.25777 -0.757107 0
M  V30 4206 C 393.66 -6.12012 0.103963 0
M  V30 4207 N 392.797 -6.98232 -0.735953 0
M  V30 4208 H 397.637 -2.8278 0.940195 0
M  V30 4209 H 395.174 -1.39211 0.475255 0
M  V30 4210 H 397.132 -3.97818 -1.25686 0
M  V30 4211 H 395.762 -2.86171 -1.49353 0
M  V30 4212 H 394.814 -3.7259 0.766865 0
M  V30 4213 H 396.126 -4.92509 0.789683 0
M  V30 4214 H 395.28 -5.91541 -1.34776 0
M  V30 4215 H 394.019 -4.65481 -1.45529 0
M  V30 4216 H 393.024 -5.45233 0.707197 0
M  V30 4217 H 394.249 -6.74379 0.799381 0
M  V30 4218 H 392.195 -6.40472 -1.41887 0
M  V30 4219 H 392.112 -7.55891 -0.128624 0
M  V30 4220 H 393.38 -7.68393 -1.31121 0
M  V30 4221 N 397.609 -0.515225 -1.4894 0
M  V30 4222 C 398.556 0.255567 -2.29381 0
M  V30 4223 C 399.526 0.947387 -1.36432 0
M  V30 4224 O 400.711 0.951288 -1.65394 0
M  V30 4225 C 397.851 1.30551 -3.19453 0
M  V30 4226 C 396.964 0.624029 -4.27469 0
M  V30 4227 C 396.099 1.65563 -5.0474 0
M  V30 4228 C 395.138 0.956802 -6.04576 0
M  V30 4229 N 394.275 1.93326 -6.74959 0
M  V30 4230 H 399.115 -0.436607 -2.94784 0
M  V30 4231 H 396.652 -0.227154 -1.45336 0
M  V30 4232 H 398.61 1.92639 -3.70062 0
M  V30 4233 H 397.24 1.96626 -2.56004 0
M  V30 4234 H 396.292 -0.110459 -3.8024 0
M  V30 4235 H 397.604 0.0746092 -4.98744 0
M  V30 4236 H 396.758 2.35119 -5.59289 0
M  V30 4237 H 395.497 2.23893 -4.3327 0
M  V30 4238 H 394.502 0.247097 -5.49244 0
M  V30 4239 H 395.727 0.379814 -6.78037 0
M  V30 4240 H 393.673 2.50591 -6.06251 0
M  V30 4241 H 393.59 1.43489 -7.42258 0
M  V30 4242 H 394.858 2.62126 -7.34105 0
M  V30 4243 N 399.087 1.5561 -0.249682 0
M  V30 4244 C 400.364 1.90932 0.424761 0
M  V30 4245 C 400.744 1.17078 1.75658 0
M  V30 4246 O 400.092 0.289176 2.26663 0
M  V30 4247 C 400.302 3.43975 0.590109 0
M  V30 4248 C 401.65 4.15281 0.884714 0
M  V30 4249 O 402.674 3.49729 0.67587 0
M  V30 4250 O 401.533 5.31236 1.28259 0
M  V30 4251 H 398.627 0.794815 0.228468 0
M  V30 4252 H 401.173 1.67135 -0.293954 0
M  V30 4253 H 399.945 3.89748 -0.34818 0
M  V30 4254 H 399.568 3.73644 1.35926 0
M  V30 4255 N 400.565 -0.0233959 1.57583 0
M  V30 4256 C 401.813 -0.711654 1.89156 0
M  V30 4257 C 402.134 -1.75591 0.848096 0
M  V30 4258 O 401.404 -1.95547 -0.117566 0
M  V30 4259 H 399.984 -0.265835 0.698098 0
M  V30 4260 H 402.646 0.0119948 1.94896 0
M  V30 4261 H 401.742 -1.19766 2.88206 0
M  V30 4262 N 402.043 -1.548 -0.295768 0
M  V30 4263 C 403.32 -1.65014 -1.05023 0
M  V30 4264 C 403.7 -0.501805 -2.05049 0
M  V30 4265 O 403.048 0.500869 -2.22943 0
M  V30 4266 C 403.258 -3.03252 -1.72741 0
M  V30 4267 C 404.606 -3.60242 -2.24746 0
M  V30 4268 O 405.63 -3.05737 -1.82765 0
M  V30 4269 O 404.489 -4.55687 -3.01681 0
M  V30 4270 H 401.583 -0.669314 -0.485744 0
M  V30 4271 H 404.129 -1.67144 -0.293438 0
M  V30 4272 H 402.901 -3.7827 -1.00138 0
M  V30 4273 H 402.524 -3.04922 -2.55163 0
M  V30 4274 N 403.521 0.559213 -1.47345 0
M  V30 4275 C 404.468 1.66645 -1.59682 0
M  V30 4276 C 405.438 1.60168 -0.43994 0
M  V30 4277 O 406.623 1.79031 -0.659736 0
M  V30 4278 C 403.763 3.04969 -1.61518 0
M  V30 4279 C 402.876 3.21897 -2.88108 0
M  V30 4280 C 402.011 4.50608 -2.81294 0
M  V30 4281 C 401.05 4.60961 -4.02717 0
M  V30 4282 N 400.187 5.81024 -3.94151 0
M  V30 4283 H 405.027 1.55439 -2.54249 0
M  V30 4284 H 402.564 0.757219 -1.26113 0
M  V30 4285 H 404.522 3.85064 -1.60566 0
M  V30 4286 H 403.152 3.15015 -0.704645 0
M  V30 4287 H 402.204 2.35248 -2.98936 0
M  V30 4288 H 403.516 3.25412 -3.78032 0
M  V30 4289 H 402.67 5.3896 -2.7858 0
M  V30 4290 H 401.409 4.49568 -1.89049 0
M  V30 4291 H 400.414 3.71021 -4.05738 0
M  V30 4292 H 401.639 4.63761 -4.96087 0
M  V30 4293 H 399.585 5.80938 -3.04708 0
M  V30 4294 H 399.502 5.85909 -4.77752 0
M  V30 4295 H 400.77 6.71744 -3.9545 0
M  V30 4296 N 404.999 1.35443 0.805782 0
M  V30 4297 C 405.946 1.28431 1.91766 0
M  V30 4298 C 406.916 0.156102 1.65365 0
M  V30 4299 O 408.101 0.339936 1.87747 0
M  V30 4300 C 405.241 1.06301 3.2832 0
M  V30 4301 C 404.354 2.2805 3.66902 0
M  V30 4302 C 403.489 1.99064 4.92491 0
M  V30 4303 C 402.528 3.16863 5.23703 0
M  V30 4304 N 401.665 2.87647 6.40471 0
M  V30 4305 H 406.505 2.23511 1.97096 0
M  V30 4306 H 404.042 1.11105 0.964054 0
M  V30 4307 H 406 0.915012 4.07042 0
M  V30 4308 H 404.63 0.148822 3.22457 0
M  V30 4309 H 403.682 2.53711 2.83434 0
M  V30 4310 H 404.994 3.1601 3.85927 0
M  V30 4311 H 404.148 1.81099 5.7904 0
M  V30 4312 H 402.887 1.0839 4.75503 0
M  V30 4313 H 401.892 3.35404 4.35642 0
M  V30 4314 H 403.117 4.08339 5.4262 0
M  V30 4315 H 401.063 1.99568 6.24907 0
M  V30 4316 H 400.98 3.69141 6.59751 0
M  V30 4317 H 402.248 2.73226 7.30047 0
M  V30 4318 N 406.477 -1.02803 1.19454 0
M  V30 4319 C 407.424 -2.11099 0.933046 0
M  V30 4320 C 408.394 -1.65571 -0.132447 0
M  V30 4321 O 409.579 -1.90797 0.00987576 0
M  V30 4322 C 406.719 -3.41763 0.478747 0
M  V30 4323 C 405.832 -4.00833 1.6111 0
M  V30 4324 C 404.967 -5.19511 1.10825 0
M  V30 4325 C 404.006 -5.70639 2.21445 0
M  V30 4326 N 403.143 -6.80589 1.72461 0
M  V30 4327 H 407.983 -2.32804 1.86028 0
M  V30 4328 H 405.52 -1.14179 0.927441 0
M  V30 4329 H 407.478 -4.16736 0.196745 0
M  V30 4330 H 406.108 -3.20166 -0.411493 0
M  V30 4331 H 405.16 -3.23066 2.00829 0
M  V30 4332 H 406.472 -4.34794 2.4445 0
M  V30 4333 H 405.626 -6.01645 0.781533 0
M  V30 4334 H 404.365 -4.87086 0.244606 0
M  V30 4335 H 403.37 -4.87116 2.54947 0
M  V30 4336 H 404.595 -6.05102 3.08267 0
M  V30 4337 H 402.541 -6.50016 0.884056 0
M  V30 4338 H 402.458 -7.13681 2.49389 0
M  V30 4339 H 403.726 -7.66317 1.42755 0
M  V30 4340 N 407.956 -0.998596 -1.21925 0
M  V30 4341 C 408.903 -0.553621 -2.24062 0
M  V30 4342 C 409.873 0.416999 -1.6078 0
M  V30 4343 O 411.058 0.320482 -1.88089 0
M  V30 4344 C 408.198 0.119959 -3.44891 0
M  V30 4345 C 407.311 -0.893077 -4.22668 0
M  V30 4346 C 406.446 -0.192424 -5.30851 0
M  V30 4347 C 405.485 -1.19344 -6.00353 0
M  V30 4348 N 404.622 -0.520707 -7.00166 0
M  V30 4349 H 409.462 -1.4293 -2.61486 0
M  V30 4350 H 406.999 -0.715838 -1.28507 0
M  V30 4351 H 408.957 0.527459 -4.13852 0
M  V30 4352 H 407.587 0.959389 -3.08214 0
M  V30 4353 H 406.639 -1.41886 -3.52948 0
M  V30 4354 H 407.951 -1.65512 -4.70539 0
M  V30 4355 H 407.105 0.271515 -6.06092 0
M  V30 4356 H 405.844 0.602075 -4.83969 0
M  V30 4357 H 404.849 -1.66795 -5.23889 0
M  V30 4358 H 406.074 -1.98891 -6.49322 0
M  V30 4359 H 404.02 0.254252 -6.55507 0
M  V30 4360 H 403.937 -1.2211 -7.46073 0
M  V30 4361 H 405.205 -0.0797596 -7.79459 0
M  V30 4362 N 409.434 1.37368 -0.772513 0
M  V30 4363 C 410.381 2.30262 -0.157488 0
M  V30 4364 C 411.351 1.51137 0.688965 0
M  V30 4365 O 412.536 1.79704 0.641168 0
M  V30 4366 C 409.676 3.37611 0.715045 0
M  V30 4367 C 408.789 4.31746 -0.148098 0
M  V30 4368 C 407.924 5.26171 0.729213 0
M  V30 4369 C 406.963 6.11948 -0.136418 0
M  V30 4370 N 406.1 6.98613 0.698914 0
M  V30 4371 H 410.94 2.82277 -0.955179 0
M  V30 4372 H 408.477 1.38957 -0.482631 0
M  V30 4373 H 410.435 3.98479 1.23575 0
M  V30 4374 H 409.065 2.86959 1.47833 0
M  V30 4375 H 408.117 3.72178 -0.786613 0
M  V30 4376 H 409.429 4.92084 -0.81579 0
M  V30 4377 H 408.583 5.92247 1.31637 0
M  V30 4378 H 407.322 4.66246 1.43059 0
M  V30 4379 H 406.327 5.4485 -0.736102 0
M  V30 4380 H 407.552 6.73945 -0.835134 0
M  V30 4381 H 405.498 6.41215 1.38489 0
M  V30 4382 H 405.415 7.55948 0.0885358 0
M  V30 4383 H 406.683 7.69077 1.27044 0
M  V30 4384 N 410.912 0.523116 1.48665 0
M  V30 4385 C 411.859 -0.243398 2.29513 0
M  V30 4386 C 412.829 -0.940139 1.36933 0
M  V30 4387 O 414.014 -0.942503 1.65896 0
M  V30 4388 C 411.154 -1.28855 3.20141 0
M  V30 4389 C 410.267 -0.60135 4.27794 0
M  V30 4390 C 409.402 -1.62884 5.05611 0
M  V30 4391 C 408.441 -0.924726 6.05075 0
M  V30 4392 N 407.578 -1.89744 6.75975 0
M  V30 4393 H 412.418 0.452234 2.94549 0
M  V30 4394 H 409.955 0.234858 1.45213 0
M  V30 4395 H 411.913 -1.90674 3.71079 0
M  V30 4396 H 410.543 -1.95266 2.57043 0
M  V30 4397 H 409.595 0.130623 3.80176 0
M  V30 4398 H 410.907 -0.0481585 4.98777 0
M  V30 4399 H 410.061 -2.32149 5.60528 0
M  V30 4400 H 408.8 -2.21592 4.34452 0
M  V30 4401 H 407.805 -0.217966 5.49368 0
M  V30 4402 H 409.03 -0.343851 6.78229 0
M  V30 4403 H 406.976 -2.47373 6.07571 0
M  V30 4404 H 406.893 -1.3955 7.43009 0
M  V30 4405 H 408.161 -2.58229 7.35485 0
M  V30 4406 N 412.39 -1.55475 0.257931 0
M  V30 4407 C 413.639 -1.98383 -0.364275 0
M  V30 4408 C 413.952 -1.14952 -1.58258 0
M  V30 4409 O 415.158 -1.47924 -2.27664 0
M  V30 4410 C 413.614 -3.53037 -0.699479 0
M  V30 4411 C 413.222 -4.45223 0.498046 0
M  V30 4412 C 414.966 -4.04575 -1.28526 0
M  V30 4413 C 412.873 -5.91238 0.138383 0
M  V30 4414 H 411.803 -0.740911 -0.13988 0
M  V30 4415 H 414.454 -1.79936 0.359883 0
M  V30 4416 H 412.836 -3.6722 -1.48207 0
M  V30 4417 H 414.01 -4.42803 1.27522 0
M  V30 4418 H 412.325 -4.04226 0.999503 0
M  V30 4419 H 414.922 -5.11196 -1.56788 0
M  V30 4420 H 415.265 -3.5258 -2.21344 0
M  V30 4421 H 415.798 -3.93762 -0.565337 0
M  V30 4422 H 412.537 -6.47294 1.03398 0
M  V30 4423 H 412.057 -5.96768 -0.602374 0
M  V30 4424 H 413.736 -6.46413 -0.27553 0
M  V30 4425 N 413.868 0.0150385 -1.57593 0
M  V30 4426 C 414.815 1.01126 -2.07466 0
M  V30 4427 C 415.785 1.35064 -0.966794 0
M  V30 4428 O 416.97 1.4516 -1.23827 0
M  V30 4429 C 414.11 2.30276 -2.57035 0
M  V30 4430 C 413.223 2.02373 -3.81666 0
M  V30 4431 C 412.358 3.25496 -4.19793 0
M  V30 4432 C 411.397 2.93211 -5.37303 0
M  V30 4433 N 410.534 4.08826 -5.70794 0
M  V30 4434 H 415.374 0.57901 -2.92321 0
M  V30 4435 H 412.911 0.27426 -1.44521 0
M  V30 4436 H 414.869 3.05757 -2.83846 0
M  V30 4437 H 413.499 2.71197 -1.75077 0
M  V30 4438 H 412.551 1.17327 -3.61854 0
M  V30 4439 H 413.863 1.74567 -4.67256 0
M  V30 4440 H 413.017 4.09333 -4.47807 0
M  V30 4441 H 411.756 3.56428 -3.32882 0
M  V30 4442 H 410.761 2.07777 -5.09027 0
M  V30 4443 H 411.986 2.63542 -6.25877 0
M  V30 4444 H 409.932 4.39682 -4.86842 0
M  V30 4445 H 409.849 3.84491 -6.50924 0
M  V30 4446 H 411.117 4.93496 -6.03392 0
M  V30 4447 N 415.346 1.54954 0.287554 0
M  V30 4448 C 416.256 1.8991 1.37736 0
M  V30 4449 C 417.272 0.794701 1.54792 0
M  V30 4450 O 418.448 1.09243 1.69198 0
M  V30 4451 C 415.513 2.15108 2.71899 0
M  V30 4452 C 414.574 3.38752 2.63715 0
M  V30 4453 C 413.807 3.62739 3.91479 0
M  V30 4454 O 414.03 2.89492 4.91478 0
M  V30 4455 O 412.964 4.56267 3.92561 0
M  V30 4456 H 416.79 2.82652 1.11092 0
M  V30 4457 H 414.375 1.41315 0.484807 0
M  V30 4458 H 416.257 2.32806 3.51254 0
M  V30 4459 H 414.932 1.25551 2.9836 0
M  V30 4460 H 413.839 3.26405 1.82786 0
M  V30 4461 H 415.172 4.28483 2.42205 0
M  V30 4462 N 416.824 -0.551391 1.4764 0
M  V30 4463 C 417.771 -1.65796 1.60563 0
M  V30 4464 C 418.741 -1.59932 0.448428 0
M  V30 4465 O 419.926 -1.78679 0.669222 0
M  V30 4466 C 417.066 -3.04108 1.63133 0
M  V30 4467 C 416.179 -3.20365 2.89811 0
M  V30 4468 C 415.314 -4.49109 2.8368 0
M  V30 4469 C 414.353 -4.58819 4.05156 0
M  V30 4470 N 413.49 -5.78926 3.97227 0
M  V30 4471 H 418.33 -1.54088 2.5507 0
M  V30 4472 H 415.867 -0.75052 1.26513 0
M  V30 4473 H 417.825 -3.84207 1.62606 0
M  V30 4474 H 416.455 -3.14637 0.721341 0
M  V30 4475 H 415.507 -2.33659 3.00179 0
M  V30 4476 H 416.819 -3.23402 3.79753 0
M  V30 4477 H 415.973 -5.37475 2.81434 0
M  V30 4478 H 414.712 -4.4856 1.91431 0
M  V30 4479 H 413.717 -3.68864 4.077 0
M  V30 4480 H 414.942 -4.61124 4.98539 0
M  V30 4481 H 412.888 -5.79314 3.07785 0
M  V30 4482 H 412.805 -5.83367 4.80853 0
M  V30 4483 H 414.073 -6.69637 3.99007 0
M  V30 4484 N 418.302 -1.35869 -0.798587 0
M  V30 4485 C 419.532 -1.32529 -1.58491 0
M  V30 4486 C 419.94 0.0975405 -1.88948 0
M  V30 4487 O 419.283 1.06224 -1.49874 0
M  V30 4488 C 419.345 -2.07247 -2.9375 0
M  V30 4489 C 419.009 -3.56391 -2.86068 0
M  V30 4490 C 420.006 -4.50824 -2.58947 0
M  V30 4491 C 417.691 -3.9915 -3.04933 0
M  V30 4492 C 419.685 -5.85993 -2.5078 0
M  V30 4493 C 417.372 -5.34413 -2.96389 0
M  V30 4494 C 418.37 -6.27646 -2.69349 0
M  V30 4495 O 418.058 -7.60426 -2.60782 0
M  V30 4496 H 417.79 -0.456529 -0.498556 0
M  V30 4497 H 420.344 -1.79425 -0.999799 0
M  V30 4498 H 418.574 -1.55001 -3.54276 0
M  V30 4499 H 420.263 -1.96883 -3.54954 0
M  V30 4500 H 421.029 -4.19104 -2.44084 0
M  V30 4501 H 416.908 -3.26961 -3.24989 0
M  V30 4502 H 420.452 -6.58735 -2.29595 0
M  V30 4503 H 416.349 -5.65743 -3.10813 0
M  V30 4504 H 417.117 -7.70444 -2.76331 0
M  V30 4505 N 419.78 1.02168 -1.19998 0
M  V30 4506 C 421.029 1.75091 -1.0013 0
M  V30 4507 C 421.342 1.89923 0.467835 0
M  V30 4508 O 422.548 2.59888 0.785515 0
M  V30 4509 C 421.004 3.14892 -1.74273 0
M  V30 4510 C 420.612 3.0809 -3.25245 0
M  V30 4511 C 422.356 3.9206 -1.62755 0
M  V30 4512 C 420.263 4.42867 -3.91948 0
M  V30 4513 H 419.193 0.656394 -0.37103 0
M  V30 4514 H 421.844 1.14284 -1.43567 0
M  V30 4515 H 420.226 3.7621 -1.2362 0
M  V30 4516 H 421.4 2.5611 -3.83072 0
M  V30 4517 H 419.715 2.44416 -3.3712 0
M  V30 4518 H 422.312 4.91764 -2.09934 0
M  V30 4519 H 422.655 4.12199 -0.582894 0
M  V30 4520 H 423.188 3.37359 -2.10793 0
M  V30 4521 H 419.927 4.27931 -4.96543 0
M  V30 4522 H 419.447 4.94874 -3.3891 0
M  V30 4523 H 421.126 5.11728 -3.95909 0
M  V30 4524 N 421.258 1.00505 1.21394 0
M  V30 4525 C 422.535 0.603277 1.86064 0
M  V30 4526 C 422.915 -0.919095 1.90042 0
M  V30 4527 O 422.263 -1.80607 1.39977 0
M  V30 4528 C 422.473 1.23772 3.26315 0
M  V30 4529 C 423.821 1.34586 4.02705 0
M  V30 4530 O 424.845 1.19304 3.35626 0
M  V30 4531 O 423.704 1.59169 5.22807 0
M  V30 4532 H 420.798 0.206634 0.800769 0
M  V30 4533 H 423.344 1.1017 1.29076 0
M  V30 4534 H 422.116 2.27848 3.18121 0
M  V30 4535 H 421.739 0.725648 3.90922 0
M  V30 4536 N 422.737 -1.36956 0.779787 0
M  V30 4537 C 423.669 -2.28833 0.129639 0
M  V30 4538 C 424.682 -1.4902 -0.655511 0
M  V30 4539 O 425.871 -1.71578 -0.492279 0
M  V30 4540 C 422.971 -3.2833 -0.839792 0
M  V30 4541 C 422.144 -4.3727 -0.10675 0
M  V30 4542 C 421.203 -5.16789 -0.990717 0
M  V30 4543 O 420.229 -5.67406 -0.451516 0
M  V30 4544 N 421.431 -5.32294 -2.3161 0
M  V30 4545 H 424.196 -2.85268 0.918803 0
M  V30 4546 H 421.757 -1.49019 0.632841 0
M  V30 4547 H 423.749 -3.78413 -1.43477 0
M  V30 4548 H 422.319 -2.72605 -1.52988 0
M  V30 4549 H 421.539 -3.88478 0.669216 0
M  V30 4550 H 422.827 -5.07229 0.399464 0
M  V30 4551 H 422.225 -4.92768 -2.77843 0
M  V30 4552 H 420.782 -5.85656 -2.86095 0
M  V30 4553 N 424.215 -0.530993 -1.48385 0
M  V30 4554 C 425.125 0.23503 -2.3342 0
M  V30 4555 C 426.141 0.93801 -1.46552 0
M  V30 4556 O 427.317 0.912745 -1.7953 0
M  V30 4557 C 424.382 1.26778 -3.22689 0
M  V30 4558 C 423.443 0.575038 -4.25431 0
M  V30 4559 C 422.676 1.55858 -5.10435 0
M  V30 4560 O 422.899 2.79129 -4.97437 0
M  V30 4561 O 421.833 1.09742 -5.91811 0
M  V30 4562 H 425.659 -0.461794 -3.00169 0
M  V30 4563 H 423.244 -0.291903 -1.46521 0
M  V30 4564 H 425.126 1.86457 -3.77904 0
M  V30 4565 H 423.801 1.94699 -2.586 0
M  V30 4566 H 422.708 -0.0622782 -3.74048 0
M  V30 4567 H 424.041 -0.062253 -4.92161 0
M  V30 4568 N 425.693 1.55336 -0.266172 0
M  V30 4569 C 426.603 2.2583 0.635458 0
M  V30 4570 C 427.619 1.28106 1.17749 0
M  V30 4571 O 428.795 1.61024 1.20968 0
M  V30 4572 C 425.86 2.95879 1.80712 0
M  V30 4573 C 424.921 4.09059 1.30265 0
M  V30 4574 C 424.154 4.75759 2.41846 0
M  V30 4575 O 424.377 4.41622 3.61007 0
M  V30 4576 O 423.311 5.63888 2.1051 0
M  V30 4577 H 427.137 3.03631 0.0646693 0
M  V30 4578 H 424.722 1.49361 -0.0339177 0
M  V30 4579 H 426.604 3.39932 2.49047 0
M  V30 4580 H 425.279 2.21002 2.36516 0
M  V30 4581 H 424.186 3.69482 0.586019 0
M  V30 4582 H 425.519 4.85811 0.790458 0
M  V30 4583 N 427.171 -0.0066808 1.57599 0
M  V30 4584 C 428.101 -0.999296 2.11036 0
M  V30 4585 C 429.082 -1.36278 1.01795 0
M  V30 4586 O 430.267 -1.4477 1.29442 0
M  V30 4587 C 427.397 -2.29328 2.60818 0
M  V30 4588 C 426.351 -2.07159 3.74525 0
M  V30 4589 C 425.677 -3.42512 4.10596 0
M  V30 4590 C 426.977 -1.43959 5.02069 0
M  V30 4591 H 428.671 -0.554382 2.94223 0
M  V30 4592 H 426.217 -0.265221 1.41536 0
M  V30 4593 H 428.17 -2.99117 2.96828 0
M  V30 4594 H 426.894 -2.7592 1.74745 0
M  V30 4595 H 425.553 -1.39797 3.38899 0
M  V30 4596 H 425.201 -3.86795 3.21556 0
M  V30 4597 H 424.901 -3.28498 4.87199 0
M  V30 4598 H 426.425 -4.13628 4.4916 0
M  V30 4599 H 427.839 -2.03696 5.35893 0
M  V30 4600 H 426.236 -1.40452 5.83432 0
M  V30 4601 H 427.306 -0.407992 4.83181 0
M  V30 4602 N 428.649 -1.55105 -0.279332 0
M  V30 4603 C 429.597 -1.88333 -1.36505 0
M  V30 4604 C 430.591 -0.759043 -1.51443 0
M  V30 4605 O 431.797 -0.943312 -1.53302 0
M  V30 4606 H 428.172 -0.59766 -0.456406 0
M  V30 4607 H 430.143 -2.79041 -1.05728 0
M  V30 4608 C 428.892 -2.16628 -2.7197 0
M  V30 4609 H 428.215 -3.02624 -2.61264 0
M  V30 4610 H 429.655 -2.43803 -3.46895 0
M  V30 4611 C 428.114 -0.971807 -3.22579 0
M  V30 4612 O 428.644 -0.203228 -4.01186 0
M  V30 4613 N 426.85 -0.771238 -2.80179 0
M  V30 4614 H 426.397 -1.39792 -2.1637 0
M  V30 4615 H 426.355 0.0263667 -3.14389 0
M  V30 4616 N 430.127 0.543554 -1.4793 0
M  V30 4617 C 431.074 1.64942 -1.6144 0
M  V30 4618 C 432.044 1.59692 -0.456903 0
M  V30 4619 O 433.229 1.78321 -0.678688 0
M  V30 4620 C 430.369 3.03238 -1.64744 0
M  V30 4621 C 429.482 3.18823 -2.91506 0
M  V30 4622 C 428.617 4.47599 -2.86057 0
M  V30 4623 C 427.656 4.56664 -4.07584 0
M  V30 4624 N 426.793 5.76811 -4.00292 0
M  V30 4625 H 431.633 1.52733 -2.55884 0
M  V30 4626 H 429.17 0.7438 -1.2691 0
M  V30 4627 H 431.128 3.83339 -1.64641 0
M  V30 4628 H 429.758 3.1425 -0.738017 0
M  V30 4629 H 428.81 2.32064 -3.01414 0
M  V30 4630 H 430.122 3.21384 -3.81463 0
M  V30 4631 H 429.276 5.35975 -2.84281 0
M  V30 4632 H 428.015 4.47538 -1.93807 0
M  V30 4633 H 427.02 3.66697 -4.09651 0
M  V30 4634 H 428.245 4.58474 -5.00978 0
M  V30 4635 H 426.191 5.77673 -3.10853 0
M  V30 4636 H 426.108 5.80808 -4.8394 0
M  V30 4637 H 427.376 6.67512 -4.02553 0
M  V30 4638 N 431.605 1.3629 0.791371 0
M  V30 4639 C 432.833 1.33562 1.58016 0
M  V30 4640 C 433.248 -0.0835616 1.88615 0
M  V30 4641 O 432.605 -1.0399 1.49974 0
M  V30 4642 C 432.656 2.15517 2.90232 0
M  V30 4643 O 432.377 3.51902 2.60953 0
M  V30 4644 C 433.878 2.20546 3.84544 0
M  V30 4645 H 431.098 0.458226 0.490173 0
M  V30 4646 H 433.642 1.79361 0.982345 0
M  V30 4647 H 431.797 1.73278 3.46487 0
M  V30 4648 H 432.211 3.94644 3.4548 0
M  V30 4649 H 433.685 2.82252 4.74382 0
M  V30 4650 H 434.162 1.20838 4.2225 0
M  V30 4651 H 434.768 2.63013 3.34222 0
M  V30 4652 N 433.083 -1.0153 1.20538 0
M  V30 4653 C 434.03 -2.10098 0.955383 0
M  V30 4654 C 435 -1.65702 -0.114878 0
M  V30 4655 O 436.185 -1.90776 0.0301118 0
M  V30 4656 C 433.325 -3.41236 0.514969 0
M  V30 4657 C 432.438 -3.99102 1.65353 0
M  V30 4658 C 431.573 -5.18306 1.16329 0
M  V30 4659 C 430.612 -5.68258 2.27485 0
M  V30 4660 N 429.749 -6.78722 1.7967 0
M  V30 4661 H 434.589 -2.30818 1.88486 0
M  V30 4662 H 432.126 -1.13189 0.939499 0
M  V30 4663 H 434.084 -4.16504 0.240935 0
M  V30 4664 H 432.714 -3.20585 -0.377512 0
M  V30 4665 H 431.766 -3.20918 2.04245 0
M  V30 4666 H 433.078 -4.32177 2.49047 0
M  V30 4667 H 432.232 -6.00782 0.845302 0
M  V30 4668 H 430.971 -4.86799 0.296254 0
M  V30 4669 H 429.976 -4.84385 2.60099 0
M  V30 4670 H 431.201 -6.01798 3.14667 0
M  V30 4671 H 429.147 -6.49042 0.95295 0
M  V30 4672 H 429.064 -7.10996 2.56944 0
M  V30 4673 H 430.332 -7.64759 1.50875 0
M  V30 4674 N 434.561 -1.01147 -1.20859 0
M  V30 4675 C 435.972 -0.730205 -1.71828 0
M  V30 4676 C 436.323 0.751662 -1.8123 0
M  V30 4677 O 435.448 1.58686 -1.47132 0
M  V30 4678 C 436.043 -1.31885 -3.12077 0
M  V30 4679 C 434.602 -1.08656 -3.60376 0
M  V30 4680 C 433.749 -1.42769 -2.37723 0
M  V30 4681 H 436.7 -1.18158 -1.05945 0
M  V30 4682 H 436.721 -0.706793 -3.73878 0
M  V30 4683 H 436.233 -2.39737 -3.05201 0
M  V30 4684 H 434.334 -0.0254814 -3.72591 0
M  V30 4685 H 434.447 -1.76301 -4.45483 0
M  V30 4686 H 432.811 -0.846603 -2.40218 0
M  V30 4687 H 433.594 -2.51666 -2.33493 0
M  V30 4688 N 436.039 1.36541 -0.78704 0
M  V30 4689 C 437.288 1.98552 -0.35494 0
M  V30 4690 C 437.601 1.63171 1.07864 0
M  V30 4691 O 438.807 2.18399 1.61289 0
M  V30 4692 C 437.263 3.55136 -0.583671 0
M  V30 4693 C 436.871 3.99444 -2.02851 0
M  V30 4694 C 438.615 4.2395 -0.215957 0
M  V30 4695 C 436.522 5.48796 -2.20403 0
M  V30 4696 H 435.452 0.742888 -0.128972 0
M  V30 4697 H 438.103 1.5587 -0.968337 0
M  V30 4698 H 436.485 3.95875 0.0994046 0
M  V30 4699 H 437.659 3.6991 -2.74779 0
M  V30 4700 H 435.974 3.43459 -2.35425 0
M  V30 4701 H 438.571 5.33709 -0.325405 0
M  V30 4702 H 438.914 4.07827 0.835646 0
M  V30 4703 H 439.447 3.88565 -0.852175 0
M  V30 4704 H 436.186 5.69864 -3.23937 0
M  V30 4705 H 435.706 5.79964 -1.52977 0
M  V30 4706 H 437.385 6.14986 -2.01002 0
M  V30 4707 N 437.518 0.538854 1.48102 0
M  V30 4708 C 438.764 0.0161732 2.03394 0
M  V30 4709 C 439.119 -1.31154 1.40771 0
M  V30 4710 O 438.412 -1.83613 0.547421 0
M  V30 4711 C 438.606 -0.153808 3.57069 0
M  V30 4712 C 438.435 1.15588 4.34591 0
M  V30 4713 C 437.205 1.71818 4.75191 0
M  V30 4714 C 439.403 2.06867 4.70861 0
M  V30 4715 N 437.385 2.96983 5.37284 0
M  V30 4716 C 438.756 3.16609 5.33066 0
M  V30 4717 C 440.811 2.07085 4.52791 0
M  V30 4718 C 439.514 4.26645 5.79109 0
M  V30 4719 C 441.54 3.16121 4.99821 0
M  V30 4720 C 440.902 4.24582 5.62058 0
M  V30 4721 H 437.001 0.0476346 0.780548 0
M  V30 4722 H 439.585 0.722094 1.80815 0
M  V30 4723 H 437.756 -0.828825 3.79454 0
M  V30 4724 H 439.488 -0.676896 3.98999 0
M  V30 4725 H 436.243 1.25845 4.56574 0
M  V30 4726 H 436.667 3.60732 5.72889 0
M  V30 4727 H 441.309 1.24522 4.04047 0
M  V30 4728 H 439.027 5.0998 6.26854 0
M  V30 4729 H 442.613 3.17355 4.87624 0
M  V30 4730 H 441.493 5.07562 5.97788 0
M  V30 4731 N 438.996 -1.55193 0.274407 0
M  V30 4732 C 440.224 -2.03987 -0.345943 0
M  V30 4733 C 440.639 -1.15279 -1.4952 0
M  V30 4734 O 439.996 -0.172759 -1.8168 0
M  V30 4735 C 440.047 -3.51898 -0.827631 0
M  V30 4736 O 439.768 -4.37231 0.275855 0
M  V30 4737 C 441.269 -4.16577 -1.51587 0
M  V30 4738 H 438.489 -0.666335 -0.0789892 0
M  V30 4739 H 441.033 -2.00423 0.406294 0
M  V30 4740 H 439.188 -3.55909 -1.52996 0
M  V30 4741 H 439.602 -5.24415 -0.0943638 0
M  V30 4742 H 441.076 -5.21678 -1.80433 0
M  V30 4743 H 441.553 -3.64707 -2.44716 0
M  V30 4744 H 442.159 -4.16568 -0.857409 0
M  V30 4745 N 440.474 -0.00167713 -1.576 0
M  V30 4746 C 441.89 0.354422 -1.55615 0
M  V30 4747 C 442.09 1.74679 -1.00447 0
M  V30 4748 O 441.146 2.4428 -0.639022 0
M  V30 4749 C 442.459 0.22812 -2.99833 0
M  V30 4750 C 444.007 0.302934 -3.11531 0
M  V30 4751 C 444.482 0.205737 -4.57538 0
M  V30 4752 N 445.973 0.263584 -4.62449 0
M  V30 4753 C 446.708 0.211742 -5.73009 0
M  V30 4754 N 446.204 0.110399 -6.92712 0
M  V30 4755 N 447.997 0.263729 -5.61481 0
M  V30 4756 H 440.148 -0.912498 -1.918 0
M  V30 4757 H 442.411 -0.349928 -0.881053 0
M  V30 4758 H 442.117 -0.729934 -3.44042 0
M  V30 4759 H 441.991 1.00951 -3.6344 0
M  V30 4760 H 444.378 1.25143 -2.67251 0
M  V30 4761 H 444.459 -0.508357 -2.50698 0
M  V30 4762 H 444.103 -0.739225 -5.02492 0
M  V30 4763 H 444.033 1.03554 -5.16318 0
M  V30 4764 H 446.524 0.343173 -3.76339 0
M  V30 4765 H 446.837 0.0767828 -7.72762 0
M  V30 4766 H 445.182 0.0760025 -6.94958 0
M  V30 4767 H 448.373 0.34111 -4.66855 0
M  V30 4768 H 448.546 0.219862 -6.47627 0
M  V30 4769 N 441.952 1.55251 0.271103 0
M  V30 4770 C 442.9 1.89054 1.35504 0
M  V30 4771 C 443.894 0.767064 1.51038 0
M  V30 4772 O 445.1 0.951429 1.528 0
M  V30 4773 H 441.475 0.600072 0.45323 0
M  V30 4774 H 443.446 2.79598 1.04247 0
M  V30 4775 C 442.195 2.18068 2.70817 0
M  V30 4776 H 441.518 3.04005 2.59656 0
M  V30 4777 H 442.958 2.4564 3.45597 0
M  V30 4778 C 441.417 0.988901 3.2206 0
M  V30 4779 O 441.947 0.224501 4.01072 0
M  V30 4780 N 440.153 0.786085 2.79766 0
M  V30 4781 H 439.7 1.40937 2.15626 0
M  V30 4782 H 439.658 -0.00969349 3.14399 0
M  V30 4783 N 443.43 -0.535701 1.48216 0
M  V30 4784 C 444.841 -1.11769 1.49548 0
M  V30 4785 C 445.192 -1.94442 0.26207 0
M  V30 4786 O 444.317 -2.06987 -0.631287 0
M  V30 4787 C 444.912 -2.03367 2.70975 0
M  V30 4788 C 443.471 -2.56795 2.75196 0
M  V30 4789 C 442.618 -1.33631 2.42977 0
M  V30 4790 H 445.569 -0.321232 1.55415 0
M  V30 4791 H 445.59 -2.87569 2.49167 0
M  V30 4792 H 445.102 -1.43169 3.60727 0
M  V30 4793 H 443.203 -3.20731 1.89638 0
M  V30 4794 H 443.316 -2.9632 3.76472 0
M  V30 4795 H 441.68 -1.6502 1.94012 0
M  V30 4796 H 442.463 -0.75194 3.34964 0
M  V30 4797 N 444.908 -1.36708 -0.784132 0
M  V30 4798 C 446.185 -1.21776 -1.53069 0
M  V30 4799 C 446.565 0.193876 -2.10208 0
M  V30 4800 O 445.913 1.20012 -1.94446 0
M  V30 4801 C 446.123 -2.30395 -2.62143 0
M  V30 4802 C 447.471 -2.67325 -3.29882 0
M  V30 4803 O 448.495 -2.29478 -2.7243 0
M  V30 4804 O 447.354 -3.32485 -4.33724 0
M  V30 4805 H 444.448 -0.474459 -0.677361 0
M  V30 4806 H 446.994 -1.48454 -0.82216 0
M  V30 4807 H 445.766 -3.2498 -2.17953 0
M  V30 4808 H 445.389 -2.05112 -3.40609 0
M  V30 4809 N 446.386 1.0089 -1.21074 0
M  V30 4810 C 447.663 1.71834 -0.934469 0
M  V30 4811 C 448.043 2.0368 0.554753 0
M  V30 4812 O 447.391 1.70742 1.51854 0
M  V30 4813 C 447.601 2.98061 -1.8155 0
M  V30 4814 C 448.949 3.7117 -2.06199 0
M  V30 4815 O 449.973 3.08034 -1.78867 0
M  V30 4816 O 448.832 4.84721 -2.52404 0
M  V30 4817 H 445.926 0.749253 -0.35007 0
M  V30 4818 H 448.472 1.06668 -1.31985 0
M  V30 4819 H 447.244 2.70908 -2.82355 0
M  V30 4820 H 446.867 3.70968 -1.43068 0
M  V30 4821 N 447.864 1.01787 1.20321 0
M  V30 4822 C 449.113 0.703249 1.89043 0
M  V30 4823 C 449.426 -0.770445 1.79787 0
M  V30 4824 O 450.632 -1.19767 2.43656 0
M  V30 4825 C 449.088 1.20749 3.3904 0
M  V30 4826 C 448.696 2.70817 3.56878 0
M  V30 4827 C 450.44 0.968352 4.13308 0
M  V30 4828 C 448.347 3.14716 5.00708 0
M  V30 4829 H 447.277 0.259354 0.707991 0
M  V30 4830 H 449.928 1.23072 1.36108 0
M  V30 4831 H 448.31 0.607989 3.91305 0
M  V30 4832 H 449.484 3.36327 3.14993 0
M  V30 4833 H 447.799 2.92888 2.95983 0
M  V30 4834 H 450.396 1.27173 5.19356 0
M  V30 4835 H 450.739 -0.095149 4.16191 0
M  V30 4836 H 451.272 1.53129 3.67146 0
M  V30 4837 H 448.011 4.20347 5.02979 0
M  V30 4838 H 447.531 2.53927 5.43398 0
M  V30 4839 H 449.21 3.07426 5.69296 0
M  V30 4840 N 449.342 -1.36122 0.79427 0
M  V30 4841 C 450.57 -2.03362 0.380989 0
M  V30 4842 C 450.985 -1.59881 -1.00416 0
M  V30 4843 O 450.342 -0.790515 -1.6449 0
M  V30 4844 C 450.393 -3.58804 0.440649 0
M  V30 4845 O 450.114 -4.007 1.77118 0
M  V30 4846 C 451.615 -4.43296 0.0186117 0
M  V30 4847 H 448.835 -0.652526 0.156367 0
M  V30 4848 H 451.379 -1.73998 1.07447 0
M  V30 4849 H 449.534 -3.8686 -0.204458 0
M  V30 4850 H 449.948 -4.95309 1.72538 0
M  V30 4851 H 451.422 -5.51887 0.111488 0
M  V30 4852 H 451.899 -4.2684 -1.03461 0
M  V30 4853 H 452.505 -4.20512 0.636395 0
M  V30 4854 N 450.82 -0.546701 -1.47814 0
M  V30 4855 C 451.768 0.220048 -2.31557 0
M  V30 4856 C 452.762 0.919472 -1.42275 0
M  V30 4857 O 453.968 0.841953 -1.59095 0
M  V30 4858 H 450.343 0.0898334 -0.746615 0
M  V30 4859 H 452.314 -0.505589 -2.94086 0
M  V30 4860 C 451.063 1.24353 -3.24702 0
M  V30 4861 H 450.386 0.714758 -3.93359 0
M  V30 4862 H 451.826 1.75112 -3.8615 0
M  V30 4863 C 450.285 2.28593 -2.47481 0
M  V30 4864 O 450.815 3.35334 -2.21165 0
M  V30 4865 N 449.021 2.02244 -2.08676 0
M  V30 4866 H 448.568 1.15455 -2.30278 0
M  V30 4867 H 448.526 2.72207 -1.57323 0
M  V30 4868 N 452.299 1.55045 -0.282633 0
M  V30 4869 C 453.209 2.26491 0.61147 0
M  V30 4870 C 454.225 1.29348 1.16384 0
M  V30 4871 O 455.401 1.62298 1.19253 0
M  V30 4872 C 452.466 2.97779 1.77563 0
M  V30 4873 C 451.527 4.10418 1.25919 0
M  V30 4874 C 450.76 4.78297 2.36786 0
M  V30 4875 O 450.983 4.45426 3.56303 0
M  V30 4876 O 449.917 5.66089 2.04517 0
M  V30 4877 H 453.743 3.03683 0.0324615 0
M  V30 4878 H 451.328 1.49317 -0.0497576 0
M  V30 4879 H 453.21 3.42554 2.45427 0
M  V30 4880 H 451.885 2.23498 2.34159 0
M  V30 4881 H 450.792 3.70082 0.546797 0
M  V30 4882 H 452.125 4.86622 0.738887 0
M  V30 4883 N 453.777 0.010035 1.57597 0
M  V30 4884 C 454.687 -0.994226 2.12491 0
M  V30 4885 C 455.703 -1.37013 1.07254 0
M  V30 4886 O 456.879 -1.45542 1.3921 0
M  V30 4887 C 453.944 -2.2642 2.62555 0
M  V30 4888 C 453.005 -1.95049 3.82432 0
M  V30 4889 C 452.238 -3.15991 4.30099 0
M  V30 4890 O 452.461 -4.28015 3.7704 0
M  V30 4891 O 451.395 -2.99403 5.22151 0
M  V30 4892 H 455.221 -0.557549 2.98538 0
M  V30 4893 H 452.806 -0.209413 1.47925 0
M  V30 4894 H 454.688 -3.01009 2.9491 0
M  V30 4895 H 453.363 -2.69306 1.796 0
M  V30 4896 H 452.27 -1.17904 3.55034 0
M  V30 4897 H 453.603 -1.56992 4.66491 0
M  V30 4898 N 455.255 -1.55392 -0.262866 0
M  V30 4899 C 456.485 -1.80251 -1.00961 0
M  V30 4900 C 456.893 -0.58117 -1.80053 0
M  V30 4901 O 456.236 0.459427 -1.77862 0
M  V30 4902 C 456.298 -2.98207 -2.00781 0
M  V30 4903 C 455.962 -4.34856 -1.40533 0
M  V30 4904 C 456.959 -5.13459 -0.815853 0
M  V30 4905 C 454.644 -4.8153 -1.42948 0
M  V30 4906 C 456.638 -6.36875 -0.258562 0
M  V30 4907 C 454.325 -6.04899 -0.868334 0
M  V30 4908 C 455.323 -6.8241 -0.283884 0
M  V30 4909 O 455.011 -8.03451 0.268644 0
M  V30 4910 H 454.743 -0.604049 -0.303482 0
M  V30 4911 H 457.297 -2.03257 -0.295926 0
M  V30 4912 H 455.527 -2.70917 -2.75936 0
M  V30 4913 H 457.216 -3.10299 -2.61667 0
M  V30 4914 H 457.982 -4.78526 -0.789812 0
M  V30 4915 H 453.861 -4.21201 -1.87378 0
M  V30 4916 H 457.405 -6.97318 0.198257 0
M  V30 4917 H 453.302 -6.39312 -0.891649 0
M  V30 4918 H 454.07 -8.18346 0.158974 0
M  V30 4919 N 456.733 0.527833 -1.48498 0
M  V30 4920 C 457.981 1.28101 -1.56316 0
M  V30 4921 C 458.302 1.9352 -0.239781 0
M  V30 4922 O 457.572 1.81433 0.738849 0
M  V30 4923 H 456.152 0.475793 -0.575873 0
M  V30 4924 H 458.814 0.614052 -1.84974 0
M  V30 4925 H 457.91 2.05916 -2.34532 0
M  V30 4926 N 458.211 1.37122 0.776871 0
M  V30 4927 C 459.121 1.34651 1.9211 0
M  V30 4928 C 460.137 0.246824 1.7224 0
M  V30 4929 O 461.313 0.48134 1.95563 0
M  V30 4930 C 458.378 1.14748 3.2716 0
M  V30 4931 C 457.439 2.34308 3.5972 0
M  V30 4932 C 456.672 2.15345 4.88326 0
M  V30 4933 O 456.895 1.13507 5.58992 0
M  V30 4934 O 455.829 3.03414 5.1983 0
M  V30 4935 H 459.655 2.31013 1.97146 0
M  V30 4936 H 457.24 1.17799 0.918901 0
M  V30 4937 H 459.122 1.05616 4.0795 0
M  V30 4938 H 457.797 0.214562 3.22988 0
M  V30 4939 H 456.704 2.49011 2.79185 0
M  V30 4940 H 458.037 3.26149 3.68629 0
M  V30 4941 N 459.689 -1.00246 1.21608 0
M  V30 4942 C 460.936 -1.74061 1.03485 0
M  V30 4943 C 461.264 -1.89658 -0.431308 0
M  V30 4944 O 460.519 -1.42976 -1.33627 0
M  V30 4945 C 460.818 -3.15448 1.68009 0
M  V30 4946 C 460.484 -3.19792 3.17874 0
M  V30 4947 C 459.146 -3.20685 3.58768 0
M  V30 4948 C 461.498 -3.16835 4.13842 0
M  V30 4949 C 458.826 -3.16309 4.94131 0
M  V30 4950 C 461.178 -3.14001 5.49169 0
M  V30 4951 C 459.842 -3.13204 5.89457 0
M  V30 4952 H 459.112 -0.636934 0.378677 0
M  V30 4953 H 461.759 -1.17473 1.51236 0
M  V30 4954 H 460.064 -3.75284 1.12557 0
M  V30 4955 H 461.761 -3.71285 1.51487 0
M  V30 4956 H 458.351 -3.19842 2.85305 0
M  V30 4957 H 462.535 -3.15303 3.83272 0
M  V30 4958 H 457.791 -3.14032 5.24589 0
M  V30 4959 H 461.965 -3.10667 6.23265 0
M  V30 4960 H 459.592 -3.09568 6.94314 0
M  V30 4961 N 461.167 -1.02423 -1.1978 0
M  V30 4962 C 462.397 -0.736387 -1.93031 0
M  V30 4963 C 462.805 0.708023 -1.75453 0
M  V30 4964 O 462.148 1.4927 -1.07071 0
M  V30 4965 C 462.21 -1.00194 -3.45255 0
M  V30 4966 C 461.874 -2.43698 -3.86601 0
M  V30 4967 C 462.871 -3.41814 -3.91738 0
M  V30 4968 C 460.556 -2.77975 -4.18372 0
M  V30 4969 C 462.55 -4.72265 -4.28071 0
M  V30 4970 C 460.237 -4.08636 -4.54378 0
M  V30 4971 C 461.235 -5.05592 -4.59201 0
M  V30 4972 O 460.923 -6.33914 -4.94376 0
M  V30 4973 H 460.655 -0.269116 -0.620123 0
M  V30 4974 H 463.209 -1.37043 -1.52998 0
M  V30 4975 H 461.439 -0.310747 -3.85449 0
M  V30 4976 H 463.128 -0.704488 -3.9974 0
M  V30 4977 H 463.894 -3.16671 -3.67348 0
M  V30 4978 H 459.773 -2.0319 -4.13805 0
M  V30 4979 H 463.317 -5.4794 -4.3175 0
M  V30 4980 H 459.214 -4.33556 -4.78226 0
M  V30 4981 H 459.982 -6.38317 -5.12341 0
M  V30 4982 N 462.645 1.35699 -0.801477 0
M  V30 4983 C 463.592 2.29876 -0.206294 0
M  V30 4984 C 464.562 1.52565 0.656752 0
M  V30 4985 O 465.747 1.81024 0.602906 0
M  V30 4986 C 462.887 3.39052 0.643272 0
M  V30 4987 C 462 4.31335 -0.239644 0
M  V30 4988 C 461.135 5.27599 0.61744 0
M  V30 4989 C 460.174 6.11521 -0.26619 0
M  V30 4990 N 459.311 6.99938 0.550571 0
M  V30 4991 H 464.151 2.80187 -1.01484 0
M  V30 4992 H 461.688 1.37902 -0.511997 0
M  V30 4993 H 463.646 4.0101 1.15094 0
M  V30 4994 H 462.276 2.9003 1.41713 0
M  V30 4995 H 461.328 3.70426 -0.865381 0
M  V30 4996 H 462.64 4.90243 -0.919985 0
M  V30 4997 H 461.794 5.94906 1.19045 0
M  V30 4998 H 460.533 4.69176 1.33137 0
M  V30 4999 H 459.538 5.43166 -0.851507 0
M  V30 5000 H 460.763 6.72022 -0.9779 0
M  V30 5001 H 458.709 6.44008 1.24856 0
M  V30 5002 H 458.626 7.55966 -0.071832 0
M  V30 5003 H 459.894 7.71599 1.10702 0
M  V30 5004 N 464.123 0.554532 1.47522 0
M  V30 5005 C 465.348 0.0322661 2.07375 0
M  V30 5006 C 465.773 -1.25079 1.40488 0
M  V30 5007 O 465.131 -1.74859 0.47896 0
M  V30 5008 C 465.179 -0.149397 3.6029 0
M  V30 5009 O 464.283 -1.21259 3.9417 0
M  V30 5010 H 463.624 0.0501228 0.662106 0
M  V30 5011 H 466.154 0.769452 1.8958 0
M  V30 5012 H 466.164 -0.364437 4.06369 0
M  V30 5013 H 464.839 0.787743 4.08372 0
M  V30 5014 H 463.416 -0.97825 3.5984 0
M  V30 5015 N 465.601 -1.54893 0.290851 0
M  V30 5016 C 466.531 -2.26103 -0.583084 0
M  V30 5017 C 467.512 -1.25684 -1.14619 0
M  V30 5018 O 468.697 -1.54436 -1.17741 0
M  V30 5019 C 465.827 -2.99409 -1.75987 0
M  V30 5020 C 464.781 -4.0689 -1.32758 0
M  V30 5021 C 464.107 -4.67856 -2.58872 0
M  V30 5022 C 465.407 -5.20215 -0.46624 0
M  V30 5023 H 467.101 -2.99398 0.0108214 0
M  V30 5024 H 464.647 -1.43998 0.00664468 0
M  V30 5025 H 466.6 -3.47943 -2.37727 0
M  V30 5026 H 465.324 -2.23675 -2.37985 0
M  V30 5027 H 463.983 -3.59191 -0.733299 0
M  V30 5028 H 463.631 -3.88772 -3.19163 0
M  V30 5029 H 463.331 -5.40438 -2.30653 0
M  V30 5030 H 464.855 -5.19147 -3.21433 0
M  V30 5031 H 466.269 -5.64704 -0.989047 0
M  V30 5032 H 464.666 -5.99455 -0.27826 0
M  V30 5033 H 465.736 -4.82198 0.511173 0
M  V30 5034 N 467.08 -0.0183926 -1.57589 0
M  V30 5035 C 468.308 0.673046 -1.95647 0
M  V30 5036 C 468.723 1.66275 -0.894312 0
M  V30 5037 O 468.08 1.82072 0.124975 0
M  V30 5038 C 468.131 1.38884 -3.33756 0
M  V30 5039 O 467.852 0.438806 -4.35897 0
M  V30 5040 C 469.353 2.1731 -3.86383 0
M  V30 5041 H 466.573 0.186292 -0.644621 0
M  V30 5042 H 469.117 -0.0749748 -2.04363 0
M  V30 5043 H 467.272 2.08835 -3.26293 0
M  V30 5044 H 467.686 0.945869 -5.15901 0
M  V30 5045 H 469.16 2.62863 -4.85394 0
M  V30 5046 H 469.637 3.00764 -3.20059 0
M  V30 5047 H 470.243 1.52339 -3.97081 0
M  V30 5048 N 468.558 1.5553 0.254621 0
M  V30 5049 C 469.506 1.9048 1.33492 0
M  V30 5050 C 470.5 0.78304 1.50216 0
M  V30 5051 O 471.706 0.967582 1.51782 0
M  V30 5052 H 468.081 0.604846 0.44684 0
M  V30 5053 H 470.052 2.80688 1.01275 0
M  V30 5054 C 468.801 2.20928 2.68489 0
M  V30 5055 H 468.124 3.06742 2.56417 0
M  V30 5056 H 469.564 2.49291 3.42972 0
M  V30 5057 C 468.023 1.023 3.20993 0
M  V30 5058 O 468.553 0.267027 4.00811 0
M  V30 5059 N 466.759 0.815714 2.78917 0
M  V30 5060 H 466.306 1.43217 2.14119 0
M  V30 5061 H 466.264 0.0236532 3.14391 0
M  V30 5062 N 470.036 -0.519951 1.48776 0
M  V30 5063 C 471.313 -1.28123 1.47797 0
M  V30 5064 C 471.693 -2.10196 0.195157 0
M  V30 5065 O 471.041 -2.13167 -0.822925 0
M  V30 5066 C 471.251 -2.15413 2.74587 0
M  V30 5067 C 472.599 -2.75225 3.23321 0
M  V30 5068 O 473.623 -2.25694 2.75574 0
M  V30 5069 O 472.482 -3.65346 4.06429 0
M  V30 5070 H 469.576 -0.578793 0.590701 0
M  V30 5071 H 472.122 -0.535779 1.6102 0
M  V30 5072 H 470.894 -1.54617 3.59457 0
M  V30 5073 H 470.517 -2.97186 2.64132 0
M  V30 5074 N 471.514 -1.37532 -0.769588 0
M  V30 5075 C 472.76 -1.34063 -1.52966 0
M  V30 5076 C 473.115 0.0737942 -1.92258 0
M  V30 5077 O 472.408 1.03291 -1.61374 0
M  V30 5078 C 472.602 -2.21558 -2.8044 0
M  V30 5079 C 472.431 -3.71367 -2.53608 0
M  V30 5080 C 471.201 -4.40464 -2.47628 0
M  V30 5081 C 473.399 -4.64177 -2.21459 0
M  V30 5082 N 471.381 -5.758 -2.12902 0
M  V30 5083 C 472.752 -5.87907 -1.9689 0
M  V30 5084 C 474.807 -4.52541 -2.07633 0
M  V30 5085 C 473.51 -7.01304 -1.59892 0
M  V30 5086 C 475.536 -5.65825 -1.72034 0
M  V30 5087 C 474.898 -6.88606 -1.48327 0
M  V30 5088 H 470.997 -0.545856 -0.559969 0
M  V30 5089 H 473.581 -1.72773 -0.897634 0
M  V30 5090 H 471.752 -1.85061 -3.41478 0
M  V30 5091 H 473.484 -2.09332 -3.46356 0
M  V30 5092 H 470.239 -3.93491 -2.63556 0
M  V30 5093 H 470.663 -6.47328 -1.9823 0
M  V30 5094 H 475.305 -3.58183 -2.24643 0
M  V30 5095 H 473.023 -7.95594 -1.4162 0
M  V30 5096 H 476.609 -5.58793 -1.61991 0
M  V30 5097 H 475.489 -7.74779 -1.21189 0
M  V30 5098 N 472.992 0.995999 -1.22138 0
M  V30 5099 C 473.902 2.11985 -1.00496 0
M  V30 5100 C 474.918 1.7394 0.0457701 0
M  V30 5101 O 476.094 2.00868 -0.146273 0
M  V30 5102 C 473.159 3.41779 -0.582086 0
M  V30 5103 C 472.22 3.93943 -1.70608 0
M  V30 5104 C 471.453 5.17542 -1.30328 0
M  V30 5105 O 471.676 5.70114 -0.180743 0
M  V30 5106 O 470.61 5.63382 -2.11861 0
M  V30 5107 H 474.436 2.33123 -1.94647 0
M  V30 5108 H 472.021 1.10358 -1.00705 0
M  V30 5109 H 473.903 4.1989 -0.356467 0
M  V30 5110 H 472.578 3.22007 0.330592 0
M  V30 5111 H 471.485 3.17019 -1.98619 0
M  V30 5112 H 472.818 4.18141 -2.59651 0
M  V30 5113 N 474.47 1.03057 1.19235 0
M  V30 5114 C 475.747 0.642608 1.84743 0
M  V30 5115 C 476.127 -0.878577 1.91948 0
M  V30 5116 O 475.475 -1.77597 1.43776 0
M  V30 5117 C 475.685 1.30665 3.23616 0
M  V30 5118 C 477.033 1.43098 3.9976 0
M  V30 5119 O 478.057 1.26396 3.3302 0
M  V30 5120 O 476.916 1.70223 5.19313 0
M  V30 5121 H 474.01 0.223573 0.796206 0
M  V30 5122 H 476.556 1.12883 1.26711 0
M  V30 5123 H 475.328 2.34544 3.13217 0
M  V30 5124 H 474.951 0.808405 3.89295 0
M  V30 5125 N 475.948 -1.35272 0.808662 0
M  V30 5126 C 476.898 -2.27181 0.193124 0
M  V30 5127 C 477.882 -1.47871 -0.634265 0
M  V30 5128 O 479.074 -1.70048 -0.491182 0
M  V30 5129 C 476.203 -3.36979 -0.655751 0
M  V30 5130 C 475.289 -4.23712 0.181481 0
M  V30 5131 N 475.68 -4.90225 1.24551 0
M  V30 5132 C 473.978 -4.45985 -0.0365493 0
M  V30 5133 C 474.679 -5.54537 1.75682 0
M  V30 5134 N 473.655 -5.33107 1.06294 0
M  V30 5135 H 477.457 -2.76101 1.00724 0
M  V30 5136 H 474.971 -1.48823 0.650029 0
M  V30 5137 H 476.968 -4.01774 -1.11279 0
M  V30 5138 H 475.628 -2.89611 -1.46819 0
M  V30 5139 H 476.639 -4.91641 1.62818 0
M  V30 5140 H 473.316 -4.09409 -0.817964 0
M  V30 5141 H 474.706 -6.17597 2.64621 0
M  V30 5142 N 477.426 -0.562348 -1.47226 0
M  V30 5143 C 478.356 0.170627 -2.32876 0
M  V30 5144 C 479.337 0.903748 -1.44106 0
M  V30 5145 O 480.522 0.883206 -1.72954 0
M  V30 5146 C 477.652 1.19786 -3.25989 0
M  V30 5147 C 476.606 0.580875 -4.2404 0
M  V30 5148 C 475.932 1.71311 -5.06514 0
M  V30 5149 C 477.232 -0.468714 -5.20193 0
M  V30 5150 H 478.926 -0.544441 -2.94408 0
M  V30 5151 H 476.472 -0.263271 -1.41573 0
M  V30 5152 H 478.425 1.71884 -3.84752 0
M  V30 5153 H 477.149 1.94294 -2.62521 0
M  V30 5154 H 475.808 0.0811538 -3.6651 0
M  V30 5155 H 475.456 2.44736 -4.39447 0
M  V30 5156 H 475.156 1.30604 -5.72902 0
M  V30 5157 H 476.68 2.23725 -5.68137 0
M  V30 5158 H 478.094 -0.0336028 -5.7329 0
M  V30 5159 H 476.491 -0.794957 -5.94811 0
M  V30 5160 H 477.561 -1.36269 -4.65359 0
M  V30 5161 N 478.904 1.54736 -0.299062 0
M  V30 5162 C 479.867 2.22127 0.565012 0
M  V30 5163 C 480.867 1.20669 1.06281 0
M  V30 5164 O 482.057 1.45417 0.959145 0
M  V30 5165 C 479.189 2.90611 1.78208 0
M  V30 5166 H 480.382 2.99891 -0.0237448 0
M  V30 5167 H 477.935 1.5622 -0.0498788 0
M  V30 5168 H 478.67 2.16921 2.41072 0
M  V30 5169 H 478.455 3.64984 1.43281 0
M  V30 5170 H 479.945 3.42026 2.396 0
M  V30 5171 N 480.382 0.0267497 1.57577 0
M  V30 5172 C 481.628 -0.653371 1.91987 0
M  V30 5173 C 481.961 -1.71915 0.903263 0
M  V30 5174 O 481.236 -1.94358 -0.0743387 0
M  V30 5175 C 481.519 -1.272 3.36886 0
M  V30 5176 C 481.372 -0.215938 4.49281 0
M  V30 5177 C 482.691 -2.19069 3.81703 0
M  V30 5178 H 479.81 -0.236047 0.698177 0
M  V30 5179 H 482.452 0.0835236 1.89816 0
M  V30 5180 H 480.602 -1.90005 3.38866 0
M  V30 5181 H 482.274 0.41449 4.59434 0
M  V30 5182 H 480.517 0.458855 4.31366 0
M  V30 5183 H 481.188 -0.688347 5.47691 0
M  V30 5184 H 483.664 -1.66253 3.81444 0
M  V30 5185 H 482.54 -2.59307 4.83788 0
M  V30 5186 H 482.801 -3.08087 3.17072 0
M  V30 5187 N 481.861 -1.55662 -0.24637 0
M  V30 5188 C 482.808 -1.90361 -1.30504 0
M  V30 5189 C 483.778 -0.757905 -1.47801 0
M  V30 5190 O 484.963 -1.01161 -1.61775 0
M  V30 5191 C 482.103 -2.2042 -2.65535 0
M  V30 5192 C 481.216 -3.47799 -2.56242 0
M  V30 5193 C 480.351 -3.67426 -3.8363 0
M  V30 5194 C 479.39 -4.88403 -3.68956 0
M  V30 5195 N 478.527 -5.04548 -4.88237 0
M  V30 5196 H 483.367 -2.80645 -1.00213 0
M  V30 5197 H 480.904 -1.38924 -0.483577 0
M  V30 5198 H 482.862 -2.35853 -3.44135 0
M  V30 5199 H 481.492 -1.3334 -2.93973 0
M  V30 5200 H 480.544 -3.40694 -1.69208 0
M  V30 5201 H 481.856 -4.36544 -2.4131 0
M  V30 5202 H 481.01 -3.82821 -4.70673 0
M  V30 5203 H 479.749 -2.76914 -4.01459 0
M  V30 5204 H 478.754 -4.72984 -2.80296 0
M  V30 5205 H 479.979 -5.80375 -3.52621 0
M  V30 5206 H 477.925 -4.16974 -5.06427 0
M  V30 5207 H 477.842 -5.87384 -4.75937 0
M  V30 5208 H 479.11 -5.24355 -5.76777 0
M  V30 5209 N 483.339 0.512053 -1.4905 0
M  V30 5210 C 484.289 1.61142 -1.61298 0
M  V30 5211 C 485.273 1.53908 -0.46916 0
M  V30 5212 O 486.465 1.61625 -0.721547 0
M  V30 5213 C 483.594 2.998 -1.67256 0
M  V30 5214 C 482.68 3.12072 -2.87179 0
M  V30 5215 N 483.071 2.94263 -4.11391 0
M  V30 5216 C 481.369 3.43156 -2.84886 0
M  V30 5217 C 482.07 3.10426 -4.91946 0
M  V30 5218 N 481.046 3.38808 -4.251 0
M  V30 5219 H 484.848 1.46011 -2.55065 0
M  V30 5220 H 482.362 0.717934 -1.45669 0
M  V30 5221 H 484.359 3.78794 -1.74128 0
M  V30 5222 H 483.019 3.1601 -0.746195 0
M  V30 5223 H 484.03 2.70661 -4.41546 0
M  V30 5224 H 480.707 3.65611 -2.01581 0
M  V30 5225 H 482.097 3.01243 -6.00585 0
M  V30 5226 N 484.817 1.37938 0.762283 0
M  V30 5227 C 486.064 1.33668 1.52115 0
M  V30 5228 C 486.392 -0.0759538 1.94352 0
M  V30 5229 O 485.647 -1.05121 1.6507 0
M  V30 5230 C 485.946 2.23042 2.79261 0
M  V30 5231 C 485.612 3.71159 2.56031 0
M  V30 5232 C 484.274 4.11523 2.49404 0
M  V30 5233 C 486.626 4.64955 2.35513 0
M  V30 5234 C 483.954 5.43784 2.20263 0
M  V30 5235 C 486.306 5.97464 2.07894 0
M  V30 5236 C 484.97 6.36922 1.99718 0
M  V30 5237 H 484.24 0.489127 0.556629 0
M  V30 5238 H 486.887 1.70224 0.877262 0
M  V30 5239 H 485.192 1.79512 3.48256 0
M  V30 5240 H 486.889 2.17047 3.37182 0
M  V30 5241 H 483.479 3.39153 2.62056 0
M  V30 5242 H 487.663 4.34623 2.39617 0
M  V30 5243 H 482.919 5.73307 2.12435 0
M  V30 5244 H 487.093 6.6969 1.91019 0
M  V30 5245 H 484.72 7.39331 1.76902 0
M  V30 5246 N 486.295 -0.989507 1.22664 0
M  V30 5247 C 487.52 -1.77031 1.08051 0
M  V30 5248 C 487.945 -1.84535 -0.364483 0
M  V30 5249 O 487.303 -1.3003 -1.2634 0
M  V30 5250 C 487.351 -3.18 1.70024 0
M  V30 5251 O 486.455 -4.01161 0.956216 0
M  V30 5252 H 485.796 -0.545008 0.379292 0
M  V30 5253 H 488.326 -1.24277 1.62531 0
M  V30 5254 H 488.336 -3.68616 1.74888 0
M  V30 5255 H 487.011 -3.11853 2.75174 0
M  V30 5256 H 485.588 -3.59687 0.98384 0
M  V30 5257 N 487.773 -1.03688 -1.18687 0
M  V30 5258 C 489.019 -0.739123 -1.88851 0
M  V30 5259 C 489.352 0.731042 -1.79915 0
M  V30 5260 O 488.627 1.53313 -1.19688 0
M  V30 5261 C 488.91 -1.20106 -3.3948 0
M  V30 5262 C 488.763 -2.73304 -3.57246 0
M  V30 5263 C 490.082 -0.788134 -4.32986 0
M  V30 5264 H 487.201 -0.269978 -0.68577 0
M  V30 5265 H 489.843 -1.28822 -1.3966 0
M  V30 5266 H 487.993 -0.733915 -3.81505 0
M  V30 5267 H 489.665 -3.28027 -3.24339 0
M  V30 5268 H 487.908 -3.13313 -3.00029 0
M  V30 5269 H 488.579 -3.00684 -4.62918 0
M  V30 5270 H 491.055 -1.19005 -3.98719 0
M  V30 5271 H 489.931 -1.13915 -5.36949 0
M  V30 5272 H 490.192 0.308988 -4.41019 0
M  V30 5273 N 489.251 1.34841 -0.815825 0
M  V30 5274 C 490.161 2.33425 -0.234462 0
M  V30 5275 C 491.177 1.62295 0.627413 0
M  V30 5276 O 492.353 1.94109 0.536987 0
M  V30 5277 C 489.418 3.41471 0.599849 0
M  V30 5278 C 488.479 4.28362 -0.283596 0
M  V30 5279 C 487.712 5.31248 0.51099 0
M  V30 5280 O 487.935 5.43056 1.7449 0
M  V30 5281 O 486.869 6.01812 -0.10297 0
M  V30 5282 H 490.695 2.84962 -1.05024 0
M  V30 5283 H 488.28 1.37774 -0.577809 0
M  V30 5284 H 490.162 4.07464 1.07475 0
M  V30 5285 H 488.837 2.9219 1.39308 0
M  V30 5286 H 487.744 3.65318 -0.805836 0
M  V30 5287 H 489.077 4.81066 -1.041 0
M  V30 5288 N 490.729 0.570148 1.46925 0
M  V30 5289 C 491.977 0.0508523 2.02036 0
M  V30 5290 C 492.298 -1.30885 1.44548 0
M  V30 5291 O 491.568 -1.85647 0.625453 0
M  V30 5292 H 490.148 0.0158088 0.746833 0
M  V30 5293 H 492.81 0.743086 1.80178 0
M  V30 5294 H 491.906 -0.027575 3.12088 0
M  V30 5295 N 492.207 -1.54576 0.307264 0
M  V30 5296 C 493.139 -2.21212 -0.599807 0
M  V30 5297 C 494.152 -1.20685 -1.09266 0
M  V30 5298 O 495.341 -1.47244 -1.00903 0
M  V30 5299 C 492.441 -2.84994 -1.83389 0
M  V30 5300 C 491.614 -4.11511 -1.48248 0
M  V30 5301 C 490.673 -4.59038 -2.57237 0
M  V30 5302 O 489.699 -5.24095 -2.22065 0
M  V30 5303 N 490.901 -4.31884 -3.87887 0
M  V30 5304 H 493.666 -2.99686 -0.0293075 0
M  V30 5305 H 491.227 -1.61379 0.129738 0
M  V30 5306 H 493.219 -3.1372 -2.5566 0
M  V30 5307 H 491.789 -2.10324 -2.31263 0
M  V30 5308 H 491.009 -3.89728 -0.592122 0
M  V30 5309 H 492.297 -4.93879 -1.22316 0
M  V30 5310 H 491.695 -3.79778 -4.19268 0
M  V30 5311 H 490.252 -4.65304 -4.56438 0
M  V30 5312 N 493.685 -0.035106 -1.57561 0
M  V30 5313 C 494.615 0.942993 -2.13612 0
M  V30 5314 C 495.596 1.33531 -1.05373 0
M  V30 5315 O 496.781 1.41287 -1.33235 0
M  V30 5316 C 493.911 2.22332 -2.66807 0
M  V30 5317 C 492.865 1.97156 -3.79886 0
M  V30 5318 C 492.191 3.31506 -4.19533 0
M  V30 5319 C 493.491 1.30596 -5.05709 0
M  V30 5320 H 495.185 0.476179 -2.95589 0
M  V30 5321 H 492.731 0.227602 -1.4219 0
M  V30 5322 H 494.684 2.91142 -3.04654 0
M  V30 5323 H 493.408 2.7119 -1.81999 0
M  V30 5324 H 492.067 1.30763 -3.42486 0
M  V30 5325 H 491.715 3.78134 -3.31698 0
M  V30 5326 H 491.415 3.15465 -4.95738 0
M  V30 5327 H 492.939 4.01574 -4.59968 0
M  V30 5328 H 494.353 1.89416 -5.41105 0
M  V30 5329 H 492.75 1.24934 -5.86951 0
M  V30 5330 H 493.82 0.279742 -4.84092 0
M  V30 5331 N 495.163 1.55791 0.238111 0
M  V30 5332 C 496.073 1.94196 1.31625 0
M  V30 5333 C 497.089 0.843545 1.52185 0
M  V30 5334 O 498.265 1.1457 1.65637 0
M  V30 5335 C 495.33 2.2365 2.64918 0
M  V30 5336 C 494.391 3.46971 2.52804 0
M  V30 5337 C 493.624 3.7501 3.79741 0
M  V30 5338 O 493.847 3.04982 4.82019 0
M  V30 5339 O 492.781 4.68525 3.77846 0
M  V30 5340 H 496.607 2.86044 1.02043 0
M  V30 5341 H 494.192 1.42786 0.439603 0
M  V30 5342 H 496.074 2.43863 3.4367 0
M  V30 5343 H 494.749 1.34979 2.94215 0
M  V30 5344 H 493.656 3.32055 1.72309 0
M  V30 5345 H 494.989 4.35971 2.28451 0
M  V30 5346 N 496.642 -0.504142 1.49319 0
M  V30 5347 C 497.889 -1.25846 1.58647 0
M  V30 5348 C 498.217 -1.92592 0.27177 0
M  V30 5349 O 497.472 -1.81167 -0.74007 0
M  V30 5350 C 497.771 -2.35021 2.69258 0
M  V30 5351 C 497.437 -1.85755 4.1086 0
M  V30 5352 C 496.099 -1.72038 4.49395 0
M  V30 5353 C 498.451 -1.48844 4.99495 0
M  V30 5354 C 495.779 -1.19783 5.74342 0
M  V30 5355 C 498.131 -0.980422 6.24956 0
M  V30 5356 C 496.795 -0.829622 6.62324 0
M  V30 5357 H 496.065 -0.460505 0.580531 0
M  V30 5358 H 498.712 -0.559716 1.83138 0
M  V30 5359 H 497.017 -3.10672 2.38726 0
M  V30 5360 H 498.714 -2.93083 2.73685 0
M  V30 5361 H 495.304 -1.9739 3.80441 0
M  V30 5362 H 499.488 -1.5829 4.70381 0
M  V30 5363 H 494.744 -1.06817 6.01997 0
M  V30 5364 H 498.918 -0.685608 6.93017 0
M  V30 5365 H 496.545 -0.42253 7.59025 0
M  V30 5366 N 498.12 -1.38341 -0.754957 0
M  V30 5367 C 499.536 -1.19508 -1.05783 0
M  V30 5368 C 499.736 -0.0428005 -2.01455 0
M  V30 5369 O 498.792 0.611861 -2.44975 0
M  V30 5370 C 500.105 -2.52091 -1.63923 0
M  V30 5371 C 501.653 -2.58762 -1.76101 0
M  V30 5372 C 502.128 -3.91517 -2.37652 0
M  V30 5373 N 503.619 -3.93049 -2.45085 0
M  V30 5374 C 504.354 -4.9253 -2.93602 0
M  V30 5375 N 503.85 -6.02408 -3.42165 0
M  V30 5376 N 505.643 -4.79921 -2.92629 0
M  V30 5377 H 497.794 -2.1206 -0.120056 0
M  V30 5378 H 500.057 -0.94089 -0.11589 0
M  V30 5379 H 499.763 -3.36858 -1.01093 0
M  V30 5380 H 499.637 -2.70388 -2.63003 0
M  V30 5381 H 502.024 -1.74391 -2.38058 0
M  V30 5382 H 502.105 -2.44333 -0.757294 0
M  V30 5383 H 501.749 -4.76309 -1.76329 0
M  V30 5384 H 501.679 -4.03256 -3.38662 0
M  V30 5385 H 504.17 -3.13685 -2.10736 0
M  V30 5386 H 504.483 -6.74248 -3.77637 0
M  V30 5387 H 502.828 -6.0603 -3.40225 0
M  V30 5388 H 506.019 -3.93194 -2.54001 0
M  V30 5389 H 506.192 -5.57601 -3.30128 0
M  V30 5390 N 499.598 0.982988 -1.23187 0
M  V30 5391 C 500.561 2.05649 -1.01198 0
M  V30 5392 C 501.561 1.6078 0.0252464 0
M  V30 5393 O 502.751 1.72878 -0.214243 0
M  V30 5394 C 499.883 3.36744 -0.530656 0
M  V30 5395 H 501.076 2.2659 -1.96461 0
M  V30 5396 H 498.629 1.15602 -1.05195 0
M  V30 5397 H 499.364 3.21492 0.425873 0
M  V30 5398 H 499.149 3.7065 -1.2791 0
M  V30 5399 H 500.639 4.15705 -0.397366 0
M  V30 5400 N 501.076 1.04316 1.18135 0
M  V30 5401 C 502.006 0.657299 2.24058 0
M  V30 5402 C 502.987 -0.340678 1.66654 0
M  V30 5403 O 504.172 -0.220223 1.92947 0
M  V30 5404 C 501.302 0.0220715 3.47293 0
M  V30 5405 C 500.256 0.943857 4.17463 0
M  V30 5406 C 499.582 0.172973 5.3442 0
M  V30 5407 C 500.882 2.26409 4.70677 0
M  V30 5408 H 502.576 1.5428 2.56589 0
M  V30 5409 H 500.122 0.743263 1.23335 0
M  V30 5410 H 502.075 -0.259607 4.206 0
M  V30 5411 H 500.799 -0.898323 3.14003 0
M  V30 5412 H 499.458 1.20996 3.46057 0
M  V30 5413 H 499.106 -0.749907 4.97379 0
M  V30 5414 H 498.806 0.787098 5.82304 0
M  V30 5415 H 500.33 -0.101628 6.10515 0
M  V30 5416 H 501.744 2.04294 5.35665 0
M  V30 5417 H 500.141 2.8314 5.29105 0
M  V30 5418 H 501.211 2.90883 3.87962 0
M  V30 5419 N 502.554 -1.34406 0.822964 0
M  V30 5420 C 503.484 -2.32052 0.259608 0
M  V30 5421 C 504.465 -1.58243 -0.623961 0
M  V30 5422 O 505.65 -1.86224 -0.55083 0
M  V30 5423 C 502.78 -3.42434 -0.579314 0
M  V30 5424 C 501.734 -4.27499 0.20712 0
M  V30 5425 C 501.06 -5.29349 -0.754547 0
M  V30 5426 C 502.36 -5.02758 1.41533 0
M  V30 5427 H 504.054 -2.79418 1.07545 0
M  V30 5428 H 501.6 -1.34338 0.518593 0
M  V30 5429 H 503.553 -4.0976 -0.983612 0
M  V30 5430 H 502.277 -2.93717 -1.4282 0
M  V30 5431 H 500.936 -3.61776 0.592787 0
M  V30 5432 H 500.584 -4.76895 -1.59939 0
M  V30 5433 H 500.284 -5.8714 -0.232561 0
M  V30 5434 H 501.808 -5.99544 -1.1567 0
M  V30 5435 H 503.222 -5.62938 1.08504 0
M  V30 5436 H 501.619 -5.70123 1.87296 0
M  V30 5437 H 502.689 -4.32451 2.1935 0
M  V30 5438 N 504.032 -0.577932 -1.46621 0
M  V30 5439 C 505.279 -0.0616879 -2.02406 0
M  V30 5440 C 505.607 1.29638 -1.44997 0
M  V30 5441 O 504.862 1.86176 -0.60308 0
M  V30 5442 C 505.161 0.0590832 -3.57351 0
M  V30 5443 C 504.827 -1.23077 -4.33777 0
M  V30 5444 C 503.489 -1.58416 -4.54376 0
M  V30 5445 C 505.841 -2.08457 -4.77698 0
M  V30 5446 C 503.169 -2.78943 -5.16147 0
M  V30 5447 C 505.521 -3.28204 -5.408 0
M  V30 5448 C 504.185 -3.63832 -5.59627 0
M  V30 5449 H 503.455 -0.0225732 -0.740656 0
M  V30 5450 H 506.102 -0.753609 -1.76048 0
M  V30 5451 H 504.407 0.834104 -3.82818 0
M  V30 5452 H 506.104 0.474202 -3.98186 0
M  V30 5453 H 502.694 -0.945652 -4.18038 0
M  V30 5454 H 506.878 -1.82459 -4.61544 0
M  V30 5455 H 502.134 -3.06689 -5.28916 0
M  V30 5456 H 506.308 -3.94634 -5.73792 0
M  V30 5457 H 503.935 -4.57315 -6.07262 0
M  V30 5458 N 505.51 1.54411 -0.315457 0
M  V30 5459 C 506.756 2.00716 0.289972 0
M  V30 5460 C 507.089 1.2034 1.5242 0
M  V30 5461 O 506.364 0.283579 1.92422 0
M  V30 5462 C 506.647 3.54507 0.632196 0
M  V30 5463 C 506.5 4.45615 -0.61218 0
M  V30 5464 C 507.819 4.15421 1.45305 0
M  V30 5465 H 504.938 0.729637 0.10392 0
M  V30 5466 H 507.58 1.8506 -0.430427 0
M  V30 5467 H 505.73 3.67979 1.24595 0
M  V30 5468 H 507.402 4.44026 -1.25053 0
M  V30 5469 H 505.645 4.15621 -1.24264 0
M  V30 5470 H 506.316 5.51022 -0.328379 0
M  V30 5471 H 508.792 4.05474 0.934331 0
M  V30 5472 H 507.668 5.23157 1.66127 0
M  V30 5473 H 507.929 3.68223 2.44671 0
M  V30 5474 N 506.988 0.0434614 1.5754 0
M  V30 5475 C 508.399 -0.493343 1.80064 0
M  V30 5476 C 508.75 -1.71388 0.955023 0
M  V30 5477 O 507.875 -2.15736 0.169434 0
M  V30 5478 C 508.47 -0.90179 3.26578 0
M  V30 5479 C 507.029 -1.38362 3.50047 0
M  V30 5480 C 506.176 -0.355129 2.75017 0
M  V30 5481 H 509.127 0.2694 1.56397 0
M  V30 5482 H 509.148 -1.76523 3.37075 0
M  V30 5483 H 508.66 -0.013271 3.88098 0
M  V30 5484 H 506.761 -2.29159 2.93798 0
M  V30 5485 H 506.874 -1.3811 4.58762 0
M  V30 5486 H 505.238 -0.826348 2.40922 0
M  V30 5487 H 506.021 0.525172 3.39259 0
M  V30 5488 N 508.466 -1.55915 -0.229846 0
M  V30 5489 C 509.882 -1.48721 -0.579166 0
M  V30 5490 C 510.082 -0.736976 -1.87539 0
M  V30 5491 O 509.138 -0.273258 -2.51017 0
M  V30 5492 C 510.451 -2.9323 -0.666082 0
M  V30 5493 C 511.999 -3.03701 -0.757267 0
M  V30 5494 C 512.474 -4.49552 -0.8756 0
M  V30 5495 N 513.965 -4.53561 -0.940035 0
M  V30 5496 C 514.7 -5.63683 -1.05116 0
M  V30 5497 N 514.196 -6.83576 -1.12675 0
M  V30 5498 N 515.989 -5.51516 -1.08565 0
M  V30 5499 H 508.14 -2.03123 0.620857 0
M  V30 5500 H 510.403 -0.922898 0.21671 0
M  V30 5501 H 510.109 -3.51032 0.21664 0
M  V30 5502 H 509.983 -3.44668 -1.53243 0
M  V30 5503 H 512.37 -2.45969 -1.63043 0
M  V30 5504 H 512.451 -2.55446 0.134583 0
M  V30 5505 H 512.095 -5.079 -0.00692351 0
M  V30 5506 H 512.025 -4.95506 -1.78274 0
M  V30 5507 H 514.516 -3.67215 -0.892269 0
M  V30 5508 H 514.829 -7.63251 -1.21109 0
M  V30 5509 H 513.174 -6.86303 -1.09603 0
M  V30 5510 H 516.365 -4.5678 -1.02319 0
M  V30 5511 H 516.538 -6.37372 -1.1688 0
M  V30 5512 N 509.944 0.496216 -1.49584 0
M  V30 5513 C 511.36 0.827814 -1.36453 0
M  V30 5514 C 511.56 1.97464 -0.401285 0
M  V30 5515 O 510.616 2.51958 0.165296 0
M  V30 5516 C 511.929 1.16352 -2.77277 0
M  V30 5517 C 513.477 1.27145 -2.86013 0
M  V30 5518 C 513.952 1.64042 -4.27615 0
M  V30 5519 N 515.443 1.71082 -4.30448 0
M  V30 5520 C 516.178 2.01085 -5.36984 0
M  V30 5521 N 515.674 2.2928 -6.5376 0
M  V30 5522 N 517.467 2.02376 -5.24405 0
M  V30 5523 H 509.618 -0.259947 -2.10803 0
M  V30 5524 H 511.881 -0.0537163 -0.946477 0
M  V30 5525 H 511.587 0.394153 -3.49484 0
M  V30 5526 H 511.461 2.10582 -3.12946 0
M  V30 5527 H 513.848 2.03152 -2.1404 0
M  V30 5528 H 513.929 0.309542 -2.5392 0
M  V30 5529 H 513.573 0.88583 -5.00115 0
M  V30 5530 H 513.503 2.6134 -4.57175 0
M  V30 5531 H 515.994 1.51434 -3.46232 0
M  V30 5532 H 516.307 2.51376 -7.30774 0
M  V30 5533 H 514.652 2.26726 -6.56978 0
M  V30 5534 H 517.843 1.79829 -4.32179 0
M  V30 5535 H 518.016 2.25425 -6.07526 0
M  V30 5536 N 511.423 1.38739 0.74761 0
M  V30 5537 C 512.386 1.36241 1.84312 0
M  V30 5538 C 513.386 0.261811 1.58654 0
M  V30 5539 O 514.576 0.519031 1.66288 0
M  V30 5540 C 511.708 1.12253 3.21888 0
M  V30 5541 H 512.901 2.33712 1.87933 0
M  V30 5542 H 510.454 1.2412 0.949946 0
M  V30 5543 H 511.189 0.154133 3.23934 0
M  V30 5544 H 510.974 1.91943 3.41907 0
M  V30 5545 H 512.464 1.13215 4.0196 0
M  V30 5546 N 512.901 -0.976442 1.23707 0
M  V30 5547 C 514.312 -1.53284 1.06587 0
M  V30 5548 C 514.663 -1.92765 -0.365526 0
M  V30 5549 O 513.788 -1.7645 -1.25277 0
M  V30 5550 C 514.383 -2.78548 1.92864 0
M  V30 5551 C 512.942 -3.30574 1.79994 0
M  V30 5552 C 512.089 -2.03538 1.88328 0
M  V30 5553 H 515.04 -0.795692 1.37311 0
M  V30 5554 H 515.061 -3.5155 1.45577 0
M  V30 5555 H 514.573 -2.49782 2.97037 0
M  V30 5556 H 512.674 -3.64211 0.786202 0
M  V30 5557 H 512.787 -4.00065 2.636 0
M  V30 5558 H 511.151 -2.17853 1.31954 0
M  V30 5559 H 511.934 -1.77149 2.94063 0
M  V30 5560 N 514.379 -1.04941 -1.1758 0
M  V30 5561 C 515.626 -0.757989 -1.87779 0
M  V30 5562 C 515.954 0.714827 -1.80888 0
M  V30 5563 O 515.209 1.53824 -1.20982 0
M  V30 5564 C 515.508 -1.18062 -3.37337 0
M  V30 5565 C 515.174 -2.65521 -3.6443 0
M  V30 5566 C 513.836 -3.05804 -3.71534 0
M  V30 5567 C 516.188 -3.60822 -3.76108 0
M  V30 5568 C 513.516 -4.40256 -3.87803 0
M  V30 5569 C 515.868 -4.95005 -3.93895 0
M  V30 5570 C 514.532 -5.34945 -3.99237 0
M  V30 5571 H 513.802 -0.277368 -0.68713 0
M  V30 5572 H 516.449 -1.31603 -1.39115 0
M  V30 5573 H 514.754 -0.541525 -3.8804 0
M  V30 5574 H 516.451 -0.932368 -3.9001 0
M  V30 5575 H 513.041 -2.33324 -3.59524 0
M  V30 5576 H 517.225 -3.30841 -3.69943 0
M  V30 5577 H 512.481 -4.70707 -3.90186 0
M  V30 5578 H 516.655 -5.68746 -4.01872 0
M  V30 5579 H 514.282 -6.39135 -4.11596 0
M  V30 5580 N 515.857 1.33968 -0.830081 0
M  V30 5581 C 517.134 1.92554 -0.343858 0
M  V30 5582 C 517.514 1.7573 1.16971 0
M  V30 5583 O 516.862 1.14035 1.98011 0
M  V30 5584 C 517.072 3.40147 -0.781073 0
M  V30 5585 C 518.42 4.17299 -0.78402 0
M  V30 5586 O 519.444 3.48762 -0.724112 0
M  V30 5587 O 518.303 5.39631 -0.863739 0
M  V30 5588 H 515.397 0.821469 -0.0954827 0
M  V30 5589 H 517.943 1.42897 -0.915348 0
M  V30 5590 H 516.715 3.46225 -1.82329 0
M  V30 5591 H 516.338 3.97166 -0.18567 0
M  V30 5592 N 517.335 0.585699 1.46312 0
M  V30 5593 C 518.265 -0.133556 2.33118 0
M  V30 5594 C 519.246 -0.880707 1.45525 0
M  V30 5595 O 520.431 -0.855579 1.74337 0
M  V30 5596 C 517.561 -1.14585 3.27853 0
M  V30 5597 C 516.515 -0.513341 4.2491 0
M  V30 5598 C 515.841 -1.63231 5.09175 0
M  V30 5599 C 517.141 0.551413 5.19381 0
M  V30 5600 H 518.835 0.59121 2.93505 0
M  V30 5601 H 516.381 0.285761 1.41136 0
M  V30 5602 H 518.334 -1.65741 3.87438 0
M  V30 5603 H 517.058 -1.90093 2.65579 0
M  V30 5604 H 515.717 -0.0228349 3.66593 0
M  V30 5605 H 515.365 -2.37713 4.43285 0
M  V30 5606 H 515.065 -1.21473 5.74907 0
M  V30 5607 H 516.589 -2.14658 5.71624 0
M  V30 5608 H 518.003 0.124804 5.73164 0
M  V30 5609 H 516.4 0.889486 5.93471 0
M  V30 5610 H 517.47 1.43655 4.63132 0
M  V30 5611 N 518.813 -1.54241 0.323641 0
M  V30 5612 C 520.06 -2.0057 -0.27891 0
M  V30 5613 C 520.388 -1.21181 -1.52136 0
M  V30 5614 O 519.643 -0.282043 -1.93657 0
M  V30 5615 C 519.942 -3.5129 -0.658031 0
M  V30 5616 C 519.608 -4.48281 0.485252 0
M  V30 5617 C 518.27 -4.74519 0.799055 0
M  V30 5618 C 520.622 -5.05909 1.25322 0
M  V30 5619 C 517.95 -5.55643 1.88354 0
M  V30 5620 C 520.302 -5.88215 2.32779 0
M  V30 5621 C 518.966 -6.12755 2.64741 0
M  V30 5622 H 518.236 -0.733938 -0.10206 0
M  V30 5623 H 520.883 -1.862 0.447435 0
M  V30 5624 H 519.188 -3.63388 -1.4648 0
M  V30 5625 H 520.885 -3.84578 -1.1358 0
M  V30 5626 H 517.475 -4.27979 0.230593 0
M  V30 5627 H 521.659 -4.8562 1.02404 0
M  V30 5628 H 516.915 -5.72888 2.13564 0
M  V30 5629 H 521.089 -6.31888 2.92729 0
M  V30 5630 H 518.716 -6.75404 3.48904 0
M  V30 5631 N 520.291 -0.0518155 -1.57515 0
M  V30 5632 C 521.201 0.937539 -2.15052 0
M  V30 5633 C 522.217 1.34121 -1.10849 0
M  V30 5634 O 523.393 1.418 -1.4302 0
M  V30 5635 C 520.458 2.19379 -2.68466 0
M  V30 5636 C 519.519 1.84841 -3.87469 0
M  V30 5637 C 518.752 3.04477 -4.38326 0
M  V30 5638 O 518.975 4.17868 -3.88256 0
M  V30 5639 O 517.909 2.85453 -5.29906 0
M  V30 5640 H 521.735 0.478201 -2.99912 0
M  V30 5641 H 519.32 0.17012 -1.48428 0
M  V30 5642 H 521.202 2.93084 -3.02787 0
M  V30 5643 H 519.877 2.64449 -1.86677 0
M  V30 5644 H 518.784 1.08449 -3.58036 0
M  V30 5645 H 520.117 1.44569 -4.7049 0
M  V30 5646 N 521.769 1.56035 0.221574 0
M  V30 5647 C 522.717 1.93269 1.29421 0
M  V30 5648 C 523.711 0.814727 1.48521 0
M  V30 5649 O 524.917 0.999559 1.49696 0
M  V30 5650 H 521.292 0.614188 0.43391 0
M  V30 5651 H 523.263 2.82773 0.952987 0
M  V30 5652 C 522.012 2.26573 2.63742 0
M  V30 5653 H 521.335 3.12112 2.49853 0
M  V30 5654 H 522.775 2.5651 3.37607 0
M  V30 5655 C 521.234 1.09086 3.1875 0
M  V30 5656 O 521.764 0.351985 4.00155 0
M  V30 5657 N 519.97 0.874693 2.77124 0
M  V30 5658 H 519.517 1.47726 2.11033 0
M  V30 5659 H 519.475 0.0903349 3.1427 0
M  V30 5660 N 523.247 -0.488276 1.49845 0
M  V30 5661 C 524.663 -0.820566 1.3689 0
M  V30 5662 C 524.863 -1.97248 0.411752 0
M  V30 5663 O 523.919 -2.52042 -0.151931 0
M  V30 5664 C 525.232 -1.1488 2.77891 0
M  V30 5665 C 526.78 -1.25626 2.86683 0
M  V30 5666 C 527.255 -1.61772 4.28479 0
M  V30 5667 N 528.746 -1.68797 4.31349 0
M  V30 5668 C 529.481 -1.98235 5.38043 0
M  V30 5669 N 528.977 -2.2581 6.54967 0
M  V30 5670 N 530.77 -1.99593 5.2547 0
M  V30 5671 H 522.921 0.271123 2.10662 0
M  V30 5672 H 525.184 0.058735 0.946179 0
M  V30 5673 H 524.89 -0.375614 3.49688 0
M  V30 5674 H 524.764 -2.08919 3.14058 0
M  V30 5675 H 527.151 -2.02014 2.15114 0
M  V30 5676 H 527.232 -0.296072 2.54081 0
M  V30 5677 H 526.876 -0.859295 5.00578 0
M  V30 5678 H 526.806 -2.58912 4.58554 0
M  V30 5679 H 529.297 -1.49595 3.4703 0
M  V30 5680 H 529.61 -2.47497 7.32096 0
M  V30 5681 H 527.955 -2.23239 6.58171 0
M  V30 5682 H 531.146 -1.77535 4.33127 0
M  V30 5683 H 531.319 -2.222 6.08713 0
M  V30 5684 N 524.725 -1.39134 -0.740242 0
M  V30 5685 C 525.672 -1.37434 -1.8542 0
M  V30 5686 C 526.642 -0.234822 -1.64432 0
M  V30 5687 O 527.827 -0.429125 -1.85912 0
M  V30 5688 C 524.967 -1.21844 -3.22875 0
M  V30 5689 C 524.08 -2.45296 -3.55603 0
M  V30 5690 C 523.215 -2.22334 -4.82432 0
M  V30 5691 C 522.254 -3.41488 -5.07988 0
M  V30 5692 N 521.391 -3.17877 -6.26018 0
M  V30 5693 H 526.231 -2.3266 -1.86207 0
M  V30 5694 H 523.768 -1.15578 -0.909946 0
M  V30 5695 H 525.726 -1.10818 -4.02213 0
M  V30 5696 H 524.356 -0.3025 -3.21379 0
M  V30 5697 H 523.408 -2.66945 -2.71006 0
M  V30 5698 H 524.72 -3.34063 -3.7041 0
M  V30 5699 H 523.874 -2.0852 -5.69741 0
M  V30 5700 H 522.613 -1.30954 -4.6979 0
M  V30 5701 H 521.618 -3.55807 -4.19144 0
M  V30 5702 H 522.843 -4.33763 -5.22519 0
M  V30 5703 H 520.789 -2.29156 -6.14673 0
M  V30 5704 H 520.706 -4.00198 -6.41387 0
M  V30 5705 H 521.974 -3.07746 -7.16179 0
M  V30 5706 N 526.204 0.969867 -1.24223 0
M  V30 5707 C 527.151 2.06407 -1.0327 0
M  V30 5708 C 528.121 1.66014 0.0533 0
M  V30 5709 O 529.306 1.90533 -0.100896 0
M  V30 5710 C 526.446 3.3909 -0.641262 0
M  V30 5711 C 525.559 3.9269 -1.80051 0
M  V30 5712 C 524.694 5.13631 -1.35486 0
M  V30 5713 C 523.733 5.59423 -2.48419 0
M  V30 5714 N 522.87 6.71586 -2.04737 0
M  V30 5715 H 527.71 2.23663 -1.96923 0
M  V30 5716 H 525.247 1.09624 -0.980862 0
M  V30 5717 H 527.205 4.15323 -0.395351 0
M  V30 5718 H 525.835 3.21765 0.258269 0
M  V30 5719 H 524.887 3.13116 -2.16014 0
M  V30 5720 H 526.199 4.22636 -2.64916 0
M  V30 5721 H 525.353 5.97231 -1.0677 0
M  V30 5722 H 524.092 4.85364 -0.476722 0
M  V30 5723 H 523.097 4.74398 -2.77897 0
M  V30 5724 H 524.322 5.89705 -3.36786 0
M  V30 5725 H 522.268 6.45058 -1.19318 0
M  V30 5726 H 522.185 7.0097 -2.83156 0
M  V30 5727 H 523.453 7.58633 -1.79154 0
M  V30 5728 N 527.682 1.05563 1.17022 0
M  V30 5729 C 528.629 0.659893 2.21165 0
M  V30 5730 C 529.599 -0.339813 1.62587 0
M  V30 5731 O 530.784 -0.230378 1.89404 0
M  V30 5732 C 527.924 0.0447297 3.45071 0
M  V30 5733 C 527.037 1.09372 4.17926 0
M  V30 5734 C 526.172 0.445481 5.29329 0
M  V30 5735 C 525.211 1.47852 5.93975 0
M  V30 5736 N 524.348 0.854172 6.96885 0
M  V30 5737 H 529.188 1.55243 2.54369 0
M  V30 5738 H 526.725 0.776336 1.24946 0
M  V30 5739 H 528.683 -0.329404 4.15898 0
M  V30 5740 H 527.313 -0.811244 3.1244 0
M  V30 5741 H 526.365 1.58564 3.45777 0
M  V30 5742 H 527.677 1.87773 4.62107 0
M  V30 5743 H 526.831 0.0179688 6.06697 0
M  V30 5744 H 525.57 -0.370481 4.86291 0
M  V30 5745 H 524.575 1.91601 5.15334 0
M  V30 5746 H 525.8 2.29645 6.39093 0
M  V30 5747 H 523.746 0.0587882 6.55974 0
M  V30 5748 H 523.663 1.57567 7.39397 0
M  V30 5749 H 524.931 0.451559 7.78191 0
M  V30 5750 N 529.16 -1.33526 0.837174 0
M  V30 5751 C 530.108 -2.31168 0.257698 0
M  V30 5752 C 531.102 -1.5806 -0.609388 0
M  V30 5753 O 532.308 -1.72941 -0.499139 0
M  V30 5754 H 528.683 -0.74922 0.0646058 0
M  V30 5755 H 530.654 -2.77552 1.09578 0
M  V30 5756 C 529.403 -3.4326 -0.553887 0
M  V30 5757 H 528.726 -3.99665 0.104008 0
M  V30 5758 H 530.166 -4.13782 -0.925219 0
M  V30 5759 C 528.625 -2.88965 -1.73207 0
M  V30 5760 O 529.155 -2.85013 -2.83073 0
M  V30 5761 N 527.361 -2.45596 -1.55342 0
M  V30 5762 H 526.908 -2.49009 -0.659705 0
M  V30 5763 H 526.866 -2.0962 -2.34322 0
M  V30 5764 N 530.638 -0.59345 -1.46 0
M  V30 5765 C 531.586 0.146268 -2.3214 0
M  V30 5766 C 532.58 0.873743 -1.45128 0
M  V30 5767 O 533.786 0.790912 -1.61693 0
M  V30 5768 H 530.161 0.0660349 -0.749095 0
M  V30 5769 H 532.132 -0.598895 -2.92328 0
M  V30 5770 C 530.881 1.1396 -3.28494 0
M  V30 5771 H 530.204 0.589252 -3.95434 0
M  V30 5772 H 531.644 1.62738 -3.91526 0
M  V30 5773 C 530.103 2.20604 -2.54628 0
M  V30 5774 O 530.633 3.28128 -2.31722 0
M  V30 5775 N 528.839 1.95502 -2.15005 0
M  V30 5776 H 528.386 1.0807 -2.33834 0
M  V30 5777 H 528.344 2.67064 -1.65904 0
M  V30 5778 N 532.116 1.54067 -0.331816 0
M  V30 5779 C 533.365 1.99895 0.269209 0
M  V30 5780 C 533.678 1.22371 1.52593 0
M  V30 5781 O 534.884 1.58618 2.20347 0
M  V30 5782 C 533.34 3.55972 0.530244 0
M  V30 5783 C 532.948 4.4234 -0.709901 0
M  V30 5784 C 534.692 4.10247 1.09077 0
M  V30 5785 C 532.599 5.89905 -0.420312 0
M  V30 5786 H 531.529 0.746741 0.104371 0
M  V30 5787 H 534.18 1.78014 -0.445324 0
M  V30 5788 H 532.562 3.73873 1.30518 0
M  V30 5789 H 533.736 4.36215 -1.48504 0
M  V30 5790 H 532.051 3.98997 -1.19123 0
M  V30 5791 H 534.648 5.18095 1.32219 0
M  V30 5792 H 534.991 3.62739 2.0427 0
M  V30 5793 H 535.524 3.96011 0.376824 0
M  V30 5794 H 532.263 6.41623 -1.34164 0
M  V30 5795 H 531.783 5.98962 0.316962 0
M  V30 5796 H 533.462 6.46991 -0.0331956 0
M  V30 5797 N 533.594 0.0601682 1.57485 0
M  V30 5798 C 534.541 -0.91112 2.12055 0
M  V30 5799 C 535.511 -1.30298 1.03013 0
M  V30 5800 O 536.696 -1.39087 1.30612 0
M  V30 5801 C 533.836 -2.1775 2.67729 0
M  V30 5802 C 532.949 -1.83933 3.90887 0
M  V30 5803 C 532.084 -3.05096 4.34845 0
M  V30 5804 C 531.123 -2.67241 5.5068 0
M  V30 5805 N 530.26 -3.81127 5.8965 0
M  V30 5806 H 535.1 -0.43888 2.9475 0
M  V30 5807 H 532.637 -0.204995 1.45665 0
M  V30 5808 H 534.595 -2.91866 2.98111 0
M  V30 5809 H 533.225 -2.62535 1.87816 0
M  V30 5810 H 532.277 -0.999287 3.6704 0
M  V30 5811 H 533.589 -1.52074 4.75052 0
M  V30 5812 H 532.743 -3.87502 4.66827 0
M  V30 5813 H 531.482 -3.40139 3.49509 0
M  V30 5814 H 530.487 -1.83254 5.18361 0
M  V30 5815 H 531.712 -2.3338 6.37738 0
M  V30 5816 H 529.658 -4.15954 5.07266 0
M  V30 5817 H 529.575 -3.52997 6.68528 0
M  V30 5818 H 530.843 -4.64145 6.2625 0
M  V30 5819 N 535.072 -1.5615 -0.213296 0
M  V30 5820 C 536.002 -1.96109 -1.26742 0
M  V30 5821 C 536.983 -0.830448 -1.48451 0
M  V30 5822 O 538.168 -1.09339 -1.60495 0
M  V30 5823 C 535.298 -2.28492 -2.61551 0
M  V30 5824 C 534.252 -3.44124 -2.54485 0
M  V30 5825 C 533.578 -3.62134 -3.93399 0
M  V30 5826 C 534.878 -4.78855 -2.08556 0
M  V30 5827 H 536.572 -2.84412 -0.935434 0
M  V30 5828 H 534.118 -1.36836 -0.44854 0
M  V30 5829 H 536.071 -2.55039 -3.3546 0
M  V30 5830 H 534.795 -1.37052 -2.96453 0
M  V30 5831 H 533.454 -3.17639 -1.83033 0
M  V30 5832 H 533.102 -2.68055 -4.25623 0
M  V30 5833 H 532.802 -4.39913 -3.89551 0
M  V30 5834 H 534.326 -3.91038 -4.68958 0
M  V30 5835 H 535.74 -5.04552 -2.72213 0
M  V30 5836 H 534.137 -5.59975 -2.1575 0
M  V30 5837 H 535.207 -4.73657 -1.03811 0
M  V30 5838 N 536.55 0.480323 -1.50102 0
M  V30 5839 C 537.78 1.25475 -1.64133 0
M  V30 5840 C 538.188 1.8647 -0.320272 0
M  V30 5841 O 537.531 1.69561 0.70673 0
M  V30 5842 C 537.593 2.40996 -2.6676 0
M  V30 5843 C 537.257 2.00711 -4.10565 0
M  V30 5844 C 538.254 1.53492 -4.96725 0
M  V30 5845 C 535.939 2.09714 -4.56427 0
M  V30 5846 C 537.933 1.15806 -6.26792 0
M  V30 5847 C 535.62 1.7164 -5.86501 0
M  V30 5848 C 536.618 1.24763 -6.71508 0
M  V30 5849 O 536.306 0.872122 -7.99155 0
M  V30 5850 H 536.038 0.385983 -0.554971 0
M  V30 5851 H 538.592 0.580848 -1.97016 0
M  V30 5852 H 536.822 3.11528 -2.291 0
M  V30 5853 H 538.511 3.02981 -2.70106 0
M  V30 5854 H 539.277 1.45966 -4.62514 0
M  V30 5855 H 535.156 2.4515 -3.90413 0
M  V30 5856 H 538.7 0.791465 -6.93096 0
M  V30 5857 H 534.597 1.78822 -6.20236 0
M  V30 5858 H 535.365 1.00178 -8.12346 0
M  V30 5859 N 538.028 1.39524 0.732853 0
M  V30 5860 C 539.274 1.37068 1.49467 0
M  V30 5861 C 539.607 -0.0327166 1.94172 0
M  V30 5862 O 538.882 -0.998071 1.66939 0
M  V30 5863 C 539.165 2.34494 2.73285 0
M  V30 5864 C 539.018 3.83784 2.34585 0
M  V30 5865 C 540.337 2.29717 3.75391 0
M  V30 5866 H 537.456 0.499206 0.542183 0
M  V30 5867 H 540.098 1.70532 0.837783 0
M  V30 5868 H 538.248 2.06087 3.29333 0
M  V30 5869 H 539.92 4.22949 1.84151 0
M  V30 5870 H 538.163 4.00455 1.66787 0
M  V30 5871 H 538.834 4.47444 3.23262 0
M  V30 5872 H 541.31 2.54839 3.28932 0
M  V30 5873 H 540.186 2.99962 4.59689 0
M  V30 5874 H 540.447 1.30291 4.22465 0
M  V30 5875 N 539.506 -0.963266 1.24736 0
M  V30 5876 C 540.922 -1.23273 1.01371 0
M  V30 5877 C 541.122 -1.99618 -0.274776 0
M  V30 5878 O 540.178 -2.32293 -0.989769 0
M  V30 5879 C 541.491 -2.01554 2.23152 0
M  V30 5880 C 543.039 -2.14629 2.27823 0
M  V30 5881 C 543.514 -2.96307 3.49237 0
M  V30 5882 N 545.005 -3.03887 3.49581 0
M  V30 5883 C 545.74 -3.67456 4.40186 0
M  V30 5884 N 545.236 -4.32706 5.41052 0
M  V30 5885 N 547.029 -3.64511 4.27888 0
M  V30 5886 H 539.18 -0.452294 2.07528 0
M  V30 5887 H 541.443 -0.262521 0.910926 0
M  V30 5888 H 541.149 -1.52847 3.1675 0
M  V30 5889 H 541.023 -3.02278 2.25628 0
M  V30 5890 H 543.41 -2.62537 1.34753 0
M  V30 5891 H 543.491 -1.13238 2.2937 0
M  V30 5892 H 543.135 -2.49091 4.42624 0
M  V30 5893 H 543.065 -3.97905 3.44933 0
M  V30 5894 H 545.556 -2.57477 2.76611 0
M  V30 5895 H 545.869 -4.79042 6.06415 0
M  V30 5896 H 544.214 -4.31361 5.44934 0
M  V30 5897 H 547.405 -3.12715 3.4832 0
M  V30 5898 H 547.578 -4.13768 4.98698 0
M  V30 5899 N 540.985 -1.06182 -1.16461 0
M  V30 5900 C 542.401 -0.785065 -1.38956 0
M  V30 5901 C 542.601 0.616103 -1.9185 0
M  V30 5902 O 541.657 1.37686 -2.11657 0
M  V30 5903 C 542.97 -1.84902 -2.37132 0
M  V30 5904 C 544.518 -1.8724 -2.50819 0
M  V30 5905 C 544.993 -2.92686 -3.52277 0
M  V30 5906 N 546.484 -2.91712 -3.59803 0
M  V30 5907 C 547.219 -3.69949 -4.38093 0
M  V30 5908 N 546.715 -4.58 -5.19815 0
M  V30 5909 N 548.508 -3.58346 -4.33064 0
M  V30 5910 H 540.659 -1.96569 -0.804634 0
M  V30 5911 H 542.922 -0.851747 -0.416211 0
M  V30 5912 H 542.628 -2.85518 -2.0536 0
M  V30 5913 H 542.502 -1.69908 -3.36766 0
M  V30 5914 H 544.889 -0.872827 -2.81897 0
M  V30 5915 H 544.97 -2.06311 -1.51226 0
M  V30 5916 H 544.614 -3.92835 -3.21937 0
M  V30 5917 H 544.544 -2.70864 -4.51598 0
M  V30 5918 H 547.035 -2.27876 -3.01464 0
M  V30 5919 H 547.348 -5.14357 -5.76764 0
M  V30 5920 H 545.693 -4.62056 -5.19162 0
M  V30 5921 H 548.884 -2.88943 -3.68279 0
M  V30 5922 H 549.057 -4.19563 -4.93833 0
M  V30 5923 N 542.463 1.3308 -0.844243 0
M  V30 5924 C 543.709 1.97898 -0.443206 0
M  V30 5925 C 544.042 1.66699 0.99625 0
M  V30 5926 O 543.317 0.949704 1.69738 0
M  V30 5927 C 543.6 3.53801 -0.670606 0
M  V30 5928 C 543.453 3.94667 -2.15772 0
M  V30 5929 C 544.772 4.39936 -0.120226 0
M  V30 5930 H 541.891 0.718861 -0.162504 0
M  V30 5931 H 544.533 1.57633 -1.06075 0
M  V30 5932 H 542.683 3.88229 -0.14496 0
M  V30 5933 H 544.355 3.70469 -2.74865 0
M  V30 5934 H 542.598 3.44203 -2.6402 0
M  V30 5935 H 543.269 5.03275 -2.26757 0
M  V30 5936 H 545.745 4.12183 -0.5696 0
M  V30 5937 H 544.621 5.4803 -0.308984 0
M  V30 5938 H 544.882 4.31184 0.976347 0
M  V30 5939 N 543.941 0.601185 1.45683 0
M  V30 5940 C 545.188 0.0938811 2.02282 0
M  V30 5941 C 545.516 -1.27315 1.47041 0
M  V30 5942 O 544.771 -1.85193 0.632623 0
M  V30 5943 C 545.07 -0.00222425 3.574 0
M  V30 5944 C 544.736 1.29963 4.31764 0
M  V30 5945 C 543.398 1.65625 4.51798 0
M  V30 5946 C 545.75 2.1603 4.74321 0
M  V30 5947 C 543.078 2.87119 5.11644 0
M  V30 5948 C 545.43 3.36766 5.3551 0
M  V30 5949 C 544.094 3.72689 5.53768 0
M  V30 5950 H 543.364 0.0343535 0.740203 0
M  V30 5951 H 546.011 0.781522 1.74827 0
M  V30 5952 H 544.316 -0.773096 3.84097 0
M  V30 5953 H 546.013 -0.410794 3.9889 0
M  V30 5954 H 542.603 1.01204 4.1648 0
M  V30 5955 H 546.787 1.89778 4.58582 0
M  V30 5956 H 542.043 3.15065 5.2397 0
M  V30 5957 H 546.217 4.03713 5.67441 0
M  V30 5958 H 543.844 4.66918 5.99909 0
M  V30 5959 N 545.419 -1.53889 0.339982 0
M  V30 5960 C 546.668 -2.00035 -0.258604 0
M  V30 5961 C 546.981 -1.23179 -1.51942 0
M  V30 5962 O 548.187 -1.59784 -2.19503 0
M  V30 5963 C 546.643 -3.56249 -0.511359 0
M  V30 5964 C 546.251 -4.41957 0.733349 0
M  V30 5965 C 547.995 -4.1082 -1.069 0
M  V30 5966 C 545.902 -5.89673 0.451591 0
M  V30 5967 H 544.832 -0.747284 -0.10041 0
M  V30 5968 H 547.483 -1.77776 0.454758 0
M  V30 5969 H 545.865 -3.7456 -1.28533 0
M  V30 5970 H 547.039 -4.35421 1.50815 0
M  V30 5971 H 545.354 -3.9836 1.21237 0
M  V30 5972 H 547.951 -5.18789 -1.2947 0
M  V30 5973 H 548.294 -3.63817 -2.02343 0
M  V30 5974 H 548.827 -3.96205 -0.355817 0
M  V30 5975 H 545.566 -6.40903 1.37565 0
M  V30 5976 H 545.086 -5.99122 -0.285193 0
M  V30 5977 H 546.765 -6.46965 0.0675067 0
M  V30 5978 N 546.897 -0.0685191 -1.57451 0
M  V30 5979 C 547.83 0.935736 -2.08133 0
M  V30 5980 C 548.808 1.29317 -0.985698 0
M  V30 5981 O 549.992 1.40304 -1.25886 0
M  V30 5982 C 547.119 2.2448 -2.53627 0
M  V30 5983 C 546.165 2.03917 -3.74593 0
M  V30 5984 S 546.998 1.30154 -5.19442 0
M  V30 5985 C 548.154 2.62346 -5.68265 0
M  V30 5986 H 548.387 0.504473 -2.92989 0
M  V30 5987 H 545.92 0.144169 -1.53725 0
M  V30 5988 H 547.878 2.99718 -2.80499 0
M  V30 5989 H 546.539 2.64731 -1.69045 0
M  V30 5990 H 545.732 3.00788 -4.04404 0
M  V30 5991 H 545.334 1.36815 -3.48077 0
M  V30 5992 H 547.626 3.58448 -5.7491 0
M  V30 5993 H 548.569 2.3715 -6.67207 0
M  V30 5994 H 548.977 2.69401 -4.96068 0
M  V30 5995 N 548.375 1.56261 0.205012 0
M  V30 5996 C 549.652 1.70856 0.952233 0
M  V30 5997 C 550.032 0.620501 2.01775 0
M  V30 5998 O 549.38 -0.370035 2.25484 0
M  V30 5999 C 549.59 3.12807 1.54767 0
M  V30 6000 C 550.938 3.72733 2.0336 0
M  V30 6001 O 551.962 3.15873 1.64629 0
M  V30 6002 O 550.821 4.72501 2.746 0
M  V30 6003 H 547.915 0.696496 0.445895 0
M  V30 6004 H 550.461 1.6857 0.195489 0
M  V30 6005 H 549.233 3.83465 0.779132 0
M  V30 6006 H 548.856 3.1928 2.36951 0
M  V30 6007 N 549.853 -0.472356 1.50355 0
M  V30 6008 C 550.801 -1.59126 1.69651 0
M  V30 6009 C 551.795 -1.59793 0.56237 0
M  V30 6010 O 553.001 -1.63957 0.742832 0
M  V30 6011 H 549.376 -0.528008 0.535454 0
M  V30 6012 H 551.347 -1.40013 2.63513 0
M  V30 6013 C 550.096 -2.97075 1.8067 0
M  V30 6014 H 549.419 -2.9728 2.67329 0
M  V30 6015 H 550.859 -3.74825 1.98197 0
M  V30 6016 C 549.318 -3.32247 0.558016 0
M  V30 6017 O 549.848 -4.00553 -0.303399 0
M  V30 6018 N 548.054 -2.87659 0.412415 0
M  V30 6019 H 547.601 -2.32246 1.11443 0
M  V30 6020 H 547.559 -3.11556 -0.421908 0
M  V30 6021 N 551.331 -1.39911 -0.725443 0
M  V30 6022 C 552.571 -1.39096 -1.49772 0
M  V30 6023 C 552.935 0.0106452 -1.91997 0
M  V30 6024 O 554.136 0.143859 -2.68415 0
M  V30 6025 C 552.407 -2.34441 -2.69764 0
M  V30 6026 S 553.966 -2.51898 -3.59295 0
M  V30 6027 H 550.784 -0.49314 -0.512186 0
M  V30 6028 H 553.386 -1.76093 -0.849197 0
M  V30 6029 H 552.09 -3.35123 -2.36898 0
M  V30 6030 H 551.621 -1.98692 -3.39537 0
M  V30 6031 H 553.636 -1.76402 -4.63785 0
M  V30 6032 N 552.809 0.956637 -1.25245 0
M  V30 6033 C 553.719 2.0868 -1.0719 0
M  V30 6034 C 554.735 1.73997 -0.00959074 0
M  V30 6035 O 555.911 2.00301 -0.210104 0
M  V30 6036 C 552.976 3.39754 -0.690526 0
M  V30 6037 C 552.037 3.88316 -1.83055 0
M  V30 6038 C 551.27 5.13134 -1.46728 0
M  V30 6039 O 551.493 5.6925 -0.362029 0
M  V30 6040 O 550.427 5.56356 -2.29677 0
M  V30 6041 H 554.253 2.26813 -2.01965 0
M  V30 6042 H 551.838 1.07098 -1.04165 0
M  V30 6043 H 553.72 4.18543 -0.489871 0
M  V30 6044 H 552.395 3.22896 0.227981 0
M  V30 6045 H 551.302 3.1054 -2.08604 0
M  V30 6046 H 552.635 4.09669 -2.72822 0
M  V30 6047 N 554.287 1.06798 1.15896 0
M  V30 6048 C 555.197 0.694564 2.24083 0
M  V30 6049 C 556.213 -0.291687 1.71538 0
M  V30 6050 O 557.389 -0.139723 2.00915 0
M  V30 6051 C 554.454 0.0921014 3.46578 0
M  V30 6052 C 553.515 1.13087 4.14137 0
M  V30 6053 C 552.748 0.557064 5.30785 0
M  V30 6054 O 552.971 -0.628623 5.66925 0
M  V30 6055 O 551.905 1.29924 5.8771 0
M  V30 6056 H 555.731 1.59663 2.58344 0
M  V30 6057 H 553.316 0.840575 1.2351 0
M  V30 6058 H 555.198 -0.241884 4.20705 0
M  V30 6059 H 553.873 -0.78337 3.14078 0
M  V30 6060 H 552.78 1.51712 3.41957 0
M  V30 6061 H 554.113 1.97805 4.50704 0
M  V30 6062 N 555.766 -1.3263 0.851289 0
M  V30 6063 C 556.696 -2.31449 0.308771 0
M  V30 6064 C 557.677 -1.59531 -0.590255 0
M  V30 6065 O 558.862 -1.87351 -0.511205 0
M  V30 6066 C 555.992 -3.43586 -0.506548 0
M  V30 6067 C 554.946 -4.26963 0.297753 0
M  V30 6068 C 554.272 -5.30831 -0.642094 0
M  V30 6069 C 555.572 -4.99643 1.52166 0
M  V30 6070 H 557.266 -2.77074 1.13447 0
M  V30 6071 H 554.812 -1.33207 0.546971 0
M  V30 6072 H 556.765 -4.11754 -0.896474 0
M  V30 6073 H 555.489 -2.96681 -1.36558 0
M  V30 6074 H 554.148 -3.60437 0.669391 0
M  V30 6075 H 553.796 -4.8018 -1.49788 0
M  V30 6076 H 553.496 -5.87501 -0.107968 0
M  V30 6077 H 555.02 -6.01862 -1.02927 0
M  V30 6078 H 556.434 -5.6051 1.20421 0
M  V30 6079 H 554.831 -5.66022 1.99347 0
M  V30 6080 H 555.901 -4.27701 2.28474 0
M  V30 6081 N 557.244 -0.608902 -1.45362 0
M  V30 6082 C 558.493 -0.10218 -2.01441 0
M  V30 6083 C 558.806 1.27546 -1.48295 0
M  V30 6084 O 560.012 1.87498 -1.96359 0
M  V30 6085 C 558.468 -0.131985 -3.59658 0
M  V30 6086 C 558.076 -1.50956 -4.21801 0
M  V30 6087 C 559.82 0.319427 -4.23296 0
M  V30 6088 C 557.727 -1.49568 -5.72174 0
M  V30 6089 H 556.657 -0.0344314 -0.753213 0
M  V30 6090 H 559.308 -0.764426 -1.6682 0
M  V30 6091 H 557.69 0.596939 -3.91475 0
M  V30 6092 H 558.864 -2.26029 -4.01556 0
M  V30 6093 H 557.179 -1.90318 -3.70362 0
M  V30 6094 H 559.776 0.349013 -5.3356 0
M  V30 6095 H 560.119 1.34237 -3.94064 0
M  V30 6096 H 560.652 -0.356273 -3.96201 0
M  V30 6097 H 557.391 -2.49626 -6.06108 0
M  V30 6098 H 556.911 -0.787542 -5.94607 0
M  V30 6099 H 558.59 -1.21989 -6.35396 0
M  V30 6100 N 558.722 1.53707 -0.348139 0
M  V30 6101 C 560.133 1.86213 0.134797 0
M  V30 6102 C 560.484 1.26925 1.49614 0
M  V30 6103 O 559.609 0.584573 2.08355 0
M  V30 6104 C 560.204 3.37866 0.251371 0
M  V30 6105 C 558.763 3.70233 0.678543 0
M  V30 6106 C 557.91 2.76683 -0.184925 0
M  V30 6107 H 560.861 1.48204 -0.567571 0
M  V30 6108 H 560.882 3.64908 1.07806 0
M  V30 6109 H 560.394 3.80988 -0.739581 0
M  V30 6110 H 558.495 3.32659 1.67835 0
M  V30 6111 H 558.608 4.76836 0.465251 0
M  V30 6112 H 556.972 2.52374 0.343465 0
M  V30 6113 H 557.755 3.22635 -1.1731 0
M  V30 6114 N 560.2 0.0768682 1.57412 0
M  V30 6115 C 561.11 -0.903207 2.16516 0
M  V30 6116 C 562.126 -1.32341 1.12968 0
M  V30 6117 O 563.302 -1.39507 1.45258 0
M  V30 6118 C 560.367 -2.1508 2.71922 0
M  V30 6119 C 559.428 -1.78653 3.90361 0
M  V30 6120 C 558.661 -2.97465 4.43114 0
M  V30 6121 O 558.884 -4.11638 3.94854 0
M  V30 6122 O 557.818 -2.76987 5.3438 0
M  V30 6123 H 561.644 -0.430427 3.00634 0
M  V30 6124 H 559.229 -0.146485 1.4868 0
M  V30 6125 H 561.111 -2.8823 3.07411 0
M  V30 6126 H 559.786 -2.61446 1.9086 0
M  V30 6127 H 558.693 -1.0274 3.59716 0
M  V30 6128 H 560.026 -1.37066 4.7273 0
M  V30 6129 N 561.678 -1.56367 -0.196722 0
M  V30 6130 C 562.908 -1.84371 -0.932254 0
M  V30 6131 C 563.316 -0.657013 -1.77426 0
M  V30 6132 O 562.659 0.383576 -1.79651 0
M  V30 6133 C 562.721 -3.06454 -1.87952 0
M  V30 6134 C 562.385 -4.40425 -1.21962 0
M  V30 6135 C 563.382 -5.16457 -0.597343 0
M  V30 6136 C 561.067 -4.8716 -1.22396 0
M  V30 6137 C 563.061 -6.37399 0.0117913 0
M  V30 6138 C 560.748 -6.08038 -0.610995 0
M  V30 6139 C 561.746 -6.83 0.00580487 0
M  V30 6140 O 561.434 -8.01589 0.609173 0
M  V30 6141 H 561.166 -0.616377 -0.277589 0
M  V30 6142 H 563.72 -2.04329 -0.209452 0
M  V30 6143 H 561.95 -2.82377 -2.64197 0
M  V30 6144 H 563.639 -3.21118 -2.48271 0
M  V30 6145 H 564.405 -4.81445 -0.586142 0
M  V30 6146 H 560.284 -4.2877 -1.69345 0
M  V30 6147 H 563.828 -6.9585 0.493836 0
M  V30 6148 H 559.725 -6.42519 -0.619693 0
M  V30 6149 H 560.493 -8.16935 0.505919 0
M  V30 6150 N 563.156 0.464375 -1.50603 0
M  V30 6151 C 564.086 1.56944 -1.72889 0
M  V30 6152 C 565.067 1.59979 -0.577997 0
M  V30 6153 O 566.252 1.76138 -0.817855 0
M  V30 6154 C 563.382 2.95225 -1.8292 0
M  V30 6155 C 562.336 3.07056 -2.98162 0
M  V30 6156 C 561.662 4.47051 -2.93343 0
M  V30 6157 C 562.962 2.83648 -4.38567 0
M  V30 6158 H 564.656 1.38547 -2.65415 0
M  V30 6159 H 562.202 0.665082 -1.27721 0
M  V30 6160 H 564.155 3.72467 -1.97095 0
M  V30 6161 H 562.879 3.14793 -0.870209 0
M  V30 6162 H 561.538 2.32248 -2.83648 0
M  V30 6163 H 561.186 4.63547 -1.95276 0
M  V30 6164 H 560.886 4.55902 -3.70712 0
M  V30 6165 H 562.41 5.26304 -3.09575 0
M  V30 6166 H 563.824 3.50636 -4.53572 0
M  V30 6167 H 562.221 3.03937 -5.17438 0
M  V30 6168 H 563.291 1.79451 -4.50472 0
M  V30 6169 N 564.634 1.40294 0.718013 0
M  V30 6170 C 565.582 1.40536 1.85344 0
M  V30 6171 C 566.576 0.286192 1.66965 0
M  V30 6172 O 567.782 0.457105 1.74099 0
M  V30 6173 H 564.157 0.439236 0.61039 0
M  V30 6174 H 566.128 2.36275 1.82255 0
M  V30 6175 C 564.877 1.28245 3.23185 0
M  V30 6176 H 564.2 2.1364 3.37932 0
M  V30 6177 H 565.64 1.32474 4.02774 0
M  V30 6178 C 564.099 -0.0075503 3.36899 0
M  V30 6179 O 564.629 -0.971391 3.89778 0
M  V30 6180 N 562.835 -0.0762479 2.905 0
M  V30 6181 H 562.382 0.708819 2.47656 0
M  V30 6182 H 562.34 -0.938846 3.00055 0
M  V30 6183 N 566.112 -0.949982 1.2575 0
M  V30 6184 C 567.359 -1.69515 1.10774 0
M  V30 6185 C 567.687 -1.91316 -0.350479 0
M  V30 6186 O 566.942 -1.48515 -1.27443 0
M  V30 6187 C 567.241 -3.08039 1.81237 0
M  V30 6188 C 566.907 -3.06023 3.31151 0
M  V30 6189 C 565.569 -3.0518 3.72047 0
M  V30 6190 C 567.921 -2.98998 4.26907 0
M  V30 6191 C 565.249 -2.95067 5.07102 0
M  V30 6192 C 567.601 -2.90426 5.61992 0
M  V30 6193 C 566.265 -2.87922 6.0221 0
M  V30 6194 H 565.535 -0.6203 0.405351 0
M  V30 6195 H 568.182 -1.10953 1.56082 0
M  V30 6196 H 566.487 -3.70172 1.28373 0
M  V30 6197 H 568.184 -3.64526 1.67098 0
M  V30 6198 H 564.774 -3.07453 2.98614 0
M  V30 6199 H 568.958 -2.98764 3.963 0
M  V30 6200 H 564.214 -2.915 5.37436 0
M  V30 6201 H 568.388 -2.83952 6.35881 0
M  V30 6202 H 566.015 -2.79841 7.06819 0
M  V30 6203 N 567.59 -1.07411 -1.15328 0
M  V30 6204 C 568.839 -0.792643 -1.85473 0
M  V30 6205 C 569.152 0.683789 -1.83259 0
M  V30 6206 O 570.358 1.08005 -2.49093 0
M  V30 6207 C 568.814 -1.36787 -3.32892 0
M  V30 6208 C 568.422 -2.87536 -3.43551 0
M  V30 6209 C 570.166 -1.16444 -4.08217 0
M  V30 6210 C 568.073 -3.38247 -4.85122 0
M  V30 6211 H 567.003 -0.292838 -0.694811 0
M  V30 6212 H 569.654 -1.29426 -1.30082 0
M  V30 6213 H 568.036 -0.793993 -3.87958 0
M  V30 6214 H 569.21 -3.50973 -2.98588 0
M  V30 6215 H 567.525 -3.06676 -2.81672 0
M  V30 6216 H 570.122 -1.51808 -5.12697 0
M  V30 6217 H 570.465 -0.10353 -4.16171 0
M  V30 6218 H 570.998 -1.70472 -3.59422 0
M  V30 6219 H 567.737 -4.43866 -4.82351 0
M  V30 6220 H 567.257 -2.79564 -5.30664 0
M  V30 6221 H 568.936 -3.34238 -5.5398 0
M  V30 6222 N 569.068 1.32177 -0.85831 0
M  V30 6223 C 570.484 1.49873 -0.548656 0
M  V30 6224 C 570.684 1.79278 0.919874 0
M  V30 6225 O 569.74 1.86451 1.70271 0
M  V30 6226 C 571.053 2.64043 -1.4388 0
M  V30 6227 C 572.601 2.77928 -1.43961 0
M  V30 6228 C 573.076 3.95182 -2.31506 0
M  V30 6229 N 574.567 4.0245 -2.29321 0
M  V30 6230 C 575.302 4.9242 -2.93786 0
M  V30 6231 N 574.798 5.87373 -3.67376 0
M  V30 6232 N 576.591 4.85572 -2.83155 0
M  V30 6233 H 568.742 1.11357 -1.80868 0
M  V30 6234 H 571.005 0.549175 -0.772729 0
M  V30 6235 H 570.711 2.49055 -2.48324 0
M  V30 6236 H 570.585 3.59912 -1.12885 0
M  V30 6237 H 572.972 2.92338 -0.402813 0
M  V30 6238 H 573.053 1.82762 -1.78974 0
M  V30 6239 H 572.697 3.81531 -3.35256 0
M  V30 6240 H 572.627 4.89633 -1.93823 0
M  V30 6241 H 575.118 3.34507 -1.75822 0
M  V30 6242 H 575.431 6.52728 -4.13722 0
M  V30 6243 H 573.776 5.87388 -3.71484 0
M  V30 6244 H 576.967 4.10363 -2.25211 0
M  V30 6245 H 577.14 5.55486 -3.33676 0
M  V30 6246 N 570.547 0.616602 1.45037 0
M  V30 6247 C 571.795 0.115103 2.01772 0
M  V30 6248 C 572.116 -1.2622 1.48639 0
M  V30 6249 O 571.386 -1.83563 0.684199 0
M  V30 6250 H 569.966 0.0395607 0.745952 0
M  V30 6251 H 572.628 0.800032 1.77723 0
M  V30 6252 H 571.724 0.0717274 3.12018 0
M  V30 6253 N 572.025 -1.5352 0.356285 0
M  V30 6254 C 573.271 -2.01414 -0.236653 0
M  V30 6255 C 573.604 -1.24339 -1.49176 0
M  V30 6256 O 572.879 -0.334496 -1.91602 0
M  V30 6257 C 573.162 -3.56059 -0.537982 0
M  V30 6258 C 573.015 -4.43835 0.730112 0
M  V30 6259 C 574.334 -4.19127 -1.34239 0
M  V30 6260 H 571.453 -0.732135 -0.0845386 0
M  V30 6261 H 574.095 -1.83854 0.479341 0
M  V30 6262 H 572.245 -3.71153 -1.14795 0
M  V30 6263 H 573.917 -4.40555 1.36782 0
M  V30 6264 H 572.16 -4.1218 1.3524 0
M  V30 6265 H 572.831 -5.49958 0.474358 0
M  V30 6266 H 575.307 -4.07809 -0.826498 0
M  V30 6267 H 574.183 -5.27378 -1.52198 0
M  V30 6268 H 574.444 -3.74581 -2.34822 0
M  V30 6269 N 573.503 -0.0852151 -1.57369 0
M  V30 6270 C 574.749 0.581666 -1.94279 0
M  V30 6271 C 575.082 1.68444 -0.966446 0
M  V30 6272 O 574.357 1.945 0.00215277 0
M  V30 6273 C 574.64 1.14609 -3.41375 0
M  V30 6274 C 574.493 0.0490414 -4.49773 0
M  V30 6275 C 575.812 2.04751 -3.8957 0
M  V30 6276 H 572.931 0.209972 -0.706456 0
M  V30 6277 H 575.573 -0.153915 -1.89376 0
M  V30 6278 H 573.723 1.77297 -3.45685 0
M  V30 6279 H 575.395 -0.584721 -4.57579 0
M  V30 6280 H 573.638 -0.618638 -4.29366 0
M  V30 6281 H 574.309 0.484601 -5.49869 0
M  V30 6282 H 576.785 1.51981 -3.87351 0
M  V30 6283 H 575.661 2.41173 -4.93079 0
M  V30 6284 H 575.922 2.96107 -3.28288 0
M  V30 6285 N 574.981 1.5647 0.188427 0
M  V30 6286 C 576.258 1.71857 0.934058 0
M  V30 6287 C 576.638 0.641867 2.01105 0
M  V30 6288 O 575.986 -0.346098 2.25864 0
M  V30 6289 C 576.196 3.14431 1.5144 0
M  V30 6290 C 577.544 3.74869 1.99396 0
M  V30 6291 O 578.568 3.17601 1.61269 0
M  V30 6292 O 577.427 4.75387 2.69573 0
M  V30 6293 H 574.521 0.701186 0.438483 0
M  V30 6294 H 577.067 1.68768 0.177599 0
M  V30 6295 H 575.839 3.8427 0.738416 0
M  V30 6296 H 575.462 3.21775 2.33552 0
M  V30 6297 N 576.459 -0.456382 1.50847 0
M  V30 6298 C 577.684 -1.2349 1.66628 0
M  V30 6299 C 578.109 -1.84715 0.355254 0
M  V30 6300 O 577.467 -1.67961 -0.682559 0
M  V30 6301 C 577.515 -2.30865 2.77009 0
M  V30 6302 O 576.619 -3.35882 2.39285 0
M  V30 6303 H 575.96 -0.36266 0.556214 0
M  V30 6304 H 578.49 -0.541374 1.97308 0
M  V30 6305 H 578.5 -2.75949 3.00526 0
M  V30 6306 H 577.175 -1.85677 3.72152 0
M  V30 6307 H 575.752 -2.96406 2.26269 0
M  V30 6308 N 577.937 -1.40673 -0.710563 0
M  V30 6309 C 578.847 -1.43663 -1.85467 0
M  V30 6310 C 579.863 -0.328721 -1.70867 0
M  V30 6311 O 581.039 -0.574098 -1.93044 0
M  V30 6312 C 578.104 -1.30226 -3.21313 0
M  V30 6313 C 577.165 -2.51204 -3.48131 0
M  V30 6314 C 576.398 -2.38398 -4.77495 0
M  V30 6315 O 576.621 -1.40048 -5.5294 0
M  V30 6316 O 575.555 -3.2787 -5.04762 0
M  V30 6317 H 579.381 -2.40156 -1.859 0
M  V30 6318 H 576.966 -1.22049 -0.861652 0
M  V30 6319 H 578.848 -1.2496 -4.02446 0
M  V30 6320 H 577.523 -0.368419 -3.21597 0
M  V30 6321 H 576.43 -2.62048 -2.66987 0
M  V30 6322 H 577.763 -3.43366 -3.52648 0
M  V30 6323 N 579.415 0.9433 -1.26252 0
M  V30 6324 C 580.692 1.66639 -1.02424 0
M  V30 6325 C 581.072 2.06335 0.446006 0
M  V30 6326 O 580.42 1.78551 1.42589 0
M  V30 6327 C 580.63 2.88019 -1.97094 0
M  V30 6328 C 581.978 3.59718 -2.25584 0
M  V30 6329 O 583.002 2.9812 -1.94943 0
M  V30 6330 O 581.861 4.7066 -2.77743 0
M  V30 6331 H 578.955 0.729643 -0.389294 0
M  V30 6332 H 581.501 0.995218 -1.37454 0
M  V30 6333 H 580.273 2.5556 -2.96319 0
M  V30 6334 H 579.896 3.62863 -1.62532 0
M  V30 6335 N 580.893 1.08022 1.14757 0
M  V30 6336 C 581.823 0.728248 2.21853 0
M  V30 6337 C 582.804 -0.287486 1.67653 0
M  V30 6338 O 583.989 -0.158727 1.9355 0
M  V30 6339 C 581.119 0.132549 3.47047 0
M  V30 6340 C 580.073 1.07619 4.14249 0
M  V30 6341 C 579.399 0.342907 5.33599 0
M  V30 6342 C 580.699 2.41268 4.63235 0
M  V30 6343 H 582.393 1.62365 2.51551 0
M  V30 6344 H 579.939 0.782125 1.20908 0
M  V30 6345 H 581.892 -0.125665 4.21213 0
M  V30 6346 H 580.616 -0.797971 3.16702 0
M  V30 6347 H 579.275 1.31944 3.42033 0
M  V30 6348 H 578.923 -0.59129 4.99513 0
M  V30 6349 H 578.623 0.971955 5.79506 0
M  V30 6350 H 580.147 0.0926538 6.1053 0
M  V30 6351 H 581.561 2.21232 5.28894 0
M  V30 6352 H 579.958 2.9983 5.19829 0
M  V30 6353 H 581.028 3.03079 3.78512 0
M  V30 6354 N 582.371 -1.3172 0.865308 0
M  V30 6355 C 583.782 -1.79104 0.527126 0
M  V30 6356 C 584.133 -1.7135 -0.955695 0
M  V30 6357 O 583.258 -1.27845 -1.74598 0
M  V30 6358 C 583.853 -3.25207 0.950061 0
M  V30 6359 C 582.412 -3.70504 0.663611 0
M  V30 6360 C 581.559 -2.52605 1.14395 0
M  V30 6361 H 584.51 -1.18868 1.05148 0
M  V30 6362 H 584.531 -3.79535 0.270805 0
M  V30 6363 H 584.043 -3.30818 2.02931 0
M  V30 6364 H 582.144 -3.70398 -0.404474 0
M  V30 6365 H 582.257 -4.62845 1.23737 0
M  V30 6366 H 580.621 -2.4838 0.563859 0
M  V30 6367 H 581.404 -2.60964 2.23053 0
M  V30 6368 N 583.85 -0.624285 -1.44708 0
M  V30 6369 C 584.779 0.0717025 -2.3339 0
M  V30 6370 C 585.76 0.841814 -1.47809 0
M  V30 6371 O 586.946 0.809056 -1.76544 0
M  V30 6372 C 584.076 1.05852 -3.30776 0
M  V30 6373 C 583.029 0.400503 -4.26122 0
M  V30 6374 C 582.356 1.49674 -5.13324 0
M  V30 6375 C 583.656 -0.688924 -5.17737 0
M  V30 6376 H 585.35 -0.668819 -2.91834 0
M  V30 6377 H 582.896 -0.32308 -1.40329 0
M  V30 6378 H 584.849 1.5541 -3.91696 0
M  V30 6379 H 583.572 1.82984 -2.70526 0
M  V30 6380 H 582.231 -0.0743687 -3.66525 0
M  V30 6381 H 581.88 2.25877 -4.49431 0
M  V30 6382 H 581.58 1.06188 -5.77926 0
M  V30 6383 H 583.104 1.99427 -5.77115 0
M  V30 6384 H 584.518 -0.276724 -5.72632 0
M  V30 6385 H 582.915 -1.04652 -5.90904 0
M  V30 6386 H 583.985 -1.55884 -4.5916 0
M  V30 6387 N 585.328 1.53329 -0.364422 0
M  V30 6388 C 586.276 2.27212 0.497737 0
M  V30 6389 C 587.27 1.30146 1.08437 0
M  V30 6390 O 588.476 1.47778 1.0277 0
M  V30 6391 H 584.851 0.730329 0.179232 0
M  V30 6392 H 586.822 2.98037 -0.147182 0
M  V30 6393 C 585.571 3.07333 1.6261 0
M  V30 6394 H 584.894 3.81866 1.184 0
M  V30 6395 H 586.334 3.62209 2.20409 0
M  V30 6396 C 584.793 2.18102 2.56775 0
M  V30 6397 O 585.323 1.79104 3.59562 0
M  V30 6398 N 583.529 1.82759 2.25937 0
M  V30 6399 H 583.076 2.14671 1.42387 0
M  V30 6400 H 583.034 1.23342 2.89196 0
M  V30 6401 N 586.806 0.0935595 1.57322 0
M  V30 6402 C 588.055 -0.570191 1.93473 0
M  V30 6403 C 588.368 -1.69434 0.977318 0
M  V30 6404 O 589.574 -2.41914 1.23248 0
M  V30 6405 C 588.03 -1.06564 3.43762 0
M  V30 6406 C 587.638 0.0286723 4.47991 0
M  V30 6407 C 589.382 -1.70221 3.88877 0
M  V30 6408 C 587.289 -0.482046 5.89432 0
M  V30 6409 H 586.219 -0.216764 0.72217 0
M  V30 6410 H 588.87 0.169313 1.82717 0
M  V30 6411 H 587.252 -1.85878 3.49664 0
M  V30 6412 H 588.426 0.804106 4.5373 0
M  V30 6413 H 586.741 0.570336 4.12476 0
M  V30 6414 H 589.338 -2.09502 4.91948 0
M  V30 6415 H 589.681 -2.57078 3.27439 0
M  V30 6416 H 590.214 -0.974919 3.85668 0
M  V30 6417 H 586.953 0.349871 6.54566 0
M  V30 6418 H 586.473 -1.22452 5.87167 0
M  V30 6419 H 588.152 -0.951508 6.39965 0
M  V30 6420 N 588.284 -1.56567 -0.180126 0
M  V30 6421 C 589.509 -1.85975 -0.918041 0
M  V30 6422 C 589.934 -0.678888 -1.75422 0
M  V30 6423 O 589.292 0.372168 -1.77439 0
M  V30 6424 C 589.34 -3.13731 -1.77779 0
M  V30 6425 O 588.444 -2.95335 -2.87838 0
M  V30 6426 H 587.785 -0.61196 -0.257683 0
M  V30 6427 H 590.315 -2.03798 -0.180923 0
M  V30 6428 H 590.325 -3.4491 -2.17948 0
M  V30 6429 H 589 -3.99293 -1.16352 0
M  V30 6430 H 587.577 -2.7549 -2.51316 0
M  V30 6431 N 589.762 0.448376 -1.51087 0
M  V30 6432 C 591.178 0.783984 -1.39017 0
M  V30 6433 C 591.378 1.96087 -0.463904 0
M  V30 6434 O 590.434 2.52357 0.0850534 0
M  V30 6435 C 591.747 1.07471 -2.80839 0
M  V30 6436 C 593.295 1.17981 -2.89913 0
M  V30 6437 C 593.77 1.50354 -4.32617 0
M  V30 6438 N 595.261 1.57301 -4.35673 0
M  V30 6439 C 595.996 1.839 -5.4311 0
M  V30 6440 N 595.492 2.08365 -6.60724 0
M  V30 6441 N 597.285 1.8559 -5.30578 0
M  V30 6442 H 589.436 -0.326881 -2.0987 0
M  V30 6443 H 591.699 -0.0838006 -0.944289 0
M  V30 6444 H 591.405 0.282768 -3.50561 0
M  V30 6445 H 591.279 2.00519 -3.19487 0
M  V30 6446 H 593.666 1.9624 -2.20395 0
M  V30 6447 H 593.747 0.228603 -2.54776 0
M  V30 6448 H 593.391 0.726273 -5.0268 0
M  V30 6449 H 593.321 2.46663 -4.65258 0
M  V30 6450 H 595.812 1.40342 -3.50874 0
M  V30 6451 H 596.125 2.27999 -7.38401 0
M  V30 6452 H 594.47 2.0571 -6.63859 0
M  V30 6453 H 597.661 1.65989 -4.37682 0
M  V30 6454 H 597.834 2.05983 -6.1439 0
M  V30 6455 N 591.24 1.41047 0.703093 0
M  V30 6456 C 592.15 1.44645 1.84703 0
M  V30 6457 C 593.166 0.337778 1.7069 0
M  V30 6458 O 594.342 0.584327 1.92737 0
M  V30 6459 C 591.407 1.31928 3.20618 0
M  V30 6460 C 590.468 2.53047 3.46794 0
M  V30 6461 C 589.701 2.40927 4.76224 0
M  V30 6462 O 589.924 1.42978 5.5219 0
M  V30 6463 O 588.858 3.30543 5.03016 0
M  V30 6464 H 592.684 2.41139 1.84624 0
M  V30 6465 H 590.269 1.22504 0.855167 0
M  V30 6466 H 592.151 1.27092 4.01778 0
M  V30 6467 H 590.826 0.385469 3.21397 0
M  V30 6468 H 589.733 2.6346 2.65593 0
M  V30 6469 H 591.066 3.45231 3.50822 0
M  V30 6470 N 592.718 -0.936591 1.26751 0
M  V30 6471 C 593.651 -2.03619 1.03027 0
M  V30 6472 C 594.629 -1.62534 -0.0464619 0
M  V30 6473 O 595.813 -1.88251 0.0968873 0
M  V30 6474 C 592.94 -3.3402 0.561072 0
M  V30 6475 C 591.986 -3.9408 1.63105 0
M  V30 6476 S 592.819 -4.27782 3.22122 0
M  V30 6477 C 593.975 -5.61277 2.76982 0
M  V30 6478 H 594.208 -2.23429 1.96129 0
M  V30 6479 H 591.741 -1.07857 1.10482 0
M  V30 6480 H 593.699 -4.09424 0.297031 0
M  V30 6481 H 592.36 -3.12147 -0.349741 0
M  V30 6482 H 591.553 -4.88154 1.25386 0
M  V30 6483 H 591.155 -3.25227 1.84671 0
M  V30 6484 H 593.447 -6.40189 2.21731 0
M  V30 6485 H 594.39 -6.03887 3.69766 0
M  V30 6486 H 594.798 -5.21374 2.16402 0
M  V30 6487 N 594.196 -1.08629 -1.14182 0
M  V30 6488 C 595.126 -0.740003 -2.21464 0
M  V30 6489 C 596.107 0.278591 -1.67803 0
M  V30 6490 O 597.292 0.148461 -1.93632 0
M  V30 6491 C 594.422 -0.150952 -3.46972 0
M  V30 6492 C 593.376 -1.09815 -4.13672 0
M  V30 6493 C 592.702 -0.3712 -5.3341 0
M  V30 6494 C 594.002 -2.43722 -4.61949 0
M  V30 6495 H 595.696 -1.63697 -2.50686 0
M  V30 6496 H 593.242 -0.788526 -1.20492 0
M  V30 6497 H 595.195 0.103325 -4.21273 0
M  V30 6498 H 593.919 0.781164 -3.1712 0
M  V30 6499 H 592.578 -1.33756 -3.41328 0
M  V30 6500 H 592.226 0.564792 -4.99819 0
M  V30 6501 H 591.926 -1.00267 -5.78982 0
M  V30 6502 H 593.45 -0.12503 -6.10472 0
M  V30 6503 H 594.864 -2.24034 -5.27714 0
M  V30 6504 H 593.261 -3.02582 -5.18232 0
M  V30 6505 H 594.331 -3.05082 -3.76899 0
M  V30 6506 N 595.674 1.31259 -0.872281 0
M  V30 6507 C 596.606 2.27396 -0.28697 0
M  V30 6508 C 597.619 1.53181 0.551297 0
M  V30 6509 O 598.808 1.74561 0.372914 0
M  V30 6510 C 595.908 3.33335 0.611617 0
M  V30 6511 C 595.081 4.36966 -0.194729 0
M  V30 6512 C 594.14 5.22387 0.632358 0
M  V30 6513 O 593.166 5.69169 0.0595691 0
M  V30 6514 N 594.368 5.46985 1.94391 0
M  V30 6515 H 597.133 2.78261 -1.11314 0
M  V30 6516 H 594.694 1.44306 -0.733994 0
M  V30 6517 H 596.686 3.87398 1.17068 0
M  V30 6518 H 595.256 2.82496 1.33846 0
M  V30 6519 H 594.476 3.82945 -0.935241 0
M  V30 6520 H 595.764 5.03273 -0.747935 0
M  V30 6521 H 595.162 5.10737 2.43237 0
M  V30 6522 H 593.719 6.03973 2.45071 0
M  V30 6523 N 597.152 0.631951 1.44375 0
M  V30 6524 C 598.084 -0.110911 2.28931 0
M  V30 6525 C 599.097 -0.808086 1.41329 0
M  V30 6526 O 600.286 -0.669396 1.65473 0
M  V30 6527 C 597.386 -1.17928 3.1772 0
M  V30 6528 C 596.559 -0.564458 4.33743 0
M  V30 6529 C 595.618 -1.5269 5.0356 0
M  V30 6530 O 594.644 -1.04372 5.59549 0
M  V30 6531 N 595.846 -2.86123 5.05088 0
M  V30 6532 H 598.611 0.614758 2.93327 0
M  V30 6533 H 596.172 0.473171 1.54831 0
M  V30 6534 H 598.164 -1.82348 3.61291 0
M  V30 6535 H 596.734 -1.80717 2.55069 0
M  V30 6536 H 595.954 0.258373 3.93352 0
M  V30 6537 H 597.242 -0.134355 5.08623 0
M  V30 6538 H 596.64 -3.27959 4.60933 0
M  V30 6539 H 595.197 -3.45901 5.52445 0
M  V30 6540 N 598.631 -1.53133 0.372548 0
M  V30 6541 C 599.856 -2.0625 -0.218098 0
M  V30 6542 C 600.281 -1.24375 -1.41111 0
M  V30 6543 O 599.639 -0.264554 -1.79359 0
M  V30 6544 C 599.687 -3.55858 -0.582876 0
M  V30 6545 O 598.791 -3.76667 -1.67917 0
M  V30 6546 H 598.132 -0.663317 -0.030104 0
M  V30 6547 H 600.662 -1.97477 0.535169 0
M  V30 6548 H 600.672 -3.99007 -0.851925 0
M  V30 6549 H 599.347 -4.14892 0.289428 0
M  V30 6550 H 597.924 -3.45413 -1.40513 0
M  V30 6551 N 600.109 -0.101901 -1.5727 0
M  V30 6552 C 601.056 0.854577 -2.14396 0
M  V30 6553 C 602.026 1.27521 -1.06432 0
M  V30 6554 O 603.211 1.35575 -1.34253 0
M  V30 6555 C 600.351 2.10576 -2.73408 0
M  V30 6556 C 599.464 1.73504 -3.95626 0
M  V30 6557 C 598.599 2.9346 -4.42781 0
M  V30 6558 C 597.638 2.52547 -5.57572 0
M  V30 6559 N 596.775 3.65359 -5.99547 0
M  V30 6560 H 601.615 0.360578 -2.9581 0
M  V30 6561 H 599.152 0.166303 -1.46157 0
M  V30 6562 H 601.11 2.83859 -3.05745 0
M  V30 6563 H 599.74 2.57463 -1.94711 0
M  V30 6564 H 598.792 0.901622 -3.6956 0
M  V30 6565 H 600.104 1.39426 -4.78917 0
M  V30 6566 H 599.258 3.74988 -4.76937 0
M  V30 6567 H 597.997 3.30753 -3.58404 0
M  V30 6568 H 597.002 1.69446 -5.23037 0
M  V30 6569 H 598.227 2.1639 -6.43702 0
M  V30 6570 H 596.173 4.02358 -5.18116 0
M  V30 6571 H 596.09 3.35148 -6.77652 0
M  V30 6572 H 597.358 4.47378 -6.38336 0
M  V30 6573 N 601.587 1.56661 0.17182 0
M  V30 6574 C 602.836 1.81158 0.886831 0
M  V30 6575 C 603.149 0.679072 1.83434 0
M  V30 6576 O 604.355 0.808964 2.59168 0
M  V30 6577 C 602.811 3.20999 1.6275 0
M  V30 6578 C 602.419 4.42117 0.723652 0
M  V30 6579 C 604.163 3.5479 2.33076 0
M  V30 6580 C 602.07 5.7298 1.46452 0
M  V30 6581 H 601 0.675543 0.334899 0
M  V30 6582 H 603.651 1.82967 0.139765 0
M  V30 6583 H 602.033 3.13506 2.4193 0
M  V30 6584 H 603.207 4.60789 -0.0311485 0
M  V30 6585 H 601.522 4.16197 0.130063 0
M  V30 6586 H 604.119 4.49806 2.89099 0
M  V30 6587 H 604.462 2.79646 3.08389 0
M  V30 6588 H 604.995 3.63834 1.6084 0
M  V30 6589 H 601.734 6.51152 0.753729 0
M  V30 6590 H 601.254 5.58285 2.19266 0
M  V30 6591 H 602.933 6.14916 2.01214 0
M  V30 6592 N 603.065 -0.440357 1.51323 0
M  V30 6593 C 603.995 -1.54174 1.75364 0
M  V30 6594 C 604.976 -1.59039 0.603375 0
M  V30 6595 O 606.161 -1.74815 0.845774 0
M  V30 6596 C 603.291 -2.92277 1.87593 0
M  V30 6597 C 602.245 -3.02274 3.03009 0
M  V30 6598 C 601.571 -4.42327 3.00418 0
M  V30 6599 C 602.871 -2.76634 4.43024 0
M  V30 6600 H 604.565 -1.34307 2.67585 0
M  V30 6601 H 602.111 -0.644678 1.28763 0
M  V30 6602 H 604.064 -3.69284 2.02995 0
M  V30 6603 H 602.788 -3.13369 0.920179 0
M  V30 6604 H 601.447 -2.27706 2.87307 0
M  V30 6605 H 601.095 -4.60382 2.02626 0
M  V30 6606 H 600.795 -4.49946 3.77918 0
M  V30 6607 H 602.319 -5.21312 3.17909 0
M  V30 6608 H 603.733 -3.43376 4.59093 0
M  V30 6609 H 602.13 -2.95666 5.22208 0
M  V30 6610 H 603.2 -1.72262 4.5327 0
M  V30 6611 N 604.543 -1.41418 -0.695603 0
M  V30 6612 C 605.49 -1.43264 -1.80954 0
M  V30 6613 C 606.46 -0.287016 -1.63601 0
M  V30 6614 O 607.645 -0.488054 -1.84452 0
M  V30 6615 C 604.785 -1.32054 -3.18835 0
M  V30 6616 C 603.898 -2.56485 -3.4762 0
M  V30 6617 C 603.033 -2.3757 -4.75115 0
M  V30 6618 C 602.072 -3.57477 -4.96867 0
M  V30 6619 N 601.209 -3.37632 -6.15588 0
M  V30 6620 H 606.049 -2.38467 -1.78711 0
M  V30 6621 H 603.586 -1.18415 -0.872715 0
M  V30 6622 H 605.544 -1.23558 -3.98484 0
M  V30 6623 H 604.174 -0.404592 -3.20254 0
M  V30 6624 H 603.226 -2.75432 -2.62376 0
M  V30 6625 H 604.538 -3.45678 -3.59594 0
M  V30 6626 H 603.692 -2.2654 -5.62818 0
M  V30 6627 H 602.431 -1.45834 -4.65386 0
M  V30 6628 H 601.436 -3.68961 -4.07612 0
M  V30 6629 H 602.661 -4.50167 -5.08455 0
M  V30 6630 H 600.607 -2.48596 -6.07072 0
M  V30 6631 H 600.524 -4.20401 -6.2833 0
M  V30 6632 H 601.792 -3.30375 -7.06026 0
M  V30 6633 N 606.021 0.929856 -1.27246 0
M  V30 6634 C 607.267 1.6798 -1.13625 0
M  V30 6635 C 607.6 1.91586 0.317589 0
M  V30 6636 O 606.875 1.50467 1.23247 0
M  V30 6637 C 607.158 3.04766 -1.91806 0
M  V30 6638 C 607.011 2.88415 -3.45162 0
M  V30 6639 C 608.33 4.05063 -1.72082 0
M  V30 6640 H 605.449 0.609632 -0.414147 0
M  V30 6641 H 608.091 1.0792 -1.56376 0
M  V30 6642 H 606.241 3.56034 -1.55474 0
M  V30 6643 H 607.913 2.44282 -3.91311 0
M  V30 6644 H 606.156 2.23802 -3.71611 0
M  V30 6645 H 606.827 3.85482 -3.95105 0
M  V30 6646 H 609.303 3.62798 -2.03757 0
M  V30 6647 H 608.179 4.98765 -2.29182 0
M  V30 6648 H 608.44 4.37021 -0.668206 0
M  V30 6649 N 607.499 1.09233 1.13605 0
M  V30 6650 C 608.748 0.82205 1.84188 0
M  V30 6651 C 609.061 -0.654548 1.84323 0
M  V30 6652 O 610.267 -1.04029 2.50779 0
M  V30 6653 C 608.723 1.42066 3.30674 0
M  V30 6654 C 608.331 2.92965 3.38933 0
M  V30 6655 C 610.075 1.22924 4.06313 0
M  V30 6656 C 607.982 3.45922 4.79679 0
M  V30 6657 H 606.912 0.303854 0.690064 0
M  V30 6658 H 609.563 1.31479 1.28006 0
M  V30 6659 H 607.945 0.855613 3.86646 0
M  V30 6660 H 609.119 3.55679 2.92966 0
M  V30 6661 H 607.434 3.11118 2.76757 0
M  V30 6662 H 610.031 1.59945 5.10217 0
M  V30 6663 H 610.374 0.169726 4.15954 0
M  V30 6664 H 610.907 1.76168 3.56665 0
M  V30 6665 H 607.646 4.51484 4.75229 0
M  V30 6666 H 607.166 2.87971 5.26149 0
M  V30 6667 H 608.845 3.43009 5.48592 0
M  V30 6668 N 608.977 -1.30795 0.87923 0
M  V30 6669 C 610.393 -1.48981 0.57243 0
M  V30 6670 C 610.593 -1.80719 -0.891236 0
M  V30 6671 O 609.649 -1.89136 -1.67283 0
M  V30 6672 C 610.962 -2.61721 1.48063 0
M  V30 6673 C 612.51 -2.75603 1.48365 0
M  V30 6674 C 612.985 -3.91449 2.37763 0
M  V30 6675 N 614.476 -3.98751 2.35695 0
M  V30 6676 C 615.211 -4.87684 3.01583 0
M  V30 6677 N 614.707 -5.81454 3.76674 0
M  V30 6678 N 616.5 -4.81005 2.90844 0
M  V30 6679 H 608.651 -1.08465 1.82617 0
M  V30 6680 H 610.914 -0.536813 0.781368 0
M  V30 6681 H 610.62 -2.45073 2.52254 0
M  V30 6682 H 610.494 -3.58071 1.18596 0
M  V30 6683 H 612.881 -2.9166 0.44927 0
M  V30 6684 H 612.962 -1.79891 1.81859 0
M  V30 6685 H 612.606 -3.76149 3.41283 0
M  V30 6686 H 612.536 -4.86487 2.01589 0
M  V30 6687 H 615.027 -3.31668 1.81121 0
M  V30 6688 H 615.34 -6.46063 4.24054 0
M  V30 6689 H 613.685 -5.81403 3.80782 0
M  V30 6690 H 616.876 -4.06728 2.31711 0
M  V30 6691 H 617.049 -5.50107 3.42471 0
M  V30 6692 N 610.455 -0.639598 -1.44038 0
M  V30 6693 C 611.402 0.0602458 -2.30721 0
M  V30 6694 C 612.372 0.828352 -1.43971 0
M  V30 6695 O 613.557 0.807693 -1.72861 0
M  V30 6696 C 610.697 1.03008 -3.29368 0
M  V30 6697 C 609.81 0.259502 -4.3122 0
M  V30 6698 C 608.945 1.22191 -5.16955 0
M  V30 6699 C 607.984 0.440978 -6.10509 0
M  V30 6700 N 607.121 1.35428 -6.88915 0
M  V30 6701 H 611.961 -0.684867 -2.90023 0
M  V30 6702 H 609.498 -0.349509 -1.42888 0
M  V30 6703 H 611.456 1.60583 -3.85057 0
M  V30 6704 H 610.086 1.74222 -2.71747 0
M  V30 6705 H 609.138 -0.432317 -3.77935 0
M  V30 6706 H 610.45 -0.348347 -4.97582 0
M  V30 6707 H 609.604 1.86873 -5.77203 0
M  V30 6708 H 608.343 1.86367 -4.50687 0
M  V30 6709 H 607.348 -0.219279 -5.49363 0
M  V30 6710 H 608.573 -0.196192 -6.78817 0
M  V30 6711 H 606.519 1.9831 -6.25307 0
M  V30 6712 H 606.436 0.800657 -7.51748 0
M  V30 6713 H 607.704 1.98967 -7.53679 0
M  V30 6714 N 611.933 1.52934 -0.380664 0
M  V30 6715 C 612.881 2.27727 0.47361 0
M  V30 6716 C 613.875 1.31288 1.0705 0
M  V30 6717 O 615.081 1.4886 1.01197 0
M  V30 6718 H 611.456 0.732189 0.171475 0
M  V30 6719 H 613.427 2.97864 -0.178785 0
M  V30 6720 C 612.176 3.0904 1.59341 0
M  V30 6721 H 611.499 3.831 1.14343 0
M  V30 6722 H 612.939 3.64527 2.16555 0
M  V30 6723 C 611.398 2.20813 2.54447 0
M  V30 6724 O 611.928 1.82907 3.57642 0
M  V30 6725 N 610.134 1.85145 2.23986 0
M  V30 6726 H 609.681 2.16169 1.40103 0
M  V30 6727 H 609.639 1.26402 2.87871 0
M  V30 6728 N 613.412 0.11024 1.57214 0
M  V30 6729 C 614.342 -0.840002 2.17867 0
M  V30 6730 C 615.323 -1.28352 1.11624 0
M  V30 6731 O 616.508 -1.3477 1.39824 0
M  V30 6732 C 613.638 -2.09349 2.77111 0
M  V30 6733 C 612.592 -1.78807 3.8886 0
M  V30 6734 C 611.918 -3.11112 4.34872 0
M  V30 6735 C 613.218 -1.0632 5.11364 0
M  V30 6736 H 614.912 -0.334608 2.97524 0
M  V30 6737 H 612.458 -0.159502 1.43114 0
M  V30 6738 H 614.411 -2.76275 3.18198 0
M  V30 6739 H 613.135 -2.62198 1.9473 0
M  V30 6740 H 611.794 -1.14273 3.48335 0
M  V30 6741 H 611.442 -3.61877 3.49362 0
M  V30 6742 H 611.142 -2.91453 5.10224 0
M  V30 6743 H 612.666 -3.79171 4.78604 0
M  V30 6744 H 614.08 -1.63383 5.49526 0
M  V30 6745 H 612.477 -0.967876 5.92243 0
M  V30 6746 H 613.547 -0.0484569 4.84876 0
M  V30 6747 N 614.89 -1.56749 -0.16351 0
M  V30 6748 C 616.136 -1.82704 -0.880168 0
M  V30 6749 C 616.469 -0.689311 -1.81555 0
M  V30 6750 O 615.744 0.308224 -1.92042 0
M  V30 6751 C 616.027 -3.19084 -1.66905 0
M  V30 6752 C 615.88 -4.43397 -0.756269 0
M  V30 6753 C 617.199 -3.52493 -2.63509 0
M  V30 6754 H 614.318 -0.664608 -0.318535 0
M  V30 6755 H 616.96 -1.89438 -0.146036 0
M  V30 6756 H 615.11 -3.13475 -2.2949 0
M  V30 6757 H 616.782 -4.61079 -0.14269 0
M  V30 6758 H 615.025 -4.33752 -0.0647944 0
M  V30 6759 H 615.696 -5.3539 -1.34393 0
M  V30 6760 H 618.172 -3.58606 -2.11047 0
M  V30 6761 H 617.048 -4.48979 -3.15767 0
M  V30 6762 H 617.309 -2.77597 -3.44082 0
M  V30 6763 N 616.368 0.432326 -1.51554 0
M  V30 6764 C 617.315 1.52512 -1.7323 0
M  V30 6765 C 618.285 1.55863 -0.5741 0
M  V30 6766 O 619.47 1.72796 -0.809093 0
M  V30 6767 C 616.61 2.90183 -1.86783 0
M  V30 6768 C 615.723 2.96322 -3.14352 0
M  V30 6769 C 614.858 4.25147 -3.18471 0
M  V30 6770 C 613.897 4.25172 -4.40335 0
M  V30 6771 N 613.034 5.45529 -4.41975 0
M  V30 6772 H 617.874 1.33332 -2.66508 0
M  V30 6773 H 615.411 0.647613 -1.32077 0
M  V30 6774 H 617.369 3.70071 -1.92623 0
M  V30 6775 H 615.999 3.0791 -0.969087 0
M  V30 6776 H 615.051 2.09066 -3.17798 0
M  V30 6777 H 616.363 2.92203 -4.04251 0
M  V30 6778 H 615.517 5.13411 -3.23255 0
M  V30 6779 H 614.256 4.31929 -2.2647 0
M  V30 6780 H 613.261 3.353 -4.35723 0
M  V30 6781 H 614.486 4.20049 -5.33606 0
M  V30 6782 H 612.432 5.53024 -3.52847 0
M  V30 6783 H 612.349 5.43311 -5.25689 0
M  V30 6784 H 613.617 6.35812 -4.50958 0
M  V30 6785 N 617.846 1.41785 0.688094 0
M  V30 6786 C 618.793 1.44221 1.80191 0
M  V30 6787 C 619.763 0.295688 1.63447 0
M  V30 6788 O 620.948 0.49783 1.84191 0
M  V30 6789 C 618.088 1.33743 3.1813 0
M  V30 6790 C 617.201 2.58325 3.46254 0
M  V30 6791 C 616.336 2.40086 4.73848 0
M  V30 6792 C 615.375 3.60107 4.94964 0
M  V30 6793 N 614.512 3.40892 6.13789 0
M  V30 6794 H 619.352 2.39411 1.77444 0
M  V30 6795 H 616.889 1.18876 0.866423 0
M  V30 6796 H 618.847 1.25669 3.97823 0
M  V30 6797 H 617.477 0.42157 3.20035 0
M  V30 6798 H 616.529 2.7682 2.60912 0
M  V30 6799 H 617.841 3.4758 3.57756 0
M  V30 6800 H 616.995 2.29522 5.61609 0
M  V30 6801 H 615.734 1.483 4.64606 0
M  V30 6802 H 614.739 3.71118 4.05649 0
M  V30 6803 H 615.964 4.52857 5.06061 0
M  V30 6804 H 613.91 2.51812 6.05745 0
M  V30 6805 H 613.827 4.23727 6.26092 0
M  V30 6806 H 615.095 3.34114 7.04264 0
M  V30 6807 N 619.324 -0.923095 1.27737 0
M  V30 6808 C 620.564 -1.6858 1.15586 0
M  V30 6809 C 620.928 -1.89758 -0.292562 0
M  V30 6810 O 622.129 -2.6339 -0.536583 0
M  V30 6811 C 620.4 -3.01275 1.92271 0
M  V30 6812 S 621.959 -3.924 1.96387 0
M  V30 6813 H 618.777 -0.579069 0.412554 0
M  V30 6814 H 621.379 -1.09866 1.61709 0
M  V30 6815 H 620.083 -2.83556 2.96689 0
M  V30 6816 H 619.614 -3.6504 1.46661 0
M  V30 6817 H 621.629 -4.84667 1.06361 0
M  V30 6818 N 620.802 -1.09834 -1.13024 0
M  V30 6819 C 621.732 -0.763451 -2.20666 0
M  V30 6820 C 622.713 0.260778 -1.68089 0
M  V30 6821 O 623.898 0.127915 -1.93778 0
M  V30 6822 C 621.028 -0.187744 -3.46792 0
M  V30 6823 C 619.982 -1.14196 -4.12484 0
M  V30 6824 C 619.308 -0.427755 -5.32986 0
M  V30 6825 C 620.608 -2.48607 -4.59338 0
M  V30 6826 H 622.302 -1.66347 -2.48936 0
M  V30 6827 H 619.848 -0.801261 -1.19649 0
M  V30 6828 H 621.801 0.0586375 -4.21359 0
M  V30 6829 H 620.525 0.747485 -3.17931 0
M  V30 6830 H 619.184 -1.37369 -3.3989 0
M  V30 6831 H 618.832 0.511747 -5.0039 0
M  V30 6832 H 618.532 -1.06403 -5.77886 0
M  V30 6833 H 620.056 -0.189772 -6.10305 0
M  V30 6834 H 621.47 -2.29618 -5.25308 0
M  V30 6835 H 619.867 -3.08062 -5.14993 0
M  V30 6836 H 620.937 -3.09062 -3.73642 0
M  V30 6837 N 622.28 1.30327 -0.886154 0
M  V30 6838 C 623.19 2.31854 -0.357866 0
M  V30 6839 C 624.206 1.65392 0.540502 0
M  V30 6840 O 625.382 1.96683 0.433339 0
M  V30 6841 C 622.447 3.44171 0.417999 0
M  V30 6842 C 621.508 4.26257 -0.510263 0
M  V30 6843 C 620.741 5.3321 0.228669 0
M  V30 6844 O 620.964 5.51542 1.45458 0
M  V30 6845 O 619.898 6.0042 -0.421832 0
M  V30 6846 H 623.724 2.78995 -1.19982 0
M  V30 6847 H 621.309 1.34518 -0.650028 0
M  V30 6848 H 623.191 4.12588 0.857251 0
M  V30 6849 H 621.866 2.99164 1.23623 0
M  V30 6850 H 620.773 3.60533 -0.99835 0
M  V30 6851 H 622.106 4.74871 -1.29454 0
M  V30 6852 N 623.758 0.647228 1.43697 0
M  V30 6853 C 624.688 -0.0345631 2.33474 0
M  V30 6854 C 625.669 -0.818193 1.4913 0
M  V30 6855 O 626.854 -0.780867 1.77809 0
M  V30 6856 C 623.984 -1.00576 3.32418 0
M  V30 6857 C 622.938 -0.33266 4.26705 0
M  V30 6858 C 622.264 -1.41489 5.1564 0
M  V30 6859 C 623.564 0.771204 5.16575 0
M  V30 6860 H 625.258 0.715163 2.90733 0
M  V30 6861 H 622.804 0.345364 1.39797 0
M  V30 6862 H 624.757 -1.49159 3.94119 0
M  V30 6863 H 623.481 -1.78657 2.73403 0
M  V30 6864 H 622.14 0.13267 3.6636 0
M  V30 6865 H 621.788 -2.18698 4.52968 0
M  V30 6866 H 621.488 -0.969799 5.79542 0
M  V30 6867 H 623.012 -1.9022 5.80214 0
M  V30 6868 H 624.426 0.36779 5.72119 0
M  V30 6869 H 622.823 1.1404 5.89165 0
M  V30 6870 H 623.893 1.63169 4.56622 0
M  V30 6871 N 625.236 -1.5273 0.388769 0
M  V30 6872 C 626.483 -2.01573 -0.19359 0
M  V30 6873 C 626.811 -1.27525 -1.46859 0
M  V30 6874 O 626.066 -0.363926 -1.92286 0
M  V30 6875 C 626.365 -3.53765 -0.508445 0
M  V30 6876 C 626.031 -4.4582 0.674947 0
M  V30 6877 C 624.693 -4.70703 0.999596 0
M  V30 6878 C 627.045 -5.00138 1.46666 0
M  V30 6879 C 624.373 -5.47155 2.11751 0
M  V30 6880 C 626.725 -5.77812 2.57518 0
M  V30 6881 C 625.389 -6.00975 2.90492 0
M  V30 6882 H 624.659 -0.737606 -0.0708397 0
M  V30 6883 H 627.306 -1.84134 0.526006 0
M  V30 6884 H 625.611 -3.69274 -1.30936 0
M  V30 6885 H 627.308 -3.8905 -0.971664 0
M  V30 6886 H 623.898 -4.26616 0.411906 0
M  V30 6887 H 628.082 -4.8084 1.22909 0
M  V30 6888 H 623.338 -5.63314 2.3767 0
M  V30 6889 H 627.512 -6.18904 3.19267 0
M  V30 6890 H 625.139 -6.59998 3.77236 0
M  V30 6891 N 626.714 -0.118576 -1.57153 0
M  V30 6892 C 627.942 0.54726 -1.99531 0
M  V30 6893 C 628.357 1.60251 -0.998246 0
M  V30 6894 O 627.714 1.82498 0.00893106 0
M  V30 6895 C 627.765 1.17378 -3.41913 0
M  V30 6896 O 627.486 0.160703 -4.37805 0
M  V30 6897 C 628.987 1.92297 -3.9942 0
M  V30 6898 H 626.207 0.144919 -0.655164 0
M  V30 6899 H 628.751 -0.20479 -2.03472 0
M  V30 6900 H 626.906 1.87661 -3.38913 0
M  V30 6901 H 627.32 0.61586 -5.20872 0
M  V30 6902 H 628.794 2.31462 -5.01128 0
M  V30 6903 H 629.271 2.79801 -3.38538 0
M  V30 6904 H 629.877 1.26777 -4.05965 0
M  V30 6905 N 628.193 1.56834 0.155195 0
M  V30 6906 C 629.103 2.009 1.21146 0
M  V30 6907 C 630.119 0.923029 1.475 0
M  V30 6908 O 631.295 1.23189 1.59331 0
M  V30 6909 C 628.36 2.37378 2.52691 0
M  V30 6910 C 627.421 3.59883 2.34057 0
M  V30 6911 C 626.654 3.94612 3.59329 0
M  V30 6912 O 626.877 3.30104 4.65175 0
M  V30 6913 O 625.811 4.87895 3.52479 0
M  V30 6914 H 629.637 2.9105 0.867371 0
M  V30 6915 H 627.222 1.44916 0.363298 0
M  V30 6916 H 629.104 2.61737 3.3026 0
M  V30 6917 H 627.779 1.50385 2.86646 0
M  V30 6918 H 626.686 3.40722 1.54465 0
M  V30 6919 H 628.019 4.47468 2.0502 0
M  V30 6920 N 629.671 -0.424282 1.51781 0
M  V30 6921 C 630.601 -1.52305 1.7699 0
M  V30 6922 C 631.582 -1.5839 0.620209 0
M  V30 6923 O 632.767 -1.73908 0.864268 0
M  V30 6924 C 629.897 -2.90271 1.90683 0
M  V30 6925 C 628.851 -2.99043 3.06198 0
M  V30 6926 C 628.177 -4.39116 3.05092 0
M  V30 6927 C 629.477 -2.7192 4.45934 0
M  V30 6928 H 631.171 -1.31461 2.68995 0
M  V30 6929 H 628.717 -0.630985 1.29439 0
M  V30 6930 H 630.67 -3.6711 2.06901 0
M  V30 6931 H 629.394 -3.12376 0.953365 0
M  V30 6932 H 628.053 -2.24646 2.89706 0
M  V30 6933 H 627.701 -4.58207 2.07498 0
M  V30 6934 H 627.401 -4.45912 3.82669 0
M  V30 6935 H 628.925 -5.17911 3.2342 0
M  V30 6936 H 630.339 -3.38487 4.62709 0
M  V30 6937 H 628.736 -2.90111 5.25315 0
M  V30 6938 H 629.806 -1.67445 4.55072 0
M  V30 6939 N 631.149 -1.42148 -0.680565 0
M  V30 6940 C 632.112 -1.4488 -1.77602 0
M  V30 6941 C 633.112 -0.337209 -1.57224 0
M  V30 6942 O 634.302 -0.597778 -1.63622 0
M  V30 6943 C 631.434 -1.27483 -3.16166 0
M  V30 6944 H 632.627 -2.42412 -1.76568 0
M  V30 6945 H 630.18 -1.28511 -0.889645 0
M  V30 6946 H 630.915 -0.30851 -3.22829 0
M  V30 6947 H 630.7 -2.08037 -3.3236 0
M  V30 6948 H 632.19 -1.32265 -3.96101 0
M  V30 6949 N 632.627 0.916307 -1.28225 0
M  V30 6950 C 633.537 2.05165 -1.13775 0
M  V30 6951 C 634.553 1.73879 -0.0649418 0
M  V30 6952 O 635.729 1.99531 -0.273722 0
M  V30 6953 C 632.794 3.37385 -0.798267 0
M  V30 6954 C 631.855 3.82296 -1.95316 0
M  V30 6955 C 631.088 5.08206 -1.62978 0
M  V30 6956 O 631.311 5.6781 -0.542948 0
M  V30 6957 O 630.245 5.48768 -2.47261 0
M  V30 6958 H 634.071 2.20273 -2.09078 0
M  V30 6959 H 631.656 1.0373 -1.07519 0
M  V30 6960 H 633.538 4.16773 -0.62278 0
M  V30 6961 H 632.213 3.23458 0.125139 0
M  V30 6962 H 631.12 3.03746 -2.18378 0
M  V30 6963 H 632.453 4.00782 -2.85718 0
M  V30 6964 N 634.105 1.10431 1.1244 0
M  V30 6965 C 635.382 0.758797 1.80282 0
M  V30 6966 C 635.762 -0.754727 1.97147 0
M  V30 6967 O 635.11 -1.68094 1.54779 0
M  V30 6968 C 635.32 1.50982 3.14651 0
M  V30 6969 C 636.668 1.68232 3.8985 0
M  V30 6970 O 637.692 1.47319 3.24308 0
M  V30 6971 O 636.551 2.02905 5.07437 0
M  V30 6972 H 633.645 0.273756 0.780376 0
M  V30 6973 H 636.191 1.20713 1.19275 0
M  V30 6974 H 634.963 2.53989 2.97666 0
M  V30 6975 H 634.586 1.05435 3.83366 0
M  V30 6976 N 635.583 -1.29855 0.893053 0
M  V30 6977 C 636.53 -2.27909 0.364161 0
M  V30 6978 C 637.5 -1.56726 -0.550093 0
M  V30 6979 O 638.685 -1.84747 -0.47677 0
M  V30 6980 C 635.825 -3.42678 -0.408178 0
M  V30 6981 C 634.938 -4.28659 0.536212 0
M  V30 6982 C 634.073 -5.30599 -0.252521 0
M  V30 6983 C 633.112 -6.08234 0.686822 0
M  V30 6984 N 632.249 -7.02068 -0.0670902 0
M  V30 6985 H 637.089 -2.72531 1.20544 0
M  V30 6986 H 634.626 -1.34047 0.605779 0
M  V30 6987 H 636.584 -4.07986 -0.871962 0
M  V30 6988 H 635.214 -2.99103 -1.21397 0
M  V30 6989 H 634.266 -3.63584 1.1185 0
M  V30 6990 H 635.578 -4.8274 1.25552 0
M  V30 6991 H 634.732 -6.01694 -0.777801 0
M  V30 6992 H 633.471 -4.77233 -1.005 0
M  V30 6993 H 632.476 -5.3601 1.22366 0
M  V30 6994 H 633.701 -6.63689 1.43852 0
M  V30 6995 H 631.647 -6.5108 -0.801955 0
M  V30 6996 H 631.564 -7.53675 0.59243 0
M  V30 6997 H 632.832 -7.77392 -0.572851 0
M  V30 6998 N 637.061 -0.65484 -1.43351 0
M  V30 6999 C 637.971 0.0363603 -2.34572 0
M  V30 7000 C 638.987 0.810432 -1.53974 0
M  V30 7001 O 640.163 0.757308 -1.86619 0
M  V30 7002 C 637.228 0.989733 -3.32273 0
M  V30 7003 C 636.289 0.212414 -4.28774 0
M  V30 7004 C 635.522 1.12038 -5.21808 0
M  V30 7005 O 635.745 2.35967 -5.19303 0
M  V30 7006 O 634.679 0.59191 -5.98982 0
M  V30 7007 H 638.505 -0.714527 -2.95175 0
M  V30 7008 H 636.09 -0.415029 -1.4352 0
M  V30 7009 H 637.972 1.53759 -3.92347 0
M  V30 7010 H 636.647 1.72082 -2.74171 0
M  V30 7011 H 635.554 -0.379062 -3.72175 0
M  V30 7012 H 636.887 -0.479138 -4.89862 0
M  V30 7013 N 638.539 1.52521 -0.396863 0
M  V30 7014 C 639.487 2.28217 0.44943 0
M  V30 7015 C 640.481 1.32416 1.05652 0
M  V30 7016 O 641.687 1.49925 0.996124 0
M  V30 7017 H 638.062 0.733966 0.1637 0
M  V30 7018 H 640.033 2.97658 -0.210367 0
M  V30 7019 C 638.782 3.10713 1.56054 0
M  V30 7020 H 638.105 3.84291 1.10273 0
M  V30 7021 H 639.545 3.66803 2.12677 0
M  V30 7022 C 638.004 2.23499 2.52091 0
M  V30 7023 O 638.534 1.8669 3.55682 0
M  V30 7024 N 636.74 1.8751 2.2201 0
M  V30 7025 H 636.287 2.17643 1.37802 0
M  V30 7026 H 636.245 1.29448 2.86514 0
M  V30 7027 N 640.017 0.126909 1.57088 0
M  V30 7028 C 641.247 -0.535892 1.99529 0
M  V30 7029 C 641.655 -1.60259 1.00566 0
M  V30 7030 O 640.998 -1.83698 -0.00843269 0
M  V30 7031 C 641.06 -1.21374 3.38391 0
M  V30 7032 C 640.724 -0.294044 4.56053 0
M  V30 7033 C 641.721 0.470454 5.17767 0
M  V30 7034 C 639.406 -0.202808 5.0189 0
M  V30 7035 C 641.4 1.31384 6.23712 0
M  V30 7036 C 639.087 0.644203 6.07695 0
M  V30 7037 C 640.085 1.40115 6.68473 0
M  V30 7038 O 639.773 2.23408 7.72233 0
M  V30 7039 H 639.505 -0.145799 0.66009 0
M  V30 7040 H 642.059 0.212441 2.04298 0
M  V30 7041 H 640.289 -2.00931 3.30399 0
M  V30 7042 H 641.978 -1.77424 3.65069 0
M  V30 7043 H 642.744 0.409884 4.83265 0
M  V30 7044 H 638.623 -0.781688 4.54324 0
M  V30 7045 H 642.167 1.90514 6.71081 0
M  V30 7046 H 638.064 0.706137 6.41626 0
M  V30 7047 H 638.832 2.16436 7.89365 0
M  V30 7048 N 641.495 -1.56914 -0.146875 0
M  V30 7049 C 642.442 -1.98275 -1.18134 0
M  V30 7050 C 643.412 -0.850367 -1.42681 0
M  V30 7051 O 644.597 -1.11244 -1.55014 0
M  V30 7052 C 641.737 -2.36861 -2.5098 0
M  V30 7053 C 640.85 -3.63391 -2.33605 0
M  V30 7054 C 639.985 -3.91079 -3.59486 0
M  V30 7055 C 639.024 -5.10879 -3.37149 0
M  V30 7056 N 638.161 -5.34577 -4.55161 0
M  V30 7057 H 643.001 -2.8645 -0.821622 0
M  V30 7058 H 640.538 -1.41718 -0.394248 0
M  V30 7059 H 642.496 -2.57262 -3.28439 0
M  V30 7060 H 641.126 -1.51766 -2.84898 0
M  V30 7061 H 640.178 -3.50766 -1.47199 0
M  V30 7062 H 641.49 -4.51007 -2.13059 0
M  V30 7063 H 640.644 -4.11979 -4.45374 0
M  V30 7064 H 639.383 -3.01885 -3.83036 0
M  V30 7065 H 638.388 -4.89853 -2.49649 0
M  V30 7066 H 639.613 -6.01626 -3.14997 0
M  V30 7067 H 637.559 -4.48337 -4.78884 0
M  V30 7068 H 637.476 -6.16463 -4.37618 0
M  V30 7069 H 638.744 -5.59975 -5.42263 0
M  V30 7070 N 642.974 0.416227 -1.52004 0
M  V30 7071 C 643.921 1.50666 -1.74838 0
M  V30 7072 C 644.891 1.55245 -0.590599 0
M  V30 7073 O 646.076 1.71928 -0.827374 0
M  V30 7074 C 643.216 2.88185 -1.89851 0
M  V30 7075 C 642.329 2.92971 -3.17478 0
M  V30 7076 C 641.464 4.21745 -3.22962 0
M  V30 7077 C 640.503 4.20478 -4.4482 0
M  V30 7078 N 639.64 5.40811 -4.47736 0
M  V30 7079 H 644.48 1.30498 -2.67907 0
M  V30 7080 H 642.017 0.633568 -1.32757 0
M  V30 7081 H 643.975 3.68007 -1.96537 0
M  V30 7082 H 642.605 3.06865 -1.00169 0
M  V30 7083 H 641.657 2.05684 -3.19997 0
M  V30 7084 H 642.969 2.87899 -4.07328 0
M  V30 7085 H 642.123 5.09954 -3.28682 0
M  V30 7086 H 640.862 4.29503 -2.31038 0
M  V30 7087 H 639.867 3.30659 -4.39254 0
M  V30 7088 H 641.092 4.14366 -5.38031 0
M  V30 7089 H 639.038 5.4925 -3.58692 0
M  V30 7090 H 638.955 5.37705 -5.31422 0
M  V30 7091 H 640.223 6.30993 -4.57676 0
M  V30 7092 N 644.452 1.42507 0.673017 0
M  V30 7093 C 645.699 1.43072 1.43306 0
M  V30 7094 C 646.027 0.0478004 1.94441 0
M  V30 7095 O 645.282 -0.944106 1.71421 0
M  V30 7096 C 645.581 2.40351 2.64511 0
M  V30 7097 C 645.247 3.8669 2.31908 0
M  V30 7098 C 643.909 4.26551 2.22728 0
M  V30 7099 C 646.261 4.78991 2.05467 0
M  V30 7100 C 643.589 5.56691 1.85234 0
M  V30 7101 C 645.941 6.09476 1.69477 0
M  V30 7102 C 644.605 6.48334 1.58808 0
M  V30 7103 H 643.875 0.523536 0.524395 0
M  V30 7104 H 646.522 1.75459 0.76723 0
M  V30 7105 H 644.827 2.01297 3.36135 0
M  V30 7106 H 646.524 2.38051 3.22696 0
M  V30 7107 H 643.114 3.55132 2.39956 0
M  V30 7108 H 647.298 4.48982 2.11492 0
M  V30 7109 H 642.554 5.85657 1.75545 0
M  V30 7110 H 646.728 6.80482 1.48043 0
M  V30 7111 H 644.355 7.49084 1.29525 0
M  V30 7112 N 645.93 -0.909495 1.28709 0
M  V30 7113 C 647.16 -1.69027 1.188 0
M  V30 7114 C 647.568 -1.87469 -0.255329 0
M  V30 7115 O 646.911 -1.40458 -1.18394 0
M  V30 7116 C 646.973 -3.10064 1.81936 0
M  V30 7117 C 646.637 -3.14891 3.31199 0
M  V30 7118 C 647.634 -2.95768 4.27571 0
M  V30 7119 C 645.319 -3.37269 3.7223 0
M  V30 7120 C 647.313 -2.98942 5.6295 0
M  V30 7121 C 645 -3.40074 5.07733 0
M  V30 7122 C 645.998 -3.20932 6.02903 0
M  V30 7123 O 645.686 -3.23507 7.35934 0
M  V30 7124 H 645.418 -0.535014 0.413203 0
M  V30 7125 H 647.972 -1.14645 1.70428 0
M  V30 7126 H 646.202 -3.66005 1.24808 0
M  V30 7127 H 647.891 -3.70185 1.66486 0
M  V30 7128 H 648.657 -2.78302 3.97206 0
M  V30 7129 H 644.536 -3.51212 2.98615 0
M  V30 7130 H 648.08 -2.83919 6.37209 0
M  V30 7131 H 643.977 -3.5707 5.37747 0
M  V30 7132 H 644.745 -3.3984 7.44615 0
M  V30 7133 N 647.408 -1.11026 -1.11852 0
M  V30 7134 C 648.318 -0.777252 -2.2135 0
M  V30 7135 C 649.334 0.227821 -1.72502 0
M  V30 7136 O 650.51 0.0650587 -2.01295 0
M  V30 7137 C 647.575 -0.220668 -3.45997 0
M  V30 7138 C 646.636 -1.2838 -4.09655 0
M  V30 7139 C 645.869 -0.753678 -5.28352 0
M  V30 7140 O 646.092 0.417779 -5.68868 0
M  V30 7141 O 645.026 -1.51647 -5.82483 0
M  V30 7142 H 648.852 -1.69141 -2.5224 0
M  V30 7143 H 646.437 -0.885836 -1.20305 0
M  V30 7144 H 648.319 0.0855756 -4.21313 0
M  V30 7145 H 646.994 0.666262 -3.16769 0
M  V30 7146 H 645.901 -1.64299 -3.3609 0
M  V30 7147 H 647.234 -2.14396 -4.43052 0
M  V30 7148 N 648.886 1.2938 -0.899927 0
M  V30 7149 C 649.818 2.26737 -0.335139 0
M  V30 7150 C 650.831 1.54316 0.518681 0
M  V30 7151 O 652.02 1.75313 0.335803 0
M  V30 7152 C 649.12 3.34558 0.540774 0
M  V30 7153 C 648.293 4.36455 -0.287372 0
M  V30 7154 C 647.352 5.2361 0.52141 0
M  V30 7155 O 646.378 5.69167 -0.0611735 0
M  V30 7156 N 647.58 5.50985 1.82745 0
M  V30 7157 H 650.345 2.75838 -1.17191 0
M  V30 7158 H 647.906 1.42716 -0.764438 0
M  V30 7159 H 649.898 3.89794 1.08825 0
M  V30 7160 H 648.468 2.85272 1.27823 0
M  V30 7161 H 647.688 3.80875 -1.01626 0
M  V30 7162 H 648.976 5.01573 -0.854518 0
M  V30 7163 H 648.374 5.15781 2.32349 0
M  V30 7164 H 646.931 6.09036 2.32204 0
M  V30 7165 N 650.364 0.662433 1.43002 0
M  V30 7166 C 651.611 0.179591 2.01702 0
M  V30 7167 C 651.939 -1.20964 1.52309 0
M  V30 7168 O 651.194 -1.82343 0.7106 0
M  V30 7169 C 651.493 0.149363 3.57088 0
M  V30 7170 C 651.159 1.48158 4.25864 0
M  V30 7171 C 649.821 1.84638 4.44367 0
M  V30 7172 C 652.173 2.35953 4.64732 0
M  V30 7173 C 649.501 3.08561 4.99006 0
M  V30 7174 C 651.853 3.59176 5.20745 0
M  V30 7175 C 650.517 3.95841 5.37463 0
M  V30 7176 H 649.787 0.0657172 0.73808 0
M  V30 7177 H 652.434 0.854968 1.71355 0
M  V30 7178 H 650.739 -0.609491 3.8703 0
M  V30 7179 H 652.436 -0.241241 4.00274 0
M  V30 7180 H 649.026 1.18777 4.11813 0
M  V30 7181 H 653.21 2.09058 4.50121 0
M  V30 7182 H 648.466 3.37005 5.10135 0
M  V30 7183 H 652.64 4.27417 5.49807 0
M  V30 7184 H 650.267 4.91942 5.79566 0
M  V30 7185 N 651.842 -1.52309 0.404946 0
M  V30 7186 C 653.067 -2.06666 -0.1743 0
M  V30 7187 C 653.492 -1.27341 -1.38441 0
M  V30 7188 O 652.85 -0.302539 -1.78758 0
M  V30 7189 C 652.898 -3.57014 -0.507262 0
M  V30 7190 O 652.002 -3.80144 -1.59889 0
M  V30 7191 H 651.343 -0.663807 -0.0160273 0
M  V30 7192 H 653.873 -1.96297 0.576937 0
M  V30 7193 H 653.883 -4.00724 -0.767098 0
M  V30 7194 H 652.558 -4.14184 0.377368 0
M  V30 7195 H 651.135 -3.48316 -1.33155 0
M  V30 7196 N 653.32 -0.135238 -1.57019 0
M  V30 7197 C 654.267 0.808908 -2.1616 0
M  V30 7198 C 655.237 1.25234 -1.09113 0
M  V30 7199 O 656.422 1.32697 -1.37099 0
M  V30 7200 C 653.562 2.04729 -2.77813 0
M  V30 7201 C 652.675 1.65074 -3.99218 0
M  V30 7202 C 651.81 2.84002 -4.48906 0
M  V30 7203 C 650.849 2.40663 -5.62803 0
M  V30 7204 N 649.986 3.5256 -6.07162 0
M  V30 7205 H 654.826 0.297751 -2.96509 0
M  V30 7206 H 652.363 0.135264 -1.46477 0
M  V30 7207 H 654.321 2.7731 -3.11697 0
M  V30 7208 H 652.951 2.53275 -2.00128 0
M  V30 7209 H 652.003 0.823029 -3.7139 0
M  V30 7210 H 653.315 1.29236 -4.81767 0
M  V30 7211 H 652.469 3.64788 -4.84783 0
M  V30 7212 H 651.208 3.23076 -3.65339 0
M  V30 7213 H 650.213 1.58314 -5.26514 0
M  V30 7214 H 651.438 2.02687 -6.48147 0
M  V30 7215 H 649.384 3.91278 -5.26534 0
M  V30 7216 H 649.301 3.20699 -6.84608 0
M  V30 7217 H 650.569 4.33738 -6.47682 0
M  V30 7218 N 654.798 1.5699 0.138552 0
M  V30 7219 C 655.746 1.99858 1.18994 0
M  V30 7220 C 656.74 0.89231 1.43994 0
M  V30 7221 O 657.946 1.0775 1.44187 0
M  V30 7222 H 654.321 0.636325 0.400743 0
M  V30 7223 H 656.292 2.87427 0.801755 0
M  V30 7224 C 655.041 2.40235 2.51361 0
M  V30 7225 H 654.364 3.24917 2.32957 0
M  V30 7226 H 655.804 2.74045 3.23535 0
M  V30 7227 C 654.263 1.25829 3.1252 0
M  V30 7228 O 654.793 0.563604 3.97727 0
M  V30 7229 N 652.999 1.02036 2.72097 0
M  V30 7230 H 652.546 1.58705 2.02905 0
M  V30 7231 H 652.504 0.256796 3.1335 0
M  V30 7232 N 656.276 -0.40816 1.52223 0
M  V30 7233 C 657.525 -1.15212 1.65557 0
M  V30 7234 C 657.838 -1.9163 0.392096 0
M  V30 7235 O 659.044 -2.68458 0.405256 0
M  V30 7236 C 657.5 -2.09691 2.92502 0
M  V30 7237 C 657.108 -1.38785 4.25961 0
M  V30 7238 C 658.852 -2.8434 3.152 0
M  V30 7239 C 656.759 -2.31919 5.44029 0
M  V30 7240 H 655.689 -0.433776 0.616729 0
M  V30 7241 H 658.34 -0.4165 1.78711 0
M  V30 7242 H 656.722 -2.8681 2.7305 0
M  V30 7243 H 657.896 -0.670248 4.55899 0
M  V30 7244 H 656.211 -0.761741 4.09373 0
M  V30 7245 H 658.808 -3.54166 4.00587 0
M  V30 7246 H 659.151 -3.47344 2.29473 0
M  V30 7247 H 659.684 -2.14321 3.35129 0
M  V30 7248 H 656.423 -1.7356 6.32105 0
M  V30 7249 H 655.943 -3.0165 5.18428 0
M  V30 7250 H 657.622 -2.92424 5.77146 0
M  V30 7251 N 657.755 -1.42862 -0.66545 0
M  V30 7252 C 658.702 -1.4707 -1.77874 0
M  V30 7253 C 659.672 -0.321654 -1.62956 0
M  V30 7254 O 660.857 -0.52707 -1.83376 0
M  V30 7255 C 657.997 -1.38788 -3.15962 0
M  V30 7256 C 657.11 -2.63801 -3.42101 0
M  V30 7257 C 656.245 -2.47594 -4.69969 0
M  V30 7258 C 655.284 -3.67936 -4.89172 0
M  V30 7259 N 654.421 -3.50614 -6.08288 0
M  V30 7260 H 659.261 -2.42204 -1.73613 0
M  V30 7261 H 656.798 -1.20239 -0.847401 0
M  V30 7262 H 658.756 -1.31982 -3.95773 0
M  V30 7263 H 657.386 -0.472431 -3.19324 0
M  V30 7264 H 656.438 -2.80935 -2.56475 0
M  V30 7265 H 657.75 -3.53228 -3.52181 0
M  V30 7266 H 656.904 -2.38427 -5.57886 0
M  V30 7267 H 655.643 -1.55672 -4.62188 0
M  V30 7268 H 654.648 -3.77525 -3.99694 0
M  V30 7269 H 655.873 -4.60851 -4.98792 0
M  V30 7270 H 653.819 -2.61417 -6.01662 0
M  V30 7271 H 653.736 -4.33634 -6.19272 0
M  V30 7272 H 655.004 -3.45276 -6.98859 0
M  V30 7273 N 659.233 0.902656 -1.29189 0
M  V30 7274 C 660.163 2.02294 -1.16616 0
M  V30 7275 C 661.144 1.6999 -0.0611175 0
M  V30 7276 O 662.329 1.9271 -0.240072 0
M  V30 7277 C 659.459 3.37018 -0.83882 0
M  V30 7278 C 658.413 3.83522 -1.89986 0
M  V30 7279 C 657.739 5.15337 -1.42589 0
M  V30 7280 C 659.039 4.04169 -3.30824 0
M  V30 7281 H 660.733 2.13071 -2.10336 0
M  V30 7282 H 658.279 1.02378 -1.01266 0
M  V30 7283 H 660.232 4.14895 -0.737584 0
M  V30 7284 H 658.956 3.26325 0.134071 0
M  V30 7285 H 657.615 3.07859 -1.99043 0
M  V30 7286 H 657.263 5.01056 -0.441759 0
M  V30 7287 H 656.963 5.47423 -2.13547 0
M  V30 7288 H 658.487 5.95758 -1.3381 0
M  V30 7289 H 659.901 4.72537 -3.24626 0
M  V30 7290 H 658.298 4.47604 -3.99713 0
M  V30 7291 H 659.368 3.08604 -3.74021 0
M  V30 7292 N 660.711 1.11618 1.11262 0
M  V30 7293 C 661.959 0.864469 1.82678 0
M  V30 7294 C 662.28 -0.611564 1.85162 0
M  V30 7295 O 661.55 -1.44429 1.32352 0
M  V30 7296 H 660.13 0.316821 0.676486 0
M  V30 7297 H 662.792 1.40894 1.34666 0
M  V30 7298 H 661.888 1.23832 2.86482 0
M  V30 7299 N 662.189 -1.289 0.906776 0
M  V30 7300 C 663.438 -1.9455 0.532262 0
M  V30 7301 C 663.751 -1.72219 -0.927353 0
M  V30 7302 O 664.957 -2.32033 -1.40971 0
M  V30 7303 C 663.413 -3.48438 0.901041 0
M  V30 7304 C 663.021 -3.79558 2.37991 0
M  V30 7305 C 664.765 -4.20284 0.596777 0
M  V30 7306 C 662.672 -5.26723 2.68918 0
M  V30 7307 H 661.602 -0.728259 0.195333 0
M  V30 7308 H 664.253 -1.46519 1.10474 0
M  V30 7309 H 662.635 -3.95162 0.257419 0
M  V30 7310 H 663.809 -3.43668 3.06967 0
M  V30 7311 H 662.124 -3.20868 2.65391 0
M  V30 7312 H 664.721 -5.28612 0.8046 0
M  V30 7313 H 665.064 -4.13694 -0.465072 0
M  V30 7314 H 665.597 -3.79315 1.19855 0
M  V30 7315 H 662.336 -5.38384 3.73928 0
M  V30 7316 H 661.856 -5.63836 2.04571 0
M  V30 7317 H 663.535 -5.94391 2.55555 0
M  V30 7318 N 663.667 -0.670007 -1.42649 0
M  V30 7319 C 664.617 0.0339546 -2.27975 0
M  V30 7320 C 665.601 0.778295 -1.40824 0
M  V30 7321 O 666.793 0.657997 -1.64315 0
M  V30 7322 C 663.922 0.987899 -3.28779 0
M  V30 7323 C 663.008 0.241153 -4.23414 0
M  V30 7324 N 663.399 -0.751392 -5.00188 0
M  V30 7325 C 661.697 0.480269 -4.43407 0
M  V30 7326 C 662.398 -1.19615 -5.69269 0
M  V30 7327 N 661.374 -0.527045 -5.41039 0
M  V30 7328 H 665.176 -0.727425 -2.84756 0
M  V30 7329 H 662.69 -0.498673 -1.54554 0
M  V30 7330 H 664.687 1.50716 -3.88703 0
M  V30 7331 H 663.347 1.74916 -2.73559 0
M  V30 7332 H 664.358 -1.13075 -5.05405 0
M  V30 7333 H 661.035 1.2214 -3.99234 0
M  V30 7334 H 662.425 -2.01836 -6.40868 0
M  V30 7335 N 665.145 1.52092 -0.413018 0
M  V30 7336 C 666.055 2.30858 0.417318 0
M  V30 7337 C 667.071 1.38746 1.05003 0
M  V30 7338 O 668.247 1.71821 1.05069 0
M  V30 7339 C 665.312 3.11756 1.51687 0
M  V30 7340 C 664.373 4.19613 0.906825 0
M  V30 7341 C 663.606 4.96644 1.95399 0
M  V30 7342 O 663.829 4.7402 3.17271 0
M  V30 7343 O 662.763 5.81385 1.55805 0
M  V30 7344 H 666.589 3.02865 -0.225028 0
M  V30 7345 H 664.174 1.48358 -0.176126 0
M  V30 7346 H 666.056 3.62122 2.15512 0
M  V30 7347 H 664.731 2.42539 2.14375 0
M  V30 7348 H 663.638 3.73385 0.231183 0
M  V30 7349 H 664.971 4.91134 0.323814 0
M  V30 7350 N 666.623 0.143563 1.56945 0
M  V30 7351 C 667.9 -0.553285 1.87612 0
M  V30 7352 C 668.28 -1.83195 1.04894 0
M  V30 7353 O 667.628 -2.28102 0.134773 0
M  V30 7354 C 667.838 -0.822055 3.3918 0
M  V30 7355 C 669.186 -1.16435 4.08324 0
M  V30 7356 O 670.21 -0.911522 3.4434 0
M  V30 7357 O 669.069 -1.63996 5.21313 0
M  V30 7358 H 666.163 -0.281851 0.777489 0
M  V30 7359 H 668.709 0.179916 1.68744 0
M  V30 7360 H 667.481 0.0830265 3.91212 0
M  V30 7361 H 667.104 -1.60956 3.63564 0
M  V30 7362 N 668.101 -1.57061 -0.130224 0
M  V30 7363 C 669.326 -1.88802 -0.858409 0
M  V30 7364 C 669.751 -0.734353 -1.73173 0
M  V30 7365 O 669.109 0.315529 -1.78533 0
M  V30 7366 C 669.157 -3.19228 -1.67708 0
M  V30 7367 O 668.261 -3.04343 -2.78297 0
M  V30 7368 H 667.602 -0.619849 -0.238083 0
M  V30 7369 H 670.132 -2.04271 -0.115995 0
M  V30 7370 H 670.142 -3.51669 -2.06864 0
M  V30 7371 H 668.817 -4.02793 -1.0359 0
M  V30 7372 H 667.394 -2.83346 -2.42425 0
M  V30 7373 N 669.579 0.400081 -1.52437 0
M  V30 7374 C 670.511 1.50729 -1.72666 0
M  V30 7375 C 671.524 1.51058 -0.607075 0
M  V30 7376 O 672.713 1.5516 -0.88248 0
M  V30 7377 C 669.813 2.89604 -1.76019 0
M  V30 7378 C 668.986 3.13365 -3.05157 0
M  V30 7379 C 668.045 4.32163 -3.00203 0
M  V30 7380 O 667.071 4.29004 -3.74092 0
M  V30 7381 N 668.273 5.3776 -2.18619 0
M  V30 7382 H 671.038 1.33767 -2.68191 0
M  V30 7383 H 668.599 0.58948 -1.50787 0
M  V30 7384 H 670.591 3.67159 -1.70225 0
M  V30 7385 H 669.161 2.99979 -0.879284 0
M  V30 7386 H 668.381 2.23774 -3.24529 0
M  V30 7387 H 669.669 3.26089 -3.90568 0
M  V30 7388 H 669.067 5.43177 -1.58035 0
M  V30 7389 H 667.624 6.14023 -2.18674 0
M  V30 7390 N 671.057 1.43213 0.657864 0
M  V30 7391 C 672.005 1.48271 1.79216 0
M  V30 7392 C 672.999 0.35675 1.65601 0
M  V30 7393 O 674.205 0.530535 1.72004 0
M  V30 7394 H 670.58 0.464729 0.591211 0
M  V30 7395 H 672.551 2.43792 1.7207 0
M  V30 7396 C 671.3 1.41837 3.17455 0
M  V30 7397 H 670.623 2.27781 3.28567 0
M  V30 7398 H 672.063 1.49438 3.96793 0
M  V30 7399 C 670.522 0.135347 3.36628 0
M  V30 7400 O 671.052 -0.805199 3.93547 0
M  V30 7401 N 669.258 0.0470316 2.90562 0
M  V30 7402 H 668.805 0.813221 2.44427 0
M  V30 7403 H 668.763 -0.810737 3.03767 0
M  V30 7404 N 672.536 -0.895792 1.29666 0
M  V30 7405 C 673.952 -1.17726 1.07763 0
M  V30 7406 C 674.152 -2.00794 -0.168576 0
M  V30 7407 O 673.208 -2.37213 -0.865244 0
M  V30 7408 C 674.521 -1.89441 2.33522 0
M  V30 7409 C 676.069 -2.02251 2.3888 0
M  V30 7410 C 676.544 -2.77378 3.64452 0
M  V30 7411 N 678.035 -2.8493 3.65198 0
M  V30 7412 C 678.77 -3.43606 4.59045 0
M  V30 7413 N 678.266 -4.03417 5.63228 0
M  V30 7414 N 680.059 -3.41317 4.46608 0
M  V30 7415 H 672.21 -0.341652 2.09634 0
M  V30 7416 H 674.473 -0.213865 0.923561 0
M  V30 7417 H 674.179 -1.35842 3.24407 0
M  V30 7418 H 674.053 -2.89893 2.41334 0
M  V30 7419 H 676.44 -2.55025 1.4848 0
M  V30 7420 H 676.521 -1.0092 2.3505 0
M  V30 7421 H 676.165 -2.25279 4.55205 0
M  V30 7422 H 676.095 -3.79062 3.65541 0
M  V30 7423 H 678.586 -2.42453 2.89871 0
M  V30 7424 H 678.899 -4.46224 6.30955 0
M  V30 7425 H 677.244 -4.01868 5.67033 0
M  V30 7426 H 680.435 -2.93812 3.64407 0
M  V30 7427 H 680.608 -3.86751 5.1993 0
M  V30 7428 N 674.014 -1.12206 -1.10668 0
M  V30 7429 C 674.961 -0.787716 -2.16942 0
M  V30 7430 C 675.931 0.244442 -1.64291 0
M  V30 7431 O 677.116 0.119558 -1.90425 0
M  V30 7432 C 674.256 -0.24584 -3.44223 0
M  V30 7433 C 673.369 -1.33552 -4.10838 0
M  V30 7434 C 672.504 -0.753337 -5.25831 0
M  V30 7435 C 671.543 -1.82231 -5.84344 0
M  V30 7436 N 670.68 -1.25902 -6.90719 0
M  V30 7437 H 675.52 -1.69809 -2.44885 0
M  V30 7438 H 673.057 -0.847862 -1.20207 0
M  V30 7439 H 675.015 0.0863639 -4.17111 0
M  V30 7440 H 673.645 0.627702 -3.16638 0
M  V30 7441 H 672.697 -1.78454 -3.35944 0
M  V30 7442 H 674.009 -2.14396 -4.50373 0
M  V30 7443 H 673.163 -0.37166 -6.05561 0
M  V30 7444 H 671.902 0.0863297 -4.87624 0
M  V30 7445 H 670.907 -2.2132 -5.03287 0
M  V30 7446 H 672.132 -2.66515 -6.24617 0
M  V30 7447 H 670.078 -0.44114 -6.54515 0
M  V30 7448 H 669.995 -2.00408 -7.28953 0
M  V30 7449 H 671.263 -0.904498 -7.74235 0
M  V30 7450 N 675.492 1.28418 -0.913599 0
M  V30 7451 C 676.439 2.27301 -0.400373 0
M  V30 7452 C 677.409 1.57582 0.52509 0
M  V30 7453 O 678.594 1.85482 0.447318 0
M  V30 7454 C 675.734 3.43284 0.35361 0
M  V30 7455 C 674.847 4.27752 -0.604341 0
M  V30 7456 C 673.982 5.30934 0.168075 0
M  V30 7457 C 673.021 6.07065 -0.783499 0
M  V30 7458 N 672.158 7.02086 -0.0446112 0
M  V30 7459 H 676.998 2.70579 -1.24865 0
M  V30 7460 H 674.535 1.33067 -0.627028 0
M  V30 7461 H 676.493 4.09322 0.806945 0
M  V30 7462 H 675.123 3.00997 1.16623 0
M  V30 7463 H 674.175 3.61759 -1.17621 0
M  V30 7464 H 675.487 4.80682 -1.33216 0
M  V30 7465 H 674.641 6.02855 0.681979 0
M  V30 7466 H 673.38 4.78771 0.928947 0
M  V30 7467 H 672.385 5.33995 -1.30878 0
M  V30 7468 H 673.61 6.61317 -1.54392 0
M  V30 7469 H 671.556 6.52273 0.698272 0
M  V30 7470 H 671.473 7.52637 -0.712258 0
M  V30 7471 H 672.741 7.78205 0.449102 0
M  V30 7472 N 676.97 0.677563 1.42291 0
M  V30 7473 C 677.9 0.014968 2.33495 0
M  V30 7474 C 678.881 -0.786376 1.50831 0
M  V30 7475 O 680.066 -0.742975 1.79426 0
M  V30 7476 C 677.196 -0.935023 3.34477 0
M  V30 7477 C 676.15 -0.242074 4.27315 0
M  V30 7478 C 675.476 -1.30519 5.18526 0
M  V30 7479 C 676.776 0.880604 5.14823 0
M  V30 7480 H 678.47 0.776671 2.89151 0
M  V30 7481 H 676.016 0.37494 1.39033 0
M  V30 7482 H 677.969 -1.40766 3.97194 0
M  V30 7483 H 676.693 -1.72818 2.77131 0
M  V30 7484 H 675.352 0.210351 3.65996 0
M  V30 7485 H 675 -2.09041 4.57505 0
M  V30 7486 H 674.7 -0.846652 5.81468 0
M  V30 7487 H 676.224 -1.7787 5.84119 0
M  V30 7488 H 677.638 0.489062 5.7121 0
M  V30 7489 H 676.035 1.26511 5.86613 0
M  V30 7490 H 677.105 1.72818 4.53059 0
M  V30 7491 N 678.448 -1.51871 0.421078 0
M  V30 7492 C 679.673 -2.0684 -0.152371 0
M  V30 7493 C 680.098 -1.28802 -1.37083 0
M  V30 7494 O 679.456 -0.321482 -1.78427 0
M  V30 7495 C 679.504 -3.57532 -0.469368 0
M  V30 7496 O 678.608 -3.81818 -1.55848 0
M  V30 7497 H 677.949 -0.663939 -0.00898586 0
M  V30 7498 H 680.479 -1.95674 0.597724 0
M  V30 7499 H 680.489 -4.01515 -0.724553 0
M  V30 7500 H 679.164 -4.13761 0.421276 0
M  V30 7501 H 677.741 -3.49709 -1.29453 0
M  V30 7502 N 679.926 -0.151884 -1.56866 0
M  V30 7503 C 680.836 0.798876 -2.20579 0
M  V30 7504 C 681.852 1.268 -1.19154 0
M  V30 7505 O 683.028 1.32418 -1.51748 0
M  V30 7506 C 680.093 2.01861 -2.81874 0
M  V30 7507 C 679.154 1.59825 -3.9844 0
M  V30 7508 C 678.387 2.75984 -4.56802 0
M  V30 7509 O 678.61 3.92331 -4.14044 0
M  V30 7510 O 677.544 2.51175 -5.46987 0
M  V30 7511 H 681.37 0.2865 -3.02346 0
M  V30 7512 H 678.955 0.0753806 -1.4921 0
M  V30 7513 H 680.837 2.73235 -3.20813 0
M  V30 7514 H 679.512 2.52042 -2.03117 0
M  V30 7515 H 678.419 0.854601 -3.64208 0
M  V30 7516 H 679.752 1.14355 -4.78731 0
M  V30 7517 N 681.404 1.57128 0.121893 0
M  V30 7518 C 682.334 2.03165 1.15092 0
M  V30 7519 C 683.315 0.915587 1.43356 0
M  V30 7520 O 684.5 1.1851 1.53847 0
M  V30 7521 C 681.63 2.43352 2.47784 0
M  V30 7522 C 680.584 3.58376 2.33989 0
M  V30 7523 C 679.91 3.84454 3.71617 0
M  V30 7524 C 681.21 4.90199 1.80283 0
M  V30 7525 H 682.904 2.89382 0.768023 0
M  V30 7526 H 680.45 1.39218 0.367998 0
M  V30 7527 H 682.403 2.74163 3.20019 0
M  V30 7528 H 681.127 1.54103 2.87958 0
M  V30 7529 H 679.786 3.2777 1.64202 0
M  V30 7530 H 679.434 2.92414 4.09271 0
M  V30 7531 H 679.134 4.61877 3.6324 0
M  V30 7532 H 680.658 4.17714 4.45362 0
M  V30 7533 H 682.072 5.19565 2.42333 0
M  V30 7534 H 680.469 5.71601 1.82735 0
M  V30 7535 H 681.539 4.78904 0.760184 0
M  V30 7536 N 682.882 -0.391992 1.52647 0
M  V30 7537 C 683.812 -1.48517 1.8018 0
M  V30 7538 C 684.793 -1.57039 0.653667 0
M  V30 7539 O 685.978 -1.72036 0.900962 0
M  V30 7540 C 683.108 -2.86161 1.96797 0
M  V30 7541 C 682.062 -2.92481 3.12472 0
M  V30 7542 C 681.388 -4.32546 3.14338 0
M  V30 7543 C 682.688 -2.624 4.51601 0
M  V30 7544 H 684.382 -1.25726 2.71723 0
M  V30 7545 H 681.928 -0.603387 1.30749 0
M  V30 7546 H 683.881 -3.62639 2.14641 0
M  V30 7547 H 682.605 -3.10283 1.01941 0
M  V30 7548 H 681.264 -2.18451 2.94406 0
M  V30 7549 H 680.912 -4.53703 2.1717 0
M  V30 7550 H 680.612 -4.37695 3.92042 0
M  V30 7551 H 682.136 -5.10934 3.34333 0
M  V30 7552 H 683.55 -3.28596 4.69785 0
M  V30 7553 H 681.947 -2.78903 5.3135 0
M  V30 7554 H 683.017 -1.57754 4.58521 0
M  V30 7555 N 684.36 -1.4356 -0.65026 0
M  V30 7556 C 685.776 -1.27025 -0.966269 0
M  V30 7557 C 685.976 -0.192117 -2.00582 0
M  V30 7558 O 685.032 0.428459 -2.48838 0
M  V30 7559 C 686.345 -2.63556 -1.44772 0
M  V30 7560 C 687.893 -2.71111 -1.56421 0
M  V30 7561 C 688.368 -4.08067 -2.07956 0
M  V30 7562 N 689.859 -4.10146 -2.15254 0
M  V30 7563 C 690.594 -5.12952 -2.56258 0
M  V30 7564 N 690.09 -6.26129 -2.96537 0
M  V30 7565 N 691.883 -5.00306 -2.56224 0
M  V30 7566 H 684.034 -2.12367 0.0375758 0
M  V30 7567 H 686.297 -0.946894 -0.0457782 0
M  V30 7568 H 686.003 -3.43429 -0.758271 0
M  V30 7569 H 685.877 -2.89152 -2.42221 0
M  V30 7570 H 688.264 -1.91569 -2.24467 0
M  V30 7571 H 688.345 -2.49277 -0.573967 0
M  V30 7572 H 687.989 -4.88077 -1.40511 0
M  V30 7573 H 687.919 -4.27266 -3.07817 0
M  V30 7574 H 690.41 -3.28453 -1.86887 0
M  V30 7575 H 690.723 -7.00403 -3.26582 0
M  V30 7576 H 689.068 -6.29597 -2.94334 0
M  V30 7577 H 692.259 -4.10952 -2.24135 0
M  V30 7578 H 692.432 -5.80553 -2.87857 0
M  V30 7579 N 685.838 0.888903 -1.30139 0
M  V30 7580 C 687.068 1.67115 -1.21474 0
M  V30 7581 C 687.476 1.87852 0.225472 0
M  V30 7582 O 686.819 1.42324 1.16145 0
M  V30 7583 C 686.881 3.0713 -1.86846 0
M  V30 7584 C 686.545 3.09582 -3.36167 0
M  V30 7585 C 687.542 2.88929 -4.32222 0
M  V30 7586 C 685.227 3.31304 -3.77549 0
M  V30 7587 C 687.221 2.89949 -5.67634 0
M  V30 7588 C 684.908 3.31954 -5.13079 0
M  V30 7589 C 685.906 3.113 -6.07932 0
M  V30 7590 O 685.594 3.11758 -7.40987 0
M  V30 7591 H 685.326 0.528372 -0.421662 0
M  V30 7592 H 687.88 1.11919 -1.7223 0
M  V30 7593 H 686.11 3.63973 -1.30615 0
M  V30 7594 H 687.799 3.6749 -1.72354 0
M  V30 7595 H 688.565 2.71948 -4.01584 0
M  V30 7596 H 684.444 3.46417 -3.04165 0
M  V30 7597 H 687.988 2.73746 -6.41645 0
M  V30 7598 H 683.885 3.48469 -5.43359 0
M  V30 7599 H 684.653 3.27951 -7.49927 0
M  V30 7600 N 687.317 1.12792 1.10072 0
M  V30 7601 C 688.547 0.907189 1.85617 0
M  V30 7602 C 688.955 -0.547181 1.81115 0
M  V30 7603 O 688.298 -1.39024 1.20075 0
M  V30 7604 C 688.36 1.30872 3.34832 0
M  V30 7605 C 688.024 2.77516 3.6309 0
M  V30 7606 C 689.021 3.75696 3.59373 0
M  V30 7607 C 686.706 3.14513 3.91646 0
M  V30 7608 C 688.7 5.08888 3.83812 0
M  V30 7609 C 686.387 4.47886 4.15742 0
M  V30 7610 C 687.385 5.44882 4.11816 0
M  V30 7611 O 687.073 6.7585 4.35295 0
M  V30 7612 H 686.805 0.323855 0.593375 0
M  V30 7613 H 689.359 1.50262 1.40038 0
M  V30 7614 H 687.589 0.656518 3.81086 0
M  V30 7615 H 689.278 1.06153 3.91773 0
M  V30 7616 H 690.044 3.48458 3.37345 0
M  V30 7617 H 685.923 2.39622 3.93831 0
M  V30 7618 H 689.467 5.84586 3.80663 0
M  V30 7619 H 685.364 4.74851 4.37249 0
M  V30 7620 H 686.132 6.81853 4.52791 0
M  V30 7621 N 688.795 -1.27931 0.920396 0
M  V30 7622 C 690.023 -1.98805 0.573087 0
M  V30 7623 C 690.438 -1.68724 -0.847201 0
M  V30 7624 O 689.795 -0.943699 -1.56207 0
M  V30 7625 C 689.846 -3.52971 0.780633 0
M  V30 7626 O 689.567 -3.81994 2.14504 0
M  V30 7627 C 691.068 -4.411 0.44105 0
M  V30 7628 H 688.288 -0.634651 0.21785 0
M  V30 7629 H 690.832 -1.62965 1.23542 0
M  V30 7630 H 688.987 -3.87048 0.165204 0
M  V30 7631 H 689.401 -4.76609 2.18962 0
M  V30 7632 H 690.875 -5.48312 0.637006 0
M  V30 7633 H 691.352 -4.34758 -0.62306 0
M  V30 7634 H 691.958 -4.12532 1.0343 0
M  V30 7635 N 690.273 -0.685099 -1.4193 0
M  V30 7636 C 691.498 -0.218842 -2.06242 0
M  V30 7637 C 691.923 1.11923 -1.51178 0
M  V30 7638 O 691.281 1.69837 -0.634446 0
M  V30 7639 C 691.329 -0.175592 -3.60172 0
M  V30 7640 O 690.433 0.852776 -4.03487 0
M  V30 7641 H 689.774 -0.109531 -0.654904 0
M  V30 7642 H 692.304 -0.937013 -1.81882 0
M  V30 7643 H 692.314 -0.00291151 -4.08 0
M  V30 7644 H 690.989 -1.15222 -3.99621 0
M  V30 7645 H 689.566 0.650301 -3.67186 0
M  V30 7646 N 691.751 1.51645 -0.429126 0
M  V30 7647 C 692.714 2.26116 0.374726 0
M  V30 7648 C 693.714 1.29242 0.956714 0
M  V30 7649 O 694.904 1.53022 0.832452 0
M  V30 7650 C 692.036 3.04669 1.52937 0
M  V30 7651 H 693.229 2.9861 -0.277818 0
M  V30 7652 H 690.782 1.55236 -0.182097 0
M  V30 7653 H 691.517 2.36571 2.21821 0
M  V30 7654 H 691.302 3.75814 1.11833 0
M  V30 7655 H 692.792 3.61102 2.09751 0
M  V30 7656 N 693.229 0.160201 1.56784 0
M  V30 7657 C 694.454 -0.497373 2.01348 0
M  V30 7658 C 694.879 -1.56757 1.03966 0
M  V30 7659 O 694.237 -1.81292 0.0174455 0
M  V30 7660 C 694.285 -1.0628 3.44582 0
M  V30 7661 O 693.389 -2.17723 3.50244 0
M  V30 7662 H 692.73 -0.120295 0.653012 0
M  V30 7663 H 695.26 0.260821 2.02931 0
M  V30 7664 H 695.27 -1.38819 3.83658 0
M  V30 7665 H 693.945 -0.279166 4.14962 0
M  V30 7666 H 692.522 -1.86313 3.2302 0
M  V30 7667 N 694.707 -1.5719 -0.113559 0
M  V30 7668 C 695.955 -1.84772 -0.818761 0
M  V30 7669 C 696.276 -0.746196 -1.80158 0
M  V30 7670 O 695.546 0.229305 -1.94553 0
M  V30 7671 H 694.126 -0.681737 -0.305359 0
M  V30 7672 H 696.788 -1.94645 -0.0995845 0
M  V30 7673 H 695.884 -2.80878 -1.36067 0
M  V30 7674 N 696.185 0.383891 -1.52853 0
M  V30 7675 C 697.462 1.14296 -1.58732 0
M  V30 7676 C 697.842 2.07585 -0.383611 0
M  V30 7677 O 697.19 2.1971 0.627661 0
M  V30 7678 C 697.4 1.89816 -2.92867 0
M  V30 7679 C 698.748 2.44998 -3.46787 0
M  V30 7680 O 699.772 1.99966 -2.94774 0
M  V30 7681 O 698.631 3.2727 -4.37672 0
M  V30 7682 H 695.725 0.52326 -0.640413 0
M  V30 7683 H 698.271 0.388631 -1.6519 0
M  V30 7684 H 697.043 1.21626 -3.71918 0
M  V30 7685 H 696.666 2.72199 -2.89816 0
M  V30 7686 N 697.663 1.43903 0.642637 0
M  V30 7687 C 698.573 1.52349 1.78401 0
M  V30 7688 C 699.589 0.409869 1.69104 0
M  V30 7689 O 700.765 0.665548 1.90085 0
M  V30 7690 C 697.83 1.45408 3.14734 0
M  V30 7691 C 696.891 2.67528 3.35749 0
M  V30 7692 C 696.124 2.60909 4.65577 0
M  V30 7693 O 696.347 1.6627 5.45628 0
M  V30 7694 O 695.281 3.5158 4.88544 0
M  V30 7695 H 699.107 2.48752 1.7423 0
M  V30 7696 H 696.692 1.26021 0.802439 0
M  V30 7697 H 698.574 1.44019 3.96026 0
M  V30 7698 H 697.249 0.521437 3.19473 0
M  V30 7699 H 696.156 2.74487 2.5418 0
M  V30 7700 H 697.489 3.598 3.35864 0
M  V30 7701 N 699.141 -0.881989 1.30609 0
M  V30 7702 C 700.074 -1.99066 1.11571 0
M  V30 7703 C 701.052 -1.62584 0.022516 0
M  V30 7704 O 702.236 -1.87671 0.176644 0
M  V30 7705 C 699.363 -3.3134 0.702237 0
M  V30 7706 C 698.409 -3.86807 1.79673 0
M  V30 7707 S 699.242 -4.13735 3.39976 0
M  V30 7708 C 700.398 -5.49024 3.00538 0
M  V30 7709 H 700.631 -2.1491 2.05429 0
M  V30 7710 H 698.164 -1.03074 1.14957 0
M  V30 7711 H 700.122 -4.07796 0.470415 0
M  V30 7712 H 698.783 -3.13349 -0.217034 0
M  V30 7713 H 697.976 -4.82397 1.45977 0
M  V30 7714 H 697.578 -3.17102 1.98298 0
M  V30 7715 H 699.87 -6.30208 2.48684 0
M  V30 7716 H 700.813 -5.8766 3.95046 0
M  V30 7717 H 701.221 -5.11726 2.3832 0
M  V30 7718 N 700.619 -1.13374 -1.09472 0
M  V30 7719 C 701.865 -0.896516 -1.81908 0
M  V30 7720 C 702.198 0.575933 -1.85463 0
M  V30 7721 O 701.473 1.42618 -1.32251 0
M  V30 7722 C 701.756 -1.48445 -3.28079 0
M  V30 7723 C 701.609 -3.02598 -3.32798 0
M  V30 7724 C 702.928 -1.15226 -4.24748 0
M  V30 7725 H 700.047 -0.327127 -0.660422 0
M  V30 7726 H 702.689 -1.40195 -1.2824 0
M  V30 7727 H 700.839 -1.0546 -3.73912 0
M  V30 7728 H 702.511 -3.54335 -2.95372 0
M  V30 7729 H 700.754 -3.37613 -2.72397 0
M  V30 7730 H 701.425 -3.38835 -4.3577 0
M  V30 7731 H 703.901 -1.52369 -3.87199 0
M  V30 7732 H 702.777 -1.59012 -5.25363 0
M  V30 7733 H 703.038 -0.0658891 -4.42051 0
M  V30 7734 N 702.098 1.27442 -0.927168 0
M  V30 7735 C 703.323 1.99036 -0.583042 0
M  V30 7736 C 703.748 1.68711 0.83176 0
M  V30 7737 O 703.106 0.927081 1.55804 0
M  V30 7738 C 703.154 3.51271 -0.814925 0
M  V30 7739 O 702.258 4.12226 0.119742 0
M  V30 7740 H 701.599 0.624883 -0.224538 0
M  V30 7741 H 704.129 1.62263 -1.24628 0
M  V30 7742 H 704.139 4.01411 -0.730282 0
M  V30 7743 H 702.814 3.72676 -1.84623 0
M  V30 7744 H 701.391 3.72897 -0.0147688 0
M  V30 7745 N 703.576 0.692616 1.41565 0
M  V30 7746 C 704.506 0.0397325 2.33466 0
M  V30 7747 C 705.487 -0.770334 1.51657 0
M  V30 7748 O 706.672 -0.723903 1.80203 0
M  V30 7749 C 703.802 -0.899495 3.3545 0
M  V30 7750 C 702.756 -0.196738 4.27548 0
M  V30 7751 C 702.082 -1.25012 5.19881 0
M  V30 7752 C 703.382 0.935158 5.1386 0
M  V30 7753 H 705.076 0.807296 2.88311 0
M  V30 7754 H 702.622 0.389665 1.38628 0
M  V30 7755 H 704.575 -1.36545 3.98665 0
M  V30 7756 H 703.299 -1.69869 2.78948 0
M  V30 7757 H 701.958 0.249158 3.65752 0
M  V30 7758 H 701.606 -2.04177 4.59696 0
M  V30 7759 H 701.306 -0.784931 5.82334 0
M  V30 7760 H 702.83 -1.71665 5.85972 0
M  V30 7761 H 704.244 0.549619 5.70659 0
M  V30 7762 H 702.641 1.32726 5.85238 0
M  V30 7763 H 703.711 1.77613 4.512 0
M  V30 7764 N 705.054 -1.51416 0.437162 0
M  V30 7765 C 706.001 -2.27743 -0.374374 0
M  V30 7766 C 706.971 -1.31327 -1.01698 0
M  V30 7767 O 708.156 -1.60229 -1.03592 0
M  V30 7768 C 705.296 -3.12241 -1.46969 0
M  V30 7769 C 704.409 -4.23651 -0.845236 0
M  V30 7770 C 703.544 -4.95458 -1.91559 0
M  V30 7771 C 702.583 -5.98789 -1.26956 0
M  V30 7772 N 701.72 -6.64005 -2.28126 0
M  V30 7773 H 706.56 -2.96654 0.282892 0
M  V30 7774 H 704.097 -1.46319 0.151352 0
M  V30 7775 H 706.055 -3.59556 -2.11602 0
M  V30 7776 H 704.685 -2.45445 -2.09659 0
M  V30 7777 H 703.737 -3.803 -0.0872059 0
M  V30 7778 H 705.049 -4.97683 -0.333582 0
M  V30 7779 H 704.203 -5.46321 -2.63854 0
M  V30 7780 H 702.942 -4.21055 -2.46097 0
M  V30 7781 H 701.947 -5.47219 -0.53207 0
M  V30 7782 H 703.172 -6.75149 -0.731509 0
M  V30 7783 H 701.118 -5.92415 -2.81745 0
M  V30 7784 H 701.035 -7.33802 -1.81852 0
M  V30 7785 H 702.303 -7.19498 -2.99905 0
M  V30 7786 N 706.532 -0.168513 -1.56696 0
M  V30 7787 C 707.809 0.523367 -1.88468 0
M  V30 7788 C 708.189 1.81503 -1.07796 0
M  V30 7789 O 707.537 2.27859 -0.171045 0
M  V30 7790 C 707.747 0.767991 -3.40445 0
M  V30 7791 C 709.095 1.09924 -4.10124 0
M  V30 7792 O 710.119 0.856625 -3.45746 0
M  V30 7793 O 708.978 1.55681 -5.23856 0
M  V30 7794 H 706.072 0.269447 -0.781874 0
M  V30 7795 H 708.618 -0.206739 -1.68436 0
M  V30 7796 H 707.39 -0.145254 -3.9103 0
M  V30 7797 H 707.013 1.55151 -3.66079 0
M  V30 7798 N 708.01 1.57248 0.105221 0
M  V30 7799 C 709.24 1.89492 0.823175 0
M  V30 7800 C 709.648 0.75934 1.73294 0
M  V30 7801 O 708.991 -0.278182 1.81581 0
M  V30 7802 C 709.053 3.16891 1.69765 0
M  V30 7803 C 708.717 4.46787 0.960769 0
M  V30 7804 C 709.714 5.19061 0.295218 0
M  V30 7805 C 707.399 4.93467 0.937854 0
M  V30 7806 C 709.393 6.36246 -0.383393 0
M  V30 7807 C 707.08 6.10566 0.255452 0
M  V30 7808 C 708.078 6.81804 -0.404003 0
M  V30 7809 O 707.766 7.96673 -1.07549 0
M  V30 7810 H 707.498 0.631512 0.24118 0
M  V30 7811 H 710.052 2.05203 0.0899655 0
M  V30 7812 H 708.282 2.973 2.47285 0
M  V30 7813 H 709.971 3.35046 2.29126 0
M  V30 7814 H 710.737 4.84044 0.304448 0
M  V30 7815 H 706.616 4.37913 1.44058 0
M  V30 7816 H 710.16 6.91787 -0.898696 0
M  V30 7817 H 706.057 6.45039 0.244032 0
M  V30 7818 H 706.825 8.12596 -0.981355 0
M  V30 7819 N 709.488 -0.375779 1.53054 0
M  V30 7820 C 710.728 -1.12828 1.70438 0
M  V30 7821 C 711.092 -1.86854 0.441527 0
M  V30 7822 O 712.293 -2.64261 0.491908 0
M  V30 7823 C 710.564 -2.07009 2.91345 0
M  V30 7824 S 712.123 -2.89917 3.29383 0
M  V30 7825 H 708.941 -0.381736 0.599832 0
M  V30 7826 H 711.543 -0.4109 1.91133 0
M  V30 7827 H 710.247 -1.51371 3.81464 0
M  V30 7828 H 709.778 -2.83236 2.73022 0
M  V30 7829 H 711.793 -4.0924 2.80601 0
M  V30 7830 N 710.966 -1.44241 -0.634997 0
M  V30 7831 C 712.194 -1.50296 -1.42193 0
M  V30 7832 C 712.609 -0.12658 -1.88375 0
M  V30 7833 O 711.966 0.86678 -1.60603 0
M  V30 7834 C 712.017 -2.46437 -2.64482 0
M  V30 7835 O 711.738 -3.78724 -2.20226 0
M  V30 7836 C 713.239 -2.61918 -3.57651 0
M  V30 7837 H 710.459 -0.509865 -0.43621 0
M  V30 7838 H 713.003 -1.89167 -0.776921 0
M  V30 7839 H 711.158 -2.10712 -3.25083 0
M  V30 7840 H 711.572 -4.30595 -2.9948 0
M  V30 7841 H 713.046 -3.33225 -4.40074 0
M  V30 7842 H 713.523 -1.67017 -4.06204 0
M  V30 7843 H 714.129 -2.98528 -3.02921 0
M  V30 7844 N 712.444 0.87505 -1.31075 0
M  V30 7845 C 713.86 1.15997 -1.09622 0
M  V30 7846 C 714.06 2.01036 0.136611 0
M  V30 7847 O 713.116 2.38559 0.827397 0
M  V30 7848 C 714.429 1.85702 -2.36506 0
M  V30 7849 C 715.977 1.98425 -2.42067 0
M  V30 7850 C 716.452 2.71544 -3.68819 0
M  V30 7851 N 717.943 2.79084 -3.69684 0
M  V30 7852 C 718.678 3.36259 -4.64454 0
M  V30 7853 N 718.174 3.94406 -5.69575 0
M  V30 7854 N 719.967 3.34169 -4.51982 0
M  V30 7855 H 712.118 0.308258 -2.10151 0
M  V30 7856 H 714.381 0.199145 -0.926847 0
M  V30 7857 H 714.087 1.30663 -3.26527 0
M  V30 7858 H 713.961 2.86017 -2.45915 0
M  V30 7859 H 716.348 2.5263 -1.52518 0
M  V30 7860 H 716.429 0.971682 -2.36626 0
M  V30 7861 H 716.073 2.18008 -4.58732 0
M  V30 7862 H 716.003 3.73198 -3.71525 0
M  V30 7863 H 718.494 2.3781 -2.93691 0
M  V30 7864 H 718.807 4.36129 -6.37974 0
M  V30 7865 H 717.152 3.92797 -5.73355 0
M  V30 7866 H 720.343 2.87977 -3.69035 0
M  V30 7867 H 720.516 3.78431 -5.26017 0
M  V30 7868 N 713.922 1.13953 1.08869 0
M  V30 7869 C 714.855 0.765765 2.14968 0
M  V30 7870 C 715.833 -0.250689 1.60656 0
M  V30 7871 O 717.017 -0.140852 1.87973 0
M  V30 7872 C 714.144 0.136146 3.38426 0
M  V30 7873 C 713.19 1.12201 4.11477 0
M  V30 7874 S 714.023 2.65711 4.64928 0
M  V30 7875 C 715.179 2.04125 5.91679 0
M  V30 7876 H 715.412 1.66444 2.46341 0
M  V30 7877 H 712.945 0.960263 1.20906 0
M  V30 7878 H 714.903 -0.220712 4.09906 0
M  V30 7879 H 713.564 -0.739887 3.05261 0
M  V30 7880 H 712.757 0.629398 5.00055 0
M  V30 7881 H 712.359 1.42262 3.45886 0
M  V30 7882 H 714.651 1.39381 6.63008 0
M  V30 7883 H 715.594 2.90808 6.45629 0
M  V30 7884 H 716.002 1.4905 5.44467 0
M  V30 7885 N 715.4 -1.26948 0.933913 0
M  V30 7886 C 716.347 -2.26635 0.436484 0
M  V30 7887 C 717.317 -1.58397 -0.499953 0
M  V30 7888 O 718.502 -1.86171 -0.417753 0
M  V30 7889 C 715.642 -3.43803 -0.298951 0
M  V30 7890 C 714.755 -4.26736 0.672316 0
M  V30 7891 C 713.89 -5.31134 -0.0835872 0
M  V30 7892 C 712.929 -6.05742 0.879979 0
M  V30 7893 N 712.066 -7.01926 0.156301 0
M  V30 7894 H 716.906 -2.68558 1.29154 0
M  V30 7895 H 714.443 -1.32052 0.648118 0
M  V30 7896 H 716.401 -4.10554 -0.741723 0
M  V30 7897 H 715.031 -3.02814 -1.1182 0
M  V30 7898 H 714.083 -3.59842 1.23361 0
M  V30 7899 H 715.395 -4.78502 1.40846 0
M  V30 7900 H 714.549 -6.03863 -0.585984 0
M  V30 7901 H 713.288 -4.80188 -0.852661 0
M  V30 7902 H 712.293 -5.31846 1.39357 0
M  V30 7903 H 713.518 -6.58777 1.64894 0
M  V30 7904 H 711.464 -6.53301 -0.594413 0
M  V30 7905 H 711.381 -7.51409 0.831906 0
M  V30 7906 H 712.649 -7.78821 -0.325239 0
M  V30 7907 N 716.879 -0.700114 -1.41195 0
M  V30 7908 C 717.789 -0.0382854 -2.34569 0
M  V30 7909 C 718.805 0.761036 -1.56474 0
M  V30 7910 O 719.981 0.697553 -1.88934 0
M  V30 7911 C 717.046 0.883522 -3.35253 0
M  V30 7912 C 716.107 0.0758957 -4.29233 0
M  V30 7913 C 715.34 0.9538 -5.25108 0
M  V30 7914 O 715.563 2.19326 -5.26547 0
M  V30 7915 O 714.497 0.401049 -6.00562 0
M  V30 7916 H 718.323 -0.808073 -2.92752 0
M  V30 7917 H 715.908 -0.460479 -1.42127 0
M  V30 7918 H 717.79 1.41199 -3.9704 0
M  V30 7919 H 716.465 1.63272 -2.79506 0
M  V30 7920 H 715.372 -0.497274 -3.7078 0
M  V30 7921 H 716.705 -0.634741 -4.8809 0
M  V30 7922 N 718.357 1.51182 -0.445186 0
M  V30 7923 C 719.305 2.29531 0.376597 0
M  V30 7924 C 720.299 1.35711 1.01385 0
M  V30 7925 O 721.505 1.53018 0.947922 0
M  V30 7926 H 717.88 0.738803 0.140267 0
M  V30 7927 H 719.851 2.96838 -0.304958 0
M  V30 7928 C 718.6 3.1552 1.4609 0
M  V30 7929 H 717.923 3.87605 0.979912 0
M  V30 7930 H 719.363 3.73384 2.009 0
M  V30 7931 C 717.822 2.31406 2.44852 0
M  V30 7932 O 718.352 1.97912 3.49562 0
M  V30 7933 N 716.558 1.94478 2.15932 0
M  V30 7934 H 716.105 2.21917 1.30808 0
M  V30 7935 H 716.063 1.38498 2.82251 0
M  V30 7936 N 719.835 0.176821 1.56605 0
M  V30 7937 C 720.767 -0.782836 2.15417 0
M  V30 7938 C 721.78 -1.18982 1.11117 0
M  V30 7939 O 722.969 -1.12872 1.38283 0
M  V30 7940 C 720.069 -2.06596 2.68647 0
M  V30 7941 C 719.242 -1.82167 3.9766 0
M  V30 7942 C 718.301 -2.94751 4.35899 0
M  V30 7943 O 717.327 -2.65148 5.03672 0
M  V30 7944 N 718.529 -4.2267 3.97907 0
M  V30 7945 H 721.294 -0.280012 2.98389 0
M  V30 7946 H 718.855 -0.00577529 1.61899 0
M  V30 7947 H 720.847 -2.81018 2.91223 0
M  V30 7948 H 719.417 -2.48054 1.90232 0
M  V30 7949 H 718.637 -0.916208 3.83405 0
M  V30 7950 H 719.925 -1.6322 4.81909 0
M  V30 7951 H 719.323 -4.4958 3.43357 0
M  V30 7952 H 717.88 -4.93778 4.25472 0
M  V30 7953 N 721.313 -1.57302 -0.09688 0
M  V30 7954 C 722.26 -2.01933 -1.11766 0
M  V30 7955 C 723.23 -0.895329 -1.39904 0
M  V30 7956 O 724.415 -1.16119 -1.51397 0
M  V30 7957 C 721.555 -2.44726 -2.43317 0
M  V30 7958 C 720.668 -3.70639 -2.21925 0
M  V30 7959 C 719.803 -4.02318 -3.46862 0
M  V30 7960 C 718.842 -5.21346 -3.20725 0
M  V30 7961 N 717.979 -5.48787 -4.37924 0
M  V30 7962 H 722.819 -2.88919 -0.730075 0
M  V30 7963 H 720.356 -1.42901 -0.348962 0
M  V30 7964 H 722.314 -2.6758 -3.20088 0
M  V30 7965 H 720.944 -1.60753 -2.79926 0
M  V30 7966 H 719.996 -3.55271 -1.35965 0
M  V30 7967 H 721.308 -4.57557 -1.98603 0
M  V30 7968 H 720.462 -4.25939 -4.32042 0
M  V30 7969 H 719.201 -3.13918 -3.73238 0
M  V30 7970 H 718.206 -4.97547 -2.33938 0
M  V30 7971 H 719.431 -6.11343 -2.95697 0
M  V30 7972 H 717.377 -4.63346 -4.64378 0
M  V30 7973 H 717.294 -6.30073 -4.17785 0
M  V30 7974 H 718.562 -5.76943 -5.24173 0
M  V30 7975 N 722.791 0.367657 -1.53252 0
M  V30 7976 C 723.741 1.45035 -1.75923 0
M  V30 7977 C 724.725 1.48736 -0.613719 0
M  V30 7978 O 725.917 1.54012 -0.872313 0
M  V30 7979 C 723.046 2.82493 -1.9507 0
M  V30 7980 C 722.132 2.83279 -3.15617 0
M  V30 7981 N 722.523 2.53712 -4.37566 0
M  V30 7982 C 720.821 3.1444 -3.16297 0
M  V30 7983 C 721.522 2.62123 -5.19294 0
M  V30 7984 N 720.498 2.96747 -4.55458 0
M  V30 7985 H 724.3 1.21035 -2.6782 0
M  V30 7986 H 721.814 0.575822 -1.51849 0
M  V30 7987 H 723.811 3.60473 -2.0944 0
M  V30 7988 H 722.471 3.07459 -1.044 0
M  V30 7989 H 723.482 2.27344 -4.65333 0
M  V30 7990 H 720.159 3.44733 -2.35511 0
M  V30 7991 H 721.549 2.42628 -6.26563 0
M  V30 7992 N 724.269 1.44576 0.627338 0
M  V30 7993 C 725.518 1.46837 1.38281 0
M  V30 7994 C 725.831 0.10635 1.95311 0
M  V30 7995 O 727.037 0.00651084 2.71499 0
M  V30 7996 C 725.493 2.58527 2.50384 0
M  V30 7997 C 725.101 4.00953 1.99851 0
M  V30 7998 C 726.845 2.70013 3.27557 0
M  V30 7999 C 724.752 5.0406 3.09318 0
M  V30 8000 H 723.682 0.546319 0.519664 0
M  V30 8001 H 726.333 1.70654 0.674497 0
M  V30 8002 H 724.715 2.27957 3.23808 0
M  V30 8003 H 725.889 4.41108 1.33267 0
M  V30 8004 H 724.204 3.93743 1.35482 0
M  V30 8005 H 726.801 3.44217 4.09168 0
M  V30 8006 H 727.144 1.75961 3.77284 0
M  V30 8007 H 727.677 3.00011 2.61224 0
M  V30 8008 H 724.416 5.99753 2.6453 0
M  V30 8009 H 723.936 4.68493 3.74532 0
M  V30 8010 H 725.615 5.2793 3.74031 0
M  V30 8011 N 725.747 -0.868086 1.31537 0
M  V30 8012 C 726.977 -1.65162 1.24118 0
M  V30 8013 C 727.385 -1.88187 -0.195558 0
M  V30 8014 O 726.728 -1.44154 -1.13866 0
M  V30 8015 C 726.79 -3.04119 1.91708 0
M  V30 8016 C 726.454 -3.04194 3.4105 0
M  V30 8017 C 727.451 -2.82016 4.36764 0
M  V30 8018 C 725.136 -3.25256 3.82772 0
M  V30 8019 C 727.13 -2.80881 5.72175 0
M  V30 8020 C 724.817 -3.23749 5.18295 0
M  V30 8021 C 725.815 -3.01589 6.12808 0
M  V30 8022 O 725.503 -2.9993 7.45853 0
M  V30 8023 H 725.235 -0.521597 0.430015 0
M  V30 8024 H 727.789 -1.09165 1.73989 0
M  V30 8025 H 726.019 -3.61849 1.36389 0
M  V30 8026 H 727.708 -3.64701 1.78179 0
M  V30 8027 H 728.474 -2.65525 4.05859 0
M  V30 8028 H 724.353 -3.41534 3.09638 0
M  V30 8029 H 727.897 -2.63503 6.45919 0
M  V30 8030 H 723.794 -3.39781 5.48834 0
M  V30 8031 H 724.562 -3.15979 7.55049 0
M  V30 8032 N 727.225 -1.14528 -1.08264 0
M  V30 8033 C 728.455 -0.936604 -1.8415 0
M  V30 8034 C 728.863 0.518298 -1.81962 0
M  V30 8035 O 728.206 1.37096 -1.22272 0
M  V30 8036 C 728.268 -1.36182 -3.32708 0
M  V30 8037 C 727.932 -2.83257 -3.58629 0
M  V30 8038 C 728.929 -3.81366 -3.5335 0
M  V30 8039 C 726.614 -3.20704 -3.86593 0
M  V30 8040 C 728.608 -5.14929 -3.75668 0
M  V30 8041 C 726.295 -4.54443 -4.08564 0
M  V30 8042 C 727.293 -5.51365 -4.03095 0
M  V30 8043 O 726.981 -6.8269 -4.24488 0
M  V30 8044 H 726.713 -0.333254 -0.588148 0
M  V30 8045 H 729.267 -1.5247 -1.3763 0
M  V30 8046 H 727.497 -0.717063 -3.79994 0
M  V30 8047 H 729.186 -1.12372 -3.90035 0
M  V30 8048 H 729.952 -3.53781 -3.31759 0
M  V30 8049 H 725.831 -2.45857 -3.89969 0
M  V30 8050 H 729.375 -5.90568 -3.71315 0
M  V30 8051 H 725.272 -4.81747 -4.29639 0
M  V30 8052 H 726.04 -6.8897 -4.41886 0
M  V30 8053 N 728.703 1.26451 -0.940633 0
M  V30 8054 C 729.952 1.93071 -0.583656 0
M  V30 8055 C 730.265 1.74618 0.881366 0
M  V30 8056 O 731.471 2.35689 1.34769 0
M  V30 8057 C 729.927 3.45927 -0.993106 0
M  V30 8058 C 729.535 3.73115 -2.4797 0
M  V30 8059 C 731.279 4.18554 -0.707998 0
M  V30 8060 C 729.186 5.19408 -2.82788 0
M  V30 8061 H 728.116 0.722824 -0.214572 0
M  V30 8062 H 730.767 1.43538 -1.1432 0
M  V30 8063 H 729.149 3.94341 -0.362099 0
M  V30 8064 H 730.323 3.35408 -3.15971 0
M  V30 8065 H 728.638 3.13719 -2.73805 0
M  V30 8066 H 731.235 5.26293 -0.94447 0
M  V30 8067 H 731.578 4.14782 0.355225 0
M  V30 8068 H 732.111 3.76003 -1.2987 0
M  V30 8069 H 728.85 5.28281 -3.88071 0
M  V30 8070 H 728.37 5.58214 -2.19449 0
M  V30 8071 H 730.049 5.87407 -2.71224 0
M  V30 8072 N 730.181 0.707592 1.40822 0
M  V30 8073 C 731.409 0.253073 2.05346 0
M  V30 8074 C 731.824 -1.10218 1.53289 0
M  V30 8075 O 731.181 -1.69112 0.686105 0
M  V30 8076 C 731.232 0.215411 3.60858 0
M  V30 8077 O 730.953 1.51714 4.10992 0
M  V30 8078 C 732.454 -0.258636 4.42545 0
M  V30 8079 H 729.674 0.115256 0.661027 0
M  V30 8080 H 732.218 0.963555 1.80377 0
M  V30 8081 H 730.373 -0.445978 3.84824 0
M  V30 8082 H 730.787 1.41226 5.05129 0
M  V30 8083 H 732.261 -0.233849 5.51504 0
M  V30 8084 H 732.738 -1.2995 4.19535 0
M  V30 8085 H 733.344 0.372186 4.23668 0
M  V30 8086 N 731.66 -1.50943 0.453197 0
M  V30 8087 C 732.908 -2.01813 -0.107709 0
M  V30 8088 C 733.229 -1.33841 -1.41816 0
M  V30 8089 O 732.499 -0.477973 -1.8998 0
M  V30 8090 H 731.079 -0.745773 -0.0427948 0
M  V30 8091 H 733.741 -1.8545 0.599531 0
M  V30 8092 H 732.837 -3.10911 -0.27218 0
M  V30 8093 N 733.138 -0.185124 -1.56509 0
M  V30 8094 C 734.048 0.751908 -2.22224 0
M  V30 8095 C 735.064 1.24244 -1.21817 0
M  V30 8096 O 736.24 1.29169 -1.54523 0
M  V30 8097 C 733.305 1.95837 -2.86092 0
M  V30 8098 C 732.366 1.51337 -4.01741 0
M  V30 8099 C 731.599 2.66233 -4.62554 0
M  V30 8100 O 731.822 3.8346 -4.22273 0
M  V30 8101 O 730.756 2.39517 -5.52191 0
M  V30 8102 H 734.582 0.222304 -3.02885 0
M  V30 8103 H 732.167 0.0437141 -1.49336 0
M  V30 8104 H 734.049 2.66368 -3.26536 0
M  V30 8105 H 732.724 2.47677 -2.08417 0
M  V30 8106 H 731.631 0.777155 -3.65939 0
M  V30 8107 H 732.964 1.04175 -4.81049 0
M  V30 8108 N 734.616 1.57351 0.0885366 0
M  V30 8109 C 735.844 1.90631 0.804196 0
M  V30 8110 C 736.259 0.779474 1.71958 0
M  V30 8111 O 735.616 -0.248179 1.80805 0
M  V30 8112 C 735.667 3.23568 1.61202 0
M  V30 8113 O 735.388 4.31917 0.733447 0
M  V30 8114 C 736.889 3.70753 2.43016 0
M  V30 8115 H 734.109 0.630501 0.229585 0
M  V30 8116 H 736.653 2.044 0.0638092 0
M  V30 8117 H 734.808 3.11377 2.30485 0
M  V30 8118 H 735.222 5.08297 1.29361 0
M  V30 8119 H 736.696 4.66447 2.9518 0
M  V30 8120 H 737.173 2.98922 3.2178 0
M  V30 8121 H 737.779 3.85834 1.7892 0
M  V30 8122 N 736.094 -0.359525 1.53444 0
M  V30 8123 C 737.041 -1.44073 1.8031 0
M  V30 8124 C 738.011 -1.52946 0.647811 0
M  V30 8125 O 739.196 -1.68739 0.890614 0
M  V30 8126 C 736.336 -2.80941 2.00416 0
M  V30 8127 C 735.449 -2.80986 3.28132 0
M  V30 8128 C 734.584 -4.09468 3.38393 0
M  V30 8129 C 733.623 -4.03679 4.60119 0
M  V30 8130 N 732.76 -5.23821 4.675 0
M  V30 8131 H 737.6 -1.20464 2.72566 0
M  V30 8132 H 735.137 -0.583859 1.35017 0
M  V30 8133 H 737.095 -3.60459 2.1006 0
M  V30 8134 H 735.725 -3.02936 1.11489 0
M  V30 8135 H 734.777 -1.93666 3.27411 0
M  V30 8136 H 736.089 -2.72583 4.17732 0
M  V30 8137 H 735.243 -4.97404 3.47382 0
M  V30 8138 H 733.982 -4.20632 2.4682 0
M  V30 8139 H 732.987 -3.14129 4.51224 0
M  V30 8140 H 734.212 -3.94112 5.5304 0
M  V30 8141 H 732.158 -5.35559 3.7883 0
M  V30 8142 H 732.075 -5.17611 5.51013 0
M  V30 8143 H 733.343 -6.13572 4.8078 0
M  V30 8144 N 737.572 -1.44907 -0.619662 0
M  V30 8145 C 738.849 -1.38766 -1.37852 0
M  V30 8146 C 739.229 -0.0521393 -2.11036 0
M  V30 8147 O 738.577 0.965613 -2.07095 0
M  V30 8148 C 738.787 -2.59344 -2.33541 0
M  V30 8149 C 740.135 -3.03909 -2.96521 0
M  V30 8150 O 741.159 -2.59631 -2.43865 0
M  V30 8151 O 740.018 -3.80713 -3.92071 0
M  V30 8152 H 737.112 -0.550083 -0.617525 0
M  V30 8153 H 739.658 -1.57015 -0.643759 0
M  V30 8154 H 738.43 -3.48142 -1.78642 0
M  V30 8155 H 738.053 -2.43367 -3.14417 0
M  V30 8156 N 739.05 0.861098 -1.31996 0
M  V30 8157 C 739.982 1.97551 -1.16216 0
M  V30 8158 C 740.995 1.625 -0.0988527 0
M  V30 8159 O 742.184 1.75091 -0.3472 0
M  V30 8160 C 739.284 3.30376 -0.755307 0
M  V30 8161 C 738.457 3.93711 -1.90552 0
M  V30 8162 C 737.516 5.04862 -1.48328 0
M  V30 8163 O 736.542 5.25204 -2.19431 0
M  V30 8164 N 737.744 5.79283 -0.375656 0
M  V30 8165 H 740.509 2.11632 -2.12208 0
M  V30 8166 H 738.07 1.03559 -1.24448 0
M  V30 8167 H 740.062 4.0213 -0.455364 0
M  V30 8168 H 738.632 3.12395 0.113269 0
M  V30 8169 H 737.852 3.14825 -2.37231 0
M  V30 8170 H 739.14 4.32762 -2.67571 0
M  V30 8171 H 738.538 5.65286 0.216284 0
M  V30 8172 H 737.095 6.5166 -0.135289 0
M  V30 8173 N 740.528 1.15101 1.07655 0
M  V30 8174 C 741.774 0.925343 1.80458 0
M  V30 8175 C 742.107 -0.546354 1.86356 0
M  V30 8176 O 741.382 -1.40496 1.34503 0
M  V30 8177 C 741.665 1.53646 3.25676 0
M  V30 8178 C 741.518 3.07854 3.27942 0
M  V30 8179 C 742.837 1.21968 4.22861 0
M  V30 8180 H 739.956 0.337592 0.655134 0
M  V30 8181 H 742.598 1.42217 1.25993 0
M  V30 8182 H 740.748 1.11395 3.72187 0
M  V30 8183 H 742.42 3.58989 2.89697 0
M  V30 8184 H 740.663 3.41904 2.66991 0
M  V30 8185 H 741.334 3.45725 4.30324 0
M  V30 8186 H 743.81 1.5851 3.84726 0
M  V30 8187 H 742.686 1.67349 5.22767 0
M  V30 8188 H 742.947 0.136207 4.4189 0
M  V30 8189 N 742.006 -1.2595 0.947325 0
M  V30 8190 C 742.969 -2.24407 0.466285 0
M  V30 8191 C 743.969 -1.55054 -0.426005 0
M  V30 8192 O 745.159 -1.7275 -0.224319 0
M  V30 8193 C 742.291 -3.39326 -0.327201 0
M  V30 8194 H 743.484 -2.68477 1.33642 0
M  V30 8195 H 741.037 -1.38211 0.729887 0
M  V30 8196 H 741.772 -3.00667 -1.21532 0
M  V30 8197 H 741.557 -3.9085 0.312839 0
M  V30 8198 H 743.047 -4.12455 -0.653477 0
M  V30 8199 N 743.484 -0.715051 -1.40445 0
M  V30 8200 C 744.432 -0.0509974 -2.32544 0
M  V30 8201 C 745.426 0.747602 -1.52011 0
M  V30 8202 O 746.632 0.651031 -1.67814 0
M  V30 8203 H 743.007 0.00231113 -0.751996 0
M  V30 8204 H 744.978 -0.84449 -2.86201 0
M  V30 8205 C 743.727 0.857101 -3.3697 0
M  V30 8206 H 743.05 0.252 -3.99005 0
M  V30 8207 H 744.49 1.28971 -4.03909 0
M  V30 8208 C 742.949 1.98231 -2.72408 0
M  V30 8209 O 743.479 3.07309 -2.58697 0
M  V30 8210 N 741.685 1.76577 -2.308 0
M  V30 8211 H 741.232 0.878641 -2.42152 0
M  V30 8212 H 741.19 2.52043 -1.87941 0
M  V30 8213 N 744.962 1.50701 -0.461195 0
M  V30 8214 C 746.187 2.07171 0.0974773 0
M  V30 8215 C 746.612 1.32391 1.3362 0
M  V30 8216 O 745.97 0.368676 1.77512 0
M  V30 8217 C 746.018 3.58651 0.374409 0
M  V30 8218 O 745.122 3.85816 1.4567 0
M  V30 8219 H 744.463 0.663944 -0.00862047 0
M  V30 8220 H 746.993 1.94021 -0.649394 0
M  V30 8221 H 747.003 4.03295 0.617843 0
M  V30 8222 H 745.678 4.12498 -0.530829 0
M  V30 8223 H 744.255 3.53018 1.20136 0
M  V30 8224 N 746.441 0.193421 1.56409 0
M  V30 8225 C 747.404 -0.714371 2.17783 0
M  V30 8226 C 748.404 -1.1422 1.13183 0
M  V30 8227 O 749.594 -1.05557 1.38576 0
M  V30 8228 C 746.726 -1.97509 2.77855 0
M  V30 8229 H 747.919 -0.179714 2.99361 0
M  V30 8230 H 745.472 -0.0561944 1.56199 0
M  V30 8231 H 746.207 -2.5523 2.0007 0
M  V30 8232 H 745.992 -1.67706 3.54425 0
M  V30 8233 H 747.482 -2.62246 3.24987 0
M  V30 8234 N 747.919 -1.57396 -0.0801906 0
M  V30 8235 C 749.166 -1.86836 -0.780927 0
M  V30 8236 C 749.494 -0.784012 -1.77999 0
M  V30 8237 O 748.749 0.220881 -1.94449 0
M  V30 8238 C 749.048 -3.22915 -1.53169 0
M  V30 8239 C 748.714 -4.45843 -0.67339 0
M  V30 8240 C 747.376 -4.79213 -0.436829 0
M  V30 8241 C 749.728 -5.21142 -0.0776786 0
M  V30 8242 C 747.056 -5.853 0.405062 0
M  V30 8243 C 749.408 -6.28119 0.751619 0
M  V30 8244 C 748.072 -6.59995 0.998131 0
M  V30 8245 H 747.342 -0.683682 -0.285761 0
M  V30 8246 H 749.989 -1.91454 -0.0419435 0
M  V30 8247 H 748.294 -3.14049 -2.34265 0
M  V30 8248 H 749.991 -3.42926 -2.07853 0
M  V30 8249 H 746.581 -4.19721 -0.867891 0
M  V30 8250 H 750.765 -4.95682 -0.247572 0
M  V30 8251 H 746.021 -6.084 0.60488 0
M  V30 8252 H 750.195 -6.8563 1.22 0
M  V30 8253 H 747.822 -7.42027 1.65227 0
M  V30 8254 N 749.397 0.351382 -1.53633 0
M  V30 8255 C 750.643 1.09411 -1.70754 0
M  V30 8256 C 750.976 1.88544 -0.465293 0
M  V30 8257 O 750.251 1.86923 0.537608 0
M  V30 8258 C 750.534 2.04173 -2.96623 0
M  V30 8259 C 750.387 1.28556 -4.31038 0
M  V30 8260 C 751.706 3.04102 -3.18136 0
M  V30 8261 H 748.825 0.396373 -0.621335 0
M  V30 8262 H 751.467 0.373464 -1.86293 0
M  V30 8263 H 749.617 2.65625 -2.83506 0
M  V30 8264 H 751.289 0.697786 -4.55992 0
M  V30 8265 H 749.532 0.587498 -4.29803 0
M  V30 8266 H 750.203 1.97989 -5.15271 0
M  V30 8267 H 752.679 2.5276 -3.30532 0
M  V30 8268 H 751.555 3.67616 -4.07615 0
M  V30 8269 H 751.816 3.75053 -2.34068 0
M  V30 8270 N 750.875 1.45233 0.611969 0
M  V30 8271 C 751.785 1.56098 1.7513 0
M  V30 8272 C 752.801 0.445646 1.68196 0
M  V30 8273 O 753.977 0.705718 1.88631 0
M  V30 8274 C 751.042 1.52052 3.11579 0
M  V30 8275 C 750.103 2.74589 3.29999 0
M  V30 8276 C 749.336 2.70726 4.59938 0
M  V30 8277 O 749.559 1.77806 5.41979 0
M  V30 8278 O 748.493 3.61864 4.80976 0
M  V30 8279 H 752.319 2.52392 1.68914 0
M  V30 8280 H 749.904 1.27695 0.775528 0
M  V30 8281 H 751.786 1.52387 3.92882 0
M  V30 8282 H 750.461 0.589085 3.18295 0
M  V30 8283 H 749.368 2.79817 2.48301 0
M  V30 8284 H 750.701 3.66843 3.28157 0
M  V30 8285 N 752.353 -0.854086 1.3245 0
M  V30 8286 C 753.769 -1.14238 1.11453 0
M  V30 8287 C 753.969 -2.01228 -0.10461 0
M  V30 8288 O 753.025 -2.39845 -0.789339 0
M  V30 8289 C 754.338 -1.81916 2.39431 0
M  V30 8290 C 755.886 -1.94549 2.45193 0
M  V30 8291 C 756.361 -2.65642 3.73093 0
M  V30 8292 N 757.852 -2.73167 3.74078 0
M  V30 8293 C 758.587 -3.28828 4.69744 0
M  V30 8294 N 758.083 -3.85295 5.75778 0
M  V30 8295 N 759.876 -3.26936 4.57241 0
M  V30 8296 H 752.027 -0.274786 2.10615 0
M  V30 8297 H 754.29 -0.184375 0.929898 0
M  V30 8298 H 753.996 -1.25452 3.28565 0
M  V30 8299 H 753.87 -2.82068 2.50434 0
M  V30 8300 H 756.257 -2.50172 1.56518 0
M  V30 8301 H 756.338 -0.933914 2.38142 0
M  V30 8302 H 755.982 -2.10683 4.62142 0
M  V30 8303 H 755.912 -3.6724 3.77415 0
M  V30 8304 H 758.403 -2.33108 2.97438 0
M  V30 8305 H 758.716 -4.25925 6.44832 0
M  V30 8306 H 757.061 -3.83625 5.79531 0
M  V30 8307 H 760.252 -2.8207 3.7357 0
M  V30 8308 H 760.425 -3.70014 5.31971 0
M  V30 8309 N 753.831 -1.1567 -1.07043 0
M  V30 8310 C 754.761 -0.879348 -2.16309 0
M  V30 8311 C 755.742 0.171311 -1.69235 0
M  V30 8312 O 756.927 0.0250175 -1.94184 0
M  V30 8313 C 754.057 -0.371307 -3.45309 0
M  V30 8314 C 753.011 -1.359 -4.05851 0
M  V30 8315 C 752.337 -0.709678 -5.29969 0
M  V30 8316 C 753.637 -2.72606 -4.45514 0
M  V30 8317 H 755.331 -1.79308 -2.39768 0
M  V30 8318 H 752.877 -0.863558 -1.15233 0
M  V30 8319 H 754.83 -0.164798 -4.21078 0
M  V30 8320 H 753.554 0.577906 -3.21446 0
M  V30 8321 H 752.213 -1.55193 -3.32131 0
M  V30 8322 H 751.861 0.245782 -5.02399 0
M  V30 8323 H 751.561 -1.36886 -5.71433 0
M  V30 8324 H 753.085 -0.513015 -6.08441 0
M  V30 8325 H 754.499 -2.57141 -5.12398 0
M  V30 8326 H 752.896 -3.34927 -4.97939 0
M  V30 8327 H 753.966 -3.28434 -3.56734 0
M  V30 8328 N 755.309 1.25446 -0.953992 0
M  V30 8329 C 756.725 1.4539 -0.658316 0
M  V30 8330 C 756.925 1.85607 0.784356 0
M  V30 8331 O 755.981 1.98568 1.55972 0
M  V30 8332 C 757.294 2.52643 -1.6307 0
M  V30 8333 C 758.842 2.66484 -1.64181 0
M  V30 8334 C 759.317 3.76921 -2.60182 0
M  V30 8335 N 760.808 3.84331 -2.58542 0
M  V30 8336 C 761.543 4.69271 -3.29503 0
M  V30 8337 N 761.039 5.58503 -4.09934 0
M  V30 8338 N 762.832 4.6323 -3.18393 0
M  V30 8339 H 754.983 0.976337 -1.8863 0
M  V30 8340 H 757.246 0.490343 -0.811337 0
M  V30 8341 H 756.952 2.29949 -2.66114 0
M  V30 8342 H 756.826 3.50547 -1.39271 0
M  V30 8343 H 759.213 2.88545 -0.618552 0
M  V30 8344 H 759.294 1.68982 -1.92038 0
M  V30 8345 H 758.938 3.55612 -3.62633 0
M  V30 8346 H 758.868 4.73906 -2.29609 0
M  V30 8347 H 761.359 3.20544 -2.0015 0
M  V30 8348 H 761.672 6.20241 -4.61 0
M  V30 8349 H 760.017 5.58214 -4.14032 0
M  V30 8350 H 763.208 3.92527 -2.5503 0
M  V30 8351 H 763.381 5.29204 -3.73961 0
M  V30 8352 N 756.787 0.722489 1.40064 0
M  V30 8353 C 757.734 0.0743738 2.3068 0
M  V30 8354 C 758.704 -0.743004 1.48555 0
M  V30 8355 O 759.889 -0.705536 1.77276 0
M  V30 8356 C 757.029 -0.836292 3.34814 0
M  V30 8357 C 756.142 -0.00764663 4.31999 0
M  V30 8358 C 755.277 -0.918428 5.232 0
M  V30 8359 C 754.316 -0.0842838 6.12042 0
M  V30 8360 N 753.453 -0.950316 6.95639 0
M  V30 8361 H 758.293 0.852794 2.85537 0
M  V30 8362 H 755.83 0.432222 1.40607 0
M  V30 8363 H 757.788 -1.3786 3.93765 0
M  V30 8364 H 756.418 -1.58082 2.81443 0
M  V30 8365 H 755.47 0.651928 3.74772 0
M  V30 8366 H 756.782 0.63786 4.94705 0
M  V30 8367 H 755.936 -1.52902 5.87116 0
M  V30 8368 H 754.675 -1.59774 4.60786 0
M  V30 8369 H 753.68 0.5392 5.4715 0
M  V30 8370 H 754.905 0.591628 6.76518 0
M  V30 8371 H 752.851 -1.61515 6.35806 0
M  V30 8372 H 752.768 -0.361004 7.55138 0
M  V30 8373 H 754.036 -1.54687 7.63997 0
M  V30 8374 N 758.265 -1.50454 0.469181 0
M  V30 8375 C 759.215 -2.25381 -0.344582 0
M  V30 8376 C 760.199 -1.28892 -0.963098 0
M  V30 8377 O 761.391 -1.53805 -0.875964 0
M  V30 8378 C 758.52 -3.12232 -1.4271 0
M  V30 8379 C 757.606 -4.16168 -0.816411 0
M  V30 8380 N 757.997 -5.05762 0.0621424 0
M  V30 8381 C 756.295 -4.32712 -1.08056 0
M  V30 8382 C 756.996 -5.80264 0.408519 0
M  V30 8383 N 755.972 -5.43171 -0.215827 0
M  V30 8384 H 759.774 -2.92016 0.332237 0
M  V30 8385 H 757.288 -1.59911 0.283209 0
M  V30 8386 H 759.285 -3.64514 -2.02324 0
M  V30 8387 H 757.945 -2.47145 -2.10593 0
M  V30 8388 H 758.956 -5.16105 0.430841 0
M  V30 8389 H 755.633 -3.78844 -1.75452 0
M  V30 8390 H 757.023 -6.62408 1.12539 0
M  V30 8391 N 759.743 -0.201713 -1.56304 0
M  V30 8392 C 760.991 0.434447 -1.97375 0
M  V30 8393 C 761.312 1.61692 -1.08998 0
M  V30 8394 O 760.582 1.95223 -0.162682 0
M  V30 8395 H 759.162 0.163497 -0.728888 0
M  V30 8396 H 761.824 -0.289988 -1.92731 0
M  V30 8397 H 760.92 0.774136 -3.02347 0
M  V30 8398 N 761.222 1.57436 0.0718424 0
M  V30 8399 C 762.152 2.06724 1.08571 0
M  V30 8400 C 763.133 0.960731 1.40371 0
M  V30 8401 O 764.318 1.23345 1.49999 0
M  V30 8402 C 761.448 2.51112 2.39916 0
M  V30 8403 C 760.402 3.65639 2.22469 0
M  V30 8404 C 759.728 3.96082 3.59198 0
M  V30 8405 C 761.028 4.95687 1.64596 0
M  V30 8406 H 762.722 2.91679 0.675569 0
M  V30 8407 H 760.268 1.40319 0.32352 0
M  V30 8408 H 762.221 2.84206 3.11135 0
M  V30 8409 H 760.945 1.63186 2.8291 0
M  V30 8410 H 759.604 3.32828 1.53691 0
M  V30 8411 H 759.252 3.05287 3.99761 0
M  V30 8412 H 758.952 4.73199 3.48362 0
M  V30 8413 H 760.476 4.31672 4.31847 0
M  V30 8414 H 761.89 5.27011 2.25681 0
M  V30 8415 H 760.287 5.77126 1.64457 0
M  V30 8416 H 761.357 4.8108 0.60744 0
M  V30 8417 N 762.7 -0.34323 1.53817 0
M  V30 8418 C 763.61 -1.44493 1.84821 0
M  V30 8419 C 764.626 -1.57556 0.738381 0
M  V30 8420 O 765.802 -1.73026 1.03072 0
M  V30 8421 C 762.867 -2.79478 2.05166 0
M  V30 8422 C 761.928 -2.75756 3.29025 0
M  V30 8423 C 761.161 -4.04302 3.4839 0
M  V30 8424 O 761.384 -5.01595 2.71586 0
M  V30 8425 O 760.318 -4.08754 4.41819 0
M  V30 8426 H 764.144 -1.21209 2.78464 0
M  V30 8427 H 761.729 -0.535437 1.39476 0
M  V30 8428 H 763.611 -3.59419 2.19991 0
M  V30 8429 H 762.286 -3.02692 1.14713 0
M  V30 8430 H 761.193 -1.94434 3.19603 0
M  V30 8431 H 762.526 -2.57495 4.19472 0
M  V30 8432 N 764.178 -1.45556 -0.604258 0
M  V30 8433 C 765.424 -1.49968 -1.36519 0
M  V30 8434 C 765.757 -0.142236 -1.93678 0
M  V30 8435 O 765.032 0.843717 -1.75247 0
M  V30 8436 C 765.315 -2.58146 -2.51063 0
M  V30 8437 C 765.168 -4.03346 -1.99078 0
M  V30 8438 C 766.487 -2.62581 -3.53184 0
M  V30 8439 H 763.606 -0.545993 -0.495036 0
M  V30 8440 H 766.248 -1.77382 -0.680845 0
M  V30 8441 H 764.398 -2.34901 -3.09441 0
M  V30 8442 H 766.07 -4.37811 -1.45323 0
M  V30 8443 H 764.313 -4.13845 -1.30055 0
M  V30 8444 H 764.984 -4.74731 -2.81664 0
M  V30 8445 H 767.46 -2.83419 -3.04652 0
M  V30 8446 H 766.336 -3.40131 -4.30816 0
M  V30 8447 H 766.597 -1.67798 -4.09019 0
M  V30 8448 N 765.656 0.84705 -1.32902 0
M  V30 8449 C 766.905 1.59667 -1.23245 0
M  V30 8450 C 767.218 1.94551 0.202349 0
M  V30 8451 O 768.424 2.68218 0.420847 0
M  V30 8452 C 766.88 2.8795 -2.15901 0
M  V30 8453 C 766.488 2.60461 -3.64505 0
M  V30 8454 C 768.232 3.65968 -2.15098 0
M  V30 8455 C 766.139 3.84791 -4.49099 0
M  V30 8456 H 765.069 0.599167 -0.457728 0
M  V30 8457 H 767.72 0.934662 -1.57912 0
M  V30 8458 H 766.102 3.55648 -1.74157 0
M  V30 8459 H 767.276 2.01026 -4.14639 0
M  V30 8460 H 765.591 1.9576 -3.67515 0
M  V30 8461 H 768.188 4.58241 -2.75534 0
M  V30 8462 H 768.531 4.00275 -1.14392 0
M  V30 8463 H 769.064 3.05184 -2.55162 0
M  V30 8464 H 765.803 3.55621 -5.50649 0
M  V30 8465 H 765.323 4.43594 -4.03713 0
M  V30 8466 H 767.002 4.52454 -4.62487 0
M  V30 8467 N 767.134 1.16236 1.06428 0
M  V30 8468 C 768.364 0.965782 1.82637 0
M  V30 8469 C 768.772 -0.489284 1.82764 0
M  V30 8470 O 768.115 -1.35133 1.24438 0
M  V30 8471 C 768.177 1.41458 3.30499 0
M  V30 8472 C 767.841 2.88926 3.54077 0
M  V30 8473 C 768.838 3.86939 3.47238 0
M  V30 8474 C 766.523 3.26814 3.81442 0
M  V30 8475 C 768.517 5.20841 3.67428 0
M  V30 8476 C 766.204 4.60886 4.01282 0
M  V30 8477 C 767.202 5.57708 3.94272 0
M  V30 8478 O 766.89 6.89357 4.13573 0
M  V30 8479 H 766.622 0.342569 0.582772 0
M  V30 8480 H 769.176 1.54641 1.35187 0
M  V30 8481 H 767.406 0.777426 3.78805 0
M  V30 8482 H 769.095 1.18563 3.88198 0
M  V30 8483 H 769.861 3.59014 3.26089 0
M  V30 8484 H 765.74 2.5203 3.86008 0
M  V30 8485 H 769.284 5.96401 3.61873 0
M  V30 8486 H 765.181 4.88522 4.21921 0
M  V30 8487 H 765.949 6.95913 4.30869 0
M  V30 8488 N 768.612 -1.24939 0.960631 0
M  V30 8489 C 769.545 -2.24116 0.429804 0
M  V30 8490 C 770.523 -1.54972 -0.492188 0
M  V30 8491 O 771.707 -1.83642 -0.42519 0
M  V30 8492 C 768.834 -3.36558 -0.380312 0
M  V30 8493 C 767.88 -4.23757 0.482941 0
M  V30 8494 S 768.713 -4.9994 1.91885 0
M  V30 8495 C 769.869 -6.15846 1.11732 0
M  V30 8496 H 770.102 -2.68795 1.27029 0
M  V30 8497 H 767.635 -1.34108 0.765141 0
M  V30 8498 H 769.593 -4.01777 -0.841764 0
M  V30 8499 H 768.254 -2.90451 -1.19569 0
M  V30 8500 H 767.447 -5.03809 -0.138699 0
M  V30 8501 H 767.049 -3.63504 0.879839 0
M  V30 8502 H 769.341 -6.76495 0.368898 0
M  V30 8503 H 770.284 -6.82356 1.89198 0
M  V30 8504 H 770.692 -5.60805 0.644812 0
M  V30 8505 N 770.09 -0.729906 -1.39679 0
M  V30 8506 C 771.339 -0.272534 -1.9985 0
M  V30 8507 C 771.652 1.14519 -1.58571 0
M  V30 8508 O 772.858 1.70182 -2.11543 0
M  V30 8509 C 771.314 -0.436322 -3.57245 0
M  V30 8510 C 770.922 -1.86161 -4.0749 0
M  V30 8511 C 772.666 -0.0404679 -4.24481 0
M  V30 8512 C 770.573 -1.97522 -5.5744 0
M  V30 8513 H 769.503 -0.0981428 -0.747585 0
M  V30 8514 H 772.154 -0.903056 -1.59741 0
M  V30 8515 H 770.536 0.263015 -3.95126 0
M  V30 8516 H 771.71 -2.59248 -3.80955 0
M  V30 8517 H 770.025 -2.21021 -3.529 0
M  V30 8518 H 772.622 -0.104437 -5.34598 0
M  V30 8519 H 772.965 1.00357 -4.04023 0
M  V30 8520 H 773.498 -0.690774 -3.91757 0
M  V30 8521 H 770.237 -3.00096 -5.82771 0
M  V30 8522 H 769.757 -1.28864 -5.85794 0
M  V30 8523 H 771.436 -1.754 -6.22771 0
M  V30 8524 N 771.568 1.50203 -0.477153 0
M  V30 8525 C 772.478 2.32421 0.319027 0
M  V30 8526 C 773.494 1.43075 0.990233 0
M  V30 8527 O 774.67 1.76123 0.976873 0
M  V30 8528 C 771.735 3.17909 1.38328 0
M  V30 8529 C 770.796 4.23082 0.728036 0
M  V30 8530 C 770.029 5.04484 1.74158 0
M  V30 8531 O 770.252 4.8705 2.96881 0
M  V30 8532 O 769.186 5.8747 1.31006 0
M  V30 8533 H 773.012 3.01638 -0.353281 0
M  V30 8534 H 770.597 1.47478 -0.238891 0
M  V30 8535 H 772.479 3.70937 1.9996 0
M  V30 8536 H 771.154 2.51413 2.03895 0
M  V30 8537 H 770.061 3.7403 0.07261 0
M  V30 8538 H 771.394 4.92065 0.115216 0
M  V30 8539 N 773.046 0.209999 1.56195 0
M  V30 8540 C 774.457 -0.299943 1.84275 0
M  V30 8541 C 774.808 -1.60314 1.1311 0
M  V30 8542 O 773.933 -2.1273 0.396874 0
M  V30 8543 C 774.528 -0.550986 3.3429 0
M  V30 8544 C 773.087 -1.00526 3.62728 0
M  V30 8545 C 772.234 -0.0619828 2.77231 0
M  V30 8546 H 775.185 0.433458 1.52666 0
M  V30 8547 H 775.206 -1.39846 3.53869 0
M  V30 8548 H 774.718 0.397669 3.86057 0
M  V30 8549 H 772.819 -1.96768 3.16407 0
M  V30 8550 H 772.932 -0.887664 4.70805 0
M  V30 8551 H 771.296 -0.566648 2.48317 0
M  V30 8552 H 772.079 0.881383 3.31793 0
M  V30 8553 N 774.524 -1.57472 -0.0634922 0
M  V30 8554 C 775.773 -1.86837 -0.759928 0
M  V30 8555 C 776.086 -0.803823 -1.7832 0
M  V30 8556 O 777.292 -0.985578 -2.52979 0
M  V30 8557 C 775.748 -3.31448 -1.4025 0
M  V30 8558 C 775.356 -4.46052 -0.417368 0
M  V30 8559 C 777.1 -3.70003 -2.08082 0
M  V30 8560 C 775.007 -5.81707 -1.06633 0
M  V30 8561 H 773.937 -0.697009 -0.287567 0
M  V30 8562 H 776.588 -1.83495 -0.0133914 0
M  V30 8563 H 774.97 -3.29427 -2.19759 0
M  V30 8564 H 776.144 -4.5948 0.348503 0
M  V30 8565 H 774.459 -4.16104 0.156955 0
M  V30 8566 H 777.056 -4.68653 -2.57426 0
M  V30 8567 H 777.399 -3.00226 -2.88393 0
M  V30 8568 H 777.932 -3.7405 -1.35394 0
M  V30 8569 H 774.671 -6.54798 -0.303374 0
M  V30 8570 H 774.191 -5.72064 -1.80286 0
M  V30 8571 H 775.87 -6.27317 -1.58376 0
M  V30 8572 N 776.003 0.335068 -1.53997 0
M  V30 8573 C 777.28 1.09188 -1.62288 0
M  V30 8574 C 777.66 2.0626 -0.449458 0
M  V30 8575 O 777.008 2.21596 0.557444 0
M  V30 8576 C 777.218 1.80403 -2.98757 0
M  V30 8577 C 778.566 2.33841 -3.54406 0
M  V30 8578 O 779.59 1.90487 -3.00987 0
M  V30 8579 O 778.449 3.1318 -4.47862 0
M  V30 8580 H 775.543 0.502621 -0.656736 0
M  V30 8581 H 778.089 0.33588 -1.66343 0
M  V30 8582 H 776.861 1.09732 -3.75599 0
M  V30 8583 H 776.484 2.62841 -2.9833 0
M  V30 8584 N 777.481 1.45874 0.596531 0
M  V30 8585 C 778.391 1.57947 1.73464 0
M  V30 8586 C 779.407 0.463461 1.67714 0
M  V30 8587 O 780.583 0.725685 1.87872 0
M  V30 8588 C 777.648 1.55348 3.09948 0
M  V30 8589 C 776.709 2.78074 3.27068 0
M  V30 8590 C 775.942 2.75589 4.57041 0
M  V30 8591 O 776.165 1.83545 5.40063 0
M  V30 8592 O 775.099 3.66945 4.77111 0
M  V30 8593 H 778.925 2.54169 1.66228 0
M  V30 8594 H 776.51 1.2851 0.76194 0
M  V30 8595 H 778.392 1.56545 3.91244 0
M  V30 8596 H 777.067 0.622811 3.17652 0
M  V30 8597 H 775.974 2.82435 2.45319 0
M  V30 8598 H 777.307 3.70303 3.24248 0
M  V30 8599 N 778.959 -0.83999 1.33349 0
M  V30 8600 C 780.189 -1.62492 1.27593 0
M  V30 8601 C 780.597 -1.88559 -0.155597 0
M  V30 8602 O 779.94 -1.46537 -1.10782 0
M  V30 8603 C 780.002 -2.99984 1.98116 0
M  V30 8604 C 779.666 -2.96892 3.47425 0
M  V30 8605 C 780.663 -2.72688 4.42648 0
M  V30 8606 C 778.348 -3.17063 3.89585 0
M  V30 8607 C 780.342 -2.68681 5.78004 0
M  V30 8608 C 778.029 -3.12682 5.25046 0
M  V30 8609 C 779.027 -2.88522 6.19067 0
M  V30 8610 O 778.715 -2.84042 7.52047 0
M  V30 8611 H 778.447 -0.512358 0.440982 0
M  V30 8612 H 781.001 -1.0545 1.76265 0
M  V30 8613 H 779.231 -3.58875 1.44034 0
M  V30 8614 H 780.92 -3.6084 1.85875 0
M  V30 8615 H 781.686 -2.56856 4.114 0
M  V30 8616 H 777.565 -3.34889 3.16813 0
M  V30 8617 H 781.109 -2.49743 6.51363 0
M  V30 8618 H 777.006 -3.28063 5.55918 0
M  V30 8619 H 777.774 -2.99892 7.61582 0
M  V30 8620 N 780.437 -1.16799 -1.0581 0
M  V30 8621 C 781.677 -0.963264 -1.80279 0
M  V30 8622 C 782.041 0.499671 -1.85384 0
M  V30 8623 O 783.242 0.823264 -2.55882 0
M  V30 8624 C 781.513 -1.57938 -3.20609 0
M  V30 8625 S 783.072 -1.51997 -4.11634 0
M  V30 8626 H 779.89 -0.346302 -0.620964 0
M  V30 8627 H 782.492 -1.48632 -1.26999 0
M  V30 8628 H 781.196 -2.63672 -3.14492 0
M  V30 8629 H 780.727 -1.05586 -3.78966 0
M  V30 8630 H 782.742 -0.523625 -4.93429 0
M  V30 8631 N 781.915 1.24427 -0.967243 0
M  V30 8632 C 783.161 1.92772 -0.629812 0
M  V30 8633 C 783.494 1.75436 0.832827 0
M  V30 8634 O 782.769 1.10716 1.59913 0
M  V30 8635 C 783.052 3.45798 -1.00477 0
M  V30 8636 C 782.905 3.72304 -2.52407 0
M  V30 8637 C 784.224 4.36787 -0.538999 0
M  V30 8638 H 781.343 0.700099 -0.230282 0
M  V30 8639 H 783.985 1.46805 -1.20616 0
M  V30 8640 H 782.135 3.8508 -0.514336 0
M  V30 8641 H 783.807 3.42584 -3.08924 0
M  V30 8642 H 782.05 3.17472 -2.95625 0
M  V30 8643 H 782.721 4.7937 -2.73693 0
M  V30 8644 H 785.197 4.04877 -0.959874 0
M  V30 8645 H 784.073 5.4259 -0.829926 0
M  V30 8646 H 784.334 4.38527 0.560923 0
M  V30 8647 N 783.393 0.737304 1.3929 0
M  V30 8648 C 784.325 0.0592106 2.29124 0
M  V30 8649 C 785.338 -0.701026 1.46934 0
M  V30 8650 O 786.527 -0.544808 1.69983 0
M  V30 8651 C 783.627 -0.940358 3.25592 0
M  V30 8652 C 782.8 -0.241163 4.36735 0
M  V30 8653 C 781.859 -1.14916 5.13498 0
M  V30 8654 O 780.885 -0.625783 5.6575 0
M  V30 8655 N 782.087 -2.47869 5.2492 0
M  V30 8656 H 784.852 0.830647 2.87959 0
M  V30 8657 H 782.413 0.586718 1.50895 0
M  V30 8658 H 784.405 -1.55046 3.73822 0
M  V30 8659 H 782.975 -1.61299 2.67771 0
M  V30 8660 H 782.195 0.549441 3.90352 0
M  V30 8661 H 783.483 0.243299 5.08218 0
M  V30 8662 H 782.881 -2.92864 4.83991 0
M  V30 8663 H 781.438 -3.03969 5.76581 0
M  V30 8664 N 784.871 -1.49948 0.485112 0
M  V30 8665 C 785.803 -2.26691 -0.338222 0
M  V30 8666 C 786.816 -1.32584 -0.944742 0
M  V30 8667 O 788.005 -1.57989 -0.830772 0
M  V30 8668 C 785.105 -3.04405 -1.48966 0
M  V30 8669 C 784.278 -4.25971 -0.993371 0
M  V30 8670 C 783.337 -4.85861 -2.02052 0
M  V30 8671 O 782.363 -5.46382 -1.59547 0
M  V30 8672 N 783.565 -4.74101 -3.34975 0
M  V30 8673 H 786.33 -2.97989 0.319748 0
M  V30 8674 H 783.891 -1.58772 0.316714 0
M  V30 8675 H 785.883 -3.41348 -2.17403 0
M  V30 8676 H 784.453 -2.35815 -2.05207 0
M  V30 8677 H 783.673 -3.93971 -0.134424 0
M  V30 8678 H 784.961 -5.0476 -0.639934 0
M  V30 8679 H 784.359 -4.26002 -3.72208 0
M  V30 8680 H 782.916 -5.15274 -3.9917 0
M  V30 8681 N 786.349 -0.21828 -1.56081 0
M  V30 8682 C 787.279 0.687922 -2.23136 0
M  V30 8683 C 788.26 1.20357 -1.202 0
M  V30 8684 O 789.445 1.24817 -1.48776 0
M  V30 8685 C 786.575 1.89762 -2.90874 0
M  V30 8686 C 785.529 1.51595 -4.00254 0
M  V30 8687 C 784.855 2.80415 -4.55271 0
M  V30 8688 C 786.155 0.708404 -5.17474 0
M  V30 8689 H 787.849 0.128854 -2.99123 0
M  V30 8690 H 785.395 0.0605354 -1.43873 0
M  V30 8691 H 787.348 2.53699 -3.36474 0
M  V30 8692 H 786.072 2.4816 -2.1233 0
M  V30 8693 H 784.731 0.900058 -3.55379 0
M  V30 8694 H 784.379 3.36951 -3.73461 0
M  V30 8695 H 784.079 2.55613 -5.2909 0
M  V30 8696 H 785.603 3.453 -5.03587 0
M  V30 8697 H 787.017 1.2514 -5.59476 0
M  V30 8698 H 785.414 0.557593 -5.97504 0
M  V30 8699 H 786.484 -0.285679 -4.84058 0
M  V30 8700 N 787.827 1.57504 0.0551401 0
M  V30 8701 C 788.774 2.04825 1.06373 0
M  V30 8702 C 789.744 0.932108 1.37481 0
M  V30 8703 O 790.929 1.20093 1.48265 0
M  V30 8704 C 788.069 2.51091 2.36743 0
M  V30 8705 C 787.182 3.76392 2.12021 0
M  V30 8706 C 786.317 4.11373 3.36074 0
M  V30 8707 C 785.356 5.29666 3.0679 0
M  V30 8708 N 784.493 5.60205 4.2322 0
M  V30 8709 H 789.333 2.90753 0.653216 0
M  V30 8710 H 786.87 1.43776 0.310951 0
M  V30 8711 H 788.828 2.75973 3.12881 0
M  V30 8712 H 787.458 1.68118 2.75565 0
M  V30 8713 H 786.51 3.58751 1.26498 0
M  V30 8714 H 787.822 4.62662 1.86401 0
M  V30 8715 H 786.976 4.37245 4.20597 0
M  V30 8716 H 785.715 3.23704 3.64784 0
M  V30 8717 H 784.72 5.03574 2.20664 0
M  V30 8718 H 785.945 6.18968 2.79385 0
M  V30 8719 H 783.891 4.75495 4.5193 0
M  V30 8720 H 783.808 6.40928 4.00933 0
M  V30 8721 H 785.076 5.90637 5.08692 0
M  V30 8722 N 789.305 -0.326896 1.54172 0
M  V30 8723 C 790.215 -1.42525 1.86343 0
M  V30 8724 C 791.231 -1.56764 0.75505 0
M  V30 8725 O 792.407 -1.71924 1.04901 0
M  V30 8726 C 789.472 -2.77286 2.08119 0
M  V30 8727 C 788.533 -2.7225 3.31931 0
M  V30 8728 C 787.766 -4.00584 3.52659 0
M  V30 8729 O 787.989 -4.98686 2.76891 0
M  V30 8730 O 786.923 -4.04045 4.46129 0
M  V30 8731 H 790.749 -1.18249 2.79734 0
M  V30 8732 H 788.334 -0.520614 1.40036 0
M  V30 8733 H 790.216 -3.57065 2.23791 0
M  V30 8734 H 788.891 -3.01459 1.17917 0
M  V30 8735 H 787.798 -1.91033 3.21647 0
M  V30 8736 H 789.131 -2.53032 4.2218 0
M  V30 8737 N 790.784 -1.46188 -0.588786 0
M  V30 8738 C 792.031 -1.51184 -1.34721 0
M  V30 8739 C 792.359 -0.161084 -1.93832 0
M  V30 8740 O 791.614 0.842557 -1.76634 0
M  V30 8741 C 791.913 -2.55364 -2.50048 0
M  V30 8742 C 791.579 -3.99553 -2.08969 0
M  V30 8743 C 790.241 -4.38811 -1.9748 0
M  V30 8744 C 792.593 -4.90156 -1.77191 0
M  V30 8745 C 789.921 -5.66544 -1.52463 0
M  V30 8746 C 792.273 -6.1832 -1.33654 0
M  V30 8747 C 790.937 -6.5649 -1.20738 0
M  V30 8748 H 790.207 -0.55322 -0.49298 0
M  V30 8749 H 792.854 -1.79634 -0.663627 0
M  V30 8750 H 791.159 -2.20552 -3.23827 0
M  V30 8751 H 792.856 -2.5646 -3.08268 0
M  V30 8752 H 789.446 -3.68518 -2.18843 0
M  V30 8753 H 793.63 -4.60549 -1.84955 0
M  V30 8754 H 788.886 -5.94895 -1.411 0
M  V30 8755 H 793.06 -6.87956 -1.08117 0
M  V30 8756 H 790.687 -7.55362 -0.856307 0
M  V30 8757 N 792.262 0.832906 -1.33792 0
M  V30 8758 C 793.172 1.97514 -1.26592 0
M  V30 8759 C 794.188 1.73114 -0.175391 0
M  V30 8760 O 795.364 1.97387 -0.400062 0
M  V30 8761 C 792.429 3.31625 -1.01121 0
M  V30 8762 C 791.49 3.69101 -2.19233 0
M  V30 8763 C 790.723 4.96813 -1.94968 0
M  V30 8764 O 790.946 5.63208 -0.902955 0
M  V30 8765 O 789.88 5.31932 -2.8166 0
M  V30 8766 H 793.706 2.0653 -2.22664 0
M  V30 8767 H 791.291 0.966826 -1.13898 0
M  V30 8768 H 793.173 4.11968 -0.886571 0
M  V30 8769 H 791.848 3.23599 -0.080822 0
M  V30 8770 H 790.755 2.89243 -2.37253 0
M  V30 8771 H 792.088 3.818 -3.10628 0
M  V30 8772 N 793.74 1.17359 1.05189 0
M  V30 8773 C 794.988 0.960087 1.77839 0
M  V30 8774 C 795.309 -0.512554 1.88143 0
M  V30 8775 O 794.579 -1.3721 1.39822 0
M  V30 8776 H 793.159 0.352234 0.658741 0
M  V30 8777 H 795.821 1.47834 1.27008 0
M  V30 8778 H 794.917 1.38843 2.79516 0
M  V30 8779 N 795.218 -1.23913 0.973828 0
M  V30 8780 C 796.165 -2.25132 0.508366 0
M  V30 8781 C 797.135 -1.59908 -0.449307 0
M  V30 8782 O 798.32 -1.87405 -0.358313 0
M  V30 8783 C 795.46 -3.4458 -0.189422 0
M  V30 8784 C 794.573 -4.24381 0.807738 0
M  V30 8785 C 793.708 -5.31131 0.0854315 0
M  V30 8786 C 792.747 -6.02635 1.07225 0
M  V30 8787 N 791.884 -7.01073 0.379535 0
M  V30 8788 H 796.724 -2.64313 1.37632 0
M  V30 8789 H 794.261 -1.29924 0.689802 0
M  V30 8790 H 796.219 -4.12706 -0.610733 0
M  V30 8791 H 794.849 -3.06218 -1.02129 0
M  V30 8792 H 793.901 -3.55735 1.34747 0
M  V30 8793 H 795.213 -4.73778 1.55998 0
M  V30 8794 H 794.367 -6.05422 -0.393572 0
M  V30 8795 H 793.106 -4.82658 -0.699461 0
M  V30 8796 H 792.111 -5.27143 1.56207 0
M  V30 8797 H 793.336 -6.53197 1.85769 0
M  V30 8798 H 791.282 -6.54862 -0.386269 0
M  V30 8799 H 791.199 -7.48382 1.07054 0
M  V30 8800 H 792.467 -7.79462 -0.0772984 0
M  V30 8801 N 796.696 -0.74468 -1.38897 0
M  V30 8802 C 797.924 -0.307428 -2.04603 0
M  V30 8803 C 798.339 1.06115 -1.56157 0
M  V30 8804 O 797.696 1.67233 -0.730701 0
M  V30 8805 C 797.747 -0.31101 -3.6016 0
M  V30 8806 O 797.468 -1.62557 -4.06825 0
M  V30 8807 C 798.969 0.141213 -4.43075 0
M  V30 8808 H 796.189 -0.132741 -0.657739 0
M  V30 8809 H 798.733 -1.01104 -1.77759 0
M  V30 8810 H 796.888 0.343792 -3.85872 0
M  V30 8811 H 797.302 -1.54569 -5.01207 0
M  V30 8812 H 798.776 0.0875449 -5.51931 0
M  V30 8813 H 799.253 1.18782 -4.22833 0
M  V30 8814 H 799.859 -0.484383 -4.22533 0
M  V30 8815 N 798.174 1.49689 -0.493057 0
M  V30 8816 C 799.104 2.31826 0.279073 0
M  V30 8817 C 800.085 1.39733 0.969987 0
M  V30 8818 O 801.27 1.68646 0.962925 0
M  V30 8819 C 798.4 3.20046 1.34862 0
M  V30 8820 C 797.354 4.20869 0.77805 0
M  V30 8821 C 796.68 4.97971 1.94753 0
M  V30 8822 C 797.98 5.21813 -0.225543 0
M  V30 8823 H 799.674 2.96627 -0.406512 0
M  V30 8824 H 797.22 1.42647 -0.196943 0
M  V30 8825 H 799.173 3.76315 1.89645 0
M  V30 8826 H 797.897 2.53172 2.06328 0
M  V30 8827 H 796.556 3.65733 0.252036 0
M  V30 8828 H 796.204 4.27552 2.64969 0
M  V30 8829 H 795.904 5.66186 1.57187 0
M  V30 8830 H 797.428 5.57082 2.49984 0
M  V30 8831 H 798.842 5.72823 0.233864 0
M  V30 8832 H 797.239 5.97872 -0.516622 0
M  V30 8833 H 798.309 4.71209 -1.14412 0
M  V30 8834 N 799.652 0.226554 1.55963 0
M  V30 8835 C 800.898 -0.404387 1.98727 0
M  V30 8836 C 801.231 -1.59059 1.11418 0
M  V30 8837 O 800.506 -1.93729 0.172971 0
M  V30 8838 C 800.789 -0.834081 3.50307 0
M  V30 8839 C 800.642 0.356104 4.48388 0
M  V30 8840 C 801.961 -1.68845 4.06423 0
M  V30 8841 H 799.08 -0.145515 0.722492 0
M  V30 8842 H 801.722 0.323791 1.87221 0
M  V30 8843 H 799.872 -1.45454 3.60244 0
M  V30 8844 H 801.544 0.99432 4.50456 0
M  V30 8845 H 799.787 1.0027 4.22053 0
M  V30 8846 H 800.458 0.0124333 5.51999 0
M  V30 8847 H 802.934 -1.16489 3.99461 0
M  V30 8848 H 801.81 -1.958 5.1279 0
M  V30 8849 H 802.071 -2.65347 3.53615 0
M  V30 8850 N 801.13 -1.57531 -0.0467866 0
M  V30 8851 C 802.355 -1.93087 -0.757123 0
M  V30 8852 C 802.78 -0.825116 -1.69037 0
M  V30 8853 O 802.138 0.220449 -1.79955 0
M  V30 8854 C 802.186 -3.27669 -1.5055 0
M  V30 8855 O 801.29 -3.18667 -2.61773 0
M  V30 8856 H 800.631 -0.631597 -0.204892 0
M  V30 8857 H 803.161 -2.04599 -0.00755232 0
M  V30 8858 H 803.171 -3.6214 -1.87932 0
M  V30 8859 H 801.846 -4.07717 -0.820931 0
M  V30 8860 H 800.423 -2.95798 -2.27064 0
M  V30 8861 N 802.608 0.318715 -1.54344 0
M  V30 8862 C 803.854 1.05765 -1.73037 0
M  V30 8863 C 804.187 1.87514 -0.505181 0
M  V30 8864 O 803.462 1.88021 0.497838 0
M  V30 8865 C 803.745 1.97836 -3.00887 0
M  V30 8866 C 803.598 1.19384 -4.33668 0
M  V30 8867 C 804.917 2.97285 -3.24514 0
M  V30 8868 H 802.036 0.383104 -0.629603 0
M  V30 8869 H 804.678 0.333864 -1.87044 0
M  V30 8870 H 802.828 2.59552 -2.89076 0
M  V30 8871 H 804.5 0.600906 -4.57369 0
M  V30 8872 H 802.743 0.496198 -4.30953 0
M  V30 8873 H 803.414 1.87014 -5.19355 0
M  V30 8874 H 805.89 2.45693 -3.35819 0
M  V30 8875 H 804.766 3.58887 -4.15321 0
M  V30 8876 H 805.027 3.70003 -2.41971 0
M  V30 8877 N 804.086 1.46499 0.581025 0
M  V30 8878 C 805.314 1.5547 1.36517 0
M  V30 8879 C 805.729 0.196407 1.87776 0
M  V30 8880 O 805.086 -0.806577 1.63709 0
M  V30 8881 C 805.137 2.56084 2.55154 0
M  V30 8882 O 804.858 3.86637 2.06018 0
M  V30 8883 C 806.359 2.75011 3.47683 0
M  V30 8884 H 803.579 0.525703 0.416986 0
M  V30 8885 H 806.123 1.9192 0.706177 0
M  V30 8886 H 804.278 2.22633 3.17039 0
M  V30 8887 H 804.692 4.41413 2.83292 0
M  V30 8888 H 806.166 3.49329 4.27403 0
M  V30 8889 H 806.643 1.81978 3.99726 0
M  V30 8890 H 807.249 3.09565 2.91632 0
M  V30 8891 N 805.565 -0.825799 1.34232 0
M  V30 8892 C 806.512 -1.93651 1.2557 0
M  V30 8893 C 807.482 -1.65578 0.131536 0
M  V30 8894 O 808.667 -1.88231 0.312027 0
M  V30 8895 C 805.807 -3.29862 1.01415 0
M  V30 8896 C 804.92 -3.70247 2.22579 0
M  V30 8897 C 804.055 -4.95392 1.91731 0
M  V30 8898 C 803.094 -5.28349 3.09053 0
M  V30 8899 N 802.231 -6.44671 2.78107 0
M  V30 8900 H 807.071 -2.00392 2.20561 0
M  V30 8901 H 804.608 -0.980441 1.09662 0
M  V30 8902 H 806.566 -4.08356 0.854485 0
M  V30 8903 H 805.196 -3.22642 0.100936 0
M  V30 8904 H 804.248 -2.87169 2.49476 0
M  V30 8905 H 805.56 -3.90575 3.10246 0
M  V30 8906 H 804.714 -5.81665 1.72484 0
M  V30 8907 H 803.453 -4.77059 1.0132 0
M  V30 8908 H 802.458 -4.40574 3.289 0
M  V30 8909 H 803.683 -5.48622 4.00239 0
M  V30 8910 H 801.629 -6.278 1.9027 0
M  V30 8911 H 801.546 -6.65158 3.59306 0
M  V30 8912 H 802.814 -7.34022 2.62358 0
M  V30 8913 N 807.043 -1.17915 -1.04565 0
M  V30 8914 C 807.953 -0.916449 -2.15959 0
M  V30 8915 C 808.969 0.117655 -1.73602 0
M  V30 8916 O 810.145 -0.063089 -2.01301 0
M  V30 8917 C 807.21 -0.440262 -3.43893 0
M  V30 8918 C 806.271 -1.54172 -4.00661 0
M  V30 8919 C 805.504 -1.08816 -5.22489 0
M  V30 8920 O 805.727 0.0551547 -5.70373 0
M  V30 8921 O 804.661 -1.88383 -5.7166 0
M  V30 8922 H 808.487 -1.8484 -2.40972 0
M  V30 8923 H 806.072 -0.960552 -1.14428 0
M  V30 8924 H 807.954 -0.182537 -4.21004 0
M  V30 8925 H 806.629 0.46346 -3.20365 0
M  V30 8926 H 805.536 -1.85341 -3.24961 0
M  V30 8927 H 806.869 -2.42139 -4.2852 0
M  V30 8928 N 808.521 1.23394 -0.980386 0
M  V30 8929 C 809.769 1.91431 -0.647978 0
M  V30 8930 C 810.09 1.76871 0.821066 0
M  V30 8931 O 809.36 1.14808 1.58732 0
M  V30 8932 H 807.94 0.708516 -0.236673 0
M  V30 8933 H 810.602 1.50019 -1.2442 0
M  V30 8934 H 809.698 2.98854 -0.899592 0
M  V30 8935 N 809.999 0.752036 1.385 0
M  V30 8936 C 810.929 0.138718 2.33088 0
M  V30 8937 C 811.91 -0.705318 1.54788 0
M  V30 8938 O 813.095 -0.646821 1.83112 0
M  V30 8939 C 810.225 -0.75641 3.38963 0
M  V30 8940 C 809.179 -0.0152239 4.27997 0
M  V30 8941 C 808.505 -1.0285 5.24715 0
M  V30 8942 C 809.805 1.15226 5.09431 0
M  V30 8943 H 811.499 0.928852 2.84627 0
M  V30 8944 H 809.045 0.448111 1.3685 0
M  V30 8945 H 810.998 -1.19513 4.04097 0
M  V30 8946 H 809.722 -1.57885 2.85902 0
M  V30 8947 H 808.381 0.404061 3.64366 0
M  V30 8948 H 808.029 -1.84496 4.67943 0
M  V30 8949 H 807.729 -0.537238 5.85139 0
M  V30 8950 H 809.253 -1.46657 5.92726 0
M  V30 8951 H 810.667 0.791161 5.67815 0
M  V30 8952 H 809.064 1.57428 5.79082 0
M  V30 8953 H 810.134 1.9659 4.43261 0
M  V30 8954 N 811.477 -1.49425 0.500989 0
M  V30 8955 C 812.387 -2.32899 -0.282011 0
M  V30 8956 C 813.403 -1.44632 -0.967346 0
M  V30 8957 O 814.579 -1.77654 -0.94873 0
M  V30 8958 C 811.644 -3.20069 -1.33253 0
M  V30 8959 C 810.705 -4.24186 -0.660636 0
M  V30 8960 C 809.938 -5.07191 -1.6611 0
M  V30 8961 O 810.161 -4.91712 -2.89094 0
M  V30 8962 O 809.095 -5.8948 -1.21643 0
M  V30 8963 H 812.921 -3.01038 0.401224 0
M  V30 8964 H 810.506 -1.47079 0.262323 0
M  V30 8965 H 812.388 -3.74071 -1.94033 0
M  V30 8966 H 811.063 -2.54625 -1.9987 0
M  V30 8967 H 809.97 -3.74098 -0.0130959 0
M  V30 8968 H 811.303 -4.92186 -0.0369179 0
M  V30 8969 N 812.955 -0.234822 -1.55841 0
M  V30 8970 C 813.885 0.664217 -2.23854 0
M  V30 8971 C 814.866 1.19076 -1.2147 0
M  V30 8972 O 816.051 1.23232 -1.50091 0
M  V30 8973 C 813.181 1.86666 -2.9287 0
M  V30 8974 C 812.135 1.47341 -4.01839 0
M  V30 8975 C 811.461 2.75571 -4.58219 0
M  V30 8976 C 812.761 0.653479 -5.18196 0
M  V30 8977 H 814.455 0.0971213 -2.99242 0
M  V30 8978 H 812.001 0.0452724 -1.43929 0
M  V30 8979 H 813.954 2.50116 -3.39146 0
M  V30 8980 H 812.678 2.45894 -2.1495 0
M  V30 8981 H 811.337 0.862314 -3.56314 0
M  V30 8982 H 810.985 3.32971 -3.77014 0
M  V30 8983 H 810.685 2.49987 -5.31771 0
M  V30 8984 H 812.209 3.39939 -5.07221 0
M  V30 8985 H 813.623 1.19198 -5.60771 0
M  V30 8986 H 812.02 0.494188 -5.98062 0
M  V30 8987 H 813.09 -0.337004 -4.83728 0
M  V30 8988 N 814.433 1.57553 0.0384317 0
M  V30 8989 C 815.844 1.77258 0.586211 0
M  V30 8990 C 816.195 0.864706 1.76117 0
M  V30 8991 O 815.32 0.057141 2.16325 0
M  V30 8992 C 815.915 3.21453 1.07021 0
M  V30 8993 C 814.474 3.42387 1.56358 0
M  V30 8994 C 813.621 2.72801 0.497508 0
M  V30 8995 H 816.572 1.57585 -0.187796 0
M  V30 8996 H 816.593 3.27451 1.93794 0
M  V30 8997 H 816.105 3.87505 0.214851 0
M  V30 8998 H 814.206 2.81497 2.44111 0
M  V30 8999 H 814.319 4.50968 1.61754 0
M  V30 9000 H 812.683 2.36305 0.95038 0
M  V30 9001 H 813.466 3.41529 -0.348234 0
M  V30 9002 N 815.911 -0.310526 1.54511 0
M  V30 9003 C 816.821 -1.4054 1.87844 0
M  V30 9004 C 817.837 -1.55954 0.771635 0
M  V30 9005 O 819.013 -1.70801 1.06719 0
M  V30 9006 C 816.078 -2.75063 2.11048 0
M  V30 9007 C 815.139 -2.68715 3.348 0
M  V30 9008 C 814.372 -3.96821 3.56887 0
M  V30 9009 O 814.595 -4.95721 2.82165 0
M  V30 9010 O 813.529 -3.99291 4.50389 0
M  V30 9011 H 817.355 -1.15275 2.80972 0
M  V30 9012 H 814.94 -0.505732 1.4058 0
M  V30 9013 H 816.822 -3.54671 2.27566 0
M  V30 9014 H 815.497 -3.00191 1.21108 0
M  V30 9015 H 814.404 -1.87611 3.23655 0
M  V30 9016 H 815.737 -2.4854 4.2484 0
M  V30 9017 N 817.389 -1.46805 -0.573248 0
M  V30 9018 C 818.666 -1.43082 -1.33368 0
M  V30 9019 C 819.046 -0.119252 -2.10763 0
M  V30 9020 O 818.394 0.899239 -2.10062 0
M  V30 9021 C 818.604 -2.66643 -2.25172 0
M  V30 9022 C 819.952 -3.13188 -2.86702 0
M  V30 9023 O 820.976 -2.67258 -2.35482 0
M  V30 9024 O 819.835 -3.92994 -3.79761 0
M  V30 9025 H 816.929 -0.569451 -0.599712 0
M  V30 9026 H 819.475 -1.58984 -0.59348 0
M  V30 9027 H 818.247 -3.53649 -1.67475 0
M  V30 9028 H 817.87 -2.53247 -3.06516 0
M  V30 9029 N 818.867 0.818669 -1.34668 0
M  V30 9030 C 819.777 1.9616 -1.2868 0
M  V30 9031 C 820.793 1.72918 -0.193742 0
M  V30 9032 O 821.969 1.96951 -0.420975 0
M  V30 9033 C 819.034 3.30534 -1.04633 0
M  V30 9034 C 818.095 3.66755 -2.23136 0
M  V30 9035 C 817.328 4.94717 -2.00227 0
M  V30 9036 O 817.551 5.62218 -0.96264 0
M  V30 9037 O 816.485 5.28915 -2.87286 0
M  V30 9038 H 820.311 2.04157 -2.24842 0
M  V30 9039 H 817.896 0.954691 -1.14917 0
M  V30 9040 H 819.778 4.11005 -0.930216 0
M  V30 9041 H 818.453 3.23495 -0.115139 0
M  V30 9042 H 817.36 2.8671 -2.40308 0
M  V30 9043 H 818.693 3.78484 -3.1466 0
M  V30 9044 N 820.346 1.18468 1.03938 0
M  V30 9045 C 821.256 0.927889 2.1547 0
M  V30 9046 C 822.272 -0.108447 1.73662 0
M  V30 9047 O 823.448 0.0737636 2.01265 0
M  V30 9048 C 820.513 0.458494 3.43655 0
M  V30 9049 C 819.574 1.56295 3.99838 0
M  V30 9050 C 818.807 1.11586 5.21904 0
M  V30 9051 O 819.03 -0.0249057 5.70395 0
M  V30 9052 O 817.964 1.91412 5.70653 0
M  V30 9053 H 821.79 1.86116 2.39989 0
M  V30 9054 H 819.375 0.966607 1.13917 0
M  V30 9055 H 821.257 0.204861 4.20902 0
M  V30 9056 H 819.932 -0.446464 3.20606 0
M  V30 9057 H 818.839 1.87061 3.23974 0
M  V30 9058 H 820.172 2.44408 4.2723 0
M  V30 9059 N 821.824 -1.22873 0.986916 0
M  V30 9060 C 822.734 -2.28277 0.540978 0
M  V30 9061 C 823.75 -1.69164 -0.407363 0
M  V30 9062 O 824.926 -1.99504 -0.275674 0
M  V30 9063 C 821.991 -3.46404 -0.143181 0
M  V30 9064 C 821.052 -4.20854 0.847375 0
M  V30 9065 C 820.285 -5.33341 0.19577 0
M  V30 9066 O 820.508 -5.61356 -1.0117 0
M  V30 9067 O 819.442 -5.95169 0.897623 0
M  V30 9068 H 823.268 -2.68578 1.41773 0
M  V30 9069 H 820.853 -1.28927 0.754867 0
M  V30 9070 H 822.735 -4.18096 -0.526676 0
M  V30 9071 H 821.41 -3.08041 -0.994593 0
M  V30 9072 H 820.317 -3.51459 1.28169 0
M  V30 9073 H 821.65 -4.63082 1.6678 0
M  V30 9074 N 823.302 -0.75937 -1.38099 0
M  V30 9075 C 824.249 -0.135508 -2.30402 0
M  V30 9076 C 825.219 0.703356 -1.50473 0
M  V30 9077 O 826.404 0.658287 -1.79084 0
M  V30 9078 C 823.544 0.747228 -3.36913 0
M  V30 9079 C 822.657 -0.106893 -4.31868 0
M  V30 9080 C 821.792 0.779388 -5.25451 0
M  V30 9081 C 820.831 -0.0780179 -6.1205 0
M  V30 9082 N 819.968 0.765545 -6.97914 0
M  V30 9083 H 824.808 -0.9282 -2.83176 0
M  V30 9084 H 822.345 -0.46935 -1.39411 0
M  V30 9085 H 824.303 1.27371 -3.97281 0
M  V30 9086 H 822.933 1.50565 -2.85535 0
M  V30 9087 H 821.985 -0.751063 -3.72912 0
M  V30 9088 H 823.297 -0.768798 -4.9284 0
M  V30 9089 H 822.451 1.37282 -5.90964 0
M  V30 9090 H 821.19 1.47501 -4.6486 0
M  V30 9091 H 820.195 -0.684078 -5.45528 0
M  V30 9092 H 821.42 -0.770786 -6.74712 0
M  V30 9093 H 819.366 1.44601 -6.39864 0
M  V30 9094 H 819.283 0.160666 -7.55829 0
M  V30 9095 H 820.551 1.34377 -7.6783 0
M  V30 9096 N 824.78 1.49157 -0.508906 0
M  V30 9097 C 825.727 2.2927 0.265288 0
M  V30 9098 C 826.697 1.3603 0.953162 0
M  V30 9099 O 827.882 1.64989 0.958291 0
M  V30 9100 C 825.022 3.18897 1.31904 0
M  V30 9101 C 824.135 4.27201 0.642144 0
M  V30 9102 C 823.27 5.04033 1.67701 0
M  V30 9103 C 822.309 6.04165 0.982422 0
M  V30 9104 N 821.446 6.74133 1.96186 0
M  V30 9105 H 826.286 2.94967 -0.424107 0
M  V30 9106 H 823.823 1.45431 -0.220991 0
M  V30 9107 H 825.781 3.69242 1.94206 0
M  V30 9108 H 824.411 2.55168 1.97709 0
M  V30 9109 H 823.463 3.80283 -0.0943395 0
M  V30 9110 H 824.775 4.98708 0.0957507 0
M  V30 9111 H 823.929 5.58287 2.37487 0
M  V30 9112 H 822.668 4.32317 2.25728 0
M  V30 9113 H 821.673 5.49135 0.270378 0
M  V30 9114 H 822.898 6.7787 0.408554 0
M  V30 9115 H 820.844 6.05183 2.53159 0
M  V30 9116 H 820.761 7.41643 1.46634 0
M  V30 9117 H 822.029 7.32987 2.65236 0
M  V30 9118 N 826.258 0.243083 1.55714 0
M  V30 9119 C 827.205 -0.658078 2.21219 0
M  V30 9120 C 828.175 -1.1742 1.17481 0
M  V30 9121 O 829.36 -1.22937 1.45915 0
M  V30 9122 C 826.5 -1.85104 2.91257 0
M  V30 9123 C 825.613 -1.3718 4.09641 0
M  V30 9124 C 824.748 -2.52403 4.67404 0
M  V30 9125 C 823.787 -2.01321 5.78045 0
M  V30 9126 N 822.924 -3.09896 6.30007 0
M  V30 9127 H 827.764 -0.0927854 2.97856 0
M  V30 9128 H 825.301 -0.0340375 1.47061 0
M  V30 9129 H 827.259 -2.55179 3.3006 0
M  V30 9130 H 825.889 -2.38887 2.17101 0
M  V30 9131 H 824.941 -0.565232 3.76177 0
M  V30 9132 H 826.253 -0.957409 4.89525 0
M  V30 9133 H 825.407 -3.30525 5.08761 0
M  V30 9134 H 824.146 -2.97142 3.86728 0
M  V30 9135 H 823.151 -1.21667 5.36169 0
M  V30 9136 H 824.376 -1.57556 6.6057 0
M  V30 9137 H 822.322 -3.54077 5.52237 0
M  V30 9138 H 822.239 -2.72776 7.05074 0
M  V30 9139 H 823.507 -3.8809 6.76023 0
M  V30 9140 N 827.736 -1.57571 -0.0300757 0
M  V30 9141 C 828.668 -2.0329 -1.05857 0
M  V30 9142 C 829.681 -0.945543 -1.32527 0
M  V30 9143 O 830.87 -1.22287 -1.30032 0
M  V30 9144 C 827.97 -2.39234 -2.40042 0
M  V30 9145 C 827.143 -3.70337 -2.32743 0
M  V30 9146 C 826.202 -3.93482 -3.49369 0
M  V30 9147 O 825.228 -4.64551 -3.28909 0
M  V30 9148 N 826.43 -3.39042 -4.71201 0
M  V30 9149 H 829.195 -2.9214 -0.668897 0
M  V30 9150 H 826.756 -1.60425 -0.218038 0
M  V30 9151 H 828.748 -2.51856 -3.16782 0
M  V30 9152 H 827.318 -1.5606 -2.70858 0
M  V30 9153 H 826.538 -3.68079 -1.41109 0
M  V30 9154 H 827.826 -4.56343 -2.25007 0
M  V30 9155 H 827.224 -2.81434 -4.90725 0
M  V30 9156 H 825.781 -3.57045 -5.45309 0
M  V30 9157 N 829.214 0.302327 -1.54673 0
M  V30 9158 C 830.124 1.39542 -1.88587 0
M  V30 9159 C 831.14 1.55543 -0.779895 0
M  V30 9160 O 832.316 1.70233 -1.07623 0
M  V30 9161 C 829.381 2.7394 -2.12504 0
M  V30 9162 C 828.442 2.66935 -3.3622 0
M  V30 9163 C 827.675 3.94923 -3.58987 0
M  V30 9164 O 827.898 4.94218 -2.84789 0
M  V30 9165 O 826.832 3.96896 -4.52501 0
M  V30 9166 H 830.658 1.13784 -2.81579 0
M  V30 9167 H 828.243 0.49827 -1.40846 0
M  V30 9168 H 830.125 3.5346 -2.29443 0
M  V30 9169 H 828.8 2.99544 -1.22698 0
M  V30 9170 H 827.707 1.85892 -3.24646 0
M  V30 9171 H 829.04 2.46283 -4.26152 0
M  V30 9172 N 830.692 1.47107 0.565454 0
M  V30 9173 C 831.602 1.61591 1.70075 0
M  V30 9174 C 832.618 0.498931 1.66693 0
M  V30 9175 O 833.794 0.765372 1.8629 0
M  V30 9176 C 830.859 1.61887 3.06583 0
M  V30 9177 C 829.92 2.84949 3.21096 0
M  V30 9178 C 829.153 2.85221 4.51093 0
M  V30 9179 O 829.376 1.94959 5.36048 0
M  V30 9180 O 828.31 3.76982 4.69221 0
M  V30 9181 H 832.136 2.57638 1.60799 0
M  V30 9182 H 829.721 1.30097 0.73451 0
M  V30 9183 H 831.603 1.64809 3.87835 0
M  V30 9184 H 830.278 0.69005 3.16259 0
M  V30 9185 H 829.185 2.87575 2.39273 0
M  V30 9186 H 830.518 3.77098 3.1632 0
M  V30 9187 N 832.17 -0.811516 1.35101 0
M  V30 9188 C 833.117 -1.92308 1.27617 0
M  V30 9189 C 834.087 -1.6543 0.149091 0
M  V30 9190 O 835.272 -1.8789 0.331974 0
M  V30 9191 C 832.412 -3.28768 1.04908 0
M  V30 9192 C 831.525 -3.67865 2.26493 0
M  V30 9193 C 830.66 -4.9333 1.96974 0
M  V30 9194 C 829.699 -5.25041 3.1464 0
M  V30 9195 N 828.836 -6.41685 2.84929 0
M  V30 9196 H 833.676 -1.98041 2.22674 0
M  V30 9197 H 831.213 -0.968755 1.10696 0
M  V30 9198 H 833.171 -4.07426 0.897749 0
M  V30 9199 H 831.801 -3.22517 0.135151 0
M  V30 9200 H 830.853 -2.84507 2.52507 0
M  V30 9201 H 832.165 -3.87263 3.14371 0
M  V30 9202 H 831.319 -5.79803 1.78643 0
M  V30 9203 H 830.058 -4.75958 1.06374 0
M  V30 9204 H 829.063 -4.3706 3.33554 0
M  V30 9205 H 830.288 -5.44346 4.06035 0
M  V30 9206 H 828.234 -6.25747 1.96918 0
M  V30 9207 H 828.151 -6.6131 3.66341 0
M  V30 9208 H 829.419 -7.31198 2.70128 0
M  V30 9209 N 833.648 -1.19017 -1.03309 0
M  V30 9210 C 834.595 -0.924088 -2.11493 0
M  V30 9211 C 835.565 0.139464 -1.65513 0
M  V30 9212 O 836.75 -0.00178761 -1.908 0
M  V30 9213 C 833.89 -0.464255 -3.41963 0
M  V30 9214 C 833.003 -1.5941 -4.01513 0
M  V30 9215 C 832.138 -1.08622 -5.19976 0
M  V30 9216 C 831.177 -2.19024 -5.71572 0
M  V30 9217 N 830.314 -1.69575 -6.81314 0
M  V30 9218 H 835.154 -1.85039 -2.33591 0
M  V30 9219 H 832.691 -0.922593 -1.14572 0
M  V30 9220 H 834.649 -0.179078 -4.16815 0
M  V30 9221 H 833.279 0.425062 -3.19989 0
M  V30 9222 H 832.331 -1.99458 -3.23915 0
M  V30 9223 H 833.643 -2.42604 -4.35826 0
M  V30 9224 H 832.797 -0.756022 -6.01971 0
M  V30 9225 H 831.536 -0.223955 -4.87186 0
M  V30 9226 H 830.541 -2.5288 -4.88193 0
M  V30 9227 H 831.766 -3.05699 -6.06403 0
M  V30 9228 H 829.712 -0.856494 -6.50385 0
M  V30 9229 H 829.629 -2.46361 -7.14732 0
M  V30 9230 H 830.897 -1.39505 -7.66915 0
M  V30 9231 N 835.127 1.22348 -0.993418 0
M  V30 9232 C 836.355 1.95125 -0.688021 0
M  V30 9233 C 836.77 1.73377 0.747388 0
M  V30 9234 O 836.127 1.03317 1.50439 0
M  V30 9235 C 836.178 3.47819 -0.985097 0
M  V30 9236 O 835.899 3.68838 -2.3641 0
M  V30 9237 C 837.4 4.37779 -0.697474 0
M  V30 9238 H 834.62 0.62087 -0.254481 0
M  V30 9239 H 837.164 1.55485 -1.32833 0
M  V30 9240 H 835.319 3.85426 -0.390583 0
M  V30 9241 H 835.733 4.63032 -2.46377 0
M  V30 9242 H 837.207 5.43666 -0.955604 0
M  V30 9243 H 837.684 4.37651 0.368524 0
M  V30 9244 H 838.29 4.05799 -1.27306 0
M  V30 9245 N 836.605 0.766683 1.37694 0
M  V30 9246 C 837.552 0.147725 2.30327 0
M  V30 9247 C 838.522 -0.695366 1.50844 0
M  V30 9248 O 839.707 -0.64878 1.79431 0
M  V30 9249 C 836.847 -0.72935 3.37305 0
M  V30 9250 C 835.96 0.129795 4.31805 0
M  V30 9251 C 835.095 -0.751511 5.25857 0
M  V30 9252 C 834.134 0.110475 6.12 0
M  V30 9253 N 833.271 -0.728522 6.9831 0
M  V30 9254 H 838.111 0.943204 2.82679 0
M  V30 9255 H 835.648 0.476736 1.3916 0
M  V30 9256 H 837.606 -1.25263 3.97951 0
M  V30 9257 H 836.236 -1.49048 2.86329 0
M  V30 9258 H 835.288 0.770829 3.72508 0
M  V30 9259 H 836.6 0.794923 4.92425 0
M  V30 9260 H 835.754 -1.34146 5.91684 0
M  V30 9261 H 834.493 -1.45034 4.65636 0
M  V30 9262 H 833.498 0.712999 5.45157 0
M  V30 9263 H 834.723 0.806557 6.74293 0
M  V30 9264 H 832.669 -1.41206 6.40622 0
M  V30 9265 H 832.586 -0.12058 7.55904 0
M  V30 9266 H 833.854 -1.30303 7.68532 0
M  V30 9267 N 838.083 -1.48885 0.516809 0
M  V30 9268 C 839.33 -2.02488 -0.0220602 0
M  V30 9269 C 839.658 -1.39513 -1.35523 0
M  V30 9270 O 838.913 -0.52558 -1.8851 0
M  V30 9271 C 839.212 -3.56801 -0.206798 0
M  V30 9272 C 838.878 -4.38496 1.05035 0
M  V30 9273 C 837.54 -4.60538 1.39492 0
M  V30 9274 C 839.892 -4.85909 1.88525 0
M  V30 9275 C 837.22 -5.2724 2.57361 0
M  V30 9276 C 839.572 -5.53909 3.05561 0
M  V30 9277 C 838.236 -5.74193 3.4038 0
M  V30 9278 H 837.506 -0.740956 -0.00807238 0
M  V30 9279 H 840.153 -1.79014 0.680168 0
M  V30 9280 H 838.458 -3.79042 -0.991687 0
M  V30 9281 H 840.155 -3.95885 -0.638447 0
M  V30 9282 H 836.745 -4.2159 0.771984 0
M  V30 9283 H 840.929 -4.68694 1.63218 0
M  V30 9284 H 836.185 -5.41145 2.84556 0
M  V30 9285 H 840.359 -5.89619 3.7057 0
M  V30 9286 H 837.986 -6.25652 4.31814 0
M  V30 9287 N 839.561 -0.251338 -1.55583 0
M  V30 9288 C 840.471 0.656978 -2.25213 0
M  V30 9289 C 841.487 1.18966 -1.26977 0
M  V30 9290 O 842.663 1.22499 -1.59862 0
M  V30 9291 C 839.728 1.83527 -2.94141 0
M  V30 9292 C 838.789 1.34162 -4.07798 0
M  V30 9293 C 838.022 2.46375 -4.73429 0
M  V30 9294 O 838.245 3.65205 -4.38157 0
M  V30 9295 O 837.179 2.15881 -5.61853 0
M  V30 9296 H 841.005 0.0936395 -3.03556 0
M  V30 9297 H 838.59 -0.0196638 -1.49387 0
M  V30 9298 H 840.472 2.52279 -3.3754 0
M  V30 9299 H 839.147 2.38614 -2.18735 0
M  V30 9300 H 838.054 0.621249 -3.68906 0
M  V30 9301 H 839.387 0.836779 -4.85035 0
M  V30 9302 N 841.039 1.57585 0.0217189 0
M  V30 9303 C 841.987 2.08134 1.03842 0
M  V30 9304 C 842.981 0.996662 1.36978 0
M  V30 9305 O 844.187 1.18149 1.35797 0
M  V30 9306 H 840.562 0.664298 0.352438 0
M  V30 9307 H 842.533 2.92583 0.58634 0
M  V30 9308 C 841.282 2.58218 2.32849 0
M  V30 9309 H 840.605 3.41302 2.08214 0
M  V30 9310 H 842.045 2.97289 3.02316 0
M  V30 9311 C 840.504 1.48664 3.02325 0
M  V30 9312 O 841.034 0.857075 3.9245 0
M  V30 9313 N 839.24 1.21938 2.63779 0
M  V30 9314 H 838.787 1.73319 1.90574 0
M  V30 9315 H 838.745 0.488523 3.10581 0
M  V30 9316 N 842.517 -0.29412 1.54831 0
M  V30 9317 C 843.447 -1.36757 1.89261 0
M  V30 9318 C 844.428 -1.52564 0.752214 0
M  V30 9319 O 845.613 -1.65958 1.00855 0
M  V30 9320 C 842.743 -2.73066 2.14597 0
M  V30 9321 C 841.697 -2.72017 3.3044 0
M  V30 9322 C 841.023 -4.11679 3.4121 0
M  V30 9323 C 842.323 -2.33149 4.67375 0
M  V30 9324 H 844.017 -1.08191 2.79169 0
M  V30 9325 H 841.563 -0.519014 1.34321 0
M  V30 9326 H 843.516 -3.48255 2.37269 0
M  V30 9327 H 842.24 -3.03172 1.21467 0
M  V30 9328 H 840.899 -1.99285 3.07703 0
M  V30 9329 H 840.547 -4.38973 2.45584 0
M  V30 9330 H 840.247 -4.11877 4.19084 0
M  V30 9331 H 841.771 -4.88637 3.6615 0
M  V30 9332 H 843.185 -2.98054 4.89731 0
M  V30 9333 H 841.582 -2.44546 5.48012 0
M  V30 9334 H 842.652 -1.28275 4.67626 0
M  V30 9335 N 843.995 -1.47404 -0.557645 0
M  V30 9336 C 845.235 -1.55585 -1.32562 0
M  V30 9337 C 845.599 -0.212926 -1.90816 0
M  V30 9338 O 846.8 -0.169574 -2.68265 0
M  V30 9339 C 845.071 -2.64249 -2.40639 0
M  V30 9340 S 846.63 -2.9201 -3.2753 0
M  V30 9341 H 843.448 -0.549409 -0.451298 0
M  V30 9342 H 846.05 -1.84782 -0.638438 0
M  V30 9343 H 844.754 -3.60421 -1.96277 0
M  V30 9344 H 844.285 -2.36866 -3.14099 0
M  V30 9345 H 846.3 -2.29191 -4.40098 0
M  V30 9346 N 845.473 0.80434 -1.35529 0
M  V30 9347 C 846.42 1.91629 -1.28635 0
M  V30 9348 C 847.39 1.65348 -0.157862 0
M  V30 9349 O 848.575 1.87711 -0.341934 0
M  V30 9350 C 845.715 3.28207 -1.0665 0
M  V30 9351 C 844.828 3.66659 -2.28441 0
M  V30 9352 C 843.963 4.92279 -1.99588 0
M  V30 9353 C 843.002 5.23365 -3.1742 0
M  V30 9354 N 842.139 6.40165 -2.88328 0
M  V30 9355 H 846.979 1.96858 -2.23721 0
M  V30 9356 H 844.516 0.962871 -1.11208 0
M  V30 9357 H 846.474 4.06945 -0.919343 0
M  V30 9358 H 845.104 3.22441 -0.152253 0
M  V30 9359 H 844.156 2.83164 -2.54013 0
M  V30 9360 H 845.468 3.8559 -3.1642 0
M  V30 9361 H 844.622 5.78847 -1.81715 0
M  V30 9362 H 843.361 4.75387 -1.08896 0
M  V30 9363 H 842.366 4.35285 -3.35867 0
M  V30 9364 H 843.591 5.42185 -4.08916 0
M  V30 9365 H 841.537 6.24694 -2.00233 0
M  V30 9366 H 841.454 6.59357 -3.69843 0
M  V30 9367 H 842.722 7.29755 -2.74002 0
M  V30 9368 N 846.951 1.19563 1.02676 0
M  V30 9369 C 848.2 0.993864 1.75514 0
M  V30 9370 C 848.513 -0.475882 1.89723 0
M  V30 9371 O 849.719 -0.796525 2.59553 0
M  V30 9372 C 848.175 1.72937 3.15628 0
M  V30 9373 C 847.783 3.23937 3.09466 0
M  V30 9374 C 849.527 1.61092 3.92746 0
M  V30 9375 C 847.434 3.90067 4.44524 0
M  V30 9376 H 846.364 0.368244 0.657961 0
M  V30 9377 H 849.015 1.43081 1.14891 0
M  V30 9378 H 847.397 1.22025 3.76731 0
M  V30 9379 H 848.571 3.81983 2.57731 0
M  V30 9380 H 846.886 3.3608 2.45843 0
M  V30 9381 H 849.483 2.07848 4.92649 0
M  V30 9382 H 849.826 0.565415 4.12442 0
M  V30 9383 H 850.359 2.09361 3.3825 0
M  V30 9384 H 847.098 4.94725 4.30032 0
M  V30 9385 H 846.618 3.36809 4.96306 0
M  V30 9386 H 848.297 3.93736 5.13401 0
M  V30 9387 N 848.429 -1.21819 0.999893 0
M  V30 9388 C 849.362 -2.22635 0.500887 0
M  V30 9389 C 850.34 -1.56459 -0.442636 0
M  V30 9390 O 851.524 -1.84902 -0.366551 0
M  V30 9391 C 848.651 -3.37598 -0.273046 0
M  V30 9392 C 847.697 -4.22006 0.617511 0
M  V30 9393 S 848.53 -4.93583 2.07693 0
M  V30 9394 C 849.686 -6.1198 1.31269 0
M  V30 9395 H 849.919 -2.64618 1.35516 0
M  V30 9396 H 847.452 -1.31606 0.807419 0
M  V30 9397 H 849.41 -4.04251 -0.713515 0
M  V30 9398 H 848.071 -2.94108 -1.10268 0
M  V30 9399 H 847.264 -5.03995 0.0216543 0
M  V30 9400 H 846.866 -3.6052 0.99504 0
M  V30 9401 H 849.158 -6.74979 0.583933 0
M  V30 9402 H 850.101 -6.75991 2.10811 0
M  V30 9403 H 850.509 -5.5847 0.822901 0
M  V30 9404 N 849.908 -0.773975 -1.37286 0
M  V30 9405 C 850.855 -0.159938 -2.30245 0
M  V30 9406 C 851.825 0.687356 -1.51211 0
M  V30 9407 O 853.01 0.639255 -1.79773 0
M  V30 9408 C 850.15 0.711452 -3.37687 0
M  V30 9409 C 849.263 -0.152692 -4.3173 0
M  V30 9410 C 848.398 0.723613 -5.26248 0
M  V30 9411 C 847.437 -0.14293 -6.11933 0
M  V30 9412 N 846.574 0.691479 -6.98687 0
M  V30 9413 H 851.414 -0.958182 -2.82175 0
M  V30 9414 H 848.951 -0.48411 -1.38906 0
M  V30 9415 H 850.909 1.2315 -3.9861 0
M  V30 9416 H 849.539 1.47528 -2.87116 0
M  V30 9417 H 848.591 -0.790574 -3.72094 0
M  V30 9418 H 849.903 -0.821027 -4.91997 0
M  V30 9419 H 849.057 1.31006 -5.92387 0
M  V30 9420 H 847.796 1.42562 -4.66398 0
M  V30 9421 H 846.801 -0.7419 -5.44771 0
M  V30 9422 H 848.026 -0.842305 -6.73856 0
M  V30 9423 H 845.972 1.37806 -6.41362 0
M  V30 9424 H 845.889 0.0804911 -7.55957 0
M  V30 9425 H 847.157 1.26225 -7.69212 0
M  V30 9426 N 851.386 1.48609 -0.524698 0
M  V30 9427 C 852.663 1.95454 0.075465 0
M  V30 9428 C 853.043 1.46682 1.51814 0
M  V30 9429 O 852.391 0.690975 2.17802 0
M  V30 9430 C 852.601 3.48981 -0.0363273 0
M  V30 9431 C 853.949 4.24414 0.125624 0
M  V30 9432 O 854.973 3.5618 0.0377239 0
M  V30 9433 O 853.832 5.45625 0.309104 0
M  V30 9434 H 850.926 0.822902 0.0822256 0
M  V30 9435 H 853.472 1.59153 -0.588921 0
M  V30 9436 H 852.244 3.77185 -1.04149 0
M  V30 9437 H 851.867 3.91963 0.667146 0
M  V30 9438 N 852.864 0.259585 1.55447 0
M  V30 9439 C 854.113 -0.362163 1.98422 0
M  V30 9440 C 854.426 -1.58135 1.1512 0
M  V30 9441 O 855.632 -2.27506 1.48166 0
M  V30 9442 C 854.088 -0.695722 3.53111 0
M  V30 9443 C 853.696 0.502784 4.4517 0
M  V30 9444 C 855.44 -1.28096 4.04712 0
M  V30 9445 C 853.347 0.144674 5.91223 0
M  V30 9446 H 852.277 -0.139092 0.74106 0
M  V30 9447 H 854.928 0.361798 1.79898 0
M  V30 9448 H 853.31 -1.47816 3.67378 0
M  V30 9449 H 854.484 1.27994 4.42667 0
M  V30 9450 H 852.799 1.0038 4.0412 0
M  V30 9451 H 855.396 -1.56243 5.11363 0
M  V30 9452 H 855.739 -2.20969 3.52815 0
M  V30 9453 H 856.272 -0.561146 3.93822 0
M  V30 9454 H 853.011 1.04087 6.47183 0
M  V30 9455 H 852.531 -0.596023 5.96831 0
M  V30 9456 H 854.21 -0.268651 6.46442 0
M  V30 9457 N 854.342 -1.57594 -0.0133615 0
M  V30 9458 C 855.272 -2.10611 -1.00823 0
M  V30 9459 C 856.253 -1.01217 -1.36708 0
M  V30 9460 O 857.438 -1.28827 -1.45318 0
M  V30 9461 C 854.568 -2.59844 -2.30431 0
M  V30 9462 C 853.522 -3.73644 -2.08745 0
M  V30 9463 C 852.848 -4.09141 -3.4425 0
M  V30 9464 C 854.148 -5.01454 -1.46086 0
M  V30 9465 H 855.842 -2.93985 -0.566849 0
M  V30 9466 H 853.388 -1.41423 -0.271219 0
M  V30 9467 H 855.341 -2.95557 -3.00373 0
M  V30 9468 H 854.065 -1.73573 -2.76658 0
M  V30 9469 H 852.724 -3.38303 -1.41232 0
M  V30 9470 H 852.372 -3.19914 -3.88155 0
M  V30 9471 H 852.072 -4.85802 -3.3056 0
M  V30 9472 H 853.596 -4.47402 -4.15528 0
M  V30 9473 H 855.01 -5.35024 -2.05966 0
M  V30 9474 H 853.407 -5.82832 -1.42924 0
M  V30 9475 H 854.477 -4.83003 -0.428471 0
M  V30 9476 N 855.82 0.285905 -1.54985 0
M  V30 9477 C 856.73 1.37534 -1.90057 0
M  V30 9478 C 857.746 1.54707 -0.796348 0
M  V30 9479 O 858.922 1.69082 -1.09423 0
M  V30 9480 C 855.987 2.7167 -2.15398 0
M  V30 9481 C 855.048 2.63354 -3.39033 0
M  V30 9482 C 854.281 3.91093 -3.63155 0
M  V30 9483 O 854.504 4.91169 -2.90015 0
M  V30 9484 O 853.438 3.92075 -4.56685 0
M  V30 9485 H 857.264 1.10791 -2.8277 0
M  V30 9486 H 854.849 0.483303 -1.41367 0
M  V30 9487 H 856.731 3.51006 -2.33179 0
M  V30 9488 H 855.406 2.98226 -1.25868 0
M  V30 9489 H 854.313 1.82438 -3.26599 0
M  V30 9490 H 855.646 2.41749 -4.2874 0
M  V30 9491 N 857.298 1.47698 0.54982 0
M  V30 9492 C 858.245 1.60739 1.65625 0
M  V30 9493 C 859.215 0.450129 1.59884 0
M  V30 9494 O 860.4 0.671123 1.78607 0
M  V30 9495 C 857.54 1.63457 3.03934 0
M  V30 9496 C 856.653 2.90152 3.20056 0
M  V30 9497 C 855.788 2.84157 4.48807 0
M  V30 9498 C 854.827 4.05644 4.58387 0
M  V30 9499 N 853.964 3.97843 5.78503 0
M  V30 9500 H 858.804 2.55234 1.53817 0
M  V30 9501 H 856.341 1.26593 0.749173 0
M  V30 9502 H 858.299 1.63015 3.84034 0
M  V30 9503 H 856.929 0.724689 3.1456 0
M  V30 9504 H 855.981 3.00428 2.33339 0
M  V30 9505 H 857.293 3.80097 3.22998 0
M  V30 9506 H 856.447 2.82006 5.37175 0
M  V30 9507 H 855.186 1.91908 4.48356 0
M  V30 9508 H 854.191 4.08092 3.6843 0
M  V30 9509 H 855.416 4.9903 4.60593 0
M  V30 9510 H 853.362 3.08401 5.78986 0
M  V30 9511 H 853.279 4.81473 5.82855 0
M  V30 9512 H 854.547 3.99719 6.69212 0
M  V30 9513 N 858.776 -0.797141 1.35954 0
M  V30 9514 C 859.723 -1.90944 1.2965 0
M  V30 9515 C 860.693 -1.65262 0.166628 0
M  V30 9516 O 861.878 -1.87527 0.351883 0
M  V30 9517 C 859.018 -3.27637 1.08389 0
M  V30 9518 C 858.131 -3.65442 2.30382 0
M  V30 9519 C 857.266 -4.91213 2.02195 0
M  V30 9520 C 856.305 -5.21674 3.20191 0
M  V30 9521 N 855.442 -6.38627 2.91719 0
M  V30 9522 H 860.282 -1.95668 2.24762 0
M  V30 9523 H 857.819 -0.95696 1.11717 0
M  V30 9524 H 859.777 -4.06451 0.940912 0
M  V30 9525 H 858.407 -3.22355 0.169351 0
M  V30 9526 H 857.459 -2.81813 2.55511 0
M  V30 9527 H 858.771 -3.83907 3.18461 0
M  V30 9528 H 857.925 -5.77876 1.84783 0
M  V30 9529 H 856.664 -4.74803 1.11416 0
M  V30 9530 H 855.669 -4.33498 3.38171 0
M  V30 9531 H 856.894 -5.40009 4.11786 0
M  V30 9532 H 854.84 -6.23623 2.03543 0
M  V30 9533 H 854.757 -6.57387 3.73334 0
M  V30 9534 H 856.025 -7.28292 2.77868 0
M  V30 9535 N 860.254 -1.20106 -1.0204 0
M  V30 9536 C 861.5 -1.01039 -1.75838 0
M  V30 9537 C 861.833 0.456819 -1.88751 0
M  V30 9538 O 861.108 1.33919 -1.41053 0
M  V30 9539 C 861.391 -1.69009 -3.17975 0
M  V30 9540 C 861.244 -3.2315 -3.1288 0
M  V30 9541 C 862.563 -1.42005 -4.16561 0
M  V30 9542 H 859.682 -0.368465 -0.638281 0
M  V30 9543 H 862.324 -1.48066 -1.19064 0
M  V30 9544 H 860.474 -1.29026 -3.66449 0
M  V30 9545 H 862.146 -3.72402 -2.72239 0
M  V30 9546 H 860.389 -3.54253 -2.50374 0
M  V30 9547 H 861.06 -3.65862 -4.13339 0
M  V30 9548 H 863.536 -1.76685 -3.76725 0
M  V30 9549 H 862.412 -1.92101 -5.14187 0
M  V30 9550 H 862.673 -0.346884 -4.40737 0
M  V30 9551 N 861.732 1.21287 -1.00634 0
M  V30 9552 C 862.642 2.27388 -0.577226 0
M  V30 9553 C 863.658 1.69791 0.380399 0
M  V30 9554 O 864.834 1.99918 0.2439 0
M  V30 9555 C 861.899 3.46588 0.0880532 0
M  V30 9556 C 860.96 4.19453 -0.914222 0
M  V30 9557 C 860.193 5.32962 -0.280596 0
M  V30 9558 O 860.416 5.62895 0.922265 0
M  V30 9559 O 859.35 5.93666 -0.992196 0
M  V30 9560 H 863.176 2.66289 -1.46028 0
M  V30 9561 H 860.761 1.2771 -0.775283 0
M  V30 9562 H 862.643 4.18881 0.460094 0
M  V30 9563 H 861.318 3.09585 0.945461 0
M  V30 9564 H 860.225 3.49376 -1.33744 0
M  V30 9565 H 861.558 4.6037 -1.74126 0
M  V30 9566 N 863.21 0.781244 1.36873 0
M  V30 9567 C 864.157 0.172146 2.30157 0
M  V30 9568 C 865.127 -0.679328 1.51573 0
M  V30 9569 O 866.312 -0.629713 1.80109 0
M  V30 9570 C 863.452 -0.693534 3.38059 0
M  V30 9571 C 862.565 0.175586 4.31643 0
M  V30 9572 C 861.7 -0.695695 5.26625 0
M  V30 9573 C 860.739 0.17538 6.11849 0
M  V30 9574 N 859.876 -0.654416 6.99043 0
M  V30 9575 H 864.716 0.973133 2.81663 0
M  V30 9576 H 862.253 0.491469 1.38647 0
M  V30 9577 H 864.211 -1.21035 3.99257 0
M  V30 9578 H 862.841 -1.46003 2.87894 0
M  V30 9579 H 861.893 0.810295 3.7167 0
M  V30 9580 H 863.205 0.847107 4.91554 0
M  V30 9581 H 862.359 -1.27863 5.93073 0
M  V30 9582 H 861.098 -1.40087 4.67148 0
M  V30 9583 H 860.103 0.77078 5.4437 0
M  V30 9584 H 861.328 0.87803 6.734 0
M  V30 9585 H 859.274 -1.34403 6.42084 0
M  V30 9586 H 859.191 -0.0403998 7.55989 0
M  V30 9587 H 860.459 -1.22144 7.69871 0
M  V30 9588 N 864.689 -1.48329 0.532571 0
M  V30 9589 C 865.935 -2.028 -0.000583219 0
M  V30 9590 C 866.268 -1.40858 -1.33688 0
M  V30 9591 O 865.543 -0.555261 -1.86406 0
M  V30 9592 C 865.826 -3.59901 -0.119846 0
M  V30 9593 C 865.679 -4.32318 1.2418 0
M  V30 9594 C 866.998 -4.31904 -0.845372 0
M  V30 9595 H 864.117 -0.736999 0.00126205 0
M  V30 9596 H 866.759 -1.77024 0.690102 0
M  V30 9597 H 864.909 -3.81993 -0.708092 0
M  V30 9598 H 866.581 -4.21637 1.87136 0
M  V30 9599 H 864.824 -3.93635 1.82301 0
M  V30 9600 H 865.495 -5.40697 1.11132 0
M  V30 9601 H 867.971 -4.14658 -0.346159 0
M  V30 9602 H 866.847 -5.41509 -0.897723 0
M  V30 9603 H 867.108 -3.99369 -1.89622 0
M  V30 9604 N 866.167 -0.267825 -1.55308 0
M  V30 9605 C 867.413 0.351556 -1.9973 0
M  V30 9606 C 867.746 1.56049 -1.15596 0
M  V30 9607 O 867.021 1.93203 -0.224274 0
M  V30 9608 C 867.304 0.74091 -3.52395 0
M  V30 9609 C 867.157 -0.474861 -4.47286 0
M  V30 9610 C 868.476 1.5801 -4.10756 0
M  V30 9611 H 865.595 0.126308 -0.726096 0
M  V30 9612 H 868.237 -0.373316 -1.86296 0
M  V30 9613 H 866.387 1.35851 -3.63973 0
M  V30 9614 H 868.059 -1.1134 -4.47662 0
M  V30 9615 H 866.302 -1.11425 -4.19246 0
M  V30 9616 H 866.973 -0.158782 -5.51772 0
M  V30 9617 H 869.449 1.05857 -4.0241 0
M  V30 9618 H 868.325 1.82135 -5.17801 0
M  V30 9619 H 868.586 2.55878 -3.60526 0
M  V30 9620 N 867.645 1.57599 0.00500368 0
M  V30 9621 C 868.891 1.90631 0.691919 0
M  V30 9622 C 869.224 0.868443 1.737 0
M  V30 9623 O 868.499 -0.113482 1.94169 0
M  V30 9624 C 868.782 3.34255 1.33961 0
M  V30 9625 C 868.635 4.48755 0.306413 0
M  V30 9626 C 869.954 3.77211 2.26715 0
M  V30 9627 H 867.073 0.693279 0.250066 0
M  V30 9628 H 869.715 1.89946 -0.0452634 0
M  V30 9629 H 867.865 3.3497 1.96793 0
M  V30 9630 H 869.537 4.60176 -0.321841 0
M  V30 9631 H 867.78 4.32203 -0.371852 0
M  V30 9632 H 868.451 5.46193 0.798554 0
M  V30 9633 H 870.927 3.78017 1.73904 0
M  V30 9634 H 869.803 4.78466 2.69002 0
M  V30 9635 H 870.064 3.10801 3.14413 0
M  V30 9636 N 869.123 -0.277682 1.55134 0
M  V30 9637 C 870.348 -1.03254 1.7987 0
M  V30 9638 C 870.773 -1.79324 0.567861 0
M  V30 9639 O 870.131 -1.74764 -0.4824 0
M  V30 9640 C 870.179 -1.9705 3.02 0
M  V30 9641 O 869.283 -3.05744 2.76757 0
M  V30 9642 H 868.624 -0.295447 0.594649 0
M  V30 9643 H 871.154 -0.308013 2.02268 0
M  V30 9644 H 871.164 -2.3909 3.30606 0
M  V30 9645 H 869.839 -1.41094 3.91236 0
M  V30 9646 H 868.416 -2.68052 2.59235 0
M  V30 9647 N 870.601 -1.47988 -0.541979 0
M  V30 9648 C 871.549 -1.62044 -1.66867 0
M  V30 9649 C 872.543 -0.487217 -1.62242 0
M  V30 9650 O 873.749 -0.66554 -1.67244 0
M  V30 9651 H 870.124 -0.51024 -0.552412 0
M  V30 9652 H 872.095 -2.56695 -1.52153 0
M  V30 9653 C 870.844 -1.66615 -3.0518 0
M  V30 9654 H 870.167 -2.5317 -3.09427 0
M  V30 9655 H 871.607 -1.80496 -3.83663 0
M  V30 9656 C 870.066 -0.402421 -3.34488 0
M  V30 9657 O 870.596 0.48992 -3.98701 0
M  V30 9658 N 868.802 -0.277778 -2.89269 0
M  V30 9659 H 868.349 -1.00488 -2.37192 0
M  V30 9660 H 868.307 0.566784 -3.09249 0
M  V30 9661 N 872.079 0.78992 -1.36375 0
M  V30 9662 C 873.495 1.0879 -1.16777 0
M  V30 9663 C 873.695 2.01498 0.00848236 0
M  V30 9664 O 872.751 2.43338 0.674007 0
M  V30 9665 C 874.064 1.70285 -2.47837 0
M  V30 9666 C 875.612 1.82629 -2.54196 0
M  V30 9667 C 876.087 2.47539 -3.85342 0
M  V30 9668 N 877.578 2.55008 -3.86685 0
M  V30 9669 C 878.313 3.06041 -4.84898 0
M  V30 9670 N 877.809 3.57385 -5.93505 0
M  V30 9671 N 879.602 3.04748 -4.72319 0
M  V30 9672 H 871.753 0.173985 -2.11686 0
M  V30 9673 H 874.016 0.139798 -0.937636 0
M  V30 9674 H 873.722 1.09633 -3.34176 0
M  V30 9675 H 873.596 2.69799 -2.63607 0
M  V30 9676 H 875.983 2.42419 -1.68276 0
M  V30 9677 H 876.064 0.81923 -2.42327 0
M  V30 9678 H 875.708 1.88393 -4.71668 0
M  V30 9679 H 875.638 3.48815 -3.94507 0
M  V30 9680 H 878.129 2.18651 -3.08221 0
M  V30 9681 H 878.442 3.94674 -6.64419 0
M  V30 9682 H 876.787 3.55538 -5.97175 0
M  V30 9683 H 879.978 2.63925 -3.86602 0
M  V30 9684 H 880.151 3.44212 -5.49019 0
M  V30 9685 N 873.557 1.20646 1.01402 0
M  V30 9686 C 874.487 0.98155 2.11867 0
M  V30 9687 C 875.468 -0.0903712 1.6986 0
M  V30 9688 O 876.653 0.0676586 1.94082 0
M  V30 9689 C 873.783 0.535636 3.43145 0
M  V30 9690 C 872.737 1.55109 3.98905 0
M  V30 9691 C 872.063 0.961725 5.2598 0
M  V30 9692 C 873.363 2.93552 4.32001 0
M  V30 9693 H 875.057 1.90544 2.3094 0
M  V30 9694 H 872.603 0.917554 1.10982 0
M  V30 9695 H 874.556 0.365512 4.19812 0
M  V30 9696 H 873.28 -0.423882 3.23838 0
M  V30 9697 H 871.939 1.70862 3.24348 0
M  V30 9698 H 871.587 -0.00580108 5.03 0
M  V30 9699 H 871.287 1.63993 5.64252 0
M  V30 9700 H 872.811 0.802726 6.053 0
M  V30 9701 H 874.225 2.81295 4.99546 0
M  V30 9702 H 872.622 3.58303 4.81393 0
M  V30 9703 H 873.692 3.4508 3.40658 0
M  V30 9704 N 875.035 -1.20752 1.01276 0
M  V30 9705 C 876.281 -1.90302 0.700924 0
M  V30 9706 C 876.614 -1.78406 -0.767142 0
M  V30 9707 O 875.889 -1.16575 -1.55694 0
M  V30 9708 C 876.172 -3.41831 1.13242 0
M  V30 9709 C 876.025 -3.6268 2.66051 0
M  V30 9710 C 877.344 -4.34486 0.700738 0
M  V30 9711 H 874.463 -0.69107 0.256107 0
M  V30 9712 H 877.105 -1.42227 1.25982 0
M  V30 9713 H 875.255 -3.82906 0.656902 0
M  V30 9714 H 876.927 -3.30882 3.21426 0
M  V30 9715 H 875.17 -3.06281 3.07204 0
M  V30 9716 H 875.841 -4.68882 2.91296 0
M  V30 9717 H 878.317 -4.01036 1.10948 0
M  V30 9718 H 877.193 -5.39136 1.03073 0
M  V30 9719 H 877.454 -4.40307 -0.39778 0
M  V30 9720 N 876.513 -0.788492 -1.36457 0
M  V30 9721 C 877.741 -0.372365 -2.03522 0
M  V30 9722 C 878.156 1.01093 -1.59454 0
M  V30 9723 O 877.513 1.64824 -0.783535 0
M  V30 9724 C 877.564 -0.425435 -3.58988 0
M  V30 9725 O 877.285 -1.75418 -4.01448 0
M  V30 9726 C 878.786 0.000180167 -4.433 0
M  V30 9727 H 876.006 -0.1536 -0.653183 0
M  V30 9728 H 878.55 -1.06708 -1.74452 0
M  V30 9729 H 876.705 0.220856 -3.8677 0
M  V30 9730 H 877.119 -1.70437 -4.96036 0
M  V30 9731 H 878.593 -0.0880919 -5.5193 0
M  V30 9732 H 879.07 1.05269 -4.26398 0
M  V30 9733 H 879.676 -0.618563 -4.20778 0
M  V30 9734 N 877.991 1.48044 -0.54043 0
M  V30 9735 C 879.216 2.07396 -0.0124765 0
M  V30 9736 C 879.641 1.39288 1.26414 0
M  V30 9737 O 878.999 0.462252 1.75308 0
M  V30 9738 C 879.047 3.60131 0.18377 0
M  V30 9739 O 878.151 3.92995 1.25014 0
M  V30 9740 H 877.492 0.662554 -0.0438026 0
M  V30 9741 H 880.022 1.90306 -0.751327 0
M  V30 9742 H 880.032 4.06003 0.403197 0
M  V30 9743 H 878.707 4.09105 -0.74874 0
M  V30 9744 H 877.284 3.5889 1.01254 0
M  V30 9745 N 879.47 0.276058 1.55163 0
M  V30 9746 C 880.881 -0.221516 1.85381 0
M  V30 9747 C 881.232 -1.55372 1.19808 0
M  V30 9748 O 880.357 -2.10855 0.486742 0
M  V30 9749 C 880.952 -0.408706 3.36326 0
M  V30 9750 C 879.511 -0.850512 3.66665 0
M  V30 9751 C 878.658 0.055656 2.77244 0
M  V30 9752 H 881.609 0.497819 1.5069 0
M  V30 9753 H 881.63 -1.24711 3.59482 0
M  V30 9754 H 881.142 0.561052 3.84023 0
M  V30 9755 H 879.243 -1.83171 3.24468 0
M  V30 9756 H 879.356 -0.687181 4.74146 0
M  V30 9757 H 877.72 -0.460819 2.50497 0
M  V30 9758 H 878.503 1.02131 3.27756 0
M  V30 9759 N 880.948 -1.576 0.00335426 0
M  V30 9760 C 882.188 -1.92571 -0.685253 0
M  V30 9761 C 882.552 -0.877961 -1.70751 0
M  V30 9762 O 883.753 -1.11303 -2.44673 0
M  V30 9763 C 882.024 -3.3258 -1.30863 0
M  V30 9764 S 883.583 -3.89442 -2.02189 0
M  V30 9765 H 880.401 -0.674035 -0.226268 0
M  V30 9766 H 883.003 -1.95405 0.0608461 0
M  V30 9767 H 881.707 -4.06673 -0.551837 0
M  V30 9768 H 881.238 -3.33128 -2.09259 0
M  V30 9769 H 883.253 -3.70789 -3.29742 0
M  V30 9770 N 882.426 0.269451 -1.5528 0
M  V30 9771 C 883.666 1.00819 -1.77806 0
M  V30 9772 C 884.03 1.83369 -0.569198 0
M  V30 9773 O 885.231 2.60244 -0.672783 0
M  V30 9774 C 883.502 1.86447 -3.04913 0
M  V30 9775 S 885.061 2.66538 -3.48573 0
M  V30 9776 H 881.879 0.339508 -0.624704 0
M  V30 9777 H 884.481 0.278256 -1.9351 0
M  V30 9778 H 883.185 1.24733 -3.90986 0
M  V30 9779 H 882.716 2.63755 -2.91885 0
M  V30 9780 H 884.731 3.88938 -3.08126 0
M  V30 9781 N 883.904 1.48273 0.534124 0
M  V30 9782 C 885.153 1.55334 1.28663 0
M  V30 9783 C 885.466 0.230345 1.94239 0
M  V30 9784 O 886.672 0.179161 2.70908 0
M  V30 9785 C 885.128 2.73927 2.33435 0
M  V30 9786 C 884.736 4.12852 1.73947 0
M  V30 9787 C 886.48 2.90298 3.09722 0
M  V30 9788 C 884.387 5.22711 2.76636 0
M  V30 9789 H 883.317 0.578262 0.483869 0
M  V30 9790 H 885.968 1.74598 0.564602 0
M  V30 9791 H 884.35 2.48089 3.08655 0
M  V30 9792 H 885.524 4.48691 1.04944 0
M  V30 9793 H 883.839 4.01562 1.10167 0
M  V30 9794 H 886.436 3.69542 3.86449 0
M  V30 9795 H 886.779 1.99598 3.6533 0
M  V30 9796 H 887.312 3.16017 2.41616 0
M  V30 9797 H 884.051 6.15362 2.25852 0
M  V30 9798 H 883.571 4.91364 3.43979 0
M  V30 9799 H 885.25 5.50648 3.39699 0
M  V30 9800 N 885.382 -0.782676 1.36792 0
M  V30 9801 C 886.628 -1.54311 1.3159 0
M  V30 9802 C 886.961 -1.93928 -0.102696 0
M  V30 9803 O 886.236 -1.63233 -1.05761 0
M  V30 9804 C 886.519 -2.81561 2.24489 0
M  V30 9805 C 886.372 -2.48268 3.75078 0
M  V30 9806 C 887.691 -3.83428 2.16034 0
M  V30 9807 H 884.81 -0.559828 0.479335 0
M  V30 9808 H 887.452 -0.898717 1.67401 0
M  V30 9809 H 885.602 -3.36549 1.9408 0
M  V30 9810 H 887.274 -1.99279 4.16036 0
M  V30 9811 H 885.517 -1.81116 3.94182 0
M  V30 9812 H 886.188 -3.39183 4.35499 0
M  V30 9813 H 888.664 -3.37905 2.42815 0
M  V30 9814 H 887.54 -4.70204 2.83194 0
M  V30 9815 H 887.801 -4.26887 1.14976 0
M  V30 9816 N 886.86 -1.21182 -1.00761 0
M  V30 9817 C 888.088 -1.05335 -1.78079 0
M  V30 9818 C 888.503 0.396988 -1.84579 0
M  V30 9819 O 887.86 1.27548 -1.30529 0
M  V30 9820 C 887.911 -1.64089 -3.22113 0
M  V30 9821 O 887.632 -3.03448 -3.15992 0
M  V30 9822 C 889.133 -1.53318 -4.15943 0
M  V30 9823 H 886.353 -0.37005 -0.559736 0
M  V30 9824 H 888.897 -1.60463 -1.26775 0
M  V30 9825 H 887.052 -1.13059 -3.70535 0
M  V30 9826 H 887.466 -3.31492 -4.06465 0
M  V30 9827 H 888.94 -1.99174 -5.14814 0
M  V30 9828 H 889.417 -0.487166 -4.3649 0
M  V30 9829 H 890.023 -2.03582 -3.73409 0
M  V30 9830 N 888.338 1.20213 -1.01915 0
M  V30 9831 C 889.563 1.94163 -0.729076 0
M  V30 9832 C 889.988 1.74416 0.704323 0
M  V30 9833 O 889.346 1.0401 1.48498 0
M  V30 9834 C 889.394 3.44258 -1.07324 0
M  V30 9835 O 888.498 4.11979 -0.186367 0
M  V30 9836 H 887.839 0.606506 -0.270272 0
M  V30 9837 H 890.369 1.52571 -1.3632 0
M  V30 9838 H 890.379 3.94888 -1.02603 0
M  V30 9839 H 889.054 3.57954 -2.11759 0
M  V30 9840 H 887.631 3.7176 -0.291334 0
M  V30 9841 N 889.816 0.795718 1.36037 0
M  V30 9842 C 891.044 0.383153 2.03321 0
M  V30 9843 C 891.459 -1.00246 1.59988 0
M  V30 9844 O 890.816 -1.64406 0.792265 0
M  V30 9845 C 890.867 0.444467 3.58757 0
M  V30 9846 O 890.588 1.77544 4.00512 0
M  V30 9847 C 892.089 0.0233291 4.43294 0
M  V30 9848 H 889.309 0.157061 0.652359 0
M  V30 9849 H 891.853 1.07632 1.73884 0
M  V30 9850 H 890.008 -0.200341 3.86882 0
M  V30 9851 H 890.422 1.73065 4.95125 0
M  V30 9852 H 891.896 0.117361 5.51875 0
M  V30 9853 H 892.373 -1.03007 4.2695 0
M  V30 9854 H 892.979 0.64087 4.20444 0
M  V30 9855 N 891.294 -1.47756 0.548274 0
M  V30 9856 C 892.524 -2.06584 0.0254503 0
M  V30 9857 C 892.932 -1.40268 -1.26971 0
M  V30 9858 O 892.275 -0.49019 -1.77039 0
M  V30 9859 C 892.337 -3.58628 -0.250301 0
M  V30 9860 C 892.001 -4.4693 0.954087 0
M  V30 9861 C 892.998 -4.85592 1.85733 0
M  V30 9862 C 890.683 -4.88573 1.16624 0
M  V30 9863 C 892.677 -5.64686 2.95648 0
M  V30 9864 C 890.364 -5.67435 2.2685 0
M  V30 9865 C 891.362 -6.05401 3.16194 0
M  V30 9866 O 891.05 -6.82676 4.24511 0
M  V30 9867 H 890.782 -0.67489 0.0387264 0
M  V30 9868 H 893.336 -1.90876 0.758663 0
M  V30 9869 H 891.566 -3.72516 -1.03771 0
M  V30 9870 H 893.255 -3.9951 -0.717419 0
M  V30 9871 H 894.021 -4.54026 1.70544 0
M  V30 9872 H 889.9 -4.58494 0.480039 0
M  V30 9873 H 893.444 -5.9424 3.65411 0
M  V30 9874 H 889.341 -5.98413 2.42016 0
M  V30 9875 H 890.109 -7.01057 4.22447 0
M  V30 9876 N 892.772 -0.284283 -1.55015 0
M  V30 9877 C 894.02 0.329212 -1.99401 0
M  V30 9878 C 894.341 1.55687 -1.17416 0
M  V30 9879 O 893.611 1.94087 -0.265937 0
M  V30 9880 H 892.191 0.12463 -0.73653 0
M  V30 9881 H 894.853 -0.391743 -1.90922 0
M  V30 9882 H 893.949 0.61278 -3.06025 0
M  V30 9883 N 894.251 1.57596 -0.0117121 0
M  V30 9884 C 895.497 1.92189 0.665966 0
M  V30 9885 C 895.852 0.887145 1.70726 0
M  V30 9886 O 895.145 -0.099151 1.91343 0
M  V30 9887 C 895.339 3.31296 1.34082 0
M  V30 9888 C 895.168 4.48205 0.366406 0
M  V30 9889 C 893.938 5.05293 -0.0274458 0
M  V30 9890 C 896.136 5.12951 -0.37219 0
M  V30 9891 N 894.118 6.0572 -0.998846 0
M  V30 9892 C 895.489 6.08318 -1.1979 0
M  V30 9893 C 897.544 4.95998 -0.434768 0
M  V30 9894 C 896.247 6.88555 -2.0805 0
M  V30 9895 C 898.273 5.7683 -1.30464 0
M  V30 9896 C 897.635 6.71798 -2.11816 0
M  V30 9897 H 893.734 0.751422 0.216537 0
M  V30 9898 H 896.318 1.94556 -0.0748079 0
M  V30 9899 H 894.489 3.2978 2.05182 0
M  V30 9900 H 896.221 3.53285 1.97413 0
M  V30 9901 H 892.976 4.72354 0.343382 0
M  V30 9902 H 893.4 6.60619 -1.48027 0
M  V30 9903 H 898.042 4.22417 0.179925 0
M  V30 9904 H 895.76 7.61453 -2.70581 0
M  V30 9905 H 899.346 5.6575 -1.35712 0
M  V30 9906 H 898.226 7.33256 -2.78037 0
M  V30 9907 N 895.729 -0.261212 1.5542 0
M  V30 9908 C 896.957 -1.00916 1.8062 0
M  V30 9909 C 897.372 -1.79494 0.585444 0
M  V30 9910 O 896.729 -1.76974 -0.445702 0
M  V30 9911 C 896.78 -1.95841 3.03856 0
M  V30 9912 O 896.501 -1.20445 4.21218 0
M  V30 9913 C 898.002 -2.82352 3.41749 0
M  V30 9914 H 895.222 -0.297596 0.601397 0
M  V30 9915 H 897.766 -0.288427 2.02456 0
M  V30 9916 H 895.921 -2.63361 2.84112 0
M  V30 9917 H 896.335 -1.84528 4.90968 0
M  V30 9918 H 897.809 -3.44733 4.31118 0
M  V30 9919 H 898.286 -3.5273 2.61683 0
M  V30 9920 H 898.892 -2.20306 3.63793 0
M  V30 9921 N 897.207 -1.48554 -0.526253 0
M  V30 9922 C 898.17 -1.62868 -1.61266 0
M  V30 9923 C 899.17 -0.501762 -1.52771 0
M  V30 9924 O 900.36 -0.76764 -1.56374 0
M  V30 9925 C 897.492 -1.60238 -3.00893 0
M  V30 9926 H 898.685 -2.59742 -1.49913 0
M  V30 9927 H 896.238 -1.37207 -0.748595 0
M  V30 9928 H 896.973 -0.648545 -3.17749 0
M  V30 9929 H 896.758 -2.42054 -3.08468 0
M  V30 9930 H 898.248 -1.73455 -3.79872 0
M  V30 9931 N 898.685 0.775411 -1.37205 0
M  V30 9932 C 899.633 1.90996 -1.32752 0
M  V30 9933 C 900.627 1.68006 -0.216907 0
M  V30 9934 O 901.833 1.7584 -0.384723 0
M  V30 9935 H 898.208 0.62803 -0.413621 0
M  V30 9936 H 900.179 1.91869 -2.28536 0
M  V30 9937 C 898.928 3.28211 -1.14772 0
M  V30 9938 H 898.251 3.46477 -1.99484 0
M  V30 9939 H 899.691 4.07907 -1.15706 0
M  V30 9940 C 898.15 3.3658 0.146852 0
M  V30 9941 O 898.68 3.85428 1.13173 0
M  V30 9942 N 896.886 2.89936 0.196305 0
M  V30 9943 H 896.433 2.50375 -0.605807 0
M  V30 9944 H 896.391 2.95916 1.06212 0
M  V30 9945 N 900.163 1.21714 1.00117 0
M  V30 9946 C 901.096 0.923113 2.08696 0
M  V30 9947 C 902.074 -0.130827 1.62073 0
M  V30 9948 O 903.258 -0.00103064 1.885 0
M  V30 9949 C 900.385 0.386807 3.36484 0
M  V30 9950 C 899.431 1.42414 4.0202 0
M  V30 9951 S 900.264 2.99466 4.43937 0
M  V30 9952 C 901.42 2.47452 5.74907 0
M  V30 9953 H 901.653 1.84258 2.33315 0
M  V30 9954 H 899.186 1.0473 1.1345 0
M  V30 9955 H 901.144 0.0839547 4.10414 0
M  V30 9956 H 899.805 -0.511413 3.09909 0
M  V30 9957 H 898.998 0.998593 4.94008 0
M  V30 9958 H 898.6 1.67527 3.34381 0
M  V30 9959 H 900.892 1.88177 6.50842 0
M  V30 9960 H 901.835 3.37898 6.22279 0
M  V30 9961 H 902.243 1.89027 5.31911 0
M  V30 9962 N 901.641 -1.19671 1.02551 0
M  V30 9963 C 902.551 -2.26441 0.613329 0
M  V30 9964 C 903.567 -1.70375 -0.353339 0
M  V30 9965 O 904.743 -2.0028 -0.212064 0
M  V30 9966 C 901.808 -3.46684 -0.0329028 0
M  V30 9967 C 900.869 -4.17945 0.980837 0
M  V30 9968 C 900.102 -5.32448 0.36535 0
M  V30 9969 O 900.325 -5.64291 -0.832596 0
M  V30 9970 O 899.259 -5.92012 1.08652 0
M  V30 9971 H 903.085 -2.63932 1.50246 0
M  V30 9972 H 900.67 -1.2646 0.795502 0
M  V30 9973 H 902.552 -4.1956 -0.393395 0
M  V30 9974 H 901.227 -3.1105 -0.896089 0
M  V30 9975 H 900.134 -3.47204 1.39286 0
M  V30 9976 H 901.467 -4.57542 1.81428 0
M  V30 9977 N 903.119 -0.802921 -1.35613 0
M  V30 9978 C 904.535 -0.486214 -1.52014 0
M  V30 9979 C 904.735 0.993219 -1.75321 0
M  V30 9980 O 903.791 1.77835 -1.79251 0
M  V30 9981 C 905.104 -1.32839 -2.69767 0
M  V30 9982 C 906.652 -1.32346 -2.83643 0
M  V30 9983 C 907.127 -2.14967 -4.04417 0
M  V30 9984 N 908.618 -2.12484 -4.11588 0
M  V30 9985 C 909.353 -2.73173 -5.04147 0
M  V30 9986 N 908.849 -3.42774 -6.02061 0
M  V30 9987 N 910.642 -2.62834 -4.96865 0
M  V30 9988 H 902.793 -1.76109 -1.18741 0
M  V30 9989 H 905.056 -0.74936 -0.580658 0
M  V30 9990 H 904.762 -2.37813 -2.5911 0
M  V30 9991 H 904.636 -0.979058 -3.64272 0
M  V30 9992 H 907.023 -0.281586 -2.93753 0
M  V30 9993 H 907.104 -1.71264 -1.90006 0
M  V30 9994 H 906.748 -3.19193 -3.95068 0
M  V30 9995 H 906.678 -1.73411 -4.97228 0
M  V30 9996 H 909.169 -1.61839 -3.41492 0
M  V30 9997 H 909.482 -3.86378 -6.69277 0
M  V30 9998 H 907.827 -3.46878 -6.02246 0
M  V30 9999 H 911.018 -2.08049 -4.19325 0
M  V30 10000 H 911.191 -3.10421 -5.68808 0
M  V30 10001 N 904.597 1.47463 -0.556102 0
M  V30 10002 C 905.846 2.01678 -0.029492 0
M  V30 10003 C 906.159 1.436 1.32809 0
M  V30 10004 O 907.365 1.89472 1.94455 0
M  V30 10005 C 905.821 3.599 -0.00223937 0
M  V30 10006 C 905.429 4.26969 -1.35651 0
M  V30 10007 C 907.173 4.2187 0.471822 0
M  V30 10008 C 905.08 5.77194 -1.28843 0
M  V30 10009 H 904.01 0.753965 -0.00725504 0
M  V30 10010 H 906.661 1.69467 -0.703789 0
M  V30 10011 H 905.043 3.89068 0.737682 0
M  V30 10012 H 906.217 4.09444 -2.11406 0
M  V30 10013 H 904.532 3.76983 -1.76842 0
M  V30 10014 H 907.129 5.31955 0.541139 0
M  V30 10015 H 907.472 3.88968 1.48356 0
M  V30 10016 H 908.005 3.97228 -0.213207 0
M  V30 10017 H 904.744 6.14713 -2.27613 0
M  V30 10018 H 904.264 5.9706 -0.572668 0
M  V30 10019 H 905.943 6.3938 -0.990031 0
M  V30 10020 N 906.075 0.2925 1.54862 0
M  V30 10021 C 907.008 -0.629155 2.19356 0
M  V30 10022 C 907.986 -1.13927 1.16014 0
M  V30 10023 O 909.17 -1.20904 1.44618 0
M  V30 10024 C 906.297 -1.8599 2.83064 0
M  V30 10025 C 905.343 -1.48376 3.99859 0
M  V30 10026 S 906.176 -0.546976 5.32699 0
M  V30 10027 C 907.332 -1.7857 5.99886 0
M  V30 10028 H 907.565 -0.0812166 2.97189 0
M  V30 10029 H 905.098 0.0766721 1.5421 0
M  V30 10030 H 907.056 -2.56623 3.20398 0
M  V30 10031 H 905.717 -2.37899 2.05092 0
M  V30 10032 H 904.91 -2.40002 4.43187 0
M  V30 10033 H 904.512 -0.857447 3.64038 0
M  V30 10034 H 906.804 -2.7274 6.20177 0
M  V30 10035 H 907.747 -1.39513 6.9422 0
M  V30 10036 H 908.155 -1.95856 5.29434 0
M  V30 10037 N 907.553 -1.57587 0.0200696 0
M  V30 10038 C 908.5 -2.09667 -0.964791 0
M  V30 10039 C 909.47 -0.99664 -1.32877 0
M  V30 10040 O 910.655 -1.2703 -1.42366 0
M  V30 10041 C 907.795 -2.62101 -2.24493 0
M  V30 10042 C 906.908 -3.8608 -1.93821 0
M  V30 10043 C 906.043 -4.26939 -3.16064 0
M  V30 10044 C 905.082 -5.43701 -2.81169 0
M  V30 10045 N 904.219 -5.79759 -3.9601 0
M  V30 10046 H 909.059 -2.93538 -0.513751 0
M  V30 10047 H 906.596 -1.45096 -0.242 0
M  V30 10048 H 908.554 -2.90587 -2.99358 0
M  V30 10049 H 907.184 -1.81074 -2.6723 0
M  V30 10050 H 906.236 -3.64378 -1.09237 0
M  V30 10051 H 907.548 -4.71028 -1.64115 0
M  V30 10052 H 906.702 -4.56814 -3.99257 0
M  V30 10053 H 905.441 -3.40739 -3.48924 0
M  V30 10054 H 904.446 -5.13529 -1.96387 0
M  V30 10055 H 905.671 -6.31593 -2.49535 0
M  V30 10056 H 903.617 -4.96516 -4.28729 0
M  V30 10057 H 903.534 -6.59327 -3.69896 0
M  V30 10058 H 904.802 -6.14235 -4.79933 0
M  V30 10059 N 909.032 0.252966 -1.55557 0
M  V30 10060 C 909.995 1.29645 -1.8901 0
M  V30 10061 C 910.995 1.41378 -0.766096 0
M  V30 10062 O 912.185 1.40183 -1.03414 0
M  V30 10063 C 909.317 2.67504 -2.11316 0
M  V30 10064 H 910.51 1.01202 -2.82309 0
M  V30 10065 H 908.063 0.491977 -1.48355 0
M  V30 10066 H 908.798 3.01095 -1.20466 0
M  V30 10067 H 908.583 2.6037 -2.93172 0
M  V30 10068 H 910.073 3.42861 -2.38403 0
M  V30 10069 N 910.51 1.48831 0.518367 0
M  V30 10070 C 911.442 1.60317 1.63802 0
M  V30 10071 C 912.455 0.486771 1.55352 0
M  V30 10072 O 913.644 0.758111 1.61601 0
M  V30 10073 C 910.744 1.52771 3.02513 0
M  V30 10074 C 909.917 2.79649 3.36326 0
M  V30 10075 C 908.976 2.65396 4.54369 0
M  V30 10076 O 908.002 3.39304 4.57013 0
M  V30 10077 N 909.204 1.75784 5.53245 0
M  V30 10078 H 911.969 2.56878 1.54383 0
M  V30 10079 H 909.53 1.45701 0.705889 0
M  V30 10080 H 911.522 1.40914 3.79375 0
M  V30 10081 H 910.092 0.641381 3.05949 0
M  V30 10082 H 909.312 3.05985 2.48529 0
M  V30 10083 H 910.6 3.63799 3.55707 0
M  V30 10084 H 909.998 1.14961 5.53896 0
M  V30 10085 H 908.555 1.69859 6.29278 0
M  V30 10086 N 911.988 -0.768124 1.37614 0
M  V30 10087 C 912.951 -1.86314 1.3349 0
M  V30 10088 C 913.951 -1.59025 0.23823 0
M  V30 10089 O 915.141 -1.6704 0.494288 0
M  V30 10090 C 912.273 -3.23519 1.07462 0
M  V30 10091 H 913.466 -1.91382 2.30896 0
M  V30 10092 H 911.019 -0.968267 1.22696 0
M  V30 10093 H 911.754 -3.24127 0.106028 0
M  V30 10094 H 911.539 -3.44719 1.86846 0
M  V30 10095 H 913.029 -4.03597 1.07236 0
M  V30 10096 N 913.466 -1.22244 -0.994698 0
M  V30 10097 C 914.396 -1.01513 -2.10279 0
M  V30 10098 C 915.377 0.0633365 -1.69982 0
M  V30 10099 O 916.562 -0.0985268 -1.9395 0
M  V30 10100 C 913.692 -0.59016 -3.42249 0
M  V30 10101 C 912.646 -1.61436 -3.96387 0
M  V30 10102 C 911.972 -1.04528 -5.24383 0
M  V30 10103 C 913.272 -3.00388 -4.27276 0
M  V30 10104 H 914.966 -1.94194 -2.2788 0
M  V30 10105 H 912.512 -0.935094 -1.09508 0
M  V30 10106 H 914.465 -0.432254 -4.19177 0
M  V30 10107 H 913.189 0.372308 -3.24471 0
M  V30 10108 H 911.848 -1.76001 -3.21589 0
M  V30 10109 H 911.496 -0.0742225 -5.02945 0
M  V30 10110 H 911.196 -1.72949 -5.61571 0
M  V30 10111 H 912.72 -0.898922 -6.03947 0
M  V30 10112 H 914.134 -2.89207 -4.95007 0
M  V30 10113 H 912.531 -3.65916 -4.75631 0
M  V30 10114 H 913.601 -3.50456 -3.35125 0
M  V30 10115 N 914.944 1.19125 -1.03184 0
M  V30 10116 C 916.36 1.40909 -0.749447 0
M  V30 10117 C 916.56 1.9022 0.664729 0
M  V30 10118 O 915.616 2.08085 1.43028 0
M  V30 10119 C 916.929 2.41761 -1.78807 0
M  V30 10120 C 918.477 2.55503 -1.80796 0
M  V30 10121 C 918.952 3.59612 -2.83626 0
M  V30 10122 N 920.443 3.6711 -2.82461 0
M  V30 10123 C 921.178 4.47366 -3.5868 0
M  V30 10124 N 920.674 5.31302 -4.44623 0
M  V30 10125 N 922.467 4.42044 -3.47208 0
M  V30 10126 H 914.618 0.854399 -1.94458 0
M  V30 10127 H 916.881 0.437753 -0.840878 0
M  V30 10128 H 916.587 2.12559 -2.80199 0
M  V30 10129 H 916.461 3.40981 -1.61283 0
M  V30 10130 H 918.848 2.84027 -0.800803 0
M  V30 10131 H 918.929 1.56427 -2.02396 0
M  V30 10132 H 918.573 3.3183 -3.84515 0
M  V30 10133 H 918.503 4.58345 -2.59283 0
M  V30 10134 H 920.994 3.07166 -2.2013 0
M  V30 10135 H 921.307 5.89667 -4.99512 0
M  V30 10136 H 919.652 5.30753 -4.48694 0
M  V30 10137 H 922.843 3.75513 -2.79477 0
M  V30 10138 H 923.016 5.0435 -4.06859 0
M  V30 10139 N 916.422 0.810101 1.35185 0
M  V30 10140 C 917.699 0.315235 1.93043 0
M  V30 10141 C 918.079 -1.19567 1.73974 0
M  V30 10142 O 917.427 -1.99682 1.11083 0
M  V30 10143 C 917.637 0.730492 3.41269 0
M  V30 10144 C 918.985 0.721985 4.18417 0
M  V30 10145 O 920.009 0.672258 3.49799 0
M  V30 10146 O 918.868 0.783535 5.40854 0
M  V30 10147 H 915.962 0.0832774 0.822796 0
M  V30 10148 H 918.508 0.894034 1.4424 0
M  V30 10149 H 917.28 1.77169 3.48894 0
M  V30 10150 H 916.903 0.12669 3.97398 0
M  V30 10151 N 917.9 -1.47166 0.563914 0
M  V30 10152 C 918.848 -2.31798 -0.193009 0
M  V30 10153 C 919.842 -1.43338 -0.902805 0
M  V30 10154 O 921.048 -1.60067 -0.823328 0
M  V30 10155 H 917.423 -0.747613 -0.0811139 0
M  V30 10156 H 919.394 -2.93476 0.539876 0
M  V30 10157 C 918.143 -3.26131 -1.20555 0
M  V30 10158 H 917.466 -3.94166 -0.668803 0
M  V30 10159 H 918.906 -3.88167 -1.70593 0
M  V30 10160 C 917.365 -2.50132 -2.25689 0
M  V30 10161 O 917.895 -2.25064 -3.3273 0
M  V30 10162 N 916.101 -2.11022 -1.99795 0
M  V30 10163 H 915.648 -2.3161 -1.1276 0
M  V30 10164 H 915.606 -1.60489 -2.70353 0
M  V30 10165 N 919.378 -0.300708 -1.54705 0
M  V30 10166 C 920.603 0.314073 -2.05008 0
M  V30 10167 C 921.028 1.46759 -1.17657 0
M  V30 10168 O 920.386 1.80398 -0.180598 0
M  V30 10169 C 920.434 0.748243 -3.52752 0
M  V30 10170 O 919.538 1.85305 -3.68424 0
M  V30 10171 H 918.879 0.0610139 -0.661191 0
M  V30 10172 H 921.409 -0.442467 -1.99758 0
M  V30 10173 H 921.419 1.03713 -3.94598 0
M  V30 10174 H 920.094 -0.095573 -4.1579 0
M  V30 10175 H 918.671 1.56473 -3.38483 0
M  V30 10176 N 920.856 1.57574 -0.0284266 0
M  V30 10177 C 922.084 1.96071 0.660575 0
M  V30 10178 C 922.499 0.904881 1.65703 0
M  V30 10179 O 921.856 -0.113379 1.82147 0
M  V30 10180 C 921.907 3.34634 1.36756 0
M  V30 10181 O 921.628 4.36167 0.411041 0
M  V30 10182 C 923.129 3.87758 2.14845 0
M  V30 10183 H 920.349 0.645794 0.182183 0
M  V30 10184 H 922.893 2.04311 -0.0879858 0
M  V30 10185 H 921.048 3.27616 2.06753 0
M  V30 10186 H 921.462 5.16493 0.913 0
M  V30 10187 H 922.936 4.87058 2.59767 0
M  V30 10188 H 923.413 3.21967 2.9872 0
M  V30 10189 H 924.019 3.98043 1.49807 0
M  V30 10190 N 922.334 -0.244713 1.55689 0
M  V30 10191 C 923.267 -1.32946 1.85474 0
M  V30 10192 C 924.245 -1.46279 0.710021 0
M  V30 10193 O 925.429 -1.62459 0.956004 0
M  V30 10194 C 922.556 -2.7027 2.04137 0
M  V30 10195 C 921.602 -2.74075 3.2678 0
M  V30 10196 S 922.435 -2.30465 4.8337 0
M  V30 10197 C 923.591 -3.69709 5.05041 0
M  V30 10198 H 923.824 -1.07482 2.77191 0
M  V30 10199 H 921.357 -0.445807 1.47824 0
M  V30 10200 H 923.315 -3.4934 2.15574 0
M  V30 10201 H 921.976 -2.9297 1.13259 0
M  V30 10202 H 921.169 -3.74932 3.36812 0
M  V30 10203 H 920.771 -2.03051 3.1408 0
M  V30 10204 H 923.063 -4.65222 4.92518 0
M  V30 10205 H 924.006 -3.6461 6.07014 0
M  V30 10206 H 924.414 -3.62323 4.32877 0
M  V30 10207 N 923.813 -1.49104 -0.510467 0
M  V30 10208 C 925.061 -1.578 -1.26268 0
M  V30 10209 C 925.382 -0.262349 -1.93227 0
M  V30 10210 O 924.652 0.717624 -1.82283 0
M  V30 10211 H 923.232 -0.581387 -0.46904 0
M  V30 10212 H 925.894 -1.85678 -0.592423 0
M  V30 10213 H 924.99 -2.36919 -2.03165 0
M  V30 10214 N 925.291 0.760815 -1.38019 0
M  V30 10215 C 926.521 1.54776 -1.3685 0
M  V30 10216 C 926.929 1.89146 0.0453971 0
M  V30 10217 O 926.272 1.52746 1.0205 0
M  V30 10218 C 926.334 2.87923 -2.15269 0
M  V30 10219 C 925.998 2.76131 -3.64144 0
M  V30 10220 C 926.995 2.46417 -4.57794 0
M  V30 10221 C 924.68 2.9381 -4.07408 0
M  V30 10222 C 926.674 2.34525 -5.92686 0
M  V30 10223 C 924.361 2.81539 -5.42383 0
M  V30 10224 C 925.359 2.51938 -6.34836 0
M  V30 10225 O 925.047 2.39713 -7.67329 0
M  V30 10226 H 924.779 0.485776 -0.470104 0
M  V30 10227 H 927.333 0.949939 -1.82113 0
M  V30 10228 H 925.563 3.49867 -1.64712 0
M  V30 10229 H 927.252 3.49389 -2.06596 0
M  V30 10230 H 928.018 2.32433 -4.25676 0
M  V30 10231 H 923.897 3.15849 -3.35799 0
M  V30 10232 H 927.441 2.11342 -6.64816 0
M  V30 10233 H 923.338 2.95093 -5.741 0
M  V30 10234 H 924.106 2.5498 -7.77771 0
M  V30 10235 N 926.769 1.22769 0.988202 0
M  V30 10236 C 927.702 0.945196 2.07705 0
M  V30 10237 C 928.68 -0.11363 1.62202 0
M  V30 10238 O 929.864 0.0189624 1.8849 0
M  V30 10239 C 926.991 0.422474 3.36055 0
M  V30 10240 C 926.037 1.4667 4.00487 0
M  V30 10241 S 926.87 3.04158 4.40736 0
M  V30 10242 C 928.026 2.53536 5.7225 0
M  V30 10243 H 928.259 1.86723 2.31348 0
M  V30 10244 H 925.792 1.05928 1.12333 0
M  V30 10245 H 927.75 0.12748 4.10302 0
M  V30 10246 H 926.411 -0.478515 3.10434 0
M  V30 10247 H 925.604 1.05093 4.92921 0
M  V30 10248 H 925.206 1.71064 3.32585 0
M  V30 10249 H 927.498 1.95069 6.4881 0
M  V30 10250 H 928.441 3.44479 6.1866 0
M  V30 10251 H 928.849 1.94658 5.29876 0
M  V30 10252 N 928.247 -1.18576 1.03814 0
M  V30 10253 C 929.21 -2.2033 0.63146 0
M  V30 10254 C 930.21 -1.57787 -0.309816 0
M  V30 10255 O 931.4 -1.73938 -0.0955598 0
M  V30 10256 C 928.532 -3.40818 -0.0745963 0
M  V30 10257 H 929.725 -2.57824 1.53189 0
M  V30 10258 H 927.278 -1.32416 0.830398 0
M  V30 10259 H 928.013 -3.08853 -0.988947 0
M  V30 10260 H 927.798 -3.87453 0.6019 0
M  V30 10261 H 929.288 -4.16166 -0.345727 0
M  V30 10262 N 929.725 -0.817259 -1.34754 0
M  V30 10263 C 930.688 -0.240611 -2.27934 0
M  V30 10264 C 931.688 0.578219 -1.50044 0
M  V30 10265 O 932.878 0.395148 -1.69659 0
M  V30 10266 C 930.01 0.663318 -3.34384 0
M  V30 10267 H 931.203 -1.06257 -2.80445 0
M  V30 10268 H 928.756 -0.588697 -1.4479 0
M  V30 10269 H 929.491 1.50855 -2.87077 0
M  V30 10270 H 929.276 0.0777388 -3.92023 0
M  V30 10271 H 930.766 1.06076 -4.03903 0
M  V30 10272 N 931.203 1.46865 -0.571711 0
M  V30 10273 C 932.15 2.30189 0.167808 0
M  V30 10274 C 933.12 1.3995 0.89461 0
M  V30 10275 O 934.305 1.68905 0.887451 0
M  V30 10276 C 931.445 3.24205 1.1826 0
M  V30 10277 C 930.558 4.2954 0.460376 0
M  V30 10278 C 929.693 5.10693 1.46173 0
M  V30 10279 C 928.732 6.07788 0.725291 0
M  V30 10280 N 927.869 6.81847 1.67417 0
M  V30 10281 H 932.709 2.92902 -0.548831 0
M  V30 10282 H 930.246 1.44362 -0.282474 0
M  V30 10283 H 932.204 3.77147 1.7837 0
M  V30 10284 H 930.834 2.63324 1.86709 0
M  V30 10285 H 929.886 3.79541 -0.255546 0
M  V30 10286 H 931.198 4.98665 -0.115855 0
M  V30 10287 H 930.352 5.67857 2.13595 0
M  V30 10288 H 929.091 4.41502 2.07188 0
M  V30 10289 H 928.096 5.49787 0.037228 0
M  V30 10290 H 929.321 6.78993 0.120678 0
M  V30 10291 H 927.267 6.15376 2.27263 0
M  V30 10292 H 927.184 7.47195 1.15046 0
M  V30 10293 H 928.452 7.43577 2.33908 0
M  V30 10294 N 932.681 0.308908 1.54543 0
M  V30 10295 C 933.628 -0.563659 2.23811 0
M  V30 10296 C 934.598 -1.12332 1.22355 0
M  V30 10297 O 935.783 -1.16638 1.50997 0
M  V30 10298 C 932.923 -1.72585 2.98845 0
M  V30 10299 C 932.036 -1.19682 4.1509 0
M  V30 10300 C 931.171 -2.32351 4.77688 0
M  V30 10301 C 930.21 -1.76623 5.86064 0
M  V30 10302 N 929.347 -2.82896 6.42584 0
M  V30 10303 H 934.187 0.0336288 2.97981 0
M  V30 10304 H 931.724 0.0283666 1.47073 0
M  V30 10305 H 933.682 -2.40951 3.40586 0
M  V30 10306 H 932.312 -2.29464 2.27037 0
M  V30 10307 H 931.364 -0.405173 3.78236 0
M  V30 10308 H 932.676 -0.748923 4.93146 0
M  V30 10309 H 931.83 -3.0865 5.22322 0
M  V30 10310 H 930.569 -2.80472 3.98982 0
M  V30 10311 H 929.574 -0.988171 5.40847 0
M  V30 10312 H 930.799 -1.29398 6.66658 0
M  V30 10313 H 928.745 -3.30336 5.66758 0
M  V30 10314 H 928.662 -2.42626 7.16009 0
M  V30 10315 H 929.93 -3.59068 6.91875 0
M  V30 10316 N 934.159 -1.57557 0.0367827 0
M  V30 10317 C 935.109 -2.07182 -0.95183 0
M  V30 10318 C 936.093 -0.973921 -1.28076 0
M  V30 10319 O 937.285 -1.23741 -1.26559 0
M  V30 10320 C 934.414 -2.60869 -2.23164 0
M  V30 10321 C 933.5 -3.77602 -1.93074 0
M  V30 10322 N 933.891 -4.87923 -1.33283 0
M  V30 10323 C 932.189 -3.86234 -2.23023 0
M  V30 10324 C 932.89 -5.69083 -1.20498 0
M  V30 10325 N 931.866 -5.16233 -1.70306 0
M  V30 10326 H 935.668 -2.89876 -0.484647 0
M  V30 10327 H 933.182 -1.61528 -0.16804 0
M  V30 10328 H 935.179 -2.94716 -2.9487 0
M  V30 10329 H 933.839 -1.79607 -2.70502 0
M  V30 10330 H 934.85 -5.08018 -1.00686 0
M  V30 10331 H 931.527 -3.15891 -2.72981 0
M  V30 10332 H 932.917 -6.6779 -0.741999 0
M  V30 10333 N 935.637 0.236453 -1.55816 0
M  V30 10334 C 936.567 1.29639 -1.94206 0
M  V30 10335 C 937.548 1.49667 -0.808319 0
M  V30 10336 O 938.733 1.621 -1.06945 0
M  V30 10337 C 935.863 2.64914 -2.24584 0
M  V30 10338 C 934.817 2.59565 -3.40308 0
M  V30 10339 C 934.143 3.98732 -3.56254 0
M  V30 10340 C 935.443 2.15642 -4.75706 0
M  V30 10341 H 937.137 0.977552 -2.82992 0
M  V30 10342 H 934.683 0.468804 -1.36155 0
M  V30 10343 H 936.636 3.39209 -2.50031 0
M  V30 10344 H 935.36 2.98455 -1.32636 0
M  V30 10345 H 934.019 1.87728 -3.14887 0
M  V30 10346 H 933.667 4.29556 -2.61707 0
M  V30 10347 H 933.367 3.96039 -4.34082 0
M  V30 10348 H 934.891 4.74711 -3.84033 0
M  V30 10349 H 936.305 2.79673 -5.00456 0
M  V30 10350 H 934.702 2.24039 -5.56711 0
M  V30 10351 H 935.772 1.10831 -4.72064 0
M  V30 10352 N 937.115 1.49373 0.502552 0
M  V30 10353 C 938.025 1.68659 1.63068 0
M  V30 10354 C 939.041 0.569182 1.64427 0
M  V30 10355 O 940.217 0.843695 1.82876 0
M  V30 10356 C 937.282 1.74745 2.99441 0
M  V30 10357 C 936.343 2.98311 3.08721 0
M  V30 10358 C 935.576 3.04097 4.38589 0
M  V30 10359 O 935.799 2.17519 5.27297 0
M  V30 10360 O 934.733 3.96544 4.52809 0
M  V30 10361 H 938.559 2.64226 1.49727 0
M  V30 10362 H 936.144 1.33096 0.67867 0
M  V30 10363 H 938.026 1.8111 3.80496 0
M  V30 10364 H 936.701 0.823565 3.13048 0
M  V30 10365 H 935.608 2.97465 2.2686 0
M  V30 10366 H 936.941 3.90174 3.00041 0
M  V30 10367 N 938.594 -0.753485 1.38421 0
M  V30 10368 C 939.843 -1.50797 1.33952 0
M  V30 10369 C 940.156 -1.95482 -0.0678464 0
M  V30 10370 O 941.362 -2.7048 -0.235078 0
M  V30 10371 C 939.818 -2.72393 2.35224 0
M  V30 10372 C 939.426 -2.34733 3.81582 0
M  V30 10373 C 941.17 -3.50281 2.39798 0
M  V30 10374 C 939.077 -3.52939 4.7454 0
M  V30 10375 H 938.007 -0.566211 0.497916 0
M  V30 10376 H 940.658 -0.823659 1.63976 0
M  V30 10377 H 939.04 -3.42806 1.98243 0
M  V30 10378 H 940.214 -1.71985 4.27502 0
M  V30 10379 H 938.529 -1.69978 3.80127 0
M  V30 10380 H 941.126 -4.38172 3.06447 0
M  V30 10381 H 941.469 -3.91444 1.41695 0
M  V30 10382 H 942.002 -2.86881 2.75579 0
M  V30 10383 H 938.741 -3.16843 5.73839 0
M  V30 10384 H 938.261 -4.1473 4.33312 0
M  V30 10385 H 939.94 -4.19519 4.92557 0
M  V30 10386 N 940.072 -1.23292 -0.981677 0
M  V30 10387 C 941.02 -1.0104 -2.09508 0
M  V30 10388 C 942.014 0.0501977 -1.69326 0
M  V30 10389 O 943.22 -0.103197 -1.79704 0
M  V30 10390 H 939.595 -0.309629 -0.685298 0
M  V30 10391 H 941.566 -1.95493 -2.25444 0
M  V30 10392 C 940.315 -0.616885 -3.42184 0
M  V30 10393 H 939.638 -1.4247 -3.73554 0
M  V30 10394 H 941.078 -0.500688 -4.21033 0
M  V30 10395 C 939.537 0.674721 -3.30074 0
M  V30 10396 O 940.067 1.72421 -3.62814 0
M  V30 10397 N 938.273 0.650151 -2.83234 0
M  V30 10398 H 937.82 -0.204225 -2.56789 0
M  V30 10399 H 937.778 1.51458 -2.75514 0
M  V30 10400 N 941.55 1.18024 -1.04442 0
M  V30 10401 C 942.961 1.69749 -0.777312 0
M  V30 10402 C 943.312 1.83234 0.701399 0
M  V30 10403 O 942.437 1.51452 1.54568 0
M  V30 10404 C 943.032 3.08321 -1.40441 0
M  V30 10405 C 941.591 3.57243 -1.18553 0
M  V30 10406 C 940.738 2.33695 -1.49271 0
M  V30 10407 H 943.689 1.02647 -1.21035 0
M  V30 10408 H 943.71 3.71787 -0.809628 0
M  V30 10409 H 943.222 2.98474 -2.48062 0
M  V30 10410 H 941.323 3.72379 -0.128221 0
M  V30 10411 H 941.436 4.40451 -1.88519 0
M  V30 10412 H 939.8 2.37792 -0.912526 0
M  V30 10413 H 940.583 2.26464 -2.5801 0
M  V30 10414 N 943.028 0.824394 1.34319 0
M  V30 10415 C 944.305 0.335692 1.92698 0
M  V30 10416 C 944.685 -1.17715 1.75232 0
M  V30 10417 O 944.033 -1.98493 1.13194 0
M  V30 10418 C 944.243 0.766647 3.40475 0
M  V30 10419 C 945.591 0.766323 4.17627 0
M  V30 10420 O 946.615 0.709321 3.49066 0
M  V30 10421 O 945.474 0.840856 5.39992 0
M  V30 10422 H 942.568 0.0919996 0.821867 0
M  V30 10423 H 945.114 0.909282 1.43283 0
M  V30 10424 H 943.886 1.80859 3.46995 0
M  V30 10425 H 943.509 0.168833 3.97241 0
M  V30 10426 N 944.506 -1.46559 0.579492 0
M  V30 10427 C 945.456 -2.27316 -0.17645 0
M  V30 10428 C 946.44 -1.35681 -0.864835 0
M  V30 10429 O 947.632 -1.59879 -0.759462 0
M  V30 10430 C 944.761 -3.21957 -1.19157 0
M  V30 10431 C 943.847 -4.21077 -0.505459 0
M  V30 10432 N 944.238 -5.03908 0.437133 0
M  V30 10433 C 942.536 -4.39535 -0.75661 0
M  V30 10434 C 943.237 -5.75635 0.837819 0
M  V30 10435 N 942.213 -5.43276 0.187679 0
M  V30 10436 H 946.015 -2.88747 0.547932 0
M  V30 10437 H 943.529 -1.5737 0.401048 0
M  V30 10438 H 945.526 -3.78518 -1.74728 0
M  V30 10439 H 944.186 -2.62085 -1.9168 0
M  V30 10440 H 945.197 -5.11487 0.812488 0
M  V30 10441 H 941.874 -3.90815 -1.46867 0
M  V30 10442 H 943.264 -6.52235 1.61364 0
M  V30 10443 N 945.984 -0.3171 -1.54377 0
M  V30 10444 C 947.209 0.292311 -2.0533 0
M  V30 10445 C 947.634 1.45503 -1.19207 0
M  V30 10446 O 946.992 1.80197 -0.199721 0
M  V30 10447 C 947.04 0.710787 -3.53525 0
M  V30 10448 O 946.144 1.81387 -3.70368 0
M  V30 10449 H 945.485 0.0539976 -0.661801 0
M  V30 10450 H 948.015 -0.463629 -1.99278 0
M  V30 10451 H 948.025 0.995216 -3.95676 0
M  V30 10452 H 946.7 -0.139668 -4.15665 0
M  V30 10453 H 945.277 1.52875 -3.40123 0
M  V30 10454 N 947.462 1.57535 -0.0451378 0
M  V30 10455 C 948.711 1.91628 0.629415 0
M  V30 10456 C 949.024 0.924754 1.72359 0
M  V30 10457 O 950.23 1.15751 2.45589 0
M  V30 10458 C 948.686 3.40322 1.17084 0
M  V30 10459 C 948.294 4.47867 0.109101 0
M  V30 10460 C 950.038 3.83458 1.82099 0
M  V30 10461 C 947.945 5.87671 0.663072 0
M  V30 10462 H 946.875 0.715163 0.238868 0
M  V30 10463 H 949.526 1.83151 -0.113046 0
M  V30 10464 H 947.908 3.43783 1.96543 0
M  V30 10465 H 949.082 4.55988 -0.664201 0
M  V30 10466 H 947.397 4.14034 -0.443227 0
M  V30 10467 H 949.994 4.85273 2.2453 0
M  V30 10468 H 950.337 3.19379 2.67026 0
M  V30 10469 H 950.87 3.82488 1.09305 0
M  V30 10470 H 947.609 6.55332 -0.148423 0
M  V30 10471 H 947.129 5.83124 1.4045 0
M  V30 10472 H 948.808 6.36737 1.14785 0
M  V30 10473 N 948.94 -0.228186 1.55939 0
M  V30 10474 C 950.189 -0.951563 1.77843 0
M  V30 10475 C 950.502 -1.85763 0.612501 0
M  V30 10476 O 951.708 -2.61916 0.715006 0
M  V30 10477 C 950.164 -1.74216 3.14923 0
M  V30 10478 C 949.772 -0.882569 4.39221 0
M  V30 10479 C 951.516 -2.45715 3.46156 0
M  V30 10480 C 949.423 -1.67014 5.67327 0
M  V30 10481 H 948.353 -0.359035 0.663031 0
M  V30 10482 H 951.004 -0.205636 1.82344 0
M  V30 10483 H 949.386 -2.53075 3.0458 0
M  V30 10484 H 950.56 -0.13499 4.60602 0
M  V30 10485 H 948.875 -0.280022 4.15457 0
M  V30 10486 H 951.472 -3.05127 4.39092 0
M  V30 10487 H 951.815 -3.1827 2.68346 0
M  V30 10488 H 952.348 -1.73852 3.57799 0
M  V30 10489 H 949.087 -0.987985 6.48012 0
M  V30 10490 H 948.607 -2.3925 5.50018 0
M  V30 10491 H 950.286 -2.23252 6.07262 0
M  V30 10492 N 950.418 -1.49637 -0.494624 0
M  V30 10493 C 951.328 -1.69522 -1.62172 0
M  V30 10494 C 952.344 -0.577894 -1.64123 0
M  V30 10495 O 953.52 -0.853382 -1.82426 0
M  V30 10496 C 950.585 -1.7633 -2.9851 0
M  V30 10497 C 949.646 -2.99944 -3.07135 0
M  V30 10498 C 948.879 -3.06419 -4.36971 0
M  V30 10499 O 949.102 -2.20312 -5.26136 0
M  V30 10500 O 948.036 -3.9894 -4.507 0
M  V30 10501 H 951.862 -2.65017 -1.48324 0
M  V30 10502 H 949.447 -1.33454 -0.671603 0
M  V30 10503 H 951.329 -1.83125 -3.7953 0
M  V30 10504 H 950.004 -0.840155 -3.12607 0
M  V30 10505 H 948.911 -2.98664 -2.2528 0
M  V30 10506 H 950.244 -3.9176 -2.97968 0
M  V30 10507 N 951.896 0.746133 -1.38819 0
M  V30 10508 C 953.124 1.53539 -1.38685 0
M  V30 10509 C 953.539 1.88788 0.0215039 0
M  V30 10510 O 952.896 1.53312 0.990031 0
M  V30 10511 C 952.947 2.8299 -2.24942 0
M  V30 10512 O 952.668 2.49242 -3.60292 0
M  V30 10513 C 954.169 3.77085 -2.3307 0
M  V30 10514 H 951.389 0.474842 -0.474095 0
M  V30 10515 H 953.933 0.922844 -1.82493 0
M  V30 10516 H 952.088 3.40603 -1.84576 0
M  V30 10517 H 952.502 3.32319 -4.05789 0
M  V30 10518 H 953.976 4.64845 -2.97696 0
M  V30 10519 H 954.453 4.18049 -1.34655 0
M  V30 10520 H 955.059 3.25394 -2.73859 0
M  V30 10521 N 953.375 1.23811 0.975125 0
M  V30 10522 C 954.305 1.04846 2.08638 0
M  V30 10523 C 955.286 -0.0362859 1.70061 0
M  V30 10524 O 956.471 0.12937 1.93769 0
M  V30 10525 C 953.601 0.644534 3.41267 0
M  V30 10526 C 952.555 1.67722 3.93768 0
M  V30 10527 C 951.881 1.12857 5.22654 0
M  V30 10528 C 953.181 3.07147 4.22443 0
M  V30 10529 H 954.875 1.97795 2.24761 0
M  V30 10530 H 952.421 0.952397 1.08006 0
M  V30 10531 H 954.374 0.498887 4.18436 0
M  V30 10532 H 953.098 -0.320641 3.25022 0
M  V30 10533 H 951.757 1.81095 3.18748 0
M  V30 10534 H 951.405 0.154227 5.02764 0
M  V30 10535 H 951.105 1.81862 5.58749 0
M  V30 10536 H 952.629 0.994891 6.0244 0
M  V30 10537 H 954.043 2.97045 4.90344 0
M  V30 10538 H 952.44 3.73437 4.6975 0
M  V30 10539 H 953.51 3.55743 3.29507 0
M  V30 10540 N 954.853 -1.17469 1.05066 0
M  V30 10541 C 956.269 -1.39699 0.771769 0
M  V30 10542 C 956.469 -1.91253 -0.634382 0
M  V30 10543 O 955.525 -2.10334 -1.39699 0
M  V30 10544 C 956.838 -2.38886 1.82631 0
M  V30 10545 C 958.386 -2.52595 1.84838 0
M  V30 10546 C 958.861 -3.55054 2.89311 0
M  V30 10547 N 960.352 -3.6257 2.88266 0
M  V30 10548 C 961.087 -4.41603 3.65752 0
M  V30 10549 N 960.583 -5.24162 4.53019 0
M  V30 10550 N 962.376 -4.36464 3.54197 0
M  V30 10551 H 954.527 -0.823355 1.95792 0
M  V30 10552 H 956.79 -0.42432 0.847736 0
M  V30 10553 H 956.496 -2.08075 2.83545 0
M  V30 10554 H 956.37 -3.38371 1.66687 0
M  V30 10555 H 958.757 -2.82717 0.845888 0
M  V30 10556 H 958.838 -1.53188 2.04859 0
M  V30 10557 H 958.482 -3.2567 3.89745 0
M  V30 10558 H 958.412 -4.54162 2.66542 0
M  V30 10559 H 960.903 -3.03625 2.24989 0
M  V30 10560 H 961.216 -5.81646 5.0883 0
M  V30 10561 H 959.561 -5.23547 4.57081 0
M  V30 10562 H 962.752 -3.7102 2.85416 0
M  V30 10563 H 962.925 -4.97814 4.14832 0
M  V30 10564 N 956.331 -0.831506 -1.3388 0
M  V30 10565 C 957.263 -0.216908 -2.28171 0
M  V30 10566 C 958.276 0.598141 -1.51414 0
M  V30 10567 O 959.465 0.426416 -1.73332 0
M  V30 10568 C 956.565 0.713831 -3.31297 0
M  V30 10569 C 955.738 -0.0602673 -4.37358 0
M  V30 10570 C 954.797 0.792696 -5.20195 0
M  V30 10571 O 953.823 0.234564 -5.68716 0
M  V30 10572 N 955.025 2.11119 -5.40748 0
M  V30 10573 H 957.79 -1.02704 -2.81553 0
M  V30 10574 H 955.351 -0.689272 -1.46495 0
M  V30 10575 H 957.343 1.28925 -3.83615 0
M  V30 10576 H 955.913 1.42469 -2.78247 0
M  V30 10577 H 955.133 -0.817041 -3.8564 0
M  V30 10578 H 956.421 -0.592822 -5.05335 0
M  V30 10579 H 955.819 2.58828 -5.03016 0
M  V30 10580 H 954.376 2.63527 -5.96151 0
M  V30 10581 N 957.809 1.4625 -0.587256 0
M  V30 10582 C 958.756 2.30354 0.143384 0
M  V30 10583 C 959.726 1.40891 0.879716 0
M  V30 10584 O 960.911 1.69837 0.869486 0
M  V30 10585 C 958.051 3.25441 1.14815 0
M  V30 10586 C 957.164 4.30004 0.414792 0
M  V30 10587 C 956.299 5.12214 1.40748 0
M  V30 10588 C 955.338 6.08523 0.660786 0
M  V30 10589 N 954.475 6.83585 1.60176 0
M  V30 10590 H 959.315 2.92304 -0.579866 0
M  V30 10591 H 956.852 1.44055 -0.29777 0
M  V30 10592 H 958.81 3.79018 1.7436 0
M  V30 10593 H 957.44 2.6529 1.83906 0
M  V30 10594 H 956.492 3.79248 -0.295787 0
M  V30 10595 H 957.804 4.98515 -0.168738 0
M  V30 10596 H 956.958 5.70091 2.0756 0
M  V30 10597 H 955.697 4.43675 2.02494 0
M  V30 10598 H 954.702 5.49796 -0.0210864 0
M  V30 10599 H 955.927 6.79083 0.0486551 0
M  V30 10600 H 953.873 6.17752 2.20724 0
M  V30 10601 H 953.79 7.48373 1.07115 0
M  V30 10602 H 955.058 7.46016 2.26009 0
M  V30 10603 N 959.287 0.325282 1.54207 0
M  V30 10604 C 960.25 -0.527228 2.23054 0
M  V30 10605 C 961.25 -1.04217 1.22456 0
M  V30 10606 O 962.44 -0.934325 1.47024 0
M  V30 10607 C 959.572 -1.7325 2.93594 0
M  V30 10608 H 960.765 0.0746423 2.99807 0
M  V30 10609 H 958.318 0.0763872 1.56113 0
M  V30 10610 H 959.053 -2.37356 2.20981 0
M  V30 10611 H 958.838 -1.37065 3.67363 0
M  V30 10612 H 960.328 -2.3376 3.46043 0
M  V30 10613 N 960.765 -1.57509 0.0534917 0
M  V30 10614 C 961.675 -2.15152 -0.935249 0
M  V30 10615 C 962.691 -1.10991 -1.34003 0
M  V30 10616 O 963.867 -1.43171 -1.41648 0
M  V30 10617 C 960.932 -2.68699 -2.19093 0
M  V30 10618 C 959.993 -3.87666 -1.84428 0
M  V30 10619 C 959.226 -4.3865 -3.0401 0
M  V30 10620 O 959.449 -3.887 -4.17455 0
M  V30 10621 O 958.383 -5.30209 -2.84889 0
M  V30 10622 H 962.209 -2.99962 -0.475009 0
M  V30 10623 H 959.794 -1.48446 -0.16854 0
M  V30 10624 H 961.676 -3.03098 -2.92762 0
M  V30 10625 H 960.351 -1.86958 -2.6425 0
M  V30 10626 H 959.258 -3.58151 -1.08068 0
M  V30 10627 H 960.591 -4.70643 -1.44068 0
M  V30 10628 N 962.243 0.219913 -1.56058 0
M  V30 10629 C 963.206 1.25606 -1.91718 0
M  V30 10630 C 964.206 1.39721 -0.795912 0
M  V30 10631 O 965.396 1.37958 -1.06364 0
M  V30 10632 C 962.528 2.62961 -2.16943 0
M  V30 10633 H 963.721 0.951909 -2.84392 0
M  V30 10634 H 961.274 0.460398 -1.49365 0
M  V30 10635 H 962.009 2.98472 -1.26826 0
M  V30 10636 H 961.794 2.54093 -2.98629 0
M  V30 10637 H 963.284 3.37727 -2.45622 0
M  V30 10638 N 963.721 1.49897 0.486681 0
M  V30 10639 C 964.998 1.50614 1.24799 0
M  V30 10640 C 965.378 0.24193 2.09709 0
M  V30 10641 O 964.726 -0.775237 2.14947 0
M  V30 10642 C 964.936 2.79318 2.09243 0
M  V30 10643 C 966.284 3.29371 2.67955 0
M  V30 10644 O 967.308 2.80533 2.19499 0
M  V30 10645 O 966.167 4.14466 3.56202 0
M  V30 10646 H 963.261 0.603447 0.565491 0
M  V30 10647 H 965.807 1.62174 0.499778 0
M  V30 10648 H 964.579 3.62812 1.46572 0
M  V30 10649 H 964.202 2.70687 2.91229 0
M  V30 10650 N 965.199 -0.738761 1.39212 0
M  V30 10651 C 966.146 -1.85273 1.37631 0
M  V30 10652 C 967.116 -1.64407 0.236572 0
M  V30 10653 O 968.301 -1.85866 0.431104 0
M  V30 10654 C 965.441 -3.22745 1.22188 0
M  V30 10655 C 964.554 -3.55342 2.45674 0
M  V30 10656 C 963.689 -4.82195 2.22847 0
M  V30 10657 C 962.728 -5.07625 3.42029 0
M  V30 10658 N 961.865 -6.25679 3.18543 0
M  V30 10659 H 966.705 -1.85959 2.32859 0
M  V30 10660 H 964.242 -0.908716 1.15675 0
M  V30 10661 H 966.2 -4.02095 1.11245 0
M  V30 10662 H 964.83 -3.21347 0.30592 0
M  V30 10663 H 963.882 -2.70722 2.67233 0
M  V30 10664 H 965.194 -3.70054 3.34457 0
M  V30 10665 H 964.348 -5.69518 2.09126 0
M  V30 10666 H 963.087 -4.6965 1.31454 0
M  V30 10667 H 962.092 -4.18765 3.56253 0
M  V30 10668 H 963.317 -5.22058 4.34319 0
M  V30 10669 H 961.263 -6.14429 2.2981 0
M  V30 10670 H 961.18 -6.40961 4.0088 0
M  V30 10671 H 962.448 -7.15851 3.08508 0
M  V30 10672 N 966.677 -1.24326 -0.968545 0
M  V30 10673 C 967.625 -1.03256 -2.08425 0
M  V30 10674 C 968.619 0.0322356 -1.69369 0
M  V30 10675 O 969.825 -0.122251 -1.79584 0
M  V30 10676 H 966.2 -0.31688 -0.681976 0
M  V30 10677 H 968.171 -1.97873 -2.23358 0
M  V30 10678 C 966.92 -0.653144 -3.4151 0
M  V30 10679 H 966.243 -1.46424 -3.72021 0
M  V30 10680 H 967.683 -0.545316 -4.20479 0
M  V30 10681 C 966.142 0.639674 -3.30771 0
M  V30 10682 O 966.672 1.68563 -3.64622 0
M  V30 10683 N 964.878 0.620074 -2.83907 0
M  V30 10684 H 964.425 -0.231449 -2.56558 0
M  V30 10685 H 964.383 1.48528 -2.77104 0
M  V30 10686 N 968.156 1.1691 -1.05688 0
M  V30 10687 C 969.433 1.83266 -0.683601 0
M  V30 10688 C 969.813 1.93858 0.835602 0
M  V30 10689 O 969.161 1.47696 1.7435 0
M  V30 10690 C 969.371 3.20625 -1.37842 0
M  V30 10691 C 970.719 3.96473 -1.51967 0
M  V30 10692 O 971.743 3.30122 -1.33783 0
M  V30 10693 O 970.602 5.15393 -1.81749 0
M  V30 10694 H 967.696 0.791028 -0.241254 0
M  V30 10695 H 970.242 1.24165 -1.15677 0
M  V30 10696 H 969.014 3.07914 -2.41463 0
M  V30 10697 H 968.637 3.87398 -0.894921 0
M  V30 10698 N 969.634 0.838594 1.33437 0
M  V30 10699 C 970.581 0.269609 2.2922 0
M  V30 10700 C 971.551 -0.614429 1.54318 0
M  V30 10701 O 972.736 -0.552756 1.82618 0
M  V30 10702 C 969.876 -0.549527 3.40697 0
M  V30 10703 C 968.989 0.358502 4.3051 0
M  V30 10704 C 968.124 -0.471709 5.29101 0
M  V30 10705 C 967.163 0.434728 6.10554 0
M  V30 10706 N 966.3 -0.357339 7.0119 0
M  V30 10707 H 971.14 1.09172 2.77282 0
M  V30 10708 H 968.677 0.549832 1.36438 0
M  V30 10709 H 970.635 -1.03992 4.04032 0
M  V30 10710 H 969.265 -1.33661 2.93828 0
M  V30 10711 H 968.317 0.967204 3.67899 0
M  V30 10712 H 969.629 1.05483 4.87519 0
M  V30 10713 H 968.783 -1.02594 5.97963 0
M  V30 10714 H 967.522 -1.20147 4.72669 0
M  V30 10715 H 966.527 1.00097 5.40611 0
M  V30 10716 H 967.752 1.16285 6.6907 0
M  V30 10717 H 965.698 -1.07049 6.47207 0
M  V30 10718 H 965.615 0.280277 7.5548 0
M  V30 10719 H 966.883 -0.893814 7.74359 0
M  V30 10720 N 971.112 -1.45937 0.595003 0
M  V30 10721 C 972.337 -2.07207 0.0894416 0
M  V30 10722 C 972.762 -1.43884 -1.21157 0
M  V30 10723 O 972.12 -0.526998 -1.73472 0
M  V30 10724 C 972.168 -3.60565 -0.0499828 0
M  V30 10725 O 971.272 -3.97364 -1.10342 0
M  V30 10726 H 970.613 -0.660471 0.0683627 0
M  V30 10727 H 973.143 -1.87386 0.82144 0
M  V30 10728 H 973.153 -4.0722 -0.252234 0
M  V30 10729 H 971.828 -4.06044 0.90006 0
M  V30 10730 H 970.405 -3.62401 -0.878645 0
M  V30 10731 N 972.59 -0.333456 -1.54032 0
M  V30 10732 C 973.836 0.266527 -2.01041 0
M  V30 10733 C 974.169 1.51006 -1.2211 0
M  V30 10734 O 973.444 1.92078 -0.306016 0
M  V30 10735 C 973.727 0.59078 -3.55221 0
M  V30 10736 C 973.58 -0.664143 -4.4487 0
M  V30 10737 C 974.899 1.40447 -4.17088 0
M  V30 10738 H 972.018 0.0953979 -0.7308 0
M  V30 10739 H 974.66 -0.451995 -1.84545 0
M  V30 10740 H 972.81 1.20292 -3.69408 0
M  V30 10741 H 974.482 -1.30227 -4.42537 0
M  V30 10742 H 972.725 -1.29106 -4.14143 0
M  V30 10743 H 973.396 -0.392664 -5.50602 0
M  V30 10744 H 975.872 0.886946 -4.06537 0
M  V30 10745 H 974.748 1.6001 -5.2506 0
M  V30 10746 H 975.009 2.40357 -3.71054 0
M  V30 10747 N 974.068 1.57479 -0.061844 0
M  V30 10748 C 975.015 2.12152 0.908862 0
M  V30 10749 C 975.985 1.03152 1.30188 0
M  V30 10750 O 977.17 1.3076 1.38948 0
M  V30 10751 C 974.31 2.6796 2.17465 0
M  V30 10752 C 973.423 3.91083 1.83517 0
M  V30 10753 C 972.558 4.35169 3.04633 0
M  V30 10754 C 971.597 5.50964 2.66655 0
M  V30 10755 N 970.734 5.90055 3.80499 0
M  V30 10756 H 975.574 2.94797 0.435743 0
M  V30 10757 H 973.111 1.45686 0.203445 0
M  V30 10758 H 975.069 2.98421 2.91548 0
M  V30 10759 H 973.699 1.88096 2.62335 0
M  V30 10760 H 972.751 3.67146 0.995381 0
M  V30 10761 H 974.063 4.75214 1.51569 0
M  V30 10762 H 973.217 4.67239 3.87005 0
M  V30 10763 H 971.956 3.49871 3.39767 0
M  V30 10764 H 970.961 5.18556 1.82703 0
M  V30 10765 H 972.186 6.37986 2.32702 0
M  V30 10766 H 970.132 5.07708 4.15414 0
M  V30 10767 H 970.049 6.68903 3.52285 0
M  V30 10768 H 971.317 6.26744 4.63479 0
M  V30 10769 N 975.546 -0.211634 1.56173 0
M  V30 10770 C 976.823 -0.959467 1.70451 0
M  V30 10771 C 977.203 -2.02036 0.611942 0
M  V30 10772 O 976.551 -2.25325 -0.37959 0
M  V30 10773 C 976.761 -1.56092 3.12148 0
M  V30 10774 C 978.109 -2.04939 3.71867 0
M  V30 10775 O 979.133 -1.65966 3.15172 0
M  V30 10776 O 977.992 -2.766 4.71333 0
M  V30 10777 H 975.086 -0.448844 0.6946 0
M  V30 10778 H 977.632 -0.202633 1.68486 0
M  V30 10779 H 976.404 -0.79538 3.83131 0
M  V30 10780 H 976.027 -2.38303 3.18273 0
M  V30 10781 N 977.024 -1.50153 -0.478725 0
M  V30 10782 C 977.954 -1.71384 -1.58587 0
M  V30 10783 C 978.935 -0.562705 -1.60523 0
M  V30 10784 O 980.12 -0.80101 -1.76911 0
M  V30 10785 C 977.25 -1.80094 -2.96957 0
M  V30 10786 C 976.204 -2.95218 -3.09888 0
M  V30 10787 C 975.53 -2.89063 -4.49829 0
M  V30 10788 C 976.83 -4.35841 -2.8782 0
M  V30 10789 H 978.524 -2.64081 -1.41073 0
M  V30 10790 H 976.07 -1.27081 -0.677239 0
M  V30 10791 H 978.023 -1.93531 -3.74331 0
M  V30 10792 H 976.747 -0.840131 -3.1561 0
M  V30 10793 H 975.406 -2.81419 -2.34944 0
M  V30 10794 H 975.054 -1.90844 -4.6539 0
M  V30 10795 H 974.754 -3.66345 -4.59418 0
M  V30 10796 H 976.278 -3.04539 -5.29234 0
M  V30 10797 H 977.692 -4.50205 -3.54948 0
M  V30 10798 H 976.089 -5.14515 -3.0886 0
M  V30 10799 H 977.159 -4.48739 -1.83742 0
M  V30 10800 N 978.502 0.731368 -1.39602 0
M  V30 10801 C 979.748 1.49321 -1.37227 0
M  V30 10802 C 980.081 1.94176 0.0306502 0
M  V30 10803 O 979.356 1.67046 0.996294 0
M  V30 10804 C 979.639 2.73035 -2.34784 0
M  V30 10805 C 979.492 2.34176 -3.84033 0
M  V30 10806 C 980.811 3.75146 -2.30116 0
M  V30 10807 H 977.93 0.541652 -0.499783 0
M  V30 10808 H 980.572 0.835968 -1.70621 0
M  V30 10809 H 978.722 3.29114 -2.06437 0
M  V30 10810 H 980.394 1.83701 -4.23145 0
M  V30 10811 H 978.637 1.66361 -4.00633 0
M  V30 10812 H 979.308 3.22786 -4.47787 0
M  V30 10813 H 981.784 3.28661 -2.55189 0
M  V30 10814 H 980.66 4.5937 -3.00451 0
M  V30 10815 H 980.921 4.22326 -1.30741 0
M  V30 10816 N 979.98 1.24838 0.961938 0
M  V30 10817 C 981.229 1.0855 1.69999 0
M  V30 10818 C 981.542 -0.374645 1.91979 0
M  V30 10819 O 982.748 -0.657822 2.6341 0
M  V30 10820 C 981.204 1.89424 3.06017 0
M  V30 10821 C 980.812 3.39885 2.9186 0
M  V30 10822 C 982.556 1.81684 3.83655 0
M  V30 10823 C 980.463 4.13082 4.23223 0
M  V30 10824 H 979.393 0.402603 0.637516 0
M  V30 10825 H 982.044 1.4897 1.07146 0
M  V30 10826 H 980.426 1.41823 3.69733 0
M  V30 10827 H 981.6 3.95108 2.37121 0
M  V30 10828 H 979.915 3.4864 2.27683 0
M  V30 10829 H 982.512 2.3367 4.80939 0
M  V30 10830 H 982.855 0.783247 4.08865 0
M  V30 10831 H 983.388 2.26997 3.26676 0
M  V30 10832 H 980.127 5.16824 4.03204 0
M  V30 10833 H 979.647 3.62644 4.77755 0
M  V30 10834 H 981.326 4.20397 4.91808 0
M  V30 10835 N 981.458 -1.16348 1.06306 0
M  V30 10836 C 982.388 -2.2291 0.695234 0
M  V30 10837 C 983.369 -1.67208 -0.312343 0
M  V30 10838 O 984.554 -1.93293 -0.187442 0
M  V30 10839 C 981.684 -3.47205 0.0810149 0
M  V30 10840 C 980.638 -4.15801 1.01458 0
M  V30 10841 C 979.964 -5.3405 0.263656 0
M  V30 10842 C 981.264 -4.66766 2.34365 0
M  V30 10843 H 982.958 -2.53934 1.58613 0
M  V30 10844 H 980.504 -1.22056 0.76409 0
M  V30 10845 H 982.457 -4.2098 -0.18818 0
M  V30 10846 H 981.181 -3.15482 -0.844897 0
M  V30 10847 H 979.84 -3.43954 1.26852 0
M  V30 10848 H 979.488 -4.9858 -0.665378 0
M  V30 10849 H 979.188 -5.80885 0.88582 0
M  V30 10850 H 980.712 -6.106 0.00200994 0
M  V30 10851 H 982.126 -5.3212 2.13356 0
M  V30 10852 H 980.523 -5.24223 2.9208 0
M  V30 10853 H 981.593 -3.82969 2.97426 0
M  V30 10854 N 982.937 -0.845659 -1.3299 0
M  V30 10855 C 983.867 -0.298957 -2.31578 0
M  V30 10856 C 984.848 0.597012 -1.59279 0
M  V30 10857 O 986.033 0.519142 -1.87132 0
M  V30 10858 C 983.163 0.521109 -3.43368 0
M  V30 10859 C 982.117 -0.279651 -4.27085 0
M  V30 10860 C 981.443 0.664591 -5.30554 0
M  V30 10861 C 982.743 -1.50046 -5.00283 0
M  V30 10862 H 984.437 -1.12272 -2.77552 0
M  V30 10863 H 981.983 -0.54132 -1.33438 0
M  V30 10864 H 983.936 0.913921 -4.1137 0
M  V30 10865 H 982.66 1.37815 -2.96099 0
M  V30 10866 H 981.319 -0.654106 -3.60717 0
M  V30 10867 H 980.967 1.51822 -4.79541 0
M  V30 10868 H 980.667 0.132871 -5.8745 0
M  V30 10869 H 982.191 1.05477 -6.01421 0
M  V30 10870 H 983.605 -1.18044 -5.61016 0
M  V30 10871 H 982.002 -1.96946 -5.66862 0
M  V30 10872 H 983.072 -2.26659 -4.28665 0
M  V30 10873 N 984.415 1.45619 -0.602734 0
M  V30 10874 C 985.645 2.06348 -0.102105 0
M  V30 10875 C 986.053 1.44884 1.21677 0
M  V30 10876 O 985.396 0.555559 1.75098 0
M  V30 10877 C 985.458 3.59309 0.117026 0
M  V30 10878 C 985.122 4.43081 -1.11931 0
M  V30 10879 C 986.119 4.78364 -2.03627 0
M  V30 10880 C 983.804 4.83908 -1.34677 0
M  V30 10881 C 985.798 5.53325 -3.16403 0
M  V30 10882 C 983.485 5.58624 -2.47754 0
M  V30 10883 C 984.483 5.93249 -3.38445 0
M  V30 10884 O 984.171 6.6645 -4.49555 0
M  V30 10885 H 983.903 0.672988 -0.0637478 0
M  V30 10886 H 986.457 1.87928 -0.828983 0
M  V30 10887 H 984.687 3.76111 0.898742 0
M  V30 10888 H 986.376 4.01897 0.568649 0
M  V30 10889 H 987.142 4.47384 -1.87277 0
M  V30 10890 H 983.021 4.56396 -0.649875 0
M  V30 10891 H 986.565 5.80268 -3.87214 0
M  V30 10892 H 982.462 5.89019 -2.64059 0
M  V30 10893 H 983.23 6.84895 -4.48175 0
M  V30 10894 N 985.893 0.34162 1.53853 0
M  V30 10895 C 986.803 -0.524555 2.2866 0
M  V30 10896 C 987.819 -1.1136 1.33697 0
M  V30 10897 O 988.995 -1.1297 1.66732 0
M  V30 10898 C 986.06 -1.66065 3.04341 0
M  V30 10899 C 985.121 -1.10158 4.14926 0
M  V30 10900 C 984.354 -2.18353 4.86988 0
M  V30 10901 O 984.577 -3.39038 4.58704 0
M  V30 10902 O 983.511 -1.82756 5.73484 0
M  V30 10903 H 987.337 0.0835014 3.03585 0
M  V30 10904 H 984.922 0.106727 1.49018 0
M  V30 10905 H 986.804 -2.3217 3.51674 0
M  V30 10906 H 985.479 -2.25456 2.32275 0
M  V30 10907 H 984.386 -0.405109 3.719 0
M  V30 10908 H 985.719 -0.552567 4.89088 0
M  V30 10909 N 987.371 -1.57444 0.0701946 0
M  V30 10910 C 988.599 -1.97754 -0.608358 0
M  V30 10911 C 989.014 -0.948496 -1.63245 0
M  V30 10912 O 988.371 0.065046 -1.82384 0
M  V30 10913 C 988.422 -3.38142 -1.27836 0
M  V30 10914 O 988.143 -4.37104 -0.295255 0
M  V30 10915 C 989.644 -3.93318 -2.04489 0
M  V30 10916 H 986.864 -0.650398 -0.164997 0
M  V30 10917 H 989.408 -2.04006 0.142124 0
M  V30 10918 H 987.563 -3.32982 -1.97994 0
M  V30 10919 H 987.977 -5.18732 -0.77574 0
M  V30 10920 H 989.451 -4.93774 -2.46762 0
M  V30 10921 H 989.928 -3.29774 -2.90079 0
M  V30 10922 H 990.534 -4.01875 -1.39201 0
M  V30 10923 N 988.849 0.203349 -1.56283 0
M  V30 10924 C 989.812 1.23566 -1.93039 0
M  V30 10925 C 990.812 1.38869 -0.810687 0
M  V30 10926 O 992.002 1.36822 -1.07821 0
M  V30 10927 C 989.134 2.60645 -2.1972 0
M  V30 10928 H 990.327 0.921692 -2.85385 0
M  V30 10929 H 987.88 0.44453 -1.49845 0
M  V30 10930 H 988.615 2.9711 -1.29985 0
M  V30 10931 H 988.4 2.50911 -3.01307 0
M  V30 10932 H 989.89 3.35103 -2.4919 0
M  V30 10933 N 990.327 1.50405 0.470755 0
M  V30 10934 C 991.257 1.72222 1.57676 0
M  V30 10935 C 992.238 0.57121 1.60222 0
M  V30 10936 O 993.423 0.810381 1.76484 0
M  V30 10937 C 990.553 1.81666 2.95998 0
M  V30 10938 C 989.507 2.96857 3.08318 0
M  V30 10939 C 988.833 2.91445 4.4829 0
M  V30 10940 C 990.133 4.37361 2.85504 0
M  V30 10941 H 991.827 2.64825 1.39671 0
M  V30 10942 H 989.373 1.27438 0.67049 0
M  V30 10943 H 991.326 1.95514 3.73299 0
M  V30 10944 H 990.05 0.856856 3.1516 0
M  V30 10945 H 988.709 2.82661 2.33449 0
M  V30 10946 H 988.357 1.93309 4.64371 0
M  V30 10947 H 988.057 3.68776 4.57469 0
M  V30 10948 H 989.581 3.07341 5.27611 0
M  V30 10949 H 990.995 4.52081 3.52555 0
M  V30 10950 H 989.392 5.16145 3.06127 0
M  V30 10951 H 990.462 4.49708 1.81359 0
M  V30 10952 N 991.805 -0.723954 1.39988 0
M  V30 10953 C 992.735 -1.85103 1.42335 0
M  V30 10954 C 993.716 -1.6769 0.285297 0
M  V30 10955 O 994.901 -1.87846 0.492716 0
M  V30 10956 C 992.031 -3.22972 1.27697 0
M  V30 10957 C 990.985 -3.55041 2.39018 0
M  V30 10958 C 990.311 -4.91965 2.09462 0
M  V30 10959 C 991.611 -3.56889 3.8135 0
M  V30 10960 H 993.305 -1.83396 2.36656 0
M  V30 10961 H 990.851 -0.880926 1.13911 0
M  V30 10962 H 992.804 -4.01503 1.27958 0
M  V30 10963 H 991.528 -3.25233 0.298487 0
M  V30 10964 H 990.187 -2.78845 2.37993 0
M  V30 10965 H 989.835 -4.90819 1.10025 0
M  V30 10966 H 989.535 -5.14389 2.84038 0
M  V30 10967 H 991.059 -5.7284 2.11391 0
M  V30 10968 H 992.473 -4.25476 3.84243 0
M  V30 10969 H 990.87 -3.90836 4.55376 0
M  V30 10970 H 991.94 -2.56452 4.11534 0
M  V30 10971 N 993.283 -1.25346 -0.955304 0
M  V30 10972 C 994.508 -1.12892 -1.73983 0
M  V30 10973 C 994.933 0.313455 -1.8547 0
M  V30 10974 O 994.291 1.22706 -1.33465 0
M  V30 10975 C 994.339 -1.78729 -3.1319 0
M  V30 10976 O 993.443 -1.06648 -3.98372 0
M  V30 10977 H 992.784 -0.394178 -0.534341 0
M  V30 10978 H 995.314 -1.65897 -1.19747 0
M  V30 10979 H 995.324 -1.84987 -3.63653 0
M  V30 10980 H 993.999 -2.83669 -3.04146 0
M  V30 10981 H 992.576 -1.08266 -3.56837 0
M  V30 10982 N 994.761 1.15782 -1.06922 0
M  V30 10983 C 995.986 1.90896 -0.810771 0
M  V30 10984 C 996.411 1.77246 0.629714 0
M  V30 10985 O 995.769 1.10215 1.43953 0
M  V30 10986 C 995.817 3.39397 -1.21829 0
M  V30 10987 O 994.921 4.10818 -0.360934 0
M  V30 10988 H 994.262 0.594497 -0.295752 0
M  V30 10989 H 996.792 1.46652 -1.42669 0
M  V30 10990 H 996.802 3.90181 -1.19259 0
M  V30 10991 H 995.477 3.4865 -2.2675 0
M  V30 10992 H 994.054 3.7019 -0.448748 0
M  V30 10993 N 996.239 0.8527 1.3254 0
M  V30 10994 C 997.487 0.454224 1.96929 0
M  V30 10995 C 997.808 -0.993034 1.67821 0
M  V30 10996 O 997.078 -1.69371 0.984393 0
M  V30 10997 H 995.658 0.164977 0.728554 0
M  V30 10998 H 998.32 1.0887 1.61658 0
M  V30 10999 H 997.416 0.597667 3.06324 0
M  V30 11000 N 997.718 -1.45297 0.610449 0
M  V30 11001 C 998.965 -2.02218 0.106759 0
M  V30 11002 C 999.293 -1.47849 -1.26376 0
M  V30 11003 O 998.548 -0.644402 -1.84786 0
M  V30 11004 C 998.847 -3.57394 0.0205329 0
M  V30 11005 C 998.513 -4.30928 1.32709 0
M  V30 11006 C 997.175 -4.50735 1.68498 0
M  V30 11007 C 999.527 -4.72936 2.19046 0
M  V30 11008 C 996.855 -5.09806 2.90371 0
M  V30 11009 C 999.207 -5.33355 3.40169 0
M  V30 11010 C 997.871 -5.51384 3.76207 0
M  V30 11011 H 997.141 -0.739969 0.039066 0
M  V30 11012 H 999.788 -1.74326 0.792638 0
M  V30 11013 H 998.093 -3.84581 -0.748623 0
M  V30 11014 H 999.79 -3.99144 -0.385386 0
M  V30 11015 H 996.38 -4.15827 1.03854 0
M  V30 11016 H 1000.56 -4.57365 1.92695 0
M  V30 11017 H 995.82 -5.21953 3.18395 0
M  V30 11018 H 999.994 -5.64859 4.07318 0
M  V30 11019 H 997.621 -5.96924 4.70729 0
M  V30 11020 N 999.196 -0.349774 -1.5367 0
M  V30 11021 C 1000.42 0.248692 -2.05904 0
M  V30 11022 C 1000.85 1.42942 -1.22267 0
M  V30 11023 O 1000.2 1.79732 -0.237899 0
M  V30 11024 C 1000.25 0.635639 -3.54953 0
M  V30 11025 O 999.356 1.7349 -3.74132 0
M  V30 11026 H 998.697 0.0399477 -0.662797 0
M  V30 11027 H 1001.23 -0.505795 -1.9825 0
M  V30 11028 H 1001.24 0.911064 -3.97698 0
M  V30 11029 H 999.912 -0.227805 -4.15276 0
M  V30 11030 H 998.489 1.45626 -3.43289 0
M  V30 11031 N 1000.67 1.57404 -0.0785433 0
M  V30 11032 C 1001.6 2.16131 0.883726 0
M  V30 11033 C 1002.58 1.09015 1.30575 0
M  V30 11034 O 1003.77 1.3708 1.37559 0
M  V30 11035 C 1000.9 2.72836 2.1489 0
M  V30 11036 C 999.854 3.85178 1.86605 0
M  V30 11037 C 999.18 4.28516 3.1981 0
M  V30 11038 C 1000.48 5.09118 1.16601 0
M  V30 11039 H 1002.17 2.9679 0.394484 0
M  V30 11040 H 999.72 1.42763 0.188304 0
M  V30 11041 H 1001.67 3.12567 2.8263 0
M  V30 11042 H 1000.4 1.89408 2.66068 0
M  V30 11043 H 999.056 3.45962 1.21268 0
M  V30 11044 H 998.704 3.42 3.68843 0
M  V30 11045 H 998.404 5.04249 3.01674 0
M  V30 11046 H 999.928 4.70868 3.88737 0
M  V30 11047 H 1001.34 5.46123 1.74422 0
M  V30 11048 H 999.739 5.90173 1.087 0
M  V30 11049 H 1000.81 4.8468 0.146138 0
M  V30 11050 N 1002.15 -0.195058 1.56388 0
M  V30 11051 C 1003.06 -1.26219 1.97752 0
M  V30 11052 C 1004.08 -1.49801 0.885192 0
M  V30 11053 O 1005.25 -1.62415 1.19094 0
M  V30 11054 C 1002.32 -2.5865 2.3087 0
M  V30 11055 C 1001.38 -2.4314 3.5381 0
M  V30 11056 C 1000.61 -3.69255 3.85339 0
M  V30 11057 O 1000.84 -4.73425 3.18159 0
M  V30 11058 O 999.77 -3.64782 4.78767 0
M  V30 11059 H 1003.6 -0.941161 2.88749 0
M  V30 11060 H 1001.18 -0.40006 1.43944 0
M  V30 11061 H 1003.06 -3.36814 2.53247 0
M  V30 11062 H 1001.74 -2.9038 1.43042 0
M  V30 11063 H 1000.64 -1.63086 3.3668 0
M  V30 11064 H 1001.98 -2.16341 4.42105 0
M  V30 11065 N 1003.63 -1.50653 -0.462772 0
M  V30 11066 C 1004.91 -1.5258 -1.22387 0
M  V30 11067 C 1005.29 -0.275263 -2.09298 0
M  V30 11068 O 1004.63 0.740943 -2.16153 0
M  V30 11069 C 1004.84 -2.82611 -2.04773 0
M  V30 11070 C 1006.19 -3.33592 -2.62681 0
M  V30 11071 O 1007.22 -2.83989 -2.15008 0
M  V30 11072 O 1006.08 -4.20081 -3.49563 0
M  V30 11073 H 1003.17 -0.612367 -0.55582 0
M  V30 11074 H 1005.72 -1.62948 -0.473914 0
M  V30 11075 H 1004.49 -3.65098 -1.40781 0
M  V30 11076 H 1004.11 -2.75286 -2.86886 0
M  V30 11077 N 1005.11 0.71652 -1.4037 0
M  V30 11078 C 1006.52 1.29562 -1.34427 0
M  V30 11079 C 1006.87 1.96192 -0.0173106 0
M  V30 11080 O 1006 1.97488 0.884719 0
M  V30 11081 C 1006.59 2.35601 -2.4347 0
M  V30 11082 C 1005.15 2.89138 -2.4099 0
M  V30 11083 C 1004.3 1.62915 -2.24397 0
M  V30 11084 H 1007.25 0.512715 -1.5019 0
M  V30 11085 H 1007.27 3.16422 -2.11323 0
M  V30 11086 H 1006.78 1.87077 -3.40035 0
M  V30 11087 H 1004.88 3.41894 -1.4812 0
M  V30 11088 H 1004.99 3.40995 -3.3654 0
M  V30 11089 H 1003.36 1.87947 -1.71896 0
M  V30 11090 H 1004.14 1.16417 -3.22958 0
M  V30 11091 N 1006.59 1.25851 0.948643 0
M  V30 11092 C 1007.52 1.02549 2.04979 0
M  V30 11093 C 1008.53 -0.0115923 1.62796 0
M  V30 11094 O 1009.72 0.227643 1.77042 0
M  V30 11095 C 1006.82 0.529486 3.34738 0
M  V30 11096 C 1005.99 1.6341 4.05729 0
M  V30 11097 C 1005.05 1.13743 5.1376 0
M  V30 11098 O 1004.08 1.83303 5.38877 0
M  V30 11099 N 1005.28 -0.0181151 5.80497 0
M  V30 11100 H 1008.05 1.97365 2.25537 0
M  V30 11101 H 1005.61 1.17137 1.11761 0
M  V30 11102 H 1007.6 0.181566 4.04293 0
M  V30 11103 H 1006.17 -0.324893 3.10907 0
M  V30 11104 H 1005.39 2.15331 3.30191 0
M  V30 11105 H 1006.68 2.37603 4.49914 0
M  V30 11106 H 1006.07 -0.599198 5.62518 0
M  V30 11107 H 1004.63 -0.307019 6.51077 0
M  V30 11108 N 1008.06 -1.15214 1.07534 0
M  V30 11109 C 1009.29 -1.89922 0.820804 0
M  V30 11110 C 1009.71 -1.78114 -0.626177 0
M  V30 11111 O 1009.06 -1.13435 -1.42964 0
M  V30 11112 C 1009.12 -3.40207 1.22236 0
M  V30 11113 O 1008.84 -3.51676 2.61257 0
M  V30 11114 C 1010.34 -4.31934 0.997393 0
M  V30 11115 H 1007.56 -0.601865 0.296647 0
M  V30 11116 H 1010.1 -1.45965 1.43229 0
M  V30 11117 H 1008.26 -3.8182 0.655167 0
M  V30 11118 H 1008.67 -4.44959 2.77689 0
M  V30 11119 H 1010.14 -5.35791 1.32785 0
M  V30 11120 H 1010.62 -4.3915 -0.0661599 0
M  V30 11121 H 1011.23 -3.96066 1.54958 0
M  V30 11122 N 1009.54 -0.859717 -1.32086 0
M  V30 11123 C 1010.49 -0.279715 -2.26278 0
M  V30 11124 C 1011.48 0.577348 -1.50185 0
M  V30 11125 O 1012.67 0.425903 -1.71799 0
M  V30 11126 C 1009.8 0.526622 -3.39237 0
M  V30 11127 C 1008.88 -0.343112 -4.2271 0
M  V30 11128 N 1009.27 -1.43176 -4.85113 0
M  V30 11129 C 1007.57 -0.133744 -4.45799 0
M  V30 11130 C 1008.27 -1.96725 -5.47425 0
M  V30 11131 N 1007.25 -1.26569 -5.2866 0
M  V30 11132 H 1011.05 -1.11191 -2.72055 0
M  V30 11133 H 1008.57 -0.706372 -1.46233 0
M  V30 11134 H 1010.56 0.958587 -4.0573 0
M  V30 11135 H 1009.22 1.35655 -2.95005 0
M  V30 11136 H 1010.23 -1.81469 -4.85066 0
M  V30 11137 H 1006.91 0.661064 -4.12233 0
M  V30 11138 H 1008.3 -2.88006 -6.07044 0
M  V30 11139 N 1011.02 1.44971 -0.618145 0
M  V30 11140 C 1011.98 2.29044 0.0846739 0
M  V30 11141 C 1012.98 1.40341 0.784921 0
M  V30 11142 O 1014.17 1.62351 0.631479 0
M  V30 11143 C 1011.31 3.21617 1.13027 0
M  V30 11144 H 1012.5 2.92668 -0.654612 0
M  V30 11145 H 1010.05 1.51668 -0.377672 0
M  V30 11146 H 1010.79 2.62815 1.89997 0
M  V30 11147 H 1010.57 3.86969 0.63224 0
M  V30 11148 H 1012.06 3.84805 1.62218 0
M  V30 11149 N 1012.5 0.357919 1.53482 0
M  V30 11150 C 1013.45 -0.507364 2.26999 0
M  V30 11151 C 1014.44 -1.08987 1.29685 0
M  V30 11152 O 1015.65 -1.03396 1.47341 0
M  V30 11153 H 1012.02 -0.182326 0.729562 0
M  V30 11154 H 1013.99 0.134547 2.98097 0
M  V30 11155 C 1012.74 -1.63911 3.06641 0
M  V30 11156 H 1012.06 -1.20017 3.81361 0
M  V30 11157 H 1013.5 -2.21943 3.61272 0
M  V30 11158 C 1011.96 -2.57697 2.17011 0
M  V30 11159 O 1012.49 -3.60318 1.77578 0
M  V30 11160 N 1010.7 -2.2671 1.818 0
M  V30 11161 H 1010.25 -1.43296 2.14065 0
M  V30 11162 H 1010.2 -2.89716 1.22115 0
M  V30 11163 N 1013.98 -1.5736 0.0868897 0
M  V30 11164 C 1015.39 -1.57304 -0.269762 0
M  V30 11165 C 1015.59 -1.09745 -1.68992 0
M  V30 11166 O 1014.65 -0.77017 -2.40468 0
M  V30 11167 C 1015.96 -3.00628 -0.0656646 0
M  V30 11168 C 1017.51 -3.12713 -0.134045 0
M  V30 11169 C 1017.98 -4.57981 0.0419569 0
M  V30 11170 N 1019.48 -4.63198 -0.0131501 0
M  V30 11171 C 1020.21 -5.73316 0.0983964 0
M  V30 11172 N 1019.71 -6.92296 0.264315 0
M  V30 11173 N 1021.5 -5.62086 0.0402517 0
M  V30 11174 H 1013.65 -1.86585 1.01487 0
M  V30 11175 H 1015.91 -0.860843 0.397055 0
M  V30 11176 H 1015.62 -3.39592 0.914891 0
M  V30 11177 H 1015.49 -3.68367 -0.811522 0
M  V30 11178 H 1017.88 -2.73627 -1.1051 0
M  V30 11179 H 1017.96 -2.47582 0.643167 0
M  V30 11180 H 1017.61 -4.9776 1.00984 0
M  V30 11181 H 1017.54 -5.21162 -0.754847 0
M  V30 11182 H 1020.03 -3.77644 -0.139183 0
M  V30 11183 H 1020.34 -7.72047 0.341165 0
M  V30 11184 H 1018.68 -6.94353 0.299876 0
M  V30 11185 H 1021.88 -4.68017 -0.0881801 0
M  V30 11186 H 1022.05 -6.47868 0.130635 0
M  V30 11187 N 1015.45 0.186762 -1.56489 0
M  V30 11188 C 1016.7 0.904077 -1.80303 0
M  V30 11189 C 1017.02 1.84073 -0.661538 0
M  V30 11190 O 1018.22 2.59928 -0.784197 0
M  V30 11191 C 1016.68 1.65806 -3.19432 0
M  V30 11192 C 1016.29 0.765807 -4.41406 0
M  V30 11193 C 1018.03 2.36451 -3.52549 0
M  V30 11194 C 1015.94 1.51913 -5.71556 0
M  V30 11195 H 1014.87 0.34133 -0.672317 0
M  V30 11196 H 1017.52 0.157218 -1.82825 0
M  V30 11197 H 1015.9 2.44911 -3.11183 0
M  V30 11198 H 1017.07 0.0128225 -4.60798 0
M  V30 11199 H 1015.39 0.169772 -4.16054 0
M  V30 11200 H 1017.99 2.93378 -4.47027 0
M  V30 11201 H 1018.33 3.11044 -2.7669 0
M  V30 11202 H 1018.86 1.64305 -3.62283 0
M  V30 11203 H 1015.6 0.815829 -6.50403 0
M  V30 11204 H 1015.12 2.24583 -5.56168 0
M  V30 11205 H 1016.8 2.07073 -6.12968 0
M  V30 11206 N 1016.93 1.50896 0.454776 0
M  V30 11207 C 1018.16 1.66239 1.22671 0
M  V30 11208 C 1018.57 0.351876 1.85899 0
M  V30 11209 O 1017.91 -0.677848 1.70736 0
M  V30 11210 C 1017.98 2.70812 2.36434 0
M  V30 11211 C 1017.64 4.13913 1.93714 0
M  V30 11212 C 1018.64 4.99259 1.45039 0
M  V30 11213 C 1016.32 4.59921 2.01937 0
M  V30 11214 C 1018.32 6.28667 1.05151 0
M  V30 11215 C 1016 5.89329 1.6166 0
M  V30 11216 C 1017 6.73529 1.13347 0
M  V30 11217 O 1016.69 8.0052 0.736354 0
M  V30 11218 H 1016.42 0.561443 0.376508 0
M  V30 11219 H 1018.97 1.97974 0.547325 0
M  V30 11220 H 1017.2 2.34355 3.07595 0
M  V30 11221 H 1018.89 2.7521 2.98353 0
M  V30 11222 H 1019.66 4.64925 1.38095 0
M  V30 11223 H 1015.54 3.94518 2.38488 0
M  V30 11224 H 1019.08 6.94339 0.673711 0
M  V30 11225 H 1014.98 6.23182 1.68269 0
M  V30 11226 H 1015.75 8.1393 0.863759 0
M  V30 11227 N 1018.41 -0.709066 1.40748 0
M  V30 11228 C 1019.83 -1.01797 1.22921 0
M  V30 11229 C 1020.03 -2.01205 0.109011 0
M  V30 11230 O 1019.08 -2.46854 -0.530987 0
M  V30 11231 C 1020.4 -1.55546 2.57344 0
M  V30 11232 C 1021.94 -1.67498 2.64412 0
M  V30 11233 C 1022.42 -2.24652 3.99119 0
M  V30 11234 N 1023.91 -2.3203 4.00895 0
M  V30 11235 C 1024.64 -2.7725 5.01917 0
M  V30 11236 N 1024.14 -3.22174 6.13332 0
M  V30 11237 N 1025.93 -2.76692 4.89283 0
M  V30 11238 H 1018.08 -0.0502704 2.12341 0
M  V30 11239 H 1020.35 -0.0848933 0.944191 0
M  V30 11240 H 1020.05 -0.899631 3.39999 0
M  V30 11241 H 1019.93 -2.53971 2.78888 0
M  V30 11242 H 1022.31 -2.32196 1.82123 0
M  V30 11243 H 1022.4 -0.676553 2.46691 0
M  V30 11244 H 1022.04 -1.60573 4.81849 0
M  V30 11245 H 1021.97 -3.25221 4.14173 0
M  V30 11246 H 1024.46 -2.00309 3.20444 0
M  V30 11247 H 1024.77 -3.55265 6.86299 0
M  V30 11248 H 1023.12 -3.20116 6.16888 0
M  V30 11249 H 1026.31 -2.40936 4.01332 0
M  V30 11250 H 1026.48 -3.11617 5.68154 0
M  V30 11251 N 1019.89 -1.26353 -0.941956 0
M  V30 11252 C 1020.82 -1.02163 -2.04054 0
M  V30 11253 C 1021.8 0.0533514 -1.62512 0
M  V30 11254 O 1022.98 -0.0889063 -1.8829 0
M  V30 11255 C 1020.11 -0.546908 -3.34255 0
M  V30 11256 C 1019.16 -1.61433 -3.94768 0
M  V30 11257 S 1019.99 -3.20306 -4.29144 0
M  V30 11258 C 1021.15 -2.746 -5.62446 0
M  V30 11259 H 1021.38 -1.9518 -2.24259 0
M  V30 11260 H 1018.91 -1.10024 -1.08324 0
M  V30 11261 H 1020.87 -0.279673 -4.09546 0
M  V30 11262 H 1019.53 0.36297 -3.11996 0
M  V30 11263 H 1018.72 -1.23315 -4.88681 0
M  V30 11264 H 1018.33 -1.8329 -3.26007 0
M  V30 11265 H 1020.62 -2.19015 -6.41123 0
M  V30 11266 H 1021.56 -3.67202 -6.05449 0
M  V30 11267 H 1021.97 -2.1419 -5.22286 0
M  V30 11268 N 1021.37 1.14642 -1.08144 0
M  V30 11269 C 1022.62 1.84964 -0.804437 0
M  V30 11270 C 1022.93 1.8369 0.672106 0
M  V30 11271 O 1024.14 2.49775 1.06417 0
M  V30 11272 C 1022.59 3.32015 -1.38904 0
M  V30 11273 C 1022.2 3.41713 -2.89718 0
M  V30 11274 C 1023.94 4.07467 -1.19041 0
M  V30 11275 C 1021.85 4.82958 -3.41329 0
M  V30 11276 H 1020.78 0.692932 -0.297256 0
M  V30 11277 H 1023.43 1.29255 -1.30251 0
M  V30 11278 H 1021.81 3.87445 -0.818679 0
M  V30 11279 H 1022.99 2.96347 -3.52867 0
M  V30 11280 H 1021.3 2.79713 -3.08463 0
M  V30 11281 H 1023.9 5.1172 -1.55069 0
M  V30 11282 H 1024.24 4.16097 -0.130027 0
M  V30 11283 H 1024.78 3.58329 -1.72757 0
M  V30 11284 H 1021.51 4.79515 -4.46929 0
M  V30 11285 H 1021.03 5.28873 -2.82937 0
M  V30 11286 H 1022.71 5.51841 -3.37759 0
M  V30 11287 N 1022.85 0.866709 1.31628 0
M  V30 11288 C 1023.79 0.318169 2.28596 0
M  V30 11289 C 1024.76 -0.581558 1.55586 0
M  V30 11290 O 1025.95 -0.513895 1.83749 0
M  V30 11291 C 1023.09 -0.477137 3.41786 0
M  V30 11292 C 1022.2 0.449739 4.29653 0
M  V30 11293 C 1021.34 -0.359373 5.29983 0
M  V30 11294 C 1020.37 0.564138 6.09495 0
M  V30 11295 N 1019.51 -0.208526 7.0179 0
M  V30 11296 H 1024.35 1.15029 2.74904 0
M  V30 11297 H 1021.89 0.578649 1.35241 0
M  V30 11298 H 1023.85 -0.953985 4.06146 0
M  V30 11299 H 1022.48 -1.27398 2.96597 0
M  V30 11300 H 1021.53 1.04502 3.65764 0
M  V30 11301 H 1022.84 1.158 4.85172 0
M  V30 11302 H 1021.99 -0.89887 6.00004 0
M  V30 11303 H 1020.73 -1.10094 4.75111 0
M  V30 11304 H 1019.74 1.11542 5.38366 0
M  V30 11305 H 1020.96 1.30451 6.66453 0
M  V30 11306 H 1018.91 -0.932969 6.49332 0
M  V30 11307 H 1018.83 0.440463 7.54716 0
M  V30 11308 H 1020.09 -0.72936 7.7608 0
M  V30 11309 N 1024.32 -1.44642 0.625825 0
M  V30 11310 C 1025.25 -2.33397 -0.0692188 0
M  V30 11311 C 1026.23 -1.47898 -0.840241 0
M  V30 11312 O 1027.42 -1.7663 -0.807176 0
M  V30 11313 C 1024.55 -3.30888 -1.055 0
M  V30 11314 C 1023.5 -4.26164 -0.395968 0
M  V30 11315 C 1022.83 -5.13483 -1.49128 0
M  V30 11316 C 1024.13 -5.17663 0.694433 0
M  V30 11317 H 1025.82 -2.91763 0.671925 0
M  V30 11318 H 1023.37 -1.40294 0.324573 0
M  V30 11319 H 1025.32 -3.91861 -1.54993 0
M  V30 11320 H 1024.05 -2.7072 -1.82696 0
M  V30 11321 H 1022.71 -3.66516 0.0782691 0
M  V30 11322 H 1022.35 -4.49672 -2.25399 0
M  V30 11323 H 1022.05 -5.78038 -1.05573 0
M  V30 11324 H 1023.58 -5.77327 -1.98813 0
M  V30 11325 H 1024.99 -5.72602 0.282818 0
M  V30 11326 H 1023.39 -5.90793 1.05281 0
M  V30 11327 H 1024.46 -4.58994 1.56372 0
M  V30 11328 N 1025.8 -0.366053 -1.5329 0
M  V30 11329 C 1027.05 0.223051 -2.00865 0
M  V30 11330 C 1027.37 1.49244 -1.25504 0
M  V30 11331 O 1026.64 1.92404 -0.368444 0
M  V30 11332 H 1025.22 0.085413 -0.742101 0
M  V30 11333 H 1027.88 -0.492396 -1.88578 0
M  V30 11334 H 1026.98 0.449701 -3.08843 0
M  V30 11335 N 1027.28 1.57312 -0.0952337 0
M  V30 11336 C 1028.21 2.17056 0.860753 0
M  V30 11337 C 1029.19 1.10394 1.29411 0
M  V30 11338 O 1030.38 1.38532 1.36098 0
M  V30 11339 C 1027.51 2.751 2.11984 0
M  V30 11340 C 1026.46 3.87136 1.8251 0
M  V30 11341 C 1025.79 4.31883 3.15247 0
M  V30 11342 C 1027.09 5.10326 1.11194 0
M  V30 11343 H 1028.78 2.97192 0.362983 0
M  V30 11344 H 1026.33 1.42955 0.173151 0
M  V30 11345 H 1028.28 3.15547 2.79299 0
M  V30 11346 H 1027 1.92219 2.64044 0
M  V30 11347 H 1025.66 3.47229 1.17592 0
M  V30 11348 H 1025.31 3.45893 3.65195 0
M  V30 11349 H 1025.01 5.0742 2.96309 0
M  V30 11350 H 1026.53 4.74964 3.83721 0
M  V30 11351 H 1027.95 5.47942 1.6862 0
M  V30 11352 H 1026.34 5.91293 1.02435 0
M  V30 11353 H 1027.41 4.84807 0.0947227 0
M  V30 11354 N 1028.76 -0.17846 1.56586 0
M  V30 11355 C 1030.01 -0.894464 1.81228 0
M  V30 11356 C 1030.33 -1.83089 0.671062 0
M  V30 11357 O 1029.6 -1.93439 -0.309557 0
M  V30 11358 H 1028.18 -0.333288 0.668527 0
M  V30 11359 H 1030.84 -0.179986 1.94067 0
M  V30 11360 H 1029.93 -1.47565 2.75011 0
M  V30 11361 N 1030.24 -1.51135 -0.446768 0
M  V30 11362 C 1031.48 -1.62571 -1.19388 0
M  V30 11363 C 1031.8 -0.3432 -1.92566 0
M  V30 11364 O 1033 -0.336804 -2.69403 0
M  V30 11365 C 1031.46 -2.87071 -2.17068 0
M  V30 11366 C 1031.07 -4.22291 -1.49581 0
M  V30 11367 C 1032.81 -3.07862 -2.9227 0
M  V30 11368 C 1030.72 -5.3795 -2.45689 0
M  V30 11369 H 1029.65 -0.60549 -0.449331 0
M  V30 11370 H 1032.3 -1.77593 -0.461846 0
M  V30 11371 H 1030.68 -2.65662 -2.93666 0
M  V30 11372 H 1031.86 -4.54046 -0.786054 0
M  V30 11373 H 1030.17 -4.07302 -0.865677 0
M  V30 11374 H 1032.77 -3.91444 -3.64246 0
M  V30 11375 H 1033.11 -2.20559 -3.53072 0
M  V30 11376 H 1033.64 -3.29566 -2.2278 0
M  V30 11377 H 1030.38 -6.27484 -1.89591 0
M  V30 11378 H 1029.9 -5.10583 -3.14746 0
M  V30 11379 H 1031.58 -5.69517 -3.07017 0
M  V30 11380 N 1031.71 0.701592 -1.41122 0
M  V30 11381 C 1032.99 1.45569 -1.30648 0
M  V30 11382 C 1033.37 2.10988 0.068744 0
M  V30 11383 O 1032.72 2.01228 1.08257 0
M  V30 11384 C 1032.93 2.48003 -2.45551 0
M  V30 11385 C 1034.28 3.13431 -2.86437 0
M  V30 11386 O 1035.3 2.58327 -2.45247 0
M  V30 11387 O 1034.16 4.13221 -3.57646 0
M  V30 11388 H 1031.25 0.648 -0.513834 0
M  V30 11389 H 1033.8 0.73258 -1.53073 0
M  V30 11390 H 1032.57 1.98276 -3.37346 0
M  V30 11391 H 1032.19 3.27832 -2.24971 0
M  V30 11392 N 1033.19 1.2685 0.935242 0
M  V30 11393 C 1034.1 1.10716 2.06831 0
M  V30 11394 C 1035.12 0.0391222 1.73956 0
M  V30 11395 O 1036.29 0.244071 1.99916 0
M  V30 11396 C 1033.36 0.748093 3.38533 0
M  V30 11397 C 1032.42 1.89619 3.85153 0
M  V30 11398 C 1031.65 1.55416 5.1057 0
M  V30 11399 O 1031.88 0.458596 5.68553 0
M  V30 11400 O 1030.81 2.39087 5.52378 0
M  V30 11401 H 1034.64 2.05785 2.23352 0
M  V30 11402 H 1032.22 1.05967 1.05315 0
M  V30 11403 H 1034.1 0.560841 4.17651 0
M  V30 11404 H 1032.78 -0.173142 3.23237 0
M  V30 11405 H 1031.68 2.13845 3.06954 0
M  V30 11406 H 1033.02 2.79737 4.04979 0
M  V30 11407 N 1034.67 -1.14067 1.0875 0
M  V30 11408 C 1035.95 -1.81389 0.73195 0
M  V30 11409 C 1036.33 -1.96005 -0.78391 0
M  V30 11410 O 1035.68 -1.52267 -1.70373 0
M  V30 11411 C 1035.89 -3.16858 1.46294 0
M  V30 11412 C 1037.23 -3.92305 1.62426 0
M  V30 11413 O 1038.26 -3.26459 1.42488 0
M  V30 11414 O 1037.12 -5.10393 1.9535 0
M  V30 11415 H 1034.21 -0.784354 0.262141 0
M  V30 11416 H 1036.76 -1.21054 1.18929 0
M  V30 11417 H 1035.53 -3.01404 2.49542 0
M  V30 11418 H 1035.15 -3.84889 0.997318 0
M  V30 11419 N 1036.15 -0.873678 -1.31166 0
M  V30 11420 C 1037.43 -0.40698 -1.91319 0
M  V30 11421 C 1037.81 1.1113 -1.79481 0
M  V30 11422 O 1037.15 1.94155 -1.20483 0
M  V30 11423 C 1037.36 -0.892484 -3.37396 0
M  V30 11424 C 1038.71 -0.920795 -4.14496 0
M  V30 11425 O 1039.74 -0.838386 -3.46193 0
M  V30 11426 O 1038.59 -1.04069 -5.365 0
M  V30 11427 H 1035.69 -0.122439 -0.817886 0
M  V30 11428 H 1038.23 -0.961835 -1.3981 0
M  V30 11429 H 1037.01 -1.93613 -3.40044 0
M  V30 11430 H 1036.63 -0.31615 -3.96341 0
M  V30 11431 N 1037.63 1.44308 -0.633487 0
M  V30 11432 C 1039.04 1.85387 -0.221009 0
M  V30 11433 C 1039.39 1.5301 1.22811 0
M  V30 11434 O 1038.51 0.969325 1.93476 0
M  V30 11435 C 1039.11 3.36497 -0.394331 0
M  V30 11436 C 1037.67 3.76382 -0.0363405 0
M  V30 11437 C 1036.81 2.68146 -0.706598 0
M  V30 11438 H 1039.77 1.34741 -0.83849 0
M  V30 11439 H 1039.79 3.78735 0.366026 0
M  V30 11440 H 1039.3 3.60031 -1.44911 0
M  V30 11441 H 1037.4 3.58463 1.01661 0
M  V30 11442 H 1037.51 4.77 -0.448045 0
M  V30 11443 H 1035.88 2.54306 -0.14168 0
M  V30 11444 H 1036.66 2.94512 -1.76401 0
M  V30 11445 N 1039.1 0.374177 1.53094 0
M  V30 11446 C 1040.33 -0.213325 2.05797 0
M  V30 11447 C 1040.75 -1.41753 1.24706 0
M  V30 11448 O 1040.1 -1.80183 0.289868 0
M  V30 11449 C 1040.16 -0.598367 3.56513 0
M  V30 11450 O 1039.88 0.557983 4.34532 0
M  V30 11451 C 1041.38 -1.24334 4.25507 0
M  V30 11452 H 1038.6 -0.0357398 0.670048 0
M  V30 11453 H 1041.14 0.535035 1.97377 0
M  V30 11454 H 1039.3 -1.29663 3.65056 0
M  V30 11455 H 1039.71 0.244911 5.23928 0
M  V30 11456 H 1041.18 -1.46325 5.32253 0
M  V30 11457 H 1041.66 -2.20622 3.79766 0
M  V30 11458 H 1042.27 -0.586269 4.2124 0
M  V30 11459 N 1040.58 -1.57259 0.103575 0
M  V30 11460 C 1041.55 -2.13337 -0.837859 0
M  V30 11461 C 1042.55 -1.06459 -1.20512 0
M  V30 11462 O 1043.74 -1.32307 -1.13316 0
M  V30 11463 C 1040.87 -2.66093 -2.13089 0
M  V30 11464 H 1042.06 -2.97842 -0.350775 0
M  V30 11465 H 1039.61 -1.55621 -0.145511 0
M  V30 11466 H 1040.35 -1.85133 -2.66264 0
M  V30 11467 H 1040.13 -3.44244 -1.87719 0
M  V30 11468 H 1041.62 -3.09443 -2.80419 0
M  V30 11469 N 1042.06 0.170153 -1.56679 0
M  V30 11470 C 1043.34 0.913938 -1.72935 0
M  V30 11471 C 1043.72 2.00342 -0.665293 0
M  V30 11472 O 1043.07 2.26252 0.319715 0
M  V30 11473 C 1043.28 1.47761 -3.16177 0
M  V30 11474 C 1044.62 1.95007 -3.7717 0
M  V30 11475 O 1045.65 1.57552 -3.19462 0
M  V30 11476 O 1044.51 2.64007 -4.78501 0
M  V30 11477 H 1041.6 0.43027 -0.706256 0
M  V30 11478 H 1044.15 0.157891 -1.68964 0
M  V30 11479 H 1042.92 0.69352 -3.85105 0
M  V30 11480 H 1042.54 2.2978 -3.24479 0
M  V30 11481 N 1043.54 1.5137 0.438746 0
M  V30 11482 C 1044.82 1.54508 1.19944 0
M  V30 11483 C 1045.2 0.308525 2.08833 0
M  V30 11484 O 1044.54 -0.706461 2.17305 0
M  V30 11485 C 1044.75 2.85833 2.00251 0
M  V30 11486 C 1046.1 3.37729 2.5734 0
M  V30 11487 O 1047.13 2.87374 2.10463 0
M  V30 11488 O 1045.98 4.25589 3.42836 0
M  V30 11489 H 1043.08 0.621132 0.546007 0
M  V30 11490 H 1045.62 1.63682 0.447931 0
M  V30 11491 H 1044.4 3.67291 1.34955 0
M  V30 11492 H 1044.02 2.79815 2.8247 0
M  V30 11493 N 1045.02 -0.694098 1.41492 0
M  V30 11494 C 1046.24 -1.48286 1.44288 0
M  V30 11495 C 1046.66 -1.88737 0.0485783 0
M  V30 11496 O 1046.02 -1.56881 -0.932449 0
M  V30 11497 C 1046.07 -2.74446 2.3529 0
M  V30 11498 O 1045.79 -2.35698 3.69294 0
M  V30 11499 C 1047.29 -3.68175 2.46905 0
M  V30 11500 H 1044.51 -0.45692 0.491391 0
M  V30 11501 H 1047.05 -0.854477 1.85793 0
M  V30 11502 H 1045.21 -3.33518 1.9709 0
M  V30 11503 H 1045.62 -3.17029 4.17843 0
M  V30 11504 H 1047.1 -4.53476 3.14743 0
M  V30 11505 H 1047.57 -4.12763 1.50078 0
M  V30 11506 H 1048.18 -3.15006 2.85747 0
M  V30 11507 N 1046.49 -1.27344 -0.928501 0
M  V30 11508 C 1047.72 -1.16557 -1.7155 0
M  V30 11509 C 1048.14 0.274044 -1.86093 0
M  V30 11510 O 1047.5 1.19847 -1.36038 0
M  V30 11511 C 1047.55 -1.85332 -3.09329 0
M  V30 11512 O 1046.65 -1.15074 -3.9602 0
M  V30 11513 H 1046 -0.405423 -0.525859 0
M  V30 11514 H 1048.53 -1.68399 -1.16202 0
M  V30 11515 H 1048.54 -1.92659 -3.59648 0
M  V30 11516 H 1047.21 -2.90056 -2.98061 0
M  V30 11517 H 1045.79 -1.1581 -3.54461 0
M  V30 11518 N 1047.97 1.13488 -1.09353 0
M  V30 11519 C 1048.94 2.17066 -0.735863 0
M  V30 11520 C 1049.94 1.59086 0.234181 0
M  V30 11521 O 1051.13 1.74196 0.012463 0
M  V30 11522 C 1048.26 3.40786 -0.0880975 0
M  V30 11523 H 1049.45 2.50221 -1.65316 0
M  V30 11524 H 1047 1.28304 -0.89263 0
M  V30 11525 H 1047.74 3.1322 0.840462 0
M  V30 11526 H 1047.52 3.8414 -0.786073 0
M  V30 11527 H 1049.01 4.17342 0.146775 0
M  V30 11528 N 1049.45 0.880621 1.30701 0
M  V30 11529 C 1050.41 0.349087 2.26526 0
M  V30 11530 C 1051.41 -0.505973 1.52632 0
M  V30 11531 O 1052.6 -0.313751 1.71351 0
M  V30 11532 C 1049.74 -0.503023 3.37168 0
M  V30 11533 H 1050.93 1.19516 2.75056 0
M  V30 11534 H 1048.48 0.657107 1.41816 0
M  V30 11535 H 1049.22 -1.36986 2.93948 0
M  V30 11536 H 1049 0.109389 3.91947 0
M  V30 11537 H 1050.49 -0.866845 4.08504 0
M  V30 11538 N 1050.93 -1.4397 0.641131 0
M  V30 11539 C 1052.18 -2.02246 0.14985 0
M  V30 11540 C 1052.51 -1.50387 -1.22871 0
M  V30 11541 O 1051.78 -0.692003 -1.81773 0
M  V30 11542 C 1052.07 -3.59798 0.147449 0
M  V30 11543 C 1051.92 -4.21916 1.55907 0
M  V30 11544 C 1053.24 -4.36985 -0.522667 0
M  V30 11545 H 1050.36 -0.734875 0.0559274 0
M  V30 11546 H 1053 -1.71418 0.819513 0
M  V30 11547 H 1051.15 -3.86193 -0.422789 0
M  V30 11548 H 1052.82 -4.06594 2.17896 0
M  V30 11549 H 1051.06 -3.79028 2.10998 0
M  V30 11550 H 1051.74 -5.30964 1.50934 0
M  V30 11551 H 1054.21 -4.16083 -0.0376226 0
M  V30 11552 H 1053.09 -5.46676 -0.493572 0
M  V30 11553 H 1053.35 -4.12335 -1.59475 0
M  V30 11554 N 1052.41 -0.382291 -1.52893 0
M  V30 11555 C 1053.64 0.202408 -2.05908 0
M  V30 11556 C 1054.05 1.4109 -1.25456 0
M  V30 11557 O 1053.41 1.80027 -0.29942 0
M  V30 11558 C 1053.46 0.579452 -3.56826 0
M  V30 11559 O 1053.18 -0.58102 -4.3423 0
M  V30 11560 C 1054.68 1.22076 -4.2616 0
M  V30 11561 H 1051.9 0.0321859 -0.670228 0
M  V30 11562 H 1054.44 -0.545494 -1.9709 0
M  V30 11563 H 1052.6 1.27726 -3.65739 0
M  V30 11564 H 1053.01 -0.272693 -5.23791 0
M  V30 11565 H 1054.49 1.435 -5.33021 0
M  V30 11566 H 1054.96 2.18605 -3.80931 0
M  V30 11567 H 1055.57 0.563922 -4.21545 0
M  V30 11568 N 1053.89 1.57202 -0.111913 0
M  V30 11569 C 1054.8 2.18475 0.854753 0
M  V30 11570 C 1055.81 1.15888 1.29792 0
M  V30 11571 O 1056.99 1.48329 1.36237 0
M  V30 11572 C 1054.05 2.76645 2.0897 0
M  V30 11573 C 1053.11 3.94244 1.69913 0
M  V30 11574 C 1052.35 4.49631 2.8752 0
M  V30 11575 O 1052.57 4.03926 4.02741 0
M  V30 11576 O 1051.5 5.40417 2.65015 0
M  V30 11577 H 1055.33 3.01519 0.363352 0
M  V30 11578 H 1052.91 1.4897 0.113329 0
M  V30 11579 H 1054.8 3.13755 2.81311 0
M  V30 11580 H 1053.47 1.96637 2.5713 0
M  V30 11581 H 1052.38 3.61915 0.947013 0
M  V30 11582 H 1053.71 4.75666 1.26501 0
M  V30 11583 N 1055.36 -0.161842 1.56767 0
M  V30 11584 C 1056.27 -1.21996 2.00385 0
M  V30 11585 C 1057.29 -1.4789 0.916768 0
M  V30 11586 O 1058.47 -1.59852 1.22513 0
M  V30 11587 C 1055.53 -2.53695 2.36305 0
M  V30 11588 C 1054.59 -2.3558 3.58888 0
M  V30 11589 C 1053.82 -3.60998 3.93085 0
M  V30 11590 O 1054.05 -4.6657 3.28129 0
M  V30 11591 O 1052.98 -3.54544 4.86397 0
M  V30 11592 H 1056.81 -0.879701 2.9068 0
M  V30 11593 H 1054.39 -0.369437 1.4476 0
M  V30 11594 H 1056.27 -3.31366 2.60335 0
M  V30 11595 H 1054.95 -2.87281 1.49169 0
M  V30 11596 H 1053.86 -1.55908 3.40064 0
M  V30 11597 H 1055.19 -2.06915 4.46595 0
M  V30 11598 N 1056.84 -1.516 -0.430713 0
M  V30 11599 C 1057.77 -1.68084 -1.54347 0
M  V30 11600 C 1058.75 -0.528401 -1.53775 0
M  V30 11601 O 1059.94 -0.753072 -1.72804 0
M  V30 11602 C 1057.06 -1.70048 -2.92919 0
M  V30 11603 C 1056.11 -2.91336 -3.11489 0
M  V30 11604 S 1056.94 -4.52043 -2.87084 0
M  V30 11605 C 1058.1 -4.56761 -4.27926 0
M  V30 11606 H 1058.33 -2.62203 -1.40131 0
M  V30 11607 H 1055.86 -1.41368 -0.620853 0
M  V30 11608 H 1057.82 -1.71864 -3.72791 0
M  V30 11609 H 1056.48 -0.770946 -3.04492 0
M  V30 11610 H 1055.68 -2.8913 -4.1282 0
M  V30 11611 H 1055.28 -2.87296 -2.39451 0
M  V30 11612 H 1057.57 -4.32809 -5.21232 0
M  V30 11613 H 1058.51 -5.58604 -4.35163 0
M  V30 11614 H 1058.92 -3.86014 -4.1189 0
M  V30 11615 N 1058.32 0.686584 -1.41858 0
M  V30 11616 C 1059.73 1.26682 -1.37145 0
M  V30 11617 C 1060.08 1.96112 -0.058922 0
M  V30 11618 O 1059.21 1.99321 0.842629 0
M  V30 11619 C 1059.8 2.30383 -2.48413 0
M  V30 11620 C 1058.36 2.83961 -2.47069 0
M  V30 11621 C 1057.51 1.58119 -2.27802 0
M  V30 11622 H 1060.46 0.480742 -1.51243 0
M  V30 11623 H 1060.48 3.11868 -2.17987 0
M  V30 11624 H 1059.99 1.79822 -3.43927 0
M  V30 11625 H 1058.09 3.38675 -1.55338 0
M  V30 11626 H 1058.21 3.3378 -3.43697 0
M  V30 11627 H 1056.57 1.84258 -1.75844 0
M  V30 11628 H 1057.35 1.09541 -3.25355 0
M  V30 11629 N 1059.8 1.27835 0.921735 0
M  V30 11630 C 1061.21 1.13151 1.48505 0
M  V30 11631 C 1061.56 -0.281373 1.94172 0
M  V30 11632 O 1060.68 -1.17487 1.8173 0
M  V30 11633 C 1061.28 2.04792 2.69899 0
M  V30 11634 C 1059.84 1.94196 3.22436 0
M  V30 11635 C 1058.99 1.96999 1.95158 0
M  V30 11636 H 1061.94 1.40641 0.735241 0
M  V30 11637 H 1061.96 1.60724 3.44889 0
M  V30 11638 H 1061.47 3.07615 2.36631 0
M  V30 11639 H 1059.57 0.943805 3.60448 0
M  V30 11640 H 1059.68 2.80744 3.88226 0
M  V30 11641 H 1058.05 1.41301 2.11911 0
M  V30 11642 H 1058.83 3.01487 1.64196 0
M  V30 11643 N 1061.28 -1.12907 1.09954 0
M  V30 11644 C 1062.21 -2.20585 0.765799 0
M  V30 11645 C 1063.19 -1.68117 -0.258989 0
M  V30 11646 O 1064.37 -1.93792 -0.125853 0
M  V30 11647 C 1061.5 -3.46772 0.191435 0
M  V30 11648 C 1060.46 -4.12363 1.14635 0
M  V30 11649 C 1059.78 -5.3294 0.433426 0
M  V30 11650 C 1061.08 -4.59073 2.49096 0
M  V30 11651 H 1062.78 -2.48759 1.66612 0
M  V30 11652 H 1060.32 -1.19563 0.802534 0
M  V30 11653 H 1062.27 -4.21365 -0.0541535 0
M  V30 11654 H 1061 -3.18011 -0.744101 0
M  V30 11655 H 1059.66 -3.39744 1.37731 0
M  V30 11656 H 1059.31 -5.00444 -0.506422 0
M  V30 11657 H 1059.01 -5.77772 1.07018 0
M  V30 11658 H 1060.53 -6.10284 0.196267 0
M  V30 11659 H 1061.94 -5.25063 2.30177 0
M  V30 11660 H 1060.34 -5.14665 3.0861 0
M  V30 11661 H 1061.41 -3.73313 3.0946 0
M  V30 11662 N 1062.75 -0.88754 -1.30232 0
M  V30 11663 C 1063.66 -0.360333 -2.31816 0
M  V30 11664 C 1064.68 0.538741 -1.6545 0
M  V30 11665 O 1065.86 0.431246 -1.96729 0
M  V30 11666 C 1062.92 0.414336 -3.44215 0
M  V30 11667 C 1061.98 -0.514799 -4.26202 0
M  V30 11668 C 1061.21 0.222994 -5.33234 0
M  V30 11669 O 1061.44 1.44871 -5.51696 0
M  V30 11670 O 1060.37 -0.428221 -6.00375 0
M  V30 11671 H 1064.2 -1.20279 -2.78867 0
M  V30 11672 H 1061.78 -0.651459 -1.34448 0
M  V30 11673 H 1063.66 0.852859 -4.12679 0
M  V30 11674 H 1062.34 1.23305 -2.99295 0
M  V30 11675 H 1061.25 -1.00219 -3.60426 0
M  V30 11676 H 1062.58 -1.29959 -4.74733 0
M  V30 11677 N 1064.23 1.43628 -0.648757 0
M  V30 11678 C 1065.48 2.01465 -0.16002 0
M  V30 11679 C 1065.8 1.51413 1.22878 0
M  V30 11680 O 1065.07 0.724919 1.81994 0
M  V30 11681 H 1063.65 0.744885 -0.0561672 0
M  V30 11682 H 1066.31 1.75897 -0.839422 0
M  V30 11683 H 1065.41 3.1178 -0.141213 0
M  V30 11684 N 1065.71 0.390394 1.52688 0
M  V30 11685 C 1066.99 -0.249068 1.94008 0
M  V30 11686 C 1067.37 -1.64263 1.32593 0
M  V30 11687 O 1066.72 -2.23086 0.494448 0
M  V30 11688 C 1066.93 -0.274318 3.4792 0
M  V30 11689 C 1068.27 -0.502743 4.21613 0
M  V30 11690 O 1069.3 -0.35448 3.54432 0
M  V30 11691 O 1068.16 -0.79334 5.40711 0
M  V30 11692 H 1065.25 -0.155116 0.812323 0
M  V30 11693 H 1067.8 0.44498 1.63762 0
M  V30 11694 H 1066.57 0.701766 3.84956 0
M  V30 11695 H 1066.19 -1.01324 3.84473 0
M  V30 11696 N 1067.19 -1.57141 0.120249 0
M  V30 11697 C 1068.47 -1.8677 -0.581075 0
M  V30 11698 C 1068.85 -1.02163 -1.84732 0
M  V30 11699 O 1068.19 -0.100897 -2.28277 0
M  V30 11700 C 1068.4 -3.37923 -0.872316 0
M  V30 11701 C 1069.75 -4.0655 -1.22483 0
M  V30 11702 O 1070.78 -3.42948 -0.962539 0
M  V30 11703 O 1069.63 -5.18821 -1.71717 0
M  V30 11704 H 1066.73 -0.773219 -0.293362 0
M  V30 11705 H 1069.27 -1.68992 0.154846 0
M  V30 11706 H 1068.05 -3.91292 0.0249416 0
M  V30 11707 H 1067.67 -3.61135 -1.66335 0
M  V30 11708 N 1068.67 0.153526 -1.5685 0
M  V30 11709 C 1069.94 0.895545 -1.73895 0
M  V30 11710 C 1070.32 1.99625 -0.686504 0
M  V30 11711 O 1069.67 2.26579 0.2957 0
M  V30 11712 C 1069.88 1.44399 -3.17726 0
M  V30 11713 C 1071.23 1.90996 -3.79217 0
M  V30 11714 O 1072.25 1.54155 -3.21115 0
M  V30 11715 O 1071.11 2.58917 -4.81274 0
M  V30 11716 H 1068.21 0.422755 -0.710779 0
M  V30 11717 H 1070.75 0.139961 -1.69122 0
M  V30 11718 H 1069.52 0.652635 -3.85819 0
M  V30 11719 H 1069.15 2.26326 -3.26898 0
M  V30 11720 N 1070.14 1.51827 0.422667 0
M  V30 11721 C 1071.37 1.69049 1.1929 0
M  V30 11722 C 1071.79 0.394095 1.84641 0
M  V30 11723 O 1071.14 -0.628731 1.71328 0
M  V30 11724 C 1071.2 2.81657 2.26609 0
M  V30 11725 O 1070.92 4.06275 1.63929 0
M  V30 11726 C 1072.42 3.10274 3.16615 0
M  V30 11727 H 1069.64 0.566894 0.358988 0
M  V30 11728 H 1072.18 1.98318 0.499029 0
M  V30 11729 H 1070.34 2.54945 2.91688 0
M  V30 11730 H 1070.75 4.68924 2.3497 0
M  V30 11731 H 1072.22 3.92613 3.88019 0
M  V30 11732 H 1072.7 2.23273 3.78214 0
M  V30 11733 H 1073.31 3.387 2.57221 0
M  V30 11734 N 1071.62 -0.679052 1.4222 0
M  V30 11735 C 1072.85 -1.47248 1.46058 0
M  V30 11736 C 1073.27 -1.87962 0.0720987 0
M  V30 11737 O 1072.63 -1.5572 -0.928488 0
M  V30 11738 C 1072.68 -2.70067 2.38948 0
M  V30 11739 O 1071.78 -3.68178 1.85791 0
M  V30 11740 H 1071.12 -0.442533 0.495036 0
M  V30 11741 H 1073.65 -0.833263 1.86863 0
M  V30 11742 H 1073.66 -3.18187 2.55385 0
M  V30 11743 H 1072.34 -2.39773 3.39826 0
M  V30 11744 H 1070.92 -3.2719 1.78889 0
M  V30 11745 N 1073.1 -1.28322 -0.914942 0
M  V30 11746 C 1074.52 -1.06003 -1.19313 0
M  V30 11747 C 1074.72 0.198366 -2.00521 0
M  V30 11748 O 1073.77 0.900364 -2.35902 0
M  V30 11749 C 1075.09 -2.30684 -1.92887 0
M  V30 11750 C 1076.63 -2.35851 -2.05775 0
M  V30 11751 C 1077.11 -3.60295 -2.82757 0
M  V30 11752 N 1078.6 -3.60928 -2.9032 0
M  V30 11753 C 1079.33 -4.53894 -3.50383 0
M  V30 11754 N 1078.83 -5.57178 -4.11734 0
M  V30 11755 N 1080.62 -4.41492 -3.4791 0
M  V30 11756 H 1072.77 -2.09104 -0.372735 0
M  V30 11757 H 1075.04 -0.920285 -0.227552 0
M  V30 11758 H 1074.74 -3.22355 -1.40643 0
M  V30 11759 H 1074.62 -2.37003 -2.93444 0
M  V30 11760 H 1077 -1.44678 -2.57201 0
M  V30 11761 H 1077.09 -2.33526 -1.04399 0
M  V30 11762 H 1076.73 -4.51811 -2.32011 0
M  V30 11763 H 1076.66 -3.59873 -3.84446 0
M  V30 11764 H 1079.15 -2.8624 -2.46729 0
M  V30 11765 H 1079.46 -6.24261 -4.55541 0
M  V30 11766 H 1077.81 -5.61005 -4.10242 0
M  V30 11767 H 1081 -3.60005 -2.99189 0
M  V30 11768 H 1081.17 -5.14132 -3.94427 0
M  V30 11769 N 1074.58 1.12322 -1.10551 0
M  V30 11770 C 1075.51 2.17221 -0.699299 0
M  V30 11771 C 1076.49 1.59809 0.299973 0
M  V30 11772 O 1077.67 1.87451 0.198589 0
M  V30 11773 C 1074.8 3.38685 -0.0320136 0
M  V30 11774 C 1073.85 4.14732 -0.99495 0
M  V30 11775 S 1074.68 4.72879 -2.51288 0
M  V30 11776 C 1075.84 5.97676 -1.85834 0
M  V30 11777 H 1076.07 2.51342 -1.5879 0
M  V30 11778 H 1073.6 1.23802 -0.92263 0
M  V30 11779 H 1075.56 4.09034 0.346656 0
M  V30 11780 H 1074.22 3.02842 0.833407 0
M  V30 11781 H 1073.41 5.01754 -0.475331 0
M  V30 11782 H 1073.02 3.50098 -1.31559 0
M  V30 11783 H 1075.31 6.6698 -1.18927 0
M  V30 11784 H 1076.25 6.54266 -2.70817 0
M  V30 11785 H 1076.66 5.48793 -1.32237 0
M  V30 11786 N 1076.06 0.894434 1.2976 0
M  V30 11787 C 1076.97 0.372622 2.31622 0
M  V30 11788 C 1077.98 -0.52996 1.65733 0
M  V30 11789 O 1079.16 -0.420807 1.96955 0
M  V30 11790 C 1076.22 -0.396076 3.4443 0
M  V30 11791 C 1075.28 0.537394 4.25923 0
M  V30 11792 C 1074.52 -0.194713 5.33345 0
M  V30 11793 O 1074.74 -1.41943 5.52457 0
M  V30 11794 O 1073.67 0.460055 6.00139 0
M  V30 11795 H 1077.5 1.21756 2.78225 0
M  V30 11796 H 1075.09 0.65858 1.34101 0
M  V30 11797 H 1076.97 -0.830962 4.13126 0
M  V30 11798 H 1075.64 -1.21716 2.99945 0
M  V30 11799 H 1074.55 1.02129 3.5989 0
M  V30 11800 H 1075.88 1.32475 4.74037 0
M  V30 11801 N 1077.53 -1.43282 0.656365 0
M  V30 11802 C 1078.44 -2.34576 -0.033864 0
M  V30 11803 C 1079.46 -1.5406 -0.808793 0
M  V30 11804 O 1080.64 -1.867 -0.755322 0
M  V30 11805 C 1077.7 -3.32378 -0.986197 0
M  V30 11806 C 1076.76 -4.28797 -0.207851 0
M  V30 11807 C 1076 -5.21927 -1.11482 0
M  V30 11808 O 1076.22 -5.19554 -2.35414 0
M  V30 11809 O 1075.15 -5.99045 -0.585536 0
M  V30 11810 H 1078.98 -2.95099 0.717668 0
M  V30 11811 H 1076.56 -1.43475 0.416556 0
M  V30 11812 H 1078.45 -3.9251 -1.53341 0
M  V30 11813 H 1077.12 -2.74354 -1.7179 0
M  V30 11814 H 1076.03 -3.72134 0.383022 0
M  V30 11815 H 1077.36 -4.89811 0.48435 0
M  V30 11816 N 1079.01 -0.398486 -1.52479 0
M  V30 11817 C 1080.26 0.181019 -2.0199 0
M  V30 11818 C 1080.59 1.45691 -1.28405 0
M  V30 11819 O 1079.87 1.90607 -0.387207 0
M  V30 11820 C 1080.15 0.439587 -3.57407 0
M  V30 11821 C 1080 -0.85223 -4.41653 0
M  V30 11822 C 1081.32 1.2263 -4.2267 0
M  V30 11823 H 1078.44 0.0643164 -0.734188 0
M  V30 11824 H 1081.08 -0.52986 -1.82462 0
M  V30 11825 H 1079.23 1.04516 -3.74177 0
M  V30 11826 H 1080.91 -1.48879 -4.36615 0
M  V30 11827 H 1079.15 -1.46555 -4.08294 0
M  V30 11828 H 1079.82 -0.625839 -5.48441 0
M  V30 11829 H 1082.3 0.713722 -4.09933 0
M  V30 11830 H 1081.17 1.37596 -5.31374 0
M  V30 11831 H 1081.43 2.24403 -3.80914 0
M  V30 11832 N 1080.49 1.57075 -0.12858 0
M  V30 11833 C 1081.77 1.87075 0.571162 0
M  V30 11834 C 1082.15 1.03141 1.84188 0
M  V30 11835 O 1081.5 0.113001 2.2822 0
M  V30 11836 C 1081.71 3.3838 0.854383 0
M  V30 11837 C 1083.05 4.07194 1.20326 0
M  V30 11838 O 1084.08 3.43454 0.944338 0
M  V30 11839 O 1082.94 5.19725 1.68963 0
M  V30 11840 H 1080.03 0.774764 0.289258 0
M  V30 11841 H 1082.58 1.68908 -0.163806 0
M  V30 11842 H 1081.35 3.91273 -0.0456925 0
M  V30 11843 H 1080.97 3.62012 1.64418 0
M  V30 11844 O 1082.01 -0.0105399 1.61497 0
M  V30 11845 H 1082.7 -0.628636 1.83215 0
M  V30 END ATOM
M  V30 BEGIN BOND
M  V30 END BOND
M  V30 END CTAB
M  END
$$$$
