drugbank_target|P39841 Putative mannose-6-phosphate isomerase YvyI (DB01942)
 OpenBabel12092120233D

  0  0  0     0  0            999 V3000
M  V30 BEGIN CTAB
M  V30 COUNTS 4927 4989 0 0 0
M  V30 BEGIN ATOM
M  V30 1 H -0.908 1.98254 -0.117106 0
M  V30 2 N 0 1.576 0 0
M  V30 3 C 0.933 2.03868 1.02534 0
M  V30 4 C 1.911 0.928543 1.3348 0
M  V30 5 O 3.095 1.19667 1.45644 0
M  V30 6 C 0.222 2.43627 2.35294 0
M  V30 7 C -0.732 3.65373 2.2001 0
M  V30 8 S 0.101 5.13292 1.52614 0
M  V30 9 C 1.257 5.56322 2.86805 0
M  V30 10 H 1.49 2.90518 0.631377 0
M  V30 11 H -0.977 1.52953 0.210867 0
M  V30 12 H 0.981 2.67203 3.11629 0
M  V30 13 H -0.358 1.57376 2.7183 0
M  V30 14 H -1.165 3.90944 3.18086 0
M  V30 15 H -1.563 3.418 1.51819 0
M  V30 16 H 0.729 5.58782 3.83104 0
M  V30 17 H 1.672 6.56266 2.65933 0
M  V30 18 H 2.08 4.83886 2.90714 0
M  V30 19 N 1.4781 -0.272755 1.55222 0
M  V30 20 C 2.7061 -1.02255 1.79865 0
M  V30 21 C 3.1211 -1.79924 0.572088 0
M  V30 22 O 2.4781 -1.76638 -0.458842 0
M  V30 23 C 2.5291 -1.98094 3.02392 0
M  V30 24 O 2.2501 -1.23572 4.20311 0
M  V30 25 C 3.7511 -2.84884 3.39641 0
M  V30 26 H 0.9711 -0.302057 0.599168 0
M  V30 27 H 3.5151 -0.303465 2.02236 0
M  V30 28 H 1.6701 -2.65465 2.82147 0
M  V30 29 H 2.0841 -1.88172 4.89583 0
M  V30 30 H 3.5581 -3.47927 4.28545 0
M  V30 31 H 4.0351 -3.54665 2.59055 0
M  V30 32 H 4.6411 -2.23003 3.62146 0
M  V30 33 N 2.9562 -1.48159 -0.537278 0
M  V30 34 C 3.8882 -1.58218 -1.65831 0
M  V30 35 C 4.9012 -0.466948 -1.5596 0
M  V30 36 O 6.0902 -0.73747 -1.62553 0
M  V30 37 C 3.1902 -1.48906 -3.04434 0
M  V30 38 C 2.3632 -2.75343 -3.3986 0
M  V30 39 C 1.4222 -2.59588 -4.57712 0
M  V30 40 O 0.4482 -3.33457 -4.61297 0
M  V30 41 N 1.6502 -1.68724 -5.55439 0
M  V30 42 H 4.4152 -2.54891 -1.57641 0
M  V30 43 H 1.9762 -1.4479 -0.724386 0
M  V30 44 H 3.9682 -1.36072 -3.81139 0
M  V30 45 H 2.5382 -0.602368 -3.06741 0
M  V30 46 H 1.7582 -3.02795 -2.52406 0
M  V30 47 H 3.0462 -3.5924 -3.60311 0
M  V30 48 H 2.4442 -1.07898 -5.55315 0
M  V30 49 H 1.0012 -1.61832 -6.3139 0
M  V30 50 N 4.4343 0.785586 -1.36625 0
M  V30 51 C 5.6593 1.57963 -1.34397 0
M  V30 52 C 6.0843 1.87964 0.071526 0
M  V30 53 O 5.4423 1.48182 1.0446 0
M  V30 54 C 5.4903 2.87511 -2.17646 0
M  V30 55 O 4.5943 3.81281 -1.57158 0
M  V30 56 H 3.9353 0.479014 -0.459828 0
M  V30 57 H 6.4653 0.973411 -1.79961 0
M  V30 58 H 6.4753 3.36745 -2.30362 0
M  V30 59 H 5.1503 2.65002 -3.20541 0
M  V30 60 H 3.7273 3.39885 -1.53403 0
M  V30 61 N 5.9124 1.20967 1.01018 0
M  V30 62 C 7.3234 1.02319 1.56165 0
M  V30 63 C 7.6744 -0.418546 1.91684 0
M  V30 64 O 6.7994 -1.30096 1.72928 0
M  V30 65 C 7.3944 1.85109 2.8376 0
M  V30 66 C 5.9534 1.70809 3.35412 0
M  V30 67 C 5.1004 1.82643 2.08655 0
M  V30 68 H 8.0514 1.35065 0.833255 0
M  V30 69 H 8.0724 1.35827 3.55431 0
M  V30 70 H 7.5844 2.90035 2.57878 0
M  V30 71 H 5.6854 0.685464 3.66241 0
M  V30 72 H 5.7984 2.52467 4.07182 0
M  V30 73 H 4.1624 1.25896 2.21409 0
M  V30 74 H 4.9454 2.89066 1.85191 0
M  V30 75 N 7.3905 -1.2043 1.01659 0
M  V30 76 C 8.6395 -1.89118 0.701237 0
M  V30 77 C 8.9525 -1.79705 -0.772358 0
M  V30 78 O 10.1585 -2.43528 -1.20026 0
M  V30 79 C 8.6145 -3.39168 1.20388 0
M  V30 80 C 8.2225 -3.57166 2.70438 0
M  V30 81 C 9.9665 -4.1341 0.963953 0
M  V30 82 C 7.8735 -5.01042 3.14183 0
M  V30 83 H 6.8035 -0.708267 0.2586 0
M  V30 84 H 9.4545 -1.36239 1.22927 0
M  V30 85 H 7.8365 -3.91369 0.603824 0
M  V30 86 H 9.0105 -3.15351 3.35992 0
M  V30 87 H 7.3255 -2.96294 2.92572 0
M  V30 88 H 9.9225 -5.19491 1.26621 0
M  V30 89 H 10.2655 -4.16181 -0.099578 0
M  V30 90 H 10.7985 -3.67309 1.52738 0
M  V30 91 H 7.5375 -5.03426 4.19812 0
M  V30 92 H 7.0575 -5.43668 2.53348 0
M  V30 93 H 8.7365 -5.69623 3.0682 0
M  V30 94 N 8.8686 -0.792821 -1.36206 0
M  V30 95 C 10.1156 -0.366786 -1.99151 0
M  V30 96 C 10.4436 1.06243 -1.62919 0
M  V30 97 O 9.6986 1.74927 -0.877442 0
M  V30 98 C 9.9976 -0.481501 -3.54142 0
M  V30 99 C 9.6636 -1.87202 -4.10203 0
M  V30 100 C 8.3256 -2.25248 -4.25226 0
M  V30 101 C 10.6776 -2.78237 -4.40719 0
M  V30 102 C 8.0056 -3.53723 -4.68078 0
M  V30 103 C 10.3576 -4.06144 -4.85005 0
M  V30 104 C 9.0216 -4.44207 -4.98234 0
M  V30 105 H 8.2916 -0.134217 -0.728743 0
M  V30 106 H 10.9386 -1.01094 -1.62641 0
M  V30 107 H 9.2436 0.246146 -3.91026 0
M  V30 108 H 10.9406 -0.132844 -4.0078 0
M  V30 109 H 7.5306 -1.56639 -3.98951 0
M  V30 110 H 11.7146 -2.50097 -4.28679 0
M  V30 111 H 6.9706 -3.8308 -4.76508 0
M  V30 112 H 11.1446 -4.76796 -5.07581 0
M  V30 113 H 8.7716 -5.43814 -5.31197 0
M  V30 114 N 10.3467 1.47872 -0.545128 0
M  V30 115 C 11.2767 2.32661 0.197793 0
M  V30 116 C 12.2577 1.43041 0.920504 0
M  V30 117 O 13.4427 1.71912 0.90333 0
M  V30 118 C 10.5727 3.24569 1.23582 0
M  V30 119 C 9.5267 4.23333 0.630323 0
M  V30 120 C 8.8527 5.0448 1.77211 0
M  V30 121 C 10.1527 5.20704 -0.407974 0
M  V30 122 H 11.8467 2.95024 -0.510045 0
M  V30 123 H 9.3927 1.4187 -0.246731 0
M  V30 124 H 11.3457 3.8272 1.76362 0
M  V30 125 H 10.0697 2.60236 1.97344 0
M  V30 126 H 8.7287 3.6639 0.123922 0
M  V30 127 H 8.3767 4.36561 2.49847 0
M  V30 128 H 8.0767 5.71339 1.37281 0
M  V30 129 H 9.6007 5.65487 2.3034 0
M  V30 130 H 11.0147 5.7329 0.033305 0
M  V30 131 H 9.4117 5.95699 -0.725486 0
M  V30 132 H 10.4817 4.66917 -1.30828 0
M  V30 133 N 11.8248 0.280983 1.55075 0
M  V30 134 C 13.0528 -0.337293 2.04132 0
M  V30 135 C 13.4678 -1.4903 1.15912 0
M  V30 136 O 12.8248 -1.81606 0.180459 0
M  V30 137 C 12.8758 -0.812706 3.52246 0
M  V30 138 O 12.5968 0.294387 4.3711 0
M  V30 139 C 14.0978 -1.4982 4.17216 0
M  V30 140 H 11.3178 -0.0761638 0.666663 0
M  V30 141 H 13.8618 0.414787 2.00249 0
M  V30 142 H 12.0168 -1.51486 3.56554 0
M  V30 143 H 12.4308 -0.0721325 5.2445 0
M  V30 144 H 13.9048 -1.7822 5.22438 0
M  V30 145 H 14.3818 -2.43168 3.65741 0
M  V30 146 H 14.9878 -0.839742 4.16927 0
M  V30 147 N 13.3029 -1.57598 0.00835791 0
M  V30 148 C 14.7139 -1.7892 -0.53333 0
M  V30 149 C 15.0649 -0.916609 -1.73473 0
M  V30 150 O 14.1899 -0.121336 -2.1606 0
M  V30 151 C 14.7849 -3.24488 -0.974313 0
M  V30 152 C 13.3439 -3.46878 -1.46125 0
M  V30 153 C 12.4909 -2.74157 -0.416302 0
M  V30 154 H 15.4419 -1.56958 0.234495 0
M  V30 155 H 15.4629 -3.3306 -1.83988 0
M  V30 156 H 14.9749 -3.87972 -0.099718 0
M  V30 157 H 13.0759 -2.8862 -2.35646 0
M  V30 158 H 13.1889 -4.55572 -1.48295 0
M  V30 159 H 11.5529 -2.39022 -0.87981 0
M  V30 160 H 12.3359 -3.40345 0.44947 0
M  V30 161 N 14.781 0.264519 -1.55364 0
M  V30 162 C 16.027 0.99646 -1.76631 0
M  V30 163 C 16.36 1.85632 -0.570478 0
M  V30 164 O 15.635 1.89647 0.43175 0
M  V30 165 C 15.918 1.87187 -3.07625 0
M  V30 166 C 15.771 1.04138 -4.37579 0
M  V30 167 C 17.09 2.85749 -3.34717 0
M  V30 168 H 14.209 0.360841 -0.642622 0
M  V30 169 H 16.851 0.268218 -1.88097 0
M  V30 170 H 15.001 2.49279 -2.9798 0
M  V30 171 H 16.673 0.440517 -4.59192 0
M  V30 172 H 14.916 0.345115 -4.32425 0
M  V30 173 H 15.587 1.68729 -5.2558 0
M  V30 174 H 18.063 2.33793 -3.4421 0
M  V30 175 H 16.939 3.44136 -4.27623 0
M  V30 176 H 17.2 3.61311 -2.54768 0
M  V30 177 N 16.2591 1.48442 0.529413 0
M  V30 178 C 17.5061 1.56488 1.28521 0
M  V30 179 C 17.8341 0.239042 1.93025 0
M  V30 180 O 17.0891 -0.770713 1.79885 0
M  V30 181 C 17.3881 2.6523 2.39558 0
M  V30 182 C 17.0541 4.07648 1.92702 0
M  V30 183 C 15.7161 4.46411 1.79641 0
M  V30 184 C 18.0681 4.96896 1.573 0
M  V30 185 C 15.3961 5.72226 1.29514 0
M  V30 186 C 17.7481 6.23202 1.08636 0
M  V30 187 C 16.4121 6.60821 0.941919 0
M  V30 188 H 15.6821 0.572631 0.470292 0
M  V30 189 H 18.3291 1.82161 0.59072 0
M  V30 190 H 16.6341 2.33419 3.14679 0
M  V30 191 H 18.3311 2.68671 2.97686 0
M  V30 192 H 14.9211 3.77036 2.03819 0
M  V30 193 H 19.1051 4.67626 1.66251 0
M  V30 194 H 14.3611 6.00097 1.17019 0
M  V30 195 H 18.5351 6.91753 0.803136 0
M  V30 196 H 16.1621 7.58198 0.5513 0
M  V30 197 N 17.7372 -0.778329 1.37039 0
M  V30 198 C 18.6842 -1.89139 1.32269 0
M  V30 199 C 19.6542 -1.65017 0.189387 0
M  V30 200 O 20.8392 -1.87024 0.377693 0
M  V30 201 C 17.9792 -3.26112 1.12894 0
M  V30 202 C 17.0922 -3.62233 2.35396 0
M  V30 203 C 16.2272 -4.8838 2.08946 0
M  V30 204 C 15.2662 -5.17212 3.2735 0
M  V30 205 N 14.4032 -6.34546 3.00492 0
M  V30 206 H 19.2432 -1.92552 2.27437 0
M  V30 207 H 16.7802 -0.941473 1.13025 0
M  V30 208 H 18.7382 -4.05116 0.996835 0
M  V30 209 H 17.3682 -3.22091 0.213758 0
M  V30 210 H 16.4202 -2.78265 2.5937 0
M  V30 211 H 17.7322 -3.79481 3.23721 0
M  V30 212 H 16.8862 -5.75274 1.92729 0
M  V30 213 H 15.6252 -4.73222 1.17949 0
M  V30 214 H 14.6302 -4.28796 3.44113 0
M  V30 215 H 15.8552 -5.34283 4.19188 0
M  V30 216 H 13.8012 -6.20759 2.12118 0
M  V30 217 H 13.7182 -6.52179 3.82358 0
M  V30 218 H 14.9862 -7.24394 2.87879 0
M  V30 219 N 19.2153 -1.21501 -1.00376 0
M  V30 220 C 20.1253 -0.991447 -2.12621 0
M  V30 221 C 21.1413 0.0568446 -1.73907 0
M  V30 222 O 22.3173 -0.13348 -2.00957 0
M  V30 223 C 19.3823 -0.560312 -3.42142 0
M  V30 224 C 18.4433 -1.68096 -3.95022 0
M  V30 225 C 17.6763 -1.2703 -5.18362 0
M  V30 226 O 17.8993 -0.144438 -5.70217 0
M  V30 227 O 16.8333 -2.08269 -5.64719 0
M  V30 228 H 20.6593 -1.93158 -2.34358 0
M  V30 229 H 18.2443 -0.999999 -1.10997 0
M  V30 230 H 20.1263 -0.329724 -4.20108 0
M  V30 231 H 18.8013 0.351089 -3.2179 0
M  V30 232 H 17.7083 -1.96597 -3.18278 0
M  V30 233 H 19.0413 -2.56983 -4.19786 0
M  V30 234 N 20.6934 1.19889 -1.02296 0
M  V30 235 C 21.6404 2.22901 -0.598651 0
M  V30 236 C 22.6104 1.61588 0.384521 0
M  V30 237 O 23.7954 1.88697 0.282522 0
M  V30 238 C 20.9354 3.45063 0.0504476 0
M  V30 239 C 20.0484 4.20783 -0.978053 0
M  V30 240 C 19.1834 5.30356 -0.299338 0
M  V30 241 C 18.2224 5.97826 -1.31416 0
M  V30 242 N 17.3594 6.98975 -0.661667 0
M  V30 243 H 22.1994 2.58554 -1.48169 0
M  V30 244 H 19.7364 1.27039 -0.741584 0
M  V30 245 H 21.6944 4.14831 0.443971 0
M  V30 246 H 20.3244 3.10084 0.897097 0
M  V30 247 H 19.3764 3.50018 -1.48969 0
M  V30 248 H 20.6884 4.67109 -1.74958 0
M  V30 249 H 19.8424 6.06516 0.149347 0
M  V30 250 H 18.5814 4.85084 0.504445 0
M  V30 251 H 17.5864 5.20422 -1.77317 0
M  V30 252 H 18.8114 6.45183 -2.11933 0
M  V30 253 H 16.7574 6.55886 0.122132 0
M  V30 254 H 16.6744 7.43461 -1.37117 0
M  V30 255 H 17.9424 7.7914 -0.236785 0
M  V30 256 N 22.1715 0.800033 1.35784 0
M  V30 257 C 23.4205 0.37387 1.98205 0
M  V30 258 C 23.7335 -1.06302 1.64193 0
M  V30 259 O 24.9395 -1.59198 2.19928 0
M  V30 260 C 23.3955 0.617532 3.54562 0
M  V30 261 C 23.0035 2.06654 3.9749 0
M  V30 262 C 24.7475 0.256401 4.23725 0
M  V30 263 C 22.6545 2.2563 5.46667 0
M  V30 264 H 21.5845 0.136055 0.741623 0
M  V30 265 H 24.2355 0.983166 1.54939 0
M  V30 266 H 22.6175 -0.0616248 3.95952 0
M  V30 267 H 23.7915 2.78296 3.67271 0
M  V30 268 H 22.1065 2.38691 3.41197 0
M  V30 269 H 24.7035 0.376318 5.33374 0
M  V30 270 H 25.0465 -0.796692 4.08606 0
M  V30 271 H 25.5795 0.889214 3.87734 0
M  V30 272 H 22.3185 3.2936 5.66747 0
M  V30 273 H 21.8385 1.58504 5.78478 0
M  V30 274 H 23.5175 2.06861 6.1304 0
M  V30 275 N 23.6496 -1.47581 0.552962 0
M  V30 276 C 24.8956 -2.03369 0.0355807 0
M  V30 277 C 25.2506 -1.42016 -1.29805 0
M  V30 278 O 24.5436 -0.564917 -1.83083 0
M  V30 279 C 24.7376 -3.57199 -0.119728 0
M  V30 280 C 24.5666 -4.33468 1.1973 0
M  V30 281 C 23.3366 -4.7353 1.76345 0
M  V30 282 C 25.5346 -4.68866 2.11351 0
M  V30 283 N 23.5166 -5.34426 3.02097 0
M  V30 284 C 24.8876 -5.3002 3.21681 0
M  V30 285 C 26.9426 -4.50795 2.11397 0
M  V30 286 C 25.6456 -5.75011 4.32151 0
M  V30 287 C 27.6716 -4.96782 3.20876 0
M  V30 288 C 27.0336 -5.57981 4.29926 0
M  V30 289 H 23.1326 -0.780058 0.0550806 0
M  V30 290 H 25.7166 -1.80117 0.739315 0
M  V30 291 H 23.8876 -3.80227 -0.792579 0
M  V30 292 H 25.6196 -3.99627 -0.638792 0
M  V30 293 H 22.3746 -4.55352 1.30196 0
M  V30 294 H 22.7986 -5.69421 3.66182 0
M  V30 295 H 27.4406 -4.0284 1.28372 0
M  V30 296 H 25.1586 -6.21959 5.15938 0
M  V30 297 H 28.7446 -4.84573 3.21994 0
M  V30 298 H 27.6246 -5.92918 5.13243 0
M  V30 299 N 25.1277 -0.289203 -1.54924 0
M  V30 300 C 26.3757 0.322879 -1.99504 0
M  V30 301 C 26.6967 1.55313 -1.1791 0
M  V30 302 O 25.9667 1.94001 -0.272097 0
M  V30 303 H 24.5467 0.122291 -0.736922 0
M  V30 304 H 27.2087 -0.397802 -1.90797 0
M  V30 305 H 26.3047 0.603061 -3.06218 0
M  V30 306 N 26.6058 1.57591 -0.0167156 0
M  V30 307 C 27.8538 1.90906 0.663285 0
M  V30 308 C 28.1748 0.892509 1.73376 0
M  V30 309 O 27.4448 -0.0677623 1.95783 0
M  V30 310 H 26.0248 0.704637 0.247983 0
M  V30 311 H 28.6868 1.94803 -0.0615909 0
M  V30 312 H 27.7828 2.9116 1.12393 0
M  V30 313 N 28.0839 -0.256276 1.55502 0
M  V30 314 C 29.3119 -1.00342 1.8094 0
M  V30 315 C 29.7269 -1.79307 0.59114 0
M  V30 316 O 29.0839 -1.77114 -0.440081 0
M  V30 317 C 29.1349 -1.94875 3.04476 0
M  V30 318 O 28.8559 -1.19107 4.21598 0
M  V30 319 C 30.3569 -2.81266 3.42644 0
M  V30 320 H 27.5769 -0.295685 0.602338 0
M  V30 321 H 30.1209 -0.281998 2.02546 0
M  V30 322 H 28.2759 -2.62457 2.84947 0
M  V30 323 H 28.6899 -1.82969 4.91551 0
M  V30 324 H 30.1639 -3.43362 4.32211 0
M  V30 325 H 30.6409 -3.51897 2.62802 0
M  V30 326 H 31.2469 -2.1915 3.64491 0
M  V30 327 N 29.562 -1.4872 -0.521534 0
M  V30 328 C 30.525 -1.63379 -1.60748 0
M  V30 329 C 31.525 -0.50661 -1.52611 0
M  V30 330 O 32.715 -0.772601 -1.5613 0
M  V30 331 C 29.847 -1.61192 -3.00383 0
M  V30 332 H 31.04 -2.60217 -1.49087 0
M  V30 333 H 28.593 -1.37444 -0.744235 0
M  V30 334 H 29.328 -0.65863 -3.17541 0
M  V30 335 H 29.113 -2.43032 -3.07698 0
M  V30 336 H 30.603 -1.7466 -3.7932 0
M  V30 337 N 31.0401 0.771051 -1.3745 0
M  V30 338 C 31.9701 1.89827 -1.3597 0
M  V30 339 C 32.9511 1.68562 -0.228216 0
M  V30 340 O 34.1361 1.8941 -0.428675 0
M  V30 341 C 31.2661 3.2712 -1.16662 0
M  V30 342 C 30.2201 3.6295 -2.2683 0
M  V30 343 C 29.5461 4.98791 -1.92644 0
M  V30 344 C 30.8461 3.69627 -3.69017 0
M  V30 345 H 32.5401 1.91323 -2.30295 0
M  V30 346 H 30.0861 0.919082 -1.10855 0
M  V30 347 H 32.0391 4.05615 -1.14256 0
M  V30 348 H 30.7631 3.26059 -0.187926 0
M  V30 349 H 29.4221 2.86763 -2.28392 0
M  V30 350 H 29.0701 4.94271 -0.933021 0
M  V30 351 H 28.7701 5.23733 -2.66416 0
M  V30 352 H 30.2941 5.79685 -1.91826 0
M  V30 353 H 31.7081 4.38273 -3.69581 0
M  V30 354 H 30.1051 4.06067 -4.41848 0
M  V30 355 H 31.1751 2.70273 -4.02592 0
M  V30 356 N 32.5182 1.22032 0.997298 0
M  V30 357 C 33.9342 0.979326 1.26021 0
M  V30 358 C 34.1342 -0.32972 1.98784 0
M  V30 359 O 33.1902 -1.05345 2.29475 0
M  V30 360 C 34.5032 2.17509 2.07631 0
M  V30 361 C 36.0512 2.21817 2.2083 0
M  V30 362 C 36.5262 3.40933 3.05825 0
M  V30 363 N 38.0172 3.41067 3.13412 0
M  V30 364 C 38.7522 4.29885 3.79455 0
M  V30 365 N 38.2482 5.28914 4.47462 0
M  V30 366 N 40.0412 4.17673 3.76173 0
M  V30 367 H 32.1922 2.06202 0.509352 0
M  V30 368 H 34.4552 0.90334 0.287541 0
M  V30 369 H 34.1612 3.12415 1.61524 0
M  V30 370 H 34.0352 2.17206 3.08385 0
M  V30 371 H 36.4222 1.27462 2.66153 0
M  V30 372 H 36.5032 2.2616 1.1952 0
M  V30 373 H 36.1472 4.35586 2.61203 0
M  V30 374 H 36.0772 3.33829 4.07266 0
M  V30 375 H 38.5682 2.69406 2.65007 0
M  V30 376 H 38.8812 5.92973 4.95583 0
M  V30 377 H 37.2262 5.32831 4.46224 0
M  V30 378 H 40.4172 3.39564 3.22202 0
M  V30 379 H 40.5902 4.87098 4.27363 0
M  V30 380 N 33.9963 -1.19345 1.0293 0
M  V30 381 C 35.2733 -1.84811 0.640642 0
M  V30 382 C 35.6533 -1.91855 -0.88062 0
M  V30 383 O 35.0013 -1.43587 -1.7775 0
M  V30 384 C 35.2113 -3.23755 1.30321 0
M  V30 385 C 36.5593 -3.99912 1.42673 0
M  V30 386 O 37.5833 -3.33155 1.26041 0
M  V30 387 O 36.4423 -5.19494 1.6967 0
M  V30 388 H 33.5363 -0.796443 0.222726 0
M  V30 389 H 36.0823 -1.26831 1.12748 0
M  V30 390 H 34.8543 -3.13466 2.34211 0
M  V30 391 H 34.4773 -3.89381 0.804261 0
M  V30 392 N 35.4744 -0.807222 -1.35358 0
M  V30 393 C 36.8904 -0.491038 -1.51858 0
M  V30 394 C 37.0904 0.987648 -1.75635 0
M  V30 395 O 36.1464 1.77265 -1.79815 0
M  V30 396 C 37.4594 -1.33695 -2.69344 0
M  V30 397 C 39.0074 -1.33246 -2.83222 0
M  V30 398 C 39.4824 -2.1625 -4.03733 0
M  V30 399 N 40.9734 -2.1379 -4.10911 0
M  V30 400 C 41.7084 -2.74772 -5.03277 0
M  V30 401 N 41.2044 -3.44684 -6.0097 0
M  V30 402 N 42.9974 -2.6441 -4.96028 0
M  V30 403 H 35.1484 -1.76485 -1.18181 0
M  V30 404 H 37.4114 -0.751199 -0.578276 0
M  V30 405 H 37.1174 -2.38634 -2.58354 0
M  V30 406 H 36.9914 -0.990618 -3.6396 0
M  V30 407 H 39.3784 -0.290911 -2.93663 0
M  V30 408 H 39.4594 -1.71866 -1.89461 0
M  V30 409 H 39.1034 -3.20445 -3.94052 0
M  V30 410 H 39.0334 -1.74989 -4.96675 0
M  V30 411 H 41.5244 -1.62923 -3.40976 0
M  V30 412 H 41.8374 -3.88501 -6.68047 0
M  V30 413 H 40.1824 -3.48788 -6.01142 0
M  V30 414 H 43.3734 -2.0938 -4.18662 0
M  V30 415 H 43.5464 -3.12225 -5.6782 0
M  V30 416 N 36.9525 1.47285 -0.560781 0
M  V30 417 C 38.1995 2.02464 -0.038062 0
M  V30 418 C 38.5275 1.43474 1.31322 0
M  V30 419 O 37.7825 0.581311 1.86867 0
M  V30 420 C 38.0815 3.57258 0.100784 0
M  V30 421 C 37.7475 4.35184 -1.18007 0
M  V30 422 C 36.4095 4.56194 -1.53103 0
M  V30 423 C 38.7615 4.80098 -2.02867 0
M  V30 424 C 36.0895 5.19367 -2.729 0
M  V30 425 C 38.4415 5.44593 -3.21871 0
M  V30 426 C 37.1055 5.63835 -3.57276 0
M  V30 427 H 36.3755 0.740869 -0.0139279 0
M  V30 428 H 39.0225 1.76916 -0.733012 0
M  V30 429 H 37.3275 3.81819 0.878724 0
M  V30 430 H 39.0245 3.97606 0.520639 0
M  V30 431 H 35.6145 4.19113 -0.8968 0
M  V30 432 H 39.7985 4.63642 -1.7706 0
M  V30 433 H 35.0545 5.32459 -3.00496 0
M  V30 434 H 39.2285 5.78358 -3.87911 0
M  V30 435 H 36.8555 6.12557 -4.50197 0
M  V30 436 N 38.4306 0.297415 1.54768 0
M  V30 437 C 39.6786 -0.312295 1.99673 0
M  V30 438 C 39.9996 -1.54686 1.18732 0
M  V30 439 O 39.2696 -1.93854 0.282382 0
M  V30 440 H 37.8496 -0.118381 0.73756 0
M  V30 441 H 40.5116 0.407915 1.90583 0
M  V30 442 H 39.6076 -0.586813 3.06534 0
M  V30 443 N 39.9087 -1.5758 0.0250728 0
M  V30 444 C 41.1387 -1.95646 -0.663783 0
M  V30 445 C 41.5467 -0.899935 -1.66427 0
M  V30 446 O 40.8897 0.127191 -1.83259 0
M  V30 447 C 40.9517 -3.29835 -1.43 0
M  V30 448 C 40.6157 -4.53197 -0.588305 0
M  V30 449 C 41.6127 -5.19726 0.13469 0
M  V30 450 C 39.2977 -4.99529 -0.526897 0
M  V30 451 C 41.2917 -6.30902 0.90781 0
M  V30 452 C 38.9787 -6.10589 0.24993 0
M  V30 453 C 39.9767 -6.76134 0.965994 0
M  V30 454 O 39.6647 -7.85062 1.7301 0
M  V30 455 H 39.3967 -0.649282 -0.188174 0
M  V30 456 H 41.9507 -2.05245 0.0799006 0
M  V30 457 H 40.1807 -3.16716 -2.21873 0
M  V30 458 H 41.8697 -3.52833 -2.00658 0
M  V30 459 H 42.6357 -4.84904 0.0965562 0
M  V30 460 H 38.5147 -4.48319 -1.07381 0
M  V30 461 H 42.0587 -6.81995 1.46724 0
M  V30 462 H 37.9557 -6.44849 0.289795 0
M  V30 463 H 38.7237 -8.01708 1.64944 0
M  V30 464 N 41.3868 0.248026 -1.55636 0
M  V30 465 C 42.6118 0.998028 -1.81808 0
M  V30 466 C 43.0368 1.78207 -0.601979 0
M  V30 467 O 42.3948 1.75653 0.448961 0
M  V30 468 C 42.4428 1.9125 -3.05705 0
M  V30 469 O 41.5468 3.00406 -2.82542 0
M  V30 470 H 40.8878 0.284045 -0.600179 0
M  V30 471 H 43.4178 0.269357 -2.02819 0
M  V30 472 H 43.4278 2.32737 -3.35108 0
M  V30 473 H 42.1028 1.33602 -3.93857 0
M  V30 474 H 40.6798 2.63056 -2.64303 0
M  V30 475 N 42.8649 1.48995 0.513639 0
M  V30 476 C 44.1139 1.57093 1.2651 0
M  V30 477 C 44.4269 0.257091 1.93903 0
M  V30 478 O 45.6329 0.216478 2.70636 0
M  V30 479 C 44.0889 2.77118 2.29638 0
M  V30 480 C 43.6969 4.15209 1.68241 0
M  V30 481 C 45.4409 2.94538 3.05692 0
M  V30 482 C 43.3479 5.26474 2.69406 0
M  V30 483 H 42.2779 0.584876 0.475854 0
M  V30 484 H 44.9289 1.7536 0.540487 0
M  V30 485 H 43.3109 2.52319 3.05207 0
M  V30 486 H 44.4849 4.50094 0.987505 0
M  V30 487 H 42.7999 4.03042 1.04623 0
M  V30 488 H 45.3969 3.74832 3.8132 0
M  V30 489 H 45.7399 2.04614 3.62545 0
M  V30 490 H 46.2729 3.19316 2.37238 0
M  V30 491 H 43.0119 6.18417 2.17351 0
M  V30 492 H 42.5319 4.96058 3.37175 0
M  V30 493 H 44.2109 5.55277 3.32078 0
M  V30 494 N 44.343 -0.763751 1.37857 0
M  V30 495 C 45.754 -1.3405 1.29952 0
M  V30 496 C 46.105 -1.96138 -0.0492898 0
M  V30 497 O 45.23 -1.94372 -0.951239 0
M  V30 498 C 45.825 -2.43729 2.35333 0
M  V30 499 C 44.384 -2.97151 2.31037 0
M  V30 500 C 43.531 -1.70438 2.18738 0
M  V30 501 H 46.482 -0.563396 1.48363 0
M  V30 502 H 46.503 -3.23412 2.00462 0
M  V30 503 H 46.015 -1.9851 3.33489 0
M  V30 504 H 44.116 -3.46724 1.3643 0
M  V30 505 H 44.229 -3.52221 3.24772 0
M  V30 506 H 42.593 -1.93673 1.65418 0
M  V30 507 H 43.376 -1.27312 3.18821 0
M  V30 508 N 45.8211 -1.22559 -0.990812 0
M  V30 509 C 47.0461 -1.07862 -1.77145 0
M  V30 510 C 47.4711 0.366447 -1.84496 0
M  V30 511 O 46.8291 1.26478 -1.29896 0
M  V30 512 C 46.8771 -1.69686 -3.18181 0
M  V30 513 O 45.9811 -0.951946 -4.01263 0
M  V30 514 H 45.3221 -0.378712 -0.545411 0
M  V30 515 H 47.8521 -1.62399 -1.2445 0
M  V30 516 H 47.8621 -1.74496 -3.68802 0
M  V30 517 H 46.5371 -2.74841 -3.12146 0
M  V30 518 H 45.1141 -0.980011 -3.59792 0
M  V30 519 N 47.2992 1.18797 -1.03562 0
M  V30 520 C 48.2092 2.25913 -0.632505 0
M  V30 521 C 49.2252 1.70668 0.338882 0
M  V30 522 O 50.4012 2.00453 0.195076 0
M  V30 523 C 47.4662 3.467 0.00350942 0
M  V30 524 C 46.5272 4.17098 -1.01624 0
M  V30 525 C 45.7602 5.32119 -0.410478 0
M  V30 526 O 45.9832 5.64976 0.784725 0
M  V30 527 O 44.9172 5.9107 -1.13667 0
M  V30 528 H 48.7432 2.62648 -1.52478 0
M  V30 529 H 46.3282 1.25781 -0.806195 0
M  V30 530 H 48.2102 4.19878 0.35781 0
M  V30 531 H 46.8852 3.11798 0.869686 0
M  V30 532 H 45.7922 3.4601 -1.42224 0
M  V30 533 H 47.1252 4.55987 -1.85301 0
M  V30 534 N 48.7773 0.814389 1.34928 0
M  V30 535 C 50.0023 0.410097 2.03305 0
M  V30 536 C 50.4273 -0.973464 1.60951 0
M  V30 537 O 49.7853 -1.63185 0.789964 0
M  V30 538 C 49.8333 0.51049 3.56968 0
M  V30 539 O 48.9373 -0.473035 4.09678 0
M  V30 540 H 48.2783 0.170088 0.641846 0
M  V30 541 H 50.8083 1.10244 1.72358 0
M  V30 542 H 50.8183 0.383135 4.06197 0
M  V30 543 H 49.4933 1.51963 3.87144 0
M  V30 544 H 48.0703 -0.305272 3.71648 0
M  V30 545 N 50.2554 -1.46986 0.568584 0
M  V30 546 C 51.4834 -2.0683 0.0539956 0
M  V30 547 C 51.8984 -1.41953 -1.24478 0
M  V30 548 O 51.2554 -0.519933 -1.74937 0
M  V30 549 C 51.3064 -3.61254 -0.133362 0
M  V30 550 O 51.0274 -4.237 1.11399 0
M  V30 551 C 52.5284 -4.37992 -0.683927 0
M  V30 552 H 49.7484 -0.669058 0.0510141 0
M  V30 553 H 52.2924 -1.88824 0.785234 0
M  V30 554 H 50.4474 -3.78735 -0.81477 0
M  V30 555 H 50.8614 -5.16388 0.91888 0
M  V30 556 H 52.3354 -5.46684 -0.764263 0
M  V30 557 H 52.8124 -4.05058 -1.69778 0
M  V30 558 H 53.4184 -4.25283 -0.0378494 0
M  V30 559 N 51.7335 -0.305618 -1.54608 0
M  V30 560 C 52.9815 0.301701 -1.99835 0
M  V30 561 C 53.3025 1.54054 -1.19551 0
M  V30 562 O 52.5725 1.93702 -0.292658 0
M  V30 563 H 51.1525 0.114468 -0.738178 0
M  V30 564 H 53.8145 -0.418016 -1.90364 0
M  V30 565 H 52.9105 0.570548 -3.06841 0
M  V30 566 N 53.2116 1.57565 -0.0334293 0
M  V30 567 C 54.1216 2.13943 0.962572 0
M  V30 568 C 55.1376 1.09276 1.35406 0
M  V30 569 O 56.3136 1.41355 1.4346 0
M  V30 570 C 53.3786 2.65887 2.22497 0
M  V30 571 C 52.4396 3.85286 1.8935 0
M  V30 572 C 51.6726 4.34743 3.09571 0
M  V30 573 O 51.8956 3.83352 4.22371 0
M  V30 574 O 50.8296 5.26538 2.91618 0
M  V30 575 H 54.6556 2.99333 0.513169 0
M  V30 576 H 52.2406 1.4822 0.18743 0
M  V30 577 H 54.1226 2.99346 2.96598 0
M  V30 578 H 52.7976 1.83578 2.6661 0
M  V30 579 H 51.7046 3.56746 1.1262 0
M  V30 580 H 53.0376 4.68771 1.5005 0
M  V30 581 N 54.6897 -0.239769 1.55765 0
M  V30 582 C 55.9297 -0.974076 1.79697 0
M  V30 583 C 56.2937 -1.82249 0.604088 0
M  V30 584 O 57.4947 -2.58913 0.722324 0
M  V30 585 C 55.7657 -1.80595 3.08416 0
M  V30 586 S 57.3247 -2.59838 3.53596 0
M  V30 587 H 54.1427 -0.327524 0.63107 0
M  V30 588 H 56.7447 -0.241277 1.94005 0
M  V30 589 H 55.4487 -1.17249 3.93295 0
M  V30 590 H 54.9797 -2.58137 2.96865 0
M  V30 591 H 56.9947 -3.82987 3.15492 0
M  V30 592 N 56.1678 -1.49265 -0.50573 0
M  V30 593 C 57.4138 -1.59723 -1.25937 0
M  V30 594 C 57.7688 -0.278236 -1.90378 0
M  V30 595 O 57.0618 0.72113 -1.77511 0
M  V30 596 C 57.2558 -2.69008 -2.35308 0
M  V30 597 C 57.0848 -4.11405 -1.81592 0
M  V30 598 C 55.8548 -4.78252 -1.63105 0
M  V30 599 C 58.0528 -4.96792 -1.33048 0
M  V30 600 N 56.0348 -6.0498 -1.04269 0
M  V30 601 C 57.4058 -6.13962 -0.863168 0
M  V30 602 C 59.4608 -4.82828 -1.21577 0
M  V30 603 C 58.1638 -7.18705 -0.292489 0
M  V30 604 C 60.1898 -5.87716 -0.65907 0
M  V30 605 C 59.5518 -7.0411 -0.201954 0
M  V30 606 H 55.6508 -0.638864 -0.450973 0
M  V30 607 H 58.2348 -1.86251 -0.567326 0
M  V30 608 H 56.4058 -2.4426 -3.01979 0
M  V30 609 H 58.1378 -2.69013 -3.02348 0
M  V30 610 H 54.8928 -4.34974 -1.87336 0
M  V30 611 H 55.3168 -6.72631 -0.767919 0
M  V30 612 H 59.9588 -3.93159 -1.55518 0
M  V30 613 H 57.6768 -8.08078 0.0591987 0
M  V30 614 H 61.2628 -5.7897 -0.573156 0
M  V30 615 H 60.1428 -7.83885 0.222101 0
M  V30 616 N 57.6459 0.756429 -1.3826 0
M  V30 617 C 58.6089 1.85176 -1.35065 0
M  V30 618 C 59.6089 1.58818 -0.251703 0
M  V30 619 O 60.7989 1.66615 -0.508433 0
M  V30 620 C 57.9309 3.22596 -1.10201 0
M  V30 621 H 59.1239 1.89417 -2.3251 0
M  V30 622 H 56.6769 0.95783 -1.23512 0
M  V30 623 H 57.4119 3.24025 -0.133504 0
M  V30 624 H 57.1969 3.43122 -1.89762 0
M  V30 625 H 58.6869 4.02673 -1.10654 0
M  V30 626 N 59.124 1.23083 0.984299 0
M  V30 627 C 60.373 1.05466 1.71929 0
M  V30 628 C 60.686 -0.409211 1.91272 0
M  V30 629 O 61.892 -0.705226 2.62181 0
M  V30 630 C 60.348 1.83874 3.09384 0
M  V30 631 C 59.956 3.34566 2.97943 0
M  V30 632 C 61.7 1.74734 3.8687 0
M  V30 633 C 59.607 4.05381 4.30605 0
M  V30 634 H 58.537 0.391039 0.644674 0
M  V30 635 H 61.188 1.47013 1.09815 0
M  V30 636 H 59.57 1.35131 3.72231 0
M  V30 637 H 60.744 3.90767 2.44209 0
M  V30 638 H 59.059 3.44476 2.33934 0
M  V30 639 H 61.656 2.24957 4.85076 0
M  V30 640 H 61.999 0.709372 4.10212 0
M  V30 641 H 62.532 2.21067 3.30717 0
M  V30 642 H 59.271 5.09467 4.1246 0
M  V30 643 H 58.791 3.53967 4.84218 0
M  V30 644 H 60.47 4.11458 4.99311 0
M  V30 645 N 60.6021 -1.18246 1.0419 0
M  V30 646 C 61.8271 -1.92736 0.765996 0
M  V30 647 C 62.2521 -1.75728 -0.67091 0
M  V30 648 O 61.6101 -1.06825 -1.46486 0
M  V30 649 C 61.6581 -3.42148 1.13875 0
M  V30 650 O 60.7621 -4.11548 0.264954 0
M  V30 651 H 60.1031 -0.601238 0.281797 0
M  V30 652 H 62.6331 -1.49942 1.39207 0
M  V30 653 H 62.6431 -3.92858 1.1012 0
M  V30 654 H 61.3181 -3.53848 2.18551 0
M  V30 655 H 59.8951 -3.71137 0.362226 0
M  V30 656 N 62.0802 -0.821533 -1.34494 0
M  V30 657 C 63.0432 -0.247847 -2.27856 0
M  V30 658 C 64.0432 0.573453 -1.50227 0
M  V30 659 O 65.2332 0.389759 -1.69784 0
M  V30 660 C 62.3652 0.652698 -3.34593 0
M  V30 661 H 63.5582 -1.07146 -2.80107 0
M  V30 662 H 61.1112 -0.593291 -1.44602 0
M  V30 663 H 61.8462 1.49943 -2.87555 0
M  V30 664 H 61.6312 0.065292 -3.92046 0
M  V30 665 H 63.1212 1.04793 -4.04238 0
M  V30 666 N 63.5583 1.46682 -0.576371 0
M  V30 667 C 64.5083 2.27278 0.181288 0
M  V30 668 C 65.4923 1.35497 0.867721 0
M  V30 669 O 66.6843 1.59717 0.762863 0
M  V30 670 C 63.8133 3.21703 1.19841 0
M  V30 671 C 62.8993 4.20969 0.51442 0
M  V30 672 N 63.2903 5.03999 -0.426407 0
M  V30 673 C 61.5883 4.39373 0.765963 0
M  V30 674 C 62.2893 5.75812 -0.825565 0
M  V30 675 N 61.2653 5.43315 -0.176116 0
M  V30 676 H 65.0673 2.88863 -0.541785 0
M  V30 677 H 62.5813 1.57455 -0.397697 0
M  V30 678 H 64.5783 3.78145 1.75533 0
M  V30 679 H 63.2383 2.61677 1.92238 0
M  V30 680 H 64.2493 5.11659 -0.8016 0
M  V30 681 H 60.9263 3.90502 1.47698 0
M  V30 682 H 62.3163 6.52577 -1.59976 0
M  V30 683 N 65.0364 0.313813 1.54444 0
M  V30 684 C 66.4474 -0.176243 1.85866 0
M  V30 685 C 66.7984 -1.52405 1.23561 0
M  V30 686 O 65.9234 -2.09605 0.538016 0
M  V30 687 C 66.5184 -0.32657 3.37222 0
M  V30 688 C 65.0774 -0.760846 3.6863 0
M  V30 689 C 64.2244 0.123247 2.77026 0
M  V30 690 H 67.1754 0.534418 1.49431 0
M  V30 691 H 67.1964 -1.15908 3.62416 0
M  V30 692 H 66.7084 0.654531 3.82541 0
M  V30 693 H 64.8094 -1.75204 3.28838 0
M  V30 694 H 64.9224 -0.571353 4.75681 0
M  V30 695 H 63.2864 -0.399597 2.51546 0
M  V30 696 H 64.0694 1.10094 3.25168 0
M  V30 697 N 66.5145 -1.57545 0.0417849 0
M  V30 698 C 67.4615 -2.10977 -0.935805 0
M  V30 699 C 68.4315 -1.01486 -1.31491 0
M  V30 700 O 69.6165 -1.2898 -1.40602 0
M  V30 701 C 66.7565 -2.65169 -2.2086 0
M  V30 702 C 65.8695 -3.88714 -1.88482 0
M  V30 703 C 65.0045 -4.31254 -3.1015 0
M  V30 704 C 64.0435 -5.47524 -2.7365 0
M  V30 705 N 63.1805 -5.85162 -3.87982 0
M  V30 706 H 68.0205 -2.94218 -0.473249 0
M  V30 707 H 65.5575 -1.45415 -0.221981 0
M  V30 708 H 67.5155 -2.94685 -2.95325 0
M  V30 709 H 66.1455 -1.8474 -2.64709 0
M  V30 710 H 65.1975 -3.65849 -1.04205 0
M  V30 711 H 66.5095 -4.73245 -1.57608 0
M  V30 712 H 65.6635 -4.62273 -3.92923 0
M  V30 713 H 64.4025 -3.45516 -3.44195 0
M  V30 714 H 63.4075 -5.16187 -1.89291 0
M  V30 715 H 64.6325 -6.34971 -2.40807 0
M  V30 716 H 62.5785 -5.02377 -4.21846 0
M  V30 717 H 62.4955 -6.64362 -3.60775 0
M  V30 718 H 63.7635 -6.20791 -4.71422 0
M  V30 719 N 67.9926 0.231505 -1.5589 0
M  V30 720 C 69.2406 0.955461 -1.78088 0
M  V30 721 C 69.5616 1.85262 -0.608533 0
M  V30 722 O 68.8316 1.92277 0.375035 0
M  V30 723 H 67.4116 0.355787 -0.656829 0
M  V30 724 H 70.0736 0.245751 -1.93344 0
M  V30 725 H 69.1696 1.56814 -2.69844 0
M  V30 726 N 69.4707 1.49531 0.497807 0
M  V30 727 C 70.8817 1.52344 1.07927 0
M  V30 728 C 71.2327 0.311469 1.93712 0
M  V30 729 O 70.3577 -0.578405 2.08527 0
M  V30 730 C 70.9527 2.76062 1.96405 0
M  V30 731 C 69.5117 2.81643 2.49709 0
M  V30 732 C 68.6587 2.46299 1.27404 0
M  V30 733 H 71.6097 1.56182 0.281576 0
M  V30 734 H 71.6307 2.56405 2.81135 0
M  V30 735 H 71.1427 3.64254 1.33943 0
M  V30 736 H 69.2437 1.97739 3.15801 0
M  V30 737 H 69.3567 3.83891 2.86643 0
M  V30 738 H 67.7207 1.98148 1.60029 0
M  V30 739 H 68.5037 3.36769 0.66645 0
M  V30 740 N 70.9488 -0.749086 1.3866 0
M  V30 741 C 72.1738 -1.54344 1.38538 0
M  V30 742 C 72.5988 -1.88088 -0.0216655 0
M  V30 743 O 71.9568 -1.50899 -1.00494 0
M  V30 744 C 72.0048 -2.8164 2.25192 0
M  V30 745 O 71.1088 -3.7698 1.67212 0
M  V30 746 H 70.4498 -0.466654 0.472367 0
M  V30 747 H 72.9798 -0.925355 1.82478 0
M  V30 748 H 72.9898 -3.30519 2.3921 0
M  V30 749 H 71.6648 -2.56411 3.27454 0
M  V30 750 H 70.2418 -3.35699 1.6236 0
M  V30 751 N 72.4269 -1.23603 -0.977757 0
M  V30 752 C 73.6549 -1.09646 -1.75458 0
M  V30 753 C 74.0699 0.351859 -1.85492 0
M  V30 754 O 73.4269 1.24327 -1.336 0
M  V30 755 C 73.4779 -1.71895 -3.18016 0
M  V30 756 O 73.1989 -3.11063 -3.08498 0
M  V30 757 C 74.6999 -1.63415 -4.12081 0
M  V30 758 H 71.9199 -0.38359 -0.550545 0
M  V30 759 H 74.4639 -1.63507 -1.22824 0
M  V30 760 H 72.6189 -1.22061 -3.67668 0
M  V30 761 H 73.0329 -3.41305 -3.9826 0
M  V30 762 H 74.5069 -2.11669 -5.09804 0
M  V30 763 H 74.9839 -0.593462 -4.35172 0
M  V30 764 H 75.5899 -2.12628 -3.68334 0
M  V30 765 N 73.905 1.17692 -1.04816 0
M  V30 766 C 75.151 1.88137 -0.75711 0
M  V30 767 C 75.484 1.80604 0.713841 0
M  V30 768 O 74.759 1.21146 1.52164 0
M  V30 769 C 75.042 3.38318 -1.2334 0
M  V30 770 C 74.895 3.54622 -2.76701 0
M  V30 771 C 76.214 4.32214 -0.829415 0
M  V30 772 H 73.333 0.683163 -0.27651 0
M  V30 773 H 75.975 1.38424 -1.30149 0
M  V30 774 H 74.125 3.80787 -0.770286 0
M  V30 775 H 75.797 3.21194 -3.31107 0
M  V30 776 H 74.04 2.97026 -3.16161 0
M  V30 777 H 74.711 4.60028 -3.05088 0
M  V30 778 H 77.187 3.97565 -1.22805 0
M  V30 779 H 76.063 5.35838 -1.19033 0
M  V30 780 H 76.324 4.41294 0.266891 0
M  V30 781 N 75.3831 0.828654 1.34056 0
M  V30 782 C 76.3461 0.259927 2.27721 0
M  V30 783 C 77.3461 -0.565478 1.50529 0
M  V30 784 O 78.5361 -0.38075 1.69988 0
M  V30 785 C 75.6681 -0.634944 3.34935 0
M  V30 786 H 76.8611 1.0863 2.79534 0
M  V30 787 H 74.4141 0.600951 1.44285 0
M  V30 788 H 75.1491 -1.48416 2.88346 0
M  V30 789 H 74.9341 -0.0444999 3.92075 0
M  V30 790 H 76.4241 -1.02648 4.04788 0
M  V30 791 N 76.8612 -1.46375 0.584142 0
M  V30 792 C 77.8092 -2.32042 -0.161047 0
M  V30 793 C 78.8032 -1.44569 -0.882966 0
M  V30 794 O 80.0092 -1.61186 -0.801191 0
M  V30 795 H 76.3842 -0.748659 -0.0708033 0
M  V30 796 H 78.3552 -2.92704 0.580269 0
M  V30 797 C 77.1042 -3.27762 -1.1605 0
M  V30 798 H 76.4272 -3.95051 -0.614419 0
M  V30 799 H 77.8672 -3.90481 -1.65228 0
M  V30 800 C 76.3262 -2.53218 -2.22221 0
M  V30 801 O 76.8562 -2.29628 -3.29597 0
M  V30 802 N 75.0622 -2.13756 -1.96868 0
M  V30 803 H 74.6092 -2.33142 -1.09557 0
M  V30 804 H 74.5672 -1.642 -2.68115 0
M  V30 805 N 78.3393 -0.321999 -1.54275 0
M  V30 806 C 79.5873 0.280489 -2.00144 0
M  V30 807 C 79.9083 1.52777 -1.21178 0
M  V30 808 O 79.1783 1.9338 -0.313187 0
M  V30 809 H 77.7583 0.106632 -0.73935 0
M  V30 810 H 80.4203 -0.438184 -1.8991 0
M  V30 811 H 79.5163 0.537972 -3.07428 0
M  V30 812 N 79.8174 1.5752 -0.0501392 0
M  V30 813 C 81.2284 1.80271 0.485705 0
M  V30 814 C 81.5794 0.96228 1.70981 0
M  V30 815 O 80.7044 0.178578 2.15662 0
M  V30 816 C 81.2994 3.26957 0.887938 0
M  V30 817 C 79.8584 3.5063 1.36877 0
M  V30 818 C 79.0054 2.75165 0.343468 0
M  V30 819 H 81.9564 1.56281 -0.276028 0
M  V30 820 H 81.9774 3.37821 1.75093 0
M  V30 821 H 81.4894 3.881 -0.0031809 0
M  V30 822 H 79.5904 2.94766 2.27911 0
M  V30 823 H 79.7034 4.59343 1.36164 0
M  V30 824 H 78.0674 2.4127 0.816128 0
M  V30 825 H 78.8504 3.39034 -0.539548 0
M  V30 826 N 81.2955 -0.223234 1.56011 0
M  V30 827 C 82.5255 -0.963413 1.82762 0
M  V30 828 C 82.9335 -1.78516 0.626804 0
M  V30 829 O 82.2765 -1.78974 -0.414014 0
M  V30 830 C 82.3385 -1.93126 3.0322 0
M  V30 831 C 82.0025 -1.2942 4.38291 0
M  V30 832 C 82.9995 -0.684916 5.15369 0
M  V30 833 C 80.6845 -1.30647 4.85012 0
M  V30 834 C 82.6785 -0.0963971 6.37327 0
M  V30 835 C 80.3655 -0.71411 6.06913 0
M  V30 836 C 81.3635 -0.110123 6.82911 0
M  V30 837 O 81.0515 0.47303 8.02507 0
M  V30 838 H 80.7835 -0.288011 0.611576 0
M  V30 839 H 83.3375 -0.244103 2.03944 0
M  V30 840 H 81.5675 -2.68952 2.77852 0
M  V30 841 H 83.2565 -2.53685 3.16857 0
M  V30 842 H 84.0225 -0.667774 4.80381 0
M  V30 843 H 79.9015 -1.76598 4.25833 0
M  V30 844 H 83.4455 0.375657 6.96588 0
M  V30 845 H 79.3425 -0.728659 6.41374 0
M  V30 846 H 80.1105 0.367186 8.17676 0
M  V30 847 N 82.7736 -1.49793 -0.48987 0
M  V30 848 C 83.7206 -1.67281 -1.59014 0
M  V30 849 C 84.6906 -0.514177 -1.57941 0
M  V30 850 O 85.8756 -0.742533 -1.75759 0
M  V30 851 C 83.0156 -1.75569 -2.97102 0
M  V30 852 C 82.1286 -3.0281 -3.08107 0
M  V30 853 C 81.2636 -3.02008 -4.36995 0
M  V30 854 C 80.3026 -4.23782 -4.41673 0
M  V30 855 N 79.4396 -4.20826 -5.62005 0
M  V30 856 H 84.2796 -2.61224 -1.43409 0
M  V30 857 H 81.8166 -1.29508 -0.697565 0
M  V30 858 H 83.7746 -1.78354 -3.77155 0
M  V30 859 H 82.4046 -0.850827 -3.11385 0
M  V30 860 H 81.4566 -3.09584 -2.21047 0
M  V30 861 H 82.7686 -3.92801 -3.07423 0
M  V30 862 H 81.9226 -3.03418 -5.25378 0
M  V30 863 H 80.6616 -2.09815 -4.4026 0
M  V30 864 H 79.6666 -4.22604 -3.5169 0
M  V30 865 H 80.8916 -5.17181 -4.40115 0
M  V30 866 H 78.8376 -3.31476 -5.66091 0
M  V30 867 H 78.7546 -5.04564 -5.62984 0
M  V30 868 H 80.0226 -4.26355 -6.52565 0
M  V30 869 N 84.2517 0.741722 -1.39055 0
M  V30 870 C 85.4997 1.49818 -1.35643 0
M  V30 871 C 85.8207 1.94938 0.0491642 0
M  V30 872 O 85.0907 1.68505 0.999141 0
M  V30 873 H 83.6707 0.555755 -0.499144 0
M  V30 874 H 86.3327 0.880957 -1.73854 0
M  V30 875 H 85.4287 2.38348 -2.01486 0
M  V30 876 N 85.7298 1.2412 0.971189 0
M  V30 877 C 86.6768 1.0305 2.06517 0
M  V30 878 C 87.6468 -0.0550666 1.66009 0
M  V30 879 O 88.8318 0.0988688 1.90544 0
M  V30 880 C 85.9718 0.637653 3.39158 0
M  V30 881 C 85.0848 1.79633 3.92882 0
M  V30 882 C 84.2198 1.34939 5.13775 0
M  V30 883 C 83.2588 2.47823 5.59687 0
M  V30 884 N 82.3958 2.04022 6.71803 0
M  V30 885 H 87.2358 1.96685 2.23873 0
M  V30 886 H 84.7728 0.979694 1.09729 0
M  V30 887 H 86.7308 0.390931 4.15364 0
M  V30 888 H 85.3608 -0.261693 3.21737 0
M  V30 889 H 84.4128 2.15681 3.13346 0
M  V30 890 H 85.7248 2.64466 4.22918 0
M  V30 891 H 84.8788 1.06134 5.97345 0
M  V30 892 H 83.6178 0.471557 4.85415 0
M  V30 893 H 82.6228 2.77392 4.74693 0
M  V30 894 H 83.8478 3.36158 5.90063 0
M  V30 895 H 81.7938 1.18632 6.45184 0
M  V30 896 H 81.7108 2.82409 7.01271 0
M  V30 897 H 82.9788 1.78347 7.58823 0
M  V30 898 N 87.2079 -1.17134 1.05439 0
M  V30 899 C 88.4359 -1.91372 0.786414 0
M  V30 900 C 88.8509 -1.76955 -0.658202 0
M  V30 901 O 88.2079 -1.10838 -1.44987 0
M  V30 902 C 88.2589 -3.42356 1.1608 0
M  V30 903 O 87.9799 -3.56332 2.54871 0
M  V30 904 C 89.4809 -4.33663 0.919322 0
M  V30 905 H 86.7009 -0.607118 0.285743 0
M  V30 906 H 89.2449 -1.48525 1.40572 0
M  V30 907 H 87.3999 -3.82939 0.586191 0
M  V30 908 H 87.8139 -4.49896 2.69618 0
M  V30 909 H 89.2879 -5.38099 1.231 0
M  V30 910 H 89.7649 -4.38959 -0.145359 0
M  V30 911 H 90.3709 -3.98796 1.47789 0
M  V30 912 N 88.686 -0.835752 -1.33615 0
M  V30 913 C 89.616 -0.281739 -2.31794 0
M  V30 914 C 90.597 0.608833 -1.58831 0
M  V30 915 O 91.782 0.533035 -1.86741 0
M  V30 916 C 88.912 0.546612 -3.42971 0
M  V30 917 C 87.866 -0.247904 -4.27281 0
M  V30 918 C 87.192 0.704001 -5.30045 0
M  V30 919 C 88.492 -1.46324 -5.01385 0
M  V30 920 H 90.186 -1.10206 -2.78379 0
M  V30 921 H 87.732 -0.531388 -1.33837 0
M  V30 922 H 89.685 0.944467 -4.1068 0
M  V30 923 H 88.409 1.40011 -2.95067 0
M  V30 924 H 87.068 -0.627281 -3.61194 0
M  V30 925 H 86.716 1.55381 -4.78399 0
M  V30 926 H 86.416 0.176524 -5.87335 0
M  V30 927 H 87.94 1.09944 -6.0062 0
M  V30 928 H 89.354 -1.13871 -5.61877 0
M  V30 929 H 87.751 -1.92728 -5.6831 0
M  V30 930 H 88.821 -2.23467 -4.30338 0
M  V30 931 N 90.1641 1.46063 -0.591896 0
M  V30 932 C 91.4131 2.01547 -0.0786637 0
M  V30 933 C 91.7261 1.46796 1.29268 0
M  V30 934 O 92.9321 1.94157 1.89777 0
M  V30 935 C 91.3881 3.59787 -0.0900024 0
M  V30 936 C 90.9961 4.23534 -1.46023 0
M  V30 937 C 92.7401 4.22895 0.368806 0
M  V30 938 C 90.6471 5.73881 -1.4288 0
M  V30 939 H 89.5771 0.753564 -0.0256388 0
M  V30 940 H 92.2281 1.677 -0.744905 0
M  V30 941 H 90.6101 3.90752 0.642586 0
M  V30 942 H 91.7841 4.04167 -2.21328 0
M  V30 943 H 90.0991 3.72558 -1.85982 0
M  V30 944 H 92.6961 5.33116 0.411258 0
M  V30 945 H 93.0391 3.9247 1.38827 0
M  V30 946 H 93.5721 3.9659 -0.31001 0
M  V30 947 H 90.3111 6.0898 -2.42536 0
M  V30 948 H 89.8311 5.95486 -0.718095 0
M  V30 949 H 91.5101 6.36776 -1.14565 0
M  V30 950 N 91.6422 0.330177 1.54103 0
M  V30 951 C 92.5522 -0.541534 2.28264 0
M  V30 952 C 93.5682 -1.12351 1.32866 0
M  V30 953 O 94.7442 -1.14206 1.65888 0
M  V30 954 C 91.8092 -1.68322 3.03098 0
M  V30 955 C 90.8702 -1.13238 4.14096 0
M  V30 956 C 90.1032 -2.21966 4.85352 0
M  V30 957 O 90.3262 -3.42437 4.56172 0
M  V30 958 O 89.2602 -1.87013 5.7211 0
M  V30 959 H 93.0862 0.060938 3.03639 0
M  V30 960 H 90.6712 0.09565 1.49093 0
M  V30 961 H 92.5532 -2.34777 3.49939 0
M  V30 962 H 91.2282 -2.27176 2.30593 0
M  V30 963 H 90.1352 -0.432736 3.71589 0
M  V30 964 H 91.4682 -0.588898 4.88664 0
M  V30 965 N 93.1203 -1.57491 0.0584922 0
M  V30 966 C 94.0503 -2.14988 -0.911178 0
M  V30 967 C 95.0313 -1.07343 -1.31952 0
M  V30 968 O 96.2163 -1.35318 -1.39294 0
M  V30 969 C 93.3463 -2.70078 -2.18347 0
M  V30 970 C 92.3003 -3.82771 -1.91495 0
M  V30 971 C 91.6263 -4.24408 -3.25241 0
M  V30 972 C 92.9263 -5.07592 -1.23075 0
M  V30 973 H 94.6203 -2.96263 -0.432246 0
M  V30 974 H 92.1663 -1.42512 -0.206469 0
M  V30 975 H 94.1193 -3.08943 -2.86587 0
M  V30 976 H 92.8433 -1.86005 -2.68458 0
M  V30 977 H 91.5023 -3.44389 -1.25664 0
M  V30 978 H 91.1503 -3.37275 -3.73168 0
M  V30 979 H 90.8503 -5.00366 -3.08071 0
M  V30 980 H 92.3743 -4.65879 -3.94701 0
M  V30 981 H 93.7883 -5.43857 -1.81362 0
M  V30 982 H 92.1853 -5.88741 -1.16207 0
M  V30 983 H 93.2553 -4.84454 -0.207847 0
M  V30 984 N 94.5984 0.214957 -1.56127 0
M  V30 985 C 95.8444 0.935325 -1.80619 0
M  V30 986 C 96.1994 1.81706 -0.632507 0
M  V30 987 O 95.4924 1.87931 0.373182 0
M  V30 988 C 95.6864 1.80314 -3.0858 0
M  V30 989 C 95.5154 1.00691 -4.38282 0
M  V30 990 C 94.2854 0.699211 -5.00439 0
M  V30 991 C 96.4834 0.369057 -5.12974 0
M  V30 992 N 94.4654 -0.117734 -6.13787 0
M  V30 993 C 95.8364 -0.310981 -6.1922 0
M  V30 994 C 97.8914 0.282759 -4.97096 0
M  V30 995 C 96.5944 -1.06907 -7.11311 0
M  V30 996 C 98.6204 -0.461881 -5.89594 0
M  V30 997 C 97.9824 -1.13044 -6.9527 0
M  V30 998 H 94.0814 0.322307 -0.71249 0
M  V30 999 H 96.6654 0.205649 -1.93611 0
M  V30 1000 H 94.8364 2.50458 -2.96859 0
M  V30 1001 H 96.5684 2.46148 -3.21237 0
M  V30 1002 H 93.3234 1.01884 -4.62511 0
M  V30 1003 H 93.7474 -0.515235 -6.75037 0
M  V30 1004 H 98.3894 0.785292 -4.15443 0
M  V30 1005 H 96.1074 -1.5831 -7.92442 0
M  V30 1006 H 99.6934 -0.529746 -5.79383 0
M  V30 1007 H 98.5734 -1.69742 -7.65609 0
M  V30 1008 N 96.0765 1.50051 0.48192 0
M  V30 1009 C 96.9865 1.7089 1.60728 0
M  V30 1010 C 98.0025 0.591788 1.63627 0
M  V30 1011 O 99.1785 0.868817 1.81696 0
M  V30 1012 C 96.2435 1.78855 2.97005 0
M  V30 1013 C 95.3045 3.02537 3.04581 0
M  V30 1014 C 94.5375 3.10112 4.34357 0
M  V30 1015 O 94.7605 2.24765 5.24249 0
M  V30 1016 O 93.6945 4.02747 4.47301 0
M  V30 1017 H 97.5205 2.66264 1.46072 0
M  V30 1018 H 95.1055 1.34018 0.660264 0
M  V30 1019 H 96.9875 1.86336 3.77964 0
M  V30 1020 H 95.6625 0.866628 3.11883 0
M  V30 1021 H 94.5695 3.00563 2.22739 0
M  V30 1022 H 95.9025 3.94272 2.94636 0
M  V30 1023 N 97.5546 -0.734337 1.39446 0
M  V30 1024 C 98.4646 -1.87879 1.40495 0
M  V30 1025 C 99.4806 -1.714 0.299672 0
M  V30 1026 O 100.657 -1.93991 0.541249 0
M  V30 1027 C 97.7216 -3.23477 1.24754 0
M  V30 1028 C 96.7826 -3.52344 2.45259 0
M  V30 1029 C 96.0156 -4.81473 2.30259 0
M  V30 1030 O 96.2386 -5.55237 1.30643 0
M  V30 1031 O 95.1726 -5.10254 3.19256 0
M  V30 1032 H 98.9986 -1.89949 2.36966 0
M  V30 1033 H 96.5836 -0.882243 1.20569 0
M  V30 1034 H 98.4656 -4.04509 1.18111 0
M  V30 1035 H 97.1406 -3.22176 0.313781 0
M  V30 1036 H 96.0476 -2.71396 2.57478 0
M  V30 1037 H 97.3806 -3.58426 3.37331 0
M  V30 1038 N 99.0327 -1.24633 -0.964593 0
M  V30 1039 C 99.9827 -1.00841 -2.04487 0
M  V30 1040 C 100.967 0.0512468 -1.60818 0
M  V30 1041 O 102.159 -0.162865 -1.76249 0
M  V30 1042 C 99.2877 -0.618474 -3.37683 0
M  V30 1043 C 98.3737 -1.71437 -3.87905 0
M  V30 1044 N 98.7647 -2.9477 -4.11029 0
M  V30 1045 C 97.0627 -1.5926 -4.16596 0
M  V30 1046 C 97.7637 -3.65834 -4.52261 0
M  V30 1047 N 96.7397 -2.9341 -4.57615 0
M  V30 1048 H 100.542 -1.94487 -2.20345 0
M  V30 1049 H 98.0557 -1.14805 -1.14863 0
M  V30 1050 H 100.053 -0.429247 -4.14684 0
M  V30 1051 H 98.7127 0.310766 -3.23209 0
M  V30 1052 H 99.7237 -3.30917 -3.9839 0
M  V30 1053 H 96.4007 -0.731606 -4.1104 0
M  V30 1054 H 97.7907 -4.71646 -4.78539 0
M  V30 1055 N 100.511 1.16574 -1.06058 0
M  V30 1056 C 101.927 1.3904 -0.783585 0
M  V30 1057 C 102.127 1.91784 0.618145 0
M  V30 1058 O 101.183 2.11511 1.37911 0
M  V30 1059 C 102.496 2.37329 -1.84649 0
M  V30 1060 C 104.044 2.51018 -1.86973 0
M  V30 1061 C 104.519 3.52588 -2.92311 0
M  V30 1062 N 106.01 3.60113 -2.91329 0
M  V30 1063 C 106.745 4.38486 -3.69482 0
M  V30 1064 N 106.241 5.20302 -4.57447 0
M  V30 1065 N 108.034 4.33446 -3.57885 0
M  V30 1066 H 100.185 0.806725 -1.96483 0
M  V30 1067 H 102.448 0.417117 -0.851303 0
M  V30 1068 H 102.154 2.05663 -2.85299 0
M  V30 1069 H 102.028 3.36946 -1.6955 0
M  V30 1070 H 104.415 2.81989 -0.869827 0
M  V30 1071 H 104.496 1.51445 -2.0615 0
M  V30 1072 H 104.14 3.22354 -3.92492 0
M  V30 1073 H 104.07 4.51886 -2.70383 0
M  V30 1074 H 106.561 3.01707 -2.27555 0
M  V30 1075 H 106.874 5.77311 -5.13743 0
M  V30 1076 H 105.219 5.19653 -4.61503 0
M  V30 1077 H 108.41 3.68586 -2.88551 0
M  V30 1078 H 108.583 4.94279 -4.19037 0
M  V30 1079 N 101.989 0.842826 1.3317 0
M  V30 1080 C 102.899 0.281444 2.32906 0
M  V30 1081 C 103.915 -0.594587 1.63526 0
M  V30 1082 O 105.091 -0.49777 1.95152 0
M  V30 1083 C 102.156 -0.530929 3.42611 0
M  V30 1084 C 101.217 0.369843 4.27704 0
M  V30 1085 C 100.45 -0.403853 5.3217 0
M  V30 1086 O 100.673 -1.63513 5.46461 0
M  V30 1087 O 99.6069 0.224199 6.01482 0
M  V30 1088 H 103.433 1.10744 2.82789 0
M  V30 1089 H 101.018 0.60545 1.36582 0
M  V30 1090 H 102.9 -0.992437 4.09547 0
M  V30 1091 H 101.575 -1.33392 2.94938 0
M  V30 1092 H 100.482 0.879275 3.6362 0
M  V30 1093 H 101.815 1.13771 4.78871 0
M  V30 1094 N 103.467 -1.45747 0.599634 0
M  V30 1095 C 104.713 -2.02592 0.0918643 0
M  V30 1096 C 105.046 -1.46806 -1.27128 0
M  V30 1097 O 104.321 -0.639658 -1.83681 0
M  V30 1098 C 104.604 -3.60073 0.0443398 0
M  V30 1099 C 104.457 -4.26208 1.43759 0
M  V30 1100 C 105.776 -4.35309 -0.647608 0
M  V30 1101 H 102.895 -0.736175 0.034857 0
M  V30 1102 H 105.537 -1.73694 0.770081 0
M  V30 1103 H 103.687 -3.84823 -0.533224 0
M  V30 1104 H 105.359 -4.12668 2.06162 0
M  V30 1105 H 103.602 -3.84916 2.00056 0
M  V30 1106 H 104.273 -5.35069 1.35665 0
M  V30 1107 H 106.749 -4.15805 -0.156776 0
M  V30 1108 H 105.625 -5.45038 -0.649942 0
M  V30 1109 H 105.886 -4.07598 -1.71219 0
M  V30 1110 N 104.945 -0.338344 -1.53925 0
M  V30 1111 C 106.192 0.259758 -2.00827 0
M  V30 1112 C 106.52 1.50973 -1.22628 0
M  V30 1113 O 105.775 1.93379 -0.300509 0
M  V30 1114 C 106.074 0.62448 -3.51902 0
M  V30 1115 C 105.74 -0.528006 -4.47798 0
M  V30 1116 C 104.402 -0.844298 -4.73735 0
M  V30 1117 C 106.754 -1.30143 -5.0469 0
M  V30 1118 C 104.082 -1.93648 -5.53821 0
M  V30 1119 C 106.434 -2.38382 -5.85967 0
M  V30 1120 C 105.098 -2.70576 -6.10201 0
M  V30 1121 H 104.368 0.0950523 -0.734878 0
M  V30 1122 H 107.015 -0.465182 -1.85764 0
M  V30 1123 H 105.32 1.43006 -3.64769 0
M  V30 1124 H 107.017 1.09905 -3.85645 0
M  V30 1125 H 103.607 -0.271421 -4.2774 0
M  V30 1126 H 107.791 -1.07033 -4.84621 0
M  V30 1127 H 103.047 -2.19021 -5.70824 0
M  V30 1128 H 107.221 -2.98746 -6.29066 0
M  V30 1129 H 104.848 -3.55333 -6.72044 0
M  V30 1130 N 106.423 1.57458 -0.0668435 0
M  V30 1131 C 107.671 1.92919 0.602214 0
M  V30 1132 C 107.992 0.947215 1.70449 0
M  V30 1133 O 107.262 -0.00544117 1.95899 0
M  V30 1134 H 105.842 0.71217 0.22544 0
M  V30 1135 H 108.504 1.94508 -0.123535 0
M  V30 1136 H 107.6 2.94589 1.03073 0
M  V30 1137 N 107.901 -0.206675 1.56239 0
M  V30 1138 C 109.149 -0.927007 1.79586 0
M  V30 1139 C 109.47 -1.8427 0.637929 0
M  V30 1140 O 108.74 -1.92849 -0.344398 0
M  V30 1141 H 107.32 -0.345292 0.662407 0
M  V30 1142 H 109.982 -0.21496 1.93711 0
M  V30 1143 H 109.078 -1.52501 2.72305 0
M  V30 1144 N 109.379 -1.50304 -0.473955 0
M  V30 1145 C 110.625 -1.61389 -1.22806 0
M  V30 1146 C 110.958 -0.311955 -1.91678 0
M  V30 1147 O 110.233 0.686384 -1.81986 0
M  V30 1148 C 110.516 -2.79219 -2.27396 0
M  V30 1149 C 110.369 -4.19286 -1.62848 0
M  V30 1150 C 111.688 -2.92614 -3.28732 0
M  V30 1151 H 108.807 -0.587399 -0.445119 0
M  V30 1152 H 111.449 -1.82681 -0.522265 0
M  V30 1153 H 109.599 -2.61195 -2.87592 0
M  V30 1154 H 111.271 -4.48892 -1.06271 0
M  V30 1155 H 109.514 -4.23677 -0.931693 0
M  V30 1156 H 110.185 -4.97655 -2.38838 0
M  V30 1157 H 112.661 -3.09105 -2.78556 0
M  V30 1158 H 111.537 -3.76688 -3.99246 0
M  V30 1159 H 111.798 -2.03107 -3.92683 0
M  V30 1160 N 110.857 0.726932 -1.39834 0
M  V30 1161 C 111.767 1.87131 -1.41489 0
M  V30 1162 C 112.783 1.71239 -0.308757 0
M  V30 1163 O 113.959 1.93701 -0.551529 0
M  V30 1164 C 111.024 3.22811 -1.26468 0
M  V30 1165 C 110.085 3.51039 -2.47124 0
M  V30 1166 C 109.318 4.80245 -2.3281 0
M  V30 1167 O 109.541 5.54537 -1.33585 0
M  V30 1168 O 108.475 5.08554 -3.21957 0
M  V30 1169 H 112.301 1.8869 -2.3797 0
M  V30 1170 H 109.886 0.875837 -1.21035 0
M  V30 1171 H 111.768 4.03877 -1.20255 0
M  V30 1172 H 110.443 3.22005 -0.330862 0
M  V30 1173 H 109.35 2.70027 -2.58914 0
M  V30 1174 H 110.683 3.56632 -3.39227 0
M  V30 1175 N 112.336 1.25143 0.95797 0
M  V30 1176 C 113.584 1.09476 1.69881 0
M  V30 1177 C 113.905 -0.365502 1.91544 0
M  V30 1178 O 113.175 -1.25985 1.50015 0
M  V30 1179 H 111.755 0.402128 0.629525 0
M  V30 1180 H 114.417 1.57214 1.15194 0
M  V30 1181 H 113.513 1.60046 2.6794 0
M  V30 1182 N 113.814 -1.1601 1.06675 0
M  V30 1183 C 115.091 -1.82679 0.699114 0
M  V30 1184 C 115.471 -1.94559 -0.819137 0
M  V30 1185 O 114.819 -1.49169 -1.73092 0
M  V30 1186 C 115.029 -3.19445 1.40555 0
M  V30 1187 C 116.377 -3.95171 1.55323 0
M  V30 1188 O 117.401 -3.28976 1.36577 0
M  V30 1189 O 116.26 -5.13833 1.86112 0
M  V30 1190 H 113.354 -0.788954 0.247951 0
M  V30 1191 H 115.9 -1.23179 1.16726 0
M  V30 1192 H 114.672 -3.05856 2.44065 0
M  V30 1193 H 114.295 -3.86625 0.927733 0
M  V30 1194 N 115.292 -0.849877 -1.32721 0
M  V30 1195 C 116.708 -0.539102 -1.50219 0
M  V30 1196 C 116.908 0.931271 -1.78689 0
M  V30 1197 O 115.964 1.71455 -1.85363 0
M  V30 1198 C 117.277 -1.42196 -2.64954 0
M  V30 1199 C 118.825 -1.42189 -2.78839 0
M  V30 1200 C 119.3 -2.28985 -3.96648 0
M  V30 1201 N 120.791 -2.26754 -4.03902 0
M  V30 1202 C 121.526 -2.90644 -4.94281 0
M  V30 1203 N 121.022 -3.63629 -5.897 0
M  V30 1204 N 122.815 -2.80057 -4.87365 0
M  V30 1205 H 114.966 -1.80156 -1.12506 0
M  V30 1206 H 117.229 -0.769217 -0.554085 0
M  V30 1207 H 116.935 -2.46733 -2.50631 0
M  V30 1208 H 116.809 -1.10591 -3.60624 0
M  V30 1209 H 119.196 -0.38419 -2.92588 0
M  V30 1210 H 119.277 -1.77807 -1.83898 0
M  V30 1211 H 118.921 -3.32819 -3.83658 0
M  V30 1212 H 118.851 -1.90702 -4.90857 0
M  V30 1213 H 121.342 -1.73688 -3.3562 0
M  V30 1214 H 121.655 -4.09558 -6.55349 0
M  V30 1215 H 120 -3.67737 -5.89741 0
M  V30 1216 H 123.191 -2.22593 -4.11789 0
M  V30 1217 H 123.364 -3.30132 -5.57599 0
M  V30 1218 N 116.77 1.45427 -0.607355 0
M  V30 1219 C 118.017 2.02241 -0.102455 0
M  V30 1220 C 118.345 1.4758 1.26691 0
M  V30 1221 O 117.6 0.640468 1.84923 0
M  V30 1222 C 117.899 3.57398 -0.0129263 0
M  V30 1223 C 117.565 4.3121 -1.31792 0
M  V30 1224 C 116.227 4.51092 -1.67539 0
M  V30 1225 C 118.579 4.73401 -2.18039 0
M  V30 1226 C 115.907 5.10422 -2.89285 0
M  V30 1227 C 118.259 5.34078 -3.39034 0
M  V30 1228 C 116.923 5.52184 -3.75033 0
M  V30 1229 H 116.193 0.740051 -0.037491 0
M  V30 1230 H 118.84 1.74494 -0.788926 0
M  V30 1231 H 117.145 3.84421 0.756806 0
M  V30 1232 H 118.842 3.99061 0.393881 0
M  V30 1233 H 115.432 4.16047 -1.02968 0
M  V30 1234 H 119.616 4.57774 -1.91721 0
M  V30 1235 H 114.872 5.22629 -3.17283 0
M  V30 1236 H 119.046 5.65724 -4.06115 0
M  V30 1237 H 116.673 5.97925 -4.69457 0
M  V30 1238 N 118.248 0.346503 1.53744 0
M  V30 1239 C 119.659 -0.136779 1.86198 0
M  V30 1240 C 120.01 -1.49749 1.26766 0
M  V30 1241 O 119.135 -2.08417 0.582355 0
M  V30 1242 C 119.73 -0.254966 3.37839 0
M  V30 1243 C 118.289 -0.682482 3.70161 0
M  V30 1244 C 117.436 0.181981 2.76702 0
M  V30 1245 H 120.387 0.565994 1.48264 0
M  V30 1246 H 120.408 -1.08195 3.64793 0
M  V30 1247 H 119.92 0.735526 3.81066 0
M  V30 1248 H 118.021 -1.68189 3.3248 0
M  V30 1249 H 118.134 -0.470326 4.76786 0
M  V30 1250 H 116.498 -0.34615 2.52337 0
M  V30 1251 H 117.281 1.16966 3.2276 0
M  V30 1252 N 119.726 -1.57421 0.075193 0
M  V30 1253 C 120.656 -2.15942 -0.888324 0
M  V30 1254 C 121.637 -1.08737 -1.30806 0
M  V30 1255 O 122.822 -1.36787 -1.37851 0
M  V30 1256 C 119.952 -2.72379 -2.1547 0
M  V30 1257 C 118.906 -3.8478 -1.87425 0
M  V30 1258 C 118.232 -4.27834 -3.20721 0
M  V30 1259 C 119.532 -5.08869 -1.17684 0
M  V30 1260 H 121.226 -2.96705 -0.400799 0
M  V30 1261 H 118.772 -1.42723 -0.191342 0
M  V30 1262 H 120.725 -3.11965 -2.83295 0
M  V30 1263 H 119.449 -1.88841 -2.6647 0
M  V30 1264 H 118.108 -3.45703 -1.22004 0
M  V30 1265 H 117.756 -3.41214 -3.6957 0
M  V30 1266 H 117.456 -5.03605 -3.02746 0
M  V30 1267 H 118.98 -4.70039 -3.89738 0
M  V30 1268 H 120.394 -5.4575 -1.75584 0
M  V30 1269 H 118.791 -5.8994 -1.09956 0
M  V30 1270 H 119.861 -4.84648 -0.156453 0
M  V30 1271 N 121.204 0.198386 -1.56346 0
M  V30 1272 C 122.134 1.24865 -1.9731 0
M  V30 1273 C 123.115 1.47651 -0.844576 0
M  V30 1274 O 124.3 1.59444 -1.10866 0
M  V30 1275 C 121.43 2.59358 -2.30977 0
M  V30 1276 C 120.384 2.5119 -3.46537 0
M  V30 1277 C 119.71 3.89926 -3.65871 0
M  V30 1278 C 121.01 2.03977 -4.80823 0
M  V30 1279 H 122.704 0.908252 -2.85291 0
M  V30 1280 H 120.25 0.435462 -1.37258 0
M  V30 1281 H 122.203 3.33011 -2.58228 0
M  V30 1282 H 120.927 2.95132 -1.39874 0
M  V30 1283 H 119.586 1.79993 -3.19371 0
M  V30 1284 H 119.234 4.23046 -2.72105 0
M  V30 1285 H 118.934 3.85336 -4.4361 0
M  V30 1286 H 120.458 4.65205 -3.95495 0
M  V30 1287 H 121.872 2.67386 -5.07127 0
M  V30 1288 H 120.269 2.10397 -5.62008 0
M  V30 1289 H 121.339 0.992861 -4.74626 0
M  V30 1290 N 122.682 1.50554 0.465978 0
M  V30 1291 C 123.91 1.65563 1.24083 0
M  V30 1292 C 124.325 0.341051 1.85694 0
M  V30 1293 O 123.682 -0.677543 1.69457 0
M  V30 1294 C 123.733 2.75051 2.34583 0
M  V30 1295 O 123.454 4.01413 1.75497 0
M  V30 1296 C 124.955 3.01078 3.25372 0
M  V30 1297 H 122.175 0.55638 0.375077 0
M  V30 1298 H 124.719 1.96807 0.555624 0
M  V30 1299 H 122.874 2.46486 2.9887 0
M  V30 1300 H 123.288 4.62002 2.48303 0
M  V30 1301 H 124.762 3.81339 3.99105 0
M  V30 1302 H 125.239 2.12349 3.84453 0
M  V30 1303 H 125.845 3.31194 2.66816 0
M  V30 1304 N 124.16 -0.719506 1.40217 0
M  V30 1305 C 125.107 -1.83359 1.40172 0
M  V30 1306 C 126.077 -1.64065 0.259206 0
M  V30 1307 O 127.262 -1.85254 0.456677 0
M  V30 1308 C 124.402 -3.2103 1.26624 0
M  V30 1309 C 123.515 -3.51923 2.50548 0
M  V30 1310 C 122.65 -4.79079 2.29471 0
M  V30 1311 C 121.689 -5.02863 3.48992 0
M  V30 1312 N 120.826 -6.2123 3.27135 0
M  V30 1313 H 125.666 -1.82733 2.35399 0
M  V30 1314 H 123.203 -0.892688 1.16917 0
M  V30 1315 H 125.161 -4.00524 1.16776 0
M  V30 1316 H 123.791 -3.20895 0.350176 0
M  V30 1317 H 122.843 -2.67014 2.70939 0
M  V30 1318 H 124.155 -3.6541 3.39525 0
M  V30 1319 H 123.309 -5.66582 2.16955 0
M  V30 1320 H 122.048 -4.67794 1.37913 0
M  V30 1321 H 121.053 -4.13816 3.6199 0
M  V30 1322 H 122.278 -5.16023 4.41472 0
M  V30 1323 H 120.224 -6.11204 2.38256 0
M  V30 1324 H 120.141 -6.35375 4.09675 0
M  V30 1325 H 121.409 -7.11532 3.18344 0
M  V30 1326 N 125.638 -1.25649 -0.95132 0
M  V30 1327 C 126.568 -1.08808 -2.06599 0
M  V30 1328 C 127.549 0.00382547 -1.701 0
M  V30 1329 O 128.734 -0.166325 -1.93486 0
M  V30 1330 C 125.864 -0.709542 -3.39975 0
M  V30 1331 C 124.818 -1.75206 -3.90496 0
M  V30 1332 C 124.144 -1.22811 -5.20405 0
M  V30 1333 C 125.444 -3.15153 -4.16504 0
M  V30 1334 H 127.138 -2.02048 -2.20946 0
M  V30 1335 H 124.684 -0.972835 -1.06169 0
M  V30 1336 H 126.637 -0.578649 -4.17408 0
M  V30 1337 H 125.361 0.258556 -3.25575 0
M  V30 1338 H 124.02 -1.87145 -3.15234 0
M  V30 1339 H 123.668 -0.250145 -5.02378 0
M  V30 1340 H 123.368 -1.92492 -5.55176 0
M  V30 1341 H 124.892 -1.10968 -6.00432 0
M  V30 1342 H 126.306 -3.06349 -4.84586 0
M  V30 1343 H 124.703 -3.82333 -4.62538 0
M  V30 1344 H 125.773 -3.61966 -3.22658 0
M  V30 1345 N 127.117 1.15442 -1.07289 0
M  V30 1346 C 128.047 2.22312 -0.714107 0
M  V30 1347 C 129.028 1.67467 0.298155 0
M  V30 1348 O 130.213 1.93445 0.171048 0
M  V30 1349 C 127.343 3.47124 -0.110448 0
M  V30 1350 C 126.297 4.14926 -1.04979 0
M  V30 1351 C 125.623 5.33807 -0.308924 0
M  V30 1352 C 126.923 4.64762 -2.38314 0
M  V30 1353 H 128.617 2.5258 -1.6076 0
M  V30 1354 H 126.163 1.21404 -0.77441 0
M  V30 1355 H 128.116 4.21124 0.152482 0
M  V30 1356 H 126.84 3.16187 0.81812 0
M  V30 1357 H 125.499 3.42866 -1.29764 0
M  V30 1358 H 125.147 4.99126 0.623084 0
M  V30 1359 H 124.847 5.80113 -0.935036 0
M  V30 1360 H 126.371 6.10576 -0.0537771 0
M  V30 1361 H 127.785 5.30292 -2.1786 0
M  V30 1362 H 126.182 5.21728 -2.96514 0
M  V30 1363 H 127.252 3.80434 -3.00663 0
M  V30 1364 N 128.595 0.856903 1.32268 0
M  V30 1365 C 129.872 0.382583 1.91822 0
M  V30 1366 C 130.252 -1.13407 1.78051 0
M  V30 1367 O 129.6 -1.95673 1.18001 0
M  V30 1368 C 129.81 0.849446 3.38505 0
M  V30 1369 C 131.158 0.867936 4.15634 0
M  V30 1370 O 132.182 0.794232 3.47232 0
M  V30 1371 O 131.041 0.972286 5.37781 0
M  V30 1372 H 128.135 0.112014 0.819379 0
M  V30 1373 H 130.681 0.943952 1.41024 0
M  V30 1374 H 129.453 1.89267 3.42482 0
M  V30 1375 H 129.076 0.265652 3.96712 0
M  V30 1376 N 130.073 -1.45103 0.615059 0
M  V30 1377 C 131.319 -2.02483 0.113347 0
M  V30 1378 C 131.652 -1.48146 -1.25564 0
M  V30 1379 O 130.927 -0.659104 -1.82992 0
M  V30 1380 C 131.21 -3.60005 0.0825278 0
M  V30 1381 C 131.063 -4.2466 1.48271 0
M  V30 1382 C 132.382 -4.35972 -0.601401 0
M  V30 1383 H 129.501 -0.735764 0.0426632 0
M  V30 1384 H 132.143 -1.72868 0.788461 0
M  V30 1385 H 130.293 -3.85367 -0.492378 0
M  V30 1386 H 131.965 -4.10458 2.10527 0
M  V30 1387 H 130.208 -3.82772 2.04127 0
M  V30 1388 H 130.879 -5.336 1.41332 0
M  V30 1389 H 133.355 -4.15947 -0.112666 0
M  V30 1390 H 132.231 -5.45697 -0.592097 0
M  V30 1391 H 132.492 -4.09391 -1.66887 0
M  V30 1392 N 131.551 -0.354651 -1.53558 0
M  V30 1393 C 132.498 0.496968 -2.25386 0
M  V30 1394 C 133.468 1.0865 -1.25636 0
M  V30 1395 O 134.653 1.12104 -1.54394 0
M  V30 1396 C 131.793 1.63637 -3.03837 0
M  V30 1397 C 130.906 1.07307 -4.18461 0
M  V30 1398 C 130.041 2.18068 -4.84376 0
M  V30 1399 C 129.08 1.59147 -5.91049 0
M  V30 1400 N 128.217 2.63695 -6.50699 0
M  V30 1401 H 133.057 -0.122075 -2.9775 0
M  V30 1402 H 130.594 -0.0720154 -1.46924 0
M  V30 1403 H 132.552 2.30734 -3.47589 0
M  V30 1404 H 131.182 2.22623 -2.33749 0
M  V30 1405 H 130.234 0.292708 -3.79272 0
M  V30 1406 H 131.546 0.602193 -4.95152 0
M  V30 1407 H 130.7 2.93007 -5.31255 0
M  V30 1408 H 129.439 2.68504 -4.07133 0
M  V30 1409 H 128.444 0.827175 -5.43542 0
M  V30 1410 H 129.669 1.09549 -6.70206 0
M  V30 1411 H 127.615 3.13365 -5.76315 0
M  V30 1412 H 127.532 2.21263 -7.22896 0
M  V30 1413 H 128.8 3.3837 -7.02229 0
M  V30 1414 N 133.029 1.57378 -0.0835403 0
M  V30 1415 C 133.939 2.16897 0.894021 0
M  V30 1416 C 134.955 1.13528 1.31861 0
M  V30 1417 O 136.131 1.45848 1.3889 0
M  V30 1418 C 133.196 2.72831 2.13925 0
M  V30 1419 C 132.257 3.91115 1.76997 0
M  V30 1420 C 131.49 4.44371 2.95584 0
M  V30 1421 O 131.713 3.96596 4.09961 0
M  V30 1422 O 130.647 5.35549 2.74719 0
M  V30 1423 H 134.473 3.00814 0.417679 0
M  V30 1424 H 132.058 1.48741 0.140181 0
M  V30 1425 H 133.94 3.0863 2.86924 0
M  V30 1426 H 132.615 1.91967 2.60635 0
M  V30 1427 H 131.522 3.60148 1.01214 0
M  V30 1428 H 132.855 4.73307 1.3506 0
M  V30 1429 N 134.507 -0.190092 1.56449 0
M  V30 1430 C 135.784 -0.935886 1.71757 0
M  V30 1431 C 136.164 -2.01173 0.639726 0
M  V30 1432 O 135.512 -2.25827 -0.348502 0
M  V30 1433 C 135.722 -1.51775 3.1427 0
M  V30 1434 C 137.07 -1.99794 3.74656 0
M  V30 1435 O 138.094 -1.61607 3.1743 0
M  V30 1436 O 136.953 -2.70079 4.751 0
M  V30 1437 H 134.047 -0.439229 0.700719 0
M  V30 1438 H 136.593 -0.179395 1.68749 0
M  V30 1439 H 135.365 -0.742505 3.84191 0
M  V30 1440 H 134.988 -2.33894 3.21527 0
M  V30 1441 N 135.985 -1.50799 -0.457987 0
M  V30 1442 C 137.213 -1.66218 -1.23203 0
M  V30 1443 C 137.628 -0.350894 -1.85511 0
M  V30 1444 O 136.985 0.668546 -1.69814 0
M  V30 1445 C 137.036 -2.76291 -2.33121 0
M  V30 1446 O 136.757 -4.02338 -1.73366 0
M  V30 1447 C 138.258 -3.028 -3.2377 0
M  V30 1448 H 135.478 -0.558361 -0.372121 0
M  V30 1449 H 138.022 -1.97099 -0.545179 0
M  V30 1450 H 136.177 -2.48068 -2.97558 0
M  V30 1451 H 136.591 -4.63312 -2.4585 0
M  V30 1452 H 138.065 -3.8345 -3.97077 0
M  V30 1453 H 138.542 -2.14385 -3.83322 0
M  V30 1454 H 139.148 -3.32604 -2.65056 0
M  V30 1455 N 137.463 0.71206 -1.40597 0
M  V30 1456 C 138.688 1.50617 -1.42581 0
M  V30 1457 C 139.113 1.88079 -0.0282102 0
M  V30 1458 O 138.471 1.53511 0.964579 0
M  V30 1459 C 138.519 2.7557 -2.3258 0
M  V30 1460 O 137.623 3.72414 -1.77148 0
M  V30 1461 H 136.964 0.453966 -0.484573 0
M  V30 1462 H 139.494 0.876649 -1.84868 0
M  V30 1463 H 139.504 3.2406 -2.47889 0
M  V30 1464 H 138.179 2.47639 -3.34138 0
M  V30 1465 H 136.756 3.31276 -1.71204 0
M  V30 1466 N 138.941 1.26152 0.944643 0
M  V30 1467 C 140.19 1.10883 1.68487 0
M  V30 1468 C 140.503 -0.348153 1.92477 0
M  V30 1469 O 141.709 -0.621459 2.64292 0
M  V30 1470 C 140.165 1.93624 3.03377 0
M  V30 1471 C 139.773 3.43875 2.87148 0
M  V30 1472 C 141.517 1.86954 3.81115 0
M  V30 1473 C 139.424 4.18875 4.1749 0
M  V30 1474 H 138.354 0.41135 0.631907 0
M  V30 1475 H 141.005 1.50433 1.05082 0
M  V30 1476 H 139.387 1.46904 3.67743 0
M  V30 1477 H 140.561 3.98338 2.31653 0
M  V30 1478 H 138.876 3.51744 2.22856 0
M  V30 1479 H 141.473 2.40275 4.77673 0
M  V30 1480 H 141.816 0.839518 4.07747 0
M  V30 1481 H 142.349 2.31477 3.23517 0
M  V30 1482 H 139.088 5.22332 3.96043 0
M  V30 1483 H 138.608 3.69193 4.72712 0
M  V30 1484 H 140.287 4.27134 4.85968 0
M  V30 1485 N 140.419 -1.14872 1.07899 0
M  V30 1486 C 141.366 -2.19791 0.704319 0
M  V30 1487 C 142.336 -1.63238 -0.306987 0
M  V30 1488 O 143.521 -1.8983 -0.192171 0
M  V30 1489 C 140.661 -3.44911 0.114244 0
M  V30 1490 C 139.774 -4.15637 1.1777 0
M  V30 1491 C 138.909 -5.28324 0.552037 0
M  V30 1492 C 137.948 -5.90875 1.59789 0
M  V30 1493 N 137.085 -6.95022 0.994404 0
M  V30 1494 H 141.925 -2.5119 1.60336 0
M  V30 1495 H 139.462 -1.23356 0.801352 0
M  V30 1496 H 141.42 -4.16477 -0.245544 0
M  V30 1497 H 140.05 -3.14011 -0.74813 0
M  V30 1498 H 139.102 -3.42512 1.65499 0
M  V30 1499 H 140.414 -4.5823 1.97046 0
M  V30 1500 H 139.568 -6.06538 0.1402 0
M  V30 1501 H 138.307 -4.86939 -0.272431 0
M  V30 1502 H 137.312 -5.11369 2.01945 0
M  V30 1503 H 138.537 -6.34337 2.42474 0
M  V30 1504 H 136.483 -6.55722 0.190939 0
M  V30 1505 H 136.4 -7.36073 1.72432 0
M  V30 1506 H 137.668 -7.77123 0.608253 0
M  V30 1507 N 141.898 -0.863906 -1.31812 0
M  V30 1508 C 143.144 -0.472535 -1.97218 0
M  V30 1509 C 143.477 0.971394 -1.68159 0
M  V30 1510 O 142.752 1.68309 -0.974798 0
M  V30 1511 C 143.035 -0.723054 -3.52766 0
M  V30 1512 C 142.888 -2.21608 -3.91421 0
M  V30 1513 C 144.207 -0.185522 -4.39709 0
M  V30 1514 H 141.326 -0.173158 -0.71637 0
M  V30 1515 H 143.968 -1.08403 -1.56041 0
M  V30 1516 H 142.118 -0.202577 -3.87971 0
M  V30 1517 H 143.79 -2.80334 -3.66347 0
M  V30 1518 H 142.033 -2.691 -3.40246 0
M  V30 1519 H 142.704 -2.34203 -4.99853 0
M  V30 1520 H 145.18 -0.630726 -4.11292 0
M  V30 1521 H 144.056 -0.390306 -5.47511 0
M  V30 1522 H 144.317 0.912229 -4.32586 0
M  V30 1523 N 143.376 1.44774 -0.622745 0
M  V30 1524 C 144.326 2.2774 0.108889 0
M  V30 1525 C 145.31 1.38189 0.824175 0
M  V30 1526 O 146.502 1.62063 0.711664 0
M  V30 1527 C 143.631 3.25353 1.09546 0
M  V30 1528 C 142.717 4.22392 0.380232 0
M  V30 1529 N 143.108 5.02388 -0.586535 0
M  V30 1530 C 141.406 4.41588 0.625792 0
M  V30 1531 C 142.107 5.72894 -1.00834 0
M  V30 1532 N 141.083 5.42479 -0.348878 0
M  V30 1533 H 144.885 2.86993 -0.63341 0
M  V30 1534 H 142.399 1.5611 -0.447589 0
M  V30 1535 H 144.396 3.83538 1.63414 0
M  V30 1536 H 143.056 2.6766 1.83815 0
M  V30 1537 H 144.067 5.0885 -0.963975 0
M  V30 1538 H 140.744 3.95003 1.352 0
M  V30 1539 H 142.134 6.47158 -1.80656 0
M  V30 1540 N 144.854 0.36279 1.53368 0
M  V30 1541 C 146.265 -0.117022 1.86333 0
M  V30 1542 C 146.616 -1.48397 1.28347 0
M  V30 1543 O 145.741 -2.07787 0.604428 0
M  V30 1544 C 146.336 -0.21912 3.38091 0
M  V30 1545 C 144.895 -0.643184 3.70864 0
M  V30 1546 C 144.042 0.211318 2.76494 0
M  V30 1547 H 146.993 0.581687 1.47655 0
M  V30 1548 H 147.014 -1.04319 3.6592 0
M  V30 1549 H 146.526 0.775902 3.80265 0
M  V30 1550 H 144.627 -1.64654 3.34245 0
M  V30 1551 H 144.74 -0.41973 4.77258 0
M  V30 1552 H 143.104 -0.319367 2.5269 0
M  V30 1553 H 143.887 1.20383 3.21501 0
M  V30 1554 N 146.332 -1.57332 0.0918853 0
M  V30 1555 C 147.609 -1.85691 -0.614668 0
M  V30 1556 C 147.989 -0.988146 -1.86545 0
M  V30 1557 O 147.337 -0.0597055 -2.28422 0
M  V30 1558 C 147.547 -3.36294 -0.933126 0
M  V30 1559 C 148.895 -4.04275 -1.29796 0
M  V30 1560 O 149.919 -3.41157 -1.02424 0
M  V30 1561 O 148.778 -5.1564 -1.81047 0
M  V30 1562 H 145.872 -0.767802 -0.307261 0
M  V30 1563 H 148.418 -1.69244 0.12434 0
M  V30 1564 H 147.19 -3.91273 -0.0456404 0
M  V30 1565 H 146.813 -3.58076 -1.72822 0
M  V30 1566 N 147.81 0.181792 -1.56548 0
M  V30 1567 C 149.087 0.926765 -1.72251 0
M  V30 1568 C 149.467 2.00831 -0.650386 0
M  V30 1569 O 148.815 2.26008 0.336521 0
M  V30 1570 C 149.025 1.50106 -3.1507 0
M  V30 1571 C 150.373 1.97805 -3.75711 0
M  V30 1572 O 151.397 1.59922 -3.18282 0
M  V30 1573 O 150.256 2.67555 -4.76525 0
M  V30 1574 H 147.35 0.435506 -0.703039 0
M  V30 1575 H 149.896 0.170443 -1.68842 0
M  V30 1576 H 148.668 0.72212 -3.84579 0
M  V30 1577 H 148.291 2.32186 -3.22763 0
M  V30 1578 N 149.288 1.51039 0.449983 0
M  V30 1579 C 150.518 1.66627 1.22143 0
M  V30 1580 C 150.926 0.357776 1.85786 0
M  V30 1581 O 150.269 -0.672424 1.70951 0
M  V30 1582 C 150.331 2.71562 2.35573 0
M  V30 1583 C 149.995 4.14526 1.92399 0
M  V30 1584 C 150.992 4.99717 1.43453 0
M  V30 1585 C 148.677 4.60559 2.00475 0
M  V30 1586 C 150.671 6.28998 1.03155 0
M  V30 1587 C 148.358 5.8984 1.59788 0
M  V30 1588 C 149.356 6.73886 1.11208 0
M  V30 1589 O 149.044 8.0075 0.710935 0
M  V30 1590 H 148.776 0.562635 0.374724 0
M  V30 1591 H 151.33 1.98146 0.541036 0
M  V30 1592 H 149.56 2.3533 3.06849 0
M  V30 1593 H 151.249 2.76156 2.97478 0
M  V30 1594 H 152.015 4.65361 1.36618 0
M  V30 1595 H 147.894 3.95273 2.37235 0
M  V30 1596 H 151.438 6.9455 0.651663 0
M  V30 1597 H 147.335 6.23713 1.66289 0
M  V30 1598 H 148.103 8.142 0.837913 0
M  V30 1599 N 150.766 -0.704594 1.40972 0
M  V30 1600 C 151.996 -1.49138 1.42974 0
M  V30 1601 C 152.404 -1.89175 0.0308406 0
M  V30 1602 O 151.747 -1.56734 -0.958138 0
M  V30 1603 C 151.809 -2.79016 2.26694 0
M  V30 1604 C 151.473 -2.61236 3.74973 0
M  V30 1605 C 152.47 -2.27773 4.67349 0
M  V30 1606 C 150.155 -2.77158 4.18914 0
M  V30 1607 C 152.149 -2.10457 6.01653 0
M  V30 1608 C 149.836 -2.59459 5.53285 0
M  V30 1609 C 150.834 -2.26158 6.4447 0
M  V30 1610 O 150.522 -2.08605 7.76363 0
M  V30 1611 H 150.254 -0.466443 0.489292 0
M  V30 1612 H 152.808 -0.8758 1.85793 0
M  V30 1613 H 151.038 -3.42947 1.78673 0
M  V30 1614 H 152.727 -3.40782 2.20504 0
M  V30 1615 H 153.493 -2.15095 4.34694 0
M  V30 1616 H 149.372 -3.02064 3.48251 0
M  V30 1617 H 152.916 -1.84387 6.72791 0
M  V30 1618 H 148.813 -2.71725 5.85522 0
M  V30 1619 H 149.581 -2.23439 7.87412 0
M  V30 1620 N 152.244 -1.26651 -0.937939 0
M  V30 1621 C 153.207 -1.08546 -2.01867 0
M  V30 1622 C 154.207 -0.0327327 -1.60767 0
M  V30 1623 O 155.397 -0.276427 -1.71993 0
M  V30 1624 C 152.529 -0.651711 -3.34613 0
M  V30 1625 H 153.722 -2.04502 -2.1936 0
M  V30 1626 H 151.275 -1.09294 -1.11734 0
M  V30 1627 H 152.01 0.309696 -3.22818 0
M  V30 1628 H 151.795 -1.41189 -3.65798 0
M  V30 1629 H 153.285 -0.546973 -4.14002 0
M  V30 1630 N 153.722 1.14298 -1.08507 0
M  V30 1631 C 154.97 1.84993 -0.813763 0
M  V30 1632 C 155.291 1.83405 0.662393 0
M  V30 1633 O 154.561 1.28319 1.48024 0
M  V30 1634 H 153.141 0.684966 -0.298045 0
M  V30 1635 H 155.803 1.385 -1.37126 0
M  V30 1636 H 154.899 2.89788 -1.15884 0
M  V30 1637 N 155.201 0.870884 1.31352 0
M  V30 1638 C 156.111 0.330783 2.32256 0
M  V30 1639 C 157.127 -0.559767 1.6475 0
M  V30 1640 O 158.303 -0.456263 1.96164 0
M  V30 1641 C 155.368 -0.458137 3.4366 0
M  V30 1642 C 154.429 0.460482 4.26823 0
M  V30 1643 C 153.662 -0.290881 5.32907 0
M  V30 1644 O 153.885 -1.51885 5.49806 0
M  V30 1645 O 152.819 0.351732 6.00871 0
M  V30 1646 H 156.645 1.16718 2.80376 0
M  V30 1647 H 154.23 0.634285 1.35267 0
M  V30 1648 H 156.112 -0.905343 4.1156 0
M  V30 1649 H 154.787 -1.27106 2.97701 0
M  V30 1650 H 153.694 0.956207 3.61673 0
M  V30 1651 H 155.027 1.23903 4.7635 0
M  V30 1652 N 156.679 -1.44442 0.630414 0
M  V30 1653 C 157.627 -2.32437 -0.0871428 0
M  V30 1654 C 158.621 -1.47304 -0.836525 0
M  V30 1655 O 159.827 -1.63653 -0.749506 0
M  V30 1656 H 156.202 -0.750533 -0.0469495 0
M  V30 1657 H 158.173 -2.90709 0.673096 0
M  V30 1658 C 156.922 -3.31288 -1.05563 0
M  V30 1659 H 156.245 -3.96805 -0.488426 0
M  V30 1660 H 157.685 -3.9554 -1.52721 0
M  V30 1661 C 156.144 -2.6016 -2.14052 0
M  V30 1662 O 156.674 -2.39997 -3.22124 0
M  V30 1663 N 154.88 -2.19911 -1.89967 0
M  V30 1664 H 154.427 -2.36509 -1.02085 0
M  V30 1665 H 154.385 -1.72646 -2.62756 0
M  V30 1666 N 158.157 -0.370918 -1.53173 0
M  V30 1667 C 159.067 0.480823 -2.2962 0
M  V30 1668 C 160.083 1.08789 -1.35798 0
M  V30 1669 O 161.259 1.09768 -1.68858 0
M  V30 1670 C 158.324 1.60227 -3.07454 0
M  V30 1671 C 157.385 1.0222 -4.16953 0
M  V30 1672 C 156.618 2.0902 -4.91066 0
M  V30 1673 O 156.841 3.30222 -4.65091 0
M  V30 1674 O 155.775 1.71778 -5.76867 0
M  V30 1675 H 159.601 -0.141421 -3.03371 0
M  V30 1676 H 157.186 -0.135146 -1.48787 0
M  V30 1677 H 159.068 2.25417 -3.56041 0
M  V30 1678 H 157.743 2.20982 -2.36535 0
M  V30 1679 H 156.65 0.334064 -3.72605 0
M  V30 1680 H 157.983 0.459131 -4.90054 0
M  V30 1681 N 159.635 1.57281 -0.100228 0
M  V30 1682 C 160.545 2.17833 0.870965 0
M  V30 1683 C 161.561 1.14921 1.30649 0
M  V30 1684 O 162.737 1.47313 1.37335 0
M  V30 1685 C 159.802 2.75085 2.1102 0
M  V30 1686 C 158.863 3.9297 1.72838 0
M  V30 1687 C 158.096 4.47482 2.90854 0
M  V30 1688 O 158.319 4.00922 4.05731 0
M  V30 1689 O 157.253 5.38433 2.69023 0
M  V30 1690 H 161.079 3.0124 0.38575 0
M  V30 1691 H 158.664 1.48881 0.124397 0
M  V30 1692 H 160.546 3.11656 2.83634 0
M  V30 1693 H 159.221 1.94721 2.58584 0
M  V30 1694 H 158.128 3.61201 0.973883 0
M  V30 1695 H 159.461 4.74713 1.30033 0
M  V30 1696 N 161.113 -0.173488 1.56642 0
M  V30 1697 C 162.361 -0.888706 1.81512 0
M  V30 1698 C 162.682 -1.82875 0.676872 0
M  V30 1699 O 161.952 -1.93536 -0.303414 0
M  V30 1700 H 160.532 -0.331164 0.669582 0
M  V30 1701 H 163.194 -0.173823 1.94123 0
M  V30 1702 H 162.29 -1.46691 2.75478 0
M  V30 1703 N 162.591 -1.51276 -0.441967 0
M  V30 1704 C 163.501 -1.75092 -1.56141 0
M  V30 1705 C 164.517 -0.634963 -1.62001 0
M  V30 1706 O 165.693 -0.916686 -1.79329 0
M  V30 1707 C 162.758 -1.86666 -2.92158 0
M  V30 1708 C 161.819 -3.10506 -2.96453 0
M  V30 1709 C 161.052 -3.21519 -4.25982 0
M  V30 1710 O 161.275 -2.38586 -5.18105 0
M  V30 1711 O 160.209 -4.14465 -4.36466 0
M  V30 1712 H 164.035 -2.70044 -1.38961 0
M  V30 1713 H 161.62 -1.35722 -0.624499 0
M  V30 1714 H 163.502 -1.96292 -3.72891 0
M  V30 1715 H 162.177 -0.949014 -3.09476 0
M  V30 1716 H 161.084 -3.06363 -2.14692 0
M  V30 1717 H 162.417 -4.01945 -2.84079 0
M  V30 1718 N 164.069 0.697108 -1.41344 0
M  V30 1719 C 164.999 1.82353 -1.45841 0
M  V30 1720 C 165.98 1.67115 -0.317247 0
M  V30 1721 O 167.165 1.86871 -0.528474 0
M  V30 1722 C 164.295 3.20476 -1.33838 0
M  V30 1723 C 163.249 3.50415 -2.4575 0
M  V30 1724 C 162.575 4.87878 -2.18813 0
M  V30 1725 C 163.875 3.49546 -3.88091 0
M  V30 1726 H 165.569 1.78846 -2.40113 0
M  V30 1727 H 163.115 0.859028 -1.15571 0
M  V30 1728 H 165.068 3.98988 -1.35596 0
M  V30 1729 H 163.792 3.24604 -0.360498 0
M  V30 1730 H 162.451 2.74253 -2.43271 0
M  V30 1731 H 162.099 4.8863 -1.19371 0
M  V30 1732 H 161.799 5.08875 -2.93803 0
M  V30 1733 H 163.323 5.68702 -2.22284 0
M  V30 1734 H 164.737 4.18066 -3.92293 0
M  V30 1735 H 163.134 3.82075 -4.62751 0
M  V30 1736 H 164.204 2.48552 -4.16353 0
M  V30 1737 N 165.547 1.27147 0.931209 0
M  V30 1738 C 166.795 1.13055 1.6752 0
M  V30 1739 C 167.116 -0.324791 1.92276 0
M  V30 1740 O 166.386 -1.22775 1.52654 0
M  V30 1741 H 164.966 0.415391 0.620854 0
M  V30 1742 H 167.628 1.59623 1.11833 0
M  V30 1743 H 166.724 1.65694 2.64485 0
M  V30 1744 N 167.025 -1.13721 1.09112 0
M  V30 1745 C 167.972 -2.19031 0.727591 0
M  V30 1746 C 168.942 -1.63555 -0.289656 0
M  V30 1747 O 170.127 -1.90023 -0.172026 0
M  V30 1748 C 167.267 -3.4477 0.15082 0
M  V30 1749 C 166.38 -4.14365 1.22172 0
M  V30 1750 C 165.515 -5.27709 0.608042 0
M  V30 1751 C 164.554 -5.89147 1.66047 0
M  V30 1752 N 163.691 -6.93929 1.06806 0
M  V30 1753 H 168.531 -2.49475 1.62991 0
M  V30 1754 H 166.068 -1.22499 0.81439 0
M  V30 1755 H 168.026 -4.16714 -0.201358 0
M  V30 1756 H 166.656 -3.14787 -0.714783 0
M  V30 1757 H 165.708 -3.40737 1.69122 0
M  V30 1758 H 167.02 -4.56114 2.01895 0
M  V30 1759 H 166.174 -6.06355 0.204523 0
M  V30 1760 H 164.913 -4.872 -0.220769 0
M  V30 1761 H 163.918 -5.09198 2.07357 0
M  V30 1762 H 165.143 -6.31729 2.49189 0
M  V30 1763 H 163.089 -6.55483 0.260476 0
M  V30 1764 H 163.006 -7.34202 1.8023 0
M  V30 1765 H 164.274 -7.76434 0.690644 0
M  V30 1766 N 168.503 -0.877838 -1.30888 0
M  V30 1767 C 169.731 -0.507414 -2.00581 0
M  V30 1768 C 170.146 0.902216 -1.65848 0
M  V30 1769 O 169.503 1.59225 -0.891831 0
M  V30 1770 C 169.554 -0.664162 -3.55347 0
M  V30 1771 O 169.275 -2.01829 -3.8884 0
M  V30 1772 C 170.776 -0.295787 -4.42312 0
M  V30 1773 H 167.996 -0.196866 -0.641471 0
M  V30 1774 H 170.54 -1.18117 -1.66939 0
M  V30 1775 H 168.695 -0.0378619 -3.87381 0
M  V30 1776 H 169.109 -2.03174 -4.8355 0
M  V30 1777 H 170.583 -0.456388 -5.5011 0
M  V30 1778 H 171.06 0.765663 -4.32475 0
M  V30 1779 H 171.666 -0.898113 -4.15709 0
M  V30 1780 N 169.982 1.44106 -0.638065 0
M  V30 1781 C 170.892 2.34513 0.0637334 0
M  V30 1782 C 171.908 1.53018 0.828346 0
M  V30 1783 O 173.084 1.85723 0.779036 0
M  V30 1784 C 170.149 3.31095 1.02844 0
M  V30 1785 C 169.21 4.28497 0.26244 0
M  V30 1786 C 168.443 5.20465 1.1812 0
M  V30 1787 O 168.666 5.16514 2.42011 0
M  V30 1788 O 167.6 5.98251 0.661774 0
M  V30 1789 H 171.426 2.95989 -0.68003 0
M  V30 1790 H 169.011 1.43994 -0.398252 0
M  V30 1791 H 170.893 3.90526 1.58327 0
M  V30 1792 H 169.568 2.72144 1.7527 0
M  V30 1793 H 168.475 3.72592 -0.335602 0
M  V30 1794 H 169.808 4.90388 -0.421936 0
M  V30 1795 N 171.46 0.379036 1.52974 0
M  V30 1796 C 172.7 -0.206325 2.03356 0
M  V30 1797 C 173.064 -1.44892 1.25977 0
M  V30 1798 O 174.265 -2.11078 1.66432 0
M  V30 1799 C 172.536 -0.477887 3.54191 0
M  V30 1800 S 174.095 -1.035 4.26419 0
M  V30 1801 H 170.913 -0.0590259 0.708546 0
M  V30 1802 H 173.515 0.525013 1.88319 0
M  V30 1803 H 172.219 0.433745 4.08101 0
M  V30 1804 H 171.75 -1.23793 3.73415 0
M  V30 1805 H 173.765 -2.31821 4.38718 0
M  V30 1806 N 172.938 -1.57226 0.108567 0
M  V30 1807 C 174.184 -1.95919 -0.546564 0
M  V30 1808 C 174.539 -0.990417 -1.6495 0
M  V30 1809 O 173.832 -0.0186593 -1.91591 0
M  V30 1810 C 174.026 -3.38911 -1.13463 0
M  V30 1811 C 173.855 -4.4961 -0.0901926 0
M  V30 1812 C 172.625 -5.04168 0.338008 0
M  V30 1813 C 174.823 -5.09693 0.686808 0
M  V30 1814 N 172.805 -5.98434 1.36931 0
M  V30 1815 C 174.176 -5.99804 1.56958 0
M  V30 1816 C 176.231 -4.92388 0.738846 0
M  V30 1817 C 174.934 -6.74463 2.49983 0
M  V30 1818 C 176.96 -5.67719 1.65676 0
M  V30 1819 C 176.322 -6.57507 2.52713 0
M  V30 1820 H 172.421 -0.763312 -0.169936 0
M  V30 1821 H 175.005 -1.93728 0.194264 0
M  V30 1822 H 173.176 -3.41769 -1.84522 0
M  V30 1823 H 174.908 -3.64752 -1.75322 0
M  V30 1824 H 171.663 -4.73571 -0.0523673 0
M  V30 1825 H 172.087 -6.5027 1.88356 0
M  V30 1826 H 176.729 -4.22724 0.080084 0
M  V30 1827 H 174.447 -7.4338 3.16878 0
M  V30 1828 H 178.033 -5.56338 1.70233 0
M  V30 1829 H 176.913 -7.14778 3.22586 0
M  V30 1830 N 174.416 0.165178 -1.56732 0
M  V30 1831 C 175.646 0.894919 -1.86212 0
M  V30 1832 C 176.054 1.76066 -0.692627 0
M  V30 1833 O 175.397 1.80387 0.347303 0
M  V30 1834 C 175.459 1.8174 -3.10179 0
M  V30 1835 C 175.123 1.13064 -4.42793 0
M  V30 1836 C 176.12 0.493169 -5.17556 0
M  V30 1837 C 173.805 1.12556 -4.89527 0
M  V30 1838 C 175.799 -0.140209 -6.37246 0
M  V30 1839 C 173.486 0.488366 -6.09145 0
M  V30 1840 C 174.484 -0.143411 -6.82849 0
M  V30 1841 O 174.172 -0.77055 -8.00199 0
M  V30 1842 H 173.904 0.265114 -0.621844 0
M  V30 1843 H 176.458 0.168242 -2.0471 0
M  V30 1844 H 174.688 2.58455 -2.87642 0
M  V30 1845 H 176.377 2.4175 -3.26055 0
M  V30 1846 H 177.143 0.489023 -4.82528 0
M  V30 1847 H 173.022 1.60672 -4.32094 0
M  V30 1848 H 176.566 -0.633932 -6.94714 0
M  V30 1849 H 172.463 0.490116 -6.43637 0
M  V30 1850 H 173.231 -0.670408 -8.1575 0
M  V30 1851 N 175.894 1.51508 0.433938 0
M  V30 1852 C 177.143 1.63578 1.18005 0
M  V30 1853 C 177.456 0.359514 1.92268 0
M  V30 1854 O 178.662 0.359632 2.69108 0
M  V30 1855 C 177.118 2.88901 2.14626 0
M  V30 1856 C 176.726 4.23544 1.45995 0
M  V30 1857 C 178.47 3.10328 2.89649 0
M  V30 1858 C 176.377 5.40014 2.4112 0
M  V30 1859 H 175.307 0.609277 0.444182 0
M  V30 1860 H 177.958 1.77978 0.446773 0
M  V30 1861 H 176.34 2.68142 2.91403 0
M  V30 1862 H 177.514 4.54696 0.747532 0
M  V30 1863 H 175.829 4.08021 0.831115 0
M  V30 1864 H 178.426 3.94518 3.60915 0
M  V30 1865 H 178.769 2.23544 3.51189 0
M  V30 1866 H 179.302 3.31443 2.19978 0
M  V30 1867 H 176.041 6.29068 1.84264 0
M  V30 1868 H 175.561 5.13233 3.10406 0
M  V30 1869 H 177.24 5.72099 3.02177 0
M  V30 1870 N 177.372 -0.689602 1.41712 0
M  V30 1871 C 178.621 -1.44534 1.40686 0
M  V30 1872 C 178.934 -1.95588 0.0213352 0
M  V30 1873 O 180.14 -2.71271 -0.111534 0
M  V30 1874 C 178.596 -2.61387 2.47396 0
M  V30 1875 C 178.204 -2.17094 3.91885 0
M  V30 1876 C 179.948 -3.38986 2.55517 0
M  V30 1877 C 177.855 -3.3094 4.90135 0
M  V30 1878 H 176.785 -0.542925 0.52321 0
M  V30 1879 H 179.436 -0.748054 1.6756 0
M  V30 1880 H 177.818 -3.33412 2.13664 0
M  V30 1881 H 178.992 -1.52318 4.34897 0
M  V30 1882 H 177.307 -1.52473 3.8748 0
M  V30 1883 H 179.904 -4.23747 3.26102 0
M  V30 1884 H 180.247 -3.84578 1.59391 0
M  V30 1885 H 180.78 -2.74021 2.8837 0
M  V30 1886 H 177.519 -2.90355 5.87685 0
M  V30 1887 H 177.039 -3.94546 4.51767 0
M  V30 1888 H 178.718 -3.9663 5.11169 0
M  V30 1889 N 178.85 -1.27639 -0.924453 0
M  V30 1890 C 180.127 -1.04887 -1.651 0
M  V30 1891 C 180.507 0.415327 -2.06974 0
M  V30 1892 O 179.855 1.39923 -1.80648 0
M  V30 1893 C 180.065 -2.01348 -2.85061 0
M  V30 1894 C 181.413 -2.30899 -3.56329 0
M  V30 1895 O 182.437 -1.99348 -2.95193 0
M  V30 1896 O 181.296 -2.84699 -4.66485 0
M  V30 1897 H 178.39 -0.400083 -0.723784 0
M  V30 1898 H 180.936 -1.38916 -0.974703 0
M  V30 1899 H 179.708 -3.0008 -2.51133 0
M  V30 1900 H 179.331 -1.679 -3.6041 0
M  V30 1901 N 180.328 1.1314 -1.09713 0
M  V30 1902 C 181.568 1.8613 -0.844683 0
M  V30 1903 C 181.932 1.81765 0.618491 0
M  V30 1904 O 183.133 2.50024 0.98699 0
M  V30 1905 C 181.404 3.30151 -1.36877 0
M  V30 1906 S 182.963 4.206 -1.25064 0
M  V30 1907 H 179.781 0.642056 -0.305427 0
M  V30 1908 H 182.383 1.36343 -1.4011 0
M  V30 1909 H 181.087 3.30883 -2.42786 0
M  V30 1910 H 180.618 3.85 -0.808614 0
M  V30 1911 H 182.633 4.95783 -0.203486 0
M  V30 1912 N 181.806 0.884767 1.30421 0
M  V30 1913 C 182.753 0.349642 2.28136 0
M  V30 1914 C 183.723 -0.560061 1.56373 0
M  V30 1915 O 184.908 -0.488524 1.8444 0
M  V30 1916 C 182.048 -0.42999 3.42411 0
M  V30 1917 C 181.161 0.508907 4.28992 0
M  V30 1918 C 180.296 -0.286301 5.30428 0
M  V30 1919 C 179.335 0.648079 6.08659 0
M  V30 1920 N 178.472 -0.111792 7.02011 0
M  V30 1921 H 183.312 1.18807 2.73293 0
M  V30 1922 H 180.849 0.597231 1.3443 0
M  V30 1923 H 182.807 -0.897923 4.07423 0
M  V30 1924 H 181.437 -1.23299 2.98324 0
M  V30 1925 H 180.489 1.09533 3.64289 0
M  V30 1926 H 181.801 1.22475 4.8353 0
M  V30 1927 H 180.955 -0.816098 6.01186 0
M  V30 1928 H 179.694 -1.03536 4.76583 0
M  V30 1929 H 178.699 1.18951 5.36778 0
M  V30 1930 H 179.924 1.39623 6.64592 0
M  V30 1931 H 177.87 -0.843395 6.50556 0
M  V30 1932 H 177.787 0.544429 7.54037 0
M  V30 1933 H 179.055 -0.622339 7.77012 0
M  V30 1934 N 183.284 -1.43765 0.645699 0
M  V30 1935 C 184.194 -2.34544 -0.0512957 0
M  V30 1936 C 185.21 -1.53455 -0.82022 0
M  V30 1937 O 186.386 -1.86133 -0.769176 0
M  V30 1938 C 183.451 -3.31636 -1.01087 0
M  V30 1939 C 182.512 -4.2863 -0.239712 0
M  V30 1940 C 181.745 -5.21084 -1.15358 0
M  V30 1941 O 181.968 -5.1779 -2.39269 0
M  V30 1942 O 180.902 -5.98593 -0.630038 0
M  V30 1943 H 184.728 -2.95624 0.695718 0
M  V30 1944 H 182.313 -1.43781 0.405882 0
M  V30 1945 H 184.195 -3.9136 -1.56254 0
M  V30 1946 H 182.87 -2.73069 -1.73824 0
M  V30 1947 H 181.777 -3.72408 0.355356 0
M  V30 1948 H 183.11 -4.90157 0.447936 0
M  V30 1949 N 184.763 -0.387143 -1.52771 0
M  V30 1950 C 185.711 0.463953 -2.27926 0
M  V30 1951 C 186.705 1.06493 -1.31741 0
M  V30 1952 O 187.911 1.00565 -1.49287 0
M  V30 1953 H 184.286 0.16837 -0.732909 0
M  V30 1954 H 186.257 -0.19141 -2.97785 0
M  V30 1955 C 185.006 1.5803 -3.09713 0
M  V30 1956 H 184.329 1.12718 -3.83581 0
M  V30 1957 H 185.769 2.15008 -3.65442 0
M  V30 1958 C 184.228 2.53509 -2.2189 0
M  V30 1959 O 184.758 3.56863 -1.84422 0
M  V30 1960 N 182.964 2.23199 -1.86093 0
M  V30 1961 H 182.511 1.39185 -2.16761 0
M  V30 1962 H 182.469 2.87333 -1.27621 0
M  V30 1963 N 186.241 1.57166 -0.116904 0
M  V30 1964 C 187.204 2.14039 0.819742 0
M  V30 1965 C 188.204 1.07477 1.19605 0
M  V30 1966 O 189.394 1.33263 1.1219 0
M  V30 1967 C 186.526 2.67891 2.10826 0
M  V30 1968 H 187.719 2.98128 0.325511 0
M  V30 1969 H 185.272 1.55739 0.132312 0
M  V30 1970 H 186.007 1.87384 2.64685 0
M  V30 1971 H 185.792 3.45823 1.84793 0
M  V30 1972 H 187.282 3.11809 2.77785 0
M  V30 1973 N 187.719 -0.156864 1.56817 0
M  V30 1974 C 188.629 -1.2136 2.00771 0
M  V30 1975 C 189.645 -1.47598 0.921459 0
M  V30 1976 O 190.821 -1.59462 1.2302 0
M  V30 1977 C 187.886 -2.52943 2.37109 0
M  V30 1978 C 186.947 -2.34439 3.59634 0
M  V30 1979 C 186.18 -3.59748 3.94229 0
M  V30 1980 O 186.403 -4.65526 3.29609 0
M  V30 1981 O 185.337 -3.52998 4.8752 0
M  V30 1982 H 189.163 -0.870468 2.90958 0
M  V30 1983 H 186.748 -0.36484 1.44877 0
M  V30 1984 H 188.63 -3.30538 2.61386 0
M  V30 1985 H 187.305 -2.86806 1.5008 0
M  V30 1986 H 186.212 -1.54828 3.40557 0
M  V30 1987 H 187.545 -2.05496 4.4725 0
M  V30 1988 N 189.197 -1.51736 -0.425897 0
M  V30 1989 C 190.446 -1.64201 -1.17136 0
M  V30 1990 C 190.759 -0.369705 -1.92074 0
M  V30 1991 O 191.965 -0.373898 -2.68913 0
M  V30 1992 C 190.421 -2.90035 -2.13091 0
M  V30 1993 C 190.029 -4.24312 -1.43747 0
M  V30 1994 C 191.773 -3.1186 -2.87999 0
M  V30 1995 C 189.68 -5.41285 -2.38253 0
M  V30 1996 H 188.61 -0.611624 -0.440944 0
M  V30 1997 H 191.261 -1.78212 -0.437328 0
M  V30 1998 H 189.643 -2.69684 -2.89977 0
M  V30 1999 H 190.817 -4.55086 -0.723408 0
M  V30 2000 H 189.132 -4.08456 -0.809465 0
M  V30 2001 H 191.729 -3.96427 -3.58817 0
M  V30 2002 H 192.072 -2.25403 -3.49999 0
M  V30 2003 H 192.605 -3.32605 -2.18217 0
M  V30 2004 H 189.344 -6.30037 -1.80925 0
M  V30 2005 H 188.864 -5.14872 -3.0768 0
M  V30 2006 H 190.543 -5.73694 -2.99139 0
M  V30 2007 N 190.675 0.682077 -1.42076 0
M  V30 2008 C 191.924 1.43786 -1.41451 0
M  V30 2009 C 192.237 1.95574 -0.0317074 0
M  V30 2010 O 193.443 2.71326 0.0971462 0
M  V30 2011 C 191.899 2.60071 -2.48779 0
M  V30 2012 C 191.507 2.15013 -3.93031 0
M  V30 2013 C 193.251 3.37626 -2.57311 0
M  V30 2014 C 191.158 3.28336 -4.91883 0
M  V30 2015 H 190.088 0.540143 -0.526082 0
M  V30 2016 H 192.739 0.739157 -1.67955 0
M  V30 2017 H 191.121 3.32275 -2.15429 0
M  V30 2018 H 192.295 1.5001 -4.35699 0
M  V30 2019 H 190.61 1.50416 -3.88284 0
M  V30 2020 H 193.207 4.22012 -3.28345 0
M  V30 2021 H 193.55 3.83727 -1.61429 0
M  V30 2022 H 194.083 2.72488 -2.89819 0
M  V30 2023 H 190.822 2.87234 -5.89217 0
M  V30 2024 H 190.342 3.92145 -4.53853 0
M  V30 2025 H 192.021 3.93913 -5.13265 0
M  V30 2026 N 192.153 1.28127 0.917671 0
M  V30 2027 C 193.383 1.17722 1.6978 0
M  V30 2028 C 193.791 -0.267261 1.87303 0
M  V30 2029 O 193.134 -1.19286 1.39702 0
M  V30 2030 C 193.196 1.79958 3.11216 0
M  V30 2031 C 192.86 3.29187 3.16993 0
M  V30 2032 C 193.857 4.25679 2.98485 0
M  V30 2033 C 191.542 3.70075 3.39632 0
M  V30 2034 C 193.536 5.61035 3.02521 0
M  V30 2035 C 191.223 5.05557 3.433 0
M  V30 2036 C 192.221 6.00847 3.24764 0
M  V30 2037 O 191.909 7.33859 3.28187 0
M  V30 2038 H 191.641 0.409788 0.537634 0
M  V30 2039 H 194.195 1.69694 1.15728 0
M  V30 2040 H 192.425 1.22475 3.66793 0
M  V30 2041 H 194.114 1.64125 3.71238 0
M  V30 2042 H 194.88 3.95426 2.80826 0
M  V30 2043 H 190.759 2.96373 3.53106 0
M  V30 2044 H 194.303 6.35388 2.87971 0
M  V30 2045 H 190.2 5.35462 3.60486 0
M  V30 2046 H 190.968 7.42436 3.44575 0
M  V30 2047 N 193.631 -1.12557 1.10312 0
M  V30 2048 C 194.879 -1.83675 0.843091 0
M  V30 2049 C 195.2 -1.84435 -0.633131 0
M  V30 2050 O 194.47 -1.30657 -1.45964 0
M  V30 2051 H 193.05 -0.680138 0.308904 0
M  V30 2052 H 195.712 -1.36301 1.39313 0
M  V30 2053 H 194.808 -2.87908 1.2048 0
M  V30 2054 N 195.109 -0.891671 -1.2995 0
M  V30 2055 C 196.059 -0.334811 -2.25528 0
M  V30 2056 C 197.043 0.540553 -1.51548 0
M  V30 2057 O 198.235 0.383882 -1.72787 0
M  V30 2058 C 195.364 0.44374 -3.4042 0
M  V30 2059 C 194.45 -0.44609 -4.21747 0
M  V30 2060 N 194.841 -1.54963 -4.81477 0
M  V30 2061 C 193.139 -0.242415 -4.45341 0
M  V30 2062 C 193.84 -2.10015 -5.42465 0
M  V30 2063 N 192.816 -1.39423 -5.25416 0
M  V30 2064 H 196.618 -1.17792 -2.69262 0
M  V30 2065 H 194.132 -0.741822 -1.44467 0
M  V30 2066 H 196.129 0.859362 -4.07947 0
M  V30 2067 H 194.789 1.28421 -2.98225 0
M  V30 2068 H 195.8 -1.93244 -4.80497 0
M  V30 2069 H 192.477 0.560342 -4.13723 0
M  V30 2070 H 193.867 -3.02724 -5.9984 0
M  V30 2071 N 196.587 1.43421 -0.653314 0
M  V30 2072 C 197.815 2.06163 -0.174491 0
M  V30 2073 C 198.23 1.48969 1.1599 0
M  V30 2074 O 197.587 0.621042 1.71608 0
M  V30 2075 C 197.638 3.61417 -0.0774865 0
M  V30 2076 O 197.359 4.16485 -1.35912 0
M  V30 2077 C 198.86 4.41235 0.427402 0
M  V30 2078 H 196.08 0.664946 -0.0899353 0
M  V30 2079 H 198.624 1.83924 -0.893988 0
M  V30 2080 H 196.779 3.82841 0.59257 0
M  V30 2081 H 197.193 5.10153 -1.21839 0
M  V30 2082 H 198.667 5.5021 0.44423 0
M  V30 2083 H 199.144 4.14268 1.45873 0
M  V30 2084 H 199.75 4.2478 -0.210167 0
M  V30 2085 N 198.065 0.39524 1.52563 0
M  V30 2086 C 199.028 -0.425001 2.25225 0
M  V30 2087 C 200.028 -0.985266 1.27079 0
M  V30 2088 O 201.218 -0.866332 1.5113 0
M  V30 2089 C 198.35 -1.59686 3.01186 0
M  V30 2090 H 199.543 0.211233 2.99155 0
M  V30 2091 H 197.096 0.147472 1.55603 0
M  V30 2092 H 197.831 -2.27035 2.31572 0
M  V30 2093 H 197.616 -1.20176 3.73229 0
M  V30 2094 H 199.106 -2.17743 3.5634 0
M  V30 2095 N 199.544 -1.57102 0.125237 0
M  V30 2096 C 200.96 -1.57915 -0.231322 0
M  V30 2097 C 201.16 -1.13833 -1.66266 0
M  V30 2098 O 200.216 -0.828581 -2.38518 0
M  V30 2099 C 201.529 -3.00699 0.00766489 0
M  V30 2100 C 203.077 -3.12947 -0.0577483 0
M  V30 2101 C 203.552 -4.57742 0.153626 0
M  V30 2102 N 205.043 -4.63092 0.0998073 0
M  V30 2103 C 205.778 -5.72905 0.238174 0
M  V30 2104 N 205.274 -6.91445 0.433057 0
M  V30 2105 N 207.067 -5.6182 0.177308 0
M  V30 2106 H 199.218 -1.84055 1.06007 0
M  V30 2107 H 201.481 -0.850905 0.417929 0
M  V30 2108 H 201.187 -3.3726 0.997431 0
M  V30 2109 H 201.061 -3.70236 -0.721452 0
M  V30 2110 H 203.448 -2.7624 -1.03804 0
M  V30 2111 H 203.529 -2.4594 0.70335 0
M  V30 2112 H 203.173 -4.95149 1.13092 0
M  V30 2113 H 203.103 -5.22848 -0.627534 0
M  V30 2114 H 205.594 -3.77871 -0.047051 0
M  V30 2115 H 205.907 -7.70985 0.529332 0
M  V30 2116 H 204.252 -6.93415 0.469109 0
M  V30 2117 H 207.443 -4.68093 0.0259748 0
M  V30 2118 H 207.616 -6.47357 0.288582 0
M  V30 2119 N 201.022 0.148545 -1.56898 0
M  V30 2120 C 202.247 0.880385 -1.87787 0
M  V30 2121 C 202.672 1.74018 -0.714093 0
M  V30 2122 O 202.03 1.78153 0.336343 0
M  V30 2123 C 202.078 1.71422 -3.17249 0
M  V30 2124 O 201.182 2.8183 -3.01074 0
M  V30 2125 H 200.523 0.245301 -0.617028 0
M  V30 2126 H 203.053 0.139826 -2.04122 0
M  V30 2127 H 203.063 2.10954 -3.49231 0
M  V30 2128 H 201.738 1.08284 -4.01556 0
M  V30 2129 H 200.315 2.45715 -2.80497 0
M  V30 2130 N 202.5 1.5196 0.417844 0
M  V30 2131 C 203.447 1.74678 1.50852 0
M  V30 2132 C 204.417 0.588947 1.55308 0
M  V30 2133 O 205.602 0.825544 1.72016 0
M  V30 2134 C 202.742 1.89544 2.88387 0
M  V30 2135 C 201.855 3.17166 2.93309 0
M  V30 2136 C 200.99 3.22513 4.22088 0
M  V30 2137 C 200.029 4.44372 4.20951 0
M  V30 2138 N 199.166 4.47161 5.41287 0
M  V30 2139 H 204.006 2.67768 1.30783 0
M  V30 2140 H 201.543 1.32689 0.63498 0
M  V30 2141 H 203.501 1.96146 3.68216 0
M  V30 2142 H 202.131 0.998424 3.06971 0
M  V30 2143 H 201.183 3.19778 2.06024 0
M  V30 2144 H 202.495 4.07021 2.88332 0
M  V30 2145 H 201.649 3.28139 5.10303 0
M  V30 2146 H 200.388 2.30581 4.29748 0
M  V30 2147 H 199.393 4.38902 3.31127 0
M  V30 2148 H 200.618 5.3759 4.14938 0
M  V30 2149 H 198.564 3.58108 5.49632 0
M  V30 2150 H 198.481 5.3085 5.3827 0
M  V30 2151 H 199.749 4.57005 6.3148 0
M  V30 2152 N 203.978 -0.674533 1.42435 0
M  V30 2153 C 205.206 -1.46283 1.46317 0
M  V30 2154 C 205.621 -1.88653 0.0745836 0
M  V30 2155 O 204.978 -1.58151 -0.91074 0
M  V30 2156 C 205.029 -2.71178 2.3905 0
M  V30 2157 O 204.75 -2.30586 3.72507 0
M  V30 2158 C 206.251 -3.64738 2.51955 0
M  V30 2159 H 203.471 -0.450104 0.497642 0
M  V30 2160 H 206.015 -0.828792 1.86953 0
M  V30 2161 H 204.17 -3.3077 2.01667 0
M  V30 2162 H 204.584 -3.11241 4.22172 0
M  V30 2163 H 206.058 -4.49096 3.20962 0
M  V30 2164 H 206.535 -4.10656 1.55752 0
M  V30 2165 H 207.141 -3.11038 2.90061 0
M  V30 2166 N 205.456 -1.28612 -0.910864 0
M  V30 2167 C 206.366 -1.14643 -2.0468 0
M  V30 2168 C 207.382 -0.0723121 -1.7385 0
M  V30 2169 O 208.558 -0.282178 -1.99413 0
M  V30 2170 C 205.623 -0.812561 -3.37044 0
M  V30 2171 C 204.684 -1.96935 -3.81465 0
M  V30 2172 C 203.917 -1.65131 -5.07511 0
M  V30 2173 O 204.14 -0.567013 -5.67575 0
M  V30 2174 O 203.074 -2.49585 -5.47714 0
M  V30 2175 H 206.9 -2.1001 -2.19384 0
M  V30 2176 H 204.485 -1.07958 -1.03274 0
M  V30 2177 H 206.367 -0.640441 -4.16505 0
M  V30 2178 H 205.042 0.111426 -3.23508 0
M  V30 2179 H 203.949 -2.19664 -3.02818 0
M  V30 2180 H 205.282 -2.87414 -3.99567 0
M  V30 2181 N 206.934 1.1197 -1.10907 0
M  V30 2182 C 207.864 2.19928 -0.784473 0
M  V30 2183 C 208.845 1.6833 0.244726 0
M  V30 2184 O 210.03 1.93892 0.109418 0
M  V30 2185 C 207.16 3.46597 -0.220827 0
M  V30 2186 C 206.114 4.11376 -1.18127 0
M  V30 2187 C 205.44 5.32554 -0.478594 0
M  V30 2188 C 206.74 4.56945 -2.52979 0
M  V30 2189 H 208.434 2.47337 -1.68715 0
M  V30 2190 H 205.98 1.18879 -0.812642 0
M  V30 2191 H 207.933 4.21396 0.0184278 0
M  V30 2192 H 206.657 3.1863 0.717113 0
M  V30 2193 H 205.316 3.38564 -1.40606 0
M  V30 2194 H 204.964 5.00856 0.463976 0
M  V30 2195 H 204.664 5.76844 -1.11912 0
M  V30 2196 H 206.188 6.10096 -0.248 0
M  V30 2197 H 207.602 5.23093 -2.3462 0
M  V30 2198 H 205.999 5.1203 -3.12962 0
M  V30 2199 H 207.069 3.70676 -3.12614 0
M  V30 2200 N 208.412 0.89855 1.29475 0
M  V30 2201 C 209.658 0.524658 1.95896 0
M  V30 2202 C 209.991 -0.926468 1.70676 0
M  V30 2203 O 209.266 -1.65665 1.01908 0
M  V30 2204 C 209.549 0.81633 3.50725 0
M  V30 2205 C 209.402 2.31907 3.85408 0
M  V30 2206 C 210.721 0.302038 4.39062 0
M  V30 2207 H 207.84 0.19209 0.711527 0
M  V30 2208 H 210.482 1.12502 1.53112 0
M  V30 2209 H 208.632 0.305369 3.87298 0
M  V30 2210 H 210.304 2.89949 3.58786 0
M  V30 2211 H 208.547 2.78027 3.32992 0
M  V30 2212 H 209.218 2.47373 4.93468 0
M  V30 2213 H 211.694 0.739551 4.09475 0
M  V30 2214 H 210.57 0.535331 5.46283 0
M  V30 2215 H 210.831 -0.797216 4.34853 0
M  V30 2216 N 209.89 -1.43072 0.660911 0
M  V30 2217 C 211.118 -2.06067 0.185422 0
M  V30 2218 C 211.533 -1.49582 -1.15198 0
M  V30 2219 O 210.89 -0.630134 -1.71276 0
M  V30 2220 C 210.941 -3.61371 0.0966523 0
M  V30 2221 O 210.662 -4.15758 1.38119 0
M  V30 2222 C 212.163 -4.41455 -0.403996 0
M  V30 2223 H 209.383 -0.664459 0.0934604 0
M  V30 2224 H 211.927 -1.83447 0.90373 0
M  V30 2225 H 210.082 -3.8315 -0.572259 0
M  V30 2226 H 210.496 -5.09499 1.24542 0
M  V30 2227 H 211.97 -5.50437 -0.415045 0
M  V30 2228 H 212.447 -4.15036 -1.43674 0
M  V30 2229 H 213.053 -4.24663 0.232691 0
M  V30 2230 N 211.368 -0.403325 -1.52352 0
M  V30 2231 C 212.301 0.469463 -2.23319 0
M  V30 2232 C 213.279 1.05272 -1.23922 0
M  V30 2233 O 214.463 1.10169 -1.52954 0
M  V30 2234 C 211.59 1.6511 -2.9573 0
M  V30 2235 C 210.636 1.19178 -4.0951 0
M  V30 2236 S 211.469 0.161718 -5.35256 0
M  V30 2237 C 212.625 1.34882 -6.11194 0
M  V30 2238 H 212.858 -0.133134 -2.97002 0
M  V30 2239 H 210.391 -0.187588 -1.53256 0
M  V30 2240 H 212.349 2.3287 -3.38056 0
M  V30 2241 H 211.01 2.22503 -2.21701 0
M  V30 2242 H 210.203 2.07444 -4.59329 0
M  V30 2243 H 209.805 0.592911 -3.6927 0
M  V30 2244 H 212.097 2.27345 -6.38217 0
M  V30 2245 H 213.04 0.89128 -7.02468 0
M  V30 2246 H 213.448 1.57198 -5.42171 0
M  V30 2247 N 212.846 1.57033 -0.133567 0
M  V30 2248 C 214.095 1.94861 0.520768 0
M  V30 2249 C 214.408 1.02012 1.66892 0
M  V30 2250 O 215.614 1.29365 2.38699 0
M  V30 2251 C 214.07 3.46362 0.977809 0
M  V30 2252 C 213.678 4.47773 -0.142674 0
M  V30 2253 C 215.422 3.93083 1.60269 0
M  V30 2254 C 213.329 5.90468 0.331883 0
M  V30 2255 H 212.259 0.727453 0.198315 0
M  V30 2256 H 214.91 1.82227 -0.215759 0
M  V30 2257 H 213.292 3.54282 1.7692 0
M  V30 2258 H 214.466 4.51536 -0.919317 0
M  V30 2259 H 212.781 4.10891 -0.675124 0
M  V30 2260 H 215.378 4.97121 1.96914 0
M  V30 2261 H 215.721 3.33876 2.48662 0
M  V30 2262 H 216.254 3.88025 0.876453 0
M  V30 2263 H 212.993 6.53463 -0.516341 0
M  V30 2264 H 212.513 5.90094 1.07469 0
M  V30 2265 H 214.192 6.42179 0.788332 0
M  V30 2266 N 214.325 -0.140222 1.56975 0
M  V30 2267 C 215.273 -1.19207 1.99731 0
M  V30 2268 C 216.267 -1.44089 0.890777 0
M  V30 2269 O 217.473 -1.44301 1.07597 0
M  V30 2270 H 213.848 -0.40142 0.635898 0
M  V30 2271 H 215.819 -0.804813 2.87342 0
M  V30 2272 C 214.568 -2.51617 2.39967 0
M  V30 2273 H 213.891 -2.33303 3.24669 0
M  V30 2274 H 215.331 -3.23827 2.73701 0
M  V30 2275 C 213.79 -3.12654 1.25496 0
M  V30 2276 O 214.32 -3.97786 0.559371 0
M  V30 2277 N 212.526 -2.72206 1.01746 0
M  V30 2278 H 212.073 -2.03074 1.58489 0
M  V30 2279 H 212.031 -3.13377 0.253461 0
M  V30 2280 N 215.803 -1.52179 -0.40978 0
M  V30 2281 C 217.028 -1.70347 -1.18308 0
M  V30 2282 C 217.453 -0.411887 -1.83535 0
M  V30 2283 O 216.811 0.630587 -1.6998 0
M  V30 2284 C 216.859 -2.83977 -2.22238 0
M  V30 2285 O 215.963 -2.495 -3.28365 0
M  V30 2286 H 215.304 -0.567103 -0.345384 0
M  V30 2287 H 217.834 -1.98879 -0.480445 0
M  V30 2288 H 217.844 -3.0887 -2.66577 0
M  V30 2289 H 216.519 -3.77685 -1.74146 0
M  V30 2290 H 215.096 -2.35277 -2.89308 0
M  V30 2291 N 217.281 0.66697 -1.42791 0
M  V30 2292 C 218.529 1.42417 -1.43394 0
M  V30 2293 C 218.85 1.94925 -0.0542373 0
M  V30 2294 O 218.12 1.73564 0.908415 0
M  V30 2295 H 216.7 0.528515 -0.527902 0
M  V30 2296 H 219.362 0.787562 -1.78279 0
M  V30 2297 H 218.458 2.27333 -2.13837 0
M  V30 2298 N 218.759 1.29093 0.90403 0
M  V30 2299 C 220.036 1.075 1.63411 0
M  V30 2300 C 220.416 -0.382346 2.07609 0
M  V30 2301 O 219.764 -1.37031 1.82851 0
M  V30 2302 C 219.974 2.05858 2.81822 0
M  V30 2303 C 221.322 2.36539 3.52611 0
M  V30 2304 O 222.346 2.04019 2.91984 0
M  V30 2305 O 221.205 2.92085 4.61897 0
M  V30 2306 H 218.299 0.411547 0.717327 0
M  V30 2307 H 220.845 1.40449 0.952479 0
M  V30 2308 H 219.617 3.04037 2.46327 0
M  V30 2309 H 219.24 1.73613 3.57693 0
M  V30 2310 N 220.237 -1.11381 1.11499 0
M  V30 2311 C 221.483 -1.83597 0.875423 0
M  V30 2312 C 221.838 -1.83048 -0.592555 0
M  V30 2313 O 221.131 -1.27304 -1.43193 0
M  V30 2314 C 221.325 -3.30026 1.37177 0
M  V30 2315 C 221.154 -3.44837 2.88647 0
M  V30 2316 C 219.924 -3.57825 3.56776 0
M  V30 2317 C 222.122 -3.3907 3.86699 0
M  V30 2318 N 220.104 -3.61113 4.96458 0
M  V30 2319 C 221.475 -3.48986 5.12454 0
M  V30 2320 C 223.53 -3.22605 3.7925 0
M  V30 2321 C 222.233 -3.44135 6.31636 0
M  V30 2322 C 224.259 -3.19072 4.97943 0
M  V30 2323 C 223.621 -3.29559 6.22551 0
M  V30 2324 H 219.72 -0.687044 0.37349 0
M  V30 2325 H 222.304 -1.33265 1.41946 0
M  V30 2326 H 220.475 -3.78874 0.854919 0
M  V30 2327 H 222.207 -3.90153 1.07529 0
M  V30 2328 H 218.962 -3.60414 3.07244 0
M  V30 2329 H 219.386 -3.66394 5.69284 0
M  V30 2330 H 224.028 -3.13382 2.83816 0
M  V30 2331 H 221.746 -3.52126 7.27347 0
M  V30 2332 H 225.332 -3.07498 4.93899 0
M  V30 2333 H 224.212 -3.26815 7.12855 0
M  V30 2334 N 221.715 -0.905404 -1.28997 0
M  V30 2335 C 222.625 -0.392246 -2.31298 0
M  V30 2336 C 223.641 0.515889 -1.66176 0
M  V30 2337 O 224.817 0.404093 -1.97304 0
M  V30 2338 C 221.882 0.36686 -3.44754 0
M  V30 2339 C 220.943 -0.573485 -4.25452 0
M  V30 2340 C 220.176 0.149488 -5.33491 0
M  V30 2341 O 220.399 1.37255 -5.5364 0
M  V30 2342 O 219.333 -0.510919 -5.99728 0
M  V30 2343 H 223.159 -1.2411 -2.77183 0
M  V30 2344 H 220.744 -0.669926 -1.33538 0
M  V30 2345 H 222.626 0.795907 -4.13816 0
M  V30 2346 H 221.301 1.19169 -3.00966 0
M  V30 2347 H 220.208 -1.05176 -3.59011 0
M  V30 2348 H 221.541 -1.36489 -4.72897 0
M  V30 2349 N 223.193 1.4272 -0.668489 0
M  V30 2350 C 224.441 2.01226 -0.187769 0
M  V30 2351 C 224.762 1.53092 1.2078 0
M  V30 2352 O 224.032 0.74993 1.80977 0
M  V30 2353 H 222.612 0.744041 -0.0664272 0
M  V30 2354 H 225.274 1.74723 -0.863583 0
M  V30 2355 H 224.37 3.11556 -0.184166 0
M  V30 2356 N 224.671 0.411399 1.52136 0
M  V30 2357 C 225.601 -0.404015 2.29978 0
M  V30 2358 C 226.582 -1.04412 1.34284 0
M  V30 2359 O 227.767 -1.0527 1.63192 0
M  V30 2360 C 224.897 -1.5197 3.12286 0
M  V30 2361 C 223.851 -1.00448 4.16046 0
M  V30 2362 C 223.177 -2.21393 4.86712 0
M  V30 2363 C 224.477 -0.0569336 5.22269 0
M  V30 2364 H 226.171 0.245529 2.98392 0
M  V30 2365 H 223.717 0.119525 1.43503 0
M  V30 2366 H 225.67 -2.09715 3.6551 0
M  V30 2367 H 224.394 -2.19716 2.41646 0
M  V30 2368 H 223.053 -0.449421 3.63835 0
M  V30 2369 H 222.701 -2.87699 4.12599 0
M  V30 2370 H 222.401 -1.87571 5.56858 0
M  V30 2371 H 223.925 -2.7974 5.4275 0
M  V30 2372 H 225.339 -0.54325 5.7072 0
M  V30 2373 H 223.736 0.192594 5.99791 0
M  V30 2374 H 224.806 0.887663 4.76706 0
M  V30 2375 N 226.149 -1.5696 0.141893 0
M  V30 2376 C 227.079 -2.19516 -0.795936 0
M  V30 2377 C 228.06 -1.14187 -1.26077 0
M  V30 2378 O 229.245 -1.42511 -1.31925 0
M  V30 2379 C 226.375 -2.81272 -2.03723 0
M  V30 2380 C 225.329 -3.92384 -1.70936 0
M  V30 2381 C 224.655 -4.41052 -3.02287 0
M  V30 2382 C 225.955 -5.13403 -0.959954 0
M  V30 2383 H 227.649 -2.98138 -0.274596 0
M  V30 2384 H 225.195 -1.43406 -0.130636 0
M  V30 2385 H 227.148 -3.237 -2.69808 0
M  V30 2386 H 225.872 -1.99973 -2.58221 0
M  V30 2387 H 224.531 -3.50566 -1.07232 0
M  V30 2388 H 224.179 -3.56582 -3.54765 0
M  V30 2389 H 223.879 -5.15993 -2.81114 0
M  V30 2390 H 225.403 -4.86146 -3.69451 0
M  V30 2391 H 226.817 -5.52706 -1.52279 0
M  V30 2392 H 225.214 -5.94073 -0.848357 0
M  V30 2393 H 226.284 -4.84875 0.0492434 0
M  V30 2394 N 227.627 0.131896 -1.57047 0
M  V30 2395 C 229.043 0.485031 -1.52051 0
M  V30 2396 C 229.243 1.82563 -0.85281 0
M  V30 2397 O 228.299 2.48817 -0.429694 0
M  V30 2398 C 229.612 0.481409 -2.96821 0
M  V30 2399 C 231.16 0.565868 -3.07842 0
M  V30 2400 C 231.635 0.592762 -4.54148 0
M  V30 2401 N 233.126 0.654564 -4.58552 0
M  V30 2402 C 233.861 0.696608 -5.69153 0
M  V30 2403 N 233.357 0.697078 -6.89284 0
M  V30 2404 N 235.15 0.738639 -5.57226 0
M  V30 2405 H 227.301 -0.746664 -1.98843 0
M  V30 2406 H 229.564 -0.273999 -0.90754 0
M  V30 2407 H 229.27 -0.435731 -3.4899 0
M  V30 2408 H 229.144 1.3139 -3.53577 0
M  V30 2409 H 231.531 1.47343 -2.55684 0
M  V30 2410 H 231.612 -0.29406 -2.54104 0
M  V30 2411 H 231.256 -0.310701 -5.06949 0
M  V30 2412 H 231.186 1.46939 -5.05684 0
M  V30 2413 H 233.677 0.660887 -3.72076 0
M  V30 2414 H 233.99 0.731426 -7.69331 0
M  V30 2415 H 232.335 0.66471 -6.91814 0
M  V30 2416 H 235.526 0.735545 -4.62285 0
M  V30 2417 H 235.699 0.767938 -6.43434 0
M  V30 2418 N 229.106 1.52395 0.401703 0
M  V30 2419 C 230.522 1.41363 0.740864 0
M  V30 2420 C 230.722 0.523982 1.94568 0
M  V30 2421 O 229.778 -0.00741204 2.52499 0
M  V30 2422 C 231.091 2.84011 0.987847 0
M  V30 2423 C 232.639 2.93404 1.09011 0
M  V30 2424 C 233.114 4.37036 1.3698 0
M  V30 2425 N 234.605 4.40304 1.43829 0
M  V30 2426 C 235.34 5.48508 1.67112 0
M  V30 2427 N 234.836 6.66819 1.87949 0
M  V30 2428 N 236.629 5.36034 1.69187 0
M  V30 2429 H 228.78 2.08765 -0.391262 0
M  V30 2430 H 231.043 0.941265 -0.112798 0
M  V30 2431 H 230.749 3.51265 0.174835 0
M  V30 2432 H 230.623 3.25502 1.906 0
M  V30 2433 H 233.01 2.26325 1.8937 0
M  V30 2434 H 233.091 2.55359 0.15015 0
M  V30 2435 H 232.735 5.04676 0.571353 0
M  V30 2436 H 232.665 4.72623 2.3224 0
M  V30 2437 H 235.156 3.55024 1.29486 0
M  V30 2438 H 235.469 7.45063 2.05185 0
M  V30 2439 H 233.814 6.6987 1.85199 0
M  V30 2440 H 237.005 4.42579 1.52451 0
M  V30 2441 H 237.178 6.20434 1.86993 0
M  V30 2442 N 230.584 -0.659388 1.43143 0
M  V30 2443 C 231.833 -1.41518 1.43721 0
M  V30 2444 C 232.146 -1.95499 0.0628176 0
M  V30 2445 O 233.352 -2.71446 -0.0539683 0
M  V30 2446 C 231.808 -2.5608 2.52885 0
M  V30 2447 C 231.416 -2.08733 3.96402 0
M  V30 2448 C 233.16 -3.3349 2.62649 0
M  V30 2449 C 231.067 -3.20469 4.97045 0
M  V30 2450 H 229.997 -0.531705 0.534608 0
M  V30 2451 H 232.648 -0.712343 1.69109 0
M  V30 2452 H 231.03 -3.28805 2.20688 0
M  V30 2453 H 232.204 -1.43059 4.3803 0
M  V30 2454 H 230.519 -1.44219 3.90627 0
M  V30 2455 H 233.116 -4.16734 3.35017 0
M  V30 2456 H 233.459 -3.8111 1.67513 0
M  V30 2457 H 233.992 -2.67842 2.94118 0
M  V30 2458 H 230.731 -2.77824 5.93712 0
M  V30 2459 H 230.251 -3.84874 4.60034 0
M  V30 2460 H 231.93 -3.85698 5.19467 0
M  V30 2461 N 232.062 -1.29571 -0.897171 0
M  V30 2462 C 233.009 -1.14916 -2.00158 0
M  V30 2463 C 233.979 -0.0418149 -1.66047 0
M  V30 2464 O 235.164 -0.209793 -1.89643 0
M  V30 2465 C 232.304 -0.834307 -3.34863 0
M  V30 2466 C 231.417 -2.02234 -3.8174 0
M  V30 2467 C 230.552 -1.64664 -5.05034 0
M  V30 2468 C 229.591 -2.80033 -5.44286 0
M  V30 2469 N 228.728 -2.42843 -6.58765 0
M  V30 2470 H 233.568 -2.09403 -2.12025 0
M  V30 2471 H 231.105 -1.042 -1.0383 0
M  V30 2472 H 233.063 -0.632436 -4.12379 0
M  V30 2473 H 231.693 0.0736656 -3.22716 0
M  V30 2474 H 230.745 -2.33583 -3.00238 0
M  V30 2475 H 232.057 -2.88673 -4.06779 0
M  V30 2476 H 231.211 -1.4078 -5.9014 0
M  V30 2477 H 229.95 -0.753766 -4.8184 0
M  V30 2478 H 228.955 -3.04596 -4.57713 0
M  V30 2479 H 230.18 -3.69989 -5.6946 0
M  V30 2480 H 228.126 -1.56046 -6.3717 0
M  V30 2481 H 228.043 -3.22815 -6.83613 0
M  V30 2482 H 229.311 -2.22285 -7.47134 0
M  V30 2483 N 233.54 1.10788 -1.12088 0
M  V30 2484 C 234.789 1.82036 -0.868659 0
M  V30 2485 C 235.102 1.85929 0.607426 0
M  V30 2486 O 236.308 2.53346 0.97613 0
M  V30 2487 C 234.764 3.26951 -1.50435 0
M  V30 2488 C 234.372 3.31367 -3.01496 0
M  V30 2489 C 236.116 4.03053 -1.33225 0
M  V30 2490 C 234.023 4.7072 -3.58017 0
M  V30 2491 H 232.953 0.682108 -0.321318 0
M  V30 2492 H 235.604 1.24618 -1.34694 0
M  V30 2493 H 233.986 3.84343 -0.953735 0
M  V30 2494 H 235.16 2.83819 -3.6302 0
M  V30 2495 H 233.475 2.6875 -3.18061 0
M  V30 2496 H 236.072 5.05981 -1.72878 0
M  V30 2497 H 236.415 4.15387 -0.275529 0
M  V30 2498 H 236.948 3.52066 -1.85188 0
M  V30 2499 H 233.687 4.63585 -4.63432 0
M  V30 2500 H 233.207 5.1865 -3.01268 0
M  V30 2501 H 234.886 5.39685 -3.56859 0
M  V30 2502 N 235.018 0.912232 1.28515 0
M  V30 2503 C 235.965 0.397954 2.27343 0
M  V30 2504 C 236.935 -0.526766 1.57526 0
M  V30 2505 O 238.12 -0.449292 1.85435 0
M  V30 2506 C 235.26 -0.357263 3.43246 0
M  V30 2507 C 234.373 0.599788 4.27816 0
M  V30 2508 C 233.508 -0.173725 5.30916 0
M  V30 2509 C 232.547 0.777039 6.07148 0
M  V30 2510 N 231.684 0.0371398 7.0209 0
M  V30 2511 H 236.524 1.24577 2.70711 0
M  V30 2512 H 234.061 0.625612 1.33133 0
M  V30 2513 H 236.019 -0.8113 4.09236 0
M  V30 2514 H 234.649 -1.16943 3.00872 0
M  V30 2515 H 233.701 1.17235 3.61884 0
M  V30 2516 H 235.013 1.32704 4.80823 0
M  V30 2517 H 234.167 -0.688394 6.02782 0
M  V30 2518 H 232.906 -0.934041 4.78672 0
M  V30 2519 H 231.911 1.3031 5.34134 0
M  V30 2520 H 233.136 1.53689 6.61481 0
M  V30 2521 H 231.082 -0.705213 6.52198 0
M  V30 2522 H 230.999 0.704249 7.52713 0
M  V30 2523 H 232.267 -0.457383 7.78157 0
M  V30 2524 N 236.496 -1.42363 0.676048 0
M  V30 2525 C 237.907 -1.84649 0.275948 0
M  V30 2526 C 238.258 -1.56588 -1.18214 0
M  V30 2527 O 237.383 -1.02634 -1.90513 0
M  V30 2528 C 237.978 -3.35178 0.494053 0
M  V30 2529 C 236.537 -3.76109 0.148061 0
M  V30 2530 C 235.684 -2.65931 0.785891 0
M  V30 2531 H 238.635 -1.32192 0.878121 0
M  V30 2532 H 238.656 -3.79655 -0.25343 0
M  V30 2533 H 238.168 -3.55571 1.55535 0
M  V30 2534 H 236.269 -3.61323 -0.909742 0
M  V30 2535 H 236.382 -4.7546 0.589454 0
M  V30 2536 H 234.746 -2.53773 0.217113 0
M  V30 2537 H 235.529 -2.89146 1.85067 0
M  V30 2538 N 237.974 -0.419461 -1.51915 0
M  V30 2539 C 239.222 0.152637 -2.01523 0
M  V30 2540 C 239.543 1.44762 -1.30649 0
M  V30 2541 O 238.813 1.90997 -0.435535 0
M  V30 2542 H 237.393 0.0593966 -0.744635 0
M  V30 2543 H 240.055 -0.558073 -1.86739 0
M  V30 2544 H 239.151 0.341369 -3.10227 0
M  V30 2545 N 239.452 1.56882 -0.150215 0
M  V30 2546 C 240.729 1.87844 0.545327 0
M  V30 2547 C 241.109 1.0567 1.82749 0
M  V30 2548 O 240.457 0.144442 2.28043 0
M  V30 2549 C 240.667 3.39526 0.80767 0
M  V30 2550 C 242.015 4.08814 1.14703 0
M  V30 2551 O 243.039 3.44723 0.896917 0
M  V30 2552 O 241.898 5.22004 1.61784 0
M  V30 2553 H 238.992 0.778677 0.278553 0
M  V30 2554 H 241.538 1.68666 -0.187068 0
M  V30 2555 H 240.31 3.91173 -0.0996096 0
M  V30 2556 H 239.933 3.64243 1.59413 0
M  V30 2557 N 240.93 -0.123565 1.57115 0
M  V30 2558 C 242.177 -0.832153 1.84612 0
M  V30 2559 C 242.505 -1.80093 0.734627 0
M  V30 2560 O 241.76 -1.93766 -0.27442 0
M  V30 2561 C 242.059 -1.62016 3.18568 0
M  V30 2562 C 241.725 -0.796084 4.43817 0
M  V30 2563 C 240.387 -0.568816 4.77826 0
M  V30 2564 C 242.739 -0.221364 5.2073 0
M  V30 2565 C 240.067 0.243499 5.86194 0
M  V30 2566 C 242.419 0.578117 6.29953 0
M  V30 2567 C 241.083 0.815744 6.62497 0
M  V30 2568 H 240.353 -0.304507 0.675542 0
M  V30 2569 H 243 -0.0947248 1.91266 0
M  V30 2570 H 241.305 -2.42837 3.0747 0
M  V30 2571 H 243.002 -2.17231 3.37064 0
M  V30 2572 H 239.592 -0.983307 4.17168 0
M  V30 2573 H 243.776 -0.384173 4.94811 0
M  V30 2574 H 239.032 0.436871 6.09837 0
M  V30 2575 H 243.206 1.03046 6.88734 0
M  V30 2576 H 240.833 1.44701 7.46301 0
M  V30 2577 N 242.408 -1.52605 -0.393616 0
M  V30 2578 C 243.638 -1.71046 -1.15874 0
M  V30 2579 C 244.046 -0.426483 -1.84331 0
M  V30 2580 O 243.389 0.608513 -1.73329 0
M  V30 2581 C 243.451 -2.80118 -2.25332 0
M  V30 2582 C 243.115 -4.21381 -1.76881 0
M  V30 2583 C 244.112 -5.04697 -1.24808 0
M  V30 2584 C 241.797 -4.67683 -1.83244 0
M  V30 2585 C 243.791 -6.32393 -0.797387 0
M  V30 2586 C 241.478 -5.95364 -1.37787 0
M  V30 2587 C 242.476 -6.77549 -0.861208 0
M  V30 2588 O 242.164 -8.02837 -0.413252 0
M  V30 2589 H 241.896 -0.576155 -0.353583 0
M  V30 2590 H 244.45 -2.00018 -0.467123 0
M  V30 2591 H 242.68 -2.46557 -2.97904 0
M  V30 2592 H 244.369 -2.87006 -2.87023 0
M  V30 2593 H 245.135 -4.70111 -1.19252 0
M  V30 2594 H 241.014 -4.03805 -2.22401 0
M  V30 2595 H 244.558 -6.9649 -0.393437 0
M  V30 2596 H 240.455 -6.29455 -1.43026 0
M  V30 2597 H 241.223 -8.16749 -0.53515 0
M  V30 2598 N 243.887 0.651787 -1.4349 0
M  V30 2599 C 245.117 1.43728 -1.48411 0
M  V30 2600 C 245.525 1.8893 -0.10103 0
M  V30 2601 O 244.868 1.60182 0.899307 0
M  V30 2602 C 244.93 2.70411 -2.36893 0
M  V30 2603 C 244.594 2.4714 -3.8441 0
M  V30 2604 C 245.591 2.10271 -4.75481 0
M  V30 2605 C 243.276 2.6142 -4.28912 0
M  V30 2606 C 245.27 1.87982 -6.0905 0
M  V30 2607 C 242.957 2.38746 -5.62533 0
M  V30 2608 C 243.955 2.02083 -6.5242 0
M  V30 2609 O 243.643 1.79647 -7.8357 0
M  V30 2610 H 243.375 0.447962 -0.506267 0
M  V30 2611 H 245.929 0.80624 -1.88915 0
M  V30 2612 H 244.159 3.36079 -1.91278 0
M  V30 2613 H 245.848 3.32364 -2.33 0
M  V30 2614 H 246.614 1.98814 -4.42378 0
M  V30 2615 H 242.493 2.88931 -3.59222 0
M  V30 2616 H 246.037 1.5929 -6.7917 0
M  V30 2617 H 241.934 2.49806 -5.95203 0
M  V30 2618 H 242.702 1.9406 -7.95162 0
M  V30 2619 N 245.365 1.30045 0.890287 0
M  V30 2620 C 246.611 1.18737 1.64406 0
M  V30 2621 C 246.944 -0.258525 1.92472 0
M  V30 2622 O 246.219 -1.18562 1.54186 0
M  V30 2623 C 246.502 2.01087 2.98724 0
M  V30 2624 C 246.355 3.53867 2.77665 0
M  V30 2625 C 247.674 1.84457 3.9958 0
M  V30 2626 H 244.793 0.432698 0.596608 0
M  V30 2627 H 247.435 1.5962 1.0306 0
M  V30 2628 H 245.585 1.66349 3.51084 0
M  V30 2629 H 247.257 3.98637 2.32133 0
M  V30 2630 H 245.5 3.78318 2.12269 0
M  V30 2631 H 246.171 4.06772 3.7315 0
M  V30 2632 H 248.647 2.14817 3.56361 0
M  V30 2633 H 247.523 2.44411 4.91482 0
M  V30 2634 H 247.784 0.802276 4.3476 0
M  V30 2635 N 246.843 -1.10192 1.12674 0
M  V30 2636 C 248.254 -1.63707 0.897604 0
M  V30 2637 C 248.605 -1.87812 -0.567546 0
M  V30 2638 O 247.73 -1.62196 -1.43253 0
M  V30 2639 C 248.325 -2.974 1.62292 0
M  V30 2640 C 246.884 -3.47772 1.43986 0
M  V30 2641 C 246.031 -2.22332 1.65722 0
M  V30 2642 H 248.982 -0.936587 1.28116 0
M  V30 2643 H 249.003 -3.64986 1.07541 0
M  V30 2644 H 248.515 -2.79824 2.68924 0
M  V30 2645 H 246.616 -3.70487 0.396206 0
M  V30 2646 H 246.729 -4.25723 2.19765 0
M  V30 2647 H 245.093 -2.30599 1.08149 0
M  V30 2648 H 245.876 -2.07285 2.73657 0
M  V30 2649 N 248.321 -0.919034 -1.28029 0
M  V30 2650 C 249.546 -0.570357 -1.99403 0
M  V30 2651 C 249.971 0.842486 -1.68178 0
M  V30 2652 O 249.329 1.56391 -0.917141 0
M  V30 2653 C 249.377 -0.792541 -3.51783 0
M  V30 2654 O 248.481 0.145988 -4.12142 0
M  V30 2655 H 247.822 -0.220555 -0.6263 0
M  V30 2656 H 250.352 -1.23592 -1.63053 0
M  V30 2657 H 250.362 -0.704708 -4.01868 0
M  V30 2658 H 249.037 -1.82247 -3.73844 0
M  V30 2659 H 247.614 0.00897528 -3.72899 0
M  V30 2660 N 249.799 1.42003 -0.683588 0
M  V30 2661 C 251.047 2.01015 -0.209101 0
M  V30 2662 C 251.368 1.54365 1.19149 0
M  V30 2663 O 250.638 0.769083 1.80172 0
M  V30 2664 H 249.218 0.743294 -0.074315 0
M  V30 2665 H 251.88 1.73798 -0.882066 0
M  V30 2666 H 250.976 3.11343 -0.2172 0
M  V30 2667 N 251.277 0.427512 1.51691 0
M  V30 2668 C 252.505 -0.141191 2.06418 0
M  V30 2669 C 252.92 -1.37303 1.29589 0
M  V30 2670 O 252.277 -1.79059 0.352732 0
M  V30 2671 C 252.328 -0.473266 3.58389 0
M  V30 2672 O 252.049 0.709673 4.32314 0
M  V30 2673 C 253.55 -1.09371 4.29596 0
M  V30 2674 H 250.77 -0.0122747 0.670888 0
M  V30 2675 H 253.314 0.603764 1.95384 0
M  V30 2676 H 251.469 -1.16812 3.69369 0
M  V30 2677 H 251.883 0.42807 5.2275 0
M  V30 2678 H 253.357 -1.27613 5.37046 0
M  V30 2679 H 253.834 -2.072 3.87253 0
M  V30 2680 H 254.44 -0.43853 4.23033 0
M  V30 2681 N 252.755 -1.56801 0.158532 0
M  V30 2682 C 253.685 -2.20347 -0.772609 0
M  V30 2683 C 254.666 -1.15518 -1.24859 0
M  V30 2684 O 255.851 -1.43902 -1.30406 0
M  V30 2685 C 252.981 -2.83417 -2.00729 0
M  V30 2686 C 251.935 -3.94174 -1.66765 0
M  V30 2687 C 251.261 -4.44233 -2.97592 0
M  V30 2688 C 252.561 -5.14392 -0.905447 0
M  V30 2689 H 254.255 -2.98413 -0.242959 0
M  V30 2690 H 251.801 -1.43537 -0.115419 0
M  V30 2691 H 253.754 -3.26543 -2.6636 0
M  V30 2692 H 252.478 -2.02701 -2.56086 0
M  V30 2693 H 251.137 -3.51684 -1.03508 0
M  V30 2694 H 250.785 -3.60325 -3.50963 0
M  V30 2695 H 250.485 -5.18945 -2.75626 0
M  V30 2696 H 252.009 -4.90037 -3.64274 0
M  V30 2697 H 253.423 -5.5429 -1.46408 0
M  V30 2698 H 251.82 -5.9494 -0.7853 0
M  V30 2699 H 252.89 -4.84795 0.100668 0
M  V30 2700 N 254.233 0.115231 -1.57178 0
M  V30 2701 C 255.183 1.14707 -1.97044 0
M  V30 2702 C 256.167 1.36866 -0.845957 0
M  V30 2703 O 257.359 1.37895 -1.10968 0
M  V30 2704 C 254.488 2.47266 -2.38148 0
M  V30 2705 C 253.574 2.28566 -3.57237 0
M  V30 2706 N 253.965 1.79685 -4.72807 0
M  V30 2707 C 252.263 2.59208 -3.62943 0
M  V30 2708 C 252.964 1.74781 -5.54821 0
M  V30 2709 N 251.94 2.19264 -4.97417 0
M  V30 2710 H 255.742 0.761754 -2.83857 0
M  V30 2711 H 253.256 0.322928 -1.59157 0
M  V30 2712 H 255.253 3.219 -2.64927 0
M  V30 2713 H 253.913 2.86552 -1.52702 0
M  V30 2714 H 254.924 1.49177 -4.9595 0
M  V30 2715 H 251.601 3.02154 -2.88113 0
M  V30 2716 H 252.991 1.38212 -6.57531 0
M  V30 2717 N 255.711 1.52812 0.385517 0
M  V30 2718 C 256.674 1.77188 1.45386 0
M  V30 2719 C 257.674 0.641953 1.4743 0
M  V30 2720 O 258.864 0.910033 1.4854 0
M  V30 2721 C 255.996 1.87582 2.8465 0
M  V30 2722 H 257.189 2.72583 1.25054 0
M  V30 2723 H 254.742 1.43586 0.617467 0
M  V30 2724 H 255.477 0.941849 3.10322 0
M  V30 2725 H 255.262 2.69748 2.84567 0
M  V30 2726 H 256.752 2.08102 3.62054 0
M  V30 2727 N 257.189 -0.644168 1.43834 0
M  V30 2728 C 258.119 -1.76814 1.52509 0
M  V30 2729 C 259.1 -1.65823 0.379052 0
M  V30 2730 O 260.285 -1.84781 0.597466 0
M  V30 2731 C 257.415 -3.15288 1.4564 0
M  V30 2732 C 256.369 -3.41053 2.58586 0
M  V30 2733 C 255.695 -4.79421 2.36769 0
M  V30 2734 C 256.995 -3.34902 4.00797 0
M  V30 2735 H 258.689 -1.69812 2.46586 0
M  V30 2736 H 256.235 -0.815542 1.1868 0
M  V30 2737 H 258.188 -3.93681 1.50311 0
M  V30 2738 H 256.912 -3.23043 0.480725 0
M  V30 2739 H 255.571 -2.65035 2.53282 0
M  V30 2740 H 255.219 -4.83863 1.37424 0
M  V30 2741 H 254.919 -4.9762 3.12487 0
M  V30 2742 H 256.443 -5.6006 2.43238 0
M  V30 2743 H 257.857 -4.03218 4.07539 0
M  V30 2744 H 256.254 -3.64637 4.76613 0
M  V30 2745 H 257.324 -2.32928 4.25291 0
M  V30 2746 N 258.668 -1.30515 -0.883378 0
M  V30 2747 C 259.908 -1.20716 -1.64946 0
M  V30 2748 C 260.272 0.234072 -1.90568 0
M  V30 2749 O 261.473 0.455335 -2.64915 0
M  V30 2750 C 259.744 -2.01444 -2.9522 0
M  V30 2751 S 261.303 -2.0836 -3.86175 0
M  V30 2752 H 258.121 -0.430165 -0.566109 0
M  V30 2753 H 260.723 -1.65011 -1.04841 0
M  V30 2754 H 259.427 -3.05268 -2.74298 0
M  V30 2755 H 258.958 -1.57817 -3.60357 0
M  V30 2756 H 260.973 -1.21215 -4.81167 0
M  V30 2757 N 260.146 1.09593 -1.13257 0
M  V30 2758 C 261.093 2.1618 -0.808381 0
M  V30 2759 C 262.063 1.64517 0.228754 0
M  V30 2760 O 263.248 1.9053 0.101381 0
M  V30 2761 C 260.388 3.43973 -0.278675 0
M  V30 2762 C 259.501 4.09545 -1.37466 0
M  V30 2763 C 258.636 5.25088 -0.803479 0
M  V30 2764 C 257.675 5.82579 -1.87799 0
M  V30 2765 N 256.812 6.89486 -1.32488 0
M  V30 2766 H 261.652 2.43254 -1.72138 0
M  V30 2767 H 259.189 1.19392 -0.859294 0
M  V30 2768 H 261.147 4.17174 0.0465583 0
M  V30 2769 H 259.777 3.17223 0.597459 0
M  V30 2770 H 258.829 3.34226 -1.81652 0
M  V30 2771 H 260.141 4.48307 -2.18684 0
M  V30 2772 H 259.295 6.05178 -0.429427 0
M  V30 2773 H 258.034 4.87684 0.0397956 0
M  V30 2774 H 257.039 5.01152 -2.26113 0
M  V30 2775 H 258.264 6.22045 -2.72463 0
M  V30 2776 H 256.21 6.54064 -0.503575 0
M  V30 2777 H 256.127 7.27007 -2.07355 0
M  V30 2778 H 257.395 7.73336 -0.978336 0
M  V30 2779 N 261.624 0.925811 1.2754 0
M  V30 2780 C 262.872 0.564138 1.94067 0
M  V30 2781 C 263.193 -0.897188 1.73134 0
M  V30 2782 O 262.463 -1.63573 1.07799 0
M  V30 2783 H 261.043 0.205645 0.718136 0
M  V30 2784 H 263.705 1.1778 1.55287 0
M  V30 2785 H 262.801 0.76881 3.02483 0
M  V30 2786 N 263.102 -1.41638 0.69111 0
M  V30 2787 C 264.065 -2.29178 0.0319786 0
M  V30 2788 C 265.065 -1.44153 -0.712496 0
M  V30 2789 O 266.255 -1.65354 -0.548053 0
M  V30 2790 C 263.387 -3.26952 -0.965161 0
M  V30 2791 H 264.58 -2.88959 0.802681 0
M  V30 2792 H 262.133 -1.4955 0.454356 0
M  V30 2793 H 262.868 -2.72142 -1.76378 0
M  V30 2794 H 262.653 -3.89685 -0.434522 0
M  V30 2795 H 264.143 -3.92561 -1.42428 0
M  V30 2796 N 264.58 -0.43555 -1.51462 0
M  V30 2797 C 265.51 0.367376 -2.30592 0
M  V30 2798 C 266.491 1.02263 -1.35928 0
M  V30 2799 O 267.676 1.02661 -1.64847 0
M  V30 2800 C 264.806 1.46983 -3.14664 0
M  V30 2801 C 263.76 0.938161 -4.17591 0
M  V30 2802 C 263.086 2.13622 -4.90173 0
M  V30 2803 C 264.386 -0.0261621 -5.22293 0
M  V30 2804 H 266.08 -0.292969 -2.97963 0
M  V30 2805 H 263.626 -0.14234 -1.43295 0
M  V30 2806 H 265.579 2.03873 -3.688 0
M  V30 2807 H 264.303 2.15843 -2.4511 0
M  V30 2808 H 262.962 0.391481 -3.64504 0
M  V30 2809 H 262.61 2.81098 -4.17124 0
M  V30 2810 H 262.31 1.78688 -5.59772 0
M  V30 2811 H 263.834 2.7107 -5.47132 0
M  V30 2812 H 265.248 0.452384 -5.71512 0
M  V30 2813 H 263.645 -0.287992 -5.99409 0
M  V30 2814 H 264.715 -0.963391 -4.75233 0
M  V30 2815 N 266.058 1.56714 -0.166846 0
M  V30 2816 C 267.304 1.97039 0.479962 0
M  V30 2817 C 267.637 1.05264 1.63197 0
M  V30 2818 O 266.912 0.0988833 1.94248 0
M  V30 2819 C 267.195 3.46867 0.967212 0
M  V30 2820 C 267.048 4.49421 -0.18466 0
M  V30 2821 C 268.367 3.9968 1.84238 0
M  V30 2822 H 265.486 0.71641 0.172992 0
M  V30 2823 H 268.128 1.8832 -0.252079 0
M  V30 2824 H 266.278 3.54428 1.59101 0
M  V30 2825 H 267.95 4.53924 -0.821621 0
M  V30 2826 H 266.193 4.25573 -0.840837 0
M  V30 2827 H 266.864 5.51644 0.198317 0
M  V30 2828 H 269.34 3.94723 1.31655 0
M  V30 2829 H 268.216 5.04941 2.15234 0
M  V30 2830 H 268.477 3.43226 2.78654 0
M  V30 2831 N 267.536 -0.106894 1.57237 0
M  V30 2832 C 268.466 -1.13148 2.04254 0
M  V30 2833 C 269.447 -1.42476 0.929224 0
M  V30 2834 O 270.632 -1.52709 1.19973 0
M  V30 2835 C 267.762 -2.4545 2.45706 0
M  V30 2836 C 266.716 -2.30558 3.60592 0
M  V30 2837 C 266.042 -3.67931 3.87983 0
M  V30 2838 C 267.342 -1.75597 4.91897 0
M  V30 2839 H 269.036 -0.740374 2.90101 0
M  V30 2840 H 266.582 -0.354696 1.39563 0
M  V30 2841 H 268.535 -3.17389 2.77205 0
M  V30 2842 H 267.259 -2.86475 1.56843 0
M  V30 2843 H 265.918 -1.61067 3.29322 0
M  V30 2844 H 265.566 -4.06462 2.96306 0
M  V30 2845 H 265.266 -3.58817 4.65322 0
M  V30 2846 H 266.79 -4.41356 4.21945 0
M  V30 2847 H 268.204 -2.37364 5.21854 0
M  V30 2848 H 266.601 -1.77272 5.73319 0
M  V30 2849 H 267.671 -0.714451 4.79608 0
M  V30 2850 N 269.014 -1.53014 -0.377408 0
M  V30 2851 C 269.924 -1.81557 -1.48574 0
M  V30 2852 C 270.94 -0.703102 -1.59162 0
M  V30 2853 O 272.116 -0.99192 -1.75279 0
M  V30 2854 C 269.181 -1.9889 -2.83978 0
M  V30 2855 C 268.242 -3.22801 -2.83016 0
M  V30 2856 C 267.475 -3.39298 -4.11962 0
M  V30 2857 O 267.698 -2.60345 -5.0752 0
M  V30 2858 O 266.632 -4.32604 -4.18494 0
M  V30 2859 H 270.458 -2.75695 -1.27382 0
M  V30 2860 H 268.043 -1.38248 -0.566373 0
M  V30 2861 H 269.925 -2.11931 -3.6423 0
M  V30 2862 H 268.6 -1.07942 -3.05172 0
M  V30 2863 H 267.507 -3.15193 -2.01505 0
M  V30 2864 H 268.84 -4.13632 -2.66775 0
M  V30 2865 N 270.492 0.636531 -1.44174 0
M  V30 2866 C 271.72 1.42353 -1.50144 0
M  V30 2867 C 272.135 1.88389 -0.124575 0
M  V30 2868 O 271.492 1.6051 0.868489 0
M  V30 2869 C 271.543 2.64744 -2.46156 0
M  V30 2870 O 271.264 2.20629 -3.7849 0
M  V30 2871 C 272.765 3.57929 -2.61537 0
M  V30 2872 H 269.985 0.436752 -0.5094 0
M  V30 2873 H 272.529 0.778933 -1.89084 0
M  V30 2874 H 270.684 3.25307 -2.10366 0
M  V30 2875 H 271.098 2.99938 -4.30276 0
M  V30 2876 H 272.572 4.40428 -3.32757 0
M  V30 2877 H 273.049 4.06382 -1.66585 0
M  V30 2878 H 273.655 3.03238 -2.98206 0
M  V30 2879 N 271.97 1.30982 0.876444 0
M  V30 2880 C 272.902 1.13902 1.98894 0
M  V30 2881 C 273.915 0.0798815 1.62604 0
M  V30 2882 O 275.104 0.326743 1.75484 0
M  V30 2883 C 272.204 0.716699 3.31235 0
M  V30 2884 C 271.377 1.85945 3.95908 0
M  V30 2885 C 270.436 1.42426 5.06558 0
M  V30 2886 O 269.462 2.13287 5.27729 0
M  V30 2887 N 270.664 0.308025 5.79682 0
M  V30 2888 H 273.429 2.09724 2.14094 0
M  V30 2889 H 270.99 1.2323 1.05004 0
M  V30 2890 H 272.982 0.408403 4.02634 0
M  V30 2891 H 271.552 -0.149719 3.12241 0
M  V30 2892 H 270.772 2.33541 3.17573 0
M  V30 2893 H 272.06 2.62503 4.35855 0
M  V30 2894 H 271.458 -0.282241 5.64995 0
M  V30 2895 H 270.015 0.0592282 6.51773 0
M  V30 2896 N 273.449 -1.08991 1.13837 0
M  V30 2897 C 274.381 -2.15606 0.777612 0
M  V30 2898 C 275.394 -1.61533 -0.202739 0
M  V30 2899 O 276.583 -1.78491 0.0181055 0
M  V30 2900 C 273.683 -3.3864 0.132623 0
M  V30 2901 C 272.856 -4.22115 1.1462 0
M  V30 2902 C 271.915 -5.23564 0.526074 0
M  V30 2903 O 270.941 -5.56678 1.18735 0
M  V30 2904 N 272.143 -5.76266 -0.699866 0
M  V30 2905 H 274.908 -2.47159 1.69506 0
M  V30 2906 H 272.469 -1.24747 1.03198 0
M  V30 2907 H 274.461 -4.03626 -0.29459 0
M  V30 2908 H 273.031 -3.04938 -0.687849 0
M  V30 2909 H 272.251 -3.53199 1.75055 0
M  V30 2910 H 273.539 -4.74709 1.83109 0
M  V30 2911 H 272.937 -5.51585 -1.25581 0
M  V30 2912 H 271.494 -6.42963 -1.06968 0
M  V30 2913 N 274.927 -0.932562 -1.27047 0
M  V30 2914 C 275.875 -0.42603 -2.28665 0
M  V30 2915 C 276.869 0.49219 -1.62092 0
M  V30 2916 O 278.075 0.371355 -1.76128 0
M  V30 2917 H 274.45 -0.119213 -0.742491 0
M  V30 2918 H 276.421 -1.29579 -2.68797 0
M  V30 2919 C 275.17 0.301426 -3.46391 0
M  V30 2920 H 274.493 -0.39595 -3.97834 0
M  V30 2921 H 275.933 0.6202 -4.1944 0
M  V30 2922 C 274.392 1.51616 -3.00856 0
M  V30 2923 O 274.922 2.61476 -3.04948 0
M  V30 2924 N 273.128 1.36969 -2.56296 0
M  V30 2925 H 272.675 0.475873 -2.53166 0
M  V30 2926 H 272.633 2.18368 -2.26192 0
M  V30 2927 N 276.405 1.4127 -0.698611 0
M  V30 2928 C 277.63 2.06024 -0.238512 0
M  V30 2929 C 278.055 1.5224 1.10475 0
M  V30 2930 O 277.413 0.650623 1.69223 0
M  V30 2931 C 277.461 3.59988 -0.209952 0
M  V30 2932 O 276.565 4.04282 0.814235 0
M  V30 2933 H 275.906 0.653829 -0.115775 0
M  V30 2934 H 278.436 1.8098 -0.954326 0
M  V30 2935 H 278.446 4.07979 -0.0418436 0
M  V30 2936 H 277.121 3.98503 -1.1903 0
M  V30 2937 H 275.698 3.6779 0.615234 0
M  V30 2938 N 277.883 0.443576 1.51229 0
M  V30 2939 C 279.16 -0.181038 1.9476 0
M  V30 2940 C 279.54 -1.59523 1.38259 0
M  V30 2941 O 278.888 -2.2122 0.572198 0
M  V30 2942 C 279.098 -0.152422 3.48667 0
M  V30 2943 C 280.446 -0.354923 4.23114 0
M  V30 2944 O 281.47 -0.230257 3.55455 0
M  V30 2945 O 280.329 -0.603674 5.43156 0
M  V30 2946 H 277.423 -0.1266 0.817252 0
M  V30 2947 H 279.969 0.502004 1.62105 0
M  V30 2948 H 278.741 0.836022 3.82265 0
M  V30 2949 H 278.364 -0.878107 3.87782 0
M  V30 2950 N 279.361 -1.56624 0.175154 0
M  V30 2951 C 280.324 -2.16934 -0.739738 0
M  V30 2952 C 281.324 -1.11842 -1.15533 0
M  V30 2953 O 282.514 -1.37335 -1.07167 0
M  V30 2954 C 279.646 -2.75531 -2.00738 0
M  V30 2955 H 280.839 -2.99131 -0.214639 0
M  V30 2956 H 278.392 -1.56123 -0.0744197 0
M  V30 2957 H 279.127 -1.97078 -2.57548 0
M  V30 2958 H 278.912 -3.52444 -1.71831 0
M  V30 2959 H 280.402 -3.21904 -2.66021 0
M  V30 2960 N 280.839 0.0985539 -1.57292 0
M  V30 2961 C 282.067 0.816318 -1.90115 0
M  V30 2962 C 282.482 1.72451 -0.768509 0
M  V30 2963 O 281.839 1.80643 0.259687 0
M  V30 2964 C 281.89 1.63259 -3.22535 0
M  V30 2965 O 281.611 0.760934 -4.31441 0
M  V30 2966 C 283.112 2.45372 -3.69199 0
M  V30 2967 H 280.332 0.233595 -0.629027 0
M  V30 2968 H 282.876 0.0768229 -2.04356 0
M  V30 2969 H 281.031 2.32463 -3.09903 0
M  V30 2970 H 281.445 1.32595 -5.07463 0
M  V30 2971 H 282.919 2.98144 -4.64558 0
M  V30 2972 H 283.396 3.23677 -2.96867 0
M  V30 2973 H 284.002 1.81373 -3.84687 0
M  V30 2974 N 282.317 1.53212 0.369288 0
M  V30 2975 C 283.547 1.72868 1.13139 0
M  V30 2976 C 283.955 0.455754 1.83629 0
M  V30 2977 O 283.298 -0.580861 1.74275 0
M  V30 2978 C 283.36 2.83667 2.20847 0
M  V30 2979 C 283.024 4.24142 1.70155 0
M  V30 2980 C 284.021 5.06619 1.16763 0
M  V30 2981 C 281.706 4.70539 1.7578 0
M  V30 2982 C 283.7 6.33581 0.696678 0
M  V30 2983 C 281.387 5.97481 1.28297 0
M  V30 2984 C 282.385 6.78833 0.753307 0
M  V30 2985 O 282.073 8.03393 0.285475 0
M  V30 2986 H 281.805 0.581707 0.344373 0
M  V30 2987 H 284.359 2.00736 0.435243 0
M  V30 2988 H 282.589 2.51265 2.93944 0
M  V30 2989 H 284.278 2.91536 2.82421 0
M  V30 2990 H 285.044 4.71948 1.11758 0
M  V30 2991 H 280.923 4.07293 2.15949 0
M  V30 2992 H 284.467 6.97027 0.282581 0
M  V30 2993 H 280.364 6.31651 1.32994 0
M  V30 2994 H 281.132 8.17497 0.405145 0
M  V30 2995 N 283.795 -0.628877 1.44509 0
M  V30 2996 C 285.211 -0.947305 1.28446 0
M  V30 2997 C 285.411 -2.00275 0.221872 0
M  V30 2998 O 284.467 -2.49447 -0.391471 0
M  V30 2999 C 285.78 -1.40843 2.65676 0
M  V30 3000 C 287.328 -1.52379 2.73404 0
M  V30 3001 C 287.803 -2.01875 4.11109 0
M  V30 3002 N 289.294 -2.09142 4.13296 0
M  V30 3003 C 290.029 -2.48615 5.16699 0
M  V30 3004 N 289.525 -2.87209 6.30462 0
M  V30 3005 N 291.318 -2.48768 5.04054 0
M  V30 3006 H 283.469 0.0690977 2.12288 0
M  V30 3007 H 285.732 -0.0317164 0.947469 0
M  V30 3008 H 285.438 -0.707206 3.44516 0
M  V30 3009 H 285.312 -2.37902 2.92716 0
M  V30 3010 H 287.699 -2.21598 1.9488 0
M  V30 3011 H 287.78 -0.536898 2.50102 0
M  V30 3012 H 287.424 -1.3325 4.90109 0
M  V30 3013 H 287.354 -3.0144 4.31789 0
M  V30 3014 H 289.845 -1.81991 3.31191 0
M  V30 3015 H 290.158 -3.16149 7.05174 0
M  V30 3016 H 288.503 -2.84955 6.33897 0
M  V30 3017 H 291.694 -2.18009 4.14234 0
M  V30 3018 H 291.867 -2.79207 5.84763 0
M  V30 3019 N 285.273 -1.31445 -0.869486 0
M  V30 3020 C 286.519 -1.21337 -1.62496 0
M  V30 3021 C 286.852 0.227872 -1.92858 0
M  V30 3022 O 286.127 1.16094 -1.56053 0
M  V30 3023 C 286.41 -2.05814 -2.95487 0
M  V30 3024 C 286.263 -3.5824 -2.72 0
M  V30 3025 C 287.582 -1.9079 -3.96594 0
M  V30 3026 H 284.701 -0.442135 -0.589649 0
M  V30 3027 H 287.343 -1.6124 -1.00507 0
M  V30 3028 H 285.493 -1.71913 -3.48394 0
M  V30 3029 H 287.165 -4.0228 -2.25762 0
M  V30 3030 H 285.408 -3.81647 -2.06224 0
M  V30 3031 H 286.079 -4.12657 -3.66631 0
M  V30 3032 H 288.555 -2.20459 -3.52898 0
M  V30 3033 H 287.431 -2.52199 -4.87531 0
M  V30 3034 H 287.692 -0.871341 -4.33428 0
M  V30 3035 N 286.751 1.08385 -1.14413 0
M  V30 3036 C 287.981 1.8425 -0.934644 0
M  V30 3037 C 288.389 1.81907 0.520234 0
M  V30 3038 O 287.732 1.22126 1.37226 0
M  V30 3039 C 287.794 3.32853 -1.35828 0
M  V30 3040 C 287.458 3.5893 -2.82875 0
M  V30 3041 C 288.455 3.53756 -3.80989 0
M  V30 3042 C 286.14 3.86934 -3.20293 0
M  V30 3043 C 288.134 3.76216 -5.14529 0
M  V30 3044 C 285.821 4.09047 -4.54008 0
M  V30 3045 C 286.819 4.03682 -5.50936 0
M  V30 3046 O 286.507 4.25214 -6.82238 0
M  V30 3047 H 286.239 0.588502 -0.332628 0
M  V30 3048 H 288.793 1.37792 -1.52324 0
M  V30 3049 H 287.023 3.8007 -0.713019 0
M  V30 3050 H 288.712 3.90154 -1.11957 0
M  V30 3051 H 289.478 3.32135 -3.53428 0
M  V30 3052 H 285.357 3.9023 -2.45442 0
M  V30 3053 H 288.901 3.71943 -5.90173 0
M  V30 3054 H 284.798 4.30151 -4.8129 0
M  V30 3055 H 285.566 4.42619 -6.88499 0
M  V30 3056 N 288.23 0.939286 1.26551 0
M  V30 3057 C 289.507 0.5038 1.89001 0
M  V30 3058 C 289.887 -1.01854 1.84903 0
M  V30 3059 O 289.235 -1.87773 1.30206 0
M  V30 3060 C 289.445 1.063 3.32417 0
M  V30 3061 C 290.793 1.13051 4.09273 0
M  V30 3062 O 291.817 1.01345 3.41479 0
M  V30 3063 O 290.676 1.31233 5.30509 0
M  V30 3064 H 287.77 0.163897 0.810597 0
M  V30 3065 H 290.316 1.03173 1.34735 0
M  V30 3066 H 289.088 2.10665 3.29752 0
M  V30 3067 H 288.711 0.517408 3.94219 0
M  V30 3068 N 289.708 -1.40897 0.706093 0
M  V30 3069 C 290.938 -2.05075 0.250523 0
M  V30 3070 C 291.346 -1.53275 -1.10921 0
M  V30 3071 O 290.689 -0.680281 -1.7064 0
M  V30 3072 C 290.751 -3.59219 0.142178 0
M  V30 3073 C 290.415 -4.33864 1.43566 0
M  V30 3074 C 291.412 -4.62448 2.37566 0
M  V30 3075 C 289.097 -4.72946 1.69195 0
M  V30 3076 C 291.091 -5.29088 3.5545 0
M  V30 3077 C 288.778 -5.3932 2.87362 0
M  V30 3078 C 289.776 -5.6732 3.80312 0
M  V30 3079 O 289.464 -6.32325 4.96408 0
M  V30 3080 H 289.196 -0.666645 0.112074 0
M  V30 3081 H 291.75 -1.81467 0.962239 0
M  V30 3082 H 289.98 -3.81609 -0.6254 0
M  V30 3083 H 291.669 -4.0495 -0.277584 0
M  V30 3084 H 292.435 -4.32727 2.19027 0
M  V30 3085 H 288.314 -4.50527 0.977042 0
M  V30 3086 H 291.858 -5.50859 4.28018 0
M  V30 3087 H 287.755 -5.68461 3.05814 0
M  V30 3088 H 288.523 -6.50821 4.9636 0
M  V30 3089 N 291.186 -0.45159 -1.50991 0
M  V30 3090 C 292.463 0.170707 -1.94854 0
M  V30 3091 C 292.843 1.58788 -1.39103 0
M  V30 3092 O 292.191 2.20913 -0.583921 0
M  V30 3093 C 292.401 0.133929 -3.48743 0
M  V30 3094 C 293.749 0.33248 -4.23296 0
M  V30 3095 O 294.773 0.211403 -3.55572 0
M  V30 3096 O 293.632 0.57486 -5.43468 0
M  V30 3097 H 290.726 0.122264 -0.817912 0
M  V30 3098 H 293.272 -0.510594 -1.61836 0
M  V30 3099 H 292.044 -0.856283 -3.81816 0
M  V30 3100 H 291.667 0.857529 -3.88242 0
M  V30 3101 N 292.664 1.56529 -0.183458 0
M  V30 3102 C 294.08 1.58664 0.172554 0
M  V30 3103 C 294.28 1.19925 1.61926 0
M  V30 3104 O 293.336 0.916534 2.35278 0
M  V30 3105 C 294.649 3.00463 -0.119262 0
M  V30 3106 C 296.197 3.12945 -0.0584396 0
M  V30 3107 C 296.672 4.56857 -0.323408 0
M  V30 3108 N 298.163 4.62403 -0.271612 0
M  V30 3109 C 298.898 5.71626 -0.450639 0
M  V30 3110 N 298.394 6.89362 -0.689384 0
M  V30 3111 N 300.187 5.60775 -0.385701 0
M  V30 3112 H 292.338 1.79994 -1.12765 0
M  V30 3113 H 294.601 0.834808 -0.449222 0
M  V30 3114 H 294.307 3.33326 -1.12192 0
M  V30 3115 H 294.181 3.72659 0.583544 0
M  V30 3116 H 296.568 2.79902 0.934805 0
M  V30 3117 H 296.649 2.4316 -0.794144 0
M  V30 3118 H 296.293 4.9061 -1.31392 0
M  V30 3119 H 296.223 5.24816 0.43305 0
M  V30 3120 H 298.714 3.77785 -0.0932256 0
M  V30 3121 H 299.027 7.68489 -0.815113 0
M  V30 3122 H 297.372 6.91196 -0.726142 0
M  V30 3123 H 300.563 4.67674 -0.199687 0
M  V30 3124 H 300.736 6.4584 -0.528646 0
M  V30 3125 N 294.142 -0.090211 1.57342 0
M  V30 3126 C 295.072 -1.10976 2.05443 0
M  V30 3127 C 296.053 -1.41482 0.944284 0
M  V30 3128 O 297.238 -1.51428 1.21586 0
M  V30 3129 C 294.368 -2.42831 2.48295 0
M  V30 3130 C 293.322 -2.26721 3.63018 0
M  V30 3131 C 292.648 -3.63796 3.91863 0
M  V30 3132 C 293.948 -1.7037 4.93732 0
M  V30 3133 H 295.642 -0.709564 2.9087 0
M  V30 3134 H 293.188 -0.339874 1.39932 0
M  V30 3135 H 295.141 -3.14431 2.80555 0
M  V30 3136 H 293.865 -2.84795 1.59873 0
M  V30 3137 H 292.524 -1.57565 3.31012 0
M  V30 3138 H 292.172 -4.03297 3.00601 0
M  V30 3139 H 291.872 -3.53861 4.69101 0
M  V30 3140 H 293.396 -4.36855 4.26603 0
M  V30 3141 H 294.81 -2.31816 5.24342 0
M  V30 3142 H 293.207 -1.71181 5.75167 0
M  V30 3143 H 294.277 -0.663542 4.80339 0
M  V30 3144 N 295.62 -1.53406 -0.361157 0
M  V30 3145 C 296.897 -1.60411 -1.11927 0
M  V30 3146 C 297.277 -0.414385 -2.06993 0
M  V30 3147 O 296.625 0.594976 -2.20618 0
M  V30 3148 C 296.835 -2.95652 -1.85448 0
M  V30 3149 C 298.183 -3.50386 -2.39823 0
M  V30 3150 O 299.207 -2.97711 -1.95568 0
M  V30 3151 O 298.066 -4.42482 -3.20737 0
M  V30 3152 H 295.16 -0.64811 -0.513695 0
M  V30 3153 H 297.706 -1.65749 -0.364065 0
M  V30 3154 H 296.478 -3.73682 -1.16091 0
M  V30 3155 H 296.101 -2.93825 -2.67866 0
M  V30 3156 N 297.098 0.621204 -1.44841 0
M  V30 3157 C 298.323 1.41244 -1.51871 0
M  V30 3158 C 298.748 1.87519 -0.147764 0
M  V30 3159 O 298.106 1.59334 0.865 0
M  V30 3160 C 298.154 2.60221 -2.49634 0
M  V30 3161 O 297.258 3.60395 -2.00473 0
M  V30 3162 H 296.599 0.42223 -0.512463 0
M  V30 3163 H 299.129 0.757305 -1.90069 0
M  V30 3164 H 299.139 3.0764 -2.67996 0
M  V30 3165 H 297.814 2.25887 -3.4921 0
M  V30 3166 H 296.391 3.19717 -1.91925 0
M  V30 3167 N 298.576 1.31904 0.862503 0
M  V30 3168 C 299.524 1.20125 1.9918 0
M  V30 3169 C 300.518 0.107824 1.69056 0
M  V30 3170 O 301.724 0.270223 1.7796 0
M  V30 3171 H 298.099 0.372148 0.65346 0
M  V30 3172 H 300.07 2.15652 2.06244 0
M  V30 3173 C 298.819 0.933099 3.34946 0
M  V30 3174 H 298.142 1.76664 3.5865 0
M  V30 3175 H 299.582 0.890892 4.14535 0
M  V30 3176 C 298.041 -0.364172 3.34926 0
M  V30 3177 O 298.571 -1.37858 3.77304 0
M  V30 3178 N 296.777 -0.383362 2.8806 0
M  V30 3179 H 296.324 0.442651 2.53768 0
M  V30 3180 H 296.282 -1.25123 2.8843 0
M  V30 3181 N 300.054 -1.07777 1.14986 0
M  V30 3182 C 301.302 -1.79934 0.920235 0
M  V30 3183 C 301.623 -1.86955 -0.554336 0
M  V30 3184 O 300.893 -1.36731 -1.40291 0
M  V30 3185 H 299.473 -0.666424 0.337473 0
M  V30 3186 H 302.135 -1.3027 1.44968 0
M  V30 3187 H 301.231 -2.82539 1.32583 0
M  V30 3188 N 301.532 -0.945985 -1.26051 0
M  V30 3189 C 302.757 -0.612525 -1.98149 0
M  V30 3190 C 303.182 0.806623 -1.69927 0
M  V30 3191 O 302.54 1.54411 -0.950108 0
M  V30 3192 C 302.588 -0.866981 -3.50023 0
M  V30 3193 O 301.692 0.0585333 -4.12358 0
M  V30 3194 H 301.033 -0.23379 -0.621481 0
M  V30 3195 H 303.563 -1.27023 -1.60395 0
M  V30 3196 H 303.573 -0.789792 -4.00283 0
M  V30 3197 H 302.248 -1.90135 -3.69894 0
M  V30 3198 H 300.825 -0.0701241 -3.72834 0
M  V30 3199 N 303.011 1.40521 -0.713556 0
M  V30 3200 C 304.422 1.83853 -0.324807 0
M  V30 3201 C 304.773 1.59667 1.14021 0
M  V30 3202 O 303.898 1.07649 1.87725 0
M  V30 3203 C 304.493 3.33751 -0.582746 0
M  V30 3204 C 303.052 3.75584 -0.247727 0
M  V30 3205 C 302.199 2.63753 -0.856121 0
M  V30 3206 H 305.15 1.29817 -0.91286 0
M  V30 3207 H 305.171 3.80194 0.152682 0
M  V30 3208 H 304.683 3.51322 -1.64908 0
M  V30 3209 H 302.784 3.63608 0.813624 0
M  V30 3210 H 302.897 4.7373 -0.715307 0
M  V30 3211 H 301.261 2.53108 -0.28432 0
M  V30 3212 H 302.044 2.84137 -1.92668 0
M  V30 3213 N 304.489 0.459591 1.5075 0
M  V30 3214 C 305.905 0.113092 1.59199 0
M  V30 3215 C 306.105 -1.37951 1.46874 0
M  V30 3216 O 305.161 -2.15168 1.32132 0
M  V30 3217 C 306.474 0.653043 2.93523 0
M  V30 3218 C 308.022 0.615449 3.0689 0
M  V30 3219 C 308.497 1.13275 4.43771 0
M  V30 3220 N 309.988 1.09167 4.50152 0
M  V30 3221 C 310.723 1.46256 5.54434 0
M  V30 3222 N 310.219 1.90739 6.66026 0
M  V30 3223 N 312.012 1.37932 5.44914 0
M  V30 3224 H 304.163 1.43049 1.57005 0
M  V30 3225 H 306.426 0.590861 0.741341 0
M  V30 3226 H 306.132 1.69822 3.07983 0
M  V30 3227 H 306.006 0.0902132 3.77092 0
M  V30 3228 H 308.393 -0.420793 2.92084 0
M  V30 3229 H 308.474 1.21495 2.25106 0
M  V30 3230 H 308.118 2.16757 4.59324 0
M  V30 3231 H 308.048 0.509576 5.24129 0
M  V30 3232 H 310.539 0.76528 3.7007 0
M  V30 3233 H 310.852 2.17218 7.41644 0
M  V30 3234 H 309.197 1.94683 6.67176 0
M  V30 3235 H 312.388 1.0303 4.56621 0
M  V30 3236 H 312.561 1.67164 6.26067 0
M  V30 3237 N 305.967 -1.56429 0.191757 0
M  V30 3238 C 306.877 -2.22541 -0.742481 0
M  V30 3239 C 307.893 -1.22342 -1.23727 0
M  V30 3240 O 309.069 -1.55069 -1.28513 0
M  V30 3241 C 306.134 -2.8692 -1.94623 0
M  V30 3242 C 305.195 -4.02378 -1.49633 0
M  V30 3243 C 304.428 -4.63678 -2.6427 0
M  V30 3244 O 304.651 -4.23895 -3.81666 0
M  V30 3245 O 303.585 -5.53202 -2.37174 0
M  V30 3246 H 307.411 -3.02977 -0.209462 0
M  V30 3247 H 304.996 -1.49353 -0.0373832 0
M  V30 3248 H 306.878 -3.27663 -2.64982 0
M  V30 3249 H 305.553 -2.09466 -2.46791 0
M  V30 3250 H 304.46 -3.66265 -0.761636 0
M  V30 3251 H 305.793 -4.81487 -1.02134 0
M  V30 3252 N 307.445 0.0818655 -1.57387 0
M  V30 3253 C 308.375 1.09885 -2.06028 0
M  V30 3254 C 309.356 1.4098 -0.951774 0
M  V30 3255 O 310.541 1.50781 -1.22387 0
M  V30 3256 C 307.671 2.4151 -2.4958 0
M  V30 3257 C 306.625 2.24792 -3.64215 0
M  V30 3258 C 305.951 3.61712 -3.93787 0
M  V30 3259 C 307.251 1.67749 -4.94629 0
M  V30 3260 H 308.945 0.694128 -2.91243 0
M  V30 3261 H 306.491 0.332448 -1.4011 0
M  V30 3262 H 308.444 3.12939 -2.82219 0
M  V30 3263 H 307.168 2.83943 -1.61381 0
M  V30 3264 H 305.827 1.55807 -3.31843 0
M  V30 3265 H 305.475 4.01697 -3.02735 0
M  V30 3266 H 305.175 3.51368 -4.70971 0
M  V30 3267 H 306.699 4.34587 -4.28913 0
M  V30 3268 H 308.113 2.29032 -5.25564 0
M  V30 3269 H 306.51 1.68128 -5.76067 0
M  V30 3270 H 307.58 0.638059 -4.80684 0
M  V30 3271 N 308.923 1.53595 0.353017 0
M  V30 3272 C 309.873 1.77299 1.43349 0
M  V30 3273 C 310.857 0.627884 1.48143 0
M  V30 3274 O 312.049 0.88697 1.53173 0
M  V30 3275 C 309.178 1.97757 2.80619 0
M  V30 3276 C 308.264 3.18305 2.80254 0
M  V30 3277 N 308.655 4.39967 2.49526 0
M  V30 3278 C 306.953 3.19283 3.11407 0
M  V30 3279 C 307.654 5.21772 2.57156 0
M  V30 3280 N 306.63 4.58269 2.92388 0
M  V30 3281 H 310.432 2.68963 1.18474 0
M  V30 3282 H 307.946 1.52391 0.561306 0
M  V30 3283 H 309.943 2.1287 3.58458 0
M  V30 3284 H 308.603 1.07329 3.06448 0
M  V30 3285 H 309.614 4.67482 2.22893 0
M  V30 3286 H 306.291 2.3879 3.4247 0
M  V30 3287 H 307.681 6.2885 2.36638 0
M  V30 3288 N 310.401 -0.613514 1.45168 0
M  V30 3289 C 311.648 -1.37268 1.48875 0
M  V30 3290 C 311.976 -1.94077 0.128161 0
M  V30 3291 O 311.231 -1.75178 -0.872416 0
M  V30 3292 C 311.53 -2.54347 2.51083 0
M  V30 3293 C 311.196 -2.1572 3.95949 0
M  V30 3294 C 309.858 -2.04899 4.35396 0
M  V30 3295 C 312.21 -1.85485 4.87078 0
M  V30 3296 C 309.538 -1.62057 5.63875 0
M  V30 3297 C 311.89 -1.4413 6.15962 0
M  V30 3298 C 310.554 -1.31863 6.54346 0
M  V30 3299 H 309.824 -0.502299 0.544773 0
M  V30 3300 H 312.471 -0.694021 1.78481 0
M  V30 3301 H 310.776 -3.27524 2.15024 0
M  V30 3302 H 312.473 -3.12577 2.51191 0
M  V30 3303 H 309.063 -2.25066 3.64751 0
M  V30 3304 H 313.247 -1.92745 4.57343 0
M  V30 3305 H 308.503 -1.51177 5.92415 0
M  V30 3306 H 312.677 -1.19778 6.86022 0
M  V30 3307 H 310.304 -0.984392 7.538 0
M  V30 3308 N 311.879 -1.3236 -0.855495 0
M  V30 3309 C 312.842 -1.21164 -1.94556 0
M  V30 3310 C 313.842 -0.134908 -1.60233 0
M  V30 3311 O 315.032 -0.385249 -1.69887 0
M  V30 3312 C 312.164 -0.863192 -3.29791 0
M  V30 3313 H 313.357 -2.18038 -2.05911 0
M  V30 3314 H 310.91 -1.16179 -1.04557 0
M  V30 3315 H 311.645 0.103769 -3.24134 0
M  V30 3316 H 311.43 -1.64166 -3.56078 0
M  V30 3317 H 312.92 -0.809156 -4.09686 0
M  V30 3318 N 313.357 1.07166 -1.15556 0
M  V30 3319 C 314.304 2.14417 -0.854055 0
M  V30 3320 C 315.274 1.64965 0.193806 0
M  V30 3321 O 316.459 1.90703 0.0609443 0
M  V30 3322 C 313.599 3.43304 -0.351574 0
M  V30 3323 C 312.712 4.06537 -1.46123 0
M  V30 3324 C 311.847 5.23266 -0.914677 0
M  V30 3325 C 310.886 5.78464 -2.00114 0
M  V30 3326 N 310.023 6.86521 -1.47083 0
M  V30 3327 H 314.863 2.39548 -1.77259 0
M  V30 3328 H 312.4 1.17543 -0.884425 0
M  V30 3329 H 314.358 4.17179 -0.0419409 0
M  V30 3330 H 312.988 3.18419 0.530037 0
M  V30 3331 H 312.04 3.30297 -1.88701 0
M  V30 3332 H 313.352 4.43567 -2.28144 0
M  V30 3333 H 312.506 6.04131 -0.557698 0
M  V30 3334 H 311.245 4.87658 -0.0636583 0
M  V30 3335 H 310.25 4.96243 -2.36692 0
M  V30 3336 H 311.475 6.16126 -2.85597 0
M  V30 3337 H 309.421 6.52849 -0.642198 0
M  V30 3338 H 309.338 7.22446 -2.22729 0
M  V30 3339 H 310.606 7.71087 -1.14215 0
M  V30 3340 N 314.835 0.952656 1.25548 0
M  V30 3341 C 315.798 0.475794 2.24207 0
M  V30 3342 C 316.798 -0.419428 1.55234 0
M  V30 3343 O 317.988 -0.216994 1.72843 0
M  V30 3344 C 315.12 -0.312814 3.39462 0
M  V30 3345 H 316.313 1.34779 2.67908 0
M  V30 3346 H 313.866 0.735739 1.37901 0
M  V30 3347 H 314.601 -1.20257 3.01179 0
M  V30 3348 H 314.386 0.329404 3.90714 0
M  V30 3349 H 315.876 -0.635986 4.12729 0
M  V30 3350 N 316.313 -1.40141 0.720998 0
M  V30 3351 C 317.559 -2.01084 0.263231 0
M  V30 3352 C 317.892 -1.57052 -1.14229 0
M  V30 3353 O 317.167 -0.793027 -1.77599 0
M  V30 3354 C 317.45 -3.58401 0.349344 0
M  V30 3355 C 317.303 -4.12491 1.79363 0
M  V30 3356 C 318.622 -4.39231 -0.276351 0
M  V30 3357 H 315.741 -0.730572 0.0971228 0
M  V30 3358 H 318.383 -1.66543 0.914518 0
M  V30 3359 H 316.533 -3.87958 -0.205165 0
M  V30 3360 H 318.205 -3.93711 2.40394 0
M  V30 3361 H 316.448 -3.66576 2.31958 0
M  V30 3362 H 317.119 -5.21646 1.80524 0
M  V30 3363 H 319.595 -4.15637 0.196184 0
M  V30 3364 H 318.471 -5.48586 -0.185681 0
M  V30 3365 H 318.732 -4.20643 -1.36059 0
M  V30 3366 N 317.792 -0.46758 -1.50504 0
M  V30 3367 C 318.74 0.342482 -2.30065 0
M  V30 3368 C 319.734 0.993596 -1.37201 0
M  V30 3369 O 320.94 0.925102 -1.54408 0
M  V30 3370 H 317.315 0.129283 -0.740803 0
M  V30 3371 H 319.286 -0.34899 -2.96352 0
M  V30 3372 C 318.035 1.4139 -3.17654 0
M  V30 3373 H 317.358 0.922264 -3.89017 0
M  V30 3374 H 318.798 1.95335 -3.76325 0
M  V30 3375 C 317.257 2.4139 -2.35016 0
M  V30 3376 O 317.787 3.46586 -2.03079 0
M  V30 3377 N 315.993 2.13021 -1.97662 0
M  V30 3378 H 315.54 1.27499 -2.23834 0
M  V30 3379 H 315.498 2.80164 -1.42673 0
M  V30 3380 N 319.27 1.56325 -0.20005 0
M  V30 3381 C 320.233 2.18084 0.705132 0
M  V30 3382 C 321.233 1.13666 1.1374 0
M  V30 3383 O 322.423 1.39023 1.04968 0
M  V30 3384 C 319.555 2.78689 1.96329 0
M  V30 3385 H 320.748 2.99435 0.167023 0
M  V30 3386 H 318.301 1.56221 0.0495725 0
M  V30 3387 H 319.036 2.0115 2.5438 0
M  V30 3388 H 318.821 3.55133 1.66202 0
M  V30 3389 H 320.311 3.26096 2.60866 0
M  V30 3390 N 320.748 -0.0735177 1.57428 0
M  V30 3391 C 321.711 -1.07192 2.02589 0
M  V30 3392 C 322.711 -1.31695 0.922661 0
M  V30 3393 O 323.901 -1.27445 1.18758 0
M  V30 3394 C 321.033 -2.41599 2.40506 0
M  V30 3395 H 322.226 -0.682727 2.92025 0
M  V30 3396 H 319.779 -0.319193 1.53006 0
M  V30 3397 H 320.514 -2.85354 1.5409 0
M  V30 3398 H 320.299 -2.25156 3.21009 0
M  V30 3399 H 321.789 -3.13367 2.76027 0
M  V30 3400 N 322.226 -1.5378 -0.344866 0
M  V30 3401 C 323.454 -1.74899 -1.10534 0
M  V30 3402 C 323.869 -0.487534 -1.82397 0
M  V30 3403 O 323.226 0.540741 -1.74305 0
M  V30 3404 C 323.277 -2.92822 -2.11984 0
M  V30 3405 O 322.998 -4.14089 -1.43044 0
M  V30 3406 C 324.499 -3.25982 -3.00417 0
M  V30 3407 H 321.719 -0.584426 -0.329678 0
M  V30 3408 H 324.263 -2.006 -0.397474 0
M  V30 3409 H 322.418 -2.69457 -2.78338 0
M  V30 3410 H 322.832 -4.80272 -2.10805 0
M  V30 3411 H 324.306 -4.11848 -3.67539 0
M  V30 3412 H 324.783 -2.42228 -3.66363 0
M  V30 3413 H 325.389 -3.51349 -2.39654 0
M  V30 3414 N 323.704 0.605807 -1.45491 0
M  V30 3415 C 324.95 1.36679 -1.49823 0
M  V30 3416 C 325.283 1.93693 -0.140175 0
M  V30 3417 O 324.558 1.75158 0.845581 0
M  V30 3418 C 324.841 2.51337 -2.57879 0
M  V30 3419 C 324.694 1.99508 -4.03134 0
M  V30 3420 C 326.013 3.53463 -2.62205 0
M  V30 3421 H 323.132 0.495617 -0.545466 0
M  V30 3422 H 325.774 0.682732 -1.7731 0
M  V30 3423 H 323.924 3.09691 -2.34571 0
M  V30 3424 H 325.596 1.45789 -4.37656 0
M  V30 3425 H 323.839 1.30496 -4.13707 0
M  V30 3426 H 324.51 2.82169 -4.74431 0
M  V30 3427 H 326.986 3.04953 -2.83095 0
M  V30 3428 H 325.862 4.31178 -3.39672 0
M  V30 3429 H 326.123 4.09197 -1.67363 0
M  V30 3430 N 325.182 1.32811 0.848464 0
M  V30 3431 C 326.593 1.21315 1.41914 0
M  V30 3432 C 326.944 -0.171847 1.95446 0
M  V30 3433 O 326.069 -1.07093 1.88043 0
M  V30 3434 C 326.664 2.19631 2.57968 0
M  V30 3435 C 325.223 2.12003 3.11017 0
M  V30 3436 C 324.37 2.07651 1.83783 0
M  V30 3437 H 327.321 1.44549 0.655071 0
M  V30 3438 H 327.342 1.79845 3.35315 0
M  V30 3439 H 326.854 3.20423 2.18976 0
M  V30 3440 H 324.955 1.14481 3.54577 0
M  V30 3441 H 325.068 3.02111 3.71841 0
M  V30 3442 H 323.432 1.52983 2.03638 0
M  V30 3443 H 324.215 3.10235 1.47 0
M  V30 3444 N 326.66 -1.06551 1.16123 0
M  V30 3445 C 327.61 -2.12209 0.833736 0
M  V30 3446 C 328.594 -1.59825 -0.185656 0
M  V30 3447 O 329.786 -1.76994 0.0147906 0
M  V30 3448 C 326.915 -3.41674 0.333697 0
M  V30 3449 C 326.001 -4.00892 1.38372 0
M  V30 3450 N 326.392 -4.34256 2.59337 0
M  V30 3451 C 324.69 -4.28463 1.23836 0
M  V30 3452 C 325.391 -4.81291 3.26701 0
M  V30 3453 N 324.367 -4.80565 2.54083 0
M  V30 3454 H 328.169 -2.35849 1.75364 0
M  V30 3455 H 325.683 -1.24068 1.04789 0
M  V30 3456 H 327.68 -4.16822 0.0806918 0
M  V30 3457 H 326.34 -3.19475 -0.58017 0
M  V30 3458 H 327.351 -4.24687 2.96415 0
M  V30 3459 H 324.028 -4.15721 0.38504 0
M  V30 3460 H 325.418 -5.16332 4.29943 0
M  V30 3461 N 328.138 -0.959301 -1.25041 0
M  V30 3462 C 329.384 -0.617525 -1.9317 0
M  V30 3463 C 329.717 0.843981 -1.74902 0
M  V30 3464 O 328.992 1.60615 -1.09696 0
M  V30 3465 C 329.275 -0.982736 -3.46431 0
M  V30 3466 C 329.128 -2.50032 -3.73904 0
M  V30 3467 C 330.447 -0.511176 -4.37121 0
M  V30 3468 H 327.566 -0.22582 -0.701552 0
M  V30 3469 H 330.208 -1.19679 -1.4757 0
M  V30 3470 H 328.358 -0.489806 -3.854 0
M  V30 3471 H 330.03 -3.06737 -3.44544 0
M  V30 3472 H 328.273 -2.93598 -3.19348 0
M  V30 3473 H 328.944 -2.70635 -4.81103 0
M  V30 3474 H 331.42 -0.934075 -4.0548 0
M  V30 3475 H 330.296 -0.795361 -5.43107 0
M  V30 3476 H 330.557 0.588834 -4.38161 0
M  V30 3477 N 329.616 1.39756 -0.72842 0
M  V30 3478 C 330.893 1.94574 -0.200079 0
M  V30 3479 C 331.273 1.66569 1.29684 0
M  V30 3480 O 330.621 0.990326 2.05924 0
M  V30 3481 C 330.831 3.45004 -0.526608 0
M  V30 3482 C 332.179 4.21965 -0.472318 0
M  V30 3483 O 333.203 3.53173 -0.463413 0
M  V30 3484 O 332.062 5.44552 -0.461075 0
M  V30 3485 H 329.156 0.826289 -0.0342851 0
M  V30 3486 H 331.702 1.49293 -0.806829 0
M  V30 3487 H 330.474 3.58796 -1.56144 0
M  V30 3488 H 330.097 3.97449 0.109449 0
M  V30 3489 N 331.094 0.475555 1.50254 0
M  V30 3490 C 332.342 -0.077738 2.0195 0
M  V30 3491 C 332.663 -1.39813 1.35931 0
M  V30 3492 O 331.933 -1.89249 0.506123 0
M  V30 3493 H 330.513 -0.031719 0.746326 0
M  V30 3494 H 333.175 0.626995 1.84539 0
M  V30 3495 H 332.271 -0.225995 3.11281 0
M  V30 3496 N 332.573 -1.56217 0.208337 0
M  V30 3497 C 333.803 -2.02043 -0.431523 0
M  V30 3498 C 334.211 -1.08755 -1.54819 0
M  V30 3499 O 333.554 -0.0870009 -1.83494 0
M  V30 3500 C 333.616 -3.44239 -1.03633 0
M  V30 3501 C 333.28 -4.56965 -0.0567502 0
M  V30 3502 C 334.277 -5.14624 0.738773 0
M  V30 3503 C 331.962 -5.02266 0.0581736 0
M  V30 3504 C 333.956 -6.16045 1.63605 0
M  V30 3505 C 331.643 -6.03528 0.959001 0
M  V30 3506 C 332.641 -6.60293 1.7465 0
M  V30 3507 O 332.329 -7.59586 2.6322 0
M  V30 3508 H 332.061 -0.666772 -0.111313 0
M  V30 3509 H 334.615 -2.02919 0.318277 0
M  V30 3510 H 332.845 -3.40391 -1.83497 0
M  V30 3511 H 334.534 -3.73793 -1.58221 0
M  V30 3512 H 335.3 -4.80483 0.660364 0
M  V30 3513 H 331.179 -4.57771 -0.544633 0
M  V30 3514 H 334.723 -6.60279 2.25116 0
M  V30 3515 H 330.62 -6.37092 1.03848 0
M  V30 3516 H 331.388 -7.77057 2.57148 0
M  V30 3517 N 334.051 0.0651679 -1.57465 0
M  V30 3518 C 335.3 0.761916 -1.86756 0
M  V30 3519 C 335.613 1.78406 -0.801925 0
M  V30 3520 O 336.819 2.53084 -0.982885 0
M  V30 3521 C 335.275 1.40603 -3.31299 0
M  V30 3522 C 334.883 0.422115 -4.46007 0
M  V30 3523 C 336.627 2.08476 -3.69781 0
M  V30 3524 C 334.534 1.07252 -5.81593 0
M  V30 3525 H 333.464 0.288308 -0.696702 0
M  V30 3526 H 336.115 0.015344 -1.83494 0
M  V30 3527 H 334.497 2.20109 -3.29193 0
M  V30 3528 H 335.671 -0.343613 -4.59517 0
M  V30 3529 H 333.986 -0.152527 -4.16121 0
M  V30 3530 H 336.583 2.57925 -4.68379 0
M  V30 3531 H 336.926 2.88712 -2.99919 0
M  V30 3532 H 337.459 1.35792 -3.73905 0
M  V30 3533 H 334.198 0.310342 -6.54765 0
M  V30 3534 H 333.718 1.80895 -5.71872 0
M  V30 3535 H 335.397 1.59043 -6.27148 0
M  V30 3536 N 335.529 1.53961 0.336706 0
M  V30 3537 C 336.806 1.62171 1.09361 0
M  V30 3538 C 337.186 0.447263 2.06307 0
M  V30 3539 O 336.534 -0.559802 2.21537 0
M  V30 3540 C 336.744 2.98565 1.80721 0
M  V30 3541 C 338.092 3.54157 2.34218 0
M  V30 3542 O 339.116 3.00784 1.90807 0
M  V30 3543 O 337.975 4.47528 3.13657 0
M  V30 3544 H 335.069 0.6562 0.503319 0
M  V30 3545 H 337.615 1.66307 0.33765 0
M  V30 3546 H 336.387 3.75482 1.10132 0
M  V30 3547 H 336.01 2.9805 2.63158 0
M  V30 3548 N 337.007 -0.598083 1.45811 0
M  V30 3549 C 337.917 -1.73632 1.57763 0
M  V30 3550 C 338.933 -1.67763 0.461676 0
M  V30 3551 O 340.109 -1.87949 0.723685 0
M  V30 3552 C 337.174 -3.10114 1.55018 0
M  V30 3553 C 336.235 -3.27364 2.77726 0
M  V30 3554 C 335.468 -4.57334 2.75102 0
M  V30 3555 O 335.691 -5.40258 1.8297 0
M  V30 3556 O 334.625 -4.77502 3.66437 0
M  V30 3557 H 338.451 -1.66498 2.53992 0
M  V30 3558 H 336.036 -0.763308 1.28429 0
M  V30 3559 H 337.918 -3.9141 1.56129 0
M  V30 3560 H 336.593 -3.17718 0.619431 0
M  V30 3561 H 335.5 -2.45619 2.82174 0
M  V30 3562 H 336.833 -3.24641 3.69958 0
M  V30 3563 N 338.485 -1.33259 -0.841409 0
M  V30 3564 C 339.71 -1.2775 -1.63385 0
M  V30 3565 C 340.135 0.149188 -1.87507 0
M  V30 3566 O 339.493 1.10498 -1.43736 0
M  V30 3567 C 339.541 -2.05571 -2.96265 0
M  V30 3568 O 338.645 -1.41257 -3.87453 0
M  V30 3569 H 337.986 -0.439627 -0.497618 0
M  V30 3570 H 340.516 -1.75782 -1.04699 0
M  V30 3571 H 340.526 -2.16241 -3.45982 0
M  V30 3572 H 339.201 -3.09309 -2.7803 0
M  V30 3573 H 337.778 -1.39217 -3.45938 0
M  V30 3574 N 339.963 1.05934 -1.16686 0
M  V30 3575 C 341.191 1.8249 -0.974929 0
M  V30 3576 C 341.606 1.82679 0.476861 0
M  V30 3577 O 340.963 1.2486 1.33103 0
M  V30 3578 C 341.014 3.28943 -1.49929 0
M  V30 3579 O 340.735 3.28886 -2.89423 0
M  V30 3580 C 342.236 4.22215 -1.35089 0
M  V30 3581 H 339.456 0.575295 -0.345365 0
M  V30 3582 H 342 1.33631 -1.548 0
M  V30 3583 H 340.155 3.751 -0.968423 0
M  V30 3584 H 340.569 4.20493 -3.13506 0
M  V30 3585 H 342.043 5.22987 -1.76603 0
M  V30 3586 H 342.52 4.38195 -0.296935 0
M  V30 3587 H 343.126 3.81907 -1.87155 0
M  V30 3588 N 341.441 0.965919 1.2453 0
M  V30 3589 C 342.351 0.502154 2.29163 0
M  V30 3590 C 343.367 -0.436017 1.68448 0
M  V30 3591 O 344.543 -0.309497 1.99008 0
M  V30 3592 C 341.608 -0.201956 3.46111 0
M  V30 3593 C 340.669 0.775821 4.22232 0
M  V30 3594 C 339.902 0.105217 5.33596 0
M  V30 3595 O 340.125 -1.10683 5.59558 0
M  V30 3596 O 339.059 0.796475 5.96607 0
M  V30 3597 H 342.885 1.37194 2.70946 0
M  V30 3598 H 340.47 0.732875 1.30189 0
M  V30 3599 H 342.352 -0.597564 4.17142 0
M  V30 3600 H 341.027 -1.04673 3.06309 0
M  V30 3601 H 339.934 1.22185 3.53584 0
M  V30 3602 H 341.267 1.58896 4.65846 0
M  V30 3603 N 342.919 -1.39368 0.735821 0
M  V30 3604 C 344.144 -2.05319 0.293052 0
M  V30 3605 C 344.569 -1.55115 -1.064 0
M  V30 3606 O 343.927 -0.695261 -1.67439 0
M  V30 3607 C 343.975 -3.59305 0.305323 0
M  V30 3608 O 343.079 -4.06299 -0.706761 0
M  V30 3609 H 342.42 -0.650529 0.13307 0
M  V30 3610 H 344.95 -1.78386 1.00197 0
M  V30 3611 H 344.96 -4.07724 0.149997 0
M  V30 3612 H 343.635 -3.95207 1.29553 0
M  V30 3613 H 342.212 -3.69292 -0.517504 0
M  V30 3614 N 344.397 -0.483516 -1.5 0
M  V30 3615 C 345.813 -0.138404 -1.58999 0
M  V30 3616 C 346.013 1.35597 -1.4905 0
M  V30 3617 O 345.069 2.13039 -1.35539 0
M  V30 3618 C 346.382 -0.699658 -2.92447 0
M  V30 3619 C 347.93 -0.664195 -3.05872 0
M  V30 3620 C 348.405 -1.20321 -4.41913 0
M  V30 3621 N 349.896 -1.16315 -4.48358 0
M  V30 3622 C 350.631 -1.55058 -5.52037 0
M  V30 3623 N 350.127 -2.01311 -6.62907 0
M  V30 3624 N 351.92 -1.46584 -5.42651 0
M  V30 3625 H 344.071 -1.45529 -1.5471 0
M  V30 3626 H 346.334 -0.60258 -0.731848 0
M  V30 3627 H 346.04 -1.747 -3.05242 0
M  V30 3628 H 345.914 -0.150194 -3.76901 0
M  V30 3629 H 348.301 0.374272 -2.92717 0
M  V30 3630 H 348.382 -1.25061 -2.23144 0
M  V30 3631 H 348.026 -2.24037 -4.55818 0
M  V30 3632 H 347.956 -0.592896 -5.23252 0
M  V30 3633 H 350.447 -0.824058 -3.68806 0
M  V30 3634 H 350.76 -2.2899 -7.38095 0
M  V30 3635 H 349.105 -2.05273 -6.63994 0
M  V30 3636 H 352.296 -1.10281 -4.54924 0
M  V30 3637 H 352.469 -1.77103 -6.23329 0
M  V30 3638 N 345.875 1.56104 -0.216619 0
M  V30 3639 C 346.822 2.2007 0.695531 0
M  V30 3640 C 347.792 1.15471 1.19397 0
M  V30 3641 O 348.977 1.43807 1.25396 0
M  V30 3642 C 346.117 2.88073 1.90021 0
M  V30 3643 C 345.23 4.07253 1.44113 0
M  V30 3644 C 344.365 4.63052 2.603 0
M  V30 3645 C 343.404 5.74545 2.11103 0
M  V30 3646 N 342.541 6.24656 3.20545 0
M  V30 3647 H 347.381 2.97655 0.143327 0
M  V30 3648 H 344.918 1.46982 0.0589934 0
M  V30 3649 H 346.876 3.25681 2.60745 0
M  V30 3650 H 345.506 2.13015 2.42538 0
M  V30 3651 H 344.558 3.75164 0.628999 0
M  V30 3652 H 345.87 4.8783 1.04036 0
M  V30 3653 H 345.024 5.03078 3.39113 0
M  V30 3654 H 343.763 3.81628 3.03663 0
M  V30 3655 H 342.768 5.34027 1.3075 0
M  V30 3656 H 343.993 6.57801 1.68746 0
M  V30 3657 H 341.939 5.46148 3.63399 0
M  V30 3658 H 341.856 7.00343 2.84704 0
M  V30 3659 H 343.124 6.69338 3.99508 0
M  V30 3660 N 347.353 -0.0568162 1.57498 0
M  V30 3661 C 348.601 -0.751617 1.87604 0
M  V30 3662 C 348.922 -1.77351 0.81066 0
M  V30 3663 O 348.192 -1.95254 -0.159018 0
M  V30 3664 H 346.772 -0.280583 0.692302 0
M  V30 3665 H 349.434 -0.0293483 1.94878 0
M  V30 3666 H 348.53 -1.25852 2.856 0
M  V30 3667 N 348.832 -1.54138 -0.328536 0
M  V30 3668 C 350.081 -1.71318 -1.06456 0
M  V30 3669 C 350.394 -0.491109 -1.89334 0
M  V30 3670 O 351.6 -0.54416 -2.65991 0
M  V30 3671 C 350.056 -3.03 -1.94214 0
M  V30 3672 C 349.664 -4.32595 -1.16471 0
M  V30 3673 C 351.408 -3.29544 -2.67583 0
M  V30 3674 C 349.315 -5.55341 -2.03347 0
M  V30 3675 H 348.245 -0.638429 -0.401155 0
M  V30 3676 H 350.896 -1.80633 -0.323106 0
M  V30 3677 H 349.278 -2.87579 -2.72239 0
M  V30 3678 H 350.452 -4.58766 -0.432525 0
M  V30 3679 H 348.767 -4.12777 -0.548063 0
M  V30 3680 H 351.364 -4.18444 -3.3288 0
M  V30 3681 H 351.707 -2.47206 -3.34955 0
M  V30 3682 H 352.24 -3.45809 -1.96623 0
M  V30 3683 H 348.979 -6.40268 -1.40491 0
M  V30 3684 H 348.499 -5.33397 -2.74313 0
M  V30 3685 H 350.178 -5.91557 -2.62049 0
M  V30 3686 N 350.31 0.590341 -1.46126 0
M  V30 3687 C 351.538 1.37504 -1.54597 0
M  V30 3688 C 351.953 1.87897 -0.184447 0
M  V30 3689 O 351.31 1.63192 0.816984 0
M  V30 3690 C 351.361 2.56779 -2.54454 0
M  V30 3691 O 351.082 2.08476 -3.85317 0
M  V30 3692 C 352.583 3.49427 -2.72792 0
M  V30 3693 H 349.803 0.420325 -0.523037 0
M  V30 3694 H 352.347 0.718383 -1.91467 0
M  V30 3695 H 350.502 3.1845 -2.20609 0
M  V30 3696 H 350.916 2.86097 -4.396 0
M  V30 3697 H 352.39 4.29619 -3.466 0
M  V30 3698 H 352.867 4.00876 -1.79429 0
M  V30 3699 H 353.473 2.93598 -3.07702 0
M  V30 3700 N 351.788 1.33704 0.83433 0
M  V30 3701 C 353.037 1.24763 1.58484 0
M  V30 3702 C 353.35 -0.183775 1.94735 0
M  V30 3703 O 354.556 -0.395234 2.68608 0
M  V30 3704 C 353.012 2.18638 2.85876 0
M  V30 3705 C 352.62 3.66974 2.56971 0
M  V30 3706 C 354.364 2.18581 3.63899 0
M  V30 3707 C 352.271 4.5275 3.80488 0
M  V30 3708 H 351.201 0.463425 0.594772 0
M  V30 3709 H 353.852 1.58797 0.919551 0
M  V30 3710 H 352.234 1.77542 3.5397 0
M  V30 3711 H 353.408 4.16538 1.9706 0
M  V30 3712 H 351.723 3.69366 1.92244 0
M  V30 3713 H 354.32 2.79894 4.55591 0
M  V30 3714 H 354.663 1.18207 3.99165 0
M  V30 3715 H 355.196 2.58062 3.02735 0
M  V30 3716 H 351.935 5.54017 3.5035 0
M  V30 3717 H 351.455 4.07927 4.39722 0
M  V30 3718 H 353.134 4.66784 4.4802 0
M  V30 3719 N 353.266 -1.05314 1.17247 0
M  V30 3720 C 354.213 -2.13031 0.888058 0
M  V30 3721 C 355.183 -1.65253 -0.167537 0
M  V30 3722 O 356.368 -1.90775 -0.0305974 0
M  V30 3723 C 353.508 -3.42702 0.406147 0
M  V30 3724 C 352.621 -4.04161 1.52572 0
M  V30 3725 C 351.756 -5.21744 0.997808 0
M  V30 3726 C 350.795 -5.75207 2.09291 0
M  V30 3727 N 349.932 -6.84094 1.57986 0
M  V30 3728 H 354.772 -2.36698 1.81048 0
M  V30 3729 H 352.309 -1.16121 0.903013 0
M  V30 3730 H 354.267 -4.17059 0.108305 0
M  V30 3731 H 352.897 -3.19222 -0.479313 0
M  V30 3732 H 351.949 -3.27253 1.93931 0
M  V30 3733 H 353.261 -4.39881 2.35172 0
M  V30 3734 H 352.415 -6.03168 0.653739 0
M  V30 3735 H 351.154 -4.87495 0.141232 0
M  V30 3736 H 350.159 -4.92414 2.44557 0
M  V30 3737 H 351.384 -6.11505 2.95362 0
M  V30 3738 H 349.33 -6.51745 0.74598 0
M  V30 3739 H 349.247 -7.18811 2.34195 0
M  V30 3740 H 350.515 -7.69172 1.26468 0
M  V30 3741 N 354.744 -0.972509 -1.24016 0
M  V30 3742 C 355.972 -0.654803 -1.96265 0
M  V30 3743 C 356.387 0.776708 -1.72083 0
M  V30 3744 O 355.744 1.52171 -1.00748 0
M  V30 3745 C 355.795 -0.92592 -3.49441 0
M  V30 3746 O 355.516 -2.30116 -3.72798 0
M  V30 3747 C 357.017 -0.623068 -4.38899 0
M  V30 3748 H 354.237 -0.243907 -0.6251 0
M  V30 3749 H 356.781 -1.30175 -1.57717 0
M  V30 3750 H 354.936 -0.325108 -3.86033 0
M  V30 3751 H 355.35 -2.38483 -4.67147 0
M  V30 3752 H 356.824 -0.863189 -5.45209 0
M  V30 3753 H 357.301 0.442754 -4.36963 0
M  V30 3754 H 357.907 -1.204 -4.07902 0
M  V30 3755 N 356.222 1.38976 -0.743202 0
M  V30 3756 C 357.469 2.00343 -0.294752 0
M  V30 3757 C 357.797 1.58983 1.12047 0
M  V30 3758 O 357.052 0.813809 1.77977 0
M  V30 3759 C 357.351 3.55647 -0.353517 0
M  V30 3760 C 357.017 4.16685 -1.72292 0
M  V30 3761 C 355.679 4.3307 -2.09771 0
M  V30 3762 C 358.031 4.50464 -2.62168 0
M  V30 3763 C 355.359 4.80526 -3.36618 0
M  V30 3764 C 357.711 4.99332 -3.88395 0
M  V30 3765 C 356.375 5.13924 -4.25956 0
M  V30 3766 H 355.645 0.733108 -0.107857 0
M  V30 3767 H 358.292 1.6618 -0.951651 0
M  V30 3768 H 356.597 3.89884 0.386954 0
M  V30 3769 H 358.294 4.00998 0.0117269 0
M  V30 3770 H 354.884 4.04339 -1.42155 0
M  V30 3771 H 359.068 4.37416 -2.3448 0
M  V30 3772 H 354.324 4.90008 -3.65653 0
M  V30 3773 H 358.498 5.2444 -4.58187 0
M  V30 3774 H 356.125 5.50457 -5.2431 0
M  V30 3775 N 357.7 0.491464 1.49741 0
M  V30 3776 C 358.946 -0.0565092 2.02721 0
M  V30 3777 C 359.279 -1.37522 1.37118 0
M  V30 3778 O 358.554 -1.87866 0.503645 0
M  V30 3779 C 358.837 -0.219051 3.59433 0
M  V30 3780 C 358.69 1.12211 4.35579 0
M  V30 3781 C 360.009 -0.964157 4.29409 0
M  V30 3782 H 357.128 -0.0190627 0.736753 0
M  V30 3783 H 359.77 0.641021 1.7886 0
M  V30 3784 H 357.92 -0.813165 3.79895 0
M  V30 3785 H 359.592 1.75437 4.26637 0
M  V30 3786 H 357.835 1.71377 3.98513 0
M  V30 3787 H 358.506 0.961794 5.43556 0
M  V30 3788 H 360.982 -0.460378 4.13545 0
M  V30 3789 H 359.858 -1.04671 5.38828 0
M  V30 3790 H 360.119 -2.00563 3.93988 0
M  V30 3791 N 359.178 -1.55987 0.224894 0
M  V30 3792 C 360.11 -2.17722 -0.716224 0
M  V30 3793 C 361.123 -1.14723 -1.15509 0
M  V30 3794 O 362.312 -1.41688 -1.08567 0
M  V30 3795 C 359.412 -2.74873 -1.98238 0
M  V30 3796 C 358.585 -4.03074 -1.69853 0
M  V30 3797 C 357.644 -4.44757 -2.81208 0
M  V30 3798 O 356.67 -5.11587 -2.49534 0
M  V30 3799 N 357.872 -4.10716 -4.10235 0
M  V30 3800 H 360.637 -2.99109 -0.188123 0
M  V30 3801 H 358.198 -1.6184 0.0440123 0
M  V30 3802 H 360.19 -2.99727 -2.7193 0
M  V30 3803 H 358.76 -1.9777 -2.42086 0
M  V30 3804 H 357.98 -3.86041 -0.797875 0
M  V30 3805 H 359.268 -4.86701 -1.48324 0
M  V30 3806 H 358.666 -3.57019 -4.38809 0
M  V30 3807 H 357.223 -4.40455 -4.80461 0
M  V30 3808 N 360.656 0.0484629 -1.57525 0
M  V30 3809 C 361.904 0.741657 -1.88 0
M  V30 3810 C 362.225 1.76918 -0.820054 0
M  V30 3811 O 361.495 1.95335 0.148661 0
M  V30 3812 H 360.075 0.276908 -0.69378 0
M  V30 3813 H 362.737 0.019013 -1.94891 0
M  V30 3814 H 361.833 1.24336 -2.86264 0
M  V30 3815 N 362.134 1.5431 0.320358 0
M  V30 3816 C 363.044 1.86946 1.41734 0
M  V30 3817 C 364.06 0.761689 1.56443 0
M  V30 3818 O 365.236 1.05629 1.71477 0
M  V30 3819 C 362.301 2.09293 2.76401 0
M  V30 3820 C 361.362 3.33082 2.70841 0
M  V30 3821 C 360.595 3.54353 3.99086 0
M  V30 3822 O 360.818 2.79002 4.97508 0
M  V30 3823 O 359.752 4.47838 4.0215 0
M  V30 3824 H 363.578 2.80232 1.17062 0
M  V30 3825 H 361.163 1.40255 0.514673 0
M  V30 3826 H 363.045 2.25303 3.56113 0
M  V30 3827 H 361.72 1.19194 3.00956 0
M  V30 3828 H 360.627 3.22454 1.89668 0
M  V30 3829 H 361.96 4.23249 2.5124 0
M  V30 3830 N 363.613 -0.582584 1.46437 0
M  V30 3831 C 364.843 -1.36484 1.55099 0
M  V30 3832 C 365.251 -1.88233 0.191056 0
M  V30 3833 O 364.594 -1.6429 -0.821858 0
M  V30 3834 C 364.656 -2.588 2.49525 0
M  V30 3835 C 364.32 -2.28517 3.95764 0
M  V30 3836 C 365.317 -1.87346 4.84972 0
M  V30 3837 C 363.002 -2.40658 4.40896 0
M  V30 3838 C 364.996 -1.5871 6.17325 0
M  V30 3839 C 362.683 -2.11635 5.73284 0
M  V30 3840 C 363.681 -1.70725 6.61318 0
M  V30 3841 O 363.369 -1.42057 7.91249 0
M  V30 3842 H 363.101 -0.423297 0.527063 0
M  V30 3843 H 365.655 -0.715188 1.92547 0
M  V30 3844 H 363.885 -3.26571 2.07095 0
M  V30 3845 H 365.574 -3.20868 2.48593 0
M  V30 3846 H 366.34 -1.77481 4.5136 0
M  V30 3847 H 362.219 -2.71463 3.72598 0
M  V30 3848 H 365.763 -1.26704 6.85997 0
M  V30 3849 H 361.66 -2.21124 6.06444 0
M  V30 3850 H 362.428 -1.55901 8.03515 0
M  V30 3851 N 365.091 -1.34144 -0.827227 0
M  V30 3852 C 366.338 -1.26258 -1.58319 0
M  V30 3853 C 366.666 0.168595 -1.93768 0
M  V30 3854 O 365.921 1.12877 -1.59866 0
M  V30 3855 C 366.22 -2.09464 -2.89585 0
M  V30 3856 C 365.886 -3.58521 -2.73448 0
M  V30 3857 C 364.548 -3.99155 -2.68754 0
M  V30 3858 C 366.9 -4.53189 -2.57428 0
M  V30 3859 C 364.228 -5.32656 -2.45957 0
M  V30 3860 C 366.58 -5.86864 -2.36163 0
M  V30 3861 C 365.244 -6.26667 -2.29879 0
M  V30 3862 H 364.514 -0.462013 -0.579332 0
M  V30 3863 H 367.161 -1.65845 -0.95748 0
M  V30 3864 H 365.466 -1.62692 -3.56425 0
M  V30 3865 H 367.163 -2.00712 -3.47154 0
M  V30 3866 H 363.753 -3.26264 -2.77939 0
M  V30 3867 H 367.937 -4.22696 -2.60081 0
M  V30 3868 H 363.193 -5.62519 -2.39546 0
M  V30 3869 H 367.367 -6.59813 -2.22754 0
M  V30 3870 H 364.994 -7.30049 -2.11975 0
M  V30 3871 N 366.569 1.04691 -1.17803 0
M  V30 3872 C 367.794 1.81984 -0.994813 0
M  V30 3873 C 368.219 1.82586 0.452112 0
M  V30 3874 O 367.577 1.23854 1.324 0
M  V30 3875 C 367.625 3.2575 -1.54659 0
M  V30 3876 O 366.729 4.05267 -0.763728 0
M  V30 3877 H 366.07 0.562483 -0.352857 0
M  V30 3878 H 368.6 1.3189 -1.56417 0
M  V30 3879 H 368.61 3.76541 -1.57102 0
M  V30 3880 H 367.285 3.24627 -2.59981 0
M  V30 3881 H 365.862 3.63972 -0.811108 0
M  V30 3882 N 368.047 0.979072 1.23499 0
M  V30 3883 C 369.293 0.648178 1.92163 0
M  V30 3884 C 369.626 -0.816049 1.76222 0
M  V30 3885 O 368.901 -1.58849 1.12237 0
M  V30 3886 C 369.184 1.03773 3.44824 0
M  V30 3887 C 369.037 2.55948 3.69879 0
M  V30 3888 C 370.356 0.580653 4.36253 0
M  V30 3889 H 367.475 0.236952 0.69787 0
M  V30 3890 H 370.117 1.22012 1.45647 0
M  V30 3891 H 368.267 0.551058 3.84572 0
M  V30 3892 H 369.939 3.12179 3.3962 0
M  V30 3893 H 368.182 2.98641 3.14636 0
M  V30 3894 H 368.853 2.78255 4.76737 0
M  V30 3895 H 371.329 0.998465 4.03943 0
M  V30 3896 H 370.205 0.881663 5.41773 0
M  V30 3897 H 370.466 -0.519052 4.39042 0
M  V30 3898 N 369.525 -1.3858 0.750561 0
M  V30 3899 C 370.755 -2.04175 0.31564 0
M  V30 3900 C 371.163 -1.56726 -1.05989 0
M  V30 3901 O 370.506 -0.734225 -1.68389 0
M  V30 3902 C 370.568 -3.58585 0.256389 0
M  V30 3903 C 370.232 -4.29077 1.57296 0
M  V30 3904 C 371.229 -4.54656 2.52159 0
M  V30 3905 C 368.914 -4.67324 1.84156 0
M  V30 3906 C 370.908 -5.17512 3.72103 0
M  V30 3907 C 368.595 -5.29905 3.04374 0
M  V30 3908 C 369.593 -5.54933 3.98168 0
M  V30 3909 O 369.281 -6.16212 5.16273 0
M  V30 3910 H 369.013 -0.662742 0.133226 0
M  V30 3911 H 371.567 -1.78313 1.01948 0
M  V30 3912 H 369.797 -3.83406 -0.503677 0
M  V30 3913 H 371.486 -4.05628 -0.148612 0
M  V30 3914 H 372.252 -4.25539 2.32683 0
M  V30 3915 H 368.131 -4.47191 1.11988 0
M  V30 3916 H 371.675 -5.36963 4.45327 0
M  V30 3917 H 367.572 -5.58444 3.23745 0
M  V30 3918 H 368.34 -6.34701 5.16815 0
M  V30 3919 N 371.003 -0.499398 -1.49478 0
M  V30 3920 C 371.95 0.279881 -2.29097 0
M  V30 3921 C 372.92 0.961805 -1.3542 0
M  V30 3922 O 374.105 0.968777 -1.64376 0
M  V30 3923 C 371.245 1.33932 -3.18051 0
M  V30 3924 C 370.358 0.669333 -4.26783 0
M  V30 3925 C 369.493 1.70907 -5.02955 0
M  V30 3926 C 368.532 1.02087 -6.03527 0
M  V30 3927 N 367.669 2.00474 -6.7287 0
M  V30 3928 H 372.509 -0.405317 -2.95231 0
M  V30 3929 H 370.046 -0.211726 -1.45568 0
M  V30 3930 H 372.004 1.96553 -3.67998 0
M  V30 3931 H 370.634 1.9933 -2.53904 0
M  V30 3932 H 369.686 -0.0701234 -3.80335 0
M  V30 3933 H 370.998 0.127503 -4.98637 0
M  V30 3934 H 370.152 2.41037 -5.56764 0
M  V30 3935 H 368.891 2.28476 -4.30871 0
M  V30 3936 H 367.896 0.305338 -5.48951 0
M  V30 3937 H 369.121 0.451708 -6.77596 0
M  V30 3938 H 367.067 2.57007 -6.03559 0
M  V30 3939 H 366.984 1.51353 -7.40694 0
M  V30 3940 H 368.252 2.69897 -7.31284 0
M  V30 3941 N 372.481 1.55866 -0.233164 0
M  V30 3942 C 373.727 1.99643 0.389148 0
M  V30 3943 C 374.082 1.11836 1.56558 0
M  V30 3944 O 373.375 0.170848 1.90837 0
M  V30 3945 C 373.569 3.46856 0.861724 0
M  V30 3946 C 373.398 4.48904 -0.267376 0
M  V30 3947 C 372.168 4.99888 -0.737577 0
M  V30 3948 C 374.366 5.02624 -1.08966 0
M  V30 3949 N 372.348 5.8566 -1.84052 0
M  V30 3950 C 373.719 5.85434 -2.04125 0
M  V30 3951 C 375.774 4.84959 -1.12779 0
M  V30 3952 C 374.477 6.52466 -3.02789 0
M  V30 3953 C 376.503 5.52759 -2.10266 0
M  V30 3954 C 375.865 6.35346 -3.04162 0
M  V30 3955 H 371.964 0.774402 0.108742 0
M  V30 3956 H 374.548 1.91572 -0.347596 0
M  V30 3957 H 372.719 3.55352 1.5678 0
M  V30 3958 H 374.451 3.77531 1.45783 0
M  V30 3959 H 371.206 4.7249 -0.324122 0
M  V30 3960 H 371.63 6.33246 -2.39434 0
M  V30 3961 H 376.272 4.20751 -0.415749 0
M  V30 3962 H 373.99 7.15849 -3.74948 0
M  V30 3963 H 377.576 5.41051 -2.13905 0
M  V30 3964 H 376.456 6.86883 -3.78366 0
M  V30 3965 N 373.959 -0.0401083 1.57549 0
M  V30 3966 C 375.236 -0.767917 1.79896 0
M  V30 3967 C 375.616 -1.9416 0.82856 0
M  V30 3968 O 374.964 -2.2812 -0.131671 0
M  V30 3969 C 375.174 -1.2113 3.27305 0
M  V30 3970 C 376.522 -1.63175 3.91994 0
M  V30 3971 O 377.546 -1.30616 3.31388 0
M  V30 3972 O 376.405 -2.23565 4.98679 0
M  V30 3973 H 373.499 -0.370441 0.739393 0
M  V30 3974 H 376.045 -0.017737 1.69691 0
M  V30 3975 H 374.817 -0.372937 3.89519 0
M  V30 3976 H 374.44 -2.02183 3.42356 0
M  V30 3977 N 375.437 -1.54477 -0.31217 0
M  V30 3978 C 376.686 -1.72438 -1.04633 0
M  V30 3979 C 376.999 -0.511163 -1.88803 0
M  V30 3980 O 378.205 -0.572341 -2.65399 0
M  V30 3981 C 376.661 -3.05043 -1.9099 0
M  V30 3982 C 376.269 -4.33806 -1.11877 0
M  V30 3983 C 378.013 -3.32364 -2.64073 0
M  V30 3984 C 375.92 -5.57467 -1.97445 0
M  V30 3985 H 374.85 -0.642647 -0.394361 0
M  V30 3986 H 377.501 -1.80966 -0.303929 0
M  V30 3987 H 375.883 -2.90451 -2.69173 0
M  V30 3988 H 377.057 -4.59199 -0.383843 0
M  V30 3989 H 375.372 -4.13336 -0.504252 0
M  V30 3990 H 377.969 -4.21951 -3.28423 0
M  V30 3991 H 378.312 -2.50745 -3.32314 0
M  V30 3992 H 378.845 -3.47875 -1.92944 0
M  V30 3993 H 375.584 -6.41722 -1.33692 0
M  V30 3994 H 375.104 -5.36277 -2.6864 0
M  V30 3995 H 376.783 -5.94303 -2.5576 0
M  V30 3996 N 376.915 0.57481 -1.46744 0
M  V30 3997 C 377.863 1.70435 -1.58286 0
M  V30 3998 C 378.857 1.63287 -0.450956 0
M  V30 3999 O 380.063 1.68685 -0.628121 0
M  V30 4000 H 376.438 0.56364 -0.497809 0
M  V30 4001 H 378.409 1.57833 -2.53242 0
M  V30 4002 C 377.158 3.08815 -1.59776 0
M  V30 4003 H 376.481 3.1499 -2.46214 0
M  V30 4004 H 377.921 3.87588 -1.71905 0
M  V30 4005 C 376.38 3.35301 -0.327812 0
M  V30 4006 O 376.91 3.97511 0.57861 0
M  V30 4007 N 375.116 2.89816 -0.213274 0
M  V30 4008 H 374.663 2.39371 -0.951798 0
M  V30 4009 H 374.621 3.0791 0.63553 0
M  V30 4010 N 378.394 1.34581 0.820102 0
M  V30 4011 C 379.642 1.26845 1.57336 0
M  V30 4012 C 379.963 -0.160667 1.94337 0
M  V30 4013 O 379.233 -1.09396 1.6251 0
M  V30 4014 H 377.813 0.466514 0.583415 0
M  V30 4015 H 380.475 1.68526 0.979027 0
M  V30 4016 H 379.571 1.87513 2.4949 0
M  V30 4017 N 379.872 -1.04064 1.18357 0
M  V30 4018 C 380.782 -2.15569 0.925596 0
M  V30 4019 C 381.798 -1.7365 -0.110295 0
M  V30 4020 O 382.974 -2.01273 0.0716218 0
M  V30 4021 C 380.039 -3.43704 0.454836 0
M  V30 4022 C 379.1 -4.00004 1.55869 0
M  V30 4023 C 378.333 -5.22023 1.1103 0
M  V30 4024 O 378.556 -5.70392 -0.0309756 0
M  V30 4025 O 377.49 -5.70856 1.90805 0
M  V30 4026 H 381.316 -2.40187 1.8586 0
M  V30 4027 H 378.901 -1.1402 0.965394 0
M  V30 4028 H 380.783 -4.20923 0.200382 0
M  V30 4029 H 379.458 -3.20559 -0.449876 0
M  V30 4030 H 378.365 -3.24172 1.86716 0
M  V30 4031 H 379.698 -4.2749 2.43953 0
M  V30 4032 N 381.35 -0.985608 -1.22978 0
M  V30 4033 C 382.313 -0.535071 -2.22867 0
M  V30 4034 C 383.313 0.378123 -1.56291 0
M  V30 4035 O 384.503 0.171092 -1.73358 0
M  V30 4036 C 381.635 0.222702 -3.40172 0
M  V30 4037 H 382.828 -1.41835 -2.6424 0
M  V30 4038 H 380.381 -0.772042 -1.35901 0
M  V30 4039 H 381.116 1.12229 -3.04262 0
M  V30 4040 H 380.901 -0.43288 -3.89703 0
M  V30 4041 H 382.391 0.526335 -4.1427 0
M  V30 4042 N 382.828 1.3818 -0.7579 0
M  V30 4043 C 383.738 2.3421 -0.135247 0
M  V30 4044 C 384.754 1.59487 0.695683 0
M  V30 4045 O 385.93 1.91657 0.618832 0
M  V30 4046 C 382.995 3.3862 0.744139 0
M  V30 4047 C 382.056 4.2918 -0.101658 0
M  V30 4048 C 381.289 5.28603 0.735851 0
M  V30 4049 O 381.512 5.35166 1.97366 0
M  V30 4050 O 380.446 6.01707 0.152372 0
M  V30 4051 H 384.272 2.8916 -0.928436 0
M  V30 4052 H 381.857 1.40101 -0.518855 0
M  V30 4053 H 383.739 4.02539 1.2466 0
M  V30 4054 H 382.414 2.86019 1.51575 0
M  V30 4055 H 381.321 3.68407 -0.650167 0
M  V30 4056 H 382.654 4.85048 -0.836024 0
M  V30 4057 N 384.306 0.507319 1.49211 0
M  V30 4058 C 385.239 -0.314509 2.26022 0
M  V30 4059 C 386.217 -0.964849 1.30879 0
M  V30 4060 O 387.401 -0.993707 1.6018 0
M  V30 4061 C 384.528 -1.44346 3.06402 0
M  V30 4062 C 383.574 -0.90685 4.16748 0
M  V30 4063 S 384.407 0.207392 5.35098 0
M  V30 4064 C 385.563 -0.924573 6.19033 0
M  V30 4065 H 385.796 0.337416 2.95379 0
M  V30 4066 H 383.329 0.292718 1.516 0
M  V30 4067 H 385.287 -2.09029 3.53295 0
M  V30 4068 H 383.948 -2.06702 2.36502 0
M  V30 4069 H 383.141 -1.75309 4.72528 0
M  V30 4070 H 382.743 -0.33712 3.72478 0
M  V30 4071 H 385.035 -1.82839 6.52362 0
M  V30 4072 H 385.978 -0.405248 7.06939 0
M  V30 4073 H 386.386 -1.19476 5.51712 0
M  V30 4074 N 385.784 -1.5574 0.241426 0
M  V30 4075 C 386.747 -2.19877 -0.647063 0
M  V30 4076 C 387.747 -1.16642 -1.10686 0
M  V30 4077 O 388.937 -1.41757 -1.01245 0
M  V30 4078 C 386.069 -2.83797 -1.88871 0
M  V30 4079 H 387.262 -2.99772 -0.087574 0
M  V30 4080 H 384.815 -1.56298 -0.00813574 0
M  V30 4081 H 385.55 -2.07824 -2.48957 0
M  V30 4082 H 385.335 -3.59414 -1.56728 0
M  V30 4083 H 386.825 -3.32898 -2.52129 0
M  V30 4084 N 387.262 0.0317525 -1.57568 0
M  V30 4085 C 388.194 1.06073 -2.03178 0
M  V30 4086 C 389.207 1.32627 -0.944132 0
M  V30 4087 O 390.396 1.30162 -1.22148 0
M  V30 4088 C 387.496 2.40297 -2.38978 0
M  V30 4089 C 386.669 2.33137 -3.70089 0
M  V30 4090 C 385.728 3.49787 -3.9311 0
M  V30 4091 O 384.754 3.29403 -4.64201 0
M  V30 4092 N 385.956 4.71562 -3.38541 0
M  V30 4093 H 388.721 0.672006 -2.92069 0
M  V30 4094 H 386.282 0.219745 -1.60402 0
M  V30 4095 H 388.274 3.1705 -2.51518 0
M  V30 4096 H 386.844 2.71024 -1.55771 0
M  V30 4097 H 386.064 1.415 -3.67928 0
M  V30 4098 H 387.352 2.25493 -4.56104 0
M  V30 4099 H 386.75 4.91024 -2.80912 0
M  V30 4100 H 385.307 5.45689 -3.56464 0
M  V30 4101 N 388.74 1.54641 0.303973 0
M  V30 4102 C 390.017 1.64455 1.05896 0
M  V30 4103 C 390.397 0.490923 2.05312 0
M  V30 4104 O 389.745 -0.512685 2.22674 0
M  V30 4105 C 389.955 3.02331 1.74347 0
M  V30 4106 C 391.303 3.59045 2.26653 0
M  V30 4107 O 392.327 3.04764 1.84384 0
M  V30 4108 O 391.186 4.54081 3.04093 0
M  V30 4109 H 388.28 0.666729 0.489287 0
M  V30 4110 H 390.826 1.66986 0.302298 0
M  V30 4111 H 389.598 3.77734 1.02142 0
M  V30 4112 H 389.221 3.03565 2.56777 0
M  V30 4113 N 390.218 -0.567019 1.47046 0
M  V30 4114 C 391.128 -1.70247 1.6141 0
M  V30 4115 C 392.144 -1.66746 0.497157 0
M  V30 4116 O 393.32 -1.86371 0.763389 0
M  V30 4117 C 390.385 -3.06756 1.61561 0
M  V30 4118 C 389.446 -3.21399 2.84607 0
M  V30 4119 C 388.679 -4.51396 2.84741 0
M  V30 4120 O 388.902 -5.36255 1.94388 0
M  V30 4121 O 387.836 -4.69621 3.76483 0
M  V30 4122 H 391.662 -1.61073 2.57467 0
M  V30 4123 H 389.247 -0.735894 1.30019 0
M  V30 4124 H 391.129 -3.8801 1.64396 0
M  V30 4125 H 389.804 -3.16333 0.686684 0
M  V30 4126 H 388.711 -2.39579 2.8732 0
M  V30 4127 H 390.044 -3.16721 3.76761 0
M  V30 4128 N 391.696 -1.35014 -0.812953 0
M  V30 4129 C 392.921 -1.31187 -1.60639 0
M  V30 4130 C 393.346 0.109382 -1.87782 0
M  V30 4131 O 392.704 1.07424 -1.46047 0
M  V30 4132 C 392.752 -2.11809 -2.91838 0
M  V30 4133 O 391.856 -1.49444 -3.8437 0
M  V30 4134 H 391.197 -0.450084 -0.488181 0
M  V30 4135 H 393.727 -1.77963 -1.00947 0
M  V30 4136 H 393.737 -2.23531 -3.41318 0
M  V30 4137 H 392.412 -3.15137 -2.71407 0
M  V30 4138 H 390.989 -1.46524 -3.42907 0
M  V30 4139 N 393.175 1.03435 -1.18907 0
M  V30 4140 C 394.422 1.76743 -0.988334 0
M  V30 4141 C 394.75 1.88447 0.481441 0
M  V30 4142 O 394.005 1.39383 1.37371 0
M  V30 4143 C 394.304 3.19792 -1.59586 0
M  V30 4144 C 393.97 3.28108 -3.09283 0
M  V30 4145 C 392.632 3.30084 -3.5014 0
M  V30 4146 C 394.984 3.27696 -4.05296 0
M  V30 4147 C 392.312 3.29299 -4.85571 0
M  V30 4148 C 394.664 3.28451 -5.4065 0
M  V30 4149 C 393.328 3.28723 -5.80946 0
M  V30 4150 H 392.598 0.64675 -0.361657 0
M  V30 4151 H 395.245 1.21442 -1.48068 0
M  V30 4152 H 393.55 3.78136 -1.02568 0
M  V30 4153 H 395.247 3.75171 -1.41589 0
M  V30 4154 H 391.837 3.27294 -2.76725 0
M  V30 4155 H 396.021 3.25354 -3.74778 0
M  V30 4156 H 391.277 3.2783 -5.16079 0
M  V30 4157 H 395.451 3.27082 -6.14809 0
M  V30 4158 H 393.078 3.27868 -6.85862 0
M  V30 4159 N 394.653 0.992116 1.22453 0
M  V30 4160 C 395.583 0.561677 2.26644 0
M  V30 4161 C 396.564 -0.411055 1.65059 0
M  V30 4162 O 397.749 -0.301861 1.9184 0
M  V30 4163 C 394.879 -0.125247 3.47074 0
M  V30 4164 C 393.833 0.765948 4.21091 0
M  V30 4165 C 393.159 -0.0538484 5.34673 0
M  V30 4166 C 394.459 2.06242 4.79856 0
M  V30 4167 H 396.153 1.43259 2.62902 0
M  V30 4168 H 393.699 0.690283 1.26377 0
M  V30 4169 H 395.652 -0.437764 4.1912 0
M  V30 4170 H 394.376 -1.03069 3.0991 0
M  V30 4171 H 393.035 1.0621 3.50878 0
M  V30 4172 H 392.683 -0.960188 4.9375 0
M  V30 4173 H 392.383 0.539415 5.85119 0
M  V30 4174 H 393.907 -0.360477 6.09535 0
M  V30 4175 H 395.321 1.8139 5.43848 0
M  V30 4176 H 393.718 2.60444 5.40638 0
M  V30 4177 H 394.788 2.74167 3.99951 0
M  V30 4178 N 396.131 -1.37776 0.765217 0
M  V30 4179 C 397.38 -1.99092 0.323307 0
M  V30 4180 C 397.693 -1.61434 -1.10446 0
M  V30 4181 O 398.899 -2.15805 -1.64743 0
M  V30 4182 C 397.355 -3.56019 0.527098 0
M  V30 4183 C 396.963 -4.0262 1.96471 0
M  V30 4184 C 398.707 -4.2424 0.148483 0
M  V30 4185 C 396.614 -5.52233 2.11644 0
M  V30 4186 H 395.544 -0.744846 0.117137 0
M  V30 4187 H 398.195 -1.57391 0.943417 0
M  V30 4188 H 396.577 -3.95667 -0.162372 0
M  V30 4189 H 397.751 -3.74234 2.68859 0
M  V30 4190 H 396.066 -3.47161 2.29931 0
M  V30 4191 H 398.663 -5.34159 0.240456 0
M  V30 4192 H 399.006 -4.06446 -0.900422 0
M  V30 4193 H 399.539 -3.89872 0.79025 0
M  V30 4194 H 396.278 -5.74945 3.1483 0
M  V30 4195 H 395.798 -5.82324 1.4373 0
M  V30 4196 H 397.477 -6.18106 1.91193 0
M  V30 4197 N 397.609 -0.515225 -1.4894 0
M  V30 4198 C 398.849 0.0223983 -2.04388 0
M  V30 4199 C 399.213 1.32961 -1.38511 0
M  V30 4200 O 400.414 1.95236 -1.8476 0
M  V30 4201 C 398.685 0.157056 -3.57055 0
M  V30 4202 S 400.244 0.646875 -4.34006 0
M  V30 4203 H 397.062 -0.00500662 -0.710982 0
M  V30 4204 H 399.664 -0.69243 -1.82827 0
M  V30 4205 H 398.368 -0.799412 -4.02539 0
M  V30 4206 H 397.899 0.896704 -3.83044 0
M  V30 4207 H 399.914 1.91381 -4.57808 0
M  V30 4208 N 399.087 1.5561 -0.249682 0
M  V30 4209 C 400.312 2.03865 0.381305 0
M  V30 4210 C 400.737 1.12769 1.50548 0
M  V30 4211 O 400.095 0.121189 1.80895 0
M  V30 4212 C 400.143 3.50101 0.863816 0
M  V30 4213 O 399.247 3.62132 1.97318 0
M  V30 4214 H 398.588 0.658827 0.0827194 0
M  V30 4215 H 401.118 2.01105 -0.376552 0
M  V30 4216 H 401.128 3.90975 1.1663 0
M  V30 4217 H 399.803 4.1588 0.0411816 0
M  V30 4218 H 398.38 3.33155 1.67517 0
M  V30 4219 N 400.565 -0.0233959 1.57583 0
M  V30 4220 C 401.811 -0.714119 1.89811 0
M  V30 4221 C 402.144 -1.74702 0.848113 0
M  V30 4222 O 401.419 -1.94023 -0.136135 0
M  V30 4223 C 401.702 -1.37853 3.32669 0
M  V30 4224 C 401.555 -0.358764 4.48367 0
M  V30 4225 C 402.874 -2.31101 3.7454 0
M  V30 4226 H 399.993 -0.25814 0.690314 0
M  V30 4227 H 402.635 0.0230927 1.89986 0
M  V30 4228 H 400.785 -2.00689 3.3265 0
M  V30 4229 H 402.457 0.268115 4.6052 0
M  V30 4230 H 400.7 0.321387 4.32608 0
M  V30 4231 H 401.371 -0.862242 5.45224 0
M  V30 4232 H 403.847 -1.78304 3.75961 0
M  V30 4233 H 402.723 -2.74567 4.75294 0
M  V30 4234 H 402.984 -3.18018 3.0711 0
M  V30 4235 N 402.043 -1.548 -0.295768 0
M  V30 4236 C 403.292 -1.73538 -1.02798 0
M  V30 4237 C 403.605 -0.531159 -1.8825 0
M  V30 4238 O 404.811 -0.600458 -2.64777 0
M  V30 4239 C 403.267 -3.07051 -1.87744 0
M  V30 4240 C 402.875 -4.34968 -1.07269 0
M  V30 4241 C 404.619 -3.35146 -2.60533 0
M  V30 4242 C 402.526 -5.5953 -1.91521 0
M  V30 4243 H 401.456 -0.646794 -0.387522 0
M  V30 4244 H 404.107 -1.81278 -0.284718 0
M  V30 4245 H 402.489 -2.93289 -2.66078 0
M  V30 4246 H 403.663 -4.5958 -0.335117 0
M  V30 4247 H 401.978 -4.13847 -0.460384 0
M  V30 4248 H 404.575 -4.2541 -3.23929 0
M  V30 4249 H 404.918 -2.54255 -3.29636 0
M  V30 4250 H 405.451 -3.49902 -1.89244 0
M  V30 4251 H 402.19 -6.43103 -1.26878 0
M  V30 4252 H 401.71 -5.39096 -2.62937 0
M  V30 4253 H 403.389 -5.96982 -2.49442 0
M  V30 4254 N 403.521 0.559213 -1.47345 0
M  V30 4255 C 404.431 1.69388 -1.62311 0
M  V30 4256 C 405.447 1.6648 -0.505993 0
M  V30 4257 O 406.623 1.85964 -0.773262 0
M  V30 4258 C 403.688 3.05894 -1.63185 0
M  V30 4259 C 402.749 3.19885 -2.86307 0
M  V30 4260 C 401.982 4.49879 -2.87131 0
M  V30 4261 O 402.205 5.35217 -1.97229 0
M  V30 4262 O 401.139 4.67618 -3.78968 0
M  V30 4263 H 404.965 1.59706 -2.58317 0
M  V30 4264 H 402.55 0.728989 -1.30407 0
M  V30 4265 H 404.432 3.87133 -1.66451 0
M  V30 4266 H 403.107 3.15964 -0.70345 0
M  V30 4267 H 402.014 2.38052 -2.88587 0
M  V30 4268 H 403.347 3.14718 -3.78435 0
M  V30 4269 N 404.999 1.35443 0.805782 0
M  V30 4270 C 406.247 1.28507 1.55982 0
M  V30 4271 C 406.568 -0.140046 1.94496 0
M  V30 4272 O 405.838 -1.07666 1.63661 0
M  V30 4273 H 404.418 0.472676 0.578434 0
M  V30 4274 H 407.08 1.69555 0.961098 0
M  V30 4275 H 406.176 1.90148 2.47488 0
M  V30 4276 N 406.477 -1.02803 1.19454 0
M  V30 4277 C 407.702 -1.80378 1.02364 0
M  V30 4278 C 408.127 -1.83282 -0.423007 0
M  V30 4279 O 407.485 -1.25945 -1.30413 0
M  V30 4280 C 407.533 -3.23248 1.59821 0
M  V30 4281 O 406.637 -4.04 0.828105 0
M  V30 4282 H 405.978 -0.556799 0.361761 0
M  V30 4283 H 408.508 -1.29385 1.58495 0
M  V30 4284 H 408.518 -3.73994 1.63073 0
M  V30 4285 H 407.193 -3.2045 2.65113 0
M  V30 4286 H 405.77 -3.62635 0.86891 0
M  V30 4287 N 407.956 -0.998596 -1.21925 0
M  V30 4288 C 409.204 -0.676325 -1.90448 0
M  V30 4289 C 409.525 0.794719 -1.78071 0
M  V30 4290 O 408.795 1.5701 -1.17152 0
M  V30 4291 H 407.375 -0.247165 -0.704925 0
M  V30 4292 H 410.037 -1.26633 -1.48156 0
M  V30 4293 H 409.133 -0.943858 -2.97486 0
M  V30 4294 N 409.434 1.37368 -0.772513 0
M  V30 4295 C 410.364 2.32856 -0.173304 0
M  V30 4296 C 411.345 1.55818 0.682262 0
M  V30 4297 O 412.53 1.84052 0.619566 0
M  V30 4298 C 409.66 3.40048 0.706007 0
M  V30 4299 C 408.614 4.27973 -0.0483144 0
M  V30 4300 C 407.94 5.26184 0.950491 0
M  V30 4301 C 409.24 5.07665 -1.22776 0
M  V30 4302 H 410.934 2.83217 -0.971002 0
M  V30 4303 H 408.48 1.3617 -0.468377 0
M  V30 4304 H 410.433 4.05827 1.13501 0
M  V30 4305 H 409.157 2.88214 1.53623 0
M  V30 4306 H 407.816 3.63726 -0.458107 0
M  V30 4307 H 407.464 4.7063 1.77529 0
M  V30 4308 H 407.164 5.85872 0.450314 0
M  V30 4309 H 408.688 5.94838 1.37842 0
M  V30 4310 H 410.102 5.66578 -0.875366 0
M  V30 4311 H 408.499 5.76681 -1.66007 0
M  V30 4312 H 409.569 4.40294 -2.03149 0
M  V30 4313 N 410.912 0.523116 1.48665 0
M  V30 4314 C 411.842 -0.23231 2.32342 0
M  V30 4315 C 412.823 -0.941637 1.41659 0
M  V30 4316 O 414.008 -0.928751 1.70552 0
M  V30 4317 C 411.138 -1.28387 3.22698 0
M  V30 4318 C 410.092 -0.693098 4.22351 0
M  V30 4319 C 409.418 -1.8468 5.01794 0
M  V30 4320 C 410.718 0.33063 5.21252 0
M  V30 4321 H 412.412 0.466192 2.95748 0
M  V30 4322 H 409.958 0.225643 1.42221 0
M  V30 4323 H 411.911 -1.82024 3.80059 0
M  V30 4324 H 410.635 -2.01186 2.57278 0
M  V30 4325 H 409.294 -0.178299 3.66166 0
M  V30 4326 H 408.942 -2.56301 4.32804 0
M  V30 4327 H 408.642 -1.45747 5.69238 0
M  V30 4328 H 410.166 -2.38709 5.62006 0
M  V30 4329 H 411.58 -0.118407 5.73178 0
M  V30 4330 H 409.977 0.636974 5.9671 0
M  V30 4331 H 411.047 1.23883 4.68808 0
M  V30 4332 N 412.39 -1.55475 0.257931 0
M  V30 4333 C 413.337 -2.21837 -0.636939 0
M  V30 4334 C 414.307 -1.18596 -1.16294 0
M  V30 4335 O 415.492 -1.47081 -1.21539 0
M  V30 4336 C 412.632 -2.9301 -1.82317 0
M  V30 4337 C 411.745 -4.10931 -1.33265 0
M  V30 4338 C 410.88 -4.69791 -2.47931 0
M  V30 4339 C 409.919 -5.7994 -1.95796 0
M  V30 4340 N 409.056 -6.32935 -3.0387 0
M  V30 4341 H 413.896 -2.9793 -0.0643591 0
M  V30 4342 H 411.433 -1.47086 -0.0200031 0
M  V30 4343 H 413.391 -3.3248 -2.52018 0
M  V30 4344 H 412.021 -2.1937 -2.36805 0
M  V30 4345 H 411.073 -3.76699 -0.52931 0
M  V30 4346 H 412.385 -4.90417 -0.910654 0
M  V30 4347 H 411.539 -5.11892 -3.25656 0
M  V30 4348 H 410.278 -3.89545 -2.93438 0
M  V30 4349 H 409.283 -5.37305 -1.16546 0
M  V30 4350 H 410.508 -6.62043 -1.51246 0
M  V30 4351 H 408.454 -5.55591 -3.48791 0
M  V30 4352 H 408.371 -7.07645 -2.66035 0
M  V30 4353 H 409.639 -6.79695 -3.81621 0
M  V30 4354 N 413.868 0.0150385 -1.57593 0
M  V30 4355 C 415.098 0.713359 -1.93894 0
M  V30 4356 C 415.506 1.68663 -0.857289 0
M  V30 4357 O 414.849 1.82876 0.173788 0
M  V30 4358 C 414.911 1.51348 -3.26089 0
M  V30 4359 C 414.575 0.703451 -4.51554 0
M  V30 4360 C 415.572 -0.00237924 -5.199 0
M  V30 4361 C 413.257 0.653854 -4.98026 0
M  V30 4362 C 415.251 -0.746955 -6.33008 0
M  V30 4363 C 412.938 -0.0944578 -6.11027 0
M  V30 4364 C 413.936 -0.793609 -6.78374 0
M  V30 4365 O 413.624 -1.52974 -7.89211 0
M  V30 4366 H 413.356 0.204637 -0.644282 0
M  V30 4367 H 415.91 -0.0276411 -2.05381 0
M  V30 4368 H 414.14 2.29862 -3.10967 0
M  V30 4369 H 415.829 2.09572 -3.47612 0
M  V30 4370 H 416.595 0.0268803 -4.84993 0
M  V30 4371 H 412.474 1.18756 -4.45441 0
M  V30 4372 H 416.018 -1.2932 -6.85509 0
M  V30 4373 H 411.915 -0.125591 -6.45378 0
M  V30 4374 H 412.683 -1.44488 -8.05646 0
M  V30 4375 N 415.346 1.54954 0.287554 0
M  V30 4376 C 416.256 1.8991 1.37736 0
M  V30 4377 C 417.272 0.794701 1.54792 0
M  V30 4378 O 418.448 1.09243 1.69198 0
M  V30 4379 C 415.513 2.15108 2.71899 0
M  V30 4380 C 414.574 3.38752 2.63715 0
M  V30 4381 C 413.807 3.62739 3.91479 0
M  V30 4382 O 414.03 2.89492 4.91478 0
M  V30 4383 O 412.964 4.56267 3.92561 0
M  V30 4384 H 416.79 2.82652 1.11092 0
M  V30 4385 H 414.375 1.41315 0.484807 0
M  V30 4386 H 416.257 2.32806 3.51254 0
M  V30 4387 H 414.932 1.25551 2.9836 0
M  V30 4388 H 413.839 3.26405 1.82786 0
M  V30 4389 H 415.172 4.28483 2.42205 0
M  V30 4390 N 416.824 -0.551391 1.4764 0
M  V30 4391 C 418.101 -1.31229 1.45046 0
M  V30 4392 C 418.481 -2.10563 0.150527 0
M  V30 4393 O 417.829 -2.11374 -0.867956 0
M  V30 4394 C 418.039 -2.21189 2.69956 0
M  V30 4395 C 419.387 -2.82021 3.1741 0
M  V30 4396 O 420.411 -2.31488 2.70724 0
M  V30 4397 O 419.27 -3.73885 3.98588 0
M  V30 4398 H 416.364 -0.591193 0.578291 0
M  V30 4399 H 418.91 -0.569813 1.59847 0
M  V30 4400 H 417.682 -1.62207 3.56096 0
M  V30 4401 H 417.305 -3.02722 2.57769 0
M  V30 4402 N 418.302 -1.35869 -0.798587 0
M  V30 4403 C 419.249 -1.29446 -1.91082 0
M  V30 4404 C 420.219 -0.16487 -1.6528 0
M  V30 4405 O 421.404 -0.349888 -1.87564 0
M  V30 4406 C 418.544 -1.0804 -3.27752 0
M  V30 4407 C 417.657 -2.29993 -3.65687 0
M  V30 4408 C 416.792 -2.01673 -4.91428 0
M  V30 4409 C 415.831 -3.19636 -5.22015 0
M  V30 4410 N 414.968 -2.91039 -6.38937 0
M  V30 4411 H 419.808 -2.24553 -1.95907 0
M  V30 4412 H 417.345 -1.11615 -0.958148 0
M  V30 4413 H 419.303 -0.936586 -4.06551 0
M  V30 4414 H 417.933 -0.16592 -3.22373 0
M  V30 4415 H 416.985 -2.55211 -2.82085 0
M  V30 4416 H 418.297 -3.18052 -3.84245 0
M  V30 4417 H 417.451 -1.84168 -5.78072 0
M  V30 4418 H 416.19 -1.10911 -4.74921 0
M  V30 4419 H 415.195 -3.37709 -4.33858 0
M  V30 4420 H 416.42 -4.11211 -5.40447 0
M  V30 4421 H 414.366 -2.0288 -6.2384 0
M  V30 4422 H 414.283 -3.72635 -6.57784 0
M  V30 4423 H 415.551 -2.77093 -7.28587 0
M  V30 4424 N 419.78 1.02168 -1.19998 0
M  V30 4425 C 421.008 1.79296 -1.03249 0
M  V30 4426 C 421.423 1.84103 0.418502 0
M  V30 4427 O 420.78 1.29031 1.29063 0
M  V30 4428 C 420.831 3.24007 -1.60319 0
M  V30 4429 O 420.552 3.19512 -2.99739 0
M  V30 4430 C 422.053 4.17704 -1.48453 0
M  V30 4431 H 419.273 0.564016 -0.363493 0
M  V30 4432 H 421.817 1.28639 -1.58973 0
M  V30 4433 H 419.972 3.7183 -1.08727 0
M  V30 4434 H 420.386 4.10306 -3.26725 0
M  V30 4435 H 421.86 5.17104 -1.93153 0
M  V30 4436 H 422.337 4.37029 -0.436193 0
M  V30 4437 H 422.943 3.7576 -1.99211 0
M  V30 4438 N 421.258 1.00505 1.21394 0
M  V30 4439 C 422.498 0.696149 1.9218 0
M  V30 4440 C 422.862 -0.759099 1.76357 0
M  V30 4441 O 424.063 -1.17998 2.41516 0
M  V30 4442 C 422.334 1.10571 3.39866 0
M  V30 4443 S 423.893 0.91702 4.29111 0
M  V30 4444 H 420.711 0.254147 0.664026 0
M  V30 4445 H 423.313 1.28988 1.46909 0
M  V30 4446 H 422.017 2.16096 3.489 0
M  V30 4447 H 421.548 0.504268 3.90155 0
M  V30 4448 H 423.563 -0.185855 4.95852 0
M  V30 4449 N 422.737 -1.36956 0.779787 0
M  V30 4450 C 424.148 -1.82094 0.412156 0
M  V30 4451 C 424.499 -1.64926 -1.06273 0
M  V30 4452 O 423.624 -1.16483 -1.82375 0
M  V30 4453 C 424.219 -3.3059 0.741319 0
M  V30 4454 C 422.778 -3.73974 0.426641 0
M  V30 4455 C 421.925 -2.59368 0.980987 0
M  V30 4456 H 424.876 -1.25314 0.973758 0
M  V30 4457 H 424.897 -3.80489 0.028887 0
M  V30 4458 H 424.409 -3.43054 1.81482 0
M  V30 4459 H 422.51 -3.67076 -0.639215 0
M  V30 4460 H 422.623 -4.69778 0.940515 0
M  V30 4461 H 420.987 -2.51463 0.404757 0
M  V30 4462 H 421.77 -2.74621 2.06005 0
M  V30 4463 N 424.215 -0.530993 -1.48385 0
M  V30 4464 C 425.145 0.219985 -2.32461 0
M  V30 4465 C 426.126 0.934111 -1.42156 0
M  V30 4466 O 427.311 0.919694 -1.71042 0
M  V30 4467 C 424.441 1.26674 -3.23375 0
M  V30 4468 C 423.395 0.67069 -4.22712 0
M  V30 4469 C 422.721 1.82017 -5.02766 0
M  V30 4470 C 424.021 -0.358268 -5.2107 0
M  V30 4471 H 425.715 -0.48187 -2.95497 0
M  V30 4472 H 423.261 -0.233182 -1.42099 0
M  V30 4473 H 425.214 1.80006 -3.81019 0
M  V30 4474 H 423.938 1.99818 -2.58341 0
M  V30 4475 H 422.597 0.158878 -3.66256 0
M  V30 4476 H 422.245 2.54002 -4.34157 0
M  V30 4477 H 421.945 1.42727 -5.70003 0
M  V30 4478 H 423.469 2.35725 -5.63264 0
M  V30 4479 H 424.883 0.0880081 -5.73232 0
M  V30 4480 H 423.28 -0.66861 -5.96364 0
M  V30 4481 H 424.35 -1.26367 -4.68145 0
M  V30 4482 N 425.693 1.55336 -0.266172 0
M  V30 4483 C 426.64 2.22172 0.625165 0
M  V30 4484 C 427.61 1.19211 1.15663 0
M  V30 4485 O 428.795 1.47723 1.20758 0
M  V30 4486 C 425.935 2.93972 1.8076 0
M  V30 4487 C 425.048 4.11632 1.31084 0
M  V30 4488 C 424.183 4.71099 2.45436 0
M  V30 4489 C 423.222 5.8097 1.92718 0
M  V30 4490 N 422.359 6.34538 3.00509 0
M  V30 4491 H 427.199 2.9796 0.0485582 0
M  V30 4492 H 424.736 1.47095 0.0122024 0
M  V30 4493 H 426.694 3.33811 2.50251 0
M  V30 4494 H 425.324 2.20623 2.35638 0
M  V30 4495 H 424.376 3.76975 0.509326 0
M  V30 4496 H 425.688 4.90893 0.884633 0
M  V30 4497 H 424.842 5.13612 3.22936 0
M  V30 4498 H 423.581 3.91096 2.91368 0
M  V30 4499 H 422.586 5.37916 1.13695 0
M  V30 4500 H 423.811 6.62836 1.47733 0
M  V30 4501 H 421.757 5.57433 3.45839 0
M  V30 4502 H 421.674 7.09046 2.62279 0
M  V30 4503 H 422.942 6.81709 3.78011 0
M  V30 4504 N 427.171 -0.0066808 1.57599 0
M  V30 4505 C 428.118 -1.00024 2.08 0
M  V30 4506 C 429.088 -1.34549 0.973943 0
M  V30 4507 O 430.273 -1.44502 1.24595 0
M  V30 4508 C 427.413 -2.2891 2.58252 0
M  V30 4509 C 426.526 -2.00346 3.82734 0
M  V30 4510 C 425.661 -3.23265 4.21513 0
M  V30 4511 C 424.7 -2.90357 5.3885 0
M  V30 4512 N 423.837 -4.05793 5.72954 0
M  V30 4513 H 428.677 -0.563499 2.92624 0
M  V30 4514 H 426.214 -0.266592 1.44664 0
M  V30 4515 H 428.172 -3.04247 2.85464 0
M  V30 4516 H 426.802 -2.70265 1.76512 0
M  V30 4517 H 425.854 -1.15406 3.62471 0
M  V30 4518 H 427.166 -1.72086 4.68175 0
M  V30 4519 H 426.32 -4.06953 4.49971 0
M  V30 4520 H 425.059 -3.54657 3.34768 0
M  V30 4521 H 424.064 -2.05075 5.10122 0
M  V30 4522 H 425.289 -2.60219 6.27266 0
M  V30 4523 H 423.235 -4.37094 4.89167 0
M  V30 4524 H 423.152 -3.81034 6.52954 0
M  V30 4525 H 424.42 -4.90289 6.06001 0
M  V30 4526 N 428.649 -1.55105 -0.279332 0
M  V30 4527 C 429.897 -1.75066 -1.00977 0
M  V30 4528 C 430.218 -0.551276 -1.87045 0
M  V30 4529 O 429.488 0.433984 -1.91032 0
M  V30 4530 H 428.068 -0.645578 -0.375816 0
M  V30 4531 H 430.73 -1.92497 -0.305089 0
M  V30 4532 H 429.826 -2.64894 -1.65038 0
M  V30 4533 N 430.127 0.543554 -1.4793 0
M  V30 4534 C 431.404 1.30458 -1.4574 0
M  V30 4535 C 431.784 2.1048 -0.161692 0
M  V30 4536 O 431.132 2.11831 0.856734 0
M  V30 4537 C 431.342 2.19754 -2.71126 0
M  V30 4538 C 432.69 2.80334 -3.18901 0
M  V30 4539 O 433.714 2.30049 -2.71948 0
M  V30 4540 O 432.573 3.71766 -4.00565 0
M  V30 4541 H 429.667 0.588117 -0.581418 0
M  V30 4542 H 432.213 0.561328 -1.60147 0
M  V30 4543 H 430.985 1.60316 -3.56952 0
M  V30 4544 H 430.608 3.01351 -2.59371 0
M  V30 4545 N 431.605 1.3629 0.791371 0
M  V30 4546 C 432.555 1.26988 1.89362 0
M  V30 4547 C 433.539 0.161795 1.60084 0
M  V30 4548 O 434.731 0.394426 1.72549 0
M  V30 4549 C 431.86 1.05944 3.26544 0
M  V30 4550 C 430.946 2.21211 3.61838 0
M  V30 4551 N 431.337 3.46518 3.68455 0
M  V30 4552 C 429.635 2.12933 3.91887 0
M  V30 4553 C 430.336 4.2241 3.99931 0
M  V30 4554 N 429.312 3.51329 4.14812 0
M  V30 4555 H 433.114 2.21908 1.92702 0
M  V30 4556 H 430.628 1.28982 0.986787 0
M  V30 4557 H 432.625 0.973666 4.05371 0
M  V30 4558 H 431.285 0.119223 3.24481 0
M  V30 4559 H 432.296 3.80677 3.51148 0
M  V30 4560 H 428.973 1.26855 3.97761 0
M  V30 4561 H 430.363 5.30767 4.1199 0
M  V30 4562 N 433.083 -1.0153 1.20538 0
M  V30 4563 C 434.33 -1.75149 1.01633 0
M  V30 4564 C 434.658 -1.89189 -0.451399 0
M  V30 4565 O 433.913 -1.41551 -1.35136 0
M  V30 4566 C 434.212 -3.17213 1.64654 0
M  V30 4567 C 433.878 -3.23146 3.14464 0
M  V30 4568 C 432.54 -3.24472 3.55347 0
M  V30 4569 C 434.892 -3.21207 4.10458 0
M  V30 4570 C 432.22 -3.21532 4.90748 0
M  V30 4571 C 434.572 -3.19808 5.45807 0
M  V30 4572 C 433.236 -3.19439 5.86102 0
M  V30 4573 H 432.506 -0.640914 0.3719 0
M  V30 4574 H 435.153 -1.19071 1.49981 0
M  V30 4575 H 433.458 -3.76457 1.08571 0
M  V30 4576 H 435.155 -3.72871 1.4754 0
M  V30 4577 H 431.745 -3.2285 2.81897 0
M  V30 4578 H 435.929 -3.19351 3.79906 0
M  V30 4579 H 431.185 -3.19578 5.21229 0
M  V30 4580 H 435.359 -3.1726 6.19935 0
M  V30 4581 H 432.986 -3.16915 6.90991 0
M  V30 4582 N 434.561 -1.01147 -1.20859 0
M  V30 4583 C 435.81 -0.693214 -1.89413 0
M  V30 4584 C 436.123 0.779969 -1.79376 0
M  V30 4585 O 437.329 1.21057 -2.43017 0
M  V30 4586 C 435.785 -1.18949 -3.39675 0
M  V30 4587 C 435.393 -2.68921 -3.58309 0
M  V30 4588 C 437.137 -0.94642 -4.13815 0
M  V30 4589 C 435.044 -3.12056 -5.0237 0
M  V30 4590 H 433.974 -0.255595 -0.709357 0
M  V30 4591 H 436.625 -1.22349 -1.36759 0
M  V30 4592 H 435.007 -0.587228 -3.91622 0
M  V30 4593 H 436.181 -3.34652 -3.16772 0
M  V30 4594 H 434.496 -2.91314 -2.97532 0
M  V30 4595 H 437.093 -1.24417 -5.20023 0
M  V30 4596 H 437.436 0.117219 -4.16135 0
M  V30 4597 H 437.969 -1.5118 -3.67953 0
M  V30 4598 H 434.708 -4.17674 -5.05202 0
M  V30 4599 H 434.228 -2.51041 -5.44737 0
M  V30 4600 H 435.907 -3.04403 -5.70918 0
M  V30 4601 N 436.039 1.36541 -0.78704 0
M  V30 4602 C 436.969 2.32659 -0.197992 0
M  V30 4603 C 437.95 1.56533 0.665697 0
M  V30 4604 O 439.135 1.84698 0.60001 0
M  V30 4605 C 436.265 3.40778 0.669901 0
M  V30 4606 C 435.219 4.27897 -0.0937039 0
M  V30 4607 C 434.545 5.27163 0.894629 0
M  V30 4608 C 435.845 5.06334 -1.28154 0
M  V30 4609 H 437.539 2.82171 -1.00099 0
M  V30 4610 H 435.085 1.35665 -0.482793 0
M  V30 4611 H 437.038 4.07008 1.09191 0
M  V30 4612 H 435.762 2.89827 1.50558 0
M  V30 4613 H 434.421 3.6322 -0.49666 0
M  V30 4614 H 434.069 4.72486 1.72527 0
M  V30 4615 H 433.769 5.86317 0.388149 0
M  V30 4616 H 435.293 5.96266 1.31525 0
M  V30 4617 H 436.707 5.65617 -0.93541 0
M  V30 4618 H 435.104 5.74888 -1.72115 0
M  V30 4619 H 436.174 4.38114 -2.07807 0
M  V30 4620 N 437.518 0.538854 1.48102 0
M  V30 4621 C 438.929 0.100679 1.86428 0
M  V30 4622 C 439.28 -1.32447 1.44749 0
M  V30 4623 O 438.405 -1.99339 0.842199 0
M  V30 4624 C 439 0.175933 3.38343 0
M  V30 4625 C 437.559 -0.207098 3.7583 0
M  V30 4626 C 436.706 0.531741 2.72154 0
M  V30 4627 H 439.657 0.749614 1.3988 0
M  V30 4628 H 439.678 -0.610144 3.75576 0
M  V30 4629 H 439.19 1.21328 3.68648 0
M  V30 4630 H 437.291 -1.24626 3.5114 0
M  V30 4631 H 437.404 0.138687 4.78899 0
M  V30 4632 H 435.768 -0.0230462 2.5469 0
M  V30 4633 H 436.551 1.56989 3.05302 0
M  V30 4634 N 438.996 -1.55193 0.274407 0
M  V30 4635 C 439.959 -2.212 -0.600279 0
M  V30 4636 C 440.959 -1.18963 -1.08187 0
M  V30 4637 O 442.149 -1.43873 -0.982158 0
M  V30 4638 C 439.281 -2.87739 -1.82809 0
M  V30 4639 H 440.474 -2.9989 -0.0239682 0
M  V30 4640 H 438.027 -1.5628 0.0250192 0
M  V30 4641 H 438.762 -2.13058 -2.44493 0
M  V30 4642 H 438.547 -3.62658 -1.49069 0
M  V30 4643 H 440.037 -3.38171 -2.45011 0
M  V30 4644 N 440.474 -0.00167713 -1.576 0
M  V30 4645 C 441.406 1.0174 -2.05382 0
M  V30 4646 C 442.419 1.30595 -0.972052 0
M  V30 4647 O 443.608 1.27542 -1.24882 0
M  V30 4648 C 440.708 2.35174 -2.44022 0
M  V30 4649 C 439.881 2.25234 -3.74951 0
M  V30 4650 C 438.94 3.4137 -4.00441 0
M  V30 4651 O 437.966 3.19483 -4.71083 0
M  V30 4652 N 439.168 4.64275 -3.48467 0
M  V30 4653 H 441.933 0.609902 -2.93428 0
M  V30 4654 H 439.494 0.185672 -1.60832 0
M  V30 4655 H 441.486 3.11643 -2.58187 0
M  V30 4656 H 440.056 2.67659 -1.61485 0
M  V30 4657 H 439.276 1.33664 -3.70847 0
M  V30 4658 H 440.564 2.15767 -4.60784 0
M  V30 4659 H 439.962 4.84955 -2.91264 0
M  V30 4660 H 438.519 5.38005 -3.67959 0
M  V30 4661 N 441.952 1.55251 0.271103 0
M  V30 4662 C 442.885 1.83191 1.36075 0
M  V30 4663 C 443.863 0.685091 1.47463 0
M  V30 4664 O 445.047 0.928292 1.64058 0
M  V30 4665 C 442.174 1.99521 2.73696 0
M  V30 4666 C 441.22 3.22081 2.79582 0
M  V30 4667 S 442.053 4.79388 2.38636 0
M  V30 4668 C 443.209 4.98693 3.78228 0
M  V30 4669 H 443.442 2.75327 1.12171 0
M  V30 4670 H 440.975 1.47046 0.470833 0
M  V30 4671 H 442.933 2.09613 3.52948 0
M  V30 4672 H 441.594 1.0827 2.9485 0
M  V30 4673 H 440.787 3.304 3.80594 0
M  V30 4674 H 440.389 3.10589 2.08352 0
M  V30 4675 H 442.681 4.84551 4.73515 0
M  V30 4676 H 443.624 6.00738 3.7486 0
M  V30 4677 H 444.032 4.26665 3.69618 0
M  V30 4678 N 443.43 -0.535701 1.48216 0
M  V30 4679 C 444.841 -1.11769 1.49548 0
M  V30 4680 C 445.192 -1.94442 0.26207 0
M  V30 4681 O 444.317 -2.06987 -0.631287 0
M  V30 4682 C 444.912 -2.03367 2.70975 0
M  V30 4683 C 443.471 -2.56795 2.75196 0
M  V30 4684 C 442.618 -1.33631 2.42977 0
M  V30 4685 H 445.569 -0.321232 1.55415 0
M  V30 4686 H 445.59 -2.87569 2.49167 0
M  V30 4687 H 445.102 -1.43169 3.60727 0
M  V30 4688 H 443.203 -3.20731 1.89638 0
M  V30 4689 H 443.316 -2.9632 3.76472 0
M  V30 4690 H 441.68 -1.6502 1.94012 0
M  V30 4691 H 442.463 -0.75194 3.34964 0
M  V30 4692 N 444.908 -1.36708 -0.784132 0
M  V30 4693 C 446.185 -1.21776 -1.53069 0
M  V30 4694 C 446.565 0.193876 -2.10208 0
M  V30 4695 O 445.913 1.20012 -1.94446 0
M  V30 4696 C 446.123 -2.30395 -2.62143 0
M  V30 4697 C 447.471 -2.67325 -3.29882 0
M  V30 4698 O 448.495 -2.29478 -2.7243 0
M  V30 4699 O 447.354 -3.32485 -4.33724 0
M  V30 4700 H 444.448 -0.474459 -0.677361 0
M  V30 4701 H 446.994 -1.48454 -0.82216 0
M  V30 4702 H 445.766 -3.2498 -2.17953 0
M  V30 4703 H 445.389 -2.05112 -3.40609 0
M  V30 4704 N 446.386 1.0089 -1.21074 0
M  V30 4705 C 447.633 1.74607 -1.0256 0
M  V30 4706 C 447.961 1.89426 0.44136 0
M  V30 4707 O 447.216 1.42266 1.34384 0
M  V30 4708 C 447.515 3.16335 -1.66334 0
M  V30 4709 C 447.181 3.21474 -3.16173 0
M  V30 4710 C 445.843 3.22583 -3.57062 0
M  V30 4711 C 448.195 3.19025 -4.12156 0
M  V30 4712 C 445.523 3.18925 -4.92446 0
M  V30 4713 C 447.875 3.16909 -5.47496 0
M  V30 4714 C 446.539 3.16326 -5.87787 0
M  V30 4715 H 445.809 0.638933 -0.375294 0
M  V30 4716 H 448.456 1.18274 -1.50611 0
M  V30 4717 H 446.761 3.75876 -1.10566 0
M  V30 4718 H 448.458 3.72083 -1.49516 0
M  V30 4719 H 445.048 3.2135 -2.83605 0
M  V30 4720 H 449.232 3.17332 -3.81595 0
M  V30 4721 H 444.488 3.16809 -5.22917 0
M  V30 4722 H 448.662 3.13968 -6.21609 0
M  V30 4723 H 446.289 3.13246 -6.92662 0
M  V30 4724 N 447.864 1.01787 1.20321 0
M  V30 4725 C 449.092 0.727194 1.937 0
M  V30 4726 C 449.507 -0.712305 1.74848 0
M  V30 4727 O 448.864 -1.48327 1.06327 0
M  V30 4728 C 448.915 1.05497 3.45764 0
M  V30 4729 O 448.636 2.43794 3.64 0
M  V30 4730 C 450.137 0.785534 4.36285 0
M  V30 4731 H 447.357 0.266939 0.615617 0
M  V30 4732 H 449.901 1.35939 1.52777 0
M  V30 4733 H 448.056 0.468158 3.84561 0
M  V30 4734 H 448.47 2.55656 4.57974 0
M  V30 4735 H 449.944 1.06495 5.4163 0
M  V30 4736 H 450.421 -0.280273 4.38305 0
M  V30 4737 H 451.027 1.35456 4.03152 0
M  V30 4738 N 449.342 -1.36122 0.79427 0
M  V30 4739 C 450.591 -1.98361 0.365464 0
M  V30 4740 C 450.904 -1.6374 -1.06997 0
M  V30 4741 O 452.11 -2.19251 -1.60129 0
M  V30 4742 C 450.566 -3.54821 0.602496 0
M  V30 4743 C 450.174 -3.98362 2.04967 0
M  V30 4744 C 451.918 -4.2383 0.238437 0
M  V30 4745 C 449.825 -5.47619 2.2331 0
M  V30 4746 H 448.755 -0.742193 0.13291 0
M  V30 4747 H 451.406 -1.55354 0.976589 0
M  V30 4748 H 449.788 -3.95922 -0.078409 0
M  V30 4749 H 450.962 -3.68447 2.76737 0
M  V30 4750 H 449.277 -3.42206 2.37243 0
M  V30 4751 H 451.874 -5.33529 0.353705 0
M  V30 4752 H 452.217 -4.08264 -0.814006 0
M  V30 4753 H 452.75 -3.88108 0.872769 0
M  V30 4754 H 449.489 -5.68138 3.26955 0
M  V30 4755 H 449.009 -5.79145 1.5605 0
M  V30 4756 H 450.688 -6.13911 2.0426 0
M  V30 4757 N 450.82 -0.546701 -1.47814 0
M  V30 4758 C 451.767 0.206854 -2.29871 0
M  V30 4759 C 452.737 0.918235 -1.38411 0
M  V30 4760 O 453.922 0.915991 -1.67375 0
M  V30 4761 C 451.062 1.23746 -3.22151 0
M  V30 4762 C 450.175 0.533216 -4.28697 0
M  V30 4763 C 449.31 1.5482 -5.08138 0
M  V30 4764 C 448.349 0.828347 -6.06469 0
M  V30 4765 N 447.486 1.78966 -6.78908 0
M  V30 4766 H 452.326 -0.499037 -2.93792 0
M  V30 4767 H 449.863 -0.25793 -1.44821 0
M  V30 4768 H 451.821 1.84746 -3.74065 0
M  V30 4769 H 450.451 1.91151 -2.60117 0
M  V30 4770 H 449.503 -0.191089 -3.7992 0
M  V30 4771 H 450.815 -0.0311987 -4.9879 0
M  V30 4772 H 449.969 2.23202 -5.6415 0
M  V30 4773 H 448.708 2.14652 -4.37922 0
M  V30 4774 H 447.713 0.130539 -5.49645 0
M  V30 4775 H 448.938 0.235907 -6.7869 0
M  V30 4776 H 446.884 2.37675 -6.1143 0
M  V30 4777 H 446.801 1.27712 -7.45135 0
M  V30 4778 H 448.069 2.46496 -7.395 0
M  V30 4779 N 452.299 1.55045 -0.282633 0
M  V30 4780 C 453.547 1.99365 0.331334 0
M  V30 4781 C 453.868 1.1725 1.55812 0
M  V30 4782 O 453.138 0.263871 1.94115 0
M  V30 4783 H 451.718 0.736397 0.125414 0
M  V30 4784 H 454.38 1.90964 -0.389711 0
M  V30 4785 H 453.476 3.0596 0.616036 0
M  V30 4786 N 453.777 0.010035 1.57597 0
M  V30 4787 C 455.005 -0.683413 1.95287 0
M  V30 4788 C 455.42 -1.66747 0.885481 0
M  V30 4789 O 454.777 -1.82003 -0.134629 0
M  V30 4790 C 454.828 -1.40652 3.33015 0
M  V30 4791 O 454.549 -0.461916 4.35658 0
M  V30 4792 C 456.05 -2.19356 3.85225 0
M  V30 4793 H 453.27 -0.189708 0.643624 0
M  V30 4794 H 455.814 0.0641359 2.04399 0
M  V30 4795 H 453.969 -2.10562 3.2518 0
M  V30 4796 H 454.383 -0.973215 5.15392 0
M  V30 4797 H 455.857 -2.65433 4.83993 0
M  V30 4798 H 456.334 -3.02457 3.18459 0
M  V30 4799 H 456.94 -1.54442 3.96267 0
M  V30 4800 N 455.255 -1.55392 -0.262866 0
M  V30 4801 C 456.495 -1.78231 -1.00064 0
M  V30 4802 C 456.859 -0.576966 -1.83126 0
M  V30 4803 O 458.06 -0.683809 -2.59957 0
M  V30 4804 C 456.331 -3.05701 -1.85153 0
M  V30 4805 S 457.89 -3.49699 -2.65058 0
M  V30 4806 H 454.708 -0.626138 -0.336856 0
M  V30 4807 H 457.31 -1.93626 -0.27005 0
M  V30 4808 H 456.014 -3.91511 -1.23074 0
M  V30 4809 H 455.545 -2.93 -2.62515 0
M  V30 4810 H 457.56 -3.09772 -3.87629 0
M  V30 4811 N 456.733 0.527833 -1.48498 0
M  V30 4812 C 457.961 1.30823 -1.6029 0
M  V30 4813 C 458.376 1.86945 -0.263974 0
M  V30 4814 O 457.733 1.6651 0.747034 0
M  V30 4815 C 457.784 2.45756 -2.65116 0
M  V30 4816 O 457.505 1.91946 -3.93813 0
M  V30 4817 C 459.006 3.37543 -2.87367 0
M  V30 4818 H 456.226 0.397763 -0.540394 0
M  V30 4819 H 458.77 0.636529 -1.94341 0
M  V30 4820 H 456.925 3.08806 -2.33917 0
M  V30 4821 H 457.339 2.67195 -4.51339 0
M  V30 4822 H 458.813 4.14532 -3.6451 0
M  V30 4823 H 459.29 3.92905 -1.9627 0
M  V30 4824 H 459.896 2.80283 -3.19878 0
M  V30 4825 N 458.211 1.37122 0.776871 0
M  V30 4826 C 459.141 1.35164 1.90402 0
M  V30 4827 C 460.122 0.221069 1.68657 0
M  V30 4828 O 461.307 0.420642 1.8959 0
M  V30 4829 C 458.437 1.15274 3.27611 0
M  V30 4830 C 457.391 2.25289 3.63908 0
M  V30 4831 C 456.717 1.90527 4.99603 0
M  V30 4832 C 458.017 3.67446 3.71188 0
M  V30 4833 H 459.711 2.29482 1.92297 0
M  V30 4834 H 457.257 1.10465 0.923773 0
M  V30 4835 H 459.21 1.12536 4.06096 0
M  V30 4836 H 457.934 0.174102 3.26136 0
M  V30 4837 H 456.593 2.27174 2.87728 0
M  V30 4838 H 456.241 0.91206 4.94662 0
M  V30 4839 H 455.941 2.64193 5.24858 0
M  V30 4840 H 457.465 1.89367 5.80493 0
M  V30 4841 H 458.879 3.67719 4.39836 0
M  V30 4842 H 457.276 4.40123 4.07936 0
M  V30 4843 H 458.346 4.01443 2.71977 0
M  V30 4844 N 459.689 -1.00246 1.21608 0
M  V30 4845 C 460.938 -1.73476 1.02902 0
M  V30 4846 C 461.251 -1.90643 -0.437561 0
M  V30 4847 O 462.457 -2.61105 -0.74407 0
M  V30 4848 C 460.913 -3.12079 1.79261 0
M  V30 4849 C 460.521 -3.02877 3.30106 0
M  V30 4850 C 462.265 -3.89421 1.68972 0
M  V30 4851 C 460.172 -4.36575 3.98944 0
M  V30 4852 H 459.102 -0.650408 0.381425 0
M  V30 4853 H 461.753 -1.11985 1.45367 0
M  V30 4854 H 460.135 -3.74196 1.2959 0
M  V30 4855 H 461.309 -2.49983 3.87098 0
M  V30 4856 H 459.624 -2.39022 3.40965 0
M  V30 4857 H 462.221 -4.88362 2.17731 0
M  V30 4858 H 462.564 -4.1122 0.648397 0
M  V30 4859 H 463.097 -3.33963 2.16133 0
M  V30 4860 H 459.836 -4.19978 5.03288 0
M  V30 4861 H 459.356 -4.8942 3.4674 0
M  V30 4862 H 461.035 -5.05364 4.04 0
M  V30 4863 N 461.167 -1.02423 -1.1978 0
M  V30 4864 C 462.413 -0.719051 -1.89625 0
M  V30 4865 C 462.746 0.750083 -1.7913 0
M  V30 4866 O 462.021 1.54574 -1.18056 0
M  V30 4867 C 462.304 -1.16499 -3.40735 0
M  V30 4868 C 462.157 -2.695 -3.60125 0
M  V30 4869 C 463.476 -0.742166 -4.33797 0
M  V30 4870 H 460.595 -0.26269 -0.688595 0
M  V30 4871 H 463.237 -1.27333 -1.41018 0
M  V30 4872 H 461.387 -0.69341 -3.82262 0
M  V30 4873 H 463.059 -3.24569 -3.278 0
M  V30 4874 H 461.302 -3.10113 -3.03336 0
M  V30 4875 H 461.973 -2.95757 -4.66081 0
M  V30 4876 H 464.449 -1.1477 -3.99959 0
M  V30 4877 H 463.325 -1.08213 -5.38127 0
M  V30 4878 H 463.586 0.355747 -4.40666 0
M  V30 4879 N 462.645 1.35699 -0.801477 0
M  V30 4880 C 463.87 2.03687 -0.390678 0
M  V30 4881 C 464.295 1.60015 0.988778 0
M  V30 4882 O 463.653 0.774357 1.63931 0
M  V30 4883 C 463.701 3.57439 -0.476404 0
M  V30 4884 O 462.805 4.09208 0.512106 0
M  V30 4885 H 462.146 0.64344 -0.163956 0
M  V30 4886 H 464.676 1.73403 -1.08594 0
M  V30 4887 H 464.686 4.06544 -0.344357 0
M  V30 4888 H 463.361 3.88576 -1.48262 0
M  V30 4889 H 461.938 3.7134 0.340721 0
M  V30 4890 N 464.123 0.554532 1.47522 0
M  V30 4891 C 465.073 -0.215008 2.26984 0
M  V30 4892 C 466.057 -0.88774 1.34194 0
M  V30 4893 O 467.249 -0.786489 1.58567 0
M  V30 4894 C 464.378 -1.24604 3.19889 0
M  V30 4895 C 463.464 -0.576857 4.20159 0
M  V30 4896 N 463.855 0.351541 5.04577 0
M  V30 4897 C 462.153 -0.831104 4.38188 0
M  V30 4898 C 462.854 0.739995 5.76974 0
M  V30 4899 N 461.83 0.0954407 5.43516 0
M  V30 4900 H 465.632 0.498843 2.89636 0
M  V30 4901 H 463.146 0.374279 1.58028 0
M  V30 4902 H 465.143 -1.81128 3.75498 0
M  V30 4903 H 463.803 -1.96101 2.58794 0
M  V30 4904 H 464.814 0.725556 5.12792 0
M  V30 4905 H 461.491 -1.53479 3.88266 0
M  V30 4906 H 462.881 1.50271 6.5488 0
M  V30 4907 N 465.601 -1.54893 0.290851 0
M  V30 4908 C 466.85 -1.99111 -0.322113 0
M  V30 4909 C 467.163 -1.18283 -1.55784 0
M  V30 4910 O 468.369 -1.5272 -2.24475 0
M  V30 4911 C 466.825 -3.54442 -0.624438 0
M  V30 4912 C 466.433 -4.44066 0.592373 0
M  V30 4913 C 468.177 -4.07211 -1.19916 0
M  V30 4914 C 466.084 -5.90812 0.263762 0
M  V30 4915 H 465.014 -0.743712 -0.124133 0
M  V30 4916 H 467.665 -1.79132 0.39797 0
M  V30 4917 H 466.047 -3.70281 -1.40384 0
M  V30 4918 H 467.221 -4.39999 1.36886 0
M  V30 4919 H 465.536 -4.02015 1.08502 0
M  V30 4920 H 468.133 -5.14407 -1.45909 0
M  V30 4921 H 468.476 -3.57196 -2.13815 0
M  V30 4922 H 469.009 -3.94873 -0.481687 0
M  V30 4923 H 465.748 -6.44955 1.17105 0
M  V30 4924 H 465.268 -5.97911 -0.475655 0
M  V30 4925 H 466.947 -6.46852 -0.138354 0
M  V30 4926 O 467.118 -0.15707 -1.60734 0
M  V30 4927 H 467.809 0.435157 -1.88749 0
M  V30 END ATOM
M  V30 BEGIN BOND
M  V30 END BOND
M  V30 END CTAB
M  END
$$$$
