drugbank_target|Q5SHQ5 30S ribosomal protein S5 (DB08185)
 OpenBabel12092120483D

  0  0  0     0  0            999 V3000
M  V30 BEGIN CTAB
M  V30 COUNTS 2520 2538 0 0 0
M  V30 BEGIN ATOM
M  V30 1 H -0.908 1.98254 -0.117106 0
M  V30 2 N 0 1.576 0 0
M  V30 3 C 0.933 2.03868 1.02534 0
M  V30 4 C 1.911 0.928543 1.3348 0
M  V30 5 O 3.095 1.19667 1.45644 0
M  V30 6 C 0.222 2.43627 2.35294 0
M  V30 7 C -0.732 3.65373 2.2001 0
M  V30 8 S 0.101 5.13292 1.52614 0
M  V30 9 C 1.257 5.56322 2.86805 0
M  V30 10 H 1.49 2.90518 0.631377 0
M  V30 11 H -0.977 1.52953 0.210867 0
M  V30 12 H 0.981 2.67203 3.11629 0
M  V30 13 H -0.358 1.57376 2.7183 0
M  V30 14 H -1.165 3.90944 3.18086 0
M  V30 15 H -1.563 3.418 1.51819 0
M  V30 16 H 0.729 5.58782 3.83104 0
M  V30 17 H 1.672 6.56266 2.65933 0
M  V30 18 H 2.08 4.83886 2.90714 0
M  V30 19 N 1.4781 -0.272755 1.55222 0
M  V30 20 C 2.8891 -0.84378 1.66545 0
M  V30 21 C 3.2401 -1.87035 0.592641 0
M  V30 22 O 2.3651 -2.14761 -0.265818 0
M  V30 23 C 2.9601 -1.53723 3.01918 0
M  V30 24 C 1.5191 -2.05628 3.15268 0
M  V30 25 C 0.6661 -0.898424 2.62343 0
M  V30 26 H 3.6171 -0.0490998 1.58624 0
M  V30 27 H 3.6381 -2.40421 2.94921 0
M  V30 28 H 3.1501 -0.78983 3.79978 0
M  V30 29 H 1.2511 -2.83329 2.41983 0
M  V30 30 H 1.3641 -2.27142 4.21833 0
M  V30 31 H -0.2719 -1.29186 2.19506 0
M  V30 32 H 0.5111 -0.164528 3.42906 0
M  V30 33 N 2.9562 -1.48159 -0.537278 0
M  V30 34 C 3.8662 -1.64807 -1.6696 0
M  V30 35 C 4.8822 -0.530651 -1.65711 0
M  V30 36 O 6.0582 -0.800784 -1.84796 0
M  V30 37 C 3.1232 -1.67708 -3.03438 0
M  V30 38 C 2.1842 -2.91025 -3.156 0
M  V30 39 C 1.4172 -2.93778 -4.45567 0
M  V30 40 O 1.6402 -2.05153 -5.3223 0
M  V30 41 O 0.5742 -3.85868 -4.61941 0
M  V30 42 H 4.4002 -2.6066 -1.55853 0
M  V30 43 H 1.9852 -1.31475 -0.709549 0
M  V30 44 H 3.8672 -1.7218 -3.84619 0
M  V30 45 H 2.5422 -0.750278 -3.14885 0
M  V30 46 H 1.4492 -2.92089 -2.33741 0
M  V30 47 H 2.7822 -3.83065 -3.09066 0
M  V30 48 N 4.4343 0.785586 -1.36625 0
M  V30 49 C 5.6623 1.57448 -1.3423 0
M  V30 50 C 6.0773 1.88649 0.0755653 0
M  V30 51 O 5.4343 1.50414 1.03354 0
M  V30 52 C 5.4853 2.89316 -2.16745 0
M  V30 53 O 5.2063 2.59459 -3.53005 0
M  V30 54 C 6.7073 3.83606 -2.22174 0
M  V30 55 H 3.9273 0.488226 -0.4603 0
M  V30 56 H 6.4713 0.974733 -1.79775 0
M  V30 57 H 4.6263 3.4575 -1.74745 0
M  V30 58 H 5.0403 3.43804 -3.96105 0
M  V30 59 H 6.5143 4.73181 -2.8426 0
M  V30 60 H 6.9913 4.21734 -1.22627 0
M  V30 61 H 7.5973 3.33104 -2.64427 0
M  V30 62 N 5.9124 1.20967 1.01018 0
M  V30 63 C 7.1894 0.93264 1.71934 0
M  V30 64 C 7.5694 -0.55692 2.03621 0
M  V30 65 O 6.9174 -1.52035 1.7058 0
M  V30 66 C 7.1274 1.81233 2.98254 0
M  V30 67 C 8.4754 2.05804 3.71389 0
M  V30 68 O 9.4994 1.78539 3.08225 0
M  V30 69 O 8.3584 2.51888 4.84989 0
M  V30 70 H 5.4524 0.349272 0.749625 0
M  V30 71 H 7.9984 1.31871 1.06808 0
M  V30 72 H 6.7704 2.82067 2.71208 0
M  V30 73 H 6.3934 1.42674 3.7112 0
M  V30 74 N 7.3905 -1.2043 1.01659 0
M  V30 75 C 8.6375 -1.89797 0.705917 0
M  V30 76 C 8.9655 -1.78848 -0.764439 0
M  V30 77 O 8.2205 -1.16694 -1.57102 0
M  V30 78 C 8.5195 -3.40464 1.08714 0
M  V30 79 C 8.1855 -3.71614 2.5537 0
M  V30 80 C 6.8475 -3.79826 2.95441 0
M  V30 81 C 9.1995 -3.85915 3.50313 0
M  V30 82 C 6.5275 -3.99797 4.29394 0
M  V30 83 C 8.8795 -4.07396 4.83954 0
M  V30 84 C 7.5435 -4.13837 5.23732 0
M  V30 85 H 6.8135 -0.694518 0.258313 0
M  V30 86 H 9.4605 -1.42691 1.27717 0
M  V30 87 H 7.7655 -3.89385 0.434309 0
M  V30 88 H 9.4625 -3.92433 0.824461 0
M  V30 89 H 6.0525 -3.65822 2.23321 0
M  V30 90 H 10.2365 -3.78926 3.20513 0
M  V30 91 H 5.4925 -4.03018 4.59768 0
M  V30 92 H 9.6665 -4.17404 5.57447 0
M  V30 93 H 7.2935 -4.29064 6.27541 0
M  V30 94 N 8.8686 -0.792821 -1.36206 0
M  V30 95 C 9.7786 -0.194808 -2.3379 0
M  V30 96 C 10.7946 0.654869 -1.61206 0
M  V30 97 O 11.9706 0.569856 -1.9317 0
M  V30 98 C 9.0356 0.657721 -3.40404 0
M  V30 99 C 8.0966 -0.210849 -4.28782 0
M  V30 100 C 7.3296 0.601086 -5.30304 0
M  V30 101 O 7.5526 1.83682 -5.40016 0
M  V30 102 O 6.4866 -0.000808277 -6.019 0
M  V30 103 H 10.3126 -1.00172 -2.86704 0
M  V30 104 H 7.8976 -0.554341 -1.38735 0
M  V30 105 H 9.7796 1.14375 -4.05581 0
M  V30 106 H 8.4546 1.44247 -2.89784 0
M  V30 107 H 7.3616 -0.743714 -3.66633 0
M  V30 108 H 8.6946 -0.959195 -4.82763 0
M  V30 109 N 10.3467 1.47872 -0.545128 0
M  V30 110 C 11.2567 2.33633 0.212746 0
M  V30 111 C 12.2727 1.4744 0.923983 0
M  V30 112 O 13.4487 1.80393 0.895572 0
M  V30 113 C 10.5137 3.23884 1.23693 0
M  V30 114 C 9.5747 4.25961 0.534417 0
M  V30 115 C 8.8077 5.11899 1.5098 0
M  V30 116 O 9.0307 5.00077 2.7437 0
M  V30 117 O 7.9647 5.92831 1.0409 0
M  V30 118 H 11.7907 2.99714 -0.490416 0
M  V30 119 H 9.3757 1.46235 -0.305871 0
M  V30 120 H 11.2577 3.79666 1.82843 0
M  V30 121 H 9.9327 2.60446 1.92222 0
M  V30 122 H 8.8397 3.73972 -0.0979679 0
M  V30 123 H 10.1727 4.92079 -0.109213 0
M  V30 124 N 11.8248 0.280983 1.55075 0
M  V30 125 C 12.7718 -0.603937 2.22758 0
M  V30 126 C 13.7418 -1.1452 1.20309 0
M  V30 127 O 14.9268 -1.19343 1.48869 0
M  V30 128 C 12.0668 -1.77947 2.95684 0
M  V30 129 C 11.1798 -1.2715 4.12864 0
M  V30 130 C 10.3148 -2.4093 4.7342 0
M  V30 131 C 9.3538 -1.87165 5.82783 0
M  V30 132 N 8.4908 -2.94441 6.37377 0
M  V30 133 H 13.3308 -0.020124 2.97993 0
M  V30 134 H 10.8678 0.00183425 1.471 0
M  V30 135 H 12.8258 -2.47055 3.36184 0
M  V30 136 H 11.4558 -2.33522 2.22861 0
M  V30 137 H 10.5078 -0.473331 3.77444 0
M  V30 138 H 11.8198 -0.837751 4.91715 0
M  V30 139 H 10.9738 -3.18021 5.1667 0
M  V30 140 H 9.7128 -2.87623 3.93859 0
M  V30 141 H 8.7178 -1.08556 5.38976 0
M  V30 142 H 9.9428 -1.41401 6.64216 0
M  V30 143 H 7.8888 -3.40505 5.60707 0
M  V30 144 H 7.8058 -2.55501 7.11516 0
M  V30 145 H 9.0738 -3.71489 6.85285 0
M  V30 146 N 13.3029 -1.57598 0.00835791 0
M  V30 147 C 14.2359 -2.04409 -1.01451 0
M  V30 148 C 15.2139 -0.935609 -1.32985 0
M  V30 149 O 16.3979 -1.20437 -1.45007 0
M  V30 150 C 13.5249 -2.44872 -2.33999 0
M  V30 151 C 12.5709 -3.66535 -2.18069 0
M  V30 152 S 13.4039 -5.14095 -1.4989 0
M  V30 153 C 14.5599 -5.57835 -2.8385 0
M  V30 154 H 14.7929 -2.90849 -0.615961 0
M  V30 155 H 12.3259 -1.53063 -0.202752 0
M  V30 156 H 14.2839 -2.68852 -3.10208 0
M  V30 157 H 12.9449 -1.58815 -2.70992 0
M  V30 158 H 12.1379 -3.92626 -3.16008 0
M  V30 159 H 11.7399 -3.426 -1.50004 0
M  V30 160 H 14.0319 -5.60806 -3.80136 0
M  V30 161 H 14.9749 -6.57667 -2.62449 0
M  V30 162 H 15.3829 -4.85421 -2.88144 0
M  V30 163 N 14.781 0.264519 -1.55364 0
M  V30 164 C 16.03 0.992812 -1.75574 0
M  V30 165 C 16.343 1.87142 -0.568979 0
M  V30 166 O 17.549 2.63513 -0.653682 0
M  V30 167 C 16.005 1.81519 -3.10771 0
M  V30 168 C 15.613 0.984839 -4.37041 0
M  V30 169 C 17.357 2.53727 -3.40327 0
M  V30 170 C 15.264 1.80209 -5.63275 0
M  V30 171 H 14.194 0.374412 -0.65447 0
M  V30 172 H 16.845 0.248138 -1.81815 0
M  V30 173 H 15.227 2.60115 -2.98591 0
M  V30 174 H 16.401 0.242455 -4.60162 0
M  V30 175 H 14.716 0.37691 -4.14691 0
M  V30 176 H 17.313 3.15292 -4.3185 0
M  V30 177 H 17.656 3.24447 -2.60845 0
M  V30 178 H 18.189 1.82156 -3.53644 0
M  V30 179 H 14.928 1.13896 -6.45529 0
M  V30 180 H 14.448 2.52022 -5.44284 0
M  V30 181 H 16.127 2.37364 -6.01887 0
M  V30 182 N 16.2591 1.48442 0.529413 0
M  V30 183 C 17.1891 1.65902 1.64313 0
M  V30 184 C 18.1701 0.507897 1.6234 0
M  V30 185 O 19.3551 0.740503 1.79528 0
M  V30 186 C 16.4851 1.69911 3.02898 0
M  V30 187 C 15.4391 2.8453 3.19729 0
M  V30 188 C 14.7651 2.73629 4.59381 0
M  V30 189 C 16.0651 4.25821 3.02447 0
M  V30 190 H 17.7591 2.5914 1.49955 0
M  V30 191 H 15.3051 1.24709 0.719982 0
M  V30 192 H 17.2581 1.80715 3.80684 0
M  V30 193 H 15.9821 0.732524 3.18279 0
M  V30 194 H 14.6411 2.73283 2.44361 0
M  V30 195 H 14.2891 1.74938 4.71599 0
M  V30 196 H 13.9891 3.50541 4.71588 0
M  V30 197 H 15.5131 2.86401 5.39265 0
M  V30 198 H 16.9271 4.37898 3.70024 0
M  V30 199 H 15.3241 5.03735 3.26146 0
M  V30 200 H 16.3941 4.42244 1.98867 0
M  V30 201 N 17.7372 -0.778329 1.37039 0
M  V30 202 C 18.9862 -1.53189 1.3121 0
M  V30 203 C 19.2992 -1.95328 -0.103095 0
M  V30 204 O 20.5052 -2.70012 -0.283826 0
M  V30 205 C 18.9612 -2.76591 2.30272 0
M  V30 206 C 18.5692 -2.41577 3.77286 0
M  V30 207 C 20.3132 -3.5455 2.33441 0
M  V30 208 C 18.2202 -3.61441 4.68096 0
M  V30 209 H 17.1502 -0.5751 0.487622 0
M  V30 210 H 19.8012 -0.853101 1.62464 0
M  V30 211 H 18.1832 -3.46326 1.92027 0
M  V30 212 H 19.3572 -1.79668 4.2433 0
M  V30 213 H 17.6722 -1.76806 3.76999 0
M  V30 214 H 20.2692 -4.43628 2.98493 0
M  V30 215 H 20.6122 -3.93936 1.34611 0
M  V30 216 H 21.1452 -2.91805 2.7036 0
M  V30 217 H 17.8842 -3.27142 5.6803 0
M  V30 218 H 17.4042 -4.22478 4.25761 0
M  V30 219 H 19.0832 -4.28335 4.8491 0
M  V30 220 N 19.2153 -1.21501 -1.00376 0
M  V30 221 C 20.6313 -0.972629 -1.26539 0
M  V30 222 C 20.8313 0.340257 -1.98606 0
M  V30 223 O 19.8873 1.06561 -2.28913 0
M  V30 224 C 21.2003 -2.16404 -2.08781 0
M  V30 225 C 22.7483 -2.20643 -2.22004 0
M  V30 226 C 23.2233 -3.39306 -3.07629 0
M  V30 227 N 24.7143 -3.39401 -3.15217 0
M  V30 228 C 25.4493 -4.27867 -3.81729 0
M  V30 229 N 24.9453 -5.26533 -4.5026 0
M  V30 230 N 26.7383 -4.15672 -3.78382 0
M  V30 231 H 18.8893 -2.05929 -0.520281 0
M  V30 232 H 21.1523 -0.901803 -0.292328 0
M  V30 233 H 20.8583 -3.11554 -1.63178 0
M  V30 234 H 20.7323 -2.15567 -3.09533 0
M  V30 235 H 23.1193 -1.26048 -2.66825 0
M  V30 236 H 23.2003 -2.25523 -1.20718 0
M  V30 237 H 22.8443 -4.34195 -2.63509 0
M  V30 238 H 22.7743 -3.31665 -4.09031 0
M  V30 239 H 25.2653 -2.67997 -2.66432 0
M  V30 240 H 25.5783 -5.90337 -4.98721 0
M  V30 241 H 23.9233 -5.30457 -4.49044 0
M  V30 242 H 27.1143 -3.3785 -3.23998 0
M  V30 243 H 27.2873 -4.84825 -4.2994 0
M  V30 244 N 20.6934 1.19889 -1.02296 0
M  V30 245 C 22.1094 1.41462 -0.738954 0
M  V30 246 C 22.3094 1.89721 0.678846 0
M  V30 247 O 21.3654 2.07016 1.4457 0
M  V30 248 C 22.6784 2.43083 -1.77005 0
M  V30 249 C 24.2264 2.5684 -1.78892 0
M  V30 250 C 24.7014 3.61709 -2.80945 0
M  V30 251 N 26.1924 3.69199 -2.79725 0
M  V30 252 C 26.9274 4.50019 -3.55345 0
M  V30 253 N 26.4234 5.34592 -4.40662 0
M  V30 254 N 28.2164 4.44612 -3.43914 0
M  V30 255 H 20.3674 0.868827 -1.93817 0
M  V30 256 H 22.6304 0.44399 -0.837602 0
M  V30 257 H 22.3364 2.14636 -2.78612 0
M  V30 258 H 22.2104 3.4217 -1.58744 0
M  V30 259 H 24.5974 2.84614 -0.779674 0
M  V30 260 H 24.6784 1.57927 -2.01228 0
M  V30 261 H 24.3224 3.34678 -3.82038 0
M  V30 262 H 24.2524 4.60259 -2.5587 0
M  V30 263 H 26.7434 3.08794 -2.17842 0
M  V30 264 H 27.0564 5.93363 -4.95116 0
M  V30 265 H 25.4014 5.34073 -4.44737 0
M  V30 266 H 28.5924 3.7758 -2.76679 0
M  V30 267 H 28.7654 5.0736 -4.031 0
M  V30 268 N 22.1715 0.800033 1.35784 0
M  V30 269 C 23.3995 0.389606 2.03199 0
M  V30 270 C 23.8145 -0.997375 1.60306 0
M  V30 271 O 23.1715 -1.64154 0.797481 0
M  V30 272 C 23.2225 0.455855 3.58614 0
M  V30 273 O 22.9435 1.78815 3.99946 0
M  V30 274 C 24.4445 0.0374032 4.43284 0
M  V30 275 H 21.6645 0.159132 0.651857 0
M  V30 276 H 24.2085 1.08183 1.73541 0
M  V30 277 H 22.3635 -0.188057 3.86943 0
M  V30 278 H 22.7775 1.74636 4.94573 0
M  V30 279 H 24.2515 0.134882 5.51835 0
M  V30 280 H 24.7285 -1.01651 4.27275 0
M  V30 281 H 25.3345 0.654215 4.20238 0
M  V30 282 N 23.6496 -1.47581 0.552962 0
M  V30 283 C 24.6126 -2.28439 -0.186605 0
M  V30 284 C 25.6126 -1.36706 -0.84665 0
M  V30 285 O 26.8026 -1.59378 -0.703164 0
M  V30 286 C 23.9346 -3.16264 -1.2724 0
M  V30 287 H 25.1276 -2.95294 0.523609 0
M  V30 288 H 22.6806 -1.532 0.309745 0
M  V30 289 H 23.4156 -2.54091 -2.01514 0
M  V30 290 H 23.2006 -3.83769 -0.803968 0
M  V30 291 H 24.6906 -3.77198 -1.79196 0
M  V30 292 N 25.1277 -0.289203 -1.54924 0
M  V30 293 C 26.5437 0.0645403 -1.59469 0
M  V30 294 C 26.7437 1.53419 -1.30632 0
M  V30 295 O 25.7997 2.2852 -1.074 0
M  V30 296 C 27.1127 -0.32278 -2.98963 0
M  V30 297 C 28.6607 -0.270564 -3.11828 0
M  V30 298 C 29.1357 -0.632532 -4.53611 0
M  V30 299 N 30.6267 -0.584617 -4.59496 0
M  V30 300 C 31.3617 -0.837314 -5.67254 0
M  V30 301 N 30.8577 -1.15536 -6.83098 0
M  V30 302 N 32.6507 -0.765166 -5.56868 0
M  V30 303 H 24.8017 -1.24714 -1.71931 0
M  V30 304 H 27.0647 -0.504809 -0.802416 0
M  V30 305 H 26.7707 -1.34541 -3.24948 0
M  V30 306 H 26.6447 0.32944 -3.75759 0
M  V30 307 H 29.0317 0.742805 -2.85598 0
M  V30 308 H 29.1127 -0.957242 -2.37214 0
M  V30 309 H 28.7567 -1.64365 -4.80569 0
M  V30 310 H 28.6867 0.07609 -5.26545 0
M  V30 311 H 31.1777 -0.349248 -3.76283 0
M  V30 312 H 31.4907 -1.33447 -7.61191 0
M  V30 313 H 29.8357 -1.19328 -6.84679 0
M  V30 314 H 33.0267 -0.516432 -4.65243 0
M  V30 315 H 33.1997 -0.965477 -6.40767 0
M  V30 316 N 26.6058 1.57591 -0.0167156 0
M  V30 317 C 27.5388 2.04944 1.00366 0
M  V30 318 C 28.5168 0.942648 1.32487 0
M  V30 319 O 29.7008 1.21205 1.44367 0
M  V30 320 C 26.8278 2.46109 2.32697 0
M  V30 321 C 25.8738 3.67686 2.16123 0
M  V30 322 S 26.7068 5.14882 1.47161 0
M  V30 323 C 27.8628 5.59332 2.80888 0
M  V30 324 H 28.0958 2.91172 0.600528 0
M  V30 325 H 25.6288 1.53168 0.194632 0
M  V30 326 H 27.5868 2.70493 3.08778 0
M  V30 327 H 26.2478 1.6025 2.70146 0
M  V30 328 H 25.4408 3.94296 3.13922 0
M  V30 329 H 25.0428 3.43391 1.48185 0
M  V30 330 H 27.3348 5.62814 3.77156 0
M  V30 331 H 28.2778 6.5905 2.58958 0
M  V30 332 H 28.6858 4.86942 2.85565 0
M  V30 333 N 28.0839 -0.256276 1.55502 0
M  V30 334 C 29.0159 -1.33981 1.85962 0
M  V30 335 C 30.0289 -1.44743 0.745212 0
M  V30 336 O 31.2179 -1.4626 1.02324 0
M  V30 337 C 28.3179 -2.7194 2.02242 0
M  V30 338 C 27.4909 -2.83562 3.33033 0
M  V30 339 C 26.5499 -4.02304 3.39172 0
M  V30 340 O 25.5759 -3.92273 4.12444 0
M  V30 341 N 26.7779 -5.15045 2.67784 0
M  V30 342 H 29.5429 -1.08191 2.7949 0
M  V30 343 H 27.1039 -0.446388 1.55624 0
M  V30 344 H 29.0959 -3.49697 2.03701 0
M  V30 345 H 27.6659 -2.90479 1.15502 0
M  V30 346 H 26.8859 -1.92555 3.43971 0
M  V30 347 H 28.1739 -2.88271 4.19258 0
M  V30 348 H 27.5719 -5.26085 2.07968 0
M  V30 349 H 26.1289 -5.90972 2.74947 0
M  V30 350 N 29.562 -1.4872 -0.521534 0
M  V30 351 C 30.525 -1.63379 -1.60748 0
M  V30 352 C 31.525 -0.50661 -1.52611 0
M  V30 353 O 32.715 -0.772601 -1.5613 0
M  V30 354 C 29.847 -1.61192 -3.00383 0
M  V30 355 H 31.04 -2.60217 -1.49087 0
M  V30 356 H 28.593 -1.37444 -0.744235 0
M  V30 357 H 29.328 -0.65863 -3.17541 0
M  V30 358 H 29.113 -2.43032 -3.07698 0
M  V30 359 H 30.603 -1.7466 -3.7932 0
M  V30 360 N 31.0401 0.771051 -1.3745 0
M  V30 361 C 32.2881 1.52661 -1.32435 0
M  V30 362 C 32.6091 1.9479 0.0905024 0
M  V30 363 O 31.8791 1.66348 1.03466 0
M  V30 364 H 30.4591 0.566218 -0.487244 0
M  V30 365 H 33.1211 0.917636 -1.71946 0
M  V30 366 H 32.2171 2.42568 -1.96385 0
M  V30 367 N 32.5182 1.22032 0.997298 0
M  V30 368 C 33.7662 1.04016 1.73278 0
M  V30 369 C 34.0872 -0.426255 1.90284 0
M  V30 370 O 33.3572 -1.30694 1.45931 0
M  V30 371 H 31.9372 0.381897 0.642 0
M  V30 372 H 34.5992 1.5347 1.20137 0
M  V30 373 H 33.6952 1.51441 2.72896 0
M  V30 374 N 33.9963 -1.19345 1.0293 0
M  V30 375 C 35.4123 -1.41069 0.746446 0
M  V30 376 C 35.6123 -1.90078 -0.668776 0
M  V30 377 O 34.6683 -2.0778 -1.4347 0
M  V30 378 C 35.9813 -2.42141 1.78292 0
M  V30 379 C 37.5293 -2.55887 1.80252 0
M  V30 380 C 38.0043 -3.60214 2.8286 0
M  V30 381 N 39.4953 -3.67711 2.81679 0
M  V30 382 C 40.2303 -4.48128 3.57727 0
M  V30 383 N 39.7263 -5.32248 4.43491 0
M  V30 384 N 41.5193 -4.42782 3.46267 0
M  V30 385 H 33.6703 -0.858536 1.94275 0
M  V30 386 H 35.9333 -0.439541 0.839945 0
M  V30 387 H 35.6393 -2.13155 2.79746 0
M  V30 388 H 35.5133 -3.41323 1.60557 0
M  V30 389 H 37.9003 -2.84196 0.794757 0
M  V30 390 H 37.9813 -1.56858 2.02062 0
M  V30 391 H 37.6253 -3.32647 3.83807 0
M  V30 392 H 37.5553 -4.58895 2.58307 0
M  V30 393 H 40.0463 -3.07634 2.19476 0
M  V30 394 H 40.3593 -5.90729 4.98256 0
M  V30 395 H 38.7043 -5.31707 4.47564 0
M  V30 396 H 41.8953 -3.76107 2.78677 0
M  V30 397 H 42.0683 -5.05215 4.05785 0
M  V30 398 N 35.4744 -0.807222 -1.35358 0
M  V30 399 C 36.8904 -0.491038 -1.51858 0
M  V30 400 C 37.0904 0.987648 -1.75635 0
M  V30 401 O 36.1464 1.77265 -1.79815 0
M  V30 402 C 37.4594 -1.33695 -2.69344 0
M  V30 403 C 39.0074 -1.33246 -2.83222 0
M  V30 404 C 39.4824 -2.1625 -4.03733 0
M  V30 405 N 40.9734 -2.1379 -4.10911 0
M  V30 406 C 41.7084 -2.74772 -5.03277 0
M  V30 407 N 41.2044 -3.44684 -6.0097 0
M  V30 408 N 42.9974 -2.6441 -4.96028 0
M  V30 409 H 35.1484 -1.76485 -1.18181 0
M  V30 410 H 37.4114 -0.751199 -0.578276 0
M  V30 411 H 37.1174 -2.38634 -2.58354 0
M  V30 412 H 36.9914 -0.990618 -3.6396 0
M  V30 413 H 39.3784 -0.290911 -2.93663 0
M  V30 414 H 39.4594 -1.71866 -1.89461 0
M  V30 415 H 39.1034 -3.20445 -3.94052 0
M  V30 416 H 39.0334 -1.74989 -4.96675 0
M  V30 417 H 41.5244 -1.62923 -3.40976 0
M  V30 418 H 41.8374 -3.88501 -6.68047 0
M  V30 419 H 40.1824 -3.48788 -6.01142 0
M  V30 420 H 43.3734 -2.0938 -4.18662 0
M  V30 421 H 43.5464 -3.12225 -5.6782 0
M  V30 422 N 36.9525 1.47285 -0.560781 0
M  V30 423 C 38.1995 2.02464 -0.038062 0
M  V30 424 C 38.5275 1.43474 1.31322 0
M  V30 425 O 37.7825 0.581311 1.86867 0
M  V30 426 C 38.0815 3.57258 0.100784 0
M  V30 427 C 37.7475 4.35184 -1.18007 0
M  V30 428 C 36.4095 4.56194 -1.53103 0
M  V30 429 C 38.7615 4.80098 -2.02867 0
M  V30 430 C 36.0895 5.19367 -2.729 0
M  V30 431 C 38.4415 5.44593 -3.21871 0
M  V30 432 C 37.1055 5.63835 -3.57276 0
M  V30 433 H 36.3755 0.740869 -0.0139279 0
M  V30 434 H 39.0225 1.76916 -0.733012 0
M  V30 435 H 37.3275 3.81819 0.878724 0
M  V30 436 H 39.0245 3.97606 0.520639 0
M  V30 437 H 35.6145 4.19113 -0.8968 0
M  V30 438 H 39.7985 4.63642 -1.7706 0
M  V30 439 H 35.0545 5.32459 -3.00496 0
M  V30 440 H 39.2285 5.78358 -3.87911 0
M  V30 441 H 36.8555 6.12557 -4.50197 0
M  V30 442 N 38.4306 0.297415 1.54768 0
M  V30 443 C 39.8466 -0.0560823 1.59501 0
M  V30 444 C 40.0466 -1.52725 1.31444 0
M  V30 445 O 39.1026 -2.27947 1.08611 0
M  V30 446 C 40.4156 0.338631 2.98787 0
M  V30 447 C 41.9636 0.287097 3.11681 0
M  V30 448 C 42.4386 0.656579 4.53269 0
M  V30 449 N 43.9296 0.608977 4.59179 0
M  V30 450 C 44.6646 0.867385 5.66802 0
M  V30 451 N 44.1606 1.19157 6.82476 0
M  V30 452 N 45.9536 0.794687 5.56454 0
M  V30 453 H 38.1046 1.25624 1.71267 0
M  V30 454 H 40.3676 0.509057 0.799728 0
M  V30 455 H 40.0736 1.36263 3.2423 0
M  V30 456 H 39.9476 -0.309508 3.75928 0
M  V30 457 H 42.3346 -0.727649 2.85988 0
M  V30 458 H 42.4156 0.969809 2.36703 0
M  V30 459 H 42.0596 1.66912 4.7969 0
M  V30 460 H 41.9896 -0.0481649 5.26578 0
M  V30 461 H 44.4806 0.369198 3.76092 0
M  V30 462 H 44.7936 1.37482 7.60473 0
M  V30 463 H 43.1386 1.22958 6.84037 0
M  V30 464 H 46.3296 0.541098 4.64962 0
M  V30 465 H 46.5026 0.999445 6.40246 0
M  V30 466 N 39.9087 -1.5758 0.0250728 0
M  V30 467 C 41.1557 -1.91633 -0.654444 0
M  V30 468 C 41.4837 -0.901103 -1.72367 0
M  V30 469 O 40.7387 0.0905647 -1.9549 0
M  V30 470 C 41.0377 -3.32421 -1.31268 0
M  V30 471 C 40.7037 -4.49344 -0.374223 0
M  V30 472 C 39.3657 -4.8106 -0.115911 0
M  V30 473 C 41.7177 -5.20498 0.270432 0
M  V30 474 C 39.0457 -5.8129 0.79493 0
M  V30 475 C 41.3977 -6.21699 1.1693 0
M  V30 476 C 40.0617 -6.51859 1.43655 0
M  V30 477 H 39.3317 -0.701236 -0.239478 0
M  V30 478 H 41.9787 -1.91307 0.0859734 0
M  V30 479 H 40.2837 -3.28989 -2.12775 0
M  V30 480 H 41.9807 -3.56038 -1.84494 0
M  V30 481 H 38.5707 -4.24579 -0.58573 0
M  V30 482 H 42.7547 -4.96229 0.0839194 0
M  V30 483 H 38.0107 -6.03005 1.00973 0
M  V30 484 H 42.1847 -6.75955 1.67504 0
M  V30 485 H 39.8117 -7.2934 2.144 0
M  V30 486 N 41.3868 0.248026 -1.55636 0
M  V30 487 C 42.6348 0.974295 -1.77065 0
M  V30 488 C 42.9558 1.85897 -0.588849 0
M  V30 489 O 42.2258 1.91868 0.395407 0
M  V30 490 H 40.8058 0.362733 -0.653019 0
M  V30 491 H 43.4678 0.266244 -1.93073 0
M  V30 492 H 42.5638 1.59667 -2.68166 0
M  V30 493 N 42.8649 1.48995 0.513639 0
M  V30 494 C 43.8279 1.64229 1.59879 0
M  V30 495 C 44.8279 0.514696 1.5234 0
M  V30 496 O 46.0179 0.78087 1.55718 0
M  V30 497 C 43.1499 1.62783 2.99524 0
M  V30 498 H 44.3429 2.61004 1.47705 0
M  V30 499 H 41.8959 1.37837 0.736936 0
M  V30 500 H 42.6309 0.675461 3.17188 0
M  V30 501 H 42.4159 2.4466 3.06404 0
M  V30 502 H 43.9059 1.76669 3.78388 0
M  V30 503 N 44.343 -0.763751 1.37857 0
M  V30 504 C 45.273 -1.89103 1.36975 0
M  V30 505 C 46.254 -1.68439 0.237152 0
M  V30 506 O 47.439 -1.8918 0.438713 0
M  V30 507 C 44.569 -3.26496 1.18395 0
M  V30 508 C 43.523 -3.61741 2.28751 0
M  V30 509 C 42.849 -4.97762 1.95286 0
M  V30 510 C 44.149 -3.67665 3.70972 0
M  V30 511 H 45.843 -1.90099 2.31307 0
M  V30 512 H 43.389 -0.91319 1.11341 0
M  V30 513 H 45.342 -4.05003 1.16406 0
M  V30 514 H 44.066 -3.25955 0.205215 0
M  V30 515 H 42.725 -2.85547 2.29909 0
M  V30 516 H 42.373 -4.93769 0.959221 0
M  V30 517 H 42.073 -5.22313 2.69189 0
M  V30 518 H 43.597 -5.7866 1.94898 0
M  V30 519 H 45.011 -4.36307 3.719 0
M  V30 520 H 43.408 -4.03718 4.43995 0
M  V30 521 H 44.478 -2.68134 4.0402 0
M  V30 522 N 45.8211 -1.22559 -0.990812 0
M  V30 523 C 47.0671 -1.05297 -1.73322 0
M  V30 524 C 47.4001 0.410655 -1.89808 0
M  V30 525 O 46.6751 1.30439 -1.44277 0
M  V30 526 C 46.9581 -1.76713 -3.13759 0
M  V30 527 C 46.8111 -3.30684 -3.04907 0
M  V30 528 C 48.1301 -1.52121 -4.12974 0
M  V30 529 H 45.2491 -0.38392 -0.629106 0
M  V30 530 H 47.8911 -1.50926 -1.15418 0
M  V30 531 H 46.0411 -1.37924 -3.63193 0
M  V30 532 H 47.7131 -3.7893 -2.63077 0
M  V30 533 H 45.9561 -3.60253 -2.41661 0
M  V30 534 H 46.6271 -3.75833 -4.04294 0
M  V30 535 H 49.1031 -1.85819 -3.72304 0
M  V30 536 H 47.9791 -2.04582 -5.0935 0
M  V30 537 H 48.2401 -0.454257 -4.3976 0
M  V30 538 N 47.2992 1.18797 -1.03562 0
M  V30 539 C 48.5452 1.8893 -0.737113 0
M  V30 540 C 48.8782 1.79837 0.732956 0
M  V30 541 O 48.1532 1.19525 1.5344 0
M  V30 542 C 48.4362 3.39607 -1.19745 0
M  V30 543 C 48.2892 3.57537 -2.72924 0
M  V30 544 C 49.6082 4.33069 -0.783526 0
M  V30 545 H 46.7272 0.686057 -0.269249 0
M  V30 546 H 49.3692 1.39797 -1.28673 0
M  V30 547 H 47.5192 3.81583 -0.729855 0
M  V30 548 H 49.1912 3.24688 -3.27682 0
M  V30 549 H 47.4342 3.00363 -3.12993 0
M  V30 550 H 48.1052 4.63238 -3.00191 0
M  V30 551 H 50.5812 3.98846 -1.18581 0
M  V30 552 H 49.4572 5.3707 -1.13343 0
M  V30 553 H 49.7182 4.40986 0.313681 0
M  V30 554 N 48.7773 0.814389 1.34928 0
M  V30 555 C 50.0233 0.399013 1.98836 0
M  V30 556 C 50.3563 -1.03314 1.64438 0
M  V30 557 O 49.6313 -1.71811 0.911659 0
M  V30 558 C 49.9143 0.591629 3.55207 0
M  V30 559 C 49.7673 2.06928 3.99376 0
M  V30 560 C 51.0863 0.022199 4.40094 0
M  V30 561 H 48.2053 0.146451 0.722303 0
M  V30 562 H 50.8473 1.02537 1.59957 0
M  V30 563 H 48.9973 0.0584441 3.88456 0
M  V30 564 H 50.6693 2.66544 3.76499 0
M  V30 565 H 48.9123 2.56287 3.49999 0
M  V30 566 H 49.5833 2.1549 5.08201 0
M  V30 567 H 52.0593 0.477643 4.13349 0
M  V30 568 H 50.9353 0.186832 5.48582 0
M  V30 569 H 51.1963 -1.07215 4.28902 0
M  V30 570 N 50.2554 -1.46986 0.568584 0
M  V30 571 C 51.5034 -2.02041 0.0487022 0
M  V30 572 C 51.8244 -1.44408 -1.31039 0
M  V30 573 O 51.0944 -0.623477 -1.85714 0
M  V30 574 H 49.6744 -0.746849 0.015014 0
M  V30 575 H 52.3364 -1.80257 0.741168 0
M  V30 576 H 51.4324 -3.12085 -0.0308961 0
M  V30 577 N 51.7335 -0.305618 -1.54608 0
M  V30 578 C 53.0105 0.355652 -1.92339 0
M  V30 579 C 53.3905 1.71324 -1.23335 0
M  V30 580 O 52.7385 2.25473 -0.370702 0
M  V30 581 C 52.9485 0.46572 -3.45879 0
M  V30 582 C 54.2965 0.734426 -4.182 0
M  V30 583 O 55.3205 0.54935 -3.51938 0
M  V30 584 O 54.1795 1.09024 -5.35515 0
M  V30 585 H 51.2735 0.199666 -0.802535 0
M  V30 586 H 53.8195 -0.354017 -1.65966 0
M  V30 587 H 52.5915 -0.488461 -3.88239 0
M  V30 588 H 52.2145 1.22367 -3.78301 0
M  V30 589 N 53.2116 1.57565 -0.0334293 0
M  V30 590 C 54.6276 1.56297 0.322997 0
M  V30 591 C 54.8276 1.03945 1.7262 0
M  V30 592 O 53.8836 0.688109 2.42943 0
M  V30 593 C 55.1966 3.00232 0.167664 0
M  V30 594 C 56.7446 3.12078 0.240107 0
M  V30 595 C 57.2196 4.57859 0.113513 0
M  V30 596 N 58.7106 4.62887 0.170359 0
M  V30 597 C 59.4456 5.73319 0.0962517 0
M  V30 598 N 58.9416 6.92794 -0.0291881 0
M  V30 599 N 60.7346 5.61898 0.150551 0
M  V30 600 H 52.8856 1.89923 -0.950956 0
M  V30 601 H 55.1486 0.873824 -0.367608 0
M  V30 602 H 54.8546 3.42501 -0.799102 0
M  V30 603 H 54.7286 3.654 0.936083 0
M  V30 604 H 57.1156 2.69718 1.19733 0
M  V30 605 H 57.1966 2.49623 -0.558763 0
M  V30 606 H 56.8406 5.009 -0.840314 0
M  V30 607 H 56.7706 5.18299 0.931302 0
M  V30 608 H 59.2616 3.76954 0.26728 0
M  V30 609 H 59.5746 7.7276 -0.0789252 0
M  V30 610 H 57.9196 6.94971 -0.0640299 0
M  V30 611 H 61.1106 4.67448 0.246981 0
M  V30 612 H 61.2836 6.47938 0.0893365 0
M  V30 613 N 54.6897 -0.239769 1.55765 0
M  V30 614 C 55.6217 -1.32001 1.87372 0
M  V30 615 C 56.6347 -1.43944 0.760522 0
M  V30 616 O 57.8237 -1.45167 1.0387 0
M  V30 617 C 54.9237 -2.69779 2.05115 0
M  V30 618 C 54.0967 -2.80014 3.36022 0
M  V30 619 C 53.1557 -3.98684 3.4342 0
M  V30 620 O 52.1817 -3.87877 4.16582 0
M  V30 621 N 53.3837 -5.12176 2.73232 0
M  V30 622 H 56.1487 -1.0522 2.80622 0
M  V30 623 H 53.7097 -0.429857 1.56089 0
M  V30 624 H 55.7017 -3.47517 2.07399 0
M  V30 625 H 54.2717 -2.89237 1.18577 0
M  V30 626 H 53.4917 -1.88896 3.45994 0
M  V30 627 H 54.7797 -2.83808 4.22292 0
M  V30 628 H 54.1777 -5.2385 2.13536 0
M  V30 629 H 52.7347 -5.88022 2.81199 0
M  V30 630 N 56.1678 -1.49265 -0.50573 0
M  V30 631 C 57.4158 -1.582 -1.25766 0
M  V30 632 C 57.7368 -0.268482 -1.93143 0
M  V30 633 O 57.0068 0.711833 -1.8251 0
M  V30 634 H 55.5868 -0.582873 -0.467191 0
M  V30 635 H 58.2488 -1.85865 -0.586525 0
M  V30 636 H 57.3448 -2.37563 -2.02412 0
M  V30 637 N 57.6459 0.756429 -1.3826 0
M  V30 638 C 59.0619 1.0591 -1.19395 0
M  V30 639 C 59.2619 2.01459 -0.0406567 0
M  V30 640 O 58.3179 2.44909 0.614467 0
M  V30 641 C 59.6309 1.64191 -2.51916 0
M  V30 642 C 61.1789 1.76376 -2.58574 0
M  V30 643 C 61.6539 2.38069 -3.91264 0
M  V30 644 N 63.1449 2.45503 -3.92788 0
M  V30 645 C 63.8799 2.94126 -4.92217 0
M  V30 646 N 63.3759 3.42805 -6.02043 0
M  V30 647 N 65.1689 2.9314 -4.7961 0
M  V30 648 H 57.3199 0.122313 -2.12048 0
M  V30 649 H 59.5829 0.116892 -0.940766 0
M  V30 650 H 59.2889 1.01451 -3.3675 0
M  V30 651 H 59.1629 2.6329 -2.70108 0
M  V30 652 H 61.5499 2.38244 -1.74137 0
M  V30 653 H 61.6309 0.759894 -2.44252 0
M  V30 654 H 61.2749 1.76835 -4.76121 0
M  V30 655 H 61.2049 3.39091 -4.02895 0
M  V30 656 H 63.6959 2.1107 -3.13461 0
M  V30 657 H 64.0089 3.78354 -6.73846 0
M  V30 658 H 62.3539 3.4087 -6.05667 0
M  V30 659 H 65.5449 2.54419 -3.92923 0
M  V30 660 H 65.7179 3.30721 -5.5725 0
M  V30 661 N 59.124 1.23083 0.984299 0
M  V30 662 C 60.37 1.06214 1.72761 0
M  V30 663 C 60.703 -0.400584 1.90024 0
M  V30 664 O 59.978 -1.29672 1.44967 0
M  V30 665 C 60.261 1.78375 3.12817 0
M  V30 666 C 60.114 3.32296 3.03149 0
M  V30 667 C 61.433 1.54309 4.12161 0
M  V30 668 H 58.552 0.387251 0.627061 0
M  V30 669 H 61.194 1.51536 1.14616 0
M  V30 670 H 59.344 1.39848 3.62457 0
M  V30 671 H 61.016 3.8032 2.61064 0
M  V30 672 H 59.259 3.6153 2.39747 0
M  V30 673 H 59.93 3.77972 4.02295 0
M  V30 674 H 62.406 1.87791 3.71314 0
M  V30 675 H 61.282 2.07281 5.08258 0
M  V30 676 H 61.543 0.477572 4.39513 0
M  V30 677 N 60.6021 -1.18246 1.0419 0
M  V30 678 C 61.8501 -1.87886 0.744543 0
M  V30 679 C 62.1711 -1.8082 -0.730006 0
M  V30 680 O 61.4411 -1.22736 -1.52685 0
M  V30 681 H 60.0211 -0.695556 0.272417 0
M  V30 682 H 62.6831 -1.43494 1.31892 0
M  V30 683 H 61.7791 -2.9389 1.05049 0
M  V30 684 N 62.0802 -0.821533 -1.34494 0
M  V30 685 C 63.0102 -0.257138 -2.3208 0
M  V30 686 C 63.9912 0.625645 -1.58176 0
M  V30 687 O 65.1762 0.552811 -1.86166 0
M  V30 688 C 62.3062 0.582958 -3.42372 0
M  V30 689 C 61.2602 -0.202571 -4.2752 0
M  V30 690 C 60.5862 0.760179 -5.29269 0
M  V30 691 C 61.8862 -1.40998 -5.02908 0
M  V30 692 H 63.5802 -1.07247 -2.79532 0
M  V30 693 H 61.1262 -0.517163 -1.34393 0
M  V30 694 H 63.0792 0.987972 -4.09655 0
M  V30 695 H 61.8032 1.43133 -2.93565 0
M  V30 696 H 60.4622 -0.588936 -3.61838 0
M  V30 697 H 60.1102 1.60447 -4.76724 0
M  V30 698 H 59.8102 0.238809 -5.87115 0
M  V30 699 H 61.3342 1.16308 -5.9942 0
M  V30 700 H 62.7482 -1.07905 -5.63054 0
M  V30 701 H 61.1452 -1.86689 -5.70322 0
M  V30 702 H 62.2152 -2.1889 -4.32684 0
M  V30 703 N 63.5583 1.46682 -0.576371 0
M  V30 704 C 64.8063 2.02013 -0.0594163 0
M  V30 705 C 65.1273 1.45101 1.30271 0
M  V30 706 O 64.3973 0.633317 1.8538 0
M  V30 707 H 62.9773 0.746759 -0.0189745 0
M  V30 708 H 65.6393 1.79862 -0.750717 0
M  V30 709 H 64.7353 3.12097 0.014345 0
M  V30 710 N 65.0364 0.313813 1.54444 0
M  V30 711 C 66.2834 -0.291675 2.00388 0
M  V30 712 C 66.6114 -1.52904 1.2021 0
M  V30 713 O 65.8664 -1.93833 0.269707 0
M  V30 714 C 66.1654 -0.680386 3.50864 0
M  V30 715 C 65.8314 0.456699 4.48581 0
M  V30 716 C 64.4934 0.768824 4.75018 0
M  V30 717 C 66.8454 1.22098 5.06697 0
M  V30 718 C 64.1734 1.84812 5.56831 0
M  V30 719 C 66.5254 2.29029 5.89685 0
M  V30 720 C 65.1894 2.60834 6.14428 0
M  V30 721 H 64.4594 -0.106732 0.733273 0
M  V30 722 H 67.1064 0.43557 1.86481 0
M  V30 723 H 65.4114 -1.48791 3.62448 0
M  V30 724 H 67.1084 -1.16026 3.83847 0
M  V30 725 H 63.6984 0.203337 4.28117 0
M  V30 726 H 67.8824 0.993096 4.86263 0
M  V30 727 H 63.1384 2.09912 5.74236 0
M  V30 728 H 67.3124 2.887 6.33739 0
M  V30 729 H 64.9394 3.44596 6.77612 0
M  V30 730 N 66.5145 -1.57545 0.0417849 0
M  V30 731 C 67.7625 -1.91937 -0.632829 0
M  V30 732 C 68.0835 -0.919978 -1.71934 0
M  V30 733 O 67.3535 0.0366064 -1.95866 0
M  V30 734 H 65.9335 -0.708493 -0.236742 0
M  V30 735 H 68.5955 -1.9468 0.0925745 0
M  V30 736 H 67.6915 -2.92912 -1.07746 0
M  V30 737 N 67.9926 0.231505 -1.5589 0
M  V30 738 C 68.9396 1.28682 -1.91598 0
M  V30 739 C 69.9096 1.47071 -0.771974 0
M  V30 740 O 71.0946 1.60802 -1.027 0
M  V30 741 C 68.2346 2.6342 -2.22944 0
M  V30 742 C 67.3476 2.52912 -3.50228 0
M  V30 743 C 66.4826 3.80106 -3.7107 0
M  V30 744 C 65.5216 3.64279 -4.91902 0
M  V30 745 N 64.6586 4.834 -5.09184 0
M  V30 746 H 69.4986 0.975305 -2.81588 0
M  V30 747 H 67.0356 0.470299 -1.39379 0
M  V30 748 H 68.9936 3.41869 -2.39126 0
M  V30 749 H 67.6236 2.92687 -1.36139 0
M  V30 750 H 66.6756 1.6595 -3.42294 0
M  V30 751 H 67.9876 2.37133 -4.38827 0
M  V30 752 H 67.1416 4.66999 -3.87295 0
M  V30 753 H 65.8806 3.98799 -2.80733 0
M  V30 754 H 64.8856 2.7577 -4.75637 0
M  V30 755 H 66.1106 3.47067 -5.83714 0
M  V30 756 H 64.0566 5.02425 -4.21788 0
M  V30 757 H 63.9736 4.70311 -5.91898 0
M  V30 758 H 65.2416 5.71747 -5.29835 0
M  V30 759 N 69.4707 1.49531 0.497807 0
M  V30 760 C 70.4337 1.65916 1.58128 0
M  V30 761 C 71.4337 0.530825 1.51786 0
M  V30 762 O 72.6237 0.797342 1.54881 0
M  V30 763 C 69.7557 1.65951 2.9778 0
M  V30 764 H 70.9487 2.62556 1.44929 0
M  V30 765 H 68.5017 1.38611 0.722275 0
M  V30 766 H 69.2367 0.709065 3.16453 0
M  V30 767 H 69.0217 2.47897 3.03792 0
M  V30 768 H 70.5117 1.80673 3.76493 0
M  V30 769 N 70.9488 -0.749086 1.3866 0
M  V30 770 C 72.3598 -1.32664 1.31366 0
M  V30 771 C 72.7108 -1.96179 -0.028484 0
M  V30 772 O 71.8358 -1.9537 -0.93057 0
M  V30 773 C 72.4308 -2.41219 2.37905 0
M  V30 774 C 70.9898 -2.94684 2.34176 0
M  V30 775 C 70.1368 -1.68108 2.20533 0
M  V30 776 H 73.0878 -0.547628 1.48952 0
M  V30 777 H 73.1088 -3.21268 2.0388 0
M  V30 778 H 72.6208 -1.94962 3.35576 0
M  V30 779 H 70.7218 -3.45258 1.401 0
M  V30 780 H 70.8348 -3.48757 3.2849 0
M  V30 781 H 69.1988 -1.91907 1.67463 0
M  V30 782 H 69.9818 -1.23923 3.20153 0
M  V30 783 N 72.4269 -1.23603 -0.977757 0
M  V30 784 C 73.3369 -1.03632 -2.1047 0
M  V30 785 C 74.3529 0.0199435 -1.73989 0
M  V30 786 O 75.5289 -0.176076 -2.00629 0
M  V30 787 C 72.5939 -0.63276 -3.40877 0
M  V30 788 C 71.6549 -1.76437 -3.91367 0
M  V30 789 C 70.8879 -1.37997 -5.15551 0
M  V30 790 O 71.1109 -0.265357 -5.69782 0
M  V30 791 O 70.0449 -2.20201 -5.60174 0
M  V30 792 H 73.8709 -1.98086 -2.30208 0
M  V30 793 H 71.4559 -1.02332 -1.08851 0
M  V30 794 H 73.3379 -0.418761 -4.19314 0
M  V30 795 H 72.0129 0.282754 -3.22463 0
M  V30 796 H 70.9199 -2.03304 -3.14036 0
M  V30 797 H 72.2529 -2.6583 -4.14241 0
M  V30 798 N 73.905 1.17692 -1.04816 0
M  V30 799 C 75.151 1.88137 -0.75711 0
M  V30 800 C 75.484 1.80604 0.713841 0
M  V30 801 O 74.759 1.21146 1.52164 0
M  V30 802 C 75.042 3.38318 -1.2334 0
M  V30 803 C 74.895 3.54622 -2.76701 0
M  V30 804 C 76.214 4.32214 -0.829415 0
M  V30 805 H 73.333 0.683163 -0.27651 0
M  V30 806 H 75.975 1.38424 -1.30149 0
M  V30 807 H 74.125 3.80787 -0.770286 0
M  V30 808 H 75.797 3.21194 -3.31107 0
M  V30 809 H 74.04 2.97026 -3.16161 0
M  V30 810 H 74.711 4.60028 -3.05088 0
M  V30 811 H 77.187 3.97565 -1.22805 0
M  V30 812 H 76.063 5.35838 -1.19033 0
M  V30 813 H 76.324 4.41294 0.266891 0
M  V30 814 N 75.3831 0.828654 1.34056 0
M  V30 815 C 76.7941 0.477534 1.8049 0
M  V30 816 C 77.1451 -1.00258 1.6865 0
M  V30 817 O 76.2701 -1.78057 1.22982 0
M  V30 818 C 76.8651 0.860018 3.27703 0
M  V30 819 C 75.4241 0.561185 3.72193 0
M  V30 820 C 74.5711 1.07385 2.55663 0
M  V30 821 H 77.5221 1.0183 1.21722 0
M  V30 822 H 77.5431 0.166038 3.80138 0
M  V30 823 H 77.0551 1.93731 3.36288 0
M  V30 824 H 75.1561 -0.506465 3.69142 0
M  V30 825 H 75.2691 1.10926 4.66082 0
M  V30 826 H 73.6331 0.495149 2.49841 0
M  V30 827 H 74.4161 2.15771 2.67016 0
M  V30 828 N 76.8612 -1.46375 0.584142 0
M  V30 829 C 77.7912 -2.33103 -0.136037 0
M  V30 830 C 78.7722 -1.45431 -0.882255 0
M  V30 831 O 79.9572 -1.74246 -0.857434 0
M  V30 832 C 77.0872 -3.27731 -1.14933 0
M  V30 833 C 76.0412 -4.24855 -0.517862 0
M  V30 834 C 75.3672 -5.09001 -1.63773 0
M  V30 835 C 76.6672 -5.19439 0.545886 0
M  V30 836 H 78.3612 -2.93568 0.588086 0
M  V30 837 H 75.9072 -1.41166 0.284259 0
M  V30 838 H 77.8602 -3.87261 -1.66153 0
M  V30 839 H 76.5842 -2.65377 -1.90375 0
M  V30 840 H 75.2432 -3.6659 -0.0267361 0
M  V30 841 H 74.8912 -4.43031 -2.38185 0
M  V30 842 H 74.5912 -5.74777 -1.22085 0
M  V30 843 H 76.1152 -5.71396 -2.15266 0
M  V30 844 H 77.5292 -5.73177 0.118704 0
M  V30 845 H 75.9262 -5.93566 0.88317 0
M  V30 846 H 76.9962 -4.63285 1.43162 0
M  V30 847 N 78.3393 -0.321999 -1.54275 0
M  V30 848 C 79.3023 0.531975 -2.22941 0
M  V30 849 C 80.3023 1.04478 -1.22234 0
M  V30 850 O 81.4923 0.937452 -1.46825 0
M  V30 851 C 78.6243 1.73874 -2.93224 0
M  V30 852 H 79.8173 -0.0682612 -2.99822 0
M  V30 853 H 77.3703 -0.0730644 -1.56129 0
M  V30 854 H 78.1053 2.37825 -2.20476 0
M  V30 855 H 77.8903 1.37847 -3.6707 0
M  V30 856 H 79.3803 2.34496 -3.45545 0
M  V30 857 N 79.8174 1.5752 -0.0501392 0
M  V30 858 C 81.0634 1.92936 0.624798 0
M  V30 859 C 81.3964 0.928685 1.70555 0
M  V30 860 O 80.6714 -0.0454779 1.94447 0
M  V30 861 C 80.9544 3.38737 1.22185 0
M  V30 862 C 80.8074 4.49552 0.149218 0
M  V30 863 C 82.1264 3.84913 2.13378 0
M  V30 864 H 79.2454 0.701604 0.225657 0
M  V30 865 H 81.8874 1.89671 -0.111693 0
M  V30 866 H 80.0374 3.4165 1.84953 0
M  V30 867 H 81.7094 4.58768 -0.482648 0
M  V30 868 H 79.9524 4.30638 -0.522841 0
M  V30 869 H 80.6234 5.48653 0.606966 0
M  V30 870 H 83.0994 3.8387 1.60572 0
M  V30 871 H 81.9754 4.87584 2.52097 0
M  V30 872 H 82.2364 3.21611 3.03346 0
M  V30 873 N 81.2955 -0.223234 1.56011 0
M  V30 874 C 82.2275 -1.30006 1.88762 0
M  V30 875 C 83.2405 -1.43129 0.775746 0
M  V30 876 O 84.4295 -1.44057 1.05403 0
M  V30 877 C 81.5295 -2.67589 2.07965 0
M  V30 878 C 80.7025 -2.76434 3.38973 0
M  V30 879 C 79.7615 -3.95019 3.47629 0
M  V30 880 O 78.7875 -3.83436 4.20672 0
M  V30 881 N 79.9895 -5.09249 2.78649 0
M  V30 882 H 82.7545 -1.02238 2.81722 0
M  V30 883 H 80.3155 -0.413278 1.56536 0
M  V30 884 H 82.3075 -3.45297 2.11073 0
M  V30 885 H 80.8775 -2.87964 1.21638 0
M  V30 886 H 80.0975 -1.85216 3.47978 0
M  V30 887 H 81.3855 -2.79313 4.25278 0
M  V30 888 H 80.7835 -5.21556 2.19081 0
M  V30 889 H 79.3405 -5.85007 2.8742 0
M  V30 890 N 82.7736 -1.49793 -0.48987 0
M  V30 891 C 83.7206 -1.67281 -1.59014 0
M  V30 892 C 84.6906 -0.514177 -1.57941 0
M  V30 893 O 85.8756 -0.742533 -1.75759 0
M  V30 894 C 83.0156 -1.75569 -2.97102 0
M  V30 895 C 82.1286 -3.0281 -3.08107 0
M  V30 896 C 81.2636 -3.02008 -4.36995 0
M  V30 897 C 80.3026 -4.23782 -4.41673 0
M  V30 898 N 79.4396 -4.20826 -5.62005 0
M  V30 899 H 84.2796 -2.61224 -1.43409 0
M  V30 900 H 81.8166 -1.29508 -0.697565 0
M  V30 901 H 83.7746 -1.78354 -3.77155 0
M  V30 902 H 82.4046 -0.850827 -3.11385 0
M  V30 903 H 81.4566 -3.09584 -2.21047 0
M  V30 904 H 82.7686 -3.92801 -3.07423 0
M  V30 905 H 81.9226 -3.03418 -5.25378 0
M  V30 906 H 80.6616 -2.09815 -4.4026 0
M  V30 907 H 79.6666 -4.22604 -3.5169 0
M  V30 908 H 80.8916 -5.17181 -4.40115 0
M  V30 909 H 78.8376 -3.31476 -5.66091 0
M  V30 910 H 78.7546 -5.04564 -5.62984 0
M  V30 911 H 80.0226 -4.26355 -6.52565 0
M  V30 912 N 84.2517 0.741722 -1.39055 0
M  V30 913 C 85.2147 1.83733 -1.37021 0
M  V30 914 C 86.2147 1.58542 -0.268534 0
M  V30 915 O 87.4047 1.66067 -0.526076 0
M  V30 916 C 84.5367 3.2141 -1.13617 0
M  V30 917 H 85.7297 1.86941 -2.34506 0
M  V30 918 H 83.2827 0.944676 -1.24521 0
M  V30 919 H 84.0177 3.23865 -0.167863 0
M  V30 920 H 83.8027 3.4109 -1.93391 0
M  V30 921 H 85.2927 4.01477 -1.14918 0
M  V30 922 N 85.7298 1.2412 0.971189 0
M  V30 923 C 86.9778 1.07668 1.71032 0
M  V30 924 C 87.2988 -0.385797 1.91146 0
M  V30 925 O 86.5688 -1.27569 1.4867 0
M  V30 926 H 85.1488 0.395429 0.633755 0
M  V30 927 H 87.8108 1.55984 1.16855 0
M  V30 928 H 86.9068 1.57195 2.69622 0
M  V30 929 N 87.2079 -1.17134 1.05439 0
M  V30 930 C 88.4379 -1.91094 0.785274 0
M  V30 931 C 88.8459 -1.77198 -0.663142 0
M  V30 932 O 88.1889 -1.10835 -1.46497 0
M  V30 933 C 88.2509 -3.42594 1.08949 0
M  V30 934 C 87.9149 -3.80274 2.53458 0
M  V30 935 C 88.9119 -3.82912 3.51673 0
M  V30 936 C 86.5969 -4.11162 2.88532 0
M  V30 937 C 88.5909 -4.15913 4.83006 0
M  V30 938 C 86.2779 -4.43831 4.20068 0
M  V30 939 C 87.2759 -4.46185 5.17115 0
M  V30 940 O 86.9639 -4.78083 6.46291 0
M  V30 941 H 86.6959 -0.613073 0.284811 0
M  V30 942 H 89.2499 -1.49461 1.40893 0
M  V30 943 H 87.4799 -3.84534 0.408741 0
M  V30 944 H 89.1689 -3.97817 0.805991 0
M  V30 945 H 89.9349 -3.5917 3.25917 0
M  V30 946 H 85.8139 -4.085 2.13656 0
M  V30 947 H 89.3579 -4.17665 5.5875 0
M  V30 948 H 85.2549 -4.67037 4.45586 0
M  V30 949 H 86.0229 -4.9593 6.51149 0
M  V30 950 N 88.686 -0.835752 -1.33615 0
M  V30 951 C 89.916 -0.442701 -2.01801 0
M  V30 952 C 90.324 0.959807 -1.63047 0
M  V30 953 O 89.667 1.63468 -0.838088 0
M  V30 954 C 89.729 -0.480125 -3.56279 0
M  V30 955 C 89.393 -1.8382 -4.18401 0
M  V30 956 C 90.39 -2.80097 -4.37998 0
M  V30 957 C 88.075 -2.13019 -4.54894 0
M  V30 958 C 90.069 -4.03736 -4.9323 0
M  V30 959 C 87.756 -3.36916 -5.09834 0
M  V30 960 C 88.754 -4.32091 -5.28948 0
M  V30 961 O 88.442 -5.53797 -5.82721 0
M  V30 962 H 88.174 -0.17441 -0.653114 0
M  V30 963 H 90.728 -1.129 -1.71589 0
M  V30 964 H 88.958 0.262931 -3.85805 0
M  V30 965 H 90.647 -0.105335 -4.05763 0
M  V30 966 H 91.413 -2.58838 -4.10156 0
M  V30 967 H 87.292 -1.39733 -4.39313 0
M  V30 968 H 90.836 -4.78034 -5.08064 0
M  V30 969 H 86.733 -3.58033 -5.37106 0
M  V30 970 H 87.501 -5.55494 -6.0114 0
M  V30 971 N 90.1641 1.46063 -0.591896 0
M  V30 972 C 91.1271 2.28854 0.125973 0
M  V30 973 C 92.1271 1.38903 0.810107 0
M  V30 974 O 93.3171 1.61186 0.66066 0
M  V30 975 C 90.4491 3.19526 1.1881 0
M  V30 976 H 91.6421 2.93802 -0.601717 0
M  V30 977 H 89.1951 1.52325 -0.350254 0
M  V30 978 H 89.9301 2.59345 1.94707 0
M  V30 979 H 89.7151 3.85766 0.701936 0
M  V30 980 H 91.2051 3.81817 1.69132 0
M  V30 981 N 91.6422 0.330177 1.54103 0
M  V30 982 C 93.0582 -0.0222371 1.59585 0
M  V30 983 C 93.2582 -1.49902 1.34654 0
M  V30 984 O 92.3142 -2.25592 1.13421 0
M  V30 985 C 93.6272 0.401932 2.98002 0
M  V30 986 C 95.1752 0.353145 3.11001 0
M  V30 987 C 95.6502 0.752576 4.51775 0
M  V30 988 N 97.1412 0.706239 4.57784 0
M  V30 989 C 97.8762 0.987417 5.64834 0
M  V30 990 N 97.3722 1.33607 6.79795 0
M  V30 991 N 99.1652 0.91254 5.54643 0
M  V30 992 H 91.3162 1.29228 1.68564 0
M  V30 993 H 93.5792 0.525906 0.78875 0
M  V30 994 H 93.2852 1.4311 3.21267 0
M  V30 995 H 93.1592 -0.229699 3.765 0
M  V30 996 H 95.5462 -0.666822 2.87467 0
M  V30 997 H 95.6272 1.0198 2.34593 0
M  V30 998 H 95.2712 1.77049 4.76042 0
M  V30 999 H 95.2012 0.0635409 5.26562 0
M  V30 1000 H 97.6922 0.44889 3.75224 0
M  V30 1001 H 98.0052 1.53582 7.57385 0
M  V30 1002 H 96.3502 1.37439 6.81275 0
M  V30 1003 H 99.5412 0.639601 4.6371 0
M  V30 1004 H 99.7142 1.13503 6.37982 0
M  V30 1005 N 93.1203 -1.57491 0.0584922 0
M  V30 1006 C 94.5363 -1.56792 -0.298091 0
M  V30 1007 C 94.7363 -1.06679 -1.70944 0
M  V30 1008 O 93.7923 -0.726672 -2.41818 0
M  V30 1009 C 95.1053 -3.00461 -0.119879 0
M  V30 1010 C 96.6533 -3.1242 -0.190428 0
M  V30 1011 C 97.1283 -4.57982 -0.0406567 0
M  V30 1012 N 98.6193 -4.63099 -0.0966958 0
M  V30 1013 C 99.3543 -5.734 -0.00502943 0
M  V30 1014 N 98.8503 -6.9266 0.139402 0
M  V30 1015 N 100.643 -5.62067 -0.0611391 0
M  V30 1016 H 92.7943 -1.88386 0.98105 0
M  V30 1017 H 95.0573 -0.867865 0.381463 0
M  V30 1018 H 94.7633 -3.41187 0.85349 0
M  V30 1019 H 94.6373 -3.66843 -0.877833 0
M  V30 1020 H 97.0243 -2.71589 -1.15427 0
M  V30 1021 H 97.1053 -2.48702 0.598405 0
M  V30 1022 H 96.7493 -4.995 0.919897 0
M  V30 1023 H 96.6793 -5.19715 -0.848727 0
M  V30 1024 H 99.1703 -3.77331 -0.207277 0
M  V30 1025 H 99.4833 -7.72536 0.201855 0
M  V30 1026 H 97.8283 -6.94781 0.174586 0
M  V30 1027 H 101.019 -4.67782 -0.172583 0
M  V30 1028 H 101.192 -6.47999 0.0137562 0
M  V30 1029 N 94.5984 0.214957 -1.56127 0
M  V30 1030 C 95.5464 1.28601 -1.93816 0
M  V30 1031 C 96.5404 1.48175 -0.821016 0
M  V30 1032 O 97.7464 1.49271 -1.0059 0
M  V30 1033 H 94.1214 0.431302 -0.616022 0
M  V30 1034 H 96.0924 0.940991 -2.83175 0
M  V30 1035 C 94.8414 2.62779 -2.27689 0
M  V30 1036 H 94.1644 2.48527 -3.13168 0
M  V30 1037 H 95.6044 3.36517 -2.57939 0
M  V30 1038 C 94.0634 3.18285 -1.10436 0
M  V30 1039 O 94.5934 4.00002 -0.368945 0
M  V30 1040 N 92.7994 2.7675 -0.886433 0
M  V30 1041 H 92.3464 2.10404 -1.48619 0
M  V30 1042 H 92.3044 3.14229 -0.103656 0
M  V30 1043 N 96.0765 1.50051 0.48192 0
M  V30 1044 C 97.0095 1.62749 1.59963 0
M  V30 1045 C 97.9875 0.475903 1.5548 0
M  V30 1046 O 99.1715 0.693986 1.7526 0
M  V30 1047 C 96.2985 1.60008 2.98522 0
M  V30 1048 C 95.3445 2.80596 3.21198 0
M  V30 1049 S 96.1775 4.42038 3.02262 0
M  V30 1050 C 97.3335 4.41973 4.43182 0
M  V30 1051 H 97.5665 2.57296 1.4895 0
M  V30 1052 H 95.0995 1.39179 0.668477 0
M  V30 1053 H 97.0575 1.59112 3.78409 0
M  V30 1054 H 95.7185 0.667153 3.06933 0
M  V30 1055 H 94.9115 2.74952 4.22395 0
M  V30 1056 H 94.5135 2.79003 2.49065 0
M  V30 1057 H 96.8055 4.14868 5.35622 0
M  V30 1058 H 97.7485 5.43512 4.53873 0
M  V30 1059 H 98.1565 3.71812 4.24755 0
M  V30 1060 N 97.5546 -0.734337 1.39446 0
M  V30 1061 C 98.8006 -1.49613 1.36908 0
M  V30 1062 C 99.1336 -1.94169 -0.0347829 0
M  V30 1063 O 98.4086 -1.66833 -0.999847 0
M  V30 1064 C 98.6916 -2.73534 2.34203 0
M  V30 1065 C 98.5446 -2.34993 3.83534 0
M  V30 1066 C 99.8636 -3.75635 2.29317 0
M  V30 1067 H 96.9826 -0.542714 0.498629 0
M  V30 1068 H 99.6246 -0.839597 1.70443 0
M  V30 1069 H 97.7746 -3.29553 2.05736 0
M  V30 1070 H 99.4466 -1.84601 4.22753 0
M  V30 1071 H 97.6896 -1.67213 4.00278 0
M  V30 1072 H 98.3606 -3.23738 4.47099 0
M  V30 1073 H 100.837 -3.29203 2.54489 0
M  V30 1074 H 99.7126 -4.60008 2.99472 0
M  V30 1075 H 99.9736 -4.22603 1.29842 0
M  V30 1076 N 99.0327 -1.24633 -0.964593 0
M  V30 1077 C 99.9427 -1.05859 -2.09359 0
M  V30 1078 C 100.959 0.00148855 -1.74 0
M  V30 1079 O 102.135 -0.197346 -2.00431 0
M  V30 1080 C 99.1997 -0.668879 -3.40187 0
M  V30 1081 C 98.2607 -1.80578 -3.89474 0
M  V30 1082 C 97.4937 -1.43457 -5.14058 0
M  V30 1083 O 97.7167 -0.325775 -5.69469 0
M  V30 1084 O 96.6507 -2.2613 -5.57807 0
M  V30 1085 H 100.477 -2.00516 -2.28094 0
M  V30 1086 H 98.0617 -1.03481 -1.0776 0
M  V30 1087 H 99.9437 -0.463211 -4.18846 0
M  V30 1088 H 98.6187 0.248536 -3.22744 0
M  V30 1089 H 97.5257 -2.06623 -3.11862 0
M  V30 1090 H 98.8587 -2.70208 -4.11398 0
M  V30 1091 N 100.511 1.16574 -1.06058 0
M  V30 1092 C 101.757 1.87324 -0.777022 0
M  V30 1093 C 102.09 1.81351 0.694645 0
M  V30 1094 O 101.365 1.22753 1.50871 0
M  V30 1095 C 101.648 3.36991 -1.26922 0
M  V30 1096 C 101.501 3.51667 -2.80447 0
M  V30 1097 C 102.82 4.3131 -0.87521 0
M  V30 1098 H 99.9388 0.680191 -0.28374 0
M  V30 1099 H 102.581 1.37036 -1.3161 0
M  V30 1100 H 100.731 3.79949 -0.81063 0
M  V30 1101 H 102.403 3.17664 -3.34495 0
M  V30 1102 H 100.646 2.93656 -3.19294 0
M  V30 1103 H 101.317 4.56766 -3.0995 0
M  V30 1104 H 103.793 3.9624 -1.27014 0
M  V30 1105 H 102.669 5.34545 -1.2471 0
M  V30 1106 H 102.93 4.41552 0.220071 0
M  V30 1107 N 101.989 0.842826 1.3317 0
M  V30 1108 C 103.4 0.496651 1.79973 0
M  V30 1109 C 103.751 -0.984641 1.69703 0
M  V30 1110 O 102.876 -1.76743 1.24863 0
M  V30 1111 C 103.471 0.894727 3.26772 0
M  V30 1112 C 102.03 0.600629 3.71577 0
M  V30 1113 C 101.177 1.10091 2.5451 0
M  V30 1114 H 104.128 1.03116 1.20635 0
M  V30 1115 H 104.149 0.206347 3.7994 0
M  V30 1116 H 103.661 1.97287 3.34215 0
M  V30 1117 H 101.762 -0.467284 3.69658 0
M  V30 1118 H 101.875 1.15863 4.64879 0
M  V30 1119 H 100.239 0.52162 2.49301 0
M  V30 1120 H 101.022 2.18591 2.64713 0
M  V30 1121 N 103.467 -1.45747 0.599634 0
M  V30 1122 C 104.397 -2.33235 -0.111306 0
M  V30 1123 C 105.378 -1.46359 -0.866781 0
M  V30 1124 O 106.563 -1.75146 -0.838904 0
M  V30 1125 C 103.693 -3.28932 -1.11451 0
M  V30 1126 C 102.647 -4.25381 -0.472772 0
M  V30 1127 C 101.973 -5.1071 -1.58365 0
M  V30 1128 C 103.273 -5.18831 0.600948 0
M  V30 1129 H 104.967 -2.92927 0.61919 0
M  V30 1130 H 102.513 -1.40857 0.299215 0
M  V30 1131 H 104.466 -3.89002 -1.62036 0
M  V30 1132 H 103.19 -2.67381 -1.8755 0
M  V30 1133 H 101.849 -3.66598 0.0121472 0
M  V30 1134 H 101.497 -4.45533 -2.33473 0
M  V30 1135 H 101.197 -5.7604 -1.15982 0
M  V30 1136 H 102.721 -5.73647 -2.09194 0
M  V30 1137 H 104.135 -5.73019 0.179491 0
M  V30 1138 H 102.532 -5.92595 0.946076 0
M  V30 1139 H 103.602 -4.6174 1.48068 0
M  V30 1140 N 104.945 -0.338344 -1.53925 0
M  V30 1141 C 105.877 0.555117 -2.22376 0
M  V30 1142 C 106.89 1.06812 -1.22862 0
M  V30 1143 O 108.079 0.979163 -1.49247 0
M  V30 1144 C 105.179 1.77609 -2.88631 0
M  V30 1145 C 104.352 1.39927 -4.14414 0
M  V30 1146 C 103.411 2.47936 -4.64127 0
M  V30 1147 O 102.437 2.11461 -5.28463 0
M  V30 1148 N 103.639 3.79107 -4.39612 0
M  V30 1149 H 106.404 -0.0310778 -2.99684 0
M  V30 1150 H 103.965 -0.162226 -1.61085 0
M  V30 1151 H 105.957 2.49287 -3.18807 0
M  V30 1152 H 104.527 2.26978 -2.14941 0
M  V30 1153 H 103.747 0.513481 -3.90841 0
M  V30 1154 H 105.035 1.12341 -4.96243 0
M  V30 1155 H 104.433 4.11531 -3.88148 0
M  V30 1156 H 102.99 4.4697 -4.74406 0
M  V30 1157 N 106.423 1.57458 -0.0668435 0
M  V30 1158 C 107.371 2.13639 0.919851 0
M  V30 1159 C 108.365 1.07204 1.31163 0
M  V30 1160 O 109.571 1.25591 1.28945 0
M  V30 1161 H 105.946 0.683048 0.314562 0
M  V30 1162 H 107.917 2.95415 0.421047 0
M  V30 1163 C 106.666 2.70892 2.17975 0
M  V30 1164 H 105.989 3.5246 1.88711 0
M  V30 1165 H 107.429 3.13803 2.85138 0
M  V30 1166 C 105.888 1.65414 2.93496 0
M  V30 1167 O 106.418 1.07619 3.87015 0
M  V30 1168 N 104.624 1.36564 2.56512 0
M  V30 1169 H 104.171 1.83751 1.80536 0
M  V30 1170 H 104.129 0.66223 3.07347 0
M  V30 1171 N 107.901 -0.206675 1.56239 0
M  V30 1172 C 109.149 -0.927007 1.79586 0
M  V30 1173 C 109.47 -1.8427 0.637929 0
M  V30 1174 O 108.74 -1.92849 -0.344398 0
M  V30 1175 H 107.32 -0.345292 0.662407 0
M  V30 1176 H 109.982 -0.21496 1.93711 0
M  V30 1177 H 109.078 -1.52501 2.72305 0
M  V30 1178 N 109.379 -1.50304 -0.473955 0
M  V30 1179 C 110.607 -1.64902 -1.24959 0
M  V30 1180 C 111.022 -0.331198 -1.85872 0
M  V30 1181 O 110.379 0.68652 -1.69095 0
M  V30 1182 C 110.43 -2.73803 -2.36038 0
M  V30 1183 O 110.151 -4.00477 -1.77624 0
M  V30 1184 C 111.652 -2.99349 -3.26964 0
M  V30 1185 H 108.872 -0.554383 -0.378022 0
M  V30 1186 H 111.416 -1.9651 -0.566054 0
M  V30 1187 H 109.571 -2.44898 -3.00173 0
M  V30 1188 H 109.985 -4.60678 -2.5075 0
M  V30 1189 H 111.459 -3.79217 -4.01121 0
M  V30 1190 H 111.936 -2.10307 -3.85574 0
M  V30 1191 H 112.542 -3.29774 -2.68569 0
M  V30 1192 N 110.857 0.726932 -1.39834 0
M  V30 1193 C 112.106 1.48214 -1.36805 0
M  V30 1194 C 112.419 1.95576 0.0305291 0
M  V30 1195 O 113.625 2.7088 0.183417 0
M  V30 1196 C 112.081 2.67854 -2.40379 0
M  V30 1197 C 111.689 2.27408 -3.85992 0
M  V30 1198 C 113.433 3.45641 -2.46439 0
M  V30 1199 C 111.34 3.43819 -4.81189 0
M  V30 1200 H 110.27 0.556606 -0.508631 0
M  V30 1201 H 112.921 0.792216 -1.65518 0
M  V30 1202 H 111.303 3.3896 -2.04749 0
M  V30 1203 H 112.477 1.63795 -4.30706 0
M  V30 1204 H 110.792 1.62692 -3.83302 0
M  V30 1205 H 113.389 4.32244 -3.14753 0
M  V30 1206 H 113.732 3.88669 -1.49139 0
M  V30 1207 H 114.265 2.8157 -2.81004 0
M  V30 1208 H 111.004 3.05834 -5.79781 0
M  V30 1209 H 110.524 4.06385 -4.41148 0
M  V30 1210 H 112.203 4.10043 -5.00474 0
M  V30 1211 N 112.336 1.25143 0.95797 0
M  V30 1212 C 113.747 1.08851 1.51685 0
M  V30 1213 C 114.098 -0.33687 1.93286 0
M  V30 1214 O 113.223 -1.22644 1.7829 0
M  V30 1215 C 113.818 1.96978 2.75654 0
M  V30 1216 C 112.377 1.84881 3.27866 0
M  V30 1217 C 111.524 1.91329 2.0072 0
M  V30 1218 H 114.475 1.38478 0.77522 0
M  V30 1219 H 114.496 1.5078 3.4935 0
M  V30 1220 H 114.008 3.00712 2.45345 0
M  V30 1221 H 112.109 0.840182 3.63004 0
M  V30 1222 H 112.222 2.6951 3.96107 0
M  V30 1223 H 110.586 1.35174 2.15871 0
M  V30 1224 H 111.369 2.96661 1.72764 0
M  V30 1225 N 113.814 -1.1601 1.06675 0
M  V30 1226 C 114.764 -2.18512 0.650888 0
M  V30 1227 C 115.748 -1.57677 -0.320441 0
M  V30 1228 O 116.94 -1.76482 -0.135266 0
M  V30 1229 C 114.069 -3.43273 0.0429255 0
M  V30 1230 C 113.155 -4.11176 1.03898 0
M  V30 1231 N 113.546 -4.54672 2.216 0
M  V30 1232 C 111.844 -4.37417 0.870779 0
M  V30 1233 C 112.545 -5.07248 2.84736 0
M  V30 1234 N 111.521 -5.0037 2.12441 0
M  V30 1235 H 115.323 -2.49863 1.54745 0
M  V30 1236 H 112.837 -1.32503 0.938975 0
M  V30 1237 H 114.834 -4.16006 -0.272857 0
M  V30 1238 H 113.494 -3.13408 -0.84884 0
M  V30 1239 H 114.505 -4.4828 2.59356 0
M  V30 1240 H 111.182 -4.17488 0.0313293 0
M  V30 1241 H 112.572 -5.50912 3.84636 0
M  V30 1242 N 115.292 -0.849877 -1.32721 0
M  V30 1243 C 116.202 -0.293791 -2.32753 0
M  V30 1244 C 117.218 0.585906 -1.63839 0
M  V30 1245 O 118.394 0.487413 -1.95413 0
M  V30 1246 C 115.459 0.512752 -3.42887 0
M  V30 1247 C 114.52 -0.39252 -4.27502 0
M  V30 1248 C 113.753 0.375625 -5.32377 0
M  V30 1249 O 113.976 1.60613 -5.4732 0
M  V30 1250 O 112.91 -0.256094 -6.01355 0
M  V30 1251 H 116.736 -1.12242 -2.82197 0
M  V30 1252 H 114.321 -0.612685 -1.36259 0
M  V30 1253 H 116.203 0.970704 -4.10067 0
M  V30 1254 H 114.878 1.31826 -2.95641 0
M  V30 1255 H 113.785 -0.898547 -3.63149 0
M  V30 1256 H 115.118 -1.16309 -4.7826 0
M  V30 1257 N 116.77 1.45427 -0.607355 0
M  V30 1258 C 118.019 2.01452 -0.100036 0
M  V30 1259 C 118.332 1.48159 1.27704 0
M  V30 1260 O 119.538 1.96159 1.87707 0
M  V30 1261 C 117.994 3.59672 -0.128158 0
M  V30 1262 C 117.602 4.21962 -1.50507 0
M  V30 1263 C 119.346 4.23262 0.323932 0
M  V30 1264 C 117.253 5.72333 -1.48959 0
M  V30 1265 H 116.183 0.75325 -0.0336299 0
M  V30 1266 H 118.834 1.66901 -0.76265 0
M  V30 1267 H 117.216 3.91411 0.601105 0
M  V30 1268 H 118.39 4.01796 -2.25602 0
M  V30 1269 H 116.705 3.70565 -1.89923 0
M  V30 1270 H 119.302 5.33522 0.354691 0
M  V30 1271 H 119.645 3.93921 1.34656 0
M  V30 1272 H 120.178 3.96239 -0.352056 0
M  V30 1273 H 116.917 6.06373 -2.48981 0
M  V30 1274 H 116.437 5.94691 -0.781214 0
M  V30 1275 H 118.116 6.35525 -1.21313 0
M  V30 1276 N 118.248 0.346503 1.53744 0
M  V30 1277 C 119.158 -0.517293 2.28826 0
M  V30 1278 C 120.174 -1.10935 1.3405 0
M  V30 1279 O 121.35 -1.1244 1.6709 0
M  V30 1280 C 118.415 -1.65098 3.04866 0
M  V30 1281 C 117.476 -1.0884 4.15274 0
M  V30 1282 C 116.709 -2.16806 4.87679 0
M  V30 1283 O 116.932 -3.3758 4.59778 0
M  V30 1284 O 115.866 -1.80934 5.74061 0
M  V30 1285 H 119.692 0.0931396 3.03557 0
M  V30 1286 H 117.277 0.111458 1.48984 0
M  V30 1287 H 119.159 -2.31053 3.5241 0
M  V30 1288 H 117.834 -2.24717 2.32989 0
M  V30 1289 H 116.741 -0.3933 3.72027 0
M  V30 1290 H 118.074 -0.537036 4.89261 0
M  V30 1291 N 119.726 -1.57421 0.075193 0
M  V30 1292 C 120.972 -1.93905 -0.594025 0
M  V30 1293 C 121.305 -0.955701 -1.69056 0
M  V30 1294 O 120.58 0.0145373 -1.94495 0
M  V30 1295 C 120.863 -3.40638 -1.1678 0
M  V30 1296 C 120.716 -4.49733 -0.0776792 0
M  V30 1297 C 122.035 -3.88259 -2.07228 0
M  V30 1298 H 119.154 -0.705105 -0.214466 0
M  V30 1299 H 121.796 -1.8947 0.141854 0
M  V30 1300 H 119.946 -3.44549 -1.79494 0
M  V30 1301 H 121.618 -4.57942 0.555573 0
M  V30 1302 H 119.861 -4.29751 0.591286 0
M  V30 1303 H 120.532 -5.49549 -0.519603 0
M  V30 1304 H 123.008 -3.86376 -1.54445 0
M  V30 1305 H 121.884 -4.91533 -2.44308 0
M  V30 1306 H 122.145 -3.26396 -2.98191 0
M  V30 1307 N 121.204 0.198386 -1.56346 0
M  V30 1308 C 122.114 1.2664 -1.97483 0
M  V30 1309 C 123.13 1.49989 -0.882002 0
M  V30 1310 O 124.306 1.62668 -1.18748 0
M  V30 1311 C 121.371 2.59141 -2.30319 0
M  V30 1312 C 120.432 2.43892 -3.53292 0
M  V30 1313 C 119.665 3.70074 -3.84553 0
M  V30 1314 O 119.888 4.74101 -3.1715 0
M  V30 1315 O 118.822 3.658 -4.7799 0
M  V30 1316 H 122.648 0.947304 -2.88548 0
M  V30 1317 H 120.233 0.403123 -1.43859 0
M  V30 1318 H 122.115 3.37352 -2.5253 0
M  V30 1319 H 120.79 2.90684 -1.42423 0
M  V30 1320 H 119.697 1.63803 -3.36332 0
M  V30 1321 H 121.03 2.17282 -4.41644 0
M  V30 1322 N 122.682 1.50554 0.465978 0
M  V30 1323 C 123.929 1.61798 1.21768 0
M  V30 1324 C 124.257 0.320696 1.91838 0
M  V30 1325 O 123.512 -0.693724 1.82992 0
M  V30 1326 C 123.811 2.75152 2.28093 0
M  V30 1327 C 123.477 4.15454 1.75239 0
M  V30 1328 C 122.139 4.53628 1.60546 0
M  V30 1329 C 124.491 5.03121 1.36083 0
M  V30 1330 C 121.819 5.77204 1.05128 0
M  V30 1331 C 124.171 6.27249 0.821056 0
M  V30 1332 C 122.835 6.64221 0.660795 0
M  V30 1333 H 122.105 0.592063 0.445582 0
M  V30 1334 H 124.752 1.84503 0.512927 0
M  V30 1335 H 123.057 2.46556 3.04496 0
M  V30 1336 H 124.754 2.81055 2.86023 0
M  V30 1337 H 121.344 3.85341 1.87644 0
M  V30 1338 H 125.528 4.74257 1.46267 0
M  V30 1339 H 120.784 6.0452 0.91462 0
M  V30 1340 H 124.958 6.94537 0.509018 0
M  V30 1341 H 122.585 7.59854 0.229226 0
M  V30 1342 N 124.16 -0.719506 1.40217 0
M  V30 1343 C 125.408 -1.47641 1.3801 0
M  V30 1344 C 125.729 -1.94992 -0.018145 0
M  V30 1345 O 124.999 -1.70073 -0.972207 0
M  V30 1346 H 123.579 -0.547744 0.507923 0
M  V30 1347 H 126.241 -0.853187 1.75233 0
M  V30 1348 H 125.337 -2.35112 2.05253 0
M  V30 1349 N 125.638 -1.25649 -0.95132 0
M  V30 1350 C 126.601 -1.06399 -2.03007 0
M  V30 1351 C 127.601 -0.0156794 -1.60792 0
M  V30 1352 O 128.791 -0.25817 -1.72276 0
M  V30 1353 C 125.923 -0.616184 -3.35285 0
M  V30 1354 H 127.116 -2.02164 -2.21517 0
M  V30 1355 H 124.669 -1.08103 -1.12887 0
M  V30 1356 H 125.404 0.343917 -3.22471 0
M  V30 1357 H 125.189 -1.37301 -3.67275 0
M  V30 1358 H 126.679 -0.503032 -4.14559 0
M  V30 1359 N 127.117 1.15442 -1.07289 0
M  V30 1360 C 128.342 1.90638 -0.816828 0
M  V30 1361 C 128.767 1.77445 0.624083 0
M  V30 1362 O 128.125 1.10671 1.43602 0
M  V30 1363 C 128.173 3.39008 -1.22906 0
M  V30 1364 O 127.277 4.10701 -0.373975 0
M  V30 1365 H 126.618 0.593555 -0.297638 0
M  V30 1366 H 129.148 1.46198 -1.43134 0
M  V30 1367 H 129.158 3.89801 -1.20497 0
M  V30 1368 H 127.833 3.47929 -2.27856 0
M  V30 1369 H 126.41 3.70046 -0.460499 0
M  V30 1370 N 128.595 0.856903 1.32268 0
M  V30 1371 C 129.542 0.301172 2.28827 0
M  V30 1372 C 130.512 -0.593104 1.5515 0
M  V30 1373 O 131.697 -0.527537 1.83362 0
M  V30 1374 C 128.837 -0.502523 3.41422 0
M  V30 1375 C 127.95 0.417797 4.29975 0
M  V30 1376 C 127.085 -0.398749 5.29701 0
M  V30 1377 C 126.124 0.518827 6.09897 0
M  V30 1378 N 125.261 -0.260674 7.01616 0
M  V30 1379 H 130.101 1.12983 2.75751 0
M  V30 1380 H 127.638 0.568582 1.35667 0
M  V30 1381 H 129.596 -0.984141 4.05426 0
M  V30 1382 H 128.226 -1.29599 2.95642 0
M  V30 1383 H 127.278 1.01781 3.66531 0
M  V30 1384 H 128.59 1.12191 4.86019 0
M  V30 1385 H 127.744 -0.943435 5.9932 0
M  V30 1386 H 126.483 -1.13622 4.7428 0
M  V30 1387 H 125.488 1.07538 5.39181 0
M  V30 1388 H 126.713 1.25495 6.67404 0
M  V30 1389 H 124.659 -0.981198 6.4862 0
M  V30 1390 H 124.576 0.384364 7.55022 0
M  V30 1391 H 125.844 -0.787014 7.75517 0
M  V30 1392 N 130.073 -1.45103 0.615059 0
M  V30 1393 C 131.322 -2.01396 0.110718 0
M  V30 1394 C 131.635 -1.48834 -1.26916 0
M  V30 1395 O 132.841 -1.97152 -1.86664 0
M  V30 1396 C 131.297 -3.59599 0.14723 0
M  V30 1397 C 130.905 -4.21158 1.52743 0
M  V30 1398 C 132.649 -4.23428 -0.30148 0
M  V30 1399 C 130.556 -5.71535 1.51992 0
M  V30 1400 H 129.486 -0.753061 0.0376241 0
M  V30 1401 H 132.137 -1.66494 0.77149 0
M  V30 1402 H 130.519 -3.91724 -0.580339 0
M  V30 1403 H 131.693 -4.00594 2.2773 0
M  V30 1404 H 130.008 -3.69552 1.91886 0
M  V30 1405 H 132.605 -5.33703 -0.326392 0
M  V30 1406 H 132.948 -3.94629 -1.32565 0
M  V30 1407 H 133.481 -3.96047 0.373065 0
M  V30 1408 H 130.22 -6.05044 2.52193 0
M  V30 1409 H 129.74 -5.94268 0.81274 0
M  V30 1410 H 131.419 -6.34873 1.24681 0
M  V30 1411 N 131.551 -0.354651 -1.53558 0
M  V30 1412 C 132.797 0.238797 -2.01389 0
M  V30 1413 C 133.13 1.49309 -1.2418 0
M  V30 1414 O 132.405 1.91638 -0.332457 0
M  V30 1415 C 132.688 0.541771 -3.56001 0
M  V30 1416 C 132.541 -0.725388 -4.43912 0
M  V30 1417 C 133.86 1.34685 -4.18984 0
M  V30 1418 H 130.979 0.0853177 -0.732045 0
M  V30 1419 H 133.621 -0.477384 -1.83905 0
M  V30 1420 H 131.771 1.15189 -3.71031 0
M  V30 1421 H 133.443 -1.36313 -4.407 0
M  V30 1422 H 131.686 -1.34801 -4.12324 0
M  V30 1423 H 132.357 -0.468505 -5.50008 0
M  V30 1424 H 134.833 0.830837 -4.07721 0
M  V30 1425 H 133.709 1.52759 -5.27215 0
M  V30 1426 H 133.97 2.35221 -3.74331 0
M  V30 1427 N 133.029 1.57378 -0.0835403 0
M  V30 1428 C 133.959 2.1641 0.87686 0
M  V30 1429 C 134.94 1.09429 1.30228 0
M  V30 1430 O 136.125 1.37516 1.37124 0
M  V30 1431 C 133.255 2.73517 2.14022 0
M  V30 1432 C 132.209 3.85769 1.85381 0
M  V30 1433 C 131.535 4.29529 3.18448 0
M  V30 1434 C 132.835 5.09486 1.14984 0
M  V30 1435 H 134.529 2.96914 0.385059 0
M  V30 1436 H 132.075 1.42823 0.18377 0
M  V30 1437 H 134.028 3.13463 2.81636 0
M  V30 1438 H 132.752 1.90252 2.65465 0
M  V30 1439 H 131.411 3.46345 1.20169 0
M  V30 1440 H 131.059 3.43169 3.67755 0
M  V30 1441 H 130.759 5.05204 3.00071 0
M  V30 1442 H 132.283 4.72099 3.8724 0
M  V30 1443 H 133.697 5.46674 1.72687 0
M  V30 1444 H 132.094 5.90515 1.06826 0
M  V30 1445 H 133.164 4.84724 0.130749 0
M  V30 1446 N 134.507 -0.190092 1.56449 0
M  V30 1447 C 135.454 -1.23557 1.94942 0
M  V30 1448 C 136.424 -1.44972 0.810696 0
M  V30 1449 O 137.609 -1.58023 1.06927 0
M  V30 1450 C 134.749 -2.57416 2.2985 0
M  V30 1451 C 133.862 -2.43537 3.5681 0
M  V30 1452 C 132.997 -3.70134 3.81017 0
M  V30 1453 C 132.036 -3.51109 5.01387 0
M  V30 1454 N 131.173 -4.6973 5.21822 0
M  V30 1455 H 136.013 -0.900304 2.84075 0
M  V30 1456 H 133.55 -0.43318 1.40577 0
M  V30 1457 H 135.508 -3.35409 2.48106 0
M  V30 1458 H 134.138 -2.88975 1.43852 0
M  V30 1459 H 133.19 -1.56816 3.46573 0
M  V30 1460 H 134.502 -2.25415 4.4496 0
M  V30 1461 H 133.656 -4.56566 3.9954 0
M  V30 1462 H 132.395 -3.91215 2.91207 0
M  V30 1463 H 131.4 -2.63063 4.82782 0
M  V30 1464 H 132.625 -3.31468 5.9271 0
M  V30 1465 H 130.571 -4.91065 4.34961 0
M  V30 1466 H 130.488 -4.54452 6.0416 0
M  V30 1467 H 131.756 -5.57499 5.44808 0
M  V30 1468 N 135.985 -1.50799 -0.457987 0
M  V30 1469 C 137.396 -1.55152 -1.0385 0
M  V30 1470 C 137.747 -0.362719 -1.92818 0
M  V30 1471 O 136.872 0.522915 -2.09987 0
M  V30 1472 C 137.467 -2.81173 -1.89017 0
M  V30 1473 C 136.026 -2.88164 -2.42154 0
M  V30 1474 C 135.173 -2.49591 -1.20829 0
M  V30 1475 H 138.124 -1.56874 -0.240068 0
M  V30 1476 H 138.145 -2.63769 -2.74238 0
M  V30 1477 H 137.657 -3.67677 -1.24238 0
M  V30 1478 H 135.758 -2.06042 -3.10447 0
M  V30 1479 H 135.871 -3.91356 -2.76364 0
M  V30 1480 H 134.235 -2.02322 -1.54719 0
M  V30 1481 H 135.018 -3.38418 -0.576927 0
M  V30 1482 N 137.463 0.71206 -1.40597 0
M  V30 1483 C 138.426 1.80785 -1.40888 0
M  V30 1484 C 139.426 1.57937 -0.302103 0
M  V30 1485 O 140.616 1.64913 -0.561182 0
M  V30 1486 C 137.748 3.18927 -1.20409 0
M  V30 1487 H 138.941 1.81924 -2.38419 0
M  V30 1488 H 136.494 0.91805 -1.26497 0
M  V30 1489 H 137.229 3.23436 -0.236522 0
M  V30 1490 H 137.014 3.36911 -2.00582 0
M  V30 1491 H 138.504 3.98949 -1.23408 0
M  V30 1492 N 138.941 1.26152 0.944643 0
M  V30 1493 C 139.904 1.07474 2.0244 0
M  V30 1494 C 140.904 0.0242064 1.60782 0
M  V30 1495 O 142.094 0.267302 1.72137 0
M  V30 1496 C 139.226 0.633956 3.34953 0
M  V30 1497 H 140.419 2.03336 2.20442 0
M  V30 1498 H 137.972 1.087 1.12312 0
M  V30 1499 H 138.707 -0.326811 3.22649 0
M  V30 1500 H 138.492 1.39247 3.66542 0
M  V30 1501 H 139.982 0.52501 4.14287 0
M  V30 1502 N 140.419 -1.14872 1.07899 0
M  V30 1503 C 141.83 -1.67367 0.827363 0
M  V30 1504 C 142.181 -1.85236 -0.646693 0
M  V30 1505 O 141.306 -1.55974 -1.50004 0
M  V30 1506 C 141.901 -3.04016 1.49532 0
M  V30 1507 C 140.46 -3.53566 1.29106 0
M  V30 1508 C 139.607 -2.29161 1.56143 0
M  V30 1509 H 142.558 -0.990083 1.24028 0
M  V30 1510 H 142.579 -3.69219 0.919643 0
M  V30 1511 H 142.091 -2.90978 2.56814 0
M  V30 1512 H 140.192 -3.71835 0.238713 0
M  V30 1513 H 140.305 -4.34661 2.01511 0
M  V30 1514 H 138.669 -2.34978 0.982717 0
M  V30 1515 H 139.452 -2.18705 2.64619 0
M  V30 1516 N 141.898 -0.863906 -1.31812 0
M  V30 1517 C 143.146 -0.470904 -1.96537 0
M  V30 1518 C 143.467 0.978771 -1.68657 0
M  V30 1519 O 142.737 1.6853 -0.998717 0
M  V30 1520 H 141.317 -0.171148 -0.72713 0
M  V30 1521 H 143.979 -1.10236 -1.60729 0
M  V30 1522 H 143.075 -0.623616 -3.05806 0
M  V30 1523 N 143.376 1.44774 -0.622745 0
M  V30 1524 C 144.604 2.06487 -0.130722 0
M  V30 1525 C 145.019 1.46476 1.19123 0
M  V30 1526 O 144.376 0.584502 1.72887 0
M  V30 1527 C 144.427 3.615 -0.000807207 0
M  V30 1528 O 144.148 4.19274 -1.27048 0
M  V30 1529 C 145.649 4.40229 0.520898 0
M  V30 1530 H 142.869 0.666704 -0.0758106 0
M  V30 1531 H 145.413 1.85779 -0.854774 0
M  V30 1532 H 143.568 3.81498 0.673643 0
M  V30 1533 H 143.982 5.12622 -1.1099 0
M  V30 1534 H 145.456 5.49144 0.560838 0
M  V30 1535 H 145.933 4.1108 1.54627 0
M  V30 1536 H 146.539 4.25131 -0.120018 0
M  V30 1537 N 144.854 0.36279 1.53368 0
M  V30 1538 C 146.102 -0.227326 2.00817 0
M  V30 1539 C 146.423 -1.49511 1.25186 0
M  V30 1540 O 145.693 -1.92482 0.364348 0
M  V30 1541 H 144.273 -0.0869923 0.741917 0
M  V30 1542 H 146.935 0.488381 1.88682 0
M  V30 1543 H 146.031 -0.456273 3.08747 0
M  V30 1544 N 146.332 -1.57332 0.0918853 0
M  V30 1545 C 147.578 -1.94524 -0.573425 0
M  V30 1546 C 147.911 -0.973578 -1.68033 0
M  V30 1547 O 147.186 -0.00609226 -1.94499 0
M  V30 1548 C 147.469 -3.41858 -1.13161 0
M  V30 1549 C 147.322 -4.4979 -0.0299747 0
M  V30 1550 C 148.641 -3.90435 -2.03098 0
M  V30 1551 H 145.76 -0.70734 -0.206975 0
M  V30 1552 H 148.402 -1.89309 0.161942 0
M  V30 1553 H 146.552 -3.46433 -1.7583 0
M  V30 1554 H 148.224 -4.57327 0.604112 0
M  V30 1555 H 146.467 -4.291 0.636833 0
M  V30 1556 H 147.138 -5.50069 -0.461287 0
M  V30 1557 H 149.614 -3.87992 -1.50338 0
M  V30 1558 H 148.49 -4.94097 -2.39081 0
M  V30 1559 H 148.751 -3.29541 -2.94712 0
M  V30 1560 N 147.81 0.181792 -1.56548 0
M  V30 1561 C 149.059 0.898348 -1.8059 0
M  V30 1562 C 149.372 1.83862 -0.667379 0
M  V30 1563 O 150.578 2.59678 -0.792446 0
M  V30 1564 C 149.034 1.64791 -3.19956 0
M  V30 1565 C 148.642 0.751789 -4.41647 0
M  V30 1566 C 150.386 2.35331 -3.53298 0
M  V30 1567 C 148.293 1.50098 -5.72035 0
M  V30 1568 H 147.223 0.339194 -0.673397 0
M  V30 1569 H 149.874 0.151413 -1.82874 0
M  V30 1570 H 148.256 2.43921 -3.11959 0
M  V30 1571 H 149.43 -0.0018076 -4.608 0
M  V30 1572 H 147.745 0.156562 -4.16106 0
M  V30 1573 H 150.342 2.91958 -4.47956 0
M  V30 1574 H 150.685 3.10164 -2.77676 0
M  V30 1575 H 151.218 1.63154 -3.62803 0
M  V30 1576 H 147.957 0.795175 -6.50659 0
M  V30 1577 H 147.477 2.22817 -5.56878 0
M  V30 1578 H 149.156 2.05125 -6.13622 0
M  V30 1579 N 149.288 1.51039 0.449983 0
M  V30 1580 C 150.251 1.70863 1.5277 0
M  V30 1581 C 151.251 0.578846 1.5002 0
M  V30 1582 O 152.441 0.846213 1.52266 0
M  V30 1583 C 149.573 1.75341 2.9235 0
M  V30 1584 H 150.766 2.67034 1.36502 0
M  V30 1585 H 148.319 1.40838 0.677812 0
M  V30 1586 H 149.054 0.809383 3.14037 0
M  V30 1587 H 148.839 2.57436 2.95752 0
M  V30 1588 H 150.329 1.92559 3.70555 0
M  V30 1589 N 150.766 -0.704594 1.40972 0
M  V30 1590 C 152.014 -1.46169 1.39568 0
M  V30 1591 C 152.335 -1.95 0.00253745 0
M  V30 1592 O 151.605 -1.71095 -0.954114 0
M  V30 1593 H 150.185 -0.542326 0.513704 0
M  V30 1594 H 152.847 -0.834553 1.76128 0
M  V30 1595 H 151.943 -2.32922 2.07735 0
M  V30 1596 N 152.244 -1.26651 -0.937939 0
M  V30 1597 C 153.207 -1.08546 -2.01867 0
M  V30 1598 C 154.207 -0.0327327 -1.60767 0
M  V30 1599 O 155.397 -0.276427 -1.71993 0
M  V30 1600 C 152.529 -0.651711 -3.34613 0
M  V30 1601 H 153.722 -2.04502 -2.1936 0
M  V30 1602 H 151.275 -1.09294 -1.11734 0
M  V30 1603 H 152.01 0.309696 -3.22818 0
M  V30 1604 H 151.795 -1.41189 -3.65798 0
M  V30 1605 H 153.285 -0.546973 -4.14002 0
M  V30 1606 N 153.722 1.14298 -1.08507 0
M  V30 1607 C 154.968 1.85633 -0.816581 0
M  V30 1608 C 155.301 1.82784 0.656021 0
M  V30 1609 O 154.576 1.25926 1.48233 0
M  V30 1610 C 154.859 3.34223 -1.34041 0
M  V30 1611 C 154.712 3.45639 -2.87843 0
M  V30 1612 C 156.031 4.29356 -0.9665 0
M  V30 1613 H 153.15 0.67402 -0.298104 0
M  V30 1614 H 155.792 1.34214 -1.34487 0
M  V30 1615 H 153.942 3.78144 -0.89104 0
M  V30 1616 H 155.614 3.10498 -3.41158 0
M  V30 1617 H 153.857 2.86817 -3.25451 0
M  V30 1618 H 154.528 4.50089 -3.19569 0
M  V30 1619 H 157.004 3.93457 -1.35391 0
M  V30 1620 H 155.88 5.3178 -1.3602 0
M  V30 1621 H 156.141 4.41919 0.126362 0
M  V30 1622 N 155.201 0.870884 1.31352 0
M  V30 1623 C 156.612 0.534714 1.78879 0
M  V30 1624 C 156.963 -0.948423 1.71754 0
M  V30 1625 O 156.088 -1.74055 1.28584 0
M  V30 1626 C 156.683 0.963839 3.24801 0
M  V30 1627 C 155.242 0.679311 3.70219 0
M  V30 1628 C 154.389 1.15465 2.52117 0
M  V30 1629 H 157.34 1.05651 1.18421 0
M  V30 1630 H 157.361 0.286892 3.79417 0
M  V30 1631 H 156.873 2.04332 3.29955 0
M  V30 1632 H 154.974 -0.388769 3.70566 0
M  V30 1633 H 155.087 1.25698 4.62317 0
M  V30 1634 H 153.451 0.574383 2.48139 0
M  V30 1635 H 154.234 2.24157 2.60016 0
M  V30 1636 N 156.679 -1.44442 0.630414 0
M  V30 1637 C 158.095 -1.56832 0.295973 0
M  V30 1638 C 158.295 -1.61806 -1.20088 0
M  V30 1639 O 157.351 -1.5607 -1.9849 0
M  V30 1640 C 158.664 -2.84031 0.987264 0
M  V30 1641 C 160.212 -2.97742 0.96534 0
M  V30 1642 C 160.687 -4.27743 1.63708 0
M  V30 1643 N 162.178 -4.34555 1.60364 0
M  V30 1644 C 162.913 -5.33862 2.09234 0
M  V30 1645 N 162.409 -6.39578 2.66292 0
M  V30 1646 N 164.202 -5.25366 1.99867 0
M  V30 1647 H 156.353 -1.39457 1.60205 0
M  V30 1648 H 158.616 -0.668237 0.672431 0
M  V30 1649 H 158.322 -2.86338 2.04215 0
M  V30 1650 H 158.196 -3.73534 0.524588 0
M  V30 1651 H 160.583 -2.94989 -0.0810639 0
M  V30 1652 H 160.664 -2.09589 1.4665 0
M  V30 1653 H 160.308 -4.31255 2.68293 0
M  V30 1654 H 160.238 -5.14752 1.11076 0
M  V30 1655 H 162.729 -3.58772 1.18705 0
M  V30 1656 H 163.042 -7.11637 3.01317 0
M  V30 1657 H 161.387 -6.40265 2.70343 0
M  V30 1658 H 164.578 -4.41688 1.55013 0
M  V30 1659 H 164.751 -6.02606 2.38265 0
M  V30 1660 N 158.157 -0.370918 -1.53173 0
M  V30 1661 C 159.12 0.460778 -2.24521 0
M  V30 1662 C 160.12 1.00536 -1.25496 0
M  V30 1663 O 161.31 0.890266 -1.49733 0
M  V30 1664 C 158.442 1.64457 -2.98608 0
M  V30 1665 H 159.635 -0.163613 -2.99453 0
M  V30 1666 H 157.188 -0.122699 -1.55818 0
M  V30 1667 H 157.923 2.30691 -2.2793 0
M  V30 1668 H 157.708 1.26099 -3.7127 0
M  V30 1669 H 159.198 2.23384 -3.5283 0
M  V30 1670 N 159.635 1.57281 -0.100228 0
M  V30 1671 C 160.884 1.93713 0.561984 0
M  V30 1672 C 161.197 0.984492 1.69018 0
M  V30 1673 O 162.403 1.24273 2.41389 0
M  V30 1674 C 160.859 3.4421 1.05106 0
M  V30 1675 C 160.467 4.47975 -0.0476628 0
M  V30 1676 C 162.211 3.89595 1.68571 0
M  V30 1677 C 160.118 5.89631 0.457055 0
M  V30 1678 H 159.048 0.723082 0.2137 0
M  V30 1679 H 161.699 1.82644 -0.177057 0
M  V30 1680 H 160.081 3.50449 1.84395 0
M  V30 1681 H 161.255 4.53385 -0.823333 0
M  V30 1682 H 159.57 4.1223 -0.587816 0
M  V30 1683 H 162.167 4.92832 2.07414 0
M  V30 1684 H 162.51 3.28526 2.55688 0
M  V30 1685 H 163.043 3.86078 0.958562 0
M  V30 1686 H 159.782 6.54411 -0.377616 0
M  V30 1687 H 159.302 5.87681 1.19962 0
M  V30 1688 H 160.981 6.40363 0.92437 0
M  V30 1689 N 161.113 -0.173488 1.56642 0
M  V30 1690 C 162.043 -1.2171 1.99271 0
M  V30 1691 C 163.024 -1.46289 0.867959 0
M  V30 1692 O 164.209 -1.5766 1.13388 0
M  V30 1693 C 161.339 -2.55651 2.35074 0
M  V30 1694 C 160.293 -2.45645 3.50489 0
M  V30 1695 C 159.619 -3.84056 3.72028 0
M  V30 1696 C 160.919 -1.96302 4.84007 0
M  V30 1697 H 162.613 -0.86275 2.867 0
M  V30 1698 H 160.159 -0.413571 1.37933 0
M  V30 1699 H 162.112 -3.2886 2.63494 0
M  V30 1700 H 160.836 -2.92869 1.44552 0
M  V30 1701 H 159.495 -1.7489 3.22194 0
M  V30 1702 H 159.143 -4.18664 2.788 0
M  V30 1703 H 158.843 -3.7823 4.49684 0
M  V30 1704 H 160.367 -4.58854 4.02846 0
M  V30 1705 H 161.781 -2.59284 5.11317 0
M  V30 1706 H 160.178 -2.01429 5.65284 0
M  V30 1707 H 161.248 -0.917226 4.76146 0
M  V30 1708 N 162.591 -1.51276 -0.441967 0
M  V30 1709 C 163.501 -1.75092 -1.56141 0
M  V30 1710 C 164.517 -0.634963 -1.62001 0
M  V30 1711 O 165.693 -0.916686 -1.79329 0
M  V30 1712 C 162.758 -1.86666 -2.92158 0
M  V30 1713 C 161.819 -3.10506 -2.96453 0
M  V30 1714 C 161.052 -3.21519 -4.25982 0
M  V30 1715 O 161.275 -2.38586 -5.18105 0
M  V30 1716 O 160.209 -4.14465 -4.36466 0
M  V30 1717 H 164.035 -2.70044 -1.38961 0
M  V30 1718 H 161.62 -1.35722 -0.624499 0
M  V30 1719 H 163.502 -1.96292 -3.72891 0
M  V30 1720 H 162.177 -0.949014 -3.09476 0
M  V30 1721 H 161.084 -3.06363 -2.14692 0
M  V30 1722 H 162.417 -4.01945 -2.84079 0
M  V30 1723 N 164.069 0.697108 -1.41344 0
M  V30 1724 C 164.999 1.82353 -1.45841 0
M  V30 1725 C 165.98 1.67115 -0.317247 0
M  V30 1726 O 167.165 1.86871 -0.528474 0
M  V30 1727 C 164.295 3.20476 -1.33838 0
M  V30 1728 C 163.249 3.50415 -2.4575 0
M  V30 1729 C 162.575 4.87878 -2.18813 0
M  V30 1730 C 163.875 3.49546 -3.88091 0
M  V30 1731 H 165.569 1.78846 -2.40113 0
M  V30 1732 H 163.115 0.859028 -1.15571 0
M  V30 1733 H 165.068 3.98988 -1.35596 0
M  V30 1734 H 163.792 3.24604 -0.360498 0
M  V30 1735 H 162.451 2.74253 -2.43271 0
M  V30 1736 H 162.099 4.8863 -1.19371 0
M  V30 1737 H 161.799 5.08875 -2.93803 0
M  V30 1738 H 163.323 5.68702 -2.22284 0
M  V30 1739 H 164.737 4.18066 -3.92293 0
M  V30 1740 H 163.134 3.82075 -4.62751 0
M  V30 1741 H 164.204 2.48552 -4.16353 0
M  V30 1742 N 165.547 1.27147 0.931209 0
M  V30 1743 C 166.51 1.09615 2.01289 0
M  V30 1744 C 167.51 0.0412581 1.60747 0
M  V30 1745 O 168.7 0.285545 1.71844 0
M  V30 1746 C 165.832 0.669447 3.34262 0
M  V30 1747 H 167.025 2.05662 2.18273 0
M  V30 1748 H 164.578 1.09885 1.11153 0
M  V30 1749 H 165.313 -0.292572 3.22978 0
M  V30 1750 H 165.098 1.43127 3.65044 0
M  V30 1751 H 166.588 0.568921 4.13706 0
M  V30 1752 N 167.025 -1.13721 1.09112 0
M  V30 1753 C 168.273 -1.84559 0.823562 0
M  V30 1754 C 168.594 -1.83754 -0.652658 0
M  V30 1755 O 167.864 -1.29102 -1.47342 0
M  V30 1756 H 166.444 -0.683376 0.301673 0
M  V30 1757 H 169.106 -1.37771 1.37859 0
M  V30 1758 H 168.202 -2.8917 1.17419 0
M  V30 1759 N 168.503 -0.877838 -1.30888 0
M  V30 1760 C 169.749 -0.493426 -1.96706 0
M  V30 1761 C 170.082 0.953504 -1.6918 0
M  V30 1762 O 169.357 1.67266 -0.992594 0
M  V30 1763 C 169.64 -0.760429 -3.51979 0
M  V30 1764 C 169.493 -2.25747 -3.89048 0
M  V30 1765 C 170.812 -0.232148 -4.39487 0
M  V30 1766 H 167.931 -0.180746 -0.714493 0
M  V30 1767 H 170.573 -1.10052 -1.54882 0
M  V30 1768 H 168.723 -0.243715 -3.87735 0
M  V30 1769 H 170.395 -2.84204 -3.63354 0
M  V30 1770 H 168.638 -2.72694 -3.37373 0
M  V30 1771 H 169.309 -2.39491 -4.97341 0
M  V30 1772 H 171.785 -0.674314 -4.106 0
M  V30 1773 H 170.661 -0.448355 -5.47066 0
M  V30 1774 H 170.922 0.866297 -4.33529 0
M  V30 1775 N 169.982 1.44106 -0.638065 0
M  V30 1776 C 171.21 2.06336 -0.152615 0
M  V30 1777 C 171.625 1.47731 1.17563 0
M  V30 1778 O 170.982 0.602806 1.72257 0
M  V30 1779 C 171.033 3.61479 -0.0391491 0
M  V30 1780 O 170.754 4.17903 -1.31487 0
M  V30 1781 C 172.255 4.40757 0.474176 0
M  V30 1782 H 169.475 0.665862 -0.0828776 0
M  V30 1783 H 172.019 1.84862 -0.87443 0
M  V30 1784 H 170.174 3.82191 0.633142 0
M  V30 1785 H 170.588 5.11416 -1.16421 0
M  V30 1786 H 172.062 5.49707 0.502562 0
M  V30 1787 H 172.539 4.12697 1.50258 0
M  V30 1788 H 173.145 4.24979 -0.165102 0
M  V30 1789 N 171.46 0.379036 1.52974 0
M  V30 1790 C 172.737 -0.263479 1.93817 0
M  V30 1791 C 173.117 -1.65244 1.31368 0
M  V30 1792 O 172.465 -2.23448 0.477856 0
M  V30 1793 C 172.675 -0.300166 3.47707 0
M  V30 1794 C 174.023 -0.534061 4.21228 0
M  V30 1795 O 175.047 -0.38081 3.54159 0
M  V30 1796 O 173.906 -0.833501 5.40106 0
M  V30 1797 H 171 -0.161149 0.811147 0
M  V30 1798 H 173.546 0.432798 1.64088 0
M  V30 1799 H 172.318 0.673138 3.85467 0
M  V30 1800 H 171.941 -1.04179 3.83709 0
M  V30 1801 N 172.938 -1.57226 0.108567 0
M  V30 1802 C 174.187 -1.94008 -0.551703 0
M  V30 1803 C 174.5 -0.993442 -1.68494 0
M  V30 1804 O 175.706 -1.25551 -2.40726 0
M  V30 1805 C 174.162 -3.44763 -1.03279 0
M  V30 1806 C 173.77 -4.47943 0.0714193 0
M  V30 1807 C 175.514 -3.90483 -1.66503 0
M  V30 1808 C 173.421 -5.89865 -0.425779 0
M  V30 1809 H 172.351 -0.724206 -0.209863 0
M  V30 1810 H 175.002 -1.82547 0.186741 0
M  V30 1811 H 173.384 -3.51422 -1.82533 0
M  V30 1812 H 174.558 -4.52942 0.847365 0
M  V30 1813 H 172.873 -4.11913 0.609669 0
M  V30 1814 H 175.47 -4.93925 -2.04798 0
M  V30 1815 H 175.813 -3.29877 -2.53942 0
M  V30 1816 H 176.346 -3.86581 -0.938074 0
M  V30 1817 H 173.085 -6.54202 0.412316 0
M  V30 1818 H 172.605 -5.88309 -1.16843 0
M  V30 1819 H 174.284 -6.40844 -0.890397 0
M  V30 1820 N 174.416 0.165178 -1.56732 0
M  V30 1821 C 175.346 1.20651 -1.99914 0
M  V30 1822 C 176.327 1.45827 -0.875705 0
M  V30 1823 O 177.512 1.57057 -1.14223 0
M  V30 1824 C 174.642 2.54401 -2.36427 0
M  V30 1825 C 173.596 2.43782 -3.51787 0
M  V30 1826 C 172.922 3.82078 -3.7406 0
M  V30 1827 C 174.222 1.93732 -4.85041 0
M  V30 1828 H 175.916 0.847534 -2.87154 0
M  V30 1829 H 173.462 0.40625 -1.38151 0
M  V30 1830 H 175.415 3.27458 -2.65234 0
M  V30 1831 H 174.139 2.92098 -1.46103 0
M  V30 1832 H 172.798 1.73178 -3.23117 0
M  V30 1833 H 172.446 4.17179 -2.81017 0
M  V30 1834 H 172.146 3.7584 -4.51684 0
M  V30 1835 H 173.67 4.56712 -4.05274 0
M  V30 1836 H 175.084 2.56569 -5.12684 0
M  V30 1837 H 173.481 1.98428 -5.66345 0
M  V30 1838 H 174.551 0.891962 -4.76626 0
M  V30 1839 N 175.894 1.51508 0.433938 0
M  V30 1840 C 177.122 1.68157 1.20543 0
M  V30 1841 C 177.537 0.380362 1.84929 0
M  V30 1842 O 176.894 -0.641446 1.70856 0
M  V30 1843 C 176.945 2.79965 2.28696 0
M  V30 1844 O 176.666 4.05045 1.66943 0
M  V30 1845 C 178.167 3.07912 3.18912 0
M  V30 1846 H 175.387 0.56421 0.363191 0
M  V30 1847 H 177.931 1.97941 0.513754 0
M  V30 1848 H 176.086 2.5277 2.93574 0
M  V30 1849 H 176.5 4.67165 2.38448 0
M  V30 1850 H 177.974 3.89719 3.90926 0
M  V30 1851 H 178.451 2.20456 3.79863 0
M  V30 1852 H 179.057 3.36779 2.59731 0
M  V30 1853 N 177.372 -0.689602 1.41712 0
M  V30 1854 C 178.319 -1.80345 1.44029 0
M  V30 1855 C 179.289 -1.63478 0.293948 0
M  V30 1856 O 180.474 -1.84244 0.495869 0
M  V30 1857 C 177.614 -3.18272 1.33405 0
M  V30 1858 C 176.727 -3.46529 2.57956 0
M  V30 1859 C 175.862 -4.74103 2.39582 0
M  V30 1860 C 174.901 -4.95347 3.5958 0
M  V30 1861 N 174.038 -6.14151 3.40239 0
M  V30 1862 H 178.878 -1.77698 2.39222 0
M  V30 1863 H 176.415 -0.867688 1.18784 0
M  V30 1864 H 178.373 -3.97956 1.25246 0
M  V30 1865 H 177.003 -3.2008 0.418164 0
M  V30 1866 H 176.055 -2.61207 2.76542 0
M  V30 1867 H 177.367 -3.58126 3.47199 0
M  V30 1868 H 176.521 -5.61853 2.28924 0
M  V30 1869 H 175.26 -4.64763 1.47805 0
M  V30 1870 H 174.265 -4.06044 3.70686 0
M  V30 1871 H 175.49 -5.06542 4.52318 0
M  V30 1872 H 173.436 -6.06013 2.51167 0
M  V30 1873 H 173.353 -6.26543 4.23061 0
M  V30 1874 H 174.621 -7.04619 3.33365 0
M  V30 1875 N 178.85 -1.27639 -0.924453 0
M  V30 1876 C 179.76 -1.12466 -2.05885 0
M  V30 1877 C 180.776 -0.053869 -1.73917 0
M  V30 1878 O 181.952 -0.261012 -1.99702 0
M  V30 1879 C 179.017 -0.776768 -3.37886 0
M  V30 1880 C 178.078 -1.92878 -3.83532 0
M  V30 1881 C 177.311 -1.59739 -5.09234 0
M  V30 1882 O 177.534 -0.506782 -5.68144 0
M  V30 1883 O 176.468 -2.43761 -5.50331 0
M  V30 1884 H 180.294 -2.07671 -2.21599 0
M  V30 1885 H 177.879 -1.06857 -1.04413 0
M  V30 1886 H 179.761 -0.596229 -4.17161 0
M  V30 1887 H 178.436 0.145732 -3.23372 0
M  V30 1888 H 177.343 -2.1644 -3.0513 0
M  V30 1889 H 178.676 -2.8316 -4.02593 0
M  V30 1890 N 180.328 1.1314 -1.09713 0
M  V30 1891 C 181.258 2.20748 -0.761102 0
M  V30 1892 C 182.239 1.68061 0.262566 0
M  V30 1893 O 183.424 1.93765 0.129977 0
M  V30 1894 C 180.554 3.46812 -0.184054 0
M  V30 1895 C 179.508 4.12606 -1.13757 0
M  V30 1896 C 178.834 5.33031 -0.422083 0
M  V30 1897 C 180.134 4.59603 -2.48118 0
M  V30 1898 H 181.828 2.49113 -1.66082 0
M  V30 1899 H 179.374 1.19734 -0.799987 0
M  V30 1900 H 181.327 4.21353 0.0631215 0
M  V30 1901 H 180.051 3.17851 0.750868 0
M  V30 1902 H 178.71 3.40036 -1.37007 0
M  V30 1903 H 178.358 5.00335 0.517072 0
M  V30 1904 H 178.058 5.77999 -1.05788 0
M  V30 1905 H 179.582 6.10325 -0.183277 0
M  V30 1906 H 180.996 5.25552 -2.29059 0
M  V30 1907 H 179.393 5.15321 -3.07514 0
M  V30 1908 H 180.463 3.73971 -3.08665 0
M  V30 1909 N 181.806 0.884767 1.30421 0
M  V30 1910 C 183.054 0.502112 1.95763 0
M  V30 1911 C 183.375 -0.951815 1.70192 0
M  V30 1912 O 182.645 -1.6692 1.0254 0
M  V30 1913 H 181.225 0.182694 0.724315 0
M  V30 1914 H 183.887 1.1278 1.58955 0
M  V30 1915 H 182.983 0.672188 3.04775 0
M  V30 1916 N 183.284 -1.43765 0.645699 0
M  V30 1917 C 184.509 -2.06767 0.161883 0
M  V30 1918 C 184.934 -1.48034 -1.16049 0
M  V30 1919 O 184.292 -0.587369 -1.71522 0
M  V30 1920 C 184.34 -3.60519 0.0762003 0
M  V30 1921 O 183.444 -4.00982 -0.963721 0
M  V30 1922 H 182.785 -0.657675 0.091429 0
M  V30 1923 H 185.315 -1.84397 0.886499 0
M  V30 1924 H 185.325 -4.07853 -0.109604 0
M  V30 1925 H 184 -4.02646 1.04157 0
M  V30 1926 H 182.577 -3.65253 -0.751312 0
M  V30 1927 N 184.763 -0.387143 -1.52771 0
M  V30 1928 C 186.179 -0.037007 -1.59557 0
M  V30 1929 C 186.379 1.44801 -1.40124 0
M  V30 1930 O 185.435 2.21227 -1.21716 0
M  V30 1931 C 186.748 -0.512256 -2.96305 0
M  V30 1932 C 188.296 -0.468328 -3.09476 0
M  V30 1933 C 188.771 -0.919731 -4.4867 0
M  V30 1934 N 190.262 -0.875656 -4.54848 0
M  V30 1935 C 190.997 -1.19637 -5.6078 0
M  V30 1936 N 190.493 -1.58745 -6.74368 0
M  V30 1937 N 192.286 -1.11776 -5.50874 0
M  V30 1938 H 184.437 -1.35395 -1.63652 0
M  V30 1939 H 186.7 -0.554818 -0.768688 0
M  V30 1940 H 186.406 -1.54935 -3.15734 0
M  V30 1941 H 186.28 0.089805 -3.77093 0
M  V30 1942 H 188.667 0.559671 -2.89744 0
M  V30 1943 H 188.748 -1.10616 -2.30646 0
M  V30 1944 H 188.392 -1.94595 -4.69143 0
M  V30 1945 H 188.322 -0.258927 -5.25963 0
M  V30 1946 H 190.813 -0.587843 -3.733 0
M  V30 1947 H 191.126 -1.81586 -7.51163 0
M  V30 1948 H 189.471 -1.6263 -6.75705 0
M  V30 1949 H 192.662 -0.811264 -4.61016 0
M  V30 1950 H 192.835 -1.37103 -6.3333 0
M  V30 1951 N 186.241 1.57166 -0.116904 0
M  V30 1952 C 187.189 2.16457 0.851418 0
M  V30 1953 C 188.183 1.11323 1.27686 0
M  V30 1954 O 189.389 1.2963 1.24884 0
M  V30 1955 H 185.764 0.69271 0.292672 0
M  V30 1956 H 187.735 2.96605 0.32685 0
M  V30 1957 C 186.484 2.77689 2.09246 0
M  V30 1958 H 185.807 3.58285 1.77402 0
M  V30 1959 H 187.247 3.22716 2.7501 0
M  V30 1960 C 185.706 1.74667 2.88085 0
M  V30 1961 O 186.236 1.19877 3.83396 0
M  V30 1962 N 184.442 1.44656 2.52038 0
M  V30 1963 H 183.989 1.89402 1.74599 0
M  V30 1964 H 183.947 0.759675 3.05084 0
M  V30 1965 N 187.719 -0.156864 1.56817 0
M  V30 1966 C 189.13 -0.717916 1.72345 0
M  V30 1967 C 189.481 -1.82124 0.729747 0
M  V30 1968 O 188.606 -2.16141 -0.105781 0
M  V30 1969 C 189.201 -1.30904 3.12489 0
M  V30 1970 C 187.76 -1.81676 3.29653 0
M  V30 1971 C 186.907 -0.701349 2.68284 0
M  V30 1972 H 189.858 0.0686989 1.58551 0
M  V30 1973 H 189.879 -2.17882 3.11942 0
M  V30 1974 H 189.391 -0.505796 3.8479 0
M  V30 1975 H 187.492 -2.64598 2.62333 0
M  V30 1976 H 187.605 -1.95226 4.3752 0
M  V30 1977 H 185.969 -1.12548 2.28484 0
M  V30 1978 H 186.752 0.0902846 3.43181 0
M  V30 1979 N 189.197 -1.51736 -0.425897 0
M  V30 1980 C 190.446 -1.64201 -1.17136 0
M  V30 1981 C 190.759 -0.369705 -1.92074 0
M  V30 1982 O 191.965 -0.373898 -2.68913 0
M  V30 1983 C 190.421 -2.90035 -2.13091 0
M  V30 1984 C 190.029 -4.24312 -1.43747 0
M  V30 1985 C 191.773 -3.1186 -2.87999 0
M  V30 1986 C 189.68 -5.41285 -2.38253 0
M  V30 1987 H 188.61 -0.611624 -0.440944 0
M  V30 1988 H 191.261 -1.78212 -0.437328 0
M  V30 1989 H 189.643 -2.69684 -2.89977 0
M  V30 1990 H 190.817 -4.55086 -0.723408 0
M  V30 1991 H 189.132 -4.08456 -0.809465 0
M  V30 1992 H 191.729 -3.96427 -3.58817 0
M  V30 1993 H 192.072 -2.25403 -3.49999 0
M  V30 1994 H 192.605 -3.32605 -2.18217 0
M  V30 1995 H 189.344 -6.30037 -1.80925 0
M  V30 1996 H 188.864 -5.14872 -3.0768 0
M  V30 1997 H 190.543 -5.73694 -2.99139 0
M  V30 1998 N 190.675 0.682077 -1.42076 0
M  V30 1999 C 191.623 1.81707 -1.45208 0
M  V30 2000 C 192.617 1.66183 -0.328591 0
M  V30 2001 O 193.823 1.7288 -0.501264 0
M  V30 2002 H 190.198 0.599014 -0.454628 0
M  V30 2003 H 192.169 1.76183 -2.40836 0
M  V30 2004 C 190.918 3.19816 -1.36428 0
M  V30 2005 H 190.241 3.32385 -2.22171 0
M  V30 2006 H 191.681 3.99272 -1.42681 0
M  V30 2007 C 190.14 3.36809 -0.078191 0
M  V30 2008 O 190.67 3.92124 0.87188 0
M  V30 2009 N 188.876 2.906 0.00229266 0
M  V30 2010 H 188.423 2.45772 -0.771616 0
M  V30 2011 H 188.381 3.02347 0.862179 0
M  V30 2012 N 192.153 1.28127 0.917671 0
M  V30 2013 C 193.402 1.14432 1.66097 0
M  V30 2014 C 193.715 -0.307247 1.93172 0
M  V30 2015 O 194.921 -0.565259 2.65551 0
M  V30 2016 C 193.377 2.00015 2.99202 0
M  V30 2017 C 192.985 3.49889 2.79789 0
M  V30 2018 C 194.729 1.94996 3.77064 0
M  V30 2019 C 192.636 4.27636 4.08511 0
M  V30 2020 H 191.566 0.424662 0.62304 0
M  V30 2021 H 194.217 1.52628 1.01868 0
M  V30 2022 H 192.599 1.54672 3.64544 0
M  V30 2023 H 193.773 4.03162 2.23152 0
M  V30 2024 H 192.088 3.56392 2.15345 0
M  V30 2025 H 194.685 2.50354 4.72469 0
M  V30 2026 H 195.028 0.925819 4.05875 0
M  V30 2027 H 195.561 2.38287 3.18534 0
M  V30 2028 H 192.3 5.30615 3.84874 0
M  V30 2029 H 191.82 3.79137 4.64774 0
M  V30 2030 H 193.499 4.37346 4.76799 0
M  V30 2031 N 193.631 -1.12557 1.10312 0
M  V30 2032 C 194.594 -2.16434 0.75424 0
M  V30 2033 C 195.594 -1.59278 -0.220685 0
M  V30 2034 O 196.784 -1.742 0.00230591 0
M  V30 2035 C 193.916 -3.40699 0.116987 0
M  V30 2036 H 195.109 -2.48811 1.67431 0
M  V30 2037 H 192.662 -1.27542 0.903475 0
M  V30 2038 H 193.397 -3.13921 -0.813877 0
M  V30 2039 H 193.182 -3.83459 0.818613 0
M  V30 2040 H 194.672 -4.17451 -0.111387 0
M  V30 2041 N 195.109 -0.891671 -1.2995 0
M  V30 2042 C 196.339 -0.527893 -1.99742 0
M  V30 2043 C 196.747 0.88979 -1.66971 0
M  V30 2044 O 196.09 1.59766 -0.906667 0
M  V30 2045 C 196.152 -0.630804 -3.53922 0
M  V30 2046 C 195.816 -2.01401 -4.10228 0
M  V30 2047 C 196.813 -2.98422 -4.25724 0
M  V30 2048 C 194.498 -2.32121 -4.45449 0
M  V30 2049 C 196.492 -4.24293 -4.75662 0
M  V30 2050 C 194.179 -3.58237 -4.95086 0
M  V30 2051 C 195.177 -4.54137 -5.10146 0
M  V30 2052 O 194.865 -5.78014 -5.58708 0
M  V30 2053 H 194.597 -0.201953 -0.645129 0
M  V30 2054 H 197.151 -1.20076 -1.66646 0
M  V30 2055 H 195.381 0.0990616 -3.86573 0
M  V30 2056 H 197.07 -0.277338 -4.04951 0
M  V30 2057 H 197.836 -2.76001 -3.98809 0
M  V30 2058 H 193.715 -1.5824 -4.32991 0
M  V30 2059 H 197.259 -4.99153 -4.87332 0
M  V30 2060 H 193.156 -3.80491 -5.21437 0
M  V30 2061 H 193.924 -5.8049 -5.77039 0
M  V30 2062 N 196.587 1.43421 -0.653314 0
M  V30 2063 C 197.55 2.29182 0.0287951 0
M  V30 2064 C 198.55 1.42213 0.750465 0
M  V30 2065 O 199.74 1.63843 0.591701 0
M  V30 2066 C 196.872 3.24278 1.05151 0
M  V30 2067 H 198.065 2.90985 -0.725786 0
M  V30 2068 H 195.618 1.50702 -0.414545 0
M  V30 2069 H 196.353 2.6737 1.83532 0
M  V30 2070 H 196.138 3.88396 0.537687 0
M  V30 2071 H 197.628 3.88647 1.52786 0
M  V30 2072 N 198.065 0.39524 1.52563 0
M  V30 2073 C 199.293 -0.184943 2.06072 0
M  V30 2074 C 199.708 -1.40021 1.26647 0
M  V30 2075 O 199.065 -1.79767 0.314672 0
M  V30 2076 C 199.116 -0.549179 3.57304 0
M  V30 2077 O 198.837 0.617813 4.33722 0
M  V30 2078 C 200.338 -1.18459 4.2718 0
M  V30 2079 H 197.558 -0.0265025 0.670476 0
M  V30 2080 H 200.102 0.562184 1.96621 0
M  V30 2081 H 198.257 -1.2462 3.66809 0
M  V30 2082 H 198.671 0.317091 5.23541 0
M  V30 2083 H 200.145 -1.38976 5.34219 0
M  V30 2084 H 200.622 -2.15368 3.82771 0
M  V30 2085 H 201.228 -0.528163 4.22008 0
M  V30 2086 N 199.544 -1.57102 0.125237 0
M  V30 2087 C 200.477 -2.11371 -0.860094 0
M  V30 2088 C 201.455 -1.03168 -1.25679 0
M  V30 2089 O 202.639 -1.30862 -1.35674 0
M  V30 2090 C 199.766 -2.61555 -2.1519 0
M  V30 2091 C 198.812 -3.81701 -1.9028 0
M  V30 2092 S 199.645 -5.23797 -1.11343 0
M  V30 2093 C 200.801 -5.77353 -2.41689 0
M  V30 2094 H 201.034 -2.94617 -0.39852 0
M  V30 2095 H 198.567 -1.54145 -0.0886555 0
M  V30 2096 H 200.525 -2.91122 -2.89411 0
M  V30 2097 H 199.186 -1.78479 -2.58465 0
M  V30 2098 H 198.379 -4.14985 -2.86014 0
M  V30 2099 H 197.981 -3.52783 -1.24178 0
M  V30 2100 H 200.273 -5.87458 -3.37489 0
M  V30 2101 H 201.216 -6.75323 -2.12942 0
M  V30 2102 H 201.624 -5.05457 -2.51342 0
M  V30 2103 N 201.022 0.148545 -1.56898 0
M  V30 2104 C 201.932 1.20293 -2.01412 0
M  V30 2105 C 202.948 1.47107 -0.929273 0
M  V30 2106 O 204.124 1.58807 -1.23863 0
M  V30 2107 C 201.189 2.51682 -2.38447 0
M  V30 2108 C 200.25 2.32529 -3.60872 0
M  V30 2109 C 199.483 3.57653 -3.96132 0
M  V30 2110 O 199.706 4.63771 -3.32073 0
M  V30 2111 O 198.64 3.50408 -4.89385 0
M  V30 2112 H 202.466 0.855025 -2.91416 0
M  V30 2113 H 200.051 0.357151 -1.45068 0
M  V30 2114 H 201.933 3.29147 -2.63135 0
M  V30 2115 H 200.608 2.86006 -1.51599 0
M  V30 2116 H 199.515 1.53019 -3.41373 0
M  V30 2117 H 200.848 2.03121 -4.48333 0
M  V30 2118 N 202.5 1.5196 0.417844 0
M  V30 2119 C 203.463 1.74065 1.49111 0
M  V30 2120 C 204.463 0.610537 1.48758 0
M  V30 2121 O 205.653 0.87832 1.50437 0
M  V30 2122 C 202.785 1.81502 2.88565 0
M  V30 2123 H 203.978 2.69869 1.30807 0
M  V30 2124 H 201.531 1.42244 0.647785 0
M  V30 2125 H 202.266 0.875813 3.1225 0
M  V30 2126 H 202.051 2.63651 2.90225 0
M  V30 2127 H 203.541 2.00376 3.66387 0
M  V30 2128 N 203.978 -0.674533 1.42435 0
M  V30 2129 C 204.908 -1.80009 1.48724 0
M  V30 2130 C 205.889 -1.6659 0.343793 0
M  V30 2131 O 207.074 -1.86007 0.558137 0
M  V30 2132 C 204.204 -3.18306 1.38919 0
M  V30 2133 C 203.158 -3.46461 2.51294 0
M  V30 2134 C 202.484 -4.84335 2.26547 0
M  V30 2135 C 203.784 -3.43328 3.93603 0
M  V30 2136 H 205.478 -1.75004 2.42928 0
M  V30 2137 H 203.024 -0.840533 1.16923 0
M  V30 2138 H 204.977 -3.9678 1.41927 0
M  V30 2139 H 203.701 -3.2399 0.412094 0
M  V30 2140 H 202.36 -2.70348 2.47604 0
M  V30 2141 H 202.008 -4.86669 1.2713 0
M  V30 2142 H 201.708 -5.04136 3.01861 0
M  V30 2143 H 203.232 -5.65094 2.31304 0
M  V30 2144 H 204.646 -4.11772 3.98894 0
M  V30 2145 H 203.043 -3.74664 4.68771 0
M  V30 2146 H 204.113 -2.41897 4.20255 0
M  V30 2147 N 205.456 -1.28612 -0.910864 0
M  V30 2148 C 206.872 -1.06381 -1.18976 0
M  V30 2149 C 207.072 0.191998 -2.00583 0
M  V30 2150 O 206.128 0.892869 -2.36187 0
M  V30 2151 C 207.441 -2.31295 -1.92154 0
M  V30 2152 C 208.989 -2.36503 -2.05025 0
M  V30 2153 C 209.464 -3.61191 -2.81612 0
M  V30 2154 N 210.955 -3.61847 -2.89172 0
M  V30 2155 C 211.69 -4.55004 -3.4894 0
M  V30 2156 N 211.186 -5.58482 -4.09963 0
M  V30 2157 N 212.979 -4.42594 -3.46506 0
M  V30 2158 H 205.13 -2.09221 -0.366094 0
M  V30 2159 H 207.393 -0.921003 -0.224629 0
M  V30 2160 H 207.099 -3.228 -1.39618 0
M  V30 2161 H 206.973 -2.37934 -2.9269 0
M  V30 2162 H 209.36 -1.45494 -2.5674 0
M  V30 2163 H 209.441 -2.33857 -1.03657 0
M  V30 2164 H 209.085 -4.52545 -2.30576 0
M  V30 2165 H 209.015 -3.61092 -3.83302 0
M  V30 2166 H 211.506 -2.87022 -2.45819 0
M  V30 2167 H 211.819 -6.25704 -4.53557 0
M  V30 2168 H 210.164 -5.62305 -4.08459 0
M  V30 2169 H 213.355 -3.60953 -2.98045 0
M  V30 2170 H 213.528 -5.15381 -3.92793 0
M  V30 2171 N 206.934 1.1197 -1.10907 0
M  V30 2172 C 207.866 2.17592 -0.720175 0
M  V30 2173 C 208.879 1.60938 0.245495 0
M  V30 2174 O 210.068 1.78476 0.0292245 0
M  V30 2175 C 207.168 3.38873 -0.0427917 0
M  V30 2176 C 206.341 4.25006 -1.03388 0
M  V30 2177 C 205.4 5.24774 -0.387075 0
M  V30 2178 O 204.426 5.59631 -1.03934 0
M  V30 2179 N 205.628 5.74208 0.852407 0
M  V30 2180 H 208.393 2.51567 -1.62893 0
M  V30 2181 H 205.954 1.27439 -0.998543 0
M  V30 2182 H 207.946 4.02703 0.401501 0
M  V30 2183 H 206.516 3.03007 0.768456 0
M  V30 2184 H 205.736 3.57716 -1.65629 0
M  V30 2185 H 207.024 4.79397 -1.70458 0
M  V30 2186 H 206.422 5.48062 1.40161 0
M  V30 2187 H 204.979 6.39901 1.23977 0
M  V30 2188 N 208.412 0.89855 1.29475 0
M  V30 2189 C 209.342 0.39201 2.30186 0
M  V30 2190 C 210.323 -0.532359 1.61555 0
M  V30 2191 O 211.508 -0.443331 1.89072 0
M  V30 2192 C 208.638 -0.382353 3.45189 0
M  V30 2193 C 207.592 0.451483 4.25612 0
M  V30 2194 C 206.918 -0.450307 5.328 0
M  V30 2195 C 208.218 1.70079 4.93832 0
M  V30 2196 H 209.912 1.23362 2.72804 0
M  V30 2197 H 207.458 0.594638 1.31149 0
M  V30 2198 H 209.411 -0.747451 4.14718 0
M  V30 2199 H 208.135 -1.25774 3.01411 0
M  V30 2200 H 206.794 0.798897 3.57789 0
M  V30 2201 H 206.442 -1.32379 4.85268 0
M  V30 2202 H 206.142 0.103902 5.87508 0
M  V30 2203 H 207.666 -0.811623 6.05182 0
M  V30 2204 H 209.08 1.40549 5.55805 0
M  V30 2205 H 207.477 2.19623 5.58467 0
M  V30 2206 H 208.547 2.43744 4.19186 0
M  V30 2207 N 209.89 -1.43072 0.660911 0
M  V30 2208 C 211.306 -1.56169 0.329173 0
M  V30 2209 C 211.506 -1.64317 -1.16629 0
M  V30 2210 O 210.562 -1.60245 -1.95135 0
M  V30 2211 C 211.875 -2.81873 1.04729 0
M  V30 2212 C 213.423 -2.95627 1.02828 0
M  V30 2213 C 213.898 -4.24174 1.72744 0
M  V30 2214 N 215.389 -4.31055 1.69545 0
M  V30 2215 C 216.124 -5.29304 2.20511 0
M  V30 2216 N 215.62 -6.33786 2.79799 0
M  V30 2217 N 217.413 -5.21008 2.10966 0
M  V30 2218 H 209.564 -1.36027 1.63127 0
M  V30 2219 H 211.827 -0.653823 0.686454 0
M  V30 2220 H 211.533 -2.81942 2.10242 0
M  V30 2221 H 211.407 -3.72338 0.603702 0
M  V30 2222 H 213.794 -2.95094 -0.0184742 0
M  V30 2223 H 213.875 -2.06431 1.51063 0
M  V30 2224 H 213.519 -4.25467 2.7738 0
M  V30 2225 H 213.449 -5.1228 1.2197 0
M  V30 2226 H 215.94 -3.56174 1.26288 0
M  V30 2227 H 216.253 -7.05086 3.16344 0
M  V30 2228 H 214.598 -6.34387 2.83863 0
M  V30 2229 H 217.789 -4.38301 1.64347 0
M  V30 2230 H 217.962 -5.97416 2.50993 0
M  V30 2231 N 211.368 -0.403325 -1.52352 0
M  V30 2232 C 212.596 0.174012 -2.06167 0
M  V30 2233 C 213.011 1.39347 -1.27388 0
M  V30 2234 O 212.368 1.79597 -0.324201 0
M  V30 2235 C 212.419 0.530223 -3.5759 0
M  V30 2236 O 212.14 -0.640806 -4.33388 0
M  V30 2237 C 213.641 1.16192 -4.27802 0
M  V30 2238 H 210.861 0.0229464 -0.670608 0
M  V30 2239 H 213.405 -0.572604 -1.9632 0
M  V30 2240 H 211.56 1.22673 -3.67464 0
M  V30 2241 H 211.974 -0.344851 -5.23365 0
M  V30 2242 H 213.448 1.36141 -5.34948 0
M  V30 2243 H 213.925 2.13335 -3.83907 0
M  V30 2244 H 214.531 0.505775 -4.22282 0
M  V30 2245 N 212.846 1.57033 -0.133567 0
M  V30 2246 C 213.793 2.16074 0.811208 0
M  V30 2247 C 214.763 1.08979 1.2535 0
M  V30 2248 O 215.948 1.36958 1.32843 0
M  V30 2249 C 213.088 2.77595 2.05024 0
M  V30 2250 C 212.201 3.99042 1.65498 0
M  V30 2251 C 211.336 4.48603 2.84479 0
M  V30 2252 C 210.375 5.62547 2.41262 0
M  V30 2253 N 209.512 6.06787 3.53206 0
M  V30 2254 H 214.352 2.96477 0.300906 0
M  V30 2255 H 211.889 1.46462 0.136822 0
M  V30 2256 H 213.847 3.11402 2.77642 0
M  V30 2257 H 212.477 1.99859 2.53488 0
M  V30 2258 H 211.529 3.71302 0.826981 0
M  V30 2259 H 212.841 4.81629 1.29748 0
M  V30 2260 H 211.995 4.84395 3.65303 0
M  V30 2261 H 210.734 3.64995 3.23465 0
M  V30 2262 H 209.739 5.26345 1.58874 0
M  V30 2263 H 210.964 6.47931 2.03377 0
M  V30 2264 H 208.91 5.26117 3.91838 0
M  V30 2265 H 208.827 6.84266 3.21427 0
M  V30 2266 H 210.095 6.4722 4.34427 0
M  V30 2267 N 214.325 -0.140222 1.56975 0
M  V30 2268 C 215.288 -1.15689 1.97861 0
M  V30 2269 C 216.288 -1.3549 0.865974 0
M  V30 2270 O 217.478 -1.32367 1.13246 0
M  V30 2271 C 214.61 -2.51582 2.30042 0
M  V30 2272 H 215.803 -0.805971 2.88867 0
M  V30 2273 H 213.356 -0.383801 1.51515 0
M  V30 2274 H 214.091 -2.91632 1.41849 0
M  V30 2275 H 213.876 -2.38569 3.11171 0
M  V30 2276 H 215.366 -3.24792 2.62488 0
M  V30 2277 N 215.803 -1.52179 -0.40978 0
M  V30 2278 C 217.08 -1.56769 -1.16974 0
M  V30 2279 C 217.46 -0.348322 -2.08206 0
M  V30 2280 O 216.808 0.664862 -2.18613 0
M  V30 2281 C 217.018 -2.89603 -1.9476 0
M  V30 2282 C 218.366 -3.42579 -2.50849 0
M  V30 2283 O 219.39 -2.91338 -2.04941 0
M  V30 2284 O 218.249 -4.32054 -3.34652 0
M  V30 2285 H 215.343 -0.631439 -0.534054 0
M  V30 2286 H 217.889 -1.64507 -0.416613 0
M  V30 2287 H 216.661 -3.698 -1.27921 0
M  V30 2288 H 216.284 -2.85155 -2.77079 0
M  V30 2289 N 217.281 0.66697 -1.42791 0
M  V30 2290 C 218.527 1.4291 -1.43891 0
M  V30 2291 C 218.86 1.94114 -0.0578972 0
M  V30 2292 O 218.135 1.71414 0.91911 0
M  V30 2293 C 218.418 2.62049 -2.46987 0
M  V30 2294 C 218.271 2.16426 -3.94309 0
M  V30 2295 C 219.59 3.64266 -2.46978 0
M  V30 2296 H 216.709 0.518306 -0.523954 0
M  V30 2297 H 219.351 0.757321 -1.74255 0
M  V30 2298 H 217.501 3.19361 -2.21225 0
M  V30 2299 H 219.173 1.64221 -4.31079 0
M  V30 2300 H 217.416 1.47925 -4.078 0
M  V30 2301 H 218.087 3.02038 -4.62036 0
M  V30 2302 H 220.563 3.16686 -2.69906 0
M  V30 2303 H 219.439 4.45196 -3.21079 0
M  V30 2304 H 219.7 4.15927 -1.49857 0
M  V30 2305 N 218.759 1.29093 0.90403 0
M  V30 2306 C 219.669 1.15727 2.0407 0
M  V30 2307 C 220.685 0.0815308 1.73809 0
M  V30 2308 O 221.861 0.292749 1.99261 0
M  V30 2309 C 218.926 0.830424 3.36608 0
M  V30 2310 C 217.987 1.98955 3.80415 0
M  V30 2311 C 217.22 1.6782 5.06628 0
M  V30 2312 O 217.443 0.597105 5.67266 0
M  V30 2313 O 216.377 2.52486 5.46383 0
M  V30 2314 H 220.203 2.11171 2.18267 0
M  V30 2315 H 217.788 1.08504 1.027 0
M  V30 2316 H 219.67 0.662521 4.16159 0
M  V30 2317 H 218.345 -0.0942678 3.23563 0
M  V30 2318 H 217.252 2.21267 3.01648 0
M  V30 2319 H 218.585 2.89529 3.98037 0
M  V30 2320 N 220.237 -1.11381 1.11499 0
M  V30 2321 C 221.653 -1.35143 0.849031 0
M  V30 2322 C 221.853 -1.94515 -0.525938 0
M  V30 2323 O 220.909 -2.1785 -1.27662 0
M  V30 2324 C 222.222 -2.28249 1.95762 0
M  V30 2325 C 223.77 -2.41812 1.98736 0
M  V30 2326 C 224.245 -3.3824 3.088 0
M  V30 2327 N 225.736 -3.45803 3.08179 0
M  V30 2328 C 226.471 -4.20358 3.89982 0
M  V30 2329 N 225.967 -4.97884 4.8175 0
M  V30 2330 N 227.76 -4.15877 3.78157 0
M  V30 2331 H 219.911 -0.712062 2.00109 0
M  V30 2332 H 222.174 -0.376025 0.870235 0
M  V30 2333 H 221.88 -1.91817 2.94787 0
M  V30 2334 H 221.754 -3.28473 1.85433 0
M  V30 2335 H 224.141 -2.77518 1.00338 0
M  V30 2336 H 224.222 -1.41437 2.13141 0
M  V30 2337 H 223.866 -3.03261 4.07425 0
M  V30 2338 H 223.796 -4.38471 2.91635 0
M  V30 2339 H 226.287 -2.90506 2.41691 0
M  V30 2340 H 226.6 -5.52142 5.40702 0
M  V30 2341 H 224.945 -4.97043 4.85771 0
M  V30 2342 H 228.136 -3.544 3.05808 0
M  V30 2343 H 228.309 -4.73723 4.42143 0
M  V30 2344 N 221.715 -0.905404 -1.28997 0
M  V30 2345 C 222.645 -0.404212 -2.29975 0
M  V30 2346 C 223.626 0.523784 -1.61835 0
M  V30 2347 O 224.811 0.433298 -1.89304 0
M  V30 2348 C 221.941 0.364042 -3.45387 0
M  V30 2349 C 220.895 -0.474048 -4.25367 0
M  V30 2350 C 220.221 0.422045 -5.33032 0
M  V30 2351 C 221.521 -1.72696 -4.92923 0
M  V30 2352 H 223.215 -1.24807 -2.72146 0
M  V30 2353 H 220.761 -0.601585 -1.30832 0
M  V30 2354 H 222.714 0.725447 -4.15109 0
M  V30 2355 H 221.438 1.24174 -3.02074 0
M  V30 2356 H 220.097 -0.81786 -3.57361 0
M  V30 2357 H 219.745 1.29804 -4.85963 0
M  V30 2358 H 219.445 -0.135057 -5.87445 0
M  V30 2359 H 220.969 0.779517 -6.05604 0
M  V30 2360 H 222.383 -1.43495 -5.55051 0
M  V30 2361 H 220.78 -2.22582 -5.57295 0
M  V30 2362 H 221.85 -2.45964 -4.17887 0
M  V30 2363 N 223.193 1.4272 -0.668489 0
M  V30 2364 C 224.609 1.55992 -0.33745 0
M  V30 2365 C 224.809 1.64933 1.15756 0
M  V30 2366 O 223.865 1.61278 1.94282 0
M  V30 2367 C 225.178 2.81314 -1.06222 0
M  V30 2368 C 226.726 2.95078 -1.04394 0
M  V30 2369 C 227.201 4.23252 -1.74991 0
M  V30 2370 N 228.692 4.3015 -1.71829 0
M  V30 2371 C 229.427 5.28127 -2.23315 0
M  V30 2372 N 228.923 6.32293 -2.83156 0
M  V30 2373 N 230.716 5.19882 -2.13726 0
M  V30 2374 H 222.867 1.3516 -1.63846 0
M  V30 2375 H 225.13 0.650174 -0.689912 0
M  V30 2376 H 224.836 2.80823 -2.11734 0
M  V30 2377 H 224.71 3.72012 -0.62344 0
M  V30 2378 H 227.097 2.951 0.0028244 0
M  V30 2379 H 227.178 2.05627 -1.52155 0
M  V30 2380 H 226.822 4.2399 -2.79633 0
M  V30 2381 H 226.752 5.11626 -1.24685 0
M  V30 2382 H 229.243 3.55499 -1.28175 0
M  V30 2383 H 229.556 7.03398 -3.20079 0
M  V30 2384 H 227.901 6.32873 -2.87223 0
M  V30 2385 H 231.092 4.37423 -1.66669 0
M  V30 2386 H 231.265 5.96077 -2.54158 0
M  V30 2387 N 224.671 0.411399 1.52136 0
M  V30 2388 C 225.618 -0.412975 2.27075 0
M  V30 2389 C 226.588 -1.03912 1.29582 0
M  V30 2390 O 227.773 -1.06296 1.58448 0
M  V30 2391 C 224.913 -1.52247 3.09701 0
M  V30 2392 C 224.026 -0.917021 4.22155 0
M  V30 2393 C 223.161 -1.9994 4.92135 0
M  V30 2394 C 222.2 -1.37101 5.96548 0
M  V30 2395 N 221.337 -2.39364 6.60038 0
M  V30 2396 H 226.177 0.232499 2.97092 0
M  V30 2397 H 223.714 0.126496 1.46555 0
M  V30 2398 H 225.672 -2.17674 3.55913 0
M  V30 2399 H 224.302 -2.13794 2.41851 0
M  V30 2400 H 223.354 -0.151742 3.80097 0
M  V30 2401 H 224.666 -0.418006 4.97045 0
M  V30 2402 H 223.82 -2.73088 5.41763 0
M  V30 2403 H 222.559 -2.53208 4.16818 0
M  V30 2404 H 221.564 -0.624873 5.46237 0
M  V30 2405 H 222.789 -0.845998 6.7381 0
M  V30 2406 H 220.735 -2.91759 5.87548 0
M  V30 2407 H 220.652 -1.9428 7.3061 0
M  V30 2408 H 221.92 -3.12074 7.14304 0
M  V30 2409 N 226.149 -1.5696 0.141893 0
M  V30 2410 C 227.397 -1.95573 -0.509484 0
M  V30 2411 C 227.718 -1.02746 -1.65736 0
M  V30 2412 O 226.988 -0.0880311 -1.95702 0
M  V30 2413 H 225.568 -0.722115 -0.191205 0
M  V30 2414 H 228.23 -1.93697 0.216196 0
M  V30 2415 H 227.326 -2.99171 -0.889 0
M  V30 2416 N 227.627 0.131896 -1.57047 0
M  V30 2417 C 228.537 1.1815 -2.02676 0
M  V30 2418 C 229.553 1.46113 -0.944824 0
M  V30 2419 O 230.729 1.57485 -1.25541 0
M  V30 2420 C 227.794 2.49139 -2.41103 0
M  V30 2421 C 226.855 2.28688 -3.63318 0
M  V30 2422 C 226.088 3.53431 -3.99903 0
M  V30 2423 O 226.311 4.60223 -3.36973 0
M  V30 2424 O 225.245 3.45198 -4.93074 0
M  V30 2425 H 229.071 0.824069 -2.92306 0
M  V30 2426 H 226.656 0.341745 -1.45439 0
M  V30 2427 H 228.538 3.26338 -2.66611 0
M  V30 2428 H 227.213 2.84382 -1.54624 0
M  V30 2429 H 226.12 1.4939 -3.42977 0
M  V30 2430 H 227.453 1.98355 -4.50462 0
M  V30 2431 N 229.106 1.52395 0.401703 0
M  V30 2432 C 230.069 1.75636 1.47257 0
M  V30 2433 C 231.069 0.62628 1.48103 0
M  V30 2434 O 232.259 0.894227 1.49497 0
M  V30 2435 C 229.391 1.84553 2.86624 0
M  V30 2436 H 230.584 2.71241 1.27938 0
M  V30 2437 H 228.137 1.42923 0.632662 0
M  V30 2438 H 228.872 0.908882 3.11303 0
M  V30 2439 H 228.657 2.66715 2.87412 0
M  V30 2440 H 230.147 2.04251 3.64241 0
M  V30 2441 N 230.584 -0.659388 1.43143 0
M  V30 2442 C 231.534 -1.7655 1.44271 0
M  V30 2443 C 232.518 -1.57847 0.311961 0
M  V30 2444 O 233.71 -1.68064 0.555306 0
M  V30 2445 C 230.839 -3.15104 1.36251 0
M  V30 2446 C 229.925 -3.39377 2.54331 0
M  V30 2447 N 230.316 -3.34153 3.79704 0
M  V30 2448 C 228.614 -3.70072 2.48922 0
M  V30 2449 C 229.315 -3.58337 4.58225 0
M  V30 2450 N 228.291 -3.79851 3.88863 0
M  V30 2451 H 232.093 -1.70928 2.39083 0
M  V30 2452 H 229.607 -0.860823 1.37708 0
M  V30 2453 H 231.604 -3.94389 1.35141 0
M  V30 2454 H 230.264 -3.21913 0.424531 0
M  V30 2455 H 231.275 -3.13704 4.1208 0
M  V30 2456 H 227.952 -3.84034 1.63781 0
M  V30 2457 H 229.342 -3.60129 5.67236 0
M  V30 2458 N 232.062 -1.29571 -0.897171 0
M  V30 2459 C 233.025 -1.14913 -1.98312 0
M  V30 2460 C 234.025 -0.0838629 -1.60581 0
M  V30 2461 O 235.215 -0.331006 -1.71026 0
M  V30 2462 C 232.347 -0.757835 -3.3237 0
M  V30 2463 H 233.54 -2.11377 -2.12743 0
M  V30 2464 H 231.093 -1.12793 -1.08201 0
M  V30 2465 H 231.828 0.206837 -3.2364 0
M  V30 2466 H 231.613 -1.52755 -3.61121 0
M  V30 2467 H 233.103 -0.678408 -4.12053 0
M  V30 2468 N 233.54 1.10788 -1.12088 0
M  V30 2469 C 234.472 2.16816 -0.743213 0
M  V30 2470 C 235.485 1.6119 0.228412 0
M  V30 2471 O 236.674 1.78497 0.0102931 0
M  V30 2472 C 233.774 3.38809 -0.0787313 0
M  V30 2473 C 232.947 4.23885 -1.0789 0
M  V30 2474 C 232.006 5.24334 -0.442713 0
M  V30 2475 O 231.032 5.58497 -1.09864 0
M  V30 2476 N 232.234 5.75079 0.791457 0
M  V30 2477 H 234.999 2.49825 -1.65552 0
M  V30 2478 H 232.56 1.26373 -1.012 0
M  V30 2479 H 234.552 4.03107 0.358766 0
M  V30 2480 H 233.122 3.03805 0.736275 0
M  V30 2481 H 232.342 3.55939 -1.69414 0
M  V30 2482 H 233.63 4.77562 -1.75533 0
M  V30 2483 H 233.028 5.49517 1.3434 0
M  V30 2484 H 231.585 6.4118 1.17183 0
M  V30 2485 N 235.018 0.912232 1.28515 0
M  V30 2486 C 235.981 0.404223 2.25607 0
M  V30 2487 C 236.981 -0.468602 1.53821 0
M  V30 2488 O 238.171 -0.271873 1.72065 0
M  V30 2489 C 235.303 -0.420653 3.38295 0
M  V30 2490 H 236.496 1.26188 2.7206 0
M  V30 2491 H 234.049 0.691495 1.40171 0
M  V30 2492 H 234.784 -1.29777 2.97201 0
M  V30 2493 H 234.569 0.204935 3.91564 0
M  V30 2494 H 236.059 -0.766971 4.10496 0
M  V30 2495 N 236.496 -1.42363 0.676048 0
M  V30 2496 C 237.428 -2.29164 -0.0404605 0
M  V30 2497 C 238.441 -1.43747 -0.764245 0
M  V30 2498 O 239.63 -1.67453 -0.618195 0
M  V30 2499 C 236.73 -3.21196 -1.08103 0
M  V30 2500 C 235.903 -4.35273 -0.430812 0
M  V30 2501 C 234.962 -5.08017 -1.37133 0
M  V30 2502 O 233.988 -5.62494 -0.87116 0
M  V30 2503 N 235.19 -5.13647 -2.70456 0
M  V30 2504 H 237.955 -2.91298 0.704667 0
M  V30 2505 H 235.516 -1.53303 0.520559 0
M  V30 2506 H 237.508 -3.66728 -1.71152 0
M  V30 2507 H 236.078 -2.60505 -1.72788 0
M  V30 2508 H 235.298 -3.92372 0.379209 0
M  V30 2509 H 236.586 -5.08795 0.0221132 0
M  V30 2510 H 235.984 -4.708 -3.1363 0
M  V30 2511 H 234.541 -5.62821 -3.28749 0
M  V30 2512 N 237.974 -0.419461 -1.51915 0
M  V30 2513 C 239.222 0.152637 -2.01523 0
M  V30 2514 C 239.543 1.44762 -1.30649 0
M  V30 2515 O 238.813 1.90997 -0.435535 0
M  V30 2516 H 237.393 0.0593966 -0.744635 0
M  V30 2517 H 240.055 -0.558073 -1.86739 0
M  V30 2518 H 239.151 0.341369 -3.10227 0
M  V30 2519 O 239.491 1.58856 -0.291037 0
M  V30 2520 H 240.182 1.91728 0.275667 0
M  V30 END ATOM
M  V30 BEGIN BOND
M  V30 END BOND
M  V30 END CTAB
M  END
$$$$
