drugbank_target|P07445 Steroid Delta-isomerase (DB03515; DB03619)
 OpenBabel12092119503D

  0  0  0     0  0            999 V3000
M  V30 BEGIN CTAB
M  V30 COUNTS 1999 2021 0 0 0
M  V30 BEGIN ATOM
M  V30 1 H -0.908 1.98254 -0.117106 0
M  V30 2 N 0 1.576 0 0
M  V30 3 C 0.933 2.03868 1.02534 0
M  V30 4 C 1.911 0.928543 1.3348 0
M  V30 5 O 3.095 1.19667 1.45644 0
M  V30 6 C 0.222 2.43627 2.35294 0
M  V30 7 C -0.732 3.65373 2.2001 0
M  V30 8 S 0.101 5.13292 1.52614 0
M  V30 9 C 1.257 5.56322 2.86805 0
M  V30 10 H 1.49 2.90518 0.631377 0
M  V30 11 H -0.977 1.52953 0.210867 0
M  V30 12 H 0.981 2.67203 3.11629 0
M  V30 13 H -0.358 1.57376 2.7183 0
M  V30 14 H -1.165 3.90944 3.18086 0
M  V30 15 H -1.563 3.418 1.51819 0
M  V30 16 H 0.729 5.58782 3.83104 0
M  V30 17 H 1.672 6.56266 2.65933 0
M  V30 18 H 2.08 4.83886 2.90714 0
M  V30 19 N 1.4781 -0.272755 1.55222 0
M  V30 20 C 2.4261 -1.35705 1.88909 0
M  V30 21 C 3.4201 -1.5112 0.765456 0
M  V30 22 O 4.6261 -1.52901 0.949802 0
M  V30 23 H 1.0011 -0.453868 0.59959 0
M  V30 24 H 2.9721 -1.04544 2.79487 0
M  V30 25 C 1.7211 -2.71049 2.17779 0
M  V30 26 H 1.0441 -2.59979 3.03728 0
M  V30 27 H 2.4841 -3.45858 2.45272 0
M  V30 28 C 0.9431 -3.22165 0.985473 0
M  V30 29 O 1.4731 -4.01096 0.220233 0
M  V30 30 N -0.3209 -2.7985 0.783108 0
M  V30 31 H -0.7739 -2.15775 1.40708 0
M  V30 32 H -0.8159 -3.14397 -0.0130392 0
M  V30 33 N 2.9562 -1.48159 -0.537278 0
M  V30 34 C 3.8862 -1.65029 -1.6519 0
M  V30 35 C 4.8672 -0.499281 -1.62607 0
M  V30 36 O 6.0522 -0.730972 -1.79918 0
M  V30 37 C 3.1822 -1.68303 -3.03795 0
M  V30 38 C 2.1362 -2.8283 -3.21234 0
M  V30 39 C 1.4622 -2.71189 -4.60826 0
M  V30 40 C 2.7622 -4.24211 -3.04701 0
M  V30 41 H 4.4562 -2.58341 -1.51328 0
M  V30 42 H 2.0022 -1.24325 -0.726585 0
M  V30 43 H 3.9552 -1.78693 -3.81637 0
M  V30 44 H 2.6792 -0.715635 -3.18663 0
M  V30 45 H 1.3382 -2.71983 -2.45807 0
M  V30 46 H 0.9862 -1.72435 -4.7252 0
M  V30 47 H 0.6862 -3.48035 -4.7344 0
M  V30 48 H 2.2102 -2.83537 -5.40777 0
M  V30 49 H 3.6242 -4.3593 -3.72341 0
M  V30 50 H 2.0212 -5.01998 -3.28813 0
M  V30 51 H 3.0912 -4.41184 -2.01209 0
M  V30 52 N 4.4343 0.785586 -1.36625 0
M  V30 53 C 5.8453 1.36101 -1.27803 0
M  V30 54 C 6.1963 1.96035 0.0804875 0
M  V30 55 O 5.3213 1.92834 0.982042 0
M  V30 56 C 5.9163 2.47442 -2.31426 0
M  V30 57 C 4.4753 3.00789 -2.26281 0
M  V30 58 C 3.6223 1.73896 -2.15999 0
M  V30 59 H 6.5733 0.586928 -1.47448 0
M  V30 60 H 6.5943 3.2656 -1.95291 0
M  V30 61 H 6.1063 2.03791 -3.30289 0
M  V30 62 H 4.2073 3.48851 -1.30896 0
M  V30 63 H 4.3203 3.57343 -3.19128 0
M  V30 64 H 2.6843 1.9628 -1.62316 0
M  V30 65 H 3.4673 1.32368 -3.16755 0
M  V30 66 N 5.9124 1.20967 1.01018 0
M  V30 67 C 7.1404 1.04956 1.78303 0
M  V30 68 C 7.5554 -0.400915 1.84494 0
M  V30 69 O 6.9124 -1.27826 1.30257 0
M  V30 70 C 6.9634 1.63403 3.22462 0
M  V30 71 O 6.6844 3.02775 3.16637 0
M  V30 72 C 8.1854 1.52432 4.16268 0
M  V30 73 H 5.4054 0.368858 0.560522 0
M  V30 74 H 7.9494 1.60193 1.27116 0
M  V30 75 H 6.1044 1.1227 3.70775 0
M  V30 76 H 6.5184 3.30626 4.07169 0
M  V30 77 H 7.9924 1.98078 5.15237 0
M  V30 78 H 8.4694 0.477875 4.36592 0
M  V30 79 H 9.0754 2.02787 3.73841 0
M  V30 80 N 7.3905 -1.2043 1.01659 0
M  V30 81 C 8.3535 -2.21433 0.591616 0
M  V30 82 C 9.3535 -1.57203 -0.338226 0
M  V30 83 O 10.5435 -1.73737 -0.126918 0
M  V30 84 C 7.6755 -3.40628 -0.136058 0
M  V30 85 H 8.8685 -2.60545 1.48514 0
M  V30 86 H 6.4215 -1.33893 0.806379 0
M  V30 87 H 7.1565 -3.07019 -1.04449 0
M  V30 88 H 6.9415 -3.88475 0.531917 0
M  V30 89 H 8.4315 -4.15475 -0.420735 0
M  V30 90 N 8.8686 -0.792821 -1.36206 0
M  V30 91 C 9.8006 -0.151469 -2.28699 0
M  V30 92 C 10.8136 0.641262 -1.49638 0
M  V30 93 O 12.0026 0.475885 -1.72039 0
M  V30 94 C 9.1026 0.808424 -3.29117 0
M  V30 95 C 8.2756 0.0650202 -4.37352 0
M  V30 96 C 7.3346 0.941358 -5.17711 0
M  V30 97 O 6.3606 0.397352 -5.67811 0
M  V30 98 N 7.5626 2.2652 -5.3448 0
M  V30 99 H 10.3276 -0.945982 -2.84379 0
M  V30 100 H 7.8886 -0.647032 -1.48409 0
M  V30 101 H 9.8806 1.3986 -3.79765 0
M  V30 102 H 8.4506 1.5038 -2.74052 0
M  V30 103 H 7.6706 -0.706255 -3.87822 0
M  V30 104 H 8.9586 -0.447847 -5.06825 0
M  V30 105 H 8.3566 2.73128 -4.95396 0
M  V30 106 H 6.9136 2.80493 -5.88359 0
M  V30 107 N 10.3467 1.47872 -0.545128 0
M  V30 108 C 11.2567 2.33633 0.212746 0
M  V30 109 C 12.2727 1.4744 0.923983 0
M  V30 110 O 13.4487 1.80393 0.895572 0
M  V30 111 C 10.5137 3.23884 1.23693 0
M  V30 112 C 9.5747 4.25961 0.534417 0
M  V30 113 C 8.8077 5.11899 1.5098 0
M  V30 114 O 9.0307 5.00077 2.7437 0
M  V30 115 O 7.9647 5.92831 1.0409 0
M  V30 116 H 11.7907 2.99714 -0.490416 0
M  V30 117 H 9.3757 1.46235 -0.305871 0
M  V30 118 H 11.2577 3.79666 1.82843 0
M  V30 119 H 9.9327 2.60446 1.92222 0
M  V30 120 H 8.8397 3.73972 -0.0979679 0
M  V30 121 H 10.1727 4.92079 -0.109213 0
M  V30 122 N 11.8248 0.280983 1.55075 0
M  V30 123 C 13.0708 -0.33461 2.00021 0
M  V30 124 C 13.4038 -1.55063 1.16915 0
M  V30 125 O 12.6788 -1.93006 0.240646 0
M  V30 126 C 12.9618 -0.711007 3.53011 0
M  V30 127 C 12.8148 0.512766 4.46868 0
M  V30 128 C 14.1338 -1.54522 4.12081 0
M  V30 129 H 11.2528 -0.120147 0.727141 0
M  V30 130 H 13.8948 0.389097 1.85973 0
M  V30 131 H 12.0448 -1.32761 3.65112 0
M  V30 132 H 13.7168 1.15131 4.46702 0
M  V30 133 H 11.9598 1.14975 4.18286 0
M  V30 134 H 12.6308 0.205556 5.51617 0
M  V30 135 H 15.1068 -1.02442 4.03293 0
M  V30 136 H 13.9828 -1.77739 5.19327 0
M  V30 137 H 14.2438 -2.52813 3.62682 0
M  V30 138 N 13.3029 -1.57598 0.00835791 0
M  V30 139 C 14.2349 -2.05811 -1.00868 0
M  V30 140 C 15.2479 -0.977579 -1.30182 0
M  V30 141 O 16.4369 -1.25421 -1.27011 0
M  V30 142 C 13.5369 -2.45016 -2.34137 0
M  V30 143 C 12.7099 -3.75903 -2.23643 0
M  V30 144 C 11.7689 -4.01884 -3.3967 0
M  V30 145 O 10.7949 -4.72433 -3.17483 0
M  V30 146 N 11.9969 -3.50432 -4.62793 0
M  V30 147 H 14.7619 -2.93684 -0.597458 0
M  V30 148 H 12.3229 -1.60909 -0.178852 0
M  V30 149 H 14.3149 -2.59506 -3.10546 0
M  V30 150 H 12.8849 -1.62618 -2.66972 0
M  V30 151 H 12.1049 -3.7141 -1.32091 0
M  V30 152 H 13.3929 -4.61695 -2.13812 0
M  V30 153 H 12.7909 -2.93317 -4.83716 0
M  V30 154 H 11.3479 -3.70236 -5.3644 0
M  V30 155 N 14.781 0.264519 -1.55364 0
M  V30 156 C 16.029 0.993021 -1.76021 0
M  V30 157 C 16.35 1.86511 -0.569099 0
M  V30 158 O 15.62 1.91438 0.415735 0
M  V30 159 H 14.2 0.369639 -0.649135 0
M  V30 160 H 16.862 0.286707 -1.9278 0
M  V30 161 H 15.958 1.62502 -2.66457 0
M  V30 162 N 16.2591 1.48442 0.529413 0
M  V30 163 C 17.1891 1.65902 1.64313 0
M  V30 164 C 18.1701 0.507897 1.6234 0
M  V30 165 O 19.3551 0.740503 1.79528 0
M  V30 166 C 16.4851 1.69911 3.02898 0
M  V30 167 C 15.4391 2.8453 3.19729 0
M  V30 168 C 14.7651 2.73629 4.59381 0
M  V30 169 C 16.0651 4.25821 3.02447 0
M  V30 170 H 17.7591 2.5914 1.49955 0
M  V30 171 H 15.3051 1.24709 0.719982 0
M  V30 172 H 17.2581 1.80715 3.80684 0
M  V30 173 H 15.9821 0.732524 3.18279 0
M  V30 174 H 14.6411 2.73283 2.44361 0
M  V30 175 H 14.2891 1.74938 4.71599 0
M  V30 176 H 13.9891 3.50541 4.71588 0
M  V30 177 H 15.5131 2.86401 5.39265 0
M  V30 178 H 16.9271 4.37898 3.70024 0
M  V30 179 H 15.3241 5.03735 3.26146 0
M  V30 180 H 16.3941 4.42244 1.98867 0
M  V30 181 N 17.7372 -0.778329 1.37039 0
M  V30 182 C 18.6702 -1.8984 1.26633 0
M  V30 183 C 19.6482 -1.61923 0.148197 0
M  V30 184 O 20.8322 -1.85742 0.321265 0
M  V30 185 C 17.9592 -3.24916 0.956403 0
M  V30 186 C 17.0052 -3.71752 2.09051 0
M  V30 187 S 17.8382 -3.86201 3.70957 0
M  V30 188 C 18.9942 -5.24135 3.42101 0
M  V30 189 H 19.2272 -1.98377 2.21436 0
M  V30 190 H 16.7602 -0.938738 1.22585 0
M  V30 191 H 18.7182 -4.02936 0.784409 0
M  V30 192 H 17.3792 -3.14089 0.0259713 0
M  V30 193 H 16.5722 -4.69661 1.8285 0
M  V30 194 H 16.1742 -3.00815 2.2223 0
M  V30 195 H 18.4662 -6.09086 2.96682 0
M  V30 196 H 19.4092 -5.55346 4.39314 0
M  V30 197 H 19.8172 -4.91761 2.77185 0
M  V30 198 N 19.2153 -1.21501 -1.00376 0
M  V30 199 C 20.1783 -0.976927 -2.07337 0
M  V30 200 C 21.1783 0.0525322 -1.60714 0
M  V30 201 O 22.3683 -0.184869 -1.73216 0
M  V30 202 C 19.5003 -0.473423 -3.37597 0
M  V30 203 H 20.6933 -1.92587 -2.29892 0
M  V30 204 H 18.2463 -1.03217 -1.17371 0
M  V30 205 H 18.9813 0.480379 -3.20722 0
M  V30 206 H 18.7663 -1.216 -3.72768 0
M  V30 207 H 20.2563 -0.32675 -4.1632 0
M  V30 208 N 20.6934 1.19889 -1.02296 0
M  V30 209 C 22.1094 1.41462 -0.738954 0
M  V30 210 C 22.3094 1.89721 0.678846 0
M  V30 211 O 21.3654 2.07016 1.4457 0
M  V30 212 C 22.6784 2.43083 -1.77005 0
M  V30 213 C 24.2264 2.5684 -1.78892 0
M  V30 214 C 24.7014 3.61709 -2.80945 0
M  V30 215 N 26.1924 3.69199 -2.79725 0
M  V30 216 C 26.9274 4.50019 -3.55345 0
M  V30 217 N 26.4234 5.34592 -4.40662 0
M  V30 218 N 28.2164 4.44612 -3.43914 0
M  V30 219 H 20.3674 0.868827 -1.93817 0
M  V30 220 H 22.6304 0.44399 -0.837602 0
M  V30 221 H 22.3364 2.14636 -2.78612 0
M  V30 222 H 22.2104 3.4217 -1.58744 0
M  V30 223 H 24.5974 2.84614 -0.779674 0
M  V30 224 H 24.6784 1.57927 -2.01228 0
M  V30 225 H 24.3224 3.34678 -3.82038 0
M  V30 226 H 24.2524 4.60259 -2.5587 0
M  V30 227 H 26.7434 3.08794 -2.17842 0
M  V30 228 H 27.0564 5.93363 -4.95116 0
M  V30 229 H 25.4014 5.34073 -4.44737 0
M  V30 230 H 28.5924 3.7758 -2.76679 0
M  V30 231 H 28.7654 5.0736 -4.031 0
M  V30 232 N 22.1715 0.800033 1.35784 0
M  V30 233 C 23.4015 0.389041 2.02904 0
M  V30 234 C 23.8095 -1.0027 1.60445 0
M  V30 235 O 23.1525 -1.65633 0.794453 0
M  V30 236 C 23.2145 0.385495 3.57427 0
M  V30 237 C 22.8785 1.72662 4.23127 0
M  V30 238 C 23.8755 2.68385 4.4527 0
M  V30 239 C 21.5605 2.00883 4.60381 0
M  V30 240 C 23.5545 3.90517 5.03761 0
M  V30 241 C 21.2415 3.2328 5.18588 0
M  V30 242 C 22.2395 4.17915 5.40218 0
M  V30 243 O 21.9275 5.38153 5.97199 0
M  V30 244 H 21.6595 0.157032 0.657508 0
M  V30 245 H 24.2135 1.08311 1.74522 0
M  V30 246 H 22.4435 -0.365128 3.84972 0
M  V30 247 H 24.1325 -0.00228296 4.059 0
M  V30 248 H 24.8985 2.47872 4.16874 0
M  V30 249 H 20.7775 1.28037 4.42863 0
M  V30 250 H 24.3215 4.64395 5.2056 0
M  V30 251 H 20.2185 3.43667 5.4641 0
M  V30 252 H 20.9865 5.3936 6.15656 0
M  V30 253 N 23.6496 -1.47581 0.552962 0
M  V30 254 C 24.8986 -2.01684 0.0251995 0
M  V30 255 C 25.2116 -1.43317 -1.33115 0
M  V30 256 O 26.4176 -1.89057 -1.94858 0
M  V30 257 C 24.8736 -3.599 -0.00542052 0
M  V30 258 C 24.4816 -4.27257 1.34742 0
M  V30 259 C 26.2256 -4.21768 -0.4808 0
M  V30 260 C 24.1326 -5.77467 1.27614 0
M  V30 261 H 23.0626 -0.753979 0.00565033 0
M  V30 262 H 25.7136 -1.69616 0.70018 0
M  V30 263 H 24.0956 -3.88911 -0.745961 0
M  V30 264 H 25.2696 -4.09893 2.10534 0
M  V30 265 H 23.5846 -3.77358 1.76039 0
M  V30 266 H 26.1816 -5.31838 -0.55246 0
M  V30 267 H 26.5246 -3.88651 -1.49184 0
M  V30 268 H 27.0576 -3.97273 0.204752 0
M  V30 269 H 23.7966 -6.15196 2.26304 0
M  V30 270 H 23.3166 -5.9718 0.55996 0
M  V30 271 H 24.9956 -6.3959 0.976421 0
M  V30 272 N 25.1277 -0.289203 -1.54924 0
M  V30 273 C 26.0377 0.601863 -2.26748 0
M  V30 274 C 27.0537 1.15834 -1.2984 0
M  V30 275 O 28.2297 1.18564 -1.62802 0
M  V30 276 C 25.2947 1.76299 -2.98529 0
M  V30 277 C 24.3557 1.24178 -4.10948 0
M  V30 278 C 23.5887 2.34757 -4.79296 0
M  V30 279 O 23.8117 3.54411 -4.46933 0
M  V30 280 O 22.7457 2.02115 -5.66951 0
M  V30 281 H 26.5717 0.0195879 -3.03694 0
M  V30 282 H 24.1567 -0.0560868 -1.49295 0
M  V30 283 H 26.0387 2.43973 -3.43592 0
M  V30 284 H 24.7137 2.33209 -2.24488 0
M  V30 285 H 23.6207 0.531104 -3.70311 0
M  V30 286 H 24.9537 0.718252 -4.86931 0
M  V30 287 N 26.6058 1.57591 -0.0167156 0
M  V30 288 C 27.5358 2.12496 0.967858 0
M  V30 289 C 28.5168 1.03807 1.34752 0
M  V30 290 O 29.7018 1.31577 1.42833 0
M  V30 291 C 26.8318 2.64194 2.25431 0
M  V30 292 C 25.7858 3.77559 2.01576 0
M  V30 293 C 25.1118 4.15636 3.36379 0
M  V30 294 C 26.4118 5.04151 1.36489 0
M  V30 295 H 28.1058 2.95013 0.510643 0
M  V30 296 H 25.6518 1.41915 0.244181 0
M  V30 297 H 27.6048 3.01236 2.94678 0
M  V30 298 H 26.3288 1.78821 2.73296 0
M  V30 299 H 24.9878 3.40937 1.34751 0
M  V30 300 H 24.6358 3.27263 3.81979 0
M  V30 301 H 24.3358 4.92022 3.21229 0
M  V30 302 H 25.8598 4.5525 4.06915 0
M  V30 303 H 27.2738 5.38857 1.95718 0
M  V30 304 H 25.6708 5.85453 1.31776 0
M  V30 305 H 26.7408 4.83733 0.336219 0
M  V30 306 N 28.0839 -0.256276 1.55502 0
M  V30 307 C 29.3299 -0.987079 1.77157 0
M  V30 308 C 29.6629 -1.85327 0.580315 0
M  V30 309 O 28.9379 -1.89874 -0.421686 0
M  V30 310 C 29.2209 -1.85553 3.08613 0
M  V30 311 C 29.0739 -1.01816 4.38125 0
M  V30 312 C 30.3929 -2.8397 3.36228 0
M  V30 313 H 27.5119 -0.357428 0.644526 0
M  V30 314 H 30.1539 -0.258239 1.88237 0
M  V30 315 H 28.3039 -2.47695 2.99298 0
M  V30 316 H 29.9759 -0.416159 4.59419 0
M  V30 317 H 28.2189 -0.322178 4.32602 0
M  V30 318 H 28.8899 -1.65939 5.26468 0
M  V30 319 H 31.3659 -2.31964 3.45445 0
M  V30 320 H 30.2419 -3.41864 4.29442 0
M  V30 321 H 30.5029 -3.59955 2.56681 0
M  V30 322 N 29.562 -1.4872 -0.521534 0
M  V30 323 C 30.839 -1.4766 -1.2828 0
M  V30 324 C 31.219 -0.19292 -2.10217 0
M  V30 325 O 30.567 0.825193 -2.13079 0
M  V30 326 C 30.777 -2.74358 -2.15705 0
M  V30 327 C 32.125 -3.23028 -2.75569 0
M  V30 328 O 33.149 -2.75333 -2.25987 0
M  V30 329 O 32.008 -4.0604 -3.65778 0
M  V30 330 H 29.102 -0.590085 -0.579421 0
M  V30 331 H 31.648 -1.60963 -0.537492 0
M  V30 332 H 30.42 -3.59292 -1.54999 0
M  V30 333 H 30.043 -2.63816 -2.97467 0
M  V30 334 N 31.0401 0.771051 -1.3745 0
M  V30 335 C 32.2861 1.5319 -1.32894 0
M  V30 336 C 32.6191 1.94008 0.0862511 0
M  V30 337 O 31.8941 1.64124 1.04373 0
M  V30 338 C 32.1771 2.79648 -2.26868 0
M  V30 339 C 32.0301 2.45079 -3.77169 0
M  V30 340 C 33.3491 3.81583 -2.19277 0
M  V30 341 H 30.4681 0.555744 -0.484064 0
M  V30 342 H 33.1101 0.884492 -1.68157 0
M  V30 343 H 31.2601 3.34891 -1.96926 0
M  V30 344 H 32.9321 1.95745 -4.1771 0
M  V30 345 H 31.1751 1.77767 -3.95704 0
M  V30 346 H 31.8461 3.35478 -4.38359 0
M  V30 347 H 34.3221 3.35835 -2.45671 0
M  V30 348 H 33.1981 4.67787 -2.87171 0
M  V30 349 H 33.4591 4.25897 -1.18592 0
M  V30 350 N 32.5182 1.22032 0.997298 0
M  V30 351 C 33.7662 1.04016 1.73278 0
M  V30 352 C 34.0872 -0.426255 1.90284 0
M  V30 353 O 33.3572 -1.30694 1.45931 0
M  V30 354 H 31.9372 0.381897 0.642 0
M  V30 355 H 34.5992 1.5347 1.20137 0
M  V30 356 H 33.6952 1.51441 2.72896 0
M  V30 357 N 33.9963 -1.19345 1.0293 0
M  V30 358 C 35.2733 -1.84811 0.640642 0
M  V30 359 C 35.6533 -1.91855 -0.88062 0
M  V30 360 O 35.0013 -1.43587 -1.7775 0
M  V30 361 C 35.2113 -3.23755 1.30321 0
M  V30 362 C 36.5593 -3.99912 1.42673 0
M  V30 363 O 37.5833 -3.33155 1.26041 0
M  V30 364 O 36.4423 -5.19494 1.6967 0
M  V30 365 H 33.5363 -0.796443 0.222726 0
M  V30 366 H 36.0823 -1.26831 1.12748 0
M  V30 367 H 34.8543 -3.13466 2.34211 0
M  V30 368 H 34.4773 -3.89381 0.804261 0
M  V30 369 N 35.4744 -0.807222 -1.35358 0
M  V30 370 C 36.7234 -0.384376 -1.98004 0
M  V30 371 C 37.0364 1.0543 -1.64754 0
M  V30 372 O 38.2424 1.58029 -2.20769 0
M  V30 373 C 36.6984 -0.636326 -3.5423 0
M  V30 374 C 36.3064 -2.08759 -3.96388 0
M  V30 375 C 38.0504 -0.278869 -4.23583 0
M  V30 376 C 35.9574 -2.28525 -5.45463 0
M  V30 377 H 34.8874 -0.139986 -0.740891 0
M  V30 378 H 37.5384 -0.991369 -1.54415 0
M  V30 379 H 35.9204 0.0406256 -3.95979 0
M  V30 380 H 37.0944 -2.8024 -3.6579 0
M  V30 381 H 35.4094 -2.40497 -3.39926 0
M  V30 382 H 38.0064 -0.404599 -5.33167 0
M  V30 383 H 38.3494 0.775012 -4.09022 0
M  V30 384 H 38.8824 -0.909764 -3.87257 0
M  V30 385 H 35.6214 -3.32361 -5.64992 0
M  V30 386 H 35.1414 -1.61569 -5.77629 0
M  V30 387 H 36.8204 -2.10109 -6.11934 0
M  V30 388 N 36.9525 1.47285 -0.560781 0
M  V30 389 C 37.8625 2.33846 0.187954 0
M  V30 390 C 38.8785 1.48412 0.908293 0
M  V30 391 O 40.0545 1.81332 0.876388 0
M  V30 392 C 37.1195 3.25178 1.2025 0
M  V30 393 C 36.1805 4.26504 0.489208 0
M  V30 394 C 35.4135 5.13472 1.45542 0
M  V30 395 O 35.6365 5.02959 2.6905 0
M  V30 396 O 34.5705 5.93902 0.977963 0
M  V30 397 H 38.3965 2.99177 -0.522177 0
M  V30 398 H 35.9815 1.45903 -0.321364 0
M  V30 399 H 37.8635 3.81584 1.78805 0
M  V30 400 H 36.5385 2.6247 1.89449 0
M  V30 401 H 35.4455 3.73847 -0.137627 0
M  V30 402 H 36.7785 4.91935 -0.161399 0
M  V30 403 N 38.4306 0.297415 1.54768 0
M  V30 404 C 39.3936 -0.567375 2.22066 0
M  V30 405 C 40.3936 -1.06409 1.20556 0
M  V30 406 O 41.5836 -0.960691 1.45315 0
M  V30 407 C 38.7156 -1.78517 2.90421 0
M  V30 408 H 39.9086 0.0205534 2.99893 0
M  V30 409 H 37.4616 0.0482163 1.56226 0
M  V30 410 H 38.1966 -2.41303 2.16664 0
M  V30 411 H 37.9816 -1.43669 3.64831 0
M  V30 412 H 39.4716 -2.39964 3.41771 0
M  V30 413 N 39.9087 -1.5758 0.0250728 0
M  V30 414 C 41.1577 -1.90811 -0.653767 0
M  V30 415 C 41.4707 -0.90273 -1.73523 0
M  V30 416 O 42.6767 -1.12614 -2.47043 0
M  V30 417 C 41.1327 -3.38804 -1.21409 0
M  V30 418 C 40.7407 -4.47692 -0.166126 0
M  V30 419 C 42.4847 -3.81108 -1.86967 0
M  V30 420 C 40.3917 -5.86779 -0.737856 0
M  V30 421 H 39.3217 -0.712063 -0.247956 0
M  V30 422 H 41.9727 -1.83281 0.0897137 0
M  V30 423 H 40.3547 -3.41252 -2.00905 0
M  V30 424 H 41.5287 -4.56797 0.606079 0
M  V30 425 H 39.8437 -4.14565 0.390466 0
M  V30 426 H 42.4407 -4.82375 -2.30692 0
M  V30 427 H 42.7837 -3.15953 -2.71071 0
M  V30 428 H 43.3167 -3.81065 -1.14167 0
M  V30 429 H 40.0557 -6.55468 0.0649577 0
M  V30 430 H 39.5757 -5.81288 -1.47864 0
M  V30 431 H 41.2547 -6.35223 -1.22884 0
M  V30 432 N 41.3868 0.248026 -1.55636 0
M  V30 433 C 42.6328 0.97767 -1.77678 0
M  V30 434 C 42.9658 1.85016 -0.590135 0
M  V30 435 O 42.2408 1.90095 0.411611 0
M  V30 436 C 42.5238 1.83914 -3.09593 0
M  V30 437 C 42.3768 0.99491 -4.38659 0
M  V30 438 C 43.6958 2.82183 -3.37729 0
M  V30 439 H 40.8148 0.354005 -0.646413 0
M  V30 440 H 43.4568 0.248253 -1.88371 0
M  V30 441 H 41.6068 2.46104 -3.00608 0
M  V30 442 H 43.2788 0.391789 -4.59633 0
M  V30 443 H 41.5218 0.299231 -4.32767 0
M  V30 444 H 42.1928 1.63145 -5.2734 0
M  V30 445 H 44.6688 2.30129 -3.4667 0
M  V30 446 H 43.5448 3.39582 -4.31249 0
M  V30 447 H 43.8058 3.58588 -2.58586 0
M  V30 448 N 42.8649 1.48995 0.513639 0
M  V30 449 C 43.7969 1.60836 1.63293 0
M  V30 450 C 44.8099 0.491701 1.55197 0
M  V30 451 O 45.9989 0.763238 1.6136 0
M  V30 452 C 43.0989 1.53731 3.02027 0
M  V30 453 C 42.2719 2.80715 3.35437 0
M  V30 454 C 41.3309 2.66837 4.53525 0
M  V30 455 O 40.3569 3.40753 4.55934 0
M  V30 456 N 41.5589 1.77539 5.52684 0
M  V30 457 H 44.3239 2.57366 1.53566 0
M  V30 458 H 41.8849 1.45925 0.701259 0
M  V30 459 H 43.8769 1.42118 3.78926 0
M  V30 460 H 42.4469 0.651092 3.05744 0
M  V30 461 H 41.6669 3.06772 2.47557 0
M  V30 462 H 42.9549 3.64927 3.54551 0
M  V30 463 H 42.3529 1.16719 5.53528 0
M  V30 464 H 40.9099 1.71856 6.28736 0
M  V30 465 N 44.343 -0.763751 1.37857 0
M  V30 466 C 45.276 -1.88486 1.28639 0
M  V30 467 C 46.254 -1.61757 0.165363 0
M  V30 468 O 47.438 -1.85391 0.340948 0
M  V30 469 C 44.565 -3.23884 0.990811 0
M  V30 470 C 43.611 -3.69514 2.12983 0
M  V30 471 S 44.444 -3.82244 3.75033 0
M  V30 472 C 45.6 -5.20477 3.47641 0
M  V30 473 H 45.833 -1.96017 2.23527 0
M  V30 474 H 43.366 -0.925684 1.23574 0
M  V30 475 H 45.324 -4.02081 0.827101 0
M  V30 476 H 43.985 -3.14044 0.0592832 0
M  V30 477 H 43.178 -4.67696 1.87821 0
M  V30 478 H 42.78 -2.98441 2.25408 0
M  V30 479 H 45.072 -6.05905 3.03125 0
M  V30 480 H 46.015 -5.50655 4.4518 0
M  V30 481 H 46.423 -4.88793 2.82385 0
M  V30 482 N 45.8211 -1.22559 -0.990812 0
M  V30 483 C 47.0511 -1.07623 -1.76355 0
M  V30 484 C 47.4591 0.37601 -1.85426 0
M  V30 485 O 46.8021 1.27228 -1.32509 0
M  V30 486 C 46.8641 -1.61507 -3.21179 0
M  V30 487 C 46.5281 -3.10146 -3.35646 0
M  V30 488 C 47.5251 -4.07553 -3.22796 0
M  V30 489 C 45.2101 -3.49644 -3.60631 0
M  V30 490 C 47.2041 -5.42442 -3.34716 0
M  V30 491 C 44.8911 -4.84682 -3.72192 0
M  V30 492 C 45.8891 -5.8089 -3.59243 0
M  V30 493 O 45.5771 -7.13476 -3.70415 0
M  V30 494 H 45.3091 -0.377745 -0.560611 0
M  V30 495 H 47.8631 -1.62658 -1.25425 0
M  V30 496 H 46.0931 -1.00881 -3.73309 0
M  V30 497 H 47.7821 -1.42202 -3.80175 0
M  V30 498 H 48.5481 -3.78381 -3.03403 0
M  V30 499 H 44.4271 -2.75282 -3.69785 0
M  V30 500 H 47.9711 -6.17518 -3.24526 0
M  V30 501 H 43.8681 -5.13534 -3.91092 0
M  V30 502 H 44.6361 -7.21083 -3.87275 0
M  V30 503 N 47.2992 1.18797 -1.03562 0
M  V30 504 C 48.2622 2.20464 -0.626769 0
M  V30 505 C 49.2622 1.57721 0.313173 0
M  V30 506 O 50.4522 1.73917 0.0992615 0
M  V30 507 C 47.5842 3.40802 0.0818498 0
M  V30 508 H 48.7772 2.58149 -1.5264 0
M  V30 509 H 46.3302 1.32593 -0.827578 0
M  V30 510 H 47.0652 3.08642 0.995518 0
M  V30 511 H 46.8502 3.8758 -0.593652 0
M  V30 512 H 48.3402 4.16092 0.354584 0
M  V30 513 N 48.7773 0.814389 1.34928 0
M  V30 514 C 50.0543 0.321363 1.92942 0
M  V30 515 C 50.4343 -1.19014 1.74353 0
M  V30 516 O 49.7823 -1.99328 1.11716 0
M  V30 517 C 49.9923 0.741323 3.41036 0
M  V30 518 C 51.3403 0.735266 4.18185 0
M  V30 519 O 52.3643 0.68336 3.49584 0
M  V30 520 O 51.2233 0.800703 5.40602 0
M  V30 521 H 48.3173 0.0858893 0.822528 0
M  V30 522 H 50.8633 0.898609 1.43955 0
M  V30 523 H 49.6353 1.78276 3.4833 0
M  V30 524 H 49.2583 0.139307 3.97356 0
M  V30 525 N 50.2554 -1.46986 0.568584 0
M  V30 526 C 51.5324 -1.95592 -0.0174074 0
M  V30 527 C 51.9124 -1.51124 -1.47393 0
M  V30 528 O 51.2604 -0.755329 -2.15655 0
M  V30 529 C 51.4704 -3.48719 0.139913 0
M  V30 530 C 52.8184 -4.246 0.000426376 0
M  V30 531 O 53.8424 -3.56135 0.0680316 0
M  V30 532 O 52.7014 -5.46302 -0.146988 0
M  V30 533 H 49.7954 -0.82498 -0.0577599 0
M  V30 534 H 52.3414 -1.57335 0.635909 0
M  V30 535 H 51.1134 -3.73927 1.15301 0
M  V30 536 H 50.7364 -3.93771 -0.550491 0
M  V30 537 N 51.7335 -0.305618 -1.54608 0
M  V30 538 C 52.6965 0.555591 -2.22364 0
M  V30 539 C 53.6965 1.05768 -1.21119 0
M  V30 540 O 54.8865 0.952972 -1.45822 0
M  V30 541 C 52.0185 1.76974 -2.91364 0
M  V30 542 H 53.2115 -0.0364572 -2.99878 0
M  V30 543 H 50.7645 -0.0565007 -1.56198 0
M  V30 544 H 51.4995 2.40151 -2.17941 0
M  V30 545 H 51.2845 1.41732 -3.65588 0
M  V30 546 H 52.7745 2.38148 -3.43038 0
M  V30 547 N 53.2116 1.57565 -0.0334293 0
M  V30 548 C 54.4396 1.9628 0.654347 0
M  V30 549 C 54.8546 0.910138 1.65414 0
M  V30 550 O 54.2116 -0.107595 1.82183 0
M  V30 551 C 54.2626 3.35067 1.35693 0
M  V30 552 O 53.9836 4.36296 0.397191 0
M  V30 553 C 55.4846 3.88439 2.13613 0
M  V30 554 H 52.7046 0.646369 0.180132 0
M  V30 555 H 55.2486 2.04282 -0.0944721 0
M  V30 556 H 53.4036 3.2827 2.05712 0
M  V30 557 H 53.8176 5.1678 0.896597 0
M  V30 558 H 55.2916 4.8788 2.58219 0
M  V30 559 H 55.7686 3.22914 2.97696 0
M  V30 560 H 56.3746 3.98516 1.48543 0
M  V30 561 N 54.6897 -0.239769 1.55765 0
M  V30 562 C 55.9357 -0.968234 1.78194 0
M  V30 563 C 56.2687 -1.84701 0.599938 0
M  V30 564 O 55.5437 -1.9031 -0.401524 0
M  V30 565 C 55.8267 -1.8227 3.10564 0
M  V30 566 C 55.6797 -0.971633 4.3918 0
M  V30 567 C 56.9987 -2.80388 3.39221 0
M  V30 568 H 54.1177 -0.350572 0.648281 0
M  V30 569 H 56.7597 -0.238259 1.885 0
M  V30 570 H 54.9097 -2.44507 3.01908 0
M  V30 571 H 56.5817 -0.367408 4.59835 0
M  V30 572 H 54.8247 -0.276276 4.32919 0
M  V30 573 H 55.4957 -1.60346 5.28198 0
M  V30 574 H 57.9717 -2.28287 3.47885 0
M  V30 575 H 56.8477 -3.3729 4.33044 0
M  V30 576 H 57.1087 -3.57212 2.60484 0
M  V30 577 N 56.1678 -1.49265 -0.50573 0
M  V30 578 C 57.0778 -1.68312 -1.63427 0
M  V30 579 C 58.0938 -0.565682 -1.64548 0
M  V30 580 O 59.2698 -0.839801 -1.83055 0
M  V30 581 C 56.3348 -1.74107 -2.99813 0
M  V30 582 C 55.3958 -2.97653 -3.09356 0
M  V30 583 C 54.6288 -3.03163 -4.39236 0
M  V30 584 O 54.8518 -2.16396 -5.27758 0
M  V30 585 O 53.7858 -3.9558 -4.53652 0
M  V30 586 H 57.6118 -2.63907 -1.50289 0
M  V30 587 H 55.1968 -1.32951 -0.681502 0
M  V30 588 H 57.0788 -1.803 -3.80881 0
M  V30 589 H 55.7538 -0.816901 -3.13223 0
M  V30 590 H 54.6608 -2.96981 -2.27493 0
M  V30 591 H 55.9938 -3.89535 -3.00871 0
M  V30 592 N 57.6459 0.756429 -1.3826 0
M  V30 593 C 58.9229 1.50584 -1.24835 0
M  V30 594 C 59.3029 2.10556 0.151485 0
M  V30 595 O 58.6509 1.96825 1.1607 0
M  V30 596 C 58.8609 2.57448 -2.3563 0
M  V30 597 C 60.2089 3.24429 -2.73917 0
M  V30 598 O 61.2329 2.67751 -2.34921 0
M  V30 599 O 60.0919 4.26937 -3.41156 0
M  V30 600 H 57.1859 0.667664 -0.48801 0
M  V30 601 H 59.7319 0.792083 -1.5008 0
M  V30 602 H 58.5039 2.11362 -3.29305 0
M  V30 603 H 58.1269 3.36408 -2.11933 0
M  V30 604 N 59.124 1.23083 0.984299 0
M  V30 605 C 60.535 1.05609 1.5396 0
M  V30 606 C 60.886 -0.377793 1.92528 0
M  V30 607 O 60.011 -1.26398 1.75649 0
M  V30 608 C 60.606 1.91087 2.7977 0
M  V30 609 C 59.165 1.77885 3.31713 0
M  V30 610 C 58.312 1.87028 2.04733 0
M  V30 611 H 61.263 1.36802 0.804419 0
M  V30 612 H 61.284 1.43336 3.5247 0
M  V30 613 H 60.796 2.9544 2.51668 0
M  V30 614 H 58.897 0.762995 3.64704 0
M  V30 615 H 59.01 2.61047 4.01735 0
M  V30 616 H 57.374 1.30565 2.18689 0
M  V30 617 H 58.157 2.92929 1.79017 0
M  V30 618 N 60.6021 -1.18246 1.0419 0
M  V30 619 C 61.8491 -1.88257 0.746017 0
M  V30 620 C 62.1771 -1.80429 -0.726331 0
M  V30 621 O 61.4321 -1.2 -1.54591 0
M  V30 622 C 61.7311 -3.38082 1.15911 0
M  V30 623 C 61.3971 -3.66114 2.63195 0
M  V30 624 C 60.0591 -3.73474 3.03432 0
M  V30 625 C 62.4111 -3.78398 3.5842 0
M  V30 626 C 59.7391 -3.90599 4.37778 0
M  V30 627 C 62.0911 -3.97039 4.92487 0
M  V30 628 C 60.7551 -4.02635 5.32392 0
M  V30 629 H 60.0251 -0.688883 0.272987 0
M  V30 630 H 62.6721 -1.3995 1.30715 0
M  V30 631 H 60.9771 -3.88377 0.516806 0
M  V30 632 H 62.6741 -3.90596 0.907516 0
M  V30 633 H 59.2641 -3.61003 2.3103 0
M  V30 634 H 63.4481 -3.72042 3.28479 0
M  V30 635 H 58.7041 -3.93175 4.68213 0
M  V30 636 H 62.8781 -4.05486 5.66175 0
M  V30 637 H 60.5051 -4.15657 6.36501 0
M  V30 638 N 62.0802 -0.821533 -1.34494 0
M  V30 639 C 63.3282 -0.408139 -1.97936 0
M  V30 640 C 63.6492 1.03193 -1.65457 0
M  V30 641 O 62.9192 1.71622 -0.944595 0
M  V30 642 H 61.4992 -0.147928 -0.732206 0
M  V30 643 H 64.1612 -1.05067 -1.64155 0
M  V30 644 H 63.2572 -0.52601 -3.07635 0
M  V30 645 N 63.5583 1.46682 -0.576371 0
M  V30 646 C 64.4903 2.28341 0.198231 0
M  V30 647 C 65.5033 1.38141 0.861453 0
M  V30 648 O 66.6923 1.62797 0.732082 0
M  V30 649 C 63.7923 3.12986 1.29972 0
M  V30 650 C 62.9653 4.31271 0.729639 0
M  V30 651 C 62.0243 4.97363 1.71803 0
M  V30 652 O 61.0503 5.55156 1.25658 0
M  V30 653 N 62.2523 4.93796 3.05198 0
M  V30 654 H 65.0173 2.9546 -0.502324 0
M  V30 655 H 62.5783 1.56525 -0.413715 0
M  V30 656 H 64.5703 3.54066 1.96008 0
M  V30 657 H 63.1403 2.47984 1.90323 0
M  V30 658 H 62.3603 3.94052 -0.108012 0
M  V30 659 H 63.6483 5.07739 0.328438 0
M  V30 660 H 63.0463 4.48077 3.45317 0
M  V30 661 H 61.6033 5.38837 3.6674 0
M  V30 662 N 65.0364 0.313813 1.54444 0
M  V30 663 C 66.4474 -0.176243 1.85866 0
M  V30 664 C 66.7984 -1.52405 1.23561 0
M  V30 665 O 65.9234 -2.09605 0.538016 0
M  V30 666 C 66.5184 -0.32657 3.37222 0
M  V30 667 C 65.0774 -0.760846 3.6863 0
M  V30 668 C 64.2244 0.123247 2.77026 0
M  V30 669 H 67.1754 0.534418 1.49431 0
M  V30 670 H 67.1964 -1.15908 3.62416 0
M  V30 671 H 66.7084 0.654531 3.82541 0
M  V30 672 H 64.8094 -1.75204 3.28838 0
M  V30 673 H 64.9224 -0.571353 4.75681 0
M  V30 674 H 63.2864 -0.399597 2.51546 0
M  V30 675 H 64.0694 1.10094 3.25168 0
M  V30 676 N 66.5145 -1.57545 0.0417849 0
M  V30 677 C 67.9255 -1.80011 -0.495259 0
M  V30 678 C 68.2765 -0.953199 -1.71489 0
M  V30 679 O 67.4015 -0.167138 -2.15754 0
M  V30 680 C 67.9965 -3.26482 -0.905265 0
M  V30 681 C 66.5555 -3.499 -1.38734 0
M  V30 682 C 65.7025 -2.74979 -0.358056 0
M  V30 683 H 68.6535 -1.56425 0.267736 0
M  V30 684 H 68.6745 -3.36887 -1.76882 0
M  V30 685 H 68.1865 -3.88096 -0.017401 0
M  V30 686 H 66.2875 -2.93553 -2.29471 0
M  V30 687 H 66.4005 -4.58615 -1.38598 0
M  V30 688 H 64.7645 -2.40834 -0.828912 0
M  V30 689 H 65.5475 -3.39315 0.521561 0
M  V30 690 N 67.9926 0.231505 -1.5589 0
M  V30 691 C 69.2416 0.955346 -1.7764 0
M  V30 692 C 69.5546 1.85893 -0.608546 0
M  V30 693 O 70.7606 2.62067 -0.70943 0
M  V30 694 C 69.2166 1.74886 -3.14552 0
M  V30 695 C 68.8246 0.891915 -4.39032 0
M  V30 696 C 70.5686 2.46452 -3.45633 0
M  V30 697 C 68.4756 1.68221 -5.66971 0
M  V30 698 H 67.4056 0.360446 -0.662265 0
M  V30 699 H 70.0566 0.209516 -1.823 0
M  V30 700 H 68.4386 2.53723 -3.04041 0
M  V30 701 H 69.6126 0.144793 -4.60572 0
M  V30 702 H 67.9276 0.288863 -4.15397 0
M  V30 703 H 70.5246 3.06061 -4.38441 0
M  V30 704 H 70.8676 3.18841 -2.67668 0
M  V30 705 H 71.4006 1.74613 -3.57428 0
M  V30 706 H 68.1396 1.00178 -6.478 0
M  V30 707 H 67.6596 2.4042 -5.49507 0
M  V30 708 H 69.3386 2.24544 -6.06786 0
M  V30 709 N 69.4707 1.49531 0.497807 0
M  V30 710 C 70.4207 1.62829 1.59596 0
M  V30 711 C 71.4047 0.483824 1.53453 0
M  V30 712 O 72.5967 0.736937 1.60929 0
M  V30 713 C 69.7257 1.7011 2.98191 0
M  V30 714 C 68.8117 2.90144 3.09317 0
M  V30 715 N 69.2027 4.1418 2.90324 0
M  V30 716 C 67.5007 2.88148 3.40422 0
M  V30 717 C 68.2017 4.94886 3.05717 0
M  V30 718 N 67.1777 4.28314 3.34736 0
M  V30 719 H 70.9797 2.56446 1.4357 0
M  V30 720 H 68.4937 1.46347 0.704001 0
M  V30 721 H 70.4907 1.77735 3.77115 0
M  V30 722 H 69.1507 0.776315 3.15283 0
M  V30 723 H 70.1617 4.44109 2.66436 0
M  V30 724 H 66.8387 2.05061 3.63671 0
M  V30 725 H 68.2287 6.03432 2.95499 0
M  V30 726 N 70.9488 -0.749086 1.3866 0
M  V30 727 C 72.1968 -1.50535 1.34847 0
M  V30 728 C 72.5178 -1.94909 -0.0595016 0
M  V30 729 O 71.7878 -1.67973 -1.00806 0
M  V30 730 H 70.3678 -0.558395 0.49619 0
M  V30 731 H 73.0298 -0.890165 1.73384 0
M  V30 732 H 72.1258 -2.39413 2.00219 0
M  V30 733 N 72.4269 -1.23603 -0.977757 0
M  V30 734 C 73.8429 -0.999251 -1.24447 0
M  V30 735 C 74.0429 0.298053 -1.99283 0
M  V30 736 O 73.0989 1.01681 -2.31122 0
M  V30 737 C 74.4119 -2.20784 -2.04144 0
M  V30 738 C 75.9599 -2.25303 -2.17273 0
M  V30 739 C 76.4349 -3.45755 -3.00362 0
M  V30 740 N 77.9259 -3.4601 -3.07947 0
M  V30 741 C 78.6609 -4.35868 -3.72568 0
M  V30 742 N 78.1569 -5.35966 -4.38991 0
M  V30 743 N 79.9499 -4.23605 -3.6948 0
M  V30 744 H 72.1009 -2.06986 -0.476483 0
M  V30 745 H 74.3639 -0.907801 -0.273134 0
M  V30 746 H 74.0699 -3.14945 -1.56533 0
M  V30 747 H 73.9439 -2.22085 -3.04891 0
M  V30 748 H 76.3309 -1.3168 -2.64092 0
M  V30 749 H 76.4119 -2.28033 -1.15907 0
M  V30 750 H 76.0559 -4.39687 -2.5424 0
M  V30 751 H 75.9859 -3.40266 -4.01904 0
M  V30 752 H 78.4769 -2.73588 -2.60688 0
M  V30 753 H 78.7899 -6.00783 -4.86086 0
M  V30 754 H 77.1349 -5.39863 -4.37691 0
M  V30 755 H 80.3259 -3.44647 -3.16759 0
M  V30 756 H 80.4989 -4.93836 -4.1956 0
M  V30 757 N 73.905 1.17692 -1.04816 0
M  V30 758 C 74.815 2.25229 -0.65643 0
M  V30 759 C 75.831 1.71018 0.320761 0
M  V30 760 O 77.007 2.00649 0.173805 0
M  V30 761 C 74.072 3.46684 -0.0332629 0
M  V30 762 C 73.133 4.15997 -1.06042 0
M  V30 763 C 72.366 5.31654 -0.466893 0
M  V30 764 O 72.589 5.65777 0.724758 0
M  V30 765 O 71.523 5.89831 -1.1993 0
M  V30 766 H 75.349 2.61016 -1.55255 0
M  V30 767 H 72.934 1.24919 -0.81949 0
M  V30 768 H 74.816 4.20234 0.313256 0
M  V30 769 H 73.491 3.12703 0.836566 0
M  V30 770 H 72.398 3.44482 -1.45886 0
M  V30 771 H 73.731 4.53996 -1.90127 0
M  V30 772 N 75.3831 0.828654 1.34056 0
M  V30 773 C 76.3151 0.212052 2.28217 0
M  V30 774 C 77.3281 -0.601362 1.51286 0
M  V30 775 O 78.5171 -0.430104 1.73241 0
M  V30 776 C 75.6171 -0.72088 3.31144 0
M  V30 777 C 74.7901 0.0509587 4.3737 0
M  V30 778 C 73.8491 -0.803766 5.20025 0
M  V30 779 O 72.8751 -0.246667 5.68665 0
M  V30 780 N 74.0771 -2.1227 5.40298 0
M  V30 781 H 76.8421 1.02105 2.81771 0
M  V30 782 H 74.4031 0.686153 1.46641 0
M  V30 783 H 76.3951 -1.29742 3.8334 0
M  V30 784 H 74.9651 -1.43061 2.77943 0
M  V30 785 H 74.1851 0.808831 3.85813 0
M  V30 786 H 75.4731 0.582065 5.0546 0
M  V30 787 H 74.8711 -2.59898 5.02464 0
M  V30 788 H 73.4281 -2.64796 5.95589 0
M  V30 789 N 76.8612 -1.46375 0.584142 0
M  V30 790 C 78.1102 -2.01585 0.0679741 0
M  V30 791 C 78.4232 -1.46109 -1.30045 0
M  V30 792 O 79.6292 -1.93148 -1.90804 0
M  V30 793 C 78.0852 -3.5983 0.0709207 0
M  V30 794 C 77.6932 -4.24303 1.43775 0
M  V30 795 C 79.4372 -4.22693 -0.391228 0
M  V30 796 C 77.3442 -5.74631 1.39834 0
M  V30 797 H 76.2742 -0.753689 0.0216421 0
M  V30 798 H 78.9252 -1.68093 0.736001 0
M  V30 799 H 77.3072 -3.90405 -0.663299 0
M  V30 800 H 78.4812 -4.05335 2.19181 0
M  V30 801 H 76.7962 -3.73539 1.84004 0
M  V30 802 H 79.3932 -5.3289 -0.439524 0
M  V30 803 H 79.7362 -3.91728 -1.40906 0
M  V30 804 H 80.2692 -3.96749 0.288974 0
M  V30 805 H 77.0082 -6.10258 2.39303 0
M  V30 806 H 76.5282 -5.95858 0.686505 0
M  V30 807 H 78.2072 -6.37375 1.11187 0
M  V30 808 N 78.3393 -0.321999 -1.54275 0
M  V30 809 C 79.3023 0.531975 -2.22941 0
M  V30 810 C 80.3023 1.04478 -1.22234 0
M  V30 811 O 81.4923 0.937452 -1.46825 0
M  V30 812 C 78.6243 1.73874 -2.93224 0
M  V30 813 H 79.8173 -0.0682612 -2.99822 0
M  V30 814 H 77.3703 -0.0730644 -1.56129 0
M  V30 815 H 78.1053 2.37825 -2.20476 0
M  V30 816 H 77.8903 1.37847 -3.6707 0
M  V30 817 H 79.3803 2.34496 -3.45545 0
M  V30 818 N 79.8174 1.5752 -0.0501392 0
M  V30 819 C 80.7804 2.1037 0.909786 0
M  V30 820 C 81.7804 1.02308 1.24056 0
M  V30 821 O 82.9704 1.28385 1.17741 0
M  V30 822 C 80.1024 2.58708 2.21998 0
M  V30 823 H 81.2954 2.96479 0.451665 0
M  V30 824 H 78.8484 1.55038 0.198248 0
M  V30 825 H 79.5834 1.75989 2.72394 0
M  V30 826 H 79.3684 3.37675 1.99295 0
M  V30 827 H 80.8584 2.99747 2.9076 0
M  V30 828 N 81.2955 -0.223234 1.56011 0
M  V30 829 C 82.5425 -0.947875 1.78946 0
M  V30 830 C 82.8705 -1.844 0.618608 0
M  V30 831 O 82.1255 -1.91629 -0.397093 0
M  V30 832 C 82.4245 -1.81948 3.0762 0
M  V30 833 C 82.0905 -1.07672 4.37856 0
M  V30 834 C 80.7525 -0.871544 4.73242 0
M  V30 835 C 83.1045 -0.552081 5.18268 0
M  V30 836 C 80.4325 -0.129791 5.86556 0
M  V30 837 C 82.7845 0.17632 6.32354 0
M  V30 838 C 81.4485 0.39277 6.66343 0
M  V30 839 H 80.7185 -0.346852 0.654809 0
M  V30 840 H 83.3655 -0.216171 1.90276 0
M  V30 841 H 81.6705 -2.61899 2.91404 0
M  V30 842 H 83.3675 -2.38227 3.22566 0
M  V30 843 H 79.9575 -1.24662 4.1007 0
M  V30 844 H 84.1415 -0.698076 4.91366 0
M  V30 845 H 79.3975 0.048153 6.11381 0
M  V30 846 H 83.5715 0.590367 6.93893 0
M  V30 847 H 81.1985 0.969466 7.53993 0
M  V30 848 N 82.7736 -1.49793 -0.48987 0
M  V30 849 C 84.0036 -1.6333 -1.26518 0
M  V30 850 C 84.4116 -0.308392 -1.8667 0
M  V30 851 O 83.7546 0.717512 -1.69108 0
M  V30 852 C 83.8166 -2.6522 -2.4269 0
M  V30 853 C 83.4806 -4.09279 -2.03321 0
M  V30 854 C 84.4776 -4.95738 -1.56652 0
M  V30 855 C 82.1626 -4.55082 -2.12616 0
M  V30 856 C 84.1566 -6.26041 -1.19795 0
M  V30 857 C 81.8436 -5.85396 -1.75371 0
M  V30 858 C 82.8416 -6.707 -1.29036 0
M  V30 859 O 82.5296 -7.98584 -0.92299 0
M  V30 860 H 82.2616 -0.552502 -0.389509 0
M  V30 861 H 84.8156 -1.96642 -0.593381 0
M  V30 862 H 83.0456 -2.27112 -3.12981 0
M  V30 863 H 84.7346 -2.68171 -3.04695 0
M  V30 864 H 85.5006 -4.61575 -1.48908 0
M  V30 865 H 81.3796 -3.88844 -2.47631 0
M  V30 866 H 84.9236 -6.92578 -0.835582 0
M  V30 867 H 80.8206 -6.19085 -1.82768 0
M  V30 868 H 81.5886 -8.11692 -1.05349 0
M  V30 869 N 84.2517 0.741722 -1.39055 0
M  V30 870 C 85.6677 1.04638 -1.20512 0
M  V30 871 C 85.8677 2.01405 -0.0620218 0
M  V30 872 O 84.9237 2.45547 0.588457 0
M  V30 873 C 86.2367 1.6151 -2.53643 0
M  V30 874 C 87.7847 1.73623 -2.6043 0
M  V30 875 C 88.2597 2.33906 -3.93767 0
M  V30 876 N 89.7507 2.41323 -3.9537 0
M  V30 877 C 90.4857 2.88888 -4.95309 0
M  V30 878 N 89.9817 3.36401 -6.05645 0
M  V30 879 N 91.7747 2.88037 -4.82692 0
M  V30 880 H 83.9257 0.0998155 -2.12165 0
M  V30 881 H 86.1887 0.106907 -0.941953 0
M  V30 882 H 85.8947 0.978739 -3.37807 0
M  V30 883 H 85.7687 2.60411 -2.72885 0
M  V30 884 H 88.1557 2.36384 -1.76655 0
M  V30 885 H 88.2367 0.733945 -2.45045 0
M  V30 886 H 87.8807 1.71776 -4.7797 0
M  V30 887 H 87.8107 3.34799 -4.06469 0
M  V30 888 H 90.3017 2.07734 -3.15682 0
M  V30 889 H 90.6147 3.71186 -6.77821 0
M  V30 890 H 88.9597 3.34427 -6.09248 0
M  V30 891 H 92.1507 2.50237 -3.95599 0
M  V30 892 H 92.3237 3.24792 -5.60726 0
M  V30 893 N 85.7298 1.2412 0.971189 0
M  V30 894 C 86.6618 0.988349 2.06795 0
M  V30 895 C 87.6748 -0.0409541 1.62748 0
M  V30 896 O 88.8638 0.195673 1.77424 0
M  V30 897 C 85.9638 0.469023 3.35639 0
M  V30 898 C 85.1368 1.56065 4.08611 0
M  V30 899 C 84.1958 1.04458 5.15728 0
M  V30 900 O 83.2218 1.73553 5.42096 0
M  V30 901 N 84.4238 -0.122817 5.8037 0
M  V30 902 H 87.1888 1.93265 2.29061 0
M  V30 903 H 84.7498 1.15102 1.13856 0
M  V30 904 H 86.7418 0.108613 4.04554 0
M  V30 905 H 85.3118 -0.380919 3.1027 0
M  V30 906 H 84.5318 2.09341 3.34021 0
M  V30 907 H 85.8198 2.29449 4.54126 0
M  V30 908 H 85.2178 -0.700563 5.61345 0
M  V30 909 H 83.7748 -0.424404 6.50417 0
M  V30 910 N 87.2079 -1.17134 1.05439 0
M  V30 911 C 88.4559 -1.87085 0.764429 0
M  V30 912 C 88.7769 -1.81584 -0.710787 0
M  V30 913 O 88.0469 -1.24349 -1.51374 0
M  V30 914 H 86.6269 -0.692627 0.279779 0
M  V30 915 H 89.2889 -1.42087 1.33406 0
M  V30 916 H 88.3849 -2.92759 1.0816 0
M  V30 917 N 88.686 -0.835752 -1.33615 0
M  V30 918 C 89.616 -0.281739 -2.31794 0
M  V30 919 C 90.597 0.608833 -1.58831 0
M  V30 920 O 91.782 0.533035 -1.86741 0
M  V30 921 C 88.912 0.546612 -3.42971 0
M  V30 922 C 87.866 -0.247904 -4.27281 0
M  V30 923 C 87.192 0.704001 -5.30045 0
M  V30 924 C 88.492 -1.46324 -5.01385 0
M  V30 925 H 90.186 -1.10206 -2.78379 0
M  V30 926 H 87.732 -0.531388 -1.33837 0
M  V30 927 H 89.685 0.944467 -4.1068 0
M  V30 928 H 88.409 1.40011 -2.95067 0
M  V30 929 H 87.068 -0.627281 -3.61194 0
M  V30 930 H 86.716 1.55381 -4.78399 0
M  V30 931 H 86.416 0.176524 -5.87335 0
M  V30 932 H 87.94 1.09944 -6.0062 0
M  V30 933 H 89.354 -1.13871 -5.61877 0
M  V30 934 H 87.751 -1.92728 -5.6831 0
M  V30 935 H 88.821 -2.23467 -4.30338 0
M  V30 936 N 90.1641 1.46063 -0.591896 0
M  V30 937 C 91.4121 2.01938 -0.0808391 0
M  V30 938 C 91.7331 1.46475 1.28725 0
M  V30 939 O 91.0031 0.652944 1.84698 0
M  V30 940 H 89.5831 0.746516 -0.0268938 0
M  V30 941 H 92.2451 1.79055 -0.769752 0
M  V30 942 H 91.3411 3.12094 -0.0187578 0
M  V30 943 N 91.6422 0.330177 1.54103 0
M  V30 944 C 92.8902 -0.269871 2.0029 0
M  V30 945 C 93.2112 -1.52133 1.21986 0
M  V30 946 O 92.4812 -1.93212 0.323438 0
M  V30 947 H 91.0612 -0.10271 0.739905 0
M  V30 948 H 93.7232 0.448249 1.89675 0
M  V30 949 H 92.8192 -0.52166 3.07709 0
M  V30 950 N 93.1203 -1.57491 0.0584922 0
M  V30 951 C 94.3683 -1.92597 -0.612436 0
M  V30 952 C 94.6893 -0.938162 -1.70949 0
M  V30 953 O 93.9593 0.0158301 -1.95894 0
M  V30 954 H 92.5393 -0.710964 -0.229214 0
M  V30 955 H 95.2013 -1.94571 0.113218 0
M  V30 956 H 94.2973 -2.94038 -1.04633 0
M  V30 957 N 94.5984 0.214957 -1.56127 0
M  V30 958 C 95.5454 1.26642 -1.92952 0
M  V30 959 C 96.5154 1.46244 -0.78753 0
M  V30 960 O 97.7004 1.59704 -1.04399 0
M  V30 961 C 94.8404 2.6104 -2.25726 0
M  V30 962 C 93.9534 2.49183 -3.52891 0
M  V30 963 C 93.0884 3.76149 -3.7508 0
M  V30 964 C 92.1274 3.59041 -4.95738 0
M  V30 965 N 91.2644 4.77972 -5.14283 0
M  V30 966 H 96.1044 0.945384 -2.82607 0
M  V30 967 H 93.6414 0.455489 -1.3987 0
M  V30 968 H 95.5994 3.39313 -2.42739 0
M  V30 969 H 94.2294 2.91227 -1.39236 0
M  V30 970 H 93.2814 1.6231 -3.44034 0
M  V30 971 H 94.5934 2.32466 -4.41318 0
M  V30 972 H 93.7474 4.62865 -3.92226 0
M  V30 973 H 92.4864 3.95799 -2.84947 0
M  V30 974 H 91.4914 2.7071 -4.78535 0
M  V30 975 H 92.7164 3.40856 -5.87362 0
M  V30 976 H 90.6624 4.97923 -4.27093 0
M  V30 977 H 90.5794 4.64006 -5.96853 0
M  V30 978 H 91.8474 5.66096 -5.35869 0
M  V30 979 N 96.0765 1.50051 0.48192 0
M  V30 980 C 97.3225 1.60736 1.2366 0
M  V30 981 C 97.6555 0.301786 1.91841 0
M  V30 982 O 96.9305 -0.696025 1.8162 0
M  V30 983 C 97.2135 2.78009 2.28874 0
M  V30 984 C 97.0665 4.18416 1.65069 0
M  V30 985 C 98.3855 2.90867 3.30279 0
M  V30 986 H 95.5045 0.585031 0.448228 0
M  V30 987 H 98.1465 1.82402 0.531946 0
M  V30 988 H 96.2965 2.59667 2.88973 0
M  V30 989 H 97.9685 4.48322 1.0865 0
M  V30 990 H 96.2115 4.23177 0.954148 0
M  V30 991 H 96.8825 4.96381 2.41474 0
M  V30 992 H 99.3585 3.07623 2.80191 0
M  V30 993 H 98.2345 3.74566 4.01238 0
M  V30 994 H 98.4955 2.01021 3.93755 0
M  V30 995 N 97.5546 -0.734337 1.39446 0
M  V30 996 C 98.9706 -1.03997 1.21065 0
M  V30 997 C 99.1706 -2.01369 0.0727019 0
M  V30 998 O 98.2266 -2.45856 -0.575426 0
M  V30 999 C 99.5396 -1.60163 2.54496 0
M  V30 1000 C 101.088 -1.7224 2.61347 0
M  V30 1001 C 101.563 -2.31814 3.95002 0
M  V30 1002 N 103.054 -2.39223 3.96644 0
M  V30 1003 C 103.789 -2.86258 4.96834 0
M  V30 1004 N 103.285 -3.33184 6.07421 0
M  V30 1005 N 105.078 -2.85473 4.84213 0
M  V30 1006 H 97.2286 -0.0885624 2.12215 0
M  V30 1007 H 99.4916 -0.10191 0.942506 0
M  V30 1008 H 99.1976 -0.960811 3.38321 0
M  V30 1009 H 99.0716 -2.5896 2.74262 0
M  V30 1010 H 101.459 -2.35443 1.77906 0
M  V30 1011 H 101.54 -0.720939 2.4543 0
M  V30 1012 H 101.184 -1.69238 4.78875 0
M  V30 1013 H 101.114 -3.32638 4.08239 0
M  V30 1014 H 103.605 -2.06057 3.16779 0
M  V30 1015 H 103.918 -3.67586 6.7978 0
M  V30 1016 H 102.263 -3.31191 6.11013 0
M  V30 1017 H 105.454 -2.48136 3.96921 0
M  V30 1018 H 105.627 -3.21814 5.62441 0
M  V30 1019 N 99.0327 -1.24633 -0.964593 0
M  V30 1020 C 99.9957 -1.0424 -2.04124 0
M  V30 1021 C 100.996 0.00137563 -1.608 0
M  V30 1022 O 102.186 -0.239883 -1.7254 0
M  V30 1023 C 99.3177 -0.580588 -3.3592 0
M  V30 1024 H 100.511 -1.99803 -2.23649 0
M  V30 1025 H 98.0637 -1.06899 -1.14027 0
M  V30 1026 H 98.7987 0.3781 -3.22088 0
M  V30 1027 H 98.5837 -1.33398 -3.6871 0
M  V30 1028 H 100.074 -0.459034 -4.15069 0
M  V30 1029 N 100.511 1.16574 -1.06058 0
M  V30 1030 C 101.751 1.88723 -0.78504 0
M  V30 1031 C 102.115 1.79706 0.676006 0
M  V30 1032 O 103.316 2.46757 1.06603 0
M  V30 1033 C 101.587 3.34338 -1.26304 0
M  V30 1034 S 103.146 4.24366 -1.1162 0
M  V30 1035 H 99.9638 0.651448 -0.284846 0
M  V30 1036 H 102.566 1.40732 -1.35701 0
M  V30 1037 H 101.27 3.38439 -2.32136 0
M  V30 1038 H 100.801 3.87378 -0.685719 0
M  V30 1039 H 102.816 4.96179 -0.0456539 0
M  V30 1040 N 101.989 0.842826 1.3317 0
M  V30 1041 C 102.919 0.294028 2.31641 0
M  V30 1042 C 103.9 -0.600401 1.59151 0
M  V30 1043 O 105.085 -0.523124 1.87022 0
M  V30 1044 C 102.215 -0.528416 3.43257 0
M  V30 1045 C 101.169 0.27056 4.27144 0
M  V30 1046 C 100.495 -0.675881 5.30411 0
M  V30 1047 C 101.795 1.48981 5.00602 0
M  V30 1048 H 103.489 1.11681 2.77791 0
M  V30 1049 H 101.035 0.538478 1.33553 0
M  V30 1050 H 102.988 -0.922674 4.11175 0
M  V30 1051 H 101.712 -1.38445 2.95805 0
M  V30 1052 H 100.371 0.646427 3.60856 0
M  V30 1053 H 100.019 -1.52842 4.79216 0
M  V30 1054 H 99.7189 -0.145374 5.8742 0
M  V30 1055 H 101.243 -1.06757 6.01195 0
M  V30 1056 H 102.657 1.16849 5.61266 0
M  V30 1057 H 101.054 1.95739 5.6728 0
M  V30 1058 H 102.124 2.25746 4.29147 0
M  V30 1059 N 103.467 -1.45747 0.599634 0
M  V30 1060 C 104.695 -2.06668 0.0978551 0
M  V30 1061 C 105.11 -1.44562 -1.21439 0
M  V30 1062 O 104.467 -0.556923 -1.73795 0
M  V30 1063 C 104.518 -3.61456 -0.0567044 0
M  V30 1064 O 104.239 -4.21242 1.20361 0
M  V30 1065 C 105.74 -4.39345 -0.590869 0
M  V30 1066 H 102.96 -0.667825 0.0651943 0
M  V30 1067 H 105.504 -1.87115 0.82511 0
M  V30 1068 H 103.659 -3.80378 -0.734251 0
M  V30 1069 H 104.073 -5.14323 1.02821 0
M  V30 1070 H 105.547 -5.48182 -0.648131 0
M  V30 1071 H 106.024 -4.08568 -1.61147 0
M  V30 1072 H 106.63 -4.25268 0.0523679 0
M  V30 1073 N 104.945 -0.338344 -1.53925 0
M  V30 1074 C 106.193 0.259245 -2.0043 0
M  V30 1075 C 106.514 1.51484 -1.22791 0
M  V30 1076 O 105.784 1.93037 -0.33368 0
M  V30 1077 H 104.364 0.0987845 -0.740439 0
M  V30 1078 H 107.026 -0.458302 -1.89435 0
M  V30 1079 H 106.122 0.505334 -3.07982 0
M  V30 1080 N 106.423 1.57458 -0.0668435 0
M  V30 1081 C 107.834 1.80776 0.466558 0
M  V30 1082 C 108.185 0.980361 1.69951 0
M  V30 1083 O 107.31 0.201441 2.1546 0
M  V30 1084 C 107.905 3.27881 0.85321 0
M  V30 1085 C 106.464 3.52062 1.3315 0
M  V30 1086 C 105.611 2.75513 0.314264 0
M  V30 1087 H 108.562 1.5598 -0.292588 0
M  V30 1088 H 108.583 3.39659 1.715 0
M  V30 1089 H 108.095 3.88075 -0.0443439 0
M  V30 1090 H 106.196 2.97167 2.24772 0
M  V30 1091 H 106.309 4.60762 1.31285 0
M  V30 1092 H 104.673 2.42123 0.790492 0
M  V30 1093 H 105.456 3.38442 -0.575477 0
M  V30 1094 N 107.901 -0.206675 1.56239 0
M  V30 1095 C 109.147 -0.930218 1.80208 0
M  V30 1096 C 109.48 -1.83387 0.638981 0
M  V30 1097 O 108.755 -1.91119 -0.361066 0
M  V30 1098 C 109.038 -1.75641 3.1436 0
M  V30 1099 C 108.891 -0.878257 4.41142 0
M  V30 1100 C 110.21 -2.73129 3.45092 0
M  V30 1101 H 107.329 -0.336742 0.655571 0
M  V30 1102 H 109.971 -0.198222 1.88963 0
M  V30 1103 H 108.121 -2.38048 3.07027 0
M  V30 1104 H 109.793 -0.269787 4.6051 0
M  V30 1105 H 108.036 -0.184385 4.33408 0
M  V30 1106 H 108.707 -1.49106 5.3148 0
M  V30 1107 H 111.183 -2.20856 3.52649 0
M  V30 1108 H 110.059 -3.28028 4.40101 0
M  V30 1109 H 110.32 -3.51606 2.68003 0
M  V30 1110 N 109.379 -1.50304 -0.473955 0
M  V30 1111 C 110.795 -1.37667 -0.807466 0
M  V30 1112 C 110.995 -0.430555 -1.96846 0
M  V30 1113 O 110.051 0.127874 -2.52176 0
M  V30 1114 C 111.364 -2.78974 -1.12223 0
M  V30 1115 C 112.912 -2.87868 -1.22885 0
M  V30 1116 C 113.387 -4.30003 -1.57676 0
M  V30 1117 N 114.878 -4.3294 -1.64673 0
M  V30 1118 C 115.613 -5.3991 -1.93091 0
M  V30 1119 N 115.109 -6.57092 -2.1955 0
M  V30 1120 N 116.902 -5.27351 -1.94569 0
M  V30 1121 H 109.053 -2.10394 0.291212 0
M  V30 1122 H 111.316 -0.945575 0.0677609 0
M  V30 1123 H 111.022 -3.50031 -0.342229 0
M  V30 1124 H 110.896 -3.16038 -2.05913 0
M  V30 1125 H 113.283 -2.17032 -1.99953 0
M  V30 1126 H 113.364 -2.54352 -0.271814 0
M  V30 1127 H 113.008 -5.01375 -0.81149 0
M  V30 1128 H 112.938 -4.61004 -2.54525 0
M  V30 1129 H 115.429 -3.48441 -1.46277 0
M  V30 1130 H 115.742 -7.34425 -2.405 0
M  V30 1131 H 114.087 -6.60272 -2.16948 0
M  V30 1132 H 117.278 -4.34801 -1.73394 0
M  V30 1133 H 117.451 -6.10805 -2.16381 0
M  V30 1134 N 110.857 0.726932 -1.39834 0
M  V30 1135 C 111.82 1.82269 -1.38962 0
M  V30 1136 C 112.82 1.58248 -0.285334 0
M  V30 1137 O 114.01 1.65499 -0.54366 0
M  V30 1138 C 111.142 3.20186 -1.17019 0
M  V30 1139 H 112.335 1.84443 -2.36476 0
M  V30 1140 H 109.888 0.931416 -1.25516 0
M  V30 1141 H 110.623 3.23669 -0.202204 0
M  V30 1142 H 110.408 3.3902 -1.96998 0
M  V30 1143 H 111.898 4.00235 -1.1917 0
M  V30 1144 N 112.336 1.25143 0.95797 0
M  V30 1145 C 113.561 1.12521 1.74223 0
M  V30 1146 C 113.986 -0.317402 1.85403 0
M  V30 1147 O 113.344 -1.2299 1.33204 0
M  V30 1148 C 113.392 1.78062 3.1357 0
M  V30 1149 O 112.496 1.058 3.98598 0
M  V30 1150 H 111.837 0.39304 0.535178 0
M  V30 1151 H 114.367 1.65641 1.201 0
M  V30 1152 H 114.377 1.84213 3.64046 0
M  V30 1153 H 113.052 2.83021 3.04749 0
M  V30 1154 H 111.629 1.07506 3.57067 0
M  V30 1155 N 113.814 -1.1601 1.06675 0
M  V30 1156 C 114.764 -2.18512 0.650888 0
M  V30 1157 C 115.748 -1.57677 -0.320441 0
M  V30 1158 O 116.94 -1.76482 -0.135266 0
M  V30 1159 C 114.069 -3.43273 0.0429255 0
M  V30 1160 C 113.155 -4.11176 1.03898 0
M  V30 1161 N 113.546 -4.54672 2.216 0
M  V30 1162 C 111.844 -4.37417 0.870779 0
M  V30 1163 C 112.545 -5.07248 2.84736 0
M  V30 1164 N 111.521 -5.0037 2.12441 0
M  V30 1165 H 115.323 -2.49863 1.54745 0
M  V30 1166 H 112.837 -1.32503 0.938975 0
M  V30 1167 H 114.834 -4.16006 -0.272857 0
M  V30 1168 H 113.494 -3.13408 -0.84884 0
M  V30 1169 H 114.505 -4.4828 2.59356 0
M  V30 1170 H 111.182 -4.17488 0.0313293 0
M  V30 1171 H 112.572 -5.50912 3.84636 0
M  V30 1172 N 115.292 -0.849877 -1.32721 0
M  V30 1173 C 116.24 -0.279745 -2.30912 0
M  V30 1174 C 117.234 0.594278 -1.58634 0
M  V30 1175 O 118.44 0.482613 -1.73409 0
M  V30 1176 H 114.815 -0.0717521 -0.748569 0
M  V30 1177 H 116.786 -1.12222 -2.76494 0
M  V30 1178 C 115.535 0.521108 -3.43773 0
M  V30 1179 H 114.858 -0.142141 -3.99547 0
M  V30 1180 H 116.298 0.885693 -4.14646 0
M  V30 1181 C 114.757 1.70442 -2.90605 0
M  V30 1182 O 115.287 2.8034 -2.87702 0
M  V30 1183 N 113.493 1.52991 -2.47067 0
M  V30 1184 H 113.04 0.635914 -2.49628 0
M  V30 1185 H 112.998 2.32311 -2.11847 0
M  V30 1186 N 116.77 1.45427 -0.607355 0
M  V30 1187 C 118.018 2.01841 -0.102253 0
M  V30 1188 C 118.339 1.47832 1.27164 0
M  V30 1189 O 117.609 0.672497 1.83995 0
M  V30 1190 H 116.189 0.746188 -0.0348101 0
M  V30 1191 H 118.851 1.78229 -0.7887 0
M  V30 1192 H 117.947 3.12057 -0.0518585 0
M  V30 1193 N 118.248 0.346503 1.53744 0
M  V30 1194 C 119.488 -0.249413 2.02873 0
M  V30 1195 C 119.852 -1.47532 1.22876 0
M  V30 1196 O 121.053 -2.1456 1.61918 0
M  V30 1197 C 119.324 -0.552909 3.53097 0
M  V30 1198 S 120.883 -1.12521 4.24128 0
M  V30 1199 H 117.701 -0.074042 0.707134 0
M  V30 1200 H 120.303 0.48495 1.8939 0
M  V30 1201 H 119.007 0.347083 4.0893 0
M  V30 1202 H 118.538 -1.31686 3.70705 0
M  V30 1203 H 120.553 -2.41075 4.33702 0
M  V30 1204 N 119.726 -1.57421 0.075193 0
M  V30 1205 C 120.974 -1.93236 -0.591974 0
M  V30 1206 C 121.295 -0.956241 -1.69944 0
M  V30 1207 O 120.565 -0.00494792 -1.95899 0
M  V30 1208 H 119.145 -0.713355 -0.22166 0
M  V30 1209 H 121.807 -1.9444 0.133848 0
M  V30 1210 H 120.903 -2.95131 -1.01509 0
M  V30 1211 N 121.204 0.198386 -1.56346 0
M  V30 1212 C 122.167 1.22952 -1.93431 0
M  V30 1213 C 123.167 1.38611 -0.815092 0
M  V30 1214 O 124.357 1.36479 -1.08255 0
M  V30 1215 C 121.489 2.59946 -2.20546 0
M  V30 1216 H 122.682 0.912626 -2.85677 0
M  V30 1217 H 120.235 0.43977 -1.49986 0
M  V30 1218 H 120.97 2.96696 -1.30927 0
M  V30 1219 H 120.755 2.49953 -3.02102 0
M  V30 1220 H 122.245 3.3431 -2.50253 0
M  V30 1221 N 122.682 1.50554 0.465978 0
M  V30 1222 C 123.615 1.64436 1.58227 0
M  V30 1223 C 124.593 0.492367 1.54966 0
M  V30 1224 O 125.777 0.712536 1.74514 0
M  V30 1225 C 122.904 1.63165 2.96808 0
M  V30 1226 C 121.95 2.83987 3.18204 0
M  V30 1227 S 122.783 4.45219 2.97557 0
M  V30 1228 C 123.939 4.46649 4.3847 0
M  V30 1229 H 124.172 2.58861 1.46213 0
M  V30 1230 H 121.705 1.3988 0.653678 0
M  V30 1231 H 123.663 1.63116 3.76701 0
M  V30 1232 H 122.324 0.69967 3.06208 0
M  V30 1233 H 121.517 2.79416 4.19455 0
M  V30 1234 H 121.119 2.81629 2.46092 0
M  V30 1235 H 123.411 4.20526 5.31191 0
M  V30 1236 H 124.354 5.48295 4.48082 0
M  V30 1237 H 124.762 3.76296 4.20787 0
M  V30 1238 N 124.16 -0.719506 1.40217 0
M  V30 1239 C 125.571 -1.29848 1.34151 0
M  V30 1240 C 125.922 -1.96196 0.0131349 0
M  V30 1241 O 125.047 -1.973 -0.88892 0
M  V30 1242 C 125.642 -2.36118 2.42968 0
M  V30 1243 C 124.201 -2.8965 2.40374 0
M  V30 1244 C 123.348 -1.63393 2.24049 0
M  V30 1245 H 126.299 -0.51591 1.5008 0
M  V30 1246 H 126.32 -3.16871 2.10649 0
M  V30 1247 H 125.832 -1.878 3.39636 0
M  V30 1248 H 123.933 -3.42208 1.47392 0
M  V30 1249 H 124.046 -3.4171 3.35814 0
M  V30 1250 H 122.41 -1.88312 1.71495 0
M  V30 1251 H 123.193 -1.17104 3.2271 0
M  V30 1252 N 125.638 -1.25649 -0.95132 0
M  V30 1253 C 126.885 -1.10594 -1.69633 0
M  V30 1254 C 127.213 0.352515 -1.91279 0
M  V30 1255 O 126.468 1.27601 -1.4838 0
M  V30 1256 C 126.767 -1.80909 -3.08231 0
M  V30 1257 C 126.433 -3.30825 -3.06375 0
M  V30 1258 C 125.095 -3.71722 -3.05576 0
M  V30 1259 C 127.447 -4.26589 -2.99452 0
M  V30 1260 C 124.775 -5.06788 -2.95606 0
M  V30 1261 C 127.127 -5.61683 -2.91024 0
M  V30 1262 C 125.791 -6.01904 -2.88562 0
M  V30 1263 H 125.061 -0.404691 -0.620731 0
M  V30 1264 H 127.708 -1.55964 -1.11119 0
M  V30 1265 H 126.013 -1.27979 -3.70309 0
M  V30 1266 H 127.71 -1.6671 -3.64704 0
M  V30 1267 H 124.3 -2.98287 -3.07771 0
M  V30 1268 H 128.484 -3.95982 -2.99185 0
M  V30 1269 H 123.74 -5.37126 -2.92071 0
M  V30 1270 H 127.914 -6.35578 -2.84629 0
M  V30 1271 H 125.541 -7.06521 -2.80593 0
M  V30 1272 N 127.117 1.15442 -1.07289 0
M  V30 1273 C 128.533 1.38201 -0.798288 0
M  V30 1274 C 128.733 1.92429 0.597769 0
M  V30 1275 O 127.789 2.12962 1.3566 0
M  V30 1276 C 129.102 2.35357 -1.87156 0
M  V30 1277 C 130.65 2.49021 -1.89624 0
M  V30 1278 C 131.125 3.49468 -2.96034 0
M  V30 1279 N 132.616 3.57003 -2.95132 0
M  V30 1280 C 133.351 4.34543 -3.74112 0
M  V30 1281 N 132.847 5.15421 -4.6294 0
M  V30 1282 N 134.64 4.29625 -3.62462 0
M  V30 1283 H 126.791 0.78584 -1.97328 0
M  V30 1284 H 129.054 0.408065 -0.855679 0
M  V30 1285 H 128.76 2.02626 -2.87464 0
M  V30 1286 H 128.634 3.35129 -1.73114 0
M  V30 1287 H 131.021 2.81051 -0.899687 0
M  V30 1288 H 131.102 1.4925 -2.07745 0
M  V30 1289 H 130.746 3.18173 -3.95889 0
M  V30 1290 H 130.676 4.48992 -2.75161 0
M  V30 1291 H 133.167 2.99276 -2.30743 0
M  V30 1292 H 133.48 5.7183 -5.19837 0
M  V30 1293 H 131.825 5.14729 -4.66989 0
M  V30 1294 H 135.016 3.65505 -2.92444 0
M  V30 1295 H 135.189 4.89807 -4.24256 0
M  V30 1296 N 128.595 0.856903 1.32268 0
M  V30 1297 C 129.841 0.462069 1.97466 0
M  V30 1298 C 130.174 -0.980298 1.67642 0
M  V30 1299 O 129.449 -1.68824 0.965858 0
M  V30 1300 C 129.732 0.704336 3.53145 0
M  V30 1301 C 129.585 2.19529 3.9259 0
M  V30 1302 C 130.904 0.1622 4.39801 0
M  V30 1303 H 128.023 0.169357 0.717278 0
M  V30 1304 H 130.665 1.07574 1.56614 0
M  V30 1305 H 128.815 0.181999 3.88073 0
M  V30 1306 H 130.487 2.78387 3.67829 0
M  V30 1307 H 128.73 2.67292 3.41668 0
M  V30 1308 H 129.401 2.31549 5.01088 0
M  V30 1309 H 131.877 0.608905 4.11621 0
M  V30 1310 H 130.753 0.361265 5.4771 0
M  V30 1311 H 131.014 -0.935158 4.32096 0
M  V30 1312 N 130.073 -1.45103 0.615059 0
M  V30 1313 C 130.983 -2.34382 -0.101034 0
M  V30 1314 C 131.999 -1.51681 -0.852585 0
M  V30 1315 O 133.175 -1.8446 -0.808484 0
M  V30 1316 C 130.24 -3.29417 -1.08099 0
M  V30 1317 C 129.301 -4.28025 -0.330577 0
M  V30 1318 C 128.534 -5.1852 -1.26385 0
M  V30 1319 O 128.757 -5.12598 -2.50198 0
M  V30 1320 O 127.691 -5.97122 -0.756866 0
M  V30 1321 H 131.517 -2.97033 0.632855 0
M  V30 1322 H 129.102 -1.4461 0.375293 0
M  V30 1323 H 130.984 -3.87958 -1.6452 0
M  V30 1324 H 129.659 -2.69321 -1.79577 0
M  V30 1325 H 128.566 -3.73078 0.276283 0
M  V30 1326 H 129.899 -4.90997 0.343866 0
M  V30 1327 N 131.551 -0.354651 -1.53558 0
M  V30 1328 C 132.484 0.540273 -2.21712 0
M  V30 1329 C 133.462 1.09161 -1.2051 0
M  V30 1330 O 134.646 1.14979 -1.49372 0
M  V30 1331 C 131.773 1.74435 -2.90328 0
M  V30 1332 C 130.819 1.32146 -4.05512 0
M  V30 1333 S 131.652 0.331924 -5.3447 0
M  V30 1334 C 132.808 1.54258 -6.06593 0
M  V30 1335 H 133.041 -0.0385776 -2.97275 0
M  V30 1336 H 130.574 -0.138736 -1.53775 0
M  V30 1337 H 132.532 2.43507 -3.30476 0
M  V30 1338 H 131.193 2.29444 -2.1451 0
M  V30 1339 H 130.386 2.21952 -4.52497 0
M  V30 1340 H 129.988 0.710091 -3.67197 0
M  V30 1341 H 132.28 2.47534 -6.30661 0
M  V30 1342 H 133.223 1.11431 -6.99277 0
M  V30 1343 H 133.631 1.74367 -5.36895 0
M  V30 1344 N 133.029 1.57378 -0.0835403 0
M  V30 1345 C 134.275 1.94217 0.583733 0
M  V30 1346 C 134.608 0.964653 1.68547 0
M  V30 1347 O 133.883 -0.00422258 1.945 0
M  V30 1348 C 134.166 3.41253 1.14972 0
M  V30 1349 C 134.019 4.49768 0.0538277 0
M  V30 1350 C 135.338 3.89352 2.05166 0
M  V30 1351 H 132.457 0.706233 0.210724 0
M  V30 1352 H 135.099 1.89392 -0.1519 0
M  V30 1353 H 133.249 3.45496 1.77665 0
M  V30 1354 H 134.921 4.57641 -0.579851 0
M  V30 1355 H 133.164 4.29432 -0.614068 0
M  V30 1356 H 133.835 5.49817 0.490452 0
M  V30 1357 H 136.311 3.87189 1.52393 0
M  V30 1358 H 135.187 4.92822 2.41698 0
M  V30 1359 H 135.448 3.27973 2.96456 0
M  V30 1360 N 134.507 -0.190092 1.56449 0
M  V30 1361 C 135.753 -0.906472 1.82084 0
M  V30 1362 C 136.108 -1.80677 0.661335 0
M  V30 1363 O 135.401 -1.88501 -0.343237 0
M  V30 1364 C 135.595 -1.75382 3.1141 0
M  V30 1365 C 135.424 -0.937053 4.39829 0
M  V30 1366 C 134.194 -0.619507 5.01488 0
M  V30 1367 C 136.392 -0.2874 5.13496 0
M  V30 1368 N 134.374 0.215367 6.13522 0
M  V30 1369 C 135.745 0.409454 6.18646 0
M  V30 1370 C 137.8 -0.203639 4.97483 0
M  V30 1371 C 136.503 1.1821 7.0952 0
M  V30 1372 C 138.529 0.555622 5.88784 0
M  V30 1373 C 137.891 1.24091 6.93384 0
M  V30 1374 H 133.99 -0.310931 0.717528 0
M  V30 1375 H 136.574 -0.174821 1.93914 0
M  V30 1376 H 134.745 -2.45703 3.00806 0
M  V30 1377 H 136.477 -2.41006 3.25112 0
M  V30 1378 H 133.232 -0.945126 4.64074 0
M  V30 1379 H 133.656 0.622562 6.74131 0
M  V30 1380 H 138.298 -0.719099 4.1664 0
M  V30 1381 H 136.016 1.70897 7.89823 0
M  V30 1382 H 139.602 0.621854 5.78467 0
M  V30 1383 H 138.482 1.81901 7.62812 0
M  V30 1384 N 135.985 -1.50799 -0.457987 0
M  V30 1385 C 136.933 -1.71162 -1.575 0
M  V30 1386 C 137.927 -0.577592 -1.59249 0
M  V30 1387 O 139.133 -0.758443 -1.63241 0
M  V30 1388 H 135.508 -0.540468 -0.522875 0
M  V30 1389 H 137.479 -2.64837 -1.37492 0
M  V30 1390 C 136.228 -1.83496 -2.95338 0
M  V30 1391 H 135.551 -2.70153 -2.94716 0
M  V30 1392 H 136.991 -2.01765 -3.72917 0
M  V30 1393 C 135.45 -0.589694 -3.31699 0
M  V30 1394 O 135.98 0.265163 -4.00824 0
M  V30 1395 N 134.186 -0.439845 -2.87252 0
M  V30 1396 H 133.733 -1.13655 -2.31172 0
M  V30 1397 H 133.691 0.392159 -3.11945 0
M  V30 1398 N 137.463 0.71206 -1.40597 0
M  V30 1399 C 138.711 1.46907 -1.38791 0
M  V30 1400 C 139.032 1.94998 0.00780391 0
M  V30 1401 O 138.302 1.70587 0.963174 0
M  V30 1402 H 136.882 0.545043 -0.51082 0
M  V30 1403 H 139.544 0.843882 -1.75683 0
M  V30 1404 H 138.64 2.34021 -2.06496 0
M  V30 1405 N 138.941 1.26152 0.944643 0
M  V30 1406 C 139.873 1.03199 2.04652 0
M  V30 1407 C 140.886 -0.00642356 1.62799 0
M  V30 1408 O 142.075 0.233263 1.76969 0
M  V30 1409 C 139.175 0.540111 3.34568 0
M  V30 1410 C 138.348 1.64697 4.05208 0
M  V30 1411 C 137.407 1.15374 5.13396 0
M  V30 1412 O 136.433 1.85013 5.38293 0
M  V30 1413 N 137.635 0.00031529 5.805 0
M  V30 1414 H 140.4 1.9808 2.2491 0
M  V30 1415 H 137.961 1.17491 1.11389 0
M  V30 1416 H 139.953 0.194401 4.04233 0
M  V30 1417 H 138.523 -0.315021 3.11009 0
M  V30 1418 H 137.743 2.16379 3.29506 0
M  V30 1419 H 139.031 2.3903 4.49157 0
M  V30 1420 H 138.429 -0.581336 5.62705 0
M  V30 1421 H 136.986 -0.286346 6.51171 0
M  V30 1422 N 140.419 -1.14872 1.07899 0
M  V30 1423 C 141.83 -1.67367 0.827363 0
M  V30 1424 C 142.181 -1.85236 -0.646693 0
M  V30 1425 O 141.306 -1.55974 -1.50004 0
M  V30 1426 C 141.901 -3.04016 1.49532 0
M  V30 1427 C 140.46 -3.53566 1.29106 0
M  V30 1428 C 139.607 -2.29161 1.56143 0
M  V30 1429 H 142.558 -0.990083 1.24028 0
M  V30 1430 H 142.579 -3.69219 0.919643 0
M  V30 1431 H 142.091 -2.90978 2.56814 0
M  V30 1432 H 140.192 -3.71835 0.238713 0
M  V30 1433 H 140.305 -4.34661 2.01511 0
M  V30 1434 H 138.669 -2.34978 0.982717 0
M  V30 1435 H 139.452 -2.18705 2.64619 0
M  V30 1436 N 141.898 -0.863906 -1.31812 0
M  V30 1437 C 143.138 -0.47825 -1.98726 0
M  V30 1438 C 143.502 0.950397 -1.66828 0
M  V30 1439 O 144.703 1.44109 -2.26905 0
M  V30 1440 C 142.974 -0.721134 -3.50049 0
M  V30 1441 S 144.533 -0.434432 -4.36644 0
M  V30 1442 H 141.351 -0.178773 -0.688158 0
M  V30 1443 H 143.953 -1.11862 -1.60334 0
M  V30 1444 H 142.657 -1.75981 -3.70755 0
M  V30 1445 H 142.188 -0.0675315 -3.93342 0
M  V30 1446 H 144.203 0.735786 -4.90714 0
M  V30 1447 N 143.376 1.44774 -0.622745 0
M  V30 1448 C 144.339 2.29069 0.0774015 0
M  V30 1449 C 145.339 1.4059 0.780461 0
M  V30 1450 O 146.529 1.62551 0.626322 0
M  V30 1451 C 143.661 3.21974 1.12006 0
M  V30 1452 H 144.854 2.92459 -0.663901 0
M  V30 1453 H 142.407 1.51548 -0.382486 0
M  V30 1454 H 143.142 2.63417 1.89162 0
M  V30 1455 H 142.927 3.87168 0.619951 0
M  V30 1456 H 144.417 3.85318 1.60995 0
M  V30 1457 N 144.854 0.36279 1.53368 0
M  V30 1458 C 145.784 -0.476976 2.28576 0
M  V30 1459 C 146.765 -1.08631 1.30894 0
M  V30 1460 O 147.95 -1.10409 1.59761 0
M  V30 1461 C 145.08 -1.61828 3.07293 0
M  V30 1462 C 144.034 -1.13633 4.1264 0
M  V30 1463 C 143.36 -2.36766 4.79423 0
M  V30 1464 C 144.66 -0.223061 5.21823 0
M  V30 1465 H 146.354 0.150474 2.99022 0
M  V30 1466 H 143.9 0.0738103 1.43811 0
M  V30 1467 H 145.853 -2.21237 3.58653 0
M  V30 1468 H 144.577 -2.27292 2.34533 0
M  V30 1469 H 143.236 -0.564945 3.62221 0
M  V30 1470 H 142.884 -3.0068 4.03238 0
M  V30 1471 H 142.584 -2.05192 5.50609 0
M  V30 1472 H 144.108 -2.96865 5.33576 0
M  V30 1473 H 145.522 -0.724545 5.68703 0
M  V30 1474 H 143.919 0.001678 6.001 0
M  V30 1475 H 144.989 0.735553 4.79289 0
M  V30 1476 N 146.332 -1.57332 0.0918853 0
M  V30 1477 C 147.609 -1.85691 -0.614668 0
M  V30 1478 C 147.989 -0.988146 -1.86545 0
M  V30 1479 O 147.337 -0.0597055 -2.28422 0
M  V30 1480 C 147.547 -3.36294 -0.933126 0
M  V30 1481 C 148.895 -4.04275 -1.29796 0
M  V30 1482 O 149.919 -3.41157 -1.02424 0
M  V30 1483 O 148.778 -5.1564 -1.81047 0
M  V30 1484 H 145.872 -0.767802 -0.307261 0
M  V30 1485 H 148.418 -1.69244 0.12434 0
M  V30 1486 H 147.19 -3.91273 -0.0456404 0
M  V30 1487 H 146.813 -3.58076 -1.72822 0
M  V30 1488 N 147.81 0.181792 -1.56548 0
M  V30 1489 C 149.056 0.901431 -1.81665 0
M  V30 1490 C 149.389 1.82347 -0.668075 0
M  V30 1491 O 148.664 1.91669 0.330615 0
M  V30 1492 C 148.947 1.70618 -3.17115 0
M  V30 1493 C 148.8 0.807964 -4.42484 0
M  V30 1494 C 150.119 2.67605 -3.49393 0
M  V30 1495 H 147.238 0.32627 -0.660846 0
M  V30 1496 H 149.88 0.168134 -1.89255 0
M  V30 1497 H 148.03 2.33133 -3.10775 0
M  V30 1498 H 149.702 0.19649 -4.60881 0
M  V30 1499 H 147.945 0.115411 -4.33646 0
M  V30 1500 H 148.616 1.40632 -5.33785 0
M  V30 1501 H 151.092 2.15218 -3.56118 0
M  V30 1502 H 149.968 3.20985 -4.45264 0
M  V30 1503 H 150.229 3.47298 -2.73563 0
M  V30 1504 N 149.288 1.51039 0.449983 0
M  V30 1505 C 150.537 1.62317 1.19733 0
M  V30 1506 C 150.85 0.339101 1.92638 0
M  V30 1507 O 152.056 0.331069 2.69474 0
M  V30 1508 C 150.512 2.86608 2.17678 0
M  V30 1509 C 150.12 4.21972 1.50479 0
M  V30 1510 C 151.864 3.07239 2.92924 0
M  V30 1511 C 149.771 5.37426 2.46834 0
M  V30 1512 H 148.701 0.604532 0.450619 0
M  V30 1513 H 151.352 1.77494 0.465625 0
M  V30 1514 H 149.734 2.65037 2.94231 0
M  V30 1515 H 150.908 4.53878 0.795716 0
M  V30 1516 H 149.223 4.07117 0.874344 0
M  V30 1517 H 151.82 3.90668 3.65079 0
M  V30 1518 H 152.163 2.19807 3.5354 0
M  V30 1519 H 152.696 3.29091 2.23481 0
M  V30 1520 H 149.435 6.27079 1.90926 0
M  V30 1521 H 148.955 5.09912 3.15832 0
M  V30 1522 H 150.634 5.68862 3.08228 0
M  V30 1523 N 150.766 -0.704594 1.40972 0
M  V30 1524 C 152.043 -1.45847 1.30338 0
M  V30 1525 C 152.423 -2.10973 -0.0732344 0
M  V30 1526 O 151.771 -2.00997 -1.08685 0
M  V30 1527 C 151.981 -2.48525 2.45023 0
M  V30 1528 C 153.329 -3.1404 2.8577 0
M  V30 1529 O 154.353 -2.58848 2.44696 0
M  V30 1530 O 153.212 -4.13981 3.56766 0
M  V30 1531 H 150.306 -0.649092 0.512454 0
M  V30 1532 H 152.852 -0.735836 1.52917 0
M  V30 1533 H 151.624 -1.98994 3.36923 0
M  V30 1534 H 151.247 -3.2831 2.24272 0
M  V30 1535 N 152.244 -1.26651 -0.937939 0
M  V30 1536 C 153.49 -1.12553 -1.687 0
M  V30 1537 C 153.823 0.329782 -1.91379 0
M  V30 1538 O 153.098 1.24202 -1.4968 0
M  V30 1539 C 153.381 -1.89862 -3.05981 0
M  V30 1540 C 153.234 -3.43318 -2.90607 0
M  V30 1541 C 154.553 -1.69499 -4.0615 0
M  V30 1542 H 151.672 -0.410257 -0.612257 0
M  V30 1543 H 154.314 -1.55685 -1.08913 0
M  V30 1544 H 152.464 -1.53204 -3.57017 0
M  V30 1545 H 154.136 -3.89747 -2.46769 0
M  V30 1546 H 152.379 -3.70179 -2.26164 0
M  V30 1547 H 153.05 -3.92642 -3.8799 0
M  V30 1548 H 155.526 -2.01442 -3.64088 0
M  V30 1549 H 154.402 -2.26002 -5.00214 0
M  V30 1550 H 154.663 -0.640365 -4.37438 0
M  V30 1551 N 153.722 1.14298 -1.08507 0
M  V30 1552 C 154.655 2.18447 -0.660004 0
M  V30 1553 C 155.633 1.59242 0.328749 0
M  V30 1554 O 156.817 1.87062 0.232367 0
M  V30 1555 C 153.944 3.38688 0.0290807 0
M  V30 1556 C 152.99 4.1646 -0.919982 0
M  V30 1557 S 153.823 4.77334 -2.42718 0
M  V30 1558 C 154.979 6.00931 -1.75024 0
M  V30 1559 H 155.212 2.54166 -1.54231 0
M  V30 1560 H 152.745 1.25446 -0.900149 0
M  V30 1561 H 154.703 4.08342 0.420378 0
M  V30 1562 H 153.364 3.01289 0.887895 0
M  V30 1563 H 152.557 5.02529 -0.384751 0
M  V30 1564 H 152.159 3.52414 -1.25223 0
M  V30 1565 H 154.451 6.69017 -1.06877 0
M  V30 1566 H 155.394 6.59044 -2.58971 0
M  V30 1567 H 155.802 5.51089 -1.22317 0
M  V30 1568 N 155.201 0.870884 1.31352 0
M  V30 1569 C 156.617 0.562932 1.49343 0
M  V30 1570 C 156.817 -0.902725 1.80148 0
M  V30 1571 O 155.873 -1.68484 1.88067 0
M  V30 1572 C 157.186 1.46393 2.62659 0
M  V30 1573 C 158.734 1.46607 2.76542 0
M  V30 1574 C 159.209 2.35266 3.92955 0
M  V30 1575 N 160.7 2.33151 4.00243 0
M  V30 1576 C 161.435 2.98471 4.89594 0
M  V30 1577 N 160.931 3.72964 5.8384 0
M  V30 1578 N 162.724 2.87775 4.82848 0
M  V30 1579 H 154.875 1.81923 1.09626 0
M  V30 1580 H 157.138 0.777934 0.541777 0
M  V30 1581 H 156.844 2.50689 2.46674 0
M  V30 1582 H 156.718 1.16314 3.58819 0
M  V30 1583 H 159.105 0.43069 2.9194 0
M  V30 1584 H 159.186 1.8071 1.81046 0
M  V30 1585 H 158.83 3.38881 3.78315 0
M  V30 1586 H 158.76 1.98487 4.87761 0
M  V30 1587 H 161.251 1.79006 3.32814 0
M  V30 1588 H 161.564 4.19932 6.4875 0
M  V30 1589 H 159.909 3.77073 5.83816 0
M  V30 1590 H 163.1 2.29116 4.08195 0
M  V30 1591 H 163.273 3.38961 5.52277 0
M  V30 1592 N 156.679 -1.44442 0.630414 0
M  V30 1593 C 157.926 -2.02052 0.134617 0
M  V30 1594 C 158.254 -1.49576 -1.24327 0
M  V30 1595 O 157.509 -0.669806 -1.83881 0
M  V30 1596 C 157.808 -3.57332 0.0697835 0
M  V30 1597 C 157.474 -4.29058 1.38635 0
M  V30 1598 C 156.136 -4.4837 1.74694 0
M  V30 1599 C 158.488 -4.69872 2.25543 0
M  V30 1600 C 155.816 -5.05756 2.97369 0
M  V30 1601 C 158.168 -5.28616 3.47487 0
M  V30 1602 C 156.832 -5.46147 3.8377 0
M  V30 1603 H 156.102 -0.739361 0.0492598 0
M  V30 1604 H 158.749 -1.73217 0.816586 0
M  V30 1605 H 157.054 -3.85577 -0.695553 0
M  V30 1606 H 158.751 -3.99637 -0.330344 0
M  V30 1607 H 155.341 -4.14357 1.09574 0
M  V30 1608 H 159.525 -4.54666 1.98979 0
M  V30 1609 H 154.781 -5.17515 3.25558 0
M  V30 1610 H 158.955 -5.59192 4.15063 0
M  V30 1611 H 156.582 -5.9038 4.7891 0
M  V30 1612 N 158.157 -0.370918 -1.53173 0
M  V30 1613 C 159.434 0.273754 -1.93675 0
M  V30 1614 C 159.814 1.65938 -1.3049 0
M  V30 1615 O 159.162 2.23698 -0.465999 0
M  V30 1616 C 159.372 0.318602 -3.47543 0
M  V30 1617 C 160.72 0.556392 -4.20939 0
M  V30 1618 O 161.744 0.399587 -3.53952 0
M  V30 1619 O 160.603 0.862133 -5.39657 0
M  V30 1620 H 157.697 0.165448 -0.810281 0
M  V30 1621 H 160.243 -0.42409 -1.64315 0
M  V30 1622 H 159.015 -0.652687 -3.85818 0
M  V30 1623 H 158.638 1.06212 -3.83151 0
M  V30 1624 N 159.635 1.57281 -0.100228 0
M  V30 1625 C 160.545 2.17833 0.870965 0
M  V30 1626 C 161.561 1.14921 1.30649 0
M  V30 1627 O 162.737 1.47313 1.37335 0
M  V30 1628 C 159.802 2.75085 2.1102 0
M  V30 1629 C 158.863 3.9297 1.72838 0
M  V30 1630 C 158.096 4.47482 2.90854 0
M  V30 1631 O 158.319 4.00922 4.05731 0
M  V30 1632 O 157.253 5.38433 2.69023 0
M  V30 1633 H 161.079 3.0124 0.38575 0
M  V30 1634 H 158.664 1.48881 0.124397 0
M  V30 1635 H 160.546 3.11656 2.83634 0
M  V30 1636 H 159.221 1.94721 2.58584 0
M  V30 1637 H 158.128 3.61201 0.973883 0
M  V30 1638 H 159.461 4.74713 1.30033 0
M  V30 1639 N 161.113 -0.173488 1.56642 0
M  V30 1640 C 162.063 -1.21941 1.92651 0
M  V30 1641 C 163.047 -1.39912 0.794577 0
M  V30 1642 O 164.239 -1.41919 1.05773 0
M  V30 1643 C 161.368 -2.55935 2.28806 0
M  V30 1644 C 160.454 -2.41667 3.48508 0
M  V30 1645 N 160.845 -1.9711 4.65813 0
M  V30 1646 C 159.143 -2.72499 3.53072 0
M  V30 1647 C 159.844 -1.95253 5.47952 0
M  V30 1648 N 158.82 -2.37575 4.88937 0
M  V30 1649 H 162.622 -0.866581 2.80834 0
M  V30 1650 H 160.136 -0.381776 1.57849 0
M  V30 1651 H 162.133 -3.31511 2.52797 0
M  V30 1652 H 160.793 -2.92022 1.41961 0
M  V30 1653 H 161.804 -1.67481 4.90072 0
M  V30 1654 H 158.481 -3.12639 2.767 0
M  V30 1655 H 159.871 -1.6252 6.51948 0
M  V30 1656 N 162.591 -1.51276 -0.441967 0
M  V30 1657 C 163.839 -1.63392 -1.18943 0
M  V30 1658 C 164.16 -0.350159 -1.9183 0
M  V30 1659 O 163.43 0.633784 -1.85364 0
M  V30 1660 H 162.01 -0.602164 -0.442049 0
M  V30 1661 H 164.672 -1.88186 -0.507165 0
M  V30 1662 H 163.768 -2.45934 -1.92154 0
M  V30 1663 N 164.069 0.697108 -1.41344 0
M  V30 1664 C 165.485 1.00751 -1.2378 0
M  V30 1665 C 165.685 2.01105 -0.126066 0
M  V30 1666 O 164.741 2.47295 0.51004 0
M  V30 1667 C 166.054 1.53359 -2.58653 0
M  V30 1668 C 167.602 1.6525 -2.65822 0
M  V30 1669 C 168.077 2.2126 -4.01009 0
M  V30 1670 N 169.568 2.28622 -4.02847 0
M  V30 1671 C 170.303 2.72984 -5.04249 0
M  V30 1672 N 169.799 3.16962 -6.16041 0
M  V30 1673 N 171.592 2.72534 -4.91611 0
M  V30 1674 H 163.743 0.0322662 -2.12375 0
M  V30 1675 H 166.006 0.0768853 -0.944877 0
M  V30 1676 H 165.712 0.870773 -3.4075 0
M  V30 1677 H 165.586 2.51597 -2.81032 0
M  V30 1678 H 167.973 2.30644 -1.84086 0
M  V30 1679 H 168.054 0.655614 -2.47256 0
M  V30 1680 H 167.698 1.56482 -4.83193 0
M  V30 1681 H 167.628 3.21698 -4.16915 0
M  V30 1682 H 170.119 1.97585 -3.22131 0
M  V30 1683 H 170.432 3.49434 -6.89287 0
M  V30 1684 H 168.777 3.14875 -6.1958 0
M  V30 1685 H 171.968 2.37525 -4.0336 0
M  V30 1686 H 172.141 3.06789 -5.70775 0
M  V30 1687 N 165.547 1.27147 0.931209 0
M  V30 1688 C 166.796 1.12664 1.67302 0
M  V30 1689 C 167.109 -0.327718 1.92835 0
M  V30 1690 O 168.315 -0.593392 2.64936 0
M  V30 1691 C 166.771 1.9683 3.01307 0
M  V30 1692 C 166.379 3.46901 2.83485 0
M  V30 1693 C 168.123 1.90985 3.79111 0
M  V30 1694 C 166.03 4.23279 4.13024 0
M  V30 1695 H 164.96 0.41803 0.627509 0
M  V30 1696 H 167.611 1.51539 1.03481 0
M  V30 1697 H 165.993 1.50797 3.66164 0
M  V30 1698 H 167.167 4.00773 2.27415 0
M  V30 1699 H 165.482 3.54088 2.19113 0
M  V30 1700 H 168.079 2.45328 4.75098 0
M  V30 1701 H 168.422 0.882718 4.06834 0
M  V30 1702 H 168.955 2.34895 3.21044 0
M  V30 1703 H 165.694 5.26503 3.90481 0
M  V30 1704 H 165.214 3.74186 4.6877 0
M  V30 1705 H 166.893 4.32265 4.81411 0
M  V30 1706 N 167.025 -1.13721 1.09112 0
M  V30 1707 C 167.957 -2.1871 0.685467 0
M  V30 1708 C 168.97 -1.60527 -0.271068 0
M  V30 1709 O 170.159 -1.78407 -0.0576148 0
M  V30 1710 C 167.259 -3.38898 -0.0111255 0
M  V30 1711 C 166.432 -4.26597 0.966131 0
M  V30 1712 C 165.491 -5.25324 0.303539 0
M  V30 1713 O 164.517 -5.61213 0.950177 0
M  V30 1714 N 165.719 -5.72779 -0.943651 0
M  V30 1715 H 168.484 -2.54126 1.58871 0
M  V30 1716 H 166.045 -1.29012 0.978143 0
M  V30 1717 H 168.037 -4.02014 -0.465517 0
M  V30 1718 H 166.607 -3.01747 -0.816565 0
M  V30 1719 H 165.827 -3.60306 1.59917 0
M  V30 1720 H 167.115 -4.82048 1.6281 0
M  V30 1721 H 166.513 -5.45762 -1.48862 0
M  V30 1722 H 165.07 -6.37847 -1.34142 0
M  V30 1723 N 168.503 -0.877838 -1.30888 0
M  V30 1724 C 169.731 -0.507414 -2.00581 0
M  V30 1725 C 170.146 0.902216 -1.65848 0
M  V30 1726 O 169.503 1.59225 -0.891831 0
M  V30 1727 C 169.554 -0.664162 -3.55347 0
M  V30 1728 O 169.275 -2.01829 -3.8884 0
M  V30 1729 C 170.776 -0.295787 -4.42312 0
M  V30 1730 H 167.996 -0.196866 -0.641471 0
M  V30 1731 H 170.54 -1.18117 -1.66939 0
M  V30 1732 H 168.695 -0.0378619 -3.87381 0
M  V30 1733 H 169.109 -2.03174 -4.8355 0
M  V30 1734 H 170.583 -0.456388 -5.5011 0
M  V30 1735 H 171.06 0.765663 -4.32475 0
M  V30 1736 H 171.666 -0.898113 -4.15709 0
M  V30 1737 N 169.982 1.44106 -0.638065 0
M  V30 1738 C 170.915 2.27924 0.112161 0
M  V30 1739 C 171.893 1.38945 0.844574 0
M  V30 1740 O 173.077 1.68386 0.847248 0
M  V30 1741 C 170.204 3.18029 1.16512 0
M  V30 1742 C 169.25 4.23163 0.532458 0
M  V30 1743 S 170.083 5.31131 -0.682666 0
M  V30 1744 C 171.239 6.24805 0.37013 0
M  V30 1745 H 171.472 2.91205 -0.598887 0
M  V30 1746 H 169.005 1.48394 -0.426441 0
M  V30 1747 H 170.963 3.70492 1.76766 0
M  V30 1748 H 169.624 2.53955 1.8484 0
M  V30 1749 H 168.817 4.86252 1.32571 0
M  V30 1750 H 168.419 3.74 0.00437644 0
M  V30 1751 H 170.711 6.66042 1.24071 0
M  V30 1752 H 171.654 7.07741 -0.225349 0
M  V30 1753 H 172.062 5.60154 0.699141 0
M  V30 1754 N 171.46 0.379036 1.52974 0
M  V30 1755 C 172.392 -0.495963 2.2377 0
M  V30 1756 C 173.405 -1.03517 1.25651 0
M  V30 1757 O 174.594 -0.939249 1.51791 0
M  V30 1758 C 171.694 -1.69894 2.93239 0
M  V30 1759 C 170.867 -1.2889 4.17979 0
M  V30 1760 C 169.926 -2.35543 4.70538 0
M  V30 1761 O 168.952 -1.97375 5.33883 0
M  V30 1762 N 170.154 -3.67318 4.49508 0
M  V30 1763 H 172.919 0.110523 2.99496 0
M  V30 1764 H 170.48 0.204878 1.60598 0
M  V30 1765 H 172.472 -2.40747 3.25304 0
M  V30 1766 H 171.042 -2.212 2.20883 0
M  V30 1767 H 170.262 -0.409676 3.92065 0
M  V30 1768 H 171.55 -0.991443 4.99047 0
M  V30 1769 H 170.948 -4.01095 3.98923 0
M  V30 1770 H 169.505 -4.34235 4.8609 0
M  V30 1771 N 172.938 -1.57226 0.108567 0
M  V30 1772 C 173.901 -2.13602 -0.831082 0
M  V30 1773 C 174.901 -1.06841 -1.20173 0
M  V30 1774 O 176.091 -1.32666 -1.12895 0
M  V30 1775 C 173.223 -2.66769 -2.12243 0
M  V30 1776 H 174.416 -2.97951 -0.341317 0
M  V30 1777 H 171.969 -1.55667 -0.14057 0
M  V30 1778 H 172.704 -1.85977 -2.65675 0
M  V30 1779 H 172.489 -3.44839 -1.86625 0
M  V30 1780 H 173.979 -3.10332 -2.79435 0
M  V30 1781 N 174.416 0.165178 -1.56732 0
M  V30 1782 C 175.646 0.894919 -1.86212 0
M  V30 1783 C 176.054 1.76066 -0.692627 0
M  V30 1784 O 175.397 1.80387 0.347303 0
M  V30 1785 C 175.459 1.8174 -3.10179 0
M  V30 1786 C 175.123 1.13064 -4.42793 0
M  V30 1787 C 176.12 0.493169 -5.17556 0
M  V30 1788 C 173.805 1.12556 -4.89527 0
M  V30 1789 C 175.799 -0.140209 -6.37246 0
M  V30 1790 C 173.486 0.488366 -6.09145 0
M  V30 1791 C 174.484 -0.143411 -6.82849 0
M  V30 1792 O 174.172 -0.77055 -8.00199 0
M  V30 1793 H 173.904 0.265114 -0.621844 0
M  V30 1794 H 176.458 0.168242 -2.0471 0
M  V30 1795 H 174.688 2.58455 -2.87642 0
M  V30 1796 H 176.377 2.4175 -3.26055 0
M  V30 1797 H 177.143 0.489023 -4.82528 0
M  V30 1798 H 173.022 1.60672 -4.32094 0
M  V30 1799 H 176.566 -0.633932 -6.94714 0
M  V30 1800 H 172.463 0.490116 -6.43637 0
M  V30 1801 H 173.231 -0.670408 -8.1575 0
M  V30 1802 N 175.894 1.51508 0.433938 0
M  V30 1803 C 177.14 1.65549 1.18173 0
M  V30 1804 C 177.495 0.368751 1.88833 0
M  V30 1805 O 176.788 -0.635616 1.8075 0
M  V30 1806 C 176.982 2.79928 2.22205 0
M  V30 1807 C 176.811 4.19601 1.61756 0
M  V30 1808 C 175.581 4.85489 1.40101 0
M  V30 1809 C 177.779 5.02574 1.09194 0
M  V30 1810 N 175.761 6.09266 0.752859 0
M  V30 1811 C 177.132 6.17381 0.569255 0
M  V30 1812 C 179.187 4.88079 0.984025 0
M  V30 1813 C 177.89 7.19282 -0.0507472 0
M  V30 1814 C 179.916 5.90191 0.377912 0
M  V30 1815 C 179.278 7.04272 -0.134216 0
M  V30 1816 H 175.377 0.659653 0.419979 0
M  V30 1817 H 177.961 1.88746 0.477818 0
M  V30 1818 H 176.132 2.5839 2.89982 0
M  V30 1819 H 177.864 2.83132 2.89168 0
M  V30 1820 H 174.619 4.43417 1.66369 0
M  V30 1821 H 175.043 6.75528 0.446123 0
M  V30 1822 H 179.685 4.00131 1.36583 0
M  V30 1823 H 177.403 8.06876 -0.444676 0
M  V30 1824 H 180.989 5.81045 0.296269 0
M  V30 1825 H 179.869 7.81933 -0.59585 0
M  V30 1826 N 177.372 -0.689602 1.41712 0
M  V30 1827 C 178.597 -1.48329 1.44959 0
M  V30 1828 C 179.022 -1.8801 0.0581283 0
M  V30 1829 O 178.38 -1.55026 -0.940035 0
M  V30 1830 C 178.428 -2.71835 2.36935 0
M  V30 1831 O 177.532 -3.69549 1.8305 0
M  V30 1832 H 176.873 -0.446199 0.491734 0
M  V30 1833 H 179.403 -0.847127 1.86239 0
M  V30 1834 H 179.413 -3.20076 2.53013 0
M  V30 1835 H 178.088 -2.42291 3.38035 0
M  V30 1836 H 176.665 -3.2851 1.76452 0
M  V30 1837 N 178.85 -1.27639 -0.924453 0
M  V30 1838 C 179.76 -1.12466 -2.05885 0
M  V30 1839 C 180.776 -0.053869 -1.73917 0
M  V30 1840 O 181.952 -0.261012 -1.99702 0
M  V30 1841 C 179.017 -0.776768 -3.37886 0
M  V30 1842 C 178.078 -1.92878 -3.83532 0
M  V30 1843 C 177.311 -1.59739 -5.09234 0
M  V30 1844 O 177.534 -0.506782 -5.68144 0
M  V30 1845 O 176.468 -2.43761 -5.50331 0
M  V30 1846 H 180.294 -2.07671 -2.21599 0
M  V30 1847 H 177.879 -1.06857 -1.04413 0
M  V30 1848 H 179.761 -0.596229 -4.17161 0
M  V30 1849 H 178.436 0.145732 -3.23372 0
M  V30 1850 H 177.343 -2.1644 -3.0513 0
M  V30 1851 H 178.676 -2.8316 -4.02593 0
M  V30 1852 N 180.328 1.1314 -1.09713 0
M  V30 1853 C 181.574 1.84757 -0.836224 0
M  V30 1854 C 181.907 1.8347 0.636598 0
M  V30 1855 O 181.182 1.27491 1.46889 0
M  V30 1856 C 181.465 3.32782 -1.37578 0
M  V30 1857 C 181.318 3.42567 -2.91493 0
M  V30 1858 C 182.637 4.28307 -1.01198 0
M  V30 1859 H 179.756 0.67082 -0.305236 0
M  V30 1860 H 182.398 1.3278 -1.35903 0
M  V30 1861 H 180.548 3.77177 -0.931097 0
M  V30 1862 H 182.22 3.06862 -3.44432 0
M  V30 1863 H 180.463 2.83349 -3.28475 0
M  V30 1864 H 181.134 4.46674 -3.24324 0
M  V30 1865 H 183.61 3.91999 -1.39556 0
M  V30 1866 H 182.486 5.30307 -1.41653 0
M  V30 1867 H 182.747 4.42029 0.0794833 0
M  V30 1868 N 181.806 0.884767 1.30421 0
M  V30 1869 C 182.754 0.340869 2.30089 0
M  V30 1870 C 183.748 -0.55201 1.60154 0
M  V30 1871 O 184.954 -0.436467 1.74628 0
M  V30 1872 H 181.329 0.0915739 0.746404 0
M  V30 1873 H 183.3 1.19513 2.73421 0
M  V30 1874 C 182.049 -0.429779 3.45034 0
M  V30 1875 H 181.372 0.248024 3.9903 0
M  V30 1876 H 182.812 -0.775445 4.16849 0
M  V30 1877 C 181.271 -1.62677 2.95022 0
M  V30 1878 O 181.801 -2.72614 2.95033 0
M  V30 1879 N 180.007 -1.46387 2.51036 0
M  V30 1880 H 179.554 -0.569506 2.51226 0
M  V30 1881 H 179.512 -2.26612 2.17932 0
M  V30 1882 N 183.284 -1.43765 0.645699 0
M  V30 1883 C 184.214 -2.33471 -0.0370477 0
M  V30 1884 C 185.195 -1.49042 -0.819779 0
M  V30 1885 O 186.38 -1.77726 -0.782758 0
M  V30 1886 C 183.51 -3.32311 -1.0093 0
M  V30 1887 C 182.464 -4.2667 -0.337201 0
M  V30 1888 C 181.79 -5.1549 -1.42037 0
M  V30 1889 C 183.09 -5.16657 0.765706 0
M  V30 1890 H 184.784 -2.90809 0.712069 0
M  V30 1891 H 182.33 -1.39834 0.343876 0
M  V30 1892 H 184.283 -3.9396 -1.49578 0
M  V30 1893 H 183.007 -2.73213 -1.78948 0
M  V30 1894 H 181.666 -3.66374 0.128771 0
M  V30 1895 H 181.314 -4.52735 -2.1918 0
M  V30 1896 H 181.014 -5.79438 -0.975966 0
M  V30 1897 H 182.538 -5.80012 -1.90838 0
M  V30 1898 H 183.952 -5.72158 0.361702 0
M  V30 1899 H 182.349 -5.89286 1.13413 0
M  V30 1900 H 183.419 -4.56796 1.62683 0
M  V30 1901 N 184.763 -0.387143 -1.52771 0
M  V30 1902 C 185.988 0.198407 -2.06449 0
M  V30 1903 C 186.413 1.39918 -1.25716 0
M  V30 1904 O 185.771 1.79099 -0.281657 0
M  V30 1905 C 185.819 0.548893 -3.56398 0
M  V30 1906 O 184.923 1.64315 -3.78252 0
M  V30 1907 H 184.264 0.0237731 -0.663574 0
M  V30 1908 H 186.794 -0.553989 -1.96957 0
M  V30 1909 H 186.804 0.813812 -3.99801 0
M  V30 1910 H 185.479 -0.329005 -4.14597 0
M  V30 1911 H 184.056 1.37211 -3.46738 0
M  V30 1912 N 186.241 1.57166 -0.116904 0
M  V30 1913 C 187.487 1.95412 0.542405 0
M  V30 1914 C 187.82 1.00019 1.66463 0
M  V30 1915 O 187.095 0.0370346 1.94465 0
M  V30 1916 C 187.378 3.43615 1.07708 0
M  V30 1917 C 187.231 4.49781 -0.0415868 0
M  V30 1918 C 188.55 3.93616 1.96861 0
M  V30 1919 H 185.669 0.710543 0.195696 0
M  V30 1920 H 188.311 1.89027 -0.192038 0
M  V30 1921 H 186.461 3.49187 1.70296 0
M  V30 1922 H 188.133 4.56308 -0.676793 0
M  V30 1923 H 186.376 4.28033 -0.705019 0
M  V30 1924 H 187.047 5.50733 0.373717 0
M  V30 1925 H 189.523 3.90335 1.44146 0
M  V30 1926 H 188.399 4.97838 2.3119 0
M  V30 1927 H 188.66 3.34188 2.89432 0
M  V30 1928 N 187.719 -0.156864 1.56817 0
M  V30 1929 C 189.135 -0.50916 1.5126 0
M  V30 1930 C 189.335 -1.83897 0.823658 0
M  V30 1931 O 188.391 -2.49469 0.390055 0
M  V30 1932 C 189.704 -0.52857 2.96018 0
M  V30 1933 C 191.252 -0.614771 3.06903 0
M  V30 1934 C 191.727 -0.664938 4.53147 0
M  V30 1935 N 193.218 -0.727433 4.57452 0
M  V30 1936 C 193.953 -0.787067 5.67973 0
M  V30 1937 N 193.449 -0.806649 6.88088 0
M  V30 1938 N 195.242 -0.827195 5.5598 0
M  V30 1939 H 187.393 0.714935 2.00006 0
M  V30 1940 H 189.656 0.259526 0.911784 0
M  V30 1941 H 189.362 0.380154 3.49639 0
M  V30 1942 H 189.236 -1.36998 3.51442 0
M  V30 1943 H 191.623 -1.51392 2.53307 0
M  V30 1944 H 191.704 0.253597 2.5454 0
M  V30 1945 H 191.348 0.230011 5.07379 0
M  V30 1946 H 191.278 -1.54966 5.03282 0
M  V30 1947 H 193.769 -0.719998 3.70978 0
M  V30 1948 H 194.082 -0.853727 7.6807 0
M  V30 1949 H 192.427 -0.774687 6.90669 0
M  V30 1950 H 195.618 -0.808998 4.61056 0
M  V30 1951 H 195.791 -0.870206 6.4213 0
M  V30 1952 N 189.197 -1.51736 -0.425897 0
M  V30 1953 C 190.107 -1.76738 -1.54275 0
M  V30 1954 C 191.123 -0.65211 -1.61318 0
M  V30 1955 O 192.299 -0.935654 -1.78346 0
M  V30 1956 C 189.364 -1.89755 -2.90162 0
M  V30 1957 C 188.425 -3.13633 -2.93143 0
M  V30 1958 C 187.658 -3.2602 -4.22548 0
M  V30 1959 O 187.881 -2.44067 -5.15546 0
M  V30 1960 O 186.815 -4.19071 -4.32046 0
M  V30 1961 H 190.641 -2.71502 -1.36089 0
M  V30 1962 H 188.226 -1.36376 -0.610069 0
M  V30 1963 H 190.108 -2.00236 -3.70788 0
M  V30 1964 H 188.783 -0.981785 -3.08452 0
M  V30 1965 H 187.69 -3.08622 -2.11431 0
M  V30 1966 H 189.023 -4.04936 -2.798 0
M  V30 1967 N 190.675 0.682077 -1.42076 0
M  V30 1968 C 192.086 1.26246 -1.37546 0
M  V30 1969 C 192.437 1.96092 -0.0651481 0
M  V30 1970 O 191.562 1.99587 0.836297 0
M  V30 1971 C 192.157 2.29594 -2.49143 0
M  V30 1972 C 190.716 2.83175 -2.47969 0
M  V30 1973 C 189.863 1.57395 -2.28303 0
M  V30 1974 H 192.814 0.475937 -1.51395 0
M  V30 1975 H 192.835 3.11175 -2.18976 0
M  V30 1976 H 192.347 1.78729 -3.44496 0
M  V30 1977 H 190.448 3.3818 -1.56413 0
M  V30 1978 H 190.561 3.32687 -3.44755 0
M  V30 1979 H 188.925 1.83699 -1.76428 0
M  V30 1980 H 189.708 1.08507 -3.25701 0
M  V30 1981 N 192.153 1.28127 0.917671 0
M  V30 1982 C 193.085 1.07517 2.02417 0
M  V30 1983 C 194.098 0.0281099 1.62776 0
M  V30 1984 O 195.287 0.270748 1.76435 0
M  V30 1985 C 192.387 0.610957 3.33347 0
M  V30 1986 C 191.56 1.73255 4.01624 0
M  V30 1987 C 190.619 1.26238 5.10833 0
M  V30 1988 O 189.645 1.96389 5.34247 0
M  V30 1989 N 190.847 0.123448 5.80369 0
M  V30 1990 H 193.612 2.02806 2.20658 0
M  V30 1991 H 191.173 1.19827 1.08871 0
M  V30 1992 H 193.165 0.280101 4.0373 0
M  V30 1993 H 191.735 -0.24898 3.11607 0
M  V30 1994 H 190.955 2.23319 3.24842 0
M  V30 1995 H 192.243 2.48503 4.43986 0
M  V30 1996 H 191.641 -0.461847 5.63812 0
M  V30 1997 H 190.198 -0.148158 6.51632 0
M  V30 1998 O 193.67 -1.05238 1.22504 0
M  V30 1999 H 194.361 -1.6643 0.990999 0
M  V30 END ATOM
M  V30 BEGIN BOND
M  V30 END BOND
M  V30 END CTAB
M  END
$$$$
