drugbank_target|P0AG82 Phosphate-binding protein PstS (DB02799; DB02831)
 OpenBabel12092120033D

  0  0  0     0  0            999 V3000
M  V30 BEGIN CTAB
M  V30 COUNTS 5230 5287 0 0 0
M  V30 BEGIN ATOM
M  V30 1 H -0.908 1.98254 -0.117106 0
M  V30 2 N 0 1.576 0 0
M  V30 3 C 0.933 2.03868 1.02534 0
M  V30 4 C 1.911 0.928543 1.3348 0
M  V30 5 O 3.095 1.19667 1.45644 0
M  V30 6 C 0.222 2.43627 2.35294 0
M  V30 7 C -0.732 3.65373 2.2001 0
M  V30 8 S 0.101 5.13292 1.52614 0
M  V30 9 C 1.257 5.56322 2.86805 0
M  V30 10 H 1.49 2.90518 0.631377 0
M  V30 11 H -0.977 1.52953 0.210867 0
M  V30 12 H 0.981 2.67203 3.11629 0
M  V30 13 H -0.358 1.57376 2.7183 0
M  V30 14 H -1.165 3.90944 3.18086 0
M  V30 15 H -1.563 3.418 1.51819 0
M  V30 16 H 0.729 5.58782 3.83104 0
M  V30 17 H 1.672 6.56266 2.65933 0
M  V30 18 H 2.08 4.83886 2.90714 0
M  V30 19 N 1.4781 -0.272755 1.55222 0
M  V30 20 C 2.4251 -1.33716 1.88119 0
M  V30 21 C 3.3951 -1.49066 0.73271 0
M  V30 22 O 4.5801 -1.63469 0.984002 0
M  V30 23 C 1.7201 -2.69238 2.15882 0
M  V30 24 C 0.8331 -2.62108 3.43399 0
M  V30 25 C -0.0319 -3.89811 3.60861 0
M  V30 26 C -0.9929 -3.77193 4.8207 0
M  V30 27 N -1.8559 -4.9673 4.96189 0
M  V30 28 H 2.9841 -1.04962 2.78903 0
M  V30 29 H 0.5211 -0.507088 1.38083 0
M  V30 30 H 2.4791 -3.48089 2.29978 0
M  V30 31 H 1.1091 -2.96194 1.28331 0
M  V30 32 H 0.1611 -1.74967 3.37773 0
M  V30 33 H 1.4731 -2.48685 4.32386 0
M  V30 34 H 0.6271 -4.77103 3.74777 0
M  V30 35 H -0.6339 -4.06102 2.7006 0
M  V30 36 H -1.6289 -2.88284 4.68159 0
M  V30 37 H -0.4039 -3.62421 5.74307 0
M  V30 38 H -2.4579 -5.13431 4.08319 0
M  V30 39 H -2.5409 -4.85839 5.79221 0
M  V30 40 H -1.2729 -5.85594 5.1449 0
M  V30 41 N 2.9562 -1.48159 -0.537278 0
M  V30 42 C 4.2022 -1.56035 -1.29541 0
M  V30 43 C 4.5352 -0.230377 -1.92829 0
M  V30 44 O 3.8102 0.762952 -1.78911 0
M  V30 45 C 4.0932 -2.69323 -2.39034 0
M  V30 46 C 3.9462 -4.12002 -1.80485 0
M  V30 47 C 5.2652 -2.78408 -3.40847 0
M  V30 48 H 2.3842 -0.567992 -0.469632 0
M  V30 49 H 5.0262 -1.80302 -0.599277 0
M  V30 50 H 3.1762 -2.48763 -2.98412 0
M  V30 51 H 4.8482 -4.43981 -1.25215 0
M  V30 52 H 3.0912 -4.19344 -1.11055 0
M  V30 53 H 3.7622 -4.87077 -2.59731 0
M  V30 54 H 6.2382 -2.97012 -2.91416 0
M  V30 55 H 5.1142 -3.59416 -4.14863 0
M  V30 56 H 5.3752 -1.86269 -4.00944 0
M  V30 57 N 4.4343 0.785586 -1.36625 0
M  V30 58 C 5.3673 1.90509 -1.25625 0
M  V30 59 C 6.3453 1.62 -0.139607 0
M  V30 60 O 7.5293 1.8591 -0.31141 0
M  V30 61 C 4.6563 3.25419 -0.939158 0
M  V30 62 C 3.7023 3.72856 -2.07077 0
M  V30 63 S 4.5353 3.88162 -3.68904 0
M  V30 64 C 5.6913 5.25942 -3.39317 0
M  V30 65 H 5.9243 1.99549 -2.20381 0
M  V30 66 H 3.4573 0.945226 -1.22085 0
M  V30 67 H 5.4153 4.03346 -0.763029 0
M  V30 68 H 4.0763 3.14099 -0.00931402 0
M  V30 69 H 3.2693 4.70624 -1.80357 0
M  V30 70 H 2.8713 3.01989 -2.20632 0
M  V30 71 H 5.1633 6.10651 -2.93447 0
M  V30 72 H 6.1063 5.57668 -4.36363 0
M  V30 73 H 6.5143 4.93224 -2.74573 0
M  V30 74 N 5.9124 1.20967 1.01018 0
M  V30 75 C 7.3284 0.965905 1.27053 0
M  V30 76 C 7.5284 -0.350785 1.98423 0
M  V30 77 O 6.5844 -1.07773 2.28344 0
M  V30 78 C 7.8974 2.15294 2.09926 0
M  V30 79 C 9.4454 2.19463 2.23171 0
M  V30 80 C 9.9204 3.3767 3.09424 0
M  V30 81 N 11.4114 3.37724 3.17012 0
M  V30 82 C 12.1464 4.25837 3.83993 0
M  V30 83 N 11.6424 5.24138 4.53047 0
M  V30 84 N 13.4354 4.1366 3.80581 0
M  V30 85 H 5.5864 2.0565 0.531194 0
M  V30 86 H 7.8494 0.90024 0.297106 0
M  V30 87 H 7.5554 3.10684 1.64828 0
M  V30 88 H 7.4294 2.13923 3.10672 0
M  V30 89 H 9.8164 1.24632 2.6749 0
M  V30 90 H 9.8974 2.2488 1.21912 0
M  V30 91 H 9.5414 4.32791 2.65808 0
M  V30 92 H 9.4714 3.29491 4.10784 0
M  V30 93 H 11.9624 2.6658 2.6785 0
M  V30 94 H 12.2754 5.87684 5.01844 0
M  V30 95 H 10.6204 5.28068 4.5185 0
M  V30 96 H 13.8114 3.36127 3.25785 0
M  V30 97 H 13.9844 4.82538 4.32505 0
M  V30 98 N 7.3905 -1.2043 1.01659 0
M  V30 99 C 8.6185 -1.93777 0.725132 0
M  V30 100 C 9.0335 -1.74772 -0.714166 0
M  V30 101 O 8.3905 -1.06169 -1.4844 0
M  V30 102 C 8.4415 -3.45876 1.05129 0
M  V30 103 O 8.1625 -3.6426 2.43406 0
M  V30 104 C 9.6635 -4.36368 0.780891 0
M  V30 105 H 6.8835 -0.615901 0.266284 0
M  V30 106 H 9.4275 -1.52922 1.35776 0
M  V30 107 H 7.5825 -3.8461 0.464065 0
M  V30 108 H 7.9965 -4.58246 2.55169 0
M  V30 109 H 9.4705 -5.41743 1.05918 0
M  V30 110 H 9.9475 -4.38275 -0.284937 0
M  V30 111 H 10.5535 -4.03296 1.35027 0
M  V30 112 N 8.8686 -0.792821 -1.36206 0
M  V30 113 C 10.0966 -0.378825 -2.03402 0
M  V30 114 C 10.5116 1.00586 -1.59774 0
M  V30 115 O 9.8686 1.64574 -0.788764 0
M  V30 116 C 9.9196 -0.43683 -3.58851 0
M  V30 117 O 9.6406 -1.76691 -4.00889 0
M  V30 118 C 11.1416 -0.0138943 -4.43298 0
M  V30 119 H 8.3616 -0.155673 -0.652692 0
M  V30 120 H 10.9056 -1.07261 -1.74113 0
M  V30 121 H 9.0606 0.208575 -3.86838 0
M  V30 122 H 9.4746 -1.72011 -4.95492 0
M  V30 123 H 10.9486 -0.105615 -5.51899 0
M  V30 124 H 11.4256 1.03915 -4.2673 0
M  V30 125 H 12.0316 -0.63192 -4.20579 0
M  V30 126 N 10.3467 1.47872 -0.545128 0
M  V30 127 C 11.5927 2.02793 -0.0166104 0
M  V30 128 C 11.9257 1.41987 1.32489 0
M  V30 129 O 11.2007 0.571045 1.85928 0
M  V30 130 C 11.4837 3.59989 0.0893294 0
M  V30 131 C 11.3367 4.3125 -1.27841 0
M  V30 132 C 12.6557 4.32606 0.808724 0
M  V30 133 H 9.7747 0.736962 -0.00751035 0
M  V30 134 H 12.4167 1.76433 -0.705085 0
M  V30 135 H 10.5667 3.82579 0.675681 0
M  V30 136 H 12.2387 4.20035 -1.90704 0
M  V30 137 H 10.4817 3.92076 -1.85632 0
M  V30 138 H 11.1527 5.39736 -1.15713 0
M  V30 139 H 13.6287 4.14936 0.310992 0
M  V30 140 H 12.5047 5.42251 0.851782 0
M  V30 141 H 12.7657 4.00963 1.86229 0
M  V30 142 N 11.8248 0.280983 1.55075 0
M  V30 143 C 12.7878 -0.590896 2.21452 0
M  V30 144 C 13.7878 -1.07682 1.19421 0
M  V30 145 O 14.9778 -0.97605 1.44288 0
M  V30 146 C 12.1098 -1.81587 2.88511 0
M  V30 147 H 13.3028 -0.0112554 2.99898 0
M  V30 148 H 10.8558 0.0316438 1.56268 0
M  V30 149 H 11.5908 -2.43587 2.14093 0
M  V30 150 H 11.3758 -1.4753 3.63287 0
M  V30 151 H 12.8658 -2.43575 3.39206 0
M  V30 152 N 13.3029 -1.57598 0.00835791 0
M  V30 153 C 14.5309 -1.95214 -0.68549 0
M  V30 154 C 14.9459 -0.883706 -1.66841 0
M  V30 155 O 14.3029 0.136565 -1.81988 0
M  V30 156 C 14.3539 -3.32865 -1.41007 0
M  V30 157 O 14.0749 -4.35609 -0.466552 0
M  V30 158 C 15.5759 -3.84991 -2.19765 0
M  V30 159 H 12.7959 -0.643422 -0.190392 0
M  V30 160 H 15.3399 -2.04406 0.0619607 0
M  V30 161 H 13.4949 -3.24956 -2.10908 0
M  V30 162 H 13.9089 -5.15288 -0.978699 0
M  V30 163 H 15.3829 -4.8371 -2.65948 0
M  V30 164 H 15.8599 -3.18137 -3.02796 0
M  V30 165 H 16.4659 -3.96103 -1.54864 0
M  V30 166 N 14.781 0.264519 -1.55364 0
M  V30 167 C 16.027 0.99646 -1.76631 0
M  V30 168 C 16.36 1.85632 -0.570478 0
M  V30 169 O 15.635 1.89647 0.43175 0
M  V30 170 C 15.918 1.87187 -3.07625 0
M  V30 171 C 15.771 1.04138 -4.37579 0
M  V30 172 C 17.09 2.85749 -3.34717 0
M  V30 173 H 14.209 0.360841 -0.642622 0
M  V30 174 H 16.851 0.268218 -1.88097 0
M  V30 175 H 15.001 2.49279 -2.9798 0
M  V30 176 H 16.673 0.440517 -4.59192 0
M  V30 177 H 14.916 0.345115 -4.32425 0
M  V30 178 H 15.587 1.68729 -5.2558 0
M  V30 179 H 18.063 2.33793 -3.4421 0
M  V30 180 H 16.939 3.44136 -4.27623 0
M  V30 181 H 17.2 3.61311 -2.54768 0
M  V30 182 N 16.2591 1.48442 0.529413 0
M  V30 183 C 17.5051 1.5672 1.28711 0
M  V30 184 C 17.8381 0.2406 1.92704 0
M  V30 185 O 17.1131 -0.753454 1.79313 0
M  V30 186 C 17.3961 2.70587 2.37603 0
M  V30 187 C 17.2491 4.12953 1.78297 0
M  V30 188 C 18.5681 2.80212 3.39366 0
M  V30 189 H 15.6871 0.570474 0.466613 0
M  V30 190 H 18.3291 1.80617 0.589706 0
M  V30 191 H 16.4791 2.50342 2.97088 0
M  V30 192 H 18.1511 4.44639 1.22858 0
M  V30 193 H 16.3941 4.19927 1.0883 0
M  V30 194 H 17.0651 4.88448 2.57144 0
M  V30 195 H 19.5411 2.98553 2.89836 0
M  V30 196 H 18.4171 3.61611 4.12951 0
M  V30 197 H 18.6781 1.88393 3.99951 0
M  V30 198 N 17.7372 -0.778329 1.37039 0
M  V30 199 C 18.7002 -1.87301 1.32102 0
M  V30 200 C 19.7002 -1.59198 0.226405 0
M  V30 201 O 20.8902 -1.67403 0.481861 0
M  V30 202 C 18.0222 -3.24309 1.05055 0
M  V30 203 H 19.2152 -1.93093 2.29467 0
M  V30 204 H 16.7682 -0.977358 1.21973 0
M  V30 205 H 17.5032 -3.24196 0.0819373 0
M  V30 206 H 17.2882 -3.46098 1.84279 0
M  V30 207 H 18.7782 -4.04382 1.04234 0
M  V30 208 N 19.2153 -1.21501 -1.00376 0
M  V30 209 C 20.1783 -0.976927 -2.07337 0
M  V30 210 C 21.1783 0.0525322 -1.60714 0
M  V30 211 O 22.3683 -0.184869 -1.73216 0
M  V30 212 C 19.5003 -0.473423 -3.37597 0
M  V30 213 H 20.6933 -1.92587 -2.29892 0
M  V30 214 H 18.2463 -1.03217 -1.17371 0
M  V30 215 H 18.9813 0.480379 -3.20722 0
M  V30 216 H 18.7663 -1.216 -3.72768 0
M  V30 217 H 20.2563 -0.32675 -4.1632 0
M  V30 218 N 20.6934 1.19889 -1.02296 0
M  V30 219 C 21.9214 1.9339 -0.735399 0
M  V30 220 C 22.3364 1.75148 0.704887 0
M  V30 221 O 21.6934 1.06954 1.47875 0
M  V30 222 C 21.7444 3.45313 -1.06962 0
M  V30 223 O 21.4654 3.62964 -2.45334 0
M  V30 224 C 22.9664 4.35948 -0.804021 0
M  V30 225 H 20.1864 0.61448 -0.269546 0
M  V30 226 H 22.7304 1.522 -1.36585 0
M  V30 227 H 20.8854 3.84359 -0.484455 0
M  V30 228 H 21.2994 4.56886 -2.57595 0
M  V30 229 H 22.7734 5.41174 -1.0879 0
M  V30 230 H 23.2504 4.3842 0.261691 0
M  V30 231 H 23.8564 4.02574 -1.37164 0
M  V30 232 N 22.1715 0.800033 1.35784 0
M  V30 233 C 23.1015 0.220184 2.3246 0
M  V30 234 C 24.0825 -0.65073 1.57161 0
M  V30 235 O 25.2675 -0.582359 1.85263 0
M  V30 236 C 22.3975 -0.637353 3.41402 0
M  V30 237 C 21.3515 0.134531 4.27789 0
M  V30 238 C 20.6775 -0.844285 5.27992 0
M  V30 239 C 21.9775 1.32979 5.05088 0
M  V30 240 H 23.6715 1.02787 2.81203 0
M  V30 241 H 21.2175 0.495717 1.35199 0
M  V30 242 H 23.1705 -1.05302 4.08031 0
M  V30 243 H 21.8945 -1.47785 2.91251 0
M  V30 244 H 20.5535 0.531296 3.6273 0
M  V30 245 H 20.2015 -1.68011 4.74111 0
M  V30 246 H 19.9015 -0.332184 5.8666 0
M  V30 247 H 21.4255 -1.2583 5.97494 0
M  V30 248 H 22.8395 0.98934 5.64699 0
M  V30 249 H 21.2365 1.77593 5.7322 0
M  V30 250 H 22.3065 2.11978 4.36111 0
M  V30 251 N 23.6496 -1.47581 0.552962 0
M  V30 252 C 24.8746 -2.07378 0.0300593 0
M  V30 253 C 25.2996 -1.40355 -1.25229 0
M  V30 254 O 24.6576 -0.477099 -1.7491 0
M  V30 255 C 24.7056 -3.60274 -0.153231 0
M  V30 256 O 23.8096 -3.94041 -1.21678 0
M  V30 257 H 23.1506 -0.662158 0.0494182 0
M  V30 258 H 25.6806 -1.89662 0.767434 0
M  V30 259 H 25.6906 -4.0633 -0.368761 0
M  V30 260 H 24.3656 -4.08455 0.783397 0
M  V30 261 H 22.9426 -3.59735 -0.982079 0
M  V30 262 N 25.1277 -0.289203 -1.54924 0
M  V30 263 C 26.0607 0.633823 -2.19221 0
M  V30 264 C 27.0387 1.14174 -1.15772 0
M  V30 265 O 28.2227 1.21211 -1.44361 0
M  V30 266 C 25.3497 1.86592 -2.82668 0
M  V30 267 C 24.3957 1.49227 -3.99542 0
M  V30 268 S 25.2287 0.558312 -5.32582 0
M  V30 269 C 26.3847 1.79847 -5.99505 0
M  V30 270 H 26.6177 0.0875416 -2.97171 0
M  V30 271 H 24.1507 -0.0733899 -1.54225 0
M  V30 272 H 26.1087 2.57305 -3.19851 0
M  V30 273 H 24.7697 2.38335 -2.04585 0
M  V30 274 H 23.9627 2.40945 -4.42676 0
M  V30 275 H 23.5647 0.865193 -3.63855 0
M  V30 276 H 25.8567 2.7406 -6.19595 0
M  V30 277 H 26.7997 1.4099 -6.93922 0
M  V30 278 H 27.2077 1.96982 -5.29016 0
M  V30 279 N 26.6058 1.57591 -0.0167156 0
M  V30 280 C 27.8308 1.9598 0.67872 0
M  V30 281 C 28.2558 0.892546 1.65575 0
M  V30 282 O 27.6138 -0.147772 1.80697 0
M  V30 283 C 27.6618 3.33468 1.37227 0
M  V30 284 O 26.7658 3.28954 2.48722 0
M  V30 285 H 26.1068 0.639339 0.17928 0
M  V30 286 H 28.6368 2.04463 -0.0748802 0
M  V30 287 H 28.6468 3.69417 1.7319 0
M  V30 288 H 27.3218 4.10694 0.656007 0
M  V30 289 H 25.8988 3.04705 2.14963 0
M  V30 290 N 28.0839 -0.256276 1.55502 0
M  V30 291 C 29.0469 -1.30047 1.88734 0
M  V30 292 C 30.0469 -1.4154 0.763086 0
M  V30 293 O 31.2369 -1.40403 1.03115 0
M  V30 294 C 28.3689 -2.67953 2.10747 0
M  V30 295 H 29.5619 -1.01802 2.82093 0
M  V30 296 H 27.1149 -0.495134 1.4825 0
M  V30 297 H 27.8499 -3.01351 1.19825 0
M  V30 298 H 27.6349 -2.60993 2.92617 0
M  V30 299 H 29.1249 -3.43368 2.37673 0
M  V30 300 N 29.562 -1.4872 -0.521534 0
M  V30 301 C 30.809 -1.57168 -1.27689 0
M  V30 302 C 31.137 -0.249275 -1.92896 0
M  V30 303 O 30.392 0.761162 -1.80291 0
M  V30 304 C 30.691 -2.66497 -2.38148 0
M  V30 305 C 30.357 -4.08664 -1.90538 0
M  V30 306 C 29.019 -4.47357 -1.77271 0
M  V30 307 C 31.371 -4.97724 -1.54663 0
M  V30 308 C 28.699 -5.72905 -1.26478 0
M  V30 309 C 31.051 -6.2377 -1.05329 0
M  V30 310 C 29.715 -6.61311 -0.906861 0
M  V30 311 H 28.985 -0.575117 -0.467249 0
M  V30 312 H 31.632 -1.82472 -0.581051 0
M  V30 313 H 29.937 -2.35085 -3.13437 0
M  V30 314 H 31.634 -2.70246 -2.96257 0
M  V30 315 H 28.224 -3.78111 -2.01816 0
M  V30 316 H 32.408 -4.68501 -1.63768 0
M  V30 317 H 27.664 -6.00709 -1.13835 0
M  V30 318 H 31.838 -6.9217 -0.76644 0
M  V30 319 H 29.465 -7.5848 -0.511083 0
M  V30 320 N 31.0401 0.771051 -1.3745 0
M  V30 321 C 32.2651 1.56529 -1.36065 0
M  V30 322 C 32.6901 1.88029 0.0515859 0
M  V30 323 O 32.0481 1.49282 1.02882 0
M  V30 324 C 32.0961 2.85187 -2.20683 0
M  V30 325 O 31.2001 3.79593 -1.61193 0
M  V30 326 H 30.5411 0.47411 -0.464883 0
M  V30 327 H 33.0711 0.954269 -1.80983 0
M  V30 328 H 33.0811 3.34283 -2.33921 0
M  V30 329 H 31.7561 2.61588 -3.23334 0
M  V30 330 H 30.3331 3.38239 -1.56999 0
M  V30 331 N 32.5182 1.22032 0.997298 0
M  V30 332 C 33.7642 1.04376 1.73878 0
M  V30 333 C 34.0972 -0.420716 1.89588 0
M  V30 334 O 33.3722 -1.31202 1.43583 0
M  V30 335 C 33.6552 1.75047 3.14691 0
M  V30 336 C 33.5082 3.29062 3.06656 0
M  V30 337 C 34.8272 1.49928 4.13775 0
M  V30 338 H 31.9462 0.380578 0.631133 0
M  V30 339 H 34.5882 1.50312 1.16217 0
M  V30 340 H 32.7382 1.35996 3.63919 0
M  V30 341 H 34.4102 3.7753 2.65083 0
M  V30 342 H 32.6532 3.58967 2.43568 0
M  V30 343 H 33.3242 3.73683 4.06282 0
M  V30 344 H 35.8002 1.83842 3.73285 0
M  V30 345 H 34.6762 2.01878 5.10428 0
M  V30 346 H 34.9372 0.430929 4.39995 0
M  V30 347 N 33.9963 -1.19345 1.0293 0
M  V30 348 C 35.2433 -1.89038 0.726008 0
M  V30 349 C 35.5713 -1.79649 -0.745427 0
M  V30 350 O 34.8263 -1.18354 -1.55855 0
M  V30 351 C 35.1253 -3.39292 1.12319 0
M  V30 352 C 34.7913 -3.68885 2.59297 0
M  V30 353 C 33.4533 -3.76671 2.99453 0
M  V30 354 C 35.8053 -3.82178 3.54386 0
M  V30 355 C 33.1333 -3.9522 4.33611 0
M  V30 356 C 35.4853 -4.0224 4.88248 0
M  V30 357 C 34.1493 -4.08259 5.28092 0
M  V30 358 H 33.4193 -0.691739 0.265665 0
M  V30 359 H 36.0663 -1.41328 1.29223 0
M  V30 360 H 34.3713 -3.88903 0.475584 0
M  V30 361 H 36.0683 -3.91536 0.866037 0
M  V30 362 H 32.6583 -3.63433 2.27189 0
M  V30 363 H 36.8423 -3.75505 3.24514 0
M  V30 364 H 32.0983 -3.98119 4.64016 0
M  V30 365 H 36.2723 -4.11468 5.61843 0
M  V30 366 H 33.8993 -4.22384 6.32057 0
M  V30 367 N 35.4744 -0.807222 -1.35358 0
M  V30 368 C 36.4374 -0.223665 -2.28106 0
M  V30 369 C 37.4374 0.589354 -1.4961 0
M  V30 370 O 38.6274 0.407745 -1.69361 0
M  V30 371 C 35.7594 0.688149 -3.33882 0
M  V30 372 H 36.9524 -1.04169 -2.81227 0
M  V30 373 H 34.5054 -0.577921 -1.45223 0
M  V30 374 H 35.2404 1.52984 -2.85948 0
M  V30 375 H 35.0254 0.10687 -3.91954 0
M  V30 376 H 36.5154 1.09075 -4.03104 0
M  V30 377 N 36.9525 1.47285 -0.560781 0
M  V30 378 C 37.8625 2.33846 0.187954 0
M  V30 379 C 38.8785 1.48412 0.908293 0
M  V30 380 O 40.0545 1.81332 0.876388 0
M  V30 381 C 37.1195 3.25178 1.2025 0
M  V30 382 C 36.1805 4.26504 0.489208 0
M  V30 383 C 35.4135 5.13472 1.45542 0
M  V30 384 O 35.6365 5.02959 2.6905 0
M  V30 385 O 34.5705 5.93902 0.977963 0
M  V30 386 H 38.3965 2.99177 -0.522177 0
M  V30 387 H 35.9815 1.45903 -0.321364 0
M  V30 388 H 37.8635 3.81584 1.78805 0
M  V30 389 H 36.5385 2.6247 1.89449 0
M  V30 390 H 35.4455 3.73847 -0.137627 0
M  V30 391 H 36.7785 4.91935 -0.161399 0
M  V30 392 N 38.4306 0.297415 1.54768 0
M  V30 393 C 39.3936 -0.567375 2.22066 0
M  V30 394 C 40.3936 -1.06409 1.20556 0
M  V30 395 O 41.5836 -0.960691 1.45315 0
M  V30 396 C 38.7156 -1.78517 2.90421 0
M  V30 397 H 39.9086 0.0205534 2.99893 0
M  V30 398 H 37.4616 0.0482163 1.56226 0
M  V30 399 H 38.1966 -2.41303 2.16664 0
M  V30 400 H 37.9816 -1.43669 3.64831 0
M  V30 401 H 39.4716 -2.39964 3.41771 0
M  V30 402 N 39.9087 -1.5758 0.0250728 0
M  V30 403 C 41.1337 -1.96337 -0.668317 0
M  V30 404 C 41.5587 -0.901314 -1.651 0
M  V30 405 O 40.9167 0.138187 -1.80773 0
M  V30 406 C 40.9647 -3.34191 -1.35457 0
M  V30 407 O 40.0687 -3.30269 -2.46974 0
M  V30 408 H 39.4097 -0.640281 -0.175887 0
M  V30 409 H 41.9397 -2.0442 0.0857224 0
M  V30 410 H 41.9497 -3.70331 -1.71228 0
M  V30 411 H 40.6247 -4.11036 -0.634218 0
M  V30 412 H 39.2017 -3.05841 -2.13344 0
M  V30 413 N 41.3868 0.248026 -1.55636 0
M  V30 414 C 42.3168 1.31079 -1.93237 0
M  V30 415 C 43.2978 1.50264 -0.797174 0
M  V30 416 O 44.4828 1.62891 -1.05737 0
M  V30 417 C 41.6128 2.66575 -2.22609 0
M  V30 418 C 40.5668 2.62087 -3.3837 0
M  V30 419 C 39.8928 4.01369 -3.53281 0
M  V30 420 C 41.1928 2.19171 -4.7409 0
M  V30 421 H 42.8868 0.998556 -2.82257 0
M  V30 422 H 40.4328 0.47891 -1.35803 0
M  V30 423 H 42.3858 3.41057 -2.47503 0
M  V30 424 H 41.1098 2.99432 -1.30414 0
M  V30 425 H 39.7688 1.90063 -3.13483 0
M  V30 426 H 39.4168 4.31489 -2.58508 0
M  V30 427 H 39.1168 3.99254 -4.31127 0
M  V30 428 H 40.6408 4.77552 -3.80495 0
M  V30 429 H 42.0548 2.83384 -4.98363 0
M  V30 430 H 40.4518 2.2817 -5.5503 0
M  V30 431 H 41.5218 1.14336 -4.71227 0
M  V30 432 N 42.8649 1.48995 0.513639 0
M  V30 433 C 44.0929 1.61531 1.29288 0
M  V30 434 C 44.5079 0.281801 1.86685 0
M  V30 435 O 43.8649 -0.731111 1.67215 0
M  V30 436 C 43.9159 2.67449 2.43215 0
M  V30 437 O 43.6369 3.95626 1.88179 0
M  V30 438 C 45.1379 2.90575 3.34785 0
M  V30 439 H 42.3579 0.544165 0.392588 0
M  V30 440 H 44.9019 1.9494 0.617956 0
M  V30 441 H 43.0569 2.36853 3.0656 0
M  V30 442 H 43.4709 4.53868 2.62876 0
M  V30 443 H 44.9449 3.68449 4.11035 0
M  V30 444 H 45.4219 2.00011 3.91015 0
M  V30 445 H 46.0279 3.22538 2.77218 0
M  V30 446 N 44.343 -0.763751 1.37857 0
M  V30 447 C 45.591 -1.51957 1.33243 0
M  V30 448 C 45.912 -1.94835 -0.0801709 0
M  V30 449 O 45.182 -1.66894 -1.02582 0
M  V30 450 H 43.762 -0.563626 0.49024 0
M  V30 451 H 46.424 -0.908504 1.7243 0
M  V30 452 H 45.52 -2.41523 1.97669 0
M  V30 453 N 45.8211 -1.22559 -0.990812 0
M  V30 454 C 46.7841 -0.998863 -2.0629 0
M  V30 455 C 47.7841 0.0354834 -1.60761 0
M  V30 456 O 48.9741 -0.203231 -1.7301 0
M  V30 457 C 46.1061 -0.509203 -3.37076 0
M  V30 458 H 47.2991 -1.95014 -2.27837 0
M  V30 459 H 44.8521 -1.04456 -1.16269 0
M  V30 460 H 45.5871 0.446335 -3.21214 0
M  V30 461 H 45.3721 -1.25547 -3.71457 0
M  V30 462 H 46.8621 -0.370888 -4.1595 0
M  V30 463 N 47.2992 1.18797 -1.03562 0
M  V30 464 C 48.5472 1.88278 -0.734569 0
M  V30 465 C 48.8682 1.8043 0.739586 0
M  V30 466 O 48.1382 1.21925 1.53333 0
M  V30 467 H 46.7182 0.696991 -0.268725 0
M  V30 468 H 49.3802 1.44192 -1.31129 0
M  V30 469 H 48.4762 2.94443 -1.03489 0
M  V30 470 N 48.7773 0.814389 1.34928 0
M  V30 471 C 49.7403 0.235759 2.27984 0
M  V30 472 C 50.7403 -0.581412 1.49921 0
M  V30 473 O 51.9303 -0.398758 1.69575 0
M  V30 474 C 49.0623 -0.670433 3.34242 0
M  V30 475 H 50.2553 1.05659 2.80671 0
M  V30 476 H 47.8083 0.585614 1.44915 0
M  V30 477 H 48.5433 -1.51466 2.86755 0
M  V30 478 H 48.3283 -0.0860822 3.92005 0
M  V30 479 H 49.8183 -1.06935 4.03676 0
M  V30 480 N 50.2554 -1.46986 0.568584 0
M  V30 481 C 51.4834 -2.0683 0.0539956 0
M  V30 482 C 51.8984 -1.41953 -1.24478 0
M  V30 483 O 51.2554 -0.519933 -1.74937 0
M  V30 484 C 51.3064 -3.61254 -0.133362 0
M  V30 485 O 51.0274 -4.237 1.11399 0
M  V30 486 C 52.5284 -4.37992 -0.683927 0
M  V30 487 H 49.7484 -0.669058 0.0510141 0
M  V30 488 H 52.2924 -1.88824 0.785234 0
M  V30 489 H 50.4474 -3.78735 -0.81477 0
M  V30 490 H 50.8614 -5.16388 0.91888 0
M  V30 491 H 52.3354 -5.46684 -0.764263 0
M  V30 492 H 52.8124 -4.05058 -1.69778 0
M  V30 493 H 53.4184 -4.25283 -0.0378494 0
M  V30 494 N 51.7335 -0.305618 -1.54608 0
M  V30 495 C 52.9805 0.302298 -2.00231 0
M  V30 496 C 53.3085 1.5354 -1.19398 0
M  V30 497 O 52.5635 1.93973 -0.259423 0
M  V30 498 C 52.8625 0.698983 -3.50498 0
M  V30 499 C 52.5285 -0.432903 -4.48817 0
M  V30 500 C 51.1905 -0.743622 -4.75419 0
M  V30 501 C 53.5425 -1.19409 -5.07337 0
M  V30 502 C 50.8705 -1.81857 -5.57804 0
M  V30 503 C 53.2225 -2.25899 -5.90891 0
M  V30 504 C 51.8865 -2.57572 -6.15803 0
M  V30 505 H 51.1565 0.110619 -0.732697 0
M  V30 506 H 53.8035 -0.425674 -1.86709 0
M  V30 507 H 52.1085 1.50711 -3.61654 0
M  V30 508 H 53.8055 1.1806 -3.83227 0
M  V30 509 H 50.3955 -0.18063 -4.28219 0
M  V30 510 H 54.5795 -0.967295 -4.86782 0
M  V30 511 H 49.8355 -2.06864 -5.75341 0
M  V30 512 H 54.0095 -2.85335 -6.35261 0
M  V30 513 H 51.6365 -3.40998 -6.7943 0
M  V30 514 N 53.2116 1.57565 -0.0334293 0
M  V30 515 C 54.6226 1.79746 0.504798 0
M  V30 516 C 54.9736 0.944091 1.71992 0
M  V30 517 O 54.0986 0.155694 2.15839 0
M  V30 518 C 54.6936 3.25997 0.922567 0
M  V30 519 C 53.2526 3.49159 1.40588 0
M  V30 520 C 52.3996 2.74785 0.372633 0
M  V30 521 H 55.3506 1.56565 -0.259436 0
M  V30 522 H 55.3716 3.35945 1.78666 0
M  V30 523 H 54.8836 3.88081 0.0379825 0
M  V30 524 H 52.9846 2.92332 2.31025 0
M  V30 525 H 53.0976 4.57873 1.41028 0
M  V30 526 H 51.4616 2.40391 0.841672 0
M  V30 527 H 52.2446 3.39587 -0.503559 0
M  V30 528 N 54.6897 -0.239769 1.55765 0
M  V30 529 C 55.6527 -1.28038 1.90103 0
M  V30 530 C 56.6527 -1.40723 0.778055 0
M  V30 531 O 57.8427 -1.39301 1.04599 0
M  V30 532 C 54.9747 -2.65702 2.13577 0
M  V30 533 H 56.1677 -0.988048 2.83157 0
M  V30 534 H 53.7207 -0.479382 1.48767 0
M  V30 535 H 54.4557 -3.00063 1.23015 0
M  V30 536 H 54.2407 -2.57875 2.95369 0
M  V30 537 H 55.7307 -3.40828 2.41301 0
M  V30 538 N 56.1678 -1.49265 -0.50573 0
M  V30 539 C 57.5788 -1.51769 -1.08734 0
M  V30 540 C 57.9298 -0.301192 -1.93874 0
M  V30 541 O 57.0548 0.589456 -2.08217 0
M  V30 542 C 57.6498 -2.75017 -1.97867 0
M  V30 543 C 56.2088 -2.80314 -2.51199 0
M  V30 544 C 55.3558 -2.4562 -1.28709 0
M  V30 545 H 58.3068 -1.56031 -0.289855 0
M  V30 546 H 58.3278 -2.5491 -2.82491 0
M  V30 547 H 57.8398 -3.63539 -1.35873 0
M  V30 548 H 55.9408 -1.96061 -3.16845 0
M  V30 549 H 56.0538 -3.82366 -2.88675 0
M  V30 550 H 54.4178 -1.97297 -1.61078 0
M  V30 551 H 55.2008 -3.36411 -0.6843 0
M  V30 552 N 57.6459 0.756429 -1.3826 0
M  V30 553 C 58.8919 1.51772 -1.34511 0
M  V30 554 C 59.2249 1.94089 0.0656691 0
M  V30 555 O 58.4999 1.65221 1.02626 0
M  V30 556 C 58.7829 2.77226 -2.29821 0
M  V30 557 C 58.6359 2.41065 -3.79747 0
M  V30 558 C 59.9549 3.79236 -2.23312 0
M  V30 559 H 57.0739 0.550578 -0.489931 0
M  V30 560 H 59.7159 0.866607 -1.69086 0
M  V30 561 H 57.8659 3.32784 -2.00467 0
M  V30 562 H 59.5379 1.91303 -4.19763 0
M  V30 563 H 57.7809 1.7356 -3.97567 0
M  V30 564 H 58.4519 3.3081 -4.41892 0
M  V30 565 H 60.9279 3.3321 -2.49219 0
M  V30 566 H 59.8039 4.64714 -2.92116 0
M  V30 567 H 60.0649 4.24615 -1.23102 0
M  V30 568 N 59.124 1.23083 0.984299 0
M  V30 569 C 60.354 1.08556 1.75781 0
M  V30 570 C 60.762 -0.366171 1.85623 0
M  V30 571 O 60.105 -1.26524 1.33182 0
M  V30 572 C 60.167 1.63208 3.20318 0
M  V30 573 C 59.831 3.11922 3.33997 0
M  V30 574 C 60.828 4.09259 3.2063 0
M  V30 575 C 58.513 3.51552 3.58771 0
M  V30 576 C 60.507 5.4421 3.31835 0
M  V30 577 C 58.194 4.86649 3.69616 0
M  V30 578 C 59.192 5.82787 3.56157 0
M  V30 579 O 58.88 7.15431 3.66626 0
M  V30 580 H 58.612 0.380713 0.5586 0
M  V30 581 H 61.166 1.63321 1.2456 0
M  V30 582 H 59.396 1.0286 3.72769 0
M  V30 583 H 61.085 1.44216 3.79416 0
M  V30 584 H 61.851 3.79984 3.01392 0
M  V30 585 H 57.73 2.77239 3.6832 0
M  V30 586 H 61.274 6.1923 3.21247 0
M  V30 587 H 57.171 5.15601 3.88363 0
M  V30 588 H 57.939 7.23127 3.83445 0
M  V30 589 N 60.6021 -1.18246 1.0419 0
M  V30 590 C 61.5651 -2.20128 0.638452 0
M  V30 591 C 62.5651 -1.57885 -0.304805 0
M  V30 592 O 63.7551 -1.73967 -0.0900369 0
M  V30 593 C 60.8871 -3.4084 -0.0637751 0
M  V30 594 H 62.0801 -2.57336 1.54007 0
M  V30 595 H 59.6331 -1.32152 0.834598 0
M  V30 596 H 60.3681 -3.09166 -0.979136 0
M  V30 597 H 60.1531 -3.8726 0.614198 0
M  V30 598 H 61.6431 -4.16274 -0.332512 0
M  V30 599 N 62.0802 -0.821533 -1.34494 0
M  V30 600 C 63.0272 -0.240397 -2.29545 0
M  V30 601 C 63.9972 0.634031 -1.53523 0
M  V30 602 O 65.1822 0.575966 -1.81899 0
M  V30 603 C 62.3222 0.592869 -3.39969 0
M  V30 604 C 61.4352 -0.30365 -4.30932 0
M  V30 605 C 60.5702 0.539049 -5.28458 0
M  V30 606 C 59.6092 -0.356942 -6.11058 0
M  V30 607 N 58.7462 0.446603 -7.00678 0
M  V30 608 H 63.5862 -1.05632 -2.7865 0
M  V30 609 H 61.1232 -0.532413 -1.37127 0
M  V30 610 H 63.0812 1.09129 -4.02675 0
M  V30 611 H 61.7112 1.37392 -2.92102 0
M  V30 612 H 60.7632 -0.920276 -3.691 0
M  V30 613 H 62.0752 -0.992661 -4.88823 0
M  V30 614 H 61.2292 1.102 -5.96608 0
M  V30 615 H 59.9682 1.26157 -4.71101 0
M  V30 616 H 58.9732 -0.932047 -5.41842 0
M  V30 617 H 60.1982 -1.07755 -6.70497 0
M  V30 618 H 58.1442 1.15282 -6.45791 0
M  V30 619 H 58.0612 -0.184048 -7.55776 0
M  V30 620 H 59.3292 0.992352 -7.73158 0
M  V30 621 N 63.5583 1.46682 -0.576371 0
M  V30 622 C 64.8043 2.03287 -0.0679305 0
M  V30 623 C 65.1593 1.44063 1.27529 0
M  V30 624 O 64.4523 0.593973 1.82161 0
M  V30 625 C 64.6463 3.57345 0.062886 0
M  V30 626 C 64.4753 4.31509 -1.26611 0
M  V30 627 C 63.2453 4.70664 -1.83856 0
M  V30 628 C 65.4433 4.65444 -2.18783 0
M  V30 629 N 63.4253 5.29552 -3.10561 0
M  V30 630 C 64.7963 5.24835 -3.30072 0
M  V30 631 C 66.8513 4.47375 -2.18542 0
M  V30 632 C 65.5543 5.68063 -4.41244 0
M  V30 633 C 67.5803 4.91614 -3.28739 0
M  V30 634 C 66.9423 5.51071 -4.38748 0
M  V30 635 H 63.0413 0.779083 -0.0674836 0
M  V30 636 H 65.6253 1.78918 -0.767877 0
M  V30 637 H 63.7963 3.8144 0.731988 0
M  V30 638 H 65.5283 4.00592 0.575134 0
M  V30 639 H 62.2833 4.53224 -1.37424 0
M  V30 640 H 62.7073 5.63523 -3.75195 0
M  V30 641 H 67.3493 4.00747 -1.34765 0
M  V30 642 H 65.0673 6.13672 -5.25768 0
M  V30 643 H 68.6533 4.79389 -3.29662 0
M  V30 644 H 67.5333 5.84678 -5.22611 0
M  V30 645 N 65.0364 0.313813 1.54444 0
M  V30 646 C 65.9994 -0.54379 2.22656 0
M  V30 647 C 66.9994 -1.05124 1.21678 0
M  V30 648 O 68.1894 -0.945225 1.46325 0
M  V30 649 C 65.3214 -1.75427 2.92298 0
M  V30 650 H 66.5144 0.0523599 2.99854 0
M  V30 651 H 64.0674 0.0647834 1.56166 0
M  V30 652 H 64.8024 -2.38991 2.19211 0
M  V30 653 H 64.5874 -1.39791 3.66334 0
M  V30 654 H 66.0774 -2.36325 3.44297 0
M  V30 655 N 66.5145 -1.57545 0.0417849 0
M  V30 656 C 67.7915 -1.83642 -0.673433 0
M  V30 657 C 68.1715 -0.928298 -1.89594 0
M  V30 658 O 67.5195 0.0129955 -2.28496 0
M  V30 659 C 67.7295 -3.33155 -1.03964 0
M  V30 660 C 69.0775 -3.99941 -1.42592 0
M  V30 661 O 70.1015 -3.37725 -1.13226 0
M  V30 662 O 68.9605 -5.09619 -1.9736 0
M  V30 663 H 66.0545 -0.757638 -0.331533 0
M  V30 664 H 68.6005 -1.69554 0.070433 0
M  V30 665 H 67.3725 -3.9093 -0.170098 0
M  V30 666 H 66.9955 -3.52396 -1.84126 0
M  V30 667 N 67.9926 0.231505 -1.5589 0
M  V30 668 C 69.2206 0.974505 -1.82513 0
M  V30 669 C 69.6356 1.78344 -0.619591 0
M  V30 670 O 68.9926 1.77792 0.411848 0
M  V30 671 C 69.0436 1.90007 -3.07538 0
M  V30 672 O 68.7646 1.12385 -4.2344 0
M  V30 673 C 70.2656 2.75779 -3.47075 0
M  V30 674 H 67.4856 0.286065 -0.606966 0
M  V30 675 H 70.0296 0.249739 -2.02969 0
M  V30 676 H 68.1846 2.57891 -2.89086 0
M  V30 677 H 68.5986 1.75125 -4.944 0
M  V30 678 H 70.0726 3.36443 -4.37619 0
M  V30 679 H 70.5496 3.47672 -2.68367 0
M  V30 680 H 71.1556 2.13323 -3.67931 0
M  V30 681 N 69.4707 1.49531 0.497807 0
M  V30 682 C 70.7007 1.62657 1.27382 0
M  V30 683 C 71.1087 0.298488 1.86831 0
M  V30 684 O 70.4517 -0.72647 1.68725 0
M  V30 685 C 70.5137 2.6393 2.44093 0
M  V30 686 C 70.1777 4.08195 2.05489 0
M  V30 687 C 71.1747 4.949 1.59279 0
M  V30 688 C 68.8597 4.53948 2.15026 0
M  V30 689 C 70.8537 6.25397 1.23113 0
M  V30 690 C 68.5407 5.84458 1.78473 0
M  V30 691 C 69.5387 6.70006 1.32591 0
M  V30 692 O 69.2267 7.98083 0.965327 0
M  V30 693 H 68.9587 0.550429 0.392434 0
M  V30 694 H 71.5127 1.96325 0.603801 0
M  V30 695 H 69.7427 2.25449 3.14181 0
M  V30 696 H 71.4317 2.66552 3.06113 0
M  V30 697 H 72.1977 4.60779 1.51354 0
M  V30 698 H 68.0767 3.87525 2.4969 0
M  V30 699 H 71.6207 6.92125 0.872299 0
M  V30 700 H 67.5177 6.18107 1.86048 0
M  V30 701 H 68.2857 8.11122 1.09652 0
M  V30 702 N 70.9488 -0.749086 1.3866 0
M  V30 703 C 71.8808 -1.87273 1.32142 0
M  V30 704 C 72.8938 -1.61127 0.232787 0
M  V30 705 O 74.0828 -1.71623 0.49069 0
M  V30 706 C 71.1828 -3.23005 1.02571 0
M  V30 707 C 70.3558 -3.7662 2.22433 0
M  V30 708 C 69.4148 -4.90879 1.89537 0
M  V30 709 O 68.4408 -5.05276 2.62078 0
M  V30 710 N 69.6428 -5.74198 0.853031 0
M  V30 711 H 72.4078 -1.93373 2.28969 0
M  V30 712 H 69.9688 -0.929216 1.32579 0
M  V30 713 H 71.9608 -3.96992 0.786085 0
M  V30 714 H 70.5308 -3.12262 0.145249 0
M  V30 715 H 69.7508 -2.94147 2.62434 0
M  V30 716 H 71.0388 -4.09173 3.02415 0
M  V30 717 H 70.4368 -5.6514 0.25155 0
M  V30 718 H 68.9938 -6.48313 0.67329 0
M  V30 719 N 72.4269 -1.23603 -0.977757 0
M  V30 720 C 73.3739 -1.01954 -2.07061 0
M  V30 721 C 74.3439 0.0638697 -1.65977 0
M  V30 722 O 75.5289 -0.0887624 -1.90593 0
M  V30 723 C 72.6689 -0.619658 -3.39491 0
M  V30 724 C 71.7819 -1.77547 -3.93829 0
M  V30 725 C 70.9169 -1.32212 -5.14484 0
M  V30 726 C 69.9559 -2.44852 -5.60994 0
M  V30 727 N 69.0929 -2.00456 -6.72876 0
M  V30 728 H 73.9329 -1.95495 -2.24913 0
M  V30 729 H 71.4699 -0.973861 -1.10247 0
M  V30 730 H 73.4279 -0.368898 -4.15566 0
M  V30 731 H 72.0579 0.278752 -3.21594 0
M  V30 732 H 71.1099 -2.14016 -3.14486 0
M  V30 733 H 72.4219 -2.62219 -4.24314 0
M  V30 734 H 71.5759 -1.02965 -5.97899 0
M  V30 735 H 70.3149 -0.445808 -4.85658 0
M  V30 736 H 69.3199 -2.74871 -4.76157 0
M  V30 737 H 70.5449 -3.33024 -5.91837 0
M  V30 738 H 68.4909 -1.15208 -6.45804 0
M  V30 739 H 68.4079 -2.78687 -7.02759 0
M  V30 740 H 69.6759 -1.7432 -7.59758 0
M  V30 741 N 73.905 1.17692 -1.04816 0
M  V30 742 C 74.815 2.25229 -0.65643 0
M  V30 743 C 75.831 1.71018 0.320761 0
M  V30 744 O 77.007 2.00649 0.173805 0
M  V30 745 C 74.072 3.46684 -0.0332629 0
M  V30 746 C 73.133 4.15997 -1.06042 0
M  V30 747 C 72.366 5.31654 -0.466893 0
M  V30 748 O 72.589 5.65777 0.724758 0
M  V30 749 O 71.523 5.89831 -1.1993 0
M  V30 750 H 75.349 2.61016 -1.55255 0
M  V30 751 H 72.934 1.24919 -0.81949 0
M  V30 752 H 74.816 4.20234 0.313256 0
M  V30 753 H 73.491 3.12703 0.836566 0
M  V30 754 H 72.398 3.44482 -1.45886 0
M  V30 755 H 73.731 4.53996 -1.90127 0
M  V30 756 N 75.3831 0.828654 1.34056 0
M  V30 757 C 76.6111 0.43262 2.02326 0
M  V30 758 C 77.0261 -0.963147 1.62385 0
M  V30 759 O 76.3831 -1.62425 0.832121 0
M  V30 760 C 76.4341 0.53182 3.57567 0
M  V30 761 O 76.1551 1.87258 3.96063 0
M  V30 762 C 77.6561 0.131422 4.43105 0
M  V30 763 H 74.8761 0.172923 0.648335 0
M  V30 764 H 77.4201 1.1184 1.71208 0
M  V30 765 H 75.5751 -0.105938 3.87255 0
M  V30 766 H 75.9891 1.85087 4.90758 0
M  V30 767 H 77.4631 0.251904 5.51425 0
M  V30 768 H 77.9401 -0.925645 4.29335 0
M  V30 769 H 78.5461 0.743207 4.18756 0
M  V30 770 N 76.8612 -1.46375 0.584142 0
M  V30 771 C 78.1092 -2.01978 0.0701287 0
M  V30 772 C 78.4302 -1.4579 -1.295 0
M  V30 773 O 77.7002 -0.64314 -1.85042 0
M  V30 774 H 76.2802 -0.746648 0.0229345 0
M  V30 775 H 78.9422 -1.79461 0.760245 0
M  V30 776 H 78.0382 -3.121 0.0022064 0
M  V30 777 N 78.3393 -0.321999 -1.54275 0
M  V30 778 C 79.2873 0.560206 -2.25753 0
M  V30 779 C 80.2813 1.11984 -1.27106 0
M  V30 780 O 81.4873 1.06806 -1.44888 0
M  V30 781 H 77.8623 0.199304 -0.725108 0
M  V30 782 H 79.8333 -0.0649365 -2.98329 0
M  V30 783 C 78.5823 1.71023 -3.02731 0
M  V30 784 H 77.9053 1.28885 -3.78456 0
M  V30 785 H 79.3453 2.30314 -3.55993 0
M  V30 786 C 77.8043 2.62692 -2.10938 0
M  V30 787 O 78.3343 3.64364 -1.6912 0
M  V30 788 N 76.5403 2.30891 -1.76459 0
M  V30 789 H 76.0873 1.48253 -2.10663 0
M  V30 790 H 76.0453 2.92487 -1.1532 0
M  V30 791 N 79.8174 1.5752 -0.0501392 0
M  V30 792 C 80.7644 2.1147 0.924603 0
M  V30 793 C 81.7344 1.02182 1.30951 0
M  V30 794 O 82.9194 1.29723 1.39916 0
M  V30 795 C 80.0594 2.66337 2.19451 0
M  V30 796 C 79.1724 3.89708 1.86418 0
M  V30 797 C 78.3074 4.32893 3.07859 0
M  V30 798 C 77.3464 5.48967 2.70742 0
M  V30 799 N 76.4834 5.87211 3.84874 0
M  V30 800 H 81.3234 2.94465 0.457639 0
M  V30 801 H 78.8604 1.45531 0.214266 0
M  V30 802 H 80.8184 2.96247 2.93758 0
M  V30 803 H 79.4484 1.86141 2.63726 0
M  V30 804 H 78.5004 3.66396 1.02264 0
M  V30 805 H 79.8124 4.74074 1.55096 0
M  V30 806 H 78.9664 4.6435 3.90466 0
M  V30 807 H 77.7054 3.47336 3.42358 0
M  V30 808 H 76.7104 5.17183 1.86551 0
M  V30 809 H 77.9354 6.3624 2.37436 0
M  V30 810 H 75.8814 5.04607 4.19175 0
M  V30 811 H 75.7984 6.66266 3.57247 0
M  V30 812 H 77.0664 6.23282 4.68123 0
M  V30 813 N 81.2955 -0.223234 1.56011 0
M  V30 814 C 82.5415 -0.949279 1.79211 0
M  V30 815 C 82.8745 -1.84054 0.619494 0
M  V30 816 O 82.1495 -1.90726 -0.381317 0
M  V30 817 C 82.4325 -1.78965 3.12479 0
M  V30 818 C 82.2855 -0.924997 4.40186 0
M  V30 819 C 83.6045 -2.76774 3.42175 0
M  V30 820 H 80.7235 -0.343676 0.651963 0
M  V30 821 H 83.3655 -0.218253 1.88742 0
M  V30 822 H 81.5155 -2.41291 3.04485 0
M  V30 823 H 83.1875 -0.318615 4.60198 0
M  V30 824 H 81.4305 -0.230344 4.33188 0
M  V30 825 H 82.1015 -1.54735 5.29869 0
M  V30 826 H 84.5775 -2.24584 3.50287 0
M  V30 827 H 83.4535 -3.32678 4.36597 0
M  V30 828 H 83.7145 -3.54429 2.64258 0
M  V30 829 N 82.7736 -1.49793 -0.48987 0
M  V30 830 C 83.7216 -1.67783 -1.61095 0
M  V30 831 C 84.7156 -0.543683 -1.60438 0
M  V30 832 O 85.9216 -0.723647 -1.64813 0
M  V30 833 H 82.2966 -0.529255 -0.534222 0
M  V30 834 H 84.2676 -2.61861 -1.43078 0
M  V30 835 C 83.0166 -1.77191 -2.99164 0
M  V30 836 H 82.3396 -2.63841 -3.0038 0
M  V30 837 H 83.7796 -1.93809 -3.77113 0
M  V30 838 C 82.2386 -0.519203 -3.32875 0
M  V30 839 O 82.7686 0.350124 -4.00171 0
M  V30 840 N 80.9746 -0.378816 -2.8812 0
M  V30 841 H 80.5216 -1.08725 -2.33531 0
M  V30 842 H 80.4796 0.458239 -3.11043 0
M  V30 843 N 84.2517 0.741722 -1.39055 0
M  V30 844 C 85.4817 1.52876 -1.3897 0
M  V30 845 C 85.8897 1.8919 0.0193266 0
M  V30 846 O 85.2327 1.54138 0.999356 0
M  V30 847 C 85.2947 2.84929 -2.19216 0
M  V30 848 C 84.9587 2.71086 -3.67915 0
M  V30 849 C 85.9557 2.40084 -4.61146 0
M  V30 850 C 83.6407 2.88168 -4.11418 0
M  V30 851 C 85.6347 2.26335 -5.95862 0
M  V30 852 C 83.3217 2.74037 -5.46211 0
M  V30 853 C 84.3197 2.43166 -6.38247 0
M  V30 854 O 84.0077 2.29115 -7.70559 0
M  V30 855 H 83.7397 0.479252 -0.476753 0
M  V30 856 H 86.2937 0.924751 -1.83405 0
M  V30 857 H 84.5237 3.47564 -1.69518 0
M  V30 858 H 86.2127 3.46509 -2.11392 0
M  V30 859 H 86.9787 2.26545 -4.28838 0
M  V30 860 H 82.8577 3.11191 -3.40119 0
M  V30 861 H 86.4017 2.0216 -6.67665 0
M  V30 862 H 82.2987 2.87153 -5.78112 0
M  V30 863 H 83.0667 2.44237 -7.81211 0
M  V30 864 N 85.7298 1.2412 0.971189 0
M  V30 865 C 86.6618 0.988349 2.06795 0
M  V30 866 C 87.6748 -0.0409541 1.62748 0
M  V30 867 O 88.8638 0.195673 1.77424 0
M  V30 868 C 85.9638 0.469023 3.35639 0
M  V30 869 C 85.1368 1.56065 4.08611 0
M  V30 870 C 84.1958 1.04458 5.15728 0
M  V30 871 O 83.2218 1.73553 5.42096 0
M  V30 872 N 84.4238 -0.122817 5.8037 0
M  V30 873 H 87.1888 1.93265 2.29061 0
M  V30 874 H 84.7498 1.15102 1.13856 0
M  V30 875 H 86.7418 0.108613 4.04554 0
M  V30 876 H 85.3118 -0.380919 3.1027 0
M  V30 877 H 84.5318 2.09341 3.34021 0
M  V30 878 H 85.8198 2.29449 4.54126 0
M  V30 879 H 85.2178 -0.700563 5.61345 0
M  V30 880 H 83.7748 -0.424404 6.50417 0
M  V30 881 N 87.2079 -1.17134 1.05439 0
M  V30 882 C 88.4559 -1.87085 0.764429 0
M  V30 883 C 88.7769 -1.81584 -0.710787 0
M  V30 884 O 88.0469 -1.24349 -1.51374 0
M  V30 885 H 86.6269 -0.692627 0.279779 0
M  V30 886 H 89.2889 -1.42087 1.33406 0
M  V30 887 H 88.3849 -2.92759 1.0816 0
M  V30 888 N 88.686 -0.835752 -1.33615 0
M  V30 889 C 89.935 -0.426289 -1.97144 0
M  V30 890 C 90.248 1.01912 -1.66953 0
M  V30 891 O 91.454 1.53311 -2.24072 0
M  V30 892 C 89.91 -0.711321 -3.52801 0
M  V30 893 C 89.518 -2.1712 -3.91871 0
M  V30 894 C 91.262 -0.368654 -4.22896 0
M  V30 895 C 89.169 -2.40044 -5.40493 0
M  V30 896 H 88.099 -0.15567 -0.737755 0
M  V30 897 H 90.75 -1.0239 -1.52278 0
M  V30 898 H 89.132 -0.0433766 -3.95976 0
M  V30 899 H 90.306 -2.87936 -3.59763 0
M  V30 900 H 88.621 -2.47654 -3.34749 0
M  V30 901 H 91.218 -0.517601 -5.32189 0
M  V30 902 H 91.561 0.688078 -4.10574 0
M  V30 903 H 92.094 -0.991702 -3.8524 0
M  V30 904 H 88.833 -3.44271 -5.57815 0
M  V30 905 H 88.353 -1.73785 -5.74072 0
M  V30 906 H 90.032 -2.23042 -6.0734 0
M  V30 907 N 90.1641 1.46063 -0.591896 0
M  V30 908 C 91.4121 2.01938 -0.0808391 0
M  V30 909 C 91.7331 1.46475 1.28725 0
M  V30 910 O 91.0031 0.652944 1.84698 0
M  V30 911 H 89.5831 0.746516 -0.0268938 0
M  V30 912 H 92.2451 1.79055 -0.769752 0
M  V30 913 H 91.3411 3.12094 -0.0187578 0
M  V30 914 N 91.6422 0.330177 1.54103 0
M  V30 915 C 92.8672 -0.274893 2.0557 0
M  V30 916 C 93.2922 -1.44487 1.20437 0
M  V30 917 O 92.6502 -1.80021 0.214991 0
M  V30 918 C 92.6982 -0.68079 3.54115 0
M  V30 919 O 91.8022 -1.7824 3.71893 0
M  V30 920 H 91.1432 -0.0483849 0.662235 0
M  V30 921 H 93.6732 0.480508 1.98878 0
M  V30 922 H 93.6832 -0.961635 3.96505 0
M  V30 923 H 92.3582 0.174903 4.15532 0
M  V30 924 H 90.9352 -1.49985 3.41407 0
M  V30 925 N 93.1203 -1.57491 0.0584922 0
M  V30 926 C 94.3453 -1.97711 -0.62652 0
M  V30 927 C 94.7703 -0.936132 -1.63151 0
M  V30 928 O 94.1283 0.099811 -1.81025 0
M  V30 929 C 94.1763 -3.36989 -1.28338 0
M  V30 930 O 93.2803 -3.35433 -2.39913 0
M  V30 931 H 92.6213 -0.643868 -0.162266 0
M  V30 932 H 95.1513 -2.04193 0.129064 0
M  V30 933 H 95.1613 -3.73879 -1.63335 0
M  V30 934 H 93.8363 -4.12289 -0.546889 0
M  V30 935 H 92.4133 -3.10298 -2.06809 0
M  V30 936 N 94.5984 0.214957 -1.56127 0
M  V30 937 C 95.8464 0.936518 -1.79091 0
M  V30 938 C 96.1674 1.84606 -0.628148 0
M  V30 939 O 95.4374 1.92664 0.35462 0
M  V30 940 H 94.0174 0.3488 -0.660566 0
M  V30 941 H 96.6794 0.22523 -1.93594 0
M  V30 942 H 95.7754 1.53943 -2.71492 0
M  V30 943 N 96.0765 1.50051 0.48192 0
M  V30 944 C 97.3245 1.60181 1.23234 0
M  V30 945 C 97.6455 0.299176 1.92691 0
M  V30 946 O 96.9155 -0.682708 1.83619 0
M  V30 947 H 95.4955 0.590232 0.457859 0
M  V30 948 H 98.1575 1.86775 0.556881 0
M  V30 949 H 97.2535 2.40753 1.98607 0
M  V30 950 N 97.5546 -0.734337 1.39446 0
M  V30 951 C 98.8006 -1.49613 1.36908 0
M  V30 952 C 99.1336 -1.94169 -0.0347829 0
M  V30 953 O 98.4086 -1.66833 -0.999847 0
M  V30 954 C 98.6916 -2.73534 2.34203 0
M  V30 955 C 98.5446 -2.34993 3.83534 0
M  V30 956 C 99.8636 -3.75635 2.29317 0
M  V30 957 H 96.9826 -0.542714 0.498629 0
M  V30 958 H 99.6246 -0.839597 1.70443 0
M  V30 959 H 97.7746 -3.29553 2.05736 0
M  V30 960 H 99.4466 -1.84601 4.22753 0
M  V30 961 H 97.6896 -1.67213 4.00278 0
M  V30 962 H 98.3606 -3.23738 4.47099 0
M  V30 963 H 100.837 -3.29203 2.54489 0
M  V30 964 H 99.7126 -4.60008 2.99472 0
M  V30 965 H 99.9736 -4.22603 1.29842 0
M  V30 966 N 99.0327 -1.24633 -0.964593 0
M  V30 967 C 99.9797 -1.04144 -2.05968 0
M  V30 968 C 100.95 0.046262 -1.66036 0
M  V30 969 O 102.135 -0.108972 -1.90489 0
M  V30 970 C 99.2747 -0.65563 -3.38815 0
M  V30 971 C 98.3877 -1.81714 -3.91923 0
M  V30 972 C 97.5227 -1.37662 -5.13052 0
M  V30 973 C 96.5617 -2.50788 -5.58365 0
M  V30 974 N 95.6987 -2.07582 -6.70712 0
M  V30 975 H 100.539 -1.9787 -2.22827 0
M  V30 976 H 98.0757 -0.9855 -1.09208 0
M  V30 977 H 100.034 -0.412954 -4.15151 0
M  V30 978 H 98.6637 0.244627 -3.21872 0
M  V30 979 H 97.7157 -2.1734 -3.12198 0
M  V30 980 H 99.0277 -2.66705 -4.21509 0
M  V30 981 H 98.1817 -1.093 -5.96773 0
M  V30 982 H 96.9207 -0.497293 -4.85158 0
M  V30 983 H 95.9257 -2.79906 -4.73215 0
M  V30 984 H 97.1507 -3.39283 -5.88272 0
M  V30 985 H 95.0967 -1.22051 -6.44546 0
M  V30 986 H 95.0137 -2.86125 -6.99763 0
M  V30 987 H 96.2817 -1.82369 -7.57867 0
M  V30 988 N 100.511 1.16574 -1.06058 0
M  V30 989 C 101.443 2.2045 -0.627239 0
M  V30 990 C 102.456 1.59752 0.313534 0
M  V30 991 O 103.645 1.78192 0.104896 0
M  V30 992 C 100.745 3.3875 0.100974 0
M  V30 993 C 99.9178 4.29008 -0.852687 0
M  V30 994 C 98.9768 5.25944 -0.164152 0
M  V30 995 O 98.0028 5.63535 -0.801047 0
M  V30 996 N 99.2048 5.70075 1.09518 0
M  V30 997 H 101.97 2.58249 -1.52077 0
M  V30 998 H 99.5308 1.3156 -0.943594 0
M  V30 999 H 101.523 4.00638 0.57194 0
M  V30 1000 H 100.093 2.99476 0.89628 0
M  V30 1001 H 99.3128 3.64419 -1.50308 0
M  V30 1002 H 100.601 4.86195 -1.49972 0
M  V30 1003 H 99.9988 5.41624 1.6328 0
M  V30 1004 H 98.5558 6.34067 1.51006 0
M  V30 1005 N 101.989 0.842826 1.3317 0
M  V30 1006 C 103.238 0.436738 1.96915 0
M  V30 1007 C 103.551 -1.01025 1.67491 0
M  V30 1008 O 104.757 -1.5212 2.24881 0
M  V30 1009 C 103.213 0.730021 3.52418 0
M  V30 1010 C 102.821 2.19195 3.90714 0
M  V30 1011 C 104.565 0.391076 4.22695 0
M  V30 1012 C 102.472 2.42907 5.39212 0
M  V30 1013 H 101.402 0.15958 0.736919 0
M  V30 1014 H 104.053 1.03196 1.51733 0
M  V30 1015 H 102.435 0.0643755 3.95948 0
M  V30 1016 H 103.609 2.8984 3.58231 0
M  V30 1017 H 101.924 2.49425 3.33431 0
M  V30 1018 H 104.521 0.545817 5.31907 0
M  V30 1019 H 104.864 -0.666294 4.10933 0
M  V30 1020 H 105.397 1.01212 3.84709 0
M  V30 1021 H 102.136 3.47224 5.55982 0
M  V30 1022 H 101.656 1.76827 5.73142 0
M  V30 1023 H 103.335 2.2626 6.06148 0
M  V30 1024 N 103.467 -1.45747 0.599634 0
M  V30 1025 C 104.716 -2.01502 0.0893511 0
M  V30 1026 C 105.029 -1.4748 -1.28488 0
M  V30 1027 O 106.235 -1.95161 -1.88745 0
M  V30 1028 C 104.691 -3.59735 0.109082 0
M  V30 1029 C 104.299 -4.22754 1.48267 0
M  V30 1030 C 106.043 -4.23085 -0.346374 0
M  V30 1031 C 103.95 -5.73115 1.45921 0
M  V30 1032 H 102.88 -0.753417 0.0296347 0
M  V30 1033 H 105.531 -1.67303 0.753788 0
M  V30 1034 H 103.913 -3.91087 -0.621854 0
M  V30 1035 H 105.087 -4.02987 2.23468 0
M  V30 1036 H 103.402 -3.71567 1.87955 0
M  V30 1037 H 105.999 -5.33327 -0.38298 0
M  V30 1038 H 106.342 -3.93201 -1.36743 0
M  V30 1039 H 106.875 -3.9642 0.331038 0
M  V30 1040 H 103.614 -6.07685 2.45762 0
M  V30 1041 H 103.134 -5.95097 0.749665 0
M  V30 1042 H 104.813 -6.3616 1.17941 0
M  V30 1043 N 104.945 -0.338344 -1.53925 0
M  V30 1044 C 105.908 0.508299 -2.23493 0
M  V30 1045 C 106.908 1.03175 -1.23335 0
M  V30 1046 O 108.098 0.921826 -1.47811 0
M  V30 1047 C 105.23 1.70754 -2.95052 0
M  V30 1048 H 106.423 -0.100058 -2.99733 0
M  V30 1049 H 103.976 -0.0896198 -1.56043 0
M  V30 1050 H 104.711 2.35474 -2.22986 0
M  V30 1051 H 104.496 1.33946 -3.68512 0
M  V30 1052 H 105.986 2.30818 -3.48013 0
M  V30 1053 N 106.423 1.57458 -0.0668435 0
M  V30 1054 C 107.371 2.13639 0.919851 0
M  V30 1055 C 108.365 1.07204 1.31163 0
M  V30 1056 O 109.571 1.25591 1.28945 0
M  V30 1057 H 105.946 0.683048 0.314562 0
M  V30 1058 H 107.917 2.95415 0.421047 0
M  V30 1059 C 106.666 2.70892 2.17975 0
M  V30 1060 H 105.989 3.5246 1.88711 0
M  V30 1061 H 107.429 3.13803 2.85138 0
M  V30 1062 C 105.888 1.65414 2.93496 0
M  V30 1063 O 106.418 1.07619 3.87015 0
M  V30 1064 N 104.624 1.36564 2.56512 0
M  V30 1065 H 104.171 1.83751 1.80536 0
M  V30 1066 H 104.129 0.66223 3.07347 0
M  V30 1067 N 107.901 -0.206675 1.56239 0
M  V30 1068 C 109.129 -0.945345 1.8404 0
M  V30 1069 C 109.544 -1.77336 0.647885 0
M  V30 1070 O 108.901 -1.78425 -0.383511 0
M  V30 1071 C 108.952 -1.8509 3.10522 0
M  V30 1072 O 108.673 -1.05634 4.25174 0
M  V30 1073 C 110.174 -2.70222 3.51418 0
M  V30 1074 H 107.394 -0.276372 0.61144 0
M  V30 1075 H 109.938 -0.217417 2.03341 0
M  V30 1076 H 108.093 -2.53259 2.93153 0
M  V30 1077 H 108.507 -1.67238 4.97124 0
M  V30 1078 H 109.981 -3.29438 4.42916 0
M  V30 1079 H 110.458 -3.43358 2.73864 0
M  V30 1080 H 111.064 -2.07443 3.71278 0
M  V30 1081 N 109.379 -1.50304 -0.473955 0
M  V30 1082 C 110.625 -1.61389 -1.22806 0
M  V30 1083 C 110.958 -0.311955 -1.91678 0
M  V30 1084 O 110.233 0.686384 -1.81986 0
M  V30 1085 C 110.516 -2.79219 -2.27396 0
M  V30 1086 C 110.369 -4.19286 -1.62848 0
M  V30 1087 C 111.688 -2.92614 -3.28732 0
M  V30 1088 H 108.807 -0.587399 -0.445119 0
M  V30 1089 H 111.449 -1.82681 -0.522265 0
M  V30 1090 H 109.599 -2.61195 -2.87592 0
M  V30 1091 H 111.271 -4.48892 -1.06271 0
M  V30 1092 H 109.514 -4.23677 -0.931693 0
M  V30 1093 H 110.185 -4.97655 -2.38838 0
M  V30 1094 H 112.661 -3.09105 -2.78556 0
M  V30 1095 H 111.537 -3.76688 -3.99246 0
M  V30 1096 H 111.798 -2.03107 -3.92683 0
M  V30 1097 N 110.857 0.726932 -1.39834 0
M  V30 1098 C 112.134 1.47902 -1.28001 0
M  V30 1099 C 112.514 2.1083 0.106789 0
M  V30 1100 O 111.862 1.99242 1.11869 0
M  V30 1101 C 112.072 2.52392 -2.41038 0
M  V30 1102 C 113.42 3.18546 -2.80737 0
M  V30 1103 O 114.444 2.62708 -2.40547 0
M  V30 1104 O 113.303 4.19604 -3.50135 0
M  V30 1105 H 110.397 0.657163 -0.502062 0
M  V30 1106 H 112.943 0.760071 -1.51727 0
M  V30 1107 H 111.715 2.04329 -3.33715 0
M  V30 1108 H 111.338 3.31837 -2.19021 0
M  V30 1109 N 112.336 1.25143 0.95797 0
M  V30 1110 C 113.583 1.09692 1.70217 0
M  V30 1111 C 113.911 -0.362654 1.91089 0
M  V30 1112 O 113.166 -1.28386 1.47701 0
M  V30 1113 C 113.465 1.79272 3.09187 0
M  V30 1114 C 113.131 3.29196 3.08125 0
M  V30 1115 C 111.793 3.70096 3.07543 0
M  V30 1116 C 114.145 4.24995 3.0171 0
M  V30 1117 C 111.473 5.05213 2.9829 0
M  V30 1118 C 113.825 5.60132 2.93999 0
M  V30 1119 C 112.489 6.00365 2.9175 0
M  V30 1120 H 111.759 0.401393 0.622868 0
M  V30 1121 H 114.406 1.55372 1.11945 0
M  V30 1122 H 112.711 1.26014 3.70982 0
M  V30 1123 H 114.408 1.64773 3.65583 0
M  V30 1124 H 110.998 2.96651 3.09348 0
M  V30 1125 H 115.182 3.9439 3.01281 0
M  V30 1126 H 110.438 5.35569 2.94916 0
M  V30 1127 H 114.612 6.3406 2.87996 0
M  V30 1128 H 112.239 7.05023 2.84336 0
M  V30 1129 N 113.814 -1.1601 1.06675 0
M  V30 1130 C 115.062 -1.86264 0.784229 0
M  V30 1131 C 115.383 -1.82328 -0.691488 0
M  V30 1132 O 114.653 -1.25947 -1.50047 0
M  V30 1133 H 113.233 -0.689621 0.28711 0
M  V30 1134 H 115.895 -1.40664 1.34906 0
M  V30 1135 H 114.991 -2.91595 1.11259 0
M  V30 1136 N 115.292 -0.849877 -1.32721 0
M  V30 1137 C 116.255 -0.296122 -2.27279 0
M  V30 1138 C 117.255 0.541458 -1.5141 0
M  V30 1139 O 118.445 0.353658 -1.70572 0
M  V30 1140 C 115.577 0.581579 -3.35902 0
M  V30 1141 H 116.77 -1.13064 -2.77771 0
M  V30 1142 H 114.323 -0.62383 -1.43311 0
M  V30 1143 H 115.058 1.43809 -2.9067 0
M  V30 1144 H 114.843 -0.0178814 -3.92096 0
M  V30 1145 H 116.333 0.961951 -4.0637 0
M  V30 1146 N 116.77 1.45427 -0.607355 0
M  V30 1147 C 117.995 2.07124 -0.107006 0
M  V30 1148 C 118.42 1.44906 1.19933 0
M  V30 1149 O 117.778 0.541687 1.73019 0
M  V30 1150 C 117.826 3.60595 0.0194119 0
M  V30 1151 O 116.93 3.98285 1.0697 0
M  V30 1152 H 116.271 0.659868 -0.0739597 0
M  V30 1153 H 118.801 1.86683 -0.837297 0
M  V30 1154 H 118.811 4.07419 0.2177 0
M  V30 1155 H 117.486 4.05266 -0.934453 0
M  V30 1156 H 116.063 3.63133 0.847889 0
M  V30 1157 N 118.248 0.346503 1.53744 0
M  V30 1158 C 119.525 -0.304532 1.93215 0
M  V30 1159 C 119.905 -1.67993 1.27834 0
M  V30 1160 O 119.253 -2.24411 0.430352 0
M  V30 1161 C 119.463 -0.373852 3.46992 0
M  V30 1162 C 120.811 -0.62329 4.2 0
M  V30 1163 O 121.835 -0.455847 3.53271 0
M  V30 1164 O 120.694 -0.947879 5.38217 0
M  V30 1165 H 117.788 -0.178318 0.807547 0
M  V30 1166 H 120.334 0.397895 1.64969 0
M  V30 1167 H 119.106 0.591224 3.86808 0
M  V30 1168 H 118.729 -1.12294 3.81413 0
M  V30 1169 N 119.726 -1.57421 0.075193 0
M  V30 1170 C 120.689 -2.11791 -0.876203 0
M  V30 1171 C 121.689 -1.04268 -1.22412 0
M  V30 1172 O 122.879 -1.30242 -1.15684 0
M  V30 1173 C 120.011 -2.62207 -2.17854 0
M  V30 1174 H 121.204 -2.9716 -0.40444 0
M  V30 1175 H 118.757 -1.55333 -0.173557 0
M  V30 1176 H 119.492 -1.803 -2.6956 0
M  V30 1177 H 119.277 -3.40802 -1.93897 0
M  V30 1178 H 120.767 -3.04335 -2.85955 0
M  V30 1179 N 121.204 0.198386 -1.56346 0
M  V30 1180 C 122.615 0.763358 -1.70381 0
M  V30 1181 C 122.966 1.83995 -0.681203 0
M  V30 1182 O 122.091 2.15785 0.16305 0
M  V30 1183 C 122.686 1.39143 -3.08909 0
M  V30 1184 C 121.245 1.90352 -3.2472 0
M  V30 1185 C 120.392 0.772233 -2.6633 0
M  V30 1186 H 123.343 -0.0266377 -1.58678 0
M  V30 1187 H 123.364 2.26076 -3.06055 0
M  V30 1188 H 122.876 0.607638 -3.83314 0
M  V30 1189 H 120.977 2.71461 -2.55225 0
M  V30 1190 H 121.09 2.06757 -4.3219 0
M  V30 1191 H 119.454 1.18566 -2.2542 0
M  V30 1192 H 120.237 0.00073556 -3.433 0
M  V30 1193 N 122.682 1.50554 0.465978 0
M  V30 1194 C 123.612 1.72722 1.57128 0
M  V30 1195 C 124.593 0.576294 1.6004 0
M  V30 1196 O 125.778 0.81598 1.76225 0
M  V30 1197 C 122.908 1.82605 2.95419 0
M  V30 1198 C 121.862 2.97835 3.07373 0
M  V30 1199 C 121.188 2.92867 4.47363 0
M  V30 1200 C 122.488 4.38265 2.84114 0
M  V30 1201 H 124.182 2.65267 1.38829 0
M  V30 1202 H 121.728 1.2765 0.666441 0
M  V30 1203 H 123.681 1.96698 3.72677 0
M  V30 1204 H 122.405 0.866858 3.14886 0
M  V30 1205 H 121.064 2.83401 2.3255 0
M  V30 1206 H 120.712 1.94783 4.63755 0
M  V30 1207 H 120.412 3.70227 4.56296 0
M  V30 1208 H 121.936 3.09015 5.26633 0
M  V30 1209 H 123.35 4.53198 3.51118 0
M  V30 1210 H 121.747 5.17115 3.04487 0
M  V30 1211 H 122.817 4.50281 1.7993 0
M  V30 1212 N 124.16 -0.719506 1.40217 0
M  V30 1213 C 125.385 -1.51371 1.4178 0
M  V30 1214 C 125.81 -1.88091 0.0182355 0
M  V30 1215 O 125.168 -1.52997 -0.972707 0
M  V30 1216 C 125.216 -2.768 2.31115 0
M  V30 1217 O 124.32 -3.73349 1.7517 0
M  V30 1218 H 123.661 -0.456529 0.482159 0
M  V30 1219 H 126.191 -0.88644 1.844 0
M  V30 1220 H 126.201 -3.25371 2.46167 0
M  V30 1221 H 124.876 -2.49407 3.3282 0
M  V30 1222 H 123.453 -3.32179 1.69444 0
M  V30 1223 N 125.638 -1.25649 -0.95132 0
M  V30 1224 C 126.915 -1.01361 -1.67288 0
M  V30 1225 C 127.295 0.459135 -2.06046 0
M  V30 1226 O 126.643 1.43723 -1.7764 0
M  V30 1227 C 126.853 -1.95256 -2.89268 0
M  V30 1228 C 128.201 -2.23289 -3.61147 0
M  V30 1229 O 129.225 -1.93041 -2.99355 0
M  V30 1230 O 128.084 -2.74741 -4.72419 0
M  V30 1231 H 125.178 -0.38464 -0.732107 0
M  V30 1232 H 127.724 -1.36817 -1.00395 0
M  V30 1233 H 126.496 -2.94685 -2.57442 0
M  V30 1234 H 126.119 -1.60218 -3.6389 0
M  V30 1235 N 127.117 1.15442 -1.07289 0
M  V30 1236 C 128.027 2.23786 -0.704057 0
M  V30 1237 C 129.043 1.7166 0.284413 0
M  V30 1238 O 130.219 2.00972 0.131205 0
M  V30 1239 C 127.284 3.46535 -0.106792 0
M  V30 1240 C 126.345 4.13654 -1.14842 0
M  V30 1241 C 125.578 5.30544 -0.57956 0
M  V30 1242 O 125.801 5.67187 0.604585 0
M  V30 1243 O 124.735 5.87154 -1.32414 0
M  V30 1244 H 128.561 2.57664 -1.60757 0
M  V30 1245 H 126.146 1.23152 -0.845803 0
M  V30 1246 H 128.028 4.20804 0.224048 0
M  V30 1247 H 126.703 3.14407 0.770049 0
M  V30 1248 H 125.61 3.4131 -1.5316 0
M  V30 1249 H 126.943 4.49861 -1.99714 0
M  V30 1250 N 128.595 0.856903 1.32268 0
M  V30 1251 C 129.542 0.301172 2.28827 0
M  V30 1252 C 130.512 -0.593104 1.5515 0
M  V30 1253 O 131.697 -0.527537 1.83362 0
M  V30 1254 C 128.837 -0.502523 3.41422 0
M  V30 1255 C 127.95 0.417797 4.29975 0
M  V30 1256 C 127.085 -0.398749 5.29701 0
M  V30 1257 C 126.124 0.518827 6.09897 0
M  V30 1258 N 125.261 -0.260674 7.01616 0
M  V30 1259 H 130.101 1.12983 2.75751 0
M  V30 1260 H 127.638 0.568582 1.35667 0
M  V30 1261 H 129.596 -0.984141 4.05426 0
M  V30 1262 H 128.226 -1.29599 2.95642 0
M  V30 1263 H 127.278 1.01781 3.66531 0
M  V30 1264 H 128.59 1.12191 4.86019 0
M  V30 1265 H 127.744 -0.943435 5.9932 0
M  V30 1266 H 126.483 -1.13622 4.7428 0
M  V30 1267 H 125.488 1.07538 5.39181 0
M  V30 1268 H 126.713 1.25495 6.67404 0
M  V30 1269 H 124.659 -0.981198 6.4862 0
M  V30 1270 H 124.576 0.384364 7.55022 0
M  V30 1271 H 125.844 -0.787014 7.75517 0
M  V30 1272 N 130.073 -1.45103 0.615059 0
M  V30 1273 C 131.003 -2.33339 -0.0865619 0
M  V30 1274 C 131.984 -1.4727 -0.851209 0
M  V30 1275 O 133.169 -1.76026 -0.820281 0
M  V30 1276 C 130.299 -3.30095 -1.07956 0
M  V30 1277 C 129.253 -4.25858 -0.427628 0
M  V30 1278 C 128.579 -5.12361 -1.5294 0
M  V30 1279 C 129.879 -5.18165 0.655944 0
M  V30 1280 H 131.573 -2.92254 0.650224 0
M  V30 1281 H 129.119 -1.40532 0.314138 0
M  V30 1282 H 131.072 -3.90698 -1.57901 0
M  V30 1283 H 129.796 -2.69355 -1.84703 0
M  V30 1284 H 128.455 -3.66564 0.0510292 0
M  V30 1285 H 128.103 -4.47984 -2.28734 0
M  V30 1286 H 127.803 -5.77238 -1.09865 0
M  V30 1287 H 129.327 -5.75833 -2.03098 0
M  V30 1288 H 130.741 -5.72796 0.240257 0
M  V30 1289 H 129.138 -5.91559 1.00888 0
M  V30 1290 H 130.208 -4.60144 1.52957 0
M  V30 1291 N 131.551 -0.354651 -1.53558 0
M  V30 1292 C 132.514 0.484566 -2.24019 0
M  V30 1293 C 133.514 1.01861 -1.24422 0
M  V30 1294 O 134.704 0.906097 -1.4878 0
M  V30 1295 C 131.836 1.67615 -2.96847 0
M  V30 1296 H 133.029 -0.131843 -2.9961 0
M  V30 1297 H 130.582 -0.106165 -1.55939 0
M  V30 1298 H 131.317 2.33095 -2.25471 0
M  V30 1299 H 131.102 1.30029 -3.69912 0
M  V30 1300 H 132.592 2.27114 -3.50441 0
M  V30 1301 N 133.029 1.57378 -0.0835403 0
M  V30 1302 C 133.961 2.10389 0.909338 0
M  V30 1303 C 134.974 1.03858 1.25369 0
M  V30 1304 O 136.163 1.31338 1.20882 0
M  V30 1305 C 133.263 2.55908 2.2218 0
M  V30 1306 C 132.436 3.86145 2.05453 0
M  V30 1307 C 131.495 4.17633 3.20108 0
M  V30 1308 O 130.521 4.87043 2.94581 0
M  V30 1309 N 131.723 3.72113 4.45547 0
M  V30 1310 H 134.488 2.962 0.456657 0
M  V30 1311 H 132.049 1.61579 0.101877 0
M  V30 1312 H 134.041 2.74027 2.97811 0
M  V30 1313 H 132.611 1.75171 2.58909 0
M  V30 1314 H 131.831 3.7729 1.1422 0
M  V30 1315 H 133.119 4.7137 1.91541 0
M  V30 1316 H 132.517 3.16062 4.69171 0
M  V30 1317 H 131.074 3.95409 5.18165 0
M  V30 1318 N 134.507 -0.190092 1.56449 0
M  V30 1319 C 135.417 -1.25591 1.98152 0
M  V30 1320 C 136.433 -1.49519 0.889944 0
M  V30 1321 O 137.609 -1.62036 1.19609 0
M  V30 1322 C 134.674 -2.57916 2.3169 0
M  V30 1323 C 133.735 -2.42015 3.5458 0
M  V30 1324 C 132.968 -3.6803 3.8651 0
M  V30 1325 O 133.191 -4.72413 3.1966 0
M  V30 1326 O 132.125 -3.6326 4.79923 0
M  V30 1327 H 135.951 -0.931988 2.89046 0
M  V30 1328 H 133.536 -0.395488 1.4407 0
M  V30 1329 H 135.418 -3.36008 2.54316 0
M  V30 1330 H 134.093 -2.89925 1.43963 0
M  V30 1331 H 133 -1.62017 3.37196 0
M  V30 1332 H 134.333 -2.14937 4.4279 0
M  V30 1333 N 135.985 -1.50799 -0.457987 0
M  V30 1334 C 137.233 -1.62121 -1.2067 0
M  V30 1335 C 137.554 -0.329793 -1.92191 0
M  V30 1336 O 136.824 0.653409 -1.84682 0
M  V30 1337 H 135.404 -0.597441 -0.448411 0
M  V30 1338 H 138.066 -1.87637 -0.527096 0
M  V30 1339 H 137.162 -2.43882 -1.94751 0
M  V30 1340 N 137.463 0.71206 -1.40597 0
M  V30 1341 C 138.393 1.83889 -1.43899 0
M  V30 1342 C 139.374 1.67442 -0.299504 0
M  V30 1343 O 140.559 1.87421 -0.508624 0
M  V30 1344 C 137.689 3.21877 -1.30431 0
M  V30 1345 C 136.643 3.53002 -2.42019 0
M  V30 1346 C 135.969 4.90172 -2.13626 0
M  V30 1347 C 137.269 3.53643 -3.84362 0
M  V30 1348 H 138.963 1.81383 -2.38203 0
M  V30 1349 H 136.509 0.871237 -1.14654 0
M  V30 1350 H 138.462 4.00404 -1.31357 0
M  V30 1351 H 137.186 3.24968 -0.326049 0
M  V30 1352 H 135.845 2.76818 -2.40349 0
M  V30 1353 H 135.493 4.89869 -1.14182 0
M  V30 1354 H 135.193 5.11962 -2.88389 0
M  V30 1355 H 136.717 5.71028 -2.1624 0
M  V30 1356 H 138.131 4.22203 -3.87837 0
M  V30 1357 H 136.528 3.86961 -4.58673 0
M  V30 1358 H 137.598 2.52954 -4.13693 0
M  V30 1359 N 138.941 1.26152 0.944643 0
M  V30 1360 C 140.188 1.11492 1.69044 0
M  V30 1361 C 140.516 -0.342366 1.91463 0
M  V30 1362 O 139.771 -1.26812 1.49054 0
M  V30 1363 C 140.07 1.82541 3.07268 0
M  V30 1364 C 139.736 3.32445 3.04616 0
M  V30 1365 C 138.398 3.73337 3.036 0
M  V30 1366 C 140.75 4.28171 2.97185 0
M  V30 1367 C 138.078 5.08348 2.92915 0
M  V30 1368 C 140.43 5.63218 2.88041 0
M  V30 1369 C 139.094 6.03426 2.85366 0
M  V30 1370 H 138.364 0.407977 0.618576 0
M  V30 1371 H 141.011 1.56551 1.10291 0
M  V30 1372 H 139.316 1.29941 3.69625 0
M  V30 1373 H 141.013 1.68642 3.63815 0
M  V30 1374 H 137.603 2.99915 3.06185 0
M  V30 1375 H 141.787 3.97563 2.97081 0
M  V30 1376 H 137.043 5.38667 2.89219 0
M  V30 1377 H 141.217 6.37078 2.81254 0
M  V30 1378 H 138.844 7.07999 2.76842 0
M  V30 1379 N 140.419 -1.14872 1.07899 0
M  V30 1380 C 141.351 -2.19425 0.662231 0
M  V30 1381 C 142.364 -1.60231 -0.288079 0
M  V30 1382 O 143.553 -1.78336 -0.076534 0
M  V30 1383 C 140.653 -3.38867 -0.0470695 0
M  V30 1384 C 139.826 -4.27597 0.920831 0
M  V30 1385 C 138.885 -5.25616 0.247805 0
M  V30 1386 O 137.911 -5.62189 0.890599 0
M  V30 1387 N 139.113 -5.71746 -1.00435 0
M  V30 1388 H 141.878 -2.55797 1.56166 0
M  V30 1389 H 139.439 -1.30042 0.964404 0
M  V30 1390 H 141.431 -4.01497 -0.50813 0
M  V30 1391 H 140.001 -3.00864 -0.848523 0
M  V30 1392 H 139.221 -3.61982 1.56087 0
M  V30 1393 H 140.509 -4.83748 1.57688 0
M  V30 1394 H 139.907 -5.44153 -1.54642 0
M  V30 1395 H 138.464 -6.36389 -1.40899 0
M  V30 1396 N 141.898 -0.863906 -1.31812 0
M  V30 1397 C 143.145 -0.471836 -1.96926 0
M  V30 1398 C 143.473 0.974578 -1.68322 0
M  V30 1399 O 142.728 1.7003 -0.968933 0
M  V30 1400 C 143.027 -0.668547 -3.51091 0
M  V30 1401 C 142.693 -2.08683 -3.99703 0
M  V30 1402 C 141.355 -2.47471 -4.12688 0
M  V30 1403 C 143.707 -3.01207 -4.25351 0
M  V30 1404 C 141.035 -3.78037 -4.4867 0
M  V30 1405 C 143.387 -4.31282 -4.62794 0
M  V30 1406 C 142.051 -4.69992 -4.73987 0
M  V30 1407 H 141.321 -0.172657 -0.720604 0
M  V30 1408 H 143.968 -1.09573 -1.57054 0
M  V30 1409 H 142.273 0.0385252 -3.91781 0
M  V30 1410 H 143.97 -0.345102 -3.99512 0
M  V30 1411 H 140.56 -1.77566 -3.90087 0
M  V30 1412 H 144.744 -2.72469 -4.14819 0
M  V30 1413 H 140 -4.078 -4.55532 0
M  V30 1414 H 144.174 -5.03031 -4.81594 0
M  V30 1415 H 141.801 -5.71207 -5.01624 0
M  V30 1416 N 143.376 1.44774 -0.622745 0
M  V30 1417 C 144.787 1.85546 -0.207226 0
M  V30 1418 C 145.138 1.52093 1.23944 0
M  V30 1419 O 144.263 0.95492 1.94191 0
M  V30 1420 C 144.858 3.36781 -0.369313 0
M  V30 1421 C 143.417 3.76399 -0.00836847 0
M  V30 1422 C 142.564 2.68664 -0.686651 0
M  V30 1423 H 145.515 1.3536 -0.828454 0
M  V30 1424 H 145.536 3.78453 0.394162 0
M  V30 1425 H 145.048 3.61098 -1.42231 0
M  V30 1426 H 143.149 3.57698 1.04322 0
M  V30 1427 H 143.262 4.7732 -0.412584 0
M  V30 1428 H 141.626 2.54404 -0.122777 0
M  V30 1429 H 142.409 2.95815 -1.74208 0
M  V30 1430 N 144.854 0.36279 1.53368 0
M  V30 1431 C 146.082 -0.228613 2.05633 0
M  V30 1432 C 146.497 -1.42676 1.23649 0
M  V30 1433 O 145.854 -1.80394 0.27647 0
M  V30 1434 C 145.905 -0.624845 3.56059 0
M  V30 1435 O 145.626 0.525675 4.34935 0
M  V30 1436 C 147.127 -1.27493 4.24571 0
M  V30 1437 H 144.347 -0.0407183 0.669763 0
M  V30 1438 H 146.891 0.520352 1.97769 0
M  V30 1439 H 145.046 -1.32373 3.64083 0
M  V30 1440 H 145.46 0.205969 5.24095 0
M  V30 1441 H 146.934 -1.50277 5.31151 0
M  V30 1442 H 147.411 -2.23439 3.78116 0
M  V30 1443 H 148.017 -0.617558 4.20792 0
M  V30 1444 N 146.332 -1.57332 0.0918853 0
M  V30 1445 C 147.578 -1.94524 -0.573425 0
M  V30 1446 C 147.911 -0.973578 -1.68033 0
M  V30 1447 O 147.186 -0.00609226 -1.94499 0
M  V30 1448 C 147.469 -3.41858 -1.13161 0
M  V30 1449 C 147.322 -4.4979 -0.0299747 0
M  V30 1450 C 148.641 -3.90435 -2.03098 0
M  V30 1451 H 145.76 -0.70734 -0.206975 0
M  V30 1452 H 148.402 -1.89309 0.161942 0
M  V30 1453 H 146.552 -3.46433 -1.7583 0
M  V30 1454 H 148.224 -4.57327 0.604112 0
M  V30 1455 H 146.467 -4.291 0.636833 0
M  V30 1456 H 147.138 -5.50069 -0.461287 0
M  V30 1457 H 149.614 -3.87992 -1.50338 0
M  V30 1458 H 148.49 -4.94097 -2.39081 0
M  V30 1459 H 148.751 -3.29541 -2.94712 0
M  V30 1460 N 147.81 0.181792 -1.56548 0
M  V30 1461 C 149.059 0.898348 -1.8059 0
M  V30 1462 C 149.372 1.83862 -0.667379 0
M  V30 1463 O 150.578 2.59678 -0.792446 0
M  V30 1464 C 149.034 1.64791 -3.19956 0
M  V30 1465 C 148.642 0.751789 -4.41647 0
M  V30 1466 C 150.386 2.35331 -3.53298 0
M  V30 1467 C 148.293 1.50098 -5.72035 0
M  V30 1468 H 147.223 0.339194 -0.673397 0
M  V30 1469 H 149.874 0.151413 -1.82874 0
M  V30 1470 H 148.256 2.43921 -3.11959 0
M  V30 1471 H 149.43 -0.0018076 -4.608 0
M  V30 1472 H 147.745 0.156562 -4.16106 0
M  V30 1473 H 150.342 2.91958 -4.47956 0
M  V30 1474 H 150.685 3.10164 -2.77676 0
M  V30 1475 H 151.218 1.63154 -3.62803 0
M  V30 1476 H 147.957 0.795175 -6.50659 0
M  V30 1477 H 147.477 2.22817 -5.56878 0
M  V30 1478 H 149.156 2.05125 -6.13622 0
M  V30 1479 N 149.288 1.51039 0.449983 0
M  V30 1480 C 150.536 1.62759 1.19808 0
M  V30 1481 C 150.857 0.339981 1.92013 0
M  V30 1482 O 150.127 -0.643606 1.85026 0
M  V30 1483 H 148.707 0.599811 0.445237 0
M  V30 1484 H 151.369 1.87914 0.517138 0
M  V30 1485 H 150.465 2.44911 1.93455 0
M  V30 1486 N 150.766 -0.704594 1.40972 0
M  V30 1487 C 152.014 -1.46169 1.39568 0
M  V30 1488 C 152.335 -1.95 0.00253745 0
M  V30 1489 O 151.605 -1.71095 -0.954114 0
M  V30 1490 H 150.185 -0.542326 0.513704 0
M  V30 1491 H 152.847 -0.834553 1.76128 0
M  V30 1492 H 151.943 -2.32922 2.07735 0
M  V30 1493 N 152.244 -1.26651 -0.937939 0
M  V30 1494 C 153.49 -1.12553 -1.687 0
M  V30 1495 C 153.823 0.329782 -1.91379 0
M  V30 1496 O 153.098 1.24202 -1.4968 0
M  V30 1497 C 153.381 -1.89862 -3.05981 0
M  V30 1498 C 153.234 -3.43318 -2.90607 0
M  V30 1499 C 154.553 -1.69499 -4.0615 0
M  V30 1500 H 151.672 -0.410257 -0.612257 0
M  V30 1501 H 154.314 -1.55685 -1.08913 0
M  V30 1502 H 152.464 -1.53204 -3.57017 0
M  V30 1503 H 154.136 -3.89747 -2.46769 0
M  V30 1504 H 152.379 -3.70179 -2.26164 0
M  V30 1505 H 153.05 -3.92642 -3.8799 0
M  V30 1506 H 155.526 -2.01442 -3.64088 0
M  V30 1507 H 154.402 -2.26002 -5.00214 0
M  V30 1508 H 154.663 -0.640365 -4.37438 0
M  V30 1509 N 153.722 1.14298 -1.08507 0
M  V30 1510 C 154.968 1.85633 -0.816581 0
M  V30 1511 C 155.301 1.82784 0.656021 0
M  V30 1512 O 154.576 1.25926 1.48233 0
M  V30 1513 C 154.859 3.34223 -1.34041 0
M  V30 1514 C 154.712 3.45639 -2.87843 0
M  V30 1515 C 156.031 4.29356 -0.9665 0
M  V30 1516 H 153.15 0.67402 -0.298104 0
M  V30 1517 H 155.792 1.34214 -1.34487 0
M  V30 1518 H 153.942 3.78144 -0.89104 0
M  V30 1519 H 155.614 3.10498 -3.41158 0
M  V30 1520 H 153.857 2.86817 -3.25451 0
M  V30 1521 H 154.528 4.50089 -3.19569 0
M  V30 1522 H 157.004 3.93457 -1.35391 0
M  V30 1523 H 155.88 5.3178 -1.3602 0
M  V30 1524 H 156.141 4.41919 0.126362 0
M  V30 1525 N 155.201 0.870884 1.31352 0
M  V30 1526 C 156.131 0.343096 2.30966 0
M  V30 1527 C 157.112 -0.566507 1.60389 0
M  V30 1528 O 158.297 -0.483336 1.88089 0
M  V30 1529 C 155.427 -0.455487 3.443 0
M  V30 1530 C 154.381 0.361103 4.26474 0
M  V30 1531 C 153.707 -0.563221 5.31725 0
M  V30 1532 C 155.007 1.59566 4.97329 0
M  V30 1533 H 156.701 1.17548 2.75359 0
M  V30 1534 H 154.247 0.566686 1.32381 0
M  V30 1535 H 156.2 -0.83525 4.13039 0
M  V30 1536 H 154.924 -1.32139 2.98675 0
M  V30 1537 H 153.583 0.722825 3.59403 0
M  V30 1538 H 153.231 -1.42643 4.82351 0
M  V30 1539 H 152.931 -0.0207409 5.87596 0
M  V30 1540 H 154.455 -0.939808 6.03324 0
M  V30 1541 H 155.869 1.28728 5.58661 0
M  V30 1542 H 154.266 2.07728 5.63 0
M  V30 1543 H 155.336 2.34798 4.24262 0
M  V30 1544 N 156.679 -1.44442 0.630414 0
M  V30 1545 C 157.642 -2.29107 -0.0652523 0
M  V30 1546 C 158.642 -1.41002 -0.772995 0
M  V30 1547 O 159.832 -1.62881 -0.617692 0
M  V30 1548 C 156.964 -3.22564 -1.10296 0
M  V30 1549 H 158.157 -2.92103 0.679401 0
M  V30 1550 H 155.71 -1.51343 0.390517 0
M  V30 1551 H 156.445 -2.64416 -1.87762 0
M  V30 1552 H 156.23 -3.87491 -0.59941 0
M  V30 1553 H 157.72 -3.86167 -1.5895 0
M  V30 1554 N 158.157 -0.370918 -1.53173 0
M  V30 1555 C 159.403 0.217423 -2.01631 0
M  V30 1556 C 159.736 1.47983 -1.25756 0
M  V30 1557 O 159.011 1.91274 -0.352764 0
M  V30 1558 C 159.294 0.503982 -3.56556 0
M  V30 1559 C 159.147 -0.77243 -4.43118 0
M  V30 1560 C 160.466 1.30234 -4.20389 0
M  V30 1561 H 157.585 0.0775486 -0.732909 0
M  V30 1562 H 160.227 -0.496863 -1.83388 0
M  V30 1563 H 158.377 1.11248 -3.72231 0
M  V30 1564 H 160.049 -1.4098 -4.39229 0
M  V30 1565 H 158.292 -1.39167 -4.10871 0
M  V30 1566 H 158.963 -0.526815 -5.4948 0
M  V30 1567 H 161.439 0.787546 -4.08579 0
M  V30 1568 H 160.315 1.47158 -5.28806 0
M  V30 1569 H 160.576 2.31237 -3.76805 0
M  V30 1570 N 159.635 1.57281 -0.100228 0
M  V30 1571 C 160.583 2.15542 0.874328 0
M  V30 1572 C 161.577 1.09962 1.28859 0
M  V30 1573 O 162.783 1.28298 1.26252 0
M  V30 1574 H 159.158 0.689567 0.300003 0
M  V30 1575 H 161.129 2.96241 0.35829 0
M  V30 1576 C 159.878 2.75454 2.1218 0
M  V30 1577 H 159.201 3.56384 1.81193 0
M  V30 1578 H 160.641 3.19781 2.78417 0
M  V30 1579 C 159.1 1.71602 2.89921 0
M  V30 1580 O 159.63 1.15804 3.84646 0
M  V30 1581 N 157.836 1.41975 2.53558 0
M  V30 1582 H 157.383 1.87539 1.76598 0
M  V30 1583 H 157.341 0.727274 3.05873 0
M  V30 1584 N 161.113 -0.173488 1.56642 0
M  V30 1585 C 162.362 -0.888758 1.81063 0
M  V30 1586 C 162.675 -1.83506 0.67712 0
M  V30 1587 O 163.881 -2.59254 0.806206 0
M  V30 1588 C 162.337 -1.63091 3.20826 0
M  V30 1589 C 161.945 -0.728357 4.4204 0
M  V30 1590 C 163.689 -2.33454 3.54541 0
M  V30 1591 C 161.596 -1.47062 5.72823 0
M  V30 1592 H 160.526 -0.335618 0.675186 0
M  V30 1593 H 163.177 -0.141712 1.82952 0
M  V30 1594 H 161.559 -2.42263 3.13248 0
M  V30 1595 H 162.733 0.0262449 4.60793 0
M  V30 1596 H 161.048 -0.134492 4.16183 0
M  V30 1597 H 163.645 -2.89578 4.49498 0
M  V30 1598 H 163.988 -3.08687 2.79317 0
M  V30 1599 H 164.521 -1.61227 3.63663 0
M  V30 1600 H 161.26 -0.760658 6.51072 0
M  V30 1601 H 160.78 -2.1986 5.58052 0
M  V30 1602 H 162.459 -2.01868 6.14702 0
M  V30 1603 N 162.591 -1.51276 -0.441967 0
M  V30 1604 C 164.002 -1.56244 -1.02199 0
M  V30 1605 C 164.353 -0.383149 -1.92422 0
M  V30 1606 O 163.478 0.500613 -2.1053 0
M  V30 1607 C 164.073 -2.83162 -1.86024 0
M  V30 1608 C 162.632 -2.90716 -2.39084 0
M  V30 1609 C 161.779 -2.50858 -1.18175 0
M  V30 1610 H 164.73 -1.5712 -0.223416 0
M  V30 1611 H 164.751 -2.66663 -2.71425 0
M  V30 1612 H 164.263 -3.68974 -1.20331 0
M  V30 1613 H 162.364 -2.09323 -3.08244 0
M  V30 1614 H 162.477 -3.94266 -2.72198 0
M  V30 1615 H 160.841 -2.03951 -1.52565 0
M  V30 1616 H 161.624 -3.3901 -0.541001 0
M  V30 1617 N 164.069 0.697108 -1.41344 0
M  V30 1618 C 165.317 1.45426 -1.40341 0
M  V30 1619 C 165.638 1.94996 -0.0128787 0
M  V30 1620 O 164.908 1.71599 0.945027 0
M  V30 1621 H 163.488 0.539594 -0.516573 0
M  V30 1622 H 166.15 0.825201 -1.76569 0
M  V30 1623 H 165.246 2.31817 -2.08967 0
M  V30 1624 N 165.547 1.27147 0.931209 0
M  V30 1625 C 166.477 1.12081 2.04842 0
M  V30 1626 C 167.458 0.0232364 1.70084 0
M  V30 1627 O 168.643 0.197085 1.93197 0
M  V30 1628 C 165.773 0.76354 3.38803 0
M  V30 1629 C 164.727 1.81396 3.87659 0
M  V30 1630 C 164.053 1.31075 5.18385 0
M  V30 1631 C 165.353 3.21739 4.11438 0
M  V30 1632 H 167.047 2.05537 2.17703 0
M  V30 1633 H 164.593 0.989603 1.04608 0
M  V30 1634 H 166.546 0.644982 4.16435 0
M  V30 1635 H 165.27 -0.206727 3.25945 0
M  V30 1636 H 163.929 1.92136 3.12217 0
M  V30 1637 H 163.577 0.330037 5.01916 0
M  V30 1638 H 163.277 2.013 5.52044 0
M  V30 1639 H 164.801 1.20506 5.98591 0
M  V30 1640 H 166.215 3.14019 4.79651 0
M  V30 1641 H 164.612 3.89644 4.56397 0
M  V30 1642 H 165.682 3.67054 3.16859 0
M  V30 1643 N 167.025 -1.13721 1.09112 0
M  V30 1644 C 167.972 -2.19031 0.727591 0
M  V30 1645 C 168.942 -1.63555 -0.289656 0
M  V30 1646 O 170.127 -1.90023 -0.172026 0
M  V30 1647 C 167.267 -3.4477 0.15082 0
M  V30 1648 C 166.38 -4.14365 1.22172 0
M  V30 1649 C 165.515 -5.27709 0.608042 0
M  V30 1650 C 164.554 -5.89147 1.66047 0
M  V30 1651 N 163.691 -6.93929 1.06806 0
M  V30 1652 H 168.531 -2.49475 1.62991 0
M  V30 1653 H 166.068 -1.22499 0.81439 0
M  V30 1654 H 168.026 -4.16714 -0.201358 0
M  V30 1655 H 166.656 -3.14787 -0.714783 0
M  V30 1656 H 165.708 -3.40737 1.69122 0
M  V30 1657 H 167.02 -4.56114 2.01895 0
M  V30 1658 H 166.174 -6.06355 0.204523 0
M  V30 1659 H 164.913 -4.872 -0.220769 0
M  V30 1660 H 163.918 -5.09198 2.07357 0
M  V30 1661 H 165.143 -6.31729 2.49189 0
M  V30 1662 H 163.089 -6.55483 0.260476 0
M  V30 1663 H 163.006 -7.34202 1.8023 0
M  V30 1664 H 164.274 -7.76434 0.690644 0
M  V30 1665 N 168.503 -0.877838 -1.30888 0
M  V30 1666 C 169.728 -0.506629 -2.01117 0
M  V30 1667 C 170.153 0.895564 -1.65412 0
M  V30 1668 O 169.511 1.5923 -0.866922 0
M  V30 1669 C 169.559 -0.680223 -3.54126 0
M  V30 1670 O 168.663 0.277033 -4.11468 0
M  V30 1671 H 168.004 -0.200518 -0.633 0
M  V30 1672 H 170.534 -1.18342 -1.66902 0
M  V30 1673 H 170.544 -0.5765 -4.03907 0
M  V30 1674 H 169.219 -1.70261 -3.79452 0
M  V30 1675 H 167.796 0.127606 -3.72682 0
M  V30 1676 N 169.982 1.44106 -0.638065 0
M  V30 1677 C 171.23 2.01579 -0.145043 0
M  V30 1678 C 171.551 1.50496 1.24 0
M  V30 1679 O 170.821 0.711374 1.82527 0
M  V30 1680 H 169.401 0.745282 -0.05063 0
M  V30 1681 H 172.063 1.76516 -0.826327 0
M  V30 1682 H 171.159 3.11877 -0.118039 0
M  V30 1683 N 171.46 0.379036 1.52974 0
M  V30 1684 C 172.37 -0.468639 2.29872 0
M  V30 1685 C 173.386 -1.08067 1.36373 0
M  V30 1686 O 174.562 -1.08871 1.69438 0
M  V30 1687 C 171.627 -1.58594 3.083 0
M  V30 1688 C 170.688 -1.00007 4.17489 0
M  V30 1689 C 169.921 -2.06413 4.92168 0
M  V30 1690 O 170.144 -3.27751 4.66835 0
M  V30 1691 O 169.078 -1.68717 5.7777 0
M  V30 1692 H 172.904 0.157508 3.03291 0
M  V30 1693 H 170.489 0.143035 1.48714 0
M  V30 1694 H 172.371 -2.23525 3.57232 0
M  V30 1695 H 171.046 -2.19724 2.37703 0
M  V30 1696 H 169.953 -0.314299 3.72777 0
M  V30 1697 H 171.286 -0.433135 4.90291 0
M  V30 1698 N 172.938 -1.57226 0.108567 0
M  V30 1699 C 173.868 -2.17778 -0.84232 0
M  V30 1700 C 174.849 -1.11487 -1.2847 0
M  V30 1701 O 176.034 -1.39681 -1.34918 0
M  V30 1702 C 173.164 -2.76888 -2.09644 0
M  V30 1703 C 172.118 -3.88669 -1.79221 0
M  V30 1704 C 171.444 -4.34541 -3.11574 0
M  V30 1705 C 172.744 -5.11251 -1.06864 0
M  V30 1706 H 174.438 -2.97489 -0.337774 0
M  V30 1707 H 171.984 -1.43097 -0.161025 0
M  V30 1708 H 173.937 -3.17904 -2.76614 0
M  V30 1709 H 172.661 -1.94451 -2.62405 0
M  V30 1710 H 171.32 -3.48213 -1.14644 0
M  V30 1711 H 170.968 -3.48977 -3.62249 0
M  V30 1712 H 170.668 -5.09914 -2.91996 0
M  V30 1713 H 172.192 -4.782 -3.7968 0
M  V30 1714 H 173.606 -5.49352 -1.63968 0
M  V30 1715 H 172.003 -5.9214 -0.974178 0
M  V30 1716 H 173.073 -4.8487 -0.0536168 0
M  V30 1717 N 174.416 0.165178 -1.56732 0
M  V30 1718 C 175.662 0.882112 -1.82611 0
M  V30 1719 C 175.995 1.81628 -0.687378 0
M  V30 1720 O 175.27 1.92009 0.310267 0
M  V30 1721 C 175.553 1.67245 -3.18906 0
M  V30 1722 C 175.406 0.760987 -4.43316 0
M  V30 1723 C 176.725 2.63884 -3.52212 0
M  V30 1724 H 173.844 0.319242 -0.664269 0
M  V30 1725 H 176.486 0.148052 -1.89422 0
M  V30 1726 H 174.636 2.29824 -3.1323 0
M  V30 1727 H 176.308 0.147596 -4.61064 0
M  V30 1728 H 174.551 0.0694102 -4.33744 0
M  V30 1729 H 175.222 1.34962 -5.35247 0
M  V30 1730 H 177.698 2.11429 -3.58381 0
M  V30 1731 H 176.574 3.16245 -4.48643 0
M  V30 1732 H 176.835 3.44377 -2.77231 0
M  V30 1733 N 175.894 1.51508 0.433938 0
M  V30 1734 C 176.824 1.76016 1.53429 0
M  V30 1735 C 177.805 0.610112 1.58782 0
M  V30 1736 O 178.99 0.853177 1.74455 0
M  V30 1737 C 176.12 1.88831 2.9148 0
M  V30 1738 C 175.074 3.04288 3.00987 0
M  V30 1739 C 174.4 3.0229 4.4105 0
M  V30 1740 C 175.7 4.44193 2.74754 0
M  V30 1741 H 177.394 2.68152 1.33171 0
M  V30 1742 H 174.94 1.29035 0.639214 0
M  V30 1743 H 176.893 2.04559 3.6842 0
M  V30 1744 H 175.617 0.933455 3.12976 0
M  V30 1745 H 174.276 2.8827 2.26486 0
M  V30 1746 H 173.924 2.04576 4.59519 0
M  V30 1747 H 173.624 3.79822 4.4834 0
M  V30 1748 H 175.148 3.20116 5.1996 0
M  V30 1749 H 176.562 4.60544 3.41426 0
M  V30 1750 H 174.959 5.23457 2.9345 0
M  V30 1751 H 176.029 4.53996 1.70339 0
M  V30 1752 N 177.372 -0.689602 1.41712 0
M  V30 1753 C 178.649 -1.44457 1.31877 0
M  V30 1754 C 179.029 -2.11039 -0.0508537 0
M  V30 1755 O 178.377 -2.02138 -1.06547 0
M  V30 1756 C 178.587 -2.45913 2.47645 0
M  V30 1757 C 179.935 -3.10991 2.89084 0
M  V30 1758 O 180.959 -2.56238 2.47428 0
M  V30 1759 O 179.818 -4.10174 3.61137 0
M  V30 1760 H 176.912 -0.64362 0.519309 0
M  V30 1761 H 179.458 -0.719576 1.53689 0
M  V30 1762 H 178.23 -1.95409 3.39015 0
M  V30 1763 H 177.853 -3.25913 2.27742 0
M  V30 1764 N 178.85 -1.27639 -0.924453 0
M  V30 1765 C 180.098 -1.13941 -1.66918 0
M  V30 1766 C 180.419 0.314589 -1.92446 0
M  V30 1767 O 179.689 1.21964 -1.53303 0
M  V30 1768 H 178.269 -0.418678 -0.618642 0
M  V30 1769 H 180.931 -1.60213 -1.10985 0
M  V30 1770 H 180.027 -1.67094 -2.63602 0
M  V30 1771 N 180.328 1.1314 -1.09713 0
M  V30 1772 C 181.275 2.18642 -0.739196 0
M  V30 1773 C 182.245 1.63706 0.280978 0
M  V30 1774 O 183.43 1.90111 0.161946 0
M  V30 1775 C 180.57 3.44685 -0.169102 0
M  V30 1776 C 179.683 4.13711 -1.24367 0
M  V30 1777 C 178.818 5.27379 -0.636019 0
M  V30 1778 C 177.857 5.88259 -1.69169 0
M  V30 1779 N 176.994 6.93352 -1.10485 0
M  V30 1780 H 181.834 2.48607 -1.64312 0
M  V30 1781 H 179.371 1.22066 -0.820875 0
M  V30 1782 H 181.329 4.16815 0.179256 0
M  V30 1783 H 179.959 3.15161 0.698079 0
M  V30 1784 H 179.011 3.39835 -1.70927 0
M  V30 1785 H 180.323 4.55037 -2.04311 0
M  V30 1786 H 179.477 6.06238 -0.236677 0
M  V30 1787 H 178.216 4.8731 0.194928 0
M  V30 1788 H 177.221 5.08092 -2.10055 0
M  V30 1789 H 178.446 6.30399 -2.52536 0
M  V30 1790 H 176.392 6.55335 -0.295234 0
M  V30 1791 H 176.309 7.33236 -1.84121 0
M  V30 1792 H 177.577 7.76057 -0.73181 0
M  V30 1793 N 181.806 0.884767 1.30421 0
M  V30 1794 C 183.034 0.518044 2.0031 0
M  V30 1795 C 183.449 -0.893408 1.66324 0
M  V30 1796 O 182.806 -1.5875 0.900262 0
M  V30 1797 C 182.857 0.682997 3.54989 0
M  V30 1798 O 182.578 2.03888 3.87764 0
M  V30 1799 C 184.079 0.31924 4.42149 0
M  V30 1800 H 181.299 0.200265 0.640418 0
M  V30 1801 H 183.843 1.19001 1.6631 0
M  V30 1802 H 181.998 0.0584052 3.87356 0
M  V30 1803 H 182.412 2.05735 4.82466 0
M  V30 1804 H 183.886 0.485555 5.4986 0
M  V30 1805 H 184.363 -0.742717 4.32875 0
M  V30 1806 H 184.969 0.920147 4.15227 0
M  V30 1807 N 183.284 -1.43765 0.645699 0
M  V30 1808 C 184.214 -2.33471 -0.0370477 0
M  V30 1809 C 185.195 -1.49042 -0.819779 0
M  V30 1810 O 186.38 -1.77726 -0.782758 0
M  V30 1811 C 183.51 -3.32311 -1.0093 0
M  V30 1812 C 182.464 -4.2667 -0.337201 0
M  V30 1813 C 181.79 -5.1549 -1.42037 0
M  V30 1814 C 183.09 -5.16657 0.765706 0
M  V30 1815 H 184.784 -2.90809 0.712069 0
M  V30 1816 H 182.33 -1.39834 0.343876 0
M  V30 1817 H 184.283 -3.9396 -1.49578 0
M  V30 1818 H 183.007 -2.73213 -1.78948 0
M  V30 1819 H 181.666 -3.66374 0.128771 0
M  V30 1820 H 181.314 -4.52735 -2.1918 0
M  V30 1821 H 181.014 -5.79438 -0.975966 0
M  V30 1822 H 182.538 -5.80012 -1.90838 0
M  V30 1823 H 183.952 -5.72158 0.361702 0
M  V30 1824 H 182.349 -5.89286 1.13413 0
M  V30 1825 H 183.419 -4.56796 1.62683 0
M  V30 1826 N 184.763 -0.387143 -1.52771 0
M  V30 1827 C 186.011 0.195349 -2.01154 0
M  V30 1828 C 186.332 1.475 -1.27549 0
M  V30 1829 O 185.602 1.91878 -0.394924 0
M  V30 1830 H 184.182 0.075178 -0.743207 0
M  V30 1831 H 186.844 -0.518337 -1.87881 0
M  V30 1832 H 185.94 0.407096 -3.09434 0
M  V30 1833 N 186.241 1.57166 -0.116904 0
M  V30 1834 C 187.518 1.86645 0.585049 0
M  V30 1835 C 187.898 1.0177 1.84949 0
M  V30 1836 O 187.246 0.0960379 2.28298 0
M  V30 1837 C 187.456 3.37736 0.879507 0
M  V30 1838 C 188.804 4.06289 1.23348 0
M  V30 1839 O 189.828 3.42743 0.969836 0
M  V30 1840 O 188.687 5.18455 1.7282 0
M  V30 1841 H 185.781 0.772593 0.295007 0
M  V30 1842 H 188.327 1.69025 -0.151249 0
M  V30 1843 H 187.099 3.91296 -0.0166136 0
M  V30 1844 H 186.722 3.6078 1.67103 0
M  V30 1845 N 187.719 -0.156864 1.56817 0
M  V30 1846 C 188.968 -0.869504 1.81996 0
M  V30 1847 C 189.281 -1.82777 0.696545 0
M  V30 1848 O 190.487 -2.58384 0.833658 0
M  V30 1849 C 188.943 -1.59679 3.22538 0
M  V30 1850 C 188.551 -0.681431 4.42787 0
M  V30 1851 C 190.295 -2.2968 3.56997 0
M  V30 1852 C 188.202 -1.40978 5.74351 0
M  V30 1853 H 187.132 -0.328438 0.678708 0
M  V30 1854 H 189.783 -0.1223 1.83092 0
M  V30 1855 H 188.165 -2.38927 3.158 0
M  V30 1856 H 189.339 0.0751166 4.60739 0
M  V30 1857 H 187.654 -0.0903431 4.16302 0
M  V30 1858 H 190.251 -2.84794 4.52544 0
M  V30 1859 H 190.594 -3.05707 2.82576 0
M  V30 1860 H 191.127 -1.57361 3.65352 0
M  V30 1861 H 187.866 -0.691561 6.51842 0
M  V30 1862 H 187.386 -2.13929 5.60352 0
M  V30 1863 H 189.065 -1.95337 6.16808 0
M  V30 1864 N 189.197 -1.51736 -0.425897 0
M  V30 1865 C 190.427 -1.68549 -1.19476 0
M  V30 1866 C 190.835 -0.387288 -1.85194 0
M  V30 1867 O 190.178 0.645142 -1.71999 0
M  V30 1868 C 190.24 -2.75275 -2.31223 0
M  V30 1869 C 189.904 -4.17534 -1.8578 0
M  V30 1870 C 190.901 -5.01936 -1.35485 0
M  V30 1871 C 188.586 -4.6369 -1.93123 0
M  V30 1872 C 190.58 -6.30559 -0.931347 0
M  V30 1873 C 188.267 -5.92307 -1.50384 0
M  V30 1874 C 189.265 -6.75569 -1.00473 0
M  V30 1875 O 188.953 -8.0178 -0.583452 0
M  V30 1876 H 188.685 -0.568525 -0.365725 0
M  V30 1877 H 191.239 -1.98982 -0.509444 0
M  V30 1878 H 189.469 -2.40182 -3.03067 0
M  V30 1879 H 191.158 -2.80853 -2.93047 0
M  V30 1880 H 191.924 -4.67475 -1.29197 0
M  V30 1881 H 187.803 -3.98997 -2.30916 0
M  V30 1882 H 191.347 -6.95498 -0.541084 0
M  V30 1883 H 187.244 -6.2628 -1.56346 0
M  V30 1884 H 188.012 -8.1543 -0.708275 0
M  V30 1885 N 190.675 0.682077 -1.42076 0
M  V30 1886 C 191.605 1.80796 -1.47767 0
M  V30 1887 C 192.586 1.6677 -0.334954 0
M  V30 1888 O 193.771 1.863 -0.548264 0
M  V30 1889 C 190.901 3.19038 -1.37229 0
M  V30 1890 C 189.855 3.47789 -2.49453 0
M  V30 1891 C 189.181 4.8553 -2.23975 0
M  V30 1892 C 190.481 3.45411 -3.91776 0
M  V30 1893 H 192.175 1.7629 -2.41997 0
M  V30 1894 H 189.721 0.846721 -1.16476 0
M  V30 1895 H 191.674 3.97528 -1.39821 0
M  V30 1896 H 190.398 3.24204 -0.394907 0
M  V30 1897 H 189.057 2.71657 -2.46166 0
M  V30 1898 H 188.705 4.87337 -1.24547 0
M  V30 1899 H 188.405 5.0573 -2.99184 0
M  V30 1900 H 189.929 5.66312 -2.28304 0
M  V30 1901 H 191.343 4.13882 -3.96705 0
M  V30 1902 H 189.74 3.77145 -4.66778 0
M  V30 1903 H 190.81 2.44122 -4.18966 0
M  V30 1904 N 192.153 1.28127 0.917671 0
M  V30 1905 C 193.401 1.14825 1.66312 0
M  V30 1906 C 193.722 -0.304379 1.9261 0
M  V30 1907 O 192.992 -1.21149 1.53947 0
M  V30 1908 H 191.572 0.421953 0.616413 0
M  V30 1909 H 194.234 1.608 1.10134 0
M  V30 1910 H 193.33 1.68489 2.62712 0
M  V30 1911 N 193.631 -1.12557 1.10312 0
M  V30 1912 C 194.578 -2.18247 0.750781 0
M  V30 1913 C 195.548 -1.63853 -0.272293 0
M  V30 1914 O 196.733 -1.90195 -0.151862 0
M  V30 1915 C 193.873 -3.44591 0.187379 0
M  V30 1916 C 192.986 -4.13046 1.2656 0
M  V30 1917 C 192.121 -5.27034 0.663978 0
M  V30 1918 C 191.16 -5.87353 1.72287 0
M  V30 1919 N 190.297 -6.92757 1.1416 0
M  V30 1920 H 195.137 -2.47732 1.65628 0
M  V30 1921 H 192.674 -1.21629 0.827337 0
M  V30 1922 H 194.632 -4.16904 -0.157148 0
M  V30 1923 H 193.262 -3.15527 -0.681355 0
M  V30 1924 H 192.314 -3.38924 1.72727 0
M  V30 1925 H 193.626 -4.53947 2.06721 0
M  V30 1926 H 192.78 -6.06104 0.268824 0
M  V30 1927 H 191.519 -4.87407 -0.169082 0
M  V30 1928 H 190.524 -5.06971 2.12746 0
M  V30 1929 H 191.749 -6.29051 2.55875 0
M  V30 1930 H 189.695 -6.5517 0.329984 0
M  V30 1931 H 189.612 -7.3225 1.88007 0
M  V30 1932 H 190.88 -7.75658 0.772956 0
M  V30 1933 N 195.109 -0.891671 -1.2995 0
M  V30 1934 C 196.358 -0.509521 -1.95158 0
M  V30 1935 C 196.671 0.947388 -1.71125 0
M  V30 1936 O 197.877 1.43669 -2.30372 0
M  V30 1937 C 196.333 -0.860315 -3.49466 0
M  V30 1938 C 195.941 -2.33545 -3.8231 0
M  V30 1939 C 197.685 -0.547687 -4.20952 0
M  V30 1940 C 195.592 -2.62752 -5.29826 0
M  V30 1941 H 194.522 -0.18682 -0.730489 0
M  V30 1942 H 197.173 -1.08756 -1.47798 0
M  V30 1943 H 195.555 -0.211285 -3.95436 0
M  V30 1944 H 196.729 -3.02936 -3.47227 0
M  V30 1945 H 195.044 -2.61629 -3.23944 0
M  V30 1946 H 197.641 -0.742854 -5.29515 0
M  V30 1947 H 197.984 0.51332 -4.13123 0
M  V30 1948 H 198.517 -1.1542 -3.80688 0
M  V30 1949 H 195.256 -3.6762 -5.42712 0
M  V30 1950 H 194.776 -1.97977 -5.66185 0
M  V30 1951 H 196.455 -2.48601 -5.97333 0
M  V30 1952 N 196.587 1.43421 -0.653314 0
M  V30 1953 C 197.534 2.30768 0.0382271 0
M  V30 1954 C 198.504 1.44755 0.814576 0
M  V30 1955 O 199.689 1.73624 0.791162 0
M  V30 1956 C 196.829 3.30336 0.998599 0
M  V30 1957 C 195.942 4.31448 0.218342 0
M  V30 1958 C 195.077 5.18098 1.17252 0
M  V30 1959 C 194.116 6.10902 0.382702 0
M  V30 1960 N 193.253 6.90176 1.28848 0
M  V30 1961 H 198.093 2.89357 -0.712511 0
M  V30 1962 H 195.63 1.42548 -0.363128 0
M  V30 1963 H 197.588 3.86572 1.56901 0
M  V30 1964 H 196.218 2.73397 1.71621 0
M  V30 1965 H 195.27 3.77506 -0.46836 0
M  V30 1966 H 196.582 4.97227 -0.395812 0
M  V30 1967 H 195.736 5.7896 1.81356 0
M  V30 1968 H 194.475 4.52444 1.82058 0
M  V30 1969 H 193.48 5.49128 -0.27169 0
M  V30 1970 H 194.705 6.78598 -0.260957 0
M  V30 1971 H 192.651 6.27171 1.92334 0
M  V30 1972 H 192.568 7.52478 0.728887 0
M  V30 1973 H 193.836 7.55543 1.91766 0
M  V30 1974 N 198.065 0.39524 1.52563 0
M  V30 1975 C 199.012 -0.437036 2.26624 0
M  V30 1976 C 199.982 -1.05281 1.28472 0
M  V30 1977 O 201.167 -1.07971 1.57311 0
M  V30 1978 C 198.307 -1.55524 3.08069 0
M  V30 1979 C 197.42 -0.961745 4.21158 0
M  V30 1980 C 196.555 -2.05149 4.89987 0
M  V30 1981 C 195.594 -1.4342 5.95061 0
M  V30 1982 N 194.731 -2.46351 6.57462 0
M  V30 1983 H 199.571 0.200976 2.97322 0
M  V30 1984 H 197.108 0.110944 1.46681 0
M  V30 1985 H 199.066 -2.21437 3.53584 0
M  V30 1986 H 197.696 -2.16348 2.3957 0
M  V30 1987 H 196.748 -0.192048 3.79915 0
M  V30 1988 H 198.06 -0.470701 4.96574 0
M  V30 1989 H 197.214 -2.78819 5.38837 0
M  V30 1990 H 195.953 -2.57615 4.14109 0
M  V30 1991 H 194.958 -0.682774 5.45544 0
M  V30 1992 H 196.183 -0.917416 6.72875 0
M  V30 1993 H 194.129 -2.97975 5.8442 0
M  V30 1994 H 194.046 -2.02019 7.28508 0
M  V30 1995 H 195.314 -3.19633 7.10954 0
M  V30 1996 N 199.544 -1.57102 0.125237 0
M  V30 1997 C 200.79 -1.96488 -0.525753 0
M  V30 1998 C 201.145 -1.00786 -1.6389 0
M  V30 1999 O 200.438 -0.038979 -1.9156 0
M  V30 2000 C 200.632 -3.40096 -1.09862 0
M  V30 2001 C 200.461 -4.4968 -0.0425004 0
M  V30 2002 C 199.231 -5.03781 0.391463 0
M  V30 2003 C 201.429 -5.08936 0.740829 0
M  V30 2004 N 199.411 -5.96948 1.4327 0
M  V30 2005 C 200.782 -5.98105 1.6331 0
M  V30 2006 C 202.837 -4.91576 0.791029 0
M  V30 2007 C 201.54 -6.71774 2.57122 0
M  V30 2008 C 203.566 -5.6593 1.71688 0
M  V30 2009 C 202.928 -6.5479 2.59672 0
M  V30 2010 H 199.027 -0.765072 -0.161831 0
M  V30 2011 H 201.611 -1.93511 0.214801 0
M  V30 2012 H 199.782 -3.43707 -1.80887 0
M  V30 2013 H 201.514 -3.66591 -1.71444 0
M  V30 2014 H 198.269 -4.736 -0.00213584 0
M  V30 2015 H 198.693 -6.48236 1.95243 0
M  V30 2016 H 203.335 -4.22615 0.124915 0
M  V30 2017 H 201.053 -7.39977 3.24744 0
M  V30 2018 H 204.639 -5.54501 1.76125 0
M  V30 2019 H 203.519 -7.11316 3.30149 0
M  V30 2020 N 201.022 0.148545 -1.56898 0
M  V30 2021 C 202.299 0.890019 -1.74178 0
M  V30 2022 C 202.679 1.99407 -0.692839 0
M  V30 2023 O 202.027 2.26671 0.288505 0
M  V30 2024 C 202.237 1.43389 -3.18183 0
M  V30 2025 C 203.585 1.89791 -3.79822 0
M  V30 2026 O 204.609 1.53134 -3.21603 0
M  V30 2027 O 203.468 2.57387 -4.82093 0
M  V30 2028 H 200.562 0.420496 -0.712118 0
M  V30 2029 H 203.108 0.134591 -1.69165 0
M  V30 2030 H 201.88 0.640383 -3.86024 0
M  V30 2031 H 201.503 2.25287 -3.27615 0
M  V30 2032 N 202.5 1.5196 0.417844 0
M  V30 2033 C 203.777 1.56146 1.17803 0
M  V30 2034 C 204.157 0.337275 2.08388 0
M  V30 2035 O 203.505 -0.676447 2.18258 0
M  V30 2036 C 203.715 2.88566 1.96293 0
M  V30 2037 C 205.063 3.41244 2.52662 0
M  V30 2038 O 206.087 2.90247 2.06483 0
M  V30 2039 O 204.946 4.30273 3.36938 0
M  V30 2040 H 202.04 0.628598 0.537395 0
M  V30 2041 H 204.586 1.64283 0.425331 0
M  V30 2042 H 203.358 3.69116 1.2988 0
M  V30 2043 H 202.981 2.83681 2.78587 0
M  V30 2044 N 203.978 -0.674533 1.42435 0
M  V30 2045 C 204.888 -1.81751 1.48337 0
M  V30 2046 C 205.904 -1.69975 0.372099 0
M  V30 2047 O 207.08 -1.91521 0.62304 0
M  V30 2048 C 204.145 -3.17895 1.38361 0
M  V30 2049 C 203.206 -3.41625 2.59982 0
M  V30 2050 C 202.439 -4.71274 2.50473 0
M  V30 2051 O 202.662 -5.49197 1.54075 0
M  V30 2052 O 201.596 -4.96254 3.4061 0
M  V30 2053 H 205.422 -1.79728 2.44809 0
M  V30 2054 H 203.007 -0.830312 1.24202 0
M  V30 2055 H 204.889 -3.99136 1.35161 0
M  V30 2056 H 203.564 -3.20555 0.450144 0
M  V30 2057 H 202.471 -2.60231 2.68757 0
M  V30 2058 H 203.804 -3.43796 3.52229 0
M  V30 2059 N 205.456 -1.28612 -0.910864 0
M  V30 2060 C 206.419 -1.12803 -1.9952 0
M  V30 2061 C 207.419 -0.0668264 -1.60661 0
M  V30 2062 O 208.609 -0.312847 -1.71368 0
M  V30 2063 C 205.741 -0.72254 -3.33155 0
M  V30 2064 H 206.934 -2.09109 -2.14973 0
M  V30 2065 H 204.487 -1.11639 -1.09391 0
M  V30 2066 H 205.222 0.241152 -3.23402 0
M  V30 2067 H 205.007 -1.48916 -3.62721 0
M  V30 2068 H 206.497 -0.634666 -4.12749 0
M  V30 2069 N 206.934 1.1197 -1.10907 0
M  V30 2070 C 208.183 1.82947 -0.849302 0
M  V30 2071 C 208.496 1.85275 0.627112 0
M  V30 2072 O 209.702 2.52296 1.00295 0
M  V30 2073 C 208.158 3.28529 -1.46959 0
M  V30 2074 C 207.766 3.34546 -2.97965 0
M  V30 2075 C 209.51 4.04443 -1.28942 0
M  V30 2076 C 207.417 4.74491 -3.53004 0
M  V30 2077 H 206.347 0.685477 -0.314065 0
M  V30 2078 H 208.998 1.2604 -1.33365 0
M  V30 2079 H 207.38 3.85333 -0.912917 0
M  V30 2080 H 208.554 2.87654 -3.59989 0
M  V30 2081 H 206.869 2.72108 -3.15192 0
M  V30 2082 H 209.466 5.07787 -1.67502 0
M  V30 2083 H 209.809 4.15656 -0.231456 0
M  V30 2084 H 210.342 3.5401 -1.81443 0
M  V30 2085 H 207.081 4.68474 -4.58489 0
M  V30 2086 H 206.601 5.21816 -2.9575 0
M  V30 2087 H 208.28 5.4344 -3.51115 0
M  V30 2088 N 208.412 0.89855 1.29475 0
M  V30 2089 C 209.375 0.380272 2.26023 0
M  V30 2090 C 210.375 -0.484891 1.53315 0
M  V30 2091 O 211.565 -0.290108 1.71767 0
M  V30 2092 C 208.697 -0.45651 3.3783 0
M  V30 2093 H 209.89 1.23295 2.73383 0
M  V30 2094 H 207.443 0.676589 1.40897 0
M  V30 2095 H 208.178 -1.32922 2.95808 0
M  V30 2096 H 207.963 0.163393 3.91759 0
M  V30 2097 H 209.453 -0.810466 4.0966 0
M  V30 2098 N 209.89 -1.43072 0.660911 0
M  V30 2099 C 210.837 -2.30785 -0.0259884 0
M  V30 2100 C 211.807 -1.45184 -0.806888 0
M  V30 2101 O 212.992 -1.74041 -0.781943 0
M  V30 2102 C 210.132 -3.30861 -0.981067 0
M  V30 2103 C 209.245 -4.31558 -0.195458 0
M  V30 2104 C 208.38 -5.18712 -1.14503 0
M  V30 2105 C 207.419 -6.11097 -0.350299 0
M  V30 2106 N 206.556 -6.90849 -1.25186 0
M  V30 2107 H 211.396 -2.88975 0.727846 0
M  V30 2108 H 208.933 -1.42353 0.370682 0
M  V30 2109 H 210.891 -3.87399 -1.54849 0
M  V30 2110 H 209.521 -2.74304 -1.70169 0
M  V30 2111 H 208.573 -3.77252 0.488374 0
M  V30 2112 H 209.885 -4.9701 0.422176 0
M  V30 2113 H 209.039 -5.79914 -1.78284 0
M  V30 2114 H 207.778 -4.53404 -1.79656 0
M  V30 2115 H 206.783 -5.48976 0.300808 0
M  V30 2116 H 208.008 -6.7845 0.296941 0
M  V30 2117 H 205.954 -6.28182 -1.89005 0
M  V30 2118 H 205.871 -7.52854 -0.688971 0
M  V30 2119 H 207.139 -7.5655 -1.87757 0
M  V30 2120 N 211.368 -0.403325 -1.52352 0
M  V30 2121 C 212.298 0.416205 -2.29761 0
M  V30 2122 C 213.279 1.05123 -1.33728 0
M  V30 2123 O 214.464 1.06134 -1.62632 0
M  V30 2124 C 211.594 1.53624 -3.11475 0
M  V30 2125 C 210.548 1.02653 -4.15507 0
M  V30 2126 C 209.874 2.23971 -4.85532 0
M  V30 2127 C 211.174 0.08463 -5.22231 0
M  V30 2128 H 212.868 -0.229701 -2.98518 0
M  V30 2129 H 210.414 -0.111913 -1.43564 0
M  V30 2130 H 212.367 2.1165 -3.64393 0
M  V30 2131 H 211.091 2.20994 -2.40477 0
M  V30 2132 H 209.75 0.46871 -3.63591 0
M  V30 2133 H 209.398 2.89883 -4.11068 0
M  V30 2134 H 209.098 1.90521 -5.55856 0
M  V30 2135 H 210.622 2.82614 -5.41259 0
M  V30 2136 H 212.036 0.573509 -5.70424 0
M  V30 2137 H 210.433 -0.160783 -5.99885 0
M  V30 2138 H 211.503 -0.86237 -4.7717 0
M  V30 2139 N 212.846 1.57033 -0.133567 0
M  V30 2140 C 213.794 2.17348 0.828412 0
M  V30 2141 C 214.788 1.12671 1.26498 0
M  V30 2142 O 215.994 1.30947 1.23502 0
M  V30 2143 H 212.369 0.695775 0.285309 0
M  V30 2144 H 214.34 2.96935 0.295372 0
M  V30 2145 C 213.089 2.79893 2.06289 0
M  V30 2146 H 212.412 3.60147 1.73592 0
M  V30 2147 H 213.852 3.25615 2.71572 0
M  V30 2148 C 212.311 1.77713 2.86216 0
M  V30 2149 O 212.841 1.23937 3.82103 0
M  V30 2150 N 211.047 1.47321 2.50489 0
M  V30 2151 H 210.594 1.91243 1.7258 0
M  V30 2152 H 210.552 0.79199 3.04261 0
M  V30 2153 N 214.325 -0.140222 1.56975 0
M  V30 2154 C 215.736 -0.699596 1.73097 0
M  V30 2155 C 216.087 -1.8134 0.749022 0
M  V30 2156 O 215.212 -2.16241 -0.0828503 0
M  V30 2157 C 215.807 -1.27582 3.1386 0
M  V30 2158 C 214.366 -1.78169 3.31561 0
M  V30 2159 C 213.513 -0.672855 2.69013 0
M  V30 2160 H 216.464 0.0855115 1.58469 0
M  V30 2161 H 216.485 -2.14561 3.14235 0
M  V30 2162 H 215.997 -0.464955 3.85305 0
M  V30 2163 H 214.098 -2.61801 2.65124 0
M  V30 2164 H 214.211 -1.90574 4.39566 0
M  V30 2165 H 212.575 -1.10118 2.29665 0
M  V30 2166 H 213.358 0.126679 3.43066 0
M  V30 2167 N 215.803 -1.52179 -0.40978 0
M  V30 2168 C 217.051 -1.65878 -1.15451 0
M  V30 2169 C 217.372 -0.390771 -1.91044 0
M  V30 2170 O 216.642 0.594323 -1.86667 0
M  V30 2171 H 215.222 -0.611405 -0.429177 0
M  V30 2172 H 217.884 -1.89219 -0.467134 0
M  V30 2173 H 216.98 -2.49954 -1.86894 0
M  V30 2174 N 217.281 0.66697 -1.42791 0
M  V30 2175 C 218.211 1.79218 -1.49677 0
M  V30 2176 C 219.192 1.66405 -0.352623 0
M  V30 2177 O 220.377 1.85708 -0.567993 0
M  V30 2178 C 217.507 3.17565 -1.40605 0
M  V30 2179 C 216.461 3.45124 -2.53127 0
M  V30 2180 C 215.787 4.83127 -2.29112 0
M  V30 2181 C 217.087 3.41236 -3.95418 0
M  V30 2182 H 218.781 1.73713 -2.43853 0
M  V30 2183 H 216.327 0.83432 -1.17367 0
M  V30 2184 H 218.28 3.96022 -1.44029 0
M  V30 2185 H 217.004 3.23767 -0.429271 0
M  V30 2186 H 215.663 2.69031 -2.49034 0
M  V30 2187 H 215.311 4.85988 -1.29709 0
M  V30 2188 H 215.011 5.02528 -3.04531 0
M  V30 2189 H 216.535 5.63859 -2.34297 0
M  V30 2190 H 217.949 4.09651 -4.01073 0
M  V30 2191 H 216.346 3.72173 -4.70752 0
M  V30 2192 H 217.416 2.39665 -4.21532 0
M  V30 2193 N 218.759 1.29093 0.90403 0
M  V30 2194 C 219.706 1.13853 2.00764 0
M  V30 2195 C 220.676 0.0330084 1.66067 0
M  V30 2196 O 221.861 0.199733 1.89752 0
M  V30 2197 C 219.001 0.816537 3.35301 0
M  V30 2198 C 218.114 2.00206 3.82807 0
M  V30 2199 C 217.249 1.61983 5.059 0
M  V30 2200 C 216.288 2.77143 5.45764 0
M  V30 2201 N 215.425 2.39346 6.60044 0
M  V30 2202 H 220.265 2.08276 2.13132 0
M  V30 2203 H 217.802 1.03648 1.04381 0
M  V30 2204 H 219.76 0.610557 4.12708 0
M  V30 2205 H 218.39 -0.090779 3.22672 0
M  V30 2206 H 217.442 2.31988 3.01473 0
M  V30 2207 H 218.754 2.86512 4.08304 0
M  V30 2208 H 217.908 1.37649 5.90879 0
M  V30 2209 H 216.647 0.728202 4.82233 0
M  V30 2210 H 215.652 3.02165 4.59322 0
M  V30 2211 H 216.877 3.66964 5.71414 0
M  V30 2212 H 214.823 1.52665 6.37989 0
M  V30 2213 H 214.74 3.19185 6.85315 0
M  V30 2214 H 216.008 2.1832 7.48303 0
M  V30 2215 N 220.237 -1.11381 1.11499 0
M  V30 2216 C 221.167 -2.19509 0.796125 0
M  V30 2217 C 222.148 -1.68458 -0.235796 0
M  V30 2218 O 223.333 -1.93947 -0.0991344 0
M  V30 2219 C 220.463 -3.46475 0.239205 0
M  V30 2220 C 219.417 -4.10744 1.20307 0
M  V30 2221 C 218.743 -5.32293 0.50683 0
M  V30 2222 C 220.043 -4.55597 2.55399 0
M  V30 2223 H 221.737 -2.46439 1.70024 0
M  V30 2224 H 219.283 -1.18446 0.818935 0
M  V30 2225 H 221.236 -4.214 0.00392006 0
M  V30 2226 H 219.96 -3.19006 -0.700206 0
M  V30 2227 H 218.619 -3.37813 1.42399 0
M  V30 2228 H 218.267 -5.01095 -0.437408 0
M  V30 2229 H 217.967 -5.76243 1.1497 0
M  V30 2230 H 219.491 -6.09956 0.280351 0
M  V30 2231 H 220.905 -5.21841 2.37391 0
M  V30 2232 H 219.302 -5.10363 3.15673 0
M  V30 2233 H 220.372 -3.69013 3.14575 0
M  V30 2234 N 221.715 -0.905404 -1.28997 0
M  V30 2235 C 223.126 -0.581953 -1.77398 0
M  V30 2236 C 223.477 0.902552 -1.74208 0
M  V30 2237 O 222.602 1.70584 -1.33154 0
M  V30 2238 C 223.197 -1.04961 -3.22131 0
M  V30 2239 C 221.756 -0.777229 -3.68288 0
M  V30 2240 C 220.903 -1.22109 -2.48967 0
M  V30 2241 H 223.854 -1.08754 -1.15578 0
M  V30 2242 H 223.875 -0.387387 -3.78523 0
M  V30 2243 H 223.387 -2.13008 -3.24421 0
M  V30 2244 H 221.488 0.290383 -3.71467 0
M  V30 2245 H 221.601 -1.37911 -4.58822 0
M  V30 2246 H 219.965 -0.639971 -2.46529 0
M  V30 2247 H 220.748 -2.30972 -2.53982 0
M  V30 2248 N 223.193 1.4272 -0.668489 0
M  V30 2249 C 224.418 2.06484 -0.194758 0
M  V30 2250 C 224.843 1.49862 1.13679 0
M  V30 2251 O 224.201 0.614582 1.70565 0
M  V30 2252 C 224.249 3.60353 -0.133546 0
M  V30 2253 O 223.353 4.02464 0.899806 0
M  V30 2254 H 222.694 0.656137 -0.10188 0
M  V30 2255 H 225.224 1.82964 -0.915722 0
M  V30 2256 H 225.234 4.07976 0.0447041 0
M  V30 2257 H 223.909 4.00938 -1.1055 0
M  V30 2258 H 222.486 3.66402 0.693109 0
M  V30 2259 N 224.671 0.411399 1.52136 0
M  V30 2260 C 225.603 -0.448386 2.24771 0
M  V30 2261 C 226.616 -1.00828 1.27818 0
M  V30 2262 O 227.805 -0.906841 1.53749 0
M  V30 2263 C 224.905 -1.63636 2.96777 0
M  V30 2264 C 224.078 -1.19995 4.20618 0
M  V30 2265 C 223.137 -2.25509 4.75428 0
M  V30 2266 O 222.163 -1.86007 5.3795 0
M  V30 2267 N 223.365 -3.577 4.57199 0
M  V30 2268 H 226.13 0.174025 2.99194 0
M  V30 2269 H 223.691 0.238897 1.60128 0
M  V30 2270 H 225.683 -2.33793 3.30338 0
M  V30 2271 H 224.253 -2.16465 2.25526 0
M  V30 2272 H 223.473 -0.326421 3.92846 0
M  V30 2273 H 224.761 -0.885365 5.01038 0
M  V30 2274 H 224.159 -3.92543 4.07341 0
M  V30 2275 H 222.716 -4.23827 4.95191 0
M  V30 2276 N 226.149 -1.5696 0.141893 0
M  V30 2277 C 227.097 -2.17784 -0.816874 0
M  V30 2278 C 228.091 -1.1334 -1.25899 0
M  V30 2279 O 229.297 -1.316 -1.22806 0
M  V30 2280 H 225.672 -0.697278 -0.281615 0
M  V30 2281 H 227.643 -2.97087 -0.279621 0
M  V30 2282 C 226.392 -2.80983 -2.04802 0
M  V30 2283 H 225.715 -3.61062 -1.7168 0
M  V30 2284 H 227.155 -3.2705 -2.69841 0
M  V30 2285 C 225.614 -1.79228 -2.8527 0
M  V30 2286 O 226.144 -1.25962 -3.8144 0
M  V30 2287 N 224.35 -1.48647 -2.49704 0
M  V30 2288 H 223.897 -1.92155 -1.71564 0
M  V30 2289 H 223.855 -0.808115 -3.03837 0
M  V30 2290 N 227.627 0.131896 -1.57047 0
M  V30 2291 C 228.876 0.84044 -1.83356 0
M  V30 2292 C 229.189 1.81646 -0.725535 0
M  V30 2293 O 230.395 2.57025 -0.874659 0
M  V30 2294 C 228.851 1.54528 -3.25037 0
M  V30 2295 C 228.459 0.610902 -4.43815 0
M  V30 2296 C 230.203 2.23972 -3.60606 0
M  V30 2297 C 228.11 1.31823 -5.76521 0
M  V30 2298 H 227.04 0.317599 -0.683847 0
M  V30 2299 H 229.691 0.0931561 -1.83263 0
M  V30 2300 H 228.073 2.33873 -3.19561 0
M  V30 2301 H 229.247 -0.148407 -4.60561 0
M  V30 2302 H 227.562 0.0241016 -4.16393 0
M  V30 2303 H 230.159 2.77558 -4.57018 0
M  V30 2304 H 230.502 3.01173 -2.87403 0
M  V30 2305 H 231.035 1.51529 -3.6781 0
M  V30 2306 H 227.774 0.587771 -6.52859 0
M  V30 2307 H 227.294 2.04987 -5.63685 0
M  V30 2308 H 228.973 1.855 -6.19838 0
M  V30 2309 N 229.106 1.52395 0.401703 0
M  V30 2310 C 230.069 1.75636 1.47257 0
M  V30 2311 C 231.069 0.62628 1.48103 0
M  V30 2312 O 232.259 0.894227 1.49497 0
M  V30 2313 C 229.391 1.84553 2.86624 0
M  V30 2314 H 230.584 2.71241 1.27938 0
M  V30 2315 H 228.137 1.42923 0.632662 0
M  V30 2316 H 228.872 0.908882 3.11303 0
M  V30 2317 H 228.657 2.66715 2.87412 0
M  V30 2318 H 230.147 2.04251 3.64241 0
M  V30 2319 N 230.584 -0.659388 1.43143 0
M  V30 2320 C 231.83 -1.42145 1.44647 0
M  V30 2321 C 232.163 -1.9408 0.0681907 0
M  V30 2322 O 231.438 -1.71899 -0.910007 0
M  V30 2323 C 231.721 -2.60735 2.48373 0
M  V30 2324 C 231.574 -2.14332 3.95451 0
M  V30 2325 C 232.893 -3.62951 2.48906 0
M  V30 2326 H 230.012 -0.51552 0.526696 0
M  V30 2327 H 232.654 -0.748069 1.74654 0
M  V30 2328 H 230.804 -3.18184 2.22916 0
M  V30 2329 H 232.476 -1.61932 4.31944 0
M  V30 2330 H 230.719 -1.4576 4.08578 0
M  V30 2331 H 231.39 -2.99583 4.63631 0
M  V30 2332 H 233.866 -3.1525 2.71582 0
M  V30 2333 H 232.742 -4.43487 3.23435 0
M  V30 2334 H 233.003 -4.15126 1.52061 0
M  V30 2335 N 232.062 -1.29571 -0.897171 0
M  V30 2336 C 233.308 -1.17863 -1.65034 0
M  V30 2337 C 233.641 0.268729 -1.92332 0
M  V30 2338 O 232.916 1.19378 -1.53555 0
M  V30 2339 C 233.199 -1.995 -2.99786 0
M  V30 2340 C 233.052 -3.5239 -2.79538 0
M  V30 2341 C 234.371 -1.82335 -4.00552 0
M  V30 2342 H 231.49 -0.429528 -0.598895 0
M  V30 2343 H 234.132 -1.59072 -1.03905 0
M  V30 2344 H 232.282 -1.64485 -3.51962 0
M  V30 2345 H 233.954 -3.97401 -2.34244 0
M  V30 2346 H 232.197 -3.77187 -2.14273 0
M  V30 2347 H 232.868 -4.04787 -3.75302 0
M  V30 2348 H 235.344 -2.12924 -3.57495 0
M  V30 2349 H 234.22 -2.41801 -4.92771 0
M  V30 2350 H 234.481 -0.779209 -4.35179 0
M  V30 2351 N 233.54 1.10788 -1.12088 0
M  V30 2352 C 234.956 1.34691 -0.856186 0
M  V30 2353 C 235.156 1.94791 0.515615 0
M  V30 2354 O 234.212 2.18524 1.26505 0
M  V30 2355 C 235.525 2.27208 -1.9697 0
M  V30 2356 C 237.073 2.40755 -2.00016 0
M  V30 2357 C 237.548 3.36598 -3.1059 0
M  V30 2358 N 239.039 3.44164 -3.10008 0
M  V30 2359 C 239.774 4.18284 -3.92206 0
M  V30 2360 N 239.27 4.95322 -4.84384 0
M  V30 2361 N 241.063 4.13865 -3.80357 0
M  V30 2362 H 233.214 0.70144 -2.00483 0
M  V30 2363 H 235.477 0.371405 -0.872217 0
M  V30 2364 H 235.183 1.90251 -2.958 0
M  V30 2365 H 235.057 3.27485 -1.87172 0
M  V30 2366 H 237.444 2.76982 -1.01808 0
M  V30 2367 H 237.525 1.40305 -2.13888 0
M  V30 2368 H 237.169 3.01096 -4.09028 0
M  V30 2369 H 237.099 4.36918 -2.93956 0
M  V30 2370 H 239.59 2.8922 -2.43228 0
M  V30 2371 H 239.903 5.49267 -5.43623 0
M  V30 2372 H 238.248 4.94459 -4.884 0
M  V30 2373 H 241.439 3.52773 -3.07683 0
M  V30 2374 H 241.612 4.71372 -4.44649 0
M  V30 2375 N 235.018 0.912232 1.28515 0
M  V30 2376 C 236.434 0.610159 1.47476 0
M  V30 2377 C 236.634 -0.844955 1.82928 0
M  V30 2378 O 235.69 -1.62416 1.93332 0
M  V30 2379 C 237.003 1.54675 2.57868 0
M  V30 2380 C 238.551 1.55331 2.71738 0
M  V30 2381 C 239.026 2.47649 3.85272 0
M  V30 2382 N 240.517 2.45767 3.92623 0
M  V30 2383 C 241.252 3.13896 4.79851 0
M  V30 2384 N 240.748 3.9135 5.71679 0
M  V30 2385 N 242.541 3.02991 4.73448 0
M  V30 2386 H 234.692 1.85318 1.03783 0
M  V30 2387 H 236.955 0.794777 0.516753 0
M  V30 2388 H 236.661 2.5841 2.38574 0
M  V30 2389 H 236.535 1.27671 3.54937 0
M  V30 2390 H 238.922 0.52335 2.90422 0
M  V30 2391 H 239.003 1.86378 1.75205 0
M  V30 2392 H 238.647 3.50745 3.67342 0
M  V30 2393 H 238.577 2.13904 4.81199 0
M  V30 2394 H 241.068 1.89503 3.26951 0
M  V30 2395 H 241.381 4.40359 6.35062 0
M  V30 2396 H 239.726 3.95455 5.71524 0
M  V30 2397 H 242.917 2.41987 4.007 0
M  V30 2398 H 243.09 3.5636 5.41213 0
M  V30 2399 N 236.496 -1.42363 0.676048 0
M  V30 2400 C 237.459 -2.29199 0.00766941 0
M  V30 2401 C 238.459 -1.43389 -0.727745 0
M  V30 2402 O 239.649 -1.64764 -0.56556 0
M  V30 2403 C 236.781 -3.2591 -0.999785 0
M  V30 2404 H 237.974 -2.89794 0.771988 0
M  V30 2405 H 235.527 -1.50024 0.438468 0
M  V30 2406 H 236.262 -2.70256 -1.79255 0
M  V30 2407 H 236.047 -3.89202 -0.475829 0
M  V30 2408 H 237.537 -3.91028 -1.46583 0
M  V30 2409 N 237.974 -0.419461 -1.51915 0
M  V30 2410 C 239.251 0.211999 -1.94448 0
M  V30 2411 C 239.631 1.61703 -1.35703 0
M  V30 2412 O 238.979 2.22102 -0.536931 0
M  V30 2413 C 239.189 0.207872 -3.4838 0
M  V30 2414 C 240.537 0.422192 -4.22496 0
M  V30 2415 O 241.561 0.286778 -3.55044 0
M  V30 2416 O 240.42 0.690009 -5.42126 0
M  V30 2417 H 237.514 0.139586 -0.815135 0
M  V30 2418 H 240.06 -0.476151 -1.62883 0
M  V30 2419 H 238.832 -0.775102 -3.83546 0
M  V30 2420 H 238.455 0.939688 -3.86336 0
M  V30 2421 N 239.452 1.56882 -0.150215 0
M  V30 2422 C 240.7 1.9584 0.499105 0
M  V30 2423 C 241.021 1.03623 1.65188 0
M  V30 2424 O 240.291 0.0984084 1.95653 0
M  V30 2425 H 238.871 0.723119 0.187373 0
M  V30 2426 H 241.533 1.9358 -0.226466 0
M  V30 2427 H 240.629 2.99638 0.873122 0
M  V30 2428 N 240.93 -0.123565 1.57115 0
M  V30 2429 C 242.155 -0.850398 1.89164 0
M  V30 2430 C 242.58 -1.7286 0.741688 0
M  V30 2431 O 241.938 -1.78665 -0.307958 0
M  V30 2432 C 241.986 -1.66353 3.19936 0
M  V30 2433 O 241.09 -2.77004 3.0552 0
M  V30 2434 H 240.431 -0.235454 0.620852 0
M  V30 2435 H 242.961 -0.107335 2.04318 0
M  V30 2436 H 242.971 -2.05372 3.52543 0
M  V30 2437 H 241.646 -1.01881 4.03228 0
M  V30 2438 H 240.223 -2.41221 2.84371 0
M  V30 2439 N 242.408 -1.52605 -0.393616 0
M  V30 2440 C 243.656 -1.67093 -1.13685 0
M  V30 2441 C 243.977 -0.411011 -1.90619 0
M  V30 2442 O 243.247 0.574491 -1.87287 0
M  V30 2443 H 241.827 -0.615923 -0.422668 0
M  V30 2444 H 244.489 -1.89704 -0.447039 0
M  V30 2445 H 243.585 -2.51922 -1.84232 0
M  V30 2446 N 243.887 0.651787 -1.4349 0
M  V30 2447 C 245.115 1.43937 -1.48626 0
M  V30 2448 C 245.53 1.8851 -0.104587 0
M  V30 2449 O 244.887 1.5958 0.885464 0
M  V30 2450 C 244.938 2.6734 -2.43334 0
M  V30 2451 O 244.659 2.24631 -3.76128 0
M  V30 2452 C 246.16 3.60683 -2.57726 0
M  V30 2453 H 243.38 0.44213 -0.504739 0
M  V30 2454 H 245.924 0.798944 -1.88248 0
M  V30 2455 H 244.079 3.2752 -2.06904 0
M  V30 2456 H 244.493 3.04485 -4.2707 0
M  V30 2457 H 245.967 4.43933 -3.28067 0
M  V30 2458 H 246.444 4.08126 -1.62265 0
M  V30 2459 H 247.05 3.06384 -2.94973 0
M  V30 2460 N 245.365 1.30045 0.890287 0
M  V30 2461 C 246.59 1.21598 1.68014 0
M  V30 2462 C 247.015 -0.218678 1.86825 0
M  V30 2463 O 246.373 -1.15756 1.39536 0
M  V30 2464 C 246.421 1.94434 3.03691 0
M  V30 2465 O 245.525 1.2678 3.92429 0
M  V30 2466 H 244.866 0.420856 0.513592 0
M  V30 2467 H 247.396 1.71775 1.11151 0
M  V30 2468 H 247.406 2.03251 3.5377 0
M  V30 2469 H 246.081 2.98777 2.89318 0
M  V30 2470 H 244.658 1.26282 3.50866 0
M  V30 2471 N 246.843 -1.10192 1.12674 0
M  V30 2472 C 248.09 -1.82205 0.883606 0
M  V30 2473 C 248.418 -1.8532 -0.590492 0
M  V30 2474 O 247.673 -1.31137 -1.45264 0
M  V30 2475 C 247.972 -3.28552 1.4067 0
M  V30 2476 C 247.638 -3.45582 2.89627 0
M  V30 2477 C 246.3 -3.49937 3.30299 0
M  V30 2478 C 248.652 -3.50768 3.85501 0
M  V30 2479 C 245.98 -3.57049 4.65546 0
M  V30 2480 C 248.332 -3.59414 5.20581 0
M  V30 2481 C 246.996 -3.62034 5.60792 0
M  V30 2482 H 246.266 -0.666735 0.323334 0
M  V30 2483 H 248.913 -1.29868 1.40736 0
M  V30 2484 H 247.218 -3.83473 0.80347 0
M  V30 2485 H 248.915 -3.82788 1.19475 0
M  V30 2486 H 245.505 -3.42871 2.57172 0
M  V30 2487 H 249.689 -3.46651 3.55171 0
M  V30 2488 H 244.945 -3.57361 4.96088 0
M  V30 2489 H 249.119 -3.62371 5.94693 0
M  V30 2490 H 246.746 -3.67298 6.6558 0
M  V30 2491 N 248.321 -0.919034 -1.28029 0
M  V30 2492 C 249.567 -0.555757 -1.95036 0
M  V30 2493 C 249.9 0.899198 -1.72128 0
M  V30 2494 O 249.175 1.64023 -1.04531 0
M  V30 2495 C 249.458 -0.872024 -3.49382 0
M  V30 2496 C 249.311 -2.3801 -3.81669 0
M  V30 2497 C 250.63 -0.37185 -4.38526 0
M  V30 2498 H 247.749 -0.203386 -0.708381 0
M  V30 2499 H 250.391 -1.14924 -1.51303 0
M  V30 2500 H 248.541 -0.366946 -3.86763 0
M  V30 2501 H 250.213 -2.9562 -3.54128 0
M  V30 2502 H 248.456 -2.83289 -3.28526 0
M  V30 2503 H 249.127 -2.55192 -4.8947 0
M  V30 2504 H 251.603 -0.804602 -4.08247 0
M  V30 2505 H 250.479 -0.622173 -5.45362 0
M  V30 2506 H 250.74 0.727934 -4.36066 0
M  V30 2507 N 249.799 1.42003 -0.683588 0
M  V30 2508 C 251.046 2.01413 -0.209514 0
M  V30 2509 C 251.374 1.54088 1.1869 0
M  V30 2510 O 250.629 0.737591 1.81268 0
M  V30 2511 C 250.928 3.56827 -0.202357 0
M  V30 2512 C 250.594 4.23617 -1.54464 0
M  V30 2513 C 249.256 4.41577 -1.91215 0
M  V30 2514 C 251.608 4.61178 -2.42826 0
M  V30 2515 C 248.936 4.9437 -3.15935 0
M  V30 2516 C 251.288 5.15355 -3.66867 0
M  V30 2517 C 249.952 5.31528 -4.03776 0
M  V30 2518 H 249.222 0.737023 -0.0766668 0
M  V30 2519 H 251.869 1.70067 -0.880312 0
M  V30 2520 H 250.174 3.87892 0.551969 0
M  V30 2521 H 251.871 4.00588 0.181793 0
M  V30 2522 H 248.461 4.10004 -1.24877 0
M  V30 2523 H 252.645 4.46968 -2.15717 0
M  V30 2524 H 247.901 5.05076 -3.44541 0
M  V30 2525 H 252.075 5.43402 -4.35531 0
M  V30 2526 H 249.702 5.72199 -5.00492 0
M  V30 2527 N 251.277 0.427512 1.51691 0
M  V30 2528 C 252.505 -0.141191 2.06418 0
M  V30 2529 C 252.92 -1.37303 1.29589 0
M  V30 2530 O 252.277 -1.79059 0.352732 0
M  V30 2531 C 252.328 -0.473266 3.58389 0
M  V30 2532 O 252.049 0.709673 4.32314 0
M  V30 2533 C 253.55 -1.09371 4.29596 0
M  V30 2534 H 250.77 -0.0122747 0.670888 0
M  V30 2535 H 253.314 0.603764 1.95384 0
M  V30 2536 H 251.469 -1.16812 3.69369 0
M  V30 2537 H 251.883 0.42807 5.2275 0
M  V30 2538 H 253.357 -1.27613 5.37046 0
M  V30 2539 H 253.834 -2.072 3.87253 0
M  V30 2540 H 254.44 -0.43853 4.23033 0
M  V30 2541 N 252.755 -1.56801 0.158532 0
M  V30 2542 C 253.98 -2.01295 -0.499516 0
M  V30 2543 C 254.405 -1.03799 -1.56867 0
M  V30 2544 O 253.763 -0.0155162 -1.81293 0
M  V30 2545 C 253.811 -3.44469 -1.06647 0
M  V30 2546 O 252.915 -3.50012 -2.18095 0
M  V30 2547 H 252.256 -0.652884 -0.12099 0
M  V30 2548 H 254.786 -2.02958 0.258661 0
M  V30 2549 H 254.796 -3.8351 -1.39227 0
M  V30 2550 H 253.471 -4.14932 -0.283581 0
M  V30 2551 H 252.048 -3.22822 -1.86656 0
M  V30 2552 N 254.233 0.115231 -1.57178 0
M  V30 2553 C 255.463 0.835224 -1.88964 0
M  V30 2554 C 255.871 1.73774 -0.74829 0
M  V30 2555 O 255.214 1.81401 0.289739 0
M  V30 2556 C 255.276 1.7178 -3.15804 0
M  V30 2557 C 254.94 0.989198 -4.46166 0
M  V30 2558 C 255.937 0.328263 -5.18863 0
M  V30 2559 C 253.622 0.969256 -4.9286 0
M  V30 2560 C 255.616 -0.342873 -6.36477 0
M  V30 2561 C 253.303 0.294324 -6.10391 0
M  V30 2562 C 254.301 -0.360582 -6.82048 0
M  V30 2563 O 253.989 -1.02474 -7.97342 0
M  V30 2564 H 253.721 0.245197 -0.629964 0
M  V30 2565 H 256.275 0.10303 -2.05141 0
M  V30 2566 H 254.505 2.49173 -2.95719 0
M  V30 2567 H 256.194 2.31255 -3.33581 0
M  V30 2568 H 256.96 0.335263 -4.8384 0
M  V30 2569 H 252.839 1.46844 -4.36987 0
M  V30 2570 H 256.383 -0.854629 -6.92345 0
M  V30 2571 H 252.28 0.285099 -6.4487 0
M  V30 2572 H 253.048 -0.929594 -8.13204 0
M  V30 2573 N 255.711 1.52812 0.385517 0
M  V30 2574 C 256.641 1.80808 1.47752 0
M  V30 2575 C 257.622 0.660318 1.5676 0
M  V30 2576 O 258.807 0.908246 1.71652 0
M  V30 2577 C 255.937 1.98008 2.85324 0
M  V30 2578 C 254.891 3.13709 2.91154 0
M  V30 2579 C 254.217 3.16169 4.31209 0
M  V30 2580 C 255.517 4.52709 2.60483 0
M  V30 2581 H 257.211 2.72253 1.24573 0
M  V30 2582 H 254.757 1.31003 0.597839 0
M  V30 2583 H 256.71 2.16176 3.61726 0
M  V30 2584 H 255.434 1.03255 3.09848 0
M  V30 2585 H 254.093 2.95329 2.17201 0
M  V30 2586 H 253.741 2.19092 4.52778 0
M  V30 2587 H 253.441 3.93894 4.36029 0
M  V30 2588 H 254.965 3.36496 5.09512 0
M  V30 2589 H 256.379 4.71173 3.26602 0
M  V30 2590 H 254.776 5.32528 2.76648 0
M  V30 2591 H 255.846 4.59186 1.55809 0
M  V30 2592 N 257.189 -0.644168 1.43834 0
M  V30 2593 C 258.152 -1.73857 1.49353 0
M  V30 2594 C 259.152 -1.56315 0.377112 0
M  V30 2595 O 260.342 -1.62048 0.639226 0
M  V30 2596 C 257.474 -3.12819 1.35488 0
M  V30 2597 H 258.667 -1.70342 2.46827 0
M  V30 2598 H 256.22 -0.856652 1.30733 0
M  V30 2599 H 256.955 -3.2194 0.390569 0
M  V30 2600 H 256.74 -3.26958 2.16428 0
M  V30 2601 H 258.23 -3.92606 1.42302 0
M  V30 2602 N 258.668 -1.30515 -0.883378 0
M  V30 2603 C 259.615 -1.17032 -1.98927 0
M  V30 2604 C 260.585 -0.0594241 -1.65994 0
M  V30 2605 O 261.77 -0.229895 -1.8941 0
M  V30 2606 C 258.91 -0.869777 -3.33959 0
M  V30 2607 C 258.023 -2.06271 -3.79574 0
M  V30 2608 C 257.158 -1.70011 -5.03259 0
M  V30 2609 C 256.197 -2.8579 -5.41286 0
M  V30 2610 N 255.334 -2.49816 -6.56153 0
M  V30 2611 H 260.174 -2.1164 -2.09792 0
M  V30 2612 H 257.711 -1.05296 -1.02719 0
M  V30 2613 H 259.669 -0.676138 -4.11685 0
M  V30 2614 H 258.299 0.0394332 -3.22776 0
M  V30 2615 H 257.351 -2.36755 -2.97744 0
M  V30 2616 H 258.663 -2.92971 -4.03694 0
M  V30 2617 H 257.817 -1.47032 -5.88614 0
M  V30 2618 H 256.556 -0.804829 -4.81013 0
M  V30 2619 H 255.561 -3.09434 -4.54456 0
M  V30 2620 H 256.786 -3.76008 -5.65504 0
M  V30 2621 H 254.732 -1.62795 -6.35479 0
M  V30 2622 H 254.649 -3.30048 -6.8015 0
M  V30 2623 H 255.917 -2.30197 -7.44735 0
M  V30 2624 N 260.146 1.09593 -1.13257 0
M  V30 2625 C 261.392 1.82003 -0.89458 0
M  V30 2626 C 261.725 1.85402 0.577906 0
M  V30 2627 O 261 1.32099 1.42759 0
M  V30 2628 C 261.283 3.28237 -1.48096 0
M  V30 2629 C 261.136 3.3312 -3.02244 0
M  V30 2630 C 262.455 4.24871 -1.14774 0
M  V30 2631 H 259.574 0.66077 -0.326424 0
M  V30 2632 H 262.216 1.28389 -1.40058 0
M  V30 2633 H 260.366 3.74024 -1.05062 0
M  V30 2634 H 262.038 2.95748 -3.54021 0
M  V30 2635 H 260.281 2.72756 -3.37323 0
M  V30 2636 H 260.952 4.3613 -3.38371 0
M  V30 2637 H 263.428 3.87361 -1.51957 0
M  V30 2638 H 262.304 5.25532 -1.58452 0
M  V30 2639 H 262.565 4.42058 -0.0611849 0
M  V30 2640 N 261.624 0.925811 1.2754 0
M  V30 2641 C 262.572 0.413897 2.28888 0
M  V30 2642 C 263.566 -0.500779 1.61829 0
M  V30 2643 O 264.772 -0.38069 1.75928 0
M  V30 2644 H 261.147 0.115274 0.743112 0
M  V30 2645 H 263.118 1.28151 2.69481 0
M  V30 2646 C 261.867 -0.319792 3.46226 0
M  V30 2647 H 261.19 0.374846 3.98039 0
M  V30 2648 H 262.63 -0.642435 4.19105 0
M  V30 2649 C 261.089 -1.53209 3.00048 0
M  V30 2650 O 261.619 -2.6309 3.03557 0
M  V30 2651 N 259.825 -1.38326 2.55566 0
M  V30 2652 H 259.372 -0.489292 2.5291 0
M  V30 2653 H 259.33 -2.19564 2.25031 0
M  V30 2654 N 263.102 -1.41638 0.69111 0
M  V30 2655 C 264.012 -2.34588 0.0233487 0
M  V30 2656 C 265.028 -1.55987 -0.770984 0
M  V30 2657 O 266.204 -1.88486 -0.709569 0
M  V30 2658 C 263.269 -3.34684 -0.904851 0
M  V30 2659 C 262.33 -4.29176 -0.103225 0
M  V30 2660 C 261.563 -5.2449 -0.987216 0
M  V30 2661 O 261.786 -5.2514 -2.22674 0
M  V30 2662 O 260.72 -6.00295 -0.439281 0
M  V30 2663 H 264.546 -2.93261 0.789416 0
M  V30 2664 H 262.131 -1.42417 0.45142 0
M  V30 2665 H 264.013 -3.96133 -1.43724 0
M  V30 2666 H 262.688 -2.78461 -1.65049 0
M  V30 2667 H 261.595 -3.71089 0.473655 0
M  V30 2668 H 262.928 -4.88484 0.60365 0
M  V30 2669 N 264.58 -0.43555 -1.51462 0
M  V30 2670 C 265.49 0.383001 -2.31453 0
M  V30 2671 C 266.506 1.02931 -1.4029 0
M  V30 2672 O 267.682 1.02507 -1.73362 0
M  V30 2673 C 264.747 1.47043 -3.13973 0
M  V30 2674 C 263.808 0.844433 -4.20913 0
M  V30 2675 C 263.041 1.88004 -4.9949 0
M  V30 2676 O 263.264 3.10199 -4.78678 0
M  V30 2677 O 262.198 1.47157 -5.83634 0
M  V30 2678 H 266.024 -0.269964 -3.02498 0
M  V30 2679 H 263.609 -0.19813 -1.4808 0
M  V30 2680 H 265.491 2.10113 -3.65281 0
M  V30 2681 H 264.166 2.10751 -2.45695 0
M  V30 2682 H 263.073 0.175729 -3.73687 0
M  V30 2683 H 264.406 0.250869 -4.9156 0
M  V30 2684 N 266.058 1.56714 -0.166846 0
M  V30 2685 C 267.304 1.97813 0.473473 0
M  V30 2686 C 267.659 1.05095 1.61161 0
M  V30 2687 O 266.952 0.0897541 1.9139 0
M  V30 2688 C 267.146 3.42889 1.00806 0
M  V30 2689 C 266.975 4.49635 -0.0767392 0
M  V30 2690 C 265.745 5.02566 -0.524894 0
M  V30 2691 C 267.943 5.06793 -0.875504 0
M  V30 2692 N 265.925 5.9294 -1.59047 0
M  V30 2693 C 267.296 5.93565 -1.79111 0
M  V30 2694 C 269.351 4.89306 -0.921083 0
M  V30 2695 C 268.054 6.64721 -2.74843 0
M  V30 2696 C 270.08 5.61179 -1.86633 0
M  V30 2697 C 269.442 6.47675 -2.76942 0
M  V30 2698 H 265.541 0.769093 0.141489 0
M  V30 2699 H 268.125 1.92874 -0.266031 0
M  V30 2700 H 266.296 3.48382 1.7171 0
M  V30 2701 H 268.028 3.71008 1.61664 0
M  V30 2702 H 264.783 4.73439 -0.123432 0
M  V30 2703 H 265.207 6.42831 -2.12361 0
M  V30 2704 H 269.849 4.22136 -0.23692 0
M  V30 2705 H 267.567 7.31107 -3.44249 0
M  V30 2706 H 271.153 5.49636 -1.90764 0
M  V30 2707 H 270.033 7.02313 -3.48893 0
M  V30 2708 N 267.536 -0.106894 1.57237 0
M  V30 2709 C 268.483 -1.13049 2.01217 0
M  V30 2710 C 269.453 -1.40471 0.886403 0
M  V30 2711 O 270.638 -1.52133 1.15153 0
M  V30 2712 C 267.778 -2.4487 2.43172 0
M  V30 2713 C 266.891 -2.24281 3.69218 0
M  V30 2714 C 266.026 -3.49417 4.00101 0
M  V30 2715 C 265.065 -3.24038 5.19294 0
M  V30 2716 N 264.202 -4.41409 5.45988 0
M  V30 2717 H 269.042 -0.748456 2.88448 0
M  V30 2718 H 266.579 -0.358054 1.42676 0
M  V30 2719 H 268.537 -3.21786 2.65537 0
M  V30 2720 H 267.167 -2.80944 1.58967 0
M  V30 2721 H 266.219 -1.38224 3.54398 0
M  V30 2722 H 267.531 -2.01512 4.56283 0
M  V30 2723 H 266.685 -4.34746 4.2318 0
M  V30 2724 H 265.424 -3.75229 3.11535 0
M  V30 2725 H 264.429 -2.37102 4.96047 0
M  V30 2726 H 265.654 -2.99584 6.09447 0
M  V30 2727 H 263.6 -4.67319 4.60379 0
M  V30 2728 H 263.517 -4.21788 6.274 0
M  V30 2729 H 264.785 -5.27836 5.73593 0
M  V30 2730 N 269.014 -1.53014 -0.377408 0
M  V30 2731 C 269.962 -1.7927 -1.48206 0
M  V30 2732 C 270.956 -0.661195 -1.55963 0
M  V30 2733 O 272.162 -0.843908 -1.58991 0
M  V30 2734 H 268.537 -0.567425 -0.493491 0
M  V30 2735 H 270.508 -2.71753 -1.2326 0
M  V30 2736 C 269.257 -1.98894 -2.85196 0
M  V30 2737 H 268.58 -2.85395 -2.79981 0
M  V30 2738 H 270.02 -2.21249 -3.61698 0
M  V30 2739 C 268.479 -0.764691 -3.28107 0
M  V30 2740 O 269.009 0.0523226 -4.01666 0
M  V30 2741 N 267.215 -0.591493 -2.84517 0
M  V30 2742 H 266.762 -1.25749 -2.24822 0
M  V30 2743 H 266.72 0.226253 -3.13585 0
M  V30 2744 N 270.492 0.636531 -1.44174 0
M  V30 2745 C 271.44 1.76995 -1.50915 0
M  V30 2746 C 272.434 1.65053 -0.381295 0
M  V30 2747 O 273.64 1.71197 -0.55601 0
M  V30 2748 H 270.015 0.584247 -0.473455 0
M  V30 2749 H 271.986 1.68432 -2.4632 0
M  V30 2750 C 270.735 3.15314 -1.46534 0
M  V30 2751 H 270.058 3.25149 -2.32633 0
M  V30 2752 H 271.498 3.9453 -1.55312 0
M  V30 2753 C 269.957 3.3639 -0.185305 0
M  V30 2754 O 270.487 3.94699 0.746688 0
M  V30 2755 N 268.693 2.9046 -0.0901606 0
M  V30 2756 H 268.24 2.43193 -0.849416 0
M  V30 2757 H 268.198 3.04937 0.765553 0
M  V30 2758 N 271.97 1.30982 0.876444 0
M  V30 2759 C 273.216 1.20474 1.63138 0
M  V30 2760 C 273.549 -0.238096 1.92735 0
M  V30 2761 O 272.824 -1.1692 1.55435 0
M  V30 2762 C 273.107 2.04244 2.96574 0
M  V30 2763 C 272.96 3.56793 2.73896 0
M  V30 2764 C 274.279 1.88684 3.97601 0
M  V30 2765 H 271.398 0.439001 0.591985 0
M  V30 2766 H 274.04 1.60704 1.01361 0
M  V30 2767 H 272.19 1.70063 3.493 0
M  V30 2768 H 273.862 4.01077 2.27892 0
M  V30 2769 H 272.105 3.80548 2.08245 0
M  V30 2770 H 272.776 4.10706 3.68815 0
M  V30 2771 H 275.252 2.18584 3.54062 0
M  V30 2772 H 274.128 2.4961 4.88862 0
M  V30 2773 H 274.389 0.848343 4.33884 0
M  V30 2774 N 273.449 -1.08991 1.13837 0
M  V30 2775 C 274.697 -1.80899 0.901098 0
M  V30 2776 C 275.018 -1.86356 -0.574134 0
M  V30 2777 O 274.288 -1.35235 -1.41733 0
M  V30 2778 H 272.868 -0.669966 0.330386 0
M  V30 2779 H 275.53 -1.318 1.43578 0
M  V30 2780 H 274.626 -2.83929 1.29578 0
M  V30 2781 N 274.927 -0.932562 -1.27047 0
M  V30 2782 C 276.155 -0.592031 -1.98249 0
M  V30 2783 C 276.57 0.831062 -1.69525 0
M  V30 2784 O 275.927 1.55299 -0.958561 0
M  V30 2785 C 275.978 -0.814279 -3.5221 0
M  V30 2786 O 275.699 -2.18139 -3.7993 0
M  V30 2787 C 277.2 -0.483121 -4.4066 0
M  V30 2788 H 274.42 -0.223896 -0.632544 0
M  V30 2789 H 276.964 -1.25091 -1.61779 0
M  V30 2790 H 275.119 -0.20213 -3.86872 0
M  V30 2791 H 275.533 -2.235 -4.74498 0
M  V30 2792 H 277.007 -0.689298 -5.47679 0
M  V30 2793 H 277.484 0.581546 -4.35333 0
M  V30 2794 H 278.09 -1.07362 -4.11526 0
M  V30 2795 N 276.405 1.4127 -0.698611 0
M  V30 2796 C 277.653 2.00782 -0.230409 0
M  V30 2797 C 277.974 1.5562 1.17505 0
M  V30 2798 O 277.244 0.78815 1.79346 0
M  V30 2799 H 275.824 0.742464 -0.0821944 0
M  V30 2800 H 278.486 1.72852 -0.90045 0
M  V30 2801 H 277.582 3.11095 -0.25021 0
M  V30 2802 N 277.883 0.443576 1.51229 0
M  V30 2803 C 279.108 -0.121648 2.07043 0
M  V30 2804 C 279.533 -1.35156 1.30823 0
M  V30 2805 O 278.891 -1.7793 0.347934 0
M  V30 2806 C 278.939 -0.41624 3.5819 0
M  V30 2807 O 278.043 -1.50163 3.8409 0
M  V30 2808 H 277.384 0.000871367 0.663999 0
M  V30 2809 H 279.914 0.626706 1.94765 0
M  V30 2810 H 279.924 -0.664867 4.02546 0
M  V30 2811 H 278.599 0.482653 4.1309 0
M  V30 2812 H 277.176 -1.24248 3.51592 0
M  V30 2813 N 279.361 -1.56624 0.175154 0
M  V30 2814 C 280.589 -2.01374 -0.474971 0
M  V30 2815 C 281.004 -1.05537 -1.56548 0
M  V30 2816 O 280.361 -0.0568668 -1.82411 0
M  V30 2817 C 280.412 -3.45923 -1.04975 0
M  V30 2818 O 280.133 -4.381 -0.00276605 0
M  V30 2819 C 281.634 -4.06093 -1.77773 0
M  V30 2820 H 278.854 -0.659962 -0.121206 0
M  V30 2821 H 281.398 -2.02601 0.27801 0
M  V30 2822 H 279.553 -3.45458 -1.75321 0
M  V30 2823 H 279.967 -5.22753 -0.427681 0
M  V30 2824 H 281.441 -5.09147 -2.13245 0
M  V30 2825 H 281.918 -3.48405 -2.67414 0
M  V30 2826 H 282.524 -4.10272 -1.12059 0
M  V30 2827 N 280.839 0.0985539 -1.57292 0
M  V30 2828 C 282.085 0.803867 -1.86188 0
M  V30 2829 C 282.418 1.78549 -0.763794 0
M  V30 2830 O 281.693 1.93153 0.22855 0
M  V30 2831 C 281.976 1.53568 -3.25713 0
M  V30 2832 C 281.829 0.572277 -4.46145 0
M  V30 2833 C 283.148 2.48708 -3.63087 0
M  V30 2834 H 280.267 0.290781 -0.677211 0
M  V30 2835 H 282.909 0.0675783 -1.8988 0
M  V30 2836 H 281.059 2.16332 -3.22696 0
M  V30 2837 H 282.731 -0.0480894 -4.61275 0
M  V30 2838 H 280.974 -0.114618 -4.33649 0
M  V30 2839 H 281.645 1.12139 -5.40489 0
M  V30 2840 H 284.121 1.96039 -3.67026 0
M  V30 2841 H 282.997 2.96932 -4.61652 0
M  V30 2842 H 283.258 3.32309 -2.91588 0
M  V30 2843 N 282.317 1.53212 0.369288 0
M  V30 2844 C 283.264 1.79388 1.45219 0
M  V30 2845 C 284.234 0.638059 1.53356 0
M  V30 2846 O 285.419 0.879852 1.69302 0
M  V30 2847 C 282.559 1.98623 2.82211 0
M  V30 2848 C 281.672 3.26337 2.8307 0
M  V30 2849 C 280.807 3.35779 4.11614 0
M  V30 2850 C 279.846 4.5754 4.06601 0
M  V30 2851 N 278.983 4.64155 5.26787 0
M  V30 2852 H 283.823 2.71794 1.22198 0
M  V30 2853 H 281.36 1.34642 0.592444 0
M  V30 2854 H 283.318 2.07761 3.61789 0
M  V30 2855 H 281.948 1.09558 3.03639 0
M  V30 2856 H 281 3.26171 1.95747 0
M  V30 2857 H 282.312 4.15988 2.75237 0
M  V30 2858 H 281.466 3.44208 4.99606 0
M  V30 2859 H 280.205 2.44137 4.22195 0
M  V30 2860 H 279.21 4.49215 3.16996 0
M  V30 2861 H 280.435 5.50519 3.97625 0
M  V30 2862 H 278.381 3.75413 5.3796 0
M  V30 2863 H 278.298 5.47706 5.21109 0
M  V30 2864 H 279.566 4.76863 6.16621 0
M  V30 2865 N 283.795 -0.628877 1.44509 0
M  V30 2866 C 285.041 -1.38863 1.48623 0
M  V30 2867 C 285.396 -1.92038 0.117933 0
M  V30 2868 O 284.689 -1.70853 -0.86716 0
M  V30 2869 C 284.883 -2.56995 2.48371 0
M  V30 2870 C 284.712 -2.15385 3.94765 0
M  V30 2871 C 283.482 -2.02558 4.62924 0
M  V30 2872 C 285.68 -1.74158 4.83915 0
M  V30 2873 N 283.662 -1.54534 5.94132 0
M  V30 2874 C 285.033 -1.37396 6.04584 0
M  V30 2875 C 287.088 -1.61559 4.7096 0
M  V30 2876 C 285.791 -0.892948 7.13736 0
M  V30 2877 C 287.817 -1.14862 5.80139 0
M  V30 2878 C 287.179 -0.790516 6.9995 0
M  V30 2879 H 283.278 -0.502858 0.59888 0
M  V30 2880 H 285.862 -0.72121 1.8085 0
M  V30 2881 H 284.033 -3.21362 2.1813 0
M  V30 2882 H 285.765 -3.23801 2.42766 0
M  V30 2883 H 282.52 -2.23082 4.1777 0
M  V30 2884 H 282.944 -1.32815 6.63844 0
M  V30 2885 H 287.586 -1.87876 3.78764 0
M  V30 2886 H 285.304 -0.617291 8.05739 0
M  V30 2887 H 288.89 -1.05569 5.72142 0
M  V30 2888 H 287.77 -0.434713 7.82994 0
M  V30 2889 N 285.273 -1.31445 -0.869486 0
M  V30 2890 C 286.684 -1.19042 -1.43826 0
M  V30 2891 C 287.035 0.202919 -1.95148 0
M  V30 2892 O 286.16 1.10071 -1.86315 0
M  V30 2893 C 286.755 -2.15499 -2.6143 0
M  V30 2894 C 285.314 -2.07028 -3.14351 0
M  V30 2895 C 284.461 -2.04701 -1.87063 0
M  V30 2896 H 287.412 -1.43489 -0.677984 0
M  V30 2897 H 287.433 -1.74488 -3.38134 0
M  V30 2898 H 286.945 -3.16899 -2.24046 0
M  V30 2899 H 285.046 -1.08825 -3.56354 0
M  V30 2900 H 285.159 -2.96157 -3.766 0
M  V30 2901 H 283.523 -1.49724 -2.06046 0
M  V30 2902 H 284.306 -3.07857 -1.51917 0
M  V30 2903 N 286.751 1.08385 -1.14413 0
M  V30 2904 C 288 1.80153 -0.907076 0
M  V30 2905 C 288.313 1.87176 0.567851 0
M  V30 2906 O 289.519 2.55359 0.922172 0
M  V30 2907 C 287.975 3.23687 -1.57336 0
M  V30 2908 C 287.583 3.24897 -3.08457 0
M  V30 2909 C 289.327 4.00136 -1.41744 0
M  V30 2910 C 287.234 4.6302 -3.67921 0
M  V30 2911 H 286.164 0.675139 -0.335714 0
M  V30 2912 H 288.815 1.21733 -1.37307 0
M  V30 2913 H 287.197 3.82234 -1.03505 0
M  V30 2914 H 288.371 2.76055 -3.68958 0
M  V30 2915 H 286.686 2.61943 -3.2369 0
M  V30 2916 H 289.283 5.02201 -1.83572 0
M  V30 2917 H 289.626 4.14709 -0.363576 0
M  V30 2918 H 290.159 3.48058 -1.92614 0
M  V30 2919 H 286.898 4.5365 -4.73161 0
M  V30 2920 H 286.418 5.12143 -3.12201 0
M  V30 2921 H 288.097 5.31994 -3.68227 0
M  V30 2922 N 288.23 0.939286 1.26551 0
M  V30 2923 C 289.478 0.58469 1.93457 0
M  V30 2924 C 289.799 -0.878774 1.74076 0
M  V30 2925 O 289.069 -1.62421 1.09528 0
M  V30 2926 H 287.649 0.21325 0.715914 0
M  V30 2927 H 290.311 1.1942 1.54029 0
M  V30 2928 H 289.407 0.800849 3.0165 0
M  V30 2929 N 289.708 -1.40897 0.706093 0
M  V30 2930 C 290.638 -2.33418 0.0620085 0
M  V30 2931 C 291.619 -1.52385 -0.755827 0
M  V30 2932 O 292.804 -1.80886 -0.706674 0
M  V30 2933 C 289.934 -3.36293 -0.867445 0
M  V30 2934 C 288.888 -4.27716 -0.155932 0
M  V30 2935 C 288.214 -5.2105 -1.20046 0
M  V30 2936 C 289.514 -5.12944 0.984149 0
M  V30 2937 H 291.208 -2.87527 0.83477 0
M  V30 2938 H 288.754 -1.38249 0.402875 0
M  V30 2939 H 290.707 -3.99949 -1.32735 0
M  V30 2940 H 289.431 -2.80556 -1.67199 0
M  V30 2941 H 288.09 -3.65498 0.284047 0
M  V30 2942 H 287.738 -4.61624 -1.99781 0
M  V30 2943 H 287.438 -5.83056 -0.729328 0
M  V30 2944 H 288.962 -5.87584 -1.66066 0
M  V30 2945 H 290.376 -5.70109 0.604048 0
M  V30 2946 H 288.773 -5.83945 1.38304 0
M  V30 2947 H 289.843 -4.49485 1.81911 0
M  V30 2948 N 291.186 -0.45159 -1.50991 0
M  V30 2949 C 292.434 0.109857 -2.01801 0
M  V30 2950 C 292.755 1.41958 -1.3369 0
M  V30 2951 O 292.025 1.9003 -0.475951 0
M  V30 2952 H 290.605 0.0435884 -0.745727 0
M  V30 2953 H 293.267 -0.597557 -1.85514 0
M  V30 2954 H 292.363 0.275489 -3.10882 0
M  V30 2955 N 292.664 1.56529 -0.183458 0
M  V30 2956 C 293.912 1.96855 0.457452 0
M  V30 2957 C 294.233 1.07104 1.62953 0
M  V30 2958 O 293.503 0.139887 1.954 0
M  V30 2959 H 292.083 0.72693 0.171992 0
M  V30 2960 H 294.745 1.93056 -0.267476 0
M  V30 2961 H 293.841 3.01423 0.809368 0
M  V30 2962 N 294.142 -0.090211 1.57342 0
M  V30 2963 C 295.089 -1.10909 2.02405 0
M  V30 2964 C 296.059 -1.39523 0.901252 0
M  V30 2965 O 297.244 -1.50903 1.1676 0
M  V30 2966 C 294.384 -2.42277 2.45755 0
M  V30 2967 C 293.497 -2.20352 3.71576 0
M  V30 2968 C 292.632 -3.45154 4.03785 0
M  V30 2969 C 291.671 -3.18512 5.22701 0
M  V30 2970 N 290.808 -4.35593 5.50639 0
M  V30 2971 H 295.648 -0.71782 2.89225 0
M  V30 2972 H 293.185 -0.342901 1.43048 0
M  V30 2973 H 295.143 -3.18951 2.68935 0
M  V30 2974 H 293.773 -2.79242 1.61938 0
M  V30 2975 H 292.825 -1.34458 3.55844 0
M  V30 2976 H 294.137 -1.96661 4.58395 0
M  V30 2977 H 293.291 -4.30233 4.27767 0
M  V30 2978 H 292.03 -3.71904 3.15498 0
M  V30 2979 H 291.035 -2.31827 4.98534 0
M  V30 2980 H 292.26 -2.93103 6.12591 0
M  V30 2981 H 290.206 -4.6241 4.6531 0
M  V30 2982 H 290.123 -4.1511 6.31838 0
M  V30 2983 H 291.391 -5.21723 5.7916 0
M  V30 2984 N 295.62 -1.53406 -0.361157 0
M  V30 2985 C 296.868 -1.69467 -1.10115 0
M  V30 2986 C 297.189 -0.451352 -1.89705 0
M  V30 2987 O 296.459 0.534636 -1.88463 0
M  V30 2988 H 295.039 -0.624749 -0.409508 0
M  V30 2989 H 297.701 -1.90609 -0.406699 0
M  V30 2990 H 296.797 -2.55774 -1.78847 0
M  V30 2991 N 297.098 0.621204 -1.44841 0
M  V30 2992 C 298.046 1.75385 -1.52784 0
M  V30 2993 C 299.04 1.64639 -0.398779 0
M  V30 2994 O 300.246 1.70598 -0.574137 0
M  V30 2995 H 296.621 0.579193 -0.479625 0
M  V30 2996 H 298.592 1.6581 -2.48092 0
M  V30 2997 C 297.341 3.13742 -1.4987 0
M  V30 2998 H 296.664 3.22663 -2.36069 0
M  V30 2999 H 298.104 3.92861 -1.59487 0
M  V30 3000 C 296.563 3.36175 -0.220973 0
M  V30 3001 O 297.093 3.95469 0.704782 0
M  V30 3002 N 295.299 2.90348 -0.120963 0
M  V30 3003 H 294.846 2.42278 -0.875162 0
M  V30 3004 H 294.804 3.05732 0.733168 0
M  V30 3005 N 298.576 1.31904 0.862503 0
M  V30 3006 C 299.853 1.12644 1.59908 0
M  V30 3007 C 300.233 -0.316104 2.0872 0
M  V30 3008 O 299.581 -1.31145 1.87118 0
M  V30 3009 C 299.791 2.1472 2.7513 0
M  V30 3010 C 301.139 2.47637 3.44907 0
M  V30 3011 O 302.163 2.13205 2.85346 0
M  V30 3012 O 301.022 3.06632 4.52371 0
M  V30 3013 H 298.116 0.43416 0.703871 0
M  V30 3014 H 300.662 1.43408 0.907314 0
M  V30 3015 H 299.434 3.1172 2.3653 0
M  V30 3016 H 299.057 1.84905 3.51989 0
M  V30 3017 N 300.054 -1.07777 1.14986 0
M  V30 3018 C 301.302 -1.79934 0.920235 0
M  V30 3019 C 301.623 -1.86955 -0.554336 0
M  V30 3020 O 300.893 -1.36731 -1.40291 0
M  V30 3021 H 299.473 -0.666424 0.337473 0
M  V30 3022 H 302.135 -1.3027 1.44968 0
M  V30 3023 H 301.231 -2.82539 1.32583 0
M  V30 3024 N 301.532 -0.945985 -1.26051 0
M  V30 3025 C 302.781 -0.591836 -1.92822 0
M  V30 3026 C 303.094 0.873956 -1.7499 0
M  V30 3027 O 304.3 1.33769 -2.36259 0
M  V30 3028 C 302.756 -1.00776 -3.45503 0
M  V30 3029 C 302.364 -2.4955 -3.7206 0
M  V30 3030 C 304.108 -0.725735 -4.1825 0
M  V30 3031 C 302.015 -2.84988 -5.18205 0
M  V30 3032 H 300.945 -0.217635 -0.721908 0
M  V30 3033 H 303.596 -1.14927 -1.43052 0
M  V30 3034 H 301.978 -0.378812 -3.94184 0
M  V30 3035 H 303.152 -3.1739 -3.34066 0
M  V30 3036 H 301.467 -2.75133 -3.12555 0
M  V30 3037 H 304.064 -0.966771 -5.25887 0
M  V30 3038 H 304.407 0.337639 -4.14929 0
M  V30 3039 H 304.94 -1.31463 -3.7545 0
M  V30 3040 H 301.679 -3.90307 -5.26631 0
M  V30 3041 H 301.199 -2.21813 -5.57278 0
M  V30 3042 H 302.878 -2.73712 -5.86252 0
M  V30 3043 N 303.011 1.40521 -0.713556 0
M  V30 3044 C 303.974 2.29098 -0.0684347 0
M  V30 3045 C 304.974 1.45268 0.689472 0
M  V30 3046 O 306.164 1.66205 0.521677 0
M  V30 3047 C 303.296 3.28446 0.913024 0
M  V30 3048 H 304.489 2.87645 -0.84855 0
M  V30 3049 H 302.042 1.48809 -0.47809 0
M  V30 3050 H 302.777 2.74913 1.72027 0
M  V30 3051 H 302.562 3.90327 0.372472 0
M  V30 3052 H 304.052 3.94777 1.36165 0
M  V30 3053 N 304.489 0.459591 1.5075 0
M  V30 3054 C 305.452 -0.329093 2.26825 0
M  V30 3055 C 306.452 -0.930481 1.31144 0
M  V30 3056 O 307.642 -0.801453 1.54669 0
M  V30 3057 C 304.774 -1.46768 3.07688 0
M  V30 3058 H 305.967 0.337924 2.9799 0
M  V30 3059 H 303.52 0.213336 1.54837 0
M  V30 3060 H 304.255 -2.17009 2.40993 0
M  V30 3061 H 304.04 -1.04238 3.77991 0
M  V30 3062 H 305.53 -2.02433 3.65254 0
M  V30 3063 N 305.967 -1.56429 0.191757 0
M  V30 3064 C 307.214 -1.97485 -0.447891 0
M  V30 3065 C 307.542 -1.07852 -1.61859 0
M  V30 3066 O 306.797 -0.116903 -1.95351 0
M  V30 3067 C 307.096 -3.44449 -0.953384 0
M  V30 3068 C 306.762 -4.50781 0.103586 0
M  V30 3069 C 305.424 -4.79584 0.394023 0
M  V30 3070 C 307.776 -5.1471 0.819946 0
M  V30 3071 C 305.104 -5.69607 1.40585 0
M  V30 3072 C 307.456 -6.05827 1.8209 0
M  V30 3073 C 306.12 -6.32987 2.11857 0
M  V30 3074 H 305.39 -0.722648 -0.163895 0
M  V30 3075 H 308.037 -1.89322 0.28802 0
M  V30 3076 H 306.342 -3.49666 -1.76751 0
M  V30 3077 H 308.039 -3.73569 -1.45765 0
M  V30 3078 H 304.629 -4.28394 -0.132951 0
M  V30 3079 H 308.813 -4.92552 0.608789 0
M  V30 3080 H 304.069 -5.88926 1.64243 0
M  V30 3081 H 308.243 -6.54424 2.38123 0
M  V30 3082 H 305.87 -7.02544 2.90407 0
M  V30 3083 N 307.445 0.0818655 -1.57387 0
M  V30 3084 C 308.691 0.784074 -1.8703 0
M  V30 3085 C 309.024 1.77729 -0.782689 0
M  V30 3086 O 308.299 1.93384 0.208051 0
M  V30 3087 C 308.582 1.50105 -3.27323 0
M  V30 3088 C 308.435 0.524925 -4.46727 0
M  V30 3089 C 309.754 2.44843 -3.65705 0
M  V30 3090 H 306.873 0.283582 -0.680257 0
M  V30 3091 H 309.515 0.0474352 -1.89941 0
M  V30 3092 H 307.665 2.12897 -3.24972 0
M  V30 3093 H 309.337 -0.0970111 -4.61198 0
M  V30 3094 H 307.58 -0.160606 -4.33503 0
M  V30 3095 H 308.251 1.064 -5.41648 0
M  V30 3096 H 310.727 1.92135 -3.69085 0
M  V30 3097 H 309.603 2.92018 -4.64776 0
M  V30 3098 H 309.864 3.29197 -2.95096 0
M  V30 3099 N 308.923 1.53595 0.353017 0
M  V30 3100 C 309.855 1.77219 1.45348 0
M  V30 3101 C 310.868 0.65324 1.49119 0
M  V30 3102 O 312.057 0.929775 1.52373 0
M  V30 3103 C 309.157 1.84841 2.84055 0
M  V30 3104 C 308.33 3.14649 3.03833 0
M  V30 3105 C 307.389 3.13351 4.22727 0
M  V30 3106 O 306.415 3.87107 4.17297 0
M  V30 3107 N 307.617 2.35052 5.30783 0
M  V30 3108 H 310.382 2.72178 1.25457 0
M  V30 3109 H 307.943 1.52528 0.542833 0
M  V30 3110 H 309.935 1.81435 3.61751 0
M  V30 3111 H 308.505 0.971114 2.97133 0
M  V30 3112 H 307.725 3.31256 2.13689 0
M  V30 3113 H 309.013 4.00411 3.13925 0
M  V30 3114 H 308.411 1.74663 5.38061 0
M  V30 3115 H 306.968 2.37453 6.07009 0
M  V30 3116 N 310.401 -0.613514 1.45168 0
M  V30 3117 C 311.817 -0.933629 1.29443 0
M  V30 3118 C 312.017 -2.00028 0.243101 0
M  V30 3119 O 311.073 -2.49848 -0.364992 0
M  V30 3120 C 312.386 -1.38018 2.67155 0
M  V30 3121 C 313.934 -1.49471 2.75004 0
M  V30 3122 C 314.409 -1.97503 4.13227 0
M  V30 3123 N 315.9 -2.04746 4.15491 0
M  V30 3124 C 316.635 -2.43121 5.19307 0
M  V30 3125 N 316.131 -2.80506 6.33473 0
M  V30 3126 N 317.924 -2.43408 5.06664 0
M  V30 3127 H 310.075 0.0916097 2.12202 0
M  V30 3128 H 312.338 -0.0216655 0.947752 0
M  V30 3129 H 312.044 -0.670625 3.45247 0
M  V30 3130 H 311.918 -2.34784 2.95222 0
M  V30 3131 H 314.305 -2.19519 1.9722 0
M  V30 3132 H 314.386 -0.510342 2.50657 0
M  V30 3133 H 314.03 -1.28045 4.91495 0
M  V30 3134 H 313.96 -2.96843 4.34962 0
M  V30 3135 H 316.451 -1.78468 3.33103 0
M  V30 3136 H 316.764 -3.08652 7.08487 0
M  V30 3137 H 315.109 -2.78216 6.36884 0
M  V30 3138 H 318.3 -2.13604 4.16523 0
M  V30 3139 H 318.473 -2.72989 5.87691 0
M  V30 3140 N 311.879 -1.3236 -0.855495 0
M  V30 3141 C 312.809 -1.23833 -1.97958 0
M  V30 3142 C 313.79 -0.122361 -1.69659 0
M  V30 3143 O 314.975 -0.30939 -1.9172 0
M  V30 3144 C 312.105 -0.959772 -3.33775 0
M  V30 3145 C 311.059 -2.03689 -3.76424 0
M  V30 3146 C 310.385 -1.61075 -5.09862 0
M  V30 3147 C 311.685 -3.4518 -3.9198 0
M  V30 3148 H 313.379 -2.1788 -2.0535 0
M  V30 3149 H 310.925 -1.04891 -0.986605 0
M  V30 3150 H 312.878 -0.886678 -4.11966 0
M  V30 3151 H 311.602 0.0163404 -3.26596 0
M  V30 3152 H 310.261 -2.10012 -3.00484 0
M  V30 3153 H 309.909 -0.622107 -4.99138 0
M  V30 3154 H 309.609 -2.33143 -5.39368 0
M  V30 3155 H 311.133 -1.55201 -5.90546 0
M  V30 3156 H 312.547 -3.4145 -4.60526 0
M  V30 3157 H 310.944 -4.1559 -4.32903 0
M  V30 3158 H 312.014 -3.84903 -2.94919 0
M  V30 3159 N 313.357 1.07166 -1.15556 0
M  V30 3160 C 314.768 1.6127 -0.940693 0
M  V30 3161 C 315.119 1.89251 0.517551 0
M  V30 3162 O 314.244 1.65937 1.38903 0
M  V30 3163 C 314.839 2.92993 -1.7012 0
M  V30 3164 C 313.398 3.43832 -1.53156 0
M  V30 3165 C 312.545 2.1786 -1.71558 0
M  V30 3166 H 315.496 0.90229 -1.30554 0
M  V30 3167 H 315.517 3.62007 -1.17181 0
M  V30 3168 H 315.029 2.72596 -2.76248 0
M  V30 3169 H 313.13 3.69307 -0.494294 0
M  V30 3170 H 313.243 4.19747 -2.30975 0
M  V30 3171 H 311.607 2.2765 -1.14225 0
M  V30 3172 H 312.39 1.99956 -2.79056 0
M  V30 3173 N 314.835 0.952656 1.25548 0
M  V30 3174 C 316.083 0.605176 1.92826 0
M  V30 3175 C 316.404 -0.860261 1.74999 0
M  V30 3176 O 315.674 -1.6125 1.11244 0
M  V30 3177 H 314.254 0.220832 0.713612 0
M  V30 3178 H 316.916 1.21047 1.52754 0
M  V30 3179 H 316.012 0.832798 3.00784 0
M  V30 3180 N 316.313 -1.40141 0.720998 0
M  V30 3181 C 317.276 -2.29058 0.0805834 0
M  V30 3182 C 318.276 -1.45632 -0.681758 0
M  V30 3183 O 319.466 -1.6648 -0.512856 0
M  V30 3184 C 316.598 -3.28925 -0.895593 0
M  V30 3185 H 317.791 -2.87191 0.863793 0
M  V30 3186 H 315.344 -1.48553 0.485975 0
M  V30 3187 H 316.079 -2.75822 -1.70566 0
M  V30 3188 H 315.864 -3.90519 -0.351766 0
M  V30 3189 H 317.354 -3.95494 -1.34069 0
M  V30 3190 N 317.792 -0.46758 -1.50504 0
M  V30 3191 C 319.041 0.0902868 -2.01498 0
M  V30 3192 C 319.354 1.411 -1.35463 0
M  V30 3193 O 320.56 2.0536 -1.77594 0
M  V30 3194 C 319.016 0.21142 -3.59278 0
M  V30 3195 C 318.624 -1.10065 -4.34269 0
M  V30 3196 C 320.368 0.721433 -4.18325 0
M  V30 3197 C 318.275 -0.943505 -5.83825 0
M  V30 3198 H 317.205 0.037517 -0.753066 0
M  V30 3199 H 319.856 -0.601943 -1.73346 0
M  V30 3200 H 318.238 0.967352 -3.84003 0
M  V30 3201 H 319.412 -1.86726 -4.21272 0
M  V30 3202 H 317.727 -1.5415 -3.86816 0
M  V30 3203 H 320.324 0.85598 -5.27804 0
M  V30 3204 H 320.667 1.71186 -3.79475 0
M  V30 3205 H 321.2 0.0229843 -3.97793 0
M  V30 3206 H 317.939 -1.90719 -6.27141 0
M  V30 3207 H 317.459 -0.217213 -5.99407 0
M  V30 3208 H 319.138 -0.608715 -6.4413 0
M  V30 3209 N 319.27 1.56325 -0.20005 0
M  V30 3210 C 320.518 1.97329 0.436547 0
M  V30 3211 C 320.839 1.08826 1.61808 0
M  V30 3212 O 320.109 0.160604 1.95241 0
M  V30 3213 H 318.689 0.728714 0.164272 0
M  V30 3214 H 321.351 1.92761 -0.287937 0
M  V30 3215 H 320.447 3.02264 0.777353 0
M  V30 3216 N 320.748 -0.0735177 1.57428 0
M  V30 3217 C 321.978 -0.78483 1.91112 0
M  V30 3218 C 322.386 -1.71729 0.7941 0
M  V30 3219 O 321.729 -1.82105 -0.241542 0
M  V30 3220 C 321.791 -1.63346 3.20247 0
M  V30 3221 C 321.455 -0.870557 4.48632 0
M  V30 3222 C 322.452 -0.19058 5.19551 0
M  V30 3223 C 320.137 -0.838242 4.95256 0
M  V30 3224 C 322.131 0.511503 6.35344 0
M  V30 3225 C 319.818 -0.132386 6.10957 0
M  V30 3226 C 320.816 0.541288 6.80852 0
M  V30 3227 O 320.504 1.23578 7.94345 0
M  V30 3228 H 320.236 -0.228408 0.636244 0
M  V30 3229 H 322.79 -0.0486039 2.05342 0
M  V30 3230 H 321.02 -2.41245 3.02222 0
M  V30 3231 H 322.709 -2.22329 3.39595 0
M  V30 3232 H 323.475 -0.206864 4.84559 0
M  V30 3233 H 319.354 -1.35206 4.40727 0
M  V30 3234 H 322.898 1.03789 6.89836 0
M  V30 3235 H 318.795 -0.114023 6.45399 0
M  V30 3236 H 319.563 1.14487 8.10454 0
M  V30 3237 N 322.226 -1.5378 -0.344866 0
M  V30 3238 C 323.472 -1.71216 -1.08687 0
M  V30 3239 C 323.805 -0.473281 -1.88345 0
M  V30 3240 O 323.08 0.52968 -1.87149 0
M  V30 3241 C 323.363 -2.97486 -2.02914 0
M  V30 3242 C 323.216 -4.31579 -1.26727 0
M  V30 3243 C 324.535 -3.19422 -3.0275 0
M  V30 3244 H 321.654 -0.62301 -0.393735 0
M  V30 3245 H 324.296 -1.8645 -0.365563 0
M  V30 3246 H 322.446 -2.84629 -2.64421 0
M  V30 3247 H 324.118 -4.56284 -0.67845 0
M  V30 3248 H 322.361 -4.30049 -0.569273 0
M  V30 3249 H 323.032 -5.16106 -1.95803 0
M  V30 3250 H 325.508 -3.316 -2.51357 0
M  V30 3251 H 324.384 -4.09169 -3.65885 0
M  V30 3252 H 324.645 -2.35656 -3.74057 0
M  V30 3253 N 323.704 0.605807 -1.45491 0
M  V30 3254 C 324.614 1.74466 -1.56839 0
M  V30 3255 C 325.63 1.68006 -0.452772 0
M  V30 3256 O 326.806 1.8833 -0.713708 0
M  V30 3257 C 323.871 3.10931 -1.53371 0
M  V30 3258 C 322.932 3.28832 -2.75986 0
M  V30 3259 C 322.165 4.58787 -2.72673 0
M  V30 3260 O 322.388 5.4122 -1.80102 0
M  V30 3261 O 321.322 4.79438 -3.63899 0
M  V30 3262 H 325.148 1.67843 -2.53106 0
M  V30 3263 H 322.733 0.770108 -1.28022 0
M  V30 3264 H 324.615 3.92233 -1.54051 0
M  V30 3265 H 323.29 3.18042 -0.602572 0
M  V30 3266 H 322.197 2.47112 -2.80867 0
M  V30 3267 H 323.53 3.26599 -3.68231 0
M  V30 3268 N 325.182 1.32811 0.848464 0
M  V30 3269 C 326.412 1.26556 1.63301 0
M  V30 3270 C 326.82 -0.1676 1.88456 0
M  V30 3271 O 326.163 -1.11713 1.45828 0
M  V30 3272 C 326.225 1.96202 3.01239 0
M  V30 3273 C 325.889 3.45528 2.99098 0
M  V30 3274 C 326.886 4.40903 2.75501 0
M  V30 3275 C 324.571 3.87558 3.19537 0
M  V30 3276 C 326.565 5.76282 2.72356 0
M  V30 3277 C 324.252 5.23044 3.16019 0
M  V30 3278 C 325.25 6.17217 2.92458 0
M  V30 3279 O 324.938 7.50223 2.88825 0
M  V30 3280 H 324.67 0.43771 0.515156 0
M  V30 3281 H 327.224 1.7559 1.0657 0
M  V30 3282 H 325.454 1.41746 3.59785 0
M  V30 3283 H 327.143 1.83573 3.62016 0
M  V30 3284 H 327.909 4.09756 2.5947 0
M  V30 3285 H 323.788 3.14674 3.369 0
M  V30 3286 H 327.332 6.4976 2.53886 0
M  V30 3287 H 323.229 5.53818 3.31596 0
M  V30 3288 H 323.997 7.59657 3.04735 0
M  V30 3289 N 326.66 -1.06551 1.16123 0
M  V30 3290 C 327.623 -2.12132 0.867906 0
M  V30 3291 C 328.623 -1.60224 -0.135944 0
M  V30 3292 O 329.813 -1.73943 0.0946422 0
M  V30 3293 C 326.945 -3.396 0.297419 0
M  V30 3294 H 328.138 -2.39586 1.80385 0
M  V30 3295 H 325.691 -1.22574 0.969812 0
M  V30 3296 H 326.426 -3.17794 -0.64633 0
M  V30 3297 H 326.211 -3.78581 1.02073 0
M  V30 3298 H 327.701 -4.17455 0.110052 0
M  V30 3299 N 328.138 -0.959301 -1.25041 0
M  V30 3300 C 329.368 -0.63303 -1.96663 0
M  V30 3301 C 329.776 0.800031 -1.71453 0
M  V30 3302 O 329.119 1.54736 -0.99008 0
M  V30 3303 C 329.181 -0.817523 -3.50081 0
M  V30 3304 C 328.845 -2.22863 -3.98975 0
M  V30 3305 C 329.842 -3.20569 -4.09306 0
M  V30 3306 C 327.527 -2.55407 -4.32519 0
M  V30 3307 C 329.521 -4.4891 -4.52503 0
M  V30 3308 C 327.208 -3.83976 -4.754 0
M  V30 3309 C 328.206 -4.8054 -4.85356 0
M  V30 3310 O 327.894 -6.06817 -5.27284 0
M  V30 3311 H 327.626 -0.235866 -0.633516 0
M  V30 3312 H 330.18 -1.2874 -1.60047 0
M  V30 3313 H 328.41 -0.105992 -3.86555 0
M  V30 3314 H 330.099 -0.491604 -4.02912 0
M  V30 3315 H 330.865 -2.96753 -3.83618 0
M  V30 3316 H 326.744 -1.8097 -4.23994 0
M  V30 3317 H 330.288 -5.24283 -4.60188 0
M  V30 3318 H 326.185 -4.07596 -5.00535 0
M  V30 3319 H 326.953 -6.10262 -5.45457 0
M  V30 3320 N 329.616 1.39756 -0.72842 0
M  V30 3321 C 330.579 2.29012 -0.0927297 0
M  V30 3322 C 331.579 1.45992 0.674025 0
M  V30 3323 O 332.769 1.66749 0.50402 0
M  V30 3324 C 329.901 3.29396 0.878137 0
M  V30 3325 H 331.094 2.86729 -0.879011 0
M  V30 3326 H 328.647 1.48293 -0.493847 0
M  V30 3327 H 329.382 2.76722 1.69101 0
M  V30 3328 H 329.167 3.907 0.331051 0
M  V30 3329 H 330.657 3.96199 1.3197 0
M  V30 3330 N 331.094 0.475555 1.50254 0
M  V30 3331 C 332.041 -0.316293 2.28622 0
M  V30 3332 C 333.011 -0.983227 1.33873 0
M  V30 3333 O 334.196 -0.994805 1.62814 0
M  V30 3334 C 331.336 -1.38975 3.1588 0
M  V30 3335 C 330.449 -0.737146 4.25664 0
M  V30 3336 C 329.584 -1.78887 5.00173 0
M  V30 3337 C 328.623 -1.11676 6.01826 0
M  V30 3338 N 327.76 -2.11154 6.69596 0
M  V30 3339 H 332.6 0.358297 2.95838 0
M  V30 3340 H 330.137 0.188541 1.45887 0
M  V30 3341 H 332.095 -2.02383 3.64825 0
M  V30 3342 H 330.725 -2.03344 2.50701 0
M  V30 3343 H 329.777 0.0096065 3.80399 0
M  V30 3344 H 331.089 -0.206816 4.98371 0
M  V30 3345 H 330.243 -2.49865 5.52859 0
M  V30 3346 H 328.982 -2.35302 4.27182 0
M  V30 3347 H 327.987 -0.392633 5.48396 0
M  V30 3348 H 329.212 -0.55945 6.76792 0
M  V30 3349 H 327.158 -2.66577 5.99394 0
M  V30 3350 H 327.075 -1.63118 7.38193 0
M  V30 3351 H 328.343 -2.81497 7.26897 0
M  V30 3352 N 332.573 -1.56217 0.208337 0
M  V30 3353 C 333.505 -2.1695 -0.739276 0
M  V30 3354 C 334.518 -1.13492 -1.1672 0
M  V30 3355 O 335.707 -1.40529 -1.10063 0
M  V30 3356 C 332.807 -2.72755 -2.01142 0
M  V30 3357 C 331.98 -4.0125 -1.74118 0
M  V30 3358 C 331.039 -4.41749 -2.85909 0
M  V30 3359 O 330.065 -5.08912 -2.54946 0
M  V30 3360 N 331.267 -4.06342 -4.14568 0
M  V30 3361 H 334.032 -2.98893 -0.219837 0
M  V30 3362 H 331.593 -1.61878 0.0268445 0
M  V30 3363 H 333.585 -2.96826 -2.75094 0
M  V30 3364 H 332.155 -1.95191 -2.4417 0
M  V30 3365 H 331.375 -3.85173 -0.838775 0
M  V30 3366 H 332.663 -4.851 -1.53477 0
M  V30 3367 H 332.061 -3.52345 -4.42571 0
M  V30 3368 H 330.618 -4.35335 -4.85105 0
M  V30 3369 N 334.051 0.0651679 -1.57465 0
M  V30 3370 C 334.999 1.09542 -2.05191 0
M  V30 3371 C 335.993 1.39675 -0.958509 0
M  V30 3372 O 337.199 1.39003 -1.14359 0
M  V30 3373 H 333.574 0.370623 -0.654326 0
M  V30 3374 H 335.545 0.666802 -2.90854 0
M  V30 3375 C 334.294 2.39881 -2.51699 0
M  V30 3376 H 333.617 2.17547 -3.3543 0
M  V30 3377 H 335.057 3.104 -2.88839 0
M  V30 3378 C 333.516 3.0631 -1.40271 0
M  V30 3379 O 334.046 3.94664 -0.748523 0
M  V30 3380 N 332.252 2.67041 -1.14618 0
M  V30 3381 H 331.799 1.95281 -1.67997 0
M  V30 3382 H 331.757 3.1181 -0.402688 0
M  V30 3383 N 335.529 1.53961 0.336706 0
M  V30 3384 C 336.477 1.83136 1.43401 0
M  V30 3385 C 337.471 0.702313 1.54156 0
M  V30 3386 O 338.677 0.885765 1.56698 0
M  V30 3387 H 335.052 0.580309 0.478273 0
M  V30 3388 H 337.023 2.74925 1.16012 0
M  V30 3389 C 335.772 2.06385 2.79822 0
M  V30 3390 H 335.095 2.92718 2.72316 0
M  V30 3391 H 336.535 2.30761 3.55704 0
M  V30 3392 C 334.994 0.851414 3.25964 0
M  V30 3393 O 335.524 0.0541904 4.01663 0
M  V30 3394 N 333.73 0.66672 2.82848 0
M  V30 3395 H 333.277 1.31665 2.21409 0
M  V30 3396 H 333.235 -0.143032 3.14074 0
M  V30 3397 N 337.007 -0.598083 1.45811 0
M  V30 3398 C 337.937 -1.71873 1.58057 0
M  V30 3399 C 338.918 -1.64533 0.431615 0
M  V30 3400 O 340.103 -1.82787 0.65595 0
M  V30 3401 C 337.233 -3.10495 1.55597 0
M  V30 3402 C 336.187 -3.32654 2.69305 0
M  V30 3403 C 335.513 -4.71646 2.51902 0
M  V30 3404 C 336.813 -3.21981 4.11248 0
M  V30 3405 H 338.507 -1.61881 2.51863 0
M  V30 3406 H 336.053 -0.777372 1.21214 0
M  V30 3407 H 338.006 -3.88699 1.6276 0
M  V30 3408 H 336.73 -3.2135 0.583255 0
M  V30 3409 H 335.389 -2.56843 2.61586 0
M  V30 3410 H 335.037 -4.79246 1.52748 0
M  V30 3411 H 334.737 -4.87426 3.2816 0
M  V30 3412 H 336.261 -5.52038 2.60933 0
M  V30 3413 H 337.675 -3.90049 4.20161 0
M  V30 3414 H 336.072 -3.49289 4.87972 0
M  V30 3415 H 337.142 -2.1928 4.32486 0
M  V30 3416 N 338.485 -1.33259 -0.841409 0
M  V30 3417 C 339.448 -1.23221 -1.9326 0
M  V30 3418 C 340.448 -0.151895 -1.60081 0
M  V30 3419 O 341.638 -0.403246 -1.69468 0
M  V30 3420 C 338.77 -0.898123 -3.28856 0
M  V30 3421 H 339.963 -2.2021 -2.03587 0
M  V30 3422 H 337.516 -1.17281 -1.03319 0
M  V30 3423 H 338.251 0.0693841 -3.24226 0
M  V30 3424 H 338.036 -1.67934 -3.54317 0
M  V30 3425 H 339.526 -0.852563 -4.08805 0
M  V30 3426 N 339.963 1.05934 -1.16686 0
M  V30 3427 C 341.193 1.82226 -0.973515 0
M  V30 3428 C 341.601 1.8297 0.481532 0
M  V30 3429 O 340.944 1.25009 1.34604 0
M  V30 3430 C 341.006 3.29897 -1.42858 0
M  V30 3431 C 340.67 3.52849 -2.90425 0
M  V30 3432 C 341.667 3.45595 -3.88407 0
M  V30 3433 C 339.352 3.80053 -3.28428 0
M  V30 3434 C 341.346 3.65217 -5.22394 0
M  V30 3435 C 339.033 3.99325 -4.62583 0
M  V30 3436 C 340.031 3.91905 -5.59374 0
M  V30 3437 O 339.719 4.10647 -6.91104 0
M  V30 3438 H 339.451 0.581314 -0.345036 0
M  V30 3439 H 342.005 1.3453 -1.55212 0
M  V30 3440 H 340.235 3.78472 -0.793477 0
M  V30 3441 H 341.924 3.87692 -1.20207 0
M  V30 3442 H 342.69 3.24564 -3.60393 0
M  V30 3443 H 338.569 3.84936 -2.53664 0
M  V30 3444 H 342.113 3.59341 -5.9793 0
M  V30 3445 H 338.01 4.19846 -4.90306 0
M  V30 3446 H 338.778 4.27915 -6.97733 0
M  V30 3447 N 341.441 0.965919 1.2453 0
M  V30 3448 C 342.669 0.644385 1.96609 0
M  V30 3449 C 343.084 -0.785823 1.71669 0
M  V30 3450 O 342.441 -1.52703 0.999399 0
M  V30 3451 C 342.492 0.907375 3.49927 0
M  V30 3452 O 342.213 2.28136 3.74013 0
M  V30 3453 C 343.714 0.599784 4.39224 0
M  V30 3454 H 340.934 0.240588 0.626385 0
M  V30 3455 H 343.478 1.29337 1.58405 0
M  V30 3456 H 341.633 0.304631 3.862 0
M  V30 3457 H 342.047 2.36002 4.68405 0
M  V30 3458 H 343.521 0.834263 5.45659 0
M  V30 3459 H 343.998 -0.465921 4.36722 0
M  V30 3460 H 344.604 1.18235 4.08535 0
M  V30 3461 N 342.919 -1.39368 0.735821 0
M  V30 3462 C 343.866 -2.30599 0.0963825 0
M  V30 3463 C 344.836 -1.49257 -0.728794 0
M  V30 3464 O 346.021 -1.77941 -0.688588 0
M  V30 3465 C 343.161 -3.35596 -0.804305 0
M  V30 3466 C 342.274 -4.31987 0.0335761 0
M  V30 3467 C 341.409 -5.24053 -0.868461 0
M  V30 3468 C 340.448 -6.12095 -0.0258776 0
M  V30 3469 N 339.585 -6.96514 -0.883893 0
M  V30 3470 H 344.425 -2.8471 0.880002 0
M  V30 3471 H 341.962 -1.40188 0.445619 0
M  V30 3472 H 343.92 -3.95062 -1.34096 0
M  V30 3473 H 342.55 -2.82938 -1.55389 0
M  V30 3474 H 341.602 -3.74133 0.68766 0
M  V30 3475 H 342.914 -4.94074 0.685036 0
M  V30 3476 H 342.068 -5.88549 -1.47293 0
M  V30 3477 H 340.807 -4.62289 -1.5537 0
M  V30 3478 H 339.812 -5.4661 0.591386 0
M  V30 3479 H 341.037 -6.75923 0.656156 0
M  V30 3480 H 338.983 -6.37318 -1.55441 0
M  V30 3481 H 338.9 -7.55448 -0.288931 0
M  V30 3482 H 340.168 -7.65439 -1.4739 0
M  V30 3483 N 344.397 -0.483516 -1.5 0
M  V30 3484 C 345.327 0.293829 -2.31644 0
M  V30 3485 C 346.308 0.978864 -1.39112 0
M  V30 3486 O 347.493 0.973644 -1.68029 0
M  V30 3487 C 344.623 1.36897 -3.19181 0
M  V30 3488 C 343.577 0.804833 -4.20365 0
M  V30 3489 C 342.903 1.9792 -4.96721 0
M  V30 3490 C 344.203 -0.192313 -5.21946 0
M  V30 3491 H 345.897 -0.387616 -2.9688 0
M  V30 3492 H 343.443 -0.187856 -1.42769 0
M  V30 3493 H 345.396 1.92037 -3.751 0
M  V30 3494 H 344.12 2.07936 -2.51853 0
M  V30 3495 H 342.779 0.275319 -3.65565 0
M  V30 3496 H 342.427 2.67686 -4.25856 0
M  V30 3497 H 342.127 1.60789 -5.65173 0
M  V30 3498 H 343.651 2.53526 -5.55479 0
M  V30 3499 H 345.065 0.270333 -5.72662 0
M  V30 3500 H 343.462 -0.478543 -5.98189 0
M  V30 3501 H 344.532 -1.11409 -4.71928 0
M  V30 3502 N 345.875 1.56104 -0.216619 0
M  V30 3503 C 347.124 1.97348 0.416744 0
M  V30 3504 C 347.437 1.10715 1.6125 0
M  V30 3505 O 348.643 1.41836 2.31506 0
M  V30 3506 C 347.099 3.51059 0.792835 0
M  V30 3507 C 346.707 4.46387 -0.379828 0
M  V30 3508 C 348.451 4.01026 1.39208 0
M  V30 3509 C 346.358 5.91397 0.0184223 0
M  V30 3510 H 345.288 0.736942 0.159475 0
M  V30 3511 H 347.939 1.80827 -0.31205 0
M  V30 3512 H 346.321 3.63162 1.57891 0
M  V30 3513 H 347.495 4.46029 -1.15737 0
M  V30 3514 H 345.81 4.06734 -0.891979 0
M  V30 3515 H 348.407 5.0686 1.70286 0
M  V30 3516 H 348.75 3.46587 2.30614 0
M  V30 3517 H 349.283 3.92125 0.669537 0
M  V30 3518 H 346.022 6.49807 -0.862002 0
M  V30 3519 H 345.542 5.94961 0.760384 0
M  V30 3520 H 347.221 6.45455 0.446818 0
M  V30 3521 N 347.353 -0.0568162 1.57498 0
M  V30 3522 C 348.578 -0.769402 1.92601 0
M  V30 3523 C 349.003 -1.69559 0.814336 0
M  V30 3524 O 348.361 -1.79811 -0.231903 0
M  V30 3525 C 348.409 -1.52634 3.26704 0
M  V30 3526 O 347.513 -2.63797 3.16994 0
M  V30 3527 H 346.854 -0.208909 0.63028 0
M  V30 3528 H 349.384 -0.0205798 2.0459 0
M  V30 3529 H 349.394 -1.90234 3.60936 0
M  V30 3530 H 348.069 -0.846875 4.07186 0
M  V30 3531 H 346.646 -2.28943 2.94346 0
M  V30 3532 N 348.832 -1.54138 -0.328536 0
M  V30 3533 C 349.795 -1.82462 -1.38709 0
M  V30 3534 C 350.795 -0.696229 -1.44946 0
M  V30 3535 O 351.985 -0.964535 -1.4506 0
M  V30 3536 C 349.117 -1.98018 -2.77492 0
M  V30 3537 H 350.31 -2.77037 -1.14851 0
M  V30 3538 H 347.863 -1.45779 -0.563751 0
M  V30 3539 H 348.598 -1.05637 -3.06613 0
M  V30 3540 H 348.383 -2.80124 -2.74359 0
M  V30 3541 H 349.873 -2.21396 -3.54081 0
M  V30 3542 N 350.31 0.590341 -1.46126 0
M  V30 3543 C 351.587 1.35029 -1.41515 0
M  V30 3544 C 351.967 2.10888 -0.0946472 0
M  V30 3545 O 351.315 2.08998 0.923693 0
M  V30 3546 C 351.525 2.28269 -2.63997 0
M  V30 3547 C 352.873 2.90338 -3.09821 0
M  V30 3548 O 353.897 2.38585 -2.64492 0
M  V30 3549 O 352.756 3.84321 -3.88535 0
M  V30 3550 H 349.85 0.606317 -0.562413 0
M  V30 3551 H 352.396 0.611994 -1.58281 0
M  V30 3552 H 351.168 1.71591 -3.51671 0
M  V30 3553 H 350.791 3.0945 -2.49652 0
M  V30 3554 N 351.788 1.33704 0.83433 0
M  V30 3555 C 353.036 1.25169 1.58673 0
M  V30 3556 C 353.357 -0.18127 1.94156 0
M  V30 3557 O 352.627 -1.11113 1.6134 0
M  V30 3558 H 351.207 0.4603 0.58833 0
M  V30 3559 H 353.869 1.67478 0.996847 0
M  V30 3560 H 352.965 1.84856 2.51465 0
M  V30 3561 N 353.266 -1.05314 1.17247 0
M  V30 3562 C 354.213 -2.13031 0.888058 0
M  V30 3563 C 355.183 -1.65253 -0.167537 0
M  V30 3564 O 356.368 -1.90775 -0.0305974 0
M  V30 3565 C 353.508 -3.42702 0.406147 0
M  V30 3566 C 352.621 -4.04161 1.52572 0
M  V30 3567 C 351.756 -5.21744 0.997808 0
M  V30 3568 C 350.795 -5.75207 2.09291 0
M  V30 3569 N 349.932 -6.84094 1.57986 0
M  V30 3570 H 354.772 -2.36698 1.81048 0
M  V30 3571 H 352.309 -1.16121 0.903013 0
M  V30 3572 H 354.267 -4.17059 0.108305 0
M  V30 3573 H 352.897 -3.19222 -0.479313 0
M  V30 3574 H 351.949 -3.27253 1.93931 0
M  V30 3575 H 353.261 -4.39881 2.35172 0
M  V30 3576 H 352.415 -6.03168 0.653739 0
M  V30 3577 H 351.154 -4.87495 0.141232 0
M  V30 3578 H 350.159 -4.92414 2.44557 0
M  V30 3579 H 351.384 -6.11505 2.95362 0
M  V30 3580 H 349.33 -6.51745 0.74598 0
M  V30 3581 H 349.247 -7.18811 2.34195 0
M  V30 3582 H 350.515 -7.69172 1.26468 0
M  V30 3583 N 354.744 -0.972509 -1.24016 0
M  V30 3584 C 356.155 -0.67517 -1.74064 0
M  V30 3585 C 356.506 0.808939 -1.78747 0
M  V30 3586 O 355.631 1.63286 -1.42009 0
M  V30 3587 C 356.226 -1.21889 -3.16115 0
M  V30 3588 C 354.785 -0.971358 -3.6365 0
M  V30 3589 C 353.932 -1.35134 -2.42145 0
M  V30 3590 H 356.883 -1.14727 -1.09651 0
M  V30 3591 H 356.904 -0.587489 -3.75937 0
M  V30 3592 H 356.416 -2.29906 -3.12674 0
M  V30 3593 H 354.517 0.0930686 -3.72484 0
M  V30 3594 H 354.63 -1.62039 -4.50866 0
M  V30 3595 H 352.994 -0.769751 -2.4279 0
M  V30 3596 H 353.777 -2.4411 -2.41381 0
M  V30 3597 N 356.222 1.38976 -0.743202 0
M  V30 3598 C 357.468 2.0064 -0.295189 0
M  V30 3599 C 357.801 1.5885 1.11716 0
M  V30 3600 O 357.076 0.821181 1.76315 0
M  V30 3601 C 357.359 3.578 -0.406318 0
M  V30 3602 C 357.212 4.09586 -1.85903 0
M  V30 3603 C 358.531 4.39616 0.206439 0
M  V30 3604 H 355.65 0.728935 -0.108733 0
M  V30 3605 H 358.292 1.65067 -0.940897 0
M  V30 3606 H 356.442 3.88235 0.143419 0
M  V30 3607 H 358.114 3.89837 -2.46627 0
M  V30 3608 H 356.357 3.6284 -2.3776 0
M  V30 3609 H 357.028 5.18708 -1.888 0
M  V30 3610 H 359.504 4.15273 -0.262283 0
M  V30 3611 H 358.38 5.48812 0.0983819 0
M  V30 3612 H 358.641 4.22754 1.2935 0
M  V30 3613 N 357.7 0.491464 1.49741 0
M  V30 3614 C 358.925 -0.0557177 2.07325 0
M  V30 3615 C 359.35 -1.30925 1.35056 0
M  V30 3616 O 358.708 -1.76733 0.404365 0
M  V30 3617 C 358.756 -0.302074 3.59333 0
M  V30 3618 O 357.86 -1.37868 3.88672 0
M  V30 3619 H 357.201 0.0219956 0.663636 0
M  V30 3620 H 359.731 0.688352 1.92673 0
M  V30 3621 H 359.741 -0.536464 4.04458 0
M  V30 3622 H 358.416 0.61383 4.11345 0
M  V30 3623 H 356.993 -1.12999 3.55367 0
M  V30 3624 N 359.178 -1.55987 0.224894 0
M  V30 3625 C 360.589 -1.84553 -0.282345 0
M  V30 3626 C 360.94 -1.14634 -1.59227 0
M  V30 3627 O 360.065 -0.417155 -2.12341 0
M  V30 3628 C 360.66 -3.348 -0.519062 0
M  V30 3629 C 359.219 -3.63671 -0.970604 0
M  V30 3630 C 358.366 -2.77277 -0.0355261 0
M  V30 3631 H 361.317 -1.52245 0.448006 0
M  V30 3632 H 361.338 -3.55187 -1.36463 0
M  V30 3633 H 360.85 -3.8566 0.43449 0
M  V30 3634 H 358.951 -3.1827 -1.9374 0
M  V30 3635 H 359.064 -4.71631 -0.842698 0
M  V30 3636 H 357.428 -2.48846 -0.542927 0
M  V30 3637 H 358.211 -3.30937 0.913003 0
M  V30 3638 N 360.656 0.0484629 -1.57525 0
M  V30 3639 C 361.884 0.755421 -1.92616 0
M  V30 3640 C 362.299 1.69919 -0.822984 0
M  V30 3641 O 361.656 1.81378 0.202085 0
M  V30 3642 C 361.707 1.52915 -3.27566 0
M  V30 3643 O 361.428 0.62329 -4.33644 0
M  V30 3644 C 362.929 2.33502 -3.76818 0
M  V30 3645 H 360.149 0.213465 -0.63614 0
M  V30 3646 H 362.693 0.0117698 -2.04497 0
M  V30 3647 H 360.848 2.22486 -3.17142 0
M  V30 3648 H 361.262 1.16383 -5.11425 0
M  V30 3649 H 362.736 2.83214 -4.73808 0
M  V30 3650 H 363.213 3.14068 -3.07014 0
M  V30 3651 H 363.819 1.69043 -3.90262 0
M  V30 3652 N 362.134 1.5431 0.320358 0
M  V30 3653 C 363.044 1.86946 1.41734 0
M  V30 3654 C 364.06 0.761689 1.56443 0
M  V30 3655 O 365.236 1.05629 1.71477 0
M  V30 3656 C 362.301 2.09293 2.76401 0
M  V30 3657 C 361.362 3.33082 2.70841 0
M  V30 3658 C 360.595 3.54353 3.99086 0
M  V30 3659 O 360.818 2.79002 4.97508 0
M  V30 3660 O 359.752 4.47838 4.0215 0
M  V30 3661 H 363.578 2.80232 1.17062 0
M  V30 3662 H 361.163 1.40255 0.514673 0
M  V30 3663 H 363.045 2.25303 3.56113 0
M  V30 3664 H 361.72 1.19194 3.00956 0
M  V30 3665 H 360.627 3.22454 1.89668 0
M  V30 3666 H 361.96 4.23249 2.5124 0
M  V30 3667 N 363.613 -0.582584 1.46437 0
M  V30 3668 C 364.523 -1.71949 1.59595 0
M  V30 3669 C 365.539 -1.67264 0.479443 0
M  V30 3670 O 366.715 -1.87171 0.743579 0
M  V30 3671 C 363.78 -3.08452 1.58298 0
M  V30 3672 C 362.841 -3.244 2.81182 0
M  V30 3673 C 362.074 -4.54391 2.79937 0
M  V30 3674 O 362.297 -5.38287 1.8869 0
M  V30 3675 O 361.231 -4.73588 3.71481 0
M  V30 3676 H 365.057 -1.63795 2.55744 0
M  V30 3677 H 362.642 -0.749643 1.29231 0
M  V30 3678 H 364.524 -3.89732 1.60271 0
M  V30 3679 H 363.199 -3.17043 0.653094 0
M  V30 3680 H 362.106 -2.42613 2.84763 0
M  V30 3681 H 363.439 -3.20699 3.7338 0
M  V30 3682 N 365.091 -1.34144 -0.827227 0
M  V30 3683 C 366.039 -1.25364 -1.95925 0
M  V30 3684 C 367.033 -0.152608 -1.68711 0
M  V30 3685 O 368.239 -0.317311 -1.77181 0
M  V30 3686 H 364.614 -0.389342 -0.643364 0
M  V30 3687 H 366.585 -2.21045 -2.00454 0
M  V30 3688 C 365.334 -1.02158 -3.32354 0
M  V30 3689 H 364.657 -1.86111 -3.5384 0
M  V30 3690 H 366.097 -1.00048 -4.12027 0
M  V30 3691 C 364.556 0.275244 -3.35774 0
M  V30 3692 O 365.086 1.27806 -3.80826 0
M  V30 3693 N 363.292 0.306853 -2.88975 0
M  V30 3694 H 362.839 -0.509777 -2.52506 0
M  V30 3695 H 362.797 1.17432 -2.91646 0
M  V30 3696 N 366.569 1.04691 -1.17803 0
M  V30 3697 C 367.816 1.77782 -0.969532 0
M  V30 3698 C 368.144 1.87926 0.501401 0
M  V30 3699 O 367.399 1.37918 1.38842 0
M  V30 3700 C 367.698 3.21467 -1.56186 0
M  V30 3701 C 367.364 3.3137 -3.05786 0
M  V30 3702 C 366.026 3.3378 -3.46619 0
M  V30 3703 C 368.378 3.31976 -4.01797 0
M  V30 3704 C 365.706 3.34431 -4.82051 0
M  V30 3705 C 368.058 3.34167 -5.37136 0
M  V30 3706 C 366.722 3.34866 -5.77426 0
M  V30 3707 H 365.992 0.650549 -0.354777 0
M  V30 3708 H 368.639 1.23006 -1.46772 0
M  V30 3709 H 366.944 3.79203 -0.985515 0
M  V30 3710 H 368.641 3.76652 -1.37602 0
M  V30 3711 H 365.231 3.3021 -2.73238 0
M  V30 3712 H 369.415 3.29311 -3.71306 0
M  V30 3713 H 364.671 3.33285 -5.12573 0
M  V30 3714 H 368.845 3.33585 -6.11305 0
M  V30 3715 H 366.472 3.35124 -6.82346 0
M  V30 3716 N 368.047 0.979072 1.23499 0
M  V30 3717 C 369.01 0.523244 2.23147 0
M  V30 3718 C 370.01 -0.386406 1.56088 0
M  V30 3719 O 371.2 -0.180283 1.73265 0
M  V30 3720 C 368.332 -0.240739 3.40049 0
M  V30 3721 H 369.525 1.40432 2.64989 0
M  V30 3722 H 367.078 0.764824 1.36309 0
M  V30 3723 H 367.813 -1.13841 3.03662 0
M  V30 3724 H 367.598 0.412207 3.89927 0
M  V30 3725 H 369.088 -0.548297 4.13985 0
M  V30 3726 N 369.525 -1.3858 0.750561 0
M  V30 3727 C 370.473 -2.32339 0.110162 0
M  V30 3728 C 371.467 -1.53864 -0.708674 0
M  V30 3729 O 372.673 -1.69417 -0.608112 0
M  V30 3730 H 369.048 -0.751812 0.0168275 0
M  V30 3731 H 371.019 -2.83959 0.917053 0
M  V30 3732 C 369.768 -3.39043 -0.771067 0
M  V30 3733 H 369.091 -3.99517 -0.150374 0
M  V30 3734 H 370.531 -4.07061 -1.1865 0
M  V30 3735 C 368.99 -2.77365 -1.91234 0
M  V30 3736 O 369.52 -2.66434 -3.00626 0
M  V30 3737 N 367.726 -2.35219 -1.70646 0
M  V30 3738 H 367.273 -2.4431 -0.81673 0
M  V30 3739 H 367.231 -1.94294 -2.47178 0
M  V30 3740 N 371.003 -0.499398 -1.49478 0
M  V30 3741 C 371.966 0.268838 -2.27618 0
M  V30 3742 C 372.966 0.895383 -1.33565 0
M  V30 3743 O 374.156 0.760164 -1.56739 0
M  V30 3744 C 371.288 1.38559 -3.11471 0
M  V30 3745 H 372.481 -0.416812 -2.96989 0
M  V30 3746 H 370.034 -0.254313 -1.54217 0
M  V30 3747 H 370.769 2.10544 -2.46661 0
M  V30 3748 H 370.554 0.941797 -3.80621 0
M  V30 3749 H 372.044 1.92678 -3.70493 0
M  V30 3750 N 372.481 1.55866 -0.233164 0
M  V30 3751 C 373.444 2.1953 0.658715 0
M  V30 3752 C 374.444 1.16053 1.11303 0
M  V30 3753 O 375.634 1.41218 1.01996 0
M  V30 3754 C 372.766 2.82791 1.90373 0
M  V30 3755 H 373.959 2.99721 0.10347 0
M  V30 3756 H 371.512 1.56291 0.0164245 0
M  V30 3757 H 372.247 2.06501 2.50056 0
M  V30 3758 H 372.032 3.58578 1.58632 0
M  V30 3759 H 373.522 3.31556 2.53891 0
M  V30 3760 N 373.959 -0.0401083 1.57549 0
M  V30 3761 C 374.906 -1.04413 2.05831 0
M  V30 3762 C 375.876 -1.36585 0.945184 0
M  V30 3763 O 377.061 -1.47112 1.21502 0
M  V30 3764 C 374.201 -2.34336 2.53339 0
M  V30 3765 C 373.314 -2.08419 3.78398 0
M  V30 3766 C 372.449 -3.32133 4.14561 0
M  V30 3767 C 371.488 -3.01721 5.3257 0
M  V30 3768 N 370.625 -4.17855 5.64218 0
M  V30 3769 H 375.465 -0.625442 2.91363 0
M  V30 3770 H 373.002 -0.297218 1.44066 0
M  V30 3771 H 374.96 -3.10234 2.78946 0
M  V30 3772 H 373.59 -2.73948 1.7074 0
M  V30 3773 H 372.642 -1.23069 3.59942 0
M  V30 3774 H 373.954 -1.81978 4.64419 0
M  V30 3775 H 373.108 -4.16406 4.41238 0
M  V30 3776 H 371.847 -3.61678 3.2717 0
M  V30 3777 H 370.852 -2.15849 5.05657 0
M  V30 3778 H 372.077 -2.73466 6.21605 0
M  V30 3779 H 370.023 -4.47372 4.79786 0
M  V30 3780 H 369.94 -3.94798 6.44725 0
M  V30 3781 H 371.208 -5.03033 5.95465 0
M  V30 3782 N 375.437 -1.54477 -0.31217 0
M  V30 3783 C 376.685 -1.72884 -1.04668 0
M  V30 3784 C 377.006 -0.511477 -1.88173 0
M  V30 3785 O 376.276 0.474407 -1.90069 0
M  V30 3786 H 374.856 -0.637461 -0.389425 0
M  V30 3787 H 377.518 -1.91807 -0.345852 0
M  V30 3788 H 376.614 -2.61334 -1.70619 0
M  V30 3789 N 376.915 0.57481 -1.46744 0
M  V30 3790 C 377.878 1.66533 -1.57478 0
M  V30 3791 C 378.878 1.54338 -0.451263 0
M  V30 3792 O 380.068 1.58814 -0.715813 0
M  V30 3793 C 377.2 3.05999 -1.50259 0
M  V30 3794 H 378.393 1.58372 -2.54673 0
M  V30 3795 H 375.946 0.793301 -1.34672 0
M  V30 3796 H 376.681 3.19709 -0.543725 0
M  V30 3797 H 376.466 3.16259 -2.31781 0
M  V30 3798 H 377.956 3.8537 -1.60872 0
M  V30 3799 N 378.394 1.34581 0.820102 0
M  V30 3800 C 379.671 1.17675 1.56244 0
M  V30 3801 C 380.051 -0.249541 2.0962 0
M  V30 3802 O 379.399 -1.25125 1.91196 0
M  V30 3803 C 379.609 2.23364 2.6816 0
M  V30 3804 C 380.957 2.58485 3.36854 0
M  V30 3805 O 381.981 2.22175 2.78418 0
M  V30 3806 O 380.84 3.20868 4.42386 0
M  V30 3807 H 377.934 0.456333 0.689702 0
M  V30 3808 H 380.48 1.46222 0.861231 0
M  V30 3809 H 379.252 3.19087 2.26493 0
M  V30 3810 H 378.875 1.96009 3.45928 0
M  V30 3811 N 379.872 -1.04064 1.18357 0
M  V30 3812 C 381.118 -1.77658 0.990412 0
M  V30 3813 C 381.473 -1.86446 -0.474944 0
M  V30 3814 O 380.766 -1.36153 -1.34807 0
M  V30 3815 C 380.96 -3.20634 1.57888 0
M  V30 3816 C 380.789 -3.25782 3.09994 0
M  V30 3817 C 379.559 -3.34411 3.7881 0
M  V30 3818 C 381.757 -3.13791 4.0748 0
M  V30 3819 N 379.739 -3.28809 5.18418 0
M  V30 3820 C 381.11 -3.15689 5.33611 0
M  V30 3821 C 383.165 -2.97833 3.98998 0
M  V30 3822 C 381.868 -3.03268 6.52243 0
M  V30 3823 C 383.894 -2.86759 5.17227 0
M  V30 3824 C 383.256 -2.893 6.4225 0
M  V30 3825 H 379.355 -0.661901 0.416427 0
M  V30 3826 H 381.939 -1.23968 1.50133 0
M  V30 3827 H 380.11 -3.7267 1.09414 0
M  V30 3828 H 381.842 -3.82525 1.32124 0
M  V30 3829 H 378.597 -3.40144 3.29543 0
M  V30 3830 H 379.021 -3.29448 5.91433 0
M  V30 3831 H 383.663 -2.94698 3.03171 0
M  V30 3832 H 381.381 -3.05156 7.48268 0
M  V30 3833 H 384.967 -2.75465 5.12455 0
M  V30 3834 H 383.847 -2.80818 7.32196 0
M  V30 3835 N 381.35 -0.985608 -1.22978 0
M  V30 3836 C 382.575 -0.675254 -1.961 0
M  V30 3837 C 383 0.752154 -1.72407 0
M  V30 3838 O 382.358 1.5131 -0.998751 0
M  V30 3839 C 382.406 -0.977899 -3.47087 0
M  V30 3840 O 381.51 -0.072685 -4.12336 0
M  V30 3841 H 380.851 -0.253443 -0.613728 0
M  V30 3842 H 383.381 -1.32061 -1.56272 0
M  V30 3843 H 383.391 -0.916739 -3.97567 0
M  V30 3844 H 382.066 -2.01807 -3.63657 0
M  V30 3845 H 380.643 -0.188703 -3.72422 0
M  V30 3846 N 382.828 1.3818 -0.7579 0
M  V30 3847 C 383.775 2.30416 -0.133057 0
M  V30 3848 C 384.745 1.50398 0.704957 0
M  V30 3849 O 385.93 1.79014 0.660192 0
M  V30 3850 C 383.07 3.36834 0.750813 0
M  V30 3851 C 382.183 4.31879 -0.102297 0
M  V30 3852 C 381.318 5.25368 0.784979 0
M  V30 3853 C 380.357 6.12058 -0.0715046 0
M  V30 3854 N 379.494 6.97832 0.772972 0
M  V30 3855 H 384.334 2.83274 -0.925186 0
M  V30 3856 H 381.871 1.39461 -0.467866 0
M  V30 3857 H 383.829 3.97145 1.27794 0
M  V30 3858 H 382.459 2.85374 1.50868 0
M  V30 3859 H 381.511 3.72991 -0.747095 0
M  V30 3860 H 382.823 4.92921 -0.763552 0
M  V30 3861 H 381.977 5.90818 1.37911 0
M  V30 3862 H 380.716 4.64703 1.47996 0
M  V30 3863 H 379.721 5.456 -0.678272 0
M  V30 3864 H 380.946 6.74793 -0.763606 0
M  V30 3865 H 378.892 6.3971 1.45282 0
M  V30 3866 H 378.809 7.55812 0.168709 0
M  V30 3867 H 380.077 7.67687 1.35194 0
M  V30 3868 N 384.306 0.507319 1.49211 0
M  V30 3869 C 385.534 -0.0315749 2.06876 0
M  V30 3870 C 385.949 -1.30241 1.36685 0
M  V30 3871 O 385.306 -1.76937 0.447152 0
M  V30 3872 C 385.357 -0.282627 3.60393 0
M  V30 3873 O 385.078 0.937835 4.27944 0
M  V30 3874 C 386.579 -0.864453 4.3479 0
M  V30 3875 H 383.799 0.0233048 0.670595 0
M  V30 3876 H 386.343 0.706484 1.91909 0
M  V30 3877 H 384.498 -0.97068 3.75042 0
M  V30 3878 H 384.912 0.704567 5.19746 0
M  V30 3879 H 386.386 -0.989664 5.43056 0
M  V30 3880 H 386.863 -1.86382 3.97692 0
M  V30 3881 H 387.469 -0.213672 4.24763 0
M  V30 3882 N 385.784 -1.5574 0.241426 0
M  V30 3883 C 387.031 -1.9881 -0.384836 0
M  V30 3884 C 387.359 -1.12947 -1.58346 0
M  V30 3885 O 386.614 -0.178993 -1.9488 0
M  V30 3886 C 386.913 -3.47308 -0.843317 0
M  V30 3887 C 386.579 -4.50223 0.246946 0
M  V30 3888 C 385.241 -4.78088 0.546399 0
M  V30 3889 C 387.593 -5.11841 0.983282 0
M  V30 3890 C 384.921 -5.64846 1.58636 0
M  V30 3891 C 387.273 -5.99727 2.01272 0
M  V30 3892 C 385.937 -6.25927 2.31888 0
M  V30 3893 H 385.207 -0.727496 -0.140821 0
M  V30 3894 H 387.854 -1.8831 0.348106 0
M  V30 3895 H 386.159 -3.55112 -1.65537 0
M  V30 3896 H 387.856 -3.78017 -1.33806 0
M  V30 3897 H 384.446 -4.286 0.00340639 0
M  V30 3898 H 388.63 -4.90366 0.765182 0
M  V30 3899 H 383.886 -5.83403 1.82896 0
M  V30 3900 H 388.06 -6.46517 2.58823 0
M  V30 3901 H 385.687 -6.92949 3.12611 0
M  V30 3902 N 387.262 0.0317525 -1.57568 0
M  V30 3903 C 388.225 1.01783 -2.0536 0
M  V30 3904 C 389.225 1.29203 -0.957253 0
M  V30 3905 O 390.415 1.24251 -1.22095 0
M  V30 3906 C 387.547 2.35137 -2.46827 0
M  V30 3907 H 388.74 0.605062 -2.93733 0
M  V30 3908 H 386.293 0.278514 -1.53799 0
M  V30 3909 H 387.028 2.81168 -1.61602 0
M  V30 3910 H 386.813 2.16566 -3.26866 0
M  V30 3911 H 388.303 3.05938 -2.84239 0
M  V30 3912 N 388.74 1.54641 0.303973 0
M  V30 3913 C 389.672 1.81754 1.39636 0
M  V30 3914 C 390.685 0.70035 1.46966 0
M  V30 3915 O 391.874 0.97778 1.49338 0
M  V30 3916 C 388.974 1.93785 2.7803 0
M  V30 3917 C 388.147 3.24156 2.93669 0
M  V30 3918 C 387.206 3.26641 4.12544 0
M  V30 3919 O 386.232 4.00187 4.04771 0
M  V30 3920 N 387.434 2.5182 5.23036 0
M  V30 3921 H 390.199 2.76031 1.16734 0
M  V30 3922 H 387.76 1.54178 0.494033 0
M  V30 3923 H 389.752 1.92852 3.55795 0
M  V30 3924 H 388.322 1.06515 2.93893 0
M  V30 3925 H 387.542 3.37887 2.03042 0
M  V30 3926 H 388.83 4.10195 3.01027 0
M  V30 3927 H 388.228 1.91692 5.32232 0
M  V30 3928 H 386.785 2.56644 5.99147 0
M  V30 3929 N 390.218 -0.567019 1.47046 0
M  V30 3930 C 391.495 -1.3276 1.43646 0
M  V30 3931 C 391.875 -2.1071 0.128186 0
M  V30 3932 O 391.223 -2.10441 -0.890326 0
M  V30 3933 C 391.433 -2.2404 2.67595 0
M  V30 3934 C 392.781 -2.85372 3.14401 0
M  V30 3935 O 393.805 -2.34346 2.68254 0
M  V30 3936 O 392.664 -3.78091 3.946 0
M  V30 3937 H 389.758 -0.597293 0.571988 0
M  V30 3938 H 392.304 -0.586735 1.59234 0
M  V30 3939 H 391.076 -1.65975 3.54356 0
M  V30 3940 H 390.699 -3.05439 2.54544 0
M  V30 3941 N 391.696 -1.35014 -0.812953 0
M  V30 3942 C 392.626 -1.30069 -1.93919 0
M  V30 3943 C 393.607 -0.176275 -1.69184 0
M  V30 3944 O 394.792 -0.370227 -1.90638 0
M  V30 3945 C 391.922 -1.06547 -3.30552 0
M  V30 3946 C 390.876 -2.15561 -3.69753 0
M  V30 3947 C 390.202 -1.77214 -5.04479 0
M  V30 3948 C 391.502 -3.57476 -3.808 0
M  V30 3949 H 393.196 -2.24303 -1.98314 0
M  V30 3950 H 390.742 -1.07977 -0.952736 0
M  V30 3951 H 392.695 -1.01729 -4.08937 0
M  V30 3952 H 391.419 -0.0875719 -3.26483 0
M  V30 3953 H 390.078 -2.19466 -2.9365 0
M  V30 3954 H 389.726 -0.780589 -4.96906 0
M  V30 3955 H 389.426 -2.50184 -5.31678 0
M  V30 3956 H 390.95 -1.7391 -5.8531 0
M  V30 3957 H 392.364 -3.55929 -4.4943 0
M  V30 3958 H 390.761 -4.29152 -4.19462 0
M  V30 3959 H 391.831 -3.94091 -2.82525 0
M  V30 3960 N 393.175 1.03435 -1.18907 0
M  V30 3961 C 394.403 1.80381 -1.01342 0
M  V30 3962 C 394.818 1.83649 0.438005 0
M  V30 3963 O 394.175 1.27655 1.30424 0
M  V30 3964 C 394.226 3.25689 -1.56873 0
M  V30 3965 O 393.947 3.22673 -2.96334 0
M  V30 3966 C 395.448 4.19255 -1.44014 0
M  V30 3967 H 392.668 0.56784 -0.35749 0
M  V30 3968 H 395.212 1.30317 -1.576 0
M  V30 3969 H 393.367 3.72962 -1.04777 0
M  V30 3970 H 393.781 4.13748 -3.22355 0
M  V30 3971 H 395.255 5.19123 -1.87657 0
M  V30 3972 H 395.732 4.37467 -0.389815 0
M  V30 3973 H 396.338 3.77851 -1.95214 0
M  V30 3974 N 394.653 0.992116 1.22453 0
M  V30 3975 C 395.601 0.534644 2.26372 0
M  V30 3976 C 396.595 -0.414293 1.64256 0
M  V30 3977 O 397.801 -0.286899 1.77699 0
M  V30 3978 H 394.176 0.154502 0.735957 0
M  V30 3979 H 396.147 1.42256 2.62309 0
M  V30 3980 C 394.896 -0.135815 3.47435 0
M  V30 3981 H 394.219 0.585311 3.95492 0
M  V30 3982 H 395.659 -0.419374 4.21921 0
M  V30 3983 C 394.118 -1.37089 3.07747 0
M  V30 3984 O 394.648 -2.46629 3.17076 0
M  V30 3985 N 392.854 -1.24585 2.62539 0
M  V30 3986 H 392.401 -0.354542 2.55149 0
M  V30 3987 H 392.359 -2.07327 2.36353 0
M  V30 3988 N 396.131 -1.37776 0.765217 0
M  V30 3989 C 397.063 -2.28958 0.105361 0
M  V30 3990 C 398.076 -1.48316 -0.67128 0
M  V30 3991 O 399.265 -1.71046 -0.51045 0
M  V30 3992 C 396.365 -3.27421 -0.874569 0
M  V30 3993 C 395.538 -4.37132 -0.153123 0
M  V30 3994 C 394.597 -5.1571 -1.04547 0
M  V30 3995 O 393.623 -5.66896 -0.511672 0
M  V30 3996 N 394.825 -5.29808 -2.37243 0
M  V30 3997 H 397.59 -2.86227 0.888495 0
M  V30 3998 H 395.151 -1.49682 0.617 0
M  V30 3999 H 397.143 -3.7687 -1.47483 0
M  V30 4000 H 395.713 -2.70967 -1.55871 0
M  V30 4001 H 394.933 -3.89166 0.627975 0
M  V30 4002 H 396.221 -5.07625 0.345643 0
M  V30 4003 H 395.619 -4.89793 -2.83054 0
M  V30 4004 H 394.176 -5.82589 -2.9229 0
M  V30 4005 N 397.609 -0.515225 -1.4894 0
M  V30 4006 C 398.556 0.255567 -2.29381 0
M  V30 4007 C 399.526 0.947387 -1.36432 0
M  V30 4008 O 400.711 0.951288 -1.65394 0
M  V30 4009 C 397.851 1.30551 -3.19453 0
M  V30 4010 C 396.964 0.624029 -4.27469 0
M  V30 4011 C 396.099 1.65563 -5.0474 0
M  V30 4012 C 395.138 0.956802 -6.04576 0
M  V30 4013 N 394.275 1.93326 -6.74959 0
M  V30 4014 H 399.115 -0.436607 -2.94784 0
M  V30 4015 H 396.652 -0.227154 -1.45336 0
M  V30 4016 H 398.61 1.92639 -3.70062 0
M  V30 4017 H 397.24 1.96626 -2.56004 0
M  V30 4018 H 396.292 -0.110459 -3.8024 0
M  V30 4019 H 397.604 0.0746092 -4.98744 0
M  V30 4020 H 396.758 2.35119 -5.59289 0
M  V30 4021 H 395.497 2.23893 -4.3327 0
M  V30 4022 H 394.502 0.247097 -5.49244 0
M  V30 4023 H 395.727 0.379814 -6.78037 0
M  V30 4024 H 393.673 2.50591 -6.06251 0
M  V30 4025 H 393.59 1.43489 -7.42258 0
M  V30 4026 H 394.858 2.62126 -7.34105 0
M  V30 4027 N 399.087 1.5561 -0.249682 0
M  V30 4028 C 400.335 1.98618 0.373548 0
M  V30 4029 C 400.656 1.13919 1.58264 0
M  V30 4030 O 399.926 0.222637 1.94631 0
M  V30 4031 H 398.506 0.733571 0.141006 0
M  V30 4032 H 401.168 1.91748 -0.349117 0
M  V30 4033 H 400.264 3.04584 0.680796 0
M  V30 4034 N 400.565 -0.0233959 1.57583 0
M  V30 4035 C 401.475 -1.03907 2.10334 0
M  V30 4036 C 402.491 -1.39257 1.04323 0
M  V30 4037 O 403.667 -1.48462 1.36091 0
M  V30 4038 C 400.732 -2.31938 2.57693 0
M  V30 4039 C 399.793 -2.03117 3.78209 0
M  V30 4040 C 399.026 -3.25043 4.233 0
M  V30 4041 O 399.249 -4.35916 3.67876 0
M  V30 4042 O 398.183 -3.10411 5.15683 0
M  V30 4043 H 402.009 -0.620748 2.97288 0
M  V30 4044 H 399.594 -0.240743 1.47448 0
M  V30 4045 H 401.476 -3.07196 2.88458 0
M  V30 4046 H 400.151 -2.73055 1.73847 0
M  V30 4047 H 399.058 -1.25408 3.52454 0
M  V30 4048 H 400.391 -1.66852 4.63056 0
M  V30 4049 N 402.043 -1.548 -0.295768 0
M  V30 4050 C 403.32 -1.65014 -1.05023 0
M  V30 4051 C 403.7 -0.501805 -2.05049 0
M  V30 4052 O 403.048 0.500869 -2.22943 0
M  V30 4053 C 403.258 -3.03252 -1.72741 0
M  V30 4054 C 404.606 -3.60242 -2.24746 0
M  V30 4055 O 405.63 -3.05737 -1.82765 0
M  V30 4056 O 404.489 -4.55687 -3.01681 0
M  V30 4057 H 401.583 -0.669314 -0.485744 0
M  V30 4058 H 404.129 -1.67144 -0.293438 0
M  V30 4059 H 402.901 -3.7827 -1.00138 0
M  V30 4060 H 402.524 -3.04922 -2.55163 0
M  V30 4061 N 403.521 0.559213 -1.47345 0
M  V30 4062 C 404.484 1.64854 -1.59235 0
M  V30 4063 C 405.484 1.53851 -0.467607 0
M  V30 4064 O 406.674 1.58045 -0.732617 0
M  V30 4065 C 403.806 3.04388 -1.53496 0
M  V30 4066 H 404.999 1.55662 -2.56339 0
M  V30 4067 H 402.552 0.778973 -1.35505 0
M  V30 4068 H 403.287 3.19115 -0.577604 0
M  V30 4069 H 403.072 3.13783 -2.35123 0
M  V30 4070 H 404.562 3.83642 -1.6495 0
M  V30 4071 N 404.999 1.35443 0.805782 0
M  V30 4072 C 406.245 1.2996 1.56467 0
M  V30 4073 C 406.6 -0.124742 1.91995 0
M  V30 4074 O 405.893 -1.07533 1.58579 0
M  V30 4075 C 406.087 2.14045 2.86216 0
M  V30 4076 C 405.916 3.64512 2.63365 0
M  V30 4077 C 404.686 4.33744 2.59219 0
M  V30 4078 C 406.884 4.58142 2.33688 0
M  V30 4079 N 404.866 5.69953 2.28094 0
M  V30 4080 C 406.237 5.8248 2.12408 0
M  V30 4081 C 408.292 4.46877 2.19558 0
M  V30 4082 C 406.995 6.96818 1.78429 0
M  V30 4083 C 409.021 5.61065 1.86976 0
M  V30 4084 C 408.383 6.84431 1.66532 0
M  V30 4085 H 404.482 0.530817 0.574245 0
M  V30 4086 H 407.066 1.70333 0.943126 0
M  V30 4087 H 405.237 1.75942 3.46264 0
M  V30 4088 H 406.969 2.00075 3.51784 0
M  V30 4089 H 403.724 3.86365 2.73896 0
M  V30 4090 H 404.148 6.41845 2.15323 0
M  V30 4091 H 408.79 3.52102 2.34061 0
M  V30 4092 H 406.508 7.91559 1.62664 0
M  V30 4093 H 410.094 5.54302 1.7675 0
M  V30 4094 H 408.974 7.71294 1.41688 0
M  V30 4095 N 406.477 -1.02803 1.19454 0
M  V30 4096 C 407.888 -1.57667 0.999899 0
M  V30 4097 C 408.239 -1.91041 -0.446956 0
M  V30 4098 O 407.364 -1.70978 -1.32648 0
M  V30 4099 C 407.959 -2.86477 1.80877 0
M  V30 4100 C 406.518 -3.37911 1.65811 0
M  V30 4101 C 405.665 -2.11343 1.79526 0
M  V30 4102 H 408.616 -0.853214 1.33813 0
M  V30 4103 H 408.637 -3.57408 1.30536 0
M  V30 4104 H 408.149 -2.62155 2.86175 0
M  V30 4105 H 406.25 -3.67218 0.63102 0
M  V30 4106 H 406.363 -4.10885 2.46395 0
M  V30 4107 H 404.727 -2.23254 1.22596 0
M  V30 4108 H 405.51 -1.89461 2.86285 0
M  V30 4109 N 407.956 -0.998596 -1.21925 0
M  V30 4110 C 409.205 -0.673085 -1.90138 0
M  V30 4111 C 409.518 0.79895 -1.78539 0
M  V30 4112 O 410.724 1.23628 -2.4172 0
M  V30 4113 C 409.18 -1.15339 -3.40918 0
M  V30 4114 C 408.788 -2.65106 -3.61141 0
M  V30 4115 C 410.532 -0.902476 -4.14796 0
M  V30 4116 C 408.439 -3.0671 -5.05651 0
M  V30 4117 H 407.369 -0.248057 -0.712028 0
M  V30 4118 H 410.02 -1.20891 -1.38049 0
M  V30 4119 H 408.402 -0.545658 -3.92223 0
M  V30 4120 H 409.576 -3.31274 -3.20304 0
M  V30 4121 H 407.891 -2.88142 -3.00605 0
M  V30 4122 H 410.488 -1.18895 -5.21314 0
M  V30 4123 H 410.831 0.161349 -4.15987 0
M  V30 4124 H 411.364 -1.47269 -3.69536 0
M  V30 4125 H 408.103 -4.12292 -5.09603 0
M  V30 4126 H 407.623 -2.45249 -5.47369 0
M  V30 4127 H 409.302 -2.9833 -5.74115 0
M  V30 4128 N 409.434 1.37368 -0.772513 0
M  V30 4129 C 410.662 2.03942 -0.348588 0
M  V30 4130 C 411.077 1.58264 1.02947 0
M  V30 4131 O 410.434 0.764246 1.65727 0
M  V30 4132 C 410.485 3.5946 -0.38351 0
M  V30 4133 O 410.206 4.03468 -1.70721 0
M  V30 4134 C 411.707 4.4327 0.0519152 0
M  V30 4135 H 408.927 0.654931 -0.145966 0
M  V30 4136 H 411.471 1.75686 -1.04665 0
M  V30 4137 H 409.626 3.86486 0.265978 0
M  V30 4138 H 410.04 4.97991 -1.64636 0
M  V30 4139 H 411.514 5.51995 -0.0236733 0
M  V30 4140 H 411.991 4.2514 1.10238 0
M  V30 4141 H 412.597 4.21471 -0.569415 0
M  V30 4142 N 410.912 0.523116 1.48665 0
M  V30 4143 C 412.137 -0.0117284 2.07397 0
M  V30 4144 C 412.562 -1.28031 1.37803 0
M  V30 4145 O 411.92 -1.75836 0.441762 0
M  V30 4146 C 411.968 -0.225786 3.59892 0
M  V30 4147 O 411.072 -1.29592 3.91509 0
M  V30 4148 H 410.413 0.0360673 0.66302 0
M  V30 4149 H 412.943 0.729066 1.9117 0
M  V30 4150 H 412.953 -0.450552 4.05505 0
M  V30 4151 H 411.628 0.700944 4.09951 0
M  V30 4152 H 410.205 -1.05436 3.57684 0
M  V30 4153 N 412.39 -1.55475 0.257931 0
M  V30 4154 C 413.618 -2.03609 -0.367559 0
M  V30 4155 C 414.033 -1.13687 -1.50734 0
M  V30 4156 O 413.39 -0.153479 -1.81853 0
M  V30 4157 C 413.441 -3.51001 -0.864908 0
M  V30 4158 O 413.162 -4.37499 0.229465 0
M  V30 4159 C 414.663 -4.14946 -1.55997 0
M  V30 4160 H 411.883 -0.665459 -0.0860521 0
M  V30 4161 H 414.427 -2.00843 0.385014 0
M  V30 4162 H 412.582 -3.54266 -1.56762 0
M  V30 4163 H 412.996 -5.24286 -0.14998 0
M  V30 4164 H 414.47 -5.19735 -1.85956 0
M  V30 4165 H 414.947 -3.6209 -2.4857 0
M  V30 4166 H 415.553 -4.15635 -0.901543 0
M  V30 4167 N 413.868 0.0150385 -1.57593 0
M  V30 4168 C 415.096 0.714395 -1.94175 0
M  V30 4169 C 415.511 1.68135 -0.858841 0
M  V30 4170 O 414.868 1.81766 0.163567 0
M  V30 4171 C 414.919 1.45933 -3.30735 0
M  V30 4172 O 414.64 0.531167 -4.34868 0
M  V30 4173 C 416.141 2.25456 -3.81686 0
M  V30 4174 H 413.361 0.199923 -0.640525 0
M  V30 4175 H 415.905 -0.0316096 -2.04476 0
M  V30 4176 H 414.06 2.15709 -3.21789 0
M  V30 4177 H 414.474 1.05509 -5.13778 0
M  V30 4178 H 415.948 2.731 -4.79709 0
M  V30 4179 H 416.425 3.07485 -3.13607 0
M  V30 4180 H 417.031 1.60727 -3.9376 0
M  V30 4181 N 415.346 1.54954 0.287554 0
M  V30 4182 C 416.593 1.74873 1.02106 0
M  V30 4183 C 416.921 0.541829 1.86801 0
M  V30 4184 O 416.176 -0.475992 1.89823 0
M  V30 4185 C 416.475 2.99833 1.94512 0
M  V30 4186 C 416.141 4.33029 1.25686 0
M  V30 4187 C 414.803 4.69233 1.06649 0
M  V30 4188 C 417.155 5.15542 0.765913 0
M  V30 4189 C 414.483 5.85518 0.372222 0
M  V30 4190 C 416.835 6.32542 0.0853101 0
M  V30 4191 C 415.499 6.67398 -0.1169 0
M  V30 4192 H 414.769 0.639906 0.373632 0
M  V30 4193 H 417.416 1.89219 0.294665 0
M  V30 4194 H 415.721 2.80325 2.73725 0
M  V30 4195 H 417.418 3.1244 2.51361 0
M  V30 4196 H 414.008 4.04564 1.41512 0
M  V30 4197 H 418.192 4.88059 0.90066 0
M  V30 4198 H 413.448 6.11057 0.204695 0
M  V30 4199 H 417.622 6.95741 -0.302936 0
M  V30 4200 H 415.249 7.57357 -0.656859 0
M  V30 4201 N 416.824 -0.551391 1.4764 0
M  V30 4202 C 418.073 -1.30467 1.53822 0
M  V30 4203 C 418.386 -1.94495 0.207661 0
M  V30 4204 O 419.592 -2.71099 0.147533 0
M  V30 4205 C 418.048 -2.36616 2.71184 0
M  V30 4206 C 417.656 -1.78754 4.10793 0
M  V30 4207 C 419.4 -3.13088 2.86663 0
M  V30 4208 C 417.307 -2.82717 5.19447 0
M  V30 4209 H 416.237 -0.490584 0.572576 0
M  V30 4210 H 418.888 -0.58494 1.73927 0
M  V30 4211 H 417.27 -3.11529 2.4447 0
M  V30 4212 H 418.444 -1.10173 4.47435 0
M  V30 4213 H 416.759 -1.14846 4.00249 0
M  V30 4214 H 419.356 -3.90736 3.65007 0
M  V30 4215 H 419.699 -3.67635 1.95321 0
M  V30 4216 H 420.232 -2.45288 3.13175 0
M  V30 4217 H 416.971 -2.33018 6.12685 0
M  V30 4218 H 416.491 -3.4969 4.87316 0
M  V30 4219 H 418.17 -3.46102 5.46646 0
M  V30 4220 N 418.302 -1.35869 -0.798587 0
M  V30 4221 C 419.232 -1.32118 -1.92528 0
M  V30 4222 C 420.213 -0.194209 -1.68988 0
M  V30 4223 O 421.398 -0.390426 -1.90235 0
M  V30 4224 C 418.528 -1.10047 -3.29404 0
M  V30 4225 C 417.482 -2.19471 -3.67446 0
M  V30 4226 C 416.808 -1.82555 -5.02571 0
M  V30 4227 C 418.108 -3.61495 -3.76987 0
M  V30 4228 H 419.802 -2.26394 -1.95924 0
M  V30 4229 H 417.348 -1.08981 -0.94123 0
M  V30 4230 H 419.301 -1.06061 -4.07835 0
M  V30 4231 H 418.025 -0.122195 -3.26371 0
M  V30 4232 H 416.684 -2.22568 -2.91306 0
M  V30 4233 H 416.332 -0.833249 -4.9605 0
M  V30 4234 H 416.032 -2.5581 -5.28995 0
M  V30 4235 H 417.556 -1.80108 -5.83432 0
M  V30 4236 H 418.97 -3.60676 -4.4563 0
M  V30 4237 H 417.367 -4.33577 -4.14887 0
M  V30 4238 H 418.437 -3.97065 -2.78329 0
M  V30 4239 N 419.78 1.02168 -1.19998 0
M  V30 4240 C 421.029 1.75091 -1.0013 0
M  V30 4241 C 421.342 1.89923 0.467835 0
M  V30 4242 O 422.548 2.59888 0.785515 0
M  V30 4243 C 421.004 3.14892 -1.74273 0
M  V30 4244 C 420.612 3.0809 -3.25245 0
M  V30 4245 C 422.356 3.9206 -1.62755 0
M  V30 4246 C 420.263 4.42867 -3.91948 0
M  V30 4247 H 419.193 0.656394 -0.37103 0
M  V30 4248 H 421.844 1.14284 -1.43567 0
M  V30 4249 H 420.226 3.7621 -1.2362 0
M  V30 4250 H 421.4 2.5611 -3.83072 0
M  V30 4251 H 419.715 2.44416 -3.3712 0
M  V30 4252 H 422.312 4.91764 -2.09934 0
M  V30 4253 H 422.655 4.12199 -0.582894 0
M  V30 4254 H 423.188 3.37359 -2.10793 0
M  V30 4255 H 419.927 4.27931 -4.96543 0
M  V30 4256 H 419.447 4.94874 -3.3891 0
M  V30 4257 H 421.126 5.11728 -3.95909 0
M  V30 4258 N 421.258 1.00505 1.21394 0
M  V30 4259 C 422.208 0.536503 2.21598 0
M  V30 4260 C 423.192 -0.401914 1.55799 0
M  V30 4261 O 424.384 -0.226757 1.75541 0
M  V30 4262 C 421.513 -0.135446 3.43033 0
M  V30 4263 C 420.599 0.823992 4.16018 0
M  V30 4264 N 420.99 1.97683 4.6557 0
M  V30 4265 C 419.288 0.642387 4.4135 0
M  V30 4266 C 419.989 2.58003 5.21354 0
M  V30 4267 N 418.965 1.86162 5.1073 0
M  V30 4268 H 422.767 1.41557 2.57563 0
M  V30 4269 H 420.281 0.868878 1.37202 0
M  V30 4270 H 422.278 -0.488584 4.14027 0
M  V30 4271 H 420.938 -1.01049 3.08576 0
M  V30 4272 H 421.949 2.3572 4.61147 0
M  V30 4273 H 418.626 -0.185578 4.17087 0
M  V30 4274 H 420.016 3.555 5.70149 0
M  V30 4275 N 422.737 -1.36956 0.779787 0
M  V30 4276 C 423.684 -2.30175 0.169697 0
M  V30 4277 C 424.654 -1.51501 -0.68094 0
M  V30 4278 O 425.839 -1.80042 -0.631629 0
M  V30 4279 C 422.979 -3.37985 -0.697131 0
M  V30 4280 C 422.092 -4.31661 0.170992 0
M  V30 4281 C 421.227 -5.2655 -0.701298 0
M  V30 4282 C 420.266 -6.11867 0.168869 0
M  V30 4283 N 419.403 -6.98973 -0.661855 0
M  V30 4284 H 424.243 -2.81767 0.970135 0
M  V30 4285 H 421.78 -1.38699 0.489994 0
M  V30 4286 H 423.738 -3.99128 -1.2146 0
M  V30 4287 H 422.368 -2.87739 -1.46309 0
M  V30 4288 H 421.42 -3.71756 0.80634 0
M  V30 4289 H 422.732 -4.91644 0.841875 0
M  V30 4290 H 421.886 -5.92937 -1.28494 0
M  V30 4291 H 420.625 -4.66998 -1.40584 0
M  V30 4292 H 419.63 -5.44452 0.764986 0
M  V30 4293 H 420.855 -6.73493 0.870863 0
M  V30 4294 H 418.801 -6.41941 -1.35086 0
M  V30 4295 H 418.718 -7.55984 -0.0484447 0
M  V30 4296 H 419.986 -7.6974 -1.22963 0
M  V30 4297 N 424.215 -0.530993 -1.48385 0
M  V30 4298 C 425.492 0.0671788 -1.95485 0
M  V30 4299 C 425.872 1.51191 -1.47324 0
M  V30 4300 O 425.22 2.17507 -0.700202 0
M  V30 4301 C 425.43 -0.0511206 -3.48963 0
M  V30 4302 C 426.778 0.107632 -4.24464 0
M  V30 4303 O 427.802 0.0226248 -3.56193 0
M  V30 4304 O 426.661 0.285972 -5.45751 0
M  V30 4305 H 423.755 0.0787365 -0.823243 0
M  V30 4306 H 426.301 -0.595662 -1.58902 0
M  V30 4307 H 425.073 -1.05747 -3.7674 0
M  V30 4308 H 424.696 0.650525 -3.92242 0
M  V30 4309 N 425.693 1.55336 -0.266172 0
M  V30 4310 C 426.625 2.19544 0.658247 0
M  V30 4311 C 427.638 1.17746 1.12427 0
M  V30 4312 O 428.827 1.44517 1.04772 0
M  V30 4313 C 425.927 2.80032 1.9088 0
M  V30 4314 C 425.1 4.07436 1.59106 0
M  V30 4315 C 424.159 4.52056 2.69317 0
M  V30 4316 O 423.185 5.18023 2.35883 0
M  V30 4317 N 424.387 4.21448 3.99201 0
M  V30 4318 H 427.152 2.99503 0.108754 0
M  V30 4319 H 424.713 1.61667 -0.0869059 0
M  V30 4320 H 426.705 3.06831 2.63888 0
M  V30 4321 H 425.275 2.04119 2.36758 0
M  V30 4322 H 424.495 3.88021 0.695243 0
M  V30 4323 H 425.783 4.90462 1.35367 0
M  V30 4324 H 425.181 3.68528 4.29189 0
M  V30 4325 H 423.738 4.53039 4.68614 0
M  V30 4326 N 427.171 -0.0066808 1.57599 0
M  V30 4327 C 428.118 -1.00024 2.08 0
M  V30 4328 C 429.088 -1.34549 0.973943 0
M  V30 4329 O 430.273 -1.44502 1.24595 0
M  V30 4330 C 427.413 -2.2891 2.58252 0
M  V30 4331 C 426.526 -2.00346 3.82734 0
M  V30 4332 C 425.661 -3.23265 4.21513 0
M  V30 4333 C 424.7 -2.90357 5.3885 0
M  V30 4334 N 423.837 -4.05793 5.72954 0
M  V30 4335 H 428.677 -0.563499 2.92624 0
M  V30 4336 H 426.214 -0.266592 1.44664 0
M  V30 4337 H 428.172 -3.04247 2.85464 0
M  V30 4338 H 426.802 -2.70265 1.76512 0
M  V30 4339 H 425.854 -1.15406 3.62471 0
M  V30 4340 H 427.166 -1.72086 4.68175 0
M  V30 4341 H 426.32 -4.06953 4.49971 0
M  V30 4342 H 425.059 -3.54657 3.34768 0
M  V30 4343 H 424.064 -2.05075 5.10122 0
M  V30 4344 H 425.289 -2.60219 6.27266 0
M  V30 4345 H 423.235 -4.37094 4.89167 0
M  V30 4346 H 423.152 -3.81034 6.52954 0
M  V30 4347 H 424.42 -4.90289 6.06001 0
M  V30 4348 N 428.649 -1.55105 -0.279332 0
M  V30 4349 C 429.596 -1.8755 -1.34513 0
M  V30 4350 C 430.566 -0.726384 -1.49375 0
M  V30 4351 O 431.751 -0.977063 -1.63884 0
M  V30 4352 C 428.891 -2.14738 -2.70151 0
M  V30 4353 C 428.004 -3.42285 -2.63562 0
M  V30 4354 C 427.139 -3.59206 -3.91337 0
M  V30 4355 C 426.178 -4.80467 -3.79233 0
M  V30 4356 N 425.315 -4.94079 -4.98829 0
M  V30 4357 H 430.155 -2.78456 -1.06143 0
M  V30 4358 H 427.692 -1.37867 -0.512936 0
M  V30 4359 H 429.65 -2.28501 -3.49061 0
M  V30 4360 H 428.28 -1.27075 -2.96735 0
M  V30 4361 H 427.332 -3.37029 -1.76397 0
M  V30 4362 H 428.644 -4.31328 -2.50515 0
M  V30 4363 H 427.798 -3.72751 -4.78687 0
M  V30 4364 H 426.537 -2.68337 -4.07243 0
M  V30 4365 H 425.542 -4.66932 -2.90266 0
M  V30 4366 H 426.767 -5.72765 -3.64852 0
M  V30 4367 H 424.713 -4.06139 -5.15158 0
M  V30 4368 H 424.63 -5.77156 -4.8829 0
M  V30 4369 H 425.898 -5.12003 -5.8777 0
M  V30 4370 N 430.127 0.543554 -1.4793 0
M  V30 4371 C 431.538 1.12561 -1.48953 0
M  V30 4372 C 431.889 1.94578 -0.251754 0
M  V30 4373 O 431.014 2.0665 0.642255 0
M  V30 4374 C 431.609 2.04801 -2.69892 0
M  V30 4375 C 430.168 2.58251 -2.73831 0
M  V30 4376 C 429.315 1.34918 -2.42265 0
M  V30 4377 H 432.266 0.32947 -1.55242 0
M  V30 4378 H 432.287 2.88886 -2.47639 0
M  V30 4379 H 431.799 1.4508 -3.59963 0
M  V30 4380 H 429.9 3.21732 -1.87934 0
M  V30 4381 H 430.013 2.98312 -3.74895 0
M  V30 4382 H 428.377 1.66046 -1.93134 0
M  V30 4383 H 429.16 0.769693 -3.3456 0
M  V30 4384 N 431.605 1.3629 0.791371 0
M  V30 4385 C 432.515 1.32606 1.93527 0
M  V30 4386 C 433.531 0.228541 1.72493 0
M  V30 4387 O 434.707 0.460571 1.96063 0
M  V30 4388 C 431.772 1.11271 3.28359 0
M  V30 4389 C 430.833 2.3048 3.62185 0
M  V30 4390 C 430.066 2.10154 4.90583 0
M  V30 4391 O 430.289 1.07572 5.60165 0
M  V30 4392 O 429.223 2.97884 5.23019 0
M  V30 4393 H 433.049 2.28909 1.99585 0
M  V30 4394 H 430.634 1.16818 0.931344 0
M  V30 4395 H 432.516 1.01283 4.09047 0
M  V30 4396 H 431.191 0.180292 3.23198 0
M  V30 4397 H 430.098 2.46036 2.81811 0
M  V30 4398 H 431.431 3.22221 3.72068 0
M  V30 4399 N 433.083 -1.0153 1.20538 0
M  V30 4400 C 434.015 -2.10224 0.913155 0
M  V30 4401 C 435.028 -1.62495 -0.0995998 0
M  V30 4402 O 436.217 -1.78014 0.131582 0
M  V30 4403 C 433.317 -3.37111 0.347717 0
M  V30 4404 C 432.49 -4.13971 1.41233 0
M  V30 4405 C 431.549 -5.19158 0.857976 0
M  V30 4406 O 430.575 -5.48 1.53897 0
M  V30 4407 N 431.777 -5.7955 -0.331966 0
M  V30 4408 H 434.542 -2.35879 1.84881 0
M  V30 4409 H 432.103 -1.17931 1.10923 0
M  V30 4410 H 434.095 -4.04683 -0.0373026 0
M  V30 4411 H 432.665 -3.08696 -0.492527 0
M  V30 4412 H 431.885 -3.41351 1.97163 0
M  V30 4413 H 433.173 -4.62103 2.12928 0
M  V30 4414 H 432.571 -5.58455 -0.902478 0
M  V30 4415 H 431.128 -6.48464 -0.65861 0
M  V30 4416 N 434.561 -1.01147 -1.20859 0
M  V30 4417 C 435.809 -0.696486 -1.89719 0
M  V30 4418 C 436.13 0.775788 -1.78904 0
M  V30 4419 O 435.4 1.55759 -1.18811 0
M  V30 4420 H 433.98 -0.254628 -0.702263 0
M  V30 4421 H 436.642 -1.28197 -1.46804 0
M  V30 4422 H 435.738 -0.975357 -2.96468 0
M  V30 4423 N 436.039 1.36541 -0.78704 0
M  V30 4424 C 437.267 2.03561 -0.370199 0
M  V30 4425 C 437.682 1.59347 1.01263 0
M  V30 4426 O 437.039 0.781781 1.64907 0
M  V30 4427 C 437.09 3.59033 -0.421614 0
M  V30 4428 O 436.811 4.01634 -1.7499 0
M  V30 4429 C 438.312 4.433 0.00489763 0
M  V30 4430 H 435.532 0.653346 -0.152904 0
M  V30 4431 H 438.076 1.74566 -1.06522 0
M  V30 4432 H 436.231 3.86746 0.224971 0
M  V30 4433 H 436.645 4.96217 -1.69909 0
M  V30 4434 H 438.119 5.51939 -0.0822184 0
M  V30 4435 H 438.596 4.26285 1.05723 0
M  V30 4436 H 439.202 4.20843 -0.614085 0
M  V30 4437 N 437.518 0.538854 1.48102 0
M  V30 4438 C 438.428 -0.222648 2.33541 0
M  V30 4439 C 439.444 -0.930225 1.47047 0
M  V30 4440 O 440.62 -0.903211 1.80011 0
M  V30 4441 C 437.685 -1.25064 3.23357 0
M  V30 4442 C 436.746 -0.552469 4.2573 0
M  V30 4443 C 435.979 -1.53149 5.11254 0
M  V30 4444 O 436.202 -2.76487 4.9891 0
M  V30 4445 O 435.136 -1.06602 5.92385 0
M  V30 4446 H 438.962 0.477707 2.99919 0
M  V30 4447 H 436.547 0.299669 1.46364 0
M  V30 4448 H 438.429 -1.8445 3.78888 0
M  V30 4449 H 437.104 -1.93325 2.59629 0
M  V30 4450 H 436.011 0.082114 3.7401 0
M  V30 4451 H 437.344 0.0883526 4.92121 0
M  V30 4452 N 438.996 -1.55193 0.274407 0
M  V30 4453 C 440.242 -1.99877 -0.343086 0
M  V30 4454 C 440.575 -1.16256 -1.55558 0
M  V30 4455 O 439.85 -0.232462 -1.93106 0
M  V30 4456 C 440.133 -3.52706 -0.725965 0
M  V30 4457 C 439.986 -4.47081 0.493818 0
M  V30 4458 C 441.305 -4.11422 -1.56268 0
M  V30 4459 H 438.424 -0.726625 -0.123229 0
M  V30 4460 H 441.066 -1.86136 0.38121 0
M  V30 4461 H 439.216 -3.64546 -1.34307 0
M  V30 4462 H 440.888 -4.47186 1.13237 0
M  V30 4463 H 439.131 -4.1877 1.13201 0
M  V30 4464 H 439.802 -5.51699 0.18217 0
M  V30 4465 H 442.278 -4.02855 -1.04151 0
M  V30 4466 H 441.154 -5.18568 -1.79939 0
M  V30 4467 H 441.415 -3.61607 -2.54348 0
M  V30 4468 N 440.474 -0.00167713 -1.576 0
M  V30 4469 C 441.404 0.988091 -2.11563 0
M  V30 4470 C 442.385 1.35736 -1.02517 0
M  V30 4471 O 443.57 1.44082 -1.30208 0
M  V30 4472 C 440.7 2.27941 -2.62031 0
M  V30 4473 C 439.654 2.0517 -3.75619 0
M  V30 4474 C 438.98 3.4033 -4.12407 0
M  V30 4475 C 440.28 1.41294 -5.02825 0
M  V30 4476 H 441.974 0.538771 -2.94513 0
M  V30 4477 H 439.52 0.257712 -1.41675 0
M  V30 4478 H 441.473 2.97539 -2.9841 0
M  V30 4479 H 440.197 2.74989 -1.76205 0
M  V30 4480 H 438.856 1.37998 -3.39635 0
M  V30 4481 H 438.504 3.85085 -3.23603 0
M  V30 4482 H 438.204 3.25909 -4.88935 0
M  V30 4483 H 439.728 4.1124 -4.51347 0
M  V30 4484 H 441.142 2.00851 -5.36965 0
M  V30 4485 H 439.539 1.37356 -5.84169 0
M  V30 4486 H 440.609 0.382362 -4.8339 0
M  V30 4487 N 441.952 1.55251 0.271103 0
M  V30 4488 C 442.899 1.88261 1.33516 0
M  V30 4489 C 443.869 0.734296 1.48988 0
M  V30 4490 O 445.054 0.985741 1.63364 0
M  V30 4491 C 442.194 2.16168 2.69008 0
M  V30 4492 C 441.307 3.43678 2.61743 0
M  V30 4493 C 440.442 3.61276 3.89427 0
M  V30 4494 C 439.481 4.82472 3.7668 0
M  V30 4495 N 438.618 4.96717 4.96202 0
M  V30 4496 H 443.458 2.79015 1.04665 0
M  V30 4497 H 440.995 1.38137 0.505618 0
M  V30 4498 H 442.953 2.30349 3.47844 0
M  V30 4499 H 441.583 1.28646 2.96057 0
M  V30 4500 H 440.635 3.37959 1.74607 0
M  V30 4501 H 441.947 4.3265 2.48224 0
M  V30 4502 H 441.101 3.75284 4.76704 0
M  V30 4503 H 439.84 2.70492 4.05814 0
M  V30 4504 H 438.845 4.68465 2.87786 0
M  V30 4505 H 440.07 5.74692 3.61809 0
M  V30 4506 H 438.016 4.08865 5.12997 0
M  V30 4507 H 437.933 5.79738 4.85222 0
M  V30 4508 H 439.201 5.15113 5.85046 0
M  V30 4509 N 443.43 -0.535701 1.48216 0
M  V30 4510 C 444.677 -1.29183 1.55942 0
M  V30 4511 C 445.005 -1.93125 0.230857 0
M  V30 4512 O 444.26 -1.79556 -0.778331 0
M  V30 4513 C 444.559 -2.4068 2.64212 0
M  V30 4514 C 444.225 -1.94428 4.06827 0
M  V30 4515 C 442.887 -1.81532 4.45645 0
M  V30 4516 C 445.239 -1.59405 4.96225 0
M  V30 4517 C 442.567 -1.31939 5.71672 0
M  V30 4518 C 444.919 -1.11276 6.22736 0
M  V30 4519 C 443.583 -0.969924 6.60416 0
M  V30 4520 H 442.853 -0.472715 0.570632 0
M  V30 4521 H 445.5 -0.598437 1.81909 0
M  V30 4522 H 443.805 -3.15666 2.32083 0
M  V30 4523 H 445.502 -2.98822 2.67407 0
M  V30 4524 H 442.092 -2.05415 3.76168 0
M  V30 4525 H 446.276 -1.68231 4.66917 0
M  V30 4526 H 441.532 -1.19562 5.99596 0
M  V30 4527 H 445.706 -0.832453 6.91407 0
M  V30 4528 H 443.333 -0.583436 7.57958 0
M  V30 4529 N 444.908 -1.36708 -0.784132 0
M  V30 4530 C 446.155 -1.31231 -1.54222 0
M  V30 4531 C 446.483 0.106864 -1.94206 0
M  V30 4532 O 445.738 1.07734 -1.63376 0
M  V30 4533 C 446.037 -2.18571 -2.82774 0
M  V30 4534 C 445.703 -3.67039 -2.61903 0
M  V30 4535 C 444.365 -4.07503 -2.55919 0
M  V30 4536 C 446.717 -4.61149 -2.4288 0
M  V30 4537 C 444.045 -5.40211 -2.28886 0
M  V30 4538 C 446.397 -5.94081 -2.17373 0
M  V30 4539 C 445.061 -6.33664 -2.09825 0
M  V30 4540 H 444.331 -0.48021 -0.56434 0
M  V30 4541 H 446.978 -1.68807 -0.904233 0
M  V30 4542 H 445.283 -1.73949 -3.51068 0
M  V30 4543 H 446.98 -2.11655 -3.40592 0
M  V30 4544 H 443.57 -3.34941 -2.67418 0
M  V30 4545 H 447.754 -4.30756 -2.46501 0
M  V30 4546 H 443.01 -5.69855 -2.21529 0
M  V30 4547 H 447.184 -6.66566 -2.01649 0
M  V30 4548 H 444.811 -7.36423 -1.88641 0
M  V30 4549 N 446.386 1.0089 -1.21074 0
M  V30 4550 C 447.663 1.71834 -0.934469 0
M  V30 4551 C 448.043 2.0368 0.554753 0
M  V30 4552 O 447.391 1.70742 1.51854 0
M  V30 4553 C 447.601 2.98061 -1.8155 0
M  V30 4554 C 448.949 3.7117 -2.06199 0
M  V30 4555 O 449.973 3.08034 -1.78867 0
M  V30 4556 O 448.832 4.84721 -2.52404 0
M  V30 4557 H 445.926 0.749253 -0.35007 0
M  V30 4558 H 448.472 1.06668 -1.31985 0
M  V30 4559 H 447.244 2.70908 -2.82355 0
M  V30 4560 H 446.867 3.70968 -1.43068 0
M  V30 4561 N 447.864 1.01787 1.20321 0
M  V30 4562 C 449.11 0.718699 1.90279 0
M  V30 4563 C 449.465 -0.743669 1.77447 0
M  V30 4564 O 448.758 -1.53345 1.14874 0
M  V30 4565 C 448.952 1.09076 3.40349 0
M  V30 4566 C 448.781 2.58775 3.67784 0
M  V30 4567 C 447.551 3.25578 3.86428 0
M  V30 4568 C 449.749 3.56966 3.70243 0
M  V30 4569 N 447.731 4.64495 4.01395 0
M  V30 4570 C 449.102 4.8145 3.90649 0
M  V30 4571 C 451.157 3.5092 3.53213 0
M  V30 4572 C 449.86 6.00619 3.95789 0
M  V30 4573 C 451.886 4.69493 3.59625 0
M  V30 4574 C 451.248 5.92786 3.80505 0
M  V30 4575 H 447.347 0.31468 0.715891 0
M  V30 4576 H 449.931 1.30295 1.44677 0
M  V30 4577 H 448.102 0.534839 3.847 0
M  V30 4578 H 449.834 0.744997 3.97784 0
M  V30 4579 H 446.589 2.76003 3.84862 0
M  V30 4580 H 447.013 5.36624 4.12752 0
M  V30 4581 H 451.655 2.56593 3.36035 0
M  V30 4582 H 449.373 6.95326 4.11762 0
M  V30 4583 H 452.959 4.66432 3.47754 0
M  V30 4584 H 451.839 6.83003 3.85327 0
M  V30 4585 N 449.342 -1.36122 0.79427 0
M  V30 4586 C 450.305 -2.28309 0.201889 0
M  V30 4587 C 451.305 -1.49041 -0.603603 0
M  V30 4588 O 452.495 -1.68964 -0.423888 0
M  V30 4589 C 449.627 -3.3321 -0.719978 0
M  V30 4590 H 450.82 -2.82208 1.01481 0
M  V30 4591 H 448.373 -1.45768 0.564037 0
M  V30 4592 H 449.108 -2.84475 -1.55706 0
M  V30 4593 H 448.893 -3.91835 -0.144266 0
M  V30 4594 H 450.383 -4.02044 -1.12916 0
M  V30 4595 N 450.82 -0.546701 -1.47814 0
M  V30 4596 C 452.05 -0.0232519 -2.06587 0
M  V30 4597 C 452.458 1.2712 -1.40133 0
M  V30 4598 O 451.801 1.77091 -0.488305 0
M  V30 4599 C 451.863 0.254117 -3.58601 0
M  V30 4600 C 451.527 -0.949331 -4.47031 0
M  V30 4601 C 452.524 -1.85216 -4.85789 0
M  V30 4602 C 450.209 -1.16104 -4.88697 0
M  V30 4603 C 452.203 -2.95047 -5.65001 0
M  V30 4604 C 449.89 -2.26247 -5.67676 0
M  V30 4605 C 450.888 -3.1555 -6.05737 0
M  V30 4606 O 450.576 -4.23784 -6.83127 0
M  V30 4607 H 450.308 -0.0380082 -0.674931 0
M  V30 4608 H 452.862 -0.756631 -1.90956 0
M  V30 4609 H 451.092 1.04168 -3.72406 0
M  V30 4610 H 452.781 0.72167 -3.99433 0
M  V30 4611 H 453.547 -1.70061 -4.54207 0
M  V30 4612 H 449.426 -0.475159 -4.58545 0
M  V30 4613 H 452.97 -3.64778 -5.94628 0
M  V30 4614 H 448.867 -2.41379 -5.98671 0
M  V30 4615 H 449.635 -4.21701 -7.01506 0
M  V30 4616 N 452.299 1.55045 -0.282633 0
M  V30 4617 C 453.246 2.22822 0.601566 0
M  V30 4618 C 454.216 1.20431 1.14392 0
M  V30 4619 O 455.401 1.48996 1.19184 0
M  V30 4620 C 452.541 2.95873 1.77632 0
M  V30 4621 C 451.654 4.12999 1.26711 0
M  V30 4622 C 450.789 4.73676 2.40426 0
M  V30 4623 C 449.828 5.82981 1.86545 0
M  V30 4624 N 448.965 6.3769 2.93762 0
M  V30 4625 H 453.805 2.97995 0.0169528 0
M  V30 4626 H 451.342 1.471 -0.00339964 0
M  V30 4627 H 453.3 3.36447 2.46697 0
M  V30 4628 H 451.93 2.2311 2.33285 0
M  V30 4629 H 450.982 3.77494 0.469314 0
M  V30 4630 H 452.294 4.91803 0.832518 0
M  V30 4631 H 451.448 5.17008 3.17471 0
M  V30 4632 H 450.187 3.94164 2.87203 0
M  V30 4633 H 449.192 5.39092 1.07983 0
M  V30 4634 H 450.417 6.64366 1.40694 0
M  V30 4635 H 448.363 5.61069 3.39908 0
M  V30 4636 H 448.28 7.11788 2.54744 0
M  V30 4637 H 449.548 6.8568 3.7076 0
M  V30 4638 N 453.777 0.010035 1.57597 0
M  V30 4639 C 455.005 -0.683413 1.95287 0
M  V30 4640 C 455.42 -1.66747 0.885481 0
M  V30 4641 O 454.777 -1.82003 -0.134629 0
M  V30 4642 C 454.828 -1.40652 3.33015 0
M  V30 4643 O 454.549 -0.461916 4.35658 0
M  V30 4644 C 456.05 -2.19356 3.85225 0
M  V30 4645 H 453.27 -0.189708 0.643624 0
M  V30 4646 H 455.814 0.0641359 2.04399 0
M  V30 4647 H 453.969 -2.10562 3.2518 0
M  V30 4648 H 454.383 -0.973215 5.15392 0
M  V30 4649 H 455.857 -2.65433 4.83993 0
M  V30 4650 H 456.334 -3.02457 3.18459 0
M  V30 4651 H 456.94 -1.54442 3.96267 0
M  V30 4652 N 455.255 -1.55392 -0.262866 0
M  V30 4653 C 456.503 -1.76127 -0.991147 0
M  V30 4654 C 456.824 -0.571083 -1.8645 0
M  V30 4655 O 456.094 0.413698 -1.91482 0
M  V30 4656 H 454.674 -0.649528 -0.368948 0
M  V30 4657 H 457.336 -1.9281 -0.284655 0
M  V30 4658 H 456.432 -2.6663 -1.62219 0
M  V30 4659 N 456.733 0.527833 -1.48498 0
M  V30 4660 C 457.696 1.61439 -1.62696 0
M  V30 4661 C 458.696 1.52824 -0.500136 0
M  V30 4662 O 459.886 1.56456 -0.765976 0
M  V30 4663 C 457.018 3.01063 -1.59918 0
M  V30 4664 H 458.211 1.50189 -2.59583 0
M  V30 4665 H 455.764 0.750055 -1.37127 0
M  V30 4666 H 456.499 3.17818 -0.645163 0
M  V30 4667 H 456.284 3.08725 -2.41726 0
M  V30 4668 H 457.774 3.80057 -1.73051 0
M  V30 4669 N 458.211 1.37122 0.776871 0
M  V30 4670 C 459.158 1.3247 1.88998 0
M  V30 4671 C 460.128 0.191143 1.64997 0
M  V30 4672 O 461.313 0.379683 1.86984 0
M  V30 4673 C 458.453 1.13241 3.25992 0
M  V30 4674 C 457.566 2.35782 3.61982 0
M  V30 4675 C 456.701 2.09465 4.88158 0
M  V30 4676 C 455.74 3.279 5.16864 0
M  V30 4677 N 454.877 3.01167 6.34226 0
M  V30 4678 H 459.717 2.27642 1.9231 0
M  V30 4679 H 457.254 1.13125 0.94027 0
M  V30 4680 H 459.212 1.00115 4.0501 0
M  V30 4681 H 457.842 0.217186 3.22069 0
M  V30 4682 H 456.894 2.59666 2.77989 0
M  V30 4683 H 458.206 3.24125 3.79137 0
M  V30 4684 H 457.36 1.93341 5.75069 0
M  V30 4685 H 456.099 1.18452 4.73097 0
M  V30 4686 H 455.104 3.44569 4.2843 0
M  V30 4687 H 456.329 4.19757 5.33836 0
M  V30 4688 H 454.275 2.12779 6.20533 0
M  V30 4689 H 454.192 3.83052 6.51772 0
M  V30 4690 H 455.46 2.88649 7.24087 0
M  V30 4691 N 459.689 -1.00246 1.21608 0
M  V30 4692 C 460.621 -2.09244 0.935401 0
M  V30 4693 C 461.634 -1.62592 -0.0823594 0
M  V30 4694 O 462.823 -1.77865 0.150456 0
M  V30 4695 C 459.923 -3.36724 0.383453 0
M  V30 4696 C 459.096 -4.1245 1.45615 0
M  V30 4697 C 458.155 -5.18219 0.912991 0
M  V30 4698 O 457.181 -5.46337 1.59701 0
M  V30 4699 N 458.383 -5.7987 -0.270478 0
M  V30 4700 H 461.148 -2.33905 1.87373 0
M  V30 4701 H 458.709 -1.16748 1.12167 0
M  V30 4702 H 460.701 -4.047 0.00562157 0
M  V30 4703 H 459.271 -3.09201 -0.459758 0
M  V30 4704 H 458.491 -3.39241 2.00772 0
M  V30 4705 H 459.779 -4.59819 2.17817 0
M  V30 4706 H 459.177 -5.59381 -0.843195 0
M  V30 4707 H 457.734 -6.49126 -0.589794 0
M  V30 4708 N 461.167 -1.02423 -1.1978 0
M  V30 4709 C 462.13 -0.605703 -2.21052 0
M  V30 4710 C 463.13 0.328209 -1.57415 0
M  V30 4711 O 464.32 0.115853 -1.73814 0
M  V30 4712 C 461.452 0.114366 -3.40708 0
M  V30 4713 H 462.645 -1.5017 -2.59594 0
M  V30 4714 H 460.198 -0.814888 -1.33376 0
M  V30 4715 H 460.933 1.02492 -3.07678 0
M  V30 4716 H 460.718 -0.556641 -3.88129 0
M  V30 4717 H 462.208 0.394272 -4.15735 0
M  V30 4718 N 462.645 1.35699 -0.801477 0
M  V30 4719 C 463.593 2.3177 -0.196317 0
M  V30 4720 C 464.587 1.56388 0.651081 0
M  V30 4721 O 465.793 1.71557 0.544815 0
M  V30 4722 H 462.168 0.750669 -0.0447189 0
M  V30 4723 H 464.139 2.8036 -1.02181 0
M  V30 4724 C 462.888 3.41671 0.644702 0
M  V30 4725 H 462.211 3.998 0.0019921 0
M  V30 4726 H 463.651 4.11184 1.0346 0
M  V30 4727 C 462.11 2.84271 1.80808 0
M  V30 4728 O 462.64 2.77408 2.9053 0
M  V30 4729 N 460.846 2.41391 1.61799 0
M  V30 4730 H 460.393 2.47173 0.725493 0
M  V30 4731 H 460.351 2.03334 2.39797 0
M  V30 4732 N 464.123 0.554532 1.47522 0
M  V30 4733 C 465.4 -0.0360704 1.95567 0
M  V30 4734 C 465.78 -1.48828 1.49711 0
M  V30 4735 O 465.128 -2.16366 0.734717 0
M  V30 4736 C 465.338 0.106631 3.48837 0
M  V30 4737 C 466.686 -0.0400899 4.24581 0
M  V30 4738 O 467.71 0.0340453 3.56184 0
M  V30 4739 O 466.569 -0.199111 5.46137 0
M  V30 4740 H 463.663 -0.0656294 0.824392 0
M  V30 4741 H 466.209 0.620867 1.57935 0
M  V30 4742 H 464.981 1.11727 3.7501 0
M  V30 4743 H 464.604 -0.58804 3.93227 0
M  V30 4744 N 465.601 -1.54893 0.290851 0
M  V30 4745 C 466.531 -2.26103 -0.583084 0
M  V30 4746 C 467.512 -1.25684 -1.14619 0
M  V30 4747 O 468.697 -1.54436 -1.17741 0
M  V30 4748 C 465.827 -2.99409 -1.75987 0
M  V30 4749 C 464.781 -4.0689 -1.32758 0
M  V30 4750 C 464.107 -4.67856 -2.58872 0
M  V30 4751 C 465.407 -5.20215 -0.46624 0
M  V30 4752 H 467.101 -2.99398 0.0108214 0
M  V30 4753 H 464.647 -1.43998 0.00664468 0
M  V30 4754 H 466.6 -3.47943 -2.37727 0
M  V30 4755 H 465.324 -2.23675 -2.37985 0
M  V30 4756 H 463.983 -3.59191 -0.733299 0
M  V30 4757 H 463.631 -3.88772 -3.19163 0
M  V30 4758 H 463.331 -5.40438 -2.30653 0
M  V30 4759 H 464.855 -5.19147 -3.21433 0
M  V30 4760 H 466.269 -5.64704 -0.989047 0
M  V30 4761 H 464.666 -5.99455 -0.27826 0
M  V30 4762 H 465.736 -4.82198 0.511173 0
M  V30 4763 N 467.08 -0.0183926 -1.57589 0
M  V30 4764 C 468.357 0.700621 -1.82622 0
M  V30 4765 C 468.737 1.90951 -0.90005 0
M  V30 4766 O 468.085 2.28452 0.0469145 0
M  V30 4767 C 468.295 1.08899 -3.31575 0
M  V30 4768 C 469.643 1.48514 -3.9778 0
M  V30 4769 O 470.667 1.18227 -3.36007 0
M  V30 4770 O 469.526 2.04903 -5.06633 0
M  V30 4771 H 466.62 0.342743 -0.752633 0
M  V30 4772 H 469.166 -0.0452548 -1.6964 0
M  V30 4773 H 467.938 0.228113 -3.90635 0
M  V30 4774 H 467.561 1.89338 -3.49624 0
M  V30 4775 N 468.558 1.5553 0.254621 0
M  V30 4776 C 469.788 1.80784 1.00004 0
M  V30 4777 C 470.196 0.59071 1.79742 0
M  V30 4778 O 469.539 -0.449988 1.78103 0
M  V30 4779 C 469.601 2.99268 1.99196 0
M  V30 4780 C 469.265 4.35595 1.38224 0
M  V30 4781 C 470.262 5.13884 0.788611 0
M  V30 4782 C 467.947 4.82281 1.40393 0
M  V30 4783 C 469.941 6.37004 0.224783 0
M  V30 4784 C 467.628 6.05351 0.836243 0
M  V30 4785 C 468.626 6.82551 0.24769 0
M  V30 4786 O 468.314 8.03297 -0.311249 0
M  V30 4787 H 468.046 0.60565 0.300274 0
M  V30 4788 H 470.6 2.03411 0.285143 0
M  V30 4789 H 468.83 2.72377 2.74496 0
M  V30 4790 H 470.519 3.11682 2.60018 0
M  V30 4791 H 471.285 4.78938 0.764423 0
M  V30 4792 H 467.164 4.22189 1.85142 0
M  V30 4793 H 470.708 6.97203 -0.235235 0
M  V30 4794 H 466.605 6.39776 0.857733 0
M  V30 4795 H 467.373 8.1825 -0.20237 0
M  V30 4796 N 470.036 -0.519951 1.48776 0
M  V30 4797 C 470.999 -1.60574 1.6355 0
M  V30 4798 C 471.999 -1.52557 0.508234 0
M  V30 4799 O 473.189 -1.56047 0.774262 0
M  V30 4800 C 470.321 -3.00211 1.61512 0
M  V30 4801 H 471.514 -1.4881 2.60376 0
M  V30 4802 H 469.067 -0.742772 1.37523 0
M  V30 4803 H 469.802 -3.17471 0.662009 0
M  V30 4804 H 469.587 -3.07439 2.43359 0
M  V30 4805 H 471.077 -3.79134 1.75064 0
M  V30 4806 N 471.514 -1.37532 -0.769588 0
M  V30 4807 C 472.739 -1.36231 -1.56384 0
M  V30 4808 C 473.164 0.0495849 -1.88035 0
M  V30 4809 O 472.522 1.02723 -1.49391 0
M  V30 4810 C 472.57 -2.20986 -2.84952 0
M  V30 4811 O 471.674 -1.61597 -3.79421 0
M  V30 4812 H 471.015 -0.465387 -0.473615 0
M  V30 4813 H 473.545 -1.81085 -0.952342 0
M  V30 4814 H 473.555 -2.34277 -3.34034 0
M  V30 4815 H 472.23 -3.23612 -2.61243 0
M  V30 4816 H 470.807 -1.57359 -3.38072 0
M  V30 4817 N 472.992 0.995999 -1.22138 0
M  V30 4818 C 473.922 2.10387 -1.01289 0
M  V30 4819 C 474.903 1.69975 0.0651454 0
M  V30 4820 O 476.088 1.9396 -0.0964628 0
M  V30 4821 C 473.218 3.42312 -0.586517 0
M  V30 4822 C 472.172 3.96558 -1.61014 0
M  V30 4823 C 471.498 5.24494 -1.0397 0
M  V30 4824 C 472.798 4.27595 -2.99933 0
M  V30 4825 H 474.492 2.28086 -1.93951 0
M  V30 4826 H 472.038 1.09607 -0.933928 0
M  V30 4827 H 473.991 4.19223 -0.427793 0
M  V30 4828 H 472.715 3.24431 0.375761 0
M  V30 4829 H 471.374 3.21776 -1.75658 0
M  V30 4830 H 471.022 5.02953 -0.0688703 0
M  V30 4831 H 470.722 5.61755 -1.72352 0
M  V30 4832 H 472.246 6.04042 -0.892494 0
M  V30 4833 H 473.66 4.95315 -2.8868 0
M  V30 4834 H 472.057 4.76021 -3.6541 0
M  V30 4835 H 473.127 3.35498 -3.50099 0
M  V30 4836 N 474.47 1.03057 1.19235 0
M  V30 4837 C 475.881 0.757449 1.70645 0
M  V30 4838 C 476.232 -0.722735 1.82403 0
M  V30 4839 O 475.357 -1.56325 1.49638 0
M  V30 4840 C 475.952 1.36833 3.09939 0
M  V30 4841 C 474.511 1.14375 3.58602 0
M  V30 4842 C 473.658 1.46533 2.35422 0
M  V30 4843 H 476.609 1.19828 1.04052 0
M  V30 4844 H 476.63 0.766184 3.72706 0
M  V30 4845 H 476.142 2.44562 3.01349 0
M  V30 4846 H 474.243 0.0847542 3.72504 0
M  V30 4847 H 474.356 1.83366 4.42622 0
M  V30 4848 H 472.72 0.884712 2.38841 0
M  V30 4849 H 473.503 2.55349 2.2946 0
M  V30 4850 N 475.948 -1.35272 0.808662 0
M  V30 4851 C 477.225 -1.93077 0.313181 0
M  V30 4852 C 477.605 -1.73847 -1.19752 0
M  V30 4853 O 476.953 -1.1087 -1.998 0
M  V30 4854 C 477.163 -3.41347 0.726859 0
M  V30 4855 C 478.511 -4.18493 0.717532 0
M  V30 4856 O 479.535 -3.4987 0.668535 0
M  V30 4857 O 478.394 -5.40937 0.777779 0
M  V30 4858 H 475.488 -0.822885 0.0824018 0
M  V30 4859 H 478.034 -1.44335 0.892499 0
M  V30 4860 H 476.806 -3.49082 1.76797 0
M  V30 4861 H 476.429 -3.97411 0.122461 0
M  V30 4862 N 477.426 -0.562348 -1.47226 0
M  V30 4863 C 478.651 -0.0432632 -2.07355 0
M  V30 4864 C 479.076 1.24332 -1.41149 0
M  V30 4865 O 478.434 1.74603 -0.488226 0
M  V30 4866 C 478.482 0.130288 -3.60365 0
M  V30 4867 O 477.586 1.19166 -3.94808 0
M  V30 4868 H 476.927 -0.0536334 -0.66183 0
M  V30 4869 H 479.457 -0.779495 -1.89169 0
M  V30 4870 H 479.467 0.342881 -4.06557 0
M  V30 4871 H 478.142 -0.809389 -4.07948 0
M  V30 4872 H 476.719 0.959153 -3.60354 0
M  V30 4873 N 478.904 1.54736 -0.299062 0
M  V30 4874 C 480.15 2.00397 0.311244 0
M  V30 4875 C 480.483 1.18716 1.53688 0
M  V30 4876 O 479.758 0.263154 1.92712 0
M  V30 4877 C 480.041 3.53817 0.669761 0
M  V30 4878 C 479.894 4.46239 -0.564882 0
M  V30 4879 C 481.213 4.13856 1.49702 0
M  V30 4880 H 478.332 0.728493 0.111653 0
M  V30 4881 H 480.974 1.85506 -0.410774 0
M  V30 4882 H 479.124 3.66637 1.28491 0
M  V30 4883 H 480.796 4.45328 -1.20337 0
M  V30 4884 H 479.039 4.16916 -1.19849 0
M  V30 4885 H 479.71 5.5134 -0.269918 0
M  V30 4886 H 482.186 4.04461 0.977284 0
M  V30 4887 H 481.062 5.21365 1.71666 0
M  V30 4888 H 481.323 3.65608 2.48563 0
M  V30 4889 N 480.382 0.0267497 1.57577 0
M  V30 4890 C 481.628 -0.653371 1.91987 0
M  V30 4891 C 481.961 -1.71915 0.903263 0
M  V30 4892 O 481.236 -1.94358 -0.0743387 0
M  V30 4893 C 481.519 -1.272 3.36886 0
M  V30 4894 C 481.372 -0.215938 4.49281 0
M  V30 4895 C 482.691 -2.19069 3.81703 0
M  V30 4896 H 479.81 -0.236047 0.698177 0
M  V30 4897 H 482.452 0.0835236 1.89816 0
M  V30 4898 H 480.602 -1.90005 3.38866 0
M  V30 4899 H 482.274 0.41449 4.59434 0
M  V30 4900 H 480.517 0.458855 4.31366 0
M  V30 4901 H 481.188 -0.688347 5.47691 0
M  V30 4902 H 483.664 -1.66253 3.81444 0
M  V30 4903 H 482.54 -2.59307 4.83788 0
M  V30 4904 H 482.801 -3.08087 3.17072 0
M  V30 4905 N 481.861 -1.55662 -0.24637 0
M  V30 4906 C 482.771 -1.93495 -1.32653 0
M  V30 4907 C 483.787 -0.835462 -1.5263 0
M  V30 4908 O 484.963 -1.1369 -1.66242 0
M  V30 4909 C 482.028 -2.22242 -2.66101 0
M  V30 4910 C 481.089 -3.45625 -2.54641 0
M  V30 4911 C 480.322 -3.72991 -3.81724 0
M  V30 4912 O 480.545 -3.02421 -4.8363 0
M  V30 4913 O 479.479 -4.66515 -3.80325 0
M  V30 4914 H 483.305 -2.85498 -1.03559 0
M  V30 4915 H 480.89 -1.42551 -0.44717 0
M  V30 4916 H 482.772 -2.42037 -3.44958 0
M  V30 4917 H 481.447 -1.33417 -2.94926 0
M  V30 4918 H 480.354 -3.31136 -1.74067 0
M  V30 4919 H 481.687 -4.34754 -2.3076 0
M  V30 4920 N 483.339 0.512053 -1.4905 0
M  V30 4921 C 484.271 1.63121 -1.6101 0
M  V30 4922 C 485.284 1.55145 -0.493352 0
M  V30 4923 O 486.473 1.61278 -0.764955 0
M  V30 4924 C 483.573 3.01863 -1.54052 0
M  V30 4925 C 482.746 3.35138 -2.81072 0
M  V30 4926 C 481.805 4.5324 -2.67319 0
M  V30 4927 O 480.831 4.55571 -3.41238 0
M  V30 4928 N 482.033 5.52495 -1.78127 0
M  V30 4929 H 484.798 1.53292 -2.5753 0
M  V30 4930 H 482.359 0.699706 -1.45999 0
M  V30 4931 H 484.351 3.78774 -1.42521 0
M  V30 4932 H 482.921 3.05675 -0.654345 0
M  V30 4933 H 482.141 2.4723 -3.07036 0
M  V30 4934 H 483.429 3.54162 -3.65304 0
M  V30 4935 H 482.827 5.53403 -1.17308 0
M  V30 4936 H 481.384 6.28553 -1.72525 0
M  V30 4937 N 484.817 1.37938 0.762283 0
M  V30 4938 C 486.063 1.33866 1.52341 0
M  V30 4939 C 486.396 -0.0738961 1.94059 0
M  V30 4940 O 485.671 -1.03326 1.64785 0
M  V30 4941 C 485.954 2.28644 2.78197 0
M  V30 4942 C 485.807 3.78722 2.42672 0
M  V30 4943 C 487.126 2.21702 3.80179 0
M  V30 4944 H 484.245 0.487593 0.55265 0
M  V30 4945 H 486.887 1.68717 0.873767 0
M  V30 4946 H 485.037 1.99055 3.33631 0
M  V30 4947 H 486.709 4.18948 1.93081 0
M  V30 4948 H 484.952 3.96827 1.75244 0
M  V30 4949 H 485.623 4.40486 3.3268 0
M  V30 4950 H 488.099 2.47805 3.34263 0
M  V30 4951 H 486.975 2.90143 4.65949 0
M  V30 4952 H 487.236 1.21301 4.25133 0
M  V30 4953 N 486.295 -0.989507 1.22664 0
M  V30 4954 C 487.711 -1.25395 0.987331 0
M  V30 4955 C 487.911 -1.9899 -0.317056 0
M  V30 4956 O 486.967 -2.30141 -1.03882 0
M  V30 4957 C 488.28 -2.06242 2.18826 0
M  V30 4958 C 489.828 -2.19413 2.23219 0
M  V30 4959 C 490.303 -3.03648 3.42873 0
M  V30 4960 N 491.794 -3.11234 3.43056 0
M  V30 4961 C 492.529 -3.7671 4.32293 0
M  V30 4962 N 492.025 -4.44085 5.31752 0
M  V30 4963 N 493.818 -3.73505 4.2006 0
M  V30 4964 H 485.969 -0.496212 2.06522 0
M  V30 4965 H 488.232 -0.281784 0.905153 0
M  V30 4966 H 487.938 -1.59531 3.13437 0
M  V30 4967 H 487.812 -3.06996 2.19165 0
M  V30 4968 H 490.199 -2.65336 1.29154 0
M  V30 4969 H 490.28 -1.18078 2.26917 0
M  V30 4970 H 489.924 -2.58424 4.37241 0
M  V30 4971 H 489.854 -4.05132 3.36416 0
M  V30 4972 H 492.345 -2.63287 2.71088 0
M  V30 4973 H 492.658 -4.91797 5.96117 0
M  V30 4974 H 491.003 -4.42822 5.35662 0
M  V30 4975 H 494.194 -3.20033 3.41609 0
M  V30 4976 H 494.367 -4.24253 4.8981 0
M  V30 4977 N 487.773 -1.03688 -1.18687 0
M  V30 4978 C 488.736 -0.629115 -2.20397 0
M  V30 4979 C 489.736 0.311495 -1.57754 0
M  V30 4980 O 490.926 0.0974107 -1.73927 0
M  V30 4981 C 488.058 0.0782231 -3.4081 0
M  V30 4982 H 489.251 -1.52915 -2.57987 0
M  V30 4983 H 486.804 -0.828988 -1.32505 0
M  V30 4984 H 487.539 0.992233 -3.08748 0
M  V30 4985 H 487.324 -0.597776 -3.87517 0
M  V30 4986 H 488.814 0.350156 -4.16129 0
M  V30 4987 N 489.251 1.34841 -0.815825 0
M  V30 4988 C 490.214 2.27959 -0.238185 0
M  V30 4989 C 491.214 1.49983 0.579816 0
M  V30 4990 O 492.404 1.69617 0.396953 0
M  V30 4991 C 489.536 3.34314 0.666876 0
M  V30 4992 H 490.729 2.80558 -1.05958 0
M  V30 4993 H 488.282 1.44852 -0.587156 0
M  V30 4994 H 489.017 2.86916 1.5116 0
M  V30 4995 H 488.802 3.92014 0.0819106 0
M  V30 4996 H 490.292 4.0379 1.06506 0
M  V30 4997 N 490.729 0.570148 1.46925 0
M  V30 4998 C 491.975 0.0593124 2.03314 0
M  V30 4999 C 492.33 -1.28139 1.43521 0
M  V30 5000 O 491.623 -1.82411 0.586245 0
M  V30 5001 C 491.817 -0.0780336 3.57315 0
M  V30 5002 C 491.646 1.2478 4.32042 0
M  V30 5003 C 490.416 1.81859 4.7144 0
M  V30 5004 C 492.614 2.16808 4.66368 0
M  V30 5005 N 490.596 3.08313 5.30864 0
M  V30 5006 C 491.967 3.27845 5.2623 0
M  V30 5007 C 494.022 2.16643 4.48297 0
M  V30 5008 C 492.725 4.38832 5.69929 0
M  V30 5009 C 494.751 3.26652 4.93004 0
M  V30 5010 C 494.113 4.36408 5.52926 0
M  V30 5011 H 490.212 0.0641804 0.779362 0
M  V30 5012 H 492.796 0.760285 1.79242 0
M  V30 5013 H 490.967 -0.748151 3.81126 0
M  V30 5014 H 492.699 -0.59211 4.00345 0
M  V30 5015 H 489.454 1.35502 4.53802 0
M  V30 5016 H 489.878 3.72802 5.65108 0
M  V30 5017 H 494.52 1.33065 4.01315 0
M  V30 5018 H 492.238 5.23162 6.15896 0
M  V30 5019 H 495.824 3.27627 4.80782 0
M  V30 5020 H 494.704 5.20127 5.86888 0
M  V30 5021 N 492.207 -1.54576 0.307264 0
M  V30 5022 C 493.154 -2.23751 -0.56604 0
M  V30 5023 C 494.124 -1.22235 -1.12462 0
M  V30 5024 O 495.309 -1.50873 -1.16799 0
M  V30 5025 C 492.449 -2.98661 -1.72903 0
M  V30 5026 C 491.562 -4.14963 -1.20124 0
M  V30 5027 C 490.697 -4.77441 -2.3286 0
M  V30 5028 C 489.736 -5.85875 -1.77247 0
M  V30 5029 N 488.873 -6.42282 -2.8358 0
M  V30 5030 H 493.713 -2.97984 0.0304578 0
M  V30 5031 H 491.25 -1.47076 0.0268015 0
M  V30 5032 H 493.208 -3.40329 -2.41313 0
M  V30 5033 H 491.838 -2.26793 -2.29706 0
M  V30 5034 H 490.89 -3.78193 -0.409198 0
M  V30 5035 H 492.202 -4.93066 -0.754171 0
M  V30 5036 H 491.356 -5.21993 -3.09205 0
M  V30 5037 H 490.095 -3.98684 -2.80896 0
M  V30 5038 H 489.1 -5.40741 -0.993926 0
M  V30 5039 H 490.325 -6.6652 -1.30107 0
M  V30 5040 H 488.271 -5.66406 -3.30939 0
M  V30 5041 H 488.188 -7.1575 -2.43388 0
M  V30 5042 H 489.456 -6.91492 -3.59804 0
M  V30 5043 N 493.685 -0.035106 -1.57561 0
M  V30 5044 C 494.913 0.652258 -1.9635 0
M  V30 5045 C 495.328 1.65317 -0.911897 0
M  V30 5046 O 494.685 1.82194 0.105657 0
M  V30 5047 C 494.736 1.35337 -3.35211 0
M  V30 5048 O 494.457 0.392548 -4.36338 0
M  V30 5049 C 495.958 2.13199 -3.88666 0
M  V30 5050 H 493.178 0.179444 -0.646561 0
M  V30 5051 H 495.722 -0.0966459 -2.04271 0
M  V30 5052 H 493.877 2.05362 -3.28489 0
M  V30 5053 H 494.291 0.891097 -5.16875 0
M  V30 5054 H 495.765 2.577 -4.88154 0
M  V30 5055 H 496.242 2.97353 -3.23231 0
M  V30 5056 H 496.848 1.48118 -3.98674 0
M  V30 5057 N 495.163 1.55791 0.238111 0
M  V30 5058 C 496.111 1.91885 1.31464 0
M  V30 5059 C 497.105 0.798929 1.49377 0
M  V30 5060 O 498.311 0.983626 1.50747 0
M  V30 5061 H 494.686 0.609551 0.440399 0
M  V30 5062 H 496.657 2.81747 0.982925 0
M  V30 5063 C 495.406 2.23763 2.6613 0
M  V30 5064 H 494.729 3.09444 2.53149 0
M  V30 5065 H 496.169 2.52915 3.40309 0
M  V30 5066 C 494.628 1.05699 3.1989 0
M  V30 5067 O 495.158 0.309524 4.00506 0
M  V30 5068 N 493.364 0.845251 2.78036 0
M  V30 5069 H 492.911 1.4548 2.12588 0
M  V30 5070 H 492.869 0.0569973 3.14348 0
M  V30 5071 N 496.642 -0.504142 1.49319 0
M  V30 5072 C 497.891 -1.25507 1.57895 0
M  V30 5073 C 498.204 -1.93735 0.269433 0
M  V30 5074 O 499.41 -2.70492 0.233706 0
M  V30 5075 C 497.866 -2.27869 2.78574 0
M  V30 5076 C 497.474 -1.65594 4.16272 0
M  V30 5077 C 499.218 -3.0381 2.96479 0
M  V30 5078 C 497.125 -2.66048 5.28178 0
M  V30 5079 H 496.055 -0.47212 0.587894 0
M  V30 5080 H 498.706 -0.52931 1.757 0
M  V30 5081 H 497.088 -3.03594 2.54257 0
M  V30 5082 H 498.262 -0.958826 4.50714 0
M  V30 5083 H 496.577 -1.02055 4.037 0
M  V30 5084 H 499.174 -3.78925 3.77253 0
M  V30 5085 H 499.517 -3.61235 2.06918 0
M  V30 5086 H 500.05 -2.352 3.20821 0
M  V30 5087 H 496.789 -2.13408 6.19788 0
M  V30 5088 H 496.309 -3.34009 4.98195 0
M  V30 5089 H 497.988 -3.28536 5.57381 0
M  V30 5090 N 498.12 -1.38341 -0.754957 0
M  V30 5091 C 499.067 -1.3546 -1.86867 0
M  V30 5092 C 500.037 -0.217369 -1.64672 0
M  V30 5093 O 501.222 -0.409383 -1.86356 0
M  V30 5094 C 498.362 -1.18413 -3.24149 0
M  V30 5095 C 497.475 -2.41511 -3.58185 0
M  V30 5096 C 496.61 -2.17205 -4.84763 0
M  V30 5097 C 495.649 -3.36081 -5.11582 0
M  V30 5098 N 494.786 -3.11219 -6.29354 0
M  V30 5099 H 499.626 -2.30672 -1.88664 0
M  V30 5100 H 497.163 -1.14607 -0.922154 0
M  V30 5101 H 499.121 -1.06545 -4.03366 0
M  V30 5102 H 497.751 -0.268397 -3.21682 0
M  V30 5103 H 496.803 -2.64056 -2.73822 0
M  V30 5104 H 498.115 -3.30115 -3.73932 0
M  V30 5105 H 497.269 -2.02465 -5.7192 0
M  V30 5106 H 496.008 -1.25964 -4.71152 0
M  V30 5107 H 495.013 -3.51341 -4.22894 0
M  V30 5108 H 496.238 -4.28196 -5.27091 0
M  V30 5109 H 494.184 -2.22624 -6.17069 0
M  V30 5110 H 494.101 -3.93373 -6.45596 0
M  V30 5111 H 495.369 -3.00132 -7.19403 0
M  V30 5112 N 499.598 0.982988 -1.23187 0
M  V30 5113 C 500.875 1.69814 -0.970707 0
M  V30 5114 C 501.255 2.04811 0.511424 0
M  V30 5115 O 500.603 1.73924 1.48198 0
M  V30 5116 C 500.813 2.94143 -1.87831 0
M  V30 5117 C 502.161 3.66712 -2.14026 0
M  V30 5118 O 503.185 3.04171 -1.8536 0
M  V30 5119 O 502.044 4.79258 -2.62629 0
M  V30 5120 H 499.138 0.741659 -0.365884 0
M  V30 5121 H 501.684 1.03844 -1.34218 0
M  V30 5122 H 500.456 2.64858 -2.88038 0
M  V30 5123 H 500.079 3.6785 -1.50905 0
M  V30 5124 N 501.076 1.04316 1.18135 0
M  V30 5125 C 502.301 0.768047 1.92655 0
M  V30 5126 C 502.726 -0.66904 1.758 0
M  V30 5127 O 502.084 -1.46372 1.06981 0
M  V30 5128 C 502.132 1.14239 3.42026 0
M  V30 5129 O 501.236 0.269333 4.1152 0
M  V30 5130 H 500.577 0.282436 0.600937 0
M  V30 5131 H 503.107 1.39367 1.49793 0
M  V30 5132 H 503.117 1.10538 3.92741 0
M  V30 5133 H 501.792 2.18928 3.53615 0
M  V30 5134 H 500.369 0.366175 3.71098 0
M  V30 5135 N 502.554 -1.34406 0.822964 0
M  V30 5136 C 503.779 -2.0304 0.423034 0
M  V30 5137 C 504.204 -1.61568 -0.963196 0
M  V30 5138 O 503.562 -0.800339 -1.62678 0
M  V30 5139 C 503.61 -3.56636 0.53321 0
M  V30 5140 O 502.714 -4.09971 -0.446939 0
M  V30 5141 H 502.055 -0.64075 0.174171 0
M  V30 5142 H 504.585 -1.71653 1.11339 0
M  V30 5143 H 504.595 -4.05945 0.408991 0
M  V30 5144 H 503.27 -3.86168 1.54425 0
M  V30 5145 H 501.847 -3.71835 -0.281601 0
M  V30 5146 N 504.032 -0.577932 -1.46621 0
M  V30 5147 C 505.28 -0.061566 -2.02006 0
M  V30 5148 C 505.601 1.30117 -1.4524 0
M  V30 5149 O 504.871 1.85313 -0.63529 0
M  V30 5150 H 503.451 -0.0197692 -0.746738 0
M  V30 5151 H 506.113 -0.752631 -1.79782 0
M  V30 5152 H 505.209 0.0110238 -3.12098 0
M  V30 5153 N 505.51 1.54411 -0.315457 0
M  V30 5154 C 506.457 2.24048 0.554166 0
M  V30 5155 C 507.427 1.2283 1.11812 0
M  V30 5156 O 508.612 1.51491 1.15997 0
M  V30 5157 C 505.752 2.99574 1.71316 0
M  V30 5158 C 504.865 4.15594 1.17922 0
M  V30 5159 C 504 4.78669 2.30324 0
M  V30 5160 C 503.039 5.86807 1.74137 0
M  V30 5161 N 502.176 6.43777 2.8017 0
M  V30 5162 H 507.016 2.97964 -0.0462602 0
M  V30 5163 H 504.553 1.47059 -0.0346009 0
M  V30 5164 H 506.511 3.41604 2.39505 0
M  V30 5165 H 505.141 2.28008 2.285 0
M  V30 5166 H 504.193 3.78404 0.389136 0
M  V30 5167 H 505.505 4.93459 0.728012 0
M  V30 5168 H 504.659 5.23626 3.06433 0
M  V30 5169 H 503.398 4.00168 2.78778 0
M  V30 5170 H 502.403 5.41261 0.965236 0
M  V30 5171 H 503.628 6.67201 1.2657 0
M  V30 5172 H 501.574 5.68153 3.2793 0
M  V30 5173 H 501.491 7.17031 2.39588 0
M  V30 5174 H 502.759 6.9339 3.56132 0
M  V30 5175 N 506.988 0.0434614 1.5754 0
M  V30 5176 C 508.399 -0.493343 1.80064 0
M  V30 5177 C 508.75 -1.71388 0.955023 0
M  V30 5178 O 507.875 -2.15736 0.169434 0
M  V30 5179 C 508.47 -0.90179 3.26578 0
M  V30 5180 C 507.029 -1.38362 3.50047 0
M  V30 5181 C 506.176 -0.355129 2.75017 0
M  V30 5182 H 509.127 0.2694 1.56397 0
M  V30 5183 H 509.148 -1.76523 3.37075 0
M  V30 5184 H 508.66 -0.013271 3.88098 0
M  V30 5185 H 506.761 -2.29159 2.93798 0
M  V30 5186 H 506.874 -1.3811 4.58762 0
M  V30 5187 H 505.238 -0.826348 2.40922 0
M  V30 5188 H 506.021 0.525172 3.39259 0
M  V30 5189 N 508.466 -1.55915 -0.229846 0
M  V30 5190 C 509.396 -1.94754 -1.28815 0
M  V30 5191 C 510.377 -0.814657 -1.49323 0
M  V30 5192 O 511.562 -1.07631 -1.61645 0
M  V30 5193 C 508.692 -2.25705 -2.63959 0
M  V30 5194 C 507.646 -3.41406 -2.5812 0
M  V30 5195 C 506.972 -3.57941 -3.97218 0
M  V30 5196 C 508.272 -4.76616 -2.13623 0
M  V30 5197 H 509.966 -2.83404 -0.965547 0
M  V30 5198 H 507.512 -1.36353 -0.463028 0
M  V30 5199 H 509.465 -2.51467 -3.38146 0
M  V30 5200 H 508.189 -1.339 -2.9789 0
M  V30 5201 H 506.848 -3.1568 -1.86391 0
M  V30 5202 H 506.496 -2.63526 -4.28443 0
M  V30 5203 H 506.196 -4.35757 -3.94195 0
M  V30 5204 H 507.72 -3.86042 -4.73079 0
M  V30 5205 H 509.134 -5.01637 -2.77549 0
M  V30 5206 H 507.531 -5.57655 -2.21677 0
M  V30 5207 H 508.601 -4.7253 -1.08829 0
M  V30 5208 N 509.944 0.496216 -1.49584 0
M  V30 5209 C 511.174 1.27209 -1.62793 0
M  V30 5210 C 511.582 1.86799 -0.300476 0
M  V30 5211 O 510.925 1.68802 0.724674 0
M  V30 5212 C 510.987 2.43812 -2.64189 0
M  V30 5213 C 510.651 2.05055 -4.08414 0
M  V30 5214 C 511.648 1.58752 -4.9507 0
M  V30 5215 C 509.333 2.14543 -4.54177 0
M  V30 5216 C 511.327 1.22448 -6.25528 0
M  V30 5217 C 509.014 1.77851 -5.84647 0
M  V30 5218 C 510.012 1.31878 -6.70147 0
M  V30 5219 O 509.7 0.956834 -7.98185 0
M  V30 5220 H 509.432 0.391848 -0.550846 0
M  V30 5221 H 511.986 0.601712 -1.96389 0
M  V30 5222 H 510.216 3.13941 -2.25783 0
M  V30 5223 H 511.905 3.05829 -2.66877 0
M  V30 5224 H 512.671 1.50863 -4.60939 0
M  V30 5225 H 508.55 2.49277 -3.87791 0
M  V30 5226 H 512.094 0.864933 -6.92217 0
M  V30 5227 H 507.991 1.8539 -6.18305 0
M  V30 5228 H 508.759 1.08789 -8.11238 0
M  V30 5229 O 511.461 1.48211 0.641547 0
M  V30 5230 H 512.152 1.44016 1.29535 0
M  V30 END ATOM
M  V30 BEGIN BOND
M  V30 END BOND
M  V30 END CTAB
M  END
$$$$
