drugbank_target|Q9HB21 Pleckstrin homology domain-containing family A member 1 (DB04272)
 OpenBabel12092120293D

  0  0  0     0  0            999 V3000
M  V30 BEGIN CTAB
M  V30 COUNTS 6369 6437 0 0 0
M  V30 BEGIN ATOM
M  V30 1 H -0.908 1.98254 -0.117106 0
M  V30 2 N 0 1.576 0 0
M  V30 3 C 0.933 2.03868 1.02534 0
M  V30 4 C 1.911 0.928543 1.3348 0
M  V30 5 O 3.095 1.19667 1.45644 0
M  V30 6 C 0.222 2.43627 2.35294 0
M  V30 7 C -0.732 3.65373 2.2001 0
M  V30 8 S 0.101 5.13292 1.52614 0
M  V30 9 C 1.257 5.56322 2.86805 0
M  V30 10 H 1.49 2.90518 0.631377 0
M  V30 11 H -0.977 1.52953 0.210867 0
M  V30 12 H 0.981 2.67203 3.11629 0
M  V30 13 H -0.358 1.57376 2.7183 0
M  V30 14 H -1.165 3.90944 3.18086 0
M  V30 15 H -1.563 3.418 1.51819 0
M  V30 16 H 0.729 5.58782 3.83104 0
M  V30 17 H 1.672 6.56266 2.65933 0
M  V30 18 H 2.08 4.83886 2.90714 0
M  V30 19 N 1.4781 -0.272755 1.55222 0
M  V30 20 C 2.8891 -0.84378 1.66545 0
M  V30 21 C 3.2401 -1.87035 0.592641 0
M  V30 22 O 2.3651 -2.14761 -0.265818 0
M  V30 23 C 2.9601 -1.53723 3.01918 0
M  V30 24 C 1.5191 -2.05628 3.15268 0
M  V30 25 C 0.6661 -0.898424 2.62343 0
M  V30 26 H 3.6171 -0.0490998 1.58624 0
M  V30 27 H 3.6381 -2.40421 2.94921 0
M  V30 28 H 3.1501 -0.78983 3.79978 0
M  V30 29 H 1.2511 -2.83329 2.41983 0
M  V30 30 H 1.3641 -2.27142 4.21833 0
M  V30 31 H -0.2719 -1.29186 2.19506 0
M  V30 32 H 0.5111 -0.164528 3.42906 0
M  V30 33 N 2.9562 -1.48159 -0.537278 0
M  V30 34 C 4.1862 -1.59223 -1.3165 0
M  V30 35 C 4.5942 -0.248849 -1.87556 0
M  V30 36 O 3.9372 0.770949 -1.6674 0
M  V30 37 C 3.9992 -2.57365 -2.51005 0
M  V30 38 C 3.6632 -4.02603 -2.16239 0
M  V30 39 C 4.6602 -4.90503 -1.72344 0
M  V30 40 C 2.3452 -4.48088 -2.26986 0
M  V30 41 C 4.3392 -6.21913 -1.39651 0
M  V30 42 C 2.0262 -5.7952 -1.93906 0
M  V30 43 C 3.0242 -6.66255 -1.50309 0
M  V30 44 O 2.7122 -7.95243 -1.17659 0
M  V30 45 H 2.4442 -0.539831 -0.406889 0
M  V30 46 H 4.9982 -1.94655 -0.655641 0
M  V30 47 H 3.2282 -2.1704 -3.20048 0
M  V30 48 H 4.9172 -2.58342 -3.13072 0
M  V30 49 H 5.6832 -4.56604 -1.63517 0
M  V30 50 H 1.5622 -3.80769 -2.59877 0
M  V30 51 H 5.1062 -6.89569 -1.0555 0
M  V30 52 H 1.0032 -6.12957 -2.02371 0
M  V30 53 H 1.7712 -8.0793 -1.31119 0
M  V30 54 N 4.4343 0.785586 -1.36625 0
M  V30 55 C 5.6803 1.54591 -1.31261 0
M  V30 56 C 6.0133 1.93906 0.106823 0
M  V30 57 O 5.2883 1.63007 1.06108 0
M  V30 58 C 5.5713 2.82038 -2.23889 0
M  V30 59 C 5.4243 2.49066 -3.74548 0
M  V30 60 C 6.7433 3.83887 -2.15217 0
M  V30 61 H 3.8623 0.560846 -0.478143 0
M  V30 62 H 6.5043 0.902278 -1.67209 0
M  V30 63 H 4.6543 3.36961 -1.93363 0
M  V30 64 H 6.3263 2.00164 -4.15611 0
M  V30 65 H 4.5693 1.81954 -3.93796 0
M  V30 66 H 5.2403 3.40109 -4.34776 0
M  V30 67 H 7.7163 3.38421 -2.42096 0
M  V30 68 H 6.5923 4.70806 -2.82193 0
M  V30 69 H 6.8533 4.27131 -1.14068 0
M  V30 70 N 5.9124 1.20967 1.01018 0
M  V30 71 C 7.1894 0.93264 1.71934 0
M  V30 72 C 7.5694 -0.55692 2.03621 0
M  V30 73 O 6.9174 -1.52035 1.7058 0
M  V30 74 C 7.1274 1.81233 2.98254 0
M  V30 75 C 8.4754 2.05804 3.71389 0
M  V30 76 O 9.4994 1.78539 3.08225 0
M  V30 77 O 8.3584 2.51888 4.84989 0
M  V30 78 H 5.4524 0.349272 0.749625 0
M  V30 79 H 7.9984 1.31871 1.06808 0
M  V30 80 H 6.7704 2.82067 2.71208 0
M  V30 81 H 6.3934 1.42674 3.7112 0
M  V30 82 N 7.3905 -1.2043 1.01659 0
M  V30 83 C 8.8065 -1.41852 0.731442 0
M  V30 84 C 9.0065 -1.89358 -0.688898 0
M  V30 85 O 8.0625 -2.06247 -1.45666 0
M  V30 86 C 9.3755 -2.44019 1.75714 0
M  V30 87 C 10.9235 -2.57785 1.77527 0
M  V30 88 C 11.3985 -3.63194 2.79023 0
M  V30 89 N 12.8895 -3.70678 2.77763 0
M  V30 90 C 13.6245 -4.51897 3.52954 0
M  V30 91 N 13.1205 -5.36921 4.37821 0
M  V30 92 N 14.9135 -4.4643 3.41551 0
M  V30 93 H 7.0645 -0.879093 1.93354 0
M  V30 94 H 9.3275 -0.448425 0.835236 0
M  V30 95 H 9.0335 -2.1611 2.77469 0
M  V30 96 H 8.9075 -3.43007 1.56927 0
M  V30 97 H 11.2945 -2.85023 0.764569 0
M  V30 98 H 11.3755 -1.58992 2.00387 0
M  V30 99 H 11.0195 -3.36699 3.80258 0
M  V30 100 H 10.9495 -4.61609 2.53425 0
M  V30 101 H 13.4405 -3.09944 2.16201 0
M  V30 102 H 13.7535 -5.95981 4.91962 0
M  V30 103 H 12.0985 -5.36424 4.41899 0
M  V30 104 H 15.2895 -3.79042 2.74672 0
M  V30 105 H 15.4625 -5.09491 4.00404 0
M  V30 106 N 8.8686 -0.792821 -1.36206 0
M  V30 107 C 9.8006 -0.151469 -2.28699 0
M  V30 108 C 10.8136 0.641262 -1.49638 0
M  V30 109 O 12.0026 0.475885 -1.72039 0
M  V30 110 C 9.1026 0.808424 -3.29117 0
M  V30 111 C 8.2756 0.0650202 -4.37352 0
M  V30 112 C 7.3346 0.941358 -5.17711 0
M  V30 113 O 6.3606 0.397352 -5.67811 0
M  V30 114 N 7.5626 2.2652 -5.3448 0
M  V30 115 H 10.3276 -0.945982 -2.84379 0
M  V30 116 H 7.8886 -0.647032 -1.48409 0
M  V30 117 H 9.8806 1.3986 -3.79765 0
M  V30 118 H 8.4506 1.5038 -2.74052 0
M  V30 119 H 7.6706 -0.706255 -3.87822 0
M  V30 120 H 8.9586 -0.447847 -5.06825 0
M  V30 121 H 8.3566 2.73128 -4.95396 0
M  V30 122 H 6.9136 2.80493 -5.88359 0
M  V30 123 N 10.3467 1.47872 -0.545128 0
M  V30 124 C 11.2947 2.31533 0.222512 0
M  V30 125 C 12.2887 1.42177 0.920985 0
M  V30 126 O 13.4947 1.59005 0.843645 0
M  V30 127 H 9.8697 0.746519 0.0906278 0
M  V30 128 H 11.8407 2.94139 -0.50246 0
M  V30 129 C 10.5897 3.2457 1.24699 0
M  V30 130 H 9.9127 3.93283 0.718944 0
M  V30 131 H 11.3527 3.85963 1.75523 0
M  V30 132 C 9.8117 2.47237 2.28856 0
M  V30 133 O 10.3417 2.20808 3.35569 0
M  V30 134 N 8.5477 2.08461 2.02466 0
M  V30 135 H 8.0947 2.30155 1.157 0
M  V30 136 H 8.0527 1.57033 2.72375 0
M  V30 137 N 11.8248 0.280983 1.55075 0
M  V30 138 C 13.2408 -0.0729964 1.59433 0
M  V30 139 C 13.4408 -1.5411 1.29817 0
M  V30 140 O 12.4968 -2.29086 1.06187 0
M  V30 141 C 13.8098 0.306921 2.9913 0
M  V30 142 C 15.3578 0.254023 3.11968 0
M  V30 143 C 15.8328 0.608467 4.5394 0
M  V30 144 N 17.3238 0.560241 4.59799 0
M  V30 145 C 18.0588 0.80722 5.6769 0
M  V30 146 N 17.5548 1.11912 6.83701 0
M  V30 147 N 19.3478 0.735623 5.57266 0
M  V30 148 H 11.4988 1.238 1.7259 0
M  V30 149 H 13.7618 0.500547 0.805082 0
M  V30 150 H 13.4678 1.32816 3.25657 0
M  V30 151 H 13.3418 -0.349363 3.75579 0
M  V30 152 H 15.7288 -0.75794 2.852 0
M  V30 153 H 15.8098 0.944649 2.37718 0
M  V30 154 H 15.4538 1.61814 4.81434 0
M  V30 155 H 15.3838 -0.104013 5.26497 0
M  V30 156 H 17.8748 0.329288 3.76463 0
M  V30 157 H 18.1878 1.29409 7.61888 0
M  V30 158 H 16.5328 1.15695 6.85303 0
M  V30 159 H 19.7238 0.491752 4.6551 0
M  V30 160 H 19.8968 0.931482 6.4127 0
M  V30 161 N 13.3029 -1.57598 0.00835791 0
M  V30 162 C 14.5519 -1.90107 -0.673968 0
M  V30 163 C 14.8649 -0.884275 -1.7447 0
M  V30 164 O 16.0709 -1.09987 -2.48224 0
M  V30 165 C 14.5269 -3.37497 -1.24995 0
M  V30 166 C 14.1349 -4.47491 -0.2136 0
M  V30 167 C 15.8789 -3.79104 -1.90999 0
M  V30 168 C 13.7859 -5.85963 -0.80005 0
M  V30 169 H 12.7159 -0.709393 -0.255495 0
M  V30 170 H 15.3669 -1.83365 0.0702693 0
M  V30 171 H 13.7489 -3.39102 -2.04513 0
M  V30 172 H 14.9229 -4.57414 0.557596 0
M  V30 173 H 13.2379 -4.14956 0.346474 0
M  V30 174 H 15.8349 -4.79901 -2.35795 0
M  V30 175 H 16.1779 -3.1306 -2.74407 0
M  V30 176 H 16.7109 -3.79833 -1.18203 0
M  V30 177 H 13.4499 -6.555 -0.00456708 0
M  V30 178 H 12.9699 -5.79687 -1.54021 0
M  V30 179 H 14.6489 -6.33884 -1.29615 0
M  V30 180 N 14.781 0.264519 -1.55364 0
M  V30 181 C 16.021 1.00254 -1.78125 0
M  V30 182 C 16.385 1.83187 -0.575017 0
M  V30 183 O 17.586 2.60029 -0.681042 0
M  V30 184 C 15.857 1.85478 -3.05504 0
M  V30 185 S 17.416 2.6543 -3.49417 0
M  V30 186 H 14.234 0.337522 -0.625779 0
M  V30 187 H 16.836 0.272111 -1.93597 0
M  V30 188 H 15.54 1.23491 -3.9138 0
M  V30 189 H 15.071 2.62827 -2.92721 0
M  V30 190 H 17.086 3.87958 -3.09359 0
M  V30 191 N 16.2591 1.48442 0.529413 0
M  V30 192 C 17.5071 1.56179 1.28267 0
M  V30 193 C 17.8281 0.237721 1.93546 0
M  V30 194 O 17.0981 -0.740779 1.81354 0
M  V30 195 H 15.6781 0.575367 0.476405 0
M  V30 196 H 18.3401 1.84909 0.61602 0
M  V30 197 H 17.4361 2.34312 2.06165 0
M  V30 198 N 17.7372 -0.778329 1.37039 0
M  V30 199 C 18.9842 -1.53665 1.31884 0
M  V30 200 C 19.3122 -1.9425 -0.0986303 0
M  V30 201 O 18.5672 -1.63832 -1.07041 0
M  V30 202 C 18.8662 -2.81845 2.19768 0
M  V30 203 C 18.5322 -2.60345 3.68146 0
M  V30 204 C 17.1942 -2.5419 4.08584 0
M  V30 205 C 19.5462 -2.40923 4.62175 0
M  V30 206 C 16.8742 -2.26594 5.41177 0
M  V30 207 C 19.2262 -2.14852 5.94997 0
M  V30 208 C 17.8902 -2.07137 6.34547 0
M  V30 209 H 17.1602 -0.562299 0.482598 0
M  V30 210 H 19.8072 -0.897069 1.69189 0
M  V30 211 H 18.1122 -3.50328 1.75436 0
M  V30 212 H 19.8092 -3.39692 2.13097 0
M  V30 213 H 16.3992 -2.65996 3.36072 0
M  V30 214 H 20.5832 -2.44673 4.31797 0
M  V30 215 H 15.8392 -2.19111 5.70789 0
M  V30 216 H 20.0132 -1.98822 6.67415 0
M  V30 217 H 17.6402 -1.85518 7.37216 0
M  V30 218 N 19.2153 -1.21501 -1.00376 0
M  V30 219 C 20.1453 -0.999478 -2.11028 0
M  V30 220 C 21.1263 0.0759671 -1.6993 0
M  V30 221 O 22.3113 -0.0841106 -1.94018 0
M  V30 222 C 19.4413 -0.564709 -3.42678 0
M  V30 223 C 18.3953 -1.58486 -3.97576 0
M  V30 224 C 17.7213 -1.00628 -5.25146 0
M  V30 225 C 19.0213 -2.97204 -4.29496 0
M  V30 226 H 20.7153 -1.92495 -2.29317 0
M  V30 227 H 18.2613 -0.92693 -1.102 0
M  V30 228 H 20.2143 -0.401091 -4.19487 0
M  V30 229 H 18.9383 0.396411 -3.24185 0
M  V30 230 H 17.5973 -1.73606 -3.22888 0
M  V30 231 H 17.2453 -0.0368439 -5.02987 0
M  V30 232 H 16.9453 -1.68771 -5.62841 0
M  V30 233 H 18.4693 -0.854015 -6.04598 0
M  V30 234 H 19.8833 -2.8552 -4.97143 0
M  V30 235 H 18.2803 -3.62372 -4.78338 0
M  V30 236 H 19.3503 -3.47956 -3.3772 0
M  V30 237 N 20.6934 1.19889 -1.02296 0
M  V30 238 C 21.9704 1.85148 -0.630832 0
M  V30 239 C 22.3504 1.91385 0.890782 0
M  V30 240 O 21.6984 1.42642 1.78509 0
M  V30 241 C 21.9084 3.24442 -1.28602 0
M  V30 242 C 23.2564 4.00663 -1.4055 0
M  V30 243 O 24.2804 3.33818 -1.24273 0
M  V30 244 O 23.1394 5.20387 -1.66913 0
M  V30 245 H 20.2334 0.797613 -0.218499 0
M  V30 246 H 22.7794 1.27427 -1.12074 0
M  V30 247 H 21.5514 3.14704 -2.32545 0
M  V30 248 H 21.1744 3.89802 -0.7836 0
M  V30 249 N 22.1715 0.800033 1.35784 0
M  V30 250 C 23.4205 0.37387 1.98205 0
M  V30 251 C 23.7335 -1.06302 1.64193 0
M  V30 252 O 24.9395 -1.59198 2.19928 0
M  V30 253 C 23.3955 0.617532 3.54562 0
M  V30 254 C 23.0035 2.06654 3.9749 0
M  V30 255 C 24.7475 0.256401 4.23725 0
M  V30 256 C 22.6545 2.2563 5.46667 0
M  V30 257 H 21.5845 0.136055 0.741623 0
M  V30 258 H 24.2355 0.983166 1.54939 0
M  V30 259 H 22.6175 -0.0616248 3.95952 0
M  V30 260 H 23.7915 2.78296 3.67271 0
M  V30 261 H 22.1065 2.38691 3.41197 0
M  V30 262 H 24.7035 0.376318 5.33374 0
M  V30 263 H 25.0465 -0.796692 4.08606 0
M  V30 264 H 25.5795 0.889214 3.87734 0
M  V30 265 H 22.3185 3.2936 5.66747 0
M  V30 266 H 21.8385 1.58504 5.78478 0
M  V30 267 H 23.5175 2.06861 6.1304 0
M  V30 268 N 23.6496 -1.47581 0.552962 0
M  V30 269 C 24.5596 -2.33743 -0.200353 0
M  V30 270 C 25.5756 -1.47928 -0.916151 0
M  V30 271 O 26.7516 -1.80865 -0.885993 0
M  V30 272 C 23.8166 -3.24536 -1.21973 0
M  V30 273 C 22.8776 -4.26238 -0.511819 0
M  V30 274 C 22.1106 -5.12693 -1.48263 0
M  V30 275 O 22.3336 -5.01525 -2.71714 0
M  V30 276 O 21.2676 -5.93375 -1.00945 0
M  V30 277 H 25.0936 -2.9945 0.506304 0
M  V30 278 H 22.6786 -1.46071 0.313622 0
M  V30 279 H 24.5606 -3.80631 -1.80827 0
M  V30 280 H 23.2356 -2.61462 -1.90839 0
M  V30 281 H 22.1426 -3.73914 0.117799 0
M  V30 282 H 23.4756 -4.92014 0.135308 0
M  V30 283 N 25.1277 -0.289203 -1.54924 0
M  V30 284 C 26.0377 0.601863 -2.26748 0
M  V30 285 C 27.0537 1.15834 -1.2984 0
M  V30 286 O 28.2297 1.18564 -1.62802 0
M  V30 287 C 25.2947 1.76299 -2.98529 0
M  V30 288 C 24.3557 1.24178 -4.10948 0
M  V30 289 C 23.5887 2.34757 -4.79296 0
M  V30 290 O 23.8117 3.54411 -4.46933 0
M  V30 291 O 22.7457 2.02115 -5.66951 0
M  V30 292 H 26.5717 0.0195879 -3.03694 0
M  V30 293 H 24.1567 -0.0560868 -1.49295 0
M  V30 294 H 26.0387 2.43973 -3.43592 0
M  V30 295 H 24.7137 2.33209 -2.24488 0
M  V30 296 H 23.6207 0.531104 -3.70311 0
M  V30 297 H 24.9537 0.718252 -4.86931 0
M  V30 298 N 26.6058 1.57591 -0.0167156 0
M  V30 299 C 27.5538 2.10604 0.987353 0
M  V30 300 C 28.5478 1.02977 1.34507 0
M  V30 301 O 29.7538 1.21425 1.32875 0
M  V30 302 H 26.1288 0.672695 0.336134 0
M  V30 303 H 28.0998 2.93925 0.514817 0
M  V30 304 C 26.8488 2.6382 2.26483 0
M  V30 305 H 26.1718 3.46278 1.99829 0
M  V30 306 H 27.6118 3.04573 2.94977 0
M  V30 307 C 26.0708 1.55992 2.9861 0
M  V30 308 O 26.6008 0.952521 3.90243 0
M  V30 309 N 24.8068 1.28335 2.60727 0
M  V30 310 H 24.3538 1.77914 1.86291 0
M  V30 311 H 24.3118 0.564115 3.09298 0
M  V30 312 N 28.0839 -0.256276 1.55502 0
M  V30 313 C 28.9939 -1.33882 1.92647 0
M  V30 314 C 30.0099 -1.53159 0.825727 0
M  V30 315 O 31.1859 -1.66963 1.12629 0
M  V30 316 C 28.2509 -2.6751 2.20543 0
M  V30 317 C 27.3119 -2.56836 3.43997 0
M  V30 318 C 26.5449 -3.84092 3.70553 0
M  V30 319 O 26.7679 -4.85545 2.99336 0
M  V30 320 O 25.7019 -3.83288 4.64084 0
M  V30 321 H 29.5279 -1.05374 2.84833 0
M  V30 322 H 27.1129 -0.456237 1.42263 0
M  V30 323 H 28.9949 -3.46492 2.39835 0
M  V30 324 H 27.6699 -2.9577 1.31536 0
M  V30 325 H 26.5769 -1.76172 3.30021 0
M  V30 326 H 27.9099 -2.33523 4.33275 0
M  V30 327 N 29.562 -1.4872 -0.521534 0
M  V30 328 C 30.51 -1.64328 -1.64618 0
M  V30 329 C 31.504 -0.50953 -1.61555 0
M  V30 330 O 32.71 -0.688525 -1.66311 0
M  V30 331 H 29.085 -0.517805 -0.545328 0
M  V30 332 H 31.056 -2.58767 -1.48601 0
M  V30 333 C 29.805 -1.70805 -3.02855 0
M  V30 334 H 29.128 -2.5741 -3.05909 0
M  V30 335 H 30.568 -1.85766 -3.81139 0
M  V30 336 C 29.027 -0.448479 -3.33902 0
M  V30 337 O 29.557 0.434928 -3.99339 0
M  V30 338 N 27.763 -0.317616 -2.88859 0
M  V30 339 H 27.31 -1.03748 -2.35784 0
M  V30 340 H 27.268 0.524113 -3.10001 0
M  V30 341 N 31.0401 0.771051 -1.3745 0
M  V30 342 C 32.2651 1.56529 -1.36065 0
M  V30 343 C 32.6901 1.88029 0.0515859 0
M  V30 344 O 32.0481 1.49282 1.02882 0
M  V30 345 C 32.0961 2.85187 -2.20683 0
M  V30 346 O 31.2001 3.79593 -1.61193 0
M  V30 347 H 30.5411 0.47411 -0.464883 0
M  V30 348 H 33.0711 0.954269 -1.80983 0
M  V30 349 H 33.0811 3.34283 -2.33921 0
M  V30 350 H 31.7561 2.61588 -3.23334 0
M  V30 351 H 30.3331 3.38239 -1.56999 0
M  V30 352 N 32.5182 1.22032 0.997298 0
M  V30 353 C 33.7662 1.04016 1.73278 0
M  V30 354 C 34.0872 -0.426255 1.90284 0
M  V30 355 O 33.3572 -1.30694 1.45931 0
M  V30 356 H 31.9372 0.381897 0.642 0
M  V30 357 H 34.5992 1.5347 1.20137 0
M  V30 358 H 33.6952 1.51441 2.72896 0
M  V30 359 N 33.9963 -1.19345 1.0293 0
M  V30 360 C 34.9433 -2.2258 0.610464 0
M  V30 361 C 35.9133 -1.6179 -0.375946 0
M  V30 362 O 37.0983 -1.88844 -0.272511 0
M  V30 363 C 34.2383 -3.45085 -0.0321473 0
M  V30 364 C 33.3513 -4.20258 1.00035 0
M  V30 365 C 32.4863 -5.3019 0.32746 0
M  V30 366 C 31.5253 -5.97121 1.34584 0
M  V30 367 N 30.6623 -6.98615 0.698726 0
M  V30 368 H 35.5023 -2.57764 1.49538 0
M  V30 369 H 33.0393 -1.26644 0.748311 0
M  V30 370 H 34.9973 -4.15061 -0.421966 0
M  V30 371 H 33.6273 -3.10555 -0.88064 0
M  V30 372 H 32.6793 -3.49223 1.50823 0
M  V30 373 H 33.9913 -4.66175 1.77433 0
M  V30 374 H 33.1453 -6.06587 -0.11718 0
M  V30 375 H 31.8843 -4.85345 -0.478713 0
M  V30 376 H 30.8893 -5.19474 1.80074 0
M  V30 377 H 32.1143 -6.4405 2.15352 0
M  V30 378 H 30.0603 -6.55942 -0.0873471 0
M  V30 379 H 29.9773 -7.42724 1.41058 0
M  V30 380 H 31.2453 -7.79004 0.278102 0
M  V30 381 N 35.4744 -0.807222 -1.35358 0
M  V30 382 C 36.7214 -0.387888 -1.9875 0
M  V30 383 C 37.0494 1.04509 -1.64037 0
M  V30 384 O 36.3044 1.73986 -0.895946 0
M  V30 385 C 36.6034 -0.519036 -3.53611 0
M  V30 386 C 36.2694 -1.91542 -4.08194 0
M  V30 387 C 34.9314 -2.29745 -4.22813 0
M  V30 388 C 37.2834 -2.82896 -4.37744 0
M  V30 389 C 34.6114 -3.58668 -4.643 0
M  V30 390 C 36.9634 -4.11265 -4.8067 0
M  V30 391 C 35.6274 -4.49466 -4.93494 0
M  V30 392 H 34.8974 -0.141938 -0.727279 0
M  V30 393 H 37.5444 -1.02814 -1.6156 0
M  V30 394 H 35.8494 0.204658 -3.91265 0
M  V30 395 H 37.5464 -0.175345 -4.00616 0
M  V30 396 H 34.1364 -1.60862 -3.97268 0
M  V30 397 H 38.3204 -2.54629 -4.26002 0
M  V30 398 H 33.5764 -3.88113 -4.72418 0
M  V30 399 H 37.7504 -4.82153 -5.02496 0
M  V30 400 H 35.3774 -5.49418 -5.25399 0
M  V30 401 N 36.9525 1.47285 -0.560781 0
M  V30 402 C 37.8825 2.32857 0.173105 0
M  V30 403 C 38.8635 1.44009 0.905281 0
M  V30 404 O 40.0485 1.7286 0.885046 0
M  V30 405 C 37.1785 3.25861 1.20133 0
M  V30 406 C 36.1325 4.23978 0.585388 0
M  V30 407 C 35.4585 5.06332 1.7185 0
M  V30 408 C 36.7585 5.20242 -0.463178 0
M  V30 409 H 38.4525 2.94466 -0.541307 0
M  V30 410 H 35.9985 1.41601 -0.261764 0
M  V30 411 H 37.9515 3.84569 1.72293 0
M  V30 412 H 36.6755 2.62315 1.94573 0
M  V30 413 H 35.3345 3.66501 0.085054 0
M  V30 414 H 34.9825 4.39186 2.45203 0
M  V30 415 H 34.6825 5.72762 1.31213 0
M  V30 416 H 36.2065 5.67899 2.24329 0
M  V30 417 H 37.6205 5.73293 -0.027502 0
M  V30 418 H 36.0175 5.94896 -0.788627 0
M  V30 419 H 37.0875 4.65504 -1.35773 0
M  V30 420 N 38.4306 0.297415 1.54768 0
M  V30 421 C 39.8466 -0.0560823 1.59501 0
M  V30 422 C 40.0466 -1.52725 1.31444 0
M  V30 423 O 39.1026 -2.27947 1.08611 0
M  V30 424 C 40.4156 0.338631 2.98787 0
M  V30 425 C 41.9636 0.287097 3.11681 0
M  V30 426 C 42.4386 0.656579 4.53269 0
M  V30 427 N 43.9296 0.608977 4.59179 0
M  V30 428 C 44.6646 0.867385 5.66802 0
M  V30 429 N 44.1606 1.19157 6.82476 0
M  V30 430 N 45.9536 0.794687 5.56454 0
M  V30 431 H 38.1046 1.25624 1.71267 0
M  V30 432 H 40.3676 0.509057 0.799728 0
M  V30 433 H 40.0736 1.36263 3.2423 0
M  V30 434 H 39.9476 -0.309508 3.75928 0
M  V30 435 H 42.3346 -0.727649 2.85988 0
M  V30 436 H 42.4156 0.969809 2.36703 0
M  V30 437 H 42.0596 1.66912 4.7969 0
M  V30 438 H 41.9896 -0.0481649 5.26578 0
M  V30 439 H 44.4806 0.369198 3.76092 0
M  V30 440 H 44.7936 1.37482 7.60473 0
M  V30 441 H 43.1386 1.22958 6.84037 0
M  V30 442 H 46.3296 0.541098 4.64962 0
M  V30 443 H 46.5026 0.999445 6.40246 0
M  V30 444 N 39.9087 -1.5758 0.0250728 0
M  V30 445 C 41.3247 -1.56124 -0.331282 0
M  V30 446 C 41.5247 -1.03029 -1.73169 0
M  V30 447 O 40.5807 -0.675215 -2.43305 0
M  V30 448 C 41.8937 -3.00139 -0.183584 0
M  V30 449 C 43.4417 -3.11946 -0.256654 0
M  V30 450 C 43.9167 -4.57793 -0.137792 0
M  V30 451 N 45.4077 -4.6279 -0.194904 0
M  V30 452 C 46.1427 -5.7326 -0.126655 0
M  V30 453 N 45.6387 -6.928 -0.00755288 0
M  V30 454 N 47.4317 -5.61811 -0.180348 0
M  V30 455 H 39.5827 -1.90424 0.94087 0
M  V30 456 H 41.8457 -0.875761 0.362968 0
M  V30 457 H 41.5517 -3.4292 0.780927 0
M  V30 458 H 41.4257 -3.64899 -0.955448 0
M  V30 459 H 43.8127 -2.69079 -1.21162 0
M  V30 460 H 43.8937 -2.49915 0.545517 0
M  V30 461 H 43.5377 -5.01339 0.813739 0
M  V30 462 H 43.4677 -5.17798 -0.958775 0
M  V30 463 H 45.9587 -3.76807 -0.287267 0
M  V30 464 H 46.2717 -7.72791 0.0379428 0
M  V30 465 H 44.6167 -6.94995 0.0271731 0
M  V30 466 H 47.8077 -4.6731 -0.271767 0
M  V30 467 H 47.9807 -6.47882 -0.123697 0
M  V30 468 N 41.3868 0.248026 -1.55636 0
M  V30 469 C 42.6168 0.992367 -1.81206 0
M  V30 470 C 43.0248 1.7949 -0.598324 0
M  V30 471 O 42.3678 1.78292 0.442434 0
M  V30 472 C 42.4298 1.97926 -3.00109 0
M  V30 473 C 42.0938 1.36377 -4.36177 0
M  V30 474 C 43.0908 0.76682 -5.14214 0
M  V30 475 C 40.7758 1.38347 -4.82872 0
M  V30 476 C 42.7698 0.197778 -6.37093 0
M  V30 477 C 40.4568 0.810574 -6.057 0
M  V30 478 C 41.4548 0.218754 -6.8265 0
M  V30 479 O 41.1428 -0.345298 -8.03158 0
M  V30 480 H 40.8748 0.297704 -0.606917 0
M  V30 481 H 43.4288 0.276517 -2.0353 0
M  V30 482 H 41.6588 2.73339 -2.73538 0
M  V30 483 H 43.3478 2.58694 -3.12781 0
M  V30 484 H 44.1138 0.744114 -4.79258 0
M  V30 485 H 39.9928 1.8335 -4.2297 0
M  V30 486 H 43.5368 -0.264788 -6.97097 0
M  V30 487 H 39.4338 0.830604 -6.40134 0
M  V30 488 H 40.2018 -0.237055 -8.18157 0
M  V30 489 N 42.8649 1.48995 0.513639 0
M  V30 490 C 44.1119 1.57843 1.26854 0
M  V30 491 C 44.4399 0.259501 1.92761 0
M  V30 492 O 43.6949 -0.75159 1.80692 0
M  V30 493 C 43.9939 2.67756 2.36731 0
M  V30 494 C 43.6599 4.09669 1.88368 0
M  V30 495 C 42.3219 4.48291 1.74896 0
M  V30 496 C 44.6739 4.98537 1.52021 0
M  V30 497 C 42.0019 5.73568 1.23438 0
M  V30 498 C 44.3539 6.24319 1.0202 0
M  V30 499 C 43.0179 6.61783 0.871778 0
M  V30 500 H 42.2879 0.577587 0.464192 0
M  V30 501 H 44.9349 1.82778 0.571366 0
M  V30 502 H 43.2399 2.36743 3.12185 0
M  V30 503 H 44.9369 2.71813 2.9482 0
M  V30 504 H 41.5269 3.79176 1.99808 0
M  V30 505 H 45.7109 4.69363 1.61281 0
M  V30 506 H 40.9669 6.01304 1.10648 0
M  V30 507 H 45.1409 6.92566 0.729722 0
M  V30 508 H 42.7679 7.5874 0.470852 0
M  V30 509 N 44.343 -0.763751 1.37857 0
M  V30 510 C 45.592 -1.51789 1.32827 0
M  V30 511 C 45.905 -1.95426 -0.0823719 0
M  V30 512 O 47.111 -2.70298 -0.255172 0
M  V30 513 C 45.567 -2.74133 2.33193 0
M  V30 514 C 45.175 -2.37562 3.79827 0
M  V30 515 C 46.919 -3.52054 2.37188 0
M  V30 516 C 44.826 -3.56456 4.71904 0
M  V30 517 H 43.756 -0.569896 0.493695 0
M  V30 518 H 46.407 -0.835822 1.63359 0
M  V30 519 H 44.789 -3.4427 1.9569 0
M  V30 520 H 45.963 -1.75157 4.26212 0
M  V30 521 H 44.278 -1.72798 3.78853 0
M  V30 522 H 46.875 -4.40437 3.03182 0
M  V30 523 H 47.218 -3.92486 1.38782 0
M  V30 524 H 47.751 -2.88921 2.7344 0
M  V30 525 H 44.49 -3.21099 5.71468 0
M  V30 526 H 44.01 -4.17938 4.30218 0
M  V30 527 H 45.689 -4.23168 4.89426 0
M  V30 528 N 45.8211 -1.22559 -0.990812 0
M  V30 529 C 46.7511 -1.0218 -2.09956 0
M  V30 530 C 47.7321 0.0579394 -1.70001 0
M  V30 531 O 48.9171 -0.104684 -1.93918 0
M  V30 532 C 46.0471 -0.601023 -3.4206 0
M  V30 533 C 45.0011 -1.62694 -3.95872 0
M  V30 534 C 44.3271 -1.06193 -5.24049 0
M  V30 535 C 45.6271 -3.01743 -4.2632 0
M  V30 536 H 47.3211 -1.94916 -2.27262 0
M  V30 537 H 44.8671 -0.938566 -1.09211 0
M  V30 538 H 46.8201 -0.445561 -4.19038 0
M  V30 539 H 45.5441 0.362005 -3.24588 0
M  V30 540 H 44.2031 -1.77021 -3.21028 0
M  V30 541 H 43.8511 -0.0901903 -5.02919 0
M  V30 542 H 43.5511 -1.74732 -5.61019 0
M  V30 543 H 45.0751 -0.918092 -6.03658 0
M  V30 544 H 46.4891 -2.90777 -4.94087 0
M  V30 545 H 44.8861 -3.67425 -4.74467 0
M  V30 546 H 45.9561 -3.51518 -3.34011 0
M  V30 547 N 47.2992 1.18797 -1.03562 0
M  V30 548 C 48.5762 1.84469 -0.650434 0
M  V30 549 C 48.9562 1.92319 0.870433 0
M  V30 550 O 48.3042 1.44528 1.76986 0
M  V30 551 C 48.5142 3.2306 -1.32036 0
M  V30 552 C 49.8622 3.9915 -1.44792 0
M  V30 553 O 50.8862 3.32481 -1.27806 0
M  V30 554 O 49.7452 5.18587 -1.72423 0
M  V30 555 H 46.8392 0.795251 -0.226946 0
M  V30 556 H 49.3852 1.26231 -1.13419 0
M  V30 557 H 48.1572 3.1222 -2.3587 0
M  V30 558 H 47.7802 3.88949 -0.8249 0
M  V30 559 N 48.7773 0.814389 1.34928 0
M  V30 560 C 50.0053 0.411136 2.02774 0
M  V30 561 C 50.4203 -0.980316 1.61354 0
M  V30 562 O 49.7773 -1.63299 0.814847 0
M  V30 563 C 49.8283 0.493865 3.58111 0
M  V30 564 O 49.5493 1.83047 3.98027 0
M  V30 565 C 51.0503 0.0844174 4.4322 0
M  V30 566 H 48.2703 0.166037 0.650133 0
M  V30 567 H 50.8143 1.10018 1.72384 0
M  V30 568 H 48.9693 -0.147006 3.87121 0
M  V30 569 H 49.3833 1.79872 4.92693 0
M  V30 570 H 50.8573 0.193404 5.51661 0
M  V30 571 H 51.3343 -0.97113 4.28329 0
M  V30 572 H 51.9403 0.69875 4.19521 0
M  V30 573 N 50.2554 -1.46986 0.568584 0
M  V30 574 C 51.6714 -1.57946 0.229189 0
M  V30 575 C 51.8714 -1.56567 -1.26843 0
M  V30 576 O 50.9274 -1.47511 -2.04931 0
M  V30 577 C 52.2404 -2.87963 0.865909 0
M  V30 578 C 53.7884 -3.01568 0.838188 0
M  V30 579 C 54.2634 -4.34301 1.45419 0
M  V30 580 N 55.7544 -4.40965 1.41788 0
M  V30 581 C 56.4894 -5.42256 1.86403 0
M  V30 582 N 55.9854 -6.50297 2.38926 0
M  V30 583 N 57.7784 -5.3337 1.77405 0
M  V30 584 H 49.9294 -1.46126 1.54146 0
M  V30 585 H 52.1924 -0.696156 0.643484 0
M  V30 586 H 51.8984 -2.94742 1.91886 0
M  V30 587 H 51.7724 -3.75423 0.365687 0
M  V30 588 H 54.1594 -2.94379 -0.206106 0
M  V30 589 H 54.2404 -2.1562 1.37629 0
M  V30 590 H 53.8844 -4.42247 2.49761 0
M  V30 591 H 53.8144 -5.19 0.891435 0
M  V30 592 H 56.3054 -3.63484 1.03381 0
M  V30 593 H 56.6184 -7.23777 2.70863 0
M  V30 594 H 54.9634 -6.51155 2.42944 0
M  V30 595 H 58.1544 -4.47865 1.3614 0
M  V30 596 H 58.3274 -6.12169 2.12492 0
M  V30 597 N 51.7335 -0.305618 -1.54608 0
M  V30 598 C 52.6435 0.57778 -2.27374 0
M  V30 599 C 53.6595 1.14451 -1.31061 0
M  V30 600 O 54.8355 1.16831 -1.6405 0
M  V30 601 C 51.9005 1.73123 -3.00382 0
M  V30 602 C 50.9615 1.19812 -4.12242 0
M  V30 603 C 50.1945 2.2966 -4.81759 0
M  V30 604 O 50.4175 3.49651 -4.50666 0
M  V30 605 O 49.3515 1.96091 -5.69062 0
M  V30 606 H 53.1775 -0.012624 -3.03697 0
M  V30 607 H 50.7625 -0.0719184 -1.49227 0
M  V30 608 H 52.6445 2.40315 -3.4616 0
M  V30 609 H 51.3195 2.30815 -2.26949 0
M  V30 610 H 50.2265 0.491798 -3.70853 0
M  V30 611 H 51.5595 0.666566 -4.87666 0
M  V30 612 N 53.2116 1.57565 -0.0334293 0
M  V30 613 C 54.4886 1.83282 0.683163 0
M  V30 614 C 54.8686 0.91823 1.90084 0
M  V30 615 O 54.2166 -0.025113 2.28486 0
M  V30 616 C 54.4266 3.32599 1.0573 0
M  V30 617 C 55.7746 3.99179 1.44711 0
M  V30 618 O 56.7986 3.3712 1.15015 0
M  V30 619 O 55.6576 5.08565 2.0006 0
M  V30 620 H 52.7516 0.755869 0.335546 0
M  V30 621 H 55.2976 1.69589 -0.0614402 0
M  V30 622 H 54.0696 3.90834 0.190828 0
M  V30 623 H 53.6926 3.51415 1.85993 0
M  V30 624 N 54.6897 -0.239769 1.55765 0
M  V30 625 C 55.9147 -0.988373 1.82335 0
M  V30 626 C 56.3397 -1.77886 0.611421 0
M  V30 627 O 55.6977 -1.75889 -0.439639 0
M  V30 628 C 55.7457 -1.89627 3.06715 0
M  V30 629 O 54.8497 -2.98904 2.84131 0
M  V30 630 H 54.1907 -0.280858 0.601677 0
M  V30 631 H 56.7207 -0.258597 2.02959 0
M  V30 632 H 56.7307 -2.30957 3.36338 0
M  V30 633 H 55.4057 -1.31511 3.9456 0
M  V30 634 H 53.9827 -2.61651 2.65694 0
M  V30 635 N 56.1678 -1.49265 -0.50573 0
M  V30 636 C 57.4148 -1.58513 -1.26015 0
M  V30 637 C 57.7428 -0.26972 -1.92621 0
M  V30 638 O 56.9978 0.741997 -1.81088 0
M  V30 639 C 57.2968 -2.69008 -2.35308 0
M  V30 640 C 56.9628 -4.10662 -1.86192 0
M  V30 641 C 55.6248 -4.49212 -1.72516 0
M  V30 642 C 57.9768 -4.99336 -1.49375 0
M  V30 643 C 55.3048 -5.74214 -1.20394 0
M  V30 644 C 57.6568 -6.24852 -0.987072 0
M  V30 645 C 56.3208 -6.62236 -0.836669 0
M  V30 646 H 55.5908 -0.580041 -0.461122 0
M  V30 647 H 58.2378 -1.83078 -0.561665 0
M  V30 648 H 56.5428 -2.38396 -3.10926 0
M  V30 649 H 58.2398 -2.73373 -2.93374 0
M  V30 650 H 54.8298 -3.8023 -1.97795 0
M  V30 651 H 59.0138 -4.70212 -1.5879 0
M  V30 652 H 54.2698 -6.01883 -1.07458 0
M  V30 653 H 58.4438 -6.92944 -0.692983 0
M  V30 654 H 56.0708 -7.58979 -0.430607 0
M  V30 655 N 57.6459 0.756429 -1.3826 0
M  V30 656 C 58.8919 1.51772 -1.34511 0
M  V30 657 C 59.2249 1.94089 0.0656691 0
M  V30 658 O 58.4999 1.65221 1.02626 0
M  V30 659 C 58.7829 2.77226 -2.29821 0
M  V30 660 C 58.6359 2.41065 -3.79747 0
M  V30 661 C 59.9549 3.79236 -2.23312 0
M  V30 662 H 57.0739 0.550578 -0.489931 0
M  V30 663 H 59.7159 0.866607 -1.69086 0
M  V30 664 H 57.8659 3.32784 -2.00467 0
M  V30 665 H 59.5379 1.91303 -4.19763 0
M  V30 666 H 57.7809 1.7356 -3.97567 0
M  V30 667 H 58.4519 3.3081 -4.41892 0
M  V30 668 H 60.9279 3.3321 -2.49219 0
M  V30 669 H 59.8039 4.64714 -2.92116 0
M  V30 670 H 60.0649 4.24615 -1.23102 0
M  V30 671 N 59.124 1.23083 0.984299 0
M  V30 672 C 60.37 1.07221 1.72845 0
M  V30 673 C 60.725 -0.387453 1.88458 0
M  V30 674 O 60.018 -1.28309 1.42293 0
M  V30 675 C 60.212 1.72673 3.1292 0
M  V30 676 C 60.041 3.24853 3.10967 0
M  V30 677 C 58.811 3.93998 3.16376 0
M  V30 678 C 61.009 4.21674 2.94441 0
M  V30 679 N 58.991 5.33192 3.04268 0
M  V30 680 C 60.362 5.47756 2.90453 0
M  V30 681 C 62.417 4.12457 2.78897 0
M  V30 682 C 61.12 6.6568 2.72512 0
M  V30 683 C 63.146 5.3004 2.62319 0
M  V30 684 C 62.508 6.55046 2.59026 0
M  V30 685 H 58.607 0.44685 0.641755 0
M  V30 686 H 61.191 1.55753 1.16829 0
M  V30 687 H 59.362 1.26679 3.67161 0
M  V30 688 H 61.094 1.49824 3.75945 0
M  V30 689 H 57.849 3.45052 3.24401 0
M  V30 690 H 58.273 6.06157 3.015 0
M  V30 691 H 62.915 3.16588 2.80235 0
M  V30 692 H 60.633 7.61689 2.69919 0
M  V30 693 H 64.219 5.24747 2.5126 0
M  V30 694 H 63.099 7.44498 2.46357 0
M  V30 695 N 60.6021 -1.18246 1.0419 0
M  V30 696 C 61.8321 -1.91916 0.764961 0
M  V30 697 C 62.2401 -1.76485 -0.681898 0
M  V30 698 O 61.5831 -1.09275 -1.47664 0
M  V30 699 C 61.6451 -3.4373 1.05309 0
M  V30 700 C 61.3091 -3.8294 2.4941 0
M  V30 701 C 62.3061 -3.86621 3.47592 0
M  V30 702 C 59.9911 -4.142 2.84155 0
M  V30 703 C 61.9851 -4.21013 4.78568 0
M  V30 704 C 59.6721 -4.48262 4.15337 0
M  V30 705 C 60.6701 -4.51645 5.12353 0
M  V30 706 O 60.3581 -4.84911 6.41183 0
M  V30 707 H 60.0901 -0.61606 0.278292 0
M  V30 708 H 62.6441 -1.50947 1.39299 0
M  V30 709 H 60.8741 -3.84946 0.367933 0
M  V30 710 H 62.5631 -3.9865 0.763752 0
M  V30 711 H 63.3291 -3.62607 3.22089 0
M  V30 712 H 59.2081 -4.10743 2.09311 0
M  V30 713 H 62.7521 -4.23568 5.54289 0
M  V30 714 H 58.6491 -4.71737 4.40607 0
M  V30 715 H 59.4171 -5.02809 6.45852 0
M  V30 716 N 62.0802 -0.821533 -1.34494 0
M  V30 717 C 63.0132 -0.187704 -2.27427 0
M  V30 718 C 63.9912 0.65507 -1.48821 0
M  V30 719 O 65.1752 0.619111 -1.78043 0
M  V30 720 C 62.3022 0.737996 -3.30562 0
M  V30 721 C 61.3482 -0.0270713 -4.26491 0
M  V30 722 S 62.1812 -1.37329 -5.17592 0
M  V30 723 C 63.3372 -0.452427 -6.24263 0
M  V30 724 H 63.5702 -0.975598 -2.80837 0
M  V30 725 H 61.1032 -0.61736 -1.4152 0
M  V30 726 H 63.0612 1.26654 -3.90473 0
M  V30 727 H 61.7222 1.4994 -2.76001 0
M  V30 728 H 60.9152 0.6766 -4.99438 0
M  V30 729 H 60.5172 -0.48612 -3.70827 0
M  V30 730 H 62.8092 0.356557 -6.76561 0
M  V30 731 H 63.7522 -1.15153 -6.98674 0
M  V30 732 H 64.1602 -0.0414755 -5.64485 0
M  V30 733 N 63.5583 1.46682 -0.576371 0
M  V30 734 C 64.8353 1.95599 0.00703437 0
M  V30 735 C 65.2153 1.51904 1.46589 0
M  V30 736 O 64.5633 0.766755 2.15251 0
M  V30 737 C 64.7733 3.4864 -0.158404 0
M  V30 738 C 66.1213 4.24594 -0.0229439 0
M  V30 739 O 67.1453 3.56094 -0.0869173 0
M  V30 740 O 66.0043 5.46373 0.118015 0
M  V30 741 H 63.0983 0.825275 0.053384 0
M  V30 742 H 65.6443 1.56996 -0.644244 0
M  V30 743 H 64.4163 3.7331 -1.17282 0
M  V30 744 H 64.0393 3.94057 0.5296 0
M  V30 745 N 65.0364 0.313813 1.54444 0
M  V30 746 C 65.9844 -0.572171 2.25453 0
M  V30 747 C 66.9784 -1.12657 1.2651 0
M  V30 748 O 68.1844 -1.07573 1.44319 0
M  V30 749 H 64.5594 -0.203146 0.724041 0
M  V30 750 H 66.5304 0.0491145 2.9836 0
M  V30 751 C 65.2794 -1.72626 3.0182 0
M  V30 752 H 64.6024 -1.30891 3.77767 0
M  V30 753 H 66.0424 -2.32199 3.54767 0
M  V30 754 C 64.5014 -2.63806 2.09542 0
M  V30 755 O 65.0314 -3.65256 1.67185 0
M  V30 756 N 63.2374 -2.31824 1.75232 0
M  V30 757 H 62.7844 -1.49368 2.09873 0
M  V30 758 H 62.7424 -2.93095 1.13767 0
M  V30 759 N 66.5145 -1.57545 0.0417849 0
M  V30 760 C 67.9255 -1.80011 -0.495259 0
M  V30 761 C 68.2765 -0.953199 -1.71489 0
M  V30 762 O 67.4015 -0.167138 -2.15754 0
M  V30 763 C 67.9965 -3.26482 -0.905265 0
M  V30 764 C 66.5555 -3.499 -1.38734 0
M  V30 765 C 65.7025 -2.74979 -0.358056 0
M  V30 766 H 68.6535 -1.56425 0.267736 0
M  V30 767 H 68.6745 -3.36887 -1.76882 0
M  V30 768 H 68.1865 -3.88096 -0.017401 0
M  V30 769 H 66.2875 -2.93553 -2.29471 0
M  V30 770 H 66.4005 -4.58615 -1.38598 0
M  V30 771 H 64.7645 -2.40834 -0.828912 0
M  V30 772 H 65.5475 -3.39315 0.521561 0
M  V30 773 N 67.9926 0.231505 -1.5589 0
M  V30 774 C 68.9246 1.31006 -1.8807 0
M  V30 775 C 69.9376 1.43539 -0.768145 0
M  V30 776 O 71.1266 1.44614 -1.04638 0
M  V30 777 C 68.2266 2.68688 -2.06543 0
M  V30 778 C 67.3996 2.78228 -3.37502 0
M  V30 779 C 66.4586 3.96857 -3.4553 0
M  V30 780 O 65.4846 3.85662 -4.18633 0
M  V30 781 N 66.6866 5.1072 -2.75944 0
M  V30 782 H 69.4516 1.03731 -2.81176 0
M  V30 783 H 67.0126 0.421573 -1.56315 0
M  V30 784 H 69.0046 3.46412 -2.09239 0
M  V30 785 H 67.5746 2.88605 -1.20109 0
M  V30 786 H 66.7946 1.87059 -3.46991 0
M  V30 787 H 68.0826 2.81564 -4.23791 0
M  V30 788 H 67.4806 5.2271 -2.16311 0
M  V30 789 H 66.0376 5.86523 -2.84314 0
M  V30 790 N 69.4707 1.49531 0.497807 0
M  V30 791 C 70.4187 1.66926 1.61983 0
M  V30 792 C 71.4127 0.535167 1.60724 0
M  V30 793 O 72.6187 0.714896 1.65195 0
M  V30 794 H 68.9937 0.526415 0.537021 0
M  V30 795 H 70.9647 2.61098 1.44465 0
M  V30 796 C 69.7137 1.75602 3.00099 0
M  V30 797 H 69.0367 2.62244 3.01775 0
M  V30 798 H 70.4767 1.91807 3.78135 0
M  V30 799 C 68.9357 0.501543 3.33146 0
M  V30 800 O 69.4657 -0.371342 3.9998 0
M  V30 801 N 67.6717 0.363531 2.88317 0
M  V30 802 H 67.2187 1.07485 2.34104 0
M  V30 803 H 67.1767 -0.474728 3.10795 0
M  V30 804 N 70.9488 -0.749086 1.3866 0
M  V30 805 C 71.8788 -1.8764 1.38973 0
M  V30 806 C 72.8598 -1.68178 0.255004 0
M  V30 807 O 74.0448 -1.88704 0.458754 0
M  V30 808 C 71.1748 -3.25222 1.21851 0
M  V30 809 C 70.1288 -3.59295 2.32575 0
M  V30 810 C 69.4548 -4.95663 2.00555 0
M  V30 811 C 70.7548 -3.63709 3.7485 0
M  V30 812 H 72.4488 -1.87635 2.3331 0
M  V30 813 H 69.9948 -0.901329 1.12303 0
M  V30 814 H 71.9478 -4.03746 1.20695 0
M  V30 815 H 70.6718 -3.25719 0.239775 0
M  V30 816 H 69.3308 -2.83093 2.32925 0
M  V30 817 H 68.9788 -4.92724 1.01154 0
M  V30 818 H 68.6788 -5.19429 2.74714 0
M  V30 819 H 70.2028 -5.7656 2.01024 0
M  V30 820 H 71.6168 -4.32338 3.76506 0
M  V30 821 H 70.0138 -3.98986 4.48252 0
M  V30 822 H 71.0838 -2.63834 4.06841 0
M  V30 823 N 72.4269 -1.23603 -0.977757 0
M  V30 824 C 73.8379 -1.06424 -1.53398 0
M  V30 825 C 74.1889 0.367578 -1.92726 0
M  V30 826 O 73.3139 1.25465 -1.76316 0
M  V30 827 C 73.9089 -1.92568 -2.78753 0
M  V30 828 C 72.4679 -1.79642 -3.30765 0
M  V30 829 C 71.6149 -1.88111 -2.03739 0
M  V30 830 H 74.5659 -1.37227 -0.797152 0
M  V30 831 H 74.5869 -1.45203 -3.51705 0
M  V30 832 H 74.0989 -2.96771 -2.50098 0
M  V30 833 H 72.1999 -0.782325 -3.64294 0
M  V30 834 H 72.3129 -2.63174 -4.00345 0
M  V30 835 H 70.6769 -1.31723 -2.17994 0
M  V30 836 H 71.4599 -2.93875 -1.77461 0
M  V30 837 N 73.905 1.17692 -1.04816 0
M  V30 838 C 75.13 1.92327 -0.776207 0
M  V30 839 C 75.555 1.76082 0.661581 0
M  V30 840 O 74.913 1.076 1.45917 0
M  V30 841 C 74.961 3.41539 -1.15687 0
M  V30 842 O 74.065 4.11402 -0.286775 0
M  V30 843 H 73.406 0.599735 -0.284981 0
M  V30 844 H 75.936 1.49201 -1.4 0
M  V30 845 H 75.946 3.92269 -1.12202 0
M  V30 846 H 74.621 3.52684 -2.20425 0
M  V30 847 H 73.198 3.70939 -0.381903 0
M  V30 848 N 75.3831 0.828654 1.34056 0
M  V30 849 C 76.6311 0.41863 1.97717 0
M  V30 850 C 76.9521 -1.02314 1.66002 0
M  V30 851 O 76.2221 -1.71119 0.953683 0
M  V30 852 H 74.8021 0.151809 0.731412 0
M  V30 853 H 77.4641 1.05936 1.63596 0
M  V30 854 H 76.5601 0.542318 3.07352 0
M  V30 855 N 76.8612 -1.46375 0.584142 0
M  V30 856 C 78.0862 -2.07268 0.0740405 0
M  V30 857 C 78.5112 -1.42979 -1.22223 0
M  V30 858 O 77.8692 -0.514092 -1.73859 0
M  V30 859 C 77.9172 -3.60518 -0.0767769 0
M  V30 860 O 77.0212 -3.96533 -1.13292 0
M  V30 861 H 76.3622 -0.660961 0.0634524 0
M  V30 862 H 78.8922 -1.87991 0.807492 0
M  V30 863 H 78.9022 -4.07021 -0.282489 0
M  V30 864 H 77.5772 -4.06702 0.86986 0
M  V30 865 H 76.1542 -3.61738 -0.905553 0
M  V30 866 N 78.3393 -0.321999 -1.54275 0
M  V30 867 C 79.5643 0.285791 -2.05422 0
M  V30 868 C 79.9893 1.45124 -1.19669 0
M  V30 869 O 79.3473 1.80132 -0.205441 0
M  V30 870 C 79.3953 0.69956 -3.53749 0
M  V30 871 O 78.4993 1.8021 -3.70942 0
M  V30 872 H 77.8403 0.0518962 -0.661969 0
M  V30 873 H 80.3703 -0.469954 -1.9913 0
M  V30 874 H 80.3803 0.982649 -3.9599 0
M  V30 875 H 79.0553 -0.152864 -4.15619 0
M  V30 876 H 77.6323 1.51794 -3.40607 0
M  V30 877 N 79.8174 1.5752 -0.0501392 0
M  V30 878 C 81.2334 1.56631 0.306402 0
M  V30 879 C 81.4334 1.0577 1.71508 0
M  V30 880 O 80.4894 0.713837 2.422 0
M  V30 881 C 81.8024 3.00393 0.135811 0
M  V30 882 C 83.3504 3.12315 0.206993 0
M  V30 883 C 83.8254 4.57954 0.064944 0
M  V30 884 N 85.3164 4.63041 0.121254 0
M  V30 885 C 86.0514 5.73389 0.0354381 0
M  V30 886 N 85.5474 6.92724 -0.102666 0
M  V30 887 N 87.3404 5.62026 0.090946 0
M  V30 888 H 79.4914 1.88903 -0.971046 0
M  V30 889 H 81.7544 0.869876 -0.376855 0
M  V30 890 H 81.4604 3.41635 -0.835384 0
M  V30 891 H 81.3344 3.66373 0.897275 0
M  V30 892 H 83.7214 2.70973 1.16866 0
M  V30 893 H 83.8024 2.49016 -0.585208 0
M  V30 894 H 83.4464 4.99981 -0.893394 0
M  V30 895 H 83.3764 5.19258 0.876277 0
M  V30 896 H 85.8674 3.77216 0.227284 0
M  V30 897 H 86.1804 7.72633 -0.160882 0
M  V30 898 H 84.5254 6.94864 -0.137737 0
M  V30 899 H 87.7164 4.67684 0.197388 0
M  V30 900 H 87.8894 6.47997 0.0206089 0
M  V30 901 N 81.2955 -0.223234 1.56011 0
M  V30 902 C 82.5415 -0.949279 1.79211 0
M  V30 903 C 82.8745 -1.84054 0.619494 0
M  V30 904 O 82.1495 -1.90726 -0.381317 0
M  V30 905 C 82.4325 -1.78965 3.12479 0
M  V30 906 C 82.2855 -0.924997 4.40186 0
M  V30 907 C 83.6045 -2.76774 3.42175 0
M  V30 908 H 80.7235 -0.343676 0.651963 0
M  V30 909 H 83.3655 -0.218253 1.88742 0
M  V30 910 H 81.5155 -2.41291 3.04485 0
M  V30 911 H 83.1875 -0.318615 4.60198 0
M  V30 912 H 81.4305 -0.230344 4.33188 0
M  V30 913 H 82.1015 -1.54735 5.29869 0
M  V30 914 H 84.5775 -2.24584 3.50287 0
M  V30 915 H 83.4535 -3.32678 4.36597 0
M  V30 916 H 83.7145 -3.54429 2.64258 0
M  V30 917 N 82.7736 -1.49793 -0.48987 0
M  V30 918 C 84.0216 -1.59525 -1.24081 0
M  V30 919 C 84.3426 -0.288953 -1.92847 0
M  V30 920 O 83.6126 0.692436 -1.83254 0
M  V30 921 H 82.1926 -0.587796 -0.460983 0
M  V30 922 H 84.8546 -1.86477 -0.566778 0
M  V30 923 H 83.9506 -2.39696 -1.99881 0
M  V30 924 N 84.2517 0.741722 -1.39055 0
M  V30 925 C 85.2147 1.83733 -1.37021 0
M  V30 926 C 86.2147 1.58542 -0.268534 0
M  V30 927 O 87.4047 1.66067 -0.526076 0
M  V30 928 C 84.5367 3.2141 -1.13617 0
M  V30 929 H 85.7297 1.86941 -2.34506 0
M  V30 930 H 83.2827 0.944676 -1.24521 0
M  V30 931 H 84.0177 3.23865 -0.167863 0
M  V30 932 H 83.8027 3.4109 -1.93391 0
M  V30 933 H 85.2927 4.01477 -1.14918 0
M  V30 934 N 85.7298 1.2412 0.971189 0
M  V30 935 C 86.9788 1.07284 1.70801 0
M  V30 936 C 87.2918 -0.388902 1.91695 0
M  V30 937 O 88.4978 -0.677379 2.62914 0
M  V30 938 C 86.9538 1.87145 3.07416 0
M  V30 939 C 86.5618 3.37707 2.94377 0
M  V30 940 C 88.3058 1.78828 3.84995 0
M  V30 941 C 86.2128 4.09925 4.26281 0
M  V30 942 H 85.1428 0.397854 0.64049 0
M  V30 943 H 87.7938 1.4817 1.0825 0
M  V30 944 H 86.1758 1.39071 3.70777 0
M  V30 945 H 87.3498 3.93335 2.4005 0
M  V30 946 H 85.6648 3.46938 2.30267 0
M  V30 947 H 88.2618 2.30089 4.82662 0
M  V30 948 H 88.6048 0.75284 4.09436 0
M  V30 949 H 89.1378 2.24563 3.28354 0
M  V30 950 H 85.8768 5.13813 4.07033 0
M  V30 951 H 85.3968 3.59083 4.80437 0
M  V30 952 H 87.0758 4.1673 4.94919 0
M  V30 953 N 87.2079 -1.17134 1.05439 0
M  V30 954 C 88.1549 -2.21235 0.657539 0
M  V30 955 C 89.1249 -1.62551 -0.341543 0
M  V30 956 O 90.3099 -1.89379 -0.232393 0
M  V30 957 C 87.4499 -3.45076 0.0410575 0
M  V30 958 C 86.5629 -4.18042 1.08927 0
M  V30 959 C 85.6979 -5.29376 0.439848 0
M  V30 960 C 84.7369 -5.94132 1.4722 0
M  V30 961 N 83.8739 -6.96975 0.846756 0
M  V30 962 H 88.7139 -2.54534 1.54972 0
M  V30 963 H 86.2509 -1.25028 0.775006 0
M  V30 964 H 88.2089 -4.15862 -0.33383 0
M  V30 965 H 86.8389 -3.12353 -0.814568 0
M  V30 966 H 85.8909 -3.45945 1.58196 0
M  V30 967 H 87.2029 -4.62306 1.87282 0
M  V30 968 H 86.3569 -6.06699 0.0115125 0
M  V30 969 H 85.0959 -4.86251 -0.375656 0
M  V30 970 H 84.1009 -5.15538 1.91052 0
M  V30 971 H 85.3259 -6.39337 2.28965 0
M  V30 972 H 83.2719 -6.5598 0.0518075 0
M  V30 973 H 83.1889 -7.39565 1.5678 0
M  V30 974 H 84.4569 -7.78239 0.443277 0
M  V30 975 N 88.686 -0.835752 -1.33615 0
M  V30 976 C 89.616 -0.281739 -2.31794 0
M  V30 977 C 90.597 0.608833 -1.58831 0
M  V30 978 O 91.782 0.533035 -1.86741 0
M  V30 979 C 88.912 0.546612 -3.42971 0
M  V30 980 C 87.866 -0.247904 -4.27281 0
M  V30 981 C 87.192 0.704001 -5.30045 0
M  V30 982 C 88.492 -1.46324 -5.01385 0
M  V30 983 H 90.186 -1.10206 -2.78379 0
M  V30 984 H 87.732 -0.531388 -1.33837 0
M  V30 985 H 89.685 0.944467 -4.1068 0
M  V30 986 H 88.409 1.40011 -2.95067 0
M  V30 987 H 87.068 -0.627281 -3.61194 0
M  V30 988 H 86.716 1.55381 -4.78399 0
M  V30 989 H 86.416 0.176524 -5.87335 0
M  V30 990 H 87.94 1.09944 -6.0062 0
M  V30 991 H 89.354 -1.13871 -5.61877 0
M  V30 992 H 87.751 -1.92728 -5.6831 0
M  V30 993 H 88.821 -2.23467 -4.30338 0
M  V30 994 N 90.1641 1.46063 -0.591896 0
M  V30 995 C 91.3921 2.06717 -0.0868936 0
M  V30 996 C 91.8071 1.43916 1.22203 0
M  V30 997 O 91.1641 0.547698 1.74088 0
M  V30 998 C 91.2151 3.6142 0.0758725 0
M  V30 999 O 90.9361 4.21874 -1.18126 0
M  V30 1000 C 92.4371 4.39025 0.61416 0
M  V30 1001 H 89.6571 0.668162 -0.0616518 0
M  V30 1002 H 92.2011 1.8755 -0.815175 0
M  V30 1003 H 90.3561 3.79983 0.754413 0
M  V30 1004 H 90.7701 5.14861 -1.00092 0
M  V30 1005 H 92.2441 5.4783 0.677193 0
M  V30 1006 H 92.7211 4.07708 1.63312 0
M  V30 1007 H 93.3271 4.2529 -0.0298142 0
M  V30 1008 N 91.6422 0.330177 1.54103 0
M  V30 1009 C 92.8722 -0.271784 2.04805 0
M  V30 1010 C 93.2802 -1.45816 1.20559 0
M  V30 1011 O 92.6232 -1.82247 0.2306 0
M  V30 1012 C 92.6852 -0.763238 3.51305 0
M  V30 1013 C 92.3492 0.301705 4.56003 0
M  V30 1014 C 93.3462 1.13999 5.07248 0
M  V30 1015 C 91.0312 0.451793 5.00264 0
M  V30 1016 C 93.0252 2.11402 6.01322 0
M  V30 1017 C 90.7122 1.42924 5.94151 0
M  V30 1018 C 91.7102 2.25882 6.44567 0
M  V30 1019 O 91.3982 3.21965 7.3661 0
M  V30 1020 H 91.1302 -0.058693 0.673447 0
M  V30 1021 H 93.6842 0.476395 1.99799 0
M  V30 1022 H 91.9142 -1.56244 3.5373 0
M  V30 1023 H 93.6032 -1.28427 3.85047 0
M  V30 1024 H 94.3692 1.03505 4.73827 0
M  V30 1025 H 90.2482 -0.184044 4.60632 0
M  V30 1026 H 93.7922 2.76192 6.40596 0
M  V30 1027 H 89.6892 1.53479 6.26988 0
M  V30 1028 H 90.4572 3.17281 7.54503 0
M  V30 1029 N 93.1203 -1.57491 0.0584922 0
M  V30 1030 C 94.3693 -1.92155 -0.613146 0
M  V30 1031 C 94.6823 -0.939334 -1.71569 0
M  V30 1032 O 95.8883 -1.17829 -2.44599 0
M  V30 1033 C 94.3443 -3.41303 -1.14195 0
M  V30 1034 C 93.9523 -4.47944 -0.0711265 0
M  V30 1035 C 95.6963 -3.84988 -1.78841 0
M  V30 1036 C 93.6033 -5.88212 -0.613225 0
M  V30 1037 H 92.5333 -0.717162 -0.232796 0
M  V30 1038 H 95.1843 -1.83049 0.12857 0
M  V30 1039 H 93.5663 -3.45437 -1.93621 0
M  V30 1040 H 94.7403 -4.55408 0.702836 0
M  V30 1041 H 93.0553 -4.13644 0.478313 0
M  V30 1042 H 95.6523 -4.87159 -2.20408 0
M  V30 1043 H 95.9953 -3.21632 -2.64308 0
M  V30 1044 H 96.5283 -3.83401 -1.06059 0
M  V30 1045 H 93.2673 -6.55183 0.203978 0
M  V30 1046 H 92.7873 -5.84294 -1.35501 0
M  V30 1047 H 94.4663 -6.37687 -1.09383 0
M  V30 1048 N 94.5984 0.214957 -1.56127 0
M  V30 1049 C 95.8234 0.95924 -1.83884 0
M  V30 1050 C 96.2484 1.7689 -0.639644 0
M  V30 1051 O 95.6064 1.76566 0.411601 0
M  V30 1052 C 95.6544 1.84723 -3.09693 0
M  V30 1053 O 94.7584 2.94346 -2.8885 0
M  V30 1054 H 94.0994 0.27125 -0.606069 0
M  V30 1055 H 96.6294 0.226276 -2.03345 0
M  V30 1056 H 96.6394 2.25576 -3.39969 0
M  V30 1057 H 95.3144 1.25218 -3.96602 0
M  V30 1058 H 93.8914 2.57391 -2.69823 0
M  V30 1059 N 96.0765 1.50051 0.48192 0
M  V30 1060 C 97.0235 1.68122 1.58125 0
M  V30 1061 C 97.9935 0.522545 1.57666 0
M  V30 1062 O 99.1785 0.751844 1.75362 0
M  V30 1063 C 96.3185 1.77142 2.96167 0
M  V30 1064 C 95.4315 3.0444 3.06497 0
M  V30 1065 C 94.5665 3.04321 4.35387 0
M  V30 1066 C 93.6055 4.26118 4.3942 0
M  V30 1067 N 92.7425 4.238 5.59766 0
M  V30 1068 H 97.5825 2.6198 1.42022 0
M  V30 1069 H 95.1195 1.29877 0.690687 0
M  V30 1070 H 97.0775 1.80352 3.76203 0
M  V30 1071 H 95.7075 0.867329 3.1093 0
M  V30 1072 H 94.7595 3.10752 2.19402 0
M  V30 1073 H 96.0715 3.94426 3.05336 0
M  V30 1074 H 95.2255 3.062 5.23762 0
M  V30 1075 H 93.9645 2.12147 4.39141 0
M  V30 1076 H 92.9695 4.24463 3.49444 0
M  V30 1077 H 94.1945 5.19507 4.37366 0
M  V30 1078 H 92.1405 3.34474 5.64326 0
M  V30 1079 H 92.0575 5.07542 5.60301 0
M  V30 1080 H 93.3255 4.2981 6.50295 0
M  V30 1081 N 97.5546 -0.734337 1.39446 0
M  V30 1082 C 98.8006 -1.49613 1.36908 0
M  V30 1083 C 99.1336 -1.94169 -0.0347829 0
M  V30 1084 O 98.4086 -1.66833 -0.999847 0
M  V30 1085 C 98.6916 -2.73534 2.34203 0
M  V30 1086 C 98.5446 -2.34993 3.83534 0
M  V30 1087 C 99.8636 -3.75635 2.29317 0
M  V30 1088 H 96.9826 -0.542714 0.498629 0
M  V30 1089 H 99.6246 -0.839597 1.70443 0
M  V30 1090 H 97.7746 -3.29553 2.05736 0
M  V30 1091 H 99.4466 -1.84601 4.22753 0
M  V30 1092 H 97.6896 -1.67213 4.00278 0
M  V30 1093 H 98.3606 -3.23738 4.47099 0
M  V30 1094 H 100.837 -3.29203 2.54489 0
M  V30 1095 H 99.7126 -4.60008 2.99472 0
M  V30 1096 H 99.9736 -4.22603 1.29842 0
M  V30 1097 N 99.0327 -1.24633 -0.964593 0
M  V30 1098 C 100.258 -1.11596 -1.74818 0
M  V30 1099 C 100.683 0.32723 -1.85232 0
M  V30 1100 O 100.041 1.23695 -1.32549 0
M  V30 1101 C 100.089 -1.76397 -3.1451 0
M  V30 1102 O 99.1927 -1.03685 -3.99153 0
M  V30 1103 H 98.5337 -0.390196 -0.537255 0
M  V30 1104 H 101.064 -1.65002 -1.20977 0
M  V30 1105 H 101.074 -1.8228 -3.65018 0
M  V30 1106 H 99.7487 -2.81401 -3.06246 0
M  V30 1107 H 98.3257 -1.05611 -3.57632 0
M  V30 1108 N 100.511 1.16574 -1.06058 0
M  V30 1109 C 101.788 1.83048 -0.689416 0
M  V30 1110 C 102.168 1.94122 0.829443 0
M  V30 1111 O 101.516 1.48249 1.7388 0
M  V30 1112 C 101.726 3.20186 -1.38859 0
M  V30 1113 C 103.074 3.95989 -1.53226 0
M  V30 1114 O 104.098 3.29696 -1.3483 0
M  V30 1115 O 102.957 5.14813 -1.83384 0
M  V30 1116 H 100.051 0.790258 -0.243764 0
M  V30 1117 H 102.597 1.23797 -1.16071 0
M  V30 1118 H 101.369 3.07146 -2.4244 0
M  V30 1119 H 100.992 3.87112 -0.907216 0
M  V30 1120 N 101.989 0.842826 1.3317 0
M  V30 1121 C 102.952 0.284065 2.27433 0
M  V30 1122 C 103.952 -0.54948 1.5112 0
M  V30 1123 O 105.142 -0.362699 1.70382 0
M  V30 1124 C 102.274 -0.599384 3.35589 0
M  V30 1125 H 103.467 1.11589 2.78366 0
M  V30 1126 H 101.02 0.616221 1.4364 0
M  V30 1127 H 101.755 -1.45349 2.89904 0
M  V30 1128 H 101.54 -0.00291266 3.921 0
M  V30 1129 H 103.03 -0.983488 4.05854 0
M  V30 1130 N 103.467 -1.45747 0.599634 0
M  V30 1131 C 104.695 -2.06668 0.0978551 0
M  V30 1132 C 105.11 -1.44562 -1.21439 0
M  V30 1133 O 104.467 -0.556923 -1.73795 0
M  V30 1134 C 104.518 -3.61456 -0.0567044 0
M  V30 1135 O 104.239 -4.21242 1.20361 0
M  V30 1136 C 105.74 -4.39345 -0.590869 0
M  V30 1137 H 102.96 -0.667825 0.0651943 0
M  V30 1138 H 105.504 -1.87115 0.82511 0
M  V30 1139 H 103.659 -3.80378 -0.734251 0
M  V30 1140 H 104.073 -5.14323 1.02821 0
M  V30 1141 H 105.547 -5.48182 -0.648131 0
M  V30 1142 H 106.024 -4.08568 -1.61147 0
M  V30 1143 H 106.63 -4.25268 0.0523679 0
M  V30 1144 N 104.945 -0.338344 -1.53925 0
M  V30 1145 C 105.892 0.520845 -2.24846 0
M  V30 1146 C 106.862 1.09976 -1.24477 0
M  V30 1147 O 108.047 1.13735 -1.53196 0
M  V30 1148 C 105.187 1.6685 -3.02084 0
M  V30 1149 C 104.3 1.11739 -4.17299 0
M  V30 1150 C 103.435 2.23193 -4.82036 0
M  V30 1151 C 102.474 1.65407 -5.89328 0
M  V30 1152 N 101.611 2.70582 -6.47866 0
M  V30 1153 H 106.451 -0.0904881 -2.97863 0
M  V30 1154 H 103.988 -0.0564282 -1.46992 0
M  V30 1155 H 105.946 2.34407 -3.45122 0
M  V30 1156 H 104.576 2.2509 -2.31375 0
M  V30 1157 H 103.628 0.332919 -3.7894 0
M  V30 1158 H 104.94 0.654677 -4.94485 0
M  V30 1159 H 104.094 2.98626 -5.28117 0
M  V30 1160 H 102.833 2.72807 -4.04262 0
M  V30 1161 H 101.838 0.884779 -5.42634 0
M  V30 1162 H 103.063 1.16652 -6.69006 0
M  V30 1163 H 101.009 3.1946 -5.72959 0
M  V30 1164 H 100.926 2.28917 -7.20509 0
M  V30 1165 H 102.194 3.45799 -6.98601 0
M  V30 1166 N 106.423 1.57458 -0.0668435 0
M  V30 1167 C 107.353 2.15468 0.899764 0
M  V30 1168 C 108.334 1.08042 1.31381 0
M  V30 1169 O 109.519 1.36054 1.38574 0
M  V30 1170 C 106.649 2.71232 2.16911 0
M  V30 1171 C 105.603 3.83781 1.89463 0
M  V30 1172 C 104.929 4.26127 3.22986 0
M  V30 1173 C 106.229 5.08238 1.20381 0
M  V30 1174 H 107.923 2.96488 0.416529 0
M  V30 1175 H 105.469 1.4262 0.198908 0
M  V30 1176 H 107.422 3.10458 2.84945 0
M  V30 1177 H 106.146 1.87426 2.67468 0
M  V30 1178 H 104.805 3.45051 1.23836 0
M  V30 1179 H 104.453 3.39249 3.71374 0
M  V30 1180 H 104.153 5.01993 3.05413 0
M  V30 1181 H 105.677 4.67966 3.92225 0
M  V30 1182 H 107.091 5.44811 1.78475 0
M  V30 1183 H 105.488 5.89349 1.13083 0
M  V30 1184 H 106.558 4.84558 0.182153 0
M  V30 1185 N 107.901 -0.206675 1.56239 0
M  V30 1186 C 109.317 -0.557025 1.49564 0
M  V30 1187 C 109.517 -1.86424 0.764735 0
M  V30 1188 O 108.573 -2.50584 0.310491 0
M  V30 1189 C 109.886 -0.622478 2.94186 0
M  V30 1190 C 111.434 -0.712099 3.04792 0
M  V30 1191 C 111.909 -0.808767 4.50803 0
M  V30 1192 N 113.4 -0.8726 4.54907 0
M  V30 1193 C 114.135 -0.967365 5.65181 0
M  V30 1194 N 113.631 -1.02515 6.85173 0
M  V30 1195 N 115.424 -1.00366 5.53067 0
M  V30 1196 H 107.575 0.650943 2.02179 0
M  V30 1197 H 109.838 0.230387 0.919579 0
M  V30 1198 H 109.544 0.268727 3.50672 0
M  V30 1199 H 109.418 -1.4811 3.46905 0
M  V30 1200 H 111.805 -1.59374 2.48363 0
M  V30 1201 H 111.886 0.172489 2.55218 0
M  V30 1202 H 111.53 0.0684754 5.07854 0
M  V30 1203 H 111.46 -1.70899 4.98098 0
M  V30 1204 H 113.951 -0.837657 3.68499 0
M  V30 1205 H 114.264 -1.09765 7.64965 0
M  V30 1206 H 112.609 -0.994026 6.87855 0
M  V30 1207 H 115.8 -0.95527 4.58249 0
M  V30 1208 H 115.973 -1.07405 6.39037 0
M  V30 1209 N 109.379 -1.50304 -0.473955 0
M  V30 1210 C 110.79 -1.54042 -1.0549 0
M  V30 1211 C 111.141 -0.342248 -1.93192 0
M  V30 1212 O 110.266 0.545157 -2.09421 0
M  V30 1213 C 110.861 -2.79152 -1.91989 0
M  V30 1214 C 109.42 -2.8558 -2.45196 0
M  V30 1215 C 108.567 -2.48295 -1.2347 0
M  V30 1216 H 111.518 -1.5661 -0.256693 0
M  V30 1217 H 111.539 -2.60845 -2.7702 0
M  V30 1218 H 111.051 -3.66339 -1.28131 0
M  V30 1219 H 109.152 -2.02738 -3.12615 0
M  V30 1220 H 109.265 -3.88403 -2.80499 0
M  V30 1221 H 107.629 -2.00669 -1.56856 0
M  V30 1222 H 108.412 -3.37787 -0.612789 0
M  V30 1223 N 110.857 0.726932 -1.39834 0
M  V30 1224 C 111.804 1.841 -1.39197 0
M  V30 1225 C 112.774 1.642 -0.250502 0
M  V30 1226 O 113.959 1.85494 -0.446846 0
M  V30 1227 C 111.099 3.21697 -1.24919 0
M  V30 1228 C 110.212 3.53247 -2.48678 0
M  V30 1229 C 109.347 4.80289 -2.26928 0
M  V30 1230 C 108.386 5.04707 -3.4632 0
M  V30 1231 N 107.523 6.22956 -3.23836 0
M  V30 1232 H 112.363 1.83979 -2.34427 0
M  V30 1233 H 109.9 0.898876 -1.16442 0
M  V30 1234 H 111.858 4.01137 -1.1465 0
M  V30 1235 H 110.488 3.21076 -0.333153 0
M  V30 1236 H 109.54 2.68447 -2.69519 0
M  V30 1237 H 110.852 3.67205 -3.37582 0
M  V30 1238 H 110.006 5.67725 -2.13947 0
M  V30 1239 H 108.745 4.68519 -1.35431 0
M  V30 1240 H 107.75 4.1573 -3.5979 0
M  V30 1241 H 108.975 5.18357 -4.38729 0
M  V30 1242 H 106.921 6.12459 -2.35011 0
M  V30 1243 H 106.838 6.37539 -4.063 0
M  V30 1244 H 108.106 7.1321 -3.14566 0
M  V30 1245 N 112.336 1.25143 0.95797 0
M  V30 1246 C 113.299 1.05321 2.03569 0
M  V30 1247 C 114.299 0.007152 1.60798 0
M  V30 1248 O 115.489 0.24903 1.72411 0
M  V30 1249 C 112.621 0.598394 3.35607 0
M  V30 1250 H 113.814 2.00986 2.22586 0
M  V30 1251 H 111.367 1.07502 1.13459 0
M  V30 1252 H 112.102 -0.361014 3.22284 0
M  V30 1253 H 111.887 1.35351 3.67998 0
M  V30 1254 H 113.377 0.48104 4.1482 0
M  V30 1255 N 113.814 -1.1601 1.06675 0
M  V30 1256 C 114.724 -2.24156 0.692179 0
M  V30 1257 C 115.74 -1.71507 -0.293513 0
M  V30 1258 O 116.916 -2.009 -0.141861 0
M  V30 1259 C 113.981 -3.46587 0.0884131 0
M  V30 1260 C 113.042 -4.14257 1.12646 0
M  V30 1261 C 112.275 -5.30844 0.551416 0
M  V30 1262 O 112.498 -5.66858 -0.634656 0
M  V30 1263 O 111.432 -5.87848 1.29298 0
M  V30 1264 H 115.258 -2.58513 1.59388 0
M  V30 1265 H 112.843 -1.23599 0.83926 0
M  V30 1266 H 114.725 -4.20679 -0.246361 0
M  V30 1267 H 113.4 -3.13994 -0.786712 0
M  V30 1268 H 112.307 -3.42118 1.51348 0
M  V30 1269 H 113.64 -4.50914 1.97325 0
M  V30 1270 N 115.292 -0.849877 -1.32721 0
M  V30 1271 C 116.539 -0.450923 -1.97416 0
M  V30 1272 C 116.867 0.992376 -1.67279 0
M  V30 1273 O 116.122 1.71048 -0.950845 0
M  V30 1274 C 116.421 -0.631272 -3.51781 0
M  V30 1275 C 116.087 -2.04432 -4.01894 0
M  V30 1276 C 114.749 -2.4308 -4.1529 0
M  V30 1277 C 117.101 -2.96679 -4.28522 0
M  V30 1278 C 114.429 -3.73257 -4.52654 0
M  V30 1279 C 116.781 -4.26349 -4.67343 0
M  V30 1280 C 115.445 -4.64939 -4.78945 0
M  V30 1281 H 114.715 -0.165004 -0.722395 0
M  V30 1282 H 117.362 -1.07901 -1.58207 0
M  V30 1283 H 115.667 0.0800767 -3.91718 0
M  V30 1284 H 117.364 -0.302709 -3.99856 0
M  V30 1285 H 113.954 -1.73419 -3.91949 0
M  V30 1286 H 118.138 -2.68054 -4.17685 0
M  V30 1287 H 113.394 -4.02946 -4.59831 0
M  V30 1288 H 117.568 -4.97895 -4.86902 0
M  V30 1289 H 115.195 -5.65855 -5.07654 0
M  V30 1290 N 116.77 1.45427 -0.607355 0
M  V30 1291 C 118.01 2.04128 -0.105458 0
M  V30 1292 C 118.374 1.46555 1.24039 0
M  V30 1293 O 119.575 1.96608 1.833 0
M  V30 1294 C 117.846 3.57338 -0.0665324 0
M  V30 1295 S 119.405 4.37201 0.374207 0
M  V30 1296 H 116.223 0.709278 -0.0494575 0
M  V30 1297 H 118.825 1.78139 -0.805404 0
M  V30 1298 H 117.529 3.96752 -1.04957 0
M  V30 1299 H 117.06 3.87902 0.655415 0
M  V30 1300 H 119.075 4.6888 1.62377 0
M  V30 1301 N 118.248 0.346503 1.53744 0
M  V30 1302 C 119.495 -0.249104 2.00962 0
M  V30 1303 C 119.823 -1.5032 1.23426 0
M  V30 1304 O 119.078 -1.93217 0.310761 0
M  V30 1305 C 119.377 -0.605809 3.52228 0
M  V30 1306 C 119.043 0.551747 4.47512 0
M  V30 1307 C 117.705 0.86941 4.73281 0
M  V30 1308 C 120.057 1.32818 5.03993 0
M  V30 1309 C 117.385 1.96582 5.52786 0
M  V30 1310 C 119.737 2.41486 5.84694 0
M  V30 1311 C 118.401 2.73808 6.08757 0
M  V30 1312 H 117.671 -0.0911538 0.735372 0
M  V30 1313 H 120.318 0.475027 1.85515 0
M  V30 1314 H 118.623 -1.4107 3.65522 0
M  V30 1315 H 120.32 -1.07858 3.86222 0
M  V30 1316 H 116.91 0.294102 4.2759 0
M  V30 1317 H 121.094 1.09602 4.84047 0
M  V30 1318 H 116.35 2.22045 5.69654 0
M  V30 1319 H 120.524 3.02078 6.27473 0
M  V30 1320 H 118.151 3.58892 6.7015 0
M  V30 1321 N 119.726 -1.57421 0.075193 0
M  V30 1322 C 120.972 -1.93905 -0.594025 0
M  V30 1323 C 121.305 -0.955701 -1.69056 0
M  V30 1324 O 120.58 0.0145373 -1.94495 0
M  V30 1325 C 120.863 -3.40638 -1.1678 0
M  V30 1326 C 120.716 -4.49733 -0.0776792 0
M  V30 1327 C 122.035 -3.88259 -2.07228 0
M  V30 1328 H 119.154 -0.705105 -0.214466 0
M  V30 1329 H 121.796 -1.8947 0.141854 0
M  V30 1330 H 119.946 -3.44549 -1.79494 0
M  V30 1331 H 121.618 -4.57942 0.555573 0
M  V30 1332 H 119.861 -4.29751 0.591286 0
M  V30 1333 H 120.532 -5.49549 -0.519603 0
M  V30 1334 H 123.008 -3.86376 -1.54445 0
M  V30 1335 H 121.884 -4.91533 -2.44308 0
M  V30 1336 H 122.145 -3.26396 -2.98191 0
M  V30 1337 N 121.204 0.198386 -1.56346 0
M  V30 1338 C 122.137 1.27381 -1.89339 0
M  V30 1339 C 123.115 1.44106 -0.753134 0
M  V30 1340 O 124.299 1.59549 -1.00381 0
M  V30 1341 C 121.426 2.6409 -2.12071 0
M  V30 1342 C 120.472 2.64253 -3.34772 0
M  V30 1343 S 121.305 2.16013 -4.89999 0
M  V30 1344 C 122.461 3.54553 -5.15794 0
M  V30 1345 H 122.694 0.992058 -2.8026 0
M  V30 1346 H 120.227 0.401726 -1.49082 0
M  V30 1347 H 122.185 3.42786 -2.2585 0
M  V30 1348 H 120.846 2.89478 -1.21906 0
M  V30 1349 H 120.039 3.64768 -3.47794 0
M  V30 1350 H 119.641 1.93637 -3.1997 0
M  V30 1351 H 121.933 4.50396 -5.06112 0
M  V30 1352 H 122.876 3.46428 -6.1757 0
M  V30 1353 H 123.284 3.49313 -4.43442 0
M  V30 1354 N 122.682 1.50554 0.465978 0
M  V30 1355 C 123.63 1.70324 1.58406 0
M  V30 1356 C 124.624 0.569139 1.59553 0
M  V30 1357 O 125.83 0.749776 1.63641 0
M  V30 1358 H 122.205 0.537688 0.525734 0
M  V30 1359 H 124.176 2.64104 1.38894 0
M  V30 1360 C 122.925 1.81928 2.96307 0
M  V30 1361 H 122.248 2.68586 2.96144 0
M  V30 1362 H 123.688 1.99784 3.73982 0
M  V30 1363 C 122.147 0.572095 3.32007 0
M  V30 1364 O 122.677 -0.286416 4.00678 0
M  V30 1365 N 120.883 0.424606 2.87481 0
M  V30 1366 H 120.43 1.12427 2.31771 0
M  V30 1367 H 120.388 -0.408697 3.11732 0
M  V30 1368 N 124.16 -0.719506 1.40217 0
M  V30 1369 C 125.123 -1.8153 1.39927 0
M  V30 1370 C 126.123 -1.58095 0.293723 0
M  V30 1371 O 127.313 -1.65209 0.552429 0
M  V30 1372 C 124.445 -3.19561 1.18716 0
M  V30 1373 H 125.638 -1.83186 2.37451 0
M  V30 1374 H 123.191 -0.924746 1.26008 0
M  V30 1375 H 123.926 -3.23557 0.219366 0
M  V30 1376 H 123.711 -3.3797 1.98793 0
M  V30 1377 H 125.201 -3.99598 1.21291 0
M  V30 1378 N 125.638 -1.25649 -0.95132 0
M  V30 1379 C 126.886 -1.10375 -1.69298 0
M  V30 1380 C 127.207 0.355339 -1.91735 0
M  V30 1381 O 126.477 1.25188 -1.50681 0
M  V30 1382 H 125.057 -0.405461 -0.627384 0
M  V30 1383 H 127.719 -1.57823 -1.14358 0
M  V30 1384 H 126.815 -1.61465 -2.67087 0
M  V30 1385 N 127.117 1.15442 -1.07289 0
M  V30 1386 C 128.05 2.19135 -0.636798 0
M  V30 1387 C 129.028 1.58884 0.34562 0
M  V30 1388 O 130.212 1.86805 0.252195 0
M  V30 1389 C 127.339 3.38638 0.0650014 0
M  V30 1390 C 126.385 4.17412 -0.87576 0
M  V30 1391 S 127.218 4.79882 -2.37642 0
M  V30 1392 C 128.374 6.02753 -1.6864 0
M  V30 1393 H 128.607 2.55787 -1.51526 0
M  V30 1394 H 126.14 1.26394 -0.886793 0
M  V30 1395 H 128.098 4.07873 0.463664 0
M  V30 1396 H 126.759 3.00331 0.919801 0
M  V30 1397 H 125.952 5.02909 -0.33143 0
M  V30 1398 H 125.554 3.53722 -1.21478 0
M  V30 1399 H 127.846 6.70113 -0.997753 0
M  V30 1400 H 128.789 6.61754 -2.51967 0
M  V30 1401 H 129.197 5.52355 -1.16465 0
M  V30 1402 N 128.595 0.856903 1.32268 0
M  V30 1403 C 130.011 0.547061 1.49931 0
M  V30 1404 C 130.211 -0.921781 1.7918 0
M  V30 1405 O 129.267 -1.70469 1.8627 0
M  V30 1406 C 130.58 1.43599 2.64196 0
M  V30 1407 C 132.128 1.43665 2.78081 0
M  V30 1408 C 132.603 2.31085 3.95428 0
M  V30 1409 N 134.094 2.28893 4.02694 0
M  V30 1410 C 134.829 2.93262 4.92732 0
M  V30 1411 N 134.325 3.66751 5.87763 0
M  V30 1412 N 136.118 2.82638 4.85873 0
M  V30 1413 H 128.269 1.8075 1.11549 0
M  V30 1414 H 130.532 0.772144 0.549997 0
M  V30 1415 H 130.238 2.48058 2.49319 0
M  V30 1416 H 130.112 1.12502 3.60032 0
M  V30 1417 H 132.499 0.399701 2.92381 0
M  V30 1418 H 132.58 1.7878 1.82952 0
M  V30 1419 H 132.224 3.34849 3.81888 0
M  V30 1420 H 132.154 1.93302 4.89839 0
M  V30 1421 H 134.645 1.75466 3.34694 0
M  V30 1422 H 134.958 4.13027 6.53168 0
M  V30 1423 H 133.303 3.70859 5.87783 0
M  V30 1424 H 136.494 2.24774 4.10602 0
M  V30 1425 H 136.667 3.33084 5.55841 0
M  V30 1426 N 130.073 -1.45103 0.615059 0
M  V30 1427 C 131.02 -2.30586 -0.0993978 0
M  V30 1428 C 131.99 -1.42544 -0.852669 0
M  V30 1429 O 133.175 -1.71465 -0.836917 0
M  V30 1430 C 130.315 -3.27572 -1.08583 0
M  V30 1431 C 129.428 -4.30717 -0.332656 0
M  V30 1432 C 128.563 -5.14807 -1.30947 0
M  V30 1433 C 127.602 -6.09673 -0.544538 0
M  V30 1434 N 126.739 -6.86517 -1.47101 0
M  V30 1435 H 131.579 -2.91144 0.635542 0
M  V30 1436 H 129.116 -1.4346 0.325206 0
M  V30 1437 H 131.074 -3.82276 -1.67095 0
M  V30 1438 H 129.704 -2.68751 -1.78809 0
M  V30 1439 H 128.756 -3.78615 0.368107 0
M  V30 1440 H 130.068 -4.98102 0.263842 0
M  V30 1441 H 129.222 -5.73948 -1.96643 0
M  V30 1442 H 127.961 -4.47458 -1.9399 0
M  V30 1443 H 126.966 -5.49656 0.126003 0
M  V30 1444 H 128.191 -6.79052 0.080947 0
M  V30 1445 H 126.137 -6.21851 -2.08895 0
M  V30 1446 H 126.054 -7.50281 -0.928137 0
M  V30 1447 H 127.322 -7.50194 -2.11731 0
M  V30 1448 N 131.551 -0.354651 -1.53558 0
M  V30 1449 C 132.781 0.239167 -2.05211 0
M  V30 1450 C 133.189 1.43879 -1.22863 0
M  V30 1451 O 132.532 1.81857 -0.259565 0
M  V30 1452 C 132.594 0.707251 -3.52474 0
M  V30 1453 C 132.258 -0.374212 -4.55465 0
M  V30 1454 C 133.255 -1.22054 -5.0537 0
M  V30 1455 C 130.94 -0.531323 -4.99482 0
M  V30 1456 C 132.934 -2.20942 -5.97882 0
M  V30 1457 C 130.621 -1.52358 -5.91802 0
M  V30 1458 C 131.619 -2.36108 -6.40892 0
M  V30 1459 O 131.307 -3.33643 -7.31394 0
M  V30 1460 H 131.039 0.0479716 -0.674296 0
M  V30 1461 H 133.593 -0.508121 -1.99016 0
M  V30 1462 H 131.823 1.50596 -3.56171 0
M  V30 1463 H 133.512 1.22285 -3.87042 0
M  V30 1464 H 134.278 -1.1103 -4.7212 0
M  V30 1465 H 130.157 0.110738 -4.60867 0
M  V30 1466 H 133.701 -2.86348 -6.36121 0
M  V30 1467 H 129.598 -1.63434 -6.24467 0
M  V30 1468 H 130.366 -3.29244 -7.4936 0
M  V30 1469 N 133.029 1.57378 -0.0835403 0
M  V30 1470 C 134.276 1.9393 0.58287 0
M  V30 1471 C 134.604 0.964455 1.68904 0
M  V30 1472 O 133.859 -0.0179474 1.95692 0
M  V30 1473 C 134.158 3.37063 1.1884 0
M  V30 1474 C 133.824 4.50424 0.207194 0
M  V30 1475 C 132.486 4.81159 -0.0627115 0
M  V30 1476 C 134.838 5.19136 -0.463426 0
M  V30 1477 C 132.166 5.77939 -1.01012 0
M  V30 1478 C 134.518 6.16931 -1.39924 0
M  V30 1479 C 133.182 6.46078 -1.67749 0
M  V30 1480 H 132.452 0.70964 0.213287 0
M  V30 1481 H 135.099 1.90856 -0.156916 0
M  V30 1482 H 133.404 3.3666 2.00418 0
M  V30 1483 H 135.101 3.6264 1.71153 0
M  V30 1484 H 131.691 4.2646 0.427747 0
M  V30 1485 H 135.875 4.95576 -0.268034 0
M  V30 1486 H 131.131 5.98842 -1.23283 0
M  V30 1487 H 135.305 6.69273 -1.92476 0
M  V30 1488 H 132.932 7.2088 -2.41321 0
M  V30 1489 N 134.507 -0.190092 1.56449 0
M  V30 1490 C 135.437 -1.23816 1.97969 0
M  V30 1491 C 136.418 -1.47201 0.852395 0
M  V30 1492 O 137.603 -1.58854 1.1171 0
M  V30 1493 C 134.733 -2.5813 2.3235 0
M  V30 1494 C 133.687 -2.49348 3.47864 0
M  V30 1495 C 133.013 -3.8798 3.67934 0
M  V30 1496 C 134.313 -2.01424 4.81898 0
M  V30 1497 H 136.007 -0.89311 2.85769 0
M  V30 1498 H 133.553 -0.428177 1.37487 0
M  V30 1499 H 135.506 -3.31637 2.59991 0
M  V30 1500 H 134.23 -2.94386 1.41438 0
M  V30 1501 H 132.889 -1.78297 3.20321 0
M  V30 1502 H 132.537 -4.21597 2.74344 0
M  V30 1503 H 132.237 -3.82978 4.45648 0
M  V30 1504 H 133.761 -4.63101 3.97957 0
M  V30 1505 H 135.175 -2.64693 5.08538 0
M  V30 1506 H 133.572 -2.07413 5.63116 0
M  V30 1507 H 134.642 -0.967677 4.75146 0
M  V30 1508 N 135.985 -1.50799 -0.457987 0
M  V30 1509 C 136.917 -1.66786 -1.57211 0
M  V30 1510 C 137.93 -0.548962 -1.53265 0
M  V30 1511 O 139.119 -0.8226 -1.58416 0
M  V30 1512 C 136.219 -1.64834 -2.96113 0
M  V30 1513 C 135.392 -2.92971 -3.24787 0
M  V30 1514 C 134.451 -2.83485 -4.43309 0
M  V30 1515 O 133.477 -3.5744 -4.42973 0
M  V30 1516 N 134.679 -1.97929 -5.45714 0
M  V30 1517 H 137.444 -2.62889 -1.43909 0
M  V30 1518 H 135.005 -1.48427 -0.646617 0
M  V30 1519 H 136.997 -1.56084 -3.7339 0
M  V30 1520 H 135.567 -0.764118 -3.03117 0
M  V30 1521 H 134.787 -3.15749 -2.36 0
M  V30 1522 H 136.075 -3.77834 -3.40762 0
M  V30 1523 H 135.473 -1.37182 -5.48815 0
M  V30 1524 H 134.03 -1.95073 -6.21924 0
M  V30 1525 N 137.463 0.71206 -1.40597 0
M  V30 1526 C 138.426 1.80785 -1.40888 0
M  V30 1527 C 139.426 1.57937 -0.302103 0
M  V30 1528 O 140.616 1.64913 -0.561182 0
M  V30 1529 C 137.748 3.18927 -1.20409 0
M  V30 1530 H 138.941 1.81924 -2.38419 0
M  V30 1531 H 136.494 0.91805 -1.26497 0
M  V30 1532 H 137.229 3.23436 -0.236522 0
M  V30 1533 H 137.014 3.36911 -2.00582 0
M  V30 1534 H 138.504 3.98949 -1.23408 0
M  V30 1535 N 138.941 1.26152 0.944643 0
M  V30 1536 C 139.889 1.07215 2.06417 0
M  V30 1537 C 140.883 9.2007e-05 1.694 0
M  V30 1538 O 142.089 0.1565 1.79318 0
M  V30 1539 H 138.464 0.329837 0.675805 0
M  V30 1540 H 140.435 2.02099 2.19541 0
M  V30 1541 C 139.184 0.718197 3.40202 0
M  V30 1542 H 138.507 1.53497 3.69159 0
M  V30 1543 H 139.947 0.625459 4.19361 0
M  V30 1544 C 138.406 -0.576435 3.31932 0
M  V30 1545 O 138.936 -1.61574 3.67773 0
M  V30 1546 N 137.142 -0.565781 2.85039 0
M  V30 1547 H 136.689 0.280367 2.5607 0
M  V30 1548 H 136.647 -1.43213 2.79888 0
M  V30 1549 N 140.419 -1.14872 1.07899 0
M  V30 1550 C 141.696 -1.81928 0.71845 0
M  V30 1551 C 142.076 -1.95417 -0.798455 0
M  V30 1552 O 141.424 -1.50997 -1.715 0
M  V30 1553 C 141.634 -3.17937 1.43935 0
M  V30 1554 C 142.982 -3.93501 1.59506 0
M  V30 1555 O 144.006 -3.27509 1.40058 0
M  V30 1556 O 142.865 -5.1183 1.91551 0
M  V30 1557 H 139.959 -0.78628 0.256305 0
M  V30 1558 H 142.505 -1.21934 1.18026 0
M  V30 1559 H 141.277 -3.0325 2.47295 0
M  V30 1560 H 140.9 -3.85619 0.968687 0
M  V30 1561 N 141.898 -0.863906 -1.31812 0
M  V30 1562 C 142.83 -0.272485 -2.27575 0
M  V30 1563 C 143.843 0.56104 -1.52827 0
M  V30 1564 O 145.032 0.384021 -1.7432 0
M  V30 1565 C 142.132 0.63283 -3.32939 0
M  V30 1566 C 141.305 -0.166902 -4.37081 0
M  V30 1567 C 140.364 0.665608 -5.21973 0
M  V30 1568 O 139.39 0.0958091 -5.69119 0
M  V30 1569 N 140.592 1.9787 -5.45736 0
M  V30 1570 H 143.357 -1.0954 -2.78964 0
M  V30 1571 H 140.918 -0.724791 -1.4477 0
M  V30 1572 H 142.91 1.19532 -3.86645 0
M  V30 1573 H 141.48 1.35642 -2.81638 0
M  V30 1574 H 140.7 -0.910838 -3.83533 0
M  V30 1575 H 141.988 -0.715874 -5.03739 0
M  V30 1576 H 141.386 2.46484 -5.09178 0
M  V30 1577 H 139.943 2.48911 -6.024 0
M  V30 1578 N 143.376 1.44774 -0.622745 0
M  V30 1579 C 144.308 2.28856 0.125485 0
M  V30 1580 C 145.321 1.40811 0.817069 0
M  V30 1581 O 146.51 1.65044 0.679918 0
M  V30 1582 C 143.61 3.16963 1.19949 0
M  V30 1583 C 142.783 4.33374 0.592064 0
M  V30 1584 C 141.842 5.02577 1.55893 0
M  V30 1585 O 140.868 5.58873 1.07933 0
M  V30 1586 N 142.07 5.03256 2.89334 0
M  V30 1587 H 144.835 2.93713 -0.596068 0
M  V30 1588 H 142.396 1.55129 -0.463303 0
M  V30 1589 H 144.388 3.60123 1.84644 0
M  V30 1590 H 142.958 2.53913 1.82337 0
M  V30 1591 H 142.178 3.93509 -0.233322 0
M  V30 1592 H 143.466 5.08527 0.166738 0
M  V30 1593 H 142.864 4.58836 3.30887 0
M  V30 1594 H 141.421 5.50232 3.49412 0
M  V30 1595 N 144.854 0.36279 1.53368 0
M  V30 1596 C 146.131 -0.284021 1.93527 0
M  V30 1597 C 146.511 -1.66628 1.29608 0
M  V30 1598 O 145.859 -2.23942 0.45413 0
M  V30 1599 C 146.069 -0.337028 3.47369 0
M  V30 1600 C 147.417 -0.578708 4.20638 0
M  V30 1601 O 148.441 -0.418352 3.53735 0
M  V30 1602 O 147.3 -0.89074 5.39192 0
M  V30 1603 H 144.394 -0.169743 0.809393 0
M  V30 1604 H 146.94 0.41537 1.64538 0
M  V30 1605 H 145.712 0.632217 3.86159 0
M  V30 1606 H 145.335 -1.08243 3.82582 0
M  V30 1607 N 146.332 -1.57332 0.0918853 0
M  V30 1608 C 147.262 -2.16872 -0.865371 0
M  V30 1609 C 148.243 -1.10118 -1.29646 0
M  V30 1610 O 149.428 -1.38242 -1.36392 0
M  V30 1611 C 146.558 -2.74649 -2.12569 0
M  V30 1612 C 145.512 -3.86747 -1.83333 0
M  V30 1613 C 144.838 -4.31212 -3.16166 0
M  V30 1614 C 146.138 -5.10089 -1.1228 0
M  V30 1615 H 147.832 -2.97114 -0.369307 0
M  V30 1616 H 145.378 -1.42918 -0.176194 0
M  V30 1617 H 147.331 -3.14952 -2.7997 0
M  V30 1618 H 146.055 -1.91657 -2.64452 0
M  V30 1619 H 144.714 -3.46978 -1.18331 0
M  V30 1620 H 144.362 -3.45115 -3.6593 0
M  V30 1621 H 144.062 -5.06788 -2.97388 0
M  V30 1622 H 145.586 -4.74146 -3.84731 0
M  V30 1623 H 147 -5.47582 -1.69785 0
M  V30 1624 H 145.397 -5.91073 -1.03693 0
M  V30 1625 H 146.467 -4.84786 -0.105041 0
M  V30 1626 N 147.81 0.181792 -1.56548 0
M  V30 1627 C 149.056 0.901431 -1.81665 0
M  V30 1628 C 149.389 1.82347 -0.668075 0
M  V30 1629 O 148.664 1.91669 0.330615 0
M  V30 1630 C 148.947 1.70618 -3.17115 0
M  V30 1631 C 148.8 0.807964 -4.42484 0
M  V30 1632 C 150.119 2.67605 -3.49393 0
M  V30 1633 H 147.238 0.32627 -0.660846 0
M  V30 1634 H 149.88 0.168134 -1.89255 0
M  V30 1635 H 148.03 2.33133 -3.10775 0
M  V30 1636 H 149.702 0.19649 -4.60881 0
M  V30 1637 H 147.945 0.115411 -4.33646 0
M  V30 1638 H 148.616 1.40632 -5.33785 0
M  V30 1639 H 151.092 2.15218 -3.56118 0
M  V30 1640 H 149.968 3.20985 -4.45264 0
M  V30 1641 H 150.229 3.47298 -2.73563 0
M  V30 1642 N 149.288 1.51039 0.449983 0
M  V30 1643 C 150.198 1.74261 1.57067 0
M  V30 1644 C 151.214 0.626363 1.62335 0
M  V30 1645 O 152.39 0.907162 1.79812 0
M  V30 1646 C 149.455 1.85114 2.93144 0
M  V30 1647 C 148.516 3.0893 2.98095 0
M  V30 1648 C 147.749 3.19256 4.27681 0
M  V30 1649 O 147.972 2.35835 5.19363 0
M  V30 1650 O 146.906 4.12144 4.38658 0
M  V30 1651 H 150.732 2.69303 1.40391 0
M  V30 1652 H 148.317 1.35389 0.631688 0
M  V30 1653 H 150.199 1.94311 3.73926 0
M  V30 1654 H 148.874 0.932588 3.09975 0
M  V30 1655 H 147.781 3.0522 2.16314 0
M  V30 1656 H 149.114 4.00433 2.86206 0
M  V30 1657 N 150.766 -0.704594 1.40972 0
M  V30 1658 C 152.012 -1.46546 1.41053 0
M  V30 1659 C 152.367 -1.92393 0.0159714 0
M  V30 1660 O 151.66 -1.66017 -0.956506 0
M  V30 1661 C 151.854 -2.698 2.34399 0
M  V30 1662 C 151.683 -2.36008 3.82793 0
M  V30 1663 C 150.453 -2.26812 4.51536 0
M  V30 1664 C 152.651 -1.99565 4.74003 0
M  V30 1665 N 150.633 -1.8581 5.85105 0
M  V30 1666 C 152.004 -1.69251 5.96451 0
M  V30 1667 C 154.059 -1.86296 4.61734 0
M  V30 1668 C 152.762 -1.27003 7.07999 0
M  V30 1669 C 154.788 -1.45452 5.73234 0
M  V30 1670 C 154.15 -1.16043 6.94776 0
M  V30 1671 H 150.249 -0.533896 0.571383 0
M  V30 1672 H 152.833 -0.816061 1.76773 0
M  V30 1673 H 151.004 -3.32473 2.00789 0
M  V30 1674 H 152.736 -3.36214 2.25261 0
M  V30 1675 H 149.491 -2.44913 4.05357 0
M  V30 1676 H 149.915 -1.67817 6.55871 0
M  V30 1677 H 154.557 -2.0769 3.68273 0
M  V30 1678 H 152.275 -1.04353 8.01334 0
M  V30 1679 H 155.861 -1.35748 5.65742 0
M  V30 1680 H 154.741 -0.84915 7.79589 0
M  V30 1681 N 152.244 -1.26651 -0.937939 0
M  V30 1682 C 153.49 -1.12553 -1.687 0
M  V30 1683 C 153.823 0.329782 -1.91379 0
M  V30 1684 O 153.098 1.24202 -1.4968 0
M  V30 1685 C 153.381 -1.89862 -3.05981 0
M  V30 1686 C 153.234 -3.43318 -2.90607 0
M  V30 1687 C 154.553 -1.69499 -4.0615 0
M  V30 1688 H 151.672 -0.410257 -0.612257 0
M  V30 1689 H 154.314 -1.55685 -1.08913 0
M  V30 1690 H 152.464 -1.53204 -3.57017 0
M  V30 1691 H 154.136 -3.89747 -2.46769 0
M  V30 1692 H 152.379 -3.70179 -2.26164 0
M  V30 1693 H 153.05 -3.92642 -3.8799 0
M  V30 1694 H 155.526 -2.01442 -3.64088 0
M  V30 1695 H 154.402 -2.26002 -5.00214 0
M  V30 1696 H 154.663 -0.640365 -4.37438 0
M  V30 1697 N 153.722 1.14298 -1.08507 0
M  V30 1698 C 154.67 2.21483 -0.710483 0
M  V30 1699 C 155.664 1.66998 0.284234 0
M  V30 1700 O 156.87 1.79401 0.146692 0
M  V30 1701 H 153.245 0.721578 -0.211729 0
M  V30 1702 H 155.216 2.50348 -1.62384 0
M  V30 1703 C 153.965 3.4743 -0.137007 0
M  V30 1704 H 153.288 3.89686 -0.893592 0
M  V30 1705 H 154.728 4.2391 0.0872789 0
M  V30 1706 C 153.187 3.17548 1.12538 0
M  V30 1707 O 153.717 3.35437 2.21009 0
M  V30 1708 N 151.923 2.71499 1.03617 0
M  V30 1709 H 151.47 2.57143 0.153403 0
M  V30 1710 H 151.428 2.51881 1.88158 0
M  V30 1711 N 155.201 0.870884 1.31352 0
M  V30 1712 C 156.447 0.482987 1.96965 0
M  V30 1713 C 156.78 -0.962462 1.68672 0
M  V30 1714 O 156.055 -1.6779 0.98371 0
M  V30 1715 C 156.338 0.741752 3.52378 0
M  V30 1716 C 156.191 2.2368 3.9024 0
M  V30 1717 C 157.51 0.208838 4.39604 0
M  V30 1718 H 154.629 0.176955 0.715441 0
M  V30 1719 H 157.271 1.09229 1.55464 0
M  V30 1720 H 155.421 0.223149 3.87859 0
M  V30 1721 H 157.093 2.82273 3.64856 0
M  V30 1722 H 155.336 2.70901 3.38814 0
M  V30 1723 H 156.007 2.3685 4.98604 0
M  V30 1724 H 158.483 0.652529 4.10952 0
M  V30 1725 H 157.359 0.419336 5.47296 0
M  V30 1726 H 157.62 -0.889275 4.33064 0
M  V30 1727 N 156.679 -1.44442 0.630414 0
M  V30 1728 C 157.609 -2.33418 -0.0618083 0
M  V30 1729 C 158.59 -1.48165 -0.835541 0
M  V30 1730 O 159.775 -1.76886 -0.801564 0
M  V30 1731 C 156.905 -3.31222 -1.04449 0
M  V30 1732 C 155.859 -4.26288 -0.382436 0
M  V30 1733 C 155.185 -5.13954 -1.47497 0
M  V30 1734 C 156.485 -5.1744 0.710865 0
M  V30 1735 H 158.179 -2.91548 0.681184 0
M  V30 1736 H 155.725 -1.40191 0.329026 0
M  V30 1737 H 157.678 -3.92351 -1.53748 0
M  V30 1738 H 156.402 -2.71299 -1.81836 0
M  V30 1739 H 155.061 -3.6649 0.0899054 0
M  V30 1740 H 154.709 -4.50385 -2.2397 0
M  V30 1741 H 154.409 -5.7837 -1.03737 0
M  V30 1742 H 155.933 -5.77955 -1.96979 0
M  V30 1743 H 157.347 -5.72509 0.300996 0
M  V30 1744 H 155.744 -5.90455 1.07156 0
M  V30 1745 H 156.814 -4.58496 1.57829 0
M  V30 1746 N 158.157 -0.370918 -1.53173 0
M  V30 1747 C 159.105 0.488101 -2.27421 0
M  V30 1748 C 160.099 1.07884 -1.30604 0
M  V30 1749 O 161.305 1.02143 -1.48212 0
M  V30 1750 H 157.68 0.176134 -0.731082 0
M  V30 1751 H 159.651 -0.159815 -2.97972 0
M  V30 1752 C 158.4 1.61306 -3.08019 0
M  V30 1753 H 157.723 1.1678 -3.82364 0
M  V30 1754 H 159.163 2.18872 -3.63141 0
M  V30 1755 C 157.622 2.55848 -2.19188 0
M  V30 1756 O 158.152 3.58799 -1.80626 0
M  V30 1757 N 156.358 2.2516 -1.83715 0
M  V30 1758 H 155.905 1.41476 -2.15273 0
M  V30 1759 H 155.863 2.8867 -1.24567 0
M  V30 1760 N 159.635 1.57281 -0.100228 0
M  V30 1761 C 160.582 2.14305 0.856858 0
M  V30 1762 C 161.552 1.06296 1.27634 0
M  V30 1763 O 162.737 1.34109 1.35718 0
M  V30 1764 C 159.877 2.73184 2.10866 0
M  V30 1765 C 158.99 3.95442 1.73925 0
M  V30 1766 C 158.125 4.42468 2.93931 0
M  V30 1767 C 157.164 5.57303 2.5314 0
M  V30 1768 N 156.301 5.99158 3.65997 0
M  V30 1769 H 161.141 2.95772 0.363726 0
M  V30 1770 H 158.678 1.46139 0.167858 0
M  V30 1771 H 160.636 3.05442 2.84185 0
M  V30 1772 H 159.266 1.94437 2.57671 0
M  V30 1773 H 158.318 3.69464 0.905554 0
M  V30 1774 H 159.63 4.78769 1.39935 0
M  V30 1775 H 158.784 4.76537 3.75496 0
M  V30 1776 H 157.523 3.58052 3.31134 0
M  V30 1777 H 156.528 5.22857 1.70003 0
M  V30 1778 H 157.753 6.43471 2.17075 0
M  V30 1779 H 155.699 5.17687 4.02909 0
M  V30 1780 H 155.616 6.77295 3.35869 0
M  V30 1781 H 156.884 6.3786 4.48057 0
M  V30 1782 N 161.113 -0.173488 1.56642 0
M  V30 1783 C 162.076 -1.19859 1.95362 0
M  V30 1784 C 163.076 -1.37296 0.83704 0
M  V30 1785 O 164.266 -1.34739 1.10413 0
M  V30 1786 C 161.398 -2.56405 2.24654 0
M  V30 1787 H 162.591 -0.867062 2.87092 0
M  V30 1788 H 160.144 -0.415853 1.50666 0
M  V30 1789 H 160.879 -2.94576 1.35631 0
M  V30 1790 H 160.664 -2.45115 3.06041 0
M  V30 1791 H 162.154 -3.30287 2.5554 0
M  V30 1792 N 162.591 -1.51276 -0.441967 0
M  V30 1793 C 163.84 -1.6295 -1.18871 0
M  V30 1794 C 164.153 -0.349312 -1.92456 0
M  V30 1795 O 165.359 -0.345355 -2.69295 0
M  V30 1796 C 163.815 -2.87759 -2.16155 0
M  V30 1797 C 163.423 -4.22764 -1.48239 0
M  V30 1798 C 165.167 -3.08788 -2.91291 0
M  V30 1799 C 163.074 -5.38728 -2.4398 0
M  V30 1800 H 162.004 -0.606913 -0.447406 0
M  V30 1801 H 164.655 -1.77739 -0.456205 0
M  V30 1802 H 163.037 -2.66593 -2.92821 0
M  V30 1803 H 164.211 -4.54293 -0.771635 0
M  V30 1804 H 162.526 -4.07575 -0.852741 0
M  V30 1805 H 165.123 -3.92599 -3.63002 0
M  V30 1806 H 165.466 -2.21679 -3.5237 0
M  V30 1807 H 165.999 -3.30272 -2.21733 0
M  V30 1808 H 162.738 -6.28082 -1.87598 0
M  V30 1809 H 162.258 -5.1158 -3.13123 0
M  V30 1810 H 163.937 -5.70489 -3.05207 0
M  V30 1811 N 164.069 0.697108 -1.41344 0
M  V30 1812 C 165.016 1.81106 -1.43071 0
M  V30 1813 C 165.986 1.63632 -0.285275 0
M  V30 1814 O 167.171 1.84504 -0.486091 0
M  V30 1815 C 164.311 3.18975 -1.31715 0
M  V30 1816 C 163.424 3.47892 -2.56115 0
M  V30 1817 C 162.559 4.75367 -2.37064 0
M  V30 1818 C 161.598 4.97247 -3.56948 0
M  V30 1819 N 160.735 6.15947 -3.36977 0
M  V30 1820 H 165.575 1.78965 -2.38276 0
M  V30 1821 H 163.112 0.873975 -1.18322 0
M  V30 1822 H 165.07 3.98615 -1.23133 0
M  V30 1823 H 163.7 3.20297 -0.401183 0
M  V30 1824 H 162.752 2.62669 -2.75153 0
M  V30 1825 H 164.064 3.59962 -3.45295 0
M  V30 1826 H 163.218 5.63059 -2.25941 0
M  V30 1827 H 161.957 4.65541 -1.45338 0
M  V30 1828 H 160.962 4.08004 -3.68527 0
M  V30 1829 H 162.187 5.08934 -4.49626 0
M  V30 1830 H 160.133 6.07336 -2.47949 0
M  V30 1831 H 160.05 6.28777 -4.19732 0
M  V30 1832 H 161.318 7.06377 -3.29623 0
M  V30 1833 N 165.547 1.27147 0.931209 0
M  V30 1834 C 166.796 1.12664 1.67302 0
M  V30 1835 C 167.109 -0.327718 1.92835 0
M  V30 1836 O 168.315 -0.593392 2.64936 0
M  V30 1837 C 166.771 1.9683 3.01307 0
M  V30 1838 C 166.379 3.46901 2.83485 0
M  V30 1839 C 168.123 1.90985 3.79111 0
M  V30 1840 C 166.03 4.23279 4.13024 0
M  V30 1841 H 164.96 0.41803 0.627509 0
M  V30 1842 H 167.611 1.51539 1.03481 0
M  V30 1843 H 165.993 1.50797 3.66164 0
M  V30 1844 H 167.167 4.00773 2.27415 0
M  V30 1845 H 165.482 3.54088 2.19113 0
M  V30 1846 H 168.079 2.45328 4.75098 0
M  V30 1847 H 168.422 0.882718 4.06834 0
M  V30 1848 H 168.955 2.34895 3.21044 0
M  V30 1849 H 165.694 5.26503 3.90481 0
M  V30 1850 H 165.214 3.74186 4.6877 0
M  V30 1851 H 166.893 4.32265 4.81411 0
M  V30 1852 N 167.025 -1.13721 1.09112 0
M  V30 1853 C 168.253 -1.88773 0.846899 0
M  V30 1854 C 168.668 -1.7896 -0.601572 0
M  V30 1855 O 168.025 -1.15394 -1.41388 0
M  V30 1856 C 168.076 -3.3849 1.26913 0
M  V30 1857 O 167.797 -3.48043 2.66079 0
M  V30 1858 C 169.298 -4.30518 1.05682 0
M  V30 1859 H 166.518 -0.59772 0.304914 0
M  V30 1860 H 169.062 -1.43977 1.45227 0
M  V30 1861 H 167.217 -3.80881 0.707723 0
M  V30 1862 H 167.631 -4.4109 2.83795 0
M  V30 1863 H 169.105 -5.3391 1.40156 0
M  V30 1864 H 169.582 -4.392 -0.00563416 0
M  V30 1865 H 170.188 -3.93893 1.60402 0
M  V30 1866 N 168.503 -0.877838 -1.30888 0
M  V30 1867 C 169.749 -0.493426 -1.96706 0
M  V30 1868 C 170.082 0.953504 -1.6918 0
M  V30 1869 O 169.357 1.67266 -0.992594 0
M  V30 1870 C 169.64 -0.760429 -3.51979 0
M  V30 1871 C 169.493 -2.25747 -3.89048 0
M  V30 1872 C 170.812 -0.232148 -4.39487 0
M  V30 1873 H 167.931 -0.180746 -0.714493 0
M  V30 1874 H 170.573 -1.10052 -1.54882 0
M  V30 1875 H 168.723 -0.243715 -3.87735 0
M  V30 1876 H 170.395 -2.84204 -3.63354 0
M  V30 1877 H 168.638 -2.72694 -3.37373 0
M  V30 1878 H 169.309 -2.39491 -4.97341 0
M  V30 1879 H 171.785 -0.674314 -4.106 0
M  V30 1880 H 170.661 -0.448355 -5.47066 0
M  V30 1881 H 170.922 0.866297 -4.33529 0
M  V30 1882 N 169.982 1.44106 -0.638065 0
M  V30 1883 C 171.393 1.85316 -0.226894 0
M  V30 1884 C 171.744 1.53399 1.22324 0
M  V30 1885 O 170.869 0.975463 1.93167 0
M  V30 1886 C 171.464 3.3637 -0.405013 0
M  V30 1887 C 170.023 3.76369 -0.0482902 0
M  V30 1888 C 169.17 2.67921 -0.715108 0
M  V30 1889 H 172.121 1.34474 -0.842764 0
M  V30 1890 H 172.142 3.7885 0.354 0
M  V30 1891 H 171.654 3.59569 -1.46053 0
M  V30 1892 H 169.755 3.58784 1.00522 0
M  V30 1893 H 169.868 4.76856 -0.463187 0
M  V30 1894 H 168.232 2.54259 -0.149753 0
M  V30 1895 H 169.015 2.93951 -1.77335 0
M  V30 1896 N 171.46 0.379036 1.52974 0
M  V30 1897 C 172.407 -0.461048 2.26148 0
M  V30 1898 C 173.377 -1.06637 1.27349 0
M  V30 1899 O 174.562 -1.09633 1.56157 0
M  V30 1900 C 171.702 -1.58782 3.06402 0
M  V30 1901 C 170.815 -1.00636 4.20115 0
M  V30 1902 C 169.95 -2.10334 4.87784 0
M  V30 1903 C 168.989 -1.49724 5.93506 0
M  V30 1904 N 168.126 -2.5331 6.54812 0
M  V30 1905 H 172.966 0.169429 2.97518 0
M  V30 1906 H 170.503 0.0953806 1.4679 0
M  V30 1907 H 172.461 -2.25174 3.51215 0
M  V30 1908 H 171.091 -2.18876 2.37261 0
M  V30 1909 H 170.143 -0.232332 3.7969 0
M  V30 1910 H 171.455 -0.523343 4.96047 0
M  V30 1911 H 170.609 -2.84519 5.35849 0
M  V30 1912 H 169.348 -2.61992 4.11353 0
M  V30 1913 H 168.353 -0.740598 5.44789 0
M  V30 1914 H 169.578 -0.988732 6.71864 0
M  V30 1915 H 167.524 -3.04156 5.81227 0
M  V30 1916 H 167.441 -2.09734 7.26325 0
M  V30 1917 H 168.709 -3.27155 7.07524 0
M  V30 1918 N 172.938 -1.57226 0.108567 0
M  V30 1919 C 173.87 -2.11809 -0.875752 0
M  V30 1920 C 174.883 -1.05839 -1.23701 0
M  V30 1921 O 176.072 -1.33245 -1.18778 0
M  V30 1922 C 173.172 -2.59411 -2.18081 0
M  V30 1923 C 172.345 -3.89364 -1.99284 0
M  V30 1924 C 171.404 -4.22672 -3.13424 0
M  V30 1925 O 170.43 -4.91668 -2.86795 0
M  V30 1926 N 171.632 -3.79154 -4.3957 0
M  V30 1927 H 174.397 -2.9689 -0.409477 0
M  V30 1928 H 171.958 -1.61721 -0.076158 0
M  V30 1929 H 173.95 -2.7873 -2.93414 0
M  V30 1930 H 172.52 -1.79268 -2.5609 0
M  V30 1931 H 171.74 -3.79059 -1.08203 0
M  V30 1932 H 173.028 -4.74358 -1.84017 0
M  V30 1933 H 172.426 -3.23486 -4.64083 0
M  V30 1934 H 170.983 -4.03602 -5.11809 0
M  V30 1935 N 174.416 0.165178 -1.56732 0
M  V30 1936 C 175.641 0.900253 -1.86843 0
M  V30 1937 C 176.066 1.74766 -0.695596 0
M  V30 1938 O 175.424 1.77786 0.35522 0
M  V30 1939 C 175.472 1.74777 -3.15413 0
M  V30 1940 O 174.576 2.85007 -2.98068 0
M  V30 1941 H 173.917 0.251832 -0.614391 0
M  V30 1942 H 176.447 0.161468 -2.03962 0
M  V30 1943 H 176.457 2.14646 -3.46974 0
M  V30 1944 H 175.132 1.12537 -4.00385 0
M  V30 1945 H 173.709 2.48676 -2.77875 0
M  V30 1946 N 175.894 1.51508 0.433938 0
M  V30 1947 C 177.171 1.54888 1.19453 0
M  V30 1948 C 177.551 0.315154 2.08734 0
M  V30 1949 O 176.899 -0.699558 2.17528 0
M  V30 1950 C 177.109 2.86467 1.99342 0
M  V30 1951 C 178.457 3.38545 2.56267 0
M  V30 1952 O 179.481 2.88041 2.0955 0
M  V30 1953 O 178.34 4.26675 3.41483 0
M  V30 1954 H 175.434 0.622863 0.544032 0
M  V30 1955 H 177.98 1.63823 0.442732 0
M  V30 1956 H 176.752 3.67718 1.33788 0
M  V30 1957 H 176.375 2.8071 2.8158 0
M  V30 1958 N 177.372 -0.689602 1.41712 0
M  V30 1959 C 178.597 -1.48329 1.44959 0
M  V30 1960 C 179.022 -1.8801 0.0581283 0
M  V30 1961 O 178.38 -1.55026 -0.940035 0
M  V30 1962 C 178.428 -2.71835 2.36935 0
M  V30 1963 O 177.532 -3.69549 1.8305 0
M  V30 1964 H 176.873 -0.446199 0.491734 0
M  V30 1965 H 179.403 -0.847127 1.86239 0
M  V30 1966 H 179.413 -3.20076 2.53013 0
M  V30 1967 H 178.088 -2.42291 3.38035 0
M  V30 1968 H 176.665 -3.2851 1.76452 0
M  V30 1969 N 178.85 -1.27639 -0.924453 0
M  V30 1970 C 179.782 -1.06442 -2.02985 0
M  V30 1971 C 180.795 -0.0194771 -1.62788 0
M  V30 1972 O 181.984 -0.261388 -1.76576 0
M  V30 1973 C 179.084 -0.59327 -3.33667 0
M  V30 1974 C 178.257 -1.71123 -4.02537 0
M  V30 1975 C 177.316 -1.23527 -5.11495 0
M  V30 1976 O 176.342 -1.93553 -5.35281 0
M  V30 1977 N 177.544 -0.0926678 -5.80426 0
M  V30 1978 H 180.309 -2.01633 -2.2173 0
M  V30 1979 H 177.87 -1.19248 -1.09505 0
M  V30 1980 H 179.862 -0.258686 -4.03872 0
M  V30 1981 H 178.432 0.265502 -3.1147 0
M  V30 1982 H 177.652 -2.21593 -3.26022 0
M  V30 1983 H 178.94 -2.46145 -4.45298 0
M  V30 1984 H 178.338 0.491741 -5.63559 0
M  V30 1985 H 176.895 0.182714 -6.51544 0
M  V30 1986 N 180.328 1.1314 -1.09713 0
M  V30 1987 C 181.739 1.66029 -0.853885 0
M  V30 1988 C 182.09 1.86241 0.617142 0
M  V30 1989 O 181.215 1.5834 1.47503 0
M  V30 1990 C 181.81 3.01599 -1.5435 0
M  V30 1991 C 180.369 3.51467 -1.34714 0
M  V30 1992 C 179.516 2.26648 -1.59769 0
M  V30 1993 H 182.467 0.970226 -1.25588 0
M  V30 1994 H 182.488 3.67709 -0.978267 0
M  V30 1995 H 182 2.86856 -2.6141 0
M  V30 1996 H 180.101 3.71408 -0.297838 0
M  V30 1997 H 180.214 4.314 -2.08401 0
M  V30 1998 H 178.578 2.33385 -1.01998 0
M  V30 1999 H 179.361 2.14467 -2.68065 0
M  V30 2000 N 181.806 0.884767 1.30421 0
M  V30 2001 C 182.754 0.340869 2.30089 0
M  V30 2002 C 183.748 -0.55201 1.60154 0
M  V30 2003 O 184.954 -0.436467 1.74628 0
M  V30 2004 H 181.329 0.0915739 0.746404 0
M  V30 2005 H 183.3 1.19513 2.73421 0
M  V30 2006 C 182.049 -0.429779 3.45034 0
M  V30 2007 H 181.372 0.248024 3.9903 0
M  V30 2008 H 182.812 -0.775445 4.16849 0
M  V30 2009 C 181.271 -1.62677 2.95022 0
M  V30 2010 O 181.801 -2.72614 2.95033 0
M  V30 2011 N 180.007 -1.46387 2.51036 0
M  V30 2012 H 179.554 -0.569506 2.51226 0
M  V30 2013 H 179.512 -2.26612 2.17932 0
M  V30 2014 N 183.284 -1.43765 0.645699 0
M  V30 2015 C 184.509 -2.06767 0.161883 0
M  V30 2016 C 184.934 -1.48034 -1.16049 0
M  V30 2017 O 184.292 -0.587369 -1.71522 0
M  V30 2018 C 184.34 -3.60519 0.0762003 0
M  V30 2019 O 183.444 -4.00982 -0.963721 0
M  V30 2020 H 182.785 -0.657675 0.091429 0
M  V30 2021 H 185.315 -1.84397 0.886499 0
M  V30 2022 H 185.325 -4.07853 -0.109604 0
M  V30 2023 H 184 -4.02646 1.04157 0
M  V30 2024 H 182.577 -3.65253 -0.751312 0
M  V30 2025 N 184.763 -0.387143 -1.52771 0
M  V30 2026 C 186.04 0.253197 -1.93954 0
M  V30 2027 C 186.42 1.64545 -1.32243 0
M  V30 2028 O 185.768 2.23191 -0.489699 0
M  V30 2029 C 185.978 0.281722 -3.47861 0
M  V30 2030 C 187.326 0.511715 -4.21505 0
M  V30 2031 O 188.35 0.362023 -3.54356 0
M  V30 2032 O 187.209 0.804847 -5.40541 0
M  V30 2033 H 184.303 0.156845 -0.811991 0
M  V30 2034 H 186.849 -0.441494 -1.63856 0
M  V30 2035 H 185.621 -0.693571 -3.85104 0
M  V30 2036 H 185.244 1.02142 -3.84256 0
M  V30 2037 N 186.241 1.57166 -0.116904 0
M  V30 2038 C 187.189 2.16457 0.851418 0
M  V30 2039 C 188.183 1.11323 1.27686 0
M  V30 2040 O 189.389 1.2963 1.24884 0
M  V30 2041 H 185.764 0.69271 0.292672 0
M  V30 2042 H 187.735 2.96605 0.32685 0
M  V30 2043 C 186.484 2.77689 2.09246 0
M  V30 2044 H 185.807 3.58285 1.77402 0
M  V30 2045 H 187.247 3.22716 2.7501 0
M  V30 2046 C 185.706 1.74667 2.88085 0
M  V30 2047 O 186.236 1.19877 3.83396 0
M  V30 2048 N 184.442 1.44656 2.52038 0
M  V30 2049 H 183.989 1.89402 1.74599 0
M  V30 2050 H 183.947 0.759675 3.05084 0
M  V30 2051 N 187.719 -0.156864 1.56817 0
M  V30 2052 C 188.649 -1.19589 2.00551 0
M  V30 2053 C 189.63 -1.4536 0.883426 0
M  V30 2054 O 190.815 -1.56449 1.15054 0
M  V30 2055 C 187.945 -2.53143 2.37773 0
M  V30 2056 C 186.899 -2.41913 3.53075 0
M  V30 2057 C 186.225 -3.80088 3.76081 0
M  V30 2058 C 187.525 -1.91157 4.86062 0
M  V30 2059 H 189.219 -0.832293 2.87599 0
M  V30 2060 H 186.765 -0.398918 1.38364 0
M  V30 2061 H 188.718 -3.26047 2.66967 0
M  V30 2062 H 187.442 -2.91319 1.4765 0
M  V30 2063 H 186.101 -1.71462 3.24031 0
M  V30 2064 H 185.749 -4.15683 2.83225 0
M  V30 2065 H 185.449 -3.73439 4.53671 0
M  V30 2066 H 186.973 -4.54556 4.0769 0
M  V30 2067 H 188.387 -2.53846 5.14038 0
M  V30 2068 H 186.784 -1.95422 5.67389 0
M  V30 2069 H 187.854 -0.866673 4.77092 0
M  V30 2070 N 189.197 -1.51736 -0.425897 0
M  V30 2071 C 190.422 -1.69082 -1.20108 0
M  V30 2072 C 190.847 -0.392398 -1.83962 0
M  V30 2073 O 190.205 0.64858 -1.69302 0
M  V30 2074 C 190.253 -2.81604 -2.25237 0
M  V30 2075 O 189.357 -2.46004 -3.30992 0
M  V30 2076 H 188.698 -0.563408 -0.35138 0
M  V30 2077 H 191.228 -1.98358 -0.501512 0
M  V30 2078 H 191.238 -3.06025 -2.69838 0
M  V30 2079 H 189.913 -3.75817 -1.78142 0
M  V30 2080 H 188.49 -2.32195 -2.91787 0
M  V30 2081 N 190.675 0.682077 -1.42076 0
M  V30 2082 C 192.091 0.994324 -1.24841 0
M  V30 2083 C 192.291 2.0096 -0.147389 0
M  V30 2084 O 191.347 2.47822 0.483782 0
M  V30 2085 C 192.66 1.50607 -2.60265 0
M  V30 2086 C 194.208 1.62421 -2.6756 0
M  V30 2087 C 194.683 2.16994 -4.03333 0
M  V30 2088 N 196.174 2.24337 -4.0525 0
M  V30 2089 C 196.909 2.67621 -5.07116 0
M  V30 2090 N 196.405 3.1041 -6.19368 0
M  V30 2091 N 198.198 2.67305 -4.94474 0
M  V30 2092 H 190.349 0.00973908 -2.12398 0
M  V30 2093 H 192.612 0.0668593 -0.945639 0
M  V30 2094 H 192.318 0.834583 -3.41654 0
M  V30 2095 H 192.192 2.48602 -2.83684 0
M  V30 2096 H 194.579 2.28678 -1.86521 0
M  V30 2097 H 194.66 0.629352 -2.47937 0
M  V30 2098 H 194.304 1.51349 -4.84826 0
M  V30 2099 H 194.234 3.17258 -4.20304 0
M  V30 2100 H 196.725 1.94158 -3.24209 0
M  V30 2101 H 197.038 3.42103 -6.92954 0
M  V30 2102 H 195.383 3.08286 -6.22884 0
M  V30 2103 H 198.574 2.33233 -4.05857 0
M  V30 2104 H 198.747 3.00718 -5.73997 0
M  V30 2105 N 192.153 1.28127 0.917671 0
M  V30 2106 C 193.103 1.08361 2.00604 0
M  V30 2107 C 194.087 0.00847518 1.60898 0
M  V30 2108 O 195.279 0.228167 1.75523 0
M  V30 2109 C 192.408 0.743376 3.35155 0
M  V30 2110 C 191.494 1.85716 3.81275 0
M  V30 2111 N 191.885 3.09822 3.99805 0
M  V30 2112 C 190.183 1.74612 4.10398 0
M  V30 2113 C 190.884 3.82368 4.38372 0
M  V30 2114 N 189.86 3.10192 4.4641 0
M  V30 2115 H 193.662 2.02531 2.12975 0
M  V30 2116 H 191.176 1.18989 1.10523 0
M  V30 2117 H 193.173 0.582859 4.12805 0
M  V30 2118 H 191.833 -0.190595 3.2414 0
M  V30 2119 H 192.844 3.45475 3.85833 0
M  V30 2120 H 189.521 0.883657 4.08041 0
M  V30 2121 H 190.911 4.89082 4.60704 0
M  V30 2122 N 193.631 -1.12557 1.10312 0
M  V30 2123 C 194.879 -1.83675 0.843091 0
M  V30 2124 C 195.2 -1.84435 -0.633131 0
M  V30 2125 O 194.47 -1.30657 -1.45964 0
M  V30 2126 H 193.05 -0.680138 0.308904 0
M  V30 2127 H 195.712 -1.36301 1.39313 0
M  V30 2128 H 194.808 -2.87908 1.2048 0
M  V30 2129 N 195.109 -0.891671 -1.2995 0
M  V30 2130 C 196.019 -0.367691 -2.31701 0
M  V30 2131 C 197.035 0.533486 -1.6562 0
M  V30 2132 O 198.211 0.424997 -1.96865 0
M  V30 2133 C 195.276 0.403406 -3.44345 0
M  V30 2134 C 194.337 -0.528328 -4.26037 0
M  V30 2135 C 193.57 0.206063 -5.33302 0
M  V30 2136 O 193.793 1.43119 -5.52153 0
M  V30 2137 O 192.727 -0.447281 -6.00236 0
M  V30 2138 H 196.553 -1.21163 -2.78484 0
M  V30 2139 H 194.138 -0.655725 -1.34241 0
M  V30 2140 H 196.02 0.839753 -4.12948 0
M  V30 2141 H 194.695 1.22354 -2.99685 0
M  V30 2142 H 193.602 -1.01362 -3.60106 0
M  V30 2143 H 194.935 -1.31465 -4.74318 0
M  V30 2144 N 196.587 1.43421 -0.653314 0
M  V30 2145 C 197.827 2.03689 -0.170346 0
M  V30 2146 C 198.191 1.50427 1.19314 0
M  V30 2147 O 199.392 2.0234 1.76952 0
M  V30 2148 C 197.663 3.56946 -0.180183 0
M  V30 2149 S 199.222 4.38171 0.234925 0
M  V30 2150 H 196.04 0.707345 -0.0719976 0
M  V30 2151 H 198.642 1.75486 -0.86167 0
M  V30 2152 H 197.346 3.93212 -1.17526 0
M  V30 2153 H 196.877 3.89791 0.531675 0
M  V30 2154 H 198.892 4.73808 1.47378 0
M  V30 2155 N 198.065 0.39524 1.52563 0
M  V30 2156 C 199.313 -0.184678 2.01254 0
M  V30 2157 C 199.634 -1.46822 1.28329 0
M  V30 2158 O 198.904 -1.91666 0.405094 0
M  V30 2159 H 197.484 -0.0712355 0.743596 0
M  V30 2160 H 200.146 0.528293 1.87603 0
M  V30 2161 H 199.242 -0.390681 3.09645 0
M  V30 2162 N 199.544 -1.57102 0.125237 0
M  V30 2163 C 200.491 -2.15641 -0.822655 0
M  V30 2164 C 201.461 -1.08313 -1.25927 0
M  V30 2165 O 202.646 -1.36251 -1.33567 0
M  V30 2166 C 199.786 -2.76504 -2.06494 0
M  V30 2167 C 198.899 -3.98158 -1.67612 0
M  V30 2168 C 198.034 -4.47088 -2.86854 0
M  V30 2169 C 197.073 -5.6126 -2.44242 0
M  V30 2170 N 196.21 -6.04905 -3.56419 0
M  V30 2171 H 201.05 -2.96313 -0.316625 0
M  V30 2172 H 198.587 -1.46388 -0.144588 0
M  V30 2173 H 200.545 -3.09925 -2.79289 0
M  V30 2174 H 199.175 -1.98512 -2.54545 0
M  V30 2175 H 198.227 -3.70858 -0.846661 0
M  V30 2176 H 199.539 -4.80934 -1.32301 0
M  V30 2177 H 198.693 -4.82451 -3.67867 0
M  V30 2178 H 197.432 -3.63275 -3.25396 0
M  V30 2179 H 196.437 -5.25495 -1.61663 0
M  V30 2180 H 197.662 -6.46843 -2.0681 0
M  V30 2181 H 195.608 -5.24032 -3.94623 0
M  V30 2182 H 195.525 -6.82552 -3.25051 0
M  V30 2183 H 196.793 -6.44907 -4.37853 0
M  V30 2184 N 201.022 0.148545 -1.56898 0
M  V30 2185 C 201.969 1.18345 -1.98149 0
M  V30 2186 C 202.939 1.42772 -0.848848 0
M  V30 2187 O 204.124 1.55132 -1.11079 0
M  V30 2188 C 201.264 2.51231 -2.36594 0
M  V30 2189 C 200.377 2.33991 -3.63142 0
M  V30 2190 C 199.512 3.59902 -3.90697 0
M  V30 2191 C 198.551 3.37692 -5.1052 0
M  V30 2192 N 197.688 4.5573 -5.34092 0
M  V30 2193 H 202.528 0.82467 -2.86362 0
M  V30 2194 H 200.065 0.395756 -1.41676 0
M  V30 2195 H 202.023 3.28713 -2.56912 0
M  V30 2196 H 200.653 2.85059 -1.51463 0
M  V30 2197 H 199.705 1.47572 -3.50609 0
M  V30 2198 H 201.017 2.13539 -4.5078 0
M  V30 2199 H 200.171 4.45813 -4.11505 0
M  V30 2200 H 198.91 3.83357 -3.01477 0
M  V30 2201 H 197.915 2.5017 -4.89587 0
M  V30 2202 H 199.14 3.15637 -6.0129 0
M  V30 2203 H 197.086 4.79361 -4.47827 0
M  V30 2204 H 197.003 4.38274 -6.15996 0
M  V30 2205 H 198.271 5.42858 -5.59397 0
M  V30 2206 N 202.5 1.5196 0.417844 0
M  V30 2207 C 203.432 1.70895 1.52733 0
M  V30 2208 C 204.445 0.589405 1.51756 0
M  V30 2209 O 205.634 0.864312 1.56179 0
M  V30 2210 C 202.734 1.72627 2.91639 0
M  V30 2211 C 201.907 3.01479 3.16905 0
M  V30 2212 C 200.966 2.95139 4.35637 0
M  V30 2213 O 199.992 3.69059 4.3334 0
M  V30 2214 N 201.194 2.12328 5.40275 0
M  V30 2215 H 203.959 2.66612 1.36888 0
M  V30 2216 H 201.52 1.50089 0.607037 0
M  V30 2217 H 203.512 1.65928 3.6912 0
M  V30 2218 H 202.082 0.844216 3.00985 0
M  V30 2219 H 201.302 3.21895 2.27546 0
M  V30 2220 H 202.59 3.86736 3.30625 0
M  V30 2221 H 201.988 1.51685 5.44985 0
M  V30 2222 H 200.545 2.11494 6.16534 0
M  V30 2223 N 203.978 -0.674533 1.42435 0
M  V30 2224 C 205.224 -1.43671 1.43131 0
M  V30 2225 C 205.557 -1.94142 0.0476021 0
M  V30 2226 O 204.832 -1.70924 -0.928188 0
M  V30 2227 C 205.115 -2.63355 2.45594 0
M  V30 2228 C 204.968 -2.18514 3.93156 0
M  V30 2229 C 206.287 -3.65571 2.45043 0
M  V30 2230 H 203.406 -0.521077 0.521198 0
M  V30 2231 H 206.048 -0.766551 1.7385 0
M  V30 2232 H 204.198 -3.2053 2.19528 0
M  V30 2233 H 205.87 -1.66504 4.30202 0
M  V30 2234 H 204.113 -1.50086 4.07009 0
M  V30 2235 H 204.784 -3.04484 4.60428 0
M  V30 2236 H 207.26 -3.18113 2.68223 0
M  V30 2237 H 206.136 -4.46893 3.18713 0
M  V30 2238 H 206.397 -4.16716 1.47649 0
M  V30 2239 N 205.456 -1.28612 -0.910864 0
M  V30 2240 C 206.681 -1.1891 -1.69927 0
M  V30 2241 C 207.106 0.248372 -1.86453 0
M  V30 2242 O 206.464 1.17961 -1.37676 0
M  V30 2243 C 206.512 -1.89578 -3.06745 0
M  V30 2244 O 205.616 -1.20521 -3.94396 0
M  V30 2245 H 204.957 -0.412632 -0.520222 0
M  V30 2246 H 207.487 -1.69985 -1.1387 0
M  V30 2247 H 207.497 -1.97597 -3.56958 0
M  V30 2248 H 206.172 -2.94136 -2.94035 0
M  V30 2249 H 204.749 -1.20684 -3.52831 0
M  V30 2250 N 206.934 1.1197 -1.10907 0
M  V30 2251 C 208.164 1.8713 -0.875553 0
M  V30 2252 C 208.572 1.8016 0.577843 0
M  V30 2253 O 207.915 1.17699 1.41042 0
M  V30 2254 C 207.977 3.37005 -1.2517 0
M  V30 2255 C 207.641 3.67748 -2.71313 0
M  V30 2256 C 208.638 3.65698 -3.69542 0
M  V30 2257 C 206.323 3.96928 -3.07821 0
M  V30 2258 C 208.317 3.92395 -5.023 0
M  V30 2259 C 206.004 4.23284 -4.40765 0
M  V30 2260 C 207.002 4.21005 -5.37814 0
M  V30 2261 O 206.69 4.46704 -6.68364 0
M  V30 2262 H 206.422 0.598786 -0.313737 0
M  V30 2263 H 208.976 1.42568 -1.47863 0
M  V30 2264 H 207.206 3.82146 -0.591741 0
M  V30 2265 H 208.895 3.93519 -0.994877 0
M  V30 2266 H 209.661 3.43211 -3.42682 0
M  V30 2267 H 205.54 3.97841 -2.32902 0
M  V30 2268 H 209.084 3.90531 -5.78041 0
M  V30 2269 H 204.981 4.45246 -4.67361 0
M  V30 2270 H 205.749 4.64299 -6.74069 0
M  V30 2271 N 208.412 0.89855 1.29475 0
M  V30 2272 C 209.828 0.594483 1.48115 0
M  V30 2273 C 210.028 -0.86431 1.82022 0
M  V30 2274 O 209.084 -1.64457 1.91599 0
M  V30 2275 C 210.397 1.51932 2.59494 0
M  V30 2276 C 211.945 1.5244 2.7337 0
M  V30 2277 C 212.42 2.43548 3.87877 0
M  V30 2278 N 213.911 2.41589 3.95208 0
M  V30 2279 C 214.646 3.08789 4.83153 0
M  V30 2280 N 214.142 3.85265 5.75798 0
M  V30 2281 N 215.935 2.97952 4.76635 0
M  V30 2282 H 208.086 1.84207 1.05742 0
M  V30 2283 H 210.349 0.789251 0.525154 0
M  V30 2284 H 210.055 2.55865 2.41301 0
M  V30 2285 H 209.929 1.23899 3.56271 0
M  V30 2286 H 212.316 0.492518 2.90961 0
M  V30 2287 H 212.397 1.8451 1.77172 0
M  V30 2288 H 212.041 3.46829 3.71041 0
M  V30 2289 H 211.971 2.08788 4.83441 0
M  V30 2290 H 214.462 1.86025 3.28943 0
M  V30 2291 H 214.775 4.33598 6.39697 0
M  V30 2292 H 213.12 3.89371 5.75687 0
M  V30 2293 H 216.311 2.37723 4.03244 0
M  V30 2294 H 216.484 3.50599 5.44962 0
M  V30 2295 N 209.89 -1.43072 0.660911 0
M  V30 2296 C 211.118 -2.06067 0.185422 0
M  V30 2297 C 211.533 -1.49582 -1.15198 0
M  V30 2298 O 210.89 -0.630134 -1.71276 0
M  V30 2299 C 210.941 -3.61371 0.0966523 0
M  V30 2300 O 210.662 -4.15758 1.38119 0
M  V30 2301 C 212.163 -4.41455 -0.403996 0
M  V30 2302 H 209.383 -0.664459 0.0934604 0
M  V30 2303 H 211.927 -1.83447 0.90373 0
M  V30 2304 H 210.082 -3.8315 -0.572259 0
M  V30 2305 H 210.496 -5.09499 1.24542 0
M  V30 2306 H 211.97 -5.50437 -0.415045 0
M  V30 2307 H 212.447 -4.15036 -1.43674 0
M  V30 2308 H 213.053 -4.24663 0.232691 0
M  V30 2309 N 211.368 -0.403325 -1.52352 0
M  V30 2310 C 212.645 0.232611 -1.94212 0
M  V30 2311 C 213.025 1.63133 -1.33981 0
M  V30 2312 O 212.373 2.22659 -0.513344 0
M  V30 2313 C 212.583 0.244811 -3.4814 0
M  V30 2314 C 213.931 0.46698 -4.22024 0
M  V30 2315 O 214.955 0.324419 -3.5472 0
M  V30 2316 O 213.814 0.74747 -5.41364 0
M  V30 2317 H 210.908 0.148223 -0.813609 0
M  V30 2318 H 213.454 -0.458848 -1.63379 0
M  V30 2319 H 212.226 -0.734378 -3.84347 0
M  V30 2320 H 211.849 0.980611 -3.85318 0
M  V30 2321 N 212.846 1.57033 -0.133567 0
M  V30 2322 C 214.095 1.94861 0.520768 0
M  V30 2323 C 214.408 1.02012 1.66892 0
M  V30 2324 O 215.614 1.29365 2.38699 0
M  V30 2325 C 214.07 3.46362 0.977809 0
M  V30 2326 C 213.678 4.47773 -0.142674 0
M  V30 2327 C 215.422 3.93083 1.60269 0
M  V30 2328 C 213.329 5.90468 0.331883 0
M  V30 2329 H 212.259 0.727453 0.198315 0
M  V30 2330 H 214.91 1.82227 -0.215759 0
M  V30 2331 H 213.292 3.54282 1.7692 0
M  V30 2332 H 214.466 4.51536 -0.919317 0
M  V30 2333 H 212.781 4.10891 -0.675124 0
M  V30 2334 H 215.378 4.97121 1.96914 0
M  V30 2335 H 215.721 3.33876 2.48662 0
M  V30 2336 H 216.254 3.88025 0.876453 0
M  V30 2337 H 212.993 6.53463 -0.516341 0
M  V30 2338 H 212.513 5.90094 1.07469 0
M  V30 2339 H 214.192 6.42179 0.788332 0
M  V30 2340 N 214.325 -0.140222 1.56975 0
M  V30 2341 C 215.571 -0.852949 1.83991 0
M  V30 2342 C 215.904 -1.80512 0.716187 0
M  V30 2343 O 215.179 -1.92479 -0.279681 0
M  V30 2344 C 215.462 -1.6215 3.21527 0
M  V30 2345 C 215.315 -0.690363 4.4447 0
M  V30 2346 C 216.634 -2.58247 3.56366 0
M  V30 2347 H 213.753 -0.308634 0.669264 0
M  V30 2348 H 216.395 -0.117898 1.89634 0
M  V30 2349 H 214.545 -2.24812 3.16847 0
M  V30 2350 H 216.217 -0.0742264 4.6124 0
M  V30 2351 H 214.46 -0.000396433 4.338 0
M  V30 2352 H 215.131 -1.2643 5.37326 0
M  V30 2353 H 217.607 -2.05701 3.61699 0
M  V30 2354 H 216.483 -3.09067 4.53617 0
M  V30 2355 H 216.744 -3.39923 2.82674 0
M  V30 2356 N 215.803 -1.52179 -0.40978 0
M  V30 2357 C 217.051 -1.65878 -1.15451 0
M  V30 2358 C 217.372 -0.390771 -1.91044 0
M  V30 2359 O 216.642 0.594323 -1.86667 0
M  V30 2360 H 215.222 -0.611405 -0.429177 0
M  V30 2361 H 217.884 -1.89219 -0.467134 0
M  V30 2362 H 216.98 -2.49954 -1.86894 0
M  V30 2363 N 217.281 0.66697 -1.42791 0
M  V30 2364 C 218.529 1.42417 -1.43394 0
M  V30 2365 C 218.85 1.94925 -0.0542373 0
M  V30 2366 O 218.12 1.73564 0.908415 0
M  V30 2367 H 216.7 0.528515 -0.527902 0
M  V30 2368 H 219.362 0.787562 -1.78279 0
M  V30 2369 H 218.458 2.27333 -2.13837 0
M  V30 2370 N 218.759 1.29093 0.90403 0
M  V30 2371 C 220.005 1.16986 1.65656 0
M  V30 2372 C 220.338 -0.278925 1.92186 0
M  V30 2373 O 219.613 -1.2019 1.5292 0
M  V30 2374 C 219.896 1.97908 3.0084 0
M  V30 2375 C 219.749 3.50903 2.81403 0
M  V30 2376 C 221.068 1.80208 4.01513 0
M  V30 2377 H 218.187 0.426346 0.601164 0
M  V30 2378 H 220.829 1.58518 1.04747 0
M  V30 2379 H 218.979 1.62616 3.52829 0
M  V30 2380 H 220.651 3.96153 2.36348 0
M  V30 2381 H 218.894 3.76045 2.1627 0
M  V30 2382 H 219.565 4.02791 3.77443 0
M  V30 2383 H 222.041 2.11025 3.58619 0
M  V30 2384 H 220.917 2.39184 4.94047 0
M  V30 2385 H 221.178 0.756119 4.35586 0
M  V30 2386 N 220.237 -1.11381 1.11499 0
M  V30 2387 C 221.648 -1.6465 0.880191 0
M  V30 2388 C 221.999 -1.87199 -0.587434 0
M  V30 2389 O 221.124 -1.60667 -1.44966 0
M  V30 2390 C 221.719 -2.99105 1.59128 0
M  V30 2391 C 220.278 -3.49279 1.40289 0
M  V30 2392 C 219.425 -2.24077 1.63354 0
M  V30 2393 H 222.376 -0.950123 1.27116 0
M  V30 2394 H 222.397 -3.66107 1.03664 0
M  V30 2395 H 221.909 -2.82661 2.65941 0
M  V30 2396 H 220.01 -3.70887 0.356888 0
M  V30 2397 H 220.123 -4.2803 2.15238 0
M  V30 2398 H 218.487 -2.31733 1.05698 0
M  V30 2399 H 219.27 -2.10175 2.71443 0
M  V30 2400 N 221.715 -0.905404 -1.28997 0
M  V30 2401 C 222.964 -0.530191 -1.94607 0
M  V30 2402 C 223.277 0.929185 -1.72121 0
M  V30 2403 O 224.483 1.41218 -2.31883 0
M  V30 2404 C 222.939 -0.897333 -3.48534 0
M  V30 2405 C 222.547 -2.37587 -3.79811 0
M  V30 2406 C 224.291 -0.592304 -4.20347 0
M  V30 2407 C 222.198 -2.68357 -5.27009 0
M  V30 2408 H 221.128 -0.194558 -0.728466 0
M  V30 2409 H 223.779 -1.10318 -1.46636 0
M  V30 2410 H 222.161 -0.253214 -3.9519 0
M  V30 2411 H 223.335 -3.06602 -3.43994 0
M  V30 2412 H 221.65 -2.6505 -3.2115 0
M  V30 2413 H 224.247 -0.798975 -5.28697 0
M  V30 2414 H 224.59 0.469474 -4.13644 0
M  V30 2415 H 225.123 -1.19452 -3.79442 0
M  V30 2416 H 221.862 -3.73355 -5.38782 0
M  V30 2417 H 221.382 -2.03971 -5.64053 0
M  V30 2418 H 223.061 -2.54922 -5.94663 0
M  V30 2419 N 223.193 1.4272 -0.668489 0
M  V30 2420 C 224.442 2.00846 -0.185389 0
M  V30 2421 C 224.755 1.53442 1.21305 0
M  V30 2422 O 225.961 2.03944 1.79218 0
M  V30 2423 C 224.417 3.58805 -0.280591 0
M  V30 2424 C 224.025 4.15198 -1.68268 0
M  V30 2425 C 225.769 4.24255 0.14412 0
M  V30 2426 C 223.676 5.655 -1.73099 0
M  V30 2427 H 222.606 0.751145 -0.0655475 0
M  V30 2428 H 225.257 1.63516 -0.832752 0
M  V30 2429 H 223.639 3.93608 0.434553 0
M  V30 2430 H 224.813 3.91866 -2.42441 0
M  V30 2431 H 223.128 3.62176 -2.05469 0
M  V30 2432 H 225.725 5.34547 0.128086 0
M  V30 2433 H 226.068 3.99277 1.17827 0
M  V30 2434 H 226.601 3.94389 -0.519798 0
M  V30 2435 H 223.34 5.95268 -2.74475 0
M  V30 2436 H 222.86 5.90842 -1.03274 0
M  V30 2437 H 224.539 6.29808 -1.48158 0
M  V30 2438 N 224.671 0.411399 1.52136 0
M  V30 2439 C 225.899 -0.163076 2.06256 0
M  V30 2440 C 226.314 -1.3867 1.28125 0
M  V30 2441 O 225.671 -1.79423 0.333721 0
M  V30 2442 C 225.722 -0.511252 3.57867 0
M  V30 2443 O 225.443 0.66378 4.33042 0
M  V30 2444 C 226.944 -1.13921 4.28412 0
M  V30 2445 H 224.164 -0.0193897 0.67072 0
M  V30 2446 H 226.708 0.583007 1.96013 0
M  V30 2447 H 224.863 -1.20723 3.6811 0
M  V30 2448 H 225.277 0.372601 5.23175 0
M  V30 2449 H 226.751 -1.33302 5.35663 0
M  V30 2450 H 227.228 -2.11296 3.85033 0
M  V30 2451 H 227.834 -0.483373 4.22544 0
M  V30 2452 N 226.149 -1.5696 0.141893 0
M  V30 2453 C 227.56 -1.82797 -0.379776 0
M  V30 2454 C 227.911 -1.06033 -1.6508 0
M  V30 2455 O 227.036 -0.304011 -2.14254 0
M  V30 2456 C 227.631 -3.31578 -0.695802 0
M  V30 2457 C 226.19 -3.58014 -1.16201 0
M  V30 2458 C 225.337 -2.76699 -0.182455 0
M  V30 2459 H 228.288 -1.54406 0.366675 0
M  V30 2460 H 228.309 -3.47454 -1.55099 0
M  V30 2461 H 227.821 -3.87421 0.229449 0
M  V30 2462 H 225.922 -3.07553 -2.10338 0
M  V30 2463 H 226.035 -4.66501 -1.09151 0
M  V30 2464 H 224.399 -2.45618 -0.674072 0
M  V30 2465 H 225.182 -3.35311 0.736297 0
M  V30 2466 N 227.627 0.131896 -1.57047 0
M  V30 2467 C 228.855 0.856461 -1.88341 0
M  V30 2468 C 229.27 1.74042 -0.731757 0
M  V30 2469 O 228.627 1.80051 0.297945 0
M  V30 2470 C 228.678 1.70064 -3.18999 0
M  V30 2471 O 228.399 0.852278 -4.2973 0
M  V30 2472 C 229.9 2.53148 -3.63911 0
M  V30 2473 H 227.12 0.246885 -0.62393 0
M  V30 2474 H 229.664 0.120152 -2.04147 0
M  V30 2475 H 227.819 2.38984 -3.04902 0
M  V30 2476 H 228.233 1.43329 -5.04537 0
M  V30 2477 H 229.707 3.07931 -4.58129 0
M  V30 2478 H 230.184 3.29901 -2.89935 0
M  V30 2479 H 230.79 1.89492 -3.80753 0
M  V30 2480 N 229.106 1.52395 0.401703 0
M  V30 2481 C 230.038 1.72505 1.50912 0
M  V30 2482 C 231.051 0.605468 1.51122 0
M  V30 2483 O 232.24 0.880828 1.55254 0
M  V30 2484 C 229.34 1.75711 2.89791 0
M  V30 2485 C 228.513 3.04824 3.1369 0
M  V30 2486 C 227.572 2.99743 4.32482 0
M  V30 2487 O 226.598 3.73635 4.29402 0
M  V30 2488 N 227.8 2.18047 5.37992 0
M  V30 2489 H 230.565 2.68049 1.34052 0
M  V30 2490 H 228.126 1.50724 0.591084 0
M  V30 2491 H 230.118 1.69834 3.6734 0
M  V30 2492 H 228.688 0.876092 3.00072 0
M  V30 2493 H 227.908 3.2429 2.24119 0
M  V30 2494 H 229.196 3.90221 3.26504 0
M  V30 2495 H 228.594 1.57456 5.43345 0
M  V30 2496 H 227.151 2.18021 6.14256 0
M  V30 2497 N 230.584 -0.659388 1.43143 0
M  V30 2498 C 231.531 -1.77249 1.47822 0
M  V30 2499 C 232.501 -1.62818 0.328558 0
M  V30 2500 O 233.686 -1.83151 0.534838 0
M  V30 2501 C 230.826 -3.15371 1.40126 0
M  V30 2502 C 229.939 -3.4098 2.65249 0
M  V30 2503 C 229.074 -4.68915 2.49584 0
M  V30 2504 C 228.113 -4.87608 3.70006 0
M  V30 2505 N 227.25 -6.06796 3.53189 0
M  V30 2506 H 232.09 -1.72584 2.42938 0
M  V30 2507 H 229.627 -0.842297 1.20598 0
M  V30 2508 H 231.585 -3.9521 1.33659 0
M  V30 2509 H 230.215 -3.19121 0.485964 0
M  V30 2510 H 229.267 -2.55282 2.8202 0
M  V30 2511 H 230.579 -3.50681 3.54717 0
M  V30 2512 H 229.733 -5.56871 2.4079 0
M  V30 2513 H 228.472 -4.61524 1.5763 0
M  V30 2514 H 227.477 -3.9809 3.79215 0
M  V30 2515 H 228.702 -4.96834 4.62961 0
M  V30 2516 H 226.648 -6.00549 2.63965 0
M  V30 2517 H 226.565 -6.17428 4.36255 0
M  V30 2518 H 227.833 -6.9739 3.48236 0
M  V30 2519 N 232.062 -1.29571 -0.897171 0
M  V30 2520 C 232.972 -1.16808 -2.03453 0
M  V30 2521 C 233.988 -0.0907471 -1.73763 0
M  V30 2522 O 235.164 -0.303312 -1.99103 0
M  V30 2523 C 232.229 -0.848264 -3.36163 0
M  V30 2524 C 231.29 -2.0097 -3.79354 0
M  V30 2525 C 230.523 -1.70505 -5.05731 0
M  V30 2526 O 230.746 -0.62718 -5.66941 0
M  V30 2527 O 229.68 -2.5538 -5.45036 0
M  V30 2528 H 233.506 -2.12325 -2.17144 0
M  V30 2529 H 231.091 -1.09047 -1.02123 0
M  V30 2530 H 232.973 -0.684581 -4.15802 0
M  V30 2531 H 231.648 0.0771071 -3.23608 0
M  V30 2532 H 230.555 -2.22863 -3.00471 0
M  V30 2533 H 231.888 -2.91636 -3.96496 0
M  V30 2534 N 233.54 1.10788 -1.12088 0
M  V30 2535 C 234.45 2.20599 -0.798338 0
M  V30 2536 C 235.466 1.72712 0.21135 0
M  V30 2537 O 236.642 2.01348 0.0458477 0
M  V30 2538 C 233.707 3.45771 -0.253674 0
M  V30 2539 C 232.768 4.08411 -1.32283 0
M  V30 2540 C 232.001 5.27608 -0.80406 0
M  V30 2541 O 232.224 5.69241 0.363478 0
M  V30 2542 O 231.158 5.8101 -1.57198 0
M  V30 2543 H 234.984 2.50614 -1.7154 0
M  V30 2544 H 232.569 1.19454 -0.897275 0
M  V30 2545 H 234.451 4.21376 0.0453691 0
M  V30 2546 H 233.126 3.1739 0.636005 0
M  V30 2547 H 232.033 3.34507 -1.67499 0
M  V30 2548 H 233.366 4.40986 -2.18614 0
M  V30 2549 N 235.018 0.912232 1.28515 0
M  V30 2550 C 236.264 0.545405 1.95328 0
M  V30 2551 C 236.597 -0.908313 1.71649 0
M  V30 2552 O 235.872 -1.64575 1.03659 0
M  V30 2553 C 236.155 0.853483 3.4984 0
M  V30 2554 C 236.008 2.35982 3.82926 0
M  V30 2555 C 237.327 0.348589 4.38717 0
M  V30 2556 H 234.446 0.199626 0.709449 0
M  V30 2557 H 237.088 1.1412 1.5191 0
M  V30 2558 H 235.238 0.34643 3.86952 0
M  V30 2559 H 236.91 2.93738 3.55691 0
M  V30 2560 H 235.153 2.81543 3.30024 0
M  V30 2561 H 235.824 2.52593 4.90816 0
M  V30 2562 H 238.3 0.78294 4.08668 0
M  V30 2563 H 237.176 0.593242 5.45685 0
M  V30 2564 H 237.437 -0.751049 4.35674 0
M  V30 2565 N 236.496 -1.42363 0.676048 0
M  V30 2566 C 237.444 -2.32596 -0.0131507 0
M  V30 2567 C 238.438 -1.49891 -0.789238 0
M  V30 2568 O 239.644 -1.65955 -0.697061 0
M  V30 2569 H 236.019 -0.751647 -0.0230481 0
M  V30 2570 H 237.99 -2.88421 0.765243 0
M  V30 2571 C 236.739 -3.34479 -0.949702 0
M  V30 2572 H 236.062 -3.98158 -0.361938 0
M  V30 2573 H 237.502 -4.00199 -1.4006 0
M  V30 2574 C 235.961 -2.66838 -2.05667 0
M  V30 2575 O 236.491 -2.50124 -3.14326 0
M  V30 2576 N 234.697 -2.25843 -1.82875 0
M  V30 2577 H 234.244 -2.39637 -0.945085 0
M  V30 2578 H 234.202 -1.80918 -2.5713 0
M  V30 2579 N 237.974 -0.419461 -1.51915 0
M  V30 2580 C 238.884 0.407528 -2.31033 0
M  V30 2581 C 239.9 1.04413 -1.3919 0
M  V30 2582 O 241.076 1.0434 -1.72265 0
M  V30 2583 C 238.141 1.50365 -3.12396 0
M  V30 2584 C 237.202 0.889029 -4.19994 0
M  V30 2585 C 236.435 1.93291 -4.97468 0
M  V30 2586 O 236.658 3.15259 -4.75361 0
M  V30 2587 O 235.592 1.53339 -5.8204 0
M  V30 2588 H 239.418 -0.237865 -3.02767 0
M  V30 2589 H 237.003 -0.182413 -1.48282 0
M  V30 2590 H 238.885 2.13975 -3.63032 0
M  V30 2591 H 237.56 2.13345 -2.43445 0
M  V30 2592 H 236.467 0.215353 -3.7348 0
M  V30 2593 H 237.8 0.302991 -4.91267 0
M  V30 2594 N 239.452 1.56882 -0.150215 0
M  V30 2595 C 240.692 1.98119 0.502804 0
M  V30 2596 C 241.056 1.03327 1.61826 0
M  V30 2597 O 242.257 1.33621 2.33236 0
M  V30 2598 C 240.528 3.43329 0.992988 0
M  V30 2599 S 242.087 4.0659 1.65015 0
M  V30 2600 H 238.905 0.692189 0.162467 0
M  V30 2601 H 241.507 1.93988 -0.242689 0
M  V30 2602 H 240.211 4.10046 0.170436 0
M  V30 2603 H 239.742 3.5118 1.77303 0
M  V30 2604 H 241.757 3.99906 2.93752 0
M  V30 2605 N 240.93 -0.123565 1.57115 0
M  V30 2606 C 242.178 -0.83051 1.84247 0
M  V30 2607 C 242.499 -1.80629 0.73471 0
M  V30 2608 O 241.769 -1.94403 -0.241688 0
M  V30 2609 H 240.349 -0.309694 0.679778 0
M  V30 2610 H 243.011 -0.111976 1.94578 0
M  V30 2611 H 242.107 -1.37852 2.80006 0
M  V30 2612 N 242.408 -1.52605 -0.393616 0
M  V30 2613 C 243.318 -1.79971 -1.50492 0
M  V30 2614 C 244.334 -0.686181 -1.59899 0
M  V30 2615 O 245.51 -0.973274 -1.76322 0
M  V30 2616 C 242.575 -1.95867 -2.86072 0
M  V30 2617 C 241.636 -3.19781 -2.86424 0
M  V30 2618 C 240.869 -3.34909 -4.15538 0
M  V30 2619 O 241.092 -2.54948 -5.10253 0
M  V30 2620 O 240.026 -4.28141 -4.23059 0
M  V30 2621 H 243.852 -2.74328 -1.30299 0
M  V30 2622 H 241.437 -1.3764 -0.581005 0
M  V30 2623 H 243.319 -2.08056 -3.66457 0
M  V30 2624 H 241.994 -1.04699 -3.063 0
M  V30 2625 H 240.901 -3.13038 -2.04837 0
M  V30 2626 H 242.234 -4.1078 -2.71147 0
M  V30 2627 N 243.887 0.651787 -1.4349 0
M  V30 2628 C 245.112 1.44434 -1.48841 0
M  V30 2629 C 245.537 1.8779 -0.107955 0
M  V30 2630 O 244.895 1.57464 0.898602 0
M  V30 2631 C 244.943 2.65458 -2.44059 0
M  V30 2632 O 244.047 3.64566 -1.92784 0
M  V30 2633 H 243.388 0.433005 -0.503391 0
M  V30 2634 H 245.918 0.797451 -1.88419 0
M  V30 2635 H 245.928 3.13255 -2.6141 0
M  V30 2636 H 244.603 2.33244 -3.4434 0
M  V30 2637 H 243.18 3.23716 -1.851 0
M  V30 2638 N 245.365 1.30045 0.890287 0
M  V30 2639 C 246.614 1.17929 1.63633 0
M  V30 2640 C 246.927 -0.266204 1.9378 0
M  V30 2641 O 248.133 -0.508804 2.6669 0
M  V30 2642 C 246.589 2.06317 2.94892 0
M  V30 2643 C 246.197 3.55745 2.72305 0
M  V30 2644 C 247.941 2.0295 3.72843 0
M  V30 2645 C 245.848 4.36205 3.99348 0
M  V30 2646 H 244.778 0.437782 0.613892 0
M  V30 2647 H 247.429 1.54754 0.986075 0
M  V30 2648 H 245.811 1.6237 3.61182 0
M  V30 2649 H 246.985 4.07805 2.1455 0
M  V30 2650 H 245.3 3.6088 2.07737 0
M  V30 2651 H 247.897 2.60319 4.67053 0
M  V30 2652 H 248.24 1.0117 4.0382 0
M  V30 2653 H 248.773 2.4499 3.13408 0
M  V30 2654 H 245.512 5.38659 3.73533 0
M  V30 2655 H 245.032 3.8891 4.56628 0
M  V30 2656 H 246.711 4.47362 4.67415 0
M  V30 2657 N 246.843 -1.10192 1.12674 0
M  V30 2658 C 248.12 -1.78717 0.794965 0
M  V30 2659 C 248.5 -1.98628 -0.714853 0
M  V30 2660 O 247.848 -1.58135 -1.64941 0
M  V30 2661 C 248.058 -3.11546 1.5729 0
M  V30 2662 C 249.406 -3.86382 1.76052 0
M  V30 2663 O 250.43 -3.21274 1.53823 0
M  V30 2664 O 249.289 -5.03246 2.13087 0
M  V30 2665 H 246.383 -0.774702 0.289423 0
M  V30 2666 H 248.929 -1.16819 1.23091 0
M  V30 2667 H 247.701 -2.92489 2.59935 0
M  V30 2668 H 247.324 -3.81164 1.13137 0
M  V30 2669 N 248.321 -0.919034 -1.28029 0
M  V30 2670 C 249.737 -0.617972 -1.4715 0
M  V30 2671 C 249.937 0.835242 -1.83374 0
M  V30 2672 O 248.993 1.61388 -1.94191 0
M  V30 2673 C 250.306 -1.56041 -2.57044 0
M  V30 2674 C 251.854 -1.56769 -2.7091 0
M  V30 2675 C 252.329 -2.49688 -3.83953 0
M  V30 2676 N 253.82 -2.47845 -3.91314 0
M  V30 2677 C 254.555 -3.16437 -4.78179 0
M  V30 2678 N 254.051 -3.94376 -5.69596 0
M  V30 2679 N 255.844 -3.05498 -4.71834 0
M  V30 2680 H 247.995 -1.85866 -1.02798 0
M  V30 2681 H 250.258 -0.797506 -0.512531 0
M  V30 2682 H 249.964 -2.59671 -2.372 0
M  V30 2683 H 249.838 -1.29551 -3.54255 0
M  V30 2684 H 252.225 -0.538745 -2.90141 0
M  V30 2685 H 252.306 -1.87305 -1.74214 0
M  V30 2686 H 251.95 -3.52688 -3.65477 0
M  V30 2687 H 251.88 -2.16453 -4.80058 0
M  V30 2688 H 254.371 -1.91234 -3.25941 0
M  V30 2689 H 254.684 -4.43721 -6.32718 0
M  V30 2690 H 253.029 -3.98481 -5.69419 0
M  V30 2691 H 256.22 -2.44108 -3.99411 0
M  V30 2692 H 256.393 -3.59225 -5.39316 0
M  V30 2693 N 249.799 1.42003 -0.683588 0
M  V30 2694 C 250.747 2.326 0.000815408 0
M  V30 2695 C 251.741 1.50308 0.781278 0
M  V30 2696 O 252.947 1.66322 0.688251 0
M  V30 2697 H 249.322 0.751758 0.0190616 0
M  V30 2698 H 251.293 2.88011 -0.780528 0
M  V30 2699 C 250.042 3.34978 0.93195 0
M  V30 2700 H 249.365 3.98345 0.340817 0
M  V30 2701 H 250.805 4.00936 1.37936 0
M  V30 2702 C 249.264 2.67925 2.04249 0
M  V30 2703 O 249.794 2.51788 3.12995 0
M  V30 2704 N 248 2.2681 1.81675 0
M  V30 2705 H 247.547 2.40135 0.932363 0
M  V30 2706 H 247.505 1.8228 2.56167 0
M  V30 2707 N 251.277 0.427512 1.51691 0
M  V30 2708 C 252.225 -0.403359 2.29076 0
M  V30 2709 C 253.219 -1.02962 1.34518 0
M  V30 2710 O 254.425 -0.965715 1.51901 0
M  V30 2711 H 250.8 -0.148879 0.737115 0
M  V30 2712 H 252.771 0.270295 2.97173 0
M  V30 2713 C 251.52 -1.49763 3.13794 0
M  V30 2714 H 250.843 -1.02508 3.86435 0
M  V30 2715 H 252.283 -2.05244 3.71014 0
M  V30 2716 C 250.742 -2.47536 2.28533 0
M  V30 2717 O 251.272 -3.51848 1.93819 0
M  V30 2718 N 249.478 -2.18187 1.91945 0
M  V30 2719 H 249.025 -1.33389 2.20375 0
M  V30 2720 H 248.983 -2.83848 1.35195 0
M  V30 2721 N 252.755 -1.56801 0.158532 0
M  V30 2722 C 253.685 -2.20347 -0.772609 0
M  V30 2723 C 254.666 -1.15518 -1.24859 0
M  V30 2724 O 255.851 -1.43902 -1.30406 0
M  V30 2725 C 252.981 -2.83417 -2.00729 0
M  V30 2726 C 251.935 -3.94174 -1.66765 0
M  V30 2727 C 251.261 -4.44233 -2.97592 0
M  V30 2728 C 252.561 -5.14392 -0.905447 0
M  V30 2729 H 254.255 -2.98413 -0.242959 0
M  V30 2730 H 251.801 -1.43537 -0.115419 0
M  V30 2731 H 253.754 -3.26543 -2.6636 0
M  V30 2732 H 252.478 -2.02701 -2.56086 0
M  V30 2733 H 251.137 -3.51684 -1.03508 0
M  V30 2734 H 250.785 -3.60325 -3.50963 0
M  V30 2735 H 250.485 -5.18945 -2.75626 0
M  V30 2736 H 252.009 -4.90037 -3.64274 0
M  V30 2737 H 253.423 -5.5429 -1.46408 0
M  V30 2738 H 251.82 -5.9494 -0.7853 0
M  V30 2739 H 252.89 -4.84795 0.100668 0
M  V30 2740 N 254.233 0.115231 -1.57178 0
M  V30 2741 C 255.18 1.14115 -2.00615 0
M  V30 2742 C 256.15 1.40939 -0.878941 0
M  V30 2743 O 257.335 1.52741 -1.14345 0
M  V30 2744 C 254.475 2.46156 -2.4187 0
M  V30 2745 C 253.588 2.26236 -3.68024 0
M  V30 2746 C 252.723 3.51534 -3.98243 0
M  V30 2747 C 251.762 3.26787 -5.17568 0
M  V30 2748 N 250.899 4.44298 -5.43639 0
M  V30 2749 H 255.739 0.763743 -2.88047 0
M  V30 2750 H 253.276 0.365615 -1.42484 0
M  V30 2751 H 255.234 3.23189 -2.63827 0
M  V30 2752 H 253.864 2.81783 -1.57475 0
M  V30 2753 H 252.916 1.40102 -3.5366 0
M  V30 2754 H 254.228 2.03929 -4.55208 0
M  V30 2755 H 253.382 4.36984 -4.20868 0
M  V30 2756 H 252.121 3.76876 -3.09541 0
M  V30 2757 H 251.126 2.39729 -4.94783 0
M  V30 2758 H 252.351 3.02812 -6.0785 0
M  V30 2759 H 250.297 4.69754 -4.57895 0
M  V30 2760 H 250.214 4.25109 -6.25154 0
M  V30 2761 H 251.482 5.3087 -5.70786 0
M  V30 2762 N 255.711 1.52812 0.385517 0
M  V30 2763 C 257.127 1.4214 0.725829 0
M  V30 2764 C 257.327 0.544589 1.94001 0
M  V30 2765 O 256.383 0.0193693 2.52493 0
M  V30 2766 C 257.696 2.85042 0.957668 0
M  V30 2767 C 259.244 2.94543 1.05892 0
M  V30 2768 C 259.719 4.38464 1.32337 0
M  V30 2769 N 261.21 4.41804 1.39151 0
M  V30 2770 C 261.945 5.5025 1.61285 0
M  V30 2771 N 261.441 6.68775 1.80866 0
M  V30 2772 N 263.234 5.37798 1.63492 0
M  V30 2773 H 255.385 2.08338 -0.413383 0
M  V30 2774 H 257.648 0.940016 -0.122775 0
M  V30 2775 H 257.354 3.51431 0.137568 0
M  V30 2776 H 257.228 3.27505 1.87137 0
M  V30 2777 H 259.615 2.28321 1.86959 0
M  V30 2778 H 259.696 2.55504 0.123057 0
M  V30 2779 H 259.34 5.05254 0.517793 0
M  V30 2780 H 259.27 4.75059 2.27214 0
M  V30 2781 H 261.761 3.56377 1.25713 0
M  V30 2782 H 262.074 7.47197 1.97271 0
M  V30 2783 H 260.419 6.71797 1.78083 0
M  V30 2784 H 263.61 4.44171 1.47749 0
M  V30 2785 H 263.783 6.22382 1.80402 0
M  V30 2786 N 257.189 -0.644168 1.43834 0
M  V30 2787 C 258.414 -1.43642 1.49605 0
M  V30 2788 C 258.839 -1.8773 0.117913 0
M  V30 2789 O 258.197 -1.57938 -0.890239 0
M  V30 2790 C 258.245 -2.6416 2.45463 0
M  V30 2791 O 257.349 -3.63538 1.94714 0
M  V30 2792 H 256.69 -0.430329 0.50568 0
M  V30 2793 H 259.22 -0.787448 1.8884 0
M  V30 2794 H 259.23 -3.11864 2.63068 0
M  V30 2795 H 257.905 -2.31414 3.45572 0
M  V30 2796 H 256.482 -3.2273 1.86814 0
M  V30 2797 N 258.668 -1.30515 -0.883378 0
M  V30 2798 C 259.6 -1.12846 -1.99496 0
M  V30 2799 C 260.613 -0.0712571 -1.62644 0
M  V30 2800 O 261.802 -0.317432 -1.75655 0
M  V30 2801 C 258.902 -0.699123 -3.3161 0
M  V30 2802 C 258.075 -1.83842 -3.96889 0
M  V30 2803 C 257.134 -1.39737 -5.07307 0
M  V30 2804 O 256.16 -2.10485 -5.28852 0
M  V30 2805 N 257.362 -0.277279 -5.79837 0
M  V30 2806 H 260.127 -2.08585 -2.15203 0
M  V30 2807 H 257.688 -1.22672 -1.05656 0
M  V30 2808 H 259.68 -0.387044 -4.02845 0
M  V30 2809 H 258.25 0.166276 -3.12157 0
M  V30 2810 H 257.47 -2.31853 -3.18807 0
M  V30 2811 H 258.758 -2.60187 -4.37241 0
M  V30 2812 H 258.156 0.3122 -5.64838 0
M  V30 2813 H 256.713 -0.0246623 -6.51795 0
M  V30 2814 N 260.146 1.09593 -1.13257 0
M  V30 2815 C 261.371 1.8604 -0.916732 0
M  V30 2816 C 261.796 1.80504 0.529146 0
M  V30 2817 O 261.154 1.18127 1.37534 0
M  V30 2818 C 261.202 3.32017 -1.40703 0
M  V30 2819 O 260.306 4.08141 -0.591153 0
M  V30 2820 H 259.647 0.576943 -0.328683 0
M  V30 2821 H 262.177 1.38405 -1.50682 0
M  V30 2822 H 262.187 3.82865 -1.4099 0
M  V30 2823 H 260.862 3.35361 -2.45979 0
M  V30 2824 H 259.439 3.67084 -0.656005 0
M  V30 2825 N 261.624 0.925811 1.2754 0
M  V30 2826 C 262.574 0.394488 2.24561 0
M  V30 2827 C 263.558 -0.500183 1.52928 0
M  V30 2828 O 264.75 -0.337936 1.73744 0
M  V30 2829 C 261.879 -0.353328 3.41477 0
M  V30 2830 C 260.965 0.557752 4.20416 0
M  V30 2831 N 261.356 1.67674 4.77199 0
M  V30 2832 C 259.654 0.360404 4.44541 0
M  V30 2833 C 260.355 2.24324 5.36706 0
M  V30 2834 N 259.331 1.53305 5.21535 0
M  V30 2835 H 263.133 1.2489 2.66045 0
M  V30 2836 H 260.647 0.779864 1.4245 0
M  V30 2837 H 262.644 -0.7509 4.10082 0
M  V30 2838 H 261.304 -1.20469 3.01525 0
M  V30 2839 H 262.315 2.05915 4.75204 0
M  V30 2840 H 258.992 -0.450454 4.15063 0
M  V30 2841 H 260.382 3.18521 5.91603 0
M  V30 2842 N 263.102 -1.41638 0.69111 0
M  V30 2843 C 264.032 -2.3347 0.037248 0
M  V30 2844 C 265.013 -1.51575 -0.771947 0
M  V30 2845 O 266.198 -1.80126 -0.72582 0
M  V30 2846 C 263.328 -3.35354 -0.903064 0
M  V30 2847 C 262.282 -4.27526 -0.201288 0
M  V30 2848 C 261.608 -5.19747 -1.25565 0
M  V30 2849 C 262.908 -5.13959 0.929689 0
M  V30 2850 H 264.602 -2.88397 0.804227 0
M  V30 2851 H 262.148 -1.38669 0.388189 0
M  V30 2852 H 264.101 -3.98519 -1.36969 0
M  V30 2853 H 262.825 -2.78767 -1.70166 0
M  V30 2854 H 261.484 -3.65779 0.245265 0
M  V30 2855 H 261.132 -4.59479 -2.04666 0
M  V30 2856 H 260.832 -5.8225 -0.791128 0
M  V30 2857 H 262.356 -5.85789 -1.72288 0
M  V30 2858 H 263.77 -5.70718 0.543546 0
M  V30 2859 H 262.167 -5.85379 1.32103 0
M  V30 2860 H 263.237 -4.51389 1.77133 0
M  V30 2861 N 264.58 -0.43555 -1.51462 0
M  V30 2862 C 265.991 0.0279871 -1.86679 0
M  V30 2863 C 266.342 1.42104 -1.35281 0
M  V30 2864 O 265.467 2.04667 -0.702878 0
M  V30 2865 C 266.062 0.0575626 -3.38751 0
M  V30 2866 C 264.621 0.465507 -3.7351 0
M  V30 2867 C 263.768 -0.342996 -2.75171 0
M  V30 2868 H 266.719 -0.651473 -1.44712 0
M  V30 2869 H 266.74 0.867421 -3.70481 0
M  V30 2870 H 266.252 -0.956448 -3.7613 0
M  V30 2871 H 264.353 1.48519 -3.41721 0
M  V30 2872 H 264.466 0.191546 -4.78717 0
M  V30 2873 H 262.83 0.198442 -2.53926 0
M  V30 2874 H 263.613 -1.35585 -3.15391 0
M  V30 2875 N 266.058 1.56714 -0.166846 0
M  V30 2876 C 267.288 2.00828 0.48494 0
M  V30 2877 C 267.696 1.04612 1.57648 0
M  V30 2878 O 267.039 0.0383201 1.8366 0
M  V30 2879 C 267.101 3.4137 1.12723 0
M  V30 2880 C 266.765 4.56654 0.177886 0
M  V30 2881 C 267.762 5.16402 -0.60207 0
M  V30 2882 C 265.447 5.02244 0.0750139 0
M  V30 2883 C 267.441 6.20167 -1.47215 0
M  V30 2884 C 265.128 6.05859 -0.798649 0
M  V30 2885 C 266.126 6.64691 -1.57082 0
M  V30 2886 O 265.814 7.66297 -2.42989 0
M  V30 2887 H 265.546 0.663587 0.128953 0
M  V30 2888 H 268.1 2.03692 -0.264365 0
M  V30 2889 H 266.33 3.35406 1.92457 0
M  V30 2890 H 268.019 3.69466 1.68076 0
M  V30 2891 H 268.785 4.82065 -0.53274 0
M  V30 2892 H 264.664 4.56167 0.665812 0
M  V30 2893 H 268.208 6.66016 -2.07531 0
M  V30 2894 H 264.105 6.39621 -0.869199 0
M  V30 2895 H 264.873 7.83601 -2.36455 0
M  V30 2896 N 267.536 -0.106894 1.57237 0
M  V30 2897 C 268.783 -0.812526 1.85484 0
M  V30 2898 C 269.111 -1.79304 0.753687 0
M  V30 2899 O 268.366 -1.94047 -0.253853 0
M  V30 2900 C 268.665 -1.58628 3.20268 0
M  V30 2901 C 268.331 -0.748967 4.44636 0
M  V30 2902 C 266.993 -0.518104 4.78403 0
M  V30 2903 C 269.345 -0.166122 5.20935 0
M  V30 2904 C 266.673 0.305659 5.85903 0
M  V30 2905 C 269.025 0.644899 6.29304 0
M  V30 2906 C 267.689 0.885965 6.61594 0
M  V30 2907 H 266.959 -0.297324 0.678734 0
M  V30 2908 H 269.606 -0.0744332 1.91355 0
M  V30 2909 H 267.911 -2.39562 3.10028 0
M  V30 2910 H 269.608 -2.13643 3.39349 0
M  V30 2911 H 266.198 -0.939006 4.18187 0
M  V30 2912 H 270.382 -0.33167 4.95191 0
M  V30 2913 H 265.638 0.501528 6.0934 0
M  V30 2914 H 269.812 1.10345 6.87602 0
M  V30 2915 H 267.439 1.52609 7.44725 0
M  V30 2916 N 269.014 -1.53014 -0.377408 0
M  V30 2917 C 270.242 -1.72515 -1.14219 0
M  V30 2918 C 270.657 -0.448735 -1.8339 0
M  V30 2919 O 270.014 0.577592 -1.73119 0
M  V30 2920 C 270.065 -2.8826 -2.18148 0
M  V30 2921 O 269.786 -4.10962 -1.51795 0
M  V30 2922 C 271.287 -3.19536 -3.07264 0
M  V30 2923 H 268.507 -0.577301 -0.342001 0
M  V30 2924 H 271.051 -1.99712 -0.439935 0
M  V30 2925 H 269.206 -2.63492 -2.83991 0
M  V30 2926 H 269.62 -4.75693 -2.20945 0
M  V30 2927 H 271.094 -4.03959 -3.76193 0
M  V30 2928 H 271.571 -2.34403 -3.71419 0
M  V30 2929 H 272.177 -3.46186 -2.47053 0
M  V30 2930 N 270.492 0.636531 -1.44174 0
M  V30 2931 C 271.903 1.21806 -1.41493 0
M  V30 2932 C 272.254 1.95785 -0.1275 0
M  V30 2933 O 271.379 2.02147 0.772376 0
M  V30 2934 C 271.974 2.21551 -2.56321 0
M  V30 2935 C 270.533 2.75143 -2.56853 0
M  V30 2936 C 269.68 1.50052 -2.33195 0
M  V30 2937 H 272.631 0.427531 -1.52833 0
M  V30 2938 H 272.652 3.0405 -2.28765 0
M  V30 2939 H 272.164 1.67679 -3.50008 0
M  V30 2940 H 270.265 3.33033 -1.67093 0
M  V30 2941 H 270.378 3.2155 -3.55165 0
M  V30 2942 H 268.742 1.77993 -1.82183 0
M  V30 2943 H 269.525 0.980903 -3.28988 0
M  V30 2944 N 271.97 1.30982 0.876444 0
M  V30 2945 C 272.917 1.18085 1.98304 0
M  V30 2946 C 273.887 0.0682263 1.6596 0
M  V30 2947 O 275.072 0.239937 1.89285 0
M  V30 2948 C 272.212 0.887475 3.33493 0
M  V30 2949 C 271.325 2.08281 3.78475 0
M  V30 2950 C 270.46 1.72678 5.0235 0
M  V30 2951 C 269.499 2.88657 5.39762 0
M  V30 2952 N 268.636 2.53292 6.54819 0
M  V30 2953 H 273.476 2.1275 2.08666 0
M  V30 2954 H 271.013 1.05839 1.02159 0
M  V30 2955 H 272.971 0.697961 4.1132 0
M  V30 2956 H 271.601 -0.022315 3.22792 0
M  V30 2957 H 270.653 2.3833 2.96484 0
M  V30 2958 H 271.965 2.95108 4.02135 0
M  V30 2959 H 271.119 1.50151 5.87826 0
M  V30 2960 H 269.858 0.830327 4.8058 0
M  V30 2961 H 268.863 3.1184 4.52809 0
M  V30 2962 H 270.088 3.79002 5.63502 0
M  V30 2963 H 268.034 1.66163 6.34607 0
M  V30 2964 H 267.951 3.3365 6.7839 0
M  V30 2965 H 269.219 2.34143 7.43503 0
M  V30 2966 N 273.449 -1.08991 1.13837 0
M  V30 2967 C 274.86 -1.62746 0.914917 0
M  V30 2968 C 275.211 -1.88403 -0.547594 0
M  V30 2969 O 274.336 -1.63706 -1.41525 0
M  V30 2970 C 274.931 -2.95662 1.65437 0
M  V30 2971 C 273.49 -3.46225 1.47666 0
M  V30 2972 C 272.637 -2.20562 1.6807 0
M  V30 2973 H 275.588 -0.922946 1.29102 0
M  V30 2974 H 275.609 -3.63825 1.11407 0
M  V30 2975 H 275.121 -2.76956 2.71877 0
M  V30 2976 H 273.222 -3.70046 0.435478 0
M  V30 2977 H 273.335 -4.23368 2.24268 0
M  V30 2978 H 271.699 -2.29439 1.10589 0
M  V30 2979 H 272.482 -2.0437 2.7584 0
M  V30 2980 N 274.927 -0.932562 -1.27047 0
M  V30 2981 C 276.338 -0.619451 -1.76124 0
M  V30 2982 C 276.689 0.865397 -1.76083 0
M  V30 2983 O 275.814 1.67722 -1.36742 0
M  V30 2984 C 276.409 -1.11771 -3.19832 0
M  V30 2985 C 274.968 -0.855174 -3.66557 0
M  V30 2986 C 274.115 -1.27362 -2.46321 0
M  V30 2987 H 277.066 -1.11181 -1.13245 0
M  V30 2988 H 277.087 -0.46759 -3.77616 0
M  V30 2989 H 276.599 -2.19842 -3.1983 0
M  V30 2990 H 274.7 0.211524 -3.71999 0
M  V30 2991 H 274.813 -1.47613 -4.55793 0
M  V30 2992 H 273.177 -0.692119 -2.45116 0
M  V30 2993 H 273.96 -2.36307 -2.49025 0
M  V30 2994 N 276.405 1.4127 -0.698611 0
M  V30 2995 C 277.337 2.292 0.00399731 0
M  V30 2996 C 278.35 1.44944 0.741279 0
M  V30 2997 O 279.539 1.68416 0.591477 0
M  V30 2998 C 276.639 3.22875 1.02979 0
M  V30 2999 C 275.812 4.35904 0.36151 0
M  V30 3000 C 274.871 5.10134 1.29033 0
M  V30 3001 O 273.897 5.63809 0.781562 0
M  V30 3002 N 275.099 5.17885 2.6225 0
M  V30 3003 H 277.864 2.9014 -0.750921 0
M  V30 3004 H 275.425 1.52455 -0.544882 0
M  V30 3005 H 277.417 3.69404 1.65296 0
M  V30 3006 H 275.987 2.63221 1.68622 0
M  V30 3007 H 275.207 3.91719 -0.441584 0
M  V30 3008 H 276.495 5.08696 -0.103055 0
M  V30 3009 H 275.893 4.7573 3.061 0
M  V30 3010 H 274.45 5.6798 3.19754 0
M  V30 3011 N 277.883 0.443576 1.51229 0
M  V30 3012 C 279.16 -0.181038 1.9476 0
M  V30 3013 C 279.54 -1.59523 1.38259 0
M  V30 3014 O 278.888 -2.2122 0.572198 0
M  V30 3015 C 279.098 -0.152422 3.48667 0
M  V30 3016 C 280.446 -0.354923 4.23114 0
M  V30 3017 O 281.47 -0.230257 3.55455 0
M  V30 3018 O 280.329 -0.603674 5.43156 0
M  V30 3019 H 277.423 -0.1266 0.817252 0
M  V30 3020 H 279.969 0.502004 1.62105 0
M  V30 3021 H 278.741 0.836022 3.82265 0
M  V30 3022 H 278.364 -0.878107 3.87782 0
M  V30 3023 N 279.361 -1.56624 0.175154 0
M  V30 3024 C 280.586 -2.01813 -0.478137 0
M  V30 3025 C 281.011 -1.05457 -1.55757 0
M  V30 3026 O 280.369 -0.0347439 -1.81267 0
M  V30 3027 C 280.417 -3.45581 -1.02987 0
M  V30 3028 O 279.521 -3.52305 -2.14371 0
M  V30 3029 H 278.862 -0.65413 -0.114059 0
M  V30 3030 H 281.392 -2.02673 0.280173 0
M  V30 3031 H 281.402 -3.84965 -1.35151 0
M  V30 3032 H 280.077 -4.1521 -0.239556 0
M  V30 3033 H 278.654 -3.24783 -1.83222 0
M  V30 3034 N 280.839 0.0985539 -1.57292 0
M  V30 3035 C 281.802 1.10402 -2.00858 0
M  V30 3036 C 282.802 1.33146 -0.901593 0
M  V30 3037 O 283.992 1.29318 -1.16716 0
M  V30 3038 C 281.124 2.45394 -2.36632 0
M  V30 3039 H 282.317 0.729099 -2.90902 0
M  V30 3040 H 279.87 0.343495 -1.52479 0
M  V30 3041 H 280.605 2.87769 -1.49531 0
M  V30 3042 H 280.39 2.30235 -3.17387 0
M  V30 3043 H 281.88 3.17718 -2.71007 0
M  V30 3044 N 282.317 1.53212 0.369288 0
M  V30 3045 C 283.563 1.69466 1.11397 0
M  V30 3046 C 283.896 0.443257 1.89074 0
M  V30 3047 O 283.171 -0.559386 1.86282 0
M  V30 3048 C 283.454 2.9422 2.07621 0
M  V30 3049 C 283.307 4.29508 1.33577 0
M  V30 3050 C 284.626 3.14565 3.07794 0
M  V30 3051 H 281.745 0.616667 0.403597 0
M  V30 3052 H 284.387 1.85845 0.395179 0
M  V30 3053 H 282.537 2.80387 2.68916 0
M  V30 3054 H 284.209 4.55147 0.750955 0
M  V30 3055 H 282.452 4.29088 0.637618 0
M  V30 3056 H 283.123 5.12926 2.03989 0
M  V30 3057 H 285.599 3.2756 2.56601 0
M  V30 3058 H 284.475 4.03297 3.72348 0
M  V30 3059 H 284.736 2.29675 3.77759 0
M  V30 3060 N 283.795 -0.628877 1.44509 0
M  V30 3061 C 285.044 -1.38437 1.4669 0
M  V30 3062 C 285.357 -1.95322 0.104272 0
M  V30 3063 O 286.563 -2.715 0.00362163 0
M  V30 3064 C 285.019 -2.50659 2.5826 0
M  V30 3065 C 284.627 -2.00277 4.0074 0
M  V30 3066 C 286.371 -3.27844 2.69664 0
M  V30 3067 C 284.278 -3.09854 5.0373 0
M  V30 3068 H 283.208 -0.520245 0.545766 0
M  V30 3069 H 285.859 -0.676313 1.70582 0
M  V30 3070 H 284.241 -3.2405 2.27612 0
M  V30 3071 H 285.415 -1.33736 4.40966 0
M  V30 3072 H 283.73 -1.35901 3.93599 0
M  V30 3073 H 286.327 -4.09534 3.43781 0
M  V30 3074 H 286.67 -3.77471 1.75559 0
M  V30 3075 H 287.203 -2.61543 2.99733 0
M  V30 3076 H 283.942 -2.65168 5.99472 0
M  V30 3077 H 283.462 -3.7503 4.68095 0
M  V30 3078 H 285.141 -3.74592 5.27532 0
M  V30 3079 N 285.273 -1.31445 -0.869486 0
M  V30 3080 C 286.22 -1.19135 -1.97675 0
M  V30 3081 C 287.19 -0.0770266 -1.65921 0
M  V30 3082 O 288.375 -0.249972 -1.89155 0
M  V30 3083 C 285.515 -0.905149 -3.33018 0
M  V30 3084 C 284.628 -2.10285 -3.77365 0
M  V30 3085 C 283.763 -1.75339 -5.01427 0
M  V30 3086 C 282.802 -2.91515 -5.38224 0
M  V30 3087 N 281.939 -2.56762 -6.53466 0
M  V30 3088 H 286.779 -2.13853 -2.07535 0
M  V30 3089 H 284.316 -1.06379 -1.01597 0
M  V30 3090 H 286.274 -0.719765 -4.10944 0
M  V30 3091 H 284.904 0.00519624 -3.228 0
M  V30 3092 H 283.956 -2.39899 -2.95216 0
M  V30 3093 H 285.268 -2.97237 -4.00564 0
M  V30 3094 H 284.422 -1.53266 -5.87022 0
M  V30 3095 H 283.161 -0.855801 -4.80133 0
M  V30 3096 H 282.166 -3.14237 -4.51149 0
M  V30 3097 H 283.391 -3.81985 -5.61484 0
M  V30 3098 H 281.337 -1.69526 -6.33717 0
M  V30 3099 H 281.254 -3.37243 -6.76612 0
M  V30 3100 H 282.522 -2.38083 -7.42251 0
M  V30 3101 N 286.751 1.08385 -1.14413 0
M  V30 3102 C 287.714 2.13486 -0.834048 0
M  V30 3103 C 288.714 1.59988 0.161418 0
M  V30 3104 O 289.904 1.74071 -0.0669575 0
M  V30 3105 C 287.036 3.4003 -0.243354 0
M  V30 3106 H 288.229 2.42425 -1.7655 0
M  V30 3107 H 285.782 1.24101 -0.950189 0
M  V30 3108 H 286.517 3.16726 0.696807 0
M  V30 3109 H 286.302 3.80157 -0.960367 0
M  V30 3110 H 287.792 4.17577 -0.0436242 0
M  V30 3111 N 288.23 0.939286 1.26551 0
M  V30 3112 C 289.478 0.58469 1.93457 0
M  V30 3113 C 289.799 -0.878774 1.74076 0
M  V30 3114 O 289.069 -1.62421 1.09528 0
M  V30 3115 H 287.649 0.21325 0.715914 0
M  V30 3116 H 290.311 1.1942 1.54029 0
M  V30 3117 H 289.407 0.800849 3.0165 0
M  V30 3118 N 289.708 -1.40897 0.706093 0
M  V30 3119 C 290.938 -2.05075 0.250523 0
M  V30 3120 C 291.346 -1.53275 -1.10921 0
M  V30 3121 O 290.689 -0.680281 -1.7064 0
M  V30 3122 C 290.751 -3.59219 0.142178 0
M  V30 3123 C 290.415 -4.33864 1.43566 0
M  V30 3124 C 291.412 -4.62448 2.37566 0
M  V30 3125 C 289.097 -4.72946 1.69195 0
M  V30 3126 C 291.091 -5.29088 3.5545 0
M  V30 3127 C 288.778 -5.3932 2.87362 0
M  V30 3128 C 289.776 -5.6732 3.80312 0
M  V30 3129 O 289.464 -6.32325 4.96408 0
M  V30 3130 H 289.196 -0.666645 0.112074 0
M  V30 3131 H 291.75 -1.81467 0.962239 0
M  V30 3132 H 289.98 -3.81609 -0.6254 0
M  V30 3133 H 291.669 -4.0495 -0.277584 0
M  V30 3134 H 292.435 -4.32727 2.19027 0
M  V30 3135 H 288.314 -4.50527 0.977042 0
M  V30 3136 H 291.858 -5.50859 4.28018 0
M  V30 3137 H 287.755 -5.68461 3.05814 0
M  V30 3138 H 288.523 -6.50821 4.9636 0
M  V30 3139 N 291.186 -0.45159 -1.50991 0
M  V30 3140 C 292.426 0.109066 -2.04109 0
M  V30 3141 C 292.79 1.38716 -1.32747 0
M  V30 3142 O 293.991 2.02896 -1.76314 0
M  V30 3143 C 292.262 0.308354 -3.56067 0
M  V30 3144 S 293.821 0.830369 -4.30872 0
M  V30 3145 H 290.639 0.0251531 -0.710555 0
M  V30 3146 H 293.241 -0.614264 -1.85599 0
M  V30 3147 H 291.945 -0.627962 -4.05567 0
M  V30 3148 H 291.476 1.05836 -3.78896 0
M  V30 3149 H 293.491 2.10626 -4.49279 0
M  V30 3150 N 292.664 1.56529 -0.183458 0
M  V30 3151 C 293.91 1.97537 0.459036 0
M  V30 3152 C 294.243 1.06989 1.62071 0
M  V30 3153 O 293.518 0.11948 1.94133 0
M  V30 3154 C 293.801 3.47874 0.930368 0
M  V30 3155 C 293.654 4.492 -0.232317 0
M  V30 3156 C 294.973 4.01612 1.79989 0
M  V30 3157 H 292.092 0.718204 0.165383 0
M  V30 3158 H 294.734 1.88042 -0.272038 0
M  V30 3159 H 292.884 3.56095 1.55333 0
M  V30 3160 H 294.556 4.53027 -0.86972 0
M  V30 3161 H 292.799 4.24657 -0.885928 0
M  V30 3162 H 293.47 5.51823 0.139796 0
M  V30 3163 H 295.946 3.96097 1.27461 0
M  V30 3164 H 294.822 5.07195 2.09867 0
M  V30 3165 H 295.083 3.46163 2.74998 0
M  V30 3166 N 294.142 -0.090211 1.57342 0
M  V30 3167 C 295.089 -1.10909 2.02405 0
M  V30 3168 C 296.059 -1.39523 0.901252 0
M  V30 3169 O 297.244 -1.50903 1.1676 0
M  V30 3170 C 294.384 -2.42277 2.45755 0
M  V30 3171 C 293.497 -2.20352 3.71576 0
M  V30 3172 C 292.632 -3.45154 4.03785 0
M  V30 3173 C 291.671 -3.18512 5.22701 0
M  V30 3174 N 290.808 -4.35593 5.50639 0
M  V30 3175 H 295.648 -0.71782 2.89225 0
M  V30 3176 H 293.185 -0.342901 1.43048 0
M  V30 3177 H 295.143 -3.18951 2.68935 0
M  V30 3178 H 293.773 -2.79242 1.61938 0
M  V30 3179 H 292.825 -1.34458 3.55844 0
M  V30 3180 H 294.137 -1.96661 4.58395 0
M  V30 3181 H 293.291 -4.30233 4.27767 0
M  V30 3182 H 292.03 -3.71904 3.15498 0
M  V30 3183 H 291.035 -2.31827 4.98534 0
M  V30 3184 H 292.26 -2.93103 6.12591 0
M  V30 3185 H 290.206 -4.6241 4.6531 0
M  V30 3186 H 290.123 -4.1511 6.31838 0
M  V30 3187 H 291.391 -5.21723 5.7916 0
M  V30 3188 N 295.62 -1.53406 -0.361157 0
M  V30 3189 C 296.552 -1.76446 -1.46286 0
M  V30 3190 C 297.565 -0.645322 -1.49464 0
M  V30 3191 O 298.754 -0.921681 -1.52864 0
M  V30 3192 C 295.854 -1.83332 -2.85031 0
M  V30 3193 C 295.027 -3.13033 -3.05498 0
M  V30 3194 C 294.086 -3.11104 -4.24383 0
M  V30 3195 O 293.112 -3.84888 -4.19344 0
M  V30 3196 N 294.314 -2.32234 -5.32022 0
M  V30 3197 H 297.079 -2.71508 -1.26899 0
M  V30 3198 H 294.64 -1.52238 -0.550915 0
M  V30 3199 H 296.632 -1.79514 -3.62708 0
M  V30 3200 H 295.202 -0.955342 -2.97644 0
M  V30 3201 H 294.422 -3.30119 -2.15442 0
M  V30 3202 H 295.71 -3.9874 -3.16044 0
M  V30 3203 H 295.108 -1.71807 -5.38979 0
M  V30 3204 H 293.665 -2.3423 -6.08259 0
M  V30 3205 N 297.098 0.621204 -1.44841 0
M  V30 3206 C 298.346 1.37783 -1.47852 0
M  V30 3207 C 298.667 1.94653 -0.116224 0
M  V30 3208 O 297.937 1.76367 0.852737 0
M  V30 3209 H 296.517 0.511453 -0.544449 0
M  V30 3210 H 299.179 0.730446 -1.80694 0
M  V30 3211 H 298.275 2.20414 -2.20961 0
M  V30 3212 N 298.576 1.31904 0.862503 0
M  V30 3213 C 299.539 1.20131 1.95195 0
M  V30 3214 C 300.539 0.126409 1.60302 0
M  V30 3215 O 301.729 0.376234 1.70089 0
M  V30 3216 C 298.861 0.845691 3.30244 0
M  V30 3217 H 300.054 2.16943 2.07064 0
M  V30 3218 H 297.607 1.15622 1.05172 0
M  V30 3219 H 298.342 -0.120957 3.24074 0
M  V30 3220 H 298.127 1.62276 3.56944 0
M  V30 3221 H 299.617 0.787418 4.10109 0
M  V30 3222 N 300.054 -1.07777 1.14986 0
M  V30 3223 C 301.3 -1.80557 0.923422 0
M  V30 3224 C 301.633 -1.86298 -0.548337 0
M  V30 3225 O 300.908 -1.34354 -1.40639 0
M  V30 3226 C 301.191 -3.25839 1.53299 0
M  V30 3227 C 301.044 -3.28269 3.07505 0
M  V30 3228 C 302.363 -4.22991 1.21518 0
M  V30 3229 H 299.482 -0.655493 0.336894 0
M  V30 3230 H 302.124 -1.26144 1.42083 0
M  V30 3231 H 300.274 -3.72306 1.10999 0
M  V30 3232 H 301.946 -2.90079 3.58681 0
M  V30 3233 H 300.189 -2.67355 3.4162 0
M  V30 3234 H 300.86 -4.30691 3.45266 0
M  V30 3235 H 303.336 -3.84894 1.581 0
M  V30 3236 H 302.212 -5.22945 1.66793 0
M  V30 3237 H 302.473 -4.41904 0.131505 0
M  V30 3238 N 301.532 -0.945985 -1.26051 0
M  V30 3239 C 302.465 -0.403619 -2.24602 0
M  V30 3240 C 303.443 0.510241 -1.54387 0
M  V30 3241 O 304.627 0.446593 -1.83133 0
M  V30 3242 C 301.754 0.419564 -3.36091 0
M  V30 3243 C 300.8 -0.433454 -4.24292 0
M  V30 3244 S 301.633 -1.86037 -5.02146 0
M  V30 3245 C 302.789 -1.04538 -6.17108 0
M  V30 3246 H 303.022 -1.23883 -2.7026 0
M  V30 3247 H 300.555 -0.749438 -1.34992 0
M  V30 3248 H 302.513 0.888595 -4.00767 0
M  V30 3249 H 301.174 1.22951 -2.89036 0
M  V30 3250 H 300.367 0.197486 -5.03613 0
M  V30 3251 H 299.969 -0.837357 -3.64506 0
M  V30 3252 H 302.261 -0.289923 -6.76879 0
M  V30 3253 H 303.204 -1.81222 -6.84518 0
M  V30 3254 H 303.612 -0.579319 -5.61519 0
M  V30 3255 N 303.011 1.40521 -0.713556 0
M  V30 3256 C 303.958 2.30723 -0.059684 0
M  V30 3257 C 304.928 1.48079 0.752448 0
M  V30 3258 O 306.113 1.76823 0.71681 0
M  V30 3259 C 303.253 3.34274 0.857594 0
M  V30 3260 C 302.366 4.31986 0.0351536 0
M  V30 3261 C 301.501 5.22605 0.951724 0
M  V30 3262 C 300.54 6.11976 0.123253 0
M  V30 3263 N 299.677 6.9502 0.99459 0
M  V30 3264 H 304.517 2.86074 -0.834596 0
M  V30 3265 H 302.054 1.40879 -0.42326 0
M  V30 3266 H 304.012 3.92879 1.40364 0
M  V30 3267 H 302.642 2.8043 1.59871 0
M  V30 3268 H 301.694 3.7518 -0.628052 0
M  V30 3269 H 303.006 4.95101 -0.606347 0
M  V30 3270 H 302.16 5.86131 1.56638 0
M  V30 3271 H 300.899 4.59759 1.62705 0
M  V30 3272 H 299.904 5.47482 -0.50435 0
M  V30 3273 H 301.129 6.76881 -0.548539 0
M  V30 3274 H 299.075 6.34764 1.6556 0
M  V30 3275 H 298.992 7.54892 0.40908 0
M  V30 3276 H 300.26 7.62997 1.59549 0
M  V30 3277 N 304.489 0.459591 1.5075 0
M  V30 3278 C 305.437 -0.354678 2.2988 0
M  V30 3279 C 306.431 -1.00086 1.36672 0
M  V30 3280 O 307.637 -0.933277 1.53915 0
M  V30 3281 H 304.012 -0.13321 0.740107 0
M  V30 3282 H 305.983 0.333269 2.96533 0
M  V30 3283 C 304.732 -1.43073 3.169 0
M  V30 3284 H 304.055 -0.942882 3.88523 0
M  V30 3285 H 305.495 -1.97328 3.75284 0
M  V30 3286 C 303.954 -2.42633 2.33732 0
M  V30 3287 O 304.484 -3.47658 2.01238 0
M  V30 3288 N 302.69 -2.14066 1.9653 0
M  V30 3289 H 302.237 -1.28685 2.23155 0
M  V30 3290 H 302.195 -2.80917 1.41185 0
M  V30 3291 N 305.967 -1.56429 0.191757 0
M  V30 3292 C 307.213 -1.98541 -0.441943 0
M  V30 3293 C 307.568 -1.07646 -1.59468 0
M  V30 3294 O 306.861 -0.120191 -1.91223 0
M  V30 3295 C 307.055 -3.44449 -0.953384 0
M  V30 3296 C 306.884 -4.49456 0.148262 0
M  V30 3297 C 305.654 -5.01668 0.604781 0
M  V30 3298 C 307.852 -5.05336 0.95602 0
M  V30 3299 N 305.834 -5.90334 1.6846 0
M  V30 3300 C 307.205 -5.9064 1.88531 0
M  V30 3301 C 309.26 -4.87779 0.998811 0
M  V30 3302 C 307.963 -6.60264 2.85383 0
M  V30 3303 C 309.989 -5.58139 1.95537 0
M  V30 3304 C 309.351 -6.43187 2.8721 0
M  V30 3305 H 305.45 -0.771247 -0.129236 0
M  V30 3306 H 308.034 -1.92426 0.296682 0
M  V30 3307 H 306.205 -3.5107 -1.66146 0
M  V30 3308 H 307.937 -3.73533 -1.55741 0
M  V30 3309 H 304.692 -4.73183 0.198736 0
M  V30 3310 H 305.116 -6.39371 2.22561 0
M  V30 3311 H 309.758 -4.21705 0.304048 0
M  V30 3312 H 307.476 -7.25538 3.55837 0
M  V30 3313 H 311.062 -5.46532 1.99484 0
M  V30 3314 H 309.942 -6.96674 3.60022 0
M  V30 3315 N 307.445 0.0818655 -1.57387 0
M  V30 3316 C 308.392 1.09834 -2.0299 0
M  V30 3317 C 309.362 1.39043 -0.908639 0
M  V30 3318 O 310.547 1.50282 -1.17559 0
M  V30 3319 C 307.687 2.40971 -2.47037 0
M  V30 3320 C 306.8 2.18379 -3.7274 0
M  V30 3321 C 305.935 3.43008 -4.0561 0
M  V30 3322 C 304.974 3.15736 -5.24383 0
M  V30 3323 N 304.111 4.32667 -5.52941 0
M  V30 3324 H 308.951 0.702472 -2.89602 0
M  V30 3325 H 306.488 0.33531 -1.43227 0
M  V30 3326 H 308.446 3.1752 -2.70623 0
M  V30 3327 H 307.076 2.78379 -1.63417 0
M  V30 3328 H 306.128 1.32569 -3.56552 0
M  V30 3329 H 307.44 1.94227 -4.59431 0
M  V30 3330 H 306.594 4.27958 -4.30043 0
M  V30 3331 H 305.333 3.70225 -3.17466 0
M  V30 3332 H 304.338 2.2918 -4.99757 0
M  V30 3333 H 305.563 2.8985 -6.14136 0
M  V30 3334 H 303.509 4.59935 -4.67756 0
M  V30 3335 H 303.426 4.11753 -6.34031 0
M  V30 3336 H 304.694 5.18644 -5.81918 0
M  V30 3337 N 308.923 1.53595 0.353017 0
M  V30 3338 C 310.339 1.43648 0.695516 0
M  V30 3339 C 310.539 0.585617 1.92802 0
M  V30 3340 O 309.595 0.0729223 2.52395 0
M  V30 3341 C 310.908 2.8701 0.896991 0
M  V30 3342 C 312.456 2.96723 0.996209 0
M  V30 3343 C 312.931 4.41173 1.23007 0
M  V30 3344 N 314.422 4.44657 1.29749 0
M  V30 3345 C 315.157 5.53547 1.49577 0
M  V30 3346 N 314.653 6.72461 1.66639 0
M  V30 3347 N 316.446 5.41145 1.52048 0
M  V30 3348 H 308.597 2.07415 -0.457481 0
M  V30 3349 H 310.86 0.9372 -0.142687 0
M  V30 3350 H 310.566 3.51644 0.0629938 0
M  V30 3351 H 310.44 3.31401 1.80148 0
M  V30 3352 H 312.827 2.32235 1.82074 0
M  V30 3353 H 312.908 2.55707 0.0688331 0
M  V30 3354 H 312.552 5.06238 0.410505 0
M  V30 3355 H 312.482 4.79772 2.17086 0
M  V30 3356 H 314.973 3.58963 1.18126 0
M  V30 3357 H 315.286 7.51214 1.81378 0
M  V30 3358 H 313.631 6.75423 1.63794 0
M  V30 3359 H 316.822 4.47205 1.38294 0
M  V30 3360 H 316.995 6.26068 1.67159 0
M  V30 3361 N 310.401 -0.613514 1.45168 0
M  V30 3362 C 311.817 -0.933629 1.29443 0
M  V30 3363 C 312.017 -2.00028 0.243101 0
M  V30 3364 O 311.073 -2.49848 -0.364992 0
M  V30 3365 C 312.386 -1.38018 2.67155 0
M  V30 3366 C 313.934 -1.49471 2.75004 0
M  V30 3367 C 314.409 -1.97503 4.13227 0
M  V30 3368 N 315.9 -2.04746 4.15491 0
M  V30 3369 C 316.635 -2.43121 5.19307 0
M  V30 3370 N 316.131 -2.80506 6.33473 0
M  V30 3371 N 317.924 -2.43408 5.06664 0
M  V30 3372 H 310.075 0.0916097 2.12202 0
M  V30 3373 H 312.338 -0.0216655 0.947752 0
M  V30 3374 H 312.044 -0.670625 3.45247 0
M  V30 3375 H 311.918 -2.34784 2.95222 0
M  V30 3376 H 314.305 -2.19519 1.9722 0
M  V30 3377 H 314.386 -0.510342 2.50657 0
M  V30 3378 H 314.03 -1.28045 4.91495 0
M  V30 3379 H 313.96 -2.96843 4.34962 0
M  V30 3380 H 316.451 -1.78468 3.33103 0
M  V30 3381 H 316.764 -3.08652 7.08487 0
M  V30 3382 H 315.109 -2.78216 6.36884 0
M  V30 3383 H 318.3 -2.13604 4.16523 0
M  V30 3384 H 318.473 -2.72989 5.87691 0
M  V30 3385 N 311.879 -1.3236 -0.855495 0
M  V30 3386 C 313.109 -1.25688 -1.6397 0
M  V30 3387 C 313.517 0.177592 -1.88365 0
M  V30 3388 O 312.86 1.12485 -1.45234 0
M  V30 3389 C 312.922 -1.94602 -3.02275 0
M  V30 3390 C 312.586 -3.43937 -3.00926 0
M  V30 3391 C 313.583 -4.39435 -2.77835 0
M  V30 3392 C 311.268 -3.85858 -3.21588 0
M  V30 3393 C 313.262 -5.74829 -2.75409 0
M  V30 3394 C 310.949 -5.21361 -3.18789 0
M  V30 3395 C 311.947 -6.15658 -2.95727 0
M  V30 3396 O 311.635 -7.48681 -2.928 0
M  V30 3397 H 311.367 -0.434972 -0.51747 0
M  V30 3398 H 313.921 -1.75023 -1.075 0
M  V30 3399 H 312.151 -1.39836 -3.60531 0
M  V30 3400 H 313.84 -1.81651 -3.62985 0
M  V30 3401 H 314.606 -4.08374 -2.6164 0
M  V30 3402 H 310.485 -3.12883 -3.38564 0
M  V30 3403 H 314.029 -6.48404 -2.57328 0
M  V30 3404 H 309.926 -5.52052 -3.34528 0
M  V30 3405 H 310.694 -7.5803 -3.0876 0
M  V30 3406 N 313.357 1.07166 -1.15556 0
M  V30 3407 C 314.604 1.79798 -0.931604 0
M  V30 3408 C 314.932 1.8682 0.54115 0
M  V30 3409 O 314.187 1.34942 1.41736 0
M  V30 3410 C 314.486 3.24707 -1.49332 0
M  V30 3411 C 314.152 3.37781 -2.98688 0
M  V30 3412 C 312.814 3.41057 -3.39461 0
M  V30 3413 C 315.166 3.40424 -3.94665 0
M  V30 3414 C 312.494 3.4458 -4.74849 0
M  V30 3415 C 314.846 3.45485 -5.29927 0
M  V30 3416 C 313.51 3.47039 -5.70193 0
M  V30 3417 H 312.78 0.657928 -0.340898 0
M  V30 3418 H 315.427 1.26091 -1.44129 0
M  V30 3419 H 313.732 3.81208 -0.904859 0
M  V30 3420 H 315.429 3.79486 -1.29582 0
M  V30 3421 H 312.019 3.35932 -2.66172 0
M  V30 3422 H 316.203 3.37113 -3.64237 0
M  V30 3423 H 311.459 3.44083 -5.05388 0
M  V30 3424 H 315.633 3.46476 -6.04092 0
M  V30 3425 H 313.26 3.49522 -6.75084 0
M  V30 3426 N 314.835 0.952656 1.25548 0
M  V30 3427 C 315.767 0.428609 2.25157 0
M  V30 3428 C 316.78 -0.454428 1.56329 0
M  V30 3429 O 317.969 -0.263023 1.76552 0
M  V30 3430 C 315.069 -0.401972 3.36508 0
M  V30 3431 C 314.242 0.467601 4.34893 0
M  V30 3432 C 313.301 -0.30445 5.25319 0
M  V30 3433 O 312.327 0.296473 5.68427 0
M  V30 3434 N 313.529 -1.59805 5.5807 0
M  V30 3435 H 316.294 1.28497 2.70756 0
M  V30 3436 H 313.855 0.822798 1.39433 0
M  V30 3437 H 315.847 -0.926134 3.9396 0
M  V30 3438 H 314.417 -1.15918 2.90313 0
M  V30 3439 H 313.637 1.17288 3.76347 0
M  V30 3440 H 314.925 1.06119 4.97611 0
M  V30 3441 H 314.323 -2.10823 5.24948 0
M  V30 3442 H 312.88 -2.06822 6.18116 0
M  V30 3443 N 316.313 -1.40141 0.720998 0
M  V30 3444 C 317.243 -2.33339 0.0867621 0
M  V30 3445 C 318.224 -1.53178 -0.739622 0
M  V30 3446 O 319.409 -1.81625 -0.687449 0
M  V30 3447 C 316.539 -3.37194 -0.831728 0
M  V30 3448 C 315.493 -4.27857 -0.110558 0
M  V30 3449 C 314.819 -5.22294 -1.14513 0
M  V30 3450 C 316.119 -5.11872 1.0385 0
M  V30 3451 H 317.813 -2.86626 0.865219 0
M  V30 3452 H 315.359 -1.37814 0.417516 0
M  V30 3453 H 317.312 -4.01335 -1.28485 0
M  V30 3454 H 316.036 -2.82314 -1.64214 0
M  V30 3455 H 314.695 -3.65176 0.322797 0
M  V30 3456 H 314.343 -4.63717 -1.94874 0
M  V30 3457 H 314.043 -5.83797 -0.667446 0
M  V30 3458 H 315.567 -5.89312 -1.59824 0
M  V30 3459 H 316.981 -5.69436 0.664482 0
M  V30 3460 H 315.378 -5.82445 1.4449 0
M  V30 3461 H 316.448 -4.4753 1.86668 0
M  V30 3462 N 317.792 -0.46758 -1.50504 0
M  V30 3463 C 319.069 0.15003 -1.95024 0
M  V30 3464 C 319.449 1.57304 -1.40779 0
M  V30 3465 O 318.797 2.20281 -0.607319 0
M  V30 3466 C 319.007 0.0969324 -3.48865 0
M  V30 3467 C 320.355 0.287565 -4.23625 0
M  V30 3468 O 321.379 0.173678 -3.55776 0
M  V30 3469 O 320.238 0.517186 -5.44047 0
M  V30 3470 H 317.332 0.113582 -0.819163 0
M  V30 3471 H 319.878 -0.52773 -1.61286 0
M  V30 3472 H 318.65 -0.896732 -3.80886 0
M  V30 3473 H 318.273 0.816303 -3.8913 0
M  V30 3474 N 319.27 1.56325 -0.20005 0
M  V30 3475 C 320.18 2.22931 0.730668 0
M  V30 3476 C 321.196 1.22997 1.23076 0
M  V30 3477 O 322.372 1.55748 1.27689 0
M  V30 3478 C 319.437 2.87948 1.93098 0
M  V30 3479 C 318.498 4.03166 1.47497 0
M  V30 3480 C 317.731 4.65073 2.61807 0
M  V30 3481 O 317.954 4.25913 3.79413 0
M  V30 3482 O 316.888 5.54452 2.34237 0
M  V30 3483 H 320.714 3.03084 0.193391 0
M  V30 3484 H 318.299 1.49371 0.0294621 0
M  V30 3485 H 320.181 3.29063 2.6324 0
M  V30 3486 H 318.856 2.10771 2.45677 0
M  V30 3487 H 317.763 3.66664 0.742201 0
M  V30 3488 H 319.096 4.82022 0.995796 0
M  V30 3489 N 320.748 -0.0735177 1.57428 0
M  V30 3490 C 321.696 -1.10628 2.04607 0
M  V30 3491 C 322.69 -1.40181 0.951088 0
M  V30 3492 O 323.896 -1.39608 1.1362 0
M  V30 3493 H 320.271 -0.374088 0.652351 0
M  V30 3494 H 322.242 -0.682218 2.90497 0
M  V30 3495 C 320.991 -2.41212 2.50423 0
M  V30 3496 H 320.314 -2.19322 3.34272 0
M  V30 3497 H 321.754 -3.11927 2.87189 0
M  V30 3498 C 320.213 -3.0705 1.38644 0
M  V30 3499 O 320.743 -3.95056 0.727582 0
M  V30 3500 N 318.949 -2.67645 1.132 0
M  V30 3501 H 318.496 -1.96169 1.66959 0
M  V30 3502 H 318.454 -3.1202 0.386147 0
M  V30 3503 N 322.226 -1.5378 -0.344866 0
M  V30 3504 C 323.454 -1.74899 -1.10534 0
M  V30 3505 C 323.869 -0.487534 -1.82397 0
M  V30 3506 O 323.226 0.540741 -1.74305 0
M  V30 3507 C 323.277 -2.92822 -2.11984 0
M  V30 3508 O 322.998 -4.14089 -1.43044 0
M  V30 3509 C 324.499 -3.25982 -3.00417 0
M  V30 3510 H 321.719 -0.584426 -0.329678 0
M  V30 3511 H 324.263 -2.006 -0.397474 0
M  V30 3512 H 322.418 -2.69457 -2.78338 0
M  V30 3513 H 322.832 -4.80272 -2.10805 0
M  V30 3514 H 324.306 -4.11848 -3.67539 0
M  V30 3515 H 324.783 -2.42228 -3.66363 0
M  V30 3516 H 325.389 -3.51349 -2.39654 0
M  V30 3517 N 323.704 0.605807 -1.45491 0
M  V30 3518 C 324.953 1.36086 -1.48874 0
M  V30 3519 C 325.266 1.95131 -0.135333 0
M  V30 3520 O 326.472 2.7146 -0.0468144 0
M  V30 3521 C 324.928 2.46518 -2.62215 0
M  V30 3522 C 324.536 1.93877 -4.03876 0
M  V30 3523 C 326.28 3.23512 -2.74846 0
M  V30 3524 C 324.187 3.01801 -5.08596 0
M  V30 3525 H 323.117 0.511497 -0.553974 0
M  V30 3526 H 325.768 0.649089 -1.71636 0
M  V30 3527 H 324.15 3.20388 -2.32739 0
M  V30 3528 H 325.324 1.26704 -4.43038 0
M  V30 3529 H 323.639 1.29622 -3.95711 0
M  V30 3530 H 326.236 4.04013 -3.50253 0
M  V30 3531 H 326.579 3.74631 -1.81542 0
M  V30 3532 H 327.112 2.56742 -3.03856 0
M  V30 3533 H 323.851 2.55597 -6.03614 0
M  V30 3534 H 323.371 3.67535 -4.74002 0
M  V30 3535 H 325.05 3.66152 -5.33424 0
M  V30 3536 N 325.182 1.32811 0.848464 0
M  V30 3537 C 326.43 1.23479 1.59991 0
M  V30 3538 C 326.751 -0.201853 1.93952 0
M  V30 3539 O 326.021 -1.12818 1.60153 0
M  V30 3540 H 324.601 0.454034 0.593179 0
M  V30 3541 H 327.263 1.66412 1.01455 0
M  V30 3542 H 326.359 1.82178 2.53412 0
M  V30 3543 N 326.66 -1.06551 1.16123 0
M  V30 3544 C 327.89 -1.8274 0.963838 0
M  V30 3545 C 328.298 -1.82712 -0.491228 0
M  V30 3546 O 327.641 -1.24294 -1.35265 0
M  V30 3547 C 327.703 -3.3065 1.41106 0
M  V30 3548 C 327.367 -3.54384 2.88549 0
M  V30 3549 C 328.364 -3.4765 3.86569 0
M  V30 3550 C 326.049 -3.81789 3.26408 0
M  V30 3551 C 328.043 -3.67982 5.2045 0
M  V30 3552 C 325.73 -4.01772 4.60459 0
M  V30 3553 C 326.728 -3.94866 5.57288 0
M  V30 3554 O 326.416 -4.14306 6.88916 0
M  V30 3555 H 326.148 -0.583136 0.341948 0
M  V30 3556 H 328.702 -1.35351 1.54497 0
M  V30 3557 H 326.932 -3.78887 0.773394 0
M  V30 3558 H 328.621 -3.88324 1.1815 0
M  V30 3559 H 329.387 -3.2647 3.58667 0
M  V30 3560 H 325.266 -3.86276 2.51619 0
M  V30 3561 H 328.81 -3.62507 5.96015 0
M  V30 3562 H 324.707 -4.2244 4.88072 0
M  V30 3563 H 325.475 -4.31609 6.95454 0
M  V30 3564 N 328.138 -0.959301 -1.25041 0
M  V30 3565 C 329.385 -0.616611 -1.92884 0
M  V30 3566 C 329.713 0.847036 -1.75087 0
M  V30 3567 O 328.968 1.62374 -1.09239 0
M  V30 3568 C 329.267 -0.927136 -3.45165 0
M  V30 3569 C 328.933 -2.37757 -3.83122 0
M  V30 3570 C 327.595 -2.77402 -3.93194 0
M  V30 3571 C 329.947 -3.31929 -4.01836 0
M  V30 3572 C 327.275 -4.10277 -4.19392 0
M  V30 3573 C 329.627 -4.64423 -4.29528 0
M  V30 3574 C 328.291 -5.03857 -4.37818 0
M  V30 3575 H 327.561 -0.225634 -0.705812 0
M  V30 3576 H 330.208 -1.20921 -1.48493 0
M  V30 3577 H 328.513 -0.252195 -3.90987 0
M  V30 3578 H 330.21 -0.6405 -3.95852 0
M  V30 3579 H 326.8 -2.06013 -3.75841 0
M  V30 3580 H 330.984 -3.02488 -3.93465 0
M  V30 3581 H 326.24 -4.40467 -4.24027 0
M  V30 3582 H 330.414 -5.37369 -4.42953 0
M  V30 3583 H 328.041 -6.06843 -4.57871 0
M  V30 3584 N 329.616 1.39756 -0.72842 0
M  V30 3585 C 330.563 2.30647 -0.0841519 0
M  V30 3586 C 331.533 1.48869 0.7367 0
M  V30 3587 O 332.718 1.77574 0.698015 0
M  V30 3588 C 329.858 3.35165 0.822091 0
M  V30 3589 C 328.971 4.31999 -0.0106663 0
M  V30 3590 C 328.106 5.23585 0.896241 0
M  V30 3591 C 327.145 6.12072 0.0583381 0
M  V30 3592 N 326.282 6.96035 0.920818 0
M  V30 3593 H 331.122 2.85173 -0.864891 0
M  V30 3594 H 328.659 1.40422 -0.438179 0
M  V30 3595 H 330.617 3.94345 1.36189 0
M  V30 3596 H 329.247 2.8211 1.56888 0
M  V30 3597 H 328.299 3.74492 -0.66781 0
M  V30 3598 H 329.611 4.9443 -0.658825 0
M  V30 3599 H 328.765 5.87759 1.50412 0
M  V30 3600 H 327.504 4.61459 1.57819 0
M  V30 3601 H 326.509 5.46916 -0.562389 0
M  V30 3602 H 327.734 6.76261 -0.6203 0
M  V30 3603 H 325.68 6.36485 1.58818 0
M  V30 3604 H 325.597 7.55284 0.32899 0
M  V30 3605 H 326.865 7.64646 1.51447 0
M  V30 3606 N 331.094 0.475555 1.50254 0
M  V30 3607 C 332.319 -0.0777042 2.07254 0
M  V30 3608 C 332.744 -1.3235 1.3366 0
M  V30 3609 O 332.102 -1.77152 0.385597 0
M  V30 3610 C 332.15 -0.340169 3.58992 0
M  V30 3611 O 331.254 -1.41982 3.87188 0
M  V30 3612 H 330.595 0.0149556 0.663832 0
M  V30 3613 H 333.125 0.667878 1.93392 0
M  V30 3614 H 333.135 -0.579332 4.03866 0
M  V30 3615 H 331.81 0.570167 4.11973 0
M  V30 3616 H 330.387 -1.16762 3.54148 0
M  V30 3617 N 332.573 -1.56217 0.208337 0
M  V30 3618 C 333.483 -2.23316 -0.718836 0
M  V30 3619 C 334.499 -1.23648 -1.22422 0
M  V30 3620 O 335.675 -1.56423 -1.26861 0
M  V30 3621 C 332.74 -2.88968 -1.91568 0
M  V30 3622 C 331.801 -4.03943 -1.45357 0
M  V30 3623 C 331.034 -4.66455 -2.59337 0
M  V30 3624 O 331.257 -4.27919 -3.77149 0
M  V30 3625 O 330.191 -5.55686 -2.31293 0
M  V30 3626 H 334.017 -3.03182 -0.177315 0
M  V30 3627 H 331.602 -1.49384 -0.0215402 0
M  V30 3628 H 333.484 -3.30455 -2.61491 0
M  V30 3629 H 332.159 -2.12071 -2.44556 0
M  V30 3630 H 331.066 -3.67052 -0.722746 0
M  V30 3631 H 332.399 -4.82543 -0.970219 0
M  V30 3632 N 334.051 0.0651679 -1.57465 0
M  V30 3633 C 334.981 1.07693 -2.07182 0
M  V30 3634 C 335.962 1.39962 -0.966673 0
M  V30 3635 O 337.147 1.49475 -1.2398 0
M  V30 3636 C 334.277 2.3885 -2.52127 0
M  V30 3637 C 333.231 2.20917 -3.66579 0
M  V30 3638 C 332.557 3.57515 -3.97601 0
M  V30 3639 C 333.857 1.62493 -4.9638 0
M  V30 3640 H 335.551 0.663199 -2.91962 0
M  V30 3641 H 333.097 0.317569 -1.40455 0
M  V30 3642 H 335.05 3.09928 -2.85522 0
M  V30 3643 H 333.774 2.82215 -1.64384 0
M  V30 3644 H 332.433 1.52279 -3.33477 0
M  V30 3645 H 332.081 3.98463 -3.06979 0
M  V30 3646 H 331.781 3.46353 -4.74672 0
M  V30 3647 H 333.305 4.30013 -4.33499 0
M  V30 3648 H 334.719 2.23445 -5.27963 0
M  V30 3649 H 333.116 1.62009 -5.77818 0
M  V30 3650 H 334.186 0.587041 -4.81333 0
M  V30 3651 N 335.529 1.53961 0.336706 0
M  V30 3652 C 336.439 1.85432 1.43708 0
M  V30 3653 C 337.455 0.745053 1.57242 0
M  V30 3654 O 338.631 1.03804 1.72588 0
M  V30 3655 C 335.696 2.06349 2.78605 0
M  V30 3656 C 334.757 3.30191 2.74358 0
M  V30 3657 C 333.99 3.50101 4.02822 0
M  V30 3658 O 334.213 2.7371 5.00439 0
M  V30 3659 O 333.147 4.43547 4.06878 0
M  V30 3660 H 336.973 2.78975 1.20028 0
M  V30 3661 H 334.558 1.39701 0.52952 0
M  V30 3662 H 336.44 2.21513 3.58483 0
M  V30 3663 H 335.115 1.15995 3.02203 0
M  V30 3664 H 334.022 3.20425 1.93078 0
M  V30 3665 H 335.355 4.2056 2.55715 0
M  V30 3666 N 337.007 -0.598083 1.45811 0
M  V30 3667 C 337.954 -1.7082 1.55207 0
M  V30 3668 C 338.924 -1.61278 0.39732 0
M  V30 3669 O 340.109 -1.80717 0.612038 0
M  V30 3670 C 337.249 -3.09144 1.53376 0
M  V30 3671 C 336.362 -3.29423 2.79472 0
M  V30 3672 C 335.497 -4.57907 2.69248 0
M  V30 3673 C 334.536 -4.71476 3.90354 0
M  V30 3674 N 333.673 -5.9127 3.78608 0
M  V30 3675 H 338.513 -1.62125 2.50039 0
M  V30 3676 H 336.05 -0.790389 1.24062 0
M  V30 3677 H 338.008 -3.89186 1.50301 0
M  V30 3678 H 336.638 -3.16773 0.620876 0
M  V30 3679 H 335.69 -2.43091 2.92594 0
M  V30 3680 H 337.002 -3.3532 3.69272 0
M  V30 3681 H 336.156 -5.46157 2.64192 0
M  V30 3682 H 334.895 -4.54423 1.77063 0
M  V30 3683 H 333.9 -3.81648 3.95759 0
M  V30 3684 H 335.125 -4.76751 4.83617 0
M  V30 3685 H 333.071 -5.88813 2.89199 0
M  V30 3686 H 332.988 -5.98369 4.6205 0
M  V30 3687 H 334.256 -6.81992 3.77501 0
M  V30 3688 N 338.485 -1.33259 -0.841409 0
M  V30 3689 C 339.395 -1.25332 -1.98316 0
M  V30 3690 C 340.411 -0.164364 -1.73222 0
M  V30 3691 O 341.587 -0.387486 -1.97637 0
M  V30 3692 C 338.652 -0.990078 -3.32262 0
M  V30 3693 C 337.713 -2.16879 -3.70489 0
M  V30 3694 C 336.946 -1.91801 -4.98044 0
M  V30 3695 O 337.169 -0.867075 -5.63771 0
M  V30 3696 O 336.103 -2.78267 -5.33714 0
M  V30 3697 H 339.929 -2.21344 -2.07944 0
M  V30 3698 H 337.514 -1.1328 -0.974058 0
M  V30 3699 H 339.396 -0.860321 -4.12524 0
M  V30 3700 H 338.071 -0.0602155 -3.23644 0
M  V30 3701 H 336.978 -2.35407 -2.90748 0
M  V30 3702 H 338.311 -3.0819 -3.8377 0
M  V30 3703 N 339.963 1.05934 -1.16686 0
M  V30 3704 C 341.374 1.60263 -0.957745 0
M  V30 3705 C 341.725 1.89789 0.49745 0
M  V30 3706 O 340.85 1.67401 1.37135 0
M  V30 3707 C 341.445 2.91172 -1.73218 0
M  V30 3708 C 340.004 3.42188 -1.56794 0
M  V30 3709 C 339.151 2.16028 -1.73859 0
M  V30 3710 H 342.102 0.888392 -1.31504 0
M  V30 3711 H 342.123 3.60744 -1.21014 0
M  V30 3712 H 341.635 2.6965 -2.79124 0
M  V30 3713 H 339.736 3.68762 -0.533437 0
M  V30 3714 H 339.849 4.17273 -2.35414 0
M  V30 3715 H 338.213 2.26426 -1.16633 0
M  V30 3716 H 338.996 1.96985 -2.81161 0
M  V30 3717 N 341.441 0.965919 1.2453 0
M  V30 3718 C 342.371 0.513476 2.27784 0
M  V30 3719 C 343.352 -0.445974 1.6415 0
M  V30 3720 O 344.537 -0.342485 1.91156 0
M  V30 3721 C 341.667 -0.198839 3.4673 0
M  V30 3722 C 340.621 0.676456 4.2262 0
M  V30 3723 C 339.947 -0.167248 5.34438 0
M  V30 3724 C 341.247 1.96017 4.84123 0
M  V30 3725 H 342.941 1.3765 2.65881 0
M  V30 3726 H 340.487 0.663321 1.27813 0
M  V30 3727 H 342.44 -0.526567 4.18097 0
M  V30 3728 H 341.164 -1.0962 3.07654 0
M  V30 3729 H 339.823 0.98743 3.53052 0
M  V30 3730 H 339.471 -1.0647 4.91603 0
M  V30 3731 H 339.171 0.415181 5.86131 0
M  V30 3732 H 340.695 -0.489688 6.08633 0
M  V30 3733 H 342.109 1.69814 5.47573 0
M  V30 3734 H 340.506 2.48918 5.4604 0
M  V30 3735 H 341.576 2.65622 4.05676 0
M  V30 3736 N 342.919 -1.39368 0.735821 0
M  V30 3737 C 344.335 -1.54204 0.411492 0
M  V30 3738 C 344.535 -1.70268 -1.07755 0
M  V30 3739 O 343.591 -1.70364 -1.86366 0
M  V30 3740 C 344.904 -2.75925 1.19523 0
M  V30 3741 C 346.452 -2.89761 1.18354 0
M  V30 3742 C 346.927 -4.14421 1.94986 0
M  V30 3743 N 348.418 -4.21462 1.92156 0
M  V30 3744 C 349.153 -5.16871 2.48258 0
M  V30 3745 N 348.649 -6.18063 3.13001 0
M  V30 3746 N 350.442 -5.09093 2.38287 0
M  V30 3747 H 342.593 -1.27189 1.70108 0
M  V30 3748 H 344.856 -0.616517 0.720147 0
M  V30 3749 H 344.562 -2.70401 2.24892 0
M  V30 3750 H 344.436 -3.68614 0.800222 0
M  V30 3751 H 346.823 -2.94777 0.137975 0
M  V30 3752 H 346.904 -1.98133 1.61793 0
M  V30 3753 H 346.548 -4.10166 2.99543 0
M  V30 3754 H 346.478 -5.05095 1.48953 0
M  V30 3755 H 348.969 -3.48979 1.44991 0
M  V30 3756 H 349.282 -6.87326 3.53275 0
M  V30 3757 H 347.627 -6.18448 3.17091 0
M  V30 3758 H 350.818 -4.28973 1.8735 0
M  V30 3759 H 350.991 -5.83272 2.82308 0
M  V30 3760 N 344.397 -0.483516 -1.5 0
M  V30 3761 C 345.643 0.0672592 -2.02688 0
M  V30 3762 C 345.976 1.38247 -1.36387 0
M  V30 3763 O 345.251 1.88131 -0.493675 0
M  V30 3764 C 345.534 0.238109 -3.59312 0
M  V30 3765 C 345.387 -1.099 -4.36168 0
M  V30 3766 C 346.706 0.986916 -4.28892 0
M  V30 3767 H 343.825 0.0229696 -0.736642 0
M  V30 3768 H 346.467 -0.631527 -1.79197 0
M  V30 3769 H 344.617 0.8333 -3.79458 0
M  V30 3770 H 346.289 -1.73172 -4.27562 0
M  V30 3771 H 344.532 -1.69261 -3.99416 0
M  V30 3772 H 345.203 -0.932954 -5.44059 0
M  V30 3773 H 347.679 0.482302 -4.13295 0
M  V30 3774 H 346.555 1.07527 -5.38265 0
M  V30 3775 H 346.816 2.0265 -3.92919 0
M  V30 3776 N 345.875 1.56104 -0.216619 0
M  V30 3777 C 347.124 1.97348 0.416744 0
M  V30 3778 C 347.437 1.10715 1.6125 0
M  V30 3779 O 348.643 1.41836 2.31506 0
M  V30 3780 C 347.099 3.51059 0.792835 0
M  V30 3781 C 346.707 4.46387 -0.379828 0
M  V30 3782 C 348.451 4.01026 1.39208 0
M  V30 3783 C 346.358 5.91397 0.0184223 0
M  V30 3784 H 345.288 0.736942 0.159475 0
M  V30 3785 H 347.939 1.80827 -0.31205 0
M  V30 3786 H 346.321 3.63162 1.57891 0
M  V30 3787 H 347.495 4.46029 -1.15737 0
M  V30 3788 H 345.81 4.06734 -0.891979 0
M  V30 3789 H 348.407 5.0686 1.70286 0
M  V30 3790 H 348.75 3.46587 2.30614 0
M  V30 3791 H 349.283 3.92125 0.669537 0
M  V30 3792 H 346.022 6.49807 -0.862002 0
M  V30 3793 H 345.542 5.94961 0.760384 0
M  V30 3794 H 347.221 6.45455 0.446818 0
M  V30 3795 N 347.353 -0.0568162 1.57498 0
M  V30 3796 C 348.764 -0.606858 1.76562 0
M  V30 3797 C 349.115 -1.77114 0.844094 0
M  V30 3798 O 348.24 -2.16376 0.0318911 0
M  V30 3799 C 348.835 -1.10766 3.20182 0
M  V30 3800 C 347.394 -1.60344 3.40539 0
M  V30 3801 C 346.541 -0.529311 2.72201 0
M  V30 3802 H 349.492 0.169393 1.57793 0
M  V30 3803 H 349.513 -1.97602 3.25167 0
M  V30 3804 H 349.025 -0.26006 3.87228 0
M  V30 3805 H 347.126 -2.47379 2.78629 0
M  V30 3806 H 347.239 -1.67006 4.4905 0
M  V30 3807 H 345.603 -0.977893 2.35179 0
M  V30 3808 H 346.386 0.308352 3.41912 0
M  V30 3809 N 348.832 -1.54138 -0.328536 0
M  V30 3810 C 349.762 -1.86167 -1.40939 0
M  V30 3811 C 350.743 -0.718044 -1.54202 0
M  V30 3812 O 351.928 -0.971328 -1.68163 0
M  V30 3813 C 349.058 -2.08461 -2.77779 0
M  V30 3814 C 348.012 -3.24299 -2.7931 0
M  V30 3815 C 347.338 -3.31955 -4.19178 0
M  V30 3816 C 348.638 -4.62065 -2.43502 0
M  V30 3817 H 350.332 -2.76689 -1.14383 0
M  V30 3818 H 347.878 -1.33132 -0.548806 0
M  V30 3819 H 349.831 -2.29453 -3.53454 0
M  V30 3820 H 348.555 -1.14684 -3.05802 0
M  V30 3821 H 347.214 -3.03187 -2.0609 0
M  V30 3822 H 346.862 -2.35745 -4.44335 0
M  V30 3823 H 346.562 -4.09805 -4.2111 0
M  V30 3824 H 348.086 -3.55175 -4.96672 0
M  V30 3825 H 349.5 -4.8297 -3.08889 0
M  V30 3826 H 347.897 -5.42429 -2.56693 0
M  V30 3827 H 348.967 -4.64652 -1.38659 0
M  V30 3828 N 350.31 0.590341 -1.46126 0
M  V30 3829 C 351.257 1.69994 -1.56111 0
M  V30 3830 C 352.227 1.61065 -0.405867 0
M  V30 3831 O 353.412 1.8039 -0.621613 0
M  V30 3832 C 350.552 3.08326 -1.55013 0
M  V30 3833 C 349.665 3.27936 -2.81215 0
M  V30 3834 C 348.8 4.56473 -2.71673 0
M  V30 3835 C 347.839 4.694 -3.92849 0
M  V30 3836 N 346.976 5.89254 -3.81738 0
M  V30 3837 H 351.816 1.60797 -2.50895 0
M  V30 3838 H 349.353 0.783799 -1.24479 0
M  V30 3839 H 351.311 3.88383 -1.52362 0
M  V30 3840 H 349.941 3.16439 -0.637667 0
M  V30 3841 H 348.993 2.41536 -2.93879 0
M  V30 3842 H 350.305 3.33357 -3.71045 0
M  V30 3843 H 349.459 5.44748 -2.67085 0
M  V30 3844 H 348.198 4.53477 -1.7947 0
M  V30 3845 H 347.203 3.79544 -3.97777 0
M  V30 3846 H 348.428 4.7418 -4.86138 0
M  V30 3847 H 346.374 5.87271 -2.92317 0
M  V30 3848 H 346.291 5.95911 -4.65217 0
M  V30 3849 H 347.559 6.79981 -3.81112 0
M  V30 3850 N 351.788 1.33704 0.83433 0
M  V30 3851 C 352.698 1.26382 1.97648 0
M  V30 3852 C 353.714 0.173548 1.73132 0
M  V30 3853 O 354.89 0.397962 1.97429 0
M  V30 3854 C 351.955 1.00769 3.31733 0
M  V30 3855 C 351.016 2.1884 3.69334 0
M  V30 3856 C 350.249 1.9444 4.9702 0
M  V30 3857 O 350.472 0.896961 5.63303 0
M  V30 3858 O 349.406 2.81093 5.32231 0
M  V30 3859 H 353.232 2.22444 2.06767 0
M  V30 3860 H 350.817 1.13795 0.968037 0
M  V30 3861 H 352.699 0.882186 4.12062 0
M  V30 3862 H 351.374 0.0773783 3.23608 0
M  V30 3863 H 350.281 2.36946 2.89495 0
M  V30 3864 H 351.614 3.10221 3.82131 0
M  V30 3865 N 353.266 -1.05314 1.17247 0
M  V30 3866 C 354.512 -1.78557 0.961513 0
M  V30 3867 C 354.845 -1.87419 -0.508697 0
M  V30 3868 O 354.12 -1.37307 -1.37757 0
M  V30 3869 C 354.403 -3.22514 1.60176 0
M  V30 3870 C 354.256 -3.21673 3.14399 0
M  V30 3871 C 355.575 -4.20318 1.30463 0
M  V30 3872 H 352.694 -0.6482 0.350723 0
M  V30 3873 H 355.336 -1.23102 1.44727 0
M  V30 3874 H 353.486 -3.69867 1.18871 0
M  V30 3875 H 355.158 -2.82405 3.64753 0
M  V30 3876 H 353.401 -2.60048 3.47214 0
M  V30 3877 H 354.072 -4.23271 3.54324 0
M  V30 3878 H 356.548 -3.81454 1.66229 0
M  V30 3879 H 355.424 -5.19289 1.77848 0
M  V30 3880 H 355.685 -4.41526 0.22521 0
M  V30 3881 N 354.744 -0.972509 -1.24016 0
M  V30 3882 C 355.694 -0.477561 -2.22942 0
M  V30 3883 C 356.678 0.44308 -1.54679 0
M  V30 3884 O 357.87 0.273219 -1.74879 0
M  V30 3885 C 354.999 0.226348 -3.42553 0
M  V30 3886 C 354.085 -0.713403 -4.18057 0
M  V30 3887 N 354.476 -1.8527 -4.70647 0
M  V30 3888 C 352.774 -0.525145 -4.42898 0
M  V30 3889 C 353.475 -2.44089 -5.28011 0
M  V30 3890 N 352.451 -1.72556 -5.15486 0
M  V30 3891 H 356.253 -1.34678 -2.61226 0
M  V30 3892 H 353.767 -0.832196 -1.39457 0
M  V30 3893 H 355.764 0.598184 -4.12586 0
M  V30 3894 H 354.424 1.09195 -3.05788 0
M  V30 3895 H 355.435 -2.2341 -4.67235 0
M  V30 3896 H 352.112 0.296096 -4.16449 0
M  V30 3897 H 353.502 -3.40259 -5.79374 0
M  V30 3898 N 356.222 1.38976 -0.743202 0
M  V30 3899 C 357.169 2.30544 -0.10861 0
M  V30 3900 C 358.139 1.49642 0.720869 0
M  V30 3901 O 359.324 1.78304 0.679142 0
M  V30 3902 C 356.464 3.36018 0.786496 0
M  V30 3903 C 355.577 4.31963 -0.0564849 0
M  V30 3904 C 354.712 5.24506 0.840657 0
M  V30 3905 C 353.751 6.121 -0.00658363 0
M  V30 3906 N 352.888 6.96973 0.846943 0
M  V30 3907 H 357.728 2.8424 -0.895088 0
M  V30 3908 H 355.265 1.3995 -0.453048 0
M  V30 3909 H 357.223 3.95768 1.31999 0
M  V30 3910 H 355.853 2.83758 1.53887 0
M  V30 3911 H 354.905 3.73763 -0.707492 0
M  V30 3912 H 356.217 4.93703 -0.711229 0
M  V30 3913 H 355.371 5.89322 1.4417 0
M  V30 3914 H 354.11 4.63107 1.52916 0
M  V30 3915 H 353.115 5.46289 -0.620366 0
M  V30 3916 H 354.34 6.75565 -0.691992 0
M  V30 3917 H 352.286 6.38133 1.52059 0
M  V30 3918 H 352.203 7.5559 0.248864 0
M  V30 3919 H 353.471 7.6621 1.43328 0
M  V30 3920 N 357.7 0.491464 1.49741 0
M  V30 3921 C 358.946 -0.0565092 2.02721 0
M  V30 3922 C 359.279 -1.37522 1.37118 0
M  V30 3923 O 358.554 -1.87866 0.503645 0
M  V30 3924 C 358.837 -0.219051 3.59433 0
M  V30 3925 C 358.69 1.12211 4.35579 0
M  V30 3926 C 360.009 -0.964157 4.29409 0
M  V30 3927 H 357.128 -0.0190627 0.736753 0
M  V30 3928 H 359.77 0.641021 1.7886 0
M  V30 3929 H 357.92 -0.813165 3.79895 0
M  V30 3930 H 359.592 1.75437 4.26637 0
M  V30 3931 H 357.835 1.71377 3.98513 0
M  V30 3932 H 358.506 0.961794 5.43556 0
M  V30 3933 H 360.982 -0.460378 4.13545 0
M  V30 3934 H 359.858 -1.04671 5.38828 0
M  V30 3935 H 360.119 -2.00563 3.93988 0
M  V30 3936 N 359.178 -1.55987 0.224894 0
M  V30 3937 C 360.11 -2.17722 -0.716224 0
M  V30 3938 C 361.123 -1.14723 -1.15509 0
M  V30 3939 O 362.312 -1.41688 -1.08567 0
M  V30 3940 C 359.412 -2.74873 -1.98238 0
M  V30 3941 C 358.585 -4.03074 -1.69853 0
M  V30 3942 C 357.644 -4.44757 -2.81208 0
M  V30 3943 O 356.67 -5.11587 -2.49534 0
M  V30 3944 N 357.872 -4.10716 -4.10235 0
M  V30 3945 H 360.637 -2.99109 -0.188123 0
M  V30 3946 H 358.198 -1.6184 0.0440123 0
M  V30 3947 H 360.19 -2.99727 -2.7193 0
M  V30 3948 H 358.76 -1.9777 -2.42086 0
M  V30 3949 H 357.98 -3.86041 -0.797875 0
M  V30 3950 H 359.268 -4.86701 -1.48324 0
M  V30 3951 H 358.666 -3.57019 -4.38809 0
M  V30 3952 H 357.223 -4.40455 -4.80461 0
M  V30 3953 N 360.656 0.0484629 -1.57525 0
M  V30 3954 C 361.566 1.07241 -2.08654 0
M  V30 3955 C 362.582 1.409 -1.02095 0
M  V30 3956 O 363.758 1.50609 -1.33712 0
M  V30 3957 C 360.823 2.36008 -2.5397 0
M  V30 3958 C 359.884 2.09108 -3.7493 0
M  V30 3959 C 359.117 3.31736 -4.18075 0
M  V30 3960 O 359.34 4.41714 -3.60895 0
M  V30 3961 O 358.274 3.18576 -5.10679 0
M  V30 3962 H 362.1 0.667965 -2.96263 0
M  V30 3963 H 359.685 0.26417 -1.47046 0
M  V30 3964 H 361.567 3.11747 -2.83535 0
M  V30 3965 H 360.242 2.75786 -1.69481 0
M  V30 3966 H 359.149 1.31 -3.50414 0
M  V30 3967 H 360.482 1.74198 -4.60343 0
M  V30 3968 N 362.134 1.5431 0.320358 0
M  V30 3969 C 363.374 1.74395 1.0661 0
M  V30 3970 C 363.738 0.508602 1.85141 0
M  V30 3971 O 364.939 0.586856 2.62316 0
M  V30 3972 C 363.21 2.98619 1.96371 0
M  V30 3973 S 364.769 3.39621 2.77854 0
M  V30 3974 H 361.587 0.613204 0.359863 0
M  V30 3975 H 364.189 1.9249 0.341727 0
M  V30 3976 H 362.893 3.86673 1.3752 0
M  V30 3977 H 362.424 2.83055 2.73209 0
M  V30 3978 H 364.439 2.95172 3.98858 0
M  V30 3979 N 363.613 -0.582584 1.46437 0
M  V30 3980 C 364.56 -1.69164 1.5701 0
M  V30 3981 C 365.53 -1.60847 0.414403 0
M  V30 3982 O 366.715 -1.80058 0.631171 0
M  V30 3983 C 363.855 -3.075 1.56646 0
M  V30 3984 C 362.968 -3.2644 2.82951 0
M  V30 3985 C 362.103 -4.55026 2.7409 0
M  V30 3986 C 361.142 -4.6731 3.95333 0
M  V30 3987 N 360.279 -5.87221 3.84858 0
M  V30 3988 H 365.119 -1.59464 2.51744 0
M  V30 3989 H 362.656 -0.777186 1.24893 0
M  V30 3990 H 364.614 -3.8757 1.5442 0
M  V30 3991 H 363.244 -3.16096 0.654439 0
M  V30 3992 H 362.296 -2.39974 2.95155 0
M  V30 3993 H 363.608 -3.31385 3.72808 0
M  V30 3994 H 362.762 -5.43324 2.6997 0
M  V30 3995 H 361.501 -4.52519 1.81873 0
M  V30 3996 H 360.506 -3.77429 3.99784 0
M  V30 3997 H 361.731 -4.71595 4.88646 0
M  V30 3998 H 359.677 -5.85712 2.95427 0
M  V30 3999 H 359.594 -5.93435 4.6837 0
M  V30 4000 H 360.862 -6.7795 3.84713 0
M  V30 4001 N 365.091 -1.34144 -0.827227 0
M  V30 4002 C 366.023 -1.21206 -1.9453 0
M  V30 4003 C 367.036 -0.140176 -1.62195 0
M  V30 4004 O 368.225 -0.391647 -1.7415 0
M  V30 4005 C 365.325 -0.839141 -3.28347 0
M  V30 4006 C 364.498 -2.0051 -3.88734 0
M  V30 4007 C 363.557 -1.61128 -5.00923 0
M  V30 4008 O 362.583 -2.32726 -5.19449 0
M  V30 4009 N 363.785 -0.522958 -5.7814 0
M  V30 4010 H 366.55 -2.17525 -2.06162 0
M  V30 4011 H 364.111 -1.27043 -1.00358 0
M  V30 4012 H 366.103 -0.557556 -4.00841 0
M  V30 4013 H 364.673 0.0337293 -3.12582 0
M  V30 4014 H 363.893 -2.45166 -3.08686 0
M  V30 4015 H 365.181 -2.78498 -4.25812 0
M  V30 4016 H 364.579 0.0723518 -5.65654 0
M  V30 4017 H 363.136 -0.301089 -6.51104 0
M  V30 4018 N 366.569 1.04691 -1.17803 0
M  V30 4019 C 367.794 1.81984 -0.994813 0
M  V30 4020 C 368.219 1.82586 0.452112 0
M  V30 4021 O 367.577 1.23854 1.324 0
M  V30 4022 C 367.625 3.2575 -1.54659 0
M  V30 4023 O 366.729 4.05267 -0.763728 0
M  V30 4024 H 366.07 0.562483 -0.352857 0
M  V30 4025 H 368.6 1.3189 -1.56417 0
M  V30 4026 H 368.61 3.76541 -1.57102 0
M  V30 4027 H 367.285 3.24627 -2.59981 0
M  V30 4028 H 365.862 3.63972 -0.811108 0
M  V30 4029 N 368.047 0.979072 1.23499 0
M  V30 4030 C 369.324 0.563674 1.87302 0
M  V30 4031 C 369.704 -0.959199 1.88049 0
M  V30 4032 O 369.052 -1.83535 1.36114 0
M  V30 4033 C 369.262 1.16822 3.28867 0
M  V30 4034 C 370.61 1.26014 4.0547 0
M  V30 4035 O 371.634 1.12158 3.38082 0
M  V30 4036 O 370.493 1.48044 5.26066 0
M  V30 4037 H 367.587 0.189602 0.804972 0
M  V30 4038 H 370.133 1.07407 1.31384 0
M  V30 4039 H 368.905 2.21049 3.22883 0
M  V30 4040 H 368.528 0.642564 3.92373 0
M  V30 4041 N 369.525 -1.3858 0.750561 0
M  V30 4042 C 370.774 -1.99424 0.302172 0
M  V30 4043 C 371.087 -1.60254 -1.12152 0
M  V30 4044 O 372.293 -2.14046 -1.67023 0
M  V30 4045 C 370.749 -3.56558 0.489307 0
M  V30 4046 C 370.357 -4.04682 1.92189 0
M  V30 4047 C 372.101 -4.24374 0.103478 0
M  V30 4048 C 370.008 -5.54446 2.05775 0
M  V30 4049 H 368.938 -0.746046 0.10923 0
M  V30 4050 H 371.589 -1.58383 0.92667 0
M  V30 4051 H 369.971 -3.95472 -0.204329 0
M  V30 4052 H 371.145 -3.77065 2.64875 0
M  V30 4053 H 369.46 -3.4958 2.26236 0
M  V30 4054 H 372.057 -5.34384 0.183787 0
M  V30 4055 H 372.4 -4.05468 -0.943481 0
M  V30 4056 H 372.933 -3.90688 0.748854 0
M  V30 4057 H 369.672 -5.78252 3.08714 0
M  V30 4058 H 369.192 -5.83816 1.37546 0
M  V30 4059 H 370.871 -6.20099 1.84626 0
M  V30 4060 N 371.003 -0.499398 -1.49478 0
M  V30 4061 C 371.936 0.326491 -2.25852 0
M  V30 4062 C 372.914 0.971776 -1.30366 0
M  V30 4063 O 374.098 1.00219 -1.59651 0
M  V30 4064 C 371.225 1.45969 -3.05632 0
M  V30 4065 C 370.271 0.928938 -4.16261 0
M  V30 4066 S 371.104 -0.179012 -5.35201 0
M  V30 4067 C 372.26 0.957389 -6.18534 0
M  V30 4068 H 372.493 -0.321746 -2.95554 0
M  V30 4069 H 370.026 -0.284674 -1.51753 0
M  V30 4070 H 371.984 2.109 -3.52181 0
M  V30 4071 H 370.645 2.07953 -2.35402 0
M  V30 4072 H 369.838 1.77813 -4.71592 0
M  V30 4073 H 369.44 0.356869 -3.72293 0
M  V30 4074 H 371.732 1.86296 -6.51383 0
M  V30 4075 H 372.675 0.442733 -7.06715 0
M  V30 4076 H 373.083 1.224 -5.5107 0
M  V30 4077 N 372.481 1.55866 -0.233164 0
M  V30 4078 C 373.414 2.16794 0.712442 0
M  V30 4079 C 374.392 1.1158 1.18273 0
M  V30 4080 O 375.576 1.39897 1.26337 0
M  V30 4081 C 372.703 2.75757 1.96661 0
M  V30 4082 C 371.749 3.93902 1.63533 0
M  V30 4083 S 372.582 5.30223 0.74995 0
M  V30 4084 C 373.738 5.92631 2.01343 0
M  V30 4085 H 373.971 2.96662 0.194617 0
M  V30 4086 H 371.504 1.5439 -0.0177425 0
M  V30 4087 H 373.462 3.10367 2.68668 0
M  V30 4088 H 372.123 1.9586 2.45556 0
M  V30 4089 H 371.316 4.33702 2.56747 0
M  V30 4090 H 370.918 3.60499 0.995804 0
M  V30 4091 H 373.21 6.09312 2.96219 0
M  V30 4092 H 374.153 6.88388 1.65915 0
M  V30 4093 H 374.561 5.21571 2.15925 0
M  V30 4094 N 373.959 -0.0401083 1.57549 0
M  V30 4095 C 375.375 -0.395556 1.54621 0
M  V30 4096 C 375.575 -1.77281 0.957799 0
M  V30 4097 O 374.631 -2.45888 0.574031 0
M  V30 4098 C 375.944 -0.307535 2.99123 0
M  V30 4099 C 377.492 -0.385425 3.10618 0
M  V30 4100 C 377.967 -0.326973 4.56831 0
M  V30 4101 N 379.458 -0.386102 4.61588 0
M  V30 4102 C 380.193 -0.363591 5.72246 0
M  V30 4103 N 379.689 -0.29402 6.92176 0
M  V30 4104 N 381.482 -0.412503 5.60584 0
M  V30 4105 H 373.633 0.861325 1.94152 0
M  V30 4106 H 375.896 0.326445 0.890021 0
M  V30 4107 H 375.602 0.638461 3.45856 0
M  V30 4108 H 375.476 -1.10552 3.60636 0
M  V30 4109 H 377.863 -1.32185 2.63839 0
M  V30 4110 H 377.944 0.44171 2.51957 0
M  V30 4111 H 377.588 0.605738 5.04275 0
M  V30 4112 H 377.518 -1.17207 5.13391 0
M  V30 4113 H 380.009 -0.442832 3.75296 0
M  V30 4114 H 380.322 -0.28164 7.72287 0
M  V30 4115 H 378.667 -0.260232 6.94513 0
M  V30 4116 H 381.858 -0.464769 4.65787 0
M  V30 4117 H 382.031 -0.391492 6.46816 0
M  V30 4118 N 375.437 -1.54477 -0.31217 0
M  V30 4119 C 376.714 -1.63891 -1.06767 0
M  V30 4120 C 377.094 -0.480028 -2.0557 0
M  V30 4121 O 376.442 0.524487 -2.22399 0
M  V30 4122 C 376.652 -3.01402 -1.75948 0
M  V30 4123 C 378 -3.57838 -2.28554 0
M  V30 4124 O 379.024 -3.03782 -1.85998 0
M  V30 4125 O 377.883 -4.52462 -3.06497 0
M  V30 4126 H 374.977 -0.664125 -0.492816 0
M  V30 4127 H 377.523 -1.66823 -0.311149 0
M  V30 4128 H 376.295 -3.77187 -1.04144 0
M  V30 4129 H 375.918 -3.02199 -2.58383 0
M  V30 4130 N 376.915 0.57481 -1.46744 0
M  V30 4131 C 377.863 1.70435 -1.58286 0
M  V30 4132 C 378.857 1.63287 -0.450956 0
M  V30 4133 O 380.063 1.68685 -0.628121 0
M  V30 4134 H 376.438 0.56364 -0.497809 0
M  V30 4135 H 378.409 1.57833 -2.53242 0
M  V30 4136 C 377.158 3.08815 -1.59776 0
M  V30 4137 H 376.481 3.1499 -2.46214 0
M  V30 4138 H 377.921 3.87588 -1.71905 0
M  V30 4139 C 376.38 3.35301 -0.327812 0
M  V30 4140 O 376.91 3.97511 0.57861 0
M  V30 4141 N 375.116 2.89816 -0.213274 0
M  V30 4142 H 374.663 2.39371 -0.951798 0
M  V30 4143 H 374.621 3.0791 0.63553 0
M  V30 4144 N 378.394 1.34581 0.820102 0
M  V30 4145 C 379.324 1.29038 1.94606 0
M  V30 4146 C 380.305 0.1673 1.69275 0
M  V30 4147 O 381.49 0.360112 1.90832 0
M  V30 4148 C 378.62 1.04793 3.31113 0
M  V30 4149 C 377.574 2.13597 3.70891 0
M  V30 4150 C 376.9 1.74537 5.05412 0
M  V30 4151 C 378.2 3.55451 3.8269 0
M  V30 4152 H 379.894 2.23248 1.99501 0
M  V30 4153 H 377.44 1.0747 0.958449 0
M  V30 4154 H 379.393 0.995592 4.0947 0
M  V30 4155 H 378.117 0.0702565 3.26524 0
M  V30 4156 H 376.776 2.17905 2.9481 0
M  V30 4157 H 376.424 0.754226 4.97313 0
M  V30 4158 H 376.124 2.47361 5.32997 0
M  V30 4159 H 377.648 1.70803 5.86224 0
M  V30 4160 H 379.062 3.5354 4.51312 0
M  V30 4161 H 377.459 4.26922 4.21732 0
M  V30 4162 H 378.529 3.92587 2.84611 0
M  V30 4163 N 379.872 -1.04064 1.18357 0
M  V30 4164 C 381.119 -1.77265 0.978947 0
M  V30 4165 C 381.447 -1.88189 -0.491428 0
M  V30 4166 O 380.702 -1.38653 -1.38108 0
M  V30 4167 C 381.001 -3.20634 1.57888 0
M  V30 4168 C 380.667 -3.29743 3.07539 0
M  V30 4169 C 379.329 -3.31937 3.48384 0
M  V30 4170 C 381.681 -3.29841 4.03552 0
M  V30 4171 C 379.009 -3.3187 4.83818 0
M  V30 4172 C 381.361 -3.31313 5.38901 0
M  V30 4173 C 380.025 -3.31799 5.79194 0
M  V30 4174 H 379.295 -0.648659 0.358222 0
M  V30 4175 H 381.942 -1.22225 1.47422 0
M  V30 4176 H 380.247 -3.78675 1.00561 0
M  V30 4177 H 381.944 -3.75917 1.39598 0
M  V30 4178 H 378.534 -3.28757 2.74986 0
M  V30 4179 H 382.718 -3.27337 3.73047 0
M  V30 4180 H 377.974 -3.30562 5.14333 0
M  V30 4181 H 382.148 -3.30338 6.13066 0
M  V30 4182 H 379.775 -3.315 6.84114 0
M  V30 4183 N 381.35 -0.985608 -1.22978 0
M  V30 4184 C 382.26 -0.538548 -2.28335 0
M  V30 4185 C 383.276 0.409163 -1.69121 0
M  V30 4186 O 384.452 0.277797 -1.99475 0
M  V30 4187 C 381.517 0.146867 -3.46389 0
M  V30 4188 C 380.578 -0.842896 -4.20944 0
M  V30 4189 C 379.811 -0.190095 -5.33361 0
M  V30 4190 O 380.034 1.01767 -5.61248 0
M  V30 4191 O 378.968 -0.891289 -5.95264 0
M  V30 4192 H 382.794 -1.41487 -2.68729 0
M  V30 4193 H 380.379 -0.753495 -1.29007 0
M  V30 4194 H 382.261 0.531125 -4.1804 0
M  V30 4195 H 380.936 0.997871 -3.07935 0
M  V30 4196 H 379.843 -1.27795 -3.51595 0
M  V30 4197 H 381.176 -1.66287 -4.6326 0
M  V30 4198 N 382.828 1.3818 -0.7579 0
M  V30 4199 C 384.077 1.99261 -0.312744 0
M  V30 4200 C 384.39 1.60846 1.11301 0
M  V30 4201 O 385.596 2.14929 1.65885 0
M  V30 4202 C 384.052 3.56294 -0.50821 0
M  V30 4203 C 383.66 4.03657 -1.94333 0
M  V30 4204 C 385.404 4.24313 -0.125982 0
M  V30 4205 C 383.311 5.53347 -2.08712 0
M  V30 4206 H 382.241 0.745456 -0.113185 0
M  V30 4207 H 384.892 1.57889 -0.935056 0
M  V30 4208 H 383.274 3.95575 0.183353 0
M  V30 4209 H 384.448 3.75655 -2.66871 0
M  V30 4210 H 382.763 3.48376 -2.28086 0
M  V30 4211 H 385.36 5.34279 -0.212125 0
M  V30 4212 H 385.703 4.05962 0.921964 0
M  V30 4213 H 386.236 3.90285 -0.769563 0
M  V30 4214 H 382.975 5.76607 -3.11777 0
M  V30 4215 H 382.495 5.83078 -1.4064 0
M  V30 4216 H 384.174 6.19111 -1.87912 0
M  V30 4217 N 384.306 0.507319 1.49211 0
M  V30 4218 C 385.552 -0.0350047 2.0277 0
M  V30 4219 C 385.885 -1.3606 1.38569 0
M  V30 4220 O 385.16 -1.87321 0.523542 0
M  V30 4221 C 385.443 -0.180916 3.59645 0
M  V30 4222 C 385.296 1.16825 4.34364 0
M  V30 4223 C 386.615 -0.918558 4.30407 0
M  V30 4224 H 383.734 -0.0112473 0.736914 0
M  V30 4225 H 386.376 0.659956 1.7817 0
M  V30 4226 H 384.526 -0.772826 3.80736 0
M  V30 4227 H 386.198 1.79952 4.24753 0
M  V30 4228 H 384.441 1.75594 3.96673 0
M  V30 4229 H 385.112 1.01939 5.42506 0
M  V30 4230 H 387.588 -0.41649 4.1401 0
M  V30 4231 H 386.464 -0.989505 5.39907 0
M  V30 4232 H 386.725 -1.96373 3.96093 0
M  V30 4233 N 385.784 -1.5574 0.241426 0
M  V30 4234 C 387.012 -2.03208 -0.389134 0
M  V30 4235 C 387.427 -1.12082 -1.51931 0
M  V30 4236 O 386.784 -0.134183 -1.82006 0
M  V30 4237 C 386.835 -3.50064 -0.902087 0
M  V30 4238 O 386.556 -4.37717 0.18305 0
M  V30 4239 C 388.057 -4.13268 -1.60389 0
M  V30 4240 H 385.277 -0.664509 -0.0931053 0
M  V30 4241 H 387.821 -2.0124 0.36369 0
M  V30 4242 H 385.976 -3.52583 -1.60511 0
M  V30 4243 H 386.39 -5.24097 -0.205579 0
M  V30 4244 H 387.864 -5.17733 -1.91458 0
M  V30 4245 H 388.341 -3.59434 -2.52397 0
M  V30 4246 H 388.947 -4.14655 -0.945576 0
M  V30 4247 N 387.262 0.0317525 -1.57568 0
M  V30 4248 C 388.49 0.734949 -1.93407 0
M  V30 4249 C 388.905 1.69036 -0.84096 0
M  V30 4250 O 388.262 1.81582 0.182836 0
M  V30 4251 C 388.313 1.49432 -3.29169 0
M  V30 4252 O 388.034 0.577261 -4.3428 0
M  V30 4253 C 389.535 2.29492 -3.79273 0
M  V30 4254 H 386.755 0.206706 -0.638368 0
M  V30 4255 H 389.299 -0.00992046 -2.04498 0
M  V30 4256 H 387.454 2.1911 -3.19483 0
M  V30 4257 H 387.868 1.10952 -5.1263 0
M  V30 4258 H 389.342 2.78172 -4.76785 0
M  V30 4259 H 389.819 3.10794 -3.10328 0
M  V30 4260 H 390.425 1.64894 -3.92033 0
M  V30 4261 N 388.74 1.54641 0.303973 0
M  V30 4262 C 389.965 1.78092 1.06292 0
M  V30 4263 C 390.39 0.537342 1.80262 0
M  V30 4264 O 389.748 -0.511993 1.7392 0
M  V30 4265 C 389.796 2.98612 2.02147 0
M  V30 4266 O 388.9 2.71528 3.10397 0
M  V30 4267 H 388.241 0.589548 0.305497 0
M  V30 4268 H 390.771 2.01716 0.3423 0
M  V30 4269 H 390.781 3.265 2.44667 0
M  V30 4270 H 389.456 3.88785 1.47714 0
M  V30 4271 H 388.033 2.54648 2.72413 0
M  V30 4272 N 390.218 -0.567019 1.47046 0
M  V30 4273 C 391.634 -0.891975 1.32348 0
M  V30 4274 C 391.834 -1.99154 0.306616 0
M  V30 4275 O 390.89 -2.50883 -0.28532 0
M  V30 4276 C 392.203 -1.29449 2.7141 0
M  V30 4277 C 393.751 -1.40646 2.79621 0
M  V30 4278 C 394.226 -1.84257 4.19301 0
M  V30 4279 N 395.717 -1.91424 4.21795 0
M  V30 4280 C 396.452 -2.26476 5.26779 0
M  V30 4281 N 395.948 -2.60211 6.42077 0
M  V30 4282 N 397.741 -2.27166 5.14152 0
M  V30 4283 H 389.892 0.159074 2.11803 0
M  V30 4284 H 392.155 0.00849752 0.947962 0
M  V30 4285 H 391.861 -0.560448 3.47206 0
M  V30 4286 H 391.735 -2.25273 3.02542 0
M  V30 4287 H 394.122 -2.13133 2.04104 0
M  V30 4288 H 394.203 -0.430339 2.52154 0
M  V30 4289 H 393.847 -1.12343 4.95319 0
M  V30 4290 H 393.777 -2.82855 4.44185 0
M  V30 4291 H 396.268 -1.6778 3.38612 0
M  V30 4292 H 396.581 -2.85956 7.17948 0
M  V30 4293 H 394.926 -2.57813 6.45413 0
M  V30 4294 H 398.117 -2.00244 4.23107 0
M  V30 4295 H 398.29 -2.54154 5.96079 0
M  V30 4296 N 391.696 -1.35014 -0.812953 0
M  V30 4297 C 392.924 -1.31031 -1.6012 0
M  V30 4298 C 393.339 0.113558 -1.88458 0
M  V30 4299 O 392.696 1.06363 -1.48301 0
M  V30 4300 C 392.747 -2.10872 -2.93624 0
M  V30 4301 O 392.468 -3.47706 -2.66518 0
M  V30 4302 C 393.969 -2.14401 -3.88004 0
M  V30 4303 H 391.189 -0.45037 -0.497401 0
M  V30 4304 H 393.733 -1.77775 -1.01076 0
M  V30 4305 H 391.888 -1.67744 -3.492 0
M  V30 4306 H 392.302 -3.89097 -3.51715 0
M  V30 4307 H 393.776 -2.74669 -4.78812 0
M  V30 4308 H 394.253 -1.14105 -4.24119 0
M  V30 4309 H 394.859 -2.57662 -3.38364 0
M  V30 4310 N 393.175 1.03435 -1.18907 0
M  V30 4311 C 394.422 1.76743 -0.988334 0
M  V30 4312 C 394.75 1.88447 0.481441 0
M  V30 4313 O 394.005 1.39383 1.37371 0
M  V30 4314 C 394.304 3.19792 -1.59586 0
M  V30 4315 C 393.97 3.28108 -3.09283 0
M  V30 4316 C 392.632 3.30084 -3.5014 0
M  V30 4317 C 394.984 3.27696 -4.05296 0
M  V30 4318 C 392.312 3.29299 -4.85571 0
M  V30 4319 C 394.664 3.28451 -5.4065 0
M  V30 4320 C 393.328 3.28723 -5.80946 0
M  V30 4321 H 392.598 0.64675 -0.361657 0
M  V30 4322 H 395.245 1.21442 -1.48068 0
M  V30 4323 H 393.55 3.78136 -1.02568 0
M  V30 4324 H 395.247 3.75171 -1.41589 0
M  V30 4325 H 391.837 3.27294 -2.76725 0
M  V30 4326 H 396.021 3.25354 -3.74778 0
M  V30 4327 H 391.277 3.2783 -5.16079 0
M  V30 4328 H 395.451 3.27082 -6.14809 0
M  V30 4329 H 393.078 3.27868 -6.85862 0
M  V30 4330 N 394.653 0.992116 1.22453 0
M  V30 4331 C 395.883 0.684949 1.94915 0
M  V30 4332 C 396.291 -0.754292 1.73514 0
M  V30 4333 O 395.634 -1.52056 1.03076 0
M  V30 4334 C 395.696 0.910054 3.47791 0
M  V30 4335 C 395.36 2.33363 3.92926 0
M  V30 4336 C 396.357 3.31308 4.00663 0
M  V30 4337 C 394.042 2.66785 4.25595 0
M  V30 4338 C 396.036 4.6075 4.40441 0
M  V30 4339 C 393.723 3.96446 4.65053 0
M  V30 4340 C 394.721 4.9324 4.72444 0
M  V30 4341 O 394.409 6.20584 5.1101 0
M  V30 4342 H 394.141 0.25258 0.62704 0
M  V30 4343 H 396.695 1.32939 1.56577 0
M  V30 4344 H 394.925 0.208443 3.86138 0
M  V30 4345 H 396.614 0.598257 4.01467 0
M  V30 4346 H 397.38 3.0682 3.75615 0
M  V30 4347 H 393.259 1.92148 4.19047 0
M  V30 4348 H 396.803 5.363 4.46126 0
M  V30 4349 H 392.7 4.20724 4.89552 0
M  V30 4350 H 393.468 6.24509 5.29085 0
M  V30 4351 N 396.131 -1.37776 0.765217 0
M  V30 4352 C 397.377 -2.00145 0.327072 0
M  V30 4353 C 397.71 -1.60607 -1.09175 0
M  V30 4354 O 396.985 -0.849127 -1.74986 0
M  V30 4355 C 397.268 -3.57109 0.46319 0
M  V30 4356 C 397.121 -4.06576 1.92395 0
M  V30 4357 C 398.44 -4.39888 -0.136473 0
M  V30 4358 H 395.559 -0.727113 0.120316 0
M  V30 4359 H 398.201 -1.63549 0.967039 0
M  V30 4360 H 396.351 -3.88414 -0.0816358 0
M  V30 4361 H 398.023 -3.85864 2.52798 0
M  V30 4362 H 396.266 -3.59011 2.43503 0
M  V30 4363 H 396.937 -5.15639 1.97028 0
M  V30 4364 H 399.413 -4.14803 0.328317 0
M  V30 4365 H 398.289 -5.48899 -0.0110582 0
M  V30 4366 H 398.55 -4.24758 -1.22608 0
M  V30 4367 N 397.609 -0.515225 -1.4894 0
M  V30 4368 C 398.541 0.292481 -2.27326 0
M  V30 4369 C 399.554 0.917838 -1.3446 0
M  V30 4370 O 400.743 0.798772 -1.5963 0
M  V30 4371 C 397.843 1.42803 -3.07344 0
M  V30 4372 C 397.016 0.907347 -4.27885 0
M  V30 4373 C 396.075 1.92222 -4.89834 0
M  V30 4374 O 395.101 1.48506 -5.49486 0
M  V30 4375 N 396.303 3.25355 -4.80754 0
M  V30 4376 H 399.068 -0.379721 -2.97285 0
M  V30 4377 H 396.629 -0.348638 -1.58102 0
M  V30 4378 H 398.621 2.10481 -3.45658 0
M  V30 4379 H 397.191 2.00414 -2.39902 0
M  V30 4380 H 396.411 0.0550218 -3.94162 0
M  V30 4381 H 397.699 0.538108 -5.05946 0
M  V30 4382 H 397.097 3.6355 -4.33414 0
M  V30 4383 H 395.654 3.88707 -5.23211 0
M  V30 4384 N 399.087 1.5561 -0.249682 0
M  V30 4385 C 400.05 2.20217 0.635394 0
M  V30 4386 C 401.05 1.17227 1.10066 0
M  V30 4387 O 402.24 1.42292 1.00492 0
M  V30 4388 C 399.372 2.84794 1.87363 0
M  V30 4389 H 400.565 2.99814 0.0716752 0
M  V30 4390 H 398.118 1.563 -0.000153234 0
M  V30 4391 H 398.853 2.09142 2.47851 0
M  V30 4392 H 398.638 3.60241 1.5482 0
M  V30 4393 H 400.128 3.3423 2.5036 0
M  V30 4394 N 400.565 -0.0233959 1.57583 0
M  V30 4395 C 401.842 -0.748794 1.807 0
M  V30 4396 C 402.222 -1.9327 0.849106 0
M  V30 4397 O 401.57 -2.28247 -0.107468 0
M  V30 4398 C 401.78 -1.17651 3.28571 0
M  V30 4399 C 403.128 -1.59008 3.93702 0
M  V30 4400 O 404.152 -1.27094 3.32755 0
M  V30 4401 O 403.011 -2.18264 5.01022 0
M  V30 4402 H 400.105 -0.362578 0.743281 0
M  V30 4403 H 402.651 0.000261958 1.697 0
M  V30 4404 H 401.423 -0.331603 3.89892 0
M  V30 4405 H 401.046 -1.98541 3.44481 0
M  V30 4406 N 402.043 -1.548 -0.295768 0
M  V30 4407 C 403.268 -1.78653 -1.05346 0
M  V30 4408 C 403.693 -0.546894 -1.79974 0
M  V30 4409 O 403.051 0.502763 -1.7419 0
M  V30 4410 C 403.099 -2.99679 -2.00561 0
M  V30 4411 O 402.203 -2.7317 -3.08953 0
M  V30 4412 H 401.544 -0.59116 -0.302367 0
M  V30 4413 H 404.074 -2.01895 -0.331598 0
M  V30 4414 H 404.084 -3.27793 -2.42932 0
M  V30 4415 H 402.759 -3.89562 -1.4565 0
M  V30 4416 H 401.336 -2.56089 -2.71059 0
M  V30 4417 N 403.521 0.559213 -1.47345 0
M  V30 4418 C 404.932 1.14134 -1.47751 0
M  V30 4419 C 405.283 1.94834 -0.231103 0
M  V30 4420 O 404.408 2.05957 0.664137 0
M  V30 4421 C 405.003 2.07653 -2.67705 0
M  V30 4422 C 403.562 2.61141 -2.71076 0
M  V30 4423 C 402.709 1.3748 -2.40821 0
M  V30 4424 H 405.66 0.345917 -1.54884 0
M  V30 4425 H 405.681 2.91497 -2.44561 0
M  V30 4426 H 405.193 1.4889 -3.58404 0
M  V30 4427 H 403.294 3.23707 -1.84511 0
M  V30 4428 H 403.407 3.02272 -3.7171 0
M  V30 4429 H 401.771 1.68086 -1.91362 0
M  V30 4430 H 402.554 0.805135 -3.33725 0
M  V30 4431 N 404.999 1.35443 0.805782 0
M  V30 4432 C 405.909 1.30546 1.94923 0
M  V30 4433 C 406.925 0.210233 1.72725 0
M  V30 4434 O 408.101 0.43975 1.9654 0
M  V30 4435 C 405.166 1.07782 3.29521 0
M  V30 4436 C 404.227 2.26625 3.64609 0
M  V30 4437 C 403.46 2.04938 4.92784 0
M  V30 4438 O 403.683 1.01624 5.61274 0
M  V30 4439 O 402.617 2.9232 5.26149 0
M  V30 4440 H 406.443 2.26779 2.02002 0
M  V30 4441 H 404.028 1.15823 0.943682 0
M  V30 4442 H 405.91 0.969392 4.10098 0
M  V30 4443 H 404.585 0.146003 3.23371 0
M  V30 4444 H 403.492 2.43033 2.84404 0
M  V30 4445 H 404.825 3.18257 3.75464 0
M  V30 4446 N 406.477 -1.02803 1.19454 0
M  V30 4447 C 407.387 -2.14575 0.948408 0
M  V30 4448 C 408.403 -1.73757 -0.091871 0
M  V30 4449 O 409.579 -2.01185 0.0929654 0
M  V30 4450 C 406.644 -3.43202 0.491265 0
M  V30 4451 C 405.705 -3.98328 1.60103 0
M  V30 4452 C 404.938 -5.20816 1.16561 0
M  V30 4453 O 405.161 -5.70392 0.0295238 0
M  V30 4454 O 404.095 -5.68801 1.96849 0
M  V30 4455 H 407.921 -2.38202 1.88397 0
M  V30 4456 H 405.506 -1.12989 0.977433 0
M  V30 4457 H 407.388 -4.20687 0.245015 0
M  V30 4458 H 406.063 -3.21018 -0.415851 0
M  V30 4459 H 404.97 -3.22174 1.90144 0
M  V30 4460 H 406.303 -4.24879 2.48473 0
M  V30 4461 N 407.956 -0.998596 -1.21925 0
M  V30 4462 C 408.889 -0.498517 -2.22688 0
M  V30 4463 C 409.867 0.444301 -1.56412 0
M  V30 4464 O 411.051 0.368518 -1.84863 0
M  V30 4465 C 408.178 0.276639 -3.37568 0
M  V30 4466 C 407.224 -0.61302 -4.22071 0
M  V30 4467 S 408.057 -2.07168 -4.93803 0
M  V30 4468 C 409.213 -1.30617 -6.12119 0
M  V30 4469 H 409.446 -1.35234 -2.64762 0
M  V30 4470 H 406.979 -0.806018 -1.31692 0
M  V30 4471 H 408.937 0.717817 -4.04175 0
M  V30 4472 H 407.598 1.10581 -2.93991 0
M  V30 4473 H 406.791 -0.0162909 -5.03997 0
M  V30 4474 H 406.393 -0.991202 -3.60626 0
M  V30 4475 H 408.685 -0.57675 -6.75041 0
M  V30 4476 H 409.628 -2.10091 -6.76215 0
M  V30 4477 H 410.036 -0.816957 -5.58557 0
M  V30 4478 N 409.434 1.37368 -0.772513 0
M  V30 4479 C 410.384 2.27613 -0.132823 0
M  V30 4480 C 411.368 1.46138 0.673247 0
M  V30 4481 O 412.56 1.68686 0.536095 0
M  V30 4482 C 409.689 3.35122 0.744864 0
M  V30 4483 C 408.775 4.24044 -0.0690771 0
M  V30 4484 N 409.166 4.93355 -1.1151 0
M  V30 4485 C 407.464 4.45731 0.154782 0
M  V30 4486 C 408.165 5.59 -1.60917 0
M  V30 4487 N 407.141 5.35737 -0.921222 0
M  V30 4488 H 410.943 2.78675 -0.933681 0
M  V30 4489 H 408.457 1.50494 -0.610342 0
M  V30 4490 H 410.454 3.98683 1.21892 0
M  V30 4491 H 409.114 2.85616 1.54446 0
M  V30 4492 H 410.125 4.95785 -1.49726 0
M  V30 4493 H 406.802 4.07096 0.926224 0
M  V30 4494 H 408.192 6.24395 -2.48153 0
M  V30 4495 N 410.912 0.523116 1.48665 0
M  V30 4496 C 412.137 -0.0117284 2.07397 0
M  V30 4497 C 412.562 -1.28031 1.37803 0
M  V30 4498 O 411.92 -1.75836 0.441762 0
M  V30 4499 C 411.968 -0.225786 3.59892 0
M  V30 4500 O 411.072 -1.29592 3.91509 0
M  V30 4501 H 410.413 0.0360673 0.66302 0
M  V30 4502 H 412.943 0.729066 1.9117 0
M  V30 4503 H 412.953 -0.450552 4.05505 0
M  V30 4504 H 411.628 0.700944 4.09951 0
M  V30 4505 H 410.205 -1.05436 3.57684 0
M  V30 4506 N 412.39 -1.55475 0.257931 0
M  V30 4507 C 413.636 -2.00237 -0.357338 0
M  V30 4508 C 413.991 -1.14313 -1.54759 0
M  V30 4509 O 413.284 -0.201187 -1.90541 0
M  V30 4510 C 413.478 -3.48183 -0.806433 0
M  V30 4511 C 413.307 -4.48422 0.338758 0
M  V30 4512 C 412.077 -4.98651 0.817011 0
M  V30 4513 C 414.275 -5.00827 1.16949 0
M  V30 4514 N 412.257 -5.82658 1.93346 0
M  V30 4515 C 413.628 -5.82113 2.13413 0
M  V30 4516 C 415.683 -4.83104 1.2048 0
M  V30 4517 C 414.386 -6.47566 3.13131 0
M  V30 4518 C 416.412 -5.49343 2.19034 0
M  V30 4519 C 415.774 -6.30427 3.14232 0
M  V30 4520 H 411.873 -0.776034 -0.0964083 0
M  V30 4521 H 414.457 -1.90995 0.37803 0
M  V30 4522 H 412.628 -3.57801 -1.51107 0
M  V30 4523 H 414.36 -3.79802 -1.39758 0
M  V30 4524 H 411.115 -4.71914 0.39925 0
M  V30 4525 H 411.539 -6.29356 2.49478 0
M  V30 4526 H 416.181 -4.20036 0.482634 0
M  V30 4527 H 413.899 -7.09793 3.8629 0
M  V30 4528 H 417.485 -5.37579 2.22485 0
M  V30 4529 H 416.365 -6.80777 3.89246 0
M  V30 4530 N 413.868 0.0150385 -1.57593 0
M  V30 4531 C 415.117 0.702115 -1.89085 0
M  V30 4532 C 415.43 1.75764 -0.858277 0
M  V30 4533 O 416.636 2.49829 -1.0629 0
M  V30 4534 C 415.092 1.29992 -3.35604 0
M  V30 4535 C 414.7 0.280007 -4.47124 0
M  V30 4536 C 416.444 1.96606 -3.76227 0
M  V30 4537 C 414.351 0.886949 -5.84711 0
M  V30 4538 H 413.281 0.265997 -0.705522 0
M  V30 4539 H 415.932 -0.0430408 -1.8345 0
M  V30 4540 H 414.314 2.09525 -3.36029 0
M  V30 4541 H 415.488 -0.489631 -4.58191 0
M  V30 4542 H 413.803 -0.284835 -4.15425 0
M  V30 4543 H 416.4 2.42893 -4.76347 0
M  V30 4544 H 416.743 2.79024 -3.08952 0
M  V30 4545 H 417.276 1.23828 -3.78036 0
M  V30 4546 H 414.015 0.101876 -6.55421 0
M  V30 4547 H 413.535 1.6261 -5.77337 0
M  V30 4548 H 415.214 1.39011 -6.3189 0
M  V30 4549 N 415.346 1.54954 0.287554 0
M  V30 4550 C 416.293 1.86834 1.35505 0
M  V30 4551 C 417.263 0.718452 1.49758 0
M  V30 4552 O 418.448 0.968358 1.644 0
M  V30 4553 C 415.588 2.13303 2.71286 0
M  V30 4554 C 414.701 3.40883 2.65373 0
M  V30 4555 C 413.836 3.57125 3.93236 0
M  V30 4556 C 412.875 4.78449 3.81776 0
M  V30 4557 N 412.012 4.91426 5.01443 0
M  V30 4558 H 416.852 2.77889 1.07619 0
M  V30 4559 H 414.389 1.37593 0.520241 0
M  V30 4560 H 416.347 2.26646 3.50267 0
M  V30 4561 H 414.977 1.25499 2.97405 0
M  V30 4562 H 414.029 3.36088 1.78182 0
M  V30 4563 H 415.341 4.29993 2.52799 0
M  V30 4564 H 414.495 3.70207 4.80658 0
M  V30 4565 H 413.234 2.66173 4.0866 0
M  V30 4566 H 412.239 4.65386 2.92738 0
M  V30 4567 H 413.464 5.70822 3.67884 0
M  V30 4568 H 411.41 4.03401 5.17304 0
M  V30 4569 H 411.327 5.74559 4.91343 0
M  V30 4570 H 412.595 5.08879 5.90477 0
M  V30 4571 N 416.824 -0.551391 1.4764 0
M  V30 4572 C 417.787 -1.64007 1.60107 0
M  V30 4573 C 418.787 -1.53601 0.47576 0
M  V30 4574 O 419.977 -1.57655 0.740988 0
M  V30 4575 C 417.109 -3.03569 1.55108 0
M  V30 4576 H 418.302 -1.543 2.57161 0
M  V30 4577 H 415.855 -0.771776 1.35917 0
M  V30 4578 H 416.59 -3.18804 0.594519 0
M  V30 4579 H 416.375 -3.12532 2.36783 0
M  V30 4580 H 417.865 -3.82762 1.66982 0
M  V30 4581 N 418.302 -1.35869 -0.798587 0
M  V30 4582 C 419.548 -1.2978 -1.55836 0
M  V30 4583 C 419.881 0.125322 -1.93795 0
M  V30 4584 O 419.156 1.07658 -1.61987 0
M  V30 4585 C 419.439 -2.21188 -2.84162 0
M  V30 4586 C 419.292 -3.72155 -2.52628 0
M  V30 4587 C 420.611 -2.11545 -3.85923 0
M  V30 4588 H 417.73 -0.472769 -0.565383 0
M  V30 4589 H 420.372 -1.66341 -0.918192 0
M  V30 4590 H 418.522 -1.90139 -3.38791 0
M  V30 4591 H 420.194 -4.13682 -2.04121 0
M  V30 4592 H 418.437 -3.92042 -1.85704 0
M  V30 4593 H 419.108 -4.31511 -3.44242 0
M  V30 4594 H 421.584 -2.38855 -3.40716 0
M  V30 4595 H 420.46 -2.77688 -4.73477 0
M  V30 4596 H 420.721 -1.09987 -4.282 0
M  V30 4597 N 419.78 1.02168 -1.19998 0
M  V30 4598 C 421.005 1.79833 -1.03319 0
M  V30 4599 C 421.43 1.83504 0.413281 0
M  V30 4600 O 420.788 1.26635 1.29743 0
M  V30 4601 C 420.836 3.22396 -1.61533 0
M  V30 4602 O 419.94 4.03555 -0.849519 0
M  V30 4603 H 419.281 0.554872 -0.364709 0
M  V30 4604 H 421.811 1.28542 -1.59179 0
M  V30 4605 H 421.821 3.73124 -1.65054 0
M  V30 4606 H 420.496 3.19039 -2.66809 0
M  V30 4607 H 419.073 3.62169 -0.888129 0
M  V30 4608 N 421.258 1.00505 1.21394 0
M  V30 4609 C 422.506 0.686415 1.90086 0
M  V30 4610 C 422.827 -0.785264 1.7849 0
M  V30 4611 O 422.097 -1.56387 1.17983 0
M  V30 4612 H 420.677 0.2509 0.703604 0
M  V30 4613 H 423.339 1.27417 1.47482 0
M  V30 4614 H 422.435 0.959621 2.96981 0
M  V30 4615 N 422.737 -1.36956 0.779787 0
M  V30 4616 C 423.7 -2.2851 0.177662 0
M  V30 4617 C 424.7 -1.48393 -0.619377 0
M  V30 4618 O 425.89 -1.68505 -0.441785 0
M  V30 4619 C 423.022 -3.32428 -0.755279 0
M  V30 4620 H 424.215 -2.83269 0.984823 0
M  V30 4621 H 421.768 -1.46358 0.548544 0
M  V30 4622 H 422.503 -2.82808 -1.58714 0
M  V30 4623 H 422.288 -3.91659 -0.185817 0
M  V30 4624 H 423.778 -4.00824 -1.17174 0
M  V30 4625 N 424.215 -0.530993 -1.48385 0
M  V30 4626 C 425.464 0.00474348 -2.01699 0
M  V30 4627 C 425.777 1.35227 -1.41325 0
M  V30 4628 O 426.983 1.97643 -1.86144 0
M  V30 4629 C 425.439 0.0588473 -3.59852 0
M  V30 4630 C 425.047 -1.28385 -4.2921 0
M  V30 4631 C 426.791 0.543358 -4.21008 0
M  V30 4632 C 424.698 -1.19028 -5.79298 0
M  V30 4633 H 423.628 0.00554317 -0.75398 0
M  V30 4634 H 426.279 -0.674924 -1.70637 0
M  V30 4635 H 424.661 0.803612 -3.8776 0
M  V30 4636 H 425.835 -2.04426 -4.12973 0
M  V30 4637 H 424.15 -1.70418 -3.7993 0
M  V30 4638 H 426.747 0.631351 -5.3096 0
M  V30 4639 H 427.09 1.54937 -3.86394 0
M  V30 4640 H 427.623 -0.145754 -3.97533 0
M  V30 4641 H 424.362 -2.17147 -6.18488 0
M  V30 4642 H 423.882 -0.471246 -5.97946 0
M  V30 4643 H 425.561 -0.881365 -6.40969 0
M  V30 4644 N 425.693 1.55336 -0.266172 0
M  V30 4645 C 426.939 1.99692 0.353681 0
M  V30 4646 C 427.272 1.1543 1.56172 0
M  V30 4647 O 426.547 0.222218 1.93226 0
M  V30 4648 C 426.83 3.52316 0.74466 0
M  V30 4649 C 426.683 4.47337 -0.470101 0
M  V30 4650 C 428.002 4.10588 1.58447 0
M  V30 4651 H 425.121 0.725961 0.12708 0
M  V30 4652 H 427.763 1.86336 -0.371333 0
M  V30 4653 H 425.913 3.63829 1.36239 0
M  V30 4654 H 427.585 4.4778 -1.10864 0
M  V30 4655 H 425.828 4.19364 -1.10978 0
M  V30 4656 H 426.499 5.51788 -0.15291 0
M  V30 4657 H 428.975 4.02297 1.06286 0
M  V30 4658 H 427.851 5.17607 1.82686 0
M  V30 4659 H 428.112 3.60253 2.56262 0
M  V30 4660 N 427.171 -0.0066808 1.57599 0
M  V30 4661 C 428.134 -0.985035 2.06953 0
M  V30 4662 C 429.134 -1.27663 0.977687 0
M  V30 4663 O 430.324 -1.22293 1.24057 0
M  V30 4664 C 427.456 -2.3118 2.50536 0
M  V30 4665 H 428.649 -0.558255 2.94658 0
M  V30 4666 H 426.202 -0.254011 1.54222 0
M  V30 4667 H 426.937 -2.78561 1.66054 0
M  V30 4668 H 426.722 -2.11338 3.3027 0
M  V30 4669 H 428.212 -3.01377 2.8907 0
M  V30 4670 N 428.649 -1.55105 -0.279332 0
M  V30 4671 C 429.581 -1.83952 -1.36727 0
M  V30 4672 C 430.594 -0.723642 -1.45833 0
M  V30 4673 O 431.783 -1.00141 -1.47763 0
M  V30 4674 C 428.883 -1.98183 -2.74912 0
M  V30 4675 C 428.056 -3.28787 -2.88475 0
M  V30 4676 C 427.115 -3.33162 -4.07295 0
M  V30 4677 O 426.141 -4.06576 -3.98353 0
M  V30 4678 N 427.343 -2.60109 -5.18964 0
M  V30 4679 H 430.108 -2.77853 -1.12328 0
M  V30 4680 H 427.669 -1.54945 -0.469442 0
M  V30 4681 H 429.661 -1.98488 -3.52682 0
M  V30 4682 H 428.231 -1.11177 -2.92162 0
M  V30 4683 H 427.451 -3.41075 -1.97641 0
M  V30 4684 H 428.739 -4.14933 -2.94463 0
M  V30 4685 H 428.137 -2.00136 -5.29115 0
M  V30 4686 H 426.694 -2.66143 -5.94988 0
M  V30 4687 N 430.127 0.543554 -1.4793 0
M  V30 4688 C 431.543 0.870806 -1.3375 0
M  V30 4689 C 431.743 1.9864 -0.338261 0
M  V30 4690 O 430.799 2.51305 0.245371 0
M  V30 4691 C 432.112 1.25114 -2.73435 0
M  V30 4692 C 433.66 1.3618 -2.81823 0
M  V30 4693 C 434.135 1.77563 -4.22179 0
M  V30 4694 N 435.626 1.8469 -4.24787 0
M  V30 4695 C 436.361 2.18067 -5.30315 0
M  V30 4696 N 435.857 2.49963 -6.46135 0
M  V30 4697 N 437.65 2.18958 -5.17701 0
M  V30 4698 H 429.801 -0.19275 -2.11524 0
M  V30 4699 H 432.064 -0.0235777 -0.947707 0
M  V30 4700 H 431.77 0.50514 -3.48053 0
M  V30 4701 H 431.644 2.20431 -3.06088 0
M  V30 4702 H 434.031 2.09859 -2.07468 0
M  V30 4703 H 434.112 0.390169 -2.52807 0
M  V30 4704 H 433.756 1.04449 -4.97044 0
M  V30 4705 H 433.686 2.75753 -4.48629 0
M  V30 4706 H 436.177 1.62372 -3.41239 0
M  V30 4707 H 436.49 2.74497 -7.22406 0
M  V30 4708 H 434.835 2.47513 -6.49432 0
M  V30 4709 H 438.026 1.93488 -4.2624 0
M  V30 4710 H 438.199 2.44639 -6.00047 0
M  V30 4711 N 431.605 1.3629 0.791371 0
M  V30 4712 C 432.853 1.30154 1.5461 0
M  V30 4713 C 433.174 -0.119409 1.94634 0
M  V30 4714 O 432.444 -1.05924 1.64794 0
M  V30 4715 H 431.024 0.478784 0.573389 0
M  V30 4716 H 433.686 1.70565 0.94306 0
M  V30 4717 H 432.782 1.92762 2.45457 0
M  V30 4718 N 433.083 -1.0153 1.20538 0
M  V30 4719 C 434.494 -1.56598 1.01657 0
M  V30 4720 C 434.845 -1.91505 -0.426668 0
M  V30 4721 O 433.97 -1.72375 -1.30827 0
M  V30 4722 C 434.565 -2.84542 1.83905 0
M  V30 4723 C 433.124 -3.36133 1.69386 0
M  V30 4724 C 432.271 -2.09427 1.81757 0
M  V30 4725 H 435.222 -0.838974 1.34711 0
M  V30 4726 H 435.243 -3.56004 1.34319 0
M  V30 4727 H 434.755 -2.59105 2.8894 0
M  V30 4728 H 432.856 -3.66528 0.669933 0
M  V30 4729 H 432.969 -4.08248 2.50739 0
M  V30 4730 H 431.333 -2.21941 1.24957 0
M  V30 4731 H 432.116 -1.86414 2.88279 0
M  V30 4732 N 434.561 -1.01147 -1.20859 0
M  V30 4733 C 435.809 -0.696486 -1.89719 0
M  V30 4734 C 436.13 0.775788 -1.78904 0
M  V30 4735 O 435.4 1.55759 -1.18811 0
M  V30 4736 H 433.98 -0.254628 -0.702263 0
M  V30 4737 H 436.642 -1.28197 -1.46804 0
M  V30 4738 H 435.738 -0.975357 -2.96468 0
M  V30 4739 N 436.039 1.36541 -0.78704 0
M  V30 4740 C 437.455 1.52571 -0.46844 0
M  V30 4741 C 437.655 1.7415 1.01361 0
M  V30 4742 O 436.711 1.77163 1.79915 0
M  V30 4743 C 438.024 2.71299 -1.29682 0
M  V30 4744 C 439.572 2.85169 -1.29027 0
M  V30 4745 C 440.047 4.06898 -2.10233 0
M  V30 4746 N 441.538 4.1404 -2.07666 0
M  V30 4747 C 442.273 5.07301 -2.67271 0
M  V30 4748 N 441.769 6.06021 -3.35724 0
M  V30 4749 N 443.562 4.99898 -2.57018 0
M  V30 4750 H 435.713 1.20788 -1.74711 0
M  V30 4751 H 437.976 0.589364 -0.742532 0
M  V30 4752 H 437.682 2.61868 -2.34773 0
M  V30 4753 H 437.556 3.6539 -0.936479 0
M  V30 4754 H 439.943 2.94062 -0.247284 0
M  V30 4755 H 440.024 1.91992 -1.69035 0
M  V30 4756 H 439.668 3.98766 -3.1456 0
M  V30 4757 H 439.598 4.99218 -1.67597 0
M  V30 4758 H 442.089 3.43357 -1.57843 0
M  V30 4759 H 442.402 6.73741 -3.78541 0
M  V30 4760 H 440.747 6.06253 -3.39826 0
M  V30 4761 H 443.938 4.21724 -2.03142 0
M  V30 4762 H 444.111 5.72392 -3.03761 0
M  V30 4763 N 437.518 0.538854 1.48102 0
M  V30 4764 C 438.743 0.0102694 2.07397 0
M  V30 4765 C 439.168 -1.26562 1.39153 0
M  V30 4766 O 438.526 -1.75357 0.460387 0
M  V30 4767 C 438.574 -0.187602 3.60112 0
M  V30 4768 O 437.678 -1.25432 3.92862 0
M  V30 4769 H 437.019 0.0430975 0.6626 0
M  V30 4770 H 439.549 0.749301 1.90385 0
M  V30 4771 H 439.559 -0.407517 4.0596 0
M  V30 4772 H 438.234 0.744386 4.09184 0
M  V30 4773 H 436.811 -1.01636 3.58782 0
M  V30 4774 N 438.996 -1.55193 0.274407 0
M  V30 4775 C 439.959 -2.212 -0.600279 0
M  V30 4776 C 440.959 -1.18963 -1.08187 0
M  V30 4777 O 442.149 -1.43873 -0.982158 0
M  V30 4778 C 439.281 -2.87739 -1.82809 0
M  V30 4779 H 440.474 -2.9989 -0.0239682 0
M  V30 4780 H 438.027 -1.5628 0.0250192 0
M  V30 4781 H 438.762 -2.13058 -2.44493 0
M  V30 4782 H 438.547 -3.62658 -1.49069 0
M  V30 4783 H 440.037 -3.38171 -2.45011 0
M  V30 4784 N 440.474 -0.00167713 -1.576 0
M  V30 4785 C 441.699 0.69739 -1.95323 0
M  V30 4786 C 442.124 1.6642 -0.876706 0
M  V30 4787 O 441.482 1.80548 0.165007 0
M  V30 4788 C 441.53 1.40403 -3.32144 0
M  V30 4789 O 440.634 2.5185 -3.26566 0
M  V30 4790 H 439.975 0.185373 -0.637599 0
M  V30 4791 H 442.505 -0.0553665 -2.04525 0
M  V30 4792 H 442.515 1.76707 -3.67748 0
M  V30 4793 H 441.19 0.695167 -4.10049 0
M  V30 4794 H 439.767 2.17861 -3.0264 0
M  V30 4795 N 441.952 1.55251 0.271103 0
M  V30 4796 C 443.177 1.80306 1.02491 0
M  V30 4797 C 443.602 0.575457 1.79081 0
M  V30 4798 O 442.96 -0.474987 1.74967 0
M  V30 4799 C 443.008 3.02832 1.95768 0
M  V30 4800 O 442.112 2.78051 3.04568 0
M  V30 4801 H 441.453 0.595896 0.292923 0
M  V30 4802 H 443.983 2.02397 0.299436 0
M  V30 4803 H 443.993 3.31616 2.37686 0
M  V30 4804 H 442.668 3.9183 1.39434 0
M  V30 4805 H 441.245 2.60369 2.66951 0
M  V30 4806 N 443.43 -0.535701 1.48216 0
M  V30 4807 C 444.34 -1.66785 1.64985 0
M  V30 4808 C 445.356 -1.65654 0.532414 0
M  V30 4809 O 446.532 -1.8471 0.80275 0
M  V30 4810 C 443.597 -3.0326 1.68031 0
M  V30 4811 C 442.658 -3.1529 2.9136 0
M  V30 4812 C 441.891 -4.45255 2.94252 0
M  V30 4813 O 442.114 -5.32011 2.05719 0
M  V30 4814 O 441.048 -4.6153 3.86359 0
M  V30 4815 H 444.874 -1.55576 2.60825 0
M  V30 4816 H 442.459 -0.70815 1.31551 0
M  V30 4817 H 444.341 -3.84436 1.72589 0
M  V30 4818 H 443.016 -3.14805 0.753628 0
M  V30 4819 H 441.923 -2.3343 2.92337 0
M  V30 4820 H 443.256 -3.08658 3.83394 0
M  V30 4821 N 444.908 -1.36708 -0.784132 0
M  V30 4822 C 445.858 -1.2799 -1.88686 0
M  V30 4823 C 446.842 -0.170282 -1.59996 0
M  V30 4824 O 448.034 -0.403571 -1.72338 0
M  V30 4825 C 445.163 -1.07674 -3.25977 0
M  V30 4826 C 444.249 -2.23127 -3.60659 0
M  V30 4827 N 444.64 -3.48467 -3.66612 0
M  V30 4828 C 442.938 -2.15009 -3.90752 0
M  V30 4829 C 443.639 -4.24525 -3.97685 0
M  V30 4830 N 442.615 -3.53524 -4.12943 0
M  V30 4831 H 446.417 -2.22927 -1.91522 0
M  V30 4832 H 443.931 -1.29503 -0.979933 0
M  V30 4833 H 445.928 -0.995151 -4.04849 0
M  V30 4834 H 444.588 -0.13643 -3.24413 0
M  V30 4835 H 445.599 -3.82534 -3.49125 0
M  V30 4836 H 442.276 -1.28963 -3.97083 0
M  V30 4837 H 443.666 -5.32944 -4.0917 0
M  V30 4838 N 446.386 1.0089 -1.21074 0
M  V30 4839 C 447.797 1.56056 -1.02486 0
M  V30 4840 C 448.148 1.91728 0.416506 0
M  V30 4841 O 447.273 1.73066 1.29912 0
M  V30 4842 C 447.868 2.83563 -1.85411 0
M  V30 4843 C 446.427 3.3523 -1.71166 0
M  V30 4844 C 445.574 2.0846 -1.82865 0
M  V30 4845 H 448.525 0.831818 -1.35154 0
M  V30 4846 H 448.546 3.55286 -1.36205 0
M  V30 4847 H 448.058 2.57569 -2.9031 0
M  V30 4848 H 446.159 3.66167 -0.689361 0
M  V30 4849 H 446.272 4.06913 -2.52901 0
M  V30 4850 H 444.636 2.21275 -1.26132 0
M  V30 4851 H 445.419 1.84883 -2.89263 0
M  V30 4852 N 447.864 1.01787 1.20321 0
M  V30 4853 C 449.275 0.739307 1.71438 0
M  V30 4854 C 449.626 -0.742041 1.81627 0
M  V30 4855 O 448.751 -1.57903 1.47971 0
M  V30 4856 C 449.346 1.33538 3.11373 0
M  V30 4857 C 447.905 1.10566 3.59795 0
M  V30 4858 C 447.052 1.44028 2.36962 0
M  V30 4859 H 450.003 1.18718 1.05317 0
M  V30 4860 H 450.024 0.726611 3.73498 0
M  V30 4861 H 449.536 2.41352 3.03926 0
M  V30 4862 H 447.637 0.0452405 3.72573 0
M  V30 4863 H 447.75 1.78661 4.44542 0
M  V30 4864 H 446.114 0.85933 2.39766 0
M  V30 4865 H 446.897 2.52901 2.32155 0
M  V30 4866 N 449.342 -1.36122 0.79427 0
M  V30 4867 C 450.59 -1.98718 0.368177 0
M  V30 4868 C 450.911 -1.63345 -1.06506 0
M  V30 4869 O 450.181 -0.909825 -1.73491 0
M  V30 4870 H 448.761 -0.735038 0.133146 0
M  V30 4871 H 451.423 -1.66239 1.01739 0
M  V30 4872 H 450.519 -3.08633 0.463923 0
M  V30 4873 N 450.82 -0.546701 -1.47814 0
M  V30 4874 C 452.231 -0.110564 -1.86372 0
M  V30 4875 C 452.582 1.31678 -1.45449 0
M  V30 4876 O 451.707 1.98889 -0.852758 0
M  V30 4877 C 452.302 -0.193873 -3.38245 0
M  V30 4878 C 450.861 0.187164 -3.75934 0
M  V30 4879 C 450.008 -0.546166 -2.71868 0
M  V30 4880 H 452.959 -0.757022 -1.39481 0
M  V30 4881 H 452.98 0.590218 -3.75895 0
M  V30 4882 H 452.492 -1.23282 -3.67999 0
M  V30 4883 H 450.593 1.22762 -3.51796 0
M  V30 4884 H 450.706 -0.164083 -4.78819 0
M  V30 4885 H 449.07 0.00953904 -2.54698 0
M  V30 4886 H 449.853 -1.58606 -3.04465 0
M  V30 4887 N 452.299 1.55045 -0.282633 0
M  V30 4888 C 453.524 2.04628 0.337977 0
M  V30 4889 C 453.949 1.15937 1.48123 0
M  V30 4890 O 453.307 0.159532 1.80597 0
M  V30 4891 C 453.355 3.51854 0.78936 0
M  V30 4892 O 452.459 3.66236 1.89592 0
M  V30 4893 H 451.8 0.660434 0.0687261 0
M  V30 4894 H 454.33 2.00261 -0.419124 0
M  V30 4895 H 454.34 3.93361 1.08311 0
M  V30 4896 H 453.015 4.15873 -0.0470419 0
M  V30 4897 H 451.592 3.36633 1.60413 0
M  V30 4898 N 453.777 0.010035 1.57597 0
M  V30 4899 C 454.687 -0.994226 2.12491 0
M  V30 4900 C 455.703 -1.37013 1.07254 0
M  V30 4901 O 456.879 -1.45542 1.3921 0
M  V30 4902 C 453.944 -2.2642 2.62555 0
M  V30 4903 C 453.005 -1.95049 3.82432 0
M  V30 4904 C 452.238 -3.15991 4.30099 0
M  V30 4905 O 452.461 -4.28015 3.7704 0
M  V30 4906 O 451.395 -2.99403 5.22151 0
M  V30 4907 H 455.221 -0.557549 2.98538 0
M  V30 4908 H 452.806 -0.209413 1.47925 0
M  V30 4909 H 454.688 -3.01009 2.9491 0
M  V30 4910 H 453.363 -2.69306 1.796 0
M  V30 4911 H 452.27 -1.17904 3.55034 0
M  V30 4912 H 453.603 -1.56992 4.66491 0
M  V30 4913 N 455.255 -1.55392 -0.262866 0
M  V30 4914 C 456.48 -1.80847 -1.01533 0
M  V30 4915 C 456.905 -0.584946 -1.78774 0
M  V30 4916 O 456.263 0.465701 -1.75217 0
M  V30 4917 C 456.311 -3.03866 -1.94159 0
M  V30 4918 O 455.415 -2.79662 -3.03089 0
M  V30 4919 H 454.756 -0.597441 -0.289759 0
M  V30 4920 H 457.286 -2.02553 -0.288698 0
M  V30 4921 H 457.296 -3.32872 -2.35924 0
M  V30 4922 H 455.971 -3.92564 -1.37354 0
M  V30 4923 H 454.548 -2.61781 -2.65566 0
M  V30 4924 N 456.733 0.527833 -1.48498 0
M  V30 4925 C 457.68 1.6322 -1.6318 0
M  V30 4926 C 458.65 1.59199 -0.473815 0
M  V30 4927 O 459.835 1.77591 -0.697563 0
M  V30 4928 C 456.975 3.01474 -1.67951 0
M  V30 4929 C 456.088 3.15713 -2.94871 0
M  V30 4930 C 455.223 4.44539 -2.90789 0
M  V30 4931 C 454.262 4.52315 -4.12404 0
M  V30 4932 N 453.399 5.72533 -4.06387 0
M  V30 4933 H 458.239 1.50011 -2.57489 0
M  V30 4934 H 455.776 0.730298 -1.27691 0
M  V30 4935 H 457.734 3.81572 -1.68698 0
M  V30 4936 H 456.364 3.1345 -0.771306 0
M  V30 4937 H 455.416 2.28854 -3.03859 0
M  V30 4938 H 456.728 3.1732 -3.8485 0
M  V30 4939 H 455.882 5.3293 -2.89949 0
M  V30 4940 H 454.621 4.45457 -1.98542 0
M  V30 4941 H 453.626 3.62331 -4.13517 0
M  V30 4942 H 454.851 4.53134 -5.05812 0
M  V30 4943 H 452.797 5.74344 -3.16962 0
M  V30 4944 H 452.714 5.75643 -4.90073 0
M  V30 4945 H 453.982 6.63204 -4.0961 0
M  V30 4946 N 458.211 1.37122 0.776871 0
M  V30 4947 C 459.161 1.28989 1.88005 0
M  V30 4948 C 460.145 0.178765 1.59904 0
M  V30 4949 O 461.337 0.412705 1.72121 0
M  V30 4950 C 458.466 1.09402 3.25402 0
M  V30 4951 C 457.552 2.25036 3.59471 0
M  V30 4952 N 457.943 3.50407 3.64759 0
M  V30 4953 C 456.241 2.17078 3.89607 0
M  V30 4954 C 456.942 4.26628 3.95428 0
M  V30 4955 N 455.918 3.55709 4.11062 0
M  V30 4956 H 459.72 2.2394 1.90337 0
M  V30 4957 H 457.234 1.30021 0.973052 0
M  V30 4958 H 459.231 1.01661 4.04315 0
M  V30 4959 H 457.891 0.153632 3.24336 0
M  V30 4960 H 458.902 3.8438 3.47091 0
M  V30 4961 H 455.579 1.31067 3.96393 0
M  V30 4962 H 456.969 5.35107 4.06338 0
M  V30 4963 N 459.689 -1.00246 1.21608 0
M  V30 4964 C 460.652 -2.07233 0.979133 0
M  V30 4965 C 461.652 -1.6072 -0.0508219 0
M  V30 4966 O 462.842 -1.73196 0.186712 0
M  V30 4967 C 459.974 -3.37546 0.477016 0
M  V30 4968 H 461.167 -2.29687 1.92831 0
M  V30 4969 H 458.72 -1.17261 1.03342 0
M  V30 4970 H 459.455 -3.20773 -0.476966 0
M  V30 4971 H 459.24 -3.72638 1.21997 0
M  V30 4972 H 460.73 -4.16285 0.331181 0
M  V30 4973 N 461.167 -1.02423 -1.1978 0
M  V30 4974 C 462.414 -0.717988 -1.89344 0
M  V30 4975 C 462.742 0.753036 -1.79331 0
M  V30 4976 O 461.997 1.56355 -1.17692 0
M  V30 4977 C 462.296 -1.1088 -3.39765 0
M  V30 4978 C 461.962 -2.57731 -3.6998 0
M  V30 4979 C 460.624 -2.97854 -3.77937 0
M  V30 4980 C 462.976 -3.52763 -3.83677 0
M  V30 4981 C 460.304 -4.31931 -3.97054 0
M  V30 4982 C 462.656 -4.86538 -4.04306 0
M  V30 4983 C 461.32 -5.26356 -4.10494 0
M  V30 4984 H 460.59 -0.26273 -0.692859 0
M  V30 4985 H 463.237 -1.28623 -1.41875 0
M  V30 4986 H 461.542 -0.459094 -3.89101 0
M  V30 4987 H 463.239 -0.849432 -3.919 0
M  V30 4988 H 459.829 -2.25646 -3.64393 0
M  V30 4989 H 464.013 -3.2292 -3.76877 0
M  V30 4990 H 459.269 -4.62324 -4.00083 0
M  V30 4991 H 463.443 -5.60093 -4.13846 0
M  V30 4992 H 461.07 -6.3026 -4.2506 0
M  V30 4993 N 462.645 1.35699 -0.801477 0
M  V30 4994 C 464.061 1.52065 -0.484596 0
M  V30 4995 C 464.261 1.75215 0.995084 0
M  V30 4996 O 463.317 1.79061 1.78026 0
M  V30 4997 C 464.63 2.69908 -1.32552 0
M  V30 4998 C 466.178 2.83784 -1.32044 0
M  V30 4999 C 466.653 4.04646 -2.14536 0
M  V30 5000 N 468.144 4.11814 -2.12046 0
M  V30 5001 C 468.879 5.04437 -2.72636 0
M  V30 5002 N 468.375 6.02426 -3.42133 0
M  V30 5003 N 470.168 4.97144 -2.62305 0
M  V30 5004 H 462.319 1.18928 -1.75983 0
M  V30 5005 H 464.582 0.581455 -0.748741 0
M  V30 5006 H 464.288 2.59363 -2.37537 0
M  V30 5007 H 464.162 3.64376 -0.975181 0
M  V30 5008 H 466.549 2.93783 -0.27846 0
M  V30 5009 H 466.63 1.90188 -1.71062 0
M  V30 5010 H 466.274 3.95407 -3.18772 0
M  V30 5011 H 466.204 4.97413 -1.72882 0
M  V30 5012 H 468.695 3.41664 -1.61476 0
M  V30 5013 H 469.008 6.69688 -3.85666 0
M  V30 5014 H 467.353 6.02615 -3.46237 0
M  V30 5015 H 470.544 4.19546 -2.07603 0
M  V30 5016 H 470.717 5.69138 -3.09815 0
M  V30 5017 N 464.123 0.554532 1.47522 0
M  V30 5018 C 465.534 0.120446 1.86311 0
M  V30 5019 C 465.885 -1.30904 1.46145 0
M  V30 5020 O 465.01 -1.98434 0.863294 0
M  V30 5021 C 465.605 0.211808 3.38137 0
M  V30 5022 C 464.164 -0.167224 3.76028 0
M  V30 5023 C 463.311 0.560576 2.71575 0
M  V30 5024 H 466.262 0.764408 1.39077 0
M  V30 5025 H 466.283 -0.570275 3.76202 0
M  V30 5026 H 465.795 1.25232 3.6734 0
M  V30 5027 H 463.896 -1.20894 3.52442 0
M  V30 5028 H 464.009 0.189473 4.78725 0
M  V30 5029 H 462.373 0.00396836 2.547 0
M  V30 5030 H 463.156 1.60219 3.0362 0
M  V30 5031 N 465.601 -1.54893 0.290851 0
M  V30 5032 C 466.829 -2.04343 -0.324288 0
M  V30 5033 C 467.244 -1.16859 -1.48289 0
M  V30 5034 O 466.601 -0.192018 -1.81487 0
M  V30 5035 C 466.652 -3.52756 -0.79026 0
M  V30 5036 O 466.373 -4.36913 0.322213 0
M  V30 5037 C 467.874 -4.18161 -1.4716 0
M  V30 5038 H 465.094 -0.667135 -0.0719173 0
M  V30 5039 H 467.638 -1.99981 0.427529 0
M  V30 5040 H 465.793 -3.57511 -1.49213 0
M  V30 5041 H 466.207 -5.24486 -0.0387372 0
M  V30 5042 H 467.681 -5.23562 -1.7489 0
M  V30 5043 H 468.158 -3.67282 -2.40834 0
M  V30 5044 H 468.764 -4.17454 -0.813178 0
M  V30 5045 N 467.08 -0.0183926 -1.57589 0
M  V30 5046 C 468.028 0.985111 -2.10709 0
M  V30 5047 C 469.022 1.34397 -1.0312 0
M  V30 5048 O 470.228 1.32746 -1.21567 0
M  V30 5049 H 466.603 0.335418 -0.673052 0
M  V30 5050 H 468.574 0.511689 -2.9398 0
M  V30 5051 C 467.323 2.26202 -2.64061 0
M  V30 5052 H 466.646 1.9946 -3.4649 0
M  V30 5053 H 468.086 2.94652 -3.04887 0
M  V30 5054 C 466.545 2.98444 -1.5631 0
M  V30 5055 O 467.075 3.90142 -0.956674 0
M  V30 5056 N 465.281 2.6059 -1.28612 0
M  V30 5057 H 464.828 1.86101 -1.78112 0
M  V30 5058 H 464.786 3.09238 -0.567406 0
M  V30 5059 N 468.558 1.5553 0.254621 0
M  V30 5060 C 469.521 1.88872 1.29846 0
M  V30 5061 C 470.521 0.764591 1.41459 0
M  V30 5062 O 471.711 1.03265 1.40293 0
M  V30 5063 C 468.843 2.11032 2.67728 0
M  V30 5064 H 470.036 2.82201 1.01502 0
M  V30 5065 H 467.589 1.48303 0.493556 0
M  V30 5066 H 468.324 1.20146 3.01223 0
M  V30 5067 H 468.109 2.92895 2.60682 0
M  V30 5068 H 469.599 2.38038 3.43115 0
M  V30 5069 N 470.036 -0.519951 1.48776 0
M  V30 5070 C 470.999 -1.60574 1.6355 0
M  V30 5071 C 471.999 -1.52557 0.508234 0
M  V30 5072 O 473.189 -1.56047 0.774262 0
M  V30 5073 C 470.321 -3.00211 1.61512 0
M  V30 5074 H 471.514 -1.4881 2.60376 0
M  V30 5075 H 469.067 -0.742772 1.37523 0
M  V30 5076 H 469.802 -3.17471 0.662009 0
M  V30 5077 H 469.587 -3.07439 2.43359 0
M  V30 5078 H 471.077 -3.79134 1.75064 0
M  V30 5079 N 471.514 -1.37532 -0.769588 0
M  V30 5080 C 472.742 -1.36059 -1.55871 0
M  V30 5081 C 473.157 0.053544 -1.88724 0
M  V30 5082 O 472.514 1.01591 -1.5161 0
M  V30 5083 C 472.565 -2.20107 -2.86767 0
M  V30 5084 O 472.286 -3.56009 -2.55321 0
M  V30 5085 C 473.787 -2.26636 -3.80987 0
M  V30 5086 H 471.007 -0.465967 -0.482821 0
M  V30 5087 H 473.551 -1.80901 -0.953686 0
M  V30 5088 H 471.706 -1.78768 -3.43687 0
M  V30 5089 H 472.12 -4.0009 -3.39158 0
M  V30 5090 H 473.594 -2.89763 -4.69831 0
M  V30 5091 H 474.071 -1.2754 -4.20274 0
M  V30 5092 H 474.677 -2.68296 -3.29996 0
M  V30 5093 N 472.992 0.995999 -1.22138 0
M  V30 5094 C 473.955 2.06711 -0.990109 0
M  V30 5095 C 474.955 1.60744 0.0422978 0
M  V30 5096 O 476.145 1.73095 -0.195895 0
M  V30 5097 C 473.277 3.37288 -0.49491 0
M  V30 5098 H 474.47 2.28661 -1.94047 0
M  V30 5099 H 472.023 1.16711 -1.03963 0
M  V30 5100 H 472.758 3.21022 0.459948 0
M  V30 5101 H 472.543 3.71986 -1.23971 0
M  V30 5102 H 474.033 4.16103 -0.353253 0
M  V30 5103 N 474.47 1.03057 1.19235 0
M  V30 5104 C 475.698 0.747697 1.92917 0
M  V30 5105 C 476.113 -0.69372 1.75593 0
M  V30 5106 O 475.47 -1.47191 1.07894 0
M  V30 5107 C 475.521 1.09159 3.44625 0
M  V30 5108 O 475.242 2.47641 3.61394 0
M  V30 5109 C 476.743 0.831763 4.35427 0
M  V30 5110 H 473.963 0.273453 0.612751 0
M  V30 5111 H 476.507 1.37552 1.51327 0
M  V30 5112 H 474.662 0.508919 3.84043 0
M  V30 5113 H 475.076 2.60499 4.55237 0
M  V30 5114 H 476.55 1.12233 5.4047 0
M  V30 5115 H 477.027 -0.233769 4.38577 0
M  V30 5116 H 477.633 1.39725 4.01693 0
M  V30 5117 N 475.948 -1.35272 0.808662 0
M  V30 5118 C 477.173 -2.03477 0.401475 0
M  V30 5119 C 477.598 -1.60537 -0.980279 0
M  V30 5120 O 476.956 -0.78304 -1.63518 0
M  V30 5121 C 477.004 -3.57181 0.495354 0
M  V30 5122 O 476.108 -4.09474 -0.490397 0
M  V30 5123 H 475.449 -0.642561 0.167366 0
M  V30 5124 H 477.979 -1.72824 1.09512 0
M  V30 5125 H 477.989 -4.06356 0.365912 0
M  V30 5126 H 476.664 -3.87784 1.5032 0
M  V30 5127 H 475.241 -3.71516 -0.321023 0
M  V30 5128 N 477.426 -0.562348 -1.47226 0
M  V30 5129 C 478.376 0.202967 -2.27095 0
M  V30 5130 C 479.36 0.880611 -1.34663 0
M  V30 5131 O 480.552 0.778069 -1.58981 0
M  V30 5132 C 477.681 1.22906 -3.20545 0
M  V30 5133 C 476.767 0.554566 -4.20459 0
M  V30 5134 N 477.158 -0.378295 -5.04383 0
M  V30 5135 C 475.456 0.807854 -4.38623 0
M  V30 5136 C 476.157 -0.770583 -5.76573 0
M  V30 5137 N 475.133 -0.124263 -5.43458 0
M  V30 5138 H 478.935 -0.514196 -2.89367 0
M  V30 5139 H 476.449 -0.382655 -1.57827 0
M  V30 5140 H 478.446 1.79134 -3.76453 0
M  V30 5141 H 477.106 1.94726 -2.59831 0
M  V30 5142 H 478.117 -0.75274 -5.124 0
M  V30 5143 H 474.794 1.51418 -3.89075 0
M  V30 5144 H 476.184 -1.53742 -6.54074 0
M  V30 5145 N 478.904 1.54736 -0.299062 0
M  V30 5146 C 480.129 2.04975 0.316254 0
M  V30 5147 C 480.554 1.17501 1.46885 0
M  V30 5148 O 479.912 0.178678 1.80417 0
M  V30 5149 C 479.96 3.52672 0.751997 0
M  V30 5150 O 479.064 3.68226 1.85697 0
M  V30 5151 H 478.405 0.661126 0.0617175 0
M  V30 5152 H 480.935 1.99805 -0.440341 0
M  V30 5153 H 480.945 3.94488 1.04133 0
M  V30 5154 H 479.62 4.158 -0.0911482 0
M  V30 5155 H 478.197 3.38316 1.56834 0
M  V30 5156 N 480.382 0.0267497 1.57577 0
M  V30 5157 C 481.61 -0.662661 1.96001 0
M  V30 5158 C 482.025 -1.65799 0.903117 0
M  V30 5159 O 481.382 -1.82135 -0.115317 0
M  V30 5160 C 481.433 -1.37112 3.34488 0
M  V30 5161 O 481.154 -0.415683 4.36123 0
M  V30 5162 C 482.655 -2.15257 3.8753 0
M  V30 5163 H 479.875 -0.18287 0.6456 0
M  V30 5164 H 482.419 0.0858116 2.0432 0
M  V30 5165 H 480.574 -2.07101 3.27395 0
M  V30 5166 H 480.988 -0.918496 5.16395 0
M  V30 5167 H 482.462 -2.60285 4.86781 0
M  V30 5168 H 482.939 -2.99063 3.21649 0
M  V30 5169 H 483.545 -1.50231 3.97883 0
M  V30 5170 N 481.861 -1.55662 -0.24637 0
M  V30 5171 C 482.824 -1.89558 -1.28842 0
M  V30 5172 C 483.824 -0.772082 -1.41052 0
M  V30 5173 O 485.014 -1.04007 -1.39743 0
M  V30 5174 C 482.146 -2.12449 -2.66605 0
M  V30 5175 H 483.339 -2.82735 -1.00004 0
M  V30 5176 H 480.892 -1.48562 -0.485684 0
M  V30 5177 H 481.627 -1.21742 -3.00582 0
M  V30 5178 H 481.412 -2.94273 -2.59125 0
M  V30 5179 H 482.902 -2.39854 -3.41847 0
M  V30 5180 N 483.339 0.512053 -1.4905 0
M  V30 5181 C 484.564 1.2959 -1.6193 0
M  V30 5182 C 484.989 1.85906 -0.286454 0
M  V30 5183 O 484.347 1.65312 0.744426 0
M  V30 5184 C 484.395 2.40987 -2.68249 0
M  V30 5185 O 483.499 3.44531 -2.26654 0
M  V30 5186 H 482.84 0.383053 -0.542371 0
M  V30 5187 H 485.37 0.614231 -1.95162 0
M  V30 5188 H 485.38 2.86913 -2.90078 0
M  V30 5189 H 484.055 1.99361 -3.65004 0
M  V30 5190 H 482.632 3.046 -2.15112 0
M  V30 5191 N 484.817 1.37938 0.762283 0
M  V30 5192 C 486.233 1.18945 1.06415 0
M  V30 5193 C 486.433 0.0321163 2.01474 0
M  V30 5194 O 485.489 -0.624844 2.44647 0
M  V30 5195 C 486.802 2.51218 1.65258 0
M  V30 5196 C 488.35 2.57824 1.7747 0
M  V30 5197 C 488.825 3.90251 2.39725 0
M  V30 5198 N 490.316 3.91744 2.47166 0
M  V30 5199 C 491.051 4.90966 2.96209 0
M  V30 5200 N 490.547 6.00585 3.45354 0
M  V30 5201 N 492.34 4.78363 2.9517 0
M  V30 5202 H 484.491 2.11994 0.131301 0
M  V30 5203 H 486.754 0.940262 0.120879 0
M  V30 5204 H 486.46 3.36317 1.02878 0
M  V30 5205 H 486.334 2.68989 2.64433 0
M  V30 5206 H 488.721 1.73126 2.3898 0
M  V30 5207 H 488.802 2.43928 0.770241 0
M  V30 5208 H 488.446 4.75368 1.78852 0
M  V30 5209 H 488.376 4.01454 3.40796 0
M  V30 5210 H 490.867 3.12563 2.12397 0
M  V30 5211 H 491.18 6.72236 3.81207 0
M  V30 5212 H 489.525 6.04217 3.43434 0
M  V30 5213 H 492.716 3.91841 2.56082 0
M  V30 5214 H 492.889 5.55843 3.33081 0
M  V30 5215 N 486.295 -0.989507 1.22664 0
M  V30 5216 C 487.52 -1.77031 1.08051 0
M  V30 5217 C 487.945 -1.84535 -0.364483 0
M  V30 5218 O 487.303 -1.3003 -1.2634 0
M  V30 5219 C 487.351 -3.18 1.70024 0
M  V30 5220 O 486.455 -4.01161 0.956216 0
M  V30 5221 H 485.796 -0.545008 0.379292 0
M  V30 5222 H 488.326 -1.24277 1.62531 0
M  V30 5223 H 488.336 -3.68616 1.74888 0
M  V30 5224 H 487.011 -3.11853 2.75174 0
M  V30 5225 H 485.588 -3.59687 0.98384 0
M  V30 5226 N 487.773 -1.03688 -1.18687 0
M  V30 5227 C 488.721 -0.618292 -2.24232 0
M  V30 5228 C 489.715 0.353045 -1.6568 0
M  V30 5229 O 490.921 0.220749 -1.78641 0
M  V30 5230 H 487.296 -0.181711 -0.729716 0
M  V30 5231 H 489.267 -1.51893 -2.56848 0
M  V30 5232 C 488.016 0.00677342 -3.47699 0
M  V30 5233 H 487.339 -0.731692 -3.93047 0
M  V30 5234 H 488.779 0.262492 -4.23187 0
M  V30 5235 C 487.238 1.25572 -3.12623 0
M  V30 5236 O 487.768 2.34691 -3.26011 0
M  V30 5237 N 485.974 1.14755 -2.66982 0
M  V30 5238 H 485.521 0.259601 -2.56289 0
M  V30 5239 H 485.479 1.98412 -2.43885 0
M  V30 5240 N 489.251 1.34841 -0.815825 0
M  V30 5241 C 490.476 2.03261 -0.41226 0
M  V30 5242 C 490.901 1.61055 0.971751 0
M  V30 5243 O 490.259 0.7917 1.63101 0
M  V30 5244 C 490.307 3.56914 -0.514289 0
M  V30 5245 O 489.411 4.09728 0.468675 0
M  V30 5246 H 488.752 0.641664 -0.170771 0
M  V30 5247 H 491.282 1.72241 -1.10427 0
M  V30 5248 H 491.292 4.06156 -0.387457 0
M  V30 5249 H 489.967 3.86982 -1.52375 0
M  V30 5250 H 488.544 3.71681 0.301316 0
M  V30 5251 N 490.729 0.570148 1.46925 0
M  V30 5252 C 491.659 -0.158274 2.32963 0
M  V30 5253 C 492.64 -0.896093 1.44583 0
M  V30 5254 O 493.825 -0.874022 1.7342 0
M  V30 5255 C 490.955 -1.18055 3.26619 0
M  V30 5256 C 489.909 -0.558379 4.24342 0
M  V30 5257 C 489.235 -1.68623 5.07415 0
M  V30 5258 C 490.535 0.496295 5.19937 0
M  V30 5259 H 492.229 0.560046 2.94115 0
M  V30 5260 H 489.775 0.270775 1.41431 0
M  V30 5261 H 491.728 -1.69841 3.85658 0
M  V30 5262 H 490.452 -1.92899 2.63548 0
M  V30 5263 H 489.111 -0.0617157 3.66548 0
M  V30 5264 H 488.759 -2.42402 4.40738 0
M  V30 5265 H 488.459 -1.27564 5.73586 0
M  V30 5266 H 489.983 -2.20709 5.69315 0
M  V30 5267 H 491.397 0.0640052 5.73264 0
M  V30 5268 H 489.794 0.82649 5.94381 0
M  V30 5269 H 490.864 1.38735 4.6463 0
M  V30 5270 N 492.207 -1.54576 0.307264 0
M  V30 5271 C 493.453 -2.0056 -0.300612 0
M  V30 5272 C 493.786 -1.1953 -1.53057 0
M  V30 5273 O 493.061 -0.27337 -1.92569 0
M  V30 5274 C 493.344 -3.54167 -0.650987 0
M  V30 5275 C 493.197 -4.45933 0.588539 0
M  V30 5276 C 494.516 -4.14645 -1.47506 0
M  V30 5277 H 491.635 -0.729075 -0.107788 0
M  V30 5278 H 494.277 -1.85286 0.420606 0
M  V30 5279 H 492.427 -3.67313 -1.26544 0
M  V30 5280 H 494.099 -4.44683 1.22697 0
M  V30 5281 H 492.342 -4.16274 1.22058 0
M  V30 5282 H 493.013 -5.51189 0.299153 0
M  V30 5283 H 495.489 -4.04973 -0.955821 0
M  V30 5284 H 494.365 -5.22269 -1.68899 0
M  V30 5285 H 494.626 -3.66921 -2.4662 0
M  V30 5286 N 493.685 -0.035106 -1.57561 0
M  V30 5287 C 494.91 0.655802 -1.96759 0
M  V30 5288 C 495.335 1.64523 -0.911809 0
M  V30 5289 O 494.693 1.80857 0.126673 0
M  V30 5290 C 494.741 1.33326 -3.35047 0
M  V30 5291 O 493.845 2.44866 -3.31835 0
M  V30 5292 H 493.186 0.171807 -0.641388 0
M  V30 5293 H 495.716 -0.0987369 -2.04362 0
M  V30 5294 H 495.726 1.68867 -3.71413 0
M  V30 5295 H 494.401 0.608033 -4.11431 0
M  V30 5296 H 492.978 2.11392 -3.07193 0
M  V30 5297 N 495.163 1.55791 0.238111 0
M  V30 5298 C 496.391 1.82098 0.982233 0
M  V30 5299 C 496.806 0.612025 1.78605 0
M  V30 5300 O 496.163 -0.419381 1.77616 0
M  V30 5301 C 496.214 3.0673 1.91309 0
M  V30 5302 O 495.935 4.2296 1.14179 0
M  V30 5303 C 497.436 3.45903 2.77248 0
M  V30 5304 H 494.656 0.605748 0.288635 0
M  V30 5305 H 497.2 2.02862 0.258341 0
M  V30 5306 H 495.355 2.87991 2.59114 0
M  V30 5307 H 495.769 4.93653 1.7722 0
M  V30 5308 H 497.243 4.36189 3.38295 0
M  V30 5309 H 497.72 2.66891 3.48806 0
M  V30 5310 H 498.326 3.67024 2.14881 0
M  V30 5311 N 496.642 -0.504142 1.49319 0
M  V30 5312 C 497.889 -1.25846 1.58647 0
M  V30 5313 C 498.217 -1.92592 0.27177 0
M  V30 5314 O 497.472 -1.81167 -0.74007 0
M  V30 5315 C 497.771 -2.35021 2.69258 0
M  V30 5316 C 497.437 -1.85755 4.1086 0
M  V30 5317 C 496.099 -1.72038 4.49395 0
M  V30 5318 C 498.451 -1.48844 4.99495 0
M  V30 5319 C 495.779 -1.19783 5.74342 0
M  V30 5320 C 498.131 -0.980422 6.24956 0
M  V30 5321 C 496.795 -0.829622 6.62324 0
M  V30 5322 H 496.065 -0.460505 0.580531 0
M  V30 5323 H 498.712 -0.559716 1.83138 0
M  V30 5324 H 497.017 -3.10672 2.38726 0
M  V30 5325 H 498.714 -2.93083 2.73685 0
M  V30 5326 H 495.304 -1.9739 3.80441 0
M  V30 5327 H 499.488 -1.5829 4.70381 0
M  V30 5328 H 494.744 -1.06817 6.01997 0
M  V30 5329 H 498.918 -0.685608 6.93017 0
M  V30 5330 H 496.545 -0.42253 7.59025 0
M  V30 5331 N 498.12 -1.38341 -0.754957 0
M  V30 5332 C 499.348 -1.37704 -1.54419 0
M  V30 5333 C 499.763 0.0335243 -1.8877 0
M  V30 5334 O 499.12 0.999773 -1.52679 0
M  V30 5335 C 499.171 -2.23136 -2.84416 0
M  V30 5336 O 498.892 -3.58697 -2.51531 0
M  V30 5337 C 500.393 -2.30664 -3.78562 0
M  V30 5338 H 497.613 -0.471061 -0.477852 0
M  V30 5339 H 500.157 -1.81902 -0.934446 0
M  V30 5340 H 498.312 -1.82403 -3.41772 0
M  V30 5341 H 498.726 -4.03665 -3.34896 0
M  V30 5342 H 500.2 -2.9473 -4.66732 0
M  V30 5343 H 500.677 -1.3199 -4.18898 0
M  V30 5344 H 501.283 -2.71781 -3.27131 0
M  V30 5345 N 499.598 0.982988 -1.23187 0
M  V30 5346 C 500.531 2.07302 -0.953993 0
M  V30 5347 C 501.509 1.62249 0.106753 0
M  V30 5348 O 502.693 1.88481 -0.0269525 0
M  V30 5349 C 499.82 3.35873 -0.436716 0
M  V30 5350 C 498.866 3.99862 -1.48367 0
M  V30 5351 S 499.699 4.39443 -3.06023 0
M  V30 5352 C 500.855 5.7117 -2.55959 0
M  V30 5353 H 501.088 2.30554 -1.87702 0
M  V30 5354 H 498.621 1.11883 -1.06403 0
M  V30 5355 H 500.579 4.10244 -0.144872 0
M  V30 5356 H 499.24 3.10634 0.465351 0
M  V30 5357 H 498.433 4.92471 -1.07182 0
M  V30 5358 H 498.035 3.31857 -1.72473 0
M  V30 5359 H 500.327 6.47977 -1.97818 0
M  V30 5360 H 501.27 6.17194 -3.47098 0
M  V30 5361 H 501.678 5.29046 -1.96902 0
M  V30 5362 N 501.076 1.04316 1.18135 0
M  V30 5363 C 501.986 0.646876 2.25505 0
M  V30 5364 C 503.002 -0.328008 1.7088 0
M  V30 5365 O 504.178 -0.182309 2.00573 0
M  V30 5366 C 501.243 0.0185664 3.46695 0
M  V30 5367 C 500.304 1.04277 4.16443 0
M  V30 5368 C 499.537 0.444352 5.31847 0
M  V30 5369 O 499.76 -0.748735 5.65465 0
M  V30 5370 O 498.694 1.17428 5.90334 0
M  V30 5371 H 502.52 1.54147 2.61672 0
M  V30 5372 H 500.105 0.814188 1.25265 0
M  V30 5373 H 501.987 -0.331068 4.20097 0
M  V30 5374 H 500.662 -0.849814 3.12346 0
M  V30 5375 H 499.569 1.44425 3.45098 0
M  V30 5376 H 500.902 1.882 4.54798 0
M  V30 5377 N 502.554 -1.34406 0.822964 0
M  V30 5378 C 503.501 -2.29519 0.24284 0
M  V30 5379 C 504.471 -1.5359 -0.632397 0
M  V30 5380 O 505.656 -1.8196 -0.57403 0
M  V30 5381 C 502.796 -3.40032 -0.58925 0
M  V30 5382 C 501.909 -4.30899 0.308236 0
M  V30 5383 C 501.044 -5.28515 -0.533425 0
M  V30 5384 C 500.083 -6.1102 0.363444 0
M  V30 5385 N 499.22 -7.00725 -0.439147 0
M  V30 5386 H 504.06 -2.78537 1.05929 0
M  V30 5387 H 501.597 -1.3707 0.533872 0
M  V30 5388 H 503.555 -4.0279 -1.087 0
M  V30 5389 H 502.185 -2.92248 -1.37081 0
M  V30 5390 H 501.237 -3.69002 0.924203 0
M  V30 5391 H 502.549 -4.88717 0.997862 0
M  V30 5392 H 501.703 -5.96725 -1.09565 0
M  V30 5393 H 500.442 -4.71235 -1.25656 0
M  V30 5394 H 499.447 -5.41743 0.937812 0
M  V30 5395 H 500.672 -6.70381 1.08469 0
M  V30 5396 H 498.618 -6.45913 -1.14595 0
M  V30 5397 H 498.535 -7.55756 0.19209 0
M  V30 5398 H 499.803 -7.73263 -0.984124 0
M  V30 5399 N 504.032 -0.577932 -1.46621 0
M  V30 5400 C 505.448 -0.239242 -1.57797 0
M  V30 5401 C 505.648 1.25843 -1.57371 0
M  V30 5402 O 504.704 2.03988 -1.48813 0
M  V30 5403 C 506.017 -0.884227 -2.87405 0
M  V30 5404 C 507.565 -0.857373 -3.01028 0
M  V30 5405 C 508.04 -1.48181 -4.33366 0
M  V30 5406 N 509.531 -1.44593 -4.40053 0
M  V30 5407 C 510.266 -1.89852 -5.41058 0
M  V30 5408 N 509.762 -2.43062 -6.48762 0
M  V30 5409 N 511.555 -1.80797 -5.3223 0
M  V30 5410 H 503.706 -1.55073 -1.45142 0
M  V30 5411 H 505.969 -0.647903 -0.692044 0
M  V30 5412 H 505.675 -1.93759 -2.93514 0
M  V30 5413 H 505.549 -0.389585 -3.75183 0
M  V30 5414 H 507.936 0.187357 -2.94505 0
M  V30 5415 H 508.017 -1.38999 -2.14739 0
M  V30 5416 H 507.661 -2.52572 -4.40647 0
M  V30 5417 H 507.591 -0.924464 -5.18422 0
M  V30 5418 H 510.082 -1.05694 -3.62819 0
M  V30 5419 H 510.395 -2.75466 -7.22038 0
M  V30 5420 H 508.74 -2.47085 -6.49595 0
M  V30 5421 H 511.931 -1.38989 -4.46989 0
M  V30 5422 H 512.104 -2.16385 -6.10804 0
M  V30 5423 N 505.51 1.54411 -0.315457 0
M  V30 5424 C 506.758 2.00023 0.288971 0
M  V30 5425 C 507.079 1.20529 1.5329 0
M  V30 5426 O 506.349 0.304986 1.93511 0
M  V30 5427 H 504.929 0.738891 0.109766 0
M  V30 5428 H 507.591 1.90094 -0.430129 0
M  V30 5429 H 506.687 3.07198 0.550999 0
M  V30 5430 N 506.988 0.0434614 1.5754 0
M  V30 5431 C 508.235 -0.632035 1.92384 0
M  V30 5432 C 508.563 -1.71304 0.921157 0
M  V30 5433 O 507.818 -1.95583 -0.067744 0
M  V30 5434 C 508.117 -1.2738 3.3393 0
M  V30 5435 C 507.783 -0.321757 4.49751 0
M  V30 5436 C 506.445 -0.0597611 4.81163 0
M  V30 5437 C 508.797 0.331158 5.20147 0
M  V30 5438 C 506.125 0.862715 5.80322 0
M  V30 5439 C 508.477 1.24178 6.20292 0
M  V30 5440 C 507.141 1.51252 6.50138 0
M  V30 5441 H 506.411 -0.231278 0.703983 0
M  V30 5442 H 509.058 0.108294 1.91194 0
M  V30 5443 H 507.363 -2.08921 3.3145 0
M  V30 5444 H 509.06 -1.80326 3.58167 0
M  V30 5445 H 505.65 -0.53614 4.25233 0
M  V30 5446 H 509.834 0.141826 4.96097 0
M  V30 5447 H 505.09 1.08003 6.01785 0
M  V30 5448 H 509.264 1.75381 6.73954 0
M  V30 5449 H 506.891 2.22897 7.26788 0
M  V30 5450 N 508.466 -1.55915 -0.229846 0
M  V30 5451 C 509.696 -1.82352 -0.971152 0
M  V30 5452 C 510.104 -0.619231 -1.7878 0
M  V30 5453 O 509.447 0.421597 -1.78797 0
M  V30 5454 C 509.509 -3.02399 -1.9441 0
M  V30 5455 C 509.173 -4.37739 -1.31277 0
M  V30 5456 C 510.17 -5.15074 -0.706757 0
M  V30 5457 C 507.855 -4.84454 -1.32702 0
M  V30 5458 C 509.849 -6.37281 -0.123413 0
M  V30 5459 C 507.536 -6.06605 -0.739831 0
M  V30 5460 C 508.534 -6.82858 -0.139071 0
M  V30 5461 O 508.222 -8.027 0.439007 0
M  V30 5462 H 507.954 -0.61035 -0.290601 0
M  V30 5463 H 510.508 -2.03839 -0.252746 0
M  V30 5464 H 508.738 -2.76709 -2.70128 0
M  V30 5465 H 510.427 -3.15779 -2.55026 0
M  V30 5466 H 511.193 -4.80093 -0.688131 0
M  V30 5467 H 507.072 -4.25081 -1.78402 0
M  V30 5468 H 510.616 -6.96741 0.346124 0
M  V30 5469 H 506.513 -6.4106 -0.755841 0
M  V30 5470 H 507.281 -8.17824 0.332521 0
M  V30 5471 N 509.944 0.496216 -1.49584 0
M  V30 5472 C 510.854 1.62352 -1.69349 0
M  V30 5473 C 511.87 1.64184 -0.576147 0
M  V30 5474 O 513.046 1.82517 -0.85144 0
M  V30 5475 C 510.111 2.98698 -1.76013 0
M  V30 5476 C 509.172 3.07454 -2.99617 0
M  V30 5477 C 508.405 4.37296 -3.05953 0
M  V30 5478 O 508.628 5.2637 -2.19752 0
M  V30 5479 O 507.562 4.51124 -3.9846 0
M  V30 5480 H 511.388 1.48606 -2.64859 0
M  V30 5481 H 508.973 0.673022 -1.33382 0
M  V30 5482 H 510.855 3.79725 -1.82721 0
M  V30 5483 H 509.53 3.12696 -0.836828 0
M  V30 5484 H 508.437 2.25597 -2.98424 0
M  V30 5485 H 509.77 2.98385 -3.91443 0
M  V30 5486 N 511.423 1.38739 0.74761 0
M  V30 5487 C 512.648 1.38702 1.54197 0
M  V30 5488 C 513.073 -0.019664 1.8809 0
M  V30 5489 O 512.431 -1.00333 1.51006 0
M  V30 5490 C 512.479 2.25492 2.814 0
M  V30 5491 O 511.583 1.67613 3.76802 0
M  V30 5492 H 510.924 0.472863 0.466151 0
M  V30 5493 H 513.454 1.82577 0.923413 0
M  V30 5494 H 513.464 2.39561 3.30264 0
M  V30 5495 H 512.139 3.27727 2.56062 0
M  V30 5496 H 510.716 1.62718 3.35526 0
M  V30 5497 N 512.901 -0.976442 1.23707 0
M  V30 5498 C 513.831 -2.08749 1.04624 0
M  V30 5499 C 514.812 -1.70057 -0.0380956 0
M  V30 5500 O 515.997 -1.93782 0.127308 0
M  V30 5501 C 513.127 -3.41335 0.640902 0
M  V30 5502 C 512.081 -3.93947 1.67302 0
M  V30 5503 C 511.407 -5.22774 1.12301 0
M  V30 5504 C 512.707 -4.22769 3.06697 0
M  V30 5505 H 514.401 -2.24972 1.97555 0
M  V30 5506 H 511.947 -1.08108 0.951247 0
M  V30 5507 H 513.9 -4.18489 0.494434 0
M  V30 5508 H 512.624 -3.24988 -0.324099 0
M  V30 5509 H 511.283 -3.18941 1.80755 0
M  V30 5510 H 510.931 -5.0278 0.148877 0
M  V30 5511 H 510.631 -5.58942 1.81267 0
M  V30 5512 H 512.155 -6.02546 0.988479 0
M  V30 5513 H 513.569 -4.90659 2.96524 0
M  V30 5514 H 511.966 -4.70147 3.72937 0
M  V30 5515 H 513.036 -3.29885 3.55392 0
M  V30 5516 N 514.379 -1.04941 -1.1758 0
M  V30 5517 C 515.342 -0.652456 -2.19717 0
M  V30 5518 C 516.342 0.294745 -1.58076 0
M  V30 5519 O 517.532 0.0789579 -1.74021 0
M  V30 5520 C 514.664 0.0420712 -3.40874 0
M  V30 5521 H 515.857 -1.55642 -2.5635 0
M  V30 5522 H 513.41 -0.842995 -1.31618 0
M  V30 5523 H 514.145 0.95943 -3.09783 0
M  V30 5524 H 513.93 -0.638844 -3.86861 0
M  V30 5525 H 515.42 0.306 -4.16477 0
M  V30 5526 N 515.857 1.33968 -0.830081 0
M  V30 5527 C 516.804 2.29387 -0.255008 0
M  V30 5528 C 517.774 1.53923 0.624243 0
M  V30 5529 O 518.959 1.82262 0.564372 0
M  V30 5530 C 516.099 3.4034 0.571209 0
M  V30 5531 C 515.212 4.30729 -0.331083 0
M  V30 5532 C 514.347 5.2879 0.505389 0
M  V30 5533 C 513.386 6.10819 -0.395843 0
M  V30 5534 N 512.523 7.00948 0.401979 0
M  V30 5535 H 517.363 2.77972 -1.07404 0
M  V30 5536 H 514.9 1.36785 -0.541133 0
M  V30 5537 H 516.858 4.03361 1.06562 0
M  V30 5538 H 515.488 2.9297 1.35529 0
M  V30 5539 H 514.54 3.68507 -0.943759 0
M  V30 5540 H 515.852 4.88181 -1.02377 0
M  V30 5541 H 515.006 5.97297 1.06399 0
M  V30 5542 H 513.745 4.71894 1.23155 0
M  V30 5543 H 512.75 5.41238 -0.966529 0
M  V30 5544 H 513.975 6.69797 -1.12023 0
M  V30 5545 H 511.921 6.46512 1.11168 0
M  V30 5546 H 511.838 7.55643 -0.232167 0
M  V30 5547 H 513.106 7.73774 0.943102 0
M  V30 5548 N 517.335 0.585699 1.46312 0
M  V30 5549 C 518.581 0.0725284 2.0267 0
M  V30 5550 C 518.914 -1.28523 1.45586 0
M  V30 5551 O 518.189 -1.84283 0.622101 0
M  V30 5552 C 518.472 0.0099788 3.60099 0
M  V30 5553 C 518.325 1.39685 4.27561 0
M  V30 5554 C 519.644 -0.689117 4.34671 0
M  V30 5555 H 516.763 0.0278307 0.736474 0
M  V30 5556 H 519.405 0.753472 1.74421 0
M  V30 5557 H 517.555 -0.56992 3.84297 0
M  V30 5558 H 519.227 2.02215 4.14617 0
M  V30 5559 H 517.47 1.96374 3.86807 0
M  V30 5560 H 518.141 1.30553 5.36339 0
M  V30 5561 H 520.617 -0.196446 4.15636 0
M  V30 5562 H 519.493 -0.701921 5.44393 0
M  V30 5563 H 519.754 -1.75101 4.05946 0
M  V30 5564 N 518.813 -1.54241 0.323641 0
M  V30 5565 C 519.76 -2.24339 -0.542277 0
M  V30 5566 C 520.73 -1.23421 -1.11159 0
M  V30 5567 O 521.915 -1.52104 -1.15192 0
M  V30 5568 C 519.055 -3.00479 -1.69725 0
M  V30 5569 C 518.168 -4.16214 -1.15716 0
M  V30 5570 C 517.303 -4.79884 -2.27783 0
M  V30 5571 C 516.342 -5.87722 -1.71023 0
M  V30 5572 N 515.479 -6.45254 -2.76752 0
M  V30 5573 H 520.319 -2.97935 0.0620613 0
M  V30 5574 H 517.856 -1.47039 0.0423993 0
M  V30 5575 H 519.814 -3.42869 -2.3769 0
M  V30 5576 H 518.444 -2.29217 -2.27288 0
M  V30 5577 H 517.496 -3.78605 -0.369063 0
M  V30 5578 H 518.808 -4.93838 -0.701832 0
M  V30 5579 H 517.962 -5.25243 -3.03651 0
M  V30 5580 H 516.701 -4.01641 -2.76652 0
M  V30 5581 H 515.706 -5.41765 -0.936518 0
M  V30 5582 H 516.931 -6.67863 -1.2303 0
M  V30 5583 H 514.877 -5.69884 -3.24912 0
M  V30 5584 H 514.794 -7.18292 -2.35782 0
M  V30 5585 H 516.062 -6.95269 -3.5245 0
M  V30 5586 N 520.291 -0.0518155 -1.57515 0
M  V30 5587 C 521.702 0.483787 -1.80323 0
M  V30 5588 C 522.053 1.70879 -0.964099 0
M  V30 5589 O 521.178 2.15643 -0.180872 0
M  V30 5590 C 521.773 0.884459 -3.27052 0
M  V30 5591 C 520.332 1.36504 -3.50776 0
M  V30 5592 C 519.479 0.340539 -2.75201 0
M  V30 5593 H 522.43 -0.277691 -1.56252 0
M  V30 5594 H 522.451 1.74733 -3.38007 0
M  V30 5595 H 521.963 -0.00731093 -3.88099 0
M  V30 5596 H 520.064 2.27598 -2.95009 0
M  V30 5597 H 520.177 1.35675 -4.59488 0
M  V30 5598 H 518.541 0.81356 -2.41357 0
M  V30 5599 H 519.324 -0.543156 -3.38976 0
M  V30 5600 N 521.769 1.56035 0.221574 0
M  V30 5601 C 523.017 1.78693 0.944102 0
M  V30 5602 C 523.338 0.620317 1.8487 0
M  V30 5603 O 522.608 -0.362784 1.92512 0
M  V30 5604 H 521.188 0.659082 0.351597 0
M  V30 5605 H 523.85 1.93497 0.233435 0
M  V30 5606 H 522.946 2.70837 1.55093 0
M  V30 5607 N 523.247 -0.488276 1.49845 0
M  V30 5608 C 524.195 -1.60917 1.67954 0
M  V30 5609 C 525.189 -1.6038 0.54539 0
M  V30 5610 O 526.395 -1.64736 0.7254 0
M  V30 5611 H 522.77 -0.533658 0.529824 0
M  V30 5612 H 524.741 -1.428 2.62013 0
M  V30 5613 C 523.49 -2.98975 1.77509 0
M  V30 5614 H 522.813 -3.00099 2.6416 0
M  V30 5615 H 524.253 -3.76906 1.9421 0
M  V30 5616 C 522.712 -3.3282 0.522745 0
M  V30 5617 O 523.242 -4.00208 -0.345866 0
M  V30 5618 N 521.448 -2.8808 0.381882 0
M  V30 5619 H 520.995 -2.33415 1.08974 0
M  V30 5620 H 520.953 -3.11091 -0.454929 0
M  V30 5621 N 524.725 -1.39134 -0.740242 0
M  V30 5622 C 525.972 -1.36071 -1.49969 0
M  V30 5623 C 526.3 0.0450245 -1.94448 0
M  V30 5624 O 525.555 1.02482 -1.66721 0
M  V30 5625 C 525.854 -2.27457 -2.75678 0
M  V30 5626 C 525.52 -3.75185 -2.50094 0
M  V30 5627 C 524.182 -4.15439 -2.42825 0
M  V30 5628 C 526.534 -4.68643 -2.28086 0
M  V30 5629 C 523.862 -5.4722 -2.11584 0
M  V30 5630 C 526.214 -6.00695 -1.98363 0
M  V30 5631 C 524.878 -6.40018 -1.8956 0
M  V30 5632 H 524.148 -0.497921 -0.548777 0
M  V30 5633 H 526.795 -1.71599 -0.85007 0
M  V30 5634 H 525.1 -1.8503 -3.45356 0
M  V30 5635 H 526.797 -2.22384 -3.33686 0
M  V30 5636 H 523.387 -3.43279 -2.56627 0
M  V30 5637 H 527.571 -4.3838 -2.32672 0
M  V30 5638 H 522.827 -5.76615 -2.03287 0
M  V30 5639 H 527.001 -6.72644 -1.80341 0
M  V30 5640 H 524.628 -7.42051 -1.65117 0
M  V30 5641 N 526.204 0.969867 -1.24223 0
M  V30 5642 C 527.151 2.06407 -1.0327 0
M  V30 5643 C 528.121 1.66014 0.0533 0
M  V30 5644 O 529.306 1.90533 -0.100896 0
M  V30 5645 C 526.446 3.3909 -0.641262 0
M  V30 5646 C 525.559 3.9269 -1.80051 0
M  V30 5647 C 524.694 5.13631 -1.35486 0
M  V30 5648 C 523.733 5.59423 -2.48419 0
M  V30 5649 N 522.87 6.71586 -2.04737 0
M  V30 5650 H 527.71 2.23663 -1.96923 0
M  V30 5651 H 525.247 1.09624 -0.980862 0
M  V30 5652 H 527.205 4.15323 -0.395351 0
M  V30 5653 H 525.835 3.21765 0.258269 0
M  V30 5654 H 524.887 3.13116 -2.16014 0
M  V30 5655 H 526.199 4.22636 -2.64916 0
M  V30 5656 H 525.353 5.97231 -1.0677 0
M  V30 5657 H 524.092 4.85364 -0.476722 0
M  V30 5658 H 523.097 4.74398 -2.77897 0
M  V30 5659 H 524.322 5.89705 -3.36786 0
M  V30 5660 H 522.268 6.45058 -1.19318 0
M  V30 5661 H 522.185 7.0097 -2.83156 0
M  V30 5662 H 523.453 7.58633 -1.79154 0
M  V30 5663 N 527.682 1.05563 1.17022 0
M  V30 5664 C 528.928 0.769074 1.87652 0
M  V30 5665 C 529.261 -0.702326 1.81055 0
M  V30 5666 O 528.536 -1.5139 1.22112 0
M  V30 5667 C 528.819 1.25492 3.37526 0
M  V30 5668 C 528.672 2.78953 3.52853 0
M  V30 5669 C 529.991 0.856919 4.31677 0
M  V30 5670 H 527.11 0.280854 0.681388 0
M  V30 5671 H 529.752 1.31027 1.37593 0
M  V30 5672 H 527.902 0.794516 3.80289 0
M  V30 5673 H 529.574 3.33146 3.19079 0
M  V30 5674 H 527.817 3.18046 2.95007 0
M  V30 5675 H 528.488 3.08011 4.58076 0
M  V30 5676 H 530.964 1.25334 3.96775 0
M  V30 5677 H 529.84 1.22443 5.35069 0
M  V30 5678 H 530.101 -0.238787 4.41455 0
M  V30 5679 N 529.16 -1.33526 0.837174 0
M  V30 5680 C 530.092 -2.28077 0.226579 0
M  V30 5681 C 531.105 -1.51666 -0.591717 0
M  V30 5682 O 532.294 -1.73511 -0.419064 0
M  V30 5683 C 529.394 -3.31597 -0.69978 0
M  V30 5684 C 528.567 -4.37329 0.0788067 0
M  V30 5685 C 527.626 -5.20526 -0.770637 0
M  V30 5686 O 526.652 -5.68811 -0.210453 0
M  V30 5687 N 527.854 -5.41639 -2.08825 0
M  V30 5688 H 530.619 -2.81115 1.03897 0
M  V30 5689 H 528.18 -1.46201 0.695476 0
M  V30 5690 H 530.172 -3.84158 -1.27298 0
M  V30 5691 H 528.742 -2.78848 -1.41288 0
M  V30 5692 H 527.962 -3.8529 0.833381 0
M  V30 5693 H 529.25 -5.05079 0.614238 0
M  V30 5694 H 528.648 -5.04108 -2.56693 0
M  V30 5695 H 527.205 -5.97263 -2.60998 0
M  V30 5696 N 530.638 -0.59345 -1.46 0
M  V30 5697 C 531.866 -0.0890934 -2.06708 0
M  V30 5698 C 532.281 1.2205 -1.44046 0
M  V30 5699 O 531.638 1.74029 -0.549551 0
M  V30 5700 C 531.689 0.0720263 -3.61428 0
M  V30 5701 O 531.41 -1.18574 -4.21748 0
M  V30 5702 C 532.911 0.609487 -4.3909 0
M  V30 5703 H 530.131 -0.0623628 -0.668096 0
M  V30 5704 H 532.675 -0.817171 -1.87464 0
M  V30 5705 H 530.83 0.750369 -3.80063 0
M  V30 5706 H 531.244 -1.0064 -5.14754 0
M  V30 5707 H 532.718 0.671363 -5.47902 0
M  V30 5708 H 533.195 1.62878 -4.07882 0
M  V30 5709 H 533.801 -0.03434 -4.25286 0
M  V30 5710 N 532.116 1.54067 -0.331816 0
M  V30 5711 C 533.362 2.01012 0.268667 0
M  V30 5712 C 533.695 1.2195 1.51136 0
M  V30 5713 O 532.97 0.303972 1.9211 0
M  V30 5714 C 533.253 3.55158 0.59456 0
M  V30 5715 C 533.106 4.4494 -0.659409 0
M  V30 5716 C 534.425 4.16939 1.4089 0
M  V30 5717 H 531.544 0.730698 0.0961756 0
M  V30 5718 H 534.186 1.84593 -0.450031 0
M  V30 5719 H 532.336 3.6928 1.20685 0
M  V30 5720 H 534.008 4.42675 -1.29756 0
M  V30 5721 H 532.251 4.1428 -1.28665 0
M  V30 5722 H 532.922 5.50643 -0.386804 0
M  V30 5723 H 535.398 4.06443 0.891272 0
M  V30 5724 H 534.274 5.24889 1.60569 0
M  V30 5725 H 534.535 3.70798 2.40752 0
M  V30 5726 N 533.594 0.0601682 1.57485 0
M  V30 5727 C 534.819 -0.624416 1.97777 0
M  V30 5728 C 535.244 -1.63051 0.937867 0
M  V30 5729 O 534.602 -1.81036 -0.0978845 0
M  V30 5730 C 534.65 -1.27979 3.37126 0
M  V30 5731 O 533.754 -2.39556 3.35688 0
M  V30 5732 H 533.095 -0.161581 0.64404 0
M  V30 5733 H 535.625 0.131237 2.04179 0
M  V30 5734 H 535.635 -1.62937 3.74053 0
M  V30 5735 H 534.31 -0.542501 4.12347 0
M  V30 5736 H 532.887 -2.06478 3.10517 0
M  V30 5737 N 535.072 -1.5615 -0.213296 0
M  V30 5738 C 536.483 -1.69645 -0.779582 0
M  V30 5739 C 536.834 -0.663615 -1.84636 0
M  V30 5740 O 535.959 0.183633 -2.15619 0
M  V30 5741 C 536.554 -3.07567 -1.42084 0
M  V30 5742 C 535.113 -3.22889 -1.93442 0
M  V30 5743 C 534.26 -2.65581 -0.797612 0
M  V30 5744 H 537.211 -1.58696 0.0114951 0
M  V30 5745 H 537.232 -3.03884 -2.28986 0
M  V30 5746 H 536.744 -3.82716 -0.644187 0
M  V30 5747 H 534.845 -2.52623 -2.73884 0
M  V30 5748 H 534.958 -4.30197 -2.10872 0
M  V30 5749 H 533.322 -2.24278 -1.20712 0
M  V30 5750 H 534.105 -3.43284 -0.033494 0
M  V30 5751 N 536.55 0.480323 -1.50102 0
M  V30 5752 C 537.966 0.813295 -1.37323 0
M  V30 5753 C 538.166 1.97027 -0.422206 0
M  V30 5754 O 537.222 2.5212 0.138563 0
M  V30 5755 C 538.535 1.13404 -2.78496 0
M  V30 5756 C 540.083 1.24104 -2.87345 0
M  V30 5757 C 540.558 1.59497 -4.29331 0
M  V30 5758 N 542.049 1.66507 -4.32238 0
M  V30 5759 C 542.784 1.95378 -5.39087 0
M  V30 5760 N 542.28 2.22333 -6.56155 0
M  V30 5761 N 544.073 1.96803 -5.26522 0
M  V30 5762 H 536.224 -0.282291 -2.10516 0
M  V30 5763 H 538.487 -0.063752 -0.945854 0
M  V30 5764 H 538.193 0.357064 -3.49883 0
M  V30 5765 H 538.067 2.07251 -3.15162 0
M  V30 5766 H 540.454 2.00871 -2.16183 0
M  V30 5767 H 540.535 0.282593 -2.54234 0
M  V30 5768 H 540.179 0.832736 -5.01027 0
M  V30 5769 H 540.109 2.56477 -4.59921 0
M  V30 5770 H 542.6 1.47753 -3.47818 0
M  V30 5771 H 542.913 2.43611 -7.33399 0
M  V30 5772 H 541.258 2.19745 -6.59346 0
M  V30 5773 H 544.449 1.75235 -4.34062 0
M  V30 5774 H 544.622 2.18969 -6.09883 0
M  V30 5775 N 538.028 1.39524 0.732853 0
M  V30 5776 C 538.938 1.40695 1.87729 0
M  V30 5777 C 539.954 0.301496 1.71368 0
M  V30 5778 O 541.13 0.543313 1.93933 0
M  V30 5779 C 538.195 1.25098 3.23344 0
M  V30 5780 C 537.256 2.45634 3.52083 0
M  V30 5781 C 536.489 2.30772 4.81228 0
M  V30 5782 O 536.712 1.31233 5.55098 0
M  V30 5783 O 535.646 3.19799 5.09914 0
M  V30 5784 H 539.472 2.37168 1.89697 0
M  V30 5785 H 537.057 1.20663 0.880959 0
M  V30 5786 H 538.939 1.18541 4.04383 0
M  V30 5787 H 537.614 0.317209 3.22142 0
M  V30 5788 H 536.521 2.57767 2.71122 0
M  V30 5789 H 537.854 3.37712 3.58066 0
M  V30 5790 N 539.506 -0.963266 1.24736 0
M  V30 5791 C 540.917 -1.52145 1.08207 0
M  V30 5792 C 541.268 -1.93142 -0.345061 0
M  V30 5793 O 540.393 -1.77769 -1.23399 0
M  V30 5794 C 540.988 -2.76486 1.95808 0
M  V30 5795 C 539.547 -3.28646 1.8349 0
M  V30 5796 C 538.694 -2.01529 1.90476 0
M  V30 5797 H 541.645 -0.781083 1.38148 0
M  V30 5798 H 541.666 -3.49986 1.49297 0
M  V30 5799 H 541.178 -2.46617 2.99669 0
M  V30 5800 H 539.279 -3.63357 0.824787 0
M  V30 5801 H 539.392 -3.97246 2.67829 0
M  V30 5802 H 537.756 -2.16442 1.34258 0
M  V30 5803 H 538.539 -1.7402 2.95926 0
M  V30 5804 N 540.985 -1.06182 -1.16461 0
M  V30 5805 C 541.948 -0.675723 -2.19013 0
M  V30 5806 C 542.948 0.277963 -1.58379 0
M  V30 5807 O 544.138 0.0604962 -1.74095 0
M  V30 5808 C 541.27 0.00591459 -3.40899 0
M  V30 5809 H 542.463 -1.58353 -2.54685 0
M  V30 5810 H 540.016 -0.856908 -1.30716 0
M  V30 5811 H 540.751 0.92652 -3.10783 0
M  V30 5812 H 540.536 -0.67984 -3.86161 0
M  V30 5813 H 542.026 0.26181 -4.16778 0
M  V30 5814 N 542.463 1.3308 -0.844243 0
M  V30 5815 C 543.688 2.02341 -0.455282 0
M  V30 5816 C 544.113 1.6308 0.93737 0
M  V30 5817 O 543.471 0.826118 1.61385 0
M  V30 5818 C 543.519 3.55743 -0.58988 0
M  V30 5819 O 542.623 4.1063 0.38166 0
M  V30 5820 H 541.964 0.637898 -0.184343 0
M  V30 5821 H 544.494 1.6986 -1.14056 0
M  V30 5822 H 544.504 4.05243 -0.473522 0
M  V30 5823 H 543.179 3.83662 -1.60549 0
M  V30 5824 H 541.756 3.72236 0.22241 0
M  V30 5825 N 543.941 0.601185 1.45683 0
M  V30 5826 C 544.888 -0.121396 2.30481 0
M  V30 5827 C 545.858 -0.866232 1.41724 0
M  V30 5828 O 547.043 -0.85324 1.70659 0
M  V30 5829 C 544.183 -1.11704 3.26521 0
M  V30 5830 C 543.296 -0.373741 4.3038 0
M  V30 5831 C 542.431 -1.35854 5.13534 0
M  V30 5832 C 541.47 -0.602689 6.09126 0
M  V30 5833 N 540.607 -1.53645 6.85082 0
M  V30 5834 H 545.447 0.607732 2.91737 0
M  V30 5835 H 542.984 0.311502 1.43764 0
M  V30 5836 H 544.942 -1.70735 3.80664 0
M  V30 5837 H 543.572 -1.81366 2.67032 0
M  V30 5838 H 542.624 0.331962 3.78949 0
M  V30 5839 H 543.936 0.2163 4.98331 0
M  V30 5840 H 543.09 -2.02111 5.72046 0
M  V30 5841 H 541.829 -1.98251 4.45587 0
M  V30 5842 H 540.834 0.0735482 5.49751 0
M  V30 5843 H 542.059 0.0161467 6.79098 0
M  V30 5844 H 540.005 -2.14819 6.1983 0
M  V30 5845 H 539.922 -0.999688 7.49361 0
M  V30 5846 H 541.19 -2.1888 7.48139 0
M  V30 5847 N 545.419 -1.53889 0.339982 0
M  V30 5848 C 546.665 -2.01152 -0.258003 0
M  V30 5849 C 546.998 -1.22749 -1.50487 0
M  V30 5850 O 546.273 -0.314156 -1.91946 0
M  V30 5851 C 546.556 -3.55468 -0.575717 0
M  V30 5852 C 546.409 -4.44584 0.682996 0
M  V30 5853 C 547.728 -4.1768 -1.38677 0
M  V30 5854 H 544.847 -0.731198 -0.0922992 0
M  V30 5855 H 547.489 -1.84352 0.459814 0
M  V30 5856 H 545.639 -3.69914 -1.18725 0
M  V30 5857 H 547.311 -4.41981 1.32102 0
M  V30 5858 H 545.554 -4.13592 1.3086 0
M  V30 5859 H 546.225 -5.5043 0.416001 0
M  V30 5860 H 548.701 -4.0691 -0.869705 0
M  V30 5861 H 547.577 -5.25734 -1.57783 0
M  V30 5862 H 547.838 -3.72069 -2.38782 0
M  V30 5863 N 546.897 -0.0685191 -1.57451 0
M  V30 5864 C 548.125 0.610462 -1.97689 0
M  V30 5865 C 548.54 1.63346 -0.946758 0
M  V30 5866 O 547.897 1.82377 0.0669868 0
M  V30 5867 C 547.948 1.28196 -3.38006 0
M  V30 5868 O 547.669 0.299906 -4.37072 0
M  V30 5869 C 549.17 2.04907 -3.931 0
M  V30 5870 H 546.39 0.165689 -0.650222 0
M  V30 5871 H 548.934 -0.139953 -2.04021 0
M  V30 5872 H 547.089 1.98348 -3.32771 0
M  V30 5873 H 547.503 0.78126 -5.18649 0
M  V30 5874 H 548.977 2.47287 -4.93511 0
M  V30 5875 H 549.454 2.9043 -3.29465 0
M  V30 5876 H 550.06 1.39629 -4.01726 0
M  V30 5877 N 548.375 1.56261 0.205012 0
M  V30 5878 C 549.285 1.96944 1.27476 0
M  V30 5879 C 550.301 0.875636 1.50362 0
M  V30 5880 O 551.477 1.18058 1.6317 0
M  V30 5881 C 548.542 2.29219 2.60115 0
M  V30 5882 C 547.603 3.52255 2.45387 0
M  V30 5883 C 546.836 3.8298 3.71701 0
M  V30 5884 O 547.059 3.15138 4.75441 0
M  V30 5885 O 545.993 4.76435 3.67823 0
M  V30 5886 H 549.819 2.88144 0.959527 0
M  V30 5887 H 547.404 1.43686 0.409217 0
M  V30 5888 H 549.286 2.51098 3.3842 0
M  V30 5889 H 547.961 1.4119 2.91285 0
M  V30 5890 H 546.868 3.35635 1.65227 0
M  V30 5891 H 548.201 4.40719 2.19152 0
M  V30 5892 N 549.853 -0.472356 1.50355 0
M  V30 5893 C 550.785 -1.58795 1.65278 0
M  V30 5894 C 551.798 -1.53782 0.534313 0
M  V30 5895 O 552.987 -1.59193 0.807446 0
M  V30 5896 C 550.087 -2.97672 1.62001 0
M  V30 5897 C 549.26 -3.27568 2.89859 0
M  V30 5898 C 548.319 -4.45993 2.79242 0
M  V30 5899 O 547.345 -4.46364 3.53197 0
M  V30 5900 N 548.547 -5.47578 1.92713 0
M  V30 5901 H 551.312 -1.46411 2.61503 0
M  V30 5902 H 548.873 -0.660751 1.47803 0
M  V30 5903 H 550.865 -3.74862 1.52513 0
M  V30 5904 H 549.435 -3.03832 0.735159 0
M  V30 5905 H 548.655 -2.39003 3.13483 0
M  V30 5906 H 549.943 -3.44352 3.74565 0
M  V30 5907 H 549.341 -5.50099 1.31939 0
M  V30 5908 H 547.898 -6.23757 1.8913 0
M  V30 5909 N 551.331 -1.39911 -0.725443 0
M  V30 5910 C 552.294 -1.39156 -1.82121 0
M  V30 5911 C 553.294 -0.287018 -1.58218 0
M  V30 5912 O 554.484 -0.545421 -1.65441 0
M  V30 5913 C 551.616 -1.1736 -3.20062 0
M  V30 5914 H 552.809 -2.36672 -1.84191 0
M  V30 5915 H 550.362 -1.25615 -0.930079 0
M  V30 5916 H 551.097 -0.205648 -3.23647 0
M  V30 5917 H 550.882 -1.97358 -3.3881 0
M  V30 5918 H 552.372 -1.19596 -4.00108 0
M  V30 5919 N 552.809 0.956637 -1.25245 0
M  V30 5920 C 553.739 2.07058 -1.07931 0
M  V30 5921 C 554.72 1.70096 0.0110361 0
M  V30 5922 O 555.905 1.93555 -0.158121 0
M  V30 5923 C 553.035 3.40272 -0.695124 0
M  V30 5924 C 551.989 3.91235 -1.73549 0
M  V30 5925 C 551.315 5.20921 -1.20604 0
M  V30 5926 C 552.615 4.17837 -3.13385 0
M  V30 5927 H 554.309 2.218 -2.01109 0
M  V30 5928 H 551.855 1.06581 -0.968326 0
M  V30 5929 H 553.808 4.1765 -0.560949 0
M  V30 5930 H 552.532 3.25462 0.272355 0
M  V30 5931 H 551.191 3.16025 -1.85807 0
M  V30 5932 H 550.839 5.02479 -0.228846 0
M  V30 5933 H 550.539 5.55987 -1.90136 0
M  V30 5934 H 552.063 6.00897 -1.08421 0
M  V30 5935 H 553.477 4.8588 -3.04292 0
M  V30 5936 H 551.874 4.64154 -3.80369 0
M  V30 5937 H 552.944 3.2419 -3.60595 0
M  V30 5938 N 554.287 1.06798 1.15896 0
M  V30 5939 C 555.217 0.704677 2.22613 0
M  V30 5940 C 556.198 -0.305252 1.67339 0
M  V30 5941 O 557.383 -0.179247 1.93371 0
M  V30 5942 C 554.513 0.0957325 3.47168 0
M  V30 5943 C 553.467 1.0322 4.15367 0
M  V30 5944 C 552.793 0.286293 5.33933 0
M  V30 5945 C 554.093 2.36341 4.65768 0
M  V30 5946 H 555.787 1.59688 2.53259 0
M  V30 5947 H 553.333 0.769257 1.21731 0
M  V30 5948 H 555.286 -0.170333 4.21056 0
M  V30 5949 H 554.01 -0.831516 3.15838 0
M  V30 5950 H 552.669 1.28309 3.43413 0
M  V30 5951 H 552.317 -0.644237 4.98857 0
M  V30 5952 H 552.017 0.910436 5.80504 0
M  V30 5953 H 553.541 0.0278938 6.10594 0
M  V30 5954 H 554.955 2.1561 5.31211 0
M  V30 5955 H 553.352 2.94299 5.2298 0
M  V30 5956 H 554.422 2.99047 3.81705 0
M  V30 5957 N 555.766 -1.3263 0.851289 0
M  V30 5958 C 557.182 -1.50162 0.5407 0
M  V30 5959 C 557.382 -1.78788 -0.929369 0
M  V30 5960 O 556.438 -1.85545 -1.71258 0
M  V30 5961 C 557.751 -2.64803 1.42478 0
M  V30 5962 C 559.299 -2.78688 1.42485 0
M  V30 5963 C 559.774 -3.96405 2.29407 0
M  V30 5964 N 561.265 -4.0366 2.27184 0
M  V30 5965 C 562 -4.93971 2.9117 0
M  V30 5966 N 561.496 -5.89313 3.64256 0
M  V30 5967 N 563.289 -4.87066 2.80576 0
M  V30 5968 H 555.44 -1.12315 1.80275 0
M  V30 5969 H 557.703 -0.553266 0.769806 0
M  V30 5970 H 557.409 -2.50368 2.46999 0
M  V30 5971 H 557.283 -3.60506 1.10974 0
M  V30 5972 H 559.67 -2.92547 0.387304 0
M  V30 5973 H 559.751 -1.83708 1.78002 0
M  V30 5974 H 559.395 -3.83304 3.33228 0
M  V30 5975 H 559.325 -4.90654 1.91224 0
M  V30 5976 H 561.816 -3.35435 1.74045 0
M  V30 5977 H 562.129 -6.54913 4.10255 0
M  V30 5978 H 560.474 -5.8935 3.68364 0
M  V30 5979 H 563.665 -4.11552 2.23031 0
M  V30 5980 H 563.838 -5.57248 3.30725 0
M  V30 5981 N 557.244 -0.608902 -1.45362 0
M  V30 5982 C 558.655 -0.189511 -1.85736 0
M  V30 5983 C 559.006 1.2539 -1.50903 0
M  V30 5984 O 558.131 1.95094 -0.936347 0
M  V30 5985 C 558.726 -0.33716 -3.37118 0
M  V30 5986 C 557.285 0.0275487 -3.7639 0
M  V30 5987 C 556.432 -0.660983 -2.69307 0
M  V30 5988 H 559.383 -0.815499 -1.36144 0
M  V30 5989 H 559.404 0.430257 -3.7806 0
M  V30 5990 H 558.916 -1.38779 -3.62439 0
M  V30 5991 H 557.017 1.0773 -3.56686 0
M  V30 5992 H 557.13 -0.367018 -4.77692 0
M  V30 5993 H 555.494 -0.0984958 -2.54509 0
M  V30 5994 H 556.277 -1.71377 -2.97464 0
M  V30 5995 N 558.722 1.53707 -0.348139 0
M  V30 5996 C 559.654 2.22725 0.540946 0
M  V30 5997 C 560.667 1.2354 1.06027 0
M  V30 5998 O 561.856 1.49867 0.96964 0
M  V30 5999 C 558.956 2.89756 1.75768 0
M  V30 6000 C 558.129 4.15297 1.37285 0
M  V30 6001 C 557.188 4.65697 2.44976 0
M  V30 6002 O 556.214 5.29798 2.08092 0
M  V30 6003 N 557.416 4.42017 3.763 0
M  V30 6004 H 560.181 2.99658 -0.0501592 0
M  V30 6005 H 557.742 1.60979 -0.17248 0
M  V30 6006 H 559.734 3.20388 2.47252 0
M  V30 6007 H 558.304 2.16382 2.25605 0
M  V30 6008 H 557.524 3.9116 0.488584 0
M  V30 6009 H 558.812 4.96948 1.09179 0
M  V30 6010 H 558.21 3.9076 4.09051 0
M  V30 6011 H 556.767 4.77242 4.4394 0
M  V30 6012 N 560.2 0.0768682 1.57412 0
M  V30 6013 C 561.425 -0.603404 1.98428 0
M  V30 6014 C 561.85 -1.62047 0.955108 0
M  V30 6015 O 561.208 -1.81129 -0.0786778 0
M  V30 6016 C 561.256 -1.24396 3.38464 0
M  V30 6017 O 560.36 -2.35982 3.3821 0
M  V30 6018 H 559.701 -0.154741 0.645718 0
M  V30 6019 H 562.231 0.152885 2.04028 0
M  V30 6020 H 562.241 -1.5896 3.7576 0
M  V30 6021 H 560.916 -0.498735 4.12899 0
M  V30 6022 H 559.493 -2.03173 3.1269 0
M  V30 6023 N 561.678 -1.56367 -0.196722 0
M  V30 6024 C 562.625 -1.94417 -1.24382 0
M  V30 6025 C 563.595 -0.804543 -1.45315 0
M  V30 6026 O 564.78 -1.06256 -1.58475 0
M  V30 6027 C 561.92 -2.28757 -2.58388 0
M  V30 6028 C 561.033 -3.55775 -2.45047 0
M  V30 6029 C 560.168 -3.79445 -3.71746 0
M  V30 6030 C 559.207 -4.99894 -3.53231 0
M  V30 6031 N 558.344 -5.19826 -4.71938 0
M  V30 6032 H 563.184 -2.83691 -0.912338 0
M  V30 6033 H 560.721 -1.40392 -0.439135 0
M  V30 6034 H 562.679 -2.46682 -3.36457 0
M  V30 6035 H 561.309 -1.42625 -2.89582 0
M  V30 6036 H 560.361 -3.45905 -1.58284 0
M  V30 6037 H 561.673 -4.44 -2.27299 0
M  V30 6038 H 560.827 -3.97601 -4.58256 0
M  V30 6039 H 559.566 -2.89546 -3.92446 0
M  V30 6040 H 558.571 -4.81662 -2.65107 0
M  V30 6041 H 559.796 -5.913 -3.33978 0
M  V30 6042 H 557.742 -4.32875 -4.92905 0
M  V30 6043 H 557.659 -6.02228 -4.57009 0
M  V30 6044 H 558.927 -5.42439 -5.59803 0
M  V30 6045 N 563.156 0.464375 -1.50603 0
M  V30 6046 C 564.104 1.58224 -1.70493 0
M  V30 6047 C 565.098 1.59492 -0.570836 0
M  V30 6048 O 566.304 1.63561 -0.751517 0
M  V30 6049 H 562.679 0.525161 -0.538247 0
M  V30 6050 H 564.65 1.38613 -2.64252 0
M  V30 6051 C 563.399 2.96113 -1.82243 0
M  V30 6052 H 562.722 2.95858 -2.68901 0
M  V30 6053 H 564.162 3.73769 -2.00182 0
M  V30 6054 C 562.621 3.31946 -0.575628 0
M  V30 6055 O 563.151 4.00708 0.282152 0
M  V30 6056 N 561.357 2.87436 -0.427665 0
M  V30 6057 H 560.904 2.31652 -1.12674 0
M  V30 6058 H 560.862 3.11776 0.405379 0
M  V30 6059 N 564.634 1.40294 0.718013 0
M  V30 6060 C 565.882 1.38167 1.47494 0
M  V30 6061 C 566.203 -0.01607 1.94993 0
M  V30 6062 O 565.473 -0.970396 1.70177 0
M  V30 6063 H 564.053 0.508505 0.547203 0
M  V30 6064 H 566.715 1.75324 0.851322 0
M  V30 6065 H 565.811 2.05503 2.34894 0
M  V30 6066 N 566.112 -0.949982 1.2575 0
M  V30 6067 C 567.523 -1.50989 1.09815 0
M  V30 6068 C 567.874 -1.93497 -0.324556 0
M  V30 6069 O 566.999 -1.79068 -1.21506 0
M  V30 6070 C 567.594 -2.74394 1.98729 0
M  V30 6071 C 566.153 -3.26682 1.86965 0
M  V30 6072 C 565.3 -1.99498 1.92603 0
M  V30 6073 H 568.251 -0.766387 1.38968 0
M  V30 6074 H 568.272 -3.48383 1.53001 0
M  V30 6075 H 567.784 -2.43425 3.02268 0
M  V30 6076 H 565.885 -3.62461 0.863279 0
M  V30 6077 H 565.998 -3.94383 2.72027 0
M  V30 6078 H 564.362 -2.15005 1.36546 0
M  V30 6079 H 565.145 -1.70871 2.97755 0
M  V30 6080 N 567.59 -1.07411 -1.15328 0
M  V30 6081 C 568.522 -0.652924 -2.19703 0
M  V30 6082 C 569.535 0.294869 -1.60107 0
M  V30 6083 O 570.724 0.0840932 -1.78302 0
M  V30 6084 C 567.824 0.061434 -3.38844 0
M  V30 6085 C 566.997 -0.902696 -4.27984 0
M  V30 6086 C 566.056 -0.225521 -5.25717 0
M  V30 6087 O 565.082 -0.86676 -5.62562 0
M  V30 6088 N 566.284 1.02858 -5.71315 0
M  V30 6089 H 569.049 -1.55081 -2.56457 0
M  V30 6090 H 566.61 -0.958883 -1.30449 0
M  V30 6091 H 568.602 0.525145 -4.01278 0
M  V30 6092 H 567.172 0.861269 -3.00501 0
M  V30 6093 H 566.392 -1.54551 -3.6264 0
M  V30 6094 H 567.68 -1.55636 -4.84412 0
M  V30 6095 H 567.078 1.56948 -5.43492 0
M  V30 6096 H 565.635 1.43596 -6.35786 0
M  V30 6097 N 569.068 1.32177 -0.85831 0
M  V30 6098 C 569.978 2.32561 -0.308606 0
M  V30 6099 C 570.994 1.64209 0.575462 0
M  V30 6100 O 572.17 1.95719 0.474961 0
M  V30 6101 C 569.235 3.43207 0.490909 0
M  V30 6102 C 568.296 4.27243 -0.419733 0
M  V30 6103 C 567.529 5.32605 0.341719 0
M  V30 6104 O 567.752 5.48332 1.57125 0
M  V30 6105 O 566.686 6.0118 -0.294379 0
M  V30 6106 H 570.512 2.81477 -1.14037 0
M  V30 6107 H 568.097 1.35866 -0.621349 0
M  V30 6108 H 569.979 4.10677 0.944574 0
M  V30 6109 H 568.654 2.96474 1.29941 0
M  V30 6110 H 567.561 3.62569 -0.921652 0
M  V30 6111 H 568.894 4.7751 -1.19352 0
M  V30 6112 N 570.547 0.616602 1.45037 0
M  V30 6113 C 571.494 -0.0969439 2.30596 0
M  V30 6114 C 572.464 -0.851151 1.42635 0
M  V30 6115 O 573.649 -0.835092 1.71554 0
M  V30 6116 C 570.789 -1.08234 3.27688 0
M  V30 6117 C 569.902 -0.328072 4.30752 0
M  V30 6118 C 569.037 -1.30399 5.14946 0
M  V30 6119 C 568.076 -0.538049 6.09731 0
M  V30 6120 N 567.213 -1.46371 6.86673 0
M  V30 6121 H 572.053 0.63864 2.91076 0
M  V30 6122 H 569.59 0.326733 1.43425 0
M  V30 6123 H 571.548 -1.66688 3.82454 0
M  V30 6124 H 570.178 -1.78523 2.68941 0
M  V30 6125 H 569.23 0.372136 3.78575 0
M  V30 6126 H 570.542 0.269142 4.98073 0
M  V30 6127 H 569.696 -1.96032 5.74157 0
M  V30 6128 H 568.435 -1.93514 4.47665 0
M  V30 6129 H 567.44 0.131852 5.49642 0
M  V30 6130 H 568.665 0.0881732 6.79043 0
M  V30 6131 H 566.611 -2.08233 6.22073 0
M  V30 6132 H 566.528 -0.920152 7.50379 0
M  V30 6133 H 567.796 -2.10932 7.50418 0
M  V30 6134 N 572.025 -1.5352 0.356285 0
M  V30 6135 C 573.302 -1.93405 -0.292223 0
M  V30 6136 C 573.682 -1.28901 -1.67176 0
M  V30 6137 O 573.03 -0.444632 -2.24132 0
M  V30 6138 C 573.24 -3.47223 -0.35175 0
M  V30 6139 C 574.588 -4.20389 -0.596534 0
M  V30 6140 O 575.612 -3.53554 -0.433344 0
M  V30 6141 O 574.471 -5.3881 -0.913589 0
M  V30 6142 H 571.565 -0.808666 -0.173172 0
M  V30 6143 H 574.111 -1.64713 0.408391 0
M  V30 6144 H 572.883 -3.86423 0.615841 0
M  V30 6145 H 572.506 -3.8212 -1.09864 0
M  V30 6146 N 573.503 -0.0852151 -1.57369 0
M  V30 6147 C 574.743 0.584297 -1.95871 0
M  V30 6148 C 575.107 1.6596 -0.965473 0
M  V30 6149 O 576.308 2.38561 -1.23862 0
M  V30 6150 C 574.579 1.13411 -3.38929 0
M  V30 6151 S 576.138 1.81687 -3.99419 0
M  V30 6152 H 572.956 0.19095 -0.684879 0
M  V30 6153 H 575.558 -0.162267 -1.94825 0
M  V30 6154 H 574.262 0.339845 -4.0899 0
M  V30 6155 H 573.793 1.91672 -3.43548 0
M  V30 6156 H 575.808 3.10037 -3.87417 0
M  V30 6157 N 574.981 1.5647 0.188427 0
M  V30 6158 C 576.258 1.71857 0.934058 0
M  V30 6159 C 576.638 0.641867 2.01105 0
M  V30 6160 O 575.986 -0.346098 2.25864 0
M  V30 6161 C 576.196 3.14431 1.5144 0
M  V30 6162 C 577.544 3.74869 1.99396 0
M  V30 6163 O 578.568 3.17601 1.61269 0
M  V30 6164 O 577.427 4.75387 2.69573 0
M  V30 6165 H 574.521 0.701186 0.438483 0
M  V30 6166 H 577.067 1.68768 0.177599 0
M  V30 6167 H 575.839 3.8427 0.738416 0
M  V30 6168 H 575.462 3.21775 2.33552 0
M  V30 6169 N 576.459 -0.456382 1.50847 0
M  V30 6170 C 577.389 -1.56025 1.73719 0
M  V30 6171 C 578.37 -1.5967 0.586473 0
M  V30 6172 O 579.555 -1.75702 0.827185 0
M  V30 6173 C 576.685 -2.94251 1.84483 0
M  V30 6174 C 575.639 -3.05471 2.99786 0
M  V30 6175 C 574.965 -4.45489 2.95709 0
M  V30 6176 C 576.265 -2.81318 4.40065 0
M  V30 6177 H 577.959 -1.37138 2.66146 0
M  V30 6178 H 575.505 -0.658299 1.28072 0
M  V30 6179 H 577.458 -3.71417 1.99067 0
M  V30 6180 H 576.182 -3.14328 0.886891 0
M  V30 6181 H 574.841 -2.30741 2.84876 0
M  V30 6182 H 574.489 -4.62505 1.97732 0
M  V30 6183 H 574.189 -4.53929 3.73125 0
M  V30 6184 H 575.713 -5.24655 3.12362 0
M  V30 6185 H 577.127 -3.48226 4.55425 0
M  V30 6186 H 575.524 -3.01188 5.19043 0
M  V30 6187 H 576.594 -1.7706 4.51418 0
M  V30 6188 N 577.937 -1.40673 -0.710563 0
M  V30 6189 C 579.183 -1.39428 -1.47267 0
M  V30 6190 C 579.516 0.00182129 -1.942 0
M  V30 6191 O 578.791 0.971387 -1.68506 0
M  V30 6192 C 579.074 -2.38812 -2.6952 0
M  V30 6193 C 578.927 -3.87467 -2.28449 0
M  V30 6194 C 580.246 -2.3566 -3.71689 0
M  V30 6195 H 577.365 -0.507768 -0.534173 0
M  V30 6196 H 580.007 -1.71843 -0.810547 0
M  V30 6197 H 578.157 -2.113 -3.26013 0
M  V30 6198 H 579.829 -4.25825 -1.77399 0
M  V30 6199 H 578.072 -4.03058 -1.60395 0
M  V30 6200 H 578.743 -4.5253 -3.16103 0
M  V30 6201 H 581.219 -2.6004 -3.24836 0
M  V30 6202 H 580.095 -3.07237 -4.54859 0
M  V30 6203 H 580.356 -1.36996 -4.20339 0
M  V30 6204 N 579.415 0.9433 -1.26252 0
M  V30 6205 C 580.692 1.66639 -1.02424 0
M  V30 6206 C 581.072 2.06335 0.446006 0
M  V30 6207 O 580.42 1.78551 1.42589 0
M  V30 6208 C 580.63 2.88019 -1.97094 0
M  V30 6209 C 581.978 3.59718 -2.25584 0
M  V30 6210 O 583.002 2.9812 -1.94943 0
M  V30 6211 O 581.861 4.7066 -2.77743 0
M  V30 6212 H 578.955 0.729643 -0.389294 0
M  V30 6213 H 581.501 0.995218 -1.37454 0
M  V30 6214 H 580.273 2.5556 -2.96319 0
M  V30 6215 H 579.896 3.62863 -1.62532 0
M  V30 6216 N 580.893 1.08022 1.14757 0
M  V30 6217 C 581.823 0.728248 2.21853 0
M  V30 6218 C 582.804 -0.287486 1.67653 0
M  V30 6219 O 583.989 -0.158727 1.9355 0
M  V30 6220 C 581.119 0.132549 3.47047 0
M  V30 6221 C 580.073 1.07619 4.14249 0
M  V30 6222 C 579.399 0.342907 5.33599 0
M  V30 6223 C 580.699 2.41268 4.63235 0
M  V30 6224 H 582.393 1.62365 2.51551 0
M  V30 6225 H 579.939 0.782125 1.20908 0
M  V30 6226 H 581.892 -0.125665 4.21213 0
M  V30 6227 H 580.616 -0.797971 3.16702 0
M  V30 6228 H 579.275 1.31944 3.42033 0
M  V30 6229 H 578.923 -0.59129 4.99513 0
M  V30 6230 H 578.623 0.971955 5.79506 0
M  V30 6231 H 580.147 0.0926538 6.1053 0
M  V30 6232 H 581.561 2.21232 5.28894 0
M  V30 6233 H 579.958 2.9983 5.19829 0
M  V30 6234 H 581.028 3.03079 3.78512 0
M  V30 6235 N 582.371 -1.3172 0.865308 0
M  V30 6236 C 583.648 -1.91574 0.394789 0
M  V30 6237 C 584.028 -1.78769 -1.12271 0
M  V30 6238 O 583.376 -1.19245 -1.94918 0
M  V30 6239 C 583.586 -3.37957 0.870982 0
M  V30 6240 C 584.934 -4.15073 0.894384 0
M  V30 6241 O 585.958 -3.4672 0.816325 0
M  V30 6242 O 584.817 -5.37151 1.00651 0
M  V30 6243 H 581.911 -0.818649 0.117229 0
M  V30 6244 H 584.457 -1.4042 0.952913 0
M  V30 6245 H 583.229 -3.41269 1.91444 0
M  V30 6246 H 582.852 -3.96534 0.290907 0
M  V30 6247 N 583.85 -0.624285 -1.44708 0
M  V30 6248 C 585.127 -0.0572781 -1.95516 0
M  V30 6249 C 585.507 1.41516 -1.56641 0
M  V30 6250 O 584.855 2.12614 -0.837111 0
M  V30 6251 C 585.065 -0.272944 -3.47931 0
M  V30 6252 C 586.413 -0.162529 -4.24289 0
M  V30 6253 O 587.437 -0.203946 -3.55616 0
M  V30 6254 O 586.296 -0.0616847 -5.46465 0
M  V30 6255 H 583.389 0.0262219 -0.826584 0
M  V30 6256 H 585.936 -0.695512 -1.54793 0
M  V30 6257 H 584.707 -1.29492 -3.69253 0
M  V30 6258 H 584.331 0.399756 -3.95585 0
M  V30 6259 N 585.328 1.53329 -0.364422 0
M  V30 6260 C 586.291 2.24323 0.470292 0
M  V30 6261 C 587.291 1.25068 1.01067 0
M  V30 6262 O 588.481 1.49354 0.896605 0
M  V30 6263 C 585.613 2.97908 1.65722 0
M  V30 6264 H 586.806 2.9952 -0.150917 0
M  V30 6265 H 584.359 1.55868 -0.116092 0
M  V30 6266 H 585.094 2.2695 2.31655 0
M  V30 6267 H 584.879 3.70732 1.27671 0
M  V30 6268 H 586.369 3.5188 2.24878 0
M  V30 6269 N 586.806 0.0935595 1.57322 0
M  V30 6270 C 588.031 -0.582324 1.99057 0
M  V30 6271 C 588.456 -1.61025 0.972242 0
M  V30 6272 O 587.814 -1.81202 -0.0594622 0
M  V30 6273 C 587.862 -1.20799 3.39765 0
M  V30 6274 O 586.966 -2.32382 3.40694 0
M  V30 6275 H 586.307 -0.147884 0.647323 0
M  V30 6276 H 588.837 0.174516 2.03854 0
M  V30 6277 H 588.847 -1.54966 3.77425 0
M  V30 6278 H 587.522 -0.454914 4.13405 0
M  V30 6279 H 586.099 -1.99845 3.14827 0
M  V30 6280 N 588.284 -1.56567 -0.180126 0
M  V30 6281 C 589.214 -1.98753 -1.22553 0
M  V30 6282 C 590.195 -0.86175 -1.46656 0
M  V30 6283 O 591.38 -1.12719 -1.58139 0
M  V30 6284 C 588.51 -2.33988 -2.56645 0
M  V30 6285 C 587.464 -3.49445 -2.47128 0
M  V30 6286 C 586.79 -3.70397 -3.8563 0
M  V30 6287 C 588.09 -4.83171 -1.98352 0
M  V30 6288 H 589.784 -2.86332 -0.874896 0
M  V30 6289 H 587.33 -1.37757 -0.419414 0
M  V30 6290 H 589.283 -2.62097 -3.29974 0
M  V30 6291 H 588.007 -1.43309 -2.93479 0
M  V30 6292 H 586.666 -3.2145 -1.76254 0
M  V30 6293 H 586.314 -2.77023 -4.19842 0
M  V30 6294 H 586.014 -4.48077 -3.80132 0
M  V30 6295 H 587.538 -4.00897 -4.60558 0
M  V30 6296 H 588.952 -5.10213 -2.61449 0
M  V30 6297 H 587.349 -5.64425 -2.03823 0
M  V30 6298 H 588.419 -4.75753 -0.937402 0
M  V30 6299 N 589.762 0.448376 -1.51087 0
M  V30 6300 C 591.173 1.0286 -1.5581 0
M  V30 6301 C 591.524 1.92583 -0.374989 0
M  V30 6302 O 590.649 2.10316 0.509533 0
M  V30 6303 C 591.244 1.87223 -2.8237 0
M  V30 6304 C 589.803 2.40314 -2.897 0
M  V30 6305 C 588.95 1.19238 -2.50355 0
M  V30 6306 H 591.901 0.230075 -1.57023 0
M  V30 6307 H 591.922 2.72553 -2.6551 0
M  V30 6308 H 591.434 1.21894 -3.68461 0
M  V30 6309 H 589.535 3.09129 -2.08014 0
M  V30 6310 H 589.648 2.73866 -3.93108 0
M  V30 6311 H 588.012 1.53428 -2.03303 0
M  V30 6312 H 588.795 0.555367 -3.38778 0
M  V30 6313 N 591.24 1.41047 0.703093 0
M  V30 6314 C 592.486 1.40207 1.46526 0
M  V30 6315 C 592.819 0.00847763 1.94198 0
M  V30 6316 O 592.094 -0.962437 1.69019 0
M  V30 6317 C 592.377 2.40238 2.6825 0
M  V30 6318 C 592.23 3.88674 2.26391 0
M  V30 6319 C 593.549 2.37627 3.70434 0
M  V30 6320 H 590.668 0.510594 0.531472 0
M  V30 6321 H 593.31 1.72271 0.801422 0
M  V30 6322 H 591.46 2.13026 3.24888 0
M  V30 6323 H 593.132 4.2676 1.75138 0
M  V30 6324 H 591.375 4.03903 1.58255 0
M  V30 6325 H 592.046 4.542 3.13698 0
M  V30 6326 H 594.522 2.61759 3.23452 0
M  V30 6327 H 593.398 3.09645 4.53223 0
M  V30 6328 H 593.659 1.39223 4.19606 0
M  V30 6329 N 592.718 -0.936591 1.26751 0
M  V30 6330 C 593.943 -1.72288 1.15462 0
M  V30 6331 C 594.368 -1.85915 -0.285887 0
M  V30 6332 O 593.726 -1.35272 -1.20711 0
M  V30 6333 C 593.774 -3.10503 1.83359 0
M  V30 6334 O 592.878 -3.96745 1.1255 0
M  V30 6335 H 592.219 -0.52843 0.402067 0
M  V30 6336 H 594.749 -1.17271 1.67656 0
M  V30 6337 H 594.759 -3.60867 1.90365 0
M  V30 6338 H 593.434 -2.99901 2.88153 0
M  V30 6339 H 592.011 -3.55191 1.13551 0
M  V30 6340 N 594.196 -1.08629 -1.14182 0
M  V30 6341 C 595.473 -0.73002 -1.81466 0
M  V30 6342 C 595.853 0.785996 -1.95922 0
M  V30 6343 O 595.201 1.70535 -1.52086 0
M  V30 6344 C 595.411 -1.45957 -3.17014 0
M  V30 6345 C 596.759 -1.62008 -3.92477 0
M  V30 6346 O 597.783 -1.42141 -3.26611 0
M  V30 6347 O 596.642 -1.94806 -5.106 0
M  V30 6348 H 593.736 -0.261307 -0.784632 0
M  V30 6349 H 596.282 -1.188 -1.2118 0
M  V30 6350 H 595.054 -2.49221 -3.01669 0
M  V30 6351 H 594.677 -0.993222 -3.84995 0
M  V30 6352 N 595.674 1.31259 -0.872281 0
M  V30 6353 C 596.92 1.96913 -0.485083 0
M  V30 6354 C 597.253 1.68774 0.960667 0
M  V30 6355 O 596.528 0.985495 1.67685 0
M  V30 6356 C 596.811 3.52299 -0.745502 0
M  V30 6357 C 596.664 3.90002 -2.24095 0
M  V30 6358 C 597.983 4.39582 -0.213516 0
M  V30 6359 H 595.102 0.715252 -0.177716 0
M  V30 6360 H 597.744 1.55347 -1.09395 0
M  V30 6361 H 595.894 3.87835 -0.227276 0
M  V30 6362 H 597.566 3.64555 -2.82661 0
M  V30 6363 H 595.809 3.38526 -2.71261 0
M  V30 6364 H 596.48 4.98352 -2.37381 0
M  V30 6365 H 598.956 4.10882 -0.656902 0
M  V30 6366 H 597.832 5.47251 -0.42516 0
M  V30 6367 H 598.093 4.33158 0.884666 0
M  V30 6368 O 597.191 0.771905 1.41859 0
M  V30 6369 H 597.882 0.335971 1.90764 0
M  V30 END ATOM
M  V30 BEGIN BOND
M  V30 END BOND
M  V30 END CTAB
M  END
$$$$
