drugbank_target|Q9BQ31 Potassium voltage-gated channel subfamily S member 3 (DB00228; DB01069; DB01110)
 OpenBabel12092121213D

  0  0  0     0  0            999 V3000
M  V30 BEGIN CTAB
M  V30 COUNTS 7796 7883 0 0 0
M  V30 BEGIN ATOM
M  V30 1 H -0.908 1.98254 -0.117106 0
M  V30 2 N 0 1.576 0 0
M  V30 3 C 0.933 2.03868 1.02534 0
M  V30 4 C 1.911 0.928543 1.3348 0
M  V30 5 O 3.095 1.19667 1.45644 0
M  V30 6 C 0.222 2.43627 2.35294 0
M  V30 7 C -0.732 3.65373 2.2001 0
M  V30 8 S 0.101 5.13292 1.52614 0
M  V30 9 C 1.257 5.56322 2.86805 0
M  V30 10 H 1.49 2.90518 0.631377 0
M  V30 11 H -0.977 1.52953 0.210867 0
M  V30 12 H 0.981 2.67203 3.11629 0
M  V30 13 H -0.358 1.57376 2.7183 0
M  V30 14 H -1.165 3.90944 3.18086 0
M  V30 15 H -1.563 3.418 1.51819 0
M  V30 16 H 0.729 5.58782 3.83104 0
M  V30 17 H 1.672 6.56266 2.65933 0
M  V30 18 H 2.08 4.83886 2.90714 0
M  V30 19 N 1.4781 -0.272755 1.55222 0
M  V30 20 C 2.7241 -1.00581 1.761 0
M  V30 21 C 3.0571 -1.85932 0.560625 0
M  V30 22 O 2.3321 -1.89416 -0.441801 0
M  V30 23 C 2.6151 -1.88816 3.06628 0
M  V30 24 C 2.4681 -1.06457 4.37021 0
M  V30 25 C 3.7871 -2.8752 3.33197 0
M  V30 26 H 0.9061 -0.364244 0.640699 0
M  V30 27 H 3.5481 -0.278189 1.87952 0
M  V30 28 H 1.6981 -2.50856 2.96654 0
M  V30 29 H 3.3701 -0.464863 4.58952 0
M  V30 30 H 1.6131 -0.368043 4.32236 0
M  V30 31 H 2.2841 -1.71514 5.24678 0
M  V30 32 H 4.7601 -2.35615 3.42965 0
M  V30 33 H 3.6361 -3.46399 4.25792 0
M  V30 34 H 3.8971 -3.62657 2.52849 0
M  V30 35 N 2.9562 -1.48159 -0.537278 0
M  V30 36 C 4.2032 -1.55804 -1.29349 0
M  V30 37 C 4.5312 -0.228802 -1.9315 0
M  V30 38 O 3.7862 0.780242 -1.79473 0
M  V30 39 C 4.0852 -2.63956 -2.40961 0
M  V30 40 C 3.7512 -4.0662 -1.94861 0
M  V30 41 C 2.4132 -4.45452 -1.82006 0
M  V30 42 C 4.7652 -4.96055 -1.59933 0
M  V30 43 C 2.0932 -5.71531 -1.32547 0
M  V30 44 C 4.4452 -6.22617 -1.11939 0
M  V30 45 C 3.1092 -6.60312 -0.976951 0
M  V30 46 H 2.3792 -0.570129 -0.473322 0
M  V30 47 H 5.0262 -1.81845 -0.600372 0
M  V30 48 H 3.3312 -2.31747 -3.15912 0
M  V30 49 H 5.0282 -2.67089 -2.99107 0
M  V30 50 H 1.6182 -3.75949 -2.05815 0
M  V30 51 H 5.8022 -4.66738 -1.68728 0
M  V30 52 H 1.0582 -5.99468 -1.202 0
M  V30 53 H 5.2322 -6.91318 -0.839811 0
M  V30 54 H 2.8592 -7.57895 -0.591501 0
M  V30 55 N 4.4343 0.785586 -1.36625 0
M  V30 56 C 5.6823 1.54057 -1.30808 0
M  V30 57 C 6.0033 1.94683 0.111157 0
M  V30 58 O 5.2733 1.65241 1.05224 0
M  V30 59 H 3.8533 0.571354 -0.481211 0
M  V30 60 H 6.5153 0.935821 -1.70963 0
M  V30 61 H 5.6113 2.44637 -1.93801 0
M  V30 62 N 5.9124 1.20967 1.01018 0
M  V30 63 C 6.8224 0.980157 2.13143 0
M  V30 64 C 7.8384 -0.0660665 1.73875 0
M  V30 65 O 9.0144 0.122821 2.01025 0
M  V30 66 C 6.0794 0.54216 3.42435 0
M  V30 67 C 5.1404 1.65999 3.95908 0
M  V30 68 C 4.3734 1.2428 5.19028 0
M  V30 69 O 4.5964 0.114196 5.70286 0
M  V30 70 O 3.5304 2.05271 5.65816 0
M  V30 71 H 7.3564 1.91913 2.35379 0
M  V30 72 H 4.9414 0.994099 1.11526 0
M  V30 73 H 6.8234 0.30744 4.20277 0
M  V30 74 H 5.4984 -0.36815 3.216 0
M  V30 75 H 4.4054 1.94906 3.19316 0
M  V30 76 H 5.7384 2.54753 4.21143 0
M  V30 77 N 7.3905 -1.2043 1.01659 0
M  V30 78 C 8.6375 -1.89797 0.705917 0
M  V30 79 C 8.9655 -1.78848 -0.764439 0
M  V30 80 O 8.2205 -1.16694 -1.57102 0
M  V30 81 C 8.5195 -3.40464 1.08714 0
M  V30 82 C 8.1855 -3.71614 2.5537 0
M  V30 83 C 6.8475 -3.79826 2.95441 0
M  V30 84 C 9.1995 -3.85915 3.50313 0
M  V30 85 C 6.5275 -3.99797 4.29394 0
M  V30 86 C 8.8795 -4.07396 4.83954 0
M  V30 87 C 7.5435 -4.13837 5.23732 0
M  V30 88 H 6.8135 -0.694518 0.258313 0
M  V30 89 H 9.4605 -1.42691 1.27717 0
M  V30 90 H 7.7655 -3.89385 0.434309 0
M  V30 91 H 9.4625 -3.92433 0.824461 0
M  V30 92 H 6.0525 -3.65822 2.23321 0
M  V30 93 H 10.2365 -3.78926 3.20513 0
M  V30 94 H 5.4925 -4.03018 4.59768 0
M  V30 95 H 9.6665 -4.17404 5.57447 0
M  V30 96 H 7.2935 -4.29064 6.27541 0
M  V30 97 N 8.8686 -0.792821 -1.36206 0
M  V30 98 C 10.1156 -0.366786 -1.99151 0
M  V30 99 C 10.4436 1.06243 -1.62919 0
M  V30 100 O 9.6986 1.74927 -0.877442 0
M  V30 101 C 9.9976 -0.481501 -3.54142 0
M  V30 102 C 9.6636 -1.87202 -4.10203 0
M  V30 103 C 8.3256 -2.25248 -4.25226 0
M  V30 104 C 10.6776 -2.78237 -4.40719 0
M  V30 105 C 8.0056 -3.53723 -4.68078 0
M  V30 106 C 10.3576 -4.06144 -4.85005 0
M  V30 107 C 9.0216 -4.44207 -4.98234 0
M  V30 108 H 8.2916 -0.134217 -0.728743 0
M  V30 109 H 10.9386 -1.01094 -1.62641 0
M  V30 110 H 9.2436 0.246146 -3.91026 0
M  V30 111 H 10.9406 -0.132844 -4.0078 0
M  V30 112 H 7.5306 -1.56639 -3.98951 0
M  V30 113 H 11.7146 -2.50097 -4.28679 0
M  V30 114 H 6.9706 -3.8308 -4.76508 0
M  V30 115 H 11.1446 -4.76796 -5.07581 0
M  V30 116 H 8.7716 -5.43814 -5.31197 0
M  V30 117 N 10.3467 1.47872 -0.545128 0
M  V30 118 C 11.2967 2.26842 0.229456 0
M  V30 119 C 12.2807 1.33626 0.896267 0
M  V30 120 O 13.4727 1.58063 0.79657 0
M  V30 121 C 10.6017 3.19089 1.26638 0
M  V30 122 C 9.6877 4.19783 0.603598 0
M  V30 123 N 10.0787 5.0479 -0.319405 0
M  V30 124 C 8.3767 4.3765 0.858989 0
M  V30 125 C 9.0777 5.77433 -0.703241 0
M  V30 126 N 8.0537 5.43566 -0.0608309 0
M  V30 127 H 11.8557 2.89947 -0.480391 0
M  V30 128 H 9.3697 1.58263 -0.364209 0
M  V30 129 H 11.3667 3.74337 1.83515 0
M  V30 130 H 10.0267 2.5754 1.97745 0
M  V30 131 H 11.0377 5.13244 -0.692889 0
M  V30 132 H 7.7147 3.87281 1.55948 0
M  V30 133 H 9.1047 6.55824 -1.46098 0
M  V30 134 N 11.8248 0.280983 1.55075 0
M  V30 135 C 13.2408 -0.0729964 1.59433 0
M  V30 136 C 13.4408 -1.5411 1.29817 0
M  V30 137 O 12.4968 -2.29086 1.06187 0
M  V30 138 C 13.8098 0.306921 2.9913 0
M  V30 139 C 15.3578 0.254023 3.11968 0
M  V30 140 C 15.8328 0.608467 4.5394 0
M  V30 141 N 17.3238 0.560241 4.59799 0
M  V30 142 C 18.0588 0.80722 5.6769 0
M  V30 143 N 17.5548 1.11912 6.83701 0
M  V30 144 N 19.3478 0.735623 5.57266 0
M  V30 145 H 11.4988 1.238 1.7259 0
M  V30 146 H 13.7618 0.500547 0.805082 0
M  V30 147 H 13.4678 1.32816 3.25657 0
M  V30 148 H 13.3418 -0.349363 3.75579 0
M  V30 149 H 15.7288 -0.75794 2.852 0
M  V30 150 H 15.8098 0.944649 2.37718 0
M  V30 151 H 15.4538 1.61814 4.81434 0
M  V30 152 H 15.3838 -0.104013 5.26497 0
M  V30 153 H 17.8748 0.329288 3.76463 0
M  V30 154 H 18.1878 1.29409 7.61888 0
M  V30 155 H 16.5328 1.15695 6.85303 0
M  V30 156 H 19.7238 0.491752 4.6551 0
M  V30 157 H 19.8968 0.931482 6.4127 0
M  V30 158 N 13.3029 -1.57598 0.00835791 0
M  V30 159 C 14.7139 -1.7892 -0.53333 0
M  V30 160 C 15.0649 -0.916609 -1.73473 0
M  V30 161 O 14.1899 -0.121336 -2.1606 0
M  V30 162 C 14.7849 -3.24488 -0.974313 0
M  V30 163 C 13.3439 -3.46878 -1.46125 0
M  V30 164 C 12.4909 -2.74157 -0.416302 0
M  V30 165 H 15.4419 -1.56958 0.234495 0
M  V30 166 H 15.4629 -3.3306 -1.83988 0
M  V30 167 H 14.9749 -3.87972 -0.099718 0
M  V30 168 H 13.0759 -2.8862 -2.35646 0
M  V30 169 H 13.1889 -4.55572 -1.48295 0
M  V30 170 H 11.5529 -2.39022 -0.87981 0
M  V30 171 H 12.3359 -3.40345 0.44947 0
M  V30 172 N 14.781 0.264519 -1.55364 0
M  V30 173 C 16.029 0.993021 -1.76021 0
M  V30 174 C 16.35 1.86511 -0.569099 0
M  V30 175 O 15.62 1.91438 0.415735 0
M  V30 176 H 14.2 0.369639 -0.649135 0
M  V30 177 H 16.862 0.286707 -1.9278 0
M  V30 178 H 15.958 1.62502 -2.66457 0
M  V30 179 N 16.2591 1.48442 0.529413 0
M  V30 180 C 17.1911 1.59095 1.64989 0
M  V30 181 C 18.2041 0.475212 1.5571 0
M  V30 182 O 19.3931 0.746081 1.6216 0
M  V30 183 C 16.4931 1.50518 3.0364 0
M  V30 184 C 15.6661 2.77142 3.38395 0
M  V30 185 C 14.7251 2.62012 4.56329 0
M  V30 186 O 13.7511 3.35898 4.59522 0
M  V30 187 N 14.9531 1.71667 5.54536 0
M  V30 188 H 17.7181 2.55723 1.56287 0
M  V30 189 H 15.2791 1.45173 0.716697 0
M  V30 190 H 17.2711 1.38091 3.80412 0
M  V30 191 H 15.8411 0.618627 3.06418 0
M  V30 192 H 15.0611 3.0413 2.50796 0
M  V30 193 H 16.3491 3.61146 3.58401 0
M  V30 194 H 15.7471 1.10841 5.54735 0
M  V30 195 H 14.3041 1.65178 6.30523 0
M  V30 196 N 17.7372 -0.778329 1.37039 0
M  V30 197 C 19.0142 -1.52551 1.22424 0
M  V30 198 C 19.3942 -2.10288 -0.184964 0
M  V30 199 O 18.7422 -1.94953 -1.19187 0
M  V30 200 C 18.9522 -2.61164 2.31504 0
M  V30 201 C 20.3002 -3.28746 2.68721 0
M  V30 202 O 21.3242 -2.71455 2.30631 0
M  V30 203 O 20.1832 -4.3231 3.3432 0
M  V30 204 H 17.2772 -0.675343 0.477326 0
M  V30 205 H 19.8232 -0.815859 1.48801 0
M  V30 206 H 18.5952 -2.16574 3.25901 0
M  V30 207 H 18.2182 -3.39737 2.06554 0
M  V30 208 N 19.2153 -1.21501 -1.00376 0
M  V30 209 C 20.1253 -0.991447 -2.12621 0
M  V30 210 C 21.1413 0.0568446 -1.73907 0
M  V30 211 O 22.3173 -0.13348 -2.00957 0
M  V30 212 C 19.3823 -0.560312 -3.42142 0
M  V30 213 C 18.4433 -1.68096 -3.95022 0
M  V30 214 C 17.6763 -1.2703 -5.18362 0
M  V30 215 O 17.8993 -0.144438 -5.70217 0
M  V30 216 O 16.8333 -2.08269 -5.64719 0
M  V30 217 H 20.6593 -1.93158 -2.34358 0
M  V30 218 H 18.2443 -0.999999 -1.10997 0
M  V30 219 H 20.1263 -0.329724 -4.20108 0
M  V30 220 H 18.8013 0.351089 -3.2179 0
M  V30 221 H 17.7083 -1.96597 -3.18278 0
M  V30 222 H 19.0413 -2.56983 -4.19786 0
M  V30 223 N 20.6934 1.19889 -1.02296 0
M  V30 224 C 21.6034 2.26571 -0.608508 0
M  V30 225 C 22.6194 1.70299 0.356964 0
M  V30 226 O 23.7954 2.00235 0.216326 0
M  V30 227 C 20.8604 3.46677 0.0402814 0
M  V30 228 C 19.9214 4.18153 -0.97194 0
M  V30 229 C 19.1544 5.32525 -0.354016 0
M  V30 230 O 19.3774 5.64112 0.844604 0
M  V30 231 O 18.3114 5.92242 -1.07391 0
M  V30 232 H 22.1374 2.64251 -1.49684 0
M  V30 233 H 19.7224 1.26629 -0.792809 0
M  V30 234 H 21.6044 4.19475 0.402324 0
M  V30 235 H 20.2794 3.10858 0.902707 0
M  V30 236 H 19.1864 3.47499 -1.38546 0
M  V30 237 H 20.5194 4.57927 -1.80454 0
M  V30 238 N 22.1715 0.800033 1.35784 0
M  V30 239 C 23.1015 0.220184 2.3246 0
M  V30 240 C 24.0825 -0.65073 1.57161 0
M  V30 241 O 25.2675 -0.582359 1.85263 0
M  V30 242 C 22.3975 -0.637353 3.41402 0
M  V30 243 C 21.3515 0.134531 4.27789 0
M  V30 244 C 20.6775 -0.844285 5.27992 0
M  V30 245 C 21.9775 1.32979 5.05088 0
M  V30 246 H 23.6715 1.02787 2.81203 0
M  V30 247 H 21.2175 0.495717 1.35199 0
M  V30 248 H 23.1705 -1.05302 4.08031 0
M  V30 249 H 21.8945 -1.47785 2.91251 0
M  V30 250 H 20.5535 0.531296 3.6273 0
M  V30 251 H 20.2015 -1.68011 4.74111 0
M  V30 252 H 19.9015 -0.332184 5.8666 0
M  V30 253 H 21.4255 -1.2583 5.97494 0
M  V30 254 H 22.8395 0.98934 5.64699 0
M  V30 255 H 21.2365 1.77593 5.7322 0
M  V30 256 H 22.3065 2.11978 4.36111 0
M  V30 257 N 23.6496 -1.47581 0.552962 0
M  V30 258 C 24.8956 -2.02782 0.0273648 0
M  V30 259 C 25.2286 -1.42687 -1.31734 0
M  V30 260 O 24.5036 -0.580897 -1.85623 0
M  V30 261 C 24.7866 -3.60031 -0.0702371 0
M  V30 262 C 24.6396 -4.30566 1.30126 0
M  V30 263 C 25.9586 -4.33028 -0.785771 0
M  V30 264 H 23.0776 -0.736912 0.0114185 0
M  V30 265 H 25.7196 -1.76056 0.714432 0
M  V30 266 H 23.8696 -3.82932 -0.655382 0
M  V30 267 H 25.5416 -4.19018 1.92929 0
M  V30 268 H 23.7846 -3.91086 1.87709 0
M  V30 269 H 24.4556 -5.39114 1.18573 0
M  V30 270 H 26.9316 -4.15095 -0.288982 0
M  V30 271 H 25.8076 -5.42695 -0.823013 0
M  V30 272 H 26.0686 -4.01945 -1.841 0
M  V30 273 N 25.1277 -0.289203 -1.54924 0
M  V30 274 C 26.0757 0.607966 -2.24514 0
M  V30 275 C 27.0697 1.14655 -1.24702 0
M  V30 276 O 28.2757 1.09856 -1.4259 0
M  V30 277 H 24.6507 0.21464 -0.720718 0
M  V30 278 H 26.6217 -0.00164182 -2.984 0
M  V30 279 C 25.3707 1.77406 -2.99036 0
M  V30 280 H 24.6937 1.36884 -3.75637 0
M  V30 281 H 26.1337 2.37814 -3.51028 0
M  V30 282 C 24.5927 2.67107 -2.05318 0
M  V30 283 O 25.1227 3.6787 -1.61353 0
M  V30 284 N 23.3287 2.34582 -1.71521 0
M  V30 285 H 22.8757 1.52688 -2.07471 0
M  V30 286 H 22.8337 2.94867 -1.0909 0
M  V30 287 N 26.6058 1.57591 -0.0167156 0
M  V30 288 C 27.5358 2.12496 0.967858 0
M  V30 289 C 28.5168 1.03807 1.34752 0
M  V30 290 O 29.7018 1.31577 1.42833 0
M  V30 291 C 26.8318 2.64194 2.25431 0
M  V30 292 C 25.7858 3.77559 2.01576 0
M  V30 293 C 25.1118 4.15636 3.36379 0
M  V30 294 C 26.4118 5.04151 1.36489 0
M  V30 295 H 28.1058 2.95013 0.510643 0
M  V30 296 H 25.6518 1.41915 0.244181 0
M  V30 297 H 27.6048 3.01236 2.94678 0
M  V30 298 H 26.3288 1.78821 2.73296 0
M  V30 299 H 24.9878 3.40937 1.34751 0
M  V30 300 H 24.6358 3.27263 3.81979 0
M  V30 301 H 24.3358 4.92022 3.21229 0
M  V30 302 H 25.8598 4.5525 4.06915 0
M  V30 303 H 27.2738 5.38857 1.95718 0
M  V30 304 H 25.6708 5.85453 1.31776 0
M  V30 305 H 26.7408 4.83733 0.336219 0
M  V30 306 N 28.0839 -0.256276 1.55502 0
M  V30 307 C 29.0319 -1.33694 1.90338 0
M  V30 308 C 30.0259 -1.50299 0.781441 0
M  V30 309 O 31.2319 -1.51885 0.965966 0
M  V30 310 H 27.6069 -0.447483 0.60437 0
M  V30 311 H 29.5779 -1.01574 2.8058 0
M  V30 312 C 28.3269 -2.68724 2.20642 0
M  V30 313 H 27.6499 -2.56743 3.06469 0
M  V30 314 H 29.0899 -3.43237 2.48926 0
M  V30 315 C 27.5489 -3.21101 1.01959 0
M  V30 316 O 28.0789 -4.0084 0.262762 0
M  V30 317 N 26.2849 -2.79003 0.812746 0
M  V30 318 H 25.8319 -2.14271 1.42989 0
M  V30 319 H 25.7899 -3.14393 0.0203076 0
M  V30 320 N 29.562 -1.4872 -0.521534 0
M  V30 321 C 30.808 -1.574 -1.27879 0
M  V30 322 C 31.141 -0.250817 -1.92573 0
M  V30 323 O 30.416 0.743934 -1.79711 0
M  V30 324 C 30.699 -2.71843 -2.36164 0
M  V30 325 C 30.552 -4.13893 -1.76105 0
M  V30 326 C 31.871 -2.82008 -3.37875 0
M  V30 327 H 28.99 -0.572941 -0.463581 0
M  V30 328 H 31.632 -1.80927 -0.580119 0
M  V30 329 H 29.782 -2.51914 -2.95756 0
M  V30 330 H 31.454 -4.45284 -1.20499 0
M  V30 331 H 29.697 -4.20498 -1.06601 0
M  V30 332 H 30.368 -4.89804 -2.5455 0
M  V30 333 H 32.844 -3.00086 -2.88249 0
M  V30 334 H 31.72 -3.63796 -4.11028 0
M  V30 335 H 31.981 -1.90511 -3.98946 0
M  V30 336 N 31.0401 0.771051 -1.3745 0
M  V30 337 C 32.2881 1.52661 -1.32435 0
M  V30 338 C 32.6091 1.9479 0.0905024 0
M  V30 339 O 31.8791 1.66348 1.03466 0
M  V30 340 H 30.4591 0.566218 -0.487244 0
M  V30 341 H 33.1211 0.917636 -1.71946 0
M  V30 342 H 32.2171 2.42568 -1.96385 0
M  V30 343 N 32.5182 1.22032 0.997298 0
M  V30 344 C 33.7662 1.04016 1.73278 0
M  V30 345 C 34.0872 -0.426255 1.90284 0
M  V30 346 O 33.3572 -1.30694 1.45931 0
M  V30 347 H 31.9372 0.381897 0.642 0
M  V30 348 H 34.5992 1.5347 1.20137 0
M  V30 349 H 33.6952 1.51441 2.72896 0
M  V30 350 N 33.9963 -1.19345 1.0293 0
M  V30 351 C 35.2433 -1.89038 0.726008 0
M  V30 352 C 35.5713 -1.79649 -0.745427 0
M  V30 353 O 34.8263 -1.18354 -1.55855 0
M  V30 354 C 35.1253 -3.39292 1.12319 0
M  V30 355 C 34.7913 -3.68885 2.59297 0
M  V30 356 C 33.4533 -3.76671 2.99453 0
M  V30 357 C 35.8053 -3.82178 3.54386 0
M  V30 358 C 33.1333 -3.9522 4.33611 0
M  V30 359 C 35.4853 -4.0224 4.88248 0
M  V30 360 C 34.1493 -4.08259 5.28092 0
M  V30 361 H 33.4193 -0.691739 0.265665 0
M  V30 362 H 36.0663 -1.41328 1.29223 0
M  V30 363 H 34.3713 -3.88903 0.475584 0
M  V30 364 H 36.0683 -3.91536 0.866037 0
M  V30 365 H 32.6583 -3.63433 2.27189 0
M  V30 366 H 36.8423 -3.75505 3.24514 0
M  V30 367 H 32.0983 -3.98119 4.64016 0
M  V30 368 H 36.2723 -4.11468 5.61843 0
M  V30 369 H 33.8993 -4.22384 6.32057 0
M  V30 370 N 35.4744 -0.807222 -1.35358 0
M  V30 371 C 36.4214 -0.216037 -2.29787 0
M  V30 372 C 37.3914 0.650278 -1.52842 0
M  V30 373 O 38.5764 0.595227 -1.81278 0
M  V30 374 C 35.7164 0.628893 -3.39321 0
M  V30 375 C 34.8294 -0.257927 -4.31229 0
M  V30 376 C 33.9644 0.595069 -5.27856 0
M  V30 377 C 33.0034 -0.292111 -6.11403 0
M  V30 378 N 32.1404 0.520895 -7.00165 0
M  V30 379 H 36.9804 -1.02671 -2.79755 0
M  V30 380 H 34.5174 -0.517839 -1.37684 0
M  V30 381 H 36.4754 1.13393 -4.01494 0
M  V30 382 H 35.1054 1.40482 -2.90628 0
M  V30 383 H 34.1574 -0.881076 -3.70056 0
M  V30 384 H 35.4694 -0.940759 -4.89848 0
M  V30 385 H 34.6234 1.16522 -5.95405 0
M  V30 386 H 33.3624 1.31146 -4.69736 0
M  V30 387 H 32.3674 -0.874525 -5.428 0
M  V30 388 H 33.5924 -1.00638 -6.71602 0
M  V30 389 H 31.5384 1.22125 -6.44532 0
M  V30 390 H 31.4554 -0.103877 -7.55929 0
M  V30 391 H 32.7234 1.0743 -7.72062 0
M  V30 392 N 36.9525 1.47285 -0.560781 0
M  V30 393 C 37.8845 2.28118 0.222438 0
M  V30 394 C 38.8975 1.37219 0.876056 0
M  V30 395 O 40.0865 1.62011 0.749307 0
M  V30 396 C 37.1865 3.1159 1.33285 0
M  V30 397 C 36.3595 4.30473 0.77534 0
M  V30 398 C 35.4185 4.95513 1.77069 0
M  V30 399 O 34.4445 5.53792 1.31539 0
M  V30 400 N 35.6465 4.90531 3.10418 0
M  V30 401 H 38.4115 2.95976 -0.470958 0
M  V30 402 H 35.9725 1.56955 -0.39709 0
M  V30 403 H 37.9645 3.51967 1.99752 0
M  V30 404 H 36.5345 2.45951 1.92943 0
M  V30 405 H 35.7545 3.94144 -0.0662113 0
M  V30 406 H 37.0425 5.07362 0.382272 0
M  V30 407 H 36.4405 4.44389 3.5005 0
M  V30 408 H 34.9975 5.34917 3.72434 0
M  V30 409 N 38.4306 0.297415 1.54768 0
M  V30 410 C 39.6556 -0.318435 2.04941 0
M  V30 411 C 40.0806 -1.4701 1.17345 0
M  V30 412 O 39.4386 -1.80436 0.176758 0
M  V30 413 C 39.4866 -0.755749 3.52592 0
M  V30 414 O 38.5906 -1.86088 3.68028 0
M  V30 415 H 37.9316 -0.062421 0.661059 0
M  V30 416 H 40.4616 0.438215 1.99852 0
M  V30 417 H 40.4716 -1.04552 3.94376 0
M  V30 418 H 39.1466 0.0867233 4.1581 0
M  V30 419 H 37.7236 -1.57193 3.38149 0
M  V30 420 N 39.9087 -1.5758 0.0250728 0
M  V30 421 C 41.1547 -1.91917 -0.655413 0
M  V30 422 C 41.4877 -0.901433 -1.72011 0
M  V30 423 O 40.7627 0.0764069 -1.9435 0
M  V30 424 C 41.0457 -3.36751 -1.27558 0
M  V30 425 C 40.8987 -4.49258 -0.220719 0
M  V30 426 C 42.2177 -3.81469 -2.19475 0
M  V30 427 H 39.3367 -0.697925 -0.23679 0
M  V30 428 H 41.9787 -1.89825 0.0815036 0
M  V30 429 H 40.1287 -3.38664 -1.90365 0
M  V30 430 H 41.8007 -4.59478 0.409601 0
M  V30 431 H 40.0437 -4.31415 0.454264 0
M  V30 432 H 40.7147 -5.47618 -0.694175 0
M  V30 433 H 43.1907 -3.81266 -1.66659 0
M  V30 434 H 42.0667 -4.83512 -2.59822 0
M  V30 435 H 42.3277 -3.16744 -3.08424 0
M  V30 436 N 41.3868 0.248026 -1.55636 0
M  V30 437 C 42.6638 0.998988 -1.68165 0
M  V30 438 C 43.0438 2.03409 -0.564621 0
M  V30 439 O 42.3918 2.24378 0.432076 0
M  V30 440 C 42.6018 1.63334 -3.0842 0
M  V30 441 C 43.9498 2.13562 -3.66983 0
M  V30 442 O 44.9738 1.73277 -3.11213 0
M  V30 443 O 43.8328 2.87526 -4.64749 0
M  V30 444 H 40.9268 0.464933 -0.683935 0
M  V30 445 H 43.4728 0.241902 -1.67967 0
M  V30 446 H 42.2448 0.884583 -3.8117 0
M  V30 447 H 41.8678 2.45666 -3.12624 0
M  V30 448 N 42.8649 1.48995 0.513639 0
M  V30 449 C 43.7969 1.60836 1.63293 0
M  V30 450 C 44.8099 0.491701 1.55197 0
M  V30 451 O 45.9989 0.763238 1.6136 0
M  V30 452 C 43.0989 1.53731 3.02027 0
M  V30 453 C 42.2719 2.80715 3.35437 0
M  V30 454 C 41.3309 2.66837 4.53525 0
M  V30 455 O 40.3569 3.40753 4.55934 0
M  V30 456 N 41.5589 1.77539 5.52684 0
M  V30 457 H 44.3239 2.57366 1.53566 0
M  V30 458 H 41.8849 1.45925 0.701259 0
M  V30 459 H 43.8769 1.42118 3.78926 0
M  V30 460 H 42.4469 0.651092 3.05744 0
M  V30 461 H 41.6669 3.06772 2.47557 0
M  V30 462 H 42.9549 3.64927 3.54551 0
M  V30 463 H 42.3529 1.16719 5.53528 0
M  V30 464 H 40.9099 1.71856 6.28736 0
M  V30 465 N 44.343 -0.763751 1.37857 0
M  V30 466 C 45.568 -1.55805 1.36893 0
M  V30 467 C 45.993 -1.88054 -0.0416135 0
M  V30 468 O 45.351 -1.49825 -1.02089 0
M  V30 469 C 45.399 -2.84012 2.22192 0
M  V30 470 O 44.503 -3.78732 1.63204 0
M  V30 471 H 43.844 -0.471638 0.46739 0
M  V30 472 H 46.374 -0.944657 1.81487 0
M  V30 473 H 46.384 -3.33037 2.35691 0
M  V30 474 H 45.059 -2.59869 3.24716 0
M  V30 475 H 43.636 -3.37402 1.58791 0
M  V30 476 N 45.8211 -1.22559 -0.990812 0
M  V30 477 C 47.0491 -1.07779 -1.76611 0
M  V30 478 C 47.4641 0.371513 -1.85109 0
M  V30 479 O 46.8211 1.25737 -1.32274 0
M  V30 480 C 46.8721 -1.68512 -3.19822 0
M  V30 481 O 46.5931 -3.07774 -3.1178 0
M  V30 482 C 48.0941 -1.59035 -4.13791 0
M  V30 483 H 45.3141 -0.377729 -0.554583 0
M  V30 484 H 47.8581 -1.62195 -1.24551 0
M  V30 485 H 46.0131 -1.18154 -3.68942 0
M  V30 486 H 46.4271 -3.37062 -4.01858 0
M  V30 487 H 47.9011 -2.0625 -5.1202 0
M  V30 488 H 48.3781 -0.547273 -4.35777 0
M  V30 489 H 48.9841 -2.08709 -3.70568 0
M  V30 490 N 47.2992 1.18797 -1.03562 0
M  V30 491 C 48.2292 2.24472 -0.643019 0
M  V30 492 C 49.2102 1.66433 0.351283 0
M  V30 493 O 50.3952 1.92803 0.232505 0
M  V30 494 C 47.5252 3.473 4.24935e-05 0
M  V30 495 C 46.4792 4.18055 -0.917257 0
M  V30 496 C 45.8052 5.34519 -0.138941 0
M  V30 497 C 47.1052 4.72109 -2.23407 0
M  V30 498 H 48.7992 2.57566 -1.52643 0
M  V30 499 H 46.3452 1.23806 -0.735394 0
M  V30 500 H 48.2982 4.20426 0.286383 0
M  V30 501 H 47.0222 3.13424 0.918299 0
M  V30 502 H 45.6812 3.46821 -1.1879 0
M  V30 503 H 45.3292 4.96891 0.781562 0
M  V30 504 H 45.0292 5.82794 -0.750005 0
M  V30 505 H 46.5532 6.10438 0.1405 0
M  V30 506 H 47.9672 5.36955 -2.00879 0
M  V30 507 H 46.3642 5.30897 -2.79765 0
M  V30 508 H 47.4342 3.89807 -2.88407 0
M  V30 509 N 48.7773 0.814389 1.34928 0
M  V30 510 C 49.7073 0.244827 2.32213 0
M  V30 511 C 50.6883 -0.634024 1.57842 0
M  V30 512 O 51.8733 -0.562676 1.8587 0
M  V30 513 C 49.0033 -0.601106 3.42058 0
M  V30 514 C 47.9573 0.179896 4.27622 0
M  V30 515 C 47.2833 -0.788237 5.28858 0
M  V30 516 C 48.5833 1.38329 5.03649 0
M  V30 517 H 50.2773 1.05763 2.80097 0
M  V30 518 H 47.8233 0.510029 1.34665 0
M  V30 519 H 49.7763 -1.00968 4.09125 0
M  V30 520 H 48.5003 -1.44688 2.92802 0
M  V30 521 H 47.1593 0.569739 3.62146 0
M  V30 522 H 46.8073 -1.62973 4.75866 0
M  V30 523 H 46.5073 -0.269942 5.8698 0
M  V30 524 H 48.0313 -1.19485 5.98795 0
M  V30 525 H 49.4453 1.04918 5.63618 0
M  V30 526 H 47.8423 1.83662 5.71304 0
M  V30 527 H 48.9123 2.16592 4.33839 0
M  V30 528 N 50.2554 -1.46986 0.568584 0
M  V30 529 C 51.6714 -1.57946 0.229189 0
M  V30 530 C 51.8714 -1.56567 -1.26843 0
M  V30 531 O 50.9274 -1.47511 -2.04931 0
M  V30 532 C 52.2404 -2.87963 0.865909 0
M  V30 533 C 53.7884 -3.01568 0.838188 0
M  V30 534 C 54.2634 -4.34301 1.45419 0
M  V30 535 N 55.7544 -4.40965 1.41788 0
M  V30 536 C 56.4894 -5.42256 1.86403 0
M  V30 537 N 55.9854 -6.50297 2.38926 0
M  V30 538 N 57.7784 -5.3337 1.77405 0
M  V30 539 H 49.9294 -1.46126 1.54146 0
M  V30 540 H 52.1924 -0.696156 0.643484 0
M  V30 541 H 51.8984 -2.94742 1.91886 0
M  V30 542 H 51.7724 -3.75423 0.365687 0
M  V30 543 H 54.1594 -2.94379 -0.206106 0
M  V30 544 H 54.2404 -2.1562 1.37629 0
M  V30 545 H 53.8844 -4.42247 2.49761 0
M  V30 546 H 53.8144 -5.19 0.891435 0
M  V30 547 H 56.3054 -3.63484 1.03381 0
M  V30 548 H 56.6184 -7.23777 2.70863 0
M  V30 549 H 54.9634 -6.51155 2.42944 0
M  V30 550 H 58.1544 -4.47865 1.3614 0
M  V30 551 H 58.3274 -6.12169 2.12492 0
M  V30 552 N 51.7335 -0.305618 -1.54608 0
M  V30 553 C 52.9805 0.302298 -2.00231 0
M  V30 554 C 53.3085 1.5354 -1.19398 0
M  V30 555 O 52.5635 1.93973 -0.259423 0
M  V30 556 C 52.8625 0.698983 -3.50498 0
M  V30 557 C 52.5285 -0.432903 -4.48817 0
M  V30 558 C 51.1905 -0.743622 -4.75419 0
M  V30 559 C 53.5425 -1.19409 -5.07337 0
M  V30 560 C 50.8705 -1.81857 -5.57804 0
M  V30 561 C 53.2225 -2.25899 -5.90891 0
M  V30 562 C 51.8865 -2.57572 -6.15803 0
M  V30 563 H 51.1565 0.110619 -0.732697 0
M  V30 564 H 53.8035 -0.425674 -1.86709 0
M  V30 565 H 52.1085 1.50711 -3.61654 0
M  V30 566 H 53.8055 1.1806 -3.83227 0
M  V30 567 H 50.3955 -0.18063 -4.28219 0
M  V30 568 H 54.5795 -0.967295 -4.86782 0
M  V30 569 H 49.8355 -2.06864 -5.75341 0
M  V30 570 H 54.0095 -2.85335 -6.35261 0
M  V30 571 H 51.6365 -3.40998 -6.7943 0
M  V30 572 N 53.2116 1.57565 -0.0334293 0
M  V30 573 C 54.6226 1.79746 0.504798 0
M  V30 574 C 54.9736 0.944091 1.71992 0
M  V30 575 O 54.0986 0.155694 2.15839 0
M  V30 576 C 54.6936 3.25997 0.922567 0
M  V30 577 C 53.2526 3.49159 1.40588 0
M  V30 578 C 52.3996 2.74785 0.372633 0
M  V30 579 H 55.3506 1.56565 -0.259436 0
M  V30 580 H 55.3716 3.35945 1.78666 0
M  V30 581 H 54.8836 3.88081 0.0379825 0
M  V30 582 H 52.9846 2.92332 2.31025 0
M  V30 583 H 53.0976 4.57873 1.41028 0
M  V30 584 H 51.4616 2.40391 0.841672 0
M  V30 585 H 52.2446 3.39587 -0.503559 0
M  V30 586 N 54.6897 -0.239769 1.55765 0
M  V30 587 C 55.6397 -1.30002 1.87306 0
M  V30 588 C 56.6237 -1.43156 0.73452 0
M  V30 589 O 57.8157 -1.46277 0.99659 0
M  V30 590 C 54.9447 -2.65409 2.17745 0
M  V30 591 C 54.0307 -2.56231 3.37945 0
M  V30 592 N 54.4217 -2.16689 4.57033 0
M  V30 593 C 52.7197 -2.87229 3.41197 0
M  V30 594 C 53.4207 -2.18318 5.39177 0
M  V30 595 N 52.3967 -2.58098 4.78421 0
M  V30 596 H 56.1987 -0.984912 2.76906 0
M  V30 597 H 53.7127 -0.448381 1.56087 0
M  V30 598 H 55.7097 -3.41934 2.38509 0
M  V30 599 H 54.3697 -2.97781 1.29448 0
M  V30 600 H 55.3807 -1.88116 4.82528 0
M  V30 601 H 52.0577 -3.24094 2.63191 0
M  V30 602 H 53.4477 -1.90025 6.44469 0
M  V30 603 N 56.1678 -1.49265 -0.50573 0
M  V30 604 C 57.3958 -1.62215 -1.28429 0
M  V30 605 C 57.8108 -0.291697 -1.86533 0
M  V30 606 O 57.1678 0.722233 -1.67601 0
M  V30 607 C 57.2188 -2.68735 -2.41793 0
M  V30 608 O 56.9398 -3.96619 -1.86078 0
M  V30 609 C 58.4408 -2.92346 -3.3324 0
M  V30 610 H 55.6608 -0.546239 -0.389697 0
M  V30 611 H 58.2048 -1.95265 -0.607609 0
M  V30 612 H 56.3598 -2.38476 -3.053 0
M  V30 613 H 56.7738 -4.55256 -2.60465 0
M  V30 614 H 58.2478 -3.70623 -4.09075 0
M  V30 615 H 58.7248 -2.02081 -3.89948 0
M  V30 616 H 59.3308 -3.24003 -2.75503 0
M  V30 617 N 57.6459 0.756429 -1.3826 0
M  V30 618 C 59.0619 1.0591 -1.19395 0
M  V30 619 C 59.2619 2.01459 -0.0406567 0
M  V30 620 O 58.3179 2.44909 0.614467 0
M  V30 621 C 59.6309 1.64191 -2.51916 0
M  V30 622 C 61.1789 1.76376 -2.58574 0
M  V30 623 C 61.6539 2.38069 -3.91264 0
M  V30 624 N 63.1449 2.45503 -3.92788 0
M  V30 625 C 63.8799 2.94126 -4.92217 0
M  V30 626 N 63.3759 3.42805 -6.02043 0
M  V30 627 N 65.1689 2.9314 -4.7961 0
M  V30 628 H 57.3199 0.122313 -2.12048 0
M  V30 629 H 59.5829 0.116892 -0.940766 0
M  V30 630 H 59.2889 1.01451 -3.3675 0
M  V30 631 H 59.1629 2.6329 -2.70108 0
M  V30 632 H 61.5499 2.38244 -1.74137 0
M  V30 633 H 61.6309 0.759894 -2.44252 0
M  V30 634 H 61.2749 1.76835 -4.76121 0
M  V30 635 H 61.2049 3.39091 -4.02895 0
M  V30 636 H 63.6959 2.1107 -3.13461 0
M  V30 637 H 64.0089 3.78354 -6.73846 0
M  V30 638 H 62.3539 3.4087 -6.05667 0
M  V30 639 H 65.5449 2.54419 -3.92923 0
M  V30 640 H 65.7179 3.30721 -5.5725 0
M  V30 641 N 59.124 1.23083 0.984299 0
M  V30 642 C 60.054 1.03292 2.09411 0
M  V30 643 C 61.035 -0.048923 1.7003 0
M  V30 644 O 62.22 0.114967 1.93859 0
M  V30 645 C 59.35 0.619155 3.41736 0
M  V30 646 C 58.304 1.64791 3.95004 0
M  V30 647 C 57.63 1.0897 5.23478 0
M  V30 648 C 58.93 3.03999 4.24714 0
M  V30 649 H 60.624 1.96119 2.26225 0
M  V30 650 H 58.17 0.944344 1.08711 0
M  V30 651 H 60.123 0.467777 4.18796 0
M  V30 652 H 58.847 -0.344786 3.24775 0
M  V30 653 H 57.506 1.78721 3.20085 0
M  V30 654 H 57.154 0.11686 5.02864 0
M  V30 655 H 56.854 1.77704 5.60085 0
M  V30 656 H 58.378 0.950093 6.03163 0
M  V30 657 H 59.792 2.93393 4.92538 0
M  V30 658 H 58.189 3.69936 4.72512 0
M  V30 659 H 59.259 3.53285 3.32142 0
M  V30 660 N 60.6021 -1.18246 1.0419 0
M  V30 661 C 61.8501 -1.87886 0.744543 0
M  V30 662 C 62.1711 -1.8082 -0.730006 0
M  V30 663 O 61.4411 -1.22736 -1.52685 0
M  V30 664 H 60.0211 -0.695556 0.272417 0
M  V30 665 H 62.6831 -1.43494 1.31892 0
M  V30 666 H 61.7791 -2.9389 1.05049 0
M  V30 667 N 62.0802 -0.821533 -1.34494 0
M  V30 668 C 63.0272 -0.240397 -2.29545 0
M  V30 669 C 63.9972 0.634031 -1.53523 0
M  V30 670 O 65.1822 0.575966 -1.81899 0
M  V30 671 C 62.3222 0.592869 -3.39969 0
M  V30 672 C 61.4352 -0.30365 -4.30932 0
M  V30 673 C 60.5702 0.539049 -5.28458 0
M  V30 674 C 59.6092 -0.356942 -6.11058 0
M  V30 675 N 58.7462 0.446603 -7.00678 0
M  V30 676 H 63.5862 -1.05632 -2.7865 0
M  V30 677 H 61.1232 -0.532413 -1.37127 0
M  V30 678 H 63.0812 1.09129 -4.02675 0
M  V30 679 H 61.7112 1.37392 -2.92102 0
M  V30 680 H 60.7632 -0.920276 -3.691 0
M  V30 681 H 62.0752 -0.992661 -4.88823 0
M  V30 682 H 61.2292 1.102 -5.96608 0
M  V30 683 H 59.9682 1.26157 -4.71101 0
M  V30 684 H 58.9732 -0.932047 -5.41842 0
M  V30 685 H 60.1982 -1.07755 -6.70497 0
M  V30 686 H 58.1442 1.15282 -6.45791 0
M  V30 687 H 58.0612 -0.184048 -7.55776 0
M  V30 688 H 59.3292 0.992352 -7.73158 0
M  V30 689 N 63.5583 1.46682 -0.576371 0
M  V30 690 C 64.4883 2.33028 0.148397 0
M  V30 691 C 65.4693 1.44961 0.889956 0
M  V30 692 O 66.6543 1.73789 0.866662 0
M  V30 693 C 63.7843 3.27117 1.1667 0
M  V30 694 C 62.7383 4.24575 0.540386 0
M  V30 695 C 62.0643 5.08126 1.6647 0
M  V30 696 C 63.3643 5.19722 -0.518331 0
M  V30 697 H 65.0583 2.93875 -0.572509 0
M  V30 698 H 62.6043 1.41315 -0.276768 0
M  V30 699 H 64.5573 3.86374 1.68204 0
M  V30 700 H 63.2813 2.64364 1.9178 0
M  V30 701 H 61.9403 3.66571 0.0461769 0
M  V30 702 H 61.5883 4.41762 2.40531 0
M  V30 703 H 61.2883 5.74122 1.25131 0
M  V30 704 H 62.8123 5.70246 2.18293 0
M  V30 705 H 64.2263 5.73232 -0.0883058 0
M  V30 706 H 62.6233 5.94026 -0.851679 0
M  V30 707 H 63.6933 4.64037 -1.40703 0
M  V30 708 N 65.0364 0.313813 1.54444 0
M  V30 709 C 65.9664 -0.549454 2.26943 0
M  V30 710 C 66.9474 -1.12741 1.27372 0
M  V30 711 O 68.1324 -1.15436 1.56167 0
M  V30 712 C 65.2624 -1.71523 3.01989 0
M  V30 713 C 64.2164 -1.26703 4.08816 0
M  V30 714 C 63.5424 -2.51898 4.71647 0
M  V30 715 C 64.8424 -0.388962 5.2085 0
M  V30 716 H 66.5364 0.0552661 2.99349 0
M  V30 717 H 64.0824 0.0280207 1.43973 0
M  V30 718 H 66.0354 -2.32535 3.51433 0
M  V30 719 H 64.7594 -2.34639 2.27183 0
M  V30 720 H 63.4184 -0.679896 3.6024 0
M  V30 721 H 63.0664 -3.13356 3.93468 0
M  V30 722 H 62.7664 -2.22605 5.43802 0
M  V30 723 H 64.2904 -3.1369 5.23861 0
M  V30 724 H 65.7044 -0.905107 5.6611 0
M  V30 725 H 64.1014 -0.18924 5.99802 0
M  V30 726 H 65.1714 0.582699 4.81386 0
M  V30 727 N 66.5145 -1.57545 0.0417849 0
M  V30 728 C 67.7425 -1.96624 -0.643928 0
M  V30 729 C 68.1575 -0.918897 -1.64929 0
M  V30 730 O 67.5145 0.0979323 -1.82237 0
M  V30 731 C 67.5655 -3.35781 -1.33914 0
M  V30 732 O 67.2865 -4.365 -0.374048 0
M  V30 733 C 68.7875 -3.89566 -2.1155 0
M  V30 734 H 66.0075 -0.647316 -0.176702 0
M  V30 735 H 68.5515 -2.04229 0.105304 0
M  V30 736 H 66.7065 -3.29357 -2.03968 0
M  V30 737 H 67.1205 -5.17248 -0.869179 0
M  V30 738 H 68.5945 -4.89242 -2.55628 0
M  V30 739 H 69.0715 -3.24488 -2.9598 0
M  V30 740 H 69.6775 -3.99298 -1.46427 0
M  V30 741 N 67.9926 0.231505 -1.5589 0
M  V30 742 C 69.2326 0.964533 -1.80211 0
M  V30 743 C 69.5966 1.81926 -0.613744 0
M  V30 744 O 70.7976 2.58526 -0.736045 0
M  V30 745 C 69.0686 1.78956 -3.09369 0
M  V30 746 S 70.6276 2.57959 -3.54969 0
M  V30 747 H 67.4456 0.324173 -0.632798 0
M  V30 748 H 70.0476 0.230985 -1.94131 0
M  V30 749 H 68.7516 1.15161 -3.93911 0
M  V30 750 H 68.2826 2.56559 -2.9823 0
M  V30 751 H 70.2976 3.81309 -3.17519 0
M  V30 752 N 69.4707 1.49531 0.497807 0
M  V30 753 C 70.4207 1.62829 1.59596 0
M  V30 754 C 71.4047 0.483824 1.53453 0
M  V30 755 O 72.5967 0.736937 1.60929 0
M  V30 756 C 69.7257 1.7011 2.98191 0
M  V30 757 C 68.8117 2.90144 3.09317 0
M  V30 758 N 69.2027 4.1418 2.90324 0
M  V30 759 C 67.5007 2.88148 3.40422 0
M  V30 760 C 68.2017 4.94886 3.05717 0
M  V30 761 N 67.1777 4.28314 3.34736 0
M  V30 762 H 70.9797 2.56446 1.4357 0
M  V30 763 H 68.4937 1.46347 0.704001 0
M  V30 764 H 70.4907 1.77735 3.77115 0
M  V30 765 H 69.1507 0.776315 3.15283 0
M  V30 766 H 70.1617 4.44109 2.66436 0
M  V30 767 H 66.8387 2.05061 3.63671 0
M  V30 768 H 68.2287 6.03432 2.95499 0
M  V30 769 N 70.9488 -0.749086 1.3866 0
M  V30 770 C 72.1738 -1.54344 1.38538 0
M  V30 771 C 72.5988 -1.88088 -0.0216655 0
M  V30 772 O 71.9568 -1.50899 -1.00494 0
M  V30 773 C 72.0048 -2.8164 2.25192 0
M  V30 774 O 71.1088 -3.7698 1.67212 0
M  V30 775 H 70.4498 -0.466654 0.472367 0
M  V30 776 H 72.9798 -0.925355 1.82478 0
M  V30 777 H 72.9898 -3.30519 2.3921 0
M  V30 778 H 71.6648 -2.56411 3.27454 0
M  V30 779 H 70.2418 -3.35699 1.6236 0
M  V30 780 N 72.4269 -1.23603 -0.977757 0
M  V30 781 C 73.3369 -1.03632 -2.1047 0
M  V30 782 C 74.3529 0.0199435 -1.73989 0
M  V30 783 O 75.5289 -0.176076 -2.00629 0
M  V30 784 C 72.5939 -0.63276 -3.40877 0
M  V30 785 C 71.6549 -1.76437 -3.91367 0
M  V30 786 C 70.8879 -1.37997 -5.15551 0
M  V30 787 O 71.1109 -0.265357 -5.69782 0
M  V30 788 O 70.0449 -2.20201 -5.60174 0
M  V30 789 H 73.8709 -1.98086 -2.30208 0
M  V30 790 H 71.4559 -1.02332 -1.08851 0
M  V30 791 H 73.3379 -0.418761 -4.19314 0
M  V30 792 H 72.0129 0.282754 -3.22463 0
M  V30 793 H 70.9199 -2.03304 -3.14036 0
M  V30 794 H 72.2529 -2.6583 -4.14241 0
M  V30 795 N 73.905 1.17692 -1.04816 0
M  V30 796 C 74.815 2.25229 -0.65643 0
M  V30 797 C 75.831 1.71018 0.320761 0
M  V30 798 O 77.007 2.00649 0.173805 0
M  V30 799 C 74.072 3.46684 -0.0332629 0
M  V30 800 C 73.133 4.15997 -1.06042 0
M  V30 801 C 72.366 5.31654 -0.466893 0
M  V30 802 O 72.589 5.65777 0.724758 0
M  V30 803 O 71.523 5.89831 -1.1993 0
M  V30 804 H 75.349 2.61016 -1.55255 0
M  V30 805 H 72.934 1.24919 -0.81949 0
M  V30 806 H 74.816 4.20234 0.313256 0
M  V30 807 H 73.491 3.12703 0.836566 0
M  V30 808 H 72.398 3.44482 -1.45886 0
M  V30 809 H 73.731 4.53996 -1.90127 0
M  V30 810 N 75.3831 0.828654 1.34056 0
M  V30 811 C 76.3461 0.259927 2.27721 0
M  V30 812 C 77.3461 -0.565478 1.50529 0
M  V30 813 O 78.5361 -0.38075 1.69988 0
M  V30 814 C 75.6681 -0.634944 3.34935 0
M  V30 815 H 76.8611 1.0863 2.79534 0
M  V30 816 H 74.4141 0.600951 1.44285 0
M  V30 817 H 75.1491 -1.48416 2.88346 0
M  V30 818 H 74.9341 -0.0444999 3.92075 0
M  V30 819 H 76.4241 -1.02648 4.04788 0
M  V30 820 N 76.8612 -1.46375 0.584142 0
M  V30 821 C 78.1102 -2.01585 0.0679741 0
M  V30 822 C 78.4232 -1.46109 -1.30045 0
M  V30 823 O 79.6292 -1.93148 -1.90804 0
M  V30 824 C 78.0852 -3.5983 0.0709207 0
M  V30 825 C 77.6932 -4.24303 1.43775 0
M  V30 826 C 79.4372 -4.22693 -0.391228 0
M  V30 827 C 77.3442 -5.74631 1.39834 0
M  V30 828 H 76.2742 -0.753689 0.0216421 0
M  V30 829 H 78.9252 -1.68093 0.736001 0
M  V30 830 H 77.3072 -3.90405 -0.663299 0
M  V30 831 H 78.4812 -4.05335 2.19181 0
M  V30 832 H 76.7962 -3.73539 1.84004 0
M  V30 833 H 79.3932 -5.3289 -0.439524 0
M  V30 834 H 79.7362 -3.91728 -1.40906 0
M  V30 835 H 80.2692 -3.96749 0.288974 0
M  V30 836 H 77.0082 -6.10258 2.39303 0
M  V30 837 H 76.5282 -5.95858 0.686505 0
M  V30 838 H 78.2072 -6.37375 1.11187 0
M  V30 839 N 78.3393 -0.321999 -1.54275 0
M  V30 840 C 79.2693 0.537411 -2.27231 0
M  V30 841 C 80.2503 1.12064 -1.27968 0
M  V30 842 O 81.4353 1.14606 -1.56777 0
M  V30 843 C 78.5653 1.69919 -3.02894 0
M  V30 844 C 77.5193 1.24534 -4.09482 0
M  V30 845 C 76.8453 2.49394 -4.72977 0
M  V30 846 C 78.1453 0.361335 -5.21049 0
M  V30 847 H 79.8393 -0.0711406 -2.99315 0
M  V30 848 H 77.3853 -0.0356555 -1.43956 0
M  V30 849 H 79.3383 2.30668 -3.52662 0
M  V30 850 H 78.0623 2.33431 -2.28424 0
M  V30 851 H 76.7213 0.660782 -3.60596 0
M  V30 852 H 76.3693 3.11265 -3.95124 0
M  V30 853 H 76.0693 2.19718 -5.44975 0
M  V30 854 H 77.5933 3.10908 -5.25517 0
M  V30 855 H 79.0073 0.875072 -5.66582 0
M  V30 856 H 77.4043 0.157428 -5.99893 0
M  V30 857 H 78.4743 -0.60822 -4.8107 0
M  V30 858 N 79.8174 1.5752 -0.0501392 0
M  V30 859 C 80.7274 2.14952 0.939827 0
M  V30 860 C 81.7434 1.10706 1.34239 0
M  V30 861 O 82.9194 1.42869 1.41952 0
M  V30 862 C 79.9844 2.68232 2.19665 0
M  V30 863 C 79.0454 3.87272 1.85253 0
M  V30 864 C 78.2784 4.38002 3.04943 0
M  V30 865 O 78.5014 3.87811 4.18281 0
M  V30 866 O 77.4354 5.29602 2.86017 0
M  V30 867 H 81.2614 2.9986 0.481392 0
M  V30 868 H 78.8464 1.4841 0.171699 0
M  V30 869 H 80.7284 3.02475 2.93406 0
M  V30 870 H 79.4034 1.86395 2.64648 0
M  V30 871 H 78.3104 3.5792 1.0883 0
M  V30 872 H 79.6434 4.70336 1.4507 0
M  V30 873 N 81.2955 -0.223234 1.56011 0
M  V30 874 C 82.2255 -1.27988 1.95298 0
M  V30 875 C 83.2065 -1.48976 0.820979 0
M  V30 876 O 84.3915 -1.61188 1.08315 0
M  V30 877 C 81.5215 -2.63 2.26822 0
M  V30 878 C 80.4755 -2.56671 3.42497 0
M  V30 879 C 79.8015 -3.95697 3.59622 0
M  V30 880 C 81.1015 -2.11601 4.77517 0
M  V30 881 H 82.7955 -0.953525 2.8381 0
M  V30 882 H 80.3415 -0.457244 1.36548 0
M  V30 883 H 82.2945 -3.37077 2.52898 0
M  V30 884 H 81.0185 -2.9732 1.35161 0
M  V30 885 H 79.6775 -1.85051 3.16467 0
M  V30 886 H 79.3255 -4.27322 2.6534 0
M  V30 887 H 79.0255 -3.92345 4.37424 0
M  V30 888 H 80.5495 -4.71438 3.88044 0
M  V30 889 H 81.9635 -2.7542 5.02809 0
M  V30 890 H 80.3605 -2.19311 5.5859 0
M  V30 891 H 81.4305 -1.06824 4.72987 0
M  V30 892 N 82.7736 -1.49793 -0.48987 0
M  V30 893 C 84.0136 -1.61466 -1.25332 0
M  V30 894 C 84.3776 -0.299688 -1.89647 0
M  V30 895 O 85.5786 -0.291687 -2.67213 0
M  V30 896 C 83.8496 -2.74944 -2.28343 0
M  V30 897 S 85.4086 -3.06637 -3.13878 0
M  V30 898 H 82.2266 -0.569411 -0.425784 0
M  V30 899 H 84.8286 -1.875 -0.553541 0
M  V30 900 H 83.5326 -3.68994 -1.79643 0
M  V30 901 H 83.0636 -2.50938 -3.02975 0
M  V30 902 H 85.0786 -2.49015 -4.29192 0
M  V30 903 N 84.2517 0.741722 -1.39055 0
M  V30 904 C 85.5287 1.49252 -1.26425 0
M  V30 905 C 85.9087 2.10705 0.129144 0
M  V30 906 O 85.2567 1.98045 1.13976 0
M  V30 907 C 85.4667 2.54934 -2.38347 0
M  V30 908 C 86.8147 3.21506 -2.77343 0
M  V30 909 O 87.8387 2.65245 -2.37747 0
M  V30 910 O 86.6977 4.23294 -3.45665 0
M  V30 911 H 83.7917 0.662451 -0.495064 0
M  V30 912 H 86.3377 0.776121 -1.50912 0
M  V30 913 H 85.1097 2.07857 -3.31529 0
M  V30 914 H 84.7327 3.34141 -2.15489 0
M  V30 915 N 85.7298 1.2412 0.971189 0
M  V30 916 C 87.0068 0.986867 1.6888 0
M  V30 917 C 87.3868 -0.491857 2.0529 0
M  V30 918 O 86.7348 -1.46531 1.75331 0
M  V30 919 C 86.9448 1.9063 2.92338 0
M  V30 920 C 88.2928 2.17515 3.64654 0
M  V30 921 O 89.3168 1.88254 3.02388 0
M  V30 922 O 88.1758 2.6719 4.7673 0
M  V30 923 H 85.2698 0.372944 0.738134 0
M  V30 924 H 87.8158 1.35203 1.02559 0
M  V30 925 H 86.5878 2.90552 2.62097 0
M  V30 926 H 86.2108 1.54408 3.66393 0
M  V30 927 N 87.2079 -1.17134 1.05439 0
M  V30 928 C 88.4379 -1.91094 0.785274 0
M  V30 929 C 88.8459 -1.77198 -0.663142 0
M  V30 930 O 88.1889 -1.10835 -1.46497 0
M  V30 931 C 88.2509 -3.42594 1.08949 0
M  V30 932 C 87.9149 -3.80274 2.53458 0
M  V30 933 C 88.9119 -3.82912 3.51673 0
M  V30 934 C 86.5969 -4.11162 2.88532 0
M  V30 935 C 88.5909 -4.15913 4.83006 0
M  V30 936 C 86.2779 -4.43831 4.20068 0
M  V30 937 C 87.2759 -4.46185 5.17115 0
M  V30 938 O 86.9639 -4.78083 6.46291 0
M  V30 939 H 86.6959 -0.613073 0.284811 0
M  V30 940 H 89.2499 -1.49461 1.40893 0
M  V30 941 H 87.4799 -3.84534 0.408741 0
M  V30 942 H 89.1689 -3.97817 0.805991 0
M  V30 943 H 89.9349 -3.5917 3.25917 0
M  V30 944 H 85.8139 -4.085 2.13656 0
M  V30 945 H 89.3579 -4.17665 5.5875 0
M  V30 946 H 85.2549 -4.67037 4.45586 0
M  V30 947 H 86.0229 -4.9593 6.51149 0
M  V30 948 N 88.686 -0.835752 -1.33615 0
M  V30 949 C 89.911 -0.442389 -2.02627 0
M  V30 950 C 90.336 0.947735 -1.62479 0
M  V30 951 O 89.694 1.61907 -0.815826 0
M  V30 952 C 89.742 -0.567216 -3.56111 0
M  V30 953 O 88.846 0.407799 -4.10379 0
M  V30 954 H 88.187 -0.180278 -0.639059 0
M  V30 955 H 90.717 -1.12972 -1.70583 0
M  V30 956 H 90.727 -0.447708 -4.05536 0
M  V30 957 H 89.402 -1.58103 -3.84677 0
M  V30 958 H 87.979 0.246107 -3.72087 0
M  V30 959 N 90.1641 1.46063 -0.591896 0
M  V30 960 C 91.4101 2.02638 -0.0811191 0
M  V30 961 C 91.7431 1.4613 1.27905 0
M  V30 962 O 91.0181 0.629908 1.84017 0
M  V30 963 C 91.3011 3.60091 -0.0252436 0
M  V30 964 C 91.1541 4.26965 -1.41496 0
M  V30 965 C 92.4731 4.3496 0.670685 0
M  V30 966 H 89.5921 0.73635 -0.0309524 0
M  V30 967 H 92.2341 1.741 -0.760859 0
M  V30 968 H 90.3841 3.84535 0.553624 0
M  V30 969 H 92.0561 4.13756 -2.0397 0
M  V30 970 H 90.2991 3.85971 -1.98011 0
M  V30 971 H 90.9701 5.35781 -1.32825 0
M  V30 972 H 93.4461 4.15716 0.178825 0
M  V30 973 H 92.3221 5.44686 0.678837 0
M  V30 974 H 92.5831 4.06685 1.73379 0
M  V30 975 N 91.6422 0.330177 1.54103 0
M  V30 976 C 92.6052 -0.520144 2.2322 0
M  V30 977 C 93.6052 -1.03828 1.22786 0
M  V30 978 O 94.7952 -0.929652 1.4732 0
M  V30 979 C 91.9272 -1.72317 2.94142 0
M  V30 980 H 93.1202 0.0841605 2.99782 0
M  V30 981 H 90.6732 0.0813433 1.56088 0
M  V30 982 H 91.4082 -2.36653 2.21734 0
M  V30 983 H 91.1932 -1.35898 3.67796 0
M  V30 984 H 92.6832 -2.3266 3.46784 0
M  V30 985 N 93.1203 -1.57491 0.0584922 0
M  V30 986 C 94.3973 -1.84346 -0.653918 0
M  V30 987 C 94.7773 -0.948355 -1.88599 0
M  V30 988 O 94.1253 -0.0112403 -2.28497 0
M  V30 989 C 94.3353 -3.34239 -1.00425 0
M  V30 990 C 95.6833 -4.01431 -1.38342 0
M  V30 991 O 96.7073 -3.38907 -1.09637 0
M  V30 992 O 95.5663 -5.11683 -1.91943 0
M  V30 993 H 92.6603 -0.761112 -0.323478 0
M  V30 994 H 95.2063 -1.6947 0.0884125 0
M  V30 995 H 93.9783 -3.91089 -0.128625 0
M  V30 996 H 93.6013 -3.54329 -1.80378 0
M  V30 997 N 94.5984 0.214957 -1.56127 0
M  V30 998 C 95.5454 1.26642 -1.92952 0
M  V30 999 C 96.5154 1.46244 -0.78753 0
M  V30 1000 O 97.7004 1.59704 -1.04399 0
M  V30 1001 C 94.8404 2.6104 -2.25726 0
M  V30 1002 C 93.9534 2.49183 -3.52891 0
M  V30 1003 C 93.0884 3.76149 -3.7508 0
M  V30 1004 C 92.1274 3.59041 -4.95738 0
M  V30 1005 N 91.2644 4.77972 -5.14283 0
M  V30 1006 H 96.1044 0.945384 -2.82607 0
M  V30 1007 H 93.6414 0.455489 -1.3987 0
M  V30 1008 H 95.5994 3.39313 -2.42739 0
M  V30 1009 H 94.2294 2.91227 -1.39236 0
M  V30 1010 H 93.2814 1.6231 -3.44034 0
M  V30 1011 H 94.5934 2.32466 -4.41318 0
M  V30 1012 H 93.7474 4.62865 -3.92226 0
M  V30 1013 H 92.4864 3.95799 -2.84947 0
M  V30 1014 H 91.4914 2.7071 -4.78535 0
M  V30 1015 H 92.7164 3.40856 -5.87362 0
M  V30 1016 H 90.6624 4.97923 -4.27093 0
M  V30 1017 H 90.5794 4.64006 -5.96853 0
M  V30 1018 H 91.8474 5.66096 -5.35869 0
M  V30 1019 N 96.0765 1.50051 0.48192 0
M  V30 1020 C 96.9865 1.7089 1.60728 0
M  V30 1021 C 98.0025 0.591788 1.63627 0
M  V30 1022 O 99.1785 0.868817 1.81696 0
M  V30 1023 C 96.2435 1.78855 2.97005 0
M  V30 1024 C 95.3045 3.02537 3.04581 0
M  V30 1025 C 94.5375 3.10112 4.34357 0
M  V30 1026 O 94.7605 2.24765 5.24249 0
M  V30 1027 O 93.6945 4.02747 4.47301 0
M  V30 1028 H 97.5205 2.66264 1.46072 0
M  V30 1029 H 95.1055 1.34018 0.660264 0
M  V30 1030 H 96.9875 1.86336 3.77964 0
M  V30 1031 H 95.6625 0.866628 3.11883 0
M  V30 1032 H 94.5695 3.00563 2.22739 0
M  V30 1033 H 95.9025 3.94272 2.94636 0
M  V30 1034 N 97.5546 -0.734337 1.39446 0
M  V30 1035 C 98.7846 -1.52137 1.39778 0
M  V30 1036 C 99.1926 -1.89198 -0.00929312 0
M  V30 1037 O 98.5356 -1.54666 -0.991168 0
M  V30 1038 C 98.5976 -2.83762 2.20724 0
M  V30 1039 C 98.2616 -2.69131 3.69347 0
M  V30 1040 C 99.2586 -2.37635 4.62413 0
M  V30 1041 C 96.9436 -2.85982 4.1294 0
M  V30 1042 C 98.9376 -2.23172 5.97054 0
M  V30 1043 C 96.6246 -2.71137 5.47657 0
M  V30 1044 C 97.6226 -2.39777 6.39528 0
M  V30 1045 O 97.3106 -2.25026 7.71763 0
M  V30 1046 H 97.0426 -0.476717 0.479288 0
M  V30 1047 H 99.5966 -0.915012 1.83893 0
M  V30 1048 H 97.8266 -3.4666 1.71359 0
M  V30 1049 H 99.5156 -3.45383 2.13226 0
M  V30 1050 H 100.282 -2.24267 4.30034 0
M  V30 1051 H 96.1606 -3.09383 3.41765 0
M  V30 1052 H 99.7046 -1.98617 6.68728 0
M  V30 1053 H 95.6016 -2.84083 5.79626 0
M  V30 1054 H 96.3696 -2.40091 7.82495 0
M  V30 1055 N 99.0327 -1.24633 -0.964593 0
M  V30 1056 C 100.263 -1.11339 -1.74032 0
M  V30 1057 C 100.671 0.336593 -1.86182 0
M  V30 1058 O 100.014 1.24389 -1.35178 0
M  V30 1059 C 100.076 -1.68284 -3.1768 0
M  V30 1060 C 99.7397 -3.17196 -3.28992 0
M  V30 1061 C 100.737 -4.14308 -3.14078 0
M  V30 1062 C 98.4217 -3.57215 -3.53133 0
M  V30 1063 C 100.416 -5.4942 -3.23135 0
M  V30 1064 C 98.1027 -4.92468 -3.61827 0
M  V30 1065 C 99.1007 -5.8838 -3.46841 0
M  V30 1066 O 98.7887 -7.21173 -3.55197 0
M  V30 1067 H 98.5207 -0.389551 -0.552472 0
M  V30 1068 H 101.075 -1.65282 -1.21946 0
M  V30 1069 H 99.3047 -1.08777 -3.71085 0
M  V30 1070 H 100.994 -1.50234 -3.77074 0
M  V30 1071 H 101.76 -3.84731 -2.95308 0
M  V30 1072 H 97.6387 -2.83063 -3.63863 0
M  V30 1073 H 101.183 -6.24263 -3.11355 0
M  V30 1074 H 97.0797 -5.21714 -3.80111 0
M  V30 1075 H 97.8477 -7.29135 -3.71892 0
M  V30 1076 N 100.511 1.16574 -1.06058 0
M  V30 1077 C 101.758 1.87047 -0.775873 0
M  V30 1078 C 102.086 1.81562 0.697534 0
M  V30 1079 O 101.341 1.22445 1.52662 0
M  V30 1080 C 101.64 3.36195 -1.21275 0
M  V30 1081 C 101.306 3.6188 -2.68986 0
M  V30 1082 C 99.9678 3.68599 -3.09335 0
M  V30 1083 C 102.32 3.72648 -3.64394 0
M  V30 1084 C 99.6478 3.83584 -4.43937 0
M  V30 1085 C 102 3.89154 -4.98741 0
M  V30 1086 C 100.664 3.94114 -5.3873 0
M  V30 1087 H 99.9338 0.684452 -0.283912 0
M  V30 1088 H 102.581 1.37853 -1.32925 0
M  V30 1089 H 100.886 3.87505 -0.578528 0
M  V30 1090 H 102.583 3.89103 -0.969542 0
M  V30 1091 H 99.1728 3.57281 -2.36744 0
M  V30 1092 H 103.357 3.66769 -3.34356 0
M  V30 1093 H 98.6128 3.85677 -4.74409 0
M  V30 1094 H 102.787 3.96427 -5.72554 0
M  V30 1095 H 100.414 4.05478 -6.43033 0
M  V30 1096 N 101.989 0.842826 1.3317 0
M  V30 1097 C 103.266 0.362216 1.92217 0
M  V30 1098 C 103.646 -1.15289 1.76838 0
M  V30 1099 O 102.994 -1.96914 1.15919 0
M  V30 1100 C 103.204 0.813495 3.39387 0
M  V30 1101 C 104.552 0.823804 4.16532 0
M  V30 1102 O 105.576 0.757358 3.48055 0
M  V30 1103 O 104.435 0.915193 5.38782 0
M  V30 1104 H 101.529 0.103317 0.820521 0
M  V30 1105 H 104.075 0.928942 1.42017 0
M  V30 1106 H 102.847 1.85624 3.4447 0
M  V30 1107 H 102.47 0.223561 3.96971 0
M  V30 1108 N 103.467 -1.45747 0.599634 0
M  V30 1109 C 104.883 -1.57424 0.26264 0
M  V30 1110 C 105.083 -1.59222 -1.23493 0
M  V30 1111 O 104.139 -1.51825 -2.01756 0
M  V30 1112 C 105.452 -2.86061 0.926795 0
M  V30 1113 C 107 -2.99722 0.901967 0
M  V30 1114 C 107.475 -4.31119 1.54598 0
M  V30 1115 N 108.966 -4.37858 1.5111 0
M  V30 1116 C 109.701 -5.3818 1.97863 0
M  V30 1117 N 109.197 -6.45083 2.52666 0
M  V30 1118 N 110.99 -5.29487 1.88679 0
M  V30 1119 H 103.141 -1.42823 1.57211 0
M  V30 1120 H 105.404 -0.68235 0.658105 0
M  V30 1121 H 105.11 -2.90605 1.98095 0
M  V30 1122 H 104.984 -3.74563 0.445238 0
M  V30 1123 H 107.371 -2.9475 -0.143617 0
M  V30 1124 H 107.452 -2.12652 1.42171 0
M  V30 1125 H 107.096 -4.36849 2.59085 0
M  V30 1126 H 107.026 -5.16992 1.00132 0
M  V30 1127 H 109.517 -3.61209 1.11068 0
M  V30 1128 H 109.83 -7.17869 2.86155 0
M  V30 1129 H 108.175 -6.45856 2.56701 0
M  V30 1130 H 111.366 -4.44877 1.4561 0
M  V30 1131 H 111.539 -6.07524 2.25429 0
M  V30 1132 N 104.945 -0.338344 -1.53925 0
M  V30 1133 C 105.893 0.536231 -2.26335 0
M  V30 1134 C 106.887 1.1063 -1.28286 0
M  V30 1135 O 108.093 1.05264 -1.46012 0
M  V30 1136 H 104.468 0.191602 -0.727181 0
M  V30 1137 H 106.439 -0.0965747 -2.98244 0
M  V30 1138 C 105.188 1.67803 -3.04528 0
M  V30 1139 H 104.511 1.24864 -3.79801 0
M  V30 1140 H 105.951 2.26526 -3.58416 0
M  V30 1141 C 104.41 2.60439 -2.13712 0
M  V30 1142 O 104.94 3.6255 -1.72975 0
M  V30 1143 N 103.146 2.29006 -1.78898 0
M  V30 1144 H 102.693 1.46011 -2.12223 0
M  V30 1145 H 102.651 2.91248 -1.18416 0
M  V30 1146 N 106.423 1.57458 -0.0668435 0
M  V30 1147 C 107.834 1.80776 0.466558 0
M  V30 1148 C 108.185 0.980361 1.69951 0
M  V30 1149 O 107.31 0.201441 2.1546 0
M  V30 1150 C 107.905 3.27881 0.85321 0
M  V30 1151 C 106.464 3.52062 1.3315 0
M  V30 1152 C 105.611 2.75513 0.314264 0
M  V30 1153 H 108.562 1.5598 -0.292588 0
M  V30 1154 H 108.583 3.39659 1.715 0
M  V30 1155 H 108.095 3.88075 -0.0443439 0
M  V30 1156 H 106.196 2.97167 2.24772 0
M  V30 1157 H 106.309 4.60762 1.31285 0
M  V30 1158 H 104.673 2.42123 0.790492 0
M  V30 1159 H 105.456 3.38442 -0.575477 0
M  V30 1160 N 107.901 -0.206675 1.56239 0
M  V30 1161 C 109.126 -0.949474 1.8439 0
M  V30 1162 C 109.551 -1.76549 0.649016 0
M  V30 1163 O 108.909 -1.76782 -0.402231 0
M  V30 1164 C 108.957 -1.83078 3.10668 0
M  V30 1165 O 108.061 -2.9281 2.90407 0
M  V30 1166 H 107.402 -0.268033 0.607499 0
M  V30 1167 H 109.932 -0.215488 2.03462 0
M  V30 1168 H 109.942 -2.2377 3.41161 0
M  V30 1169 H 108.617 -1.23112 3.97261 0
M  V30 1170 H 107.194 -2.55956 2.71184 0
M  V30 1171 N 109.379 -1.50304 -0.473955 0
M  V30 1172 C 110.309 -1.71886 -1.58042 0
M  V30 1173 C 111.29 -0.567799 -1.60344 0
M  V30 1174 O 112.475 -0.806623 -1.76656 0
M  V30 1175 C 109.605 -1.81036 -2.96384 0
M  V30 1176 C 108.559 -2.962 -3.08949 0
M  V30 1177 C 107.885 -2.9049 -4.48909 0
M  V30 1178 C 109.185 -4.36752 -2.86434 0
M  V30 1179 H 110.879 -2.64527 -1.40234 0
M  V30 1180 H 108.425 -1.27295 -0.673201 0
M  V30 1181 H 110.378 -1.94719 -3.73714 0
M  V30 1182 H 109.102 -0.850147 -3.15341 0
M  V30 1183 H 107.761 -2.82164 -2.3405 0
M  V30 1184 H 107.409 -1.92321 -4.64781 0
M  V30 1185 H 107.109 -3.67802 -4.58253 0
M  V30 1186 H 108.633 -3.06218 -5.28264 0
M  V30 1187 H 110.047 -4.5133 -3.53517 0
M  V30 1188 H 108.444 -5.15493 -3.07225 0
M  V30 1189 H 109.514 -4.49321 -1.82316 0
M  V30 1190 N 110.857 0.726932 -1.39834 0
M  V30 1191 C 112.104 1.48664 -1.37496 0
M  V30 1192 C 112.432 1.94482 0.0264678 0
M  V30 1193 O 111.687 1.67692 1.00886 0
M  V30 1194 C 111.986 2.73495 -2.30077 0
M  V30 1195 C 111.652 2.46502 -3.77555 0
M  V30 1196 C 110.314 2.3885 -4.17737 0
M  V30 1197 C 112.666 2.23604 -4.70798 0
M  V30 1198 C 109.994 2.06352 -5.49214 0
M  V30 1199 C 112.346 1.92622 -6.02561 0
M  V30 1200 C 111.01 1.83444 -6.41798 0
M  V30 1201 H 110.28 0.544001 -0.503135 0
M  V30 1202 H 112.927 0.833657 -1.72402 0
M  V30 1203 H 111.232 3.43575 -1.88317 0
M  V30 1204 H 112.929 3.31549 -2.25558 0
M  V30 1205 H 109.519 2.5334 -3.45712 0
M  V30 1206 H 113.703 2.28479 -4.40581 0
M  V30 1207 H 108.959 1.97776 -5.78528 0
M  V30 1208 H 113.133 1.73914 -6.74334 0
M  V30 1209 H 110.76 1.58029 -7.43593 0
M  V30 1210 N 112.336 1.25143 0.95797 0
M  V30 1211 C 113.752 1.01892 1.22842 0
M  V30 1212 C 113.952 -0.266311 1.99732 0
M  V30 1213 O 113.008 -0.979913 2.3271 0
M  V30 1214 C 114.321 2.24004 2.00606 0
M  V30 1215 C 115.869 2.28731 2.13662 0
M  V30 1216 C 116.344 3.5049 2.94823 0
M  V30 1217 N 117.835 3.50866 3.02403 0
M  V30 1218 C 118.57 4.4174 3.65586 0
M  V30 1219 N 118.066 5.42882 4.30408 0
M  V30 1220 N 119.859 4.29429 3.62694 0
M  V30 1221 H 112.01 2.07718 0.443493 0
M  V30 1222 H 114.273 0.912031 0.258657 0
M  V30 1223 H 113.979 3.17395 1.51503 0
M  V30 1224 H 113.853 2.26907 3.01319 0
M  V30 1225 H 116.24 1.35865 2.61963 0
M  V30 1226 H 116.321 2.29848 1.12265 0
M  V30 1227 H 115.965 4.43676 2.47213 0
M  V30 1228 H 115.895 3.46617 3.96439 0
M  V30 1229 H 118.386 2.777 2.56302 0
M  V30 1230 H 118.699 6.0844 4.76467 0
M  V30 1231 H 117.044 5.46758 4.29047 0
M  V30 1232 H 120.235 3.49643 3.11236 0
M  V30 1233 H 120.408 5.00448 4.1165 0
M  V30 1234 N 113.814 -1.1601 1.06675 0
M  V30 1235 C 115.044 -1.90251 0.805497 0
M  V30 1236 C 115.452 -1.77891 -0.64431 0
M  V30 1237 O 114.795 -1.12383 -1.45313 0
M  V30 1238 C 114.857 -3.41419 1.12576 0
M  V30 1239 C 114.521 -3.77564 2.57477 0
M  V30 1240 C 115.518 -3.79161 3.55715 0
M  V30 1241 C 113.203 -4.08079 2.92877 0
M  V30 1242 C 115.197 -4.10767 4.8739 0
M  V30 1243 C 112.884 -4.39351 4.24751 0
M  V30 1244 C 113.882 -4.40675 5.21818 0
M  V30 1245 O 113.57 -4.71202 6.51325 0
M  V30 1246 H 113.302 -0.610018 0.291297 0
M  V30 1247 H 115.856 -1.47958 1.4247 0
M  V30 1248 H 114.086 -3.84079 0.449503 0
M  V30 1249 H 115.775 -3.9694 0.84814 0
M  V30 1250 H 116.541 -3.55693 3.29708 0
M  V30 1251 H 112.42 -4.06211 2.17976 0
M  V30 1252 H 115.964 -4.11715 5.63148 0
M  V30 1253 H 111.861 -4.62285 4.50514 0
M  V30 1254 H 112.629 -4.88996 6.56373 0
M  V30 1255 N 115.292 -0.849877 -1.32721 0
M  V30 1256 C 116.538 -0.451591 -1.97708 0
M  V30 1257 C 116.871 0.989175 -1.6712 0
M  V30 1258 O 116.146 1.69334 -0.956891 0
M  V30 1259 C 116.429 -0.685598 -3.53513 0
M  V30 1260 C 116.282 -2.17444 -3.93749 0
M  V30 1261 C 117.601 -0.138874 -4.39881 0
M  V30 1262 H 114.72 -0.16555 -0.718166 0
M  V30 1263 H 117.362 -1.06742 -1.57182 0
M  V30 1264 H 115.512 -0.161416 -3.88165 0
M  V30 1265 H 117.184 -2.76433 -3.693 0
M  V30 1266 H 115.427 -2.65476 -3.43081 0
M  V30 1267 H 116.098 -2.28888 -5.02309 0
M  V30 1268 H 118.574 -0.587068 -4.11938 0
M  V30 1269 H 117.45 -0.332213 -5.47894 0
M  V30 1270 H 117.711 0.95806 -4.31594 0
M  V30 1271 N 116.77 1.45427 -0.607355 0
M  V30 1272 C 117.7 2.3329 0.0989352 0
M  V30 1273 C 118.681 1.46816 0.859007 0
M  V30 1274 O 119.866 1.75588 0.829604 0
M  V30 1275 C 116.996 3.29518 1.09705 0
M  V30 1276 C 115.95 4.25626 0.450206 0
M  V30 1277 C 115.276 5.11542 1.55655 0
M  V30 1278 C 116.576 5.18505 -0.628455 0
M  V30 1279 H 118.27 2.92595 -0.634716 0
M  V30 1280 H 115.816 1.40696 -0.306681 0
M  V30 1281 H 117.769 3.89855 1.59971 0
M  V30 1282 H 116.493 2.68372 1.86129 0
M  V30 1283 H 115.152 3.66586 -0.0315886 0
M  V30 1284 H 114.8 4.46765 2.31107 0
M  V30 1285 H 114.5 5.76647 1.12925 0
M  V30 1286 H 116.024 5.74748 2.06148 0
M  V30 1287 H 117.438 5.72916 -0.209877 0
M  V30 1288 H 115.835 5.92085 -0.977489 0
M  V30 1289 H 116.905 4.60948 -1.50514 0
M  V30 1290 N 118.248 0.346503 1.53744 0
M  V30 1291 C 119.196 -0.52422 2.26616 0
M  V30 1292 C 120.19 -1.09948 1.28871 0
M  V30 1293 O 121.396 -1.04488 1.46568 0
M  V30 1294 H 117.771 -0.187743 0.728187 0
M  V30 1295 H 119.742 0.11239 2.98188 0
M  V30 1296 C 118.491 -1.66186 3.05414 0
M  V30 1297 H 117.814 -1.22848 3.80458 0
M  V30 1298 H 119.254 -2.24622 3.59612 0
M  V30 1299 C 117.713 -2.59302 2.1509 0
M  V30 1300 O 118.243 -3.61628 1.74895 0
M  V30 1301 N 116.449 -2.28055 1.8011 0
M  V30 1302 H 115.996 -1.44883 2.12994 0
M  V30 1303 H 115.954 -2.90615 1.19958 0
M  V30 1304 N 119.726 -1.57421 0.075193 0
M  V30 1305 C 120.973 -1.93618 -0.593146 0
M  V30 1306 C 121.301 -0.955484 -1.69413 0
M  V30 1307 O 120.556 0.0283251 -1.9568 0
M  V30 1308 C 120.855 -3.36428 -1.20626 0
M  V30 1309 C 120.521 -4.50307 -0.231078 0
M  V30 1310 C 119.183 -4.81186 0.0371936 0
M  V30 1311 C 121.535 -5.19374 0.435888 0
M  V30 1312 C 118.863 -5.78466 0.979461 0
M  V30 1313 C 121.215 -6.17665 1.3665 0
M  V30 1314 C 119.879 -6.46958 1.6432 0
M  V30 1315 H 119.149 -0.708499 -0.217047 0
M  V30 1316 H 121.796 -1.90937 0.146793 0
M  V30 1317 H 120.101 -3.35592 -2.02201 0
M  V30 1318 H 121.798 -3.61727 -1.73073 0
M  V30 1319 H 118.388 -4.26227 -0.450357 0
M  V30 1320 H 122.572 -4.95711 0.241748 0
M  V30 1321 H 117.828 -5.99487 1.20106 0
M  V30 1322 H 122.002 -6.70284 1.88924 0
M  V30 1323 H 119.629 -7.2215 2.37494 0
M  V30 1324 N 121.204 0.198386 -1.56346 0
M  V30 1325 C 122.434 0.934215 -1.84271 0
M  V30 1326 C 122.842 1.77496 -0.655125 0
M  V30 1327 O 122.185 1.7961 0.385488 0
M  V30 1328 C 122.247 1.88278 -3.06254 0
M  V30 1329 C 121.911 1.22431 -4.40295 0
M  V30 1330 C 122.908 0.602839 -5.16393 0
M  V30 1331 C 120.593 1.22915 -4.87029 0
M  V30 1332 C 122.587 -0.0050083 -6.374 0
M  V30 1333 C 120.274 0.617465 -6.07973 0
M  V30 1334 C 121.272 0.00146341 -6.83 0
M  V30 1335 O 120.96 -0.600642 -8.01653 0
M  V30 1336 H 120.692 0.278245 -0.616081 0
M  V30 1337 H 123.246 0.211626 -2.04307 0
M  V30 1338 H 121.476 2.64498 -2.82095 0
M  V30 1339 H 123.165 2.48612 -3.20853 0
M  V30 1340 H 123.931 0.591265 -4.81382 0
M  V30 1341 H 119.81 1.69801 -4.28589 0
M  V30 1342 H 123.354 -0.48643 -6.95902 0
M  V30 1343 H 119.251 0.62653 -6.42452 0
M  V30 1344 H 120.019 -0.497225 -8.16988 0
M  V30 1345 N 122.682 1.50554 0.465978 0
M  V30 1346 C 123.912 1.65323 1.23903 0
M  V30 1347 C 124.32 0.338051 1.86155 0
M  V30 1348 O 123.663 -0.690518 1.70228 0
M  V30 1349 C 123.725 2.69048 2.3844 0
M  V30 1350 C 123.389 4.12462 1.96784 0
M  V30 1351 C 124.386 4.98168 1.48745 0
M  V30 1352 C 122.071 4.58407 2.05349 0
M  V30 1353 C 124.065 6.27868 1.0982 0
M  V30 1354 C 121.752 5.88112 1.66035 0
M  V30 1355 C 122.75 6.72668 1.18349 0
M  V30 1356 O 122.438 7.99951 0.795825 0
M  V30 1357 H 122.17 0.558629 0.38067 0
M  V30 1358 H 124.724 1.97561 0.562022 0
M  V30 1359 H 122.954 2.32062 3.09328 0
M  V30 1360 H 124.643 2.72985 3.0039 0
M  V30 1361 H 125.409 4.63885 1.41546 0
M  V30 1362 H 121.288 3.92735 2.41414 0
M  V30 1363 H 124.832 6.93819 0.725293 0
M  V30 1364 H 120.729 6.21914 1.72895 0
M  V30 1365 H 121.497 8.13265 0.924222 0
M  V30 1366 N 124.16 -0.719506 1.40217 0
M  V30 1367 C 125.388 -1.50864 1.41589 0
M  V30 1368 C 125.803 -1.88794 0.0145275 0
M  V30 1369 O 125.16 -1.55174 -0.960594 0
M  V30 1370 C 125.211 -2.78646 2.30302 0
M  V30 1371 O 124.932 -2.42321 3.64983 0
M  V30 1372 C 126.433 -3.72569 2.40224 0
M  V30 1373 H 123.653 -0.465709 0.48307 0
M  V30 1374 H 126.197 -0.88785 1.84221 0
M  V30 1375 H 124.352 -3.37019 1.91042 0
M  V30 1376 H 124.766 -3.24514 4.12057 0
M  V30 1377 H 126.24 -4.5908 3.06512 0
M  V30 1378 H 126.717 -4.15403 1.42608 0
M  V30 1379 H 127.323 -3.20109 2.80019 0
M  V30 1380 N 125.638 -1.25649 -0.95132 0
M  V30 1381 C 126.886 -1.10375 -1.69298 0
M  V30 1382 C 127.207 0.355339 -1.91735 0
M  V30 1383 O 126.477 1.25188 -1.50681 0
M  V30 1384 H 125.057 -0.405461 -0.627384 0
M  V30 1385 H 127.719 -1.57823 -1.14358 0
M  V30 1386 H 126.815 -1.61465 -2.67087 0
M  V30 1387 N 127.117 1.15442 -1.07289 0
M  V30 1388 C 128.064 2.20161 -0.692653 0
M  V30 1389 C 129.034 1.63073 0.31564 0
M  V30 1390 O 130.219 1.89725 0.202235 0
M  V30 1391 C 127.359 3.44967 -0.0959509 0
M  V30 1392 C 126.472 4.16256 -1.15564 0
M  V30 1393 C 125.607 5.28609 -0.524011 0
M  V30 1394 C 124.646 5.91715 -1.56653 0
M  V30 1395 N 123.783 6.9554 -0.957531 0
M  V30 1396 H 128.623 2.52037 -1.59002 0
M  V30 1397 H 126.16 1.2378 -0.794798 0
M  V30 1398 H 128.118 4.16341 0.267628 0
M  V30 1399 H 126.748 3.1361 0.764772 0
M  V30 1400 H 125.8 3.43385 -1.6368 0
M  V30 1401 H 127.112 4.59268 -1.94613 0
M  V30 1402 H 126.266 6.06604 -0.108032 0
M  V30 1403 H 125.005 4.86787 0.29825 0
M  V30 1404 H 124.01 5.12433 -1.9923 0
M  V30 1405 H 125.235 6.35614 -2.39107 0
M  V30 1406 H 123.181 6.55814 -0.156162 0
M  V30 1407 H 123.098 7.36977 -1.68526 0
M  V30 1408 H 124.366 7.77435 -0.567032 0
M  V30 1409 N 128.595 0.856903 1.32268 0
M  V30 1410 C 129.525 0.31858 2.31316 0
M  V30 1411 C 130.506 -0.583487 1.59779 0
M  V30 1412 O 131.691 -0.503259 1.87566 0
M  V30 1413 C 128.821 -0.491979 3.43798 0
M  V30 1414 C 127.775 0.315849 4.26833 0
M  V30 1415 C 127.101 -0.619586 5.31098 0
M  V30 1416 C 128.401 1.54282 4.98993 0
M  V30 1417 H 130.095 1.14621 2.76591 0
M  V30 1418 H 127.641 0.552613 1.32974 0
M  V30 1419 H 129.594 -0.879012 4.1213 0
M  V30 1420 H 128.318 -1.35299 2.97257 0
M  V30 1421 H 126.977 0.684664 3.6015 0
M  V30 1422 H 126.625 -1.47751 4.8081 0
M  V30 1423 H 126.325 -0.0830621 5.87541 0
M  V30 1424 H 127.849 -1.00375 6.02293 0
M  V30 1425 H 129.263 1.22796 5.59995 0
M  V30 1426 H 127.66 2.01745 5.65172 0
M  V30 1427 H 128.73 2.30285 4.26728 0
M  V30 1428 N 130.073 -1.45103 0.615059 0
M  V30 1429 C 131.023 -2.27679 -0.120966 0
M  V30 1430 C 132.007 -1.3775 -0.831491 0
M  V30 1431 O 133.199 -1.61683 -0.720249 0
M  V30 1432 C 130.328 -3.24767 -1.1127 0
M  V30 1433 C 129.414 -4.22184 -0.402627 0
M  V30 1434 N 129.805 -5.02692 0.559884 0
M  V30 1435 C 128.103 -4.4125 -0.649202 0
M  V30 1436 C 128.804 -5.73421 0.977942 0
M  V30 1437 N 127.78 -5.42657 0.320104 0
M  V30 1438 H 131.582 -2.87325 0.618181 0
M  V30 1439 H 129.096 -1.56345 0.439304 0
M  V30 1440 H 131.093 -3.82666 -1.65446 0
M  V30 1441 H 129.753 -2.66682 -1.85232 0
M  V30 1442 H 130.764 -5.09354 0.936976 0
M  V30 1443 H 127.441 -3.9428 -1.37293 0
M  V30 1444 H 128.831 -6.48107 1.77222 0
M  V30 1445 N 131.551 -0.354651 -1.53558 0
M  V30 1446 C 132.797 0.238797 -2.01389 0
M  V30 1447 C 133.13 1.49309 -1.2418 0
M  V30 1448 O 132.405 1.91638 -0.332457 0
M  V30 1449 C 132.688 0.541771 -3.56001 0
M  V30 1450 C 132.541 -0.725388 -4.43912 0
M  V30 1451 C 133.86 1.34685 -4.18984 0
M  V30 1452 H 130.979 0.0853177 -0.732045 0
M  V30 1453 H 133.621 -0.477384 -1.83905 0
M  V30 1454 H 131.771 1.15189 -3.71031 0
M  V30 1455 H 133.443 -1.36313 -4.407 0
M  V30 1456 H 131.686 -1.34801 -4.12324 0
M  V30 1457 H 132.357 -0.468505 -5.50008 0
M  V30 1458 H 134.833 0.830837 -4.07721 0
M  V30 1459 H 133.709 1.52759 -5.27215 0
M  V30 1460 H 133.97 2.35221 -3.74331 0
M  V30 1461 N 133.029 1.57378 -0.0835403 0
M  V30 1462 C 133.962 2.09016 0.915833 0
M  V30 1463 C 134.94 0.997993 1.2837 0
M  V30 1464 O 136.124 1.27219 1.39096 0
M  V30 1465 C 133.251 2.55757 2.22049 0
M  V30 1466 C 132.297 3.76522 2.00333 0
M  V30 1467 S 133.13 5.20661 1.25191 0
M  V30 1468 C 134.286 5.70743 2.56912 0
M  V30 1469 H 134.519 2.93457 0.476492 0
M  V30 1470 H 132.052 1.53856 0.129493 0
M  V30 1471 H 134.01 2.83346 2.97027 0
M  V30 1472 H 132.671 1.71564 2.63106 0
M  V30 1473 H 131.864 4.07256 2.96916 0
M  V30 1474 H 131.466 3.49367 1.33488 0
M  V30 1475 H 133.758 5.78304 3.52946 0
M  V30 1476 H 134.701 6.6944 2.30772 0
M  V30 1477 H 135.109 4.98616 2.64655 0
M  V30 1478 N 134.507 -0.190092 1.56449 0
M  V30 1479 C 135.417 -1.25591 1.98152 0
M  V30 1480 C 136.433 -1.49519 0.889944 0
M  V30 1481 O 137.609 -1.62036 1.19609 0
M  V30 1482 C 134.674 -2.57916 2.3169 0
M  V30 1483 C 133.735 -2.42015 3.5458 0
M  V30 1484 C 132.968 -3.6803 3.8651 0
M  V30 1485 O 133.191 -4.72413 3.1966 0
M  V30 1486 O 132.125 -3.6326 4.79923 0
M  V30 1487 H 135.951 -0.931988 2.89046 0
M  V30 1488 H 133.536 -0.395488 1.4407 0
M  V30 1489 H 135.418 -3.36008 2.54316 0
M  V30 1490 H 134.093 -2.89925 1.43963 0
M  V30 1491 H 133 -1.62017 3.37196 0
M  V30 1492 H 134.333 -2.14937 4.4279 0
M  V30 1493 N 135.985 -1.50799 -0.457987 0
M  V30 1494 C 136.895 -1.73426 -1.57989 0
M  V30 1495 C 137.911 -0.617745 -1.62665 0
M  V30 1496 O 139.087 -0.897614 -1.80291 0
M  V30 1497 C 136.152 -1.83557 -2.94122 0
M  V30 1498 C 135.213 -3.07345 -2.99729 0
M  V30 1499 C 134.446 -3.16983 -4.29368 0
M  V30 1500 O 134.669 -2.33077 -5.20607 0
M  V30 1501 O 133.603 -4.09812 -4.40837 0
M  V30 1502 H 137.429 -2.68555 -1.41817 0
M  V30 1503 H 135.014 -1.35052 -0.638859 0
M  V30 1504 H 136.896 -1.92326 -3.74952 0
M  V30 1505 H 135.571 -0.916137 -3.10465 0
M  V30 1506 H 134.478 -3.04068 -2.1793 0
M  V30 1507 H 135.811 -3.9891 -2.88326 0
M  V30 1508 N 137.463 0.71206 -1.40597 0
M  V30 1509 C 138.393 1.83889 -1.43899 0
M  V30 1510 C 139.374 1.67442 -0.299504 0
M  V30 1511 O 140.559 1.87421 -0.508624 0
M  V30 1512 C 137.689 3.21877 -1.30431 0
M  V30 1513 C 136.643 3.53002 -2.42019 0
M  V30 1514 C 135.969 4.90172 -2.13626 0
M  V30 1515 C 137.269 3.53643 -3.84362 0
M  V30 1516 H 138.963 1.81383 -2.38203 0
M  V30 1517 H 136.509 0.871237 -1.14654 0
M  V30 1518 H 138.462 4.00404 -1.31357 0
M  V30 1519 H 137.186 3.24968 -0.326049 0
M  V30 1520 H 135.845 2.76818 -2.40349 0
M  V30 1521 H 135.493 4.89869 -1.14182 0
M  V30 1522 H 135.193 5.11962 -2.88389 0
M  V30 1523 H 136.717 5.71028 -2.1624 0
M  V30 1524 H 138.131 4.22203 -3.87837 0
M  V30 1525 H 136.528 3.86961 -4.58673 0
M  V30 1526 H 137.598 2.52954 -4.13693 0
M  V30 1527 N 138.941 1.26152 0.944643 0
M  V30 1528 C 140.181 1.12708 1.70517 0
M  V30 1529 C 140.545 -0.324727 1.89234 0
M  V30 1530 O 141.746 -0.581211 2.62441 0
M  V30 1531 C 140.017 1.8713 3.04495 0
M  V30 1532 S 141.576 1.89698 3.95677 0
M  V30 1533 H 138.394 0.402665 0.585988 0
M  V30 1534 H 140.996 1.59821 1.12594 0
M  V30 1535 H 139.7 2.91833 2.88551 0
M  V30 1536 H 139.231 1.40444 3.67477 0
M  V30 1537 H 141.246 0.981198 4.86402 0
M  V30 1538 N 140.419 -1.14872 1.07899 0
M  V30 1539 C 141.665 -1.86064 0.806725 0
M  V30 1540 C 141.998 -1.82434 -0.665706 0
M  V30 1541 O 141.273 -1.25138 -1.48899 0
M  V30 1542 C 141.556 -3.34929 1.32267 0
M  V30 1543 C 141.409 -3.47161 2.86006 0
M  V30 1544 C 142.728 -4.29863 0.943717 0
M  V30 1545 H 139.847 -0.675591 0.294526 0
M  V30 1546 H 142.489 -1.34925 1.33773 0
M  V30 1547 H 140.639 -3.78611 0.870974 0
M  V30 1548 H 142.311 -3.12302 3.39507 0
M  V30 1549 H 140.554 -2.88539 3.23925 0
M  V30 1550 H 141.225 -4.51777 3.17177 0
M  V30 1551 H 143.701 -3.9417 1.33302 0
M  V30 1552 H 142.577 -5.32494 1.33198 0
M  V30 1553 H 142.838 -4.41846 -0.149796 0
M  V30 1554 N 141.898 -0.863906 -1.31812 0
M  V30 1555 C 143.145 -0.471836 -1.96926 0
M  V30 1556 C 143.473 0.974578 -1.68322 0
M  V30 1557 O 142.728 1.7003 -0.968933 0
M  V30 1558 C 143.027 -0.668547 -3.51091 0
M  V30 1559 C 142.693 -2.08683 -3.99703 0
M  V30 1560 C 141.355 -2.47471 -4.12688 0
M  V30 1561 C 143.707 -3.01207 -4.25351 0
M  V30 1562 C 141.035 -3.78037 -4.4867 0
M  V30 1563 C 143.387 -4.31282 -4.62794 0
M  V30 1564 C 142.051 -4.69992 -4.73987 0
M  V30 1565 H 141.321 -0.172657 -0.720604 0
M  V30 1566 H 143.968 -1.09573 -1.57054 0
M  V30 1567 H 142.273 0.0385252 -3.91781 0
M  V30 1568 H 143.97 -0.345102 -3.99512 0
M  V30 1569 H 140.56 -1.77566 -3.90087 0
M  V30 1570 H 144.744 -2.72469 -4.14819 0
M  V30 1571 H 140 -4.078 -4.55532 0
M  V30 1572 H 144.174 -5.03031 -4.81594 0
M  V30 1573 H 141.801 -5.71207 -5.01624 0
M  V30 1574 N 143.376 1.44774 -0.622745 0
M  V30 1575 C 144.601 2.06999 -0.128968 0
M  V30 1576 C 145.026 1.4617 1.1839 0
M  V30 1577 O 144.384 0.560007 1.72434 0
M  V30 1578 C 144.432 3.60595 -0.0188351 0
M  V30 1579 O 143.536 3.99398 1.02739 0
M  V30 1580 H 142.877 0.659047 -0.0809544 0
M  V30 1581 H 145.407 1.85784 -0.85705 0
M  V30 1582 H 145.417 4.07627 0.174476 0
M  V30 1583 H 144.092 4.04252 -0.977384 0
M  V30 1584 H 142.669 3.64011 0.809326 0
M  V30 1585 N 144.854 0.36279 1.53368 0
M  V30 1586 C 146.101 -0.227776 2.01215 0
M  V30 1587 C 146.429 -1.49003 1.25014 0
M  V30 1588 O 145.684 -1.92876 0.331236 0
M  V30 1589 C 145.983 -0.568417 3.52851 0
M  V30 1590 C 145.649 0.59918 4.46901 0
M  V30 1591 C 144.311 0.919559 4.72332 0
M  V30 1592 C 146.663 1.38156 5.02556 0
M  V30 1593 C 143.991 2.02434 5.5067 0
M  V30 1594 C 146.343 2.47674 5.821 0
M  V30 1595 C 145.007 2.8025 6.05819 0
M  V30 1596 H 144.277 -0.083349 0.736297 0
M  V30 1597 H 146.924 0.494677 1.85001 0
M  V30 1598 H 145.229 -1.37185 3.66998 0
M  V30 1599 H 146.926 -1.03756 3.87344 0
M  V30 1600 H 143.516 0.339437 4.27254 0
M  V30 1601 H 147.7 1.14729 4.82857 0
M  V30 1602 H 142.956 2.28075 5.67267 0
M  V30 1603 H 147.13 3.08716 6.24234 0
M  V30 1604 H 144.757 3.65979 6.66306 0
M  V30 1605 N 146.332 -1.57332 0.0918853 0
M  V30 1606 C 147.572 -1.96117 -0.575988 0
M  V30 1607 C 147.936 -0.972499 -1.65549 0
M  V30 1608 O 149.137 -1.24872 -2.38034 0
M  V30 1609 C 147.408 -3.39407 -1.11973 0
M  V30 1610 S 148.967 -4.00185 -1.79992 0
M  V30 1611 H 145.785 -0.685682 -0.188045 0
M  V30 1612 H 148.387 -1.94755 0.170525 0
M  V30 1613 H 147.091 -4.09131 -0.322504 0
M  V30 1614 H 146.622 -3.44358 -1.90214 0
M  V30 1615 H 148.637 -3.88728 -3.08391 0
M  V30 1616 N 147.81 0.181792 -1.56548 0
M  V30 1617 C 148.742 1.24956 -1.92142 0
M  V30 1618 C 149.755 1.41022 -0.813422 0
M  V30 1619 O 150.944 1.41212 -1.09186 0
M  V30 1620 C 148.044 2.61981 -2.14987 0
M  V30 1621 C 147.217 2.6735 -3.46183 0
M  V30 1622 C 146.276 3.85664 -3.5798 0
M  V30 1623 O 145.302 3.72148 -4.30691 0
M  V30 1624 N 146.504 5.01683 -2.92053 0
M  V30 1625 H 149.269 0.947329 -2.84334 0
M  V30 1626 H 146.83 0.371629 -1.57577 0
M  V30 1627 H 148.822 3.3958 -2.20154 0
M  V30 1628 H 147.392 2.84637 -1.2923 0
M  V30 1629 H 146.612 1.75925 -3.52766 0
M  V30 1630 H 147.9 2.67939 -4.32534 0
M  V30 1631 H 147.298 5.15564 -2.32832 0
M  V30 1632 H 145.855 5.77181 -3.0283 0
M  V30 1633 N 149.288 1.51039 0.449983 0
M  V30 1634 C 150.198 1.74261 1.57067 0
M  V30 1635 C 151.214 0.626363 1.62335 0
M  V30 1636 O 152.39 0.907162 1.79812 0
M  V30 1637 C 149.455 1.85114 2.93144 0
M  V30 1638 C 148.516 3.0893 2.98095 0
M  V30 1639 C 147.749 3.19256 4.27681 0
M  V30 1640 O 147.972 2.35835 5.19363 0
M  V30 1641 O 146.906 4.12144 4.38658 0
M  V30 1642 H 150.732 2.69303 1.40391 0
M  V30 1643 H 148.317 1.35389 0.631688 0
M  V30 1644 H 150.199 1.94311 3.73926 0
M  V30 1645 H 148.874 0.932588 3.09975 0
M  V30 1646 H 147.781 3.0522 2.16314 0
M  V30 1647 H 149.114 4.00433 2.86206 0
M  V30 1648 N 150.766 -0.704594 1.40972 0
M  V30 1649 C 152.015 -1.46018 1.39146 0
M  V30 1650 C 152.328 -1.956 0.000589254 0
M  V30 1651 O 153.534 -2.71137 -0.1403 0
M  V30 1652 C 151.99 -2.63996 2.4461 0
M  V30 1653 C 151.598 -2.21238 3.89561 0
M  V30 1654 C 153.342 -3.41677 2.51907 0
M  V30 1655 C 151.249 -3.3612 4.86598 0
M  V30 1656 H 150.179 -0.548444 0.517422 0
M  V30 1657 H 152.83 -0.765784 1.66757 0
M  V30 1658 H 151.212 -3.3566 2.10115 0
M  V30 1659 H 152.386 -1.56923 4.33257 0
M  V30 1660 H 150.701 -1.56574 3.85841 0
M  V30 1661 H 153.298 -4.27182 3.2159 0
M  V30 1662 H 153.641 -3.86247 1.55303 0
M  V30 1663 H 154.174 -2.77064 2.85448 0
M  V30 1664 H 150.913 -2.96572 5.84573 0
M  V30 1665 H 150.433 -3.99315 4.47557 0
M  V30 1666 H 152.112 -4.02029 5.06934 0
M  V30 1667 N 152.244 -1.26651 -0.937939 0
M  V30 1668 C 153.154 -1.10276 -2.07066 0
M  V30 1669 C 154.17 -0.0354197 -1.73964 0
M  V30 1670 O 155.346 -0.239816 -1.99967 0
M  V30 1671 C 152.411 -0.740887 -3.38691 0
M  V30 1672 C 151.472 -1.88799 -3.85556 0
M  V30 1673 C 150.705 -1.54329 -5.10899 0
M  V30 1674 O 150.928 -0.446494 -5.6865 0
M  V30 1675 O 149.862 -2.37911 -5.52885 0
M  V30 1676 H 153.688 -2.05309 -2.23789 0
M  V30 1677 H 151.273 -1.05743 -1.0554 0
M  V30 1678 H 153.155 -0.55195 -4.1777 0
M  V30 1679 H 151.83 0.180022 -3.23199 0
M  V30 1680 H 150.737 -2.13191 -3.07409 0
M  V30 1681 H 152.07 -2.78874 -4.05574 0
M  V30 1682 N 153.722 1.14298 -1.08507 0
M  V30 1683 C 154.952 1.88945 -0.835663 0
M  V30 1684 C 155.36 1.78894 0.615928 0
M  V30 1685 O 154.703 1.1468 1.43506 0
M  V30 1686 C 154.765 3.39585 -1.17994 0
M  V30 1687 C 154.429 3.7342 -2.63451 0
M  V30 1688 C 155.426 3.73454 -3.61702 0
M  V30 1689 C 153.111 4.03368 -2.99332 0
M  V30 1690 C 155.105 4.02961 -4.93864 0
M  V30 1691 C 152.792 4.32538 -4.31687 0
M  V30 1692 C 153.79 4.32318 -5.28763 0
M  V30 1693 O 153.478 4.6078 -6.58739 0
M  V30 1694 H 153.21 0.605307 -0.300965 0
M  V30 1695 H 155.764 1.45673 -1.44806 0
M  V30 1696 H 153.994 3.83315 -0.51055 0
M  V30 1697 H 155.683 3.9554 -0.911182 0
M  V30 1698 H 156.449 3.50403 -3.35325 0
M  V30 1699 H 152.328 4.02692 -2.24411 0
M  V30 1700 H 155.872 4.02704 -5.69627 0
M  V30 1701 H 151.769 4.55059 -4.57812 0
M  V30 1702 H 152.537 4.78492 -6.64069 0
M  V30 1703 N 155.201 0.870884 1.31352 0
M  V30 1704 C 156.447 0.492314 1.97352 0
M  V30 1705 C 156.802 -0.945174 1.67583 0
M  V30 1706 O 156.095 -1.65674 0.962423 0
M  V30 1707 C 156.289 0.687157 3.50732 0
M  V30 1708 C 156.118 2.14203 3.95407 0
M  V30 1709 C 154.888 2.78382 4.21701 0
M  V30 1710 C 157.086 3.1144 4.09279 0
M  V30 1711 N 155.068 4.14611 4.52737 0
M  V30 1712 C 156.439 4.32702 4.44037 0
M  V30 1713 C 158.494 3.07418 3.91661 0
M  V30 1714 C 157.197 5.50463 4.63015 0
M  V30 1715 C 159.223 4.24438 4.11833 0
M  V30 1716 C 158.585 5.44463 4.46923 0
M  V30 1717 H 154.684 0.229206 0.747655 0
M  V30 1718 H 157.268 1.12568 1.5886 0
M  V30 1719 H 155.439 0.083384 3.8831 0
M  V30 1720 H 157.171 0.276883 4.03752 0
M  V30 1721 H 153.926 2.29326 4.14375 0
M  V30 1722 H 154.35 4.84928 4.72413 0
M  V30 1723 H 158.992 2.15732 3.6362 0
M  V30 1724 H 156.71 6.42666 4.89904 0
M  V30 1725 H 160.296 4.2278 3.99685 0
M  V30 1726 H 159.176 6.33504 4.62214 0
M  V30 1727 N 156.679 -1.44442 0.630414 0
M  V30 1728 C 157.927 -2.01653 0.134351 0
M  V30 1729 C 158.248 -1.49836 -1.24796 0
M  V30 1730 O 157.518 -0.701684 -1.82902 0
M  V30 1731 H 156.098 -0.74554 0.0466769 0
M  V30 1732 H 158.76 -1.76952 0.816955 0
M  V30 1733 H 157.856 -3.11935 0.101498 0
M  V30 1734 N 158.157 -0.370918 -1.53173 0
M  V30 1735 C 159.406 0.218249 -2.00516 0
M  V30 1736 C 159.719 1.49429 -1.26215 0
M  V30 1737 O 160.925 2.16239 -1.64174 0
M  V30 1738 C 159.381 0.43948 -3.57207 0
M  V30 1739 C 158.989 -0.822244 -4.4039 0
M  V30 1740 C 160.733 0.986012 -4.1289 0
M  V30 1741 C 158.64 -0.570304 -5.88644 0
M  V30 1742 H 157.57 0.0853333 -0.749156 0
M  V30 1743 H 160.221 -0.490483 -1.76823 0
M  V30 1744 H 158.603 1.20961 -3.77074 0
M  V30 1745 H 159.777 -1.59557 -4.32294 0
M  V30 1746 H 158.092 -1.29238 -3.95836 0
M  V30 1747 H 160.689 1.18991 -5.21292 0
M  V30 1748 H 161.032 1.94972 -3.6782 0
M  V30 1749 H 161.565 0.27592 -3.96842 0
M  V30 1750 H 158.304 -1.50449 -6.38001 0
M  V30 1751 H 157.824 0.164427 -5.99575 0
M  V30 1752 H 159.503 -0.19784 -6.46697 0
M  V30 1753 N 159.635 1.57281 -0.100228 0
M  V30 1754 C 160.583 2.15542 0.874328 0
M  V30 1755 C 161.577 1.09962 1.28859 0
M  V30 1756 O 162.783 1.28298 1.26252 0
M  V30 1757 H 159.158 0.689567 0.300003 0
M  V30 1758 H 161.129 2.96241 0.35829 0
M  V30 1759 C 159.878 2.75454 2.1218 0
M  V30 1760 H 159.201 3.56384 1.81193 0
M  V30 1761 H 160.641 3.19781 2.78417 0
M  V30 1762 C 159.1 1.71602 2.89921 0
M  V30 1763 O 159.63 1.15804 3.84646 0
M  V30 1764 N 157.836 1.41975 2.53558 0
M  V30 1765 H 157.383 1.87539 1.76598 0
M  V30 1766 H 157.341 0.727274 3.05873 0
M  V30 1767 N 161.113 -0.173488 1.56642 0
M  V30 1768 C 162.023 -1.23482 1.99473 0
M  V30 1769 C 163.039 -1.48567 0.905752 0
M  V30 1770 O 164.215 -1.60758 1.21321 0
M  V30 1771 C 161.28 -2.55444 2.34413 0
M  V30 1772 C 160.341 -2.38241 3.57127 0
M  V30 1773 C 159.574 -3.63909 3.90392 0
M  V30 1774 O 159.797 -4.68996 3.24653 0
M  V30 1775 O 158.731 -3.58149 4.83749 0
M  V30 1776 H 162.557 -0.901279 2.90018 0
M  V30 1777 H 160.142 -0.380185 1.44482 0
M  V30 1778 H 162.024 -3.33292 2.57865 0
M  V30 1779 H 160.699 -2.88382 1.4703 0
M  V30 1780 H 159.606 -1.58431 3.38896 0
M  V30 1781 H 160.939 -2.10228 4.45045 0
M  V30 1782 N 162.591 -1.51276 -0.441967 0
M  V30 1783 C 163.521 -1.752 -1.54361 0
M  V30 1784 C 164.502 -0.601682 -1.59103 0
M  V30 1785 O 165.687 -0.843913 -1.74905 0
M  V30 1786 C 162.817 -1.87282 -2.92477 0
M  V30 1787 C 161.771 -3.02687 -3.02596 0
M  V30 1788 C 161.097 -2.99947 -4.42647 0
M  V30 1789 C 162.397 -4.4273 -2.77106 0
M  V30 1790 H 164.091 -2.67442 -1.34592 0
M  V30 1791 H 161.637 -1.28694 -0.646048 0
M  V30 1792 H 163.59 -2.02602 -3.695 0
M  V30 1793 H 162.314 -0.916844 -3.13467 0
M  V30 1794 H 160.973 -2.87065 -2.28012 0
M  V30 1795 H 160.621 -2.02136 -4.60597 0
M  V30 1796 H 160.321 -3.77439 -4.50348 0
M  V30 1797 H 161.845 -3.17354 -5.2165 0
M  V30 1798 H 163.259 -4.58727 -3.43864 0
M  V30 1799 H 161.656 -5.21893 -2.96222 0
M  V30 1800 H 162.726 -4.53087 -1.72744 0
M  V30 1801 N 164.069 0.697108 -1.41344 0
M  V30 1802 C 165.316 1.45714 -1.40619 0
M  V30 1803 C 165.644 1.94494 -0.0147907 0
M  V30 1804 O 164.899 1.69794 0.973066 0
M  V30 1805 C 165.198 2.68553 -2.35826 0
M  V30 1806 C 164.864 2.38438 -3.82698 0
M  V30 1807 C 163.526 2.29936 -4.22709 0
M  V30 1808 C 165.878 2.13567 -4.75435 0
M  V30 1809 C 163.206 1.94656 -5.53467 0
M  V30 1810 C 165.558 1.79797 -6.06511 0
M  V30 1811 C 164.222 1.69789 -6.45545 0
M  V30 1812 H 163.492 0.533206 -0.51456 0
M  V30 1813 H 166.139 0.796901 -1.74131 0
M  V30 1814 H 164.444 3.39503 -1.95563 0
M  V30 1815 H 166.141 3.2669 -2.32539 0
M  V30 1816 H 162.731 2.4595 -3.51008 0
M  V30 1817 H 166.915 2.19082 -4.45328 0
M  V30 1818 H 162.171 1.8546 -5.82593 0
M  V30 1819 H 166.345 1.59572 -6.77872 0
M  V30 1820 H 163.972 1.4222 -7.46778 0
M  V30 1821 N 165.547 1.27147 0.931209 0
M  V30 1822 C 166.796 1.12664 1.67302 0
M  V30 1823 C 167.109 -0.327718 1.92835 0
M  V30 1824 O 168.315 -0.593392 2.64936 0
M  V30 1825 C 166.771 1.9683 3.01307 0
M  V30 1826 C 166.379 3.46901 2.83485 0
M  V30 1827 C 168.123 1.90985 3.79111 0
M  V30 1828 C 166.03 4.23279 4.13024 0
M  V30 1829 H 164.96 0.41803 0.627509 0
M  V30 1830 H 167.611 1.51539 1.03481 0
M  V30 1831 H 165.993 1.50797 3.66164 0
M  V30 1832 H 167.167 4.00773 2.27415 0
M  V30 1833 H 165.482 3.54088 2.19113 0
M  V30 1834 H 168.079 2.45328 4.75098 0
M  V30 1835 H 168.422 0.882718 4.06834 0
M  V30 1836 H 168.955 2.34895 3.21044 0
M  V30 1837 H 165.694 5.26503 3.90481 0
M  V30 1838 H 165.214 3.74186 4.6877 0
M  V30 1839 H 166.893 4.32265 4.81411 0
M  V30 1840 N 167.025 -1.13721 1.09112 0
M  V30 1841 C 168.302 -1.81155 0.737706 0
M  V30 1842 C 168.682 -1.96253 -0.777683 0
M  V30 1843 O 168.03 -1.52807 -1.69889 0
M  V30 1844 C 168.24 -3.16392 1.47299 0
M  V30 1845 C 169.588 -3.91787 1.63671 0
M  V30 1846 O 170.612 -3.26005 1.43524 0
M  V30 1847 O 169.471 -5.0977 1.96969 0
M  V30 1848 H 166.565 -0.783518 0.26463 0
M  V30 1849 H 169.111 -1.20676 1.19312 0
M  V30 1850 H 167.883 -3.0061 2.50498 0
M  V30 1851 H 167.506 -3.8457 1.00953 0
M  V30 1852 N 168.503 -0.877838 -1.30888 0
M  V30 1853 C 169.728 -0.506629 -2.01117 0
M  V30 1854 C 170.153 0.895564 -1.65412 0
M  V30 1855 O 169.511 1.5923 -0.866922 0
M  V30 1856 C 169.559 -0.680223 -3.54126 0
M  V30 1857 O 168.663 0.277033 -4.11468 0
M  V30 1858 H 168.004 -0.200518 -0.633 0
M  V30 1859 H 170.534 -1.18342 -1.66902 0
M  V30 1860 H 170.544 -0.5765 -4.03907 0
M  V30 1861 H 169.219 -1.70261 -3.79452 0
M  V30 1862 H 167.796 0.127606 -3.72682 0
M  V30 1863 N 169.982 1.44106 -0.638065 0
M  V30 1864 C 171.222 2.03858 -0.148733 0
M  V30 1865 C 171.586 1.49153 1.20903 0
M  V30 1866 O 172.787 2.00452 1.79088 0
M  V30 1867 C 171.058 3.57117 -0.142314 0
M  V30 1868 S 172.617 4.37897 0.281385 0
M  V30 1869 H 169.435 0.708069 -0.0644912 0
M  V30 1870 H 172.037 1.7639 -0.843009 0
M  V30 1871 H 170.741 3.94436 -1.13349 0
M  V30 1872 H 170.272 3.89205 0.572988 0
M  V30 1873 H 172.287 4.72218 1.52395 0
M  V30 1874 N 171.46 0.379036 1.52974 0
M  V30 1875 C 172.7 -0.206325 2.03356 0
M  V30 1876 C 173.064 -1.44892 1.25977 0
M  V30 1877 O 174.265 -2.11078 1.66432 0
M  V30 1878 C 172.536 -0.477887 3.54191 0
M  V30 1879 S 174.095 -1.035 4.26419 0
M  V30 1880 H 170.913 -0.0590259 0.708546 0
M  V30 1881 H 173.515 0.525013 1.88319 0
M  V30 1882 H 172.219 0.433745 4.08101 0
M  V30 1883 H 171.75 -1.23793 3.73415 0
M  V30 1884 H 173.765 -2.31821 4.38718 0
M  V30 1885 N 172.938 -1.57226 0.108567 0
M  V30 1886 C 174.163 -1.99604 -0.563303 0
M  V30 1887 C 174.588 -0.987563 -1.6009 0
M  V30 1888 O 173.946 0.0421687 -1.81251 0
M  V30 1889 C 173.994 -3.40902 -1.17552 0
M  V30 1890 O 173.098 -3.42896 -2.2912 0
M  V30 1891 H 172.439 -0.648704 -0.1417 0
M  V30 1892 H 174.969 -2.03679 0.193961 0
M  V30 1893 H 174.979 -3.78886 -1.51357 0
M  V30 1894 H 173.654 -4.1382 -0.415445 0
M  V30 1895 H 172.231 -3.1672 -1.96832 0
M  V30 1896 N 174.416 0.165178 -1.56732 0
M  V30 1897 C 175.364 1.22369 -1.97809 0
M  V30 1898 C 176.358 1.45488 -0.867741 0
M  V30 1899 O 177.564 1.45995 -1.05288 0
M  V30 1900 H 173.939 0.411486 -0.629431 0
M  V30 1901 H 175.91 0.850425 -2.86025 0
M  V30 1902 C 174.659 2.55403 -2.35934 0
M  V30 1903 H 173.982 2.38438 -3.20916 0
M  V30 1904 H 175.422 3.2814 -2.68514 0
M  V30 1905 C 173.881 3.14611 -1.20506 0
M  V30 1906 O 174.411 3.98626 -0.496016 0
M  V30 1907 N 172.617 2.7379 -0.97403 0
M  V30 1908 H 172.164 2.0557 -1.55238 0
M  V30 1909 H 172.122 3.1374 -0.203573 0
M  V30 1910 N 175.894 1.51508 0.433938 0
M  V30 1911 C 177.31 1.39759 0.770682 0
M  V30 1912 C 177.51 0.482594 1.95636 0
M  V30 1913 O 176.566 -0.0609691 2.52426 0
M  V30 1914 C 177.879 2.81851 1.04787 0
M  V30 1915 C 179.427 2.91025 1.1521 0
M  V30 1916 C 179.902 4.34032 1.46219 0
M  V30 1917 N 181.393 4.37154 1.53136 0
M  V30 1918 C 182.128 5.4484 1.78709 0
M  V30 1919 N 181.624 6.62682 2.02051 0
M  V30 1920 N 183.417 5.32324 1.80519 0
M  V30 1921 H 175.568 2.09548 -0.346892 0
M  V30 1922 H 177.831 0.943446 -0.0928074 0
M  V30 1923 H 177.537 3.50815 0.249304 0
M  V30 1924 H 177.411 3.21386 1.97461 0
M  V30 1925 H 179.798 2.22257 1.94128 0
M  V30 1926 H 179.879 2.54983 0.204281 0
M  V30 1927 H 179.523 5.03351 0.678274 0
M  V30 1928 H 179.453 4.6759 2.42212 0
M  V30 1929 H 181.944 3.52197 1.36987 0
M  V30 1930 H 182.257 7.40543 2.20943 0
M  V30 1931 H 180.602 6.65791 1.99366 0
M  V30 1932 H 183.793 4.39246 1.61805 0
M  V30 1933 H 183.966 6.16328 2.00111 0
M  V30 1934 N 177.372 -0.689602 1.41712 0
M  V30 1935 C 178.602 -1.47613 1.44548 0
M  V30 1936 C 179.01 -1.89132 0.0509034 0
M  V30 1937 O 178.353 -1.57741 -0.94146 0
M  V30 1938 C 178.415 -2.76596 2.2964 0
M  V30 1939 C 178.079 -2.57245 3.77722 0
M  V30 1940 C 179.076 -2.22804 4.69739 0
M  V30 1941 C 176.761 -2.727 4.2183 0
M  V30 1942 C 178.755 -2.04064 6.03851 0
M  V30 1943 C 176.442 -2.53576 5.56006 0
M  V30 1944 C 177.44 -2.1931 6.46832 0
M  V30 1945 O 177.128 -2.00359 7.78532 0
M  V30 1946 H 176.86 -0.461227 0.494212 0
M  V30 1947 H 179.414 -0.856045 1.86711 0
M  V30 1948 H 177.644 -3.41033 1.82301 0
M  V30 1949 H 179.333 -3.38424 2.24107 0
M  V30 1950 H 180.099 -2.10473 4.36951 0
M  V30 1951 H 175.978 -2.98353 3.51435 0
M  V30 1952 H 179.522 -1.77241 6.74708 0
M  V30 1953 H 175.419 -2.65499 5.88371 0
M  V30 1954 H 176.187 -2.15075 7.89737 0
M  V30 1955 N 178.85 -1.27639 -0.924453 0
M  V30 1956 C 179.782 -1.06442 -2.02985 0
M  V30 1957 C 180.795 -0.0194771 -1.62788 0
M  V30 1958 O 181.984 -0.261388 -1.76576 0
M  V30 1959 C 179.084 -0.59327 -3.33667 0
M  V30 1960 C 178.257 -1.71123 -4.02537 0
M  V30 1961 C 177.316 -1.23527 -5.11495 0
M  V30 1962 O 176.342 -1.93553 -5.35281 0
M  V30 1963 N 177.544 -0.0926678 -5.80426 0
M  V30 1964 H 180.309 -2.01633 -2.2173 0
M  V30 1965 H 177.87 -1.19248 -1.09505 0
M  V30 1966 H 179.862 -0.258686 -4.03872 0
M  V30 1967 H 178.432 0.265502 -3.1147 0
M  V30 1968 H 177.652 -2.21593 -3.26022 0
M  V30 1969 H 178.94 -2.46145 -4.45298 0
M  V30 1970 H 178.338 0.491741 -5.63559 0
M  V30 1971 H 176.895 0.182714 -6.51544 0
M  V30 1972 N 180.328 1.1314 -1.09713 0
M  V30 1973 C 181.238 2.22242 -0.751367 0
M  V30 1974 C 182.254 1.72224 0.247938 0
M  V30 1975 O 183.43 2.01205 0.0885463 0
M  V30 1976 C 180.495 3.46231 -0.180274 0
M  V30 1977 C 179.556 4.11125 -1.2359 0
M  V30 1978 C 178.789 5.29195 -0.691966 0
M  V30 1979 O 179.012 5.68342 0.48414 0
M  V30 1980 O 177.946 5.84214 -1.44838 0
M  V30 1981 H 181.772 2.54197 -1.66186 0
M  V30 1982 H 179.357 1.21331 -0.871735 0
M  V30 1983 H 181.239 4.21185 0.134739 0
M  V30 1984 H 179.914 3.1597 0.703185 0
M  V30 1985 H 178.821 3.37985 -1.60366 0
M  V30 1986 H 180.154 4.45524 -2.09211 0
M  V30 1987 N 181.806 0.884767 1.30421 0
M  V30 1988 C 183.222 0.57874 1.48737 0
M  V30 1989 C 183.422 -0.883567 1.81095 0
M  V30 1990 O 182.478 -1.6648 1.89844 0
M  V30 1991 C 183.791 1.49171 2.61091 0
M  V30 1992 C 185.339 1.49532 2.74971 0
M  V30 1993 C 185.814 2.39421 3.90438 0
M  V30 1994 N 187.305 2.37383 3.97748 0
M  V30 1995 C 188.04 3.03647 4.86401 0
M  V30 1996 N 187.536 3.79136 5.79852 0
M  V30 1997 N 189.329 2.9288 4.79768 0
M  V30 1998 H 181.48 1.83075 1.0769 0
M  V30 1999 H 183.743 0.783637 0.533495 0
M  V30 2000 H 183.449 2.53291 2.44001 0
M  V30 2001 H 183.323 1.20113 3.57565 0
M  V30 2002 H 185.71 0.46163 2.91467 0
M  V30 2003 H 185.791 1.8262 1.79119 0
M  V30 2004 H 185.435 3.42874 3.74699 0
M  V30 2005 H 185.365 2.03649 4.85628 0
M  V30 2006 H 187.856 1.82525 3.30897 0
M  V30 2007 H 188.169 4.26789 6.4426 0
M  V30 2008 H 186.514 3.83243 5.79784 0
M  V30 2009 H 189.705 2.33433 4.05742 0
M  V30 2010 H 189.878 3.448 5.4865 0
M  V30 2011 N 183.284 -1.43765 0.645699 0
M  V30 2012 C 184.231 -2.30745 -0.0504648 0
M  V30 2013 C 185.201 -1.4432 -0.822241 0
M  V30 2014 O 186.386 -1.73202 -0.800358 0
M  V30 2015 C 183.526 -3.29802 -1.0161 0
M  V30 2016 C 182.639 -4.31326 -0.241219 0
M  V30 2017 C 181.774 -5.17469 -1.19998 0
M  V30 2018 C 180.813 -6.10691 -0.415094 0
M  V30 2019 N 179.95 -6.89483 -1.32506 0
M  V30 2020 H 184.79 -2.8973 0.697155 0
M  V30 2021 H 182.327 -1.42738 0.355563 0
M  V30 2022 H 184.285 -3.85734 -1.58949 0
M  V30 2023 H 182.915 -2.72483 -1.73069 0
M  V30 2024 H 181.967 -3.77749 0.448334 0
M  V30 2025 H 183.279 -4.9743 0.369437 0
M  V30 2026 H 182.433 -5.7799 -1.84424 0
M  V30 2027 H 181.172 -4.51473 -1.84455 0
M  V30 2028 H 180.177 -5.49265 0.242565 0
M  V30 2029 H 181.402 -6.78727 0.224966 0
M  V30 2030 H 179.348 -6.26142 -1.95657 0
M  V30 2031 H 179.265 -7.52081 -0.768783 0
M  V30 2032 H 180.533 -7.54516 -1.9577 0
M  V30 2033 N 184.763 -0.387143 -1.52771 0
M  V30 2034 C 185.673 0.456442 -2.30117 0
M  V30 2035 C 186.689 1.07342 -1.36944 0
M  V30 2036 O 187.865 1.07971 -1.70013 0
M  V30 2037 C 184.93 1.56957 -3.09136 0
M  V30 2038 C 183.991 0.977916 -4.18014 0
M  V30 2039 C 183.224 2.038 -4.93256 0
M  V30 2040 O 183.447 3.25271 -4.68567 0
M  V30 2041 O 182.381 1.6565 -5.78657 0
M  V30 2042 H 186.207 -0.17359 -3.03203 0
M  V30 2043 H 183.792 -0.150919 -1.48636 0
M  V30 2044 H 185.674 2.21628 -3.58412 0
M  V30 2045 H 184.349 2.18461 -2.38865 0
M  V30 2046 H 183.256 0.294525 -3.72939 0
M  V30 2047 H 184.589 0.407128 -4.90513 0
M  V30 2048 N 186.241 1.57166 -0.116904 0
M  V30 2049 C 187.151 2.18745 0.847812 0
M  V30 2050 C 188.167 1.163 1.29423 0
M  V30 2051 O 189.343 1.48761 1.35765 0
M  V30 2052 C 186.408 2.77307 2.0809 0
M  V30 2053 C 185.469 3.94781 1.68661 0
M  V30 2054 C 184.702 4.50541 2.86091 0
M  V30 2055 O 184.925 4.05202 4.01456 0
M  V30 2056 O 183.859 5.41256 2.63298 0
M  V30 2057 H 187.685 3.01632 0.353778 0
M  V30 2058 H 185.27 1.49005 0.108599 0
M  V30 2059 H 187.152 3.14647 2.80313 0
M  V30 2060 H 185.827 1.97452 2.56504 0
M  V30 2061 H 184.734 3.62214 0.935518 0
M  V30 2062 H 186.067 4.76065 1.24991 0
M  V30 2063 N 187.719 -0.156864 1.56817 0
M  V30 2064 C 188.667 -1.21319 1.98455 0
M  V30 2065 C 189.661 -1.45025 0.875444 0
M  V30 2066 O 190.867 -1.45435 1.0606 0
M  V30 2067 H 187.242 -0.408142 0.631605 0
M  V30 2068 H 189.213 -0.835244 2.86472 0
M  V30 2069 C 187.962 -2.54148 2.37285 0
M  V30 2070 H 187.285 -2.36733 3.22176 0
M  V30 2071 H 188.725 -3.26712 2.70251 0
M  V30 2072 C 187.184 -3.13967 1.22173 0
M  V30 2073 O 187.714 -3.98357 0.517149 0
M  V30 2074 N 185.92 -2.7327 0.988536 0
M  V30 2075 H 185.467 -2.04744 1.56326 0
M  V30 2076 H 185.425 -3.13628 0.220209 0
M  V30 2077 N 189.197 -1.51736 -0.425897 0
M  V30 2078 C 190.147 -1.70258 -1.51645 0
M  V30 2079 C 191.131 -0.556488 -1.5097 0
M  V30 2080 O 192.323 -0.812879 -1.5723 0
M  V30 2081 C 189.452 -1.84143 -2.89735 0
M  V30 2082 C 188.538 -3.04572 -2.95122 0
M  V30 2083 N 188.929 -4.2756 -2.70233 0
M  V30 2084 C 187.227 -3.04061 -3.26286 0
M  V30 2085 C 187.928 -5.08908 -2.81757 0
M  V30 2086 N 186.904 -4.43797 -3.13919 0
M  V30 2087 H 190.706 -2.63004 -1.31172 0
M  V30 2088 H 188.22 -1.4954 -0.633375 0
M  V30 2089 H 190.217 -1.95525 -3.68206 0
M  V30 2090 H 188.877 -0.925857 -3.1122 0
M  V30 2091 H 189.888 -4.56315 -2.44943 0
M  V30 2092 H 186.565 -2.22179 -3.53473 0
M  V30 2093 H 187.955 -6.16843 -2.66372 0
M  V30 2094 N 190.675 0.682077 -1.42076 0
M  V30 2095 C 191.585 1.82535 -1.47371 0
M  V30 2096 C 192.601 1.7017 -0.363079 0
M  V30 2097 O 193.777 1.91848 -0.612875 0
M  V30 2098 C 190.842 3.18624 -1.36674 0
M  V30 2099 C 189.903 3.42999 -2.58167 0
M  V30 2100 C 189.136 4.72595 -2.4797 0
M  V30 2101 O 189.359 5.50006 -1.5116 0
M  V30 2102 O 188.293 4.98054 -3.37974 0
M  V30 2103 H 192.119 1.81023 -2.43853 0
M  V30 2104 H 189.704 0.836887 -1.2376 0
M  V30 2105 H 191.586 3.99847 -1.33043 0
M  V30 2106 H 190.261 3.20789 -0.433138 0
M  V30 2107 H 189.168 2.61653 -2.67373 0
M  V30 2108 H 190.501 3.45659 -3.50401 0
M  V30 2109 N 192.153 1.28127 0.917671 0
M  V30 2110 C 193.1 1.11717 2.0196 0
M  V30 2111 C 194.07 0.0153929 1.66093 0
M  V30 2112 O 195.255 0.179596 1.89953 0
M  V30 2113 C 192.395 0.780927 3.36148 0
M  V30 2114 C 191.508 1.96135 3.84909 0
M  V30 2115 C 190.643 1.56609 5.0759 0
M  V30 2116 C 189.682 2.71339 5.48673 0
M  V30 2117 N 188.819 2.32332 6.62545 0
M  V30 2118 H 193.659 2.06003 2.15329 0
M  V30 2119 H 191.196 1.02535 1.05475 0
M  V30 2120 H 193.154 0.56675 4.13333 0
M  V30 2121 H 191.784 -0.124998 3.22558 0
M  V30 2122 H 190.836 2.28777 3.03916 0
M  V30 2123 H 192.148 2.82165 4.1132 0
M  V30 2124 H 191.302 1.31374 5.92305 0
M  V30 2125 H 190.041 0.677014 4.82978 0
M  V30 2126 H 189.046 2.97276 4.62501 0
M  V30 2127 H 190.271 3.60882 5.75274 0
M  V30 2128 H 188.217 1.45889 6.39572 0
M  V30 2129 H 188.134 3.11899 6.88662 0
M  V30 2130 H 189.402 2.10371 7.50576 0
M  V30 2131 N 193.631 -1.12557 1.10312 0
M  V30 2132 C 194.908 -1.80363 0.756878 0
M  V30 2133 C 195.288 -1.97067 -0.756824 0
M  V30 2134 O 194.636 -1.54601 -1.68259 0
M  V30 2135 C 194.846 -3.14812 1.50647 0
M  V30 2136 C 196.194 -3.90029 1.67817 0
M  V30 2137 O 197.218 -3.24464 1.46974 0
M  V30 2138 O 196.077 -5.07652 2.02365 0
M  V30 2139 H 193.171 -0.780667 0.272926 0
M  V30 2140 H 195.717 -1.19404 1.20586 0
M  V30 2141 H 194.489 -2.97936 2.53672 0
M  V30 2142 H 194.112 -3.83478 1.05026 0
M  V30 2143 N 195.109 -0.891671 -1.2995 0
M  V30 2144 C 196.355 -0.523649 -1.96544 0
M  V30 2145 C 196.71 0.918394 -1.69066 0
M  V30 2146 O 196.003 1.64122 -0.988659 0
M  V30 2147 C 196.197 -0.742868 -3.49594 0
M  V30 2148 C 196.026 -2.20467 -3.9195 0
M  V30 2149 C 194.796 -2.85055 -4.17219 0
M  V30 2150 C 196.994 -3.17912 -4.04273 0
M  V30 2151 N 194.976 -4.21762 -4.46083 0
M  V30 2152 C 196.347 -4.39712 -4.37097 0
M  V30 2153 C 198.402 -3.1361 -3.86721 0
M  V30 2154 C 197.105 -5.5776 -4.54199 0
M  V30 2155 C 199.131 -4.30936 -4.05028 0
M  V30 2156 C 198.493 -5.51504 -4.38204 0
M  V30 2157 H 194.592 -0.241072 -0.743914 0
M  V30 2158 H 197.176 -1.15081 -1.5705 0
M  V30 2159 H 195.347 -0.14515 -3.88129 0
M  V30 2160 H 197.079 -0.341081 -4.0326 0
M  V30 2161 H 193.834 -2.35889 -4.10674 0
M  V30 2162 H 194.258 -4.92382 -4.64638 0
M  V30 2163 H 198.9 -2.21489 -3.60142 0
M  V30 2164 H 196.618 -6.50379 -4.79618 0
M  V30 2165 H 200.204 -4.29085 -3.92909 0
M  V30 2166 H 199.084 -6.40778 -4.52077 0
M  V30 2167 N 196.587 1.43421 -0.653314 0
M  V30 2168 C 197.864 1.95361 -0.0966581 0
M  V30 2169 C 198.244 1.59461 1.38331 0
M  V30 2170 O 197.592 0.879777 2.10884 0
M  V30 2171 C 197.802 3.47311 -0.342988 0
M  V30 2172 C 199.15 4.23875 -0.24798 0
M  V30 2173 O 200.174 3.55133 -0.275553 0
M  V30 2174 O 199.033 5.4623 -0.171771 0
M  V30 2175 H 196.127 0.826945 0.00956291 0
M  V30 2176 H 198.673 1.5336 -0.726558 0
M  V30 2177 H 197.445 3.66569 -1.36906 0
M  V30 2178 H 197.068 3.9631 0.319975 0
M  V30 2179 N 198.065 0.39524 1.52563 0
M  V30 2180 C 198.997 -0.472201 2.24283 0
M  V30 2181 C 200.01 -1.02178 1.26742 0
M  V30 2182 O 201.199 -0.923097 1.52778 0
M  V30 2183 C 198.299 -1.66775 2.95024 0
M  V30 2184 C 197.472 -1.2445 4.19322 0
M  V30 2185 C 196.531 -2.30539 4.7301 0
M  V30 2186 O 195.557 -1.91702 5.35947 0
M  V30 2187 N 196.759 -3.6253 4.53379 0
M  V30 2188 H 199.524 0.142282 2.99362 0
M  V30 2189 H 197.085 0.2219 1.60372 0
M  V30 2190 H 199.077 -2.37283 3.27839 0
M  V30 2191 H 197.647 -2.18845 2.23217 0
M  V30 2192 H 196.867 -0.368069 3.92478 0
M  V30 2193 H 198.155 -0.938457 5.0007 0
M  V30 2194 H 197.553 -3.96841 4.03154 0
M  V30 2195 H 196.11 -4.29055 4.90668 0
M  V30 2196 N 199.544 -1.57102 0.125237 0
M  V30 2197 C 200.491 -2.15641 -0.822655 0
M  V30 2198 C 201.461 -1.08313 -1.25927 0
M  V30 2199 O 202.646 -1.36251 -1.33567 0
M  V30 2200 C 199.786 -2.76504 -2.06494 0
M  V30 2201 C 198.899 -3.98158 -1.67612 0
M  V30 2202 C 198.034 -4.47088 -2.86854 0
M  V30 2203 C 197.073 -5.6126 -2.44242 0
M  V30 2204 N 196.21 -6.04905 -3.56419 0
M  V30 2205 H 201.05 -2.96313 -0.316625 0
M  V30 2206 H 198.587 -1.46388 -0.144588 0
M  V30 2207 H 200.545 -3.09925 -2.79289 0
M  V30 2208 H 199.175 -1.98512 -2.54545 0
M  V30 2209 H 198.227 -3.70858 -0.846661 0
M  V30 2210 H 199.539 -4.80934 -1.32301 0
M  V30 2211 H 198.693 -4.82451 -3.67867 0
M  V30 2212 H 197.432 -3.63275 -3.25396 0
M  V30 2213 H 196.437 -5.25495 -1.61663 0
M  V30 2214 H 197.662 -6.46843 -2.0681 0
M  V30 2215 H 195.608 -5.24032 -3.94623 0
M  V30 2216 H 195.525 -6.82552 -3.25051 0
M  V30 2217 H 196.793 -6.44907 -4.37853 0
M  V30 2218 N 201.022 0.148545 -1.56898 0
M  V30 2219 C 202.247 0.880385 -1.87787 0
M  V30 2220 C 202.672 1.74018 -0.714093 0
M  V30 2221 O 202.03 1.78153 0.336343 0
M  V30 2222 C 202.078 1.71422 -3.17249 0
M  V30 2223 O 201.182 2.8183 -3.01074 0
M  V30 2224 H 200.523 0.245301 -0.617028 0
M  V30 2225 H 203.053 0.139826 -2.04122 0
M  V30 2226 H 203.063 2.10954 -3.49231 0
M  V30 2227 H 201.738 1.08284 -4.01556 0
M  V30 2228 H 200.315 2.45715 -2.80497 0
M  V30 2229 N 202.5 1.5196 0.417844 0
M  V30 2230 C 203.45 1.7106 1.5074 0
M  V30 2231 C 204.434 0.564487 1.50673 0
M  V30 2232 O 205.626 0.821206 1.56797 0
M  V30 2233 C 202.755 1.85677 2.88754 0
M  V30 2234 C 201.841 3.06133 2.93502 0
M  V30 2235 N 202.232 4.28987 2.67962 0
M  V30 2236 C 200.53 3.05787 3.24669 0
M  V30 2237 C 201.231 5.10395 2.79055 0
M  V30 2238 N 200.207 4.45455 3.11561 0
M  V30 2239 H 204.009 2.63696 1.29775 0
M  V30 2240 H 201.523 1.49873 0.625436 0
M  V30 2241 H 203.52 1.97475 3.67164 0
M  V30 2242 H 202.18 0.942348 3.10725 0
M  V30 2243 H 203.191 4.57607 2.4252 0
M  V30 2244 H 199.868 2.2405 3.52289 0
M  V30 2245 H 201.258 6.18247 2.63097 0
M  V30 2246 N 203.978 -0.674533 1.42435 0
M  V30 2247 C 205.255 -1.4305 1.33402 0
M  V30 2248 C 205.635 -2.11081 -0.0284674 0
M  V30 2249 O 204.983 -2.03257 -1.04397 0
M  V30 2250 C 205.193 -2.43272 2.50239 0
M  V30 2251 C 206.541 -3.07907 2.92367 0
M  V30 2252 O 207.565 -2.53599 2.50132 0
M  V30 2253 O 206.424 -4.0632 3.65467 0
M  V30 2254 H 203.518 -0.638076 0.526106 0
M  V30 2255 H 206.064 -0.703235 1.54443 0
M  V30 2256 H 204.836 -1.91803 3.41068 0
M  V30 2257 H 204.459 -3.23479 2.31186 0
M  V30 2258 N 205.456 -1.28612 -0.910864 0
M  V30 2259 C 206.702 -1.16106 -1.66274 0
M  V30 2260 C 207.035 0.289113 -1.92036 0
M  V30 2261 O 206.31 1.21 -1.52281 0
M  V30 2262 C 206.593 -1.96309 -3.01885 0
M  V30 2263 C 206.446 -3.49405 -2.8326 0
M  V30 2264 C 207.765 -1.78076 -4.02463 0
M  V30 2265 H 204.884 -0.423152 -0.603417 0
M  V30 2266 H 207.526 -1.57961 -1.05586 0
M  V30 2267 H 205.676 -1.60742 -3.53687 0
M  V30 2268 H 207.348 -3.94894 -2.38446 0
M  V30 2269 H 205.591 -3.74893 -2.18261 0
M  V30 2270 H 206.262 -4.00784 -3.79574 0
M  V30 2271 H 208.738 -2.0912 -3.59733 0
M  V30 2272 H 207.614 -2.36561 -4.95308 0
M  V30 2273 H 207.875 -0.733008 -4.35981 0
M  V30 2274 N 206.934 1.1197 -1.10907 0
M  V30 2275 C 208.159 1.87942 -0.877064 0
M  V30 2276 C 208.584 1.79341 0.567314 0
M  V30 2277 O 207.942 1.15184 1.40009 0
M  V30 2278 C 207.99 3.34926 -1.33629 0
M  V30 2279 O 207.094 4.09303 -0.504447 0
M  V30 2280 H 206.435 0.583785 -0.316371 0
M  V30 2281 H 208.965 1.4157 -1.47712 0
M  V30 2282 H 208.975 3.8577 -1.32837 0
M  V30 2283 H 207.65 3.40504 -2.3881 0
M  V30 2284 H 206.227 3.68393 -0.577993 0
M  V30 2285 N 208.412 0.89855 1.29475 0
M  V30 2286 C 209.64 0.539261 1.99749 0
M  V30 2287 C 210.055 -0.875716 1.67262 0
M  V30 2288 O 209.412 -1.57786 0.917049 0
M  V30 2289 C 209.463 0.72061 3.54245 0
M  V30 2290 O 209.184 2.07989 3.8558 0
M  V30 2291 C 210.685 0.366118 4.41786 0
M  V30 2292 H 207.905 0.207047 0.638258 0
M  V30 2293 H 210.449 1.20758 1.65039 0
M  V30 2294 H 208.604 0.0994862 3.87272 0
M  V30 2295 H 209.018 2.10841 4.80257 0
M  V30 2296 H 210.492 0.543848 5.49314 0
M  V30 2297 H 210.969 -0.696763 4.33638 0
M  V30 2298 H 211.575 0.964135 4.14228 0
M  V30 2299 N 209.89 -1.43072 0.660911 0
M  V30 2300 C 211.167 -1.95307 0.107017 0
M  V30 2301 C 211.547 -1.60192 -1.37484 0
M  V30 2302 O 210.895 -0.890949 -2.10415 0
M  V30 2303 C 211.105 -3.47124 0.361402 0
M  V30 2304 C 212.453 -4.23738 0.270455 0
M  V30 2305 O 213.477 -3.54981 0.294382 0
M  V30 2306 O 212.336 -5.46131 0.200737 0
M  V30 2307 H 209.43 -0.826984 -0.00517729 0
M  V30 2308 H 211.976 -1.52972 0.734681 0
M  V30 2309 H 210.748 -3.65837 1.38848 0
M  V30 2310 H 210.371 -3.96475 -0.298953 0
M  V30 2311 N 211.368 -0.403325 -1.52352 0
M  V30 2312 C 212.593 0.176499 -2.06648 0
M  V30 2313 C 213.018 1.38577 -1.27193 0
M  V30 2314 O 212.376 1.7879 -0.300637 0
M  V30 2315 C 212.424 0.511061 -3.5696 0
M  V30 2316 O 211.528 1.60294 -3.79973 0
M  V30 2317 H 210.869 0.0167337 -0.663789 0
M  V30 2318 H 213.399 -0.574848 -1.96359 0
M  V30 2319 H 213.409 0.771362 -4.00642 0
M  V30 2320 H 212.084 -0.37296 -4.14224 0
M  V30 2321 H 210.661 1.33526 -3.48174 0
M  V30 2322 N 212.846 1.57033 -0.133567 0
M  V30 2323 C 214.071 2.00475 0.531477 0
M  V30 2324 C 214.496 1.01291 1.58499 0
M  V30 2325 O 213.854 -0.0133279 1.81295 0
M  V30 2326 C 213.902 3.42729 1.12113 0
M  V30 2327 O 213.006 3.46498 2.23636 0
M  V30 2328 H 212.347 0.650876 0.131362 0
M  V30 2329 H 214.877 2.03344 -0.22634 0
M  V30 2330 H 214.887 3.81246 1.4531 0
M  V30 2331 H 213.562 4.14428 0.349557 0
M  V30 2332 H 212.139 3.19811 1.91769 0
M  V30 2333 N 214.325 -0.140222 1.56975 0
M  V30 2334 C 215.572 -0.851687 1.83719 0
M  V30 2335 C 215.9 -1.80862 0.715485 0
M  V30 2336 O 215.155 -1.93464 -0.294956 0
M  V30 2337 C 215.454 -1.65386 3.16832 0
M  V30 2338 C 215.12 -0.843112 4.42947 0
M  V30 2339 C 213.782 -0.619464 4.77196 0
M  V30 2340 C 216.134 -0.276582 5.20466 0
M  V30 2341 C 213.462 0.181312 5.8642 0
M  V30 2342 C 215.814 0.51127 6.30531 0
M  V30 2343 C 214.478 0.745432 6.63325 0
M  V30 2344 H 213.748 -0.311654 0.672274 0
M  V30 2345 H 216.395 -0.115006 1.91154 0
M  V30 2346 H 214.7 -2.46084 3.04877 0
M  V30 2347 H 216.397 -2.20793 3.34741 0
M  V30 2348 H 212.987 -1.0275 4.16101 0
M  V30 2349 H 217.171 -0.436632 4.94376 0
M  V30 2350 H 212.427 0.372165 6.10266 0
M  V30 2351 H 216.601 0.957354 6.89788 0
M  V30 2352 H 214.228 1.36778 7.47794 0
M  V30 2353 N 215.803 -1.52179 -0.40978 0
M  V30 2354 C 216.713 -1.78364 -1.52392 0
M  V30 2355 C 217.729 -0.669183 -1.60617 0
M  V30 2356 O 218.905 -0.954518 -1.77344 0
M  V30 2357 C 215.97 -1.92822 -2.88133 0
M  V30 2358 C 215.031 -3.16725 -2.898 0
M  V30 2359 C 214.264 -3.30483 -4.19067 0
M  V30 2360 O 214.487 -2.49522 -5.12928 0
M  V30 2361 O 213.421 -4.2363 -4.27576 0
M  V30 2362 H 217.247 -2.72931 -1.33201 0
M  V30 2363 H 214.832 -1.37016 -0.59557 0
M  V30 2364 H 216.714 -2.04157 -3.68643 0
M  V30 2365 H 215.389 -1.01444 -3.07393 0
M  V30 2366 H 214.296 -3.10848 -2.08146 0
M  V30 2367 H 215.629 -4.07881 -2.75489 0
M  V30 2368 N 217.281 0.66697 -1.42791 0
M  V30 2369 C 218.191 1.80962 -1.49299 0
M  V30 2370 C 219.207 1.69775 -0.381108 0
M  V30 2371 O 220.383 1.91188 -0.633188 0
M  V30 2372 C 217.448 3.17156 -1.40045 0
M  V30 2373 C 216.509 3.40242 -2.6179 0
M  V30 2374 C 215.742 4.69939 -2.52969 0
M  V30 2375 O 215.965 5.48372 -1.56985 0
M  V30 2376 O 214.899 4.94441 -3.43237 0
M  V30 2377 H 218.725 1.78427 -2.45759 0
M  V30 2378 H 216.31 0.823713 -1.24641 0
M  V30 2379 H 218.192 3.98413 -1.37276 0
M  V30 2380 H 216.867 3.20312 -0.467138 0
M  V30 2381 H 215.774 2.58802 -2.70134 0
M  V30 2382 H 217.107 3.41923 -3.54047 0
M  V30 2383 N 218.759 1.29093 0.90403 0
M  V30 2384 C 219.984 1.19809 1.69294 0
M  V30 2385 C 220.409 -0.238481 1.86582 0
M  V30 2386 O 219.767 -1.1723 1.383 0
M  V30 2387 C 219.815 1.91202 3.05736 0
M  V30 2388 O 218.919 1.22611 3.93752 0
M  V30 2389 H 218.26 0.415385 0.518027 0
M  V30 2390 H 220.79 1.70586 1.12967 0
M  V30 2391 H 220.8 1.99487 3.55906 0
M  V30 2392 H 219.475 2.95692 2.92471 0
M  V30 2393 H 218.052 1.22554 3.52186 0
M  V30 2394 N 220.237 -1.11381 1.11499 0
M  V30 2395 C 221.462 -1.87475 0.887019 0
M  V30 2396 C 221.887 -1.79639 -0.557796 0
M  V30 2397 O 221.245 -1.15924 -1.39396 0
M  V30 2398 C 221.293 -3.34213 1.35403 0
M  V30 2399 O 220.397 -4.0903 0.526146 0
M  V30 2400 H 219.738 -0.582099 0.319463 0
M  V30 2401 H 222.268 -1.40785 1.48461 0
M  V30 2402 H 222.278 -3.8506 1.34881 0
M  V30 2403 H 220.953 -3.39232 2.40612 0
M  V30 2404 H 219.53 -3.68082 0.597522 0
M  V30 2405 N 221.715 -0.905404 -1.28997 0
M  V30 2406 C 222.645 -0.404212 -2.29975 0
M  V30 2407 C 223.626 0.523784 -1.61835 0
M  V30 2408 O 224.811 0.433298 -1.89304 0
M  V30 2409 C 221.941 0.364042 -3.45387 0
M  V30 2410 C 220.895 -0.474048 -4.25367 0
M  V30 2411 C 220.221 0.422045 -5.33032 0
M  V30 2412 C 221.521 -1.72696 -4.92923 0
M  V30 2413 H 223.215 -1.24807 -2.72146 0
M  V30 2414 H 220.761 -0.601585 -1.30832 0
M  V30 2415 H 222.714 0.725447 -4.15109 0
M  V30 2416 H 221.438 1.24174 -3.02074 0
M  V30 2417 H 220.097 -0.81786 -3.57361 0
M  V30 2418 H 219.745 1.29804 -4.85963 0
M  V30 2419 H 219.445 -0.135057 -5.87445 0
M  V30 2420 H 220.969 0.779517 -6.05604 0
M  V30 2421 H 222.383 -1.43495 -5.55051 0
M  V30 2422 H 220.78 -2.22582 -5.57295 0
M  V30 2423 H 221.85 -2.45964 -4.17887 0
M  V30 2424 N 223.193 1.4272 -0.668489 0
M  V30 2425 C 224.44 2.01624 -0.18814 0
M  V30 2426 C 224.768 1.5282 1.20317 0
M  V30 2427 O 224.023 0.718323 1.8204 0
M  V30 2428 C 224.322 3.57021 -0.164499 0
M  V30 2429 C 223.988 4.25232 -1.49962 0
M  V30 2430 C 222.65 4.4358 -1.8652 0
M  V30 2431 C 225.002 4.63727 -2.37921 0
M  V30 2432 C 222.33 4.97694 -3.10674 0
M  V30 2433 C 224.682 5.19218 -3.6138 0
M  V30 2434 C 223.346 5.3578 -3.98115 0
M  V30 2435 H 222.616 0.737795 -0.0688454 0
M  V30 2436 H 225.263 1.70991 -0.862225 0
M  V30 2437 H 223.568 3.87285 0.593079 0
M  V30 2438 H 225.265 4.00372 0.224271 0
M  V30 2439 H 221.855 4.11306 -1.20522 0
M  V30 2440 H 226.039 4.4923 -2.10964 0
M  V30 2441 H 221.295 5.08702 -3.39164 0
M  V30 2442 H 225.469 5.4799 -4.29743 0
M  V30 2443 H 223.096 5.77475 -4.94395 0
M  V30 2444 N 224.671 0.411399 1.52136 0
M  V30 2445 C 225.581 -0.419774 2.30814 0
M  V30 2446 C 226.597 -1.0515 1.38634 0
M  V30 2447 O 227.773 -1.05252 1.71709 0
M  V30 2448 C 224.838 -1.52019 3.11594 0
M  V30 2449 C 223.899 -0.91129 4.19516 0
M  V30 2450 C 223.132 -1.95927 4.96436 0
M  V30 2451 O 223.355 -3.17775 4.73683 0
M  V30 2452 O 222.289 -1.56423 5.81219 0
M  V30 2453 H 226.115 0.221805 3.02889 0
M  V30 2454 H 223.7 0.174547 1.48377 0
M  V30 2455 H 225.582 -2.15898 3.61892 0
M  V30 2456 H 224.257 -2.14633 2.42311 0
M  V30 2457 H 223.164 -0.235157 3.7336 0
M  V30 2458 H 224.497 -0.32904 4.91099 0
M  V30 2459 N 226.149 -1.5696 0.141893 0
M  V30 2460 C 227.096 -2.16501 -0.799737 0
M  V30 2461 C 228.066 -1.09643 -1.24771 0
M  V30 2462 O 229.251 -1.3766 -1.32115 0
M  V30 2463 C 226.391 -2.78679 -2.03549 0
M  V30 2464 C 225.504 -3.99914 -1.6338 0
M  V30 2465 C 224.639 -4.50106 -2.82096 0
M  V30 2466 C 223.678 -5.63819 -2.38275 0
M  V30 2467 N 222.815 -6.08651 -3.49983 0
M  V30 2468 H 227.655 -2.96632 -0.285179 0
M  V30 2469 H 225.192 -1.46533 -0.129053 0
M  V30 2470 H 227.15 -3.1287 -2.75986 0
M  V30 2471 H 225.78 -2.012 -2.52425 0
M  V30 2472 H 224.832 -3.71735 -0.807279 0
M  V30 2473 H 226.144 -4.82311 -1.27192 0
M  V30 2474 H 225.298 -4.86325 -3.62729 0
M  V30 2475 H 224.037 -3.66706 -3.21525 0
M  V30 2476 H 223.042 -5.2718 -1.56081 0
M  V30 2477 H 224.267 -6.49 -1.99938 0
M  V30 2478 H 222.213 -5.28188 -3.89042 0
M  V30 2479 H 222.13 -6.85961 -3.17794 0
M  V30 2480 H 223.398 -6.49515 -4.30988 0
M  V30 2481 N 227.627 0.131896 -1.57047 0
M  V30 2482 C 228.537 1.1815 -2.02676 0
M  V30 2483 C 229.553 1.46113 -0.944824 0
M  V30 2484 O 230.729 1.57485 -1.25541 0
M  V30 2485 C 227.794 2.49139 -2.41103 0
M  V30 2486 C 226.855 2.28688 -3.63318 0
M  V30 2487 C 226.088 3.53431 -3.99903 0
M  V30 2488 O 226.311 4.60223 -3.36973 0
M  V30 2489 O 225.245 3.45198 -4.93074 0
M  V30 2490 H 229.071 0.824069 -2.92306 0
M  V30 2491 H 226.656 0.341745 -1.45439 0
M  V30 2492 H 228.538 3.26338 -2.66611 0
M  V30 2493 H 227.213 2.84382 -1.54624 0
M  V30 2494 H 226.12 1.4939 -3.42977 0
M  V30 2495 H 227.453 1.98355 -4.50462 0
M  V30 2496 N 229.106 1.52395 0.401703 0
M  V30 2497 C 230.036 1.79231 1.49661 0
M  V30 2498 C 231.017 0.643654 1.57452 0
M  V30 2499 O 232.202 0.889989 1.72606 0
M  V30 2500 C 229.332 1.94971 2.87409 0
M  V30 2501 C 228.286 3.10604 2.94465 0
M  V30 2502 C 227.612 3.11577 4.34538 0
M  V30 2503 C 228.912 4.49921 2.6527 0
M  V30 2504 H 230.606 2.70917 1.27454 0
M  V30 2505 H 228.152 1.30362 0.6117 0
M  V30 2506 H 230.105 2.12328 3.63999 0
M  V30 2507 H 228.829 0.999632 3.10926 0
M  V30 2508 H 227.488 2.93009 2.20321 0
M  V30 2509 H 227.136 2.14277 4.55076 0
M  V30 2510 H 226.836 3.89247 4.40183 0
M  V30 2511 H 228.36 3.31073 5.13053 0
M  V30 2512 H 229.774 4.67683 3.31581 0
M  V30 2513 H 228.171 5.29564 2.82281 0
M  V30 2514 H 229.241 4.57507 1.60671 0
M  V30 2515 N 230.584 -0.659388 1.43143 0
M  V30 2516 C 231.494 -1.80167 1.50256 0
M  V30 2517 C 232.51 -1.69571 0.390106 0
M  V30 2518 O 233.686 -1.90849 0.643319 0
M  V30 2519 C 230.751 -3.16409 1.41725 0
M  V30 2520 C 229.812 -3.38848 2.63591 0
M  V30 2521 C 229.045 -4.68591 2.55458 0
M  V30 2522 O 229.268 -5.47532 1.59891 0
M  V30 2523 O 228.202 -4.92614 3.45854 0
M  V30 2524 H 232.028 -1.77121 2.46702 0
M  V30 2525 H 229.613 -0.817092 1.25076 0
M  V30 2526 H 231.495 -3.9768 1.39387 0
M  V30 2527 H 230.17 -3.20059 0.484118 0
M  V30 2528 H 229.077 -2.57366 2.71502 0
M  V30 2529 H 230.41 -3.4004 3.55856 0
M  V30 2530 N 232.062 -1.29571 -0.897171 0
M  V30 2531 C 233.009 -1.14916 -2.00158 0
M  V30 2532 C 233.979 -0.0418149 -1.66047 0
M  V30 2533 O 235.164 -0.209793 -1.89643 0
M  V30 2534 C 232.304 -0.834307 -3.34863 0
M  V30 2535 C 231.417 -2.02234 -3.8174 0
M  V30 2536 C 230.552 -1.64664 -5.05034 0
M  V30 2537 C 229.591 -2.80033 -5.44286 0
M  V30 2538 N 228.728 -2.42843 -6.58765 0
M  V30 2539 H 233.568 -2.09403 -2.12025 0
M  V30 2540 H 231.105 -1.042 -1.0383 0
M  V30 2541 H 233.063 -0.632436 -4.12379 0
M  V30 2542 H 231.693 0.0736656 -3.22716 0
M  V30 2543 H 230.745 -2.33583 -3.00238 0
M  V30 2544 H 232.057 -2.88673 -4.06779 0
M  V30 2545 H 231.211 -1.4078 -5.9014 0
M  V30 2546 H 229.95 -0.753766 -4.8184 0
M  V30 2547 H 228.955 -3.04596 -4.57713 0
M  V30 2548 H 230.18 -3.69989 -5.6946 0
M  V30 2549 H 228.126 -1.56046 -6.3717 0
M  V30 2550 H 228.043 -3.22815 -6.83613 0
M  V30 2551 H 229.311 -2.22285 -7.47134 0
M  V30 2552 N 233.54 1.10788 -1.12088 0
M  V30 2553 C 234.787 1.82671 -0.873931 0
M  V30 2554 C 235.115 1.85004 0.600311 0
M  V30 2555 O 234.37 1.30365 1.45957 0
M  V30 2556 C 234.669 3.29294 -1.38926 0
M  V30 2557 C 234.335 3.47113 -2.87791 0
M  V30 2558 C 232.997 3.51684 -3.28439 0
M  V30 2559 C 235.349 3.52808 -3.83635 0
M  V30 2560 C 232.677 3.59513 -4.63646 0
M  V30 2561 C 235.029 3.62169 -5.18668 0
M  V30 2562 C 233.693 3.65003 -5.58864 0
M  V30 2563 H 232.963 0.668441 -0.319794 0
M  V30 2564 H 235.61 1.30613 -1.40045 0
M  V30 2565 H 233.915 3.83894 -0.783122 0
M  V30 2566 H 235.612 3.83416 -1.17443 0
M  V30 2567 H 232.202 3.4423 -2.5535 0
M  V30 2568 H 236.386 3.4853 -3.53328 0
M  V30 2569 H 231.642 3.59987 -4.94185 0
M  V30 2570 H 235.816 3.6552 -5.92763 0
M  V30 2571 H 233.443 3.70822 -6.63623 0
M  V30 2572 N 235.018 0.912232 1.28515 0
M  V30 2573 C 236.295 0.463597 1.90027 0
M  V30 2574 C 236.675 -1.05753 1.82701 0
M  V30 2575 O 236.023 -1.90492 1.26194 0
M  V30 2576 C 236.233 0.992253 3.34597 0
M  V30 2577 C 237.581 1.04344 4.11579 0
M  V30 2578 O 238.605 0.94079 3.43551 0
M  V30 2579 O 237.464 1.1995 5.33174 0
M  V30 2580 H 234.558 0.146666 0.813891 0
M  V30 2581 H 237.104 1.00292 1.36893 0
M  V30 2582 H 235.876 2.03623 3.34146 0
M  V30 2583 H 235.499 0.433672 3.95228 0
M  V30 2584 N 236.496 -1.42363 0.676048 0
M  V30 2585 C 237.724 -2.05859 0.207268 0
M  V30 2586 C 238.139 -1.50796 -1.13605 0
M  V30 2587 O 237.496 -0.648265 -1.70598 0
M  V30 2588 C 237.547 -3.61248 0.134975 0
M  V30 2589 O 237.268 -4.1427 1.42521 0
M  V30 2590 C 238.769 -4.41859 -0.357151 0
M  V30 2591 H 235.989 -0.663431 0.100503 0
M  V30 2592 H 238.533 -1.82479 0.923136 0
M  V30 2593 H 236.688 -3.83735 -0.531588 0
M  V30 2594 H 237.102 -5.0815 1.29939 0
M  V30 2595 H 238.576 -5.50847 -0.356641 0
M  V30 2596 H 239.053 -4.16536 -1.39264 0
M  V30 2597 H 239.659 -4.24392 0.27772 0
M  V30 2598 N 237.974 -0.419461 -1.51915 0
M  V30 2599 C 238.904 0.391813 -2.30189 0
M  V30 2600 C 239.885 1.03699 -1.34836 0
M  V30 2601 O 241.07 1.04403 -1.63748 0
M  V30 2602 C 238.2 1.50312 -3.13087 0
M  V30 2603 C 237.154 0.9824 -4.16573 0
M  V30 2604 C 236.48 2.18809 -4.8788 0
M  V30 2605 C 237.78 0.0292356 -5.22292 0
M  V30 2606 H 239.474 -0.26135 -2.98257 0
M  V30 2607 H 237.02 -0.127134 -1.43438 0
M  V30 2608 H 238.973 2.07773 -3.66617 0
M  V30 2609 H 237.697 2.18431 -2.42807 0
M  V30 2610 H 236.356 0.430119 -3.64068 0
M  V30 2611 H 236.004 2.85507 -4.14119 0
M  V30 2612 H 235.704 1.84615 -5.57845 0
M  V30 2613 H 237.228 2.76858 -5.44226 0
M  V30 2614 H 238.642 0.512976 -5.71 0
M  V30 2615 H 237.039 -0.2244 -5.9968 0
M  V30 2616 H 238.109 -0.912931 -4.76228 0
M  V30 2617 N 239.452 1.56882 -0.150215 0
M  V30 2618 C 240.868 1.58263 0.20617 0
M  V30 2619 C 241.068 1.16464 1.64434 0
M  V30 2620 O 240.124 0.866422 2.3717 0
M  V30 2621 C 241.437 3.00649 -0.0555025 0
M  V30 2622 C 242.985 3.12999 0.00795388 0
M  V30 2623 C 243.46 4.5744 -0.226429 0
M  V30 2624 N 244.951 4.62875 -0.173469 0
M  V30 2625 C 245.686 5.72454 -0.329288 0
M  V30 2626 N 245.182 6.90669 -0.543005 0
M  V30 2627 N 246.975 5.61467 -0.266666 0
M  V30 2628 H 239.126 1.82345 -1.08922 0
M  V30 2629 H 241.389 0.844149 -0.431413 0
M  V30 2630 H 241.095 3.3563 -1.05096 0
M  V30 2631 H 240.969 3.71337 0.66246 0
M  V30 2632 H 243.356 2.77857 0.993966 0
M  V30 2633 H 243.437 2.4479 -0.742388 0
M  V30 2634 H 243.081 4.93287 -1.20956 0
M  V30 2635 H 243.011 5.2378 0.544274 0
M  V30 2636 H 245.502 3.77898 -0.0130709 0
M  V30 2637 H 245.815 7.70045 -0.651922 0
M  V30 2638 H 244.16 6.92581 -0.579366 0
M  V30 2639 H 247.351 4.67992 -0.100441 0
M  V30 2640 H 247.524 6.46816 -0.391535 0
M  V30 2641 N 240.93 -0.123565 1.57115 0
M  V30 2642 C 242.177 -0.832153 1.84612 0
M  V30 2643 C 242.505 -1.80093 0.734627 0
M  V30 2644 O 241.76 -1.93766 -0.27442 0
M  V30 2645 C 242.059 -1.62016 3.18568 0
M  V30 2646 C 241.725 -0.796084 4.43817 0
M  V30 2647 C 240.387 -0.568816 4.77826 0
M  V30 2648 C 242.739 -0.221364 5.2073 0
M  V30 2649 C 240.067 0.243499 5.86194 0
M  V30 2650 C 242.419 0.578117 6.29953 0
M  V30 2651 C 241.083 0.815744 6.62497 0
M  V30 2652 H 240.353 -0.304507 0.675542 0
M  V30 2653 H 243 -0.0947248 1.91266 0
M  V30 2654 H 241.305 -2.42837 3.0747 0
M  V30 2655 H 243.002 -2.17231 3.37064 0
M  V30 2656 H 239.592 -0.983307 4.17168 0
M  V30 2657 H 243.776 -0.384173 4.94811 0
M  V30 2658 H 239.032 0.436871 6.09837 0
M  V30 2659 H 243.206 1.03046 6.88734 0
M  V30 2660 H 240.833 1.44701 7.46301 0
M  V30 2661 N 242.408 -1.52605 -0.393616 0
M  V30 2662 C 243.656 -1.67093 -1.13685 0
M  V30 2663 C 243.977 -0.411011 -1.90619 0
M  V30 2664 O 243.247 0.574491 -1.87287 0
M  V30 2665 H 241.827 -0.615923 -0.422668 0
M  V30 2666 H 244.489 -1.89704 -0.447039 0
M  V30 2667 H 243.585 -2.51922 -1.84232 0
M  V30 2668 N 243.887 0.651787 -1.4349 0
M  V30 2669 C 244.819 1.77725 -1.44729 0
M  V30 2670 C 245.832 1.59141 -0.343231 0
M  V30 2671 O 247.021 1.67835 -0.607751 0
M  V30 2672 C 244.121 3.15172 -1.24579 0
M  V30 2673 C 243.294 3.60402 -2.47849 0
M  V30 2674 C 242.353 4.76656 -2.22902 0
M  V30 2675 O 241.379 4.86022 -2.96263 0
M  V30 2676 N 242.581 5.66958 -1.24656 0
M  V30 2677 H 245.346 1.77141 -2.41746 0
M  V30 2678 H 242.907 0.835678 -1.38665 0
M  V30 2679 H 244.899 3.90634 -1.0577 0
M  V30 2680 H 243.469 3.1052 -0.360015 0
M  V30 2681 H 242.689 2.75369 -2.82073 0
M  V30 2682 H 243.977 3.87368 -3.29884 0
M  V30 2683 H 243.375 5.62065 -0.640265 0
M  V30 2684 H 241.932 6.42135 -1.1183 0
M  V30 2685 N 245.365 1.30045 0.890287 0
M  V30 2686 C 246.295 1.18541 2.01172 0
M  V30 2687 C 247.276 0.0773356 1.69924 0
M  V30 2688 O 248.461 0.25845 1.92473 0
M  V30 2689 C 245.591 0.870941 3.36202 0
M  V30 2690 C 244.545 1.93637 3.81692 0
M  V30 2691 C 243.871 1.475 5.13953 0
M  V30 2692 C 245.171 3.34666 4.00994 0
M  V30 2693 H 246.865 2.12359 2.11054 0
M  V30 2694 H 244.411 1.02238 1.01407 0
M  V30 2695 H 246.364 0.777141 4.14172 0
M  V30 2696 H 245.088 -0.102926 3.26438 0
M  V30 2697 H 243.747 2.01972 3.05946 0
M  V30 2698 H 243.395 0.489551 5.00612 0
M  V30 2699 H 243.095 2.1876 5.4536 0
M  V30 2700 H 244.619 1.39489 5.94454 0
M  V30 2701 H 246.033 3.2912 4.69417 0
M  V30 2702 H 244.43 4.03966 4.43769 0
M  V30 2703 H 245.5 3.76949 3.05021 0
M  V30 2704 N 246.843 -1.10192 1.12674 0
M  V30 2705 C 248.259 -1.34235 0.863317 0
M  V30 2706 C 248.459 -1.95062 -0.505277 0
M  V30 2707 O 247.515 -2.19192 -1.25345 0
M  V30 2708 C 248.828 -2.2616 1.98172 0
M  V30 2709 C 250.376 -2.3969 2.0129 0
M  V30 2710 C 250.851 -3.34946 3.1237 0
M  V30 2711 N 252.342 -3.42515 3.11829 0
M  V30 2712 C 253.077 -4.16199 3.94419 0
M  V30 2713 N 252.573 -4.92747 4.87004 0
M  V30 2714 N 254.366 -4.11843 3.82547 0
M  V30 2715 H 246.517 -0.690798 2.00853 0
M  V30 2716 H 248.78 -0.366774 0.874174 0
M  V30 2717 H 248.486 -1.8868 2.96804 0
M  V30 2718 H 248.36 -3.26488 1.88906 0
M  V30 2719 H 250.747 -2.76438 1.03276 0
M  V30 2720 H 250.828 -1.39169 2.14629 0
M  V30 2721 H 250.472 -2.98923 4.10619 0
M  V30 2722 H 250.402 -4.35353 2.96269 0
M  V30 2723 H 252.893 -2.87926 2.44759 0
M  V30 2724 H 253.206 -5.46376 5.46528 0
M  V30 2725 H 251.551 -4.91862 4.91016 0
M  V30 2726 H 254.742 -3.51136 3.0955 0
M  V30 2727 H 254.915 -4.69007 4.47142 0
M  V30 2728 N 248.321 -0.919034 -1.28029 0
M  V30 2729 C 249.268 -0.410005 -2.27129 0
M  V30 2730 C 250.238 0.518405 -1.57803 0
M  V30 2731 O 251.423 0.439451 -1.8567 0
M  V30 2732 C 248.563 0.339054 -3.4343 0
M  V30 2733 C 247.676 -0.622468 -4.27492 0
M  V30 2734 C 246.811 0.145567 -5.31001 0
M  V30 2735 C 245.85 -0.809226 -6.06727 0
M  V30 2736 N 244.987 -0.0743728 -7.02061 0
M  V30 2737 H 249.827 -1.26011 -2.70047 0
M  V30 2738 H 247.364 -0.632663 -1.328 0
M  V30 2739 H 249.322 0.789586 -4.0966 0
M  V30 2740 H 247.952 1.15346 -3.01488 0
M  V30 2741 H 247.004 -1.19153 -3.61257 0
M  V30 2742 H 248.316 -1.35252 -4.80113 0
M  V30 2743 H 247.47 0.656417 -6.03139 0
M  V30 2744 H 246.209 0.908643 -4.79161 0
M  V30 2745 H 245.214 -1.3314 -5.33436 0
M  V30 2746 H 246.439 -1.57194 -6.60656 0
M  V30 2747 H 244.385 0.670616 -6.52563 0
M  V30 2748 H 244.302 -0.744157 -7.52329 0
M  V30 2749 H 245.57 0.416109 -7.78389 0
M  V30 2750 N 249.799 1.42003 -0.683588 0
M  V30 2751 C 250.746 2.30798 -0.0107309 0
M  V30 2752 C 251.716 1.4645 0.783688 0
M  V30 2753 O 252.901 1.75263 0.754156 0
M  V30 2754 C 250.041 3.3238 0.928306 0
M  V30 2755 C 249.154 4.31814 0.126776 0
M  V30 2756 C 248.289 5.20468 1.06236 0
M  V30 2757 C 247.328 6.11577 0.253035 0
M  V30 2758 N 246.465 6.92754 1.14179 0
M  V30 2759 H 251.305 2.8778 -0.773727 0
M  V30 2760 H 248.842 1.41745 -0.393283 0
M  V30 2761 H 250.8 3.89813 1.48666 0
M  V30 2762 H 249.43 2.76976 1.65783 0
M  V30 2763 H 248.482 3.76427 -0.54833 0
M  V30 2764 H 249.794 4.96276 -0.501192 0
M  V30 2765 H 248.948 5.82677 1.69035 0
M  V30 2766 H 247.687 4.56204 1.7242 0
M  V30 2767 H 246.692 5.48428 -0.388108 0
M  V30 2768 H 247.917 6.77892 -0.404839 0
M  V30 2769 H 245.863 6.3111 1.78987 0
M  V30 2770 H 245.78 7.53855 0.569111 0
M  V30 2771 H 247.048 7.59441 1.75697 0
M  V30 2772 N 251.277 0.427512 1.51691 0
M  V30 2773 C 252.526 -0.143679 2.01188 0
M  V30 2774 C 252.839 -1.44642 1.31674 0
M  V30 2775 O 254.045 -2.09997 1.72086 0
M  V30 2776 C 252.501 -0.306602 3.58592 0
M  V30 2777 C 252.109 0.985125 4.37035 0
M  V30 2778 C 253.853 -0.832091 4.16265 0
M  V30 2779 C 251.76 0.788382 5.86122 0
M  V30 2780 H 250.69 -0.0574701 0.751807 0
M  V30 2781 H 253.341 0.555772 1.74881 0
M  V30 2782 H 251.723 -1.06882 3.81303 0
M  V30 2783 H 252.897 1.75492 4.26074 0
M  V30 2784 H 251.212 1.4384 3.90767 0
M  V30 2785 H 253.809 -0.995617 5.25349 0
M  V30 2786 H 254.152 -1.81186 3.74803 0
M  V30 2787 H 254.685 -0.128444 3.97593 0
M  V30 2788 H 251.424 1.74025 6.31978 0
M  V30 2789 H 250.944 0.0582143 5.99772 0
M  V30 2790 H 252.623 0.437722 6.45518 0
M  V30 2791 N 252.755 -1.56801 0.158532 0
M  V30 2792 C 254.001 -1.97559 -0.483957 0
M  V30 2793 C 254.356 -1.04239 -1.61716 0
M  V30 2794 O 253.649 -0.079603 -1.91435 0
M  V30 2795 C 253.843 -3.4235 -1.02623 0
M  V30 2796 C 253.672 -4.49669 0.0528929 0
M  V30 2797 C 252.442 -5.02838 0.498234 0
M  V30 2798 C 254.64 -5.0725 0.848616 0
M  V30 2799 N 252.622 -5.93775 1.559 0
M  V30 2800 C 253.993 -5.94506 1.7596 0
M  V30 2801 C 256.048 -4.89788 0.895121 0
M  V30 2802 C 254.751 -6.66169 2.71314 0
M  V30 2803 C 256.777 -5.62161 1.83654 0
M  V30 2804 C 256.139 -6.49134 2.73503 0
M  V30 2805 H 252.238 -0.768332 -0.145566 0
M  V30 2806 H 254.822 -1.93012 0.255799 0
M  V30 2807 H 252.993 -3.47467 -1.73555 0
M  V30 2808 H 254.725 -3.70145 -1.63629 0
M  V30 2809 H 251.48 -4.73498 0.0983222 0
M  V30 2810 H 251.904 -6.43948 2.08949 0
M  V30 2811 H 256.546 -4.22255 0.21453 0
M  V30 2812 H 254.264 -7.32923 3.40367 0
M  V30 2813 H 257.85 -5.5064 1.87847 0
M  V30 2814 H 256.73 -7.04153 3.45163 0
M  V30 2815 N 254.233 0.115231 -1.57178 0
M  V30 2816 C 255.482 0.820945 -1.84237 0
M  V30 2817 C 255.795 1.80866 -0.744761 0
M  V30 2818 O 257.001 2.56083 -0.901871 0
M  V30 2819 C 255.457 1.51072 -3.26658 0
M  V30 2820 C 255.065 0.563795 -4.44438 0
M  V30 2821 C 256.809 2.20134 -3.62962 0
M  V30 2822 C 254.716 1.25701 -5.77887 0
M  V30 2823 H 253.646 0.310328 -0.687177 0
M  V30 2824 H 256.297 0.0737134 -1.83352 0
M  V30 2825 H 254.679 2.30471 -3.22024 0
M  V30 2826 H 255.853 -0.197247 -4.60378 0
M  V30 2827 H 254.168 -0.0200638 -4.16395 0
M  V30 2828 H 256.765 2.72696 -4.59936 0
M  V30 2829 H 257.108 2.98107 -2.90582 0
M  V30 2830 H 257.641 1.47619 -3.69396 0
M  V30 2831 H 254.38 0.518493 -6.53446 0
M  V30 2832 H 253.9 1.98997 -5.65827 0
M  V30 2833 H 255.579 1.78915 -6.2177 0
M  V30 2834 N 255.711 1.52812 0.385517 0
M  V30 2835 C 257.127 1.4214 0.725829 0
M  V30 2836 C 257.327 0.544589 1.94001 0
M  V30 2837 O 256.383 0.0193693 2.52493 0
M  V30 2838 C 257.696 2.85042 0.957668 0
M  V30 2839 C 259.244 2.94543 1.05892 0
M  V30 2840 C 259.719 4.38464 1.32337 0
M  V30 2841 N 261.21 4.41804 1.39151 0
M  V30 2842 C 261.945 5.5025 1.61285 0
M  V30 2843 N 261.441 6.68775 1.80866 0
M  V30 2844 N 263.234 5.37798 1.63492 0
M  V30 2845 H 255.385 2.08338 -0.413383 0
M  V30 2846 H 257.648 0.940016 -0.122775 0
M  V30 2847 H 257.354 3.51431 0.137568 0
M  V30 2848 H 257.228 3.27505 1.87137 0
M  V30 2849 H 259.615 2.28321 1.86959 0
M  V30 2850 H 259.696 2.55504 0.123057 0
M  V30 2851 H 259.34 5.05254 0.517793 0
M  V30 2852 H 259.27 4.75059 2.27214 0
M  V30 2853 H 261.761 3.56377 1.25713 0
M  V30 2854 H 262.074 7.47197 1.97271 0
M  V30 2855 H 260.419 6.71797 1.78083 0
M  V30 2856 H 263.61 4.44171 1.47749 0
M  V30 2857 H 263.783 6.22382 1.80402 0
M  V30 2858 N 257.189 -0.644168 1.43834 0
M  V30 2859 C 258.122 -1.76906 1.44151 0
M  V30 2860 C 259.1 -1.59774 0.301857 0
M  V30 2861 O 260.284 -1.81834 0.496841 0
M  V30 2862 C 257.411 -3.14321 1.26174 0
M  V30 2863 C 256.457 -3.50134 2.43533 0
M  V30 2864 S 257.29 -3.49085 4.06079 0
M  V30 2865 C 258.446 -4.89142 3.90501 0
M  V30 2866 H 258.679 -1.76368 2.39336 0
M  V30 2867 H 256.212 -0.817624 1.30974 0
M  V30 2868 H 258.17 -3.93625 1.16489 0
M  V30 2869 H 256.831 -3.12412 0.325224 0
M  V30 2870 H 256.024 -4.50095 2.26783 0
M  V30 2871 H 255.626 -2.78264 2.4989 0
M  V30 2872 H 257.918 -5.78036 3.53385 0
M  V30 2873 H 258.861 -5.10945 4.90246 0
M  V30 2874 H 259.269 -4.63102 3.22795 0
M  V30 2875 N 258.668 -1.30515 -0.883378 0
M  V30 2876 C 259.578 -1.18959 -2.02203 0
M  V30 2877 C 260.594 -0.109172 -1.73657 0
M  V30 2878 O 261.77 -0.324413 -1.9877 0
M  V30 2879 C 258.835 -0.883871 -3.35244 0
M  V30 2880 C 257.896 -2.04982 -3.77201 0
M  V30 2881 C 257.129 -1.75859 -5.03894 0
M  V30 2882 O 257.352 -0.687276 -5.66244 0
M  V30 2883 O 256.286 -2.61146 -5.42297 0
M  V30 2884 H 260.112 -2.14616 -2.1488 0
M  V30 2885 H 257.697 -1.10124 -1.0096 0
M  V30 2886 H 259.579 -0.728644 -4.15053 0
M  V30 2887 H 258.254 0.0427798 -3.23672 0
M  V30 2888 H 257.161 -2.26038 -2.9809 0
M  V30 2889 H 258.494 -2.95825 -3.93381 0
M  V30 2890 N 260.146 1.09593 -1.13257 0
M  V30 2891 C 261.094 2.18271 -0.803783 0
M  V30 2892 C 262.088 1.68054 0.213148 0
M  V30 2893 O 263.294 1.79862 0.0704699 0
M  V30 2894 H 259.669 0.711949 -0.242143 0
M  V30 2895 H 261.64 2.43235 -1.72856 0
M  V30 2896 C 260.389 3.46536 -0.28424 0
M  V30 2897 H 259.712 3.85545 -1.05807 0
M  V30 2898 H 261.152 4.23899 -0.0925945 0
M  V30 2899 C 259.611 3.22036 0.989684 0
M  V30 2900 O 260.141 3.44509 2.06584 0
M  V30 2901 N 258.347 2.7565 0.920086 0
M  V30 2902 H 257.894 2.57562 0.0442019 0
M  V30 2903 H 257.852 2.59635 1.77306 0
M  V30 2904 N 261.624 0.925811 1.2754 0
M  V30 2905 C 263.035 0.610102 1.7645 0
M  V30 2906 C 263.386 -0.874723 1.75622 0
M  V30 2907 O 262.511 -1.68444 1.35851 0
M  V30 2908 C 263.106 1.10073 3.20421 0
M  V30 2909 C 261.665 0.835723 3.67005 0
M  V30 2910 C 260.812 1.26054 2.46993 0
M  V30 2911 H 263.763 1.10579 1.13833 0
M  V30 2912 H 263.784 0.447557 3.77859 0
M  V30 2913 H 263.296 2.18143 3.20991 0
M  V30 2914 H 261.397 -0.231249 3.71882 0
M  V30 2915 H 261.51 1.45193 4.56569 0
M  V30 2916 H 259.874 0.679111 2.45479 0
M  V30 2917 H 260.657 2.34984 2.50275 0
M  V30 2918 N 263.102 -1.41638 0.69111 0
M  V30 2919 C 264.065 -2.29178 0.0319786 0
M  V30 2920 C 265.065 -1.44153 -0.712496 0
M  V30 2921 O 266.255 -1.65354 -0.548053 0
M  V30 2922 C 263.387 -3.26952 -0.965161 0
M  V30 2923 H 264.58 -2.88959 0.802681 0
M  V30 2924 H 262.133 -1.4955 0.454356 0
M  V30 2925 H 262.868 -2.72142 -1.76378 0
M  V30 2926 H 262.653 -3.89685 -0.434522 0
M  V30 2927 H 264.143 -3.92561 -1.42428 0
M  V30 2928 N 264.58 -0.43555 -1.51462 0
M  V30 2929 C 265.81 0.130053 -2.0619 0
M  V30 2930 C 266.218 1.37164 -1.30317 0
M  V30 2931 O 265.561 1.80225 -0.355598 0
M  V30 2932 C 265.623 0.519418 -3.55728 0
M  V30 2933 C 265.287 -0.615119 -4.52841 0
M  V30 2934 C 266.284 -1.48671 -4.9819 0
M  V30 2935 C 263.969 -0.795341 -4.95963 0
M  V30 2936 C 265.963 -2.52324 -5.8533 0
M  V30 2937 C 263.65 -1.83514 -5.82894 0
M  V30 2938 C 264.648 -2.69748 -6.27475 0
M  V30 2939 O 264.336 -3.71944 -7.1268 0
M  V30 2940 H 264.068 0.0121612 -0.675891 0
M  V30 2941 H 266.622 -0.6129 -1.96043 0
M  V30 2942 H 264.852 1.31505 -3.63653 0
M  V30 2943 H 266.541 1.01597 -3.92979 0
M  V30 2944 H 267.307 -1.359 -4.65571 0
M  V30 2945 H 263.186 -0.133713 -4.60806 0
M  V30 2946 H 266.73 -3.19665 -6.20048 0
M  V30 2947 H 262.627 -1.96306 -6.14926 0
M  V30 2948 H 263.395 -3.68503 -7.30854 0
M  V30 2949 N 266.058 1.56714 -0.166846 0
M  V30 2950 C 267.298 1.98641 0.481763 0
M  V30 2951 C 267.662 1.05038 1.6072 0
M  V30 2952 O 268.863 1.36087 2.31805 0
M  V30 2953 C 267.134 3.44362 0.956517 0
M  V30 2954 S 268.693 4.08317 1.60694 0
M  V30 2955 H 265.511 0.693873 0.155116 0
M  V30 2956 H 268.113 1.93719 -0.263251 0
M  V30 2957 H 266.817 4.10204 0.126936 0
M  V30 2958 H 266.348 3.53041 1.73568 0
M  V30 2959 H 268.363 4.02999 2.89494 0
M  V30 2960 N 267.536 -0.106894 1.57237 0
M  V30 2961 C 268.466 -1.13148 2.04254 0
M  V30 2962 C 269.447 -1.42476 0.929224 0
M  V30 2963 O 270.632 -1.52709 1.19973 0
M  V30 2964 C 267.762 -2.4545 2.45706 0
M  V30 2965 C 266.716 -2.30558 3.60592 0
M  V30 2966 C 266.042 -3.67931 3.87983 0
M  V30 2967 C 267.342 -1.75597 4.91897 0
M  V30 2968 H 269.036 -0.740374 2.90101 0
M  V30 2969 H 266.582 -0.354696 1.39563 0
M  V30 2970 H 268.535 -3.17389 2.77205 0
M  V30 2971 H 267.259 -2.86475 1.56843 0
M  V30 2972 H 265.918 -1.61067 3.29322 0
M  V30 2973 H 265.566 -4.06462 2.96306 0
M  V30 2974 H 265.266 -3.58817 4.65322 0
M  V30 2975 H 266.79 -4.41356 4.21945 0
M  V30 2976 H 268.204 -2.37364 5.21854 0
M  V30 2977 H 266.601 -1.77272 5.73319 0
M  V30 2978 H 267.671 -0.714451 4.79608 0
M  V30 2979 N 269.014 -1.53014 -0.377408 0
M  V30 2980 C 270.239 -1.72818 -1.14668 0
M  V30 2981 C 270.664 -0.450725 -1.8262 0
M  V30 2982 O 270.022 0.59439 -1.7128 0
M  V30 2983 C 270.07 -2.88627 -2.16164 0
M  V30 2984 O 269.174 -2.56409 -3.22998 0
M  V30 2985 H 268.515 -0.574301 -0.333278 0
M  V30 2986 H 271.045 -1.99853 -0.438152 0
M  V30 2987 H 271.055 -3.14455 -2.59966 0
M  V30 2988 H 269.73 -3.81294 -1.66095 0
M  V30 2989 H 268.307 -2.4136 -2.84253 0
M  V30 2990 N 270.492 0.636531 -1.44174 0
M  V30 2991 C 271.455 1.73063 -1.50273 0
M  V30 2992 C 272.455 1.56113 -0.385397 0
M  V30 2993 O 273.645 1.61707 -0.64781 0
M  V30 2994 C 270.777 3.12096 -1.37145 0
M  V30 2995 H 271.97 1.69031 -2.47727 0
M  V30 2996 H 269.523 0.849706 -1.31186 0
M  V30 2997 H 270.258 3.21728 -0.407636 0
M  V30 2998 H 270.043 3.25805 -2.18159 0
M  V30 2999 H 271.533 3.91846 -1.44382 0
M  V30 3000 N 271.97 1.30982 0.876444 0
M  V30 3001 C 272.917 1.18085 1.98304 0
M  V30 3002 C 273.887 0.0682263 1.6596 0
M  V30 3003 O 275.072 0.239937 1.89285 0
M  V30 3004 C 272.212 0.887475 3.33493 0
M  V30 3005 C 271.325 2.08281 3.78475 0
M  V30 3006 C 270.46 1.72678 5.0235 0
M  V30 3007 C 269.499 2.88657 5.39762 0
M  V30 3008 N 268.636 2.53292 6.54819 0
M  V30 3009 H 273.476 2.1275 2.08666 0
M  V30 3010 H 271.013 1.05839 1.02159 0
M  V30 3011 H 272.971 0.697961 4.1132 0
M  V30 3012 H 271.601 -0.022315 3.22792 0
M  V30 3013 H 270.653 2.3833 2.96484 0
M  V30 3014 H 271.965 2.95108 4.02135 0
M  V30 3015 H 271.119 1.50151 5.87826 0
M  V30 3016 H 269.858 0.830327 4.8058 0
M  V30 3017 H 268.863 3.1184 4.52809 0
M  V30 3018 H 270.088 3.79002 5.63502 0
M  V30 3019 H 268.034 1.66163 6.34607 0
M  V30 3020 H 267.951 3.3365 6.7839 0
M  V30 3021 H 269.219 2.34143 7.43503 0
M  V30 3022 N 273.449 -1.08991 1.13837 0
M  V30 3023 C 274.379 -2.17771 0.842507 0
M  V30 3024 C 275.36 -1.6892 -0.20001 0
M  V30 3025 O 276.545 -1.94113 -0.0579731 0
M  V30 3026 C 273.675 -3.4589 0.312644 0
M  V30 3027 C 272.629 -4.08099 1.28992 0
M  V30 3028 C 271.955 -5.31098 0.619623 0
M  V30 3029 C 273.255 -4.50077 2.65005 0
M  V30 3030 H 274.949 -2.42777 1.75213 0
M  V30 3031 H 272.495 -1.16682 0.843875 0
M  V30 3032 H 274.448 -4.21297 0.0933043 0
M  V30 3033 H 273.172 -3.20419 -0.632382 0
M  V30 3034 H 271.831 -3.34717 1.49533 0
M  V30 3035 H 271.479 -5.0191 -0.33102 0
M  V30 3036 H 271.179 -5.73674 1.27167 0
M  V30 3037 H 272.703 -6.09224 0.409669 0
M  V30 3038 H 274.117 -5.16688 2.48407 0
M  V30 3039 H 272.514 -5.03553 3.26427 0
M  V30 3040 H 273.584 -3.62257 3.22332 0
M  V30 3041 N 274.927 -0.932562 -1.27047 0
M  V30 3042 C 276.176 -0.571351 -1.93439 0
M  V30 3043 C 276.489 0.892467 -1.74053 0
M  V30 3044 O 277.695 1.36267 -2.34826 0
M  V30 3045 C 276.151 -0.97106 -3.46552 0
M  V30 3046 C 275.759 -2.4559 -3.74686 0
M  V30 3047 C 277.503 -0.681333 -4.18997 0
M  V30 3048 C 275.41 -2.79475 -5.21198 0
M  V30 3049 H 274.34 -0.209966 -0.724176 0
M  V30 3050 H 276.991 -1.13403 -1.44263 0
M  V30 3051 H 275.373 -0.336983 -3.94564 0
M  V30 3052 H 276.547 -3.13829 -3.37414 0
M  V30 3053 H 274.862 -2.71802 -3.15456 0
M  V30 3054 H 277.459 -0.910939 -5.26883 0
M  V30 3055 H 277.802 0.381628 -4.14547 0
M  V30 3056 H 278.335 -1.27473 -3.76823 0
M  V30 3057 H 275.074 -3.847 -5.30741 0
M  V30 3058 H 274.594 -2.1589 -5.596 0
M  V30 3059 H 276.273 -2.67478 -5.89122 0
M  V30 3060 N 276.405 1.4127 -0.698611 0
M  V30 3061 C 277.368 2.29158 -0.044132 0
M  V30 3062 C 278.368 1.44529 0.704841 0
M  V30 3063 O 279.558 1.65643 0.539276 0
M  V30 3064 C 276.69 3.27459 0.947809 0
M  V30 3065 H 277.883 2.88529 -0.817994 0
M  V30 3066 H 275.436 1.49307 -0.46228 0
M  V30 3067 H 276.171 2.73073 1.74933 0
M  V30 3068 H 275.956 3.8991 0.41385 0
M  V30 3069 H 277.446 3.93311 1.40344 0
M  V30 3070 N 277.883 0.443576 1.51229 0
M  V30 3071 C 279.132 -0.122332 2.01329 0
M  V30 3072 C 279.445 -1.43237 1.33201 0
M  V30 3073 O 280.651 -2.0816 1.74304 0
M  V30 3074 C 279.107 -0.268551 3.58897 0
M  V30 3075 C 278.715 1.03142 4.35965 0
M  V30 3076 C 280.459 -0.787894 4.17124 0
M  V30 3077 C 278.366 0.850504 5.85252 0
M  V30 3078 H 277.296 -0.0494929 0.752374 0
M  V30 3079 H 279.947 0.574289 1.74282 0
M  V30 3080 H 278.329 -1.02832 3.82415 0
M  V30 3081 H 279.503 1.80001 4.24189 0
M  V30 3082 H 277.818 1.47977 3.89219 0
M  V30 3083 H 280.415 -0.939841 5.26375 0
M  V30 3084 H 280.758 -1.77201 3.76703 0
M  V30 3085 H 281.291 -0.0862669 3.97706 0
M  V30 3086 H 278.03 1.80718 6.30096 0
M  V30 3087 H 277.55 0.121825 5.99676 0
M  V30 3088 H 279.229 0.506163 6.45017 0
M  V30 3089 N 279.361 -1.56624 0.175154 0
M  V30 3090 C 280.586 -2.01813 -0.478137 0
M  V30 3091 C 281.011 -1.05457 -1.55757 0
M  V30 3092 O 280.369 -0.0347439 -1.81267 0
M  V30 3093 C 280.417 -3.45581 -1.02987 0
M  V30 3094 O 279.521 -3.52305 -2.14371 0
M  V30 3095 H 278.862 -0.65413 -0.114059 0
M  V30 3096 H 281.392 -2.02673 0.280173 0
M  V30 3097 H 281.402 -3.84965 -1.35151 0
M  V30 3098 H 280.077 -4.1521 -0.239556 0
M  V30 3099 H 278.654 -3.24783 -1.83222 0
M  V30 3100 N 280.839 0.0985539 -1.57292 0
M  V30 3101 C 282.064 0.820196 -1.90493 0
M  V30 3102 C 282.489 1.71658 -0.769094 0
M  V30 3103 O 281.847 1.79133 0.279495 0
M  V30 3104 C 281.895 1.61242 -3.22542 0
M  V30 3105 O 280.999 2.72108 -3.09888 0
M  V30 3106 H 280.34 0.225547 -0.62452 0
M  V30 3107 H 282.87 0.0748159 -2.04463 0
M  V30 3108 H 282.88 1.99737 -3.55766 0
M  V30 3109 H 281.555 0.954535 -4.04798 0
M  V30 3110 H 280.132 2.36667 -2.88172 0
M  V30 3111 N 282.317 1.53212 0.369288 0
M  V30 3112 C 283.247 1.82365 1.45826 0
M  V30 3113 C 284.228 0.676907 1.56051 0
M  V30 3114 O 285.413 0.926401 1.70679 0
M  V30 3115 C 282.543 2.01023 2.83208 0
M  V30 3116 C 281.497 3.1678 2.8781 0
M  V30 3117 C 280.823 3.20724 4.27832 0
M  V30 3118 C 282.123 4.55447 2.55667 0
M  V30 3119 H 283.817 2.73559 1.21678 0
M  V30 3120 H 281.363 1.3163 0.583911 0
M  V30 3121 H 283.316 2.20001 3.59413 0
M  V30 3122 H 282.04 1.06536 3.08736 0
M  V30 3123 H 280.699 2.97616 2.14056 0
M  V30 3124 H 280.347 2.23882 4.50429 0
M  V30 3125 H 280.047 3.98496 4.31827 0
M  V30 3126 H 281.571 3.41881 5.05915 0
M  V30 3127 H 282.985 4.74611 3.21586 0
M  V30 3128 H 281.382 5.35432 2.70984 0
M  V30 3129 H 282.452 4.60812 1.5093 0
M  V30 3130 N 283.795 -0.628877 1.44509 0
M  V30 3131 C 285.02 -1.42048 1.5112 0
M  V30 3132 C 285.445 -1.87594 0.137818 0
M  V30 3133 O 284.803 -1.58873 -0.873437 0
M  V30 3134 C 284.851 -2.61541 2.48251 0
M  V30 3135 O 283.955 -3.61453 1.98559 0
M  V30 3136 H 283.296 -0.424942 0.510216 0
M  V30 3137 H 285.826 -0.767374 1.89664 0
M  V30 3138 H 285.836 -3.09057 2.66361 0
M  V30 3139 H 284.511 -2.27736 3.48007 0
M  V30 3140 H 283.088 -3.20731 1.90227 0
M  V30 3141 N 285.273 -1.31445 -0.869486 0
M  V30 3142 C 286.519 -1.21337 -1.62496 0
M  V30 3143 C 286.852 0.227872 -1.92858 0
M  V30 3144 O 286.127 1.16094 -1.56053 0
M  V30 3145 C 286.41 -2.05814 -2.95487 0
M  V30 3146 C 286.263 -3.5824 -2.72 0
M  V30 3147 C 287.582 -1.9079 -3.96594 0
M  V30 3148 H 284.701 -0.442135 -0.589649 0
M  V30 3149 H 287.343 -1.6124 -1.00507 0
M  V30 3150 H 285.493 -1.71913 -3.48394 0
M  V30 3151 H 287.165 -4.0228 -2.25762 0
M  V30 3152 H 285.408 -3.81647 -2.06224 0
M  V30 3153 H 286.079 -4.12657 -3.66631 0
M  V30 3154 H 288.555 -2.20459 -3.52898 0
M  V30 3155 H 287.431 -2.52199 -4.87531 0
M  V30 3156 H 287.692 -0.871341 -4.33428 0
M  V30 3157 N 286.751 1.08385 -1.14413 0
M  V30 3158 C 287.997 1.81044 -0.913834 0
M  V30 3159 C 288.33 1.86004 0.558209 0
M  V30 3160 O 287.605 1.33606 1.4135 0
M  V30 3161 C 287.888 3.26648 -1.51569 0
M  V30 3162 C 287.741 3.29895 -3.0576 0
M  V30 3163 C 289.06 4.23629 -1.19273 0
M  V30 3164 H 286.179 0.65727 -0.333414 0
M  V30 3165 H 288.821 1.26896 -1.41412 0
M  V30 3166 H 286.971 3.72889 -1.09023 0
M  V30 3167 H 288.643 2.91977 -3.57137 0
M  V30 3168 H 286.886 2.69163 -3.40197 0
M  V30 3169 H 287.557 4.32516 -3.42977 0
M  V30 3170 H 290.033 3.85727 -1.56057 0
M  V30 3171 H 288.909 5.23822 -1.64017 0
M  V30 3172 H 289.17 4.41968 -0.108068 0
M  V30 3173 N 288.23 0.939286 1.26551 0
M  V30 3174 C 289.16 0.465044 2.28822 0
M  V30 3175 C 290.141 -0.480692 1.63167 0
M  V30 3176 O 291.326 -0.382955 1.90387 0
M  V30 3177 C 288.456 -0.27234 3.46231 0
M  V30 3178 C 287.41 0.58666 4.2396 0
M  V30 3179 C 286.736 -0.280573 5.33963 0
M  V30 3180 C 288.036 1.85704 4.88171 0
M  V30 3181 H 289.73 1.31979 2.68741 0
M  V30 3182 H 287.276 0.636061 1.29191 0
M  V30 3183 H 289.229 -0.615133 4.16886 0
M  V30 3184 H 287.953 -1.16121 3.0526 0
M  V30 3185 H 286.612 0.91232 3.55067 0
M  V30 3186 H 286.26 -1.16874 4.89234 0
M  V30 3187 H 285.96 0.29076 5.8688 0
M  V30 3188 H 287.484 -0.618678 6.07458 0
M  V30 3189 H 288.898 1.58161 5.51052 0
M  V30 3190 H 287.295 2.37279 5.51197 0
M  V30 3191 H 288.365 2.56957 4.11219 0
M  V30 3192 N 289.708 -1.40897 0.706093 0
M  V30 3193 C 290.671 -2.29131 0.0562841 0
M  V30 3194 C 291.671 -1.44901 -0.697166 0
M  V30 3195 O 292.861 -1.65926 -0.530484 0
M  V30 3196 C 289.993 -3.27957 -0.93043 0
M  V30 3197 H 291.186 -2.88091 0.833284 0
M  V30 3198 H 288.739 -1.4906 0.470192 0
M  V30 3199 H 289.474 -2.73997 -1.73482 0
M  V30 3200 H 289.259 -3.90124 -0.393166 0
M  V30 3201 H 290.749 -3.94049 -1.38256 0
M  V30 3202 N 291.186 -0.45159 -1.50991 0
M  V30 3203 C 292.411 0.110667 -2.07105 0
M  V30 3204 C 292.836 1.3446 -1.31538 0
M  V30 3205 O 292.194 1.77743 -0.357365 0
M  V30 3206 C 292.242 0.397238 -3.58405 0
M  V30 3207 O 291.346 1.48124 -3.84881 0
M  V30 3208 H 290.687 -0.00439271 -0.663985 0
M  V30 3209 H 293.217 -0.637026 -1.9443 0
M  V30 3210 H 293.227 0.64351 -4.02893 0
M  V30 3211 H 291.902 -0.504553 -4.12828 0
M  V30 3212 H 290.479 1.22381 -3.52246 0
M  V30 3213 N 292.664 1.56529 -0.183458 0
M  V30 3214 C 293.913 1.96419 0.458511 0
M  V30 3215 C 294.226 1.0727 1.63562 0
M  V30 3216 O 295.432 1.36893 2.34462 0
M  V30 3217 C 293.888 3.49298 0.867122 0
M  V30 3218 C 293.496 4.47092 -0.285057 0
M  V30 3219 C 295.24 3.97983 1.47683 0
M  V30 3220 C 293.147 5.91225 0.143862 0
M  V30 3221 H 292.077 0.733394 0.175071 0
M  V30 3222 H 294.728 1.81448 -0.273624 0
M  V30 3223 H 293.11 3.59731 1.65559 0
M  V30 3224 H 294.284 4.48383 -1.0625 0
M  V30 3225 H 292.599 4.08535 -0.805503 0
M  V30 3226 H 295.196 5.03134 1.80999 0
M  V30 3227 H 295.539 3.41618 2.37914 0
M  V30 3228 H 296.072 3.90617 0.752562 0
M  V30 3229 H 292.811 6.5149 -0.723974 0
M  V30 3230 H 292.331 5.93214 0.886413 0
M  V30 3231 H 294.01 6.44362 0.583628 0
M  V30 3232 N 294.142 -0.090211 1.57342 0
M  V30 3233 C 295.388 -0.793982 1.86611 0
M  V30 3234 C 295.721 -1.78142 0.773252 0
M  V30 3235 O 294.996 -1.93271 -0.218304 0
M  V30 3236 C 295.279 -1.51839 3.26523 0
M  V30 3237 C 295.132 -0.548609 4.46442 0
M  V30 3238 C 296.451 -2.46779 3.64401 0
M  V30 3239 H 293.57 -0.287186 0.678744 0
M  V30 3240 H 296.212 -0.0575076 1.89913 0
M  V30 3241 H 294.362 -2.14617 3.23839 0
M  V30 3242 H 296.034 0.0725513 4.61243 0
M  V30 3243 H 294.277 0.137614 4.33582 0
M  V30 3244 H 294.948 -1.09271 5.41076 0
M  V30 3245 H 297.424 -1.94089 3.68061 0
M  V30 3246 H 296.3 -2.94479 4.63221 0
M  V30 3247 H 296.561 -3.30758 2.93346 0
M  V30 3248 N 295.62 -1.53406 -0.361157 0
M  V30 3249 C 296.583 -1.79479 -1.42548 0
M  V30 3250 C 297.583 -0.665327 -1.4639 0
M  V30 3251 O 298.773 -0.933549 -1.47073 0
M  V30 3252 C 295.905 -1.92087 -2.8163 0
M  V30 3253 H 297.098 -2.74538 -1.20701 0
M  V30 3254 H 294.651 -1.4455 -0.594546 0
M  V30 3255 H 295.386 -0.991099 -3.08784 0
M  V30 3256 H 295.171 -2.74241 -2.80239 0
M  V30 3257 H 296.661 -2.13836 -3.58697 0
M  V30 3258 N 297.098 0.621204 -1.44841 0
M  V30 3259 C 298.031 1.7459 -1.46947 0
M  V30 3260 C 299.009 1.59273 -0.327238 0
M  V30 3261 O 300.193 1.81021 -0.525706 0
M  V30 3262 C 297.32 3.12274 -1.31159 0
M  V30 3263 C 296.366 3.46216 -2.49072 0
M  V30 3264 S 297.199 3.4258 -4.11581 0
M  V30 3265 C 298.355 4.82867 -3.98233 0
M  V30 3266 H 298.588 1.72538 -2.42111 0
M  V30 3267 H 296.121 0.796683 -1.32259 0
M  V30 3268 H 298.079 3.91722 -1.22737 0
M  V30 3269 H 296.74 3.11855 -0.374885 0
M  V30 3270 H 295.933 4.4643 -2.33915 0
M  V30 3271 H 295.535 2.74253 -2.54286 0
M  V30 3272 H 297.827 5.7234 -3.62537 0
M  V30 3273 H 298.77 5.0308 -4.98313 0
M  V30 3274 H 299.178 4.57908 -3.30121 0
M  V30 3275 N 298.576 1.31904 0.862503 0
M  V30 3276 C 299.816 1.23324 1.63004 0
M  V30 3277 C 300.18 -0.203724 1.90916 0
M  V30 3278 O 301.381 -0.413132 2.65606 0
M  V30 3279 C 299.652 2.06116 2.91978 0
M  V30 3280 S 301.211 2.14478 3.82812 0
M  V30 3281 H 298.029 0.439117 0.559193 0
M  V30 3282 H 300.631 1.66658 1.02202 0
M  V30 3283 H 299.335 3.09593 2.69407 0
M  V30 3284 H 298.866 1.6353 3.57801 0
M  V30 3285 H 300.881 1.28855 4.79177 0
M  V30 3286 N 300.054 -1.07777 1.14986 0
M  V30 3287 C 301.3 -1.80557 0.923422 0
M  V30 3288 C 301.633 -1.86298 -0.548337 0
M  V30 3289 O 300.908 -1.34354 -1.40639 0
M  V30 3290 C 301.191 -3.25839 1.53299 0
M  V30 3291 C 301.044 -3.28269 3.07505 0
M  V30 3292 C 302.363 -4.22991 1.21518 0
M  V30 3293 H 299.482 -0.655493 0.336894 0
M  V30 3294 H 302.124 -1.26144 1.42083 0
M  V30 3295 H 300.274 -3.72306 1.10999 0
M  V30 3296 H 301.946 -2.90079 3.58681 0
M  V30 3297 H 300.189 -2.67355 3.4162 0
M  V30 3298 H 300.86 -4.30691 3.45266 0
M  V30 3299 H 303.336 -3.84894 1.581 0
M  V30 3300 H 302.212 -5.22945 1.66793 0
M  V30 3301 H 302.473 -4.41904 0.131505 0
M  V30 3302 N 301.532 -0.945985 -1.26051 0
M  V30 3303 C 302.482 -0.430164 -2.23905 0
M  V30 3304 C 303.466 0.47579 -1.53704 0
M  V30 3305 O 304.658 0.310252 -1.7426 0
M  V30 3306 C 301.787 0.298957 -3.41996 0
M  V30 3307 C 300.873 -0.624566 -4.19476 0
M  V30 3308 N 301.264 -1.75245 -4.74471 0
M  V30 3309 C 299.562 -0.431082 -4.43912 0
M  V30 3310 C 300.263 -2.32834 -5.3307 0
M  V30 3311 N 299.239 -1.61583 -5.1903 0
M  V30 3312 H 303.041 -1.29107 -2.64024 0
M  V30 3313 H 300.555 -0.802428 -1.41191 0
M  V30 3314 H 302.552 0.685565 -4.11225 0
M  V30 3315 H 301.212 1.15657 -3.03403 0
M  V30 3316 H 302.223 -2.13449 -4.71868 0
M  V30 3317 H 298.9 0.384364 -4.15727 0
M  V30 3318 H 300.29 -3.27893 -5.86461 0
M  V30 3319 N 303.011 1.40521 -0.713556 0
M  V30 3320 C 304.236 2.05759 -0.26035 0
M  V30 3321 C 304.661 1.53403 1.08854 0
M  V30 3322 O 304.019 0.668535 1.68524 0
M  V30 3323 C 304.067 3.59745 -0.248122 0
M  V30 3324 O 303.171 4.05123 0.77131 0
M  V30 3325 H 302.512 0.652564 -0.122703 0
M  V30 3326 H 305.042 1.79958 -0.973467 0
M  V30 3327 H 305.052 4.07911 -0.0851129 0
M  V30 3328 H 303.727 3.97218 -1.2325 0
M  V30 3329 H 302.304 3.68422 0.57619 0
M  V30 3330 N 304.489 0.459591 1.5075 0
M  V30 3331 C 305.422 -0.386257 2.24907 0
M  V30 3332 C 306.4 -1.006 1.27744 0
M  V30 3333 O 307.584 -1.04416 1.56938 0
M  V30 3334 C 304.711 -1.54021 3.01654 0
M  V30 3335 C 303.757 -1.03898 4.13651 0
M  V30 3336 S 304.59 0.0370501 5.35487 0
M  V30 3337 C 305.746 -1.12105 6.15779 0
M  V30 3338 H 305.979 0.243272 2.96303 0
M  V30 3339 H 303.512 0.244339 1.52454 0
M  V30 3340 H 305.47 -2.20163 3.46466 0
M  V30 3341 H 304.131 -2.14121 2.29806 0
M  V30 3342 H 303.324 -1.90254 4.66711 0
M  V30 3343 H 302.926 -0.45545 3.71216 0
M  V30 3344 H 305.218 -2.03501 6.46215 0
M  V30 3345 H 306.161 -0.62995 7.05292 0
M  V30 3346 H 306.569 -1.36967 5.47631 0
M  V30 3347 N 305.967 -1.56429 0.191757 0
M  V30 3348 C 307.192 -2.02309 -0.456706 0
M  V30 3349 C 307.617 -1.07103 -1.5463 0
M  V30 3350 O 306.975 -0.0539677 -1.8122 0
M  V30 3351 C 307.023 -3.46654 -0.993159 0
M  V30 3352 O 306.127 -3.54559 -2.10622 0
M  V30 3353 H 305.468 -0.655303 -0.107114 0
M  V30 3354 H 307.998 -2.02364 0.301653 0
M  V30 3355 H 308.008 -3.86377 -1.31061 0
M  V30 3356 H 306.683 -4.1544 -0.195504 0
M  V30 3357 H 305.26 -3.26708 -1.79767 0
M  V30 3358 N 307.445 0.0818655 -1.57387 0
M  V30 3359 C 308.355 1.11642 -2.06333 0
M  V30 3360 C 309.371 1.43033 -0.99083 0
M  V30 3361 O 310.547 1.53411 -1.30488 0
M  V30 3362 C 307.612 2.41342 -2.48907 0
M  V30 3363 C 306.673 2.17014 -3.7041 0
M  V30 3364 C 305.906 3.4053 -4.10944 0
M  V30 3365 O 306.129 4.4927 -3.51444 0
M  V30 3366 O 305.063 3.29336 -5.03807 0
M  V30 3367 H 308.889 0.730657 -2.9478 0
M  V30 3368 H 306.474 0.295301 -1.46452 0
M  V30 3369 H 308.356 3.17691 -2.76858 0
M  V30 3370 H 307.031 2.79319 -1.63593 0
M  V30 3371 H 305.938 1.38403 -3.47556 0
M  V30 3372 H 307.271 1.83923 -4.56545 0
M  V30 3373 N 308.923 1.53595 0.353017 0
M  V30 3374 C 310.17 1.70385 1.09431 0
M  V30 3375 C 310.498 0.462113 1.88931 0
M  V30 3376 O 309.753 -0.556074 1.87633 0
M  V30 3377 C 310.052 2.91313 2.07054 0
M  V30 3378 C 309.718 4.27308 1.43939 0
M  V30 3379 C 308.38 4.64287 1.26454 0
M  V30 3380 C 310.732 5.11829 0.983883 0
M  V30 3381 C 308.06 5.83412 0.620226 0
M  V30 3382 C 310.412 6.31611 0.353516 0
M  V30 3383 C 309.076 6.67293 0.166272 0
M  V30 3384 H 308.346 0.623484 0.400436 0
M  V30 3385 H 310.993 1.87799 0.374655 0
M  V30 3386 H 309.298 2.68463 2.85368 0
M  V30 3387 H 310.995 3.01497 2.64387 0
M  V30 3388 H 307.585 3.98198 1.58543 0
M  V30 3389 H 311.769 4.838 1.10685 0
M  V30 3390 H 307.025 6.09639 0.463681 0
M  V30 3391 H 311.199 6.964 -0.00757555 0
M  V30 3392 H 308.826 7.59461 -0.335047 0
M  V30 3393 N 310.401 -0.613514 1.45168 0
M  V30 3394 C 311.333 -1.73825 1.4939 0
M  V30 3395 C 312.346 -1.58175 0.385304 0
M  V30 3396 O 313.535 -1.66165 0.652036 0
M  V30 3397 C 310.635 -3.11758 1.32891 0
M  V30 3398 C 309.808 -3.53704 2.57317 0
M  V30 3399 C 308.867 -4.70579 2.35462 0
M  V30 3400 O 307.893 -4.77996 3.09044 0
M  V30 3401 N 309.095 -5.63454 1.39644 0
M  V30 3402 H 311.86 -1.70669 2.46358 0
M  V30 3403 H 309.421 -0.79862 1.40832 0
M  V30 3404 H 311.413 -3.87692 1.1609 0
M  V30 3405 H 309.983 -3.09456 0.442218 0
M  V30 3406 H 309.203 -2.67794 2.89275 0
M  V30 3407 H 310.491 -3.78486 3.40038 0
M  V30 3408 H 309.889 -5.6017 0.789062 0
M  V30 3409 H 308.446 -6.38944 1.28816 0
M  V30 3410 N 311.879 -1.3236 -0.855495 0
M  V30 3411 C 312.827 -1.2118 -1.9854 0
M  V30 3412 C 313.821 -0.116788 -1.68997 0
M  V30 3413 O 315.027 -0.279657 -1.77814 0
M  V30 3414 H 311.402 -0.375608 -0.651477 0
M  V30 3415 H 313.373 -2.16743 -2.05098 0
M  V30 3416 C 312.122 -0.950849 -3.34446 0
M  V30 3417 H 311.445 -1.78563 -3.57708 0
M  V30 3418 H 312.885 -0.912863 -4.14057 0
M  V30 3419 C 311.344 0.346404 -3.35114 0
M  V30 3420 O 311.874 1.35855 -3.7803 0
M  V30 3421 N 310.08 0.36808 -2.88259 0
M  V30 3422 H 309.627 -0.456102 -2.5353 0
M  V30 3423 H 309.585 1.23591 -2.89089 0
M  V30 3424 N 313.357 1.07166 -1.15556 0
M  V30 3425 C 314.267 2.17947 -0.868116 0
M  V30 3426 C 315.283 1.73297 0.156297 0
M  V30 3427 O 316.459 2.01392 -0.0182327 0
M  V30 3428 C 313.524 3.44789 -0.36355 0
M  V30 3429 C 312.585 4.03996 -1.45209 0
M  V30 3430 C 311.818 5.24783 -0.971508 0
M  V30 3431 O 312.041 5.70109 0.182194 0
M  V30 3432 O 310.975 5.75715 -1.75603 0
M  V30 3433 H 314.801 2.4503 -1.79427 0
M  V30 3434 H 312.386 1.16539 -0.934824 0
M  V30 3435 H 314.268 4.21307 -0.0887113 0
M  V30 3436 H 312.943 3.19253 0.534708 0
M  V30 3437 H 311.85 3.29009 -1.78056 0
M  V30 3438 H 313.183 4.33808 -2.32533 0
M  V30 3439 N 314.835 0.952656 1.25548 0
M  V30 3440 C 316.112 0.523818 1.88456 0
M  V30 3441 C 316.492 -0.998871 1.85973 0
M  V30 3442 O 315.84 -1.86381 1.3219 0
M  V30 3443 C 316.05 1.0982 3.31271 0
M  V30 3444 C 317.398 1.17385 4.08051 0
M  V30 3445 O 318.422 1.04961 3.40384 0
M  V30 3446 O 317.281 1.36852 5.29088 0
M  V30 3447 H 314.375 0.172485 0.808813 0
M  V30 3448 H 316.921 1.04596 1.33633 0
M  V30 3449 H 315.693 2.1415 3.27499 0
M  V30 3450 H 315.316 0.559191 3.93648 0
M  V30 3451 N 316.313 -1.40141 0.720998 0
M  V30 3452 C 317.561 -2.0039 0.262323 0
M  V30 3453 C 317.882 -1.57469 -1.15015 0
M  V30 3454 O 317.152 -0.816582 -1.78069 0
M  V30 3455 H 315.732 -0.741063 0.093996 0
M  V30 3456 H 318.394 -1.71398 0.927835 0
M  V30 3457 H 317.49 -3.10658 0.299671 0
M  V30 3458 N 317.792 -0.46758 -1.50504 0
M  V30 3459 C 318.702 0.33382 -2.32213 0
M  V30 3460 C 319.718 0.999323 -1.42441 0
M  V30 3461 O 320.894 0.988068 -1.75497 0
M  V30 3462 C 317.959 1.4035 -3.17022 0
M  V30 3463 C 317.02 0.754961 -4.2261 0
M  V30 3464 C 316.253 1.77367 -5.03365 0
M  V30 3465 O 316.476 2.99976 -4.8515 0
M  V30 3466 O 315.41 1.34744 -5.86624 0
M  V30 3467 H 319.236 -0.334067 -3.01857 0
M  V30 3468 H 316.821 -0.229496 -1.47627 0
M  V30 3469 H 318.703 2.02318 -3.69656 0
M  V30 3470 H 317.378 2.05492 -2.5011 0
M  V30 3471 H 316.285 0.0964244 -3.73976 0
M  V30 3472 H 317.618 0.146545 -4.91982 0
M  V30 3473 N 319.27 1.56325 -0.20005 0
M  V30 3474 C 320.516 1.98012 0.438059 0
M  V30 3475 C 320.849 1.08702 1.60927 0
M  V30 3476 O 320.124 0.140064 1.93995 0
M  V30 3477 C 320.407 3.48841 0.893419 0
M  V30 3478 C 320.26 4.48928 -0.279947 0
M  V30 3479 C 321.579 4.03498 1.75719 0
M  V30 3480 H 318.698 0.719918 0.157757 0
M  V30 3481 H 321.34 1.87743 -0.291968 0
M  V30 3482 H 319.49 3.57723 1.51547 0
M  V30 3483 H 321.162 4.52079 -0.91772 0
M  V30 3484 H 319.405 4.23694 -0.930919 0
M  V30 3485 H 320.076 5.5194 0.0812601 0
M  V30 3486 H 322.552 3.97427 1.23253 0
M  V30 3487 H 321.428 5.09393 2.04476 0
M  V30 3488 H 321.689 3.4906 2.71311 0
M  V30 3489 N 320.748 -0.0735177 1.57428 0
M  V30 3490 C 322.025 -0.805903 1.78226 0
M  V30 3491 C 322.405 -1.95874 0.787189 0
M  V30 3492 O 321.753 -2.2779 -0.180029 0
M  V30 3493 C 321.963 -1.28045 3.24662 0
M  V30 3494 C 323.311 -1.71453 3.88444 0
M  V30 3495 O 324.335 -1.37616 3.28543 0
M  V30 3496 O 323.194 -2.34093 4.93825 0
M  V30 3497 H 320.288 -0.386041 0.73137 0
M  V30 3498 H 322.834 -0.0537269 1.69615 0
M  V30 3499 H 321.606 -0.455476 3.8864 0
M  V30 3500 H 321.229 -2.094 3.37991 0
M  V30 3501 N 322.226 -1.5378 -0.344866 0
M  V30 3502 C 323.503 -1.61589 -1.10219 0
M  V30 3503 C 323.883 -0.436316 -2.06542 0
M  V30 3504 O 323.231 0.571543 -2.21237 0
M  V30 3505 C 323.441 -2.97602 -1.82301 0
M  V30 3506 C 324.789 -3.5291 -2.36093 0
M  V30 3507 O 325.813 -2.99768 -1.924 0
M  V30 3508 O 324.672 -4.45859 -3.16026 0
M  V30 3509 H 321.766 -0.653522 -0.506792 0
M  V30 3510 H 324.312 -1.66126 -0.346465 0
M  V30 3511 H 323.084 -3.74893 -1.12121 0
M  V30 3512 H 322.707 -2.9665 -2.64735 0
M  V30 3513 N 323.704 0.605807 -1.45491 0
M  V30 3514 C 325.115 1.18777 -1.44045 0
M  V30 3515 C 325.466 1.95471 -0.169001 0
M  V30 3516 O 324.591 2.0374 0.729324 0
M  V30 3517 C 325.186 2.16064 -2.60963 0
M  V30 3518 C 323.745 2.69633 -2.62631 0
M  V30 3519 C 322.892 1.45072 -2.36325 0
M  V30 3520 H 325.843 0.395017 -1.53705 0
M  V30 3521 H 325.864 2.9913 -2.35163 0
M  V30 3522 H 325.376 1.60217 -3.53486 0
M  V30 3523 H 323.477 3.29414 -1.74119 0
M  V30 3524 H 323.59 3.13944 -3.61906 0
M  V30 3525 H 321.954 1.74089 -1.85917 0
M  V30 3526 H 322.737 0.910899 -3.30995 0
M  V30 3527 N 325.182 1.32811 0.848464 0
M  V30 3528 C 326.428 1.23907 1.60546 0
M  V30 3529 C 326.761 -0.197161 1.93197 0
M  V30 3530 O 326.036 -1.13596 1.5788 0
M  V30 3531 C 326.319 2.10489 2.92175 0
M  V30 3532 C 326.172 3.62522 2.66266 0
M  V30 3533 C 327.491 1.97075 3.93509 0
M  V30 3534 H 324.61 0.451459 0.58254 0
M  V30 3535 H 327.252 1.62818 0.979296 0
M  V30 3536 H 325.402 1.77434 3.45614 0
M  V30 3537 H 327.074 4.05821 2.19334 0
M  V30 3538 H 325.317 3.84879 2.00126 0
M  V30 3539 H 325.988 4.18437 3.6002 0
M  V30 3540 H 328.464 2.26045 3.49346 0
M  V30 3541 H 327.34 2.59923 4.83457 0
M  V30 3542 H 327.601 0.940186 4.31987 0
M  V30 3543 N 326.66 -1.06551 1.16123 0
M  V30 3544 C 327.59 -2.15935 0.88851 0
M  V30 3545 C 328.571 -1.69306 -0.164135 0
M  V30 3546 O 329.756 -1.94193 -0.0167857 0
M  V30 3547 C 326.886 -3.45149 0.385942 0
M  V30 3548 C 325.84 -4.05271 1.3762 0
M  V30 3549 C 325.166 -5.29664 0.732137 0
M  V30 3550 C 326.466 -4.44355 2.74493 0
M  V30 3551 H 328.16 -2.39006 1.80323 0
M  V30 3552 H 325.706 -1.14866 0.868435 0
M  V30 3553 H 327.659 -4.21004 0.182647 0
M  V30 3554 H 326.383 -3.21689 -0.564274 0
M  V30 3555 H 325.042 -3.3147 1.56599 0
M  V30 3556 H 324.69 -5.02499 -0.224483 0
M  V30 3557 H 324.39 -5.70848 1.39307 0
M  V30 3558 H 325.914 -6.08218 0.538802 0
M  V30 3559 H 327.328 -5.11303 2.59311 0
M  V30 3560 H 325.725 -4.96515 3.37035 0
M  V30 3561 H 326.795 -3.55339 3.29943 0
M  V30 3562 N 328.138 -0.959301 -1.25041 0
M  V30 3563 C 329.048 -0.489994 -2.29426 0
M  V30 3564 C 330.064 0.444944 -1.68215 0
M  V30 3565 O 331.24 0.320046 -1.98841 0
M  V30 3566 C 328.305 0.220309 -3.45999 0
M  V30 3567 C 327.366 -0.753418 -4.22637 0
M  V30 3568 C 326.599 -0.076918 -5.33645 0
M  V30 3569 O 326.822 1.13649 -5.58963 0
M  V30 3570 O 325.756 -0.764824 -5.97021 0
M  V30 3571 H 329.582 -1.35755 -2.71669 0
M  V30 3572 H 327.167 -0.725961 -1.30576 0
M  V30 3573 H 329.049 0.619677 -4.16819 0
M  V30 3574 H 327.724 1.06296 -3.0575 0
M  V30 3575 H 326.631 -1.20308 -3.54227 0
M  V30 3576 H 327.964 -1.56423 -4.66683 0
M  V30 3577 N 329.616 1.39756 -0.72842 0
M  V30 3578 C 330.864 2.00248 -0.272946 0
M  V30 3579 C 331.185 1.58077 1.14178 0
M  V30 3580 O 330.455 0.826014 1.77634 0
M  V30 3581 H 329.035 0.740554 -0.0979247 0
M  V30 3582 H 331.697 1.70903 -0.936912 0
M  V30 3583 H 330.793 3.10495 -0.316142 0
M  V30 3584 N 331.094 0.475555 1.50254 0
M  V30 3585 C 332.34 -0.0780073 2.0265 0
M  V30 3586 C 332.673 -1.38968 1.35652 0
M  V30 3587 O 331.948 -1.8839 0.483691 0
M  V30 3588 C 332.231 -0.257161 3.59181 0
M  V30 3589 C 332.084 1.07585 4.36744 0
M  V30 3590 C 333.403 -1.00965 4.28362 0
M  V30 3591 H 330.522 -0.0268758 0.73651 0
M  V30 3592 H 333.164 0.622015 1.7953 0
M  V30 3593 H 331.314 -0.853412 3.79011 0
M  V30 3594 H 332.986 1.70902 4.28474 0
M  V30 3595 H 331.229 1.6714 4.00308 0
M  V30 3596 H 331.9 0.904088 5.44546 0
M  V30 3597 H 334.376 -0.504214 4.13034 0
M  V30 3598 H 333.252 -1.10381 5.37687 0
M  V30 3599 H 333.513 -2.04731 3.91839 0
M  V30 3600 N 332.573 -1.56217 0.208337 0
M  V30 3601 C 333.483 -2.23316 -0.718836 0
M  V30 3602 C 334.499 -1.23648 -1.22422 0
M  V30 3603 O 335.675 -1.56423 -1.26861 0
M  V30 3604 C 332.74 -2.88968 -1.91568 0
M  V30 3605 C 331.801 -4.03943 -1.45357 0
M  V30 3606 C 331.034 -4.66455 -2.59337 0
M  V30 3607 O 331.257 -4.27919 -3.77149 0
M  V30 3608 O 330.191 -5.55686 -2.31293 0
M  V30 3609 H 334.017 -3.03182 -0.177315 0
M  V30 3610 H 331.602 -1.49384 -0.0215402 0
M  V30 3611 H 333.484 -3.30455 -2.61491 0
M  V30 3612 H 332.159 -2.12071 -2.44556 0
M  V30 3613 H 331.066 -3.67052 -0.722746 0
M  V30 3614 H 332.399 -4.82543 -0.970219 0
M  V30 3615 N 334.051 0.0651679 -1.57465 0
M  V30 3616 C 335.3 0.761916 -1.86756 0
M  V30 3617 C 335.613 1.78406 -0.801925 0
M  V30 3618 O 336.819 2.53084 -0.982885 0
M  V30 3619 C 335.275 1.40603 -3.31299 0
M  V30 3620 C 334.883 0.422115 -4.46007 0
M  V30 3621 C 336.627 2.08476 -3.69781 0
M  V30 3622 C 334.534 1.07252 -5.81593 0
M  V30 3623 H 333.464 0.288308 -0.696702 0
M  V30 3624 H 336.115 0.015344 -1.83494 0
M  V30 3625 H 334.497 2.20109 -3.29193 0
M  V30 3626 H 335.671 -0.343613 -4.59517 0
M  V30 3627 H 333.986 -0.152527 -4.16121 0
M  V30 3628 H 336.583 2.57925 -4.68379 0
M  V30 3629 H 336.926 2.88712 -2.99919 0
M  V30 3630 H 337.459 1.35792 -3.73905 0
M  V30 3631 H 334.198 0.310342 -6.54765 0
M  V30 3632 H 333.718 1.80895 -5.71872 0
M  V30 3633 H 335.397 1.59043 -6.27148 0
M  V30 3634 N 335.529 1.53961 0.336706 0
M  V30 3635 C 336.492 1.81724 1.39675 0
M  V30 3636 C 337.492 0.688532 1.45313 0
M  V30 3637 O 338.682 0.956829 1.45569 0
M  V30 3638 C 335.814 1.96543 2.78538 0
M  V30 3639 H 337.007 2.76424 1.16318 0
M  V30 3640 H 334.56 1.45478 0.571474 0
M  V30 3641 H 335.295 1.0401 3.07168 0
M  V30 3642 H 335.08 2.78665 2.75841 0
M  V30 3643 H 336.57 2.19516 3.5525 0
M  V30 3644 N 337.007 -0.598083 1.45811 0
M  V30 3645 C 338.247 -1.36802 1.5187 0
M  V30 3646 C 338.611 -1.9133 0.160224 0
M  V30 3647 O 339.812 -2.6863 0.0955302 0
M  V30 3648 C 338.083 -2.47835 2.57513 0
M  V30 3649 S 339.642 -3.35458 2.82866 0
M  V30 3650 H 336.46 -0.466278 0.536755 0
M  V30 3651 H 339.062 -0.689152 1.82951 0
M  V30 3652 H 337.766 -2.06141 3.54872 0
M  V30 3653 H 337.297 -3.20512 2.28114 0
M  V30 3654 H 339.312 -4.46251 2.16967 0
M  V30 3655 N 338.485 -1.33259 -0.841409 0
M  V30 3656 C 339.734 -1.23921 -1.59143 0
M  V30 3657 C 340.047 0.1941 -1.94635 0
M  V30 3658 O 341.253 0.409474 -2.68394 0
M  V30 3659 C 339.709 -2.17119 -2.87032 0
M  V30 3660 C 339.317 -3.65606 -2.58914 0
M  V30 3661 C 341.061 -2.16648 -3.65053 0
M  V30 3662 C 338.968 -4.50726 -3.82884 0
M  V30 3663 H 337.898 -0.460264 -0.597221 0
M  V30 3664 H 340.549 -1.58307 -0.927959 0
M  V30 3665 H 338.931 -1.75663 -3.54906 0
M  V30 3666 H 340.105 -4.15487 -1.99267 0
M  V30 3667 H 338.42 -3.68341 -1.942 0
M  V30 3668 H 341.017 -2.77474 -4.57069 0
M  V30 3669 H 341.36 -1.16088 -3.99787 0
M  V30 3670 H 341.893 -2.56453 -3.041 0
M  V30 3671 H 338.632 -5.52151 -3.53283 0
M  V30 3672 H 338.152 -4.0559 -4.41879 0
M  V30 3673 H 339.831 -4.64401 -4.50489 0
M  V30 3674 N 339.963 1.05934 -1.16686 0
M  V30 3675 C 340.926 2.11669 -0.879144 0
M  V30 3676 C 341.926 1.60294 0.127445 0
M  V30 3677 O 343.116 1.7389 -0.103865 0
M  V30 3678 C 340.248 3.39438 -0.315425 0
M  V30 3679 H 341.441 2.38626 -1.81653 0
M  V30 3680 H 338.994 1.22058 -0.976299 0
M  V30 3681 H 339.729 3.18132 0.629468 0
M  V30 3682 H 339.514 3.78034 -1.04079 0
M  V30 3683 H 341.004 4.17391 -0.132189 0
M  V30 3684 N 341.441 0.965919 1.2453 0
M  V30 3685 C 342.687 0.637349 1.93156 0
M  V30 3686 C 343.042 -0.818261 1.74133 0
M  V30 3687 O 342.335 -1.58079 1.08266 0
M  V30 3688 C 342.529 0.945428 3.44669 0
M  V30 3689 C 342.358 2.42944 3.78429 0
M  V30 3690 C 341.128 3.08895 3.9989 0
M  V30 3691 C 343.326 3.40941 3.8505 0
M  V30 3692 N 341.308 4.47052 4.20735 0
M  V30 3693 C 342.679 4.64448 4.10717 0
M  V30 3694 C 344.734 3.35624 3.67779 0
M  V30 3695 C 343.437 5.83292 4.20907 0
M  V30 3696 C 345.463 4.53818 3.79214 0
M  V30 3697 C 344.825 5.76114 4.05304 0
M  V30 3698 H 340.924 0.284034 0.728594 0
M  V30 3699 H 343.508 1.24041 1.50073 0
M  V30 3700 H 341.679 0.371193 3.86622 0
M  V30 3701 H 343.411 0.575613 4.00586 0
M  V30 3702 H 340.166 2.59432 3.96222 0
M  V30 3703 H 340.59 5.18634 4.35141 0
M  V30 3704 H 345.232 2.4211 3.46616 0
M  V30 3705 H 342.95 6.77236 4.40883 0
M  V30 3706 H 346.536 4.51263 3.67224 0
M  V30 3707 H 345.416 6.66045 4.13949 0
M  V30 3708 N 342.919 -1.39368 0.735821 0
M  V30 3709 C 344.166 -2.00497 0.284123 0
M  V30 3710 C 344.494 -1.58387 -1.12889 0
M  V30 3711 O 343.749 -0.804359 -1.78406 0
M  V30 3712 C 344.048 -3.5583 0.334651 0
M  V30 3713 C 343.714 -4.17593 1.7008 0
M  V30 3714 C 342.376 -4.34176 2.07472 0
M  V30 3715 C 344.728 -4.51848 2.59775 0
M  V30 3716 C 342.056 -4.82304 3.34065 0
M  V30 3717 C 344.408 -5.01384 3.85741 0
M  V30 3718 C 343.072 -5.16175 4.23225 0
M  V30 3719 H 342.342 -0.73367 0.103968 0
M  V30 3720 H 344.989 -1.66683 0.942825 0
M  V30 3721 H 343.294 -3.89674 -0.407625 0
M  V30 3722 H 344.991 -4.00986 -0.0329927 0
M  V30 3723 H 341.581 -4.05087 1.40008 0
M  V30 3724 H 345.765 -4.38653 2.32157 0
M  V30 3725 H 341.021 -4.91941 3.63049 0
M  V30 3726 H 345.195 -5.26863 4.55399 0
M  V30 3727 H 342.822 -5.5323 5.21384 0
M  V30 3728 N 344.397 -0.483516 -1.5 0
M  V30 3729 C 345.625 0.0644831 -2.06799 0
M  V30 3730 C 346.04 1.32399 -1.34596 0
M  V30 3731 O 345.397 1.77626 -0.418946 0
M  V30 3732 C 345.448 0.339927 -3.59898 0
M  V30 3733 O 345.169 -0.869635 -4.29382 0
M  V30 3734 C 346.67 0.933515 -4.33359 0
M  V30 3735 H 343.89 -0.0126333 -0.670881 0
M  V30 3736 H 346.434 -0.675864 -1.93009 0
M  V30 3737 H 344.589 1.03022 -3.7345 0
M  V30 3738 H 345.003 -0.62179 -5.20801 0
M  V30 3739 H 346.477 1.07593 -5.41413 0
M  V30 3740 H 346.954 1.92685 -3.94676 0
M  V30 3741 H 347.56 0.281221 -4.24369 0
M  V30 3742 N 345.875 1.56104 -0.216619 0
M  V30 3743 C 347.123 1.97781 0.415593 0
M  V30 3744 C 347.444 1.10536 1.60645 0
M  V30 3745 O 346.714 0.181303 1.95059 0
M  V30 3746 H 345.294 0.730415 0.156534 0
M  V30 3747 H 347.956 1.92445 -0.308366 0
M  V30 3748 H 347.052 3.03072 0.74525 0
M  V30 3749 N 347.353 -0.0568162 1.57498 0
M  V30 3750 C 348.263 -1.08346 2.08083 0
M  V30 3751 C 349.279 -1.41439 1.01346 0
M  V30 3752 O 350.455 -1.51316 1.32912 0
M  V30 3753 C 347.52 -2.37352 2.52715 0
M  V30 3754 C 346.581 -2.11093 3.73816 0
M  V30 3755 C 345.814 -3.33949 4.1631 0
M  V30 3756 O 346.037 -4.43622 3.58547 0
M  V30 3757 O 344.971 -3.21279 5.08983 0
M  V30 3758 H 348.797 -0.683667 2.95905 0
M  V30 3759 H 346.382 -0.271965 1.46904 0
M  V30 3760 H 348.264 -3.13246 2.81877 0
M  V30 3761 H 346.939 -2.76681 1.68016 0
M  V30 3762 H 345.846 -1.32856 3.49714 0
M  V30 3763 H 347.179 -1.76637 4.59413 0
M  V30 3764 N 348.832 -1.54138 -0.328536 0
M  V30 3765 C 349.762 -1.86167 -1.40939 0
M  V30 3766 C 350.743 -0.718044 -1.54202 0
M  V30 3767 O 351.928 -0.971328 -1.68163 0
M  V30 3768 C 349.058 -2.08461 -2.77779 0
M  V30 3769 C 348.012 -3.24299 -2.7931 0
M  V30 3770 C 347.338 -3.31955 -4.19178 0
M  V30 3771 C 348.638 -4.62065 -2.43502 0
M  V30 3772 H 350.332 -2.76689 -1.14383 0
M  V30 3773 H 347.878 -1.33132 -0.548806 0
M  V30 3774 H 349.831 -2.29453 -3.53454 0
M  V30 3775 H 348.555 -1.14684 -3.05802 0
M  V30 3776 H 347.214 -3.03187 -2.0609 0
M  V30 3777 H 346.862 -2.35745 -4.44335 0
M  V30 3778 H 346.562 -4.09805 -4.2111 0
M  V30 3779 H 348.086 -3.55175 -4.96672 0
M  V30 3780 H 349.5 -4.8297 -3.08889 0
M  V30 3781 H 347.897 -5.42429 -2.56693 0
M  V30 3782 H 348.967 -4.64652 -1.38659 0
M  V30 3783 N 350.31 0.590341 -1.46126 0
M  V30 3784 C 351.273 1.68194 -1.55703 0
M  V30 3785 C 352.273 1.54808 -0.434868 0
M  V30 3786 O 353.463 1.59564 -0.698928 0
M  V30 3787 C 350.595 3.07575 -1.47005 0
M  V30 3788 H 351.788 1.61064 -2.52979 0
M  V30 3789 H 349.341 0.807541 -1.33823 0
M  V30 3790 H 350.076 3.20268 -0.509785 0
M  V30 3791 H 349.861 3.187 -2.28414 0
M  V30 3792 H 351.351 3.87055 -1.56776 0
M  V30 3793 N 351.788 1.33704 0.83433 0
M  V30 3794 C 353.034 1.25603 1.59222 0
M  V30 3795 C 353.367 -0.176659 1.93395 0
M  V30 3796 O 352.642 -1.11915 1.59076 0
M  V30 3797 C 352.925 2.13576 2.89926 0
M  V30 3798 C 352.778 3.65326 2.62406 0
M  V30 3799 C 354.097 2.01238 3.91397 0
M  V30 3800 H 351.216 0.457613 0.577719 0
M  V30 3801 H 353.858 1.63848 0.961972 0
M  V30 3802 H 352.008 1.8109 3.43713 0
M  V30 3803 H 353.68 4.08124 2.15017 0
M  V30 3804 H 351.923 3.8698 1.96033 0
M  V30 3805 H 352.594 4.22232 3.55562 0
M  V30 3806 H 355.07 2.29738 3.46929 0
M  V30 3807 H 353.946 2.65036 4.80673 0
M  V30 3808 H 354.207 0.985951 4.30966 0
M  V30 3809 N 353.266 -1.05314 1.17247 0
M  V30 3810 C 354.682 -1.30452 0.919473 0
M  V30 3811 C 354.882 -1.9703 -0.42209 0
M  V30 3812 O 353.938 -2.24311 -1.15935 0
M  V30 3813 C 355.251 -2.17551 2.07586 0
M  V30 3814 C 356.799 -2.30937 2.11275 0
M  V30 3815 C 357.274 -3.21396 3.26296 0
M  V30 3816 N 358.765 -3.28981 3.26076 0
M  V30 3817 C 359.5 -3.99095 4.11716 0
M  V30 3818 N 358.996 -4.71648 5.07465 0
M  V30 3819 N 360.789 -3.95247 3.9967 0
M  V30 3820 H 352.94 -0.604988 2.03602 0
M  V30 3821 H 355.203 -0.329368 0.888944 0
M  V30 3822 H 354.909 -1.75921 3.0454 0
M  V30 3823 H 354.783 -3.18182 2.02584 0
M  V30 3824 H 357.17 -2.71809 1.14907 0
M  V30 3825 H 357.251 -1.2994 2.20339 0
M  V30 3826 H 356.895 -2.81238 4.22927 0
M  V30 3827 H 356.825 -4.22395 3.14467 0
M  V30 3828 H 359.316 -2.77286 2.5675 0
M  V30 3829 H 359.629 -5.22705 5.6921 0
M  V30 3830 H 357.974 -4.70594 5.11435 0
M  V30 3831 H 361.165 -3.37691 3.24164 0
M  V30 3832 H 361.338 -4.4962 4.66632 0
M  V30 3833 N 354.744 -0.972509 -1.24016 0
M  V30 3834 C 355.674 -0.525548 -2.27509 0
M  V30 3835 C 356.655 0.437262 -1.64384 0
M  V30 3836 O 357.84 0.332343 -1.91335 0
M  V30 3837 C 354.97 0.180448 -3.46831 0
M  V30 3838 C 353.924 -0.698859 -4.22256 0
M  V30 3839 C 353.25 0.138903 -5.3452 0
M  V30 3840 C 354.55 -1.98582 -4.83076 0
M  V30 3841 H 356.244 -1.39058 -2.65148 0
M  V30 3842 H 353.79 -0.67009 -1.27459 0
M  V30 3843 H 355.743 0.504387 -4.18371 0
M  V30 3844 H 354.467 1.07987 -3.08231 0
M  V30 3845 H 353.126 -1.00614 -3.52523 0
M  V30 3846 H 352.774 1.03862 -4.9216 0
M  V30 3847 H 352.474 -0.446259 -5.85903 0
M  V30 3848 H 353.998 0.457404 -6.08884 0
M  V30 3849 H 355.412 -1.72715 -5.46665 0
M  V30 3850 H 353.809 -2.5181 -5.44713 0
M  V30 3851 H 354.879 -2.67769 -4.04262 0
M  V30 3852 N 356.222 1.38976 -0.743202 0
M  V30 3853 C 357.185 2.28901 -0.117014 0
M  V30 3854 C 358.185 1.46698 0.658503 0
M  V30 3855 O 359.375 1.67274 0.486305 0
M  V30 3856 C 356.507 3.30309 0.84315 0
M  V30 3857 H 357.7 2.8578 -0.909373 0
M  V30 3858 H 355.253 1.47761 -0.509547 0
M  V30 3859 H 355.988 2.785 1.66157 0
M  V30 3860 H 355.773 3.91029 0.289594 0
M  V30 3861 H 357.263 3.97577 1.2776 0
M  V30 3862 N 357.7 0.491464 1.49741 0
M  V30 3863 C 358.663 -0.280906 2.27472 0
M  V30 3864 C 359.663 -0.902454 1.33088 0
M  V30 3865 O 360.853 -0.768465 1.56334 0
M  V30 3866 C 357.985 -1.40209 3.10732 0
M  V30 3867 H 359.178 0.401056 2.97206 0
M  V30 3868 H 356.731 0.246131 1.5435 0
M  V30 3869 H 357.466 -2.11849 2.45541 0
M  V30 3870 H 357.251 -0.961969 3.80117 0
M  V30 3871 H 358.741 -1.9464 3.69466 0
M  V30 3872 N 359.178 -1.55987 0.224894 0
M  V30 3873 C 360.141 -2.19178 -0.670348 0
M  V30 3874 C 361.141 -1.15461 -1.11917 0
M  V30 3875 O 362.331 -1.40675 -1.02743 0
M  V30 3876 C 359.463 -2.81777 -1.9187 0
M  V30 3877 H 360.656 -2.99662 -0.119364 0
M  V30 3878 H 358.209 -1.5628 -0.0247128 0
M  V30 3879 H 358.944 -2.05172 -2.51147 0
M  V30 3880 H 358.729 -3.57732 -1.60531 0
M  V30 3881 H 360.219 -3.30205 -2.55645 0
M  V30 3882 N 360.656 0.0484629 -1.57525 0
M  V30 3883 C 362.067 0.597486 -1.76881 0
M  V30 3884 C 362.418 1.76664 -0.853475 0
M  V30 3885 O 361.543 2.16357 -0.0433656 0
M  V30 3886 C 362.138 1.09066 -3.20765 0
M  V30 3887 C 360.697 1.58535 -3.41385 0
M  V30 3888 C 359.844 0.514868 -2.72478 0
M  V30 3889 H 362.795 -0.177758 -1.57701 0
M  V30 3890 H 362.816 1.95875 -3.2621 0
M  V30 3891 H 362.328 0.239521 -3.8736 0
M  V30 3892 H 360.429 2.45898 -2.79937 0
M  V30 3893 H 360.542 1.64622 -4.49929 0
M  V30 3894 H 358.906 0.965407 -2.35695 0
M  V30 3895 H 359.689 -0.32648 -3.41744 0
M  V30 3896 N 362.134 1.5431 0.320358 0
M  V30 3897 C 363.374 1.74395 1.0661 0
M  V30 3898 C 363.738 0.508602 1.85141 0
M  V30 3899 O 364.939 0.586856 2.62316 0
M  V30 3900 C 363.21 2.98619 1.96371 0
M  V30 3901 S 364.769 3.39621 2.77854 0
M  V30 3902 H 361.587 0.613204 0.359863 0
M  V30 3903 H 364.189 1.9249 0.341727 0
M  V30 3904 H 362.893 3.86673 1.3752 0
M  V30 3905 H 362.424 2.83055 2.73209 0
M  V30 3906 H 364.439 2.95172 3.98858 0
M  V30 3907 N 363.613 -0.582584 1.46437 0
M  V30 3908 C 364.545 -1.70618 1.53043 0
M  V30 3909 C 365.558 -1.57322 0.418769 0
M  V30 3910 O 366.747 -1.64744 0.687136 0
M  V30 3911 C 363.847 -3.08869 1.39474 0
M  V30 3912 C 363.02 -3.48166 2.64762 0
M  V30 3913 C 362.079 -4.65478 2.4539 0
M  V30 3914 O 361.105 -4.71333 3.19114 0
M  V30 3915 N 362.307 -5.60365 1.51564 0
M  V30 3916 H 365.072 -1.65405 2.49923 0
M  V30 3917 H 362.633 -0.768567 1.42494 0
M  V30 3918 H 364.625 -3.85143 1.24287 0
M  V30 3919 H 363.195 -3.08449 0.507758 0
M  V30 3920 H 362.415 -2.61598 2.9489 0
M  V30 3921 H 363.703 -3.71188 3.4799 0
M  V30 3922 H 363.101 -5.5837 0.907705 0
M  V30 3923 H 361.658 -6.36068 1.4234 0
M  V30 3924 N 365.091 -1.34144 -0.827227 0
M  V30 3925 C 366.038 -1.25364 -1.93785 0
M  V30 3926 C 367.008 -0.129774 -1.65592 0
M  V30 3927 O 368.193 -0.310024 -1.88264 0
M  V30 3928 C 365.333 -1.01064 -3.2997 0
M  V30 3929 C 364.446 -2.22185 -3.70484 0
M  V30 3930 C 363.581 -1.91203 -4.95595 0
M  V30 3931 C 362.62 -3.08491 -5.28677 0
M  V30 3932 N 361.757 -2.77421 -6.44967 0
M  V30 3933 H 366.597 -2.20347 -2.00627 0
M  V30 3934 H 364.134 -1.09558 -0.981608 0
M  V30 3935 H 366.092 -0.850139 -4.08446 0
M  V30 3936 H 364.722 -0.0975026 -3.22653 0
M  V30 3937 H 363.774 -2.4917 -2.87434 0
M  V30 3938 H 365.086 -3.0983 -3.90905 0
M  V30 3939 H 364.24 -1.71864 -5.81848 0
M  V30 3940 H 362.979 -1.00812 -4.77167 0
M  V30 3941 H 361.984 -3.28431 -4.40923 0
M  V30 3942 H 363.209 -3.99655 -5.49047 0
M  V30 3943 H 361.155 -1.89601 -6.28003 0
M  V30 3944 H 361.072 -3.58598 -6.6554 0
M  V30 3945 H 362.34 -2.61577 -7.34301 0
M  V30 3946 N 366.569 1.04691 -1.17803 0
M  V30 3947 C 367.516 2.12557 -0.899343 0
M  V30 3948 C 368.486 1.65339 0.158771 0
M  V30 3949 O 369.671 1.90789 0.0204797 0
M  V30 3950 C 366.811 3.42481 -0.424315 0
M  V30 3951 C 365.924 4.03346 -1.54713 0
M  V30 3952 C 365.059 5.21208 -1.02546 0
M  V30 3953 C 364.098 5.74089 -2.12339 0
M  V30 3954 N 363.235 6.83247 -1.61612 0
M  V30 3955 H 368.075 2.35734 -1.823 0
M  V30 3956 H 365.612 1.1564 -0.909159 0
M  V30 3957 H 367.57 4.16996 -0.130421 0
M  V30 3958 H 366.2 3.19471 0.462377 0
M  V30 3959 H 365.252 3.2622 -1.95664 0
M  V30 3960 H 366.564 4.38628 -2.37501 0
M  V30 3961 H 365.718 6.02812 -0.685718 0
M  V30 3962 H 364.457 4.87414 -0.167084 0
M  V30 3963 H 363.462 4.91111 -2.47165 0
M  V30 3964 H 364.687 6.0993 -2.98601 0
M  V30 3965 H 362.633 6.5134 -0.780533 0
M  V30 3966 H 362.55 7.17559 -2.38003 0
M  V30 3967 H 363.818 7.68491 -1.30545 0
M  V30 3968 N 368.047 0.979072 1.23499 0
M  V30 3969 C 369.294 0.647219 1.91878 0
M  V30 3970 C 369.622 -0.819074 1.76413 0
M  V30 3971 O 368.877 -1.60616 1.11808 0
M  V30 3972 C 369.176 0.981932 3.43646 0
M  V30 3973 C 368.842 2.43822 3.79291 0
M  V30 3974 C 367.504 2.83622 3.88731 0
M  V30 3975 C 369.856 3.3828 3.96505 0
M  V30 3976 C 367.184 4.16897 4.12812 0
M  V30 3977 C 369.536 4.71197 4.22085 0
M  V30 3978 C 368.2 5.10758 4.29747 0
M  V30 3979 H 367.47 0.236834 0.702133 0
M  V30 3980 H 370.117 1.23268 1.46551 0
M  V30 3981 H 368.422 0.314365 3.90537 0
M  V30 3982 H 370.119 0.703395 3.94783 0
M  V30 3983 H 366.709 2.11966 3.72516 0
M  V30 3984 H 370.893 3.0871 3.88603 0
M  V30 3985 H 366.149 4.47157 4.16966 0
M  V30 3986 H 370.323 5.44348 4.34348 0
M  V30 3987 H 367.95 6.1405 4.48159 0
M  V30 3988 N 369.525 -1.3858 0.750561 0
M  V30 3989 C 370.771 -2.0095 0.31477 0
M  V30 3990 C 371.126 -1.58509 -1.09053 0
M  V30 3991 O 370.419 -0.8112 -1.7358 0
M  V30 3992 C 370.613 -3.55455 0.372373 0
M  V30 3993 C 370.442 -4.12898 1.78173 0
M  V30 3994 C 369.212 -4.44797 2.39757 0
M  V30 3995 C 371.41 -4.35366 2.7379 0
M  V30 3996 N 369.392 -4.87831 3.72685 0
M  V30 3997 C 370.763 -4.80775 3.91478 0
M  V30 3998 C 372.818 -4.1746 2.71351 0
M  V30 3999 C 371.521 -5.10155 5.07084 0
M  V30 4000 C 373.547 -4.47963 3.86113 0
M  V30 4001 C 372.909 -4.93593 5.02539 0
M  V30 4002 H 369.008 -0.765083 0.161776 0
M  V30 4003 H 371.592 -1.68246 0.979867 0
M  V30 4004 H 369.763 -3.87512 -0.26244 0
M  V30 4005 H 371.495 -4.04614 -0.0834479 0
M  V30 4006 H 368.25 -4.33135 1.91548 0
M  V30 4007 H 368.674 -5.13685 4.40972 0
M  V30 4008 H 373.316 -3.81372 1.82524 0
M  V30 4009 H 371.034 -5.45141 5.96529 0
M  V30 4010 H 374.62 -4.35717 3.85542 0
M  V30 4011 H 373.5 -5.16746 5.89867 0
M  V30 4012 N 371.003 -0.499398 -1.49478 0
M  V30 4013 C 371.95 0.279881 -2.29097 0
M  V30 4014 C 372.92 0.961805 -1.3542 0
M  V30 4015 O 374.105 0.968777 -1.64376 0
M  V30 4016 C 371.245 1.33932 -3.18051 0
M  V30 4017 C 370.358 0.669333 -4.26783 0
M  V30 4018 C 369.493 1.70907 -5.02955 0
M  V30 4019 C 368.532 1.02087 -6.03527 0
M  V30 4020 N 367.669 2.00474 -6.7287 0
M  V30 4021 H 372.509 -0.405317 -2.95231 0
M  V30 4022 H 370.046 -0.211726 -1.45568 0
M  V30 4023 H 372.004 1.96553 -3.67998 0
M  V30 4024 H 370.634 1.9933 -2.53904 0
M  V30 4025 H 369.686 -0.0701234 -3.80335 0
M  V30 4026 H 370.998 0.127503 -4.98637 0
M  V30 4027 H 370.152 2.41037 -5.56764 0
M  V30 4028 H 368.891 2.28476 -4.30871 0
M  V30 4029 H 367.896 0.305338 -5.48951 0
M  V30 4030 H 369.121 0.451708 -6.77596 0
M  V30 4031 H 367.067 2.57007 -6.03559 0
M  V30 4032 H 366.984 1.51353 -7.40694 0
M  V30 4033 H 368.252 2.69897 -7.31284 0
M  V30 4034 N 372.481 1.55866 -0.233164 0
M  V30 4035 C 373.429 2.22176 0.68851 0
M  V30 4036 C 374.423 1.20487 1.19076 0
M  V30 4037 O 375.629 1.38536 1.14925 0
M  V30 4038 H 372.004 0.712511 0.240483 0
M  V30 4039 H 373.975 2.98212 0.105935 0
M  V30 4040 C 372.724 2.92446 1.88071 0
M  V30 4041 H 372.047 3.70458 1.50337 0
M  V30 4042 H 373.487 3.42226 2.50314 0
M  V30 4043 C 371.946 1.95555 2.74335 0
M  V30 4044 O 372.476 1.47986 3.73447 0
M  V30 4045 N 370.682 1.62953 2.40613 0
M  V30 4046 H 370.229 2.01831 1.60069 0
M  V30 4047 H 370.187 0.983886 2.98609 0
M  V30 4048 N 373.959 -0.0401083 1.57549 0
M  V30 4049 C 375.37 -0.588097 1.77196 0
M  V30 4050 C 375.721 -1.76209 0.862832 0
M  V30 4051 O 374.846 -2.16331 0.0548389 0
M  V30 4052 C 375.441 -1.07363 3.21339 0
M  V30 4053 C 374 -1.56723 3.42221 0
M  V30 4054 C 373.147 -0.50041 2.72747 0
M  V30 4055 H 376.098 0.186119 1.57605 0
M  V30 4056 H 376.119 -1.94143 3.27244 0
M  V30 4057 H 375.631 -0.218975 3.87482 0
M  V30 4058 H 373.732 -2.4441 2.81237 0
M  V30 4059 H 373.845 -1.62234 4.50796 0
M  V30 4060 H 372.209 -0.952894 2.36203 0
M  V30 4061 H 372.992 0.344599 3.41566 0
M  V30 4062 N 375.437 -1.54477 -0.31217 0
M  V30 4063 C 376.367 -1.87652 -1.38957 0
M  V30 4064 C 377.348 -0.734358 -1.53431 0
M  V30 4065 O 378.533 -0.98911 -1.67123 0
M  V30 4066 C 375.663 -2.11396 -2.75552 0
M  V30 4067 C 374.617 -3.27243 -2.75855 0
M  V30 4068 C 373.943 -3.36382 -4.15633 0
M  V30 4069 C 375.243 -4.64622 -2.38587 0
M  V30 4070 H 376.937 -2.77887 -1.11442 0
M  V30 4071 H 374.483 -1.33707 -0.534655 0
M  V30 4072 H 376.436 -2.33189 -3.51 0
M  V30 4073 H 375.16 -1.17921 -3.04569 0
M  V30 4074 H 373.819 -3.05356 -2.02863 0
M  V30 4075 H 373.467 -2.40445 -4.41809 0
M  V30 4076 H 373.167 -4.14249 -4.1674 0
M  V30 4077 H 374.691 -3.60422 -4.92877 0
M  V30 4078 H 376.105 -4.86219 -3.03749 0
M  V30 4079 H 374.502 -5.45121 -2.50925 0
M  V30 4080 H 375.572 -4.66097 -1.33723 0
M  V30 4081 N 376.915 0.57481 -1.46744 0
M  V30 4082 C 377.863 1.70435 -1.58286 0
M  V30 4083 C 378.857 1.63287 -0.450956 0
M  V30 4084 O 380.063 1.68685 -0.628121 0
M  V30 4085 H 376.438 0.56364 -0.497809 0
M  V30 4086 H 378.409 1.57833 -2.53242 0
M  V30 4087 C 377.158 3.08815 -1.59776 0
M  V30 4088 H 376.481 3.1499 -2.46214 0
M  V30 4089 H 377.921 3.87588 -1.71905 0
M  V30 4090 C 376.38 3.35301 -0.327812 0
M  V30 4091 O 376.91 3.97511 0.57861 0
M  V30 4092 N 375.116 2.89816 -0.213274 0
M  V30 4093 H 374.663 2.39371 -0.951798 0
M  V30 4094 H 374.621 3.0791 0.63553 0
M  V30 4095 N 378.394 1.34581 0.820102 0
M  V30 4096 C 379.643 1.26437 1.57151 0
M  V30 4097 C 379.956 -0.163111 1.94919 0
M  V30 4098 O 381.162 -0.366722 2.69012 0
M  V30 4099 C 379.618 2.21658 2.83541 0
M  V30 4100 C 379.226 3.69679 2.53065 0
M  V30 4101 C 380.97 2.22428 3.61561 0
M  V30 4102 C 378.877 4.56761 3.75664 0
M  V30 4103 H 377.807 0.469707 0.589823 0
M  V30 4104 H 380.458 1.59763 0.902656 0
M  V30 4105 H 378.84 1.81287 3.52067 0
M  V30 4106 H 380.014 4.18605 1.92631 0
M  V30 4107 H 378.329 3.71384 1.88316 0
M  V30 4108 H 380.926 2.8471 4.52597 0
M  V30 4109 H 381.269 1.22434 3.97889 0
M  V30 4110 H 381.802 2.61259 2.99981 0
M  V30 4111 H 378.541 5.57702 3.44454 0
M  V30 4112 H 378.061 4.12568 4.35371 0
M  V30 4113 H 379.74 4.71509 4.43044 0
M  V30 4114 N 379.872 -1.04064 1.18357 0
M  V30 4115 C 381.121 -1.76662 0.973313 0
M  V30 4116 C 381.434 -1.89154 -0.497991 0
M  V30 4117 O 382.64 -2.58606 -0.826762 0
M  V30 4118 C 381.096 -3.17624 1.69242 0
M  V30 4119 C 380.704 -3.13225 3.20303 0
M  V30 4120 C 382.448 -3.946 1.56497 0
M  V30 4121 C 380.355 -4.49046 3.84853 0
M  V30 4122 H 379.285 -0.662214 0.36054 0
M  V30 4123 H 381.936 -1.16553 1.41731 0
M  V30 4124 H 380.318 -3.78129 1.1762 0
M  V30 4125 H 381.492 -2.62172 3.78949 0
M  V30 4126 H 379.807 -2.49749 3.33189 0
M  V30 4127 H 382.404 -4.95042 2.02084 0
M  V30 4128 H 382.747 -4.13074 0.517243 0
M  V30 4129 H 383.28 -3.4067 2.05399 0
M  V30 4130 H 380.019 -4.35777 4.89672 0
M  V30 4131 H 379.539 -5.00203 3.30994 0
M  V30 4132 H 381.218 -5.17961 3.87718 0
M  V30 4133 N 381.35 -0.985608 -1.22978 0
M  V30 4134 C 382.627 -0.573599 -1.87001 0
M  V30 4135 C 383.007 0.949213 -1.88555 0
M  V30 4136 O 382.355 1.82811 -1.37086 0
M  V30 4137 C 382.565 -1.18564 -3.28243 0
M  V30 4138 C 383.913 -1.28163 -4.04796 0
M  V30 4139 O 384.937 -1.13949 -3.37482 0
M  V30 4140 O 383.796 -1.50832 -5.25273 0
M  V30 4141 H 380.89 -0.193868 -0.803955 0
M  V30 4142 H 383.436 -1.08102 -1.30813 0
M  V30 4143 H 382.208 -2.22758 -3.21706 0
M  V30 4144 H 381.831 -0.663363 -3.92027 0
M  V30 4145 N 382.828 1.3818 -0.7579 0
M  V30 4146 C 384.075 2.00019 -0.315985 0
M  V30 4147 C 384.403 1.60163 1.10355 0
M  V30 4148 O 383.658 0.83264 1.77103 0
M  V30 4149 C 383.957 3.55252 -0.391218 0
M  V30 4150 C 383.623 4.14834 -1.76702 0
M  V30 4151 C 382.285 4.30821 -2.14353 0
M  V30 4152 C 384.637 4.47658 -2.66931 0
M  V30 4153 C 381.965 4.76928 -3.41696 0
M  V30 4154 C 384.317 4.95184 -3.93669 0
M  V30 4155 C 382.981 5.09377 -4.31383 0
M  V30 4156 H 382.251 0.731923 -0.115627 0
M  V30 4157 H 384.898 1.65161 -0.969223 0
M  V30 4158 H 383.203 3.90273 0.34558 0
M  V30 4159 H 384.9 4.00988 -0.030805 0
M  V30 4160 H 381.49 4.02808 -1.46435 0
M  V30 4161 H 385.674 4.34904 -2.39106 0
M  V30 4162 H 380.93 4.86103 -3.70829 0
M  V30 4163 H 385.104 5.19551 -4.63724 0
M  V30 4164 H 382.731 5.44865 -5.30119 0
M  V30 4165 N 384.306 0.507319 1.49211 0
M  V30 4166 C 385.552 -0.0350047 2.0277 0
M  V30 4167 C 385.885 -1.3606 1.38569 0
M  V30 4168 O 385.16 -1.87321 0.523542 0
M  V30 4169 C 385.443 -0.180916 3.59645 0
M  V30 4170 C 385.296 1.16825 4.34364 0
M  V30 4171 C 386.615 -0.918558 4.30407 0
M  V30 4172 H 383.734 -0.0112473 0.736914 0
M  V30 4173 H 386.376 0.659956 1.7817 0
M  V30 4174 H 384.526 -0.772826 3.80736 0
M  V30 4175 H 386.198 1.79952 4.24753 0
M  V30 4176 H 384.441 1.75594 3.96673 0
M  V30 4177 H 385.112 1.01939 5.42506 0
M  V30 4178 H 387.588 -0.41649 4.1401 0
M  V30 4179 H 386.464 -0.989505 5.39907 0
M  V30 4180 H 386.725 -1.96373 3.96093 0
M  V30 4181 N 385.784 -1.5574 0.241426 0
M  V30 4182 C 387.009 -2.0366 -0.392111 0
M  V30 4183 C 387.434 -1.11969 -1.51144 0
M  V30 4184 O 386.792 -0.111594 -1.80956 0
M  V30 4185 C 386.84 -3.49638 -0.882371 0
M  V30 4186 O 385.944 -3.6108 -1.99235 0
M  V30 4187 H 385.285 -0.658379 -0.0862122 0
M  V30 4188 H 387.815 -2.01302 0.365881 0
M  V30 4189 H 387.825 -3.90351 -1.18702 0
M  V30 4190 H 386.5 -4.15852 -0.0632361 0
M  V30 4191 H 385.077 -3.32262 -1.69282 0
M  V30 4192 N 387.262 0.0317525 -1.57568 0
M  V30 4193 C 388.511 0.722131 -1.8833 0
M  V30 4194 C 388.824 1.76664 -0.839587 0
M  V30 4195 O 390.03 2.50942 -1.03635 0
M  V30 4196 C 388.486 1.33544 -3.34207 0
M  V30 4197 C 388.094 0.327415 -4.46802 0
M  V30 4198 C 389.838 2.00585 -3.7412 0
M  V30 4199 C 387.745 0.948915 -5.83738 0
M  V30 4200 H 386.675 0.273466 -0.702661 0
M  V30 4201 H 389.326 -0.0235811 -1.83485 0
M  V30 4202 H 387.708 2.13077 -3.33788 0
M  V30 4203 H 388.882 -0.441006 -4.58685 0
M  V30 4204 H 387.197 -0.240758 -4.15703 0
M  V30 4205 H 389.794 2.47932 -4.73744 0
M  V30 4206 H 390.137 2.82285 -3.05975 0
M  V30 4207 H 390.67 1.27831 -3.76702 0
M  V30 4208 H 387.409 0.171387 -6.55276 0
M  V30 4209 H 386.929 1.68724 -5.7558 0
M  V30 4210 H 388.608 1.45705 -6.3038 0
M  V30 4211 N 388.74 1.54641 0.303973 0
M  V30 4212 C 389.989 1.7299 1.03717 0
M  V30 4213 C 390.302 0.521168 1.88529 0
M  V30 4214 O 391.508 0.586408 2.65092 0
M  V30 4215 C 389.964 3.06051 1.89369 0
M  V30 4216 C 389.572 4.34393 1.09574 0
M  V30 4217 C 391.316 3.3376 2.62306 0
M  V30 4218 C 389.223 5.58506 1.94486 0
M  V30 4219 H 388.153 0.64473 0.390947 0
M  V30 4220 H 390.804 1.81124 0.294328 0
M  V30 4221 H 389.186 2.91874 2.67629 0
M  V30 4222 H 390.36 4.59396 0.359485 0
M  V30 4223 H 388.675 4.13597 0.482324 0
M  V30 4224 H 391.272 4.23687 3.26181 0
M  V30 4225 H 391.615 2.52503 3.3098 0
M  V30 4226 H 392.148 3.48894 1.91097 0
M  V30 4227 H 388.887 6.42422 1.30287 0
M  V30 4228 H 388.407 5.37694 2.65792 0
M  V30 4229 H 390.086 5.95651 2.52605 0
M  V30 4230 N 390.218 -0.567019 1.47046 0
M  V30 4231 C 391.629 -1.14916 1.47143 0
M  V30 4232 C 391.98 -1.94954 0.220767 0
M  V30 4233 O 391.105 -2.05602 -0.67505 0
M  V30 4234 C 391.7 -2.09069 2.666 0
M  V30 4235 C 390.259 -2.62575 2.69687 0
M  V30 4236 C 389.406 -1.38755 2.40088 0
M  V30 4237 H 392.357 -0.354126 1.54699 0
M  V30 4238 H 392.378 -2.92789 2.43011 0
M  V30 4239 H 391.89 -1.50789 3.57609 0
M  V30 4240 H 389.991 -3.24681 1.82792 0
M  V30 4241 H 390.104 -3.04239 3.70102 0
M  V30 4242 H 388.468 -1.69098 1.90468 0
M  V30 4243 H 389.251 -0.822822 3.33293 0
M  V30 4244 N 391.696 -1.35014 -0.812953 0
M  V30 4245 C 392.943 -1.27931 -1.56971 0
M  V30 4246 C 393.271 0.148034 -1.93936 0
M  V30 4247 O 392.526 1.11175 -1.61054 0
M  V30 4248 C 392.825 -2.12524 -2.87347 0
M  V30 4249 C 392.491 -3.61401 -2.6963 0
M  V30 4250 C 391.153 -4.01983 -2.64506 0
M  V30 4251 C 393.505 -4.55894 -2.52607 0
M  V30 4252 C 390.833 -5.35235 -2.40293 0
M  V30 4253 C 393.185 -5.89336 -2.29925 0
M  V30 4254 C 391.849 -6.2907 -2.23219 0
M  V30 4255 H 391.119 -0.468131 -0.574399 0
M  V30 4256 H 393.766 -1.66851 -0.939836 0
M  V30 4257 H 392.071 -1.66463 -3.54679 0
M  V30 4258 H 393.768 -2.04383 -3.45005 0
M  V30 4259 H 390.358 -3.29193 -2.74463 0
M  V30 4260 H 394.542 -4.25431 -2.55583 0
M  V30 4261 H 389.798 -5.65028 -2.33566 0
M  V30 4262 H 393.972 -6.62139 -2.15743 0
M  V30 4263 H 391.599 -7.32256 -2.04219 0
M  V30 4264 N 393.175 1.03435 -1.18907 0
M  V30 4265 C 394.405 1.8012 -1.01195 0
M  V30 4266 C 394.813 1.8395 0.442613 0
M  V30 4267 O 394.156 1.27836 1.31923 0
M  V30 4268 C 394.218 3.26792 -1.49823 0
M  V30 4269 C 393.882 3.46609 -2.97844 0
M  V30 4270 C 394.879 3.37278 -3.95651 0
M  V30 4271 C 392.564 3.73001 -3.36416 0
M  V30 4272 C 394.558 3.54054 -5.30023 0
M  V30 4273 C 392.245 3.89423 -4.70949 0
M  V30 4274 C 393.243 3.79951 -5.67562 0
M  V30 4275 O 392.931 3.95895 -6.99659 0
M  V30 4276 H 392.663 0.573865 -0.357289 0
M  V30 4277 H 395.217 1.31207 -1.58031 0
M  V30 4278 H 393.447 3.76703 -0.873578 0
M  V30 4279 H 395.136 3.85055 -1.28404 0
M  V30 4280 H 395.902 3.16846 -3.67197 0
M  V30 4281 H 391.781 3.79469 -2.61772 0
M  V30 4282 H 395.325 3.46577 -6.05417 0
M  V30 4283 H 391.222 4.09351 -4.99101 0
M  V30 4284 H 391.99 4.13019 -7.06653 0
M  V30 4285 N 394.653 0.992116 1.22453 0
M  V30 4286 C 395.616 0.546883 2.2258 0
M  V30 4287 C 396.616 -0.369829 1.56489 0
M  V30 4288 O 397.806 -0.161896 1.73446 0
M  V30 4289 C 394.938 -0.204659 3.40285 0
M  V30 4290 H 396.131 1.43234 2.63484 0
M  V30 4291 H 393.684 0.779239 1.3549 0
M  V30 4292 H 394.419 -1.10614 3.04853 0
M  V30 4293 H 394.204 0.45354 3.89468 0
M  V30 4294 H 395.694 -0.504358 4.14543 0
M  V30 4295 N 396.131 -1.37776 0.765217 0
M  V30 4296 C 397.359 -2.04124 0.337767 0
M  V30 4297 C 397.774 -1.57715 -1.03785 0
M  V30 4298 O 397.131 -0.755447 -1.6613 0
M  V30 4299 C 397.182 -3.59658 0.364442 0
M  V30 4300 O 396.903 -4.04367 1.68579 0
M  V30 4301 C 398.404 -4.43236 -0.0754221 0
M  V30 4302 H 395.624 -0.655696 0.142491 0
M  V30 4303 H 398.168 -1.76238 1.03732 0
M  V30 4304 H 396.323 -3.86339 -0.286471 0
M  V30 4305 H 396.737 -4.98857 1.61993 0
M  V30 4306 H 398.211 -5.52 -0.00560067 0
M  V30 4307 H 398.688 -4.2455 -1.12491 0
M  V30 4308 H 399.294 -4.21767 0.547055 0
M  V30 4309 N 397.609 -0.515225 -1.4894 0
M  V30 4310 C 398.539 0.244628 -2.32215 0
M  V30 4311 C 399.52 0.949136 -1.41157 0
M  V30 4312 O 400.705 0.937783 -1.70057 0
M  V30 4313 C 397.835 1.30096 -3.22013 0
M  V30 4314 C 396.789 0.715486 -4.21977 0
M  V30 4315 C 396.115 1.87339 -5.00808 0
M  V30 4316 C 397.415 -0.302982 -5.2142 0
M  V30 4317 H 399.109 -0.450501 -2.95991 0
M  V30 4318 H 396.655 -0.218098 -1.42339 0
M  V30 4319 H 398.608 1.84037 -3.79089 0
M  V30 4320 H 397.332 2.02547 -2.56207 0
M  V30 4321 H 395.991 0.197715 -3.66066 0
M  V30 4322 H 395.639 2.58592 -4.31438 0
M  V30 4323 H 395.339 1.48764 -5.68457 0
M  V30 4324 H 396.863 2.41686 -5.60732 0
M  V30 4325 H 398.277 0.148802 -5.73107 0
M  V30 4326 H 396.674 -0.60532 -5.97039 0
M  V30 4327 H 397.744 -1.21395 -4.69459 0
M  V30 4328 N 399.087 1.5561 -0.249682 0
M  V30 4329 C 400.05 2.20217 0.635394 0
M  V30 4330 C 401.05 1.17227 1.10066 0
M  V30 4331 O 402.24 1.42292 1.00492 0
M  V30 4332 C 399.372 2.84794 1.87363 0
M  V30 4333 H 400.565 2.99814 0.0716752 0
M  V30 4334 H 398.118 1.563 -0.000153234 0
M  V30 4335 H 398.853 2.09142 2.47851 0
M  V30 4336 H 398.638 3.60241 1.5482 0
M  V30 4337 H 400.128 3.3423 2.5036 0
M  V30 4338 N 400.565 -0.0233959 1.57583 0
M  V30 4339 C 401.811 -0.714119 1.89811 0
M  V30 4340 C 402.144 -1.74702 0.848113 0
M  V30 4341 O 401.419 -1.94023 -0.136135 0
M  V30 4342 C 401.702 -1.37853 3.32669 0
M  V30 4343 C 401.555 -0.358764 4.48367 0
M  V30 4344 C 402.874 -2.31101 3.7454 0
M  V30 4345 H 399.993 -0.25814 0.690314 0
M  V30 4346 H 402.635 0.0230927 1.89986 0
M  V30 4347 H 400.785 -2.00689 3.3265 0
M  V30 4348 H 402.457 0.268115 4.6052 0
M  V30 4349 H 400.7 0.321387 4.32608 0
M  V30 4350 H 401.371 -0.862242 5.45224 0
M  V30 4351 H 403.847 -1.78304 3.75961 0
M  V30 4352 H 402.723 -2.74567 4.75294 0
M  V30 4353 H 402.984 -3.18018 3.0711 0
M  V30 4354 N 402.043 -1.548 -0.295768 0
M  V30 4355 C 403.32 -1.65014 -1.05023 0
M  V30 4356 C 403.7 -0.501805 -2.05049 0
M  V30 4357 O 403.048 0.500869 -2.22943 0
M  V30 4358 C 403.258 -3.03252 -1.72741 0
M  V30 4359 C 404.606 -3.60242 -2.24746 0
M  V30 4360 O 405.63 -3.05737 -1.82765 0
M  V30 4361 O 404.489 -4.55687 -3.01681 0
M  V30 4362 H 401.583 -0.669314 -0.485744 0
M  V30 4363 H 404.129 -1.67144 -0.293438 0
M  V30 4364 H 402.901 -3.7827 -1.00138 0
M  V30 4365 H 402.524 -3.04922 -2.55163 0
M  V30 4366 N 403.521 0.559213 -1.47345 0
M  V30 4367 C 404.749 1.34194 -1.57479 0
M  V30 4368 C 405.164 1.87463 -0.224261 0
M  V30 4369 O 404.521 1.64888 0.782185 0
M  V30 4370 C 404.572 2.51324 -2.59843 0
M  V30 4371 O 404.293 2.00256 -3.89653 0
M  V30 4372 C 405.794 3.43563 -2.80142 0
M  V30 4373 H 403.014 0.409136 -0.531835 0
M  V30 4374 H 405.558 0.677609 -1.92947 0
M  V30 4375 H 403.713 3.13699 -2.27314 0
M  V30 4376 H 404.127 2.76708 -4.4557 0
M  V30 4377 H 405.601 4.2217 -3.55635 0
M  V30 4378 H 406.078 3.9698 -1.87892 0
M  V30 4379 H 406.684 2.87005 -3.1386 0
M  V30 4380 N 404.999 1.35443 0.805782 0
M  V30 4381 C 405.946 1.28431 1.91766 0
M  V30 4382 C 406.916 0.156102 1.65365 0
M  V30 4383 O 408.101 0.339936 1.87747 0
M  V30 4384 C 405.241 1.06301 3.2832 0
M  V30 4385 C 404.354 2.2805 3.66902 0
M  V30 4386 C 403.489 1.99064 4.92491 0
M  V30 4387 C 402.528 3.16863 5.23703 0
M  V30 4388 N 401.665 2.87647 6.40471 0
M  V30 4389 H 406.505 2.23511 1.97096 0
M  V30 4390 H 404.042 1.11105 0.964054 0
M  V30 4391 H 406 0.915012 4.07042 0
M  V30 4392 H 404.63 0.148822 3.22457 0
M  V30 4393 H 403.682 2.53711 2.83434 0
M  V30 4394 H 404.994 3.1601 3.85927 0
M  V30 4395 H 404.148 1.81099 5.7904 0
M  V30 4396 H 402.887 1.0839 4.75503 0
M  V30 4397 H 401.892 3.35404 4.35642 0
M  V30 4398 H 403.117 4.08339 5.4262 0
M  V30 4399 H 401.063 1.99568 6.24907 0
M  V30 4400 H 400.98 3.69141 6.59751 0
M  V30 4401 H 402.248 2.73226 7.30047 0
M  V30 4402 N 406.477 -1.02803 1.19454 0
M  V30 4403 C 407.387 -2.14575 0.948408 0
M  V30 4404 C 408.403 -1.73757 -0.091871 0
M  V30 4405 O 409.579 -2.01185 0.0929654 0
M  V30 4406 C 406.644 -3.43202 0.491265 0
M  V30 4407 C 405.705 -3.98328 1.60103 0
M  V30 4408 C 404.938 -5.20816 1.16561 0
M  V30 4409 O 405.161 -5.70392 0.0295238 0
M  V30 4410 O 404.095 -5.68801 1.96849 0
M  V30 4411 H 407.921 -2.38202 1.88397 0
M  V30 4412 H 405.506 -1.12989 0.977433 0
M  V30 4413 H 407.388 -4.20687 0.245015 0
M  V30 4414 H 406.063 -3.21018 -0.415851 0
M  V30 4415 H 404.97 -3.22174 1.90144 0
M  V30 4416 H 406.303 -4.24879 2.48473 0
M  V30 4417 N 407.956 -0.998596 -1.21925 0
M  V30 4418 C 408.866 -0.562736 -2.27751 0
M  V30 4419 C 409.882 0.391203 -1.69545 0
M  V30 4420 O 411.058 0.256625 -1.99758 0
M  V30 4421 C 408.123 0.11012 -3.46525 0
M  V30 4422 C 407.184 -0.887495 -4.20026 0
M  V30 4423 C 406.417 -0.246654 -5.3313 0
M  V30 4424 O 406.64 0.958088 -5.62296 0
M  V30 4425 O 405.574 -0.954374 -5.94286 0
M  V30 4426 H 409.4 -1.44329 -2.67213 0
M  V30 4427 H 406.985 -0.767135 -1.28201 0
M  V30 4428 H 408.867 0.486756 -4.18579 0
M  V30 4429 H 407.542 0.965154 -3.08976 0
M  V30 4430 H 406.449 -1.31517 -3.5022 0
M  V30 4431 H 407.782 -1.71191 -4.6147 0
M  V30 4432 N 409.434 1.37368 -0.772513 0
M  V30 4433 C 410.344 2.34053 -0.160081 0
M  V30 4434 C 411.36 1.60216 0.678728 0
M  V30 4435 O 412.536 1.92303 0.59847 0
M  V30 4436 C 409.601 3.3939 0.708182 0
M  V30 4437 C 408.662 4.29048 -0.147172 0
M  V30 4438 C 407.895 5.29354 0.679744 0
M  V30 4439 O 408.118 5.3723 1.91678 0
M  V30 4440 O 407.052 6.01835 0.0885444 0
M  V30 4441 H 410.878 2.88159 -0.959053 0
M  V30 4442 H 408.463 1.39543 -0.533685 0
M  V30 4443 H 410.345 4.03839 1.20384 0
M  V30 4444 H 409.02 2.8761 1.48533 0
M  V30 4445 H 407.927 3.67697 -0.689205 0
M  V30 4446 H 409.26 4.84134 -0.887423 0
M  V30 4447 N 410.912 0.523116 1.48665 0
M  V30 4448 C 412.137 -0.0117284 2.07397 0
M  V30 4449 C 412.562 -1.28031 1.37803 0
M  V30 4450 O 411.92 -1.75836 0.441762 0
M  V30 4451 C 411.968 -0.225786 3.59892 0
M  V30 4452 O 411.072 -1.29592 3.91509 0
M  V30 4453 H 410.413 0.0360673 0.66302 0
M  V30 4454 H 412.943 0.729066 1.9117 0
M  V30 4455 H 412.953 -0.450552 4.05505 0
M  V30 4456 H 411.628 0.700944 4.09951 0
M  V30 4457 H 410.205 -1.05436 3.57684 0
M  V30 4458 N 412.39 -1.55475 0.257931 0
M  V30 4459 C 413.3 -2.2549 -0.647425 0
M  V30 4460 C 414.316 -1.2748 -1.18427 0
M  V30 4461 O 415.492 -1.6038 -1.2182 0
M  V30 4462 C 412.557 -2.94916 -1.82278 0
M  V30 4463 C 411.618 -4.08363 -1.32432 0
M  V30 4464 C 410.851 -4.74469 -2.44366 0
M  V30 4465 O 411.074 -4.39701 -3.63344 0
M  V30 4466 O 410.008 -5.62763 -2.13497 0
M  V30 4467 H 413.834 -3.03593 -0.0807707 0
M  V30 4468 H 411.419 -1.49377 0.0259962 0
M  V30 4469 H 413.301 -3.38606 -2.50846 0
M  V30 4470 H 411.976 -2.19744 -2.37685 0
M  V30 4471 H 410.883 -3.69166 -0.605605 0
M  V30 4472 H 412.216 -4.85385 -0.816211 0
M  V30 4473 N 413.868 0.0150385 -1.57593 0
M  V30 4474 C 415.145 0.7392 -1.81094 0
M  V30 4475 C 415.525 1.92817 -0.859344 0
M  V30 4476 O 414.873 2.28301 0.095362 0
M  V30 4477 C 415.083 1.15907 -3.29191 0
M  V30 4478 C 416.431 1.56918 -3.9454 0
M  V30 4479 O 417.455 1.25328 -3.33424 0
M  V30 4480 O 416.314 2.15604 -5.02173 0
M  V30 4481 H 413.408 0.358631 -0.745193 0
M  V30 4482 H 415.954 -0.00926156 -1.69697 0
M  V30 4483 H 414.726 0.310921 -3.90063 0
M  V30 4484 H 414.349 1.96711 -3.45529 0
M  V30 4485 N 415.346 1.54954 0.287554 0
M  V30 4486 C 416.595 1.74081 1.01877 0
M  V30 4487 C 416.908 0.541135 1.87966 0
M  V30 4488 O 418.114 0.614491 2.64455 0
M  V30 4489 C 416.57 3.08042 1.86113 0
M  V30 4490 C 416.178 4.35531 1.04961 0
M  V30 4491 C 417.922 3.36523 2.58752 0
M  V30 4492 C 415.829 5.60538 1.88551 0
M  V30 4493 H 414.759 0.64884 0.384087 0
M  V30 4494 H 417.41 1.81426 0.275101 0
M  V30 4495 H 415.792 2.94696 2.64519 0
M  V30 4496 H 416.966 4.59751 0.31074 0
M  V30 4497 H 415.281 4.14085 0.43843 0
M  V30 4498 H 417.878 4.27122 3.21668 0
M  V30 4499 H 418.221 2.56 3.28283 0
M  V30 4500 H 418.754 3.50901 1.87386 0
M  V30 4501 H 415.493 6.43767 1.23466 0
M  V30 4502 H 415.013 5.40483 2.60074 0
M  V30 4503 H 416.692 5.98297 2.46273 0
M  V30 4504 N 416.824 -0.551391 1.4764 0
M  V30 4505 C 417.734 -1.68525 1.63207 0
M  V30 4506 C 418.75 -1.6621 0.514815 0
M  V30 4507 O 419.926 -1.85551 0.783113 0
M  V30 4508 C 416.991 -3.05025 1.64805 0
M  V30 4509 C 416.052 -3.18362 2.88 0
M  V30 4510 C 415.285 -4.4835 2.89513 0
M  V30 4511 O 415.508 -5.34163 2.00065 0
M  V30 4512 O 414.442 -4.65602 3.81443 0
M  V30 4513 H 418.268 -1.58333 2.59161 0
M  V30 4514 H 415.853 -0.722063 1.30792 0
M  V30 4515 H 417.735 -3.86245 1.68502 0
M  V30 4516 H 416.41 -3.15587 0.720197 0
M  V30 4517 H 415.317 -2.36518 2.89845 0
M  V30 4518 H 416.65 -3.12707 3.80099 0
M  V30 4519 N 418.302 -1.35869 -0.798587 0
M  V30 4520 C 419.25 -1.29491 -1.93222 0
M  V30 4521 C 420.244 -0.18836 -1.6835 0
M  V30 4522 O 421.45 -0.354822 -1.76468 0
M  V30 4523 H 417.825 -0.402901 -0.63496 0
M  V30 4524 H 419.796 -2.25247 -1.9572 0
M  V30 4525 C 418.545 -1.09184 -3.30112 0
M  V30 4526 H 417.868 -1.93574 -3.49813 0
M  V30 4527 H 419.308 -1.08766 -4.09812 0
M  V30 4528 C 417.767 0.203959 -3.36282 0
M  V30 4529 O 418.297 1.19699 -3.83451 0
M  V30 4530 N 416.503 0.245488 -2.89561 0
M  V30 4531 H 416.05 -0.563223 -2.51367 0
M  V30 4532 H 416.008 1.11219 -2.94071 0
M  V30 4533 N 419.78 1.02168 -1.19998 0
M  V30 4534 C 420.713 2.10232 -0.887558 0
M  V30 4535 C 421.691 1.61827 0.158317 0
M  V30 4536 O 422.875 1.88471 0.0330249 0
M  V30 4537 C 420.002 3.37092 -0.32964 0
M  V30 4538 C 419.048 4.0438 -1.3557 0
M  V30 4539 S 419.881 4.48956 -2.91888 0
M  V30 4540 C 421.037 5.79024 -2.37658 0
M  V30 4541 H 421.27 2.36409 -1.80272 0
M  V30 4542 H 418.803 1.15211 -1.0279 0
M  V30 4543 H 420.761 4.10498 -0.0142824 0
M  V30 4544 H 419.422 3.08996 0.563941 0
M  V30 4545 H 418.615 4.95632 -0.9146 0
M  V30 4546 H 418.217 3.37176 -1.61828 0
M  V30 4547 H 420.509 6.53942 -1.77103 0
M  V30 4548 H 421.452 6.27924 -3.27287 0
M  V30 4549 H 421.86 5.35043 -1.79971 0
M  V30 4550 N 421.258 1.00505 1.21394 0
M  V30 4551 C 422.506 0.686415 1.90086 0
M  V30 4552 C 422.827 -0.785264 1.7849 0
M  V30 4553 O 422.097 -1.56387 1.17983 0
M  V30 4554 H 420.677 0.2509 0.703604 0
M  V30 4555 H 423.339 1.27417 1.47482 0
M  V30 4556 H 422.435 0.959621 2.96981 0
M  V30 4557 N 422.737 -1.36956 0.779787 0
M  V30 4558 C 423.684 -2.30175 0.169697 0
M  V30 4559 C 424.654 -1.51501 -0.68094 0
M  V30 4560 O 425.839 -1.80042 -0.631629 0
M  V30 4561 C 422.979 -3.37985 -0.697131 0
M  V30 4562 C 422.092 -4.31661 0.170992 0
M  V30 4563 C 421.227 -5.2655 -0.701298 0
M  V30 4564 C 420.266 -6.11867 0.168869 0
M  V30 4565 N 419.403 -6.98973 -0.661855 0
M  V30 4566 H 424.243 -2.81767 0.970135 0
M  V30 4567 H 421.78 -1.38699 0.489994 0
M  V30 4568 H 423.738 -3.99128 -1.2146 0
M  V30 4569 H 422.368 -2.87739 -1.46309 0
M  V30 4570 H 421.42 -3.71756 0.80634 0
M  V30 4571 H 422.732 -4.91644 0.841875 0
M  V30 4572 H 421.886 -5.92937 -1.28494 0
M  V30 4573 H 420.625 -4.66998 -1.40584 0
M  V30 4574 H 419.63 -5.44452 0.764986 0
M  V30 4575 H 420.855 -6.73493 0.870863 0
M  V30 4576 H 418.801 -6.41941 -1.35086 0
M  V30 4577 H 418.718 -7.55984 -0.0484447 0
M  V30 4578 H 419.986 -7.6974 -1.22963 0
M  V30 4579 N 424.215 -0.530993 -1.48385 0
M  V30 4580 C 425.461 0.00274135 -2.028 0
M  V30 4581 C 425.794 1.33838 -1.40716 0
M  V30 4582 O 425.069 1.86465 -0.553277 0
M  V30 4583 C 425.352 0.123676 -3.59888 0
M  V30 4584 C 425.205 -1.2372 -4.3245 0
M  V30 4585 C 426.524 0.849967 -4.31814 0
M  V30 4586 H 423.643 -0.000477758 -0.737 0
M  V30 4587 H 426.285 -0.688217 -1.77098 0
M  V30 4588 H 424.435 0.712157 -3.81917 0
M  V30 4589 H 426.107 -1.86687 -4.21836 0
M  V30 4590 H 424.35 -1.81882 -3.93829 0
M  V30 4591 H 425.021 -1.10557 -5.40815 0
M  V30 4592 H 427.497 0.350572 -4.14621 0
M  V30 4593 H 426.373 0.903486 -5.41413 0
M  V30 4594 H 426.634 1.90047 -3.99167 0
M  V30 4595 N 425.693 1.55336 -0.266172 0
M  V30 4596 C 426.939 1.99692 0.353681 0
M  V30 4597 C 427.272 1.1543 1.56172 0
M  V30 4598 O 426.547 0.222218 1.93226 0
M  V30 4599 C 426.83 3.52316 0.74466 0
M  V30 4600 C 426.683 4.47337 -0.470101 0
M  V30 4601 C 428.002 4.10588 1.58447 0
M  V30 4602 H 425.121 0.725961 0.12708 0
M  V30 4603 H 427.763 1.86336 -0.371333 0
M  V30 4604 H 425.913 3.63829 1.36239 0
M  V30 4605 H 427.585 4.4778 -1.10864 0
M  V30 4606 H 425.828 4.19364 -1.10978 0
M  V30 4607 H 426.499 5.51788 -0.15291 0
M  V30 4608 H 428.975 4.02297 1.06286 0
M  V30 4609 H 427.851 5.17607 1.82686 0
M  V30 4610 H 428.112 3.60253 2.56262 0
M  V30 4611 N 427.171 -0.0066808 1.57599 0
M  V30 4612 C 428.103 -1.02827 2.04839 0
M  V30 4613 C 429.116 -1.31108 0.965113 0
M  V30 4614 O 430.305 -1.28202 1.24203 0
M  V30 4615 C 427.405 -2.36464 2.42771 0
M  V30 4616 C 426.578 -2.27219 3.73751 0
M  V30 4617 C 425.637 -3.43489 3.98625 0
M  V30 4618 O 424.663 -3.21976 4.69382 0
M  V30 4619 N 425.865 -4.66116 3.46 0
M  V30 4620 H 428.63 -0.625455 2.93101 0
M  V30 4621 H 426.191 -0.194198 1.60731 0
M  V30 4622 H 428.183 -3.13008 2.56531 0
M  V30 4623 H 426.753 -2.68512 1.60063 0
M  V30 4624 H 425.973 -1.35629 3.70133 0
M  V30 4625 H 427.261 -2.18208 4.59633 0
M  V30 4626 H 426.659 -4.86493 2.88688 0
M  V30 4627 H 425.216 -5.39949 3.65101 0
M  V30 4628 N 428.649 -1.55105 -0.279332 0
M  V30 4629 C 429.898 -1.74618 -1.00952 0
M  V30 4630 C 430.211 -0.551096 -1.87676 0
M  V30 4631 O 431.417 -0.628507 -2.64125 0
M  V30 4632 C 429.873 -3.09025 -1.84476 0
M  V30 4633 C 429.481 -4.36081 -1.0265 0
M  V30 4634 C 431.225 -3.37891 -2.56963 0
M  V30 4635 C 429.132 -5.6153 -1.85576 0
M  V30 4636 H 428.062 -0.650868 -0.38064 0
M  V30 4637 H 430.713 -1.81569 -0.265475 0
M  V30 4638 H 429.095 -2.96095 -2.62952 0
M  V30 4639 H 430.269 -4.59909 -0.286354 0
M  V30 4640 H 428.584 -4.14312 -0.416464 0
M  V30 4641 H 431.181 -4.28822 -3.19399 0
M  V30 4642 H 431.524 -2.57737 -3.26921 0
M  V30 4643 H 432.057 -3.5189 -1.85522 0
M  V30 4644 H 428.796 -6.44413 -1.2005 0
M  V30 4645 H 428.316 -5.41854 -2.57204 0
M  V30 4646 H 429.995 -5.99594 -2.43096 0
M  V30 4647 N 430.127 0.543554 -1.4793 0
M  V30 4648 C 431.057 1.65888 -1.64327 0
M  V30 4649 C 432.038 1.62818 -0.492383 0
M  V30 4650 O 433.223 1.80226 -0.723338 0
M  V30 4651 C 430.353 3.04506 -1.67013 0
M  V30 4652 C 429.307 3.2243 -2.81466 0
M  V30 4653 C 428.633 4.61972 -2.69233 0
M  V30 4654 C 429.933 3.06496 -4.22915 0
M  V30 4655 H 431.627 1.52421 -2.57698 0
M  V30 4656 H 429.173 0.731849 -1.24016 0
M  V30 4657 H 431.126 3.82391 -1.77074 0
M  V30 4658 H 429.85 3.18964 -0.70212 0
M  V30 4659 H 428.509 2.46957 -2.70938 0
M  V30 4660 H 428.157 4.73247 -1.7043 0
M  V30 4661 H 427.857 4.74911 -3.46025 0
M  V30 4662 H 429.381 5.41974 -2.81242 0
M  V30 4663 H 430.795 3.74186 -4.34348 0
M  V30 4664 H 429.192 3.30938 -5.006 0
M  V30 4665 H 430.262 2.03077 -4.40327 0
M  V30 4666 N 431.605 1.3629 0.791371 0
M  V30 4667 C 433.021 1.16661 1.08914 0
M  V30 4668 C 433.221 -0.0106266 2.01497 0
M  V30 4669 O 432.277 -0.676596 2.43266 0
M  V30 4670 C 433.59 2.47656 1.70549 0
M  V30 4671 C 435.138 2.54002 1.82899 0
M  V30 4672 C 435.613 3.85078 2.47949 0
M  V30 4673 N 437.104 3.86413 2.5542 0
M  V30 4674 C 437.839 4.84572 3.06557 0
M  V30 4675 N 437.335 5.93124 3.58016 0
M  V30 4676 N 439.128 4.71994 3.05251 0
M  V30 4677 H 431.279 2.11668 0.176238 0
M  V30 4678 H 433.542 0.937486 0.140796 0
M  V30 4679 H 433.248 3.34059 1.09989 0
M  V30 4680 H 433.122 2.63319 2.70079 0
M  V30 4681 H 435.509 1.68018 2.42598 0
M  V30 4682 H 435.59 2.42239 0.821808 0
M  V30 4683 H 435.234 4.71467 1.88895 0
M  V30 4684 H 435.164 3.94135 3.49235 0
M  V30 4685 H 437.655 3.07988 2.18979 0
M  V30 4686 H 437.968 6.63999 3.95381 0
M  V30 4687 H 436.313 5.96796 3.56173 0
M  V30 4688 H 439.504 3.86321 2.64336 0
M  V30 4689 H 439.677 5.48653 3.44796 0
M  V30 4690 N 433.083 -1.0153 1.20538 0
M  V30 4691 C 434.013 -2.11972 0.979295 0
M  V30 4692 C 434.994 -1.6985 -0.0921787 0
M  V30 4693 O 436.179 -1.94089 0.0655932 0
M  V30 4694 C 433.309 -3.43201 0.531984 0
M  V30 4695 C 432.263 -3.9907 1.54685 0
M  V30 4696 C 431.589 -5.26082 0.956127 0
M  V30 4697 C 432.889 -4.32313 2.93092 0
M  V30 4698 H 434.583 -2.31143 1.90298 0
M  V30 4699 H 432.129 -1.11079 0.916372 0
M  V30 4700 H 434.082 -4.1985 0.361044 0
M  V30 4701 H 432.806 -3.23792 -0.427327 0
M  V30 4702 H 431.465 -3.2453 1.70517 0
M  V30 4703 H 431.113 -5.02999 -0.0111538 0
M  V30 4704 H 430.813 -5.64426 1.63393 0
M  V30 4705 H 432.337 -6.05386 0.796284 0
M  V30 4706 H 433.751 -4.99845 2.80763 0
M  V30 4707 H 432.148 -4.81774 3.57791 0
M  V30 4708 H 433.218 -3.41025 3.44717 0
M  V30 4709 N 434.561 -1.01147 -1.20859 0
M  V30 4710 C 435.494 -0.522108 -2.22147 0
M  V30 4711 C 436.472 0.427686 -1.56874 0
M  V30 4712 O 437.656 0.34889 -1.85243 0
M  V30 4713 C 434.783 0.240819 -3.37843 0
M  V30 4714 C 433.829 -0.657752 -4.21398 0
M  V30 4715 S 434.662 -2.12393 -4.91578 0
M  V30 4716 C 435.818 -1.37102 -6.10699 0
M  V30 4717 H 436.051 -1.38035 -2.63313 0
M  V30 4718 H 433.584 -0.819941 -1.30829 0
M  V30 4719 H 435.542 0.674908 -4.04914 0
M  V30 4720 H 434.203 1.07457 -2.95147 0
M  V30 4721 H 433.396 -0.0697456 -5.03952 0
M  V30 4722 H 432.998 -1.0294 -3.59555 0
M  V30 4723 H 435.29 -0.648315 -6.74391 0
M  V30 4724 H 436.233 -2.17252 -6.73949 0
M  V30 4725 H 436.641 -0.876154 -5.57659 0
M  V30 4726 N 436.039 1.36541 -0.78704 0
M  V30 4727 C 437.455 1.52571 -0.46844 0
M  V30 4728 C 437.655 1.7415 1.01361 0
M  V30 4729 O 436.711 1.77163 1.79915 0
M  V30 4730 C 438.024 2.71299 -1.29682 0
M  V30 4731 C 439.572 2.85169 -1.29027 0
M  V30 4732 C 440.047 4.06898 -2.10233 0
M  V30 4733 N 441.538 4.1404 -2.07666 0
M  V30 4734 C 442.273 5.07301 -2.67271 0
M  V30 4735 N 441.769 6.06021 -3.35724 0
M  V30 4736 N 443.562 4.99898 -2.57018 0
M  V30 4737 H 435.713 1.20788 -1.74711 0
M  V30 4738 H 437.976 0.589364 -0.742532 0
M  V30 4739 H 437.682 2.61868 -2.34773 0
M  V30 4740 H 437.556 3.6539 -0.936479 0
M  V30 4741 H 439.943 2.94062 -0.247284 0
M  V30 4742 H 440.024 1.91992 -1.69035 0
M  V30 4743 H 439.668 3.98766 -3.1456 0
M  V30 4744 H 439.598 4.99218 -1.67597 0
M  V30 4745 H 442.089 3.43357 -1.57843 0
M  V30 4746 H 442.402 6.73741 -3.78541 0
M  V30 4747 H 440.747 6.06253 -3.39826 0
M  V30 4748 H 443.938 4.21724 -2.03142 0
M  V30 4749 H 444.111 5.72392 -3.03761 0
M  V30 4750 N 437.518 0.538854 1.48102 0
M  V30 4751 C 438.767 0.0059532 2.01699 0
M  V30 4752 C 439.08 -1.34476 1.42041 0
M  V30 4753 O 440.286 -1.96653 1.87189 0
M  V30 4754 C 438.742 -0.0397627 3.59878 0
M  V30 4755 C 438.35 1.30659 4.28523 0
M  V30 4756 C 440.094 -0.521024 4.2129 0
M  V30 4757 C 438.001 1.22098 5.78659 0
M  V30 4758 H 436.931 -0.00154456 0.753998 0
M  V30 4759 H 439.582 0.683963 1.70277 0
M  V30 4760 H 437.964 -0.783037 3.88181 0
M  V30 4761 H 439.138 2.06613 4.11883 0
M  V30 4762 H 437.453 1.7243 3.79021 0
M  V30 4763 H 440.05 -0.603184 5.31287 0
M  V30 4764 H 440.393 -1.52885 3.8721 0
M  V30 4765 H 440.926 0.166834 3.9745 0
M  V30 4766 H 437.665 2.20424 6.17328 0
M  V30 4767 H 437.185 0.50295 5.97688 0
M  V30 4768 H 438.864 0.915345 6.40492 0
M  V30 4769 N 438.996 -1.55193 0.274407 0
M  V30 4770 C 440.243 -1.99581 -0.342579 0
M  V30 4771 C 440.571 -1.1628 -1.55914 0
M  V30 4772 O 439.826 -0.22029 -1.94456 0
M  V30 4773 C 440.125 -3.49019 -0.769458 0
M  V30 4774 C 439.791 -4.49598 0.342389 0
M  V30 4775 C 438.453 -4.76821 0.647686 0
M  V30 4776 C 440.805 -5.0964 1.09163 0
M  V30 4777 C 438.133 -5.61354 1.70581 0
M  V30 4778 C 440.485 -5.95323 2.13948 0
M  V30 4779 C 439.149 -6.20867 2.45113 0
M  V30 4780 H 438.419 -0.730319 -0.125358 0
M  V30 4781 H 441.066 -1.87529 0.387971 0
M  V30 4782 H 439.371 -3.58544 -1.57967 0
M  V30 4783 H 441.068 -3.8077 -1.25757 0
M  V30 4784 H 437.658 -4.28496 0.094318 0
M  V30 4785 H 441.842 -4.88632 0.869024 0
M  V30 4786 H 437.098 -5.79392 1.9523 0
M  V30 4787 H 441.272 -6.40881 2.72478 0
M  V30 4788 H 438.899 -6.86162 3.27239 0
M  V30 4789 N 440.474 -0.00167713 -1.576 0
M  V30 4790 C 441.89 0.354422 -1.55615 0
M  V30 4791 C 442.09 1.74679 -1.00447 0
M  V30 4792 O 441.146 2.4428 -0.639022 0
M  V30 4793 C 442.459 0.22812 -2.99833 0
M  V30 4794 C 444.007 0.302934 -3.11531 0
M  V30 4795 C 444.482 0.205737 -4.57538 0
M  V30 4796 N 445.973 0.263584 -4.62449 0
M  V30 4797 C 446.708 0.211742 -5.73009 0
M  V30 4798 N 446.204 0.110399 -6.92712 0
M  V30 4799 N 447.997 0.263729 -5.61481 0
M  V30 4800 H 440.148 -0.912498 -1.918 0
M  V30 4801 H 442.411 -0.349928 -0.881053 0
M  V30 4802 H 442.117 -0.729934 -3.44042 0
M  V30 4803 H 441.991 1.00951 -3.6344 0
M  V30 4804 H 444.378 1.25143 -2.67251 0
M  V30 4805 H 444.459 -0.508357 -2.50698 0
M  V30 4806 H 444.103 -0.739225 -5.02492 0
M  V30 4807 H 444.033 1.03554 -5.16318 0
M  V30 4808 H 446.524 0.343173 -3.76339 0
M  V30 4809 H 446.837 0.0767828 -7.72762 0
M  V30 4810 H 445.182 0.0760025 -6.94958 0
M  V30 4811 H 448.373 0.34111 -4.66855 0
M  V30 4812 H 448.546 0.219862 -6.47627 0
M  V30 4813 N 441.952 1.55251 0.271103 0
M  V30 4814 C 443.201 1.75151 1.00025 0
M  V30 4815 C 443.514 0.561041 1.87381 0
M  V30 4816 O 444.72 0.642506 2.63788 0
M  V30 4817 C 443.176 3.09999 1.82835 0
M  V30 4818 C 442.784 4.3662 1.00336 0
M  V30 4819 C 444.528 3.39249 2.55168 0
M  V30 4820 C 442.435 5.62506 1.82595 0
M  V30 4821 H 441.365 0.652877 0.377183 0
M  V30 4822 H 444.016 1.81708 0.255843 0
M  V30 4823 H 442.398 2.97485 2.61378 0
M  V30 4824 H 443.572 4.60055 0.261959 0
M  V30 4825 H 441.887 4.14527 0.394486 0
M  V30 4826 H 444.484 4.3051 3.1712 0
M  V30 4827 H 444.827 2.59467 3.2555 0
M  V30 4828 H 445.36 3.52869 1.83653 0
M  V30 4829 H 442.099 6.45041 1.16631 0
M  V30 4830 H 441.619 5.43211 2.54327 0
M  V30 4831 H 443.298 6.00875 2.39913 0
M  V30 4832 N 443.43 -0.535701 1.48216 0
M  V30 4833 C 444.36 -1.65014 1.65204 0
M  V30 4834 C 445.341 -1.62554 0.501011 0
M  V30 4835 O 446.526 -1.7984 0.732886 0
M  V30 4836 C 443.656 -3.03616 1.68626 0
M  V30 4837 C 442.61 -3.20932 2.83172 0
M  V30 4838 C 441.936 -4.60537 2.71679 0
M  V30 4839 C 443.236 -3.04249 4.24535 0
M  V30 4840 H 444.93 -1.51053 2.58502 0
M  V30 4841 H 442.476 -0.725262 1.24402 0
M  V30 4842 H 444.429 -3.81446 1.79099 0
M  V30 4843 H 443.153 -3.18587 0.719026 0
M  V30 4844 H 441.812 -2.45517 2.72244 0
M  V30 4845 H 441.46 -4.72336 1.72937 0
M  V30 4846 H 441.16 -4.73069 3.48538 0
M  V30 4847 H 442.684 -5.40475 2.84112 0
M  V30 4848 H 444.098 -3.71877 4.36326 0
M  V30 4849 H 442.495 -3.28278 5.02348 0
M  V30 4850 H 443.565 -2.00739 4.41397 0
M  V30 4851 N 444.908 -1.36708 -0.784132 0
M  V30 4852 C 445.855 -1.31466 -1.89698 0
M  V30 4853 C 446.825 -0.18239 -1.65096 0
M  V30 4854 O 448.01 -0.369762 -1.87183 0
M  V30 4855 C 445.15 -1.1151 -3.26588 0
M  V30 4856 C 444.263 -2.33859 -3.63227 0
M  V30 4857 C 443.398 -2.06873 -4.89262 0
M  V30 4858 C 442.437 -3.25154 -5.18595 0
M  V30 4859 N 441.574 -2.978 -6.35814 0
M  V30 4860 H 446.414 -2.26619 -1.93515 0
M  V30 4861 H 443.951 -1.12625 -0.946256 0
M  V30 4862 H 445.909 -0.979653 -4.05535 0
M  V30 4863 H 444.539 -0.200103 -3.22179 0
M  V30 4864 H 443.591 -2.58188 -2.79362 0
M  V30 4865 H 444.903 -3.22109 -3.8085 0
M  V30 4866 H 444.057 -1.90289 -5.76086 0
M  V30 4867 H 442.796 -1.15942 -4.73718 0
M  V30 4868 H 441.801 -3.42292 -4.30251 0
M  V30 4869 H 443.026 -4.1692 -5.36055 0
M  V30 4870 H 440.972 -2.09485 -6.21653 0
M  V30 4871 H 440.889 -3.7959 -6.53794 0
M  V30 4872 H 442.157 -2.84805 -7.25607 0
M  V30 4873 N 446.386 1.0089 -1.21074 0
M  V30 4874 C 447.316 2.1145 -0.990523 0
M  V30 4875 C 448.297 1.69897 0.0831699 0
M  V30 4876 O 449.482 1.94052 -0.0758853 0
M  V30 4877 C 446.612 3.42914 -0.550177 0
M  V30 4878 C 445.566 3.98244 -1.56799 0
M  V30 4879 C 444.892 5.25568 -0.984013 0
M  V30 4880 C 446.192 4.30752 -2.95381 0
M  V30 4881 H 447.886 2.3013 -1.91521 0
M  V30 4882 H 445.432 1.10592 -0.92225 0
M  V30 4883 H 447.385 4.19653 -0.383305 0
M  V30 4884 H 446.109 3.24014 0.41015 0
M  V30 4885 H 444.768 3.23621 -1.72236 0
M  V30 4886 H 444.416 5.02998 -0.0155216 0
M  V30 4887 H 444.116 5.63551 -1.66384 0
M  V30 4888 H 445.64 6.04955 -0.828378 0
M  V30 4889 H 447.054 4.98349 -2.8341 0
M  V30 4890 H 445.451 4.79869 -3.60341 0
M  V30 4891 H 446.521 3.39192 -3.46521 0
M  V30 4892 N 447.864 1.01787 1.20321 0
M  V30 4893 C 448.827 0.593972 2.2137 0
M  V30 4894 C 449.827 -0.336553 1.57239 0
M  V30 4895 O 451.017 -0.125069 1.7375 0
M  V30 4896 C 448.149 -0.132433 3.40643 0
M  V30 4897 H 449.342 1.48791 2.60387 0
M  V30 4898 H 446.895 0.807803 1.33807 0
M  V30 4899 H 447.63 -1.04123 3.0713 0
M  V30 4900 H 447.415 0.53605 3.88418 0
M  V30 4901 H 448.905 -0.416314 4.1552 0
M  V30 4902 N 449.342 -1.36122 0.79427 0
M  V30 4903 C 450.758 -1.5232 0.476525 0
M  V30 4904 C 450.958 -1.74685 -1.00436 0
M  V30 4905 O 450.014 -1.78115 -1.78973 0
M  V30 4906 C 451.327 -2.70607 1.31119 0
M  V30 4907 C 452.875 -2.8448 1.30537 0
M  V30 4908 C 453.35 -4.05778 2.12387 0
M  V30 4909 N 454.841 -4.12933 2.09859 0
M  V30 4910 C 455.576 -5.05876 2.69957 0
M  V30 4911 N 455.072 -6.04232 3.38934 0
M  V30 4912 N 456.865 -4.98528 2.59665 0
M  V30 4913 H 449.016 -1.1986 1.75349 0
M  V30 4914 H 451.279 -0.585418 0.745647 0
M  V30 4915 H 450.985 -2.60619 2.36158 0
M  V30 4916 H 450.859 -3.64888 0.955843 0
M  V30 4917 H 453.246 -2.93927 0.262876 0
M  V30 4918 H 453.327 -1.91093 1.70051 0
M  V30 4919 H 452.971 -3.97092 3.1667 0
M  V30 4920 H 452.901 -4.98323 1.70242 0
M  V30 4921 H 455.392 -3.42515 1.59662 0
M  V30 4922 H 455.705 -6.71724 3.82109 0
M  V30 4923 H 454.05 -6.04443 3.43036 0
M  V30 4924 H 457.241 -4.20641 2.05375 0
M  V30 4925 H 457.414 -5.70773 3.06793 0
M  V30 4926 N 450.82 -0.546701 -1.47814 0
M  V30 4927 C 451.77 0.227042 -2.26867 0
M  V30 4928 C 452.754 0.894844 -1.33721 0
M  V30 4929 O 453.946 0.794887 -1.58147 0
M  V30 4930 C 451.075 1.26299 -3.19223 0
M  V30 4931 C 450.161 0.59913 -4.19847 0
M  V30 4932 N 450.552 -0.324777 -5.04756 0
M  V30 4933 C 448.85 0.854331 -4.37741 0
M  V30 4934 C 449.551 -0.709386 -5.77358 0
M  V30 4935 N 448.527 -0.0666153 -5.43559 0
M  V30 4936 H 452.329 -0.483476 -2.89896 0
M  V30 4937 H 449.843 -0.365893 -1.58224 0
M  V30 4938 H 451.84 1.83116 -3.74532 0
M  V30 4939 H 450.5 1.97471 -2.57751 0
M  V30 4940 H 451.511 -0.698351 -5.1317 0
M  V30 4941 H 448.188 1.55536 -3.87447 0
M  V30 4942 H 449.578 -1.46796 -6.55668 0
M  V30 4943 N 452.299 1.55045 -0.282633 0
M  V30 4944 C 453.524 2.04628 0.337977 0
M  V30 4945 C 453.949 1.15937 1.48123 0
M  V30 4946 O 453.307 0.159532 1.80597 0
M  V30 4947 C 453.355 3.51854 0.78936 0
M  V30 4948 O 452.459 3.66236 1.89592 0
M  V30 4949 H 451.8 0.660434 0.0687261 0
M  V30 4950 H 454.33 2.00261 -0.419124 0
M  V30 4951 H 454.34 3.93361 1.08311 0
M  V30 4952 H 453.015 4.15873 -0.0470419 0
M  V30 4953 H 451.592 3.36633 1.60413 0
M  V30 4954 N 453.777 0.010035 1.57597 0
M  V30 4955 C 455.023 -0.673697 1.91283 0
M  V30 4956 C 455.356 -1.72863 0.884979 0
M  V30 4957 O 454.631 -1.94268 -0.0949487 0
M  V30 4958 C 454.914 -1.30766 3.35518 0
M  V30 4959 C 454.767 -0.263578 4.49027 0
M  V30 4960 C 456.086 -2.23105 3.79358 0
M  V30 4961 H 453.205 -0.243439 0.695634 0
M  V30 4962 H 455.847 0.0633864 1.89894 0
M  V30 4963 H 453.997 -1.93588 3.36832 0
M  V30 4964 H 455.669 0.365738 4.59848 0
M  V30 4965 H 453.912 0.413077 4.31829 0
M  V30 4966 H 454.583 -0.746398 5.4693 0
M  V30 4967 H 457.059 -1.70289 3.79659 0
M  V30 4968 H 455.935 -2.64424 4.81011 0
M  V30 4969 H 456.196 -3.11433 3.13787 0
M  V30 4970 N 455.255 -1.55392 -0.262866 0
M  V30 4971 C 456.503 -1.76127 -0.991147 0
M  V30 4972 C 456.824 -0.571083 -1.8645 0
M  V30 4973 O 456.094 0.413698 -1.91482 0
M  V30 4974 H 454.674 -0.649528 -0.368948 0
M  V30 4975 H 457.336 -1.9281 -0.284655 0
M  V30 4976 H 456.432 -2.6663 -1.62219 0
M  V30 4977 N 456.733 0.527833 -1.48498 0
M  V30 4978 C 457.663 1.64136 -1.66077 0
M  V30 4979 C 458.644 1.62286 -0.509625 0
M  V30 4980 O 459.829 1.79449 -0.742413 0
M  V30 4981 C 456.959 3.02717 -1.70234 0
M  V30 4982 C 455.913 3.19426 -2.8487 0
M  V30 4983 C 455.239 4.5909 -2.74118 0
M  V30 4984 C 456.539 3.01993 -4.26142 0
M  V30 4985 H 458.233 1.4968 -2.593 0
M  V30 4986 H 455.779 0.718654 -1.24785 0
M  V30 4987 H 457.732 3.80491 -1.8112 0
M  V30 4988 H 456.456 3.18201 -0.735911 0
M  V30 4989 H 455.115 2.4407 -2.73542 0
M  V30 4990 H 454.763 4.71413 -1.7544 0
M  V30 4991 H 454.463 4.71214 -3.51042 0
M  V30 4992 H 455.987 5.3896 -2.86974 0
M  V30 4993 H 457.401 3.69558 -4.38292 0
M  V30 4994 H 455.798 3.2561 -5.04082 0
M  V30 4995 H 456.868 1.98396 -4.42456 0
M  V30 4996 N 458.211 1.37122 0.776871 0
M  V30 4997 C 459.627 1.1781 1.07671 0
M  V30 4998 C 459.827 0.0107454 2.01497 0
M  V30 4999 O 458.883 -0.650756 2.4397 0
M  V30 5000 C 460.196 2.49451 1.67913 0
M  V30 5001 C 461.744 2.55927 1.80195 0
M  V30 5002 C 462.219 3.87686 2.43851 0
M  V30 5003 N 463.71 3.891 2.51307 0
M  V30 5004 C 464.445 4.87797 3.014 0
M  V30 5005 N 463.941 5.96888 3.51705 0
M  V30 5006 N 465.734 4.75205 3.00227 0
M  V30 5007 H 457.885 2.11843 0.153778 0
M  V30 5008 H 460.148 0.938927 0.130844 0
M  V30 5009 H 459.854 3.35207 1.06439 0
M  V30 5010 H 459.728 2.66169 2.67271 0
M  V30 5011 H 462.115 1.70582 2.40803 0
M  V30 5012 H 462.196 2.43097 0.796069 0
M  V30 5013 H 461.84 4.73444 1.83884 0
M  V30 5014 H 461.77 3.97817 3.45035 0
M  V30 5015 H 464.261 3.10293 2.157 0
M  V30 5016 H 464.574 6.68155 3.88316 0
M  V30 5017 H 462.919 6.0054 3.49824 0
M  V30 5018 H 466.11 3.89103 2.60224 0
M  V30 5019 H 466.283 5.52279 3.38957 0
M  V30 5020 N 459.689 -1.00246 1.21608 0
M  V30 5021 C 460.914 -1.78167 1.06167 0
M  V30 5022 C 461.339 -1.84138 -0.384035 0
M  V30 5023 O 460.697 -1.28683 -1.27712 0
M  V30 5024 C 460.745 -3.19786 1.66642 0
M  V30 5025 O 459.849 -4.02153 0.913613 0
M  V30 5026 H 459.19 -0.549 0.37349 0
M  V30 5027 H 461.72 -1.25994 1.61204 0
M  V30 5028 H 461.73 -3.70451 1.70969 0
M  V30 5029 H 460.405 -3.14754 2.7185 0
M  V30 5030 H 458.982 -3.60711 0.945635 0
M  V30 5031 N 461.167 -1.02423 -1.1978 0
M  V30 5032 C 462.097 -0.62157 -2.25075 0
M  V30 5033 C 463.078 0.367148 -1.6609 0
M  V30 5034 O 464.263 0.250892 -1.92573 0
M  V30 5035 C 461.393 0.0331826 -3.47284 0
M  V30 5036 C 460.347 -0.877323 -4.18912 0
M  V30 5037 C 459.673 -0.0879296 -5.34628 0
M  V30 5038 C 460.973 -2.18892 -4.74219 0
M  V30 5039 H 462.667 -1.50179 -2.59011 0
M  V30 5040 H 460.213 -0.723547 -1.24502 0
M  V30 5041 H 462.166 0.326488 -4.20133 0
M  V30 5042 H 460.89 0.948164 -3.12534 0
M  V30 5043 H 459.549 -1.15475 -3.47938 0
M  V30 5044 H 459.197 0.828941 -4.96123 0
M  V30 5045 H 458.897 -0.694359 -5.83483 0
M  V30 5046 H 460.421 0.198743 -6.10276 0
M  V30 5047 H 461.835 -1.95746 -5.38847 0
M  V30 5048 H 460.232 -2.74686 -5.33542 0
M  V30 5049 H 461.302 -2.84674 -3.92541 0
M  V30 5050 N 462.645 1.35699 -0.801477 0
M  V30 5051 C 463.893 1.9852 -0.37871 0
M  V30 5052 C 464.214 1.63907 1.05638 0
M  V30 5053 O 463.484 0.919013 1.73006 0
M  V30 5054 H 462.064 0.734322 -0.137042 0
M  V30 5055 H 464.726 1.65697 -1.02619 0
M  V30 5056 H 463.822 3.08382 -0.480284 0
M  V30 5057 N 464.123 0.554532 1.47522 0
M  V30 5058 C 465.086 -0.184174 2.28459 0
M  V30 5059 C 466.086 -0.845195 1.36796 0
M  V30 5060 O 467.276 -0.701467 1.59452 0
M  V30 5061 C 464.408 -1.26903 3.16399 0
M  V30 5062 H 465.601 0.526751 2.95238 0
M  V30 5063 H 463.154 0.311375 1.53167 0
M  V30 5064 H 463.889 -2.01244 2.54306 0
M  V30 5065 H 463.674 -0.799883 3.83854 0
M  V30 5066 H 465.164 -1.78794 3.77389 0
M  V30 5067 N 465.601 -1.54893 0.290851 0
M  V30 5068 C 466.829 -2.04343 -0.324288 0
M  V30 5069 C 467.244 -1.16859 -1.48289 0
M  V30 5070 O 466.601 -0.192018 -1.81487 0
M  V30 5071 C 466.652 -3.52756 -0.79026 0
M  V30 5072 O 466.373 -4.36913 0.322213 0
M  V30 5073 C 467.874 -4.18161 -1.4716 0
M  V30 5074 H 465.094 -0.667135 -0.0719173 0
M  V30 5075 H 467.638 -1.99981 0.427529 0
M  V30 5076 H 465.793 -3.57511 -1.49213 0
M  V30 5077 H 466.207 -5.24486 -0.0387372 0
M  V30 5078 H 467.681 -5.23562 -1.7489 0
M  V30 5079 H 468.158 -3.67282 -2.40834 0
M  V30 5080 H 468.764 -4.17454 -0.813178 0
M  V30 5081 N 467.08 -0.0183926 -1.57589 0
M  V30 5082 C 468.01 0.965596 -2.12599 0
M  V30 5083 C 468.991 1.34641 -1.0395 0
M  V30 5084 O 470.176 1.42693 -1.31729 0
M  V30 5085 C 467.306 2.25149 -2.64434 0
M  V30 5086 C 466.26 2.01175 -3.77773 0
M  V30 5087 C 465.586 3.35937 -4.15994 0
M  V30 5088 C 466.886 1.35953 -5.04296 0
M  V30 5089 H 468.58 0.507504 -2.95067 0
M  V30 5090 H 466.126 0.242671 -1.41941 0
M  V30 5091 H 468.079 2.94357 -3.01549 0
M  V30 5092 H 466.803 2.73105 -1.79112 0
M  V30 5093 H 465.462 1.34388 -3.4108 0
M  V30 5094 H 465.11 3.81631 -3.27669 0
M  V30 5095 H 464.81 3.20705 -4.92364 0
M  V30 5096 H 466.334 4.0643 -4.55683 0
M  V30 5097 H 467.748 1.95144 -5.39065 0
M  V30 5098 H 466.145 1.31152 -5.85593 0
M  V30 5099 H 467.215 0.331071 -4.83768 0
M  V30 5100 N 468.558 1.5553 0.254621 0
M  V30 5101 C 469.974 1.4778 0.602753 0
M  V30 5102 C 470.174 0.707047 1.88688 0
M  V30 5103 O 469.23 0.233288 2.5142 0
M  V30 5104 C 470.543 2.92133 0.712648 0
M  V30 5105 C 472.091 3.02458 0.805488 0
M  V30 5106 C 472.566 4.48102 0.947009 0
M  V30 5107 N 474.057 4.52008 1.01207 0
M  V30 5108 C 474.792 5.61939 1.1407 0
M  V30 5109 N 474.288 6.81697 1.23536 0
M  V30 5110 N 476.081 5.49719 1.17325 0
M  V30 5111 H 468.232 2.04085 -0.588463 0
M  V30 5112 H 470.495 0.926229 -0.202001 0
M  V30 5113 H 470.201 3.51332 -0.160766 0
M  V30 5114 H 470.075 3.42187 1.58707 0
M  V30 5115 H 472.462 2.43344 1.66936 0
M  V30 5116 H 472.543 2.55627 -0.0939266 0
M  V30 5117 H 472.187 5.07824 0.087725 0
M  V30 5118 H 472.117 4.92607 1.86135 0
M  V30 5119 H 474.608 3.65749 0.950577 0
M  V30 5120 H 474.921 7.61228 1.33236 0
M  V30 5121 H 473.266 6.84473 1.20508 0
M  V30 5122 H 476.457 4.55095 1.09573 0
M  V30 5123 H 476.63 6.35432 1.27005 0
M  V30 5124 N 470.036 -0.519951 1.48776 0
M  V30 5125 C 470.986 -1.61995 1.60442 0
M  V30 5126 C 471.97 -1.54155 0.460991 0
M  V30 5127 O 473.162 -1.62006 0.712965 0
M  V30 5128 C 470.291 -3.00683 1.65664 0
M  V30 5129 C 469.377 -3.1359 2.8552 0
M  V30 5130 N 469.768 -2.96441 4.09825 0
M  V30 5131 C 468.066 -3.44662 2.83062 0
M  V30 5132 C 468.767 -3.1303 4.90293 0
M  V30 5133 N 467.743 -3.41058 4.23297 0
M  V30 5134 H 471.545 -1.47362 2.54287 0
M  V30 5135 H 469.059 -0.725649 1.45286 0
M  V30 5136 H 471.056 -3.79712 1.72117 0
M  V30 5137 H 469.716 -3.16401 0.729425 0
M  V30 5138 H 470.727 -2.72999 4.40104 0
M  V30 5139 H 467.404 -3.66675 1.9964 0
M  V30 5140 H 468.794 -3.04424 5.98979 0
M  V30 5141 N 471.514 -1.37532 -0.769588 0
M  V30 5142 C 472.739 -1.36231 -1.56384 0
M  V30 5143 C 473.164 0.0495849 -1.88035 0
M  V30 5144 O 472.522 1.02723 -1.49391 0
M  V30 5145 C 472.57 -2.20986 -2.84952 0
M  V30 5146 O 471.674 -1.61597 -3.79421 0
M  V30 5147 H 471.015 -0.465387 -0.473615 0
M  V30 5148 H 473.545 -1.81085 -0.952342 0
M  V30 5149 H 473.555 -2.34277 -3.34034 0
M  V30 5150 H 472.23 -3.23612 -2.61243 0
M  V30 5151 H 470.807 -1.57359 -3.38072 0
M  V30 5152 N 472.992 0.995999 -1.22138 0
M  V30 5153 C 474.222 1.76809 -1.06874 0
M  V30 5154 C 474.63 1.85265 0.383866 0
M  V30 5155 O 473.973 1.31969 1.27789 0
M  V30 5156 C 474.035 3.2186 -1.60144 0
M  V30 5157 C 473.699 3.36958 -3.0872 0
M  V30 5158 C 474.696 3.2452 -4.0618 0
M  V30 5159 C 472.381 3.62109 -3.48112 0
M  V30 5160 C 474.375 3.37013 -5.41019 0
M  V30 5161 C 472.062 3.74243 -4.831 0
M  V30 5162 C 473.06 3.61702 -5.79362 0
M  V30 5163 O 472.748 3.73436 -7.119 0
M  V30 5164 H 472.48 0.562207 -0.375365 0
M  V30 5165 H 475.034 1.26113 -1.62125 0
M  V30 5166 H 473.264 3.73734 -0.992981 0
M  V30 5167 H 474.953 3.80775 -1.40589 0
M  V30 5168 H 475.719 3.05004 -3.77091 0
M  V30 5169 H 471.598 3.70949 -2.73712 0
M  V30 5170 H 475.142 3.27141 -6.16137 0
M  V30 5171 H 471.039 3.93266 -5.11872 0
M  V30 5172 H 471.807 3.90328 -7.19435 0
M  V30 5173 N 474.47 1.03057 1.19235 0
M  V30 5174 C 475.42 0.583386 2.2041 0
M  V30 5175 C 476.404 -0.368776 1.56617 0
M  V30 5176 O 477.596 -0.189471 1.75983 0
M  V30 5177 C 474.725 -0.0626534 3.43243 0
M  V30 5178 C 473.811 0.91205 4.14177 0
M  V30 5179 N 474.202 2.07514 4.61272 0
M  V30 5180 C 472.5 0.735859 4.39888 0
M  V30 5181 C 473.201 2.69003 5.15764 0
M  V30 5182 N 472.177 1.96954 5.06666 0
M  V30 5183 H 475.979 1.46988 2.54503 0
M  V30 5184 H 473.493 0.897785 1.35328 0
M  V30 5185 H 475.49 -0.400653 4.1497 0
M  V30 5186 H 474.15 -0.944813 3.1065 0
M  V30 5187 H 475.161 2.45448 4.56043 0
M  V30 5188 H 471.838 -0.0970656 4.17387 0
M  V30 5189 H 473.228 3.67514 5.6248 0
M  V30 5190 N 475.948 -1.35272 0.808662 0
M  V30 5191 C 476.858 -2.33546 0.222079 0
M  V30 5192 C 477.874 -1.6196 -0.636011 0
M  V30 5193 O 479.05 -1.93822 -0.547274 0
M  V30 5194 C 476.115 -3.41148 -0.61795 0
M  V30 5195 C 475.176 -4.28507 0.260875 0
M  V30 5196 C 474.409 -5.3097 -0.539156 0
M  V30 5197 O 474.632 -5.42123 -1.77367 0
M  V30 5198 O 473.566 -6.01858 0.0710526 0
M  V30 5199 H 477.392 -2.85515 1.03512 0
M  V30 5200 H 474.977 -1.38079 0.570495 0
M  V30 5201 H 476.859 -4.06889 -1.09634 0
M  V30 5202 H 475.534 -2.91447 -1.40855 0
M  V30 5203 H 474.441 -3.6574 0.786451 0
M  V30 5204 H 475.774 -4.81611 1.01547 0
M  V30 5205 N 477.426 -0.562348 -1.47226 0
M  V30 5206 C 478.672 -0.0402761 -2.0276 0
M  V30 5207 C 479.005 1.30823 -1.43523 0
M  V30 5208 O 478.28 1.85249 -0.592705 0
M  V30 5209 C 478.563 0.047311 -3.60069 0
M  V30 5210 C 478.416 -1.32865 -4.29729 0
M  V30 5211 C 479.735 0.758182 -4.3352 0
M  V30 5212 H 476.854 -0.0161105 -0.736824 0
M  V30 5213 H 479.496 -0.725628 -1.75598 0
M  V30 5214 H 477.646 0.630986 -3.83342 0
M  V30 5215 H 479.318 -1.95593 -4.17781 0
M  V30 5216 H 477.561 -1.90195 -3.89882 0
M  V30 5217 H 478.232 -1.22004 -5.38349 0
M  V30 5218 H 480.708 0.262546 -4.15271 0
M  V30 5219 H 479.584 0.78844 -5.43208 0
M  V30 5220 H 479.845 1.81537 -4.03109 0
M  V30 5221 N 478.904 1.54736 -0.299062 0
M  V30 5222 C 480.152 1.99706 0.31017 0
M  V30 5223 C 480.473 1.18896 1.54559 0
M  V30 5224 O 479.743 0.284445 1.93824 0
M  V30 5225 H 478.323 0.737686 0.117596 0
M  V30 5226 H 480.985 1.9054 -0.409943 0
M  V30 5227 H 480.081 3.06596 0.58355 0
M  V30 5228 N 480.382 0.0267497 1.57577 0
M  V30 5229 C 481.312 -0.954308 2.13108 0
M  V30 5230 C 482.293 -1.34088 1.04663 0
M  V30 5231 O 483.478 -1.41992 1.32484 0
M  V30 5232 C 480.608 -2.23744 2.65624 0
M  V30 5233 C 479.562 -1.99168 3.78835 0
M  V30 5234 C 478.888 -3.33726 4.17769 0
M  V30 5235 C 480.188 -1.33277 5.0501 0
M  V30 5236 H 481.882 -0.491848 2.95332 0
M  V30 5237 H 479.428 -0.23514 1.42067 0
M  V30 5238 H 481.381 -2.92754 3.03106 0
M  V30 5239 H 480.105 -2.72151 1.80558 0
M  V30 5240 H 478.764 -1.32577 3.41788 0
M  V30 5241 H 478.412 -3.79888 3.29688 0
M  V30 5242 H 478.112 -3.18089 4.94058 0
M  V30 5243 H 479.636 -4.04008 4.57832 0
M  V30 5244 H 481.05 -1.92283 5.40093 0
M  V30 5245 H 479.447 -1.28045 5.8628 0
M  V30 5246 H 480.517 -0.305411 4.83937 0
M  V30 5247 N 481.861 -1.55662 -0.24637 0
M  V30 5248 C 482.791 -1.93377 -1.30873 0
M  V30 5249 C 483.772 -0.798773 -1.50179 0
M  V30 5250 O 484.957 -1.0591 -1.62778 0
M  V30 5251 C 482.087 -2.22893 -2.66338 0
M  V30 5252 C 481.041 -3.38649 -2.61727 0
M  V30 5253 C 480.367 -3.53708 -4.00992 0
M  V30 5254 C 481.667 -4.74323 -2.18666 0
M  V30 5255 H 483.361 -2.82363 -0.995552 0
M  V30 5256 H 480.907 -1.35854 -0.477464 0
M  V30 5257 H 482.86 -2.47866 -3.40794 0
M  V30 5258 H 481.584 -1.30733 -2.99293 0
M  V30 5259 H 480.243 -3.13685 -1.89729 0
M  V30 5260 H 479.891 -2.58967 -4.31214 0
M  V30 5261 H 479.591 -4.31551 -3.98795 0
M  V30 5262 H 481.115 -3.81003 -4.77147 0
M  V30 5263 H 482.529 -4.98665 -2.82854 0
M  V30 5264 H 480.926 -5.55273 -2.27579 0
M  V30 5265 H 481.996 -4.71349 -1.13834 0
M  V30 5266 N 483.339 0.512053 -1.4905 0
M  V30 5267 C 484.269 1.62365 -1.67809 0
M  V30 5268 C 485.25 1.61737 -0.526809 0
M  V30 5269 O 486.435 1.78651 -0.761404 0
M  V30 5270 C 483.565 3.00895 -1.73435 0
M  V30 5271 C 482.519 3.16387 -2.88242 0
M  V30 5272 C 481.845 4.56157 -2.78971 0
M  V30 5273 C 483.145 2.97457 -4.29321 0
M  V30 5274 H 484.839 1.46921 -2.60873 0
M  V30 5275 H 482.385 0.705379 -1.2554 0
M  V30 5276 H 484.338 3.78549 -1.85145 0
M  V30 5277 H 483.062 3.17403 -0.769619 0
M  V30 5278 H 481.721 2.41155 -2.76116 0
M  V30 5279 H 481.369 4.69525 -1.8043 0
M  V30 5280 H 481.069 4.67465 -3.5602 0
M  V30 5281 H 482.593 5.35886 -2.92675 0
M  V30 5282 H 484.007 3.64888 -4.42187 0
M  V30 5283 H 482.404 3.20245 -5.07507 0
M  V30 5284 H 483.474 1.93692 -4.44535 0
M  V30 5285 N 484.817 1.37938 0.762283 0
M  V30 5286 C 485.747 1.37176 1.88958 0
M  V30 5287 C 486.728 0.238945 1.68413 0
M  V30 5288 O 487.913 0.440726 1.89133 0
M  V30 5289 C 485.043 1.18742 3.2637 0
M  V30 5290 C 483.997 2.29136 3.61498 0
M  V30 5291 C 483.323 1.95816 4.97554 0
M  V30 5292 C 484.623 3.71363 3.6727 0
M  V30 5293 H 486.317 2.31509 1.89853 0
M  V30 5294 H 483.863 1.11438 0.912005 0
M  V30 5295 H 485.816 1.16837 4.04879 0
M  V30 5296 H 484.54 0.208683 3.25933 0
M  V30 5297 H 483.199 2.30213 2.85303 0
M  V30 5298 H 482.847 0.964475 4.93667 0
M  V30 5299 H 482.547 2.69745 5.22026 0
M  V30 5300 H 484.071 1.95513 5.78452 0
M  V30 5301 H 485.485 3.72364 4.35911 0
M  V30 5302 H 483.882 4.44425 4.03245 0
M  V30 5303 H 484.952 4.04305 2.67704 0
M  V30 5304 N 486.295 -0.989507 1.22664 0
M  V30 5305 C 487.542 -1.72953 1.05325 0
M  V30 5306 C 487.87 -1.90104 -0.411168 0
M  V30 5307 O 487.125 -1.44386 -1.32103 0
M  V30 5308 C 487.424 -3.13649 1.71345 0
M  V30 5309 C 487.09 -3.16403 3.21248 0
M  V30 5310 C 485.752 -3.16862 3.62149 0
M  V30 5311 C 488.104 -3.12428 4.17179 0
M  V30 5312 C 485.432 -3.11051 4.97458 0
M  V30 5313 C 487.784 -3.08159 5.52468 0
M  V30 5314 C 486.448 -3.06935 5.92746 0
M  V30 5315 H 485.718 -0.632881 0.385412 0
M  V30 5316 H 488.365 -1.15863 1.52473 0
M  V30 5317 H 486.67 -3.74069 1.16532 0
M  V30 5318 H 488.367 -3.69658 1.55416 0
M  V30 5319 H 484.957 -3.16798 2.88682 0
M  V30 5320 H 489.141 -3.11221 3.86595 0
M  V30 5321 H 484.397 -3.0845 5.27891 0
M  V30 5322 H 488.571 -3.04039 6.26525 0
M  V30 5323 H 486.198 -3.02186 6.97558 0
M  V30 5324 N 487.773 -1.03688 -1.18687 0
M  V30 5325 C 488.703 -0.645407 -2.24403 0
M  V30 5326 C 489.684 0.349511 -1.66471 0
M  V30 5327 O 490.869 0.230453 -1.92828 0
M  V30 5328 C 487.999 -0.00365337 -3.473 0
M  V30 5329 C 486.953 -0.921705 -4.17958 0
M  V30 5330 C 486.279 -0.144629 -5.34504 0
M  V30 5331 C 487.579 -2.23909 -4.71871 0
M  V30 5332 H 489.273 -1.52917 -2.57404 0
M  V30 5333 H 486.819 -0.736711 -1.23728 0
M  V30 5334 H 488.772 0.281908 -4.20456 0
M  V30 5335 H 487.496 0.914963 -3.13522 0
M  V30 5336 H 486.155 -1.19159 -3.46694 0
M  V30 5337 H 485.803 0.776274 -4.96974 0
M  V30 5338 H 485.503 -0.756206 -5.82714 0
M  V30 5339 H 487.027 0.134004 -6.10453 0
M  V30 5340 H 488.441 -2.0145 -5.36741 0
M  V30 5341 H 486.838 -2.8033 -5.30599 0
M  V30 5342 H 487.908 -2.88822 -3.895 0
M  V30 5343 N 489.251 1.34841 -0.815825 0
M  V30 5344 C 490.476 2.03261 -0.41226 0
M  V30 5345 C 490.901 1.61055 0.971751 0
M  V30 5346 O 490.259 0.7917 1.63101 0
M  V30 5347 C 490.307 3.56914 -0.514289 0
M  V30 5348 O 489.411 4.09728 0.468675 0
M  V30 5349 H 488.752 0.641664 -0.170771 0
M  V30 5350 H 491.282 1.72241 -1.10427 0
M  V30 5351 H 491.292 4.06156 -0.387457 0
M  V30 5352 H 489.967 3.86982 -1.52375 0
M  V30 5353 H 488.544 3.71681 0.301316 0
M  V30 5354 N 490.729 0.570148 1.46925 0
M  V30 5355 C 491.975 0.0510284 2.02736 0
M  V30 5356 C 492.308 -1.3006 1.44215 0
M  V30 5357 O 491.583 -1.84932 0.602521 0
M  V30 5358 C 491.866 -0.028215 3.60089 0
M  V30 5359 C 491.719 1.35142 4.29018 0
M  V30 5360 C 493.038 -0.735181 4.33916 0
M  V30 5361 H 490.157 0.0200178 0.736728 0
M  V30 5362 H 492.799 0.73493 1.75211 0
M  V30 5363 H 490.949 -0.610648 3.83671 0
M  V30 5364 H 492.621 1.97806 4.16738 0
M  V30 5365 H 490.864 1.9226 3.88868 0
M  V30 5366 H 491.535 1.24857 5.37694 0
M  V30 5367 H 494.011 -0.240519 4.15404 0
M  V30 5368 H 492.887 -0.759622 5.43618 0
M  V30 5369 H 493.148 -1.79397 4.04066 0
M  V30 5370 N 492.207 -1.54576 0.307264 0
M  V30 5371 C 493.455 -1.99867 -0.299574 0
M  V30 5372 C 493.776 -1.19714 -1.53927 0
M  V30 5373 O 493.046 -0.29472 -1.9367 0
M  V30 5374 H 491.626 -0.738299 -0.113683 0
M  V30 5375 H 494.288 -1.9032 0.420042 0
M  V30 5376 H 493.384 -3.06901 -0.567283 0
M  V30 5377 N 493.685 -0.035106 -1.57561 0
M  V30 5378 C 494.934 0.641604 -1.91223 0
M  V30 5379 C 495.247 1.72944 -0.913761 0
M  V30 5380 O 496.453 2.46321 -1.14185 0
M  V30 5381 C 494.909 1.19249 -3.3957 0
M  V30 5382 C 494.517 0.137616 -4.47789 0
M  V30 5383 C 496.261 1.84537 -3.82291 0
M  V30 5384 C 494.168 0.700478 -5.87237 0
M  V30 5385 H 493.098 0.243417 -0.713627 0
M  V30 5386 H 495.749 -0.101382 -1.8322 0
M  V30 5387 H 494.131 1.98728 -3.42525 0
M  V30 5388 H 495.305 -0.635153 -4.56402 0
M  V30 5389 H 493.62 -0.416855 -4.14308 0
M  V30 5390 H 496.217 2.27616 -4.83834 0
M  V30 5391 H 496.56 2.69054 -3.17672 0
M  V30 5392 H 497.093 1.11739 -3.81784 0
M  V30 5393 H 493.832 -0.106693 -6.55413 0
M  V30 5394 H 493.352 1.4416 -5.82218 0
M  V30 5395 H 495.031 1.18837 -6.35993 0
M  V30 5396 N 495.163 1.55791 0.238111 0
M  V30 5397 C 496.388 1.8244 0.986432 0
M  V30 5398 C 496.813 0.613314 1.7782 0
M  V30 5399 O 496.171 -0.437767 1.75935 0
M  V30 5400 C 496.219 3.06917 1.893 0
M  V30 5401 O 495.323 2.84449 2.98601 0
M  V30 5402 H 494.664 0.601975 0.280218 0
M  V30 5403 H 497.194 2.02987 0.256437 0
M  V30 5404 H 497.204 3.36583 2.30598 0
M  V30 5405 H 495.879 3.947 1.31091 0
M  V30 5406 H 494.456 2.65972 2.61368 0
M  V30 5407 N 496.642 -0.504142 1.49319 0
M  V30 5408 C 497.891 -1.25507 1.57895 0
M  V30 5409 C 498.204 -1.93735 0.269433 0
M  V30 5410 O 499.41 -2.70492 0.233706 0
M  V30 5411 C 497.866 -2.27869 2.78574 0
M  V30 5412 C 497.474 -1.65594 4.16272 0
M  V30 5413 C 499.218 -3.0381 2.96479 0
M  V30 5414 C 497.125 -2.66048 5.28178 0
M  V30 5415 H 496.055 -0.47212 0.587894 0
M  V30 5416 H 498.706 -0.52931 1.757 0
M  V30 5417 H 497.088 -3.03594 2.54257 0
M  V30 5418 H 498.262 -0.958826 4.50714 0
M  V30 5419 H 496.577 -1.02055 4.037 0
M  V30 5420 H 499.174 -3.78925 3.77253 0
M  V30 5421 H 499.517 -3.61235 2.06918 0
M  V30 5422 H 500.05 -2.352 3.20821 0
M  V30 5423 H 496.789 -2.13408 6.19788 0
M  V30 5424 H 496.309 -3.34009 4.98195 0
M  V30 5425 H 497.988 -3.28536 5.57381 0
M  V30 5426 N 498.12 -1.38341 -0.754957 0
M  V30 5427 C 499.367 -1.34473 -1.51404 0
M  V30 5428 C 499.695 0.0656458 -1.94389 0
M  V30 5429 O 498.95 1.04244 -1.65625 0
M  V30 5430 C 499.249 -2.2452 -2.78075 0
M  V30 5431 C 498.915 -3.72512 -2.54059 0
M  V30 5432 C 497.577 -4.1284 -2.47218 0
M  V30 5433 C 499.929 -4.66197 -2.33044 0
M  V30 5434 C 497.257 -5.44945 -2.17376 0
M  V30 5435 C 499.609 -5.98558 -2.04723 0
M  V30 5436 C 498.273 -6.37972 -1.96337 0
M  V30 5437 H 497.543 -0.492072 -0.554027 0
M  V30 5438 H 500.19 -1.70687 -0.868223 0
M  V30 5439 H 498.495 -1.81357 -3.473 0
M  V30 5440 H 500.192 -2.18832 -3.36026 0
M  V30 5441 H 496.782 -3.40538 -2.60253 0
M  V30 5442 H 500.966 -4.35888 -2.37309 0
M  V30 5443 H 496.222 -5.74426 -2.09391 0
M  V30 5444 H 500.396 -6.70693 -1.87465 0
M  V30 5445 H 498.023 -7.40258 -1.72978 0
M  V30 5446 N 499.598 0.982988 -1.23187 0
M  V30 5447 C 500.823 1.76455 -1.08988 0
M  V30 5448 C 501.248 1.84726 0.354691 0
M  V30 5449 O 500.606 1.30699 1.25649 0
M  V30 5450 C 500.654 3.17094 -1.71708 0
M  V30 5451 O 499.758 4.00648 -0.977477 0
M  V30 5452 H 499.099 0.542988 -0.382177 0
M  V30 5453 H 501.629 1.23413 -1.63188 0
M  V30 5454 H 501.639 3.67684 -1.76841 0
M  V30 5455 H 500.314 3.10389 -2.76823 0
M  V30 5456 H 498.891 3.59161 -1.0029 0
M  V30 5457 N 501.076 1.04316 1.18135 0
M  V30 5458 C 502.322 0.749128 1.88457 0
M  V30 5459 C 502.655 -0.72149 1.803 0
M  V30 5460 O 501.93 -1.52676 1.205 0
M  V30 5461 C 502.213 1.21905 3.38838 0
M  V30 5462 C 502.066 2.75195 3.55792 0
M  V30 5463 C 503.385 0.811085 4.32561 0
M  V30 5464 H 500.504 0.273611 0.684329 0
M  V30 5465 H 503.146 1.29561 1.38975 0
M  V30 5466 H 501.296 0.754137 3.8111 0
M  V30 5467 H 502.968 3.29743 3.22595 0
M  V30 5468 H 501.211 3.14899 2.98364 0
M  V30 5469 H 501.882 3.03135 4.61317 0
M  V30 5470 H 504.358 1.21118 3.98082 0
M  V30 5471 H 503.234 1.16761 5.36338 0
M  V30 5472 H 503.495 -0.285596 4.41177 0
M  V30 5473 N 502.554 -1.34406 0.822964 0
M  V30 5474 C 503.484 -2.32052 0.259608 0
M  V30 5475 C 504.465 -1.58243 -0.623961 0
M  V30 5476 O 505.65 -1.86224 -0.55083 0
M  V30 5477 C 502.78 -3.42434 -0.579314 0
M  V30 5478 C 501.734 -4.27499 0.20712 0
M  V30 5479 C 501.06 -5.29349 -0.754547 0
M  V30 5480 C 502.36 -5.02758 1.41533 0
M  V30 5481 H 504.054 -2.79418 1.07545 0
M  V30 5482 H 501.6 -1.34338 0.518593 0
M  V30 5483 H 503.553 -4.0976 -0.983612 0
M  V30 5484 H 502.277 -2.93717 -1.4282 0
M  V30 5485 H 500.936 -3.61776 0.592787 0
M  V30 5486 H 500.584 -4.76895 -1.59939 0
M  V30 5487 H 500.284 -5.8714 -0.232561 0
M  V30 5488 H 501.808 -5.99544 -1.1567 0
M  V30 5489 H 503.222 -5.62938 1.08504 0
M  V30 5490 H 501.619 -5.70123 1.87296 0
M  V30 5491 H 502.689 -4.32451 2.1935 0
M  V30 5492 N 504.032 -0.577932 -1.46621 0
M  V30 5493 C 505.281 -0.0594281 -2.01612 0
M  V30 5494 C 505.594 1.30663 -1.45556 0
M  V30 5495 O 506.8 1.91621 -1.92337 0
M  V30 5496 C 505.256 -0.0556666 -3.59857 0
M  V30 5497 C 504.864 -1.41975 -4.24908 0
M  V30 5498 C 506.608 0.409143 -4.22524 0
M  V30 5499 C 504.515 -1.37397 -5.75218 0
M  V30 5500 H 503.445 -0.0184469 -0.753774 0
M  V30 5501 H 506.096 -0.728869 -1.68404 0
M  V30 5502 H 504.478 0.679843 -3.90121 0
M  V30 5503 H 505.652 -2.17461 -4.0626 0
M  V30 5504 H 503.967 -1.82419 -3.74316 0
M  V30 5505 H 506.564 0.46211 -5.32699 0
M  V30 5506 H 506.907 1.42565 -3.91128 0
M  V30 5507 H 507.44 -0.272152 -3.96868 0
M  V30 5508 H 504.179 -2.36714 -6.11267 0
M  V30 5509 H 503.699 -0.661239 -5.96144 0
M  V30 5510 H 505.378 -1.08484 -6.3784 0
M  V30 5511 N 505.51 1.54411 -0.315457 0
M  V30 5512 C 506.74 2.04536 0.291315 0
M  V30 5513 C 507.148 1.19162 1.4696 0
M  V30 5514 O 506.491 0.213199 1.82459 0
M  V30 5515 C 506.553 3.5056 0.796725 0
M  V30 5516 C 506.217 4.5627 -0.258178 0
M  V30 5517 C 507.214 5.08312 -1.09153 0
M  V30 5518 C 504.899 5.00672 -0.404036 0
M  V30 5519 C 506.893 6.03312 -2.05655 0
M  V30 5520 C 504.58 5.95488 -1.37248 0
M  V30 5521 C 505.578 6.46693 -2.19721 0
M  V30 5522 O 505.266 7.39648 -3.14921 0
M  V30 5523 H 504.998 0.672856 0.0651165 0
M  V30 5524 H 507.552 2.00244 -0.457308 0
M  V30 5525 H 505.782 3.52223 1.59612 0
M  V30 5526 H 507.471 3.83804 1.32096 0
M  V30 5527 H 508.237 4.74793 -0.98979 0
M  V30 5528 H 504.116 4.60436 0.22799 0
M  V30 5529 H 507.66 6.43203 -2.70067 0
M  V30 5530 H 503.557 6.28424 -1.47489 0
M  V30 5531 H 504.325 7.57496 -3.10067 0
M  V30 5532 N 506.988 0.0434614 1.5754 0
M  V30 5533 C 508.213 -0.645358 1.97104 0
M  V30 5534 C 508.638 -1.64037 0.920521 0
M  V30 5535 O 507.996 -1.80922 -0.11708 0
M  V30 5536 C 508.044 -1.31547 3.35749 0
M  V30 5537 O 507.148 -2.43103 3.33129 0
M  V30 5538 H 506.489 -0.168403 0.64229 0
M  V30 5539 H 509.019 0.109573 2.04306 0
M  V30 5540 H 509.029 -1.66895 3.72304 0
M  V30 5541 H 507.704 -0.586205 4.11748 0
M  V30 5542 H 506.281 -2.0976 3.0831 0
M  V30 5543 N 508.466 -1.55915 -0.229846 0
M  V30 5544 C 509.712 -1.78807 -0.956868 0
M  V30 5545 C 510.045 -0.611687 -1.84315 0
M  V30 5546 O 509.32 0.389398 -1.90562 0
M  V30 5547 C 509.603 -3.11718 -1.80288 0
M  V30 5548 C 509.456 -4.3979 -0.943649 0
M  V30 5549 C 510.775 -3.40999 -2.78222 0
M  V30 5550 H 507.894 -0.6505 -0.346437 0
M  V30 5551 H 510.536 -1.88648 -0.226252 0
M  V30 5552 H 508.686 -3.03459 -2.42579 0
M  V30 5553 H 510.358 -4.60059 -0.338121 0
M  V30 5554 H 508.601 -4.33086 -0.248705 0
M  V30 5555 H 509.272 -5.29208 -1.5698 0
M  V30 5556 H 511.748 -3.49332 -2.26067 0
M  V30 5557 H 510.624 -4.35183 -3.34526 0
M  V30 5558 H 510.885 -2.62754 -3.55546 0
M  V30 5559 N 509.944 0.496216 -1.49584 0
M  V30 5560 C 510.854 1.62352 -1.69349 0
M  V30 5561 C 511.87 1.64184 -0.576147 0
M  V30 5562 O 513.046 1.82517 -0.85144 0
M  V30 5563 C 510.111 2.98698 -1.76013 0
M  V30 5564 C 509.172 3.07454 -2.99617 0
M  V30 5565 C 508.405 4.37296 -3.05953 0
M  V30 5566 O 508.628 5.2637 -2.19752 0
M  V30 5567 O 507.562 4.51124 -3.9846 0
M  V30 5568 H 511.388 1.48606 -2.64859 0
M  V30 5569 H 508.973 0.673022 -1.33382 0
M  V30 5570 H 510.855 3.79725 -1.82721 0
M  V30 5571 H 509.53 3.12696 -0.836828 0
M  V30 5572 H 508.437 2.25597 -2.98424 0
M  V30 5573 H 509.77 2.98385 -3.91443 0
M  V30 5574 N 511.423 1.38739 0.74761 0
M  V30 5575 C 512.37 1.36449 1.86146 0
M  V30 5576 C 513.34 0.226098 1.64554 0
M  V30 5577 O 514.525 0.41926 1.86137 0
M  V30 5578 C 511.665 1.2013 3.23516 0
M  V30 5579 C 510.778 2.43407 3.56899 0
M  V30 5580 C 509.913 2.19773 4.83605 0
M  V30 5581 C 508.952 3.3879 5.09792 0
M  V30 5582 N 508.089 3.14553 6.27695 0
M  V30 5583 H 512.929 2.3167 1.87438 0
M  V30 5584 H 510.466 1.15094 0.916063 0
M  V30 5585 H 512.424 1.08683 4.02795 0
M  V30 5586 H 511.054 0.285453 3.21535 0
M  V30 5587 H 510.106 2.65504 2.72418 0
M  V30 5588 H 511.418 3.32094 3.72176 0
M  V30 5589 H 510.572 2.05496 5.70838 0
M  V30 5590 H 509.311 1.28461 4.70478 0
M  V30 5591 H 508.316 3.53579 4.21025 0
M  V30 5592 H 509.541 4.30986 5.24812 0
M  V30 5593 H 507.487 2.25893 6.1588 0
M  V30 5594 H 507.404 3.96791 6.435 0
M  V30 5595 H 508.672 3.03943 7.17801 0
M  V30 5596 N 512.901 -0.976442 1.23707 0
M  V30 5597 C 514.178 -1.69296 0.979699 0
M  V30 5598 C 514.558 -2.0508 -0.500555 0
M  V30 5599 O 513.906 -1.74708 -1.47273 0
M  V30 5600 C 514.116 -2.93143 1.89389 0
M  V30 5601 C 515.464 -3.65572 2.15968 0
M  V30 5602 O 516.488 -3.03184 1.86971 0
M  V30 5603 O 515.347 -4.77859 2.65167 0
M  V30 5604 H 512.441 -0.739708 0.369812 0
M  V30 5605 H 514.987 -1.03131 1.34767 0
M  V30 5606 H 513.759 -2.63327 2.89439 0
M  V30 5607 H 513.382 -3.67044 1.52854 0
M  V30 5608 N 514.379 -1.04941 -1.1758 0
M  V30 5609 C 515.656 -0.671918 -1.83697 0
M  V30 5610 C 516.036 0.847929 -1.93322 0
M  V30 5611 O 515.384 1.75287 -1.46583 0
M  V30 5612 C 515.594 -1.35797 -3.21497 0
M  V30 5613 C 516.942 -1.4944 -3.97433 0
M  V30 5614 O 517.966 -1.31678 -3.30967 0
M  V30 5615 O 516.825 -1.78463 -5.1654 0
M  V30 5616 H 513.919 -0.236212 -0.792548 0
M  V30 5617 H 516.465 -1.14884 -1.24899 0
M  V30 5618 H 515.237 -2.39498 -3.09446 0
M  V30 5619 H 514.86 -0.870236 -3.8796 0
M  V30 5620 N 515.857 1.33968 -0.830081 0
M  V30 5621 C 516.807 2.26845 -0.229242 0
M  V30 5622 C 517.791 1.48862 0.610659 0
M  V30 5623 O 518.983 1.70808 0.464067 0
M  V30 5624 C 516.112 3.3798 0.602057 0
M  V30 5625 C 515.198 4.23369 -0.248866 0
M  V30 5626 N 515.589 4.88182 -1.32334 0
M  V30 5627 C 513.887 4.45987 -0.0344077 0
M  V30 5628 C 514.588 5.51671 -1.84482 0
M  V30 5629 N 513.564 5.31348 -1.14762 0
M  V30 5630 H 517.366 2.74464 -1.05104 0
M  V30 5631 H 514.88 1.4777 -0.673623 0
M  V30 5632 H 516.877 4.03494 1.04873 0
M  V30 5633 H 515.537 2.9191 1.42193 0
M  V30 5634 H 516.548 4.88988 -1.70619 0
M  V30 5635 H 513.225 4.10658 0.752727 0
M  V30 5636 H 514.615 6.13308 -2.74413 0
M  V30 5637 N 517.335 0.585699 1.46312 0
M  V30 5638 C 518.563 0.0781299 2.06752 0
M  V30 5639 C 518.978 -1.22812 1.43396 0
M  V30 5640 O 518.335 -1.74318 0.540314 0
M  V30 5641 C 518.386 -0.0911927 3.61385 0
M  V30 5642 O 518.107 1.16336 4.22371 0
M  V30 5643 C 519.608 -0.632765 4.38761 0
M  V30 5644 H 516.828 0.0588188 0.668417 0
M  V30 5645 H 519.372 0.807218 1.87894 0
M  V30 5646 H 517.527 -0.770514 3.7966 0
M  V30 5647 H 517.941 0.979082 5.15281 0
M  V30 5648 H 519.415 -0.70041 5.47538 0
M  V30 5649 H 519.892 -1.65039 4.07012 0
M  V30 5650 H 520.498 0.0117856 4.25298 0
M  V30 5651 N 518.813 -1.54241 0.323641 0
M  V30 5652 C 520.038 -2.05452 -0.283605 0
M  V30 5653 C 520.463 -1.19823 -1.44997 0
M  V30 5654 O 519.821 -0.207358 -1.8011 0
M  V30 5655 C 519.869 -3.53823 -0.695795 0
M  V30 5656 O 518.973 -3.71134 -1.79815 0
M  V30 5657 H 518.314 -0.662024 -0.0511917 0
M  V30 5658 H 520.844 -1.99079 0.472073 0
M  V30 5659 H 520.854 -3.96094 -0.978434 0
M  V30 5660 H 519.529 -4.15602 0.157287 0
M  V30 5661 H 518.106 -3.40768 -1.51431 0
M  V30 5662 N 520.291 -0.0518155 -1.57515 0
M  V30 5663 C 521.516 0.634896 -1.97443 0
M  V30 5664 C 521.941 1.63546 -0.929207 0
M  V30 5665 O 521.299 1.80981 0.107484 0
M  V30 5666 C 521.347 1.29765 -3.36442 0
M  V30 5667 O 520.451 2.41333 -3.34413 0
M  V30 5668 H 519.792 0.164994 -0.643174 0
M  V30 5669 H 522.322 -0.120407 -2.04245 0
M  V30 5670 H 522.332 1.64918 -3.73184 0
M  V30 5671 H 521.007 0.564361 -4.12053 0
M  V30 5672 H 519.584 2.08122 -3.09418 0
M  V30 5673 N 521.769 1.56035 0.221574 0
M  V30 5674 C 522.699 1.95434 1.2778 0
M  V30 5675 C 523.68 0.822564 1.48889 0
M  V30 5676 O 524.865 1.08486 1.61072 0
M  V30 5677 C 521.995 2.27102 2.62759 0
M  V30 5678 C 520.949 3.4277 2.56306 0
M  V30 5679 C 520.275 3.60043 3.95314 0
M  V30 5680 C 521.575 4.77742 2.11093 0
M  V30 5681 H 523.269 2.83912 0.950504 0
M  V30 5682 H 520.815 1.36596 0.455791 0
M  V30 5683 H 522.768 2.53256 3.36807 0
M  V30 5684 H 521.492 1.35478 2.97176 0
M  V30 5685 H 520.151 3.16664 1.84715 0
M  V30 5686 H 519.799 2.65794 4.27039 0
M  V30 5687 H 519.499 4.37841 3.91879 0
M  V30 5688 H 521.023 3.88545 4.71025 0
M  V30 5689 H 522.437 5.03102 2.74885 0
M  V30 5690 H 520.834 5.58823 2.18716 0
M  V30 5691 H 521.904 4.731 1.06321 0
M  V30 5692 N 523.247 -0.488276 1.49845 0
M  V30 5693 C 524.475 -1.26527 1.63702 0
M  V30 5694 C 524.89 -1.8618 0.313447 0
M  V30 5695 O 524.247 -1.68432 -0.702624 0
M  V30 5696 C 524.298 -2.3864 2.71538 0
M  V30 5697 O 524.019 -1.81437 3.98763 0
M  V30 5698 C 525.52 -3.29805 2.96215 0
M  V30 5699 H 522.74 -0.383295 0.55075 0
M  V30 5700 H 525.284 -0.584779 1.95961 0
M  V30 5701 H 523.439 -3.02496 2.42023 0
M  V30 5702 H 523.853 -2.55135 4.58265 0
M  V30 5703 H 525.327 -4.04722 3.75372 0
M  V30 5704 H 525.804 -3.87563 2.06619 0
M  V30 5705 H 526.41 -2.71703 3.27196 0
M  V30 5706 N 524.725 -1.39134 -0.740242 0
M  V30 5707 C 525.95 -1.39518 -1.53459 0
M  V30 5708 C 526.375 0.00968883 -1.88098 0
M  V30 5709 O 525.733 0.995312 -1.51536 0
M  V30 5710 C 525.781 -2.26981 -2.802 0
M  V30 5711 O 524.885 -1.69609 -3.75908 0
M  V30 5712 H 524.226 -0.475328 -0.463637 0
M  V30 5713 H 526.756 -1.83064 -0.913717 0
M  V30 5714 H 526.766 -2.41309 -3.28989 0
M  V30 5715 H 525.441 -3.29081 -2.5432 0
M  V30 5716 H 524.018 -1.64495 -3.34658 0
M  V30 5717 N 526.204 0.969867 -1.24223 0
M  V30 5718 C 527.453 1.70687 -1.07466 0
M  V30 5719 C 527.766 1.91736 0.386861 0
M  V30 5720 O 528.972 2.62986 0.674581 0
M  V30 5721 C 527.428 3.07217 -1.87472 0
M  V30 5722 C 527.036 2.94018 -3.3802 0
M  V30 5723 C 528.78 3.84804 -1.79237 0
M  V30 5724 C 526.687 4.25844 -4.10379 0
M  V30 5725 H 525.617 0.640067 -0.398536 0
M  V30 5726 H 528.268 1.08092 -1.48285 0
M  V30 5727 H 526.65 3.70628 -1.39466 0
M  V30 5728 H 527.824 2.39632 -3.9359 0
M  V30 5729 H 526.139 2.29898 -3.47183 0
M  V30 5730 H 528.736 4.82417 -2.30603 0
M  V30 5731 H 529.079 4.09356 -0.757197 0
M  V30 5732 H 529.612 3.28115 -2.24912 0
M  V30 5733 H 526.351 4.06486 -5.14246 0
M  V30 5734 H 525.871 4.80054 -3.59594 0
M  V30 5735 H 527.55 4.94475 -4.17257 0
M  V30 5736 N 527.682 1.05563 1.17022 0
M  V30 5737 C 529.093 0.793475 1.69 0
M  V30 5738 C 529.444 -0.683882 1.83895 0
M  V30 5739 O 528.569 -1.53116 1.5292 0
M  V30 5740 C 529.164 1.43376 3.06967 0
M  V30 5741 C 527.723 1.21956 3.56095 0
M  V30 5742 C 526.87 1.51494 2.3226 0
M  V30 5743 H 529.821 1.22008 1.01487 0
M  V30 5744 H 529.842 0.845068 3.70997 0
M  V30 5745 H 529.354 2.50899 2.96093 0
M  V30 5746 H 527.455 0.163749 3.7224 0
M  V30 5747 H 527.568 1.92713 4.38633 0
M  V30 5748 H 525.932 0.935175 2.3691 0
M  V30 5749 H 526.715 2.60159 2.23992 0
M  V30 5750 N 529.16 -1.33526 0.837174 0
M  V30 5751 C 530.409 -1.97098 0.428387 0
M  V30 5752 C 530.722 -1.67062 -1.01734 0
M  V30 5753 O 531.928 -2.24235 -1.53072 0
M  V30 5754 C 530.384 -3.52725 0.715075 0
M  V30 5755 C 529.992 -3.9164 2.17537 0
M  V30 5756 C 531.736 -4.22857 0.373154 0
M  V30 5757 C 529.643 -5.40237 2.40619 0
M  V30 5758 H 528.573 -0.737589 0.156455 0
M  V30 5759 H 531.224 -1.52169 1.02552 0
M  V30 5760 H 529.606 -3.95971 0.0475904 0
M  V30 5761 H 530.78 -3.59456 2.88319 0
M  V30 5762 H 529.095 -3.34485 2.4801 0
M  V30 5763 H 531.692 -5.32133 0.523264 0
M  V30 5764 H 532.035 -4.10647 -0.683708 0
M  V30 5765 H 532.568 -3.85135 0.995801 0
M  V30 5766 H 529.307 -5.57449 3.44864 0
M  V30 5767 H 528.827 -5.73887 1.74396 0
M  V30 5768 H 530.506 -6.07102 2.23688 0
M  V30 5769 N 530.638 -0.59345 -1.46 0
M  V30 5770 C 531.878 -0.0859747 -2.04219 0
M  V30 5771 C 532.242 1.25432 -1.45364 0
M  V30 5772 O 533.443 1.85168 -1.9485 0
M  V30 5773 C 531.714 -0.0324314 -3.57385 0
M  V30 5774 S 533.273 0.415908 -4.36824 0
M  V30 5775 H 530.091 -0.0426872 -0.709717 0
M  V30 5776 H 532.693 -0.788369 -1.78899 0
M  V30 5777 H 531.397 -1.01166 -3.97735 0
M  V30 5778 H 530.928 0.6924 -3.87259 0
M  V30 5779 H 532.943 1.66844 -4.67309 0
M  V30 5780 N 532.116 1.54067 -0.331816 0
M  V30 5781 C 533.362 2.01713 0.261395 0
M  V30 5782 C 533.717 1.21566 1.49129 0
M  V30 5783 O 533.01 0.291867 1.89364 0
M  V30 5784 C 533.204 3.51634 0.639392 0
M  V30 5785 C 533.033 4.46295 -0.552321 0
M  V30 5786 C 531.803 4.94185 -1.05399 0
M  V30 5787 C 534.001 4.94677 -1.40711 0
M  V30 5788 N 531.983 5.7277 -2.20925 0
M  V30 5789 C 533.354 5.71267 -2.40943 0
M  V30 5790 C 535.409 4.76805 -1.43392 0
M  V30 5791 C 534.112 6.31889 -3.4367 0
M  V30 5792 C 536.138 5.38268 -2.44994 0
M  V30 5793 C 535.5 6.14716 -3.43952 0
M  V30 5794 H 531.599 0.77975 0.0592729 0
M  V30 5795 H 534.183 1.88974 -0.468726 0
M  V30 5796 H 532.354 3.64603 1.33863 0
M  V30 5797 H 534.086 3.86038 1.21478 0
M  V30 5798 H 530.841 4.69472 -0.623952 0
M  V30 5799 H 531.265 6.16737 -2.79222 0
M  V30 5800 H 535.907 4.17255 -0.682489 0
M  V30 5801 H 533.625 6.90554 -4.19715 0
M  V30 5802 H 537.211 5.26352 -2.4788 0
M  V30 5803 H 536.091 6.6143 -4.21283 0
M  V30 5804 N 533.594 0.0601682 1.57485 0
M  V30 5805 C 534.84 -0.606552 1.94146 0
M  V30 5806 C 535.195 -1.67918 0.939225 0
M  V30 5807 O 534.488 -1.91558 -0.0402649 0
M  V30 5808 C 534.682 -1.23831 3.35262 0
M  V30 5809 C 534.511 -0.228408 4.4912 0
M  V30 5810 C 533.281 0.182813 5.04969 0
M  V30 5811 C 535.479 0.52975 5.11564 0
M  V30 5812 N 533.461 1.18464 6.02362 0
M  V30 5813 C 534.832 1.38439 6.04346 0
M  V30 5814 C 536.887 0.587084 4.94427 0
M  V30 5815 C 535.59 2.29125 6.81832 0
M  V30 5816 C 537.616 1.4814 5.72546 0
M  V30 5817 C 536.978 2.32375 6.64967 0
M  V30 5818 H 533.077 -0.193328 0.757726 0
M  V30 5819 H 535.661 0.1346 1.94234 0
M  V30 5820 H 533.832 -1.94944 3.35933 0
M  V30 5821 H 535.564 -1.86456 3.59188 0
M  V30 5822 H 532.319 -0.197968 4.73186 0
M  V30 5823 H 532.743 1.68271 6.55754 0
M  V30 5824 H 537.385 -0.049944 4.22771 0
M  V30 5825 H 535.103 2.93868 7.52773 0
M  V30 5826 H 538.689 1.53045 5.6131 0
M  V30 5827 H 537.569 3.00454 7.2436 0
M  V30 5828 N 535.072 -1.5615 -0.213296 0
M  V30 5829 C 536.318 -1.80718 -0.933402 0
M  V30 5830 C 536.673 -0.634441 -1.81639 0
M  V30 5831 O 535.966 0.371182 -1.8797 0
M  V30 5832 C 536.16 -3.08772 -1.79985 0
M  V30 5833 C 535.989 -4.38389 -1.00224 0
M  V30 5834 C 534.759 -5.00513 -0.693885 0
M  V30 5835 C 536.957 -5.13013 -0.363598 0
M  V30 5836 N 534.939 -6.13774 0.124266 0
M  V30 5837 C 536.31 -6.19186 0.31757 0
M  V30 5838 C 538.365 -4.97126 -0.277468 0
M  V30 5839 C 537.068 -7.11197 1.07664 0
M  V30 5840 C 539.094 -5.89544 0.468155 0
M  V30 5841 C 538.456 -6.95149 1.13784 0
M  V30 5842 H 534.555 -0.712833 -0.321549 0
M  V30 5843 H 537.139 -1.93633 -0.203588 0
M  V30 5844 H 535.31 -2.97126 -2.50142 0
M  V30 5845 H 537.042 -3.21499 -2.45806 0
M  V30 5846 H 533.797 -4.62619 -1.01391 0
M  V30 5847 H 534.221 -6.74981 0.522418 0
M  V30 5848 H 538.863 -4.15526 -0.78087 0
M  V30 5849 H 536.581 -7.92273 1.59153 0
M  V30 5850 H 540.167 -5.79327 0.535911 0
M  V30 5851 H 539.047 -7.65428 1.70557 0
M  V30 5852 N 536.55 0.480323 -1.50102 0
M  V30 5853 C 537.513 1.56181 -1.6775 0
M  V30 5854 C 538.513 1.51156 -0.548503 0
M  V30 5855 O 539.703 1.5394 -0.815363 0
M  V30 5856 C 536.835 2.95823 -1.69415 0
M  V30 5857 H 538.028 1.41855 -2.6423 0
M  V30 5858 H 535.581 0.70605 -1.39444 0
M  V30 5859 H 536.316 3.15604 -0.745948 0
M  V30 5860 H 536.101 3.00878 -2.51425 0
M  V30 5861 H 537.591 3.74359 -1.85054 0
M  V30 5862 N 538.028 1.39524 0.732853 0
M  V30 5863 C 539.256 1.40143 1.52209 0
M  V30 5864 C 539.671 -0.00348836 1.888 0
M  V30 5865 O 539.028 -0.975357 1.5425 0
M  V30 5866 C 539.079 2.27632 2.8083 0
M  V30 5867 O 538.8 3.62654 2.45792 0
M  V30 5868 C 540.301 2.36658 3.74844 0
M  V30 5869 H 537.521 0.478604 0.470297 0
M  V30 5870 H 540.065 1.83366 0.905388 0
M  V30 5871 H 538.22 1.87818 3.38826 0
M  V30 5872 H 538.634 4.08941 3.28431 0
M  V30 5873 H 540.108 3.02118 4.61984 0
M  V30 5874 H 540.585 1.38638 4.16745 0
M  V30 5875 H 541.191 2.76951 3.22766 0
M  V30 5876 N 539.506 -0.963266 1.24736 0
M  V30 5877 C 540.755 -1.70115 1.08369 0
M  V30 5878 C 541.068 -1.91939 -0.376688 0
M  V30 5879 O 542.274 -2.6334 -0.660624 0
M  V30 5880 C 540.73 -3.06218 1.89099 0
M  V30 5881 C 540.338 -2.92221 3.39574 0
M  V30 5882 C 542.082 -3.83848 1.81275 0
M  V30 5883 C 539.989 -4.23662 4.12631 0
M  V30 5884 H 538.919 -0.637944 0.401924 0
M  V30 5885 H 541.57 -1.07304 1.48856 0
M  V30 5886 H 539.952 -3.69884 1.41429 0
M  V30 5887 H 541.126 -2.37541 3.94856 0
M  V30 5888 H 539.441 -2.28054 3.48397 0
M  V30 5889 H 542.038 -4.81188 2.33158 0
M  V30 5890 H 542.381 -4.08949 0.778895 0
M  V30 5891 H 542.914 -3.26918 2.26649 0
M  V30 5892 H 539.653 -4.03753 5.16395 0
M  V30 5893 H 539.173 -4.78141 3.62135 0
M  V30 5894 H 540.852 -4.92256 4.19873 0
M  V30 5895 N 540.985 -1.06182 -1.16461 0
M  V30 5896 C 542.21 -0.798599 -1.91408 0
M  V30 5897 C 542.635 0.640987 -1.76842 0
M  V30 5898 O 541.993 1.44652 -1.09296 0
M  V30 5899 C 542.041 -1.19665 -3.40165 0
M  V30 5900 O 541.145 -0.334768 -4.11039 0
M  V30 5901 H 540.486 -0.291961 -0.596368 0
M  V30 5902 H 543.016 -1.41732 -1.47557 0
M  V30 5903 H 543.026 -1.16772 -3.90933 0
M  V30 5904 H 541.701 -2.24526 -3.50087 0
M  V30 5905 H 540.278 -0.425168 -3.70468 0
M  V30 5906 N 542.463 1.3308 -0.844243 0
M  V30 5907 C 543.396 2.27075 -0.226279 0
M  V30 5908 C 544.374 1.49911 0.629716 0
M  V30 5909 O 545.558 1.79068 0.588803 0
M  V30 5910 C 542.685 3.31767 0.681782 0
M  V30 5911 C 541.731 4.26384 -0.0994565 0
M  V30 5912 S 542.564 5.15186 -1.46094 0
M  V30 5913 C 543.72 6.23405 -0.558319 0
M  V30 5914 H 543.953 2.79141 -1.02312 0
M  V30 5915 H 541.486 1.40452 -0.641292 0
M  V30 5916 H 543.444 3.92566 1.20008 0
M  V30 5917 H 542.105 2.78507 1.45234 0
M  V30 5918 H 541.298 5.00514 0.591733 0
M  V30 5919 H 540.9 3.69949 -0.548991 0
M  V30 5920 H 543.192 6.77069 0.241672 0
M  V30 5921 H 544.135 6.96619 -1.26995 0
M  V30 5922 H 544.543 5.64333 -0.13728 0
M  V30 5923 N 543.941 0.601185 1.45683 0
M  V30 5924 C 545.169 0.100054 2.06658 0
M  V30 5925 C 545.584 -1.21285 1.44691 0
M  V30 5926 O 544.941 -1.73735 0.558772 0
M  V30 5927 C 544.992 -0.0528579 3.61461 0
M  V30 5928 O 544.713 1.20809 4.21114 0
M  V30 5929 C 546.214 -0.586193 4.39407 0
M  V30 5930 H 543.434 0.065905 0.667756 0
M  V30 5931 H 545.978 0.827101 1.87028 0
M  V30 5932 H 544.133 -0.730203 3.80456 0
M  V30 5933 H 544.547 1.03368 5.14213 0
M  V30 5934 H 546.021 -0.642297 5.4825 0
M  V30 5935 H 546.498 -1.60713 4.0874 0
M  V30 5936 H 547.104 0.0568935 4.25262 0
M  V30 5937 N 545.419 -1.53889 0.339982 0
M  V30 5938 C 546.647 -2.05271 -0.259114 0
M  V30 5939 C 547.062 -1.21517 -1.44496 0
M  V30 5940 O 546.419 -0.24966 -1.80784 0
M  V30 5941 C 546.47 -3.55092 -0.677634 0
M  V30 5942 O 546.191 -4.35667 0.461051 0
M  V30 5943 C 547.692 -4.22631 -1.33782 0
M  V30 5944 H 544.912 -0.669085 -0.0506566 0
M  V30 5945 H 547.456 -1.9852 0.490935 0
M  V30 5946 H 545.611 -3.62077 -1.37763 0
M  V30 5947 H 546.025 -5.24343 0.128144 0
M  V30 5948 H 547.499 -5.28861 -1.58145 0
M  V30 5949 H 547.976 -3.74758 -2.29027 0
M  V30 5950 H 548.582 -4.19829 -0.679957 0
M  V30 5951 N 546.897 -0.0685191 -1.57451 0
M  V30 5952 C 548.143 0.602239 -1.93652 0
M  V30 5953 C 548.476 1.6946 -0.948526 0
M  V30 5954 O 547.751 1.94487 0.022782 0
M  V30 5955 C 548.034 1.18223 -3.4014 0
M  V30 5956 C 547.887 0.0967431 -4.49696 0
M  V30 5957 C 549.206 2.08872 -3.87377 0
M  V30 5958 H 546.325 0.217453 -0.70419 0
M  V30 5959 H 548.967 -0.133821 -1.89528 0
M  V30 5960 H 547.117 1.80953 -3.43785 0
M  V30 5961 H 548.789 -0.536155 -4.58174 0
M  V30 5962 H 547.032 -0.573063 -4.29998 0
M  V30 5963 H 547.703 0.542894 -5.49324 0
M  V30 5964 H 550.179 1.56081 -3.85717 0
M  V30 5965 H 549.055 2.46389 -4.90493 0
M  V30 5966 H 549.316 2.99572 -3.25129 0
M  V30 5967 N 548.375 1.56261 0.205012 0
M  V30 5968 C 549.623 1.79684 0.925096 0
M  V30 5969 C 549.944 0.63989 1.84202 0
M  V30 5970 O 549.214 -0.342345 1.92885 0
M  V30 5971 H 547.794 0.662774 0.344587 0
M  V30 5972 H 550.456 1.93734 0.212899 0
M  V30 5973 H 549.552 2.72467 1.52211 0
M  V30 5974 N 549.853 -0.472356 1.50355 0
M  V30 5975 C 551.083 -1.24603 1.64796 0
M  V30 5976 C 551.491 -1.86297 0.330156 0
M  V30 5977 O 550.834 -1.69934 -0.697728 0
M  V30 5978 C 550.896 -2.39578 2.68035 0
M  V30 5979 C 550.56 -1.98531 4.11624 0
M  V30 5980 C 551.557 -1.50856 4.97532 0
M  V30 5981 C 549.242 -2.0729 4.57532 0
M  V30 5982 C 551.236 -1.12481 6.27397 0
M  V30 5983 C 548.923 -1.68527 5.87403 0
M  V30 5984 C 549.921 -1.212 6.7216 0
M  V30 5985 O 549.609 -0.829728 7.99607 0
M  V30 5986 H 549.341 -0.383035 0.55701 0
M  V30 5987 H 551.895 -0.570392 1.97321 0
M  V30 5988 H 550.125 -3.10309 2.30749 0
M  V30 5989 H 551.814 -3.01544 2.71709 0
M  V30 5990 H 552.58 -1.43511 4.63281 0
M  V30 5991 H 548.459 -2.43076 3.91708 0
M  V30 5992 H 552.003 -0.754698 6.93506 0
M  V30 5993 H 547.9 -1.7553 6.21176 0
M  V30 5994 H 548.668 -0.958689 8.12866 0
M  V30 5995 N 551.331 -1.39911 -0.725443 0
M  V30 5996 C 552.579 -1.37382 -1.48224 0
M  V30 5997 C 552.9 0.0264107 -1.94982 0
M  V30 5998 O 552.17 0.979408 -1.6966 0
M  V30 5999 H 550.75 -0.505596 -0.549892 0
M  V30 6000 H 553.412 -1.7487 -0.860608 0
M  V30 6001 H 552.508 -2.04254 -2.3598 0
M  V30 6002 N 552.809 0.956637 -1.25245 0
M  V30 6003 C 554.086 1.67716 -1.00651 0
M  V30 6004 C 554.466 2.0585 0.467866 0
M  V30 6005 O 553.814 1.77029 1.44475 0
M  V30 6006 C 554.024 2.90093 -1.94028 0
M  V30 6007 C 555.372 3.6209 -2.21756 0
M  V30 6008 O 556.396 3.00171 -1.9177 0
M  V30 6009 O 555.255 4.7358 -2.72735 0
M  V30 6010 H 552.349 0.733731 -0.381533 0
M  V30 6011 H 554.895 1.00974 -1.3639 0
M  V30 6012 H 553.667 2.58689 -2.93591 0
M  V30 6013 H 553.29 3.64566 -1.58674 0
M  V30 6014 N 554.287 1.06798 1.15896 0
M  V30 6015 C 555.515 0.808694 1.90441 0
M  V30 6016 C 555.93 -0.637506 1.77711 0
M  V30 6017 O 555.287 -1.43684 1.12522 0
M  V30 6018 C 555.338 1.20068 3.40978 0
M  V30 6019 O 555.059 2.59013 3.53333 0
M  V30 6020 C 556.56 0.96987 4.3256 0
M  V30 6021 H 553.78 0.292809 0.603742 0
M  V30 6022 H 556.324 1.42296 1.46874 0
M  V30 6023 H 554.479 0.630842 3.82229 0
M  V30 6024 H 554.893 2.7485 4.46719 0
M  V30 6025 H 556.367 1.29371 5.36626 0
M  V30 6026 H 556.844 -0.0941209 4.39099 0
M  V30 6027 H 557.45 1.52433 3.97044 0
M  V30 6028 N 555.766 -1.3263 0.851289 0
M  V30 6029 C 556.716 -2.26451 0.265302 0
M  V30 6030 C 557.7 -1.49814 -0.586899 0
M  V30 6031 O 558.892 -1.71525 -0.436834 0
M  V30 6032 C 556.021 -3.38895 -0.548212 0
M  V30 6033 C 555.107 -4.2292 0.316189 0
M  V30 6034 N 555.498 -4.86014 1.40084 0
M  V30 6035 C 553.796 -4.45876 0.105356 0
M  V30 6036 C 554.497 -5.48667 1.93235 0
M  V30 6037 N 553.473 -5.29455 1.232 0
M  V30 6038 H 557.275 -2.72757 1.09457 0
M  V30 6039 H 554.789 -1.4668 0.697047 0
M  V30 6040 H 556.786 -4.05111 -0.984402 0
M  V30 6041 H 555.446 -2.94135 -1.37531 0
M  V30 6042 H 556.457 -4.86212 1.78377 0
M  V30 6043 H 553.134 -4.11804 -0.687299 0
M  V30 6044 H 554.524 -6.08865 2.84135 0
M  V30 6045 N 557.244 -0.608902 -1.45362 0
M  V30 6046 C 558.655 -0.189511 -1.85736 0
M  V30 6047 C 559.006 1.2539 -1.50903 0
M  V30 6048 O 558.131 1.95094 -0.936347 0
M  V30 6049 C 558.726 -0.33716 -3.37118 0
M  V30 6050 C 557.285 0.0275487 -3.7639 0
M  V30 6051 C 556.432 -0.660983 -2.69307 0
M  V30 6052 H 559.383 -0.815499 -1.36144 0
M  V30 6053 H 559.404 0.430257 -3.7806 0
M  V30 6054 H 558.916 -1.38779 -3.62439 0
M  V30 6055 H 557.017 1.0773 -3.56686 0
M  V30 6056 H 557.13 -0.367018 -4.77692 0
M  V30 6057 H 555.494 -0.0984958 -2.54509 0
M  V30 6058 H 556.277 -1.71377 -2.97464 0
M  V30 6059 N 558.722 1.53707 -0.348139 0
M  V30 6060 C 559.968 2.01286 0.247332 0
M  V30 6061 C 560.301 1.23546 1.49834 0
M  V30 6062 O 559.576 0.324331 1.91777 0
M  V30 6063 C 559.859 3.55768 0.556858 0
M  V30 6064 C 559.712 4.44216 -0.706564 0
M  V30 6065 C 561.031 4.1841 1.3646 0
M  V30 6066 H 558.15 0.731677 0.0884201 0
M  V30 6067 H 560.792 1.84106 -0.469584 0
M  V30 6068 H 558.942 3.70539 1.16761 0
M  V30 6069 H 560.614 4.41274 -1.34444 0
M  V30 6070 H 558.857 4.12892 -1.33052 0
M  V30 6071 H 559.528 5.50202 -0.445186 0
M  V30 6072 H 562.004 4.07365 0.848113 0
M  V30 6073 H 560.88 5.26563 1.54992 0
M  V30 6074 H 561.141 3.7333 2.36805 0
M  V30 6075 N 560.2 0.0768682 1.57412 0
M  V30 6076 C 561.428 -0.59997 1.9801 0
M  V30 6077 C 561.843 -1.62842 0.955408 0
M  V30 6078 O 561.2 -1.8241 -0.057314 0
M  V30 6079 C 561.251 -1.26401 3.38681 0
M  V30 6080 O 560.972 -0.276723 4.37225 0
M  V30 6081 C 562.473 -2.0282 3.94182 0
M  V30 6082 H 559.693 -0.162239 0.651091 0
M  V30 6083 H 562.237 0.150771 2.03943 0
M  V30 6084 H 560.392 -1.96581 3.33819 0
M  V30 6085 H 560.806 -0.753744 5.19056 0
M  V30 6086 H 562.28 -2.44667 4.94815 0
M  V30 6087 H 562.757 -2.88678 3.31001 0
M  V30 6088 H 563.363 -1.37496 4.02461 0
M  V30 6089 N 561.678 -1.56367 -0.196722 0
M  V30 6090 C 562.608 -1.97442 -1.24655 0
M  V30 6091 C 563.589 -0.846147 -1.47561 0
M  V30 6092 O 564.774 -1.11035 -1.59326 0
M  V30 6093 C 561.904 -2.31253 -2.59112 0
M  V30 6094 C 560.858 -3.46804 -2.50821 0
M  V30 6095 C 560.184 -3.66286 -3.89536 0
M  V30 6096 C 561.484 -4.8104 -2.03465 0
M  V30 6097 H 563.178 -2.85388 -0.905216 0
M  V30 6098 H 560.724 -1.37304 -0.434002 0
M  V30 6099 H 562.677 -2.58583 -3.32736 0
M  V30 6100 H 561.401 -1.40188 -2.94983 0
M  V30 6101 H 560.06 -3.19563 -1.79653 0
M  V30 6102 H 559.708 -2.72555 -4.22756 0
M  V30 6103 H 559.408 -4.4402 -3.84864 0
M  V30 6104 H 560.932 -3.9599 -4.64784 0
M  V30 6105 H 562.346 -5.07411 -2.66846 0
M  V30 6106 H 560.743 -5.62232 -2.09798 0
M  V30 6107 H 561.813 -4.74732 -0.98781 0
M  V30 6108 N 563.156 0.464375 -1.50603 0
M  V30 6109 C 564.119 1.54393 -1.69397 0
M  V30 6110 C 565.119 1.50566 -0.564504 0
M  V30 6111 O 566.309 1.53066 -0.831645 0
M  V30 6112 C 563.441 2.9401 -1.72543 0
M  V30 6113 H 564.634 1.39044 -2.65719 0
M  V30 6114 H 562.187 0.69122 -1.40185 0
M  V30 6115 H 562.922 3.14795 -0.77938 0
M  V30 6116 H 562.707 2.98195 -2.54602 0
M  V30 6117 H 564.197 3.72375 -1.89015 0
M  V30 6118 N 564.634 1.40294 0.718013 0
M  V30 6119 C 565.882 1.38167 1.47494 0
M  V30 6120 C 566.203 -0.01607 1.94993 0
M  V30 6121 O 565.473 -0.970396 1.70177 0
M  V30 6122 H 564.053 0.508505 0.547203 0
M  V30 6123 H 566.715 1.75324 0.851322 0
M  V30 6124 H 565.811 2.05503 2.34894 0
M  V30 6125 N 566.112 -0.949982 1.2575 0
M  V30 6126 C 567.059 -2.04738 1.06541 0
M  V30 6127 C 568.029 -1.66078 -0.0268818 0
M  V30 6128 O 569.214 -1.90348 0.131196 0
M  V30 6129 C 566.354 -3.38027 0.695127 0
M  V30 6130 C 565.467 -3.89776 1.86276 0
M  V30 6131 C 564.602 -5.11411 1.4364 0
M  V30 6132 C 563.641 -5.554 2.57287 0
M  V30 6133 N 562.778 -6.68244 2.15395 0
M  V30 6134 H 567.618 -2.20502 2.00457 0
M  V30 6135 H 565.155 -1.0805 0.998178 0
M  V30 6136 H 567.113 -4.14641 0.461375 0
M  V30 6137 H 565.743 -3.22135 -0.207046 0
M  V30 6138 H 564.795 -3.0964 2.20969 0
M  V30 6139 H 566.107 -4.18368 2.71606 0
M  V30 6140 H 565.261 -5.95457 1.16257 0
M  V30 6141 H 564 -4.84545 0.553879 0
M  V30 6142 H 563.005 -4.69916 2.85409 0
M  V30 6143 H 564.23 -5.84272 3.46125 0
M  V30 6144 H 562.176 -6.43078 1.29565 0
M  V30 6145 H 562.093 -6.96377 2.94272 0
M  V30 6146 H 563.361 -7.55687 1.91201 0
M  V30 6147 N 567.59 -1.07411 -1.15328 0
M  V30 6148 C 568.52 -0.716472 -2.22236 0
M  V30 6149 C 569.501 0.296373 -1.67498 0
M  V30 6150 O 570.686 0.168989 -1.93463 0
M  V30 6151 C 567.816 -0.114142 -3.47112 0
M  V30 6152 C 566.77 -1.05421 -4.14814 0
M  V30 6153 C 566.096 -0.314604 -5.33774 0
M  V30 6154 C 567.396 -2.38808 -4.64508 0
M  V30 6155 H 569.09 -1.61029 -2.52408 0
M  V30 6156 H 566.636 -0.775702 -1.21321 0
M  V30 6157 H 568.589 0.148001 -4.2114 0
M  V30 6158 H 567.313 0.814755 -3.16274 0
M  V30 6159 H 565.972 -1.30128 -3.42728 0
M  V30 6160 H 565.62 0.617772 -4.99192 0
M  V30 6161 H 565.32 -0.941209 -5.80013 0
M  V30 6162 H 566.844 -0.0602747 -6.1057 0
M  V30 6163 H 568.258 -2.18424 -5.3006 0
M  V30 6164 H 566.655 -2.97069 -5.21412 0
M  V30 6165 H 567.725 -3.01067 -3.80114 0
M  V30 6166 N 569.068 1.32177 -0.85831 0
M  V30 6167 C 570.317 1.96392 -0.459689 0
M  V30 6168 C 570.63 1.68659 0.990632 0
M  V30 6169 O 571.836 2.26641 1.49485 0
M  V30 6170 C 570.292 3.51542 -0.7711 0
M  V30 6171 C 569.9 3.8813 -2.2374 0
M  V30 6172 C 571.644 4.2221 -0.44038 0
M  V30 6173 C 569.551 5.36341 -2.49183 0
M  V30 6174 H 568.481 0.735007 -0.168169 0
M  V30 6175 H 571.132 1.50518 -1.0496 0
M  V30 6176 H 569.514 3.95846 -0.11058 0
M  V30 6177 H 570.688 3.54824 -2.94001 0
M  V30 6178 H 569.003 3.30497 -2.533 0
M  V30 6179 H 571.6 5.31234 -0.607855 0
M  V30 6180 H 571.943 4.11683 0.618291 0
M  V30 6181 H 572.476 3.83502 -1.05695 0
M  V30 6182 H 569.215 5.51892 -3.53689 0
M  V30 6183 H 568.735 5.7104 -1.83504 0
M  V30 6184 H 570.414 6.03466 -2.33318 0
M  V30 6185 N 570.547 0.616602 1.45037 0
M  V30 6186 C 571.51 -0.0871112 2.29034 0
M  V30 6187 C 572.51 -0.786414 1.40258 0
M  V30 6188 O 573.7 -0.633207 1.62284 0
M  V30 6189 C 570.832 -1.13369 3.21497 0
M  V30 6190 H 572.025 0.651497 2.92738 0
M  V30 6191 H 569.578 0.376058 1.51709 0
M  V30 6192 H 570.313 -1.90277 2.62612 0
M  V30 6193 H 570.098 -0.636358 3.86902 0
M  V30 6194 H 571.588 -1.62627 3.84633 0
M  V30 6195 N 572.025 -1.5352 0.356285 0
M  V30 6196 C 573.25 -2.06007 -0.239961 0
M  V30 6197 C 573.675 -1.22872 -1.42422 0
M  V30 6198 O 573.033 -0.245516 -1.7963 0
M  V30 6199 C 573.081 -3.5522 -0.620587 0
M  V30 6200 O 572.185 -3.74864 -1.71902 0
M  V30 6201 H 571.526 -0.662961 -0.0371377 0
M  V30 6202 H 574.056 -1.98033 0.514194 0
M  V30 6203 H 574.066 -3.98081 -0.894197 0
M  V30 6204 H 572.741 -4.15175 0.245407 0
M  V30 6205 H 571.318 -3.43904 -1.44169 0
M  V30 6206 N 573.503 -0.0852151 -1.57369 0
M  V30 6207 C 574.731 0.58946 -1.98325 0
M  V30 6208 C 575.146 1.62333 -0.96403 0
M  V30 6209 O 574.503 1.82438 0.0476395 0
M  V30 6210 C 574.554 1.24604 -3.39347 0
M  V30 6211 O 574.275 0.253532 -4.37366 0
M  V30 6212 C 575.776 2.00726 -3.95252 0
M  V30 6213 H 572.996 0.158783 -0.651942 0
M  V30 6214 H 575.54 -0.161584 -2.03861 0
M  V30 6215 H 573.695 1.94808 -3.34856 0
M  V30 6216 H 574.109 0.726207 -5.19448 0
M  V30 6217 H 575.583 2.42039 -4.96106 0
M  V30 6218 H 576.06 2.86919 -3.32527 0
M  V30 6219 H 576.666 1.3536 -4.03185 0
M  V30 6220 N 574.981 1.5647 0.188427 0
M  V30 6221 C 576.221 1.82803 0.914469 0
M  V30 6222 C 576.585 0.663681 1.80165 0
M  V30 6223 O 577.786 0.807059 2.56398 0
M  V30 6224 C 576.057 3.14187 1.70357 0
M  V30 6225 S 577.616 3.61947 2.48072 0
M  V30 6226 H 574.434 0.641497 0.306599 0
M  V30 6227 H 577.036 1.94694 0.177361 0
M  V30 6228 H 575.74 3.96937 1.04255 0
M  V30 6229 H 575.271 3.05192 2.48237 0
M  V30 6230 H 577.286 3.27913 3.72407 0
M  V30 6231 N 576.459 -0.456382 1.50847 0
M  V30 6232 C 577.708 -1.2042 1.61808 0
M  V30 6233 C 578.021 -1.9278 0.330932 0
M  V30 6234 O 579.227 -2.69612 0.319643 0
M  V30 6235 C 577.683 -2.18891 2.85683 0
M  V30 6236 C 577.291 -1.52267 4.2133 0
M  V30 6237 C 579.035 -2.94224 3.05994 0
M  V30 6238 C 576.942 -2.4911 5.36375 0
M  V30 6239 H 575.872 -0.453177 0.602616 0
M  V30 6240 H 578.523 -0.473144 1.77295 0
M  V30 6241 H 576.905 -2.95351 2.63787 0
M  V30 6242 H 578.079 -0.814949 4.53536 0
M  V30 6243 H 576.394 -0.891594 4.06743 0
M  V30 6244 H 578.991 -3.66732 3.89117 0
M  V30 6245 H 579.334 -3.54469 2.18306 0
M  V30 6246 H 579.867 -2.24874 3.28141 0
M  V30 6247 H 576.606 -1.93582 6.26264 0
M  V30 6248 H 576.126 -3.17991 5.08569 0
M  V30 6249 H 577.805 -3.10637 5.67551 0
M  V30 6250 N 577.937 -1.40673 -0.710563 0
M  V30 6251 C 579.186 -1.38525 -1.46607 0
M  V30 6252 C 579.499 0.0077024 -1.95598 0
M  V30 6253 O 580.705 0.151792 -2.71075 0
M  V30 6254 C 579.161 -2.43489 -2.6503 0
M  V30 6255 C 578.769 -3.88619 -2.22888 0
M  V30 6256 C 580.513 -2.50456 -3.42742 0
M  V30 6257 C 578.42 -4.85168 -3.3818 0
M  V30 6258 H 577.35 -0.515092 -0.550632 0
M  V30 6259 H 580.001 -1.66431 -0.772846 0
M  V30 6260 H 578.383 -2.0869 -3.36548 0
M  V30 6261 H 579.557 -4.32588 -1.58758 0
M  V30 6262 H 577.872 -3.85174 -1.58208 0
M  V30 6263 H 580.469 -3.19776 -4.28541 0
M  V30 6264 H 580.812 -1.53665 -3.86902 0
M  V30 6265 H 581.345 -2.84271 -2.78271 0
M  V30 6266 H 578.084 -5.8331 -2.99047 0
M  V30 6267 H 577.604 -4.4586 -4.01209 0
M  V30 6268 H 579.283 -5.05225 -4.04174 0
M  V30 6269 N 579.415 0.9433 -1.26252 0
M  V30 6270 C 580.655 1.70397 -1.1289 0
M  V30 6271 C 581.019 1.89268 0.322713 0
M  V30 6272 O 582.22 2.62503 0.578418 0
M  V30 6273 C 580.491 3.04296 -1.87453 0
M  V30 6274 S 582.05 3.95475 -1.90119 0
M  V30 6275 H 578.868 0.585559 -0.403289 0
M  V30 6276 H 581.47 1.12424 -1.59941 0
M  V30 6277 H 580.174 2.8824 -2.9214 0
M  V30 6278 H 579.705 3.67327 -1.40835 0
M  V30 6279 H 581.72 4.86297 -0.986373 0
M  V30 6280 N 580.893 1.08022 1.14757 0
M  V30 6281 C 582.141 0.805913 1.85336 0
M  V30 6282 C 582.462 -0.670162 1.83122 0
M  V30 6283 O 581.732 -1.48567 1.2769 0
M  V30 6284 H 580.312 0.295138 0.686223 0
M  V30 6285 H 582.974 1.36538 1.3908 0
M  V30 6286 H 582.07 1.14655 2.90277 0
M  V30 6287 N 582.371 -1.3172 0.865308 0
M  V30 6288 C 583.62 -1.96145 0.470098 0
M  V30 6289 C 583.933 -1.69182 -0.981674 0
M  V30 6290 O 585.139 -2.27431 -1.48281 0
M  V30 6291 C 583.595 -3.51129 0.789732 0
M  V30 6292 C 583.203 -3.86938 2.25795 0
M  V30 6293 C 584.947 -4.2197 0.462765 0
M  V30 6294 C 582.854 -5.35012 2.52024 0
M  V30 6295 H 581.784 -0.734105 0.172065 0
M  V30 6296 H 584.435 -1.49959 1.05757 0
M  V30 6297 H 582.817 -3.95781 0.131571 0
M  V30 6298 H 583.991 -3.5326 2.95879 0
M  V30 6299 H 582.306 -3.29149 2.55049 0
M  V30 6300 H 584.903 -5.30904 0.636019 0
M  V30 6301 H 585.246 -4.12005 -0.59645 0
M  V30 6302 H 585.779 -3.82936 1.07727 0
M  V30 6303 H 582.518 -5.50008 3.56611 0
M  V30 6304 H 582.038 -5.70058 1.8653 0
M  V30 6305 H 583.717 -6.0222 2.36515 0
M  V30 6306 N 583.85 -0.624285 -1.44708 0
M  V30 6307 C 584.779 0.0717025 -2.3339 0
M  V30 6308 C 585.76 0.841814 -1.47809 0
M  V30 6309 O 586.946 0.809056 -1.76544 0
M  V30 6310 C 584.076 1.05852 -3.30776 0
M  V30 6311 C 583.029 0.400503 -4.26122 0
M  V30 6312 C 582.356 1.49674 -5.13324 0
M  V30 6313 C 583.656 -0.688924 -5.17737 0
M  V30 6314 H 585.35 -0.668819 -2.91834 0
M  V30 6315 H 582.896 -0.32308 -1.40329 0
M  V30 6316 H 584.849 1.5541 -3.91696 0
M  V30 6317 H 583.572 1.82984 -2.70526 0
M  V30 6318 H 582.231 -0.0743687 -3.66525 0
M  V30 6319 H 581.88 2.25877 -4.49431 0
M  V30 6320 H 581.58 1.06188 -5.77926 0
M  V30 6321 H 583.104 1.99427 -5.77115 0
M  V30 6322 H 584.518 -0.276724 -5.72632 0
M  V30 6323 H 582.915 -1.04652 -5.90904 0
M  V30 6324 H 583.985 -1.55884 -4.5916 0
M  V30 6325 N 585.328 1.53329 -0.364422 0
M  V30 6326 C 586.574 2.01537 0.225969 0
M  V30 6327 C 586.907 1.25128 1.48515 0
M  V30 6328 O 586.182 0.344653 1.91422 0
M  V30 6329 C 586.465 3.56339 0.519092 0
M  V30 6330 C 586.318 4.43441 -0.753639 0
M  V30 6331 C 587.637 4.19833 1.32015 0
M  V30 6332 H 584.756 0.732573 0.0806548 0
M  V30 6333 H 587.398 1.83597 -0.489084 0
M  V30 6334 H 585.548 3.71756 1.12825 0
M  V30 6335 H 587.22 4.39823 -1.39116 0
M  V30 6336 H 585.463 4.11457 -1.37424 0
M  V30 6337 H 586.134 5.49699 -0.503517 0
M  V30 6338 H 588.61 4.08242 0.804859 0
M  V30 6339 H 587.486 5.28177 1.49399 0
M  V30 6340 H 587.747 3.75821 2.32832 0
M  V30 6341 N 586.806 0.0935595 1.57322 0
M  V30 6342 C 588.052 -0.571355 1.94585 0
M  V30 6343 C 588.385 -1.67929 0.975366 0
M  V30 6344 O 587.66 -1.94498 0.00816206 0
M  V30 6345 C 587.943 -1.12797 3.41978 0
M  V30 6346 C 587.796 -0.0251881 4.49793 0
M  V30 6347 C 589.115 -2.02682 3.90651 0
M  V30 6348 H 586.234 -0.206223 0.70756 0
M  V30 6349 H 588.876 0.163956 1.89291 0
M  V30 6350 H 587.026 -1.75461 3.4662 0
M  V30 6351 H 588.698 0.608979 4.57263 0
M  V30 6352 H 586.941 0.641399 4.29032 0
M  V30 6353 H 587.612 -0.455433 5.50118 0
M  V30 6354 H 590.088 -1.49925 3.88152 0
M  V30 6355 H 588.964 -2.38555 4.94351 0
M  V30 6356 H 589.225 -2.94362 3.29854 0
M  V30 6357 N 588.284 -1.56567 -0.180126 0
M  V30 6358 C 589.247 -1.94852 -1.20686 0
M  V30 6359 C 590.247 -0.831212 -1.3765 0
M  V30 6360 O 591.437 -1.09841 -1.35206 0
M  V30 6361 C 588.569 -2.23565 -2.57355 0
M  V30 6362 H 589.762 -2.86722 -0.879225 0
M  V30 6363 H 587.315 -1.50489 -0.422237 0
M  V30 6364 H 588.05 -1.34381 -2.95148 0
M  V30 6365 H 587.835 -3.04999 -2.46411 0
M  V30 6366 H 589.325 -2.54137 -3.31367 0
M  V30 6367 N 589.762 0.448376 -1.51087 0
M  V30 6368 C 590.692 1.55102 -1.74544 0
M  V30 6369 C 591.673 1.59357 -0.594932 0
M  V30 6370 O 592.858 1.75261 -0.836491 0
M  V30 6371 C 589.988 2.93268 -1.86041 0
M  V30 6372 C 588.942 3.03877 -3.01402 0
M  V30 6373 C 588.268 4.43914 -2.98068 0
M  V30 6374 C 589.568 2.7898 -4.41551 0
M  V30 6375 H 591.262 1.35724 -2.66869 0
M  V30 6376 H 588.808 0.651498 -1.28419 0
M  V30 6377 H 590.761 3.70356 -2.01034 0
M  V30 6378 H 589.485 3.13853 -0.903548 0
M  V30 6379 H 588.144 2.29227 -2.86096 0
M  V30 6380 H 587.792 4.6145 -2.00182 0
M  V30 6381 H 587.492 4.51944 -3.75527 0
M  V30 6382 H 589.016 5.22991 -3.1514 0
M  V30 6383 H 590.43 3.45805 -4.57265 0
M  V30 6384 H 588.827 2.98431 -5.20633 0
M  V30 6385 H 589.897 1.74663 -4.5235 0
M  V30 6386 N 591.24 1.41047 0.703093 0
M  V30 6387 C 592.651 1.35657 1.28274 0
M  V30 6388 C 593.002 0.0360309 1.96167 0
M  V30 6389 O 592.127 -0.865833 1.98324 0
M  V30 6390 C 592.722 2.45707 2.33267 0
M  V30 6391 C 591.281 2.43738 2.86825 0
M  V30 6392 C 590.428 2.25941 1.60767 0
M  V30 6393 H 593.379 1.50672 0.49836 0
M  V30 6394 H 593.4 2.14333 3.14391 0
M  V30 6395 H 592.912 3.41805 1.83824 0
M  V30 6396 H 591.013 1.51375 3.40465 0
M  V30 6397 H 591.126 3.39779 3.37768 0
M  V30 6398 H 589.49 1.73681 1.86298 0
M  V30 6399 H 590.273 3.24054 1.1333 0
M  V30 6400 N 592.718 -0.936591 1.26751 0
M  V30 6401 C 593.967 -1.67778 1.11953 0
M  V30 6402 C 594.28 -1.92694 -0.33589 0
M  V30 6403 O 595.486 -2.64682 -0.604618 0
M  V30 6404 C 593.942 -3.02138 1.95551 0
M  V30 6405 C 593.55 -2.84953 3.45696 0
M  V30 6406 C 595.294 -3.79917 1.89377 0
M  V30 6407 C 593.201 -4.14814 4.21525 0
M  V30 6408 H 592.131 -0.629275 0.415366 0
M  V30 6409 H 594.782 -1.04122 1.51099 0
M  V30 6410 H 593.164 -3.668 1.49243 0
M  V30 6411 H 594.338 -2.29112 3.99805 0
M  V30 6412 H 592.653 -2.20612 3.53156 0
M  V30 6413 H 595.25 -4.76134 2.43312 0
M  V30 6414 H 595.593 -4.07204 0.865464 0
M  V30 6415 H 596.126 -3.22037 2.33532 0
M  V30 6416 H 592.865 -3.92709 5.24843 0
M  V30 6417 H 592.385 -4.70352 3.72195 0
M  V30 6418 H 594.064 -4.83239 4.3022 0
M  V30 6419 N 594.196 -1.08629 -1.14182 0
M  V30 6420 C 595.424 -0.838889 -1.8913 0
M  V30 6421 C 595.839 0.609153 -1.78703 0
M  V30 6422 O 595.196 1.41876 -1.14794 0
M  V30 6423 C 595.247 -1.25477 -3.39025 0
M  V30 6424 O 594.968 -2.64601 -3.49167 0
M  V30 6425 C 596.469 -1.03856 -4.30963 0
M  V30 6426 H 593.689 -0.302377 -0.599007 0
M  V30 6427 H 596.233 -1.44615 -1.44592 0
M  V30 6428 H 594.388 -0.691571 -3.81177 0
M  V30 6429 H 594.802 -2.81922 -4.42289 0
M  V30 6430 H 596.276 -1.37892 -5.345 0
M  V30 6431 H 596.753 0.0242522 -4.39193 0
M  V30 6432 H 597.359 -1.58731 -3.94569 0
M  V30 6433 N 595.674 1.31259 -0.872281 0
M  V30 6434 C 596.923 1.95893 -0.480493 0
M  V30 6435 C 597.236 1.697 0.972688 0
M  V30 6436 O 598.442 2.28214 1.47073 0
M  V30 6437 C 596.898 3.50705 -0.808342 0
M  V30 6438 C 596.506 3.85735 -2.27844 0
M  V30 6439 C 598.25 4.21719 -0.485136 0
M  V30 6440 C 596.157 5.33668 -2.54858 0
M  V30 6441 H 595.087 0.733182 -0.175955 0
M  V30 6442 H 597.738 1.49396 -1.0655 0
M  V30 6443 H 596.12 3.95706 -0.152558 0
M  V30 6444 H 597.294 3.51686 -2.97748 0
M  V30 6445 H 595.609 3.27792 -2.56791 0
M  V30 6446 H 598.206 5.30559 -0.664166 0
M  V30 6447 H 598.549 4.12316 0.574592 0
M  V30 6448 H 599.082 3.82359 -1.09756 0
M  V30 6449 H 595.821 5.48109 -3.59523 0
M  V30 6450 H 595.341 5.69061 -1.8955 0
M  V30 6451 H 597.02 6.00958 -2.39706 0
M  V30 6452 N 597.152 0.631951 1.44375 0
M  V30 6453 C 598.401 0.134214 2.01253 0
M  V30 6454 C 598.714 -1.25171 1.50305 0
M  V30 6455 O 599.92 -1.8435 1.99317 0
M  V30 6456 C 598.376 0.189187 3.59402 0
M  V30 6457 C 597.984 1.57647 4.19346 0
M  V30 6458 C 599.728 -0.252044 4.23751 0
M  V30 6459 C 597.635 1.58651 5.69722 0
M  V30 6460 H 596.565 0.0464101 0.75257 0
M  V30 6461 H 599.216 0.790868 1.65582 0
M  V30 6462 H 597.598 -0.534584 3.92375 0
M  V30 6463 H 598.772 2.32389 3.97909 0
M  V30 6464 H 597.087 1.96186 3.67288 0
M  V30 6465 H 599.684 -0.264084 5.34047 0
M  V30 6466 H 600.027 -1.27951 3.96149 0
M  V30 6467 H 600.56 0.41926 3.95584 0
M  V30 6468 H 597.299 2.59237 6.0206 0
M  V30 6469 H 596.819 0.882039 5.93279 0
M  V30 6470 H 598.498 1.32082 6.33375 0
M  V30 6471 N 598.631 -1.53133 0.372548 0
M  V30 6472 C 599.878 -2.01356 -0.214959 0
M  V30 6473 C 600.206 -1.2596 -1.48204 0
M  V30 6474 O 599.461 -0.343511 -1.92662 0
M  V30 6475 C 599.76 -3.53206 -0.545938 0
M  V30 6476 C 599.426 -4.46511 0.627624 0
M  V30 6477 C 598.088 -4.71737 0.949615 0
M  V30 6478 C 600.44 -5.01666 1.41353 0
M  V30 6479 C 597.768 -5.4937 2.05936 0
M  V30 6480 C 600.12 -5.80511 2.51375 0
M  V30 6481 C 598.784 -6.04022 2.84101 0
M  V30 6482 H 598.054 -0.736813 -0.078659 0
M  V30 6483 H 600.701 -1.84682 0.506447 0
M  V30 6484 H 599.006 -3.67864 -1.34845 0
M  V30 6485 H 600.703 -3.87997 -1.01287 0
M  V30 6486 H 597.293 -4.27029 0.366635 0
M  V30 6487 H 601.477 -4.82117 1.17802 0
M  V30 6488 H 596.733 -5.65803 2.31682 0
M  V30 6489 H 600.907 -6.22255 3.12684 0
M  V30 6490 H 598.534 -6.63962 3.70214 0
M  V30 6491 N 600.109 -0.101901 -1.5727 0
M  V30 6492 C 601.057 0.872034 -2.15635 0
M  V30 6493 C 602.051 1.28742 -1.10099 0
M  V30 6494 O 603.257 1.26116 -1.28432 0
M  V30 6495 H 599.632 0.299269 -0.689886 0
M  V30 6496 H 601.603 0.355137 -2.96279 0
M  V30 6497 C 600.352 2.11886 -2.7568 0
M  V30 6498 H 599.675 1.80813 -3.56576 0
M  V30 6499 H 601.115 2.78077 -3.20077 0
M  V30 6500 C 599.574 2.89739 -1.7191 0
M  V30 6501 O 600.104 3.84522 -1.16213 0
M  V30 6502 N 598.31 2.53407 -1.42245 0
M  V30 6503 H 597.857 1.76398 -1.87727 0
M  V30 6504 H 597.815 3.05795 -0.730529 0
M  V30 6505 N 601.587 1.56661 0.17182 0
M  V30 6506 C 602.534 1.96371 1.21273 0
M  V30 6507 C 603.504 0.82756 1.44016 0
M  V30 6508 O 604.689 1.08764 1.56764 0
M  V30 6509 C 601.829 2.32838 2.54716 0
M  V30 6510 C 600.942 3.59628 2.39356 0
M  V30 6511 C 600.077 3.85311 3.65662 0
M  V30 6512 C 599.116 5.0545 3.45234 0
M  V30 6513 N 598.253 5.27268 4.63608 0
M  V30 6514 H 603.093 2.85106 0.86709 0
M  V30 6515 H 600.63 1.41073 0.416744 0
M  V30 6516 H 602.588 2.52004 3.3249 0
M  V30 6517 H 601.218 1.47214 2.87277 0
M  V30 6518 H 600.27 3.4838 1.52761 0
M  V30 6519 H 601.582 4.4756 2.20207 0
M  V30 6520 H 600.736 4.04841 4.51872 0
M  V30 6521 H 599.475 2.95753 3.8779 0
M  V30 6522 H 598.48 4.85819 2.5741 0
M  V30 6523 H 599.705 5.96538 3.24529 0
M  V30 6524 H 597.651 4.40662 4.85956 0
M  V30 6525 H 597.568 6.09422 4.4737 0
M  V30 6526 H 598.836 5.51277 5.51103 0
M  V30 6527 N 603.065 -0.440357 1.51323 0
M  V30 6528 C 604.312 -1.19004 1.63842 0
M  V30 6529 C 604.64 -1.91266 0.35321 0
M  V30 6530 O 603.895 -1.84143 -0.662565 0
M  V30 6531 C 604.194 -2.2339 2.78984 0
M  V30 6532 C 603.86 -1.68162 4.18369 0
M  V30 6533 C 602.522 -1.52823 4.56288 0
M  V30 6534 C 604.874 -1.27524 5.05358 0
M  V30 6535 C 602.202 -0.953157 5.78906 0
M  V30 6536 C 604.554 -0.714474 6.28552 0
M  V30 6537 C 603.218 -0.547961 6.65247 0
M  V30 6538 H 602.488 -0.435468 0.59954 0
M  V30 6539 H 605.135 -0.481538 1.85347 0
M  V30 6540 H 603.44 -3.00267 2.51688 0
M  V30 6541 H 605.137 -2.81211 2.85869 0
M  V30 6542 H 601.727 -1.81077 3.8847 0
M  V30 6543 H 605.911 -1.38197 4.76671 0
M  V30 6544 H 601.167 -0.811882 6.05986 0
M  V30 6545 H 605.341 -0.391059 6.95301 0
M  V30 6546 H 602.968 -0.100222 7.60134 0
M  V30 6547 N 604.543 -1.41418 -0.695603 0
M  V30 6548 C 605.768 -1.44329 -1.48942 0
M  V30 6549 C 606.193 -0.0501579 -1.88033 0
M  V30 6550 O 605.551 0.946598 -1.54626 0
M  V30 6551 C 605.599 -2.3578 -2.72837 0
M  V30 6552 O 604.703 -1.81482 -3.70322 0
M  V30 6553 H 604.044 -0.489838 -0.44828 0
M  V30 6554 H 606.574 -1.85878 -0.855014 0
M  V30 6555 H 606.584 -2.51654 -3.21145 0
M  V30 6556 H 605.259 -3.37005 -2.43722 0
M  V30 6557 H 603.836 -1.75058 -3.29255 0
M  V30 6558 N 606.021 0.929856 -1.27246 0
M  V30 6559 C 606.968 2.03017 -1.09785 0
M  V30 6560 C 607.938 1.661 0.000456744 0
M  V30 6561 O 609.123 1.90116 -0.161462 0
M  V30 6562 C 606.263 3.36878 -0.748816 0
M  V30 6563 C 605.376 3.86763 -1.92453 0
M  V30 6564 C 604.511 5.09061 -1.51758 0
M  V30 6565 C 603.55 5.51237 -2.66091 0
M  V30 6566 N 602.687 6.64732 -2.25999 0
M  V30 6567 H 607.527 2.17285 -2.03939 0
M  V30 6568 H 605.064 1.06448 -1.01524 0
M  V30 6569 H 607.022 4.13855 -0.527283 0
M  V30 6570 H 605.652 3.22424 0.155771 0
M  V30 6571 H 604.704 3.06086 -2.25867 0
M  V30 6572 H 606.016 4.13994 -2.78227 0
M  V30 6573 H 605.17 5.93532 -1.25716 0
M  V30 6574 H 603.909 4.83602 -0.630896 0
M  V30 6575 H 602.914 4.65316 -2.92849 0
M  V30 6576 H 604.139 5.78692 -3.55377 0
M  V30 6577 H 602.085 6.40935 -1.3978 0
M  V30 6578 H 602.002 6.91607 -3.05313 0
M  V30 6579 H 603.27 7.52549 -2.03199 0
M  V30 6580 N 607.499 1.09233 1.13605 0
M  V30 6581 C 608.729 0.847677 1.88409 0
M  V30 6582 C 609.137 -0.604524 1.79282 0
M  V30 6583 O 608.48 -1.42773 1.15592 0
M  V30 6584 C 608.542 1.20153 3.38827 0
M  V30 6585 C 608.206 2.65824 3.71735 0
M  V30 6586 C 609.203 3.64072 3.71143 0
M  V30 6587 C 606.888 3.01894 4.01454 0
M  V30 6588 C 608.882 4.96419 3.99808 0
M  V30 6589 C 606.569 4.34433 4.29781 0
M  V30 6590 C 607.567 5.31505 4.28942 0
M  V30 6591 O 607.255 6.61659 4.56576 0
M  V30 6592 H 606.987 0.304813 0.603378 0
M  V30 6593 H 609.541 1.4573 1.44748 0
M  V30 6594 H 607.771 0.534946 3.82982 0
M  V30 6595 H 609.46 0.936349 3.94952 0
M  V30 6596 H 610.226 3.37549 3.4826 0
M  V30 6597 H 606.105 2.26971 4.01255 0
M  V30 6598 H 609.649 5.7218 3.99069 0
M  V30 6599 H 605.546 4.607 4.52135 0
M  V30 6600 H 606.314 6.67102 4.74254 0
M  V30 6601 N 608.977 -1.30795 0.87923 0
M  V30 6602 C 610.207 -2.00237 0.50881 0
M  V30 6603 C 610.615 -1.66115 -0.905682 0
M  V30 6604 O 609.958 -0.89138 -1.60624 0
M  V30 6605 C 610.02 -3.54508 0.597003 0
M  V30 6606 C 609.684 -4.12131 1.97477 0
M  V30 6607 C 610.681 -4.28552 2.94346 0
M  V30 6608 C 608.366 -4.47644 2.2786 0
M  V30 6609 C 610.36 -4.79689 4.19735 0
M  V30 6610 C 608.047 -4.98481 3.53496 0
M  V30 6611 C 609.045 -5.14456 4.49248 0
M  V30 6612 O 608.733 -5.64199 5.72656 0
M  V30 6613 H 608.465 -0.647026 0.195788 0
M  V30 6614 H 611.019 -1.67785 1.1848 0
M  V30 6615 H 609.249 -3.86461 -0.135945 0
M  V30 6616 H 610.938 -4.05198 0.238684 0
M  V30 6617 H 611.704 -4.01424 2.72183 0
M  V30 6618 H 607.583 -4.34481 1.54102 0
M  V30 6619 H 611.127 -4.92073 4.9448 0
M  V30 6620 H 607.024 -5.25044 3.75498 0
M  V30 6621 H 607.792 -5.82551 5.74957 0
M  V30 6622 N 610.455 -0.639598 -1.44038 0
M  V30 6623 C 611.387 0.0987684 -2.28987 0
M  V30 6624 C 612.4 0.80058 -1.41755 0
M  V30 6625 O 613.589 0.660611 -1.65826 0
M  V30 6626 C 610.689 1.16242 -3.18341 0
M  V30 6627 C 609.862 0.541447 -4.34036 0
M  V30 6628 C 608.921 1.50017 -5.04362 0
M  V30 6629 O 607.947 1.01403 -5.60095 0
M  V30 6630 N 609.149 2.83441 -5.06598 0
M  V30 6631 H 611.914 -0.630305 -2.92997 0
M  V30 6632 H 609.475 -0.481376 -1.54578 0
M  V30 6633 H 611.467 1.80429 -3.62253 0
M  V30 6634 H 610.037 1.79362 -2.56024 0
M  V30 6635 H 609.257 -0.27923 -3.9321 0
M  V30 6636 H 610.545 0.107379 -5.08687 0
M  V30 6637 H 609.943 3.2551 -4.62666 0
M  V30 6638 H 608.5 3.42966 -5.54272 0
M  V30 6639 N 611.933 1.52934 -0.380664 0
M  V30 6640 C 612.88 2.26197 0.458641 0
M  V30 6641 C 613.85 1.27462 1.06502 0
M  V30 6642 O 615.035 1.56274 1.09467 0
M  V30 6643 C 612.175 3.06571 1.58456 0
M  V30 6644 C 611.288 4.20222 1.00189 0
M  V30 6645 C 610.423 4.88007 2.09815 0
M  V30 6646 C 609.462 5.93665 1.49092 0
M  V30 6647 N 608.599 6.55081 2.52613 0
M  V30 6648 H 613.439 2.975 -0.172595 0
M  V30 6649 H 610.976 1.4678 -0.0969426 0
M  V30 6650 H 612.934 3.51455 2.24801 0
M  V30 6651 H 611.564 2.37494 2.18624 0
M  V30 6652 H 610.616 3.79714 0.228292 0
M  V30 6653 H 611.928 4.96102 0.518064 0
M  V30 6654 H 611.082 5.36151 2.83948 0
M  V30 6655 H 609.821 4.11632 2.61555 0
M  V30 6656 H 608.826 5.44868 0.7348 0
M  V30 6657 H 610.051 6.71969 0.981582 0
M  V30 6658 H 607.997 5.8155 3.03538 0
M  V30 6659 H 607.914 7.26548 2.08961 0
M  V30 6660 H 609.182 7.07871 3.26402 0
M  V30 6661 N 613.412 0.11024 1.57214 0
M  V30 6662 C 614.344 -0.873497 2.11902 0
M  V30 6663 C 615.357 -1.23588 1.05971 0
M  V30 6664 O 616.546 -1.18636 1.33371 0
M  V30 6665 C 613.646 -2.17805 2.59643 0
M  V30 6666 C 612.819 -1.98869 3.89576 0
M  V30 6667 C 611.878 -3.12974 4.23006 0
M  V30 6668 O 610.904 -2.86272 4.91973 0
M  V30 6669 N 612.106 -4.39167 3.79622 0
M  V30 6670 H 614.871 -0.406317 2.96933 0
M  V30 6671 H 612.432 -0.074437 1.61729 0
M  V30 6672 H 614.424 -2.93117 2.79042 0
M  V30 6673 H 612.994 -2.55899 1.7954 0
M  V30 6674 H 612.214 -1.078 3.79174 0
M  V30 6675 H 613.502 -1.83512 4.74553 0
M  V30 6676 H 612.9 -4.63739 3.2398 0
M  V30 6677 H 611.457 -5.11379 4.04147 0
M  V30 6678 N 614.89 -1.56749 -0.16351 0
M  V30 6679 C 615.837 -1.97011 -1.2023 0
M  V30 6680 C 616.807 -0.835186 -1.43575 0
M  V30 6681 O 617.992 -1.09594 -1.56185 0
M  V30 6682 C 615.132 -2.34186 -2.53478 0
M  V30 6683 C 614.245 -3.60893 -2.37446 0
M  V30 6684 C 613.38 -3.87245 -3.63614 0
M  V30 6685 C 612.419 -5.07274 -3.42548 0
M  V30 6686 N 611.556 -5.29719 -4.60806 0
M  V30 6687 H 616.396 -2.85562 -0.851958 0
M  V30 6688 H 613.933 -1.41292 -0.409257 0
M  V30 6689 H 615.891 -2.53764 -3.31149 0
M  V30 6690 H 614.521 -1.48736 -2.86492 0
M  V30 6691 H 613.573 -3.49185 -1.50911 0
M  V30 6692 H 614.885 -4.48722 -2.1783 0
M  V30 6693 H 614.039 -4.07232 -4.49719 0
M  V30 6694 H 612.778 -2.97806 -3.86216 0
M  V30 6695 H 611.783 -4.87177 -2.5483 0
M  V30 6696 H 613.008 -5.98251 -3.2136 0
M  V30 6697 H 610.954 -4.43233 -4.83612 0
M  V30 6698 H 610.871 -6.11786 -4.44132 0
M  V30 6699 H 612.139 -5.54192 -5.48171 0
M  V30 6700 N 616.368 0.432326 -1.51554 0
M  V30 6701 C 617.645 1.19288 -1.55015 0
M  V30 6702 C 618.025 2.08701 -0.317375 0
M  V30 6703 O 617.373 2.17602 0.697243 0
M  V30 6704 C 617.583 1.99037 -2.86679 0
M  V30 6705 C 618.931 2.55907 -3.38817 0
M  V30 6706 O 619.955 2.09243 -2.88263 0
M  V30 6707 O 618.814 3.41029 -4.27038 0
M  V30 6708 H 615.908 0.543369 -0.623441 0
M  V30 6709 H 618.454 0.440988 -1.6387 0
M  V30 6710 H 617.226 1.33397 -3.6786 0
M  V30 6711 H 616.849 2.81281 -2.8101 0
M  V30 6712 N 617.846 1.41785 0.688094 0
M  V30 6713 C 619.095 1.4084 1.44385 0
M  V30 6714 C 619.408 0.0234166 1.95586 0
M  V30 6715 O 620.614 -0.108647 2.71283 0
M  V30 6716 C 619.07 2.47675 2.61123 0
M  V30 6717 C 618.678 3.92116 2.16677 0
M  V30 6718 C 620.422 2.55877 3.38714 0
M  V30 6719 C 618.329 4.90487 3.30419 0
M  V30 6720 H 617.259 0.523787 0.542368 0
M  V30 6721 H 619.91 1.6764 0.74627 0
M  V30 6722 H 618.292 2.14018 3.33185 0
M  V30 6723 H 619.466 4.35059 1.51856 0
M  V30 6724 H 617.781 3.87642 1.5206 0
M  V30 6725 H 620.378 3.26553 4.234 0
M  V30 6726 H 620.721 1.59801 3.84408 0
M  V30 6727 H 621.254 2.88662 2.73714 0
M  V30 6728 H 617.993 5.87994 2.89729 0
M  V30 6729 H 617.513 4.52187 3.94065 0
M  V30 6730 H 619.192 5.11591 3.96085 0
M  V30 6731 N 619.324 -0.923095 1.27737 0
M  V30 6732 C 620.601 -1.64989 1.05062 0
M  V30 6733 C 620.981 -2.07018 -0.413124 0
M  V30 6734 O 620.329 -1.80797 -1.39731 0
M  V30 6735 C 620.539 -2.84847 2.01652 0
M  V30 6736 C 621.887 -3.56083 2.31279 0
M  V30 6737 O 622.911 -2.94981 1.99662 0
M  V30 6738 O 621.77 -4.66182 2.85196 0
M  V30 6739 H 618.864 -0.723357 0.400853 0
M  V30 6740 H 621.41 -0.973224 1.3902 0
M  V30 6741 H 620.182 -2.50814 3.00347 0
M  V30 6742 H 619.805 -3.60231 1.68284 0
M  V30 6743 N 620.802 -1.09834 -1.13024 0
M  V30 6744 C 622.048 -0.83819 -1.84668 0
M  V30 6745 C 622.381 0.634645 -1.83537 0
M  V30 6746 O 621.656 1.46753 -1.27647 0
M  V30 6747 C 621.939 -1.37933 -3.32636 0
M  V30 6748 C 621.792 -2.91857 -3.42257 0
M  V30 6749 C 623.111 -1.01654 -4.28199 0
M  V30 6750 H 620.23 -0.30595 -0.670495 0
M  V30 6751 H 622.872 -1.36044 -1.32635 0
M  V30 6752 H 621.022 -0.935111 -3.77078 0
M  V30 6753 H 622.694 -3.44759 -3.06495 0
M  V30 6754 H 620.937 -3.28776 -2.83 0
M  V30 6755 H 621.608 -3.24799 -4.46329 0
M  V30 6756 H 624.084 -1.39973 -3.9185 0
M  V30 6757 H 622.96 -1.42217 -5.30156 0
M  V30 6758 H 623.221 0.0747794 -4.42037 0
M  V30 6759 N 622.28 1.30327 -0.886154 0
M  V30 6760 C 623.557 1.90922 -0.425217 0
M  V30 6761 C 623.937 1.80533 1.09413 0
M  V30 6762 O 623.285 1.2233 1.92996 0
M  V30 6763 C 623.495 3.36529 -0.924638 0
M  V30 6764 C 624.843 4.13598 -0.960305 0
M  V30 6765 O 625.867 3.45377 -0.871382 0
M  V30 6766 O 624.726 5.35482 -1.09184 0
M  V30 6767 H 621.82 0.81668 -0.130238 0
M  V30 6768 H 624.366 1.38886 -0.975132 0
M  V30 6769 H 623.138 3.38181 -1.96849 0
M  V30 6770 H 622.761 3.96021 -0.353955 0
M  V30 6771 N 623.758 0.647228 1.43697 0
M  V30 6772 C 624.69 -0.0866232 2.29036 0
M  V30 6773 C 625.703 -0.793051 1.42178 0
M  V30 6774 O 626.892 -0.651807 1.66174 0
M  V30 6775 C 623.992 -1.14552 3.18953 0
M  V30 6776 C 623.165 -0.518422 4.34317 0
M  V30 6777 C 622.224 -1.4734 5.05151 0
M  V30 6778 O 621.25 -0.984312 5.60625 0
M  V30 6779 N 622.452 -2.8075 5.08094 0
M  V30 6780 H 625.217 0.645834 2.92659 0
M  V30 6781 H 622.778 0.489567 1.54321 0
M  V30 6782 H 624.77 -1.78505 3.63205 0
M  V30 6783 H 623.34 -1.78001 2.56971 0
M  V30 6784 H 622.56 0.300079 3.93056 0
M  V30 6785 H 623.848 -0.080401 5.08736 0
M  V30 6786 H 623.246 -3.23052 4.64386 0
M  V30 6787 H 621.803 -3.40022 5.56083 0
M  V30 6788 N 625.236 -1.5273 0.388769 0
M  V30 6789 C 626.476 -2.03483 -0.193372 0
M  V30 6790 C 626.84 -1.26897 -1.44087 0
M  V30 6791 O 628.041 -1.67773 -2.10014 0
M  V30 6792 C 626.312 -3.54488 -0.455325 0
M  V30 6793 S 627.871 -4.27069 -1.00783 0
M  V30 6794 H 624.689 -0.708907 -0.0545131 0
M  V30 6795 H 627.291 -1.8798 0.536993 0
M  V30 6796 H 625.995 -4.07817 0.459722 0
M  V30 6797 H 625.526 -3.74196 -1.21413 0
M  V30 6798 H 627.541 -4.40185 -2.29023 0
M  V30 6799 N 626.714 -0.118576 -1.57153 0
M  V30 6800 C 627.939 0.550582 -1.99958 0
M  V30 6801 C 628.364 1.59458 -0.997736 0
M  V30 6802 O 627.722 1.81274 0.0306269 0
M  V30 6803 C 627.77 1.15379 -3.41643 0
M  V30 6804 O 626.874 2.26932 -3.44348 0
M  V30 6805 H 626.215 0.137567 -0.649593 0
M  V30 6806 H 628.745 -0.206926 -2.03551 0
M  V30 6807 H 628.755 1.48942 -3.79843 0
M  V30 6808 H 627.43 0.389087 -4.14076 0
M  V30 6809 H 626.007 1.94812 -3.17967 0
M  V30 6810 N 628.193 1.56834 0.155195 0
M  V30 6811 C 629.103 2.009 1.21146 0
M  V30 6812 C 630.119 0.923029 1.475 0
M  V30 6813 O 631.295 1.23189 1.59331 0
M  V30 6814 C 628.36 2.37378 2.52691 0
M  V30 6815 C 627.421 3.59883 2.34057 0
M  V30 6816 C 626.654 3.94612 3.59329 0
M  V30 6817 O 626.877 3.30104 4.65175 0
M  V30 6818 O 625.811 4.87895 3.52479 0
M  V30 6819 H 629.637 2.9105 0.867371 0
M  V30 6820 H 627.222 1.44916 0.363298 0
M  V30 6821 H 629.104 2.61737 3.3026 0
M  V30 6822 H 627.779 1.50385 2.86646 0
M  V30 6823 H 626.686 3.40722 1.54465 0
M  V30 6824 H 628.019 4.47468 2.0502 0
M  V30 6825 N 629.671 -0.424282 1.51781 0
M  V30 6826 C 630.948 -1.18464 1.55646 0
M  V30 6827 C 631.328 -2.08529 0.328438 0
M  V30 6828 O 630.676 -2.17969 -0.685693 0
M  V30 6829 C 630.886 -1.97514 2.87731 0
M  V30 6830 C 632.234 -2.54106 3.40169 0
M  V30 6831 O 633.258 -2.07711 2.89369 0
M  V30 6832 O 632.117 -3.38759 4.28841 0
M  V30 6833 H 629.211 -0.540055 0.626314 0
M  V30 6834 H 631.757 -0.432291 1.64102 0
M  V30 6835 H 630.529 -1.31444 3.68562 0
M  V30 6836 H 630.152 -2.79787 2.82498 0
M  V30 6837 N 631.149 -1.42148 -0.680565 0
M  V30 6838 C 632.112 -1.4488 -1.77602 0
M  V30 6839 C 633.112 -0.337209 -1.57224 0
M  V30 6840 O 634.302 -0.597778 -1.63622 0
M  V30 6841 C 631.434 -1.27483 -3.16166 0
M  V30 6842 H 632.627 -2.42412 -1.76568 0
M  V30 6843 H 630.18 -1.28511 -0.889645 0
M  V30 6844 H 630.915 -0.30851 -3.22829 0
M  V30 6845 H 630.7 -2.08037 -3.3236 0
M  V30 6846 H 632.19 -1.32265 -3.96101 0
M  V30 6847 N 632.627 0.916307 -1.28225 0
M  V30 6848 C 634.038 1.48024 -1.13779 0
M  V30 6849 C 634.389 1.94289 0.273139 0
M  V30 6850 O 633.514 1.82226 1.16716 0
M  V30 6851 C 634.109 2.69029 -2.05935 0
M  V30 6852 C 632.668 3.2161 -1.95561 0
M  V30 6853 C 631.815 1.94321 -1.97825 0
M  V30 6854 H 634.766 0.729272 -1.40951 0
M  V30 6855 H 634.787 3.44204 -1.62184 0
M  V30 6856 H 634.299 2.35325 -3.08616 0
M  V30 6857 H 632.4 3.60045 -0.959076 0
M  V30 6858 H 632.513 3.87032 -2.82388 0
M  V30 6859 H 630.877 2.1131 -1.42198 0
M  V30 6860 H 631.66 1.62917 -3.0218 0
M  V30 6861 N 634.105 1.10431 1.1244 0
M  V30 6862 C 635.015 0.765502 2.21759 0
M  V30 6863 C 636.031 -0.236966 1.72379 0
M  V30 6864 O 637.207 -0.0757329 2.01258 0
M  V30 6865 C 634.272 0.202316 3.46109 0
M  V30 6866 C 633.333 1.26205 4.1033 0
M  V30 6867 C 632.566 0.725648 5.28744 0
M  V30 6868 O 632.789 -0.447942 5.68638 0
M  V30 6869 O 631.723 1.48555 5.83279 0
M  V30 6870 H 635.549 1.67801 2.53133 0
M  V30 6871 H 633.134 0.879443 1.20773 0
M  V30 6872 H 635.016 -0.107918 4.21262 0
M  V30 6873 H 633.691 -0.683052 3.16411 0
M  V30 6874 H 632.598 1.62514 3.36957 0
M  V30 6875 H 633.931 2.12044 4.44183 0
M  V30 6876 N 635.583 -1.29855 0.893053 0
M  V30 6877 C 636.53 -2.27909 0.364161 0
M  V30 6878 C 637.5 -1.56726 -0.550093 0
M  V30 6879 O 638.685 -1.84747 -0.47677 0
M  V30 6880 C 635.825 -3.42678 -0.408178 0
M  V30 6881 C 634.938 -4.28659 0.536212 0
M  V30 6882 C 634.073 -5.30599 -0.252521 0
M  V30 6883 C 633.112 -6.08234 0.686822 0
M  V30 6884 N 632.249 -7.02068 -0.0670902 0
M  V30 6885 H 637.089 -2.72531 1.20544 0
M  V30 6886 H 634.626 -1.34047 0.605779 0
M  V30 6887 H 636.584 -4.07986 -0.871962 0
M  V30 6888 H 635.214 -2.99103 -1.21397 0
M  V30 6889 H 634.266 -3.63584 1.1185 0
M  V30 6890 H 635.578 -4.8274 1.25552 0
M  V30 6891 H 634.732 -6.01694 -0.777801 0
M  V30 6892 H 633.471 -4.77233 -1.005 0
M  V30 6893 H 632.476 -5.3601 1.22366 0
M  V30 6894 H 633.701 -6.63689 1.43852 0
M  V30 6895 H 631.647 -6.5108 -0.801955 0
M  V30 6896 H 631.564 -7.53675 0.59243 0
M  V30 6897 H 632.832 -7.77392 -0.572851 0
M  V30 6898 N 637.061 -0.65484 -1.43351 0
M  V30 6899 C 638.301 -0.172514 -2.03671 0
M  V30 6900 C 638.665 1.19154 -1.50553 0
M  V30 6901 O 639.866 1.76737 -2.02528 0
M  V30 6902 C 638.137 -0.183982 -3.56926 0
M  V30 6903 S 639.696 0.230262 -4.38195 0
M  V30 6904 H 636.514 -0.0727503 -0.707268 0
M  V30 6905 H 639.116 -0.863537 -1.75395 0
M  V30 6906 H 637.82 -1.17945 -3.93087 0
M  V30 6907 H 637.351 0.527527 -3.89847 0
M  V30 6908 H 639.366 1.46874 -4.73965 0
M  V30 6909 N 638.539 1.52521 -0.396863 0
M  V30 6910 C 639.489 2.2348 0.451722 0
M  V30 6911 C 640.473 1.2415 1.0235 0
M  V30 6912 O 641.665 1.4945 0.948348 0
M  V30 6913 C 638.794 3.05067 1.57445 0
M  V30 6914 C 637.88 4.11799 1.01404 0
M  V30 6915 N 638.271 5.05482 0.179234 0
M  V30 6916 C 636.569 4.27064 1.28578 0
M  V30 6917 C 637.27 5.81552 -0.131202 0
M  V30 6918 N 636.246 5.41523 0.474735 0
M  V30 6919 H 640.048 2.93269 -0.192534 0
M  V30 6920 H 637.562 1.61081 -0.206591 0
M  V30 6921 H 639.559 3.54446 2.19485 0
M  V30 6922 H 638.219 2.36816 2.22145 0
M  V30 6923 H 639.23 5.17573 -0.18411 0
M  V30 6924 H 635.907 3.70042 1.93327 0
M  V30 6925 H 637.297 6.67023 -0.808061 0
M  V30 6926 N 640.017 0.126909 1.57088 0
M  V30 6927 C 640.927 -0.833867 2.1928 0
M  V30 6928 C 641.943 -1.2868 1.17122 0
M  V30 6929 O 643.119 -1.34815 1.49622 0
M  V30 6930 C 640.184 -2.0632 2.78627 0
M  V30 6931 C 639.245 -1.66143 3.95847 0
M  V30 6932 C 638.478 -2.83217 4.52354 0
M  V30 6933 O 638.701 -3.98868 4.0775 0
M  V30 6934 O 637.635 -2.59846 5.42922 0
M  V30 6935 H 641.461 -0.334564 3.01852 0
M  V30 6936 H 639.046 -0.0991091 1.49071 0
M  V30 6937 H 640.928 -2.78304 3.16425 0
M  V30 6938 H 639.603 -2.55242 1.99082 0
M  V30 6939 H 638.51 -0.912435 3.62802 0
M  V30 6940 H 639.843 -1.21957 4.76852 0
M  V30 6941 N 641.495 -1.56914 -0.146875 0
M  V30 6942 C 642.425 -2.01308 -1.1831 0
M  V30 6943 C 643.406 -0.892664 -1.44795 0
M  V30 6944 O 644.591 -1.16048 -1.55713 0
M  V30 6945 C 641.721 -2.3938 -2.51624 0
M  V30 6946 C 640.675 -3.54608 -2.3966 0
M  V30 6947 C 640.001 -3.78493 -3.77686 0
M  V30 6948 C 641.301 -4.87269 -1.88058 0
M  V30 6949 H 642.995 -2.88123 -0.813964 0
M  V30 6950 H 640.541 -1.38615 -0.3901 0
M  V30 6951 H 642.494 -2.69037 -3.24341 0
M  V30 6952 H 641.218 -1.49502 -2.90373 0
M  V30 6953 H 639.877 -3.25116 -1.69396 0
M  V30 6954 H 639.525 -2.85866 -4.13871 0
M  V30 6955 H 639.225 -4.56039 -3.70543 0
M  V30 6956 H 640.749 -4.10576 -4.51951 0
M  V30 6957 H 642.163 -5.15644 -2.50568 0
M  V30 6958 H 640.56 -5.68622 -1.91805 0
M  V30 6959 H 641.63 -4.77634 -0.836277 0
M  V30 6960 N 642.974 0.416227 -1.52004 0
M  V30 6961 C 644.385 0.995319 -1.57957 0
M  V30 6962 C 644.736 1.91744 -0.415754 0
M  V30 6963 O 643.861 2.11349 0.464808 0
M  V30 6964 C 644.456 1.81191 -2.86278 0
M  V30 6965 C 643.015 2.34115 -2.94732 0
M  V30 6966 C 642.162 1.139 -2.52828 0
M  V30 6967 H 645.113 0.196716 -1.57476 0
M  V30 6968 H 645.134 2.66859 -2.71231 0
M  V30 6969 H 644.646 1.14051 -3.70963 0
M  V30 6970 H 642.747 3.04647 -2.14525 0
M  V30 6971 H 642.86 2.65466 -3.98829 0
M  V30 6972 H 641.224 1.49081 -2.06511 0
M  V30 6973 H 642.007 0.483383 -3.3988 0
M  V30 6974 N 644.452 1.42507 0.673017 0
M  V30 6975 C 645.682 1.46261 1.45916 0
M  V30 6976 C 646.09 0.0729724 1.89059 0
M  V30 6977 O 645.433 -0.922987 1.58829 0
M  V30 6978 C 645.495 2.32853 2.73898 0
M  V30 6979 C 645.159 3.80699 2.52819 0
M  V30 6980 C 646.156 4.72307 2.17306 0
M  V30 6981 C 643.841 4.24983 2.67758 0
M  V30 6982 C 645.835 6.06192 1.97003 0
M  V30 6983 C 643.522 5.58927 2.4707 0
M  V30 6984 C 644.52 6.49348 2.11746 0
M  V30 6985 O 644.208 7.80817 1.91259 0
M  V30 6986 H 643.94 0.499561 0.455428 0
M  V30 6987 H 646.494 1.87697 0.834196 0
M  V30 6988 H 644.724 1.86268 3.38882 0
M  V30 6989 H 646.413 2.28041 3.35786 0
M  V30 6990 H 647.179 4.39378 2.05359 0
M  V30 6991 H 643.058 3.54893 2.94231 0
M  V30 6992 H 646.602 6.76731 1.69355 0
M  V30 6993 H 642.499 5.91429 2.58615 0
M  V30 6994 H 643.267 7.92194 2.05843 0
M  V30 6995 N 645.93 -0.909495 1.28709 0
M  V30 6996 C 647.177 -1.65905 1.16111 0
M  V30 6997 C 647.505 -1.92334 -0.289436 0
M  V30 6998 O 646.76 -1.52495 -1.22653 0
M  V30 6999 C 647.059 -3.02117 1.90945 0
M  V30 7000 C 646.725 -2.95332 3.40719 0
M  V30 7001 C 645.387 -2.93189 3.81567 0
M  V30 7002 C 647.739 -2.85264 4.36204 0
M  V30 7003 C 645.067 -2.78784 5.16233 0
M  V30 7004 C 647.419 -2.724 5.70948 0
M  V30 7005 C 646.083 -2.68617 6.11066 0
M  V30 7006 H 645.353 -0.60709 0.42488 0
M  V30 7007 H 648 -1.05932 1.59533 0
M  V30 7008 H 646.305 -3.65901 1.40085 0
M  V30 7009 H 648.002 -3.59026 1.7861 0
M  V30 7010 H 644.592 -2.97797 3.08245 0
M  V30 7011 H 648.776 -2.86005 4.05605 0
M  V30 7012 H 644.032 -2.74254 5.46438 0
M  V30 7013 H 648.206 -2.63579 6.44592 0
M  V30 7014 H 645.833 -2.57213 7.15364 0
M  V30 7015 N 647.408 -1.11026 -1.11852 0
M  V30 7016 C 648.356 -0.759643 -2.19846 0
M  V30 7017 C 649.35 0.246964 -1.6759 0
M  V30 7018 O 650.556 0.106693 -1.79684 0
M  V30 7019 H 646.931 -0.22775 -0.716683 0
M  V30 7020 H 648.902 -1.6792 -2.46669 0
M  V30 7021 C 647.651 -0.214364 -3.47039 0
M  V30 7022 H 646.974 -0.980175 -3.87599 0
M  V30 7023 H 648.414 -0.00717047 -4.23999 0
M  V30 7024 C 646.873 1.05436 -3.19976 0
M  V30 7025 O 647.403 2.13483 -3.40276 0
M  V30 7026 N 645.609 0.975436 -2.7374 0
M  V30 7027 H 645.156 0.0960853 -2.57421 0
M  V30 7028 H 645.114 1.82501 -2.5601 0
M  V30 7029 N 648.886 1.2938 -0.899927 0
M  V30 7030 C 650.135 1.9483 -0.521937 0
M  V30 7031 C 650.448 1.71725 0.936473 0
M  V30 7032 O 651.654 2.31282 1.42199 0
M  V30 7033 C 650.11 3.48911 -0.88255 0
M  V30 7034 C 649.718 3.80815 -2.35974 0
M  V30 7035 C 651.462 4.20595 -0.57448 0
M  V30 7036 C 649.369 5.28142 -2.66121 0
M  V30 7037 H 648.299 0.729285 -0.191468 0
M  V30 7038 H 650.95 1.47103 -1.09695 0
M  V30 7039 H 649.332 3.95293 -0.236459 0
M  V30 7040 H 650.506 3.45291 -3.05141 0
M  V30 7041 H 648.821 3.22271 -2.63686 0
M  V30 7042 H 651.418 5.29031 -0.776556 0
M  V30 7043 H 651.761 4.13442 0.487005 0
M  V30 7044 H 652.294 3.79945 -1.17842 0
M  V30 7045 H 649.033 5.4036 -3.71068 0
M  V30 7046 H 648.553 5.64913 -2.01578 0
M  V30 7047 H 650.232 5.95738 -2.52399 0
M  V30 7048 N 650.364 0.662433 1.43002 0
M  V30 7049 C 651.78 0.330835 1.56133 0
M  V30 7050 C 651.98 -1.16454 1.64441 0
M  V30 7051 O 651.036 -1.94964 1.60453 0
M  V30 7052 C 652.349 1.05029 2.81761 0
M  V30 7053 C 653.897 1.03142 2.95518 0
M  V30 7054 C 654.372 1.73196 4.2399 0
M  V30 7055 N 655.863 1.70004 4.30875 0
M  V30 7056 C 656.598 2.21074 5.29069 0
M  V30 7057 N 656.094 2.80473 6.33488 0
M  V30 7058 N 657.887 2.1152 5.20784 0
M  V30 7059 H 650.038 1.63272 1.35853 0
M  V30 7060 H 652.301 0.687149 0.653092 0
M  V30 7061 H 652.007 2.10542 2.81718 0
M  V30 7062 H 651.881 0.607664 3.72273 0
M  V30 7063 H 654.268 -0.0153339 2.95096 0
M  V30 7064 H 654.349 1.51282 2.0627 0
M  V30 7065 H 653.993 2.77833 4.25172 0
M  V30 7066 H 653.923 1.22515 5.1215 0
M  V30 7067 H 656.414 1.26667 3.56039 0
M  V30 7068 H 656.727 3.17094 7.04749 0
M  V30 7069 H 655.072 2.84538 6.34085 0
M  V30 7070 H 658.263 1.64814 4.38126 0
M  V30 7071 H 658.436 2.51629 5.97149 0
M  V30 7072 N 651.842 -1.52309 0.404946 0
M  V30 7073 C 653.119 -1.94237 -0.230544 0
M  V30 7074 C 653.499 -1.34154 -1.6299 0
M  V30 7075 O 652.847 -0.515713 -2.22604 0
M  V30 7076 C 653.057 -3.48166 -0.241106 0
M  V30 7077 C 654.405 -4.22074 -0.462488 0
M  V30 7078 O 655.429 -3.54754 -0.320644 0
M  V30 7079 O 654.288 -5.41443 -0.741708 0
M  V30 7080 H 651.382 -0.813766 -0.147358 0
M  V30 7081 H 653.928 -1.6333 0.460587 0
M  V30 7082 H 652.7 -3.84269 0.738467 0
M  V30 7083 H 652.323 -3.85422 -0.97651 0
M  V30 7084 N 653.32 -0.135238 -1.57019 0
M  V30 7085 C 654.569 0.518694 -1.94917 0
M  V30 7086 C 654.882 1.66783 -1.0219 0
M  V30 7087 O 656.088 2.38561 -1.29619 0
M  V30 7088 C 654.544 0.974123 -3.46466 0
M  V30 7089 C 654.152 -0.147439 -4.47757 0
M  V30 7090 C 655.896 1.59851 -3.93253 0
M  V30 7091 C 653.803 0.325599 -5.90503 0
M  V30 7092 H 652.733 0.19754 -0.727663 0
M  V30 7093 H 655.384 -0.217698 -1.82204 0
M  V30 7094 H 653.766 1.76542 -3.5447 0
M  V30 7095 H 654.94 -0.924122 -4.51438 0
M  V30 7096 H 653.255 -0.679496 -4.10818 0
M  V30 7097 H 655.852 1.96385 -4.9733 0
M  V30 7098 H 656.195 2.48306 -3.3414 0
M  V30 7099 H 656.728 0.872323 -3.88118 0
M  V30 7100 H 653.467 -0.523295 -6.53408 0
M  V30 7101 H 652.987 1.06841 -5.90208 0
M  V30 7102 H 654.666 0.781498 -6.42263 0
M  V30 7103 N 654.798 1.5699 0.138552 0
M  V30 7104 C 656.028 1.87704 0.863184 0
M  V30 7105 C 656.436 0.722411 1.74865 0
M  V30 7106 O 655.779 -0.316636 1.80951 0
M  V30 7107 C 655.841 3.13219 1.76449 0
M  V30 7108 C 655.505 4.44648 1.05532 0
M  V30 7109 C 656.502 5.18318 0.405252 0
M  V30 7110 C 654.187 4.91367 1.04231 0
M  V30 7111 C 656.181 6.36916 -0.24835 0
M  V30 7112 C 653.868 6.09887 0.384904 0
M  V30 7113 C 654.866 6.82508 -0.259292 0
M  V30 7114 O 654.554 7.98775 -0.906258 0
M  V30 7115 H 654.286 0.626255 0.254521 0
M  V30 7116 H 656.84 2.04966 0.133472 0
M  V30 7117 H 655.07 2.91988 2.53535 0
M  V30 7118 H 656.759 3.30111 2.36181 0
M  V30 7119 H 657.525 4.83289 0.407053 0
M  V30 7120 H 653.404 4.34759 1.53315 0
M  V30 7121 H 656.948 6.93538 -0.751755 0
M  V30 7122 H 652.845 6.44376 0.380799 0
M  V30 7123 H 653.613 8.14494 -0.80877 0
M  V30 7124 N 656.276 -0.40816 1.52223 0
M  V30 7125 C 657.239 -1.48 1.7501 0
M  V30 7126 C 658.239 -1.48367 0.619996 0
M  V30 7127 O 659.429 -1.49874 0.887881 0
M  V30 7128 C 656.561 -2.87403 1.83336 0
M  V30 7129 H 657.754 -1.29086 2.70697 0
M  V30 7130 H 655.307 -0.638715 1.42654 0
M  V30 7131 H 656.042 -3.11686 0.895677 0
M  V30 7132 H 655.827 -2.8854 2.65494 0
M  V30 7133 H 657.317 -3.65103 2.02705 0
M  V30 7134 N 657.755 -1.42862 -0.66545 0
M  V30 7135 C 658.687 -1.43026 -1.79098 0
M  V30 7136 C 659.7 -0.32803 -1.59461 0
M  V30 7137 O 660.889 -0.591709 -1.68407 0
M  V30 7138 C 657.989 -1.21566 -3.16346 0
M  V30 7139 C 657.162 -2.44399 -3.62751 0
M  V30 7140 C 656.221 -2.18344 -4.78761 0
M  V30 7141 O 655.247 -2.91611 -4.88827 0
M  V30 7142 N 656.449 -1.1924 -5.68122 0
M  V30 7143 H 659.214 -2.40045 -1.79439 0
M  V30 7144 H 656.775 -1.37861 -0.848872 0
M  V30 7145 H 658.767 -1.02037 -3.91625 0
M  V30 7146 H 657.337 -0.330368 -3.10849 0
M  V30 7147 H 656.557 -2.79433 -2.78048 0
M  V30 7148 H 657.845 -3.26173 -3.90498 0
M  V30 7149 H 657.243 -0.586603 -5.6265 0
M  V30 7150 H 655.8 -1.05698 -6.43173 0
M  V30 7151 N 659.233 0.902656 -1.29189 0
M  V30 7152 C 660.649 1.18296 -1.07137 0
M  V30 7153 C 660.849 2.00701 0.179223 0
M  V30 7154 O 659.905 2.3675 0.877812 0
M  V30 7155 C 661.218 1.90677 -2.32514 0
M  V30 7156 C 662.766 2.03515 -2.37804 0
M  V30 7157 C 663.241 2.79307 -3.62976 0
M  V30 7158 N 664.732 2.86862 -3.63681 0
M  V30 7159 C 665.467 3.46035 -4.57217 0
M  V30 7160 N 664.963 4.06399 -5.61081 0
M  V30 7161 N 666.756 3.43681 -4.44792 0
M  V30 7162 H 658.907 0.352765 -2.0945 0
M  V30 7163 H 661.17 0.21876 -0.922414 0
M  V30 7164 H 660.876 1.3756 -3.23682 0
M  V30 7165 H 660.75 2.91169 -2.39793 0
M  V30 7166 H 663.137 2.55809 -1.47125 0
M  V30 7167 H 663.218 1.02166 -2.34512 0
M  V30 7168 H 662.862 2.2769 -4.54004 0
M  V30 7169 H 662.792 3.80995 -3.63525 0
M  V30 7170 H 665.283 2.43987 -2.88581 0
M  V30 7171 H 665.596 4.49564 -6.2858 0
M  V30 7172 H 663.941 4.0487 -5.64894 0
M  V30 7173 H 667.132 2.9574 -3.62843 0
M  V30 7174 H 667.305 3.89503 -5.17872 0
M  V30 7175 N 660.711 1.11618 1.11262 0
M  V30 7176 C 661.644 0.719995 2.16544 0
M  V30 7177 C 662.622 -0.28471 1.60088 0
M  V30 7178 O 663.806 -0.180693 1.87632 0
M  V30 7179 C 660.933 0.0643302 3.38639 0
M  V30 7180 C 659.979 1.03448 4.13764 0
M  V30 7181 S 660.812 2.55789 4.70459 0
M  V30 7182 C 661.968 1.91529 5.95875 0
M  V30 7183 H 662.201 1.61181 2.49816 0
M  V30 7184 H 659.734 0.934401 1.22916 0
M  V30 7185 H 661.692 -0.307609 4.09346 0
M  V30 7186 H 660.353 -0.804471 3.03623 0
M  V30 7187 H 659.546 0.523188 5.01277 0
M  V30 7188 H 659.148 1.34893 3.48826 0
M  V30 7189 H 661.44 1.25286 6.65815 0
M  V30 7190 H 662.383 2.77047 6.51652 0
M  V30 7191 H 662.791 1.37468 5.47506 0
M  V30 7192 N 662.189 -1.289 0.906776 0
M  V30 7193 C 663.139 -2.25122 0.361109 0
M  V30 7194 C 664.123 -1.52169 -0.52283 0
M  V30 7195 O 665.315 -1.73223 -0.363691 0
M  V30 7196 C 662.444 -3.40915 -0.403982 0
M  V30 7197 C 661.53 -4.21198 0.495279 0
M  V30 7198 N 661.921 -4.79636 1.60572 0
M  V30 7199 C 660.219 -4.45027 0.294372 0
M  V30 7200 C 660.92 -5.39977 2.16332 0
M  V30 7201 N 659.896 -5.23753 1.45546 0
M  V30 7202 H 663.698 -2.67869 1.20927 0
M  V30 7203 H 661.212 -1.43592 0.758632 0
M  V30 7204 H 663.209 -4.08922 -0.811695 0
M  V30 7205 H 661.869 -2.99703 -1.24932 0
M  V30 7206 H 662.88 -4.78209 1.98838 0
M  V30 7207 H 659.557 -4.14348 -0.512021 0
M  V30 7208 H 660.947 -5.96266 3.09704 0
M  V30 7209 N 663.667 -0.670007 -1.42649 0
M  V30 7210 C 664.895 -0.19854 -2.05945 0
M  V30 7211 C 665.31 1.14243 -1.50313 0
M  V30 7212 O 664.667 1.70872 -0.641027 0
M  V30 7213 C 664.718 -0.11966 -3.61302 0
M  V30 7214 O 664.439 -1.40764 -4.1487 0
M  V30 7215 C 665.94 0.375878 -4.41704 0
M  V30 7216 H 663.16 -0.0976894 -0.663851 0
M  V30 7217 H 665.704 -0.915392 -1.82868 0
M  V30 7218 H 663.859 0.547851 -3.83507 0
M  V30 7219 H 664.273 -1.27784 -5.08696 0
M  V30 7220 H 665.747 0.379988 -5.50691 0
M  V30 7221 H 666.224 1.41028 -4.15942 0
M  V30 7222 H 666.83 -0.259727 -4.24506 0
M  V30 7223 N 665.145 1.52092 -0.413018 0
M  V30 7224 C 666.392 2.01855 0.161497 0
M  V30 7225 C 666.72 1.29845 1.44812 0
M  V30 7226 O 665.975 0.394471 1.91683 0
M  V30 7227 C 666.274 3.54529 0.4521 0
M  V30 7228 C 665.94 4.4469 -0.745788 0
M  V30 7229 C 664.602 4.69053 -1.07435 0
M  V30 7230 C 666.954 4.97742 -1.54604 0
M  V30 7231 C 664.282 5.43717 -2.20429 0
M  V30 7232 C 666.634 5.73642 -2.66678 0
M  V30 7233 C 665.298 5.96277 -3.00016 0
M  V30 7234 H 664.568 0.73864 0.0590961 0
M  V30 7235 H 667.215 1.83274 -0.555234 0
M  V30 7236 H 665.52 3.7131 1.25045 0
M  V30 7237 H 667.217 3.90546 0.909647 0
M  V30 7238 H 663.807 4.25907 -0.479725 0
M  V30 7239 H 667.991 4.78824 -1.30543 0
M  V30 7240 H 663.247 5.59462 -2.46602 0
M  V30 7241 H 667.421 6.13746 -3.29072 0
M  V30 7242 H 665.048 6.53913 -3.87688 0
M  V30 7243 N 666.623 0.143563 1.56945 0
M  V30 7244 C 667.872 -0.50835 1.95189 0
M  V30 7245 C 668.185 -1.66239 1.03073 0
M  V30 7246 O 669.391 -2.3787 1.30882 0
M  V30 7247 C 667.847 -0.955735 3.46978 0
M  V30 7248 C 667.455 0.171183 4.47673 0
M  V30 7249 C 669.199 -1.57763 3.94095 0
M  V30 7250 C 667.106 -0.294279 5.90667 0
M  V30 7251 H 666.036 -0.193679 0.728701 0
M  V30 7252 H 668.687 0.227357 1.82086 0
M  V30 7253 H 667.069 -1.7466 3.55401 0
M  V30 7254 H 668.243 0.948049 4.50942 0
M  V30 7255 H 666.558 0.701273 4.10452 0
M  V30 7256 H 669.155 -1.93745 4.98364 0
M  V30 7257 H 669.498 -2.46531 3.35452 0
M  V30 7258 H 670.031 -0.851728 3.88575 0
M  V30 7259 H 666.77 0.557939 6.53121 0
M  V30 7260 H 666.29 -1.0371 5.90766 0
M  V30 7261 H 667.969 -0.747426 6.42668 0
M  V30 7262 N 668.101 -1.57061 -0.130224 0
M  V30 7263 C 669.329 -1.88432 -0.854456 0
M  V30 7264 C 669.744 -0.733608 -1.73964 0
M  V30 7265 O 669.101 0.296029 -1.80083 0
M  V30 7266 C 669.152 -3.1918 -1.69724 0
M  V30 7267 O 668.873 -4.2982 -0.847705 0
M  V30 7268 C 670.374 -3.6418 -2.5276 0
M  V30 7269 H 667.594 -0.624193 -0.246221 0
M  V30 7270 H 670.138 -2.04159 -0.11798 0
M  V30 7271 H 668.293 -3.05156 -2.3866 0
M  V30 7272 H 668.707 -5.04689 -1.42792 0
M  V30 7273 H 670.181 -4.58457 -3.07443 0
M  V30 7274 H 670.658 -2.90285 -3.29592 0
M  V30 7275 H 671.264 -3.80954 -1.89087 0
M  V30 7276 N 669.579 0.400081 -1.52437 0
M  V30 7277 C 670.804 1.17221 -1.71096 0
M  V30 7278 C 671.229 1.83269 -0.423565 0
M  V30 7279 O 670.587 1.70378 0.619751 0
M  V30 7280 C 670.635 2.20425 -2.85386 0
M  V30 7281 O 669.739 3.26769 -2.51586 0
M  V30 7282 H 669.08 0.341766 -0.569291 0
M  V30 7283 H 671.61 0.467772 -1.99181 0
M  V30 7284 H 671.62 2.64605 -3.10561 0
M  V30 7285 H 670.295 1.71737 -3.78786 0
M  V30 7286 H 668.872 2.87804 -2.37114 0
M  V30 7287 N 671.057 1.43213 0.657864 0
M  V30 7288 C 671.987 1.50815 1.78262 0
M  V30 7289 C 672.968 0.363211 1.66177 0
M  V30 7290 O 674.153 0.579806 1.85343 0
M  V30 7291 C 671.283 1.42625 3.16663 0
M  V30 7292 C 670.237 2.5532 3.43505 0
M  V30 7293 C 669.563 2.32184 4.81658 0
M  V30 7294 C 670.863 3.97583 3.38711 0
M  V30 7295 H 672.557 2.44954 1.72157 0
M  V30 7296 H 670.103 1.17896 0.82683 0
M  V30 7297 H 672.056 1.46548 3.95097 0
M  V30 7298 H 670.78 0.449877 3.23487 0
M  V30 7299 H 669.439 2.50742 2.6744 0
M  V30 7300 H 669.087 1.32801 4.85153 0
M  V30 7301 H 668.787 3.07724 5.00579 0
M  V30 7302 H 670.311 2.37883 5.62356 0
M  V30 7303 H 671.725 4.03673 4.07089 0
M  V30 7304 H 670.122 4.73112 3.69168 0
M  V30 7305 H 671.192 4.23049 2.36976 0
M  V30 7306 N 672.536 -0.895792 1.29666 0
M  V30 7307 C 673.761 -1.68528 1.20885 0
M  V30 7308 C 674.186 -1.8673 -0.226595 0
M  V30 7309 O 673.544 -1.39044 -1.16347 0
M  V30 7310 C 673.592 -3.04512 1.93144 0
M  V30 7311 O 672.696 -3.92963 1.25115 0
M  V30 7312 H 672.037 -0.515371 0.418675 0
M  V30 7313 H 674.567 -1.11878 1.71302 0
M  V30 7314 H 674.577 -3.54628 2.0175 0
M  V30 7315 H 673.252 -2.90582 2.97548 0
M  V30 7316 H 671.829 -3.51399 1.24794 0
M  V30 7317 N 674.014 -1.12206 -1.10668 0
M  V30 7318 C 675.239 -0.898938 -1.86906 0
M  V30 7319 C 675.664 0.546346 -1.79991 0
M  V30 7320 O 675.022 1.38655 -1.1681 0
M  V30 7321 C 675.07 -1.37529 -3.33344 0
M  V30 7322 O 674.174 -0.55218 -4.08687 0
M  V30 7323 H 673.515 -0.323163 -0.580053 0
M  V30 7324 H 676.045 -1.49355 -1.39837 0
M  V30 7325 H 676.055 -1.3733 -3.84193 0
M  V30 7326 H 674.73 -2.42767 -3.37693 0
M  V30 7327 H 673.307 -0.620947 -3.67694 0
M  V30 7328 N 675.492 1.28418 -0.913599 0
M  V30 7329 C 676.738 1.9527 -0.547484 0
M  V30 7330 C 677.071 1.71745 0.906486 0
M  V30 7331 O 676.346 1.03834 1.64465 0
M  V30 7332 C 676.629 3.49748 -0.857205 0
M  V30 7333 C 676.482 3.82675 -2.3639 0
M  V30 7334 C 677.801 4.3868 -0.353258 0
M  V30 7335 H 674.92 0.709236 -0.200381 0
M  V30 7336 H 677.562 1.51789 -1.14281 0
M  V30 7337 H 675.712 3.86915 -0.350548 0
M  V30 7338 H 677.384 3.55378 -2.94116 0
M  V30 7339 H 675.627 3.29724 -2.81894 0
M  V30 7340 H 676.298 4.90547 -2.53115 0
M  V30 7341 H 678.774 4.08584 -0.787288 0
M  V30 7342 H 677.65 5.45621 -0.599049 0
M  V30 7343 H 677.911 4.35753 0.746413 0
M  V30 7344 N 676.97 0.677563 1.42291 0
M  V30 7345 C 678.218 0.200578 2.01102 0
M  V30 7346 C 678.539 -1.19803 1.53858 0
M  V30 7347 O 677.809 -1.80496 0.761439 0
M  V30 7348 H 676.389 0.0711634 0.743603 0
M  V30 7349 H 679.051 0.874691 1.7417 0
M  V30 7350 H 678.147 0.204 3.11433 0
M  V30 7351 N 678.448 -1.51871 0.421078 0
M  V30 7352 C 679.697 -2.01125 -0.152206 0
M  V30 7353 C 680.01 -1.3106 -1.45199 0
M  V30 7354 O 681.216 -1.71195 -2.10724 0
M  V30 7355 C 679.672 -3.58458 -0.3218 0
M  V30 7356 C 679.28 -4.37448 0.96659 0
M  V30 7357 C 681.024 -4.15908 -0.84973 0
M  V30 7358 C 678.931 -5.86451 0.763529 0
M  V30 7359 H 677.861 -0.751556 -0.0606565 0
M  V30 7360 H 680.512 -1.75115 0.548354 0
M  V30 7361 H 678.894 -3.80847 -1.08498 0
M  V30 7362 H 680.068 -4.26814 1.73684 0
M  V30 7363 H 678.383 -3.91373 1.42183 0
M  V30 7364 H 680.98 -5.24922 -1.01788 0
M  V30 7365 H 681.323 -3.74031 -1.82774 0
M  V30 7366 H 681.856 -3.97535 -0.145297 0
M  V30 7367 H 678.595 -6.3271 1.71344 0
M  V30 7368 H 678.115 -5.99791 0.0327889 0
M  V30 7369 H 679.794 -6.45697 0.410354 0
M  V30 7370 N 679.926 -0.151884 -1.56866 0
M  V30 7371 C 681.172 0.498742 -1.96572 0
M  V30 7372 C 681.505 1.64194 -1.03702 0
M  V30 7373 O 680.78 1.94334 -0.0803432 0
M  V30 7374 C 681.063 1.00027 -3.45929 0
M  V30 7375 C 680.916 -0.141767 -4.49577 0
M  V30 7376 C 682.235 1.88044 -3.97904 0
M  V30 7377 H 679.354 0.17982 -0.714726 0
M  V30 7378 H 681.996 -0.234097 -1.88552 0
M  V30 7379 H 680.146 1.62476 -3.52894 0
M  V30 7380 H 681.818 -0.778269 -4.54687 0
M  V30 7381 H 680.061 -0.80019 -4.26356 0
M  V30 7382 H 680.732 0.250947 -5.51429 0
M  V30 7383 H 683.208 1.35416 -3.93449 0
M  V30 7384 H 682.084 2.20043 -5.02864 0
M  V30 7385 H 682.345 2.81916 -3.40552 0
M  V30 7386 N 681.404 1.57128 0.121893 0
M  V30 7387 C 682.65 1.84974 0.831418 0
M  V30 7388 C 682.983 0.737204 1.79663 0
M  V30 7389 O 682.258 -0.257199 1.92792 0
M  V30 7390 C 682.541 3.23397 1.58386 0
M  V30 7391 C 682.394 4.45246 0.638445 0
M  V30 7392 C 683.713 3.59355 2.54071 0
M  V30 7393 H 680.832 0.67282 0.300803 0
M  V30 7394 H 683.474 1.89759 0.0957587 0
M  V30 7395 H 681.624 3.19449 2.21098 0
M  V30 7396 H 683.296 4.61295 0.0203925 0
M  V30 7397 H 681.539 4.33771 -0.05023 0
M  V30 7398 H 682.21 5.38765 1.20151 0
M  V30 7399 H 684.686 3.64075 2.01465 0
M  V30 7400 H 683.562 4.57193 3.03752 0
M  V30 7401 H 683.823 2.86622 3.36601 0
M  V30 7402 N 682.882 -0.391992 1.52647 0
M  V30 7403 C 684.107 -1.16312 1.71716 0
M  V30 7404 C 684.532 -1.83042 0.433279 0
M  V30 7405 O 683.89 -1.70705 -0.610707 0
M  V30 7406 C 683.938 -2.18908 2.86551 0
M  V30 7407 O 683.042 -3.2543 2.53316 0
M  V30 7408 H 682.383 -0.338743 0.571095 0
M  V30 7409 H 684.913 -0.457202 1.99426 0
M  V30 7410 H 684.923 -2.62954 3.1196 0
M  V30 7411 H 683.598 -1.69726 3.79692 0
M  V30 7412 H 682.175 -2.86543 2.38637 0
M  V30 7413 N 684.36 -1.4356 -0.65026 0
M  V30 7414 C 685.637 -1.35811 -1.40765 0
M  V30 7415 C 686.017 -0.00736379 -2.11099 0
M  V30 7416 O 685.365 1.00932 -2.05 0
M  V30 7417 C 685.575 -2.54332 -2.3899 0
M  V30 7418 C 686.923 -2.97551 -3.02901 0
M  V30 7419 O 687.947 -2.544 -2.49317 0
M  V30 7420 O 686.806 -3.72311 -4.00059 0
M  V30 7421 H 683.9 -0.536861 -0.629054 0
M  V30 7422 H 686.446 -1.55615 -0.676919 0
M  V30 7423 H 685.218 -3.44274 -1.85986 0
M  V30 7424 H 684.841 -2.36643 -3.19509 0
M  V30 7425 N 685.838 0.888903 -1.30139 0
M  V30 7426 C 687.249 1.45578 -1.16893 0
M  V30 7427 C 687.6 1.94825 0.231866 0
M  V30 7428 O 686.725 1.84661 1.12824 0
M  V30 7429 C 687.32 2.646 -2.11595 0
M  V30 7430 C 685.879 3.17389 -2.02339 0
M  V30 7431 C 685.026 1.90081 -2.01902 0
M  V30 7432 H 687.977 0.69921 -1.42467 0
M  V30 7433 H 687.998 3.40687 -1.69449 0
M  V30 7434 H 687.51 2.28726 -3.13538 0
M  V30 7435 H 685.611 3.5793 -1.03523 0
M  V30 7436 H 685.724 3.80955 -2.90534 0
M  V30 7437 H 684.088 2.08246 -1.46648 0
M  V30 7438 H 684.871 1.5647 -3.05568 0
M  V30 7439 N 687.317 1.12792 1.10072 0
M  V30 7440 C 688.594 0.796867 1.78632 0
M  V30 7441 C 688.974 -0.712739 1.98704 0
M  V30 7442 O 688.322 -1.64773 1.5831 0
M  V30 7443 C 688.532 1.57622 3.11378 0
M  V30 7444 C 689.88 1.76463 3.86194 0
M  V30 7445 O 690.904 1.54165 3.2111 0
M  V30 7446 O 689.763 2.13623 5.03018 0
M  V30 7447 H 686.857 0.290248 0.774394 0
M  V30 7448 H 689.403 1.23215 1.16688 0
M  V30 7449 H 688.175 2.60246 2.92212 0
M  V30 7450 H 687.798 1.13543 3.81043 0
M  V30 7451 N 688.795 -1.27931 0.920396 0
M  V30 7452 C 690.02 -1.99343 0.572478 0
M  V30 7453 C 690.445 -1.68267 -0.840696 0
M  V30 7454 O 689.803 -0.918805 -1.56294 0
M  V30 7455 C 689.851 -3.51698 0.796284 0
M  V30 7456 O 688.955 -4.12157 -0.141602 0
M  V30 7457 H 688.296 -0.626065 0.221221 0
M  V30 7458 H 690.826 -1.62921 1.23765 0
M  V30 7459 H 690.836 -4.01793 0.708984 0
M  V30 7460 H 689.511 -3.73649 1.82644 0
M  V30 7461 H 688.088 -3.729 -0.005007 0
M  V30 7462 N 690.273 -0.685099 -1.4193 0
M  V30 7463 C 691.501 -0.220372 -2.05723 0
M  V30 7464 C 691.916 1.12642 -1.51516 0
M  V30 7465 O 691.273 1.70182 -0.659114 0
M  V30 7466 C 691.324 -0.157974 -3.61155 0
M  V30 7467 O 691.045 -1.45156 -4.13354 0
M  V30 7468 C 692.546 0.329009 -4.42077 0
M  V30 7469 H 689.766 -0.104725 -0.662777 0
M  V30 7470 H 692.31 -0.934736 -1.81887 0
M  V30 7471 H 690.465 0.507144 -3.84066 0
M  V30 7472 H 690.879 -1.33172 -5.07312 0
M  V30 7473 H 692.353 0.321559 -5.51063 0
M  V30 7474 H 692.83 1.36608 -4.17414 0
M  V30 7475 H 693.436 -0.304737 -4.24207 0
M  V30 7476 N 691.751 1.51645 -0.429126 0
M  V30 7477 C 693.028 1.94579 0.199614 0
M  V30 7478 C 693.408 1.3673 1.60836 0
M  V30 7479 O 692.756 0.551062 2.21756 0
M  V30 7480 C 692.966 3.48506 0.185685 0
M  V30 7481 C 694.314 4.22756 0.395282 0
M  V30 7482 O 695.338 3.55219 0.264165 0
M  V30 7483 O 694.197 5.42555 0.655475 0
M  V30 7484 H 691.291 0.816007 0.134393 0
M  V30 7485 H 693.837 1.62577 -0.486513 0
M  V30 7486 H 692.609 3.83045 -0.799508 0
M  V30 7487 H 692.232 3.86927 0.91507 0
M  V30 7488 N 693.229 0.160201 1.56784 0
M  V30 7489 C 694.192 -0.760405 2.16219 0
M  V30 7490 C 695.192 -1.16595 1.10735 0
M  V30 7491 O 696.382 -1.08472 1.36306 0
M  V30 7492 C 693.514 -2.03358 2.73603 0
M  V30 7493 H 694.707 -0.243173 2.98912 0
M  V30 7494 H 692.26 -0.0893139 1.56045 0
M  V30 7495 H 692.995 -2.59416 1.94612 0
M  V30 7496 H 692.78 -1.75186 3.50788 0
M  V30 7497 H 694.27 -2.69081 3.19351 0
M  V30 7498 N 694.707 -1.5719 -0.113559 0
M  V30 7499 C 695.932 -1.89702 -0.838336 0
M  V30 7500 C 696.357 -0.752679 -1.72384 0
M  V30 7501 O 695.715 0.296575 -1.78858 0
M  V30 7502 C 695.763 -3.20989 -1.64312 0
M  V30 7503 O 694.867 -3.07278 -2.75053 0
M  V30 7504 H 694.208 -0.622339 -0.231496 0
M  V30 7505 H 696.738 -2.04382 -0.0943228 0
M  V30 7506 H 696.748 -3.53843 -2.03123 0
M  V30 7507 H 695.423 -4.03869 -0.993119 0
M  V30 7508 H 694 -2.85901 -2.39406 0
M  V30 7509 N 696.185 0.383891 -1.52853 0
M  V30 7510 C 697.41 1.154 -1.7233 0
M  V30 7511 C 697.835 1.82809 -0.44298 0
M  V30 7512 O 697.193 1.71026 0.601645 0
M  V30 7513 C 697.241 2.17386 -2.87708 0
M  V30 7514 O 696.345 3.24082 -2.55038 0
M  V30 7515 H 695.686 0.335709 -0.572883 0
M  V30 7516 H 698.216 0.44662 -1.99666 0
M  V30 7517 H 698.226 2.61296 -3.1335 0
M  V30 7518 H 696.901 1.6771 -3.80587 0
M  V30 7519 H 695.478 2.85273 -2.40153 0
M  V30 7520 N 697.663 1.43903 0.642637 0
M  V30 7521 C 698.912 1.45362 1.39831 0
M  V30 7522 C 699.225 0.0856289 1.95412 0
M  V30 7523 O 700.431 -0.0222856 2.71491 0
M  V30 7524 C 698.887 2.55857 2.53111 0
M  V30 7525 C 698.495 3.98811 2.04092 0
M  V30 7526 C 700.239 2.66524 3.30402 0
M  V30 7527 C 698.146 5.00751 3.14647 0
M  V30 7528 H 697.076 0.540777 0.52543 0
M  V30 7529 H 699.727 1.69929 0.692559 0
M  V30 7530 H 698.109 2.2451 3.26207 0
M  V30 7531 H 699.283 4.3967 1.37938 0
M  V30 7532 H 697.598 3.92284 1.39651 0
M  V30 7533 H 700.195 3.39858 4.12796 0
M  V30 7534 H 700.538 1.71949 3.79129 0
M  V30 7535 H 701.071 2.97224 2.64392 0
M  V30 7536 H 697.81 5.96914 2.70876 0
M  V30 7537 H 697.33 4.64495 3.79479 0
M  V30 7538 H 699.009 5.23933 3.79609 0
M  V30 7539 N 699.141 -0.881989 1.30609 0
M  V30 7540 C 700.051 -2.02076 1.19174 0
M  V30 7541 C 701.067 -1.73645 0.11102 0
M  V30 7542 O 702.243 -1.98735 0.326528 0
M  V30 7543 C 699.308 -3.3515 0.887438 0
M  V30 7544 C 698.369 -3.76983 2.05383 0
M  V30 7545 C 697.602 -5.03707 1.76395 0
M  V30 7546 O 697.825 -5.66171 0.693302 0
M  V30 7547 O 696.759 -5.42019 2.61723 0
M  V30 7548 H 700.585 -2.14652 2.14845 0
M  V30 7549 H 698.17 -1.00843 1.10232 0
M  V30 7550 H 700.052 -4.14975 0.73306 0
M  V30 7551 H 698.727 -3.23676 -0.0393354 0
M  V30 7552 H 697.634 -2.97849 2.26355 0
M  V30 7553 H 698.967 -3.93066 2.96243 0
M  V30 7554 N 700.619 -1.13374 -1.09472 0
M  V30 7555 C 701.896 -0.806329 -1.78207 0
M  V30 7556 C 702.276 0.702191 -1.99079 0
M  V30 7557 O 701.624 1.63931 -1.59182 0
M  V30 7558 C 701.834 -1.59271 -3.10538 0
M  V30 7559 C 703.182 -1.78509 -3.85253 0
M  V30 7560 O 704.206 -1.55866 -3.20288 0
M  V30 7561 O 703.065 -2.16287 -5.01879 0
M  V30 7562 H 700.159 -0.29435 -0.772843 0
M  V30 7563 H 702.705 -1.23833 -1.16033 0
M  V30 7564 H 701.477 -2.61792 -2.90828 0
M  V30 7565 H 701.1 -1.15562 -3.80436 0
M  V30 7566 N 702.098 1.27442 -0.927168 0
M  V30 7567 C 703.046 2.28844 -0.416333 0
M  V30 7568 C 704.04 1.61882 0.499057 0
M  V30 7569 O 705.246 1.75969 0.378817 0
M  V30 7570 H 701.621 0.742989 -0.116065 0
M  V30 7571 H 703.592 2.69344 -1.28438 0
M  V30 7572 C 702.341 3.4626 0.316107 0
M  V30 7573 H 701.664 3.97999 -0.379082 0
M  V30 7574 H 703.104 4.19173 0.637975 0
M  V30 7575 C 701.563 3.00211 1.5289 0
M  V30 7576 O 702.093 3.03837 2.62766 0
M  V30 7577 N 700.299 2.55713 1.38054 0
M  V30 7578 H 699.846 2.52962 0.4866 0
M  V30 7579 H 699.804 2.25264 2.19325 0
M  V30 7580 N 703.576 0.692616 1.41565 0
M  V30 7581 C 704.486 0.0258451 2.34586 0
M  V30 7582 C 705.502 -0.769324 1.56069 0
M  V30 7583 O 706.678 -0.707563 1.88562 0
M  V30 7584 C 703.743 -0.901289 3.3478 0
M  V30 7585 C 702.804 -0.0986579 4.29187 0
M  V30 7586 C 702.037 -0.981634 5.24595 0
M  V30 7587 O 702.26 -2.22115 5.25377 0
M  V30 7588 O 701.194 -0.432892 6.00341 0
M  V30 7589 H 705.02 0.792537 2.93177 0
M  V30 7590 H 702.605 0.452935 1.42369 0
M  V30 7591 H 704.487 -1.43302 3.96286 0
M  V30 7592 H 703.162 -1.64752 2.78637 0
M  V30 7593 H 702.069 0.477604 3.71039 0
M  V30 7594 H 703.402 0.608848 4.8842 0
M  V30 7595 N 705.054 -1.51416 0.437162 0
M  V30 7596 C 706.331 -1.94682 -0.189292 0
M  V30 7597 C 706.711 -1.37581 -1.60108 0
M  V30 7598 O 706.059 -0.562815 -2.2146 0
M  V30 7599 C 706.269 -3.48599 -0.167201 0
M  V30 7600 C 707.617 -4.2296 -0.372856 0
M  V30 7601 O 708.641 -3.55354 -0.245323 0
M  V30 7602 O 707.5 -5.42895 -0.626693 0
M  V30 7603 H 704.594 -0.816708 -0.130063 0
M  V30 7604 H 707.14 -1.62316 0.495128 0
M  V30 7605 H 705.912 -3.82616 0.81981 0
M  V30 7606 H 705.535 -3.87406 -0.894537 0
M  V30 7607 N 706.532 -0.168513 -1.56696 0
M  V30 7608 C 707.781 0.477233 -1.95973 0
M  V30 7609 C 708.094 1.64578 -1.05704 0
M  V30 7610 O 709.3 2.35758 -1.3465 0
M  V30 7611 C 707.756 0.900413 -3.48455 0
M  V30 7612 C 707.364 -0.242382 -4.47344 0
M  V30 7613 C 709.108 1.51474 -3.96555 0
M  V30 7614 C 707.015 0.200272 -5.91061 0
M  V30 7615 H 705.945 0.182061 -0.73169 0
M  V30 7616 H 708.596 -0.256297 -1.81701 0
M  V30 7617 H 706.978 1.68984 -3.58135 0
M  V30 7618 H 708.152 -1.01967 -4.49377 0
M  V30 7619 H 706.467 -0.766484 -4.09285 0
M  V30 7620 H 709.064 1.85792 -5.01384 0
M  V30 7621 H 709.407 2.41163 -3.39332 0
M  V30 7622 H 709.94 0.789802 -3.89881 0
M  V30 7623 H 706.679 -0.661775 -6.52151 0
M  V30 7624 H 706.199 0.942979 -5.92341 0
M  V30 7625 H 707.878 0.645088 -6.43776 0
M  V30 7626 N 708.01 1.57248 0.105221 0
M  V30 7627 C 709.25 1.87393 0.816283 0
M  V30 7628 C 709.614 0.758249 1.76393 0
M  V30 7629 O 710.815 0.941835 2.5176 0
M  V30 7630 C 709.086 3.22775 1.53463 0
M  V30 7631 S 710.645 3.74588 2.28537 0
M  V30 7632 H 707.463 0.656847 0.272164 0
M  V30 7633 H 710.065 1.9536 0.073909 0
M  V30 7634 H 708.769 4.01905 0.830674 0
M  V30 7635 H 708.3 3.17921 2.3171 0
M  V30 7636 H 710.315 3.47193 3.54502 0
M  V30 7637 N 709.488 -0.375779 1.53054 0
M  V30 7638 C 710.436 -1.48015 1.79428 0
M  V30 7639 C 711.43 -1.55893 0.662854 0
M  V30 7640 O 712.636 -1.58901 0.845599 0
M  V30 7641 H 709.011 -0.492887 0.56795 0
M  V30 7642 H 710.982 -1.22971 2.71884 0
M  V30 7643 C 709.731 -2.84984 1.99197 0
M  V30 7644 H 709.054 -2.79677 2.85693 0
M  V30 7645 H 710.494 -3.61462 2.21633 0
M  V30 7646 C 708.953 -3.28025 0.768183 0
M  V30 7647 O 709.483 -4.01671 -0.0480482 0
M  V30 7648 N 707.689 -2.84454 0.594521 0
M  V30 7649 H 707.236 -2.24688 1.25988 0
M  V30 7650 H 707.194 -3.13609 -0.222916 0
M  V30 7651 N 710.966 -1.44241 -0.634997 0
M  V30 7652 C 712.194 -1.50296 -1.42193 0
M  V30 7653 C 712.609 -0.12658 -1.88375 0
M  V30 7654 O 711.966 0.86678 -1.60603 0
M  V30 7655 C 712.017 -2.46437 -2.64482 0
M  V30 7656 O 711.738 -3.78724 -2.20226 0
M  V30 7657 C 713.239 -2.61918 -3.57651 0
M  V30 7658 H 710.459 -0.509865 -0.43621 0
M  V30 7659 H 713.003 -1.89167 -0.776921 0
M  V30 7660 H 711.158 -2.10712 -3.25083 0
M  V30 7661 H 711.572 -4.30595 -2.9948 0
M  V30 7662 H 713.046 -3.33225 -4.40074 0
M  V30 7663 H 713.523 -1.67017 -4.06204 0
M  V30 7664 H 714.129 -2.98528 -3.02921 0
M  V30 7665 N 712.444 0.87505 -1.31075 0
M  V30 7666 C 713.672 1.66058 -1.23419 0
M  V30 7667 C 714.087 1.87723 0.201347 0
M  V30 7668 O 713.444 1.43178 1.13165 0
M  V30 7669 C 713.495 3.03142 -1.96945 0
M  V30 7670 O 713.216 2.82448 -3.34895 0
M  V30 7671 C 714.717 3.97583 -1.96067 0
M  V30 7672 H 711.937 0.517868 -0.426677 0
M  V30 7673 H 714.481 1.09258 -1.72867 0
M  V30 7674 H 712.636 3.56645 -1.51271 0
M  V30 7675 H 713.05 3.69483 -3.72267 0
M  V30 7676 H 714.524 4.91104 -2.52034 0
M  V30 7677 H 715.001 4.2898 -0.941961 0
M  V30 7678 H 715.607 3.50015 -2.41597 0
M  V30 7679 N 713.922 1.13953 1.08869 0
M  V30 7680 C 715.147 0.928559 1.85452 0
M  V30 7681 C 715.572 -0.517642 1.80837 0
M  V30 7682 O 714.93 -1.36779 1.19001 0
M  V30 7683 C 714.978 1.42814 3.31114 0
M  V30 7684 O 714.082 0.617129 4.07756 0
M  V30 7685 H 713.423 0.33235 0.574839 0
M  V30 7686 H 715.953 1.5156 1.37443 0
M  V30 7687 H 715.963 1.43425 3.8196 0
M  V30 7688 H 714.638 2.48109 3.33788 0
M  V30 7689 H 713.215 0.679365 3.66659 0
M  V30 7690 N 715.4 -1.26948 0.933913 0
M  V30 7691 C 716.33 -2.29017 0.45534 0
M  V30 7692 C 717.311 -1.62961 -0.487605 0
M  V30 7693 O 718.496 -1.90223 -0.391022 0
M  V30 7694 C 715.626 -3.46112 -0.287015 0
M  V30 7695 C 714.58 -4.24205 0.568682 0
M  V30 7696 C 713.906 -5.3384 -0.303206 0
M  V30 7697 C 715.206 -4.88954 1.83633 0
M  V30 7698 H 716.9 -2.69298 1.30839 0
M  V30 7699 H 714.446 -1.29459 0.630579 0
M  V30 7700 H 716.399 -4.16622 -0.6328 0
M  V30 7701 H 715.123 -3.04765 -1.17414 0
M  V30 7702 H 713.782 -3.5545 0.897261 0
M  V30 7703 H 713.43 -4.88734 -1.18947 0
M  V30 7704 H 713.13 -5.86998 0.265879 0
M  V30 7705 H 714.654 -6.0719 -0.644423 0
M  V30 7706 H 716.068 -5.51717 1.55823 0
M  V30 7707 H 714.465 -5.52198 2.34941 0
M  V30 7708 H 715.535 -4.12305 2.55211 0
M  V30 7709 N 716.879 -0.700114 -1.41195 0
M  V30 7710 C 717.789 -0.0382854 -2.34569 0
M  V30 7711 C 718.805 0.761036 -1.56474 0
M  V30 7712 O 719.981 0.697553 -1.88934 0
M  V30 7713 C 717.046 0.883522 -3.35253 0
M  V30 7714 C 716.107 0.0758957 -4.29233 0
M  V30 7715 C 715.34 0.9538 -5.25108 0
M  V30 7716 O 715.563 2.19326 -5.26547 0
M  V30 7717 O 714.497 0.401049 -6.00562 0
M  V30 7718 H 718.323 -0.808073 -2.92752 0
M  V30 7719 H 715.908 -0.460479 -1.42127 0
M  V30 7720 H 717.79 1.41199 -3.9704 0
M  V30 7721 H 716.465 1.63272 -2.79506 0
M  V30 7722 H 715.372 -0.497274 -3.7078 0
M  V30 7723 H 716.705 -0.634741 -4.8809 0
M  V30 7724 N 718.357 1.51182 -0.445186 0
M  V30 7725 C 719.305 2.29531 0.376597 0
M  V30 7726 C 720.299 1.35711 1.01385 0
M  V30 7727 O 721.505 1.53018 0.947922 0
M  V30 7728 H 717.88 0.738803 0.140267 0
M  V30 7729 H 719.851 2.96838 -0.304958 0
M  V30 7730 C 718.6 3.1552 1.4609 0
M  V30 7731 H 717.923 3.87605 0.979912 0
M  V30 7732 H 719.363 3.73384 2.009 0
M  V30 7733 C 717.822 2.31406 2.44852 0
M  V30 7734 O 718.352 1.97912 3.49562 0
M  V30 7735 N 716.558 1.94478 2.15932 0
M  V30 7736 H 716.105 2.21917 1.30808 0
M  V30 7737 H 716.063 1.38498 2.82251 0
M  V30 7738 N 719.835 0.176821 1.56605 0
M  V30 7739 C 721.075 -0.469104 1.98944 0
M  V30 7740 C 721.439 -1.60048 1.06059 0
M  V30 7741 O 722.64 -2.30934 1.3756 0
M  V30 7742 C 720.911 -0.934571 3.44965 0
M  V30 7743 S 722.47 -1.58091 4.09332 0
M  V30 7744 H 719.288 -0.150695 0.694847 0
M  V30 7745 H 721.89 0.27558 1.93548 0
M  V30 7746 H 720.594 -0.100814 4.10276 0
M  V30 7747 H 720.125 -1.71316 3.54139 0
M  V30 7748 H 722.14 -2.86922 4.04834 0
M  V30 7749 N 721.313 -1.57302 -0.09688 0
M  V30 7750 C 722.541 -1.90202 -0.814295 0
M  V30 7751 C 722.956 -0.770344 -1.72369 0
M  V30 7752 O 722.313 0.257764 -1.8067 0
M  V30 7753 C 722.364 -3.22708 -1.62916 0
M  V30 7754 O 722.085 -4.31522 -0.756343 0
M  V30 7755 C 723.586 -3.69459 -2.44979 0
M  V30 7756 H 720.806 -0.629275 -0.232925 0
M  V30 7757 H 723.35 -2.04364 -0.0746482 0
M  V30 7758 H 721.505 -3.1015 -2.32133 0
M  V30 7759 H 721.919 -5.07604 -1.32054 0
M  V30 7760 H 723.393 -4.64875 -2.9765 0
M  V30 7761 H 723.87 -2.97211 -3.23361 0
M  V30 7762 H 724.476 -3.84879 -1.80964 0
M  V30 7763 N 722.791 0.367657 -1.53252 0
M  V30 7764 C 723.754 1.43308 -1.78873 0
M  V30 7765 C 724.754 1.46671 -0.659115 0
M  V30 7766 O 725.944 1.47468 -0.927306 0
M  V30 7767 C 723.076 2.82442 -1.90892 0
M  V30 7768 H 724.269 1.21864 -2.74024 0
M  V30 7769 H 721.822 0.600668 -1.44297 0
M  V30 7770 H 722.557 3.09202 -0.978 0
M  V30 7771 H 722.342 2.81399 -2.73051 0
M  V30 7772 H 723.832 3.59601 -2.12314 0
M  V30 7773 N 724.269 1.44576 0.627338 0
M  V30 7774 C 725.216 1.51734 1.73912 0
M  V30 7775 C 726.186 0.364745 1.62046 0
M  V30 7776 O 727.371 0.575503 1.81914 0
M  V30 7777 C 724.511 1.47116 3.12171 0
M  V30 7778 C 723.624 2.72778 3.34986 0
M  V30 7779 C 722.759 2.59968 4.63239 0
M  V30 7780 C 721.798 3.80776 4.79245 0
M  V30 7781 N 720.935 3.66618 5.98778 0
M  V30 7782 H 725.775 2.46722 1.6713 0
M  V30 7783 H 723.312 1.22444 0.815224 0
M  V30 7784 H 725.27 1.42429 3.92135 0
M  V30 7785 H 723.9 0.556928 3.17959 0
M  V30 7786 H 722.952 2.87637 2.48936 0
M  V30 7787 H 724.264 3.62441 3.42692 0
M  V30 7788 H 723.418 2.53135 5.51369 0
M  V30 7789 H 722.157 1.67872 4.57898 0
M  V30 7790 H 721.162 3.87989 3.89544 0
M  V30 7791 H 722.387 4.73913 4.86398 0
M  V30 7792 H 720.333 2.77277 5.9452 0
M  V30 7793 H 720.25 4.499 6.07557 0
M  V30 7794 H 721.518 3.63684 6.89459 0
M  V30 7795 O 725.786 -0.770871 1.41915 0
M  V30 7796 H 726.477 -1.41834 1.31919 0
M  V30 END ATOM
M  V30 BEGIN BOND
M  V30 END BOND
M  V30 END CTAB
M  END
$$$$
