drugbank_target|P25524 Cytosine deaminase (DB03939; DB04135)
 OpenBabel12092120013D

  0  0  0     0  0            999 V3000
M  V30 BEGIN CTAB
M  V30 COUNTS 6652 6727 0 0 0
M  V30 BEGIN ATOM
M  V30 1 H -0.908 1.98254 -0.117106 0
M  V30 2 N 0 1.576 0 0
M  V30 3 C 0.933 2.03868 1.02534 0
M  V30 4 C 1.911 0.928543 1.3348 0
M  V30 5 O 3.095 1.19667 1.45644 0
M  V30 6 C 0.222 2.43627 2.35294 0
M  V30 7 C -0.732 3.65373 2.2001 0
M  V30 8 S 0.101 5.13292 1.52614 0
M  V30 9 C 1.257 5.56322 2.86805 0
M  V30 10 H 1.49 2.90518 0.631377 0
M  V30 11 H -0.977 1.52953 0.210867 0
M  V30 12 H 0.981 2.67203 3.11629 0
M  V30 13 H -0.358 1.57376 2.7183 0
M  V30 14 H -1.165 3.90944 3.18086 0
M  V30 15 H -1.563 3.418 1.51819 0
M  V30 16 H 0.729 5.58782 3.83104 0
M  V30 17 H 1.672 6.56266 2.65933 0
M  V30 18 H 2.08 4.83886 2.90714 0
M  V30 19 N 1.4781 -0.272755 1.55222 0
M  V30 20 C 2.7031 -1.02683 1.80197 0
M  V30 21 C 3.1281 -1.79142 0.573551 0
M  V30 22 O 2.4861 -1.74917 -0.476849 0
M  V30 23 C 2.5341 -1.9609 3.02624 0
M  V30 24 O 1.6381 -3.04863 2.77727 0
M  V30 25 H 0.9791 -0.293557 0.595584 0
M  V30 26 H 3.5091 -0.30159 2.02365 0
M  V30 27 H 3.5191 -2.38039 3.31363 0
M  V30 28 H 2.1941 -1.39851 3.91682 0
M  V30 29 H 0.7711 -2.67228 2.60084 0
M  V30 30 N 2.9562 -1.48159 -0.537278 0
M  V30 31 C 3.9042 -1.62573 -1.66352 0
M  V30 32 C 4.8982 -0.492366 -1.62087 0
M  V30 33 O 6.1042 -0.670847 -1.67032 0
M  V30 34 H 2.4792 -0.511992 -0.550789 0
M  V30 35 H 4.4502 -2.57176 -1.51337 0
M  V30 36 C 3.1992 -1.67583 -3.04649 0
M  V30 37 H 2.5222 -2.54151 -3.08622 0
M  V30 38 H 3.9622 -1.81713 -3.83088 0
M  V30 39 C 2.4212 -0.413039 -3.34358 0
M  V30 40 O 2.9512 0.477259 -3.98855 0
M  V30 41 N 1.1572 -0.286961 -2.8918 0
M  V30 42 H 0.7042 -1.01241 -2.36871 0
M  V30 43 H 0.6622 0.556963 -3.09427 0
M  V30 44 N 4.4343 0.785586 -1.36625 0
M  V30 45 C 5.3823 1.91978 -1.31329 0
M  V30 46 C 6.3763 1.68162 -0.204416 0
M  V30 47 O 7.5823 1.76122 -0.371645 0
M  V30 48 H 3.9573 0.631087 -0.408942 0
M  V30 49 H 5.9283 1.93562 -2.27104 0
M  V30 50 C 4.6773 3.29055 -1.12329 0
M  V30 51 H 4.0003 3.4795 -1.96903 0
M  V30 52 H 5.4403 4.08756 -1.12671 0
M  V30 53 C 3.8993 3.36461 0.171861 0
M  V30 54 O 4.4293 3.84576 1.16035 0
M  V30 55 N 2.6353 2.89782 0.217846 0
M  V30 56 H 2.1823 2.50819 -0.587183 0
M  V30 57 H 2.1403 2.95119 1.08408 0
M  V30 58 N 5.9124 1.20967 1.01018 0
M  V30 59 C 6.8754 0.965918 2.07853 0
M  V30 60 C 7.8754 -0.0610545 1.60684 0
M  V30 61 O 9.0654 0.175681 1.73312 0
M  V30 62 C 6.1974 0.455513 3.37843 0
M  V30 63 H 7.3904 1.91365 2.3091 0
M  V30 64 H 4.9434 1.02594 1.17916 0
M  V30 65 H 5.6784 -0.497381 3.20463 0
M  V30 66 H 5.4634 1.19622 3.73407 0
M  V30 67 H 6.9534 0.304667 4.16487 0
M  V30 68 N 7.3905 -1.2043 1.01659 0
M  V30 69 C 8.3205 -2.25466 0.607226 0
M  V30 70 C 9.3015 -1.65853 -0.377716 0
M  V30 71 O 10.4865 -1.92409 -0.263149 0
M  V30 72 C 7.6165 -3.47256 -0.0552949 0
M  V30 73 C 6.5705 -4.19462 0.850632 0
M  V30 74 C 5.8965 -5.34673 0.0538859 0
M  V30 75 C 7.1965 -4.75603 2.15868 0
M  V30 76 H 8.8905 -2.59962 1.48526 0
M  V30 77 H 6.4365 -1.2496 0.715605 0
M  V30 78 H 8.3895 -4.19917 -0.353233 0
M  V30 79 H 7.1135 -3.11924 -0.968045 0
M  V30 80 H 5.7725 -3.48667 1.13257 0
M  V30 81 H 5.4205 -4.95585 -0.860514 0
M  V30 82 H 5.1205 -5.83913 0.657192 0
M  V30 83 H 6.6445 -6.10138 -0.237598 0
M  V30 84 H 8.0585 -5.40083 1.92311 0
M  V30 85 H 6.4555 -5.3528 2.71284 0
M  V30 86 H 7.5255 -3.94346 2.82169 0
M  V30 87 N 8.8686 -0.792821 -1.36206 0
M  V30 88 C 9.8006 -0.151469 -2.28699 0
M  V30 89 C 10.8136 0.641262 -1.49638 0
M  V30 90 O 12.0026 0.475885 -1.72039 0
M  V30 91 C 9.1026 0.808424 -3.29117 0
M  V30 92 C 8.2756 0.0650202 -4.37352 0
M  V30 93 C 7.3346 0.941358 -5.17711 0
M  V30 94 O 6.3606 0.397352 -5.67811 0
M  V30 95 N 7.5626 2.2652 -5.3448 0
M  V30 96 H 10.3276 -0.945982 -2.84379 0
M  V30 97 H 7.8886 -0.647032 -1.48409 0
M  V30 98 H 9.8806 1.3986 -3.79765 0
M  V30 99 H 8.4506 1.5038 -2.74052 0
M  V30 100 H 7.6706 -0.706255 -3.87822 0
M  V30 101 H 8.9586 -0.447847 -5.06825 0
M  V30 102 H 8.3566 2.73128 -4.95396 0
M  V30 103 H 6.9136 2.80493 -5.88359 0
M  V30 104 N 10.3467 1.47872 -0.545128 0
M  V30 105 C 11.5747 2.06889 -0.021084 0
M  V30 106 C 11.9897 1.39955 1.2672 0
M  V30 107 O 11.3467 0.492036 1.75742 0
M  V30 108 C 11.3977 3.60996 0.190817 0
M  V30 109 O 11.1187 4.25419 -1.04644 0
M  V30 110 C 12.6197 4.36849 0.753521 0
M  V30 111 H 9.8397 0.669785 -0.0403635 0
M  V30 112 H 12.3837 1.90049 -0.755095 0
M  V30 113 H 10.5387 3.77391 0.87492 0
M  V30 114 H 10.9527 5.17785 -0.836611 0
M  V30 115 H 12.4267 5.45399 0.851139 0
M  V30 116 H 12.9037 4.02306 1.762 0
M  V30 117 H 13.5097 4.25169 0.105503 0
M  V30 118 N 11.8248 0.280983 1.55075 0
M  V30 119 C 13.0738 -0.334784 1.98902 0
M  V30 120 C 13.3868 -1.56534 1.17288 0
M  V30 121 O 14.5928 -2.25443 1.51287 0
M  V30 122 C 13.0488 -0.646994 3.54037 0
M  V30 123 C 12.6568 0.564085 4.44435 0
M  V30 124 C 14.4008 -1.22506 4.06439 0
M  V30 125 C 12.3078 0.226137 5.90967 0
M  V30 126 H 11.2378 -0.128866 0.742906 0
M  V30 127 H 13.8888 0.386556 1.79382 0
M  V30 128 H 12.2708 -1.42739 3.6938 0
M  V30 129 H 13.4448 1.34082 4.40861 0
M  V30 130 H 11.7598 1.0594 4.02698 0
M  V30 131 H 14.3568 -1.49182 5.13468 0
M  V30 132 H 14.6998 -2.16085 3.55827 0
M  V30 133 H 15.2328 -0.50682 3.94558 0
M  V30 134 H 11.9718 1.12996 6.45687 0
M  V30 135 H 11.4918 -0.513717 5.97596 0
M  V30 136 H 13.1708 -0.179539 6.46751 0
M  V30 137 N 13.3029 -1.57598 0.00835791 0
M  V30 138 C 14.5519 -1.90107 -0.673968 0
M  V30 139 C 14.8649 -0.884275 -1.7447 0
M  V30 140 O 16.0709 -1.09987 -2.48224 0
M  V30 141 C 14.5269 -3.37497 -1.24995 0
M  V30 142 C 14.1349 -4.47491 -0.2136 0
M  V30 143 C 15.8789 -3.79104 -1.90999 0
M  V30 144 C 13.7859 -5.85963 -0.80005 0
M  V30 145 H 12.7159 -0.709393 -0.255495 0
M  V30 146 H 15.3669 -1.83365 0.0702693 0
M  V30 147 H 13.7489 -3.39102 -2.04513 0
M  V30 148 H 14.9229 -4.57414 0.557596 0
M  V30 149 H 13.2379 -4.14956 0.346474 0
M  V30 150 H 15.8349 -4.79901 -2.35795 0
M  V30 151 H 16.1779 -3.1306 -2.74407 0
M  V30 152 H 16.7109 -3.79833 -1.18203 0
M  V30 153 H 13.4499 -6.555 -0.00456708 0
M  V30 154 H 12.9699 -5.79687 -1.54021 0
M  V30 155 H 14.6489 -6.33884 -1.29615 0
M  V30 156 N 14.781 0.264519 -1.55364 0
M  V30 157 C 15.729 1.34702 -1.89626 0
M  V30 158 C 16.723 1.50712 -0.773459 0
M  V30 159 O 17.929 1.52395 -0.957897 0
M  V30 160 H 14.304 0.450682 -0.601988 0
M  V30 161 H 16.275 1.0306 -2.80038 0
M  V30 162 C 15.024 2.6989 -2.19214 0
M  V30 163 H 14.347 2.58365 -3.05103 0
M  V30 164 H 15.787 3.44553 -2.47102 0
M  V30 165 C 14.246 3.21637 -1.00254 0
M  V30 166 O 14.776 4.00973 -0.241501 0
M  V30 167 N 12.982 2.7943 -0.797938 0
M  V30 168 H 12.529 2.15026 -1.4185 0
M  V30 169 H 12.487 3.144 -0.00363422 0
M  V30 170 N 16.2591 1.48442 0.529413 0
M  V30 171 C 17.2221 1.62524 1.61612 0
M  V30 172 C 18.2221 0.498509 1.52877 0
M  V30 173 O 19.4121 0.76431 1.56537 0
M  V30 174 C 16.5441 1.59597 3.01233 0
M  V30 175 H 17.7371 2.59423 1.50465 0
M  V30 176 H 15.2901 1.37047 0.751514 0
M  V30 177 H 16.0251 0.641781 3.17886 0
M  V30 178 H 15.8101 2.41397 3.08982 0
M  V30 179 H 17.3001 1.72646 3.80241 0
M  V30 180 N 17.7372 -0.778329 1.37039 0
M  V30 181 C 19.1532 -1.07796 1.17695 0
M  V30 182 C 19.3532 -2.01498 0.00860115 0
M  V30 183 O 18.4092 -2.43901 -0.653352 0
M  V30 184 C 19.7222 -1.68178 2.49272 0
M  V30 185 C 21.2702 -1.80467 2.55735 0
M  V30 186 C 21.7452 -2.44263 3.87427 0
M  V30 187 N 23.2362 -2.51721 3.88833 0
M  V30 188 C 23.9712 -3.01919 4.87476 0
M  V30 189 N 23.4672 -3.5234 5.96513 0
M  V30 190 N 25.2602 -3.00733 4.74885 0
M  V30 191 H 17.4112 -0.156032 2.11826 0
M  V30 192 H 19.6742 -0.131844 0.938787 0
M  V30 193 H 19.3802 -1.06796 3.35093 0
M  V30 194 H 19.2542 -2.67554 2.65885 0
M  V30 195 H 21.6412 -2.40984 1.70325 0
M  V30 196 H 21.7222 -0.798656 2.43013 0
M  V30 197 H 21.3662 -1.84388 4.73248 0
M  V30 198 H 21.2962 -3.45458 3.9745 0
M  V30 199 H 23.7872 -2.1603 3.10063 0
M  V30 200 H 24.1002 -3.89027 6.67741 0
M  V30 201 H 22.4452 -3.50462 6.00168 0
M  V30 202 H 25.6362 -2.60638 3.88826 0
M  V30 203 H 25.8092 -3.39545 5.51918 0
M  V30 204 N 19.2153 -1.21501 -1.00376 0
M  V30 205 C 20.1453 -0.999478 -2.11028 0
M  V30 206 C 21.1263 0.0759671 -1.6993 0
M  V30 207 O 22.3113 -0.0841106 -1.94018 0
M  V30 208 C 19.4413 -0.564709 -3.42678 0
M  V30 209 C 18.3953 -1.58486 -3.97576 0
M  V30 210 C 17.7213 -1.00628 -5.25146 0
M  V30 211 C 19.0213 -2.97204 -4.29496 0
M  V30 212 H 20.7153 -1.92495 -2.29317 0
M  V30 213 H 18.2613 -0.92693 -1.102 0
M  V30 214 H 20.2143 -0.401091 -4.19487 0
M  V30 215 H 18.9383 0.396411 -3.24185 0
M  V30 216 H 17.5973 -1.73606 -3.22888 0
M  V30 217 H 17.2453 -0.0368439 -5.02987 0
M  V30 218 H 16.9453 -1.68771 -5.62841 0
M  V30 219 H 18.4693 -0.854015 -6.04598 0
M  V30 220 H 19.8833 -2.8552 -4.97143 0
M  V30 221 H 18.2803 -3.62372 -4.78338 0
M  V30 222 H 19.3503 -3.47956 -3.3772 0
M  V30 223 N 20.6934 1.19889 -1.02296 0
M  V30 224 C 22.1044 1.71124 -0.746568 0
M  V30 225 C 22.4554 1.81939 0.734335 0
M  V30 226 O 21.5804 1.48639 1.57275 0
M  V30 227 C 22.1754 3.10804 -1.34857 0
M  V30 228 C 20.7344 3.59323 -1.1209 0
M  V30 229 C 19.8814 2.3635 -1.45031 0
M  V30 230 H 22.8324 1.04813 -1.19163 0
M  V30 231 H 22.8534 3.73186 -0.742437 0
M  V30 232 H 22.3654 3.029 -2.42638 0
M  V30 233 H 20.4664 3.7255 -0.0610337 0
M  V30 234 H 20.5794 4.4378 -1.80544 0
M  V30 235 H 18.9434 2.39399 -0.869487 0
M  V30 236 H 19.7264 2.31081 -2.53883 0
M  V30 237 N 22.1715 0.800033 1.35784 0
M  V30 238 C 23.4195 0.376597 1.9856 0
M  V30 239 C 23.7405 -1.05812 1.63795 0
M  V30 240 O 23.0105 -1.73103 0.917171 0
M  V30 241 H 21.5905 0.136261 0.734467 0
M  V30 242 H 24.2525 1.02442 1.65806 0
M  V30 243 H 23.3485 0.477002 3.08433 0
M  V30 244 N 23.6496 -1.47581 0.552962 0
M  V30 245 C 24.5596 -2.33743 -0.200353 0
M  V30 246 C 25.5756 -1.47928 -0.916151 0
M  V30 247 O 26.7516 -1.80865 -0.885993 0
M  V30 248 C 23.8166 -3.24536 -1.21973 0
M  V30 249 C 22.8776 -4.26238 -0.511819 0
M  V30 250 C 22.1106 -5.12693 -1.48263 0
M  V30 251 O 22.3336 -5.01525 -2.71714 0
M  V30 252 O 21.2676 -5.93375 -1.00945 0
M  V30 253 H 25.0936 -2.9945 0.506304 0
M  V30 254 H 22.6786 -1.46071 0.313622 0
M  V30 255 H 24.5606 -3.80631 -1.80827 0
M  V30 256 H 23.2356 -2.61462 -1.90839 0
M  V30 257 H 22.1426 -3.73914 0.117799 0
M  V30 258 H 23.4756 -4.92014 0.135308 0
M  V30 259 N 25.1277 -0.289203 -1.54924 0
M  V30 260 C 26.0377 0.601863 -2.26748 0
M  V30 261 C 27.0537 1.15834 -1.2984 0
M  V30 262 O 28.2297 1.18564 -1.62802 0
M  V30 263 C 25.2947 1.76299 -2.98529 0
M  V30 264 C 24.3557 1.24178 -4.10948 0
M  V30 265 C 23.5887 2.34757 -4.79296 0
M  V30 266 O 23.8117 3.54411 -4.46933 0
M  V30 267 O 22.7457 2.02115 -5.66951 0
M  V30 268 H 26.5717 0.0195879 -3.03694 0
M  V30 269 H 24.1567 -0.0560868 -1.49295 0
M  V30 270 H 26.0387 2.43973 -3.43592 0
M  V30 271 H 24.7137 2.33209 -2.24488 0
M  V30 272 H 23.6207 0.531104 -3.70311 0
M  V30 273 H 24.9537 0.718252 -4.86931 0
M  V30 274 N 26.6058 1.57591 -0.0167156 0
M  V30 275 C 27.8538 1.90906 0.663285 0
M  V30 276 C 28.1748 0.892509 1.73376 0
M  V30 277 O 27.4448 -0.0677623 1.95783 0
M  V30 278 H 26.0248 0.704637 0.247983 0
M  V30 279 H 28.6868 1.94803 -0.0615909 0
M  V30 280 H 27.7828 2.9116 1.12393 0
M  V30 281 N 28.0839 -0.256276 1.55502 0
M  V30 282 C 29.0139 -1.32102 1.92539 0
M  V30 283 C 29.9949 -1.50684 0.789194 0
M  V30 284 O 31.1799 -1.63449 1.04872 0
M  V30 285 C 28.3099 -2.67752 2.21192 0
M  V30 286 C 27.2639 -2.63878 3.36975 0
M  V30 287 C 26.5899 -4.03236 3.51147 0
M  V30 288 C 27.8899 -2.21682 4.72921 0
M  V30 289 H 29.5839 -1.01351 2.81724 0
M  V30 290 H 27.1299 -0.486105 1.35547 0
M  V30 291 H 29.0829 -3.42365 2.45691 0
M  V30 292 H 27.8069 -3.0012 1.28824 0
M  V30 293 H 26.4659 -1.91722 3.12471 0
M  V30 294 H 26.1139 -4.32854 2.56216 0
M  V30 295 H 25.8139 -4.01535 4.29003 0
M  V30 296 H 27.3379 -4.79563 3.77957 0
M  V30 297 H 28.7519 -2.86023 4.96854 0
M  V30 298 H 27.1489 -2.3111 5.53812 0
M  V30 299 H 28.2189 -1.16833 4.70615 0
M  V30 300 N 29.562 -1.4872 -0.521534 0
M  V30 301 C 30.808 -1.58378 -1.27624 0
M  V30 302 C 31.163 -0.258028 -1.90662 0
M  V30 303 O 30.456 0.739917 -1.76736 0
M  V30 304 C 30.65 -2.66497 -2.38148 0
M  V30 305 C 30.479 -4.09456 -1.85945 0
M  V30 306 C 29.249 -4.76495 -1.68168 0
M  V30 307 C 31.447 -4.95353 -1.3831 0
M  V30 308 N 29.429 -6.0384 -1.1068 0
M  V30 309 C 30.8 -6.13012 -0.928238 0
M  V30 310 C 32.855 -4.81512 -1.26692 0
M  V30 311 C 31.558 -7.18354 -0.368701 0
M  V30 312 C 33.584 -5.86984 -0.721368 0
M  V30 313 C 32.946 -7.03857 -0.276623 0
M  V30 314 H 29.045 -0.634045 -0.457724 0
M  V30 315 H 31.629 -1.85639 -0.587049 0
M  V30 316 H 29.8 -2.41043 -3.04553 0
M  V30 317 H 31.532 -2.65791 -3.05184 0
M  V30 318 H 28.287 -4.32962 -1.91939 0
M  V30 319 H 28.711 -6.71778 -0.839217 0
M  V30 320 H 33.353 -3.91487 -1.5968 0
M  V30 321 H 31.071 -8.08096 -0.0265122 0
M  V30 322 H 34.657 -5.78329 -0.634531 0
M  V30 323 H 33.537 -7.84077 0.138947 0
M  V30 324 N 31.0401 0.771051 -1.3745 0
M  V30 325 C 31.9721 1.89352 -1.29146 0
M  V30 326 C 32.9851 1.61477 -0.207124 0
M  V30 327 O 34.1741 1.72382 -0.463324 0
M  V30 328 C 31.2741 3.24596 -0.974195 0
M  V30 329 C 30.4471 3.80111 -2.16413 0
M  V30 330 C 29.5061 4.93832 -1.81703 0
M  V30 331 O 28.5321 5.09382 -2.54006 0
M  V30 332 N 29.7341 5.75483 -0.761573 0
M  V30 333 H 32.4991 1.96991 -2.25864 0
M  V30 334 H 30.0601 0.950191 -1.31084 0
M  V30 335 H 32.0521 3.98193 -0.722828 0
M  V30 336 H 30.6221 3.12454 -0.0955527 0
M  V30 337 H 29.8421 2.98284 -2.57721 0
M  V30 338 H 31.1301 4.13932 -2.95867 0
M  V30 339 H 30.5281 5.65469 -0.161609 0
M  V30 340 H 29.0851 6.49302 -0.570064 0
M  V30 341 N 32.5182 1.22032 0.997298 0
M  V30 342 C 33.7672 1.03637 1.73038 0
M  V30 343 C 34.0802 -0.429475 1.90827 0
M  V30 344 O 35.2862 -0.732995 2.61418 0
M  V30 345 C 33.7422 1.80582 3.11317 0
M  V30 346 C 33.3502 3.31387 3.01474 0
M  V30 347 C 35.0942 1.70621 3.88701 0
M  V30 348 C 33.0012 4.00791 4.3488 0
M  V30 349 H 31.9312 0.384179 0.648785 0
M  V30 350 H 34.5822 1.4584 1.11368 0
M  V30 351 H 32.9642 1.31175 3.73643 0
M  V30 352 H 34.1382 3.88155 2.4834 0
M  V30 353 H 32.4532 3.41976 2.37575 0
M  V30 354 H 35.0502 2.19799 4.87434 0
M  V30 355 H 35.3932 0.665823 4.10941 0
M  V30 356 H 35.9262 2.17547 3.33044 0
M  V30 357 H 32.6652 5.05064 4.1784 0
M  V30 358 H 32.1852 3.48811 4.87945 0
M  V30 359 H 33.8642 4.06139 5.03647 0
M  V30 360 N 33.9963 -1.19345 1.0293 0
M  V30 361 C 34.9463 -2.20472 0.58104 0
M  V30 362 C 35.9303 -1.56578 -0.370442 0
M  V30 363 O 37.1223 -1.75963 -0.191344 0
M  V30 364 C 34.2513 -3.43236 -0.066306 0
M  V30 365 C 33.3373 -4.14274 0.907642 0
M  V30 366 N 33.7283 -4.61492 2.07023 0
M  V30 367 C 32.0263 -4.39966 0.731177 0
M  V30 368 C 32.7273 -5.1605 2.68454 0
M  V30 369 N 31.7033 -5.06875 1.96414 0
M  V30 370 H 35.5053 -2.54659 1.46717 0
M  V30 371 H 33.0193 -1.35423 0.896345 0
M  V30 372 H 35.0163 -4.14927 -0.405068 0
M  V30 373 H 33.6763 -3.10549 -0.948118 0
M  V30 374 H 34.6873 -4.56304 2.44963 0
M  V30 375 H 31.3643 -4.17377 -0.101507 0
M  V30 376 H 32.7543 -5.6287 3.66915 0
M  V30 377 N 35.4744 -0.807222 -1.35358 0
M  V30 378 C 36.4044 -0.232509 -2.3234 0
M  V30 379 C 37.3854 0.642386 -1.57504 0
M  V30 380 O 38.5704 0.572526 -1.85569 0
M  V30 381 C 35.7004 0.619238 -3.41735 0
M  V30 382 C 34.6544 -0.157215 -4.27711 0
M  V30 383 C 33.9804 0.816273 -5.28433 0
M  V30 384 C 35.2804 -1.35656 -5.04376 0
M  V30 385 H 36.9744 -1.04276 -2.80654 0
M  V30 386 H 34.5204 -0.50288 -1.34934 0
M  V30 387 H 36.4734 1.03137 -4.08584 0
M  V30 388 H 35.1974 1.46239 -2.92031 0
M  V30 389 H 33.8564 -0.550525 -3.62443 0
M  V30 390 H 33.5044 1.65494 -4.74996 0
M  V30 391 H 33.2044 0.301067 -5.86828 0
M  V30 392 H 34.7284 1.22659 -5.98153 0
M  V30 393 H 36.1424 -1.01927 -5.64166 0
M  V30 394 H 34.5394 -1.8063 -5.7227 0
M  V30 395 H 35.6094 -2.14288 -4.34981 0
M  V30 396 N 36.9525 1.47285 -0.560781 0
M  V30 397 C 37.8845 2.28118 0.222438 0
M  V30 398 C 38.8975 1.37219 0.876056 0
M  V30 399 O 40.0865 1.62011 0.749307 0
M  V30 400 C 37.1865 3.1159 1.33285 0
M  V30 401 C 36.3595 4.30473 0.77534 0
M  V30 402 C 35.4185 4.95513 1.77069 0
M  V30 403 O 34.4445 5.53792 1.31539 0
M  V30 404 N 35.6465 4.90531 3.10418 0
M  V30 405 H 38.4115 2.95976 -0.470958 0
M  V30 406 H 35.9725 1.56955 -0.39709 0
M  V30 407 H 37.9645 3.51967 1.99752 0
M  V30 408 H 36.5345 2.45951 1.92943 0
M  V30 409 H 35.7545 3.94144 -0.0662113 0
M  V30 410 H 37.0425 5.07362 0.382272 0
M  V30 411 H 36.4405 4.44389 3.5005 0
M  V30 412 H 34.9975 5.34917 3.72434 0
M  V30 413 N 38.4306 0.297415 1.54768 0
M  V30 414 C 39.7076 -0.365847 1.92148 0
M  V30 415 C 40.0876 -1.71975 1.22424 0
M  V30 416 O 39.4356 -2.25666 0.358739 0
M  V30 417 C 39.6456 -0.484056 3.45627 0
M  V30 418 C 40.9936 -0.756594 4.17805 0
M  V30 419 O 42.0176 -0.568007 3.51642 0
M  V30 420 O 40.8766 -1.11863 5.34929 0
M  V30 421 H 37.9706 -0.203919 0.801465 0
M  V30 422 H 40.5166 0.34521 1.66152 0
M  V30 423 H 39.2886 0.467865 3.88493 0
M  V30 424 H 38.9116 -1.24372 3.77647 0
M  V30 425 N 39.9087 -1.5758 0.0250728 0
M  V30 426 C 41.1567 -1.91255 -0.653151 0
M  V30 427 C 41.4777 -0.901691 -1.729 0
M  V30 428 O 40.7477 0.0573785 -1.95816 0
M  V30 429 H 39.3277 -0.705942 -0.244243 0
M  V30 430 H 41.9897 -1.94767 0.0719209 0
M  V30 431 H 41.0857 -2.91752 -1.10847 0
M  V30 432 N 41.3868 0.248026 -1.55636 0
M  V30 433 C 42.3338 1.30707 -1.90222 0
M  V30 434 C 43.3038 1.47881 -0.756332 0
M  V30 435 O 44.4888 1.61883 -1.00988 0
M  V30 436 C 41.6288 2.65769 -2.20138 0
M  V30 437 C 40.7418 2.56612 -3.47526 0
M  V30 438 C 39.8768 3.8402 -3.67017 0
M  V30 439 C 38.9158 3.69476 -4.8801 0
M  V30 440 N 38.0528 4.88774 -5.04029 0
M  V30 441 H 42.8928 1.00512 -2.80538 0
M  V30 442 H 40.4298 0.485055 -1.38873 0
M  V30 443 H 42.3878 3.44386 -2.35487 0
M  V30 444 H 41.0178 2.94115 -1.33027 0
M  V30 445 H 40.0698 1.69571 -3.40514 0
M  V30 446 H 41.3818 2.41774 -4.36287 0
M  V30 447 H 40.5358 4.7108 -3.8232 0
M  V30 448 H 39.2748 4.01754 -2.76487 0
M  V30 449 H 38.2798 2.80799 -4.72686 0
M  V30 450 H 39.5048 3.53238 -5.8 0
M  V30 451 H 37.4508 5.0687 -4.16435 0
M  V30 452 H 37.3678 4.76562 -5.86877 0
M  V30 453 H 38.6358 5.77335 -5.23741 0
M  V30 454 N 42.8649 1.48995 0.513639 0
M  V30 455 C 44.1139 1.57093 1.2651 0
M  V30 456 C 44.4269 0.257091 1.93903 0
M  V30 457 O 45.6329 0.216478 2.70636 0
M  V30 458 C 44.0889 2.77118 2.29638 0
M  V30 459 C 43.6969 4.15209 1.68241 0
M  V30 460 C 45.4409 2.94538 3.05692 0
M  V30 461 C 43.3479 5.26474 2.69406 0
M  V30 462 H 42.2779 0.584876 0.475854 0
M  V30 463 H 44.9289 1.7536 0.540487 0
M  V30 464 H 43.3109 2.52319 3.05207 0
M  V30 465 H 44.4849 4.50094 0.987505 0
M  V30 466 H 42.7999 4.03042 1.04623 0
M  V30 467 H 45.3969 3.74832 3.8132 0
M  V30 468 H 45.7399 2.04614 3.62545 0
M  V30 469 H 46.2729 3.19316 2.37238 0
M  V30 470 H 43.0119 6.18417 2.17351 0
M  V30 471 H 42.5319 4.96058 3.37175 0
M  V30 472 H 44.2109 5.55277 3.32078 0
M  V30 473 N 44.343 -0.763751 1.37857 0
M  V30 474 C 45.568 -1.55805 1.36893 0
M  V30 475 C 45.993 -1.88054 -0.0416135 0
M  V30 476 O 45.351 -1.49825 -1.02089 0
M  V30 477 C 45.399 -2.84012 2.22192 0
M  V30 478 O 44.503 -3.78732 1.63204 0
M  V30 479 H 43.844 -0.471638 0.46739 0
M  V30 480 H 46.374 -0.944657 1.81487 0
M  V30 481 H 46.384 -3.33037 2.35691 0
M  V30 482 H 45.059 -2.59869 3.24716 0
M  V30 483 H 43.636 -3.37402 1.58791 0
M  V30 484 N 45.8211 -1.22559 -0.990812 0
M  V30 485 C 46.7841 -0.998863 -2.0629 0
M  V30 486 C 47.7841 0.0354834 -1.60761 0
M  V30 487 O 48.9741 -0.203231 -1.7301 0
M  V30 488 C 46.1061 -0.509203 -3.37076 0
M  V30 489 H 47.2991 -1.95014 -2.27837 0
M  V30 490 H 44.8521 -1.04456 -1.16269 0
M  V30 491 H 45.5871 0.446335 -3.21214 0
M  V30 492 H 45.3721 -1.25547 -3.71457 0
M  V30 493 H 46.8621 -0.370888 -4.1595 0
M  V30 494 N 47.2992 1.18797 -1.03562 0
M  V30 495 C 48.5482 1.87978 -0.731235 0
M  V30 496 C 48.8612 1.80911 0.743671 0
M  V30 497 O 50.0672 2.45407 1.16137 0
M  V30 498 C 48.5232 3.3721 -1.25768 0
M  V30 499 C 48.1312 3.52818 -2.76085 0
M  V30 500 C 49.8752 4.11825 -1.0296 0
M  V30 501 C 47.7822 4.9598 -3.22114 0
M  V30 502 H 46.7122 0.704063 -0.269835 0
M  V30 503 H 49.3632 1.34266 -1.25079 0
M  V30 504 H 47.7452 3.90359 -0.666011 0
M  V30 505 H 48.9192 3.09965 -3.40966 0
M  V30 506 H 47.2342 2.91602 -2.97249 0
M  V30 507 H 49.8312 5.17411 -1.34869 0
M  V30 508 H 50.1742 4.16287 0.0333546 0
M  V30 509 H 50.7072 3.64833 -1.58562 0
M  V30 510 H 47.4462 4.96684 -4.27768 0
M  V30 511 H 46.9662 5.39569 -2.61965 0
M  V30 512 H 48.6452 5.6467 -3.15844 0
M  V30 513 N 48.7773 0.814389 1.34928 0
M  V30 514 C 50.0543 0.321363 1.92942 0
M  V30 515 C 50.4343 -1.19014 1.74353 0
M  V30 516 O 49.7823 -1.99328 1.11716 0
M  V30 517 C 49.9923 0.741323 3.41036 0
M  V30 518 C 51.3403 0.735266 4.18185 0
M  V30 519 O 52.3643 0.68336 3.49584 0
M  V30 520 O 51.2233 0.800703 5.40602 0
M  V30 521 H 48.3173 0.0858893 0.822528 0
M  V30 522 H 50.8633 0.898609 1.43955 0
M  V30 523 H 49.6353 1.78276 3.4833 0
M  V30 524 H 49.2583 0.139307 3.97356 0
M  V30 525 N 50.2554 -1.46986 0.568584 0
M  V30 526 C 51.2184 -2.28624 -0.162366 0
M  V30 527 C 52.2184 -1.37596 -0.832103 0
M  V30 528 O 53.4084 -1.60115 -0.68622 0
M  V30 529 C 50.5404 -3.17596 -1.23878 0
M  V30 530 H 51.7334 -2.94722 0.554899 0
M  V30 531 H 49.2864 -1.52863 0.325976 0
M  V30 532 H 50.0214 -2.56214 -1.98808 0
M  V30 533 H 49.8064 -3.846 -0.763219 0
M  V30 534 H 51.2964 -3.79078 -1.75185 0
M  V30 535 N 51.7335 -0.305618 -1.54608 0
M  V30 536 C 52.6655 0.602161 -2.21149 0
M  V30 537 C 53.6785 1.09394 -1.20569 0
M  V30 538 O 54.8675 1.0106 -1.47136 0
M  V30 539 C 51.9675 1.83692 -2.84799 0
M  V30 540 C 51.1405 1.48686 -4.11353 0
M  V30 541 C 50.1995 2.57725 -4.58764 0
M  V30 542 O 49.2255 2.22623 -5.23858 0
M  V30 543 N 50.4275 3.88346 -4.31471 0
M  V30 544 H 53.1925 0.0324966 -2.99682 0
M  V30 545 H 50.7535 -0.128021 -1.61393 0
M  V30 546 H 52.7455 2.55994 -3.13448 0
M  V30 547 H 51.3155 2.31486 -2.10078 0
M  V30 548 H 50.5355 0.596269 -3.89664 0
M  V30 549 H 51.8235 1.22842 -4.93748 0
M  V30 550 H 51.2215 4.19671 -3.79331 0
M  V30 551 H 49.7785 4.56932 -4.64818 0
M  V30 552 N 53.2116 1.57565 -0.0334293 0
M  V30 553 C 54.4366 1.96689 0.657895 0
M  V30 554 C 54.8616 0.910057 1.64619 0
M  V30 555 O 54.2196 -0.128598 1.80843 0
M  V30 556 C 54.2676 3.34905 1.33683 0
M  V30 557 O 53.3716 3.31574 2.45219 0
M  V30 558 H 52.7126 0.641205 0.172489 0
M  V30 559 H 55.2426 2.04372 -0.0965621 0
M  V30 560 H 55.2526 3.71234 1.69262 0
M  V30 561 H 53.9276 4.11366 0.612411 0
M  V30 562 H 52.5046 3.06968 2.11719 0
M  V30 563 N 54.6897 -0.239769 1.55765 0
M  V30 564 C 55.9377 -0.964892 1.77579 0
M  V30 565 C 56.2587 -1.85582 0.598699 0
M  V30 566 O 55.5287 -1.92075 -0.385226 0
M  V30 567 H 54.1087 -0.359265 0.654933 0
M  V30 568 H 56.7707 -0.256001 1.93211 0
M  V30 569 H 55.8667 -1.58243 2.69009 0
M  V30 570 N 56.1678 -1.49265 -0.50573 0
M  V30 571 C 57.4138 -1.58748 -1.26202 0
M  V30 572 C 57.7468 -0.271227 -1.92297 0
M  V30 573 O 57.0218 0.724831 -1.80489 0
M  V30 574 C 57.3048 -2.74332 -2.33268 0
M  V30 575 C 57.1578 -4.15737 -1.71705 0
M  V30 576 C 58.4768 -2.85576 -3.34865 0
M  V30 577 H 55.5958 -0.577826 -0.457478 0
M  V30 578 H 58.2378 -1.81532 -0.560897 0
M  V30 579 H 56.3878 -2.55036 -2.93068 0
M  V30 580 H 58.0598 -4.46537 -1.15769 0
M  V30 581 H 56.3028 -4.21605 -1.02135 0
M  V30 582 H 56.9738 -4.92477 -2.49341 0
M  V30 583 H 59.4498 -3.03127 -2.8505 0
M  V30 584 H 58.3258 -3.68135 -4.07146 0
M  V30 585 H 58.5868 -1.94732 -3.96903 0
M  V30 586 N 57.6459 0.756429 -1.3826 0
M  V30 587 C 58.5789 1.87802 -1.29637 0
M  V30 588 C 59.5569 1.61667 -0.173939 0
M  V30 589 O 60.7409 1.85208 -0.350775 0
M  V30 590 C 57.8679 3.23354 -1.00797 0
M  V30 591 C 56.9139 3.68379 -2.14939 0
M  V30 592 S 57.7469 3.8025 -3.77054 0
M  V30 593 C 58.9029 5.18626 -3.50396 0
M  V30 594 H 59.1359 1.94829 -2.24564 0
M  V30 595 H 56.6689 0.919117 -1.24063 0
M  V30 596 H 58.6269 4.01637 -0.848413 0
M  V30 597 H 57.2879 3.14008 -0.0759369 0
M  V30 598 H 56.4809 4.66693 -1.90299 0
M  V30 599 H 56.0829 2.97242 -2.26988 0
M  V30 600 H 58.3749 6.04289 -3.06334 0
M  V30 601 H 59.3179 5.48286 -4.48094 0
M  V30 602 H 59.7259 4.87289 -2.84973 0
M  V30 603 N 59.124 1.23083 0.984299 0
M  V30 604 C 60.535 1.05609 1.5396 0
M  V30 605 C 60.886 -0.377793 1.92528 0
M  V30 606 O 60.011 -1.26398 1.75649 0
M  V30 607 C 60.606 1.91087 2.7977 0
M  V30 608 C 59.165 1.77885 3.31713 0
M  V30 609 C 58.312 1.87028 2.04733 0
M  V30 610 H 61.263 1.36802 0.804419 0
M  V30 611 H 61.284 1.43336 3.5247 0
M  V30 612 H 60.796 2.9544 2.51668 0
M  V30 613 H 58.897 0.762995 3.64704 0
M  V30 614 H 59.01 2.61047 4.01735 0
M  V30 615 H 57.374 1.30565 2.18689 0
M  V30 616 H 58.157 2.92929 1.79017 0
M  V30 617 N 60.6021 -1.18246 1.0419 0
M  V30 618 C 61.8511 -1.87588 0.741194 0
M  V30 619 C 62.1641 -1.81303 -0.734066 0
M  V30 620 O 63.3701 -2.46019 -1.14834 0
M  V30 621 C 61.8261 -3.36538 1.27555 0
M  V30 622 C 61.4341 -3.51349 2.77953 0
M  V30 623 C 63.1781 -4.11273 1.05143 0
M  V30 624 C 61.0851 -4.94265 3.2474 0
M  V30 625 H 60.0151 -0.702622 0.273565 0
M  V30 626 H 62.6661 -1.33601 1.25789 0
M  V30 627 H 61.0481 -3.9 0.686703 0
M  V30 628 H 62.2221 -3.08153 3.42605 0
M  V30 629 H 60.5371 -2.90022 2.98791 0
M  V30 630 H 63.1341 -5.16689 1.37611 0
M  V30 631 H 63.4771 -4.16298 -0.0112774 0
M  V30 632 H 64.0101 -3.63987 1.60495 0
M  V30 633 H 60.7491 -4.94408 4.30396 0
M  V30 634 H 60.2691 -5.38172 2.64823 0
M  V30 635 H 61.9481 -5.62987 3.18834 0
M  V30 636 N 62.0802 -0.821533 -1.34494 0
M  V30 637 C 63.3082 -0.421884 -2.02553 0
M  V30 638 C 63.7232 0.971745 -1.61872 0
M  V30 639 O 63.0802 1.62864 -0.823496 0
M  V30 640 C 63.1312 -0.51285 -3.57844 0
M  V30 641 O 62.8522 -1.85155 -3.97051 0
M  V30 642 C 64.3532 -0.107921 -4.43169 0
M  V30 643 H 61.5732 -0.169482 -0.649243 0
M  V30 644 H 64.1172 -1.1093 -1.71798 0
M  V30 645 H 62.2722 0.126474 -3.87193 0
M  V30 646 H 62.6862 -1.82482 -4.91732 0
M  V30 647 H 64.1602 -0.222657 -5.51551 0
M  V30 648 H 64.6372 0.948401 -4.28838 0
M  V30 649 H 65.2432 -0.720989 -4.19144 0
M  V30 650 N 63.5583 1.46682 -0.576371 0
M  V30 651 C 64.4683 2.34032 0.163141 0
M  V30 652 C 65.4843 1.49367 0.892501 0
M  V30 653 O 66.6603 1.82252 0.857106 0
M  V30 654 C 63.7253 3.26435 1.16795 0
M  V30 655 C 62.7863 4.26998 0.443944 0
M  V30 656 C 62.0193 5.14986 1.40088 0
M  V30 657 O 62.2423 5.05785 2.637 0
M  V30 658 O 61.1763 5.94906 0.914917 0
M  V30 659 H 65.0023 2.98607 -0.55388 0
M  V30 660 H 62.5873 1.45554 -0.336821 0
M  V30 661 H 64.4693 3.83459 1.74748 0
M  V30 662 H 63.1443 2.64465 1.86655 0
M  V30 663 H 62.0513 3.7368 -0.177271 0
M  V30 664 H 63.3843 4.91736 -0.213566 0
M  V30 665 N 65.0364 0.313813 1.54444 0
M  V30 666 C 65.9844 -0.572171 2.25453 0
M  V30 667 C 66.9784 -1.12657 1.2651 0
M  V30 668 O 68.1844 -1.07573 1.44319 0
M  V30 669 H 64.5594 -0.203146 0.724041 0
M  V30 670 H 66.5304 0.0491145 2.9836 0
M  V30 671 C 65.2794 -1.72626 3.0182 0
M  V30 672 H 64.6024 -1.30891 3.77767 0
M  V30 673 H 66.0424 -2.32199 3.54767 0
M  V30 674 C 64.5014 -2.63806 2.09542 0
M  V30 675 O 65.0314 -3.65256 1.67185 0
M  V30 676 N 63.2374 -2.31824 1.75232 0
M  V30 677 H 62.7844 -1.49368 2.09873 0
M  V30 678 H 62.7424 -2.93095 1.13767 0
M  V30 679 N 66.5145 -1.57545 0.0417849 0
M  V30 680 C 67.7395 -1.97035 -0.647455 0
M  V30 681 C 68.1645 -0.918775 -1.64135 0
M  V30 682 O 67.5225 0.119006 -1.80909 0
M  V30 683 C 67.5705 -3.35609 -1.31905 0
M  V30 684 O 66.6745 -3.3287 -2.43457 0
M  V30 685 H 66.0155 -0.64211 -0.169086 0
M  V30 686 H 68.5455 -2.04318 0.107399 0
M  V30 687 H 68.5555 -3.72126 -1.67291 0
M  V30 688 H 67.2305 -4.11685 -0.590586 0
M  V30 689 H 65.8075 -3.08087 -2.10088 0
M  V30 690 N 67.9926 0.231505 -1.5589 0
M  V30 691 C 68.9226 1.29022 -1.94617 0
M  V30 692 C 69.9036 1.4941 -0.813067 0
M  V30 693 O 71.0886 1.6176 -1.07459 0
M  V30 694 C 68.2186 2.64199 -2.25424 0
M  V30 695 C 67.1726 2.58484 -3.41131 0
M  V30 696 C 66.4986 3.97599 -3.57518 0
M  V30 697 C 67.7986 2.1413 -4.76388 0
M  V30 698 H 69.4926 0.968563 -2.83301 0
M  V30 699 H 67.0386 0.464479 -1.36303 0
M  V30 700 H 68.9916 3.38413 -2.51107 0
M  V30 701 H 67.7156 2.98032 -1.33583 0
M  V30 702 H 66.3746 1.86727 -3.15481 0
M  V30 703 H 66.0226 4.28723 -2.6307 0
M  V30 704 H 65.7226 3.94659 -4.35337 0
M  V30 705 H 67.2466 4.7349 -3.85538 0
M  V30 706 H 68.6606 2.78083 -5.01341 0
M  V30 707 H 67.0576 2.2227 -5.57419 0
M  V30 708 H 68.1276 1.09331 -4.72414 0
M  V30 709 N 69.4707 1.49531 0.497807 0
M  V30 710 C 70.7477 1.49682 1.25915 0
M  V30 711 C 71.1277 0.226339 2.09883 0
M  V30 712 O 70.4757 -0.791189 2.14365 0
M  V30 713 C 70.6857 2.77755 2.11313 0
M  V30 714 C 72.0337 3.27371 2.70395 0
M  V30 715 O 73.0577 2.78894 2.21578 0
M  V30 716 O 71.9167 4.11808 3.59272 0
M  V30 717 H 69.0107 0.599228 0.56996 0
M  V30 718 H 71.5567 1.61798 0.511816 0
M  V30 719 H 70.3287 3.61713 1.49264 0
M  V30 720 H 69.9517 2.68515 2.93233 0
M  V30 721 N 70.9488 -0.749086 1.3866 0
M  V30 722 C 71.9118 -1.84457 1.36045 0
M  V30 723 C 72.9118 -1.58682 0.260122 0
M  V30 724 O 74.1018 -1.66343 0.517261 0
M  V30 725 C 71.2338 -3.22008 1.11911 0
M  V30 726 H 72.4268 -1.88182 2.33512 0
M  V30 727 H 69.9798 -0.951266 1.24019 0
M  V30 728 H 70.7148 -3.2395 0.150686 0
M  V30 729 H 70.4998 -3.42111 1.91579 0
M  V30 730 H 71.9898 -4.0208 1.12788 0
M  V30 731 N 72.4269 -1.23603 -0.977757 0
M  V30 732 C 73.3369 -1.03632 -2.1047 0
M  V30 733 C 74.3529 0.0199435 -1.73989 0
M  V30 734 O 75.5289 -0.176076 -2.00629 0
M  V30 735 C 72.5939 -0.63276 -3.40877 0
M  V30 736 C 71.6549 -1.76437 -3.91367 0
M  V30 737 C 70.8879 -1.37997 -5.15551 0
M  V30 738 O 71.1109 -0.265357 -5.69782 0
M  V30 739 O 70.0449 -2.20201 -5.60174 0
M  V30 740 H 73.8709 -1.98086 -2.30208 0
M  V30 741 H 71.4559 -1.02332 -1.08851 0
M  V30 742 H 73.3379 -0.418761 -4.19314 0
M  V30 743 H 72.0129 0.282754 -3.22463 0
M  V30 744 H 70.9199 -2.03304 -3.14036 0
M  V30 745 H 72.2529 -2.6583 -4.14241 0
M  V30 746 N 73.905 1.17692 -1.04816 0
M  V30 747 C 74.837 2.21103 -0.603822 0
M  V30 748 C 75.85 1.59411 0.33046 0
M  V30 749 O 77.039 1.7807 0.12379 0
M  V30 750 C 74.139 3.38623 0.136898 0
M  V30 751 C 73.312 4.29888 -0.807137 0
M  V30 752 C 72.371 5.26088 -0.10836 0
M  V30 753 O 71.397 5.64353 -0.741232 0
M  V30 754 N 72.599 5.68882 1.15558 0
M  V30 755 H 75.364 2.59848 -1.49329 0
M  V30 756 H 72.925 1.32553 -0.929587 0
M  V30 757 H 74.917 4.00009 0.614401 0
M  V30 758 H 73.487 2.98508 0.927993 0
M  V30 759 H 72.707 3.65993 -1.46434 0
M  V30 760 H 73.995 4.87759 -1.44807 0
M  V30 761 H 73.393 5.39861 1.69015 0
M  V30 762 H 71.95 6.32429 1.57722 0
M  V30 763 N 75.3831 0.828654 1.34056 0
M  V30 764 C 76.6311 0.41863 1.97717 0
M  V30 765 C 76.9521 -1.02314 1.66002 0
M  V30 766 O 76.2221 -1.71119 0.953683 0
M  V30 767 H 74.8021 0.151809 0.731412 0
M  V30 768 H 77.4641 1.05936 1.63596 0
M  V30 769 H 76.5601 0.542318 3.07352 0
M  V30 770 N 76.8612 -1.46375 0.584142 0
M  V30 771 C 77.7912 -2.33103 -0.136037 0
M  V30 772 C 78.7722 -1.45431 -0.882255 0
M  V30 773 O 79.9572 -1.74246 -0.857434 0
M  V30 774 C 77.0872 -3.27731 -1.14933 0
M  V30 775 C 76.0412 -4.24855 -0.517862 0
M  V30 776 C 75.3672 -5.09001 -1.63773 0
M  V30 777 C 76.6672 -5.19439 0.545886 0
M  V30 778 H 78.3612 -2.93568 0.588086 0
M  V30 779 H 75.9072 -1.41166 0.284259 0
M  V30 780 H 77.8602 -3.87261 -1.66153 0
M  V30 781 H 76.5842 -2.65377 -1.90375 0
M  V30 782 H 75.2432 -3.6659 -0.0267361 0
M  V30 783 H 74.8912 -4.43031 -2.38185 0
M  V30 784 H 74.5912 -5.74777 -1.22085 0
M  V30 785 H 76.1152 -5.71396 -2.15266 0
M  V30 786 H 77.5292 -5.73177 0.118704 0
M  V30 787 H 75.9262 -5.93566 0.88317 0
M  V30 788 H 76.9962 -4.63285 1.43162 0
M  V30 789 N 78.3393 -0.321999 -1.54275 0
M  V30 790 C 79.5853 0.281461 -2.00837 0
M  V30 791 C 79.9183 1.51909 -1.20985 0
M  V30 792 O 79.1933 1.923 -0.291733 0
M  V30 793 C 79.4763 0.617162 -3.54772 0
M  V30 794 C 79.3293 -0.631064 -4.45351 0
M  V30 795 C 80.6483 1.43542 -4.16033 0
M  V30 796 H 77.7673 0.100826 -0.730071 0
M  V30 797 H 80.4093 -0.438268 -1.84876 0
M  V30 798 H 78.5593 1.23034 -3.68504 0
M  V30 799 H 80.2313 -1.26934 -4.43492 0
M  V30 800 H 78.4743 -1.26025 -4.15091 0
M  V30 801 H 79.1453 -0.351735 -5.50878 0
M  V30 802 H 81.6213 0.917134 -4.05867 0
M  V30 803 H 80.4973 1.63907 -5.23856 0
M  V30 804 H 80.7583 2.43108 -3.69257 0
M  V30 805 N 79.8174 1.5752 -0.0501392 0
M  V30 806 C 81.0664 1.91827 0.623328 0
M  V30 807 C 81.3794 0.930222 1.72065 0
M  V30 808 O 82.5854 1.1653 2.4522 0
M  V30 809 C 81.0414 3.40692 1.16003 0
M  V30 810 C 80.6494 4.479 0.0948811 0
M  V30 811 C 82.3934 3.84034 1.80881 0
M  V30 812 C 80.3004 5.87879 0.644411 0
M  V30 813 H 79.2304 0.715918 0.236596 0
M  V30 814 H 81.8814 1.83115 -0.118861 0
M  V30 815 H 80.2634 3.44405 1.9545 0
M  V30 816 H 81.4374 4.55775 -0.678675 0
M  V30 817 H 79.7524 4.13892 -0.45637 0
M  V30 818 H 82.3494 4.85984 2.22988 0
M  V30 819 H 82.6924 3.20225 2.6601 0
M  V30 820 H 83.2254 3.82833 1.0809 0
M  V30 821 H 79.9644 6.55282 -0.169229 0
M  V30 822 H 79.4844 5.83567 1.38598 0
M  V30 823 H 81.1634 6.37098 1.12763 0
M  V30 824 N 81.2955 -0.223234 1.56011 0
M  V30 825 C 82.7065 -0.790368 1.69145 0
M  V30 826 C 83.0575 -1.85055 0.651845 0
M  V30 827 O 82.1825 -2.15498 -0.197359 0
M  V30 828 C 82.7775 -1.4404 3.06656 0
M  V30 829 C 81.3365 -1.95494 3.2165 0
M  V30 830 C 80.4835 -0.814506 2.65068 0
M  V30 831 H 83.4345 0.00139011 1.587 0
M  V30 832 H 83.4555 -2.30916 3.0242 0
M  V30 833 H 82.9675 -0.668543 3.82298 0
M  V30 834 H 81.0685 -2.75487 2.50874 0
M  V30 835 H 81.1815 -2.13607 4.28846 0
M  V30 836 H 79.5455 -1.22137 2.23505 0
M  V30 837 H 80.3285 -0.0553515 3.43255 0
M  V30 838 N 82.7736 -1.49793 -0.48987 0
M  V30 839 C 84.1846 -1.52914 -1.07118 0
M  V30 840 C 84.5356 -0.321738 -1.93544 0
M  V30 841 O 83.6606 0.567338 -2.08831 0
M  V30 842 C 84.2556 -2.771 -1.94938 0
M  V30 843 C 82.8146 -2.82963 -2.48212 0
M  V30 844 C 81.9616 -2.46972 -1.26096 0
M  V30 845 H 84.9126 -1.56329 -0.273289 0
M  V30 846 H 84.9336 -2.57892 -2.79771 0
M  V30 847 H 84.4456 -3.64959 -1.32009 0
M  V30 848 H 82.5466 -1.99411 -3.14748 0
M  V30 849 H 82.6596 -3.85406 -2.84603 0
M  V30 850 H 81.0236 -1.98994 -1.58976 0
M  V30 851 H 81.8066 -3.37118 -0.648581 0
M  V30 852 N 84.2517 0.741722 -1.39055 0
M  V30 853 C 85.4987 1.50114 -1.35912 0
M  V30 854 C 85.8267 1.94443 0.0470937 0
M  V30 855 O 85.0817 1.66612 1.02659 0
M  V30 856 C 85.3807 2.7592 -2.27163 0
M  V30 857 C 85.0467 2.50493 -3.74919 0
M  V30 858 C 83.7087 2.43267 -4.1518 0
M  V30 859 C 86.0607 2.28585 -4.684 0
M  V30 860 C 83.3887 2.12166 -5.46994 0
M  V30 861 C 85.7407 1.99002 -6.00484 0
M  V30 862 C 84.4047 1.90241 -6.39816 0
M  V30 863 H 83.6747 0.549306 -0.497336 0
M  V30 864 H 86.3217 0.851896 -1.71508 0
M  V30 865 H 84.6267 3.45553 -1.84663 0
M  V30 866 H 86.3237 3.33923 -2.22028 0
M  V30 867 H 82.9137 2.56992 -3.43006 0
M  V30 868 H 87.0977 2.33139 -4.38132 0
M  V30 869 H 82.3537 2.03901 -5.76398 0
M  V30 870 H 86.5277 1.81057 -6.72452 0
M  V30 871 H 84.1547 1.65907 -7.41875 0
M  V30 872 N 85.7298 1.2412 0.971189 0
M  V30 873 C 86.9758 1.08041 1.71625 0
M  V30 874 C 87.3088 -0.380407 1.90438 0
M  V30 875 O 86.5838 -1.28127 1.46334 0
M  V30 876 C 86.8668 1.81682 3.10908 0
M  V30 877 C 86.7198 3.35493 2.99608 0
M  V30 878 C 88.0388 1.58671 4.10501 0
M  V30 879 H 85.1578 0.39388 0.622919 0
M  V30 880 H 87.7998 1.52743 1.13003 0
M  V30 881 H 85.9498 1.43684 3.60953 0
M  V30 882 H 87.6218 3.83068 2.57015 0
M  V30 883 H 85.8648 3.64052 2.35899 0
M  V30 884 H 86.5358 3.82217 3.98264 0
M  V30 885 H 89.0118 1.91719 3.69301 0
M  V30 886 H 87.8878 2.1266 5.06031 0
M  V30 887 H 88.1488 0.524161 4.38982 0
M  V30 888 N 87.2079 -1.17134 1.05439 0
M  V30 889 C 88.1179 -2.24878 0.668365 0
M  V30 890 C 89.1339 -1.71186 -0.311687 0
M  V30 891 O 90.3099 -2.00738 -0.163161 0
M  V30 892 C 87.3749 -3.46662 0.051648 0
M  V30 893 C 86.4359 -4.15429 1.08246 0
M  V30 894 C 85.6689 -5.31399 0.495082 0
M  V30 895 O 85.8919 -5.66153 -0.694743 0
M  V30 896 O 84.8259 -5.89187 1.23056 0
M  V30 897 H 88.6519 -2.60189 1.56637 0
M  V30 898 H 86.2369 -1.24482 0.826104 0
M  V30 899 H 88.1189 -4.20394 -0.290966 0
M  V30 900 H 86.7939 -3.13142 -0.819971 0
M  V30 901 H 85.7009 -3.43704 1.47711 0
M  V30 902 H 87.0339 -4.52982 1.92532 0
M  V30 903 N 88.686 -0.835752 -1.33615 0
M  V30 904 C 90.097 -0.487099 -1.80234 0
M  V30 905 C 90.448 0.993627 -1.69179 0
M  V30 906 O 89.573 1.77403 -1.23924 0
M  V30 907 C 90.168 -0.877385 -3.27242 0
M  V30 908 C 88.727 -0.580915 -3.7189 0
M  V30 909 C 87.874 -1.0874 -2.5509 0
M  V30 910 H 90.825 -1.02474 -1.2118 0
M  V30 911 H 90.846 -0.186195 -3.80044 0
M  V30 912 H 90.358 -1.95512 -3.35256 0
M  V30 913 H 88.459 0.486881 -3.69405 0
M  V30 914 H 88.572 -1.13396 -4.65487 0
M  V30 915 H 86.936 -0.508392 -2.49575 0
M  V30 916 H 87.719 -2.17184 -2.65868 0
M  V30 917 N 90.1641 1.46063 -0.591896 0
M  V30 918 C 91.1141 2.27458 0.157172 0
M  V30 919 C 92.0981 1.3641 0.853301 0
M  V30 920 O 93.2901 1.60517 0.74588 0
M  V30 921 C 90.4191 3.22956 1.16423 0
M  V30 922 C 89.5051 4.2149 0.469742 0
M  V30 923 N 89.8961 5.03519 -0.479839 0
M  V30 924 C 88.1941 4.40161 0.719319 0
M  V30 925 C 88.8951 5.74904 -0.886591 0
M  V30 926 N 87.8711 5.43097 -0.233731 0
M  V30 927 H 91.6731 2.88272 -0.572392 0
M  V30 928 H 89.1871 1.57024 -0.414375 0
M  V30 929 H 91.1841 3.79986 1.71513 0
M  V30 930 H 89.8441 2.63701 1.89451 0
M  V30 931 H 90.8551 5.1078 -0.855823 0
M  V30 932 H 87.5321 3.92046 1.43548 0
M  V30 933 H 88.9221 6.50844 -1.66888 0
M  V30 934 N 91.6422 0.330177 1.54103 0
M  V30 935 C 92.8912 -0.271336 1.99867 0
M  V30 936 C 93.2042 -1.52723 1.22209 0
M  V30 937 O 94.4102 -2.20515 1.58383 0
M  V30 938 C 92.8662 -0.534032 3.55916 0
M  V30 939 C 92.4742 0.705193 4.42415 0
M  V30 940 C 94.2182 -1.09514 4.1013 0
M  V30 941 C 92.1252 0.414035 5.89949 0
M  V30 942 H 91.0552 -0.105166 0.74663 0
M  V30 943 H 93.7062 0.443429 1.78062 0
M  V30 944 H 92.0882 -1.30915 3.73734 0
M  V30 945 H 93.2622 1.4804 4.36372 0
M  V30 946 H 91.5772 1.18698 3.99124 0
M  V30 947 H 94.1742 -1.3277 5.17954 0
M  V30 948 H 94.5172 -2.04656 3.62521 0
M  V30 949 H 95.0502 -0.381038 3.95971 0
M  V30 950 H 91.7892 1.33481 6.41766 0
M  V30 951 H 91.3092 -0.323336 5.98928 0
M  V30 952 H 92.9882 0.0263105 6.46995 0
M  V30 953 N 93.1203 -1.57491 0.0584922 0
M  V30 954 C 94.0703 -2.08474 -0.923188 0
M  V30 955 C 95.0543 -0.991479 -1.26722 0
M  V30 956 O 96.2463 -1.25473 -1.24842 0
M  V30 957 C 93.3753 -2.6392 -2.19548 0
M  V30 958 C 92.4613 -3.80227 -1.87852 0
M  V30 959 N 92.8523 -4.89714 -1.26546 0
M  V30 960 C 91.1503 -3.89271 -2.17679 0
M  V30 961 C 91.8513 -5.70689 -1.12644 0
M  V30 962 N 90.8273 -5.18531 -1.63176 0
M  V30 963 H 94.6293 -2.90517 -0.444653 0
M  V30 964 H 92.1433 -1.61745 -0.145764 0
M  V30 965 H 94.1403 -2.98752 -2.9078 0
M  V30 966 H 92.8003 -1.83318 -2.68001 0
M  V30 967 H 93.8113 -5.09358 -0.936757 0
M  V30 968 H 90.4883 -3.19623 -2.68602 0
M  V30 969 H 91.8783 -6.6875 -0.6499 0
M  V30 970 N 94.5984 0.214957 -1.56127 0
M  V30 971 C 95.5284 1.2695 -1.95974 0
M  V30 972 C 96.5094 1.48539 -0.828868 0
M  V30 973 O 97.6944 1.60611 -1.09168 0
M  V30 974 C 94.8244 2.61794 -2.28214 0
M  V30 975 C 93.7784 2.54851 -3.43853 0
M  V30 976 C 93.1044 3.93785 -3.61715 0
M  V30 977 C 94.4044 2.09065 -4.78632 0
M  V30 978 H 96.0984 0.93846 -2.84312 0
M  V30 979 H 93.6444 0.449996 -1.36788 0
M  V30 980 H 95.5974 3.35731 -2.54682 0
M  V30 981 H 94.3214 2.96599 -1.36736 0
M  V30 982 H 92.9804 1.8337 -3.17444 0
M  V30 983 H 92.6284 4.25908 -2.67602 0
M  V30 984 H 92.3284 3.90019 -4.39498 0
M  V30 985 H 93.8524 4.69374 -3.90539 0
M  V30 986 H 95.2664 2.7275 -5.04262 0
M  V30 987 H 93.6634 2.16346 -5.59745 0
M  V30 988 H 94.7334 1.04315 -4.73547 0
M  V30 989 N 96.0765 1.50051 0.48192 0
M  V30 990 C 97.3535 1.51009 1.2432 0
M  V30 991 C 97.7335 0.248587 2.09631 0
M  V30 992 O 97.0815 -0.768409 2.15192 0
M  V30 993 C 97.2915 2.79981 2.08355 0
M  V30 994 C 98.6395 3.3022 2.66908 0
M  V30 995 O 99.6635 2.81228 2.18607 0
M  V30 996 O 98.5225 4.15595 3.54884 0
M  V30 997 H 95.6165 0.605239 0.563573 0
M  V30 998 H 98.1625 1.62332 0.494627 0
M  V30 999 H 96.9345 3.63275 1.45419 0
M  V30 1000 H 96.5575 2.7161 2.90368 0
M  V30 1001 N 97.5546 -0.734337 1.39446 0
M  V30 1002 C 98.7826 -1.52358 1.39981 0
M  V30 1003 C 99.1976 -1.88799 -0.0054975 0
M  V30 1004 O 98.5546 -1.54146 -0.976998 0
M  V30 1005 C 98.6056 -2.81072 2.27333 0
M  V30 1006 O 98.3266 -2.46178 3.62392 0
M  V30 1007 C 99.8276 -3.75096 2.36259 0
M  V30 1008 H 97.0476 -0.470806 0.478103 0
M  V30 1009 H 99.5916 -0.907339 1.83269 0
M  V30 1010 H 97.7466 -3.39026 1.87457 0
M  V30 1011 H 98.1606 -3.28866 4.08592 0
M  V30 1012 H 99.6346 -4.62305 3.01626 0
M  V30 1013 H 100.112 -4.16892 1.38194 0
M  V30 1014 H 100.718 -3.23061 2.76608 0
M  V30 1015 N 99.0327 -1.24633 -0.964593 0
M  V30 1016 C 100.261 -1.11501 -1.74285 0
M  V30 1017 C 100.676 0.332165 -1.85855 0
M  V30 1018 O 100.033 1.22903 -1.34911 0
M  V30 1019 C 100.084 -1.75258 -3.16175 0
M  V30 1020 O 99.8047 -3.14318 -3.05182 0
M  V30 1021 C 101.306 -1.67776 -4.10324 0
M  V30 1022 H 98.5257 -0.389407 -0.546446 0
M  V30 1023 H 101.07 -1.64801 -1.21083 0
M  V30 1024 H 99.2247 -1.25954 -3.66353 0
M  V30 1025 H 99.6387 -3.4551 -3.94618 0
M  V30 1026 H 101.113 -2.17064 -5.0753 0
M  V30 1027 H 101.59 -0.639584 -4.34518 0
M  V30 1028 H 102.196 -2.16522 -3.66058 0
M  V30 1029 N 100.511 1.16574 -1.06058 0
M  V30 1030 C 101.443 2.2045 -0.627239 0
M  V30 1031 C 102.456 1.59752 0.313534 0
M  V30 1032 O 103.645 1.78192 0.104896 0
M  V30 1033 C 100.745 3.3875 0.100974 0
M  V30 1034 C 99.9178 4.29008 -0.852687 0
M  V30 1035 C 98.9768 5.25944 -0.164152 0
M  V30 1036 O 98.0028 5.63535 -0.801047 0
M  V30 1037 N 99.2048 5.70075 1.09518 0
M  V30 1038 H 101.97 2.58249 -1.52077 0
M  V30 1039 H 99.5308 1.3156 -0.943594 0
M  V30 1040 H 101.523 4.00638 0.57194 0
M  V30 1041 H 100.093 2.99476 0.89628 0
M  V30 1042 H 99.3128 3.64419 -1.50308 0
M  V30 1043 H 100.601 4.86195 -1.49972 0
M  V30 1044 H 99.9988 5.41624 1.6328 0
M  V30 1045 H 98.5558 6.34067 1.51006 0
M  V30 1046 N 101.989 0.842826 1.3317 0
M  V30 1047 C 103.217 0.454055 2.01856 0
M  V30 1048 C 103.632 -0.94587 1.63397 0
M  V30 1049 O 102.989 -1.61534 0.849302 0
M  V30 1050 C 103.04 0.569715 3.56982 0
M  V30 1051 O 102.761 1.91448 3.94055 0
M  V30 1052 C 104.262 0.178412 4.42941 0
M  V30 1053 H 101.482 0.17979 0.646465 0
M  V30 1054 H 104.026 1.1365 1.70012 0
M  V30 1055 H 102.181 -0.0648587 3.87346 0
M  V30 1056 H 102.595 1.90282 4.88767 0
M  V30 1057 H 104.069 0.310376 5.51127 0
M  V30 1058 H 104.546 -0.880056 4.30293 0
M  V30 1059 H 105.152 0.787579 4.17944 0
M  V30 1060 N 103.467 -1.45747 0.599634 0
M  V30 1061 C 104.43 -2.28917 -0.113835 0
M  V30 1062 C 105.43 -1.3933 -0.802729 0
M  V30 1063 O 106.62 -1.61534 -0.652103 0
M  V30 1064 C 103.752 -3.20152 -1.17114 0
M  V30 1065 H 104.945 -2.93478 0.617289 0
M  V30 1066 H 102.498 -1.52137 0.358327 0
M  V30 1067 H 103.233 -2.60374 -1.93329 0
M  V30 1068 H 103.018 -3.86133 -0.681468 0
M  V30 1069 H 104.508 -3.82708 -1.67105 0
M  V30 1070 N 104.945 -0.338344 -1.53925 0
M  V30 1071 C 106.193 0.259245 -2.0043 0
M  V30 1072 C 106.514 1.51484 -1.22791 0
M  V30 1073 O 105.784 1.93037 -0.33368 0
M  V30 1074 H 104.364 0.0987845 -0.740439 0
M  V30 1075 H 107.026 -0.458302 -1.89435 0
M  V30 1076 H 106.122 0.505334 -3.07982 0
M  V30 1077 N 106.423 1.57458 -0.0668435 0
M  V30 1078 C 107.355 2.09413 0.931601 0
M  V30 1079 C 108.368 1.02522 1.26464 0
M  V30 1080 O 109.557 1.30049 1.22269 0
M  V30 1081 C 106.657 2.53537 2.24882 0
M  V30 1082 C 105.83 3.83944 2.09537 0
M  V30 1083 C 104.889 4.14214 3.2452 0
M  V30 1084 O 103.915 4.83891 2.9973 0
M  V30 1085 N 105.117 3.67367 4.49469 0
M  V30 1086 H 107.882 2.95699 0.488048 0
M  V30 1087 H 105.443 1.61462 0.119009 0
M  V30 1088 H 107.435 2.70853 3.00701 0
M  V30 1089 H 106.005 1.72415 2.60753 0
M  V30 1090 H 105.225 3.76057 1.18215 0
M  V30 1091 H 106.513 4.69312 1.96529 0
M  V30 1092 H 105.911 3.11068 4.72497 0
M  V30 1093 H 104.468 3.89891 5.2233 0
M  V30 1094 N 107.901 -0.206675 1.56239 0
M  V30 1095 C 109.312 -0.772383 1.69974 0
M  V30 1096 C 109.663 -1.84353 0.671436 0
M  V30 1097 O 108.788 -2.15695 -0.174491 0
M  V30 1098 C 109.383 -1.40779 3.08167 0
M  V30 1099 C 107.942 -1.92072 3.23706 0
M  V30 1100 C 107.089 -0.786347 2.65917 0
M  V30 1101 H 110.04 0.0182223 1.5869 0
M  V30 1102 H 110.061 -2.27696 3.04852 0
M  V30 1103 H 109.573 -0.627958 3.82986 0
M  V30 1104 H 107.674 -2.7281 2.53782 0
M  V30 1105 H 107.787 -2.09046 4.31087 0
M  V30 1106 H 106.151 -1.1976 2.24788 0
M  V30 1107 H 106.934 -0.0189416 3.43295 0
M  V30 1108 N 109.379 -1.50304 -0.473955 0
M  V30 1109 C 110.327 -1.69482 -1.59307 0
M  V30 1110 C 111.321 -0.560669 -1.59853 0
M  V30 1111 O 112.527 -0.741087 -1.64036 0
M  V30 1112 H 108.902 -0.534892 -0.528578 0
M  V30 1113 H 110.873 -2.63364 -1.40293 0
M  V30 1114 C 109.622 -1.80354 -2.97267 0
M  V30 1115 H 108.945 -2.67012 -2.97564 0
M  V30 1116 H 110.385 -1.97798 -3.75036 0
M  V30 1117 C 108.844 -0.55448 -3.32306 0
M  V30 1118 O 109.374 0.307661 -4.0052 0
M  V30 1119 N 107.58 -0.409354 -2.87702 0
M  V30 1120 H 107.127 -1.11196 -2.32364 0
M  V30 1121 H 107.085 0.425223 -3.11511 0
M  V30 1122 N 110.857 0.726932 -1.39834 0
M  V30 1123 C 112.103 1.48771 -1.38704 0
M  V30 1124 C 112.458 1.92394 0.0146387 0
M  V30 1125 O 111.751 1.64474 0.982797 0
M  V30 1126 C 111.945 2.73495 -2.30077 0
M  V30 1127 C 111.774 2.42068 -3.78989 0
M  V30 1128 C 110.544 2.33966 -4.4787 0
M  V30 1129 C 112.742 2.0708 -4.70768 0
M  V30 1130 N 110.724 1.95095 -5.82075 0
M  V30 1131 C 112.095 1.78719 -5.93683 0
M  V30 1132 C 114.15 1.93618 -4.58712 0
M  V30 1133 C 112.853 1.3825 -7.05889 0
M  V30 1134 C 114.879 1.54553 -5.70848 0
M  V30 1135 C 114.241 1.27082 -6.92842 0
M  V30 1136 H 110.34 0.542919 -0.562817 0
M  V30 1137 H 112.924 0.84408 -1.75452 0
M  V30 1138 H 111.095 3.35625 -1.95474 0
M  V30 1139 H 112.827 3.39755 -2.19883 0
M  V30 1140 H 109.582 2.51331 -4.0141 0
M  V30 1141 H 110.006 1.7823 -6.53118 0
M  V30 1142 H 114.648 2.13522 -3.64922 0
M  V30 1143 H 112.366 1.17088 -7.99572 0
M  V30 1144 H 115.952 1.44731 -5.6351 0
M  V30 1145 H 114.832 0.973069 -7.78139 0
M  V30 1146 N 112.336 1.25143 0.95797 0
M  V30 1147 C 113.284 1.05019 2.07542 0
M  V30 1148 C 114.278 -0.0178751 1.69391 0
M  V30 1149 O 115.484 0.137472 1.79474 0
M  V30 1150 H 111.859 0.32265 0.679265 0
M  V30 1151 H 113.83 1.99759 2.21673 0
M  V30 1152 C 112.579 0.682074 3.40944 0
M  V30 1153 H 111.902 1.49573 3.70767 0
M  V30 1154 H 113.342 0.580945 4.20001 0
M  V30 1155 C 111.801 -0.611608 3.31302 0
M  V30 1156 O 112.331 -1.65465 3.66038 0
M  V30 1157 N 110.537 -0.595982 2.84423 0
M  V30 1158 H 110.084 0.253192 2.56353 0
M  V30 1159 H 110.042 -1.46173 2.78354 0
M  V30 1160 N 113.814 -1.1601 1.06675 0
M  V30 1161 C 114.746 -2.20115 0.638921 0
M  V30 1162 C 115.759 -1.59916 -0.305057 0
M  V30 1163 O 116.948 -1.78245 -0.0954446 0
M  V30 1164 C 114.048 -3.38798 -0.0830083 0
M  V30 1165 C 113.221 -4.2855 0.875426 0
M  V30 1166 C 112.28 -5.25849 0.192042 0
M  V30 1167 O 111.306 -5.63102 0.830921 0
M  V30 1168 N 112.508 -5.70648 -1.06493 0
M  V30 1169 H 115.273 -2.57439 1.53444 0
M  V30 1170 H 112.834 -1.31057 0.950557 0
M  V30 1171 H 114.826 -4.00936 -0.550685 0
M  V30 1172 H 113.396 -2.99947 -0.880386 0
M  V30 1173 H 112.616 -3.63617 1.52238 0
M  V30 1174 H 113.904 -4.85393 1.52548 0
M  V30 1175 H 113.302 -5.42482 -1.60405 0
M  V30 1176 H 111.859 -6.34859 -1.47641 0
M  V30 1177 N 115.292 -0.849877 -1.32721 0
M  V30 1178 C 116.517 -0.463856 -2.02146 0
M  V30 1179 C 116.942 0.930449 -1.63476 0
M  V30 1180 O 116.3 1.61033 -0.832952 0
M  V30 1181 C 116.348 -0.604955 -3.55489 0
M  V30 1182 O 115.452 0.36425 -4.10788 0
M  V30 1183 H 114.793 -0.187046 -0.637111 0
M  V30 1184 H 117.323 -1.14775 -1.69375 0
M  V30 1185 H 117.333 -0.490696 -4.05038 0
M  V30 1186 H 116.008 -1.62174 -3.82978 0
M  V30 1187 H 114.585 0.206628 -3.72327 0
M  V30 1188 N 116.77 1.45427 -0.607355 0
M  V30 1189 C 118.018 2.01841 -0.102253 0
M  V30 1190 C 118.339 1.47832 1.27164 0
M  V30 1191 O 117.609 0.672497 1.83995 0
M  V30 1192 H 116.189 0.746188 -0.0348101 0
M  V30 1193 H 118.851 1.78229 -0.7887 0
M  V30 1194 H 117.947 3.12057 -0.0518585 0
M  V30 1195 N 118.248 0.346503 1.53744 0
M  V30 1196 C 119.476 -0.25041 2.05379 0
M  V30 1197 C 119.891 -1.43979 1.22129 0
M  V30 1198 O 119.248 -1.80677 0.257321 0
M  V30 1199 C 119.299 -0.662575 3.55376 0
M  V30 1200 O 119.02 0.479515 4.35468 0
M  V30 1201 C 120.521 -1.31989 4.23195 0
M  V30 1202 H 117.741 -0.0478198 0.669294 0
M  V30 1203 H 120.285 0.499346 1.9831 0
M  V30 1204 H 118.44 -1.36227 3.62658 0
M  V30 1205 H 118.854 0.15037 5.24284 0
M  V30 1206 H 120.328 -1.55902 5.29527 0
M  V30 1207 H 120.805 -2.27436 3.75725 0
M  V30 1208 H 121.411 -0.662154 4.20114 0
M  V30 1209 N 119.726 -1.57421 0.075193 0
M  V30 1210 C 120.656 -2.15942 -0.888324 0
M  V30 1211 C 121.637 -1.08737 -1.30806 0
M  V30 1212 O 122.822 -1.36787 -1.37851 0
M  V30 1213 C 119.952 -2.72379 -2.1547 0
M  V30 1214 C 118.906 -3.8478 -1.87425 0
M  V30 1215 C 118.232 -4.27834 -3.20721 0
M  V30 1216 C 119.532 -5.08869 -1.17684 0
M  V30 1217 H 121.226 -2.96705 -0.400799 0
M  V30 1218 H 118.772 -1.42723 -0.191342 0
M  V30 1219 H 120.725 -3.11965 -2.83295 0
M  V30 1220 H 119.449 -1.88841 -2.6647 0
M  V30 1221 H 118.108 -3.45703 -1.22004 0
M  V30 1222 H 117.756 -3.41214 -3.6957 0
M  V30 1223 H 117.456 -5.03605 -3.02746 0
M  V30 1224 H 118.98 -4.70039 -3.89738 0
M  V30 1225 H 120.394 -5.4575 -1.75584 0
M  V30 1226 H 118.791 -5.8994 -1.09956 0
M  V30 1227 H 119.861 -4.84648 -0.156453 0
M  V30 1228 N 121.204 0.198386 -1.56346 0
M  V30 1229 C 122.451 0.919286 -1.80431 0
M  V30 1230 C 122.779 1.83393 -0.647866 0
M  V30 1231 O 122.034 1.92236 0.366556 0
M  V30 1232 C 122.333 1.77031 -3.10475 0
M  V30 1233 C 121.999 1.00693 -4.39513 0
M  V30 1234 C 120.661 0.796145 -4.74568 0
M  V30 1235 C 123.013 0.469559 -5.19081 0
M  V30 1236 C 120.341 0.0364588 -5.86689 0
M  V30 1237 C 122.693 -0.2769 -6.31994 0
M  V30 1238 C 121.357 -0.49873 -6.65634 0
M  V30 1239 H 120.627 0.336391 -0.660244 0
M  V30 1240 H 123.274 0.185872 -1.90596 0
M  V30 1241 H 121.579 2.5723 -2.95533 0
M  V30 1242 H 123.276 2.33065 -3.26315 0
M  V30 1243 H 119.866 1.18122 -4.12001 0
M  V30 1244 H 124.05 0.619816 -4.92414 0
M  V30 1245 H 119.306 -0.145412 -6.11227 0
M  V30 1246 H 123.48 -0.700684 -6.92866 0
M  V30 1247 H 121.107 -1.0893 -7.52355 0
M  V30 1248 N 122.682 1.50554 0.465978 0
M  V30 1249 C 123.592 1.72585 1.58907 0
M  V30 1250 C 124.608 0.60911 1.6299 0
M  V30 1251 O 125.784 0.88804 1.80765 0
M  V30 1252 C 122.849 1.81995 2.95091 0
M  V30 1253 C 121.91 3.05751 3.01355 0
M  V30 1254 C 121.143 3.14702 4.31043 0
M  V30 1255 O 121.366 2.30313 5.21835 0
M  V30 1256 O 120.3 4.07468 4.43005 0
M  V30 1257 H 124.126 2.67799 1.43239 0
M  V30 1258 H 121.711 1.34711 0.646013 0
M  V30 1259 H 123.593 1.90335 3.75966 0
M  V30 1260 H 122.268 0.899659 3.10947 0
M  V30 1261 H 121.175 3.02908 2.19539 0
M  V30 1262 H 122.508 3.97375 2.90437 0
M  V30 1263 N 124.16 -0.719506 1.40217 0
M  V30 1264 C 125.408 -1.47641 1.3801 0
M  V30 1265 C 125.729 -1.94992 -0.018145 0
M  V30 1266 O 124.999 -1.70073 -0.972207 0
M  V30 1267 H 123.579 -0.547744 0.507923 0
M  V30 1268 H 126.241 -0.853187 1.75233 0
M  V30 1269 H 125.337 -2.35112 2.05253 0
M  V30 1270 N 125.638 -1.25649 -0.95132 0
M  V30 1271 C 126.887 -1.09988 -1.69073 0
M  V30 1272 C 127.2 0.358355 -1.92289 0
M  V30 1273 O 128.406 0.635466 -2.63958 0
M  V30 1274 C 126.862 -1.92012 -3.044 0
M  V30 1275 C 126.47 -3.42347 -2.88968 0
M  V30 1276 C 128.214 -1.8493 -3.82101 0
M  V30 1277 C 126.121 -4.16655 -4.19705 0
M  V30 1278 H 125.051 -0.407993 -0.63408 0
M  V30 1279 H 127.702 -1.49873 -1.05879 0
M  V30 1280 H 126.084 -1.44952 -3.68517 0
M  V30 1281 H 127.258 -3.97104 -2.33762 0
M  V30 1282 H 125.573 -3.50557 -2.24719 0
M  V30 1283 H 128.17 -2.37739 -4.78941 0
M  V30 1284 H 128.513 -0.817883 -4.08187 0
M  V30 1285 H 129.046 -2.29758 -3.2474 0
M  V30 1286 H 125.785 -5.20224 -3.98807 0
M  V30 1287 H 125.305 -3.66681 -4.74663 0
M  V30 1288 H 126.984 -4.24551 -4.88227 0
M  V30 1289 N 127.117 1.15442 -1.07289 0
M  V30 1290 C 128.027 2.23786 -0.704057 0
M  V30 1291 C 129.043 1.7166 0.284413 0
M  V30 1292 O 130.219 2.00972 0.131205 0
M  V30 1293 C 127.284 3.46535 -0.106792 0
M  V30 1294 C 126.345 4.13654 -1.14842 0
M  V30 1295 C 125.578 5.30544 -0.57956 0
M  V30 1296 O 125.801 5.67187 0.604585 0
M  V30 1297 O 124.735 5.87154 -1.32414 0
M  V30 1298 H 128.561 2.57664 -1.60757 0
M  V30 1299 H 126.146 1.23152 -0.845803 0
M  V30 1300 H 128.028 4.20804 0.224048 0
M  V30 1301 H 126.703 3.14407 0.770049 0
M  V30 1302 H 125.61 3.4131 -1.5316 0
M  V30 1303 H 126.943 4.49861 -1.99714 0
M  V30 1304 N 128.595 0.856903 1.32268 0
M  V30 1305 C 130.011 0.547061 1.49931 0
M  V30 1306 C 130.211 -0.921781 1.7918 0
M  V30 1307 O 129.267 -1.70469 1.8627 0
M  V30 1308 C 130.58 1.43599 2.64196 0
M  V30 1309 C 132.128 1.43665 2.78081 0
M  V30 1310 C 132.603 2.31085 3.95428 0
M  V30 1311 N 134.094 2.28893 4.02694 0
M  V30 1312 C 134.829 2.93262 4.92732 0
M  V30 1313 N 134.325 3.66751 5.87763 0
M  V30 1314 N 136.118 2.82638 4.85873 0
M  V30 1315 H 128.269 1.8075 1.11549 0
M  V30 1316 H 130.532 0.772144 0.549997 0
M  V30 1317 H 130.238 2.48058 2.49319 0
M  V30 1318 H 130.112 1.12502 3.60032 0
M  V30 1319 H 132.499 0.399701 2.92381 0
M  V30 1320 H 132.58 1.7878 1.82952 0
M  V30 1321 H 132.224 3.34849 3.81888 0
M  V30 1322 H 132.154 1.93302 4.89839 0
M  V30 1323 H 134.645 1.75466 3.34694 0
M  V30 1324 H 134.958 4.13027 6.53168 0
M  V30 1325 H 133.303 3.70859 5.87783 0
M  V30 1326 H 136.494 2.24774 4.10602 0
M  V30 1327 H 136.667 3.33084 5.55841 0
M  V30 1328 N 130.073 -1.45103 0.615059 0
M  V30 1329 C 131.319 -2.03035 0.121804 0
M  V30 1330 C 131.674 -1.47393 -1.23665 0
M  V30 1331 O 130.967 -0.642061 -1.80522 0
M  V30 1332 C 131.161 -3.57386 0.0318797 0
M  V30 1333 C 130.99 -4.28 1.38007 0
M  V30 1334 C 129.76 -4.65624 1.9627 0
M  V30 1335 C 131.958 -4.5948 2.31047 0
M  V30 1336 N 129.94 -5.21132 3.24492 0
M  V30 1337 C 131.311 -5.159 3.43872 0
M  V30 1338 C 133.366 -4.41423 2.30326 0
M  V30 1339 C 132.069 -5.56165 4.5615 0
M  V30 1340 C 134.095 -4.82726 3.41658 0
M  V30 1341 C 133.457 -5.39245 4.53205 0
M  V30 1342 H 129.556 -0.77702 0.0881159 0
M  V30 1343 H 132.14 -1.76819 0.815044 0
M  V30 1344 H 130.311 -3.83247 -0.630599 0
M  V30 1345 H 132.043 -4.01976 -0.468721 0
M  V30 1346 H 128.798 -4.49421 1.49392 0
M  V30 1347 H 129.222 -5.53377 3.90004 0
M  V30 1348 H 133.864 -3.97033 1.45343 0
M  V30 1349 H 131.582 -5.99517 5.41854 0
M  V30 1350 H 135.168 -4.7048 3.42257 0
M  V30 1351 H 134.048 -5.70616 5.37929 0
M  V30 1352 N 131.551 -0.354651 -1.53558 0
M  V30 1353 C 132.514 0.484566 -2.24019 0
M  V30 1354 C 133.514 1.01861 -1.24422 0
M  V30 1355 O 134.704 0.906097 -1.4878 0
M  V30 1356 C 131.836 1.67615 -2.96847 0
M  V30 1357 H 133.029 -0.131843 -2.9961 0
M  V30 1358 H 130.582 -0.106165 -1.55939 0
M  V30 1359 H 131.317 2.33095 -2.25471 0
M  V30 1360 H 131.102 1.30029 -3.69912 0
M  V30 1361 H 132.592 2.27114 -3.50441 0
M  V30 1362 N 133.029 1.57378 -0.0835403 0
M  V30 1363 C 133.939 2.16897 0.894021 0
M  V30 1364 C 134.955 1.13528 1.31861 0
M  V30 1365 O 136.131 1.45848 1.3889 0
M  V30 1366 C 133.196 2.72831 2.13925 0
M  V30 1367 C 132.257 3.91115 1.76997 0
M  V30 1368 C 131.49 4.44371 2.95584 0
M  V30 1369 O 131.713 3.96596 4.09961 0
M  V30 1370 O 130.647 5.35549 2.74719 0
M  V30 1371 H 134.473 3.00814 0.417679 0
M  V30 1372 H 132.058 1.48741 0.140181 0
M  V30 1373 H 133.94 3.0863 2.86924 0
M  V30 1374 H 132.615 1.91967 2.60635 0
M  V30 1375 H 131.522 3.60148 1.01214 0
M  V30 1376 H 132.855 4.73307 1.3506 0
M  V30 1377 N 134.507 -0.190092 1.56449 0
M  V30 1378 C 135.923 -0.54113 1.50146 0
M  V30 1379 C 136.123 -1.85603 0.784465 0
M  V30 1380 O 135.179 -2.5024 0.337051 0
M  V30 1381 C 136.492 -0.591241 2.9483 0
M  V30 1382 C 138.04 -0.679732 3.0553 0
M  V30 1383 C 138.515 -0.760908 4.51635 0
M  V30 1384 N 140.006 -0.824302 4.55806 0
M  V30 1385 C 140.741 -0.907365 5.66175 0
M  V30 1386 N 140.237 -0.952422 6.86222 0
M  V30 1387 N 142.03 -0.94494 5.541 0
M  V30 1388 H 134.181 0.67235 2.01478 0
M  V30 1389 H 136.444 0.240127 0.917084 0
M  V30 1390 H 136.15 0.305905 3.50367 0
M  V30 1391 H 136.024 -1.44422 3.48457 0
M  V30 1392 H 138.411 -1.56731 2.50039 0
M  V30 1393 H 138.492 0.199549 2.5502 0
M  V30 1394 H 138.136 0.122336 5.07753 0
M  V30 1395 H 138.066 -1.65606 4.99882 0
M  V30 1396 H 140.557 -0.798526 3.69367 0
M  V30 1397 H 140.87 -1.01645 7.66086 0
M  V30 1398 H 139.215 -0.921014 6.8887 0
M  V30 1399 H 142.406 -0.906612 4.59236 0
M  V30 1400 H 142.579 -1.00622 6.4014 0
M  V30 1401 N 135.985 -1.50799 -0.457987 0
M  V30 1402 C 136.932 -1.70617 -1.5543 0
M  V30 1403 C 137.902 -0.547562 -1.56815 0
M  V30 1404 O 139.087 -0.779647 -1.74144 0
M  V30 1405 C 136.227 -1.81831 -2.93311 0
M  V30 1406 C 135.34 -3.09278 -3.01615 0
M  V30 1407 C 134.475 -3.11209 -4.30491 0
M  V30 1408 C 133.514 -4.33055 -4.32585 0
M  V30 1409 N 132.651 -4.32652 -5.52952 0
M  V30 1410 H 137.491 -2.64207 -1.37836 0
M  V30 1411 H 135.028 -1.30959 -0.669937 0
M  V30 1412 H 136.986 -1.86314 -3.73287 0
M  V30 1413 H 135.616 -0.916685 -3.0951 0
M  V30 1414 H 134.668 -3.14203 -2.1443 0
M  V30 1415 H 135.98 -3.99233 -2.99022 0
M  V30 1416 H 135.134 -3.14494 -5.18824 0
M  V30 1417 H 133.873 -2.19106 -4.35711 0
M  V30 1418 H 132.878 -4.29969 -3.42647 0
M  V30 1419 H 134.103 -5.264 -4.29046 0
M  V30 1420 H 132.049 -3.43409 -5.58933 0
M  V30 1421 H 131.966 -5.16392 -5.52155 0
M  V30 1422 H 133.234 -4.40101 -6.43375 0
M  V30 1423 N 137.463 0.71206 -1.40597 0
M  V30 1424 C 138.426 1.80785 -1.40888 0
M  V30 1425 C 139.426 1.57937 -0.302103 0
M  V30 1426 O 140.616 1.64913 -0.561182 0
M  V30 1427 C 137.748 3.18927 -1.20409 0
M  V30 1428 H 138.941 1.81924 -2.38419 0
M  V30 1429 H 136.494 0.91805 -1.26497 0
M  V30 1430 H 137.229 3.23436 -0.236522 0
M  V30 1431 H 137.014 3.36911 -2.00582 0
M  V30 1432 H 138.504 3.98949 -1.23408 0
M  V30 1433 N 138.941 1.26152 0.944643 0
M  V30 1434 C 139.871 1.09902 2.06019 0
M  V30 1435 C 140.852 0.00519538 1.70099 0
M  V30 1436 O 142.037 0.176583 1.93396 0
M  V30 1437 C 139.167 0.727562 3.39594 0
M  V30 1438 C 138.121 1.77274 3.89561 0
M  V30 1439 C 137.447 1.25569 5.19747 0
M  V30 1440 C 138.747 3.17357 4.14827 0
M  V30 1441 H 140.441 2.03217 2.19871 0
M  V30 1442 H 137.987 0.978452 1.05652 0
M  V30 1443 H 139.94 0.600777 4.17095 0
M  V30 1444 H 138.664 -0.241287 3.25707 0
M  V30 1445 H 137.323 1.88814 3.14237 0
M  V30 1446 H 136.971 0.276783 5.02238 0
M  V30 1447 H 136.671 1.95433 5.54148 0
M  V30 1448 H 138.195 1.1415 5.99835 0
M  V30 1449 H 139.609 3.08914 4.82954 0
M  V30 1450 H 138.006 3.84781 4.60504 0
M  V30 1451 H 139.076 3.63673 3.20734 0
M  V30 1452 N 140.419 -1.14872 1.07899 0
M  V30 1453 C 141.349 -2.2193 0.725887 0
M  V30 1454 C 142.33 -1.67622 -0.28927 0
M  V30 1455 O 143.515 -1.93533 -0.160787 0
M  V30 1456 C 140.645 -3.47061 0.128856 0
M  V30 1457 C 139.599 -4.14363 1.07178 0
M  V30 1458 C 138.925 -5.33636 0.337229 0
M  V30 1459 C 140.225 -4.63492 2.40775 0
M  V30 1460 H 141.919 -2.51724 1.62097 0
M  V30 1461 H 139.465 -1.20991 0.780838 0
M  V30 1462 H 141.418 -4.21199 -0.130147 0
M  V30 1463 H 140.142 -3.16617 -0.80134 0
M  V30 1464 H 138.801 -3.42173 1.3158 0
M  V30 1465 H 138.449 -4.99449 -0.596606 0
M  V30 1466 H 138.149 -5.79609 0.965788 0
M  V30 1467 H 139.673 -6.10539 0.0861567 0
M  V30 1468 H 141.087 -5.2913 2.20669 0
M  V30 1469 H 139.484 -5.20148 2.99276 0
M  V30 1470 H 140.554 -3.78834 3.02676 0
M  V30 1471 N 141.898 -0.863906 -1.31812 0
M  V30 1472 C 143.126 -0.486111 -2.01108 0
M  V30 1473 C 143.541 0.919755 -1.64882 0
M  V30 1474 O 142.898 1.60162 -0.874893 0
M  V30 1475 C 142.949 -0.626435 -3.56031 0
M  V30 1476 O 142.67 -1.97693 -3.90959 0
M  V30 1477 C 144.171 -0.248857 -4.42601 0
M  V30 1478 H 141.391 -0.190052 -0.643523 0
M  V30 1479 H 143.935 -1.1634 -1.68182 0
M  V30 1480 H 142.09 0.00322717 -3.874 0
M  V30 1481 H 142.504 -1.98034 -4.85678 0
M  V30 1482 H 143.978 -0.398016 -5.50563 0
M  V30 1483 H 144.455 0.811489 -4.31638 0
M  V30 1484 H 145.061 -0.853971 -4.16638 0
M  V30 1485 N 143.376 1.44774 -0.622745 0
M  V30 1486 C 144.326 2.2774 0.108889 0
M  V30 1487 C 145.31 1.38189 0.824175 0
M  V30 1488 O 146.502 1.62063 0.711664 0
M  V30 1489 C 143.631 3.25353 1.09546 0
M  V30 1490 C 142.717 4.22392 0.380232 0
M  V30 1491 N 143.108 5.02388 -0.586535 0
M  V30 1492 C 141.406 4.41588 0.625792 0
M  V30 1493 C 142.107 5.72894 -1.00834 0
M  V30 1494 N 141.083 5.42479 -0.348878 0
M  V30 1495 H 144.885 2.86993 -0.63341 0
M  V30 1496 H 142.399 1.5611 -0.447589 0
M  V30 1497 H 144.396 3.83538 1.63414 0
M  V30 1498 H 143.056 2.6766 1.83815 0
M  V30 1499 H 144.067 5.0885 -0.963975 0
M  V30 1500 H 140.744 3.95003 1.352 0
M  V30 1501 H 142.134 6.47158 -1.80656 0
M  V30 1502 N 144.854 0.36279 1.53368 0
M  V30 1503 C 146.131 -0.284021 1.93527 0
M  V30 1504 C 146.511 -1.66628 1.29608 0
M  V30 1505 O 145.859 -2.23942 0.45413 0
M  V30 1506 C 146.069 -0.337028 3.47369 0
M  V30 1507 C 147.417 -0.578708 4.20638 0
M  V30 1508 O 148.441 -0.418352 3.53735 0
M  V30 1509 O 147.3 -0.89074 5.39192 0
M  V30 1510 H 144.394 -0.169743 0.809393 0
M  V30 1511 H 146.94 0.41537 1.64538 0
M  V30 1512 H 145.712 0.632217 3.86159 0
M  V30 1513 H 145.335 -1.08243 3.82582 0
M  V30 1514 N 146.332 -1.57332 0.0918853 0
M  V30 1515 C 147.609 -1.85691 -0.614668 0
M  V30 1516 C 147.989 -0.988146 -1.86545 0
M  V30 1517 O 147.337 -0.0597055 -2.28422 0
M  V30 1518 C 147.547 -3.36294 -0.933126 0
M  V30 1519 C 148.895 -4.04275 -1.29796 0
M  V30 1520 O 149.919 -3.41157 -1.02424 0
M  V30 1521 O 148.778 -5.1564 -1.81047 0
M  V30 1522 H 145.872 -0.767802 -0.307261 0
M  V30 1523 H 148.418 -1.69244 0.12434 0
M  V30 1524 H 147.19 -3.91273 -0.0456404 0
M  V30 1525 H 146.813 -3.58076 -1.72822 0
M  V30 1526 N 147.81 0.181792 -1.56548 0
M  V30 1527 C 149.056 0.901431 -1.81665 0
M  V30 1528 C 149.389 1.82347 -0.668075 0
M  V30 1529 O 148.664 1.91669 0.330615 0
M  V30 1530 C 148.947 1.70618 -3.17115 0
M  V30 1531 C 148.8 0.807964 -4.42484 0
M  V30 1532 C 150.119 2.67605 -3.49393 0
M  V30 1533 H 147.238 0.32627 -0.660846 0
M  V30 1534 H 149.88 0.168134 -1.89255 0
M  V30 1535 H 148.03 2.33133 -3.10775 0
M  V30 1536 H 149.702 0.19649 -4.60881 0
M  V30 1537 H 147.945 0.115411 -4.33646 0
M  V30 1538 H 148.616 1.40632 -5.33785 0
M  V30 1539 H 151.092 2.15218 -3.56118 0
M  V30 1540 H 149.968 3.20985 -4.45264 0
M  V30 1541 H 150.229 3.47298 -2.73563 0
M  V30 1542 N 149.288 1.51039 0.449983 0
M  V30 1543 C 150.235 1.71439 1.54523 0
M  V30 1544 C 151.205 0.555871 1.56522 0
M  V30 1545 O 152.39 0.788871 1.73728 0
M  V30 1546 C 149.53 1.83384 2.92343 0
M  V30 1547 C 148.643 3.10873 2.9997 0
M  V30 1548 C 147.778 3.13488 4.28834 0
M  V30 1549 C 146.817 4.35343 4.30282 0
M  V30 1550 N 145.954 4.35579 5.5065 0
M  V30 1551 H 150.794 2.64934 1.36433 0
M  V30 1552 H 148.331 1.31312 0.662982 0
M  V30 1553 H 150.289 1.88291 3.72293 0
M  V30 1554 H 148.919 0.933086 3.0902 0
M  V30 1555 H 147.971 3.15336 2.12761 0
M  V30 1556 H 149.283 4.00814 2.96901 0
M  V30 1557 H 148.437 3.17241 5.17149 0
M  V30 1558 H 147.176 2.21414 4.34543 0
M  V30 1559 H 146.181 4.3178 3.40362 0
M  V30 1560 H 147.406 5.28668 4.26248 0
M  V30 1561 H 145.352 3.46369 5.57104 0
M  V30 1562 H 145.269 5.19313 5.49409 0
M  V30 1563 H 146.537 4.43507 6.41032 0
M  V30 1564 N 150.766 -0.704594 1.40972 0
M  V30 1565 C 151.698 -1.82974 1.38033 0
M  V30 1566 C 152.711 -1.60305 0.283931 0
M  V30 1567 O 153.9 -1.69975 0.545042 0
M  V30 1568 C 151 -3.19578 1.12795 0
M  V30 1569 C 150.173 -3.69352 2.34302 0
M  V30 1570 C 149.232 -4.84601 2.05058 0
M  V30 1571 O 148.258 -4.96682 2.7802 0
M  V30 1572 N 149.46 -5.71194 1.03528 0
M  V30 1573 H 152.225 -1.85991 2.35005 0
M  V30 1574 H 149.786 -0.886567 1.35468 0
M  V30 1575 H 151.778 -3.9429 0.911987 0
M  V30 1576 H 150.348 -3.11642 0.24452 0
M  V30 1577 H 149.568 -2.85649 2.71659 0
M  V30 1578 H 150.856 -3.99345 3.1528 0
M  V30 1579 H 150.254 -5.64054 0.431217 0
M  V30 1580 H 148.811 -6.45843 0.879205 0
M  V30 1581 N 152.244 -1.26651 -0.937939 0
M  V30 1582 C 153.66 -1.03834 -1.21205 0
M  V30 1583 C 153.86 0.234502 -2.00131 0
M  V30 1584 O 152.916 0.942767 -2.3424 0
M  V30 1585 C 154.229 -2.27167 -1.97017 0
M  V30 1586 C 155.777 -2.32101 -2.09996 0
M  V30 1587 C 156.252 -3.55136 -2.8921 0
M  V30 1588 N 157.743 -3.55632 -2.96783 0
M  V30 1589 C 158.478 -4.475 -3.58512 0
M  V30 1590 N 157.974 -5.4966 -4.21717 0
M  V30 1591 N 159.767 -4.35145 -3.55816 0
M  V30 1592 H 151.918 -2.08398 -0.410391 0
M  V30 1593 H 154.181 -0.916031 -0.244114 0
M  V30 1594 H 153.887 -3.19765 -1.46434 0
M  V30 1595 H 153.761 -2.31672 -2.97671 0
M  V30 1596 H 156.148 -1.40015 -2.59769 0
M  V30 1597 H 156.229 -2.31605 -1.08594 0
M  V30 1598 H 155.873 -4.47553 -2.40123 0
M  V30 1599 H 155.803 -3.5288 -3.90875 0
M  V30 1600 H 158.294 -2.81743 -2.51852 0
M  V30 1601 H 158.607 -6.15943 -4.66727 0
M  V30 1602 H 156.952 -5.53514 -4.20294 0
M  V30 1603 H 160.143 -3.5455 -3.05634 0
M  V30 1604 H 160.316 -5.06934 -4.03636 0
M  V30 1605 N 153.722 1.14298 -1.08507 0
M  V30 1606 C 154.685 2.17607 -0.719711 0
M  V30 1607 C 155.685 1.58907 0.245997 0
M  V30 1608 O 156.875 1.74181 0.0254081 0
M  V30 1609 C 154.007 3.40842 -0.0627695 0
M  V30 1610 H 155.2 2.51443 -1.63452 0
M  V30 1611 H 152.753 1.28963 -0.88307 0
M  V30 1612 H 153.488 3.12587 0.863716 0
M  V30 1613 H 153.273 3.84713 -0.757504 0
M  V30 1614 H 154.763 4.17221 0.177786 0
M  V30 1615 N 155.201 0.870884 1.31352 0
M  V30 1616 C 156.447 0.492314 1.97352 0
M  V30 1617 C 156.802 -0.945174 1.67583 0
M  V30 1618 O 156.095 -1.65674 0.962423 0
M  V30 1619 C 156.289 0.687157 3.50732 0
M  V30 1620 C 156.118 2.14203 3.95407 0
M  V30 1621 C 154.888 2.78382 4.21701 0
M  V30 1622 C 157.086 3.1144 4.09279 0
M  V30 1623 N 155.068 4.14611 4.52737 0
M  V30 1624 C 156.439 4.32702 4.44037 0
M  V30 1625 C 158.494 3.07418 3.91661 0
M  V30 1626 C 157.197 5.50463 4.63015 0
M  V30 1627 C 159.223 4.24438 4.11833 0
M  V30 1628 C 158.585 5.44463 4.46923 0
M  V30 1629 H 154.684 0.229206 0.747655 0
M  V30 1630 H 157.268 1.12568 1.5886 0
M  V30 1631 H 155.439 0.083384 3.8831 0
M  V30 1632 H 157.171 0.276883 4.03752 0
M  V30 1633 H 153.926 2.29326 4.14375 0
M  V30 1634 H 154.35 4.84928 4.72413 0
M  V30 1635 H 158.992 2.15732 3.6362 0
M  V30 1636 H 156.71 6.42666 4.89904 0
M  V30 1637 H 160.296 4.2278 3.99685 0
M  V30 1638 H 159.176 6.33504 4.62214 0
M  V30 1639 N 156.679 -1.44442 0.630414 0
M  V30 1640 C 157.611 -2.2892 -0.113347 0
M  V30 1641 C 158.624 -1.41243 -0.80959 0
M  V30 1642 O 159.813 -1.65402 -0.671156 0
M  V30 1643 C 156.913 -3.17594 -1.18266 0
M  V30 1644 C 156.086 -4.33682 -0.569073 0
M  V30 1645 C 155.145 -5.03397 -1.53226 0
M  V30 1646 O 154.171 -5.59438 -1.04967 0
M  V30 1647 N 155.373 -5.04783 -2.86661 0
M  V30 1648 H 158.138 -2.93392 0.611636 0
M  V30 1649 H 155.699 -1.54881 0.471523 0
M  V30 1650 H 157.691 -3.61097 -1.82732 0
M  V30 1651 H 156.261 -2.54876 -1.80988 0
M  V30 1652 H 155.481 -3.9338 0.254187 0
M  V30 1653 H 156.769 -5.08608 -0.139767 0
M  V30 1654 H 156.167 -4.60584 -3.28449 0
M  V30 1655 H 154.724 -5.52077 -3.46489 0
M  V30 1656 N 158.157 -0.370918 -1.53173 0
M  V30 1657 C 159.385 0.217704 -2.05751 0
M  V30 1658 C 159.8 1.42018 -1.24404 0
M  V30 1659 O 159.157 1.80245 -0.286033 0
M  V30 1660 C 159.208 0.605954 -3.56385 0
M  V30 1661 O 158.929 -0.548734 -4.3465 0
M  V30 1662 C 160.43 1.2524 -4.25241 0
M  V30 1663 H 157.65 0.0371659 -0.66997 0
M  V30 1664 H 160.194 -0.530832 -1.9749 0
M  V30 1665 H 158.349 1.3044 -3.6478 0
M  V30 1666 H 158.763 -0.23376 -5.23979 0
M  V30 1667 H 160.237 1.47458 -5.3194 0
M  V30 1668 H 160.714 2.2143 -3.79296 0
M  V30 1669 H 161.32 0.595233 -4.21114 0
M  V30 1670 N 159.635 1.57281 -0.100228 0
M  V30 1671 C 160.565 2.17328 0.853857 0
M  V30 1672 C 161.546 1.10804 1.2906 0
M  V30 1673 O 162.731 1.38963 1.35657 0
M  V30 1674 C 159.861 2.75772 2.11109 0
M  V30 1675 C 158.815 3.87713 1.81279 0
M  V30 1676 C 158.141 4.32882 3.13874 0
M  V30 1677 C 159.441 5.10677 1.09574 0
M  V30 1678 H 161.135 2.97305 0.353545 0
M  V30 1679 H 158.681 1.43009 0.168612 0
M  V30 1680 H 160.634 3.16433 2.78296 0
M  V30 1681 H 159.358 1.93057 2.63432 0
M  V30 1682 H 158.017 3.476 1.16489 0
M  V30 1683 H 157.665 3.47051 3.64095 0
M  V30 1684 H 157.365 5.08358 2.94696 0
M  V30 1685 H 158.889 4.7618 3.82211 0
M  V30 1686 H 160.303 5.48474 1.66879 0
M  V30 1687 H 158.7 5.91615 1.00557 0
M  V30 1688 H 159.77 4.84835 0.0793299 0
M  V30 1689 N 161.113 -0.173488 1.56642 0
M  V30 1690 C 162.06 -1.21482 1.96242 0
M  V30 1691 C 163.03 -1.44104 0.826027 0
M  V30 1692 O 164.215 -1.5688 1.08597 0
M  V30 1693 C 161.355 -2.54964 2.32567 0
M  V30 1694 C 160.468 -2.39739 3.59373 0
M  V30 1695 C 159.603 -3.66072 3.84921 0
M  V30 1696 C 158.642 -3.45771 5.05083 0
M  V30 1697 N 157.779 -4.64169 5.26775 0
M  V30 1698 H 162.619 -0.870123 2.85014 0
M  V30 1699 H 160.156 -0.418245 1.41029 0
M  V30 1700 H 162.114 -3.32758 2.5165 0
M  V30 1701 H 160.744 -2.87433 1.46908 0
M  V30 1702 H 159.796 -1.53131 3.48217 0
M  V30 1703 H 161.108 -2.20683 4.47326 0
M  V30 1704 H 160.262 -4.52303 4.0436 0
M  V30 1705 H 159.001 -3.88105 2.9534 0
M  V30 1706 H 158.006 -2.57927 4.85545 0
M  V30 1707 H 159.231 -3.25163 5.96193 0
M  V30 1708 H 157.177 -4.86425 4.40144 0
M  V30 1709 H 157.094 -4.48019 6.08946 0
M  V30 1710 H 158.362 -5.51689 5.5069 0
M  V30 1711 N 162.591 -1.51276 -0.441967 0
M  V30 1712 C 163.837 -1.6492 -1.1905 0
M  V30 1713 C 164.192 -0.358731 -1.89026 0
M  V30 1714 O 163.485 0.645193 -1.8041 0
M  V30 1715 C 163.679 -2.78746 -2.23686 0
M  V30 1716 C 163.508 -4.18737 -1.63979 0
M  V30 1717 C 162.278 -4.84739 -1.42674 0
M  V30 1718 C 164.476 -5.01988 -1.11858 0
M  V30 1719 N 162.458 -6.08858 -0.785159 0
M  V30 1720 C 163.829 -6.17071 -0.601989 0
M  V30 1721 C 165.884 -4.87551 -1.0099 0
M  V30 1722 C 164.587 -7.19299 0.0126012 0
M  V30 1723 C 166.613 -5.89983 -0.409206 0
M  V30 1724 C 165.975 -7.04333 0.0968651 0
M  V30 1725 H 162.074 -0.657416 -0.423471 0
M  V30 1726 H 164.658 -1.8849 -0.48782 0
M  V30 1727 H 162.829 -2.56848 -2.91348 0
M  V30 1728 H 164.561 -2.81595 -2.90666 0
M  V30 1729 H 161.316 -4.42528 -1.68719 0
M  V30 1730 H 161.74 -6.75282 -0.481942 0
M  V30 1731 H 166.382 -3.99401 -1.38703 0
M  V30 1732 H 164.1 -8.071 0.401879 0
M  V30 1733 H 167.686 -5.8088 -0.327079 0
M  V30 1734 H 166.566 -7.82238 0.554373 0
M  V30 1735 N 164.069 0.697108 -1.41344 0
M  V30 1736 C 165.001 1.8224 -1.39001 0
M  V30 1737 C 166.014 1.60152 -0.292428 0
M  V30 1738 O 167.203 1.69684 -0.554048 0
M  V30 1739 C 164.303 3.18976 -1.14489 0
M  V30 1740 C 163.476 3.68105 -2.36258 0
M  V30 1741 C 162.535 4.83506 -2.07625 0
M  V30 1742 O 161.561 4.95201 -2.8065 0
M  V30 1743 N 162.763 5.70637 -1.06555 0
M  V30 1744 H 165.528 1.84742 -2.35988 0
M  V30 1745 H 163.089 0.87937 -1.35936 0
M  V30 1746 H 165.081 3.93801 -0.932885 0
M  V30 1747 H 163.651 3.11508 -0.261043 0
M  V30 1748 H 162.871 2.84204 -2.7317 0
M  V30 1749 H 164.159 3.97667 -3.17393 0
M  V30 1750 H 163.557 5.63817 -0.461125 0
M  V30 1751 H 162.114 6.45368 -0.913444 0
M  V30 1752 N 165.547 1.27147 0.931209 0
M  V30 1753 C 166.796 1.12664 1.67302 0
M  V30 1754 C 167.109 -0.327718 1.92835 0
M  V30 1755 O 168.315 -0.593392 2.64936 0
M  V30 1756 C 166.771 1.9683 3.01307 0
M  V30 1757 C 166.379 3.46901 2.83485 0
M  V30 1758 C 168.123 1.90985 3.79111 0
M  V30 1759 C 166.03 4.23279 4.13024 0
M  V30 1760 H 164.96 0.41803 0.627509 0
M  V30 1761 H 167.611 1.51539 1.03481 0
M  V30 1762 H 165.993 1.50797 3.66164 0
M  V30 1763 H 167.167 4.00773 2.27415 0
M  V30 1764 H 165.482 3.54088 2.19113 0
M  V30 1765 H 168.079 2.45328 4.75098 0
M  V30 1766 H 168.422 0.882718 4.06834 0
M  V30 1767 H 168.955 2.34895 3.21044 0
M  V30 1768 H 165.694 5.26503 3.90481 0
M  V30 1769 H 165.214 3.74186 4.6877 0
M  V30 1770 H 166.893 4.32265 4.81411 0
M  V30 1771 N 167.025 -1.13721 1.09112 0
M  V30 1772 C 167.988 -2.17222 0.731241 0
M  V30 1773 C 168.988 -1.59035 -0.237566 0
M  V30 1774 O 170.178 -1.74192 -0.0161704 0
M  V30 1775 C 167.31 -3.40804 0.0808443 0
M  V30 1776 H 168.503 -2.50573 1.64783 0
M  V30 1777 H 166.056 -1.28493 0.889897 0
M  V30 1778 H 166.791 -3.1304 -0.847127 0
M  V30 1779 H 166.576 -3.84306 0.777896 0
M  V30 1780 H 168.066 -4.1731 -0.155657 0
M  V30 1781 N 168.503 -0.877838 -1.30888 0
M  V30 1782 C 169.451 -0.328662 -2.30266 0
M  V30 1783 C 170.445 0.560496 -1.59859 0
M  V30 1784 O 171.651 0.445722 -1.74394 0
M  V30 1785 H 168.026 -0.0876142 -0.746879 0
M  V30 1786 H 169.997 -1.18061 -2.74051 0
M  V30 1787 C 168.746 0.448071 -3.44801 0
M  V30 1788 H 168.069 -0.226859 -3.99156 0
M  V30 1789 H 169.509 0.797541 -4.16432 0
M  V30 1790 C 167.968 1.64239 -2.94155 0
M  V30 1791 O 168.498 2.74175 -2.93583 0
M  V30 1792 N 166.704 1.47716 -2.50256 0
M  V30 1793 H 166.251 0.582821 -2.5092 0
M  V30 1794 H 166.209 2.27765 -2.16727 0
M  V30 1795 N 169.982 1.44106 -0.638065 0
M  V30 1796 C 171.23 2.01579 -0.145043 0
M  V30 1797 C 171.551 1.50496 1.24 0
M  V30 1798 O 170.821 0.711374 1.82527 0
M  V30 1799 H 169.401 0.745282 -0.05063 0
M  V30 1800 H 172.063 1.76516 -0.826327 0
M  V30 1801 H 171.159 3.11877 -0.118039 0
M  V30 1802 N 171.46 0.379036 1.52974 0
M  V30 1803 C 172.709 -0.207612 2.00629 0
M  V30 1804 C 173.022 -1.48758 1.27006 0
M  V30 1805 O 174.228 -2.15365 1.65318 0
M  V30 1806 C 172.684 -0.42053 3.57435 0
M  V30 1807 C 172.292 0.845587 4.39948 0
M  V30 1808 C 174.036 -0.964102 4.13407 0
M  V30 1809 C 171.943 0.601513 5.88333 0
M  V30 1810 H 170.873 -0.0813591 0.749598 0
M  V30 1811 H 173.524 0.499853 1.76561 0
M  V30 1812 H 171.906 -1.18959 3.7771 0
M  V30 1813 H 173.08 1.61848 4.31442 0
M  V30 1814 H 171.395 1.31336 3.95145 0
M  V30 1815 H 173.992 -1.16225 5.21916 0
M  V30 1816 H 174.335 -1.93019 3.68849 0
M  V30 1817 H 174.868 -0.25487 3.96983 0
M  V30 1818 H 171.607 1.53831 6.37194 0
M  V30 1819 H 171.127 -0.132628 5.99653 0
M  V30 1820 H 172.806 0.232134 6.46583 0
M  V30 1821 N 172.938 -1.57226 0.108567 0
M  V30 1822 C 173.87 -2.11809 -0.875752 0
M  V30 1823 C 174.883 -1.05839 -1.23701 0
M  V30 1824 O 176.072 -1.33245 -1.18778 0
M  V30 1825 C 173.172 -2.59411 -2.18081 0
M  V30 1826 C 172.345 -3.89364 -1.99284 0
M  V30 1827 C 171.404 -4.22672 -3.13424 0
M  V30 1828 O 170.43 -4.91668 -2.86795 0
M  V30 1829 N 171.632 -3.79154 -4.3957 0
M  V30 1830 H 174.397 -2.9689 -0.409477 0
M  V30 1831 H 171.958 -1.61721 -0.076158 0
M  V30 1832 H 173.95 -2.7873 -2.93414 0
M  V30 1833 H 172.52 -1.79268 -2.5609 0
M  V30 1834 H 171.74 -3.79059 -1.08203 0
M  V30 1835 H 173.028 -4.74358 -1.84017 0
M  V30 1836 H 172.426 -3.23486 -4.64083 0
M  V30 1837 H 170.983 -4.03602 -5.11809 0
M  V30 1838 N 174.416 0.165178 -1.56732 0
M  V30 1839 C 175.366 1.20917 -1.93295 0
M  V30 1840 C 176.35 1.39488 -0.801985 0
M  V30 1841 O 177.542 1.41356 -1.06525 0
M  V30 1842 C 174.671 2.54718 -2.3016 0
M  V30 1843 C 173.757 2.39815 -3.49785 0
M  V30 1844 N 174.148 1.94637 -4.66851 0
M  V30 1845 C 172.446 2.70623 -3.54513 0
M  V30 1846 C 173.147 1.92344 -5.4898 0
M  V30 1847 N 172.123 2.34978 -4.9019 0
M  V30 1848 H 175.925 0.851675 -2.81289 0
M  V30 1849 H 173.439 0.373399 -1.58049 0
M  V30 1850 H 175.436 3.30165 -2.54552 0
M  V30 1851 H 174.096 2.91265 -1.43508 0
M  V30 1852 H 175.107 1.6488 -4.90953 0
M  V30 1853 H 171.784 3.11167 -2.78354 0
M  V30 1854 H 173.174 1.5906 -6.52801 0
M  V30 1855 N 175.894 1.51508 0.433938 0
M  V30 1856 C 177.14 1.64588 1.18484 0
M  V30 1857 C 177.473 0.362666 1.90784 0
M  V30 1858 O 176.748 -0.637892 1.83742 0
M  V30 1859 C 177.031 2.85149 2.19913 0
M  V30 1860 C 176.884 4.23456 1.51674 0
M  V30 1861 C 178.203 3.01227 3.20858 0
M  V30 1862 H 175.322 0.598994 0.429389 0
M  V30 1863 H 177.964 1.84002 0.473647 0
M  V30 1864 H 176.114 2.68729 2.80566 0
M  V30 1865 H 177.786 4.51552 0.943322 0
M  V30 1866 H 176.029 4.25998 0.819035 0
M  V30 1867 H 176.7 5.03812 2.2556 0
M  V30 1868 H 179.176 3.16382 2.70263 0
M  V30 1869 H 178.052 3.87141 3.89118 0
M  V30 1870 H 178.313 2.13447 3.8716 0
M  V30 1871 N 177.372 -0.689602 1.41712 0
M  V30 1872 C 178.788 -1.00093 1.24312 0
M  V30 1873 C 178.988 -2.01036 0.136729 0
M  V30 1874 O 178.044 -2.47562 -0.496918 0
M  V30 1875 C 179.357 -1.51985 2.59463 0
M  V30 1876 C 180.905 -1.63838 2.66695 0
M  V30 1877 C 181.38 -2.1913 4.02177 0
M  V30 1878 N 182.871 -2.26483 4.04054 0
M  V30 1879 C 183.606 -2.70306 5.0569 0
M  V30 1880 N 183.102 -3.13691 6.17713 0
M  V30 1881 N 184.895 -2.69923 4.9305 0
M  V30 1882 H 177.046 -0.0210029 2.1239 0
M  V30 1883 H 179.309 -0.0718733 0.945272 0
M  V30 1884 H 179.015 -0.85269 3.41207 0
M  V30 1885 H 178.889 -2.50103 2.82362 0
M  V30 1886 H 181.276 -2.29664 1.85306 0
M  V30 1887 H 181.357 -0.642492 2.476 0
M  V30 1888 H 181.001 -1.53918 4.84016 0
M  V30 1889 H 180.931 -3.19482 4.18615 0
M  V30 1890 H 183.422 -1.95874 3.23174 0
M  V30 1891 H 183.735 -3.45773 6.9113 0
M  V30 1892 H 182.08 -3.11585 6.21241 0
M  V30 1893 H 185.271 -2.35382 4.04614 0
M  V30 1894 H 185.444 -3.03758 5.72394 0
M  V30 1895 N 178.85 -1.27639 -0.924453 0
M  V30 1896 C 180.078 -1.16989 -1.70649 0
M  V30 1897 C 180.493 0.272869 -1.86818 0
M  V30 1898 O 179.85 1.18549 -1.38753 0
M  V30 1899 C 179.901 -1.85229 -3.10439 0
M  V30 1900 O 179.622 -3.23868 -2.95028 0
M  V30 1901 C 181.123 -1.80746 -4.04779 0
M  V30 1902 H 178.343 -0.406595 -0.53378 0
M  V30 1903 H 180.887 -1.68569 -1.15778 0
M  V30 1904 H 179.042 -1.37545 -3.6216 0
M  V30 1905 H 179.456 -3.57889 -3.83426 0
M  V30 1906 H 180.93 -2.33101 -5.00368 0
M  V30 1907 H 181.407 -0.777499 -4.32263 0
M  V30 1908 H 182.013 -2.28059 -3.58984 0
M  V30 1909 N 180.328 1.1314 -1.09713 0
M  V30 1910 C 181.278 2.16709 -0.708593 0
M  V30 1911 C 182.262 1.58471 0.278523 0
M  V30 1912 O 183.454 1.76779 0.088427 0
M  V30 1913 C 180.583 3.43039 -0.133923 0
M  V30 1914 C 179.669 4.08277 -1.14763 0
M  V30 1915 N 180.06 4.48637 -2.33577 0
M  V30 1916 C 178.358 4.34954 -0.986446 0
M  V30 1917 C 179.059 4.9952 -2.98085 0
M  V30 1918 N 178.035 4.94561 -2.25632 0
M  V30 1919 H 181.837 2.45672 -1.61315 0
M  V30 1920 H 179.351 1.29967 -0.973775 0
M  V30 1921 H 181.348 4.16583 0.162465 0
M  V30 1922 H 180.008 3.15549 0.765447 0
M  V30 1923 H 181.019 4.41246 -2.7115 0
M  V30 1924 H 177.696 4.17258 -0.142008 0
M  V30 1925 H 179.086 5.40521 -3.99108 0
M  V30 1926 N 181.806 0.884767 1.30421 0
M  V30 1927 C 183.052 0.503851 1.96441 0
M  V30 1928 C 183.385 -0.944518 1.69684 0
M  V30 1929 O 182.66 -1.66737 1.00145 0
M  V30 1930 C 182.943 0.779085 3.51571 0
M  V30 1931 C 182.796 2.27807 3.87846 0
M  V30 1932 C 184.115 0.255452 4.39358 0
M  V30 1933 H 181.234 0.184533 0.713524 0
M  V30 1934 H 183.876 1.10872 1.54297 0
M  V30 1935 H 182.026 0.264274 3.876 0
M  V30 1936 H 183.698 2.86127 3.61841 0
M  V30 1937 H 181.941 2.74479 3.35922 0
M  V30 1938 H 182.612 2.42125 4.96064 0
M  V30 1939 H 185.088 0.696079 4.10236 0
M  V30 1940 H 183.964 0.477361 5.4682 0
M  V30 1941 H 184.225 -0.843293 4.33983 0
M  V30 1942 N 183.284 -1.43765 0.645699 0
M  V30 1943 C 184.561 -1.9541 0.0862963 0
M  V30 1944 C 184.941 -1.58725 -1.39175 0
M  V30 1945 O 184.289 -0.868581 -2.11348 0
M  V30 1946 C 184.499 -3.47488 0.324565 0
M  V30 1947 C 185.847 -4.24001 0.225497 0
M  V30 1948 O 186.871 -3.55274 0.256715 0
M  V30 1949 O 185.73 -5.46313 0.142801 0
M  V30 1950 H 182.824 -0.826882 -0.0139483 0
M  V30 1951 H 185.37 -1.53743 0.718415 0
M  V30 1952 H 184.142 -3.67289 1.3496 0
M  V30 1953 H 183.765 -3.96135 -0.340987 0
M  V30 1954 N 184.763 -0.387143 -1.52771 0
M  V30 1955 C 186.009 0.196025 -2.0185 0
M  V30 1956 C 186.342 1.46641 -1.27319 0
M  V30 1957 O 185.617 1.90889 -0.373032 0
M  V30 1958 C 185.9 0.466136 -3.5707 0
M  V30 1959 C 185.753 -0.819385 -4.42274 0
M  V30 1960 C 187.072 1.25768 -4.21747 0
M  V30 1961 H 184.191 0.0697708 -0.73369 0
M  V30 1962 H 186.833 -0.516286 -1.82851 0
M  V30 1963 H 184.983 1.07293 -3.7339 0
M  V30 1964 H 186.655 -1.4563 -4.37709 0
M  V30 1965 H 184.898 -1.43517 -4.09372 0
M  V30 1966 H 185.569 -0.585065 -5.48891 0
M  V30 1967 H 188.045 0.744167 -4.09391 0
M  V30 1968 H 186.921 1.41541 -5.30337 0
M  V30 1969 H 187.182 2.27228 -3.79236 0
M  V30 1970 N 186.241 1.57166 -0.116904 0
M  V30 1971 C 187.466 1.999 0.55271 0
M  V30 1972 C 187.891 0.996039 1.59564 0
M  V30 1973 O 187.249 -0.032556 1.81271 0
M  V30 1974 C 187.297 3.4152 1.15742 0
M  V30 1975 O 186.401 3.44106 2.27299 0
M  V30 1976 H 185.742 0.649447 0.138258 0
M  V30 1977 H 188.272 2.03573 -0.204759 0
M  V30 1978 H 188.282 3.79684 1.49346 0
M  V30 1979 H 186.957 4.14034 0.393493 0
M  V30 1980 H 185.534 3.17759 1.9515 0
M  V30 1981 N 187.719 -0.156864 1.56817 0
M  V30 1982 C 188.996 -0.899244 1.73704 0
M  V30 1983 C 189.376 -1.99771 0.682254 0
M  V30 1984 O 188.724 -2.26515 -0.300522 0
M  V30 1985 C 188.934 -1.45075 3.17418 0
M  V30 1986 C 190.282 -1.91802 3.7881 0
M  V30 1987 O 191.306 -1.54838 3.20786 0
M  V30 1988 O 190.165 -2.5994 4.80722 0
M  V30 1989 H 187.259 -0.424267 0.709878 0
M  V30 1990 H 189.805 -0.143561 1.69092 0
M  V30 1991 H 188.577 -0.660846 3.85679 0
M  V30 1992 H 188.2 -2.27021 3.26416 0
M  V30 1993 N 189.197 -1.51736 -0.425897 0
M  V30 1994 C 190.16 -1.73271 -1.50032 0
M  V30 1995 C 191.16 -0.602639 -1.4908 0
M  V30 1996 O 192.35 -0.87033 -1.509 0
M  V30 1997 C 189.482 -1.79969 -2.89523 0
M  V30 1998 H 190.675 -2.69172 -1.32237 0
M  V30 1999 H 188.228 -1.41899 -0.65532 0
M  V30 2000 H 188.963 -0.859241 -3.1271 0
M  V30 2001 H 188.748 -2.62109 -2.91619 0
M  V30 2002 H 190.238 -1.9843 -3.67444 0
M  V30 2003 N 190.675 0.682077 -1.42076 0
M  V30 2004 C 191.903 1.47057 -1.4554 0
M  V30 2005 C 192.318 1.8869 -0.0645779 0
M  V30 2006 O 191.675 1.57666 0.919115 0
M  V30 2007 C 191.726 2.72442 -2.37609 0
M  V30 2008 O 191.447 2.32559 -3.71279 0
M  V30 2009 C 192.948 3.66069 -2.50017 0
M  V30 2010 H 190.168 0.452737 -0.495248 0
M  V30 2011 H 192.712 0.838695 -1.8651 0
M  V30 2012 H 190.867 3.31835 -1.9991 0
M  V30 2013 H 191.281 3.13475 -4.20516 0
M  V30 2014 H 192.755 4.50792 -3.18576 0
M  V30 2015 H 193.232 4.11476 -1.53572 0
M  V30 2016 H 193.838 3.12572 -2.88407 0
M  V30 2017 N 192.153 1.28127 0.917671 0
M  V30 2018 C 193.083 1.14248 2.03641 0
M  V30 2019 C 194.064 0.0412748 1.7005 0
M  V30 2020 O 195.249 0.217566 1.92977 0
M  V30 2021 C 192.379 0.799431 3.37974 0
M  V30 2022 C 191.333 1.85497 3.85713 0
M  V30 2023 C 190.659 1.36565 5.16966 0
M  V30 2024 C 191.959 3.26085 4.08002 0
M  V30 2025 H 193.653 2.07835 2.15511 0
M  V30 2026 H 191.199 1.00064 1.03553 0
M  V30 2027 H 193.152 0.689114 4.15727 0
M  V30 2028 H 191.876 -0.172145 3.26146 0
M  V30 2029 H 190.535 1.95437 3.10161 0
M  V30 2030 H 190.183 0.383253 5.01538 0
M  V30 2031 H 189.883 2.07143 5.49878 0
M  V30 2032 H 191.407 1.26848 5.97279 0
M  V30 2033 H 192.821 3.19089 4.76293 0
M  V30 2034 H 191.218 3.94462 4.52238 0
M  V30 2035 H 192.288 3.70394 3.12948 0
M  V30 2036 N 193.631 -1.12557 1.10312 0
M  V30 2037 C 194.859 -1.87864 0.866873 0
M  V30 2038 C 195.274 -1.79588 -0.582557 0
M  V30 2039 O 194.631 -1.16887 -1.40156 0
M  V30 2040 C 194.682 -3.37125 1.30496 0
M  V30 2041 O 194.403 -3.45201 2.69755 0
M  V30 2042 C 195.904 -4.29373 1.10243 0
M  V30 2043 H 193.124 -0.594452 0.311236 0
M  V30 2044 H 195.668 -1.42429 1.46745 0
M  V30 2045 H 193.823 -3.80109 0.748081 0
M  V30 2046 H 194.237 -4.38056 2.88457 0
M  V30 2047 H 195.711 -5.32394 1.45811 0
M  V30 2048 H 196.188 -4.39181 0.0409492 0
M  V30 2049 H 196.794 -3.92169 1.64571 0
M  V30 2050 N 195.109 -0.891671 -1.2995 0
M  V30 2051 C 196.072 -0.36828 -2.26222 0
M  V30 2052 C 197.072 0.493014 -1.53056 0
M  V30 2053 O 198.262 0.299213 -1.71611 0
M  V30 2054 C 195.394 0.47442 -3.37583 0
M  V30 2055 H 196.587 -1.21844 -2.74033 0
M  V30 2056 H 194.14 -0.669107 -1.41254 0
M  V30 2057 H 194.875 1.34489 -2.95099 0
M  V30 2058 H 194.66 -0.142615 -3.91841 0
M  V30 2059 H 196.15 0.83218 -4.09224 0
M  V30 2060 N 196.587 1.43421 -0.653314 0
M  V30 2061 C 197.517 2.33487 0.0246656 0
M  V30 2062 C 198.498 1.49475 0.811863 0
M  V30 2063 O 199.683 1.78139 0.773322 0
M  V30 2064 C 196.813 3.32841 0.99166 0
M  V30 2065 C 195.767 4.26842 0.314568 0
M  V30 2066 C 195.093 5.16236 1.39302 0
M  V30 2067 C 196.393 5.16243 -0.793095 0
M  V30 2068 H 198.087 2.90427 -0.727481 0
M  V30 2069 H 195.633 1.39649 -0.351287 0
M  V30 2070 H 197.586 3.94747 1.47487 0
M  V30 2071 H 196.31 2.74158 1.77497 0
M  V30 2072 H 194.969 3.663 -0.148199 0
M  V30 2073 H 194.617 4.53891 2.16776 0
M  V30 2074 H 194.317 5.79948 0.945223 0
M  V30 2075 H 195.841 5.81015 1.87759 0
M  V30 2076 H 197.255 5.71958 -0.392039 0
M  V30 2077 H 195.652 5.88676 -1.16536 0
M  V30 2078 H 196.722 4.55927 -1.65103 0
M  V30 2079 N 198.065 0.39524 1.52563 0
M  V30 2080 C 199.012 -0.437036 2.26624 0
M  V30 2081 C 199.982 -1.05281 1.28472 0
M  V30 2082 O 201.167 -1.07971 1.57311 0
M  V30 2083 C 198.307 -1.55524 3.08069 0
M  V30 2084 C 197.42 -0.961745 4.21158 0
M  V30 2085 C 196.555 -2.05149 4.89987 0
M  V30 2086 C 195.594 -1.4342 5.95061 0
M  V30 2087 N 194.731 -2.46351 6.57462 0
M  V30 2088 H 199.571 0.200976 2.97322 0
M  V30 2089 H 197.108 0.110944 1.46681 0
M  V30 2090 H 199.066 -2.21437 3.53584 0
M  V30 2091 H 197.696 -2.16348 2.3957 0
M  V30 2092 H 196.748 -0.192048 3.79915 0
M  V30 2093 H 198.06 -0.470701 4.96574 0
M  V30 2094 H 197.214 -2.78819 5.38837 0
M  V30 2095 H 195.953 -2.57615 4.14109 0
M  V30 2096 H 194.958 -0.682774 5.45544 0
M  V30 2097 H 196.183 -0.917416 6.72875 0
M  V30 2098 H 194.129 -2.97975 5.8442 0
M  V30 2099 H 194.046 -2.02019 7.28508 0
M  V30 2100 H 195.314 -3.19633 7.10954 0
M  V30 2101 N 199.544 -1.57102 0.125237 0
M  V30 2102 C 200.507 -2.14471 -0.80838 0
M  V30 2103 C 201.507 -1.0811 -1.19033 0
M  V30 2104 O 202.697 -1.33856 -1.11482 0
M  V30 2105 C 199.829 -2.69005 -2.09402 0
M  V30 2106 H 201.022 -2.98297 -0.309696 0
M  V30 2107 H 198.575 -1.55807 -0.124051 0
M  V30 2108 H 199.31 -1.88785 -2.63687 0
M  V30 2109 H 199.095 -3.46799 -1.82957 0
M  V30 2110 H 200.585 -3.13278 -2.76128 0
M  V30 2111 N 201.022 0.148545 -1.56898 0
M  V30 2112 C 201.955 1.21293 -1.93296 0
M  V30 2113 C 202.933 1.41637 -0.798599 0
M  V30 2114 O 204.117 1.56275 -1.05406 0
M  V30 2115 C 201.244 2.5721 -2.20365 0
M  V30 2116 C 200.29 2.53469 -3.4301 0
M  V30 2117 S 201.123 2.00315 -4.96623 0
M  V30 2118 C 202.279 3.37964 -5.26812 0
M  V30 2119 H 202.512 0.902393 -2.83274 0
M  V30 2120 H 200.045 0.354094 -1.50285 0
M  V30 2121 H 202.003 3.35427 -2.36641 0
M  V30 2122 H 200.664 2.85454 -1.31054 0
M  V30 2123 H 199.857 3.53518 -3.59223 0
M  V30 2124 H 199.459 1.83359 -3.25968 0
M  V30 2125 H 201.751 4.34066 -5.20185 0
M  V30 2126 H 202.694 3.26606 -6.28279 0
M  V30 2127 H 203.102 3.35028 -4.54331 0
M  V30 2128 N 202.5 1.5196 0.417844 0
M  V30 2129 C 203.43 1.77634 1.51554 0
M  V30 2130 C 204.411 0.626918 1.58126 0
M  V30 2131 O 205.596 0.871632 1.7354 0
M  V30 2132 C 202.726 1.91911 2.8946 0
M  V30 2133 C 201.68 3.07463 2.97743 0
M  V30 2134 C 201.006 3.06951 4.37819 0
M  V30 2135 C 202.306 4.47082 2.70027 0
M  V30 2136 H 204 2.6955 1.3032 0
M  V30 2137 H 201.546 1.29706 0.625492 0
M  V30 2138 H 203.499 2.08455 3.6623 0
M  V30 2139 H 202.223 0.966598 3.11969 0
M  V30 2140 H 200.882 2.90656 2.23416 0
M  V30 2141 H 200.53 2.09438 4.57323 0
M  V30 2142 H 200.23 3.84556 4.44286 0
M  V30 2143 H 201.754 3.25613 5.16535 0
M  V30 2144 H 203.168 4.6414 3.36522 0
M  V30 2145 H 201.565 5.2654 2.87881 0
M  V30 2146 H 202.635 4.55777 1.65514 0
M  V30 2147 N 203.978 -0.674533 1.42435 0
M  V30 2148 C 204.888 -1.81751 1.48337 0
M  V30 2149 C 205.904 -1.69975 0.372099 0
M  V30 2150 O 207.08 -1.91521 0.62304 0
M  V30 2151 C 204.145 -3.17895 1.38361 0
M  V30 2152 C 203.206 -3.41625 2.59982 0
M  V30 2153 C 202.439 -4.71274 2.50473 0
M  V30 2154 O 202.662 -5.49197 1.54075 0
M  V30 2155 O 201.596 -4.96254 3.4061 0
M  V30 2156 H 205.422 -1.79728 2.44809 0
M  V30 2157 H 203.007 -0.830312 1.24202 0
M  V30 2158 H 204.889 -3.99136 1.35161 0
M  V30 2159 H 203.564 -3.20555 0.450144 0
M  V30 2160 H 202.471 -2.60231 2.68757 0
M  V30 2161 H 203.804 -3.43796 3.52229 0
M  V30 2162 N 205.456 -1.28612 -0.910864 0
M  V30 2163 C 206.702 -1.16106 -1.66274 0
M  V30 2164 C 207.035 0.289113 -1.92036 0
M  V30 2165 O 206.31 1.21 -1.52281 0
M  V30 2166 C 206.593 -1.96309 -3.01885 0
M  V30 2167 C 206.446 -3.49405 -2.8326 0
M  V30 2168 C 207.765 -1.78076 -4.02463 0
M  V30 2169 H 204.884 -0.423152 -0.603417 0
M  V30 2170 H 207.526 -1.57961 -1.05586 0
M  V30 2171 H 205.676 -1.60742 -3.53687 0
M  V30 2172 H 207.348 -3.94894 -2.38446 0
M  V30 2173 H 205.591 -3.74893 -2.18261 0
M  V30 2174 H 206.262 -4.00784 -3.79574 0
M  V30 2175 H 208.738 -2.0912 -3.59733 0
M  V30 2176 H 207.614 -2.36561 -4.95308 0
M  V30 2177 H 207.875 -0.733008 -4.35981 0
M  V30 2178 N 206.934 1.1197 -1.10907 0
M  V30 2179 C 207.881 2.17846 -0.762345 0
M  V30 2180 C 208.851 1.63995 0.263599 0
M  V30 2181 O 210.036 1.90273 0.141773 0
M  V30 2182 C 207.176 3.44487 -0.205651 0
M  V30 2183 C 206.289 4.12369 -1.28748 0
M  V30 2184 C 205.424 5.26674 -0.691919 0
M  V30 2185 C 204.463 5.86431 -1.75399 0
M  V30 2186 N 203.6 6.92142 -1.17833 0
M  V30 2187 H 208.44 2.46851 -1.6694 0
M  V30 2188 H 205.977 1.21188 -0.833776 0
M  V30 2189 H 207.935 4.16981 0.135037 0
M  V30 2190 H 206.565 3.15884 0.664613 0
M  V30 2191 H 205.617 3.38003 -1.74522 0
M  V30 2192 H 206.929 4.52844 -2.09125 0
M  V30 2193 H 206.083 6.05953 -0.300963 0
M  V30 2194 H 204.822 4.8749 0.143232 0
M  V30 2195 H 203.827 5.05835 -2.15432 0
M  V30 2196 H 205.052 6.27685 -2.59208 0
M  V30 2197 H 202.998 6.54985 -0.364725 0
M  V30 2198 H 202.915 7.31242 -1.91887 0
M  V30 2199 H 204.183 7.75237 -0.81408 0
M  V30 2200 N 208.412 0.89855 1.29475 0
M  V30 2201 C 209.344 0.332726 2.26772 0
M  V30 2202 C 210.357 -0.520323 1.54261 0
M  V30 2203 O 211.546 -0.337668 1.75277 0
M  V30 2204 C 208.646 -0.544334 3.345 0
M  V30 2205 C 207.819 0.282728 4.36485 0
M  V30 2206 C 206.878 -0.526982 5.23555 0
M  V30 2207 O 205.904 0.0551165 5.69173 0
M  V30 2208 N 207.106 -1.83331 5.5079 0
M  V30 2209 H 209.871 1.16897 2.75962 0
M  V30 2210 H 207.432 0.762919 1.42798 0
M  V30 2211 H 209.424 -1.09239 3.89678 0
M  V30 2212 H 207.994 -1.28127 2.85136 0
M  V30 2213 H 207.214 1.01221 3.80983 0
M  V30 2214 H 208.502 0.84918 5.01664 0
M  V30 2215 H 207.9 -2.32898 5.15534 0
M  V30 2216 H 206.457 -2.32852 6.08788 0
M  V30 2217 N 209.89 -1.43072 0.660911 0
M  V30 2218 C 210.8 -2.34585 -0.0264163 0
M  V30 2219 C 211.816 -1.54316 -0.803898 0
M  V30 2220 O 212.992 -1.86939 -0.749391 0
M  V30 2221 C 210.057 -3.32689 -0.975639 0
M  V30 2222 C 209.118 -4.2886 -0.194236 0
M  V30 2223 C 208.351 -5.22278 -1.09825 0
M  V30 2224 O 208.574 -5.20299 -2.33763 0
M  V30 2225 O 207.508 -5.99228 -0.566513 0
M  V30 2226 H 211.334 -2.94869 0.727034 0
M  V30 2227 H 208.919 -1.43342 0.42111 0
M  V30 2228 H 210.801 -3.92995 -1.52094 0
M  V30 2229 H 209.476 -2.74898 -1.70918 0
M  V30 2230 H 208.383 -3.72011 0.394835 0
M  V30 2231 H 209.716 -4.89655 0.499899 0
M  V30 2232 N 211.368 -0.403325 -1.52352 0
M  V30 2233 C 212.614 0.174605 -2.02047 0
M  V30 2234 C 212.947 1.45282 -1.28867 0
M  V30 2235 O 212.222 1.90483 -0.393257 0
M  V30 2236 C 212.505 0.428238 -3.57545 0
M  V30 2237 C 212.358 -0.866248 -4.4138 0
M  V30 2238 C 213.677 1.21287 -4.23057 0
M  V30 2239 H 210.796 0.0619851 -0.734389 0
M  V30 2240 H 213.438 -0.53565 -1.82293 0
M  V30 2241 H 211.588 1.03327 -3.74507 0
M  V30 2242 H 213.26 -1.50265 -4.3614 0
M  V30 2243 H 211.503 -1.47851 -4.07827 0
M  V30 2244 H 212.174 -0.643249 -5.48239 0
M  V30 2245 H 214.65 0.700703 -4.10158 0
M  V30 2246 H 213.526 1.35909 -5.31808 0
M  V30 2247 H 213.787 2.23193 -3.81625 0
M  V30 2248 N 212.846 1.57033 -0.133567 0
M  V30 2249 C 213.809 2.14897 0.796995 0
M  V30 2250 C 214.809 1.0874 1.18458 0
M  V30 2251 O 215.999 1.34446 1.1077 0
M  V30 2252 C 213.131 2.70112 2.07973 0
M  V30 2253 H 214.324 2.98457 0.293873 0
M  V30 2254 H 211.877 1.55871 0.115787 0
M  V30 2255 H 212.612 1.9018 2.62682 0
M  V30 2256 H 212.397 3.47764 1.81115 0
M  V30 2257 H 213.887 3.14738 2.74462 0
M  V30 2258 N 214.325 -0.140222 1.56975 0
M  V30 2259 C 215.736 -0.699596 1.73097 0
M  V30 2260 C 216.087 -1.8134 0.749022 0
M  V30 2261 O 215.212 -2.16241 -0.0828503 0
M  V30 2262 C 215.807 -1.27582 3.1386 0
M  V30 2263 C 214.366 -1.78169 3.31561 0
M  V30 2264 C 213.513 -0.672855 2.69013 0
M  V30 2265 H 216.464 0.0855115 1.58469 0
M  V30 2266 H 216.485 -2.14561 3.14235 0
M  V30 2267 H 215.997 -0.464955 3.85305 0
M  V30 2268 H 214.098 -2.61801 2.65124 0
M  V30 2269 H 214.211 -1.90574 4.39566 0
M  V30 2270 H 212.575 -1.10118 2.29665 0
M  V30 2271 H 213.358 0.126679 3.43066 0
M  V30 2272 N 215.803 -1.52179 -0.40978 0
M  V30 2273 C 217.049 -1.67408 -1.15525 0
M  V30 2274 C 217.404 -0.398746 -1.88223 0
M  V30 2275 O 216.697 0.60678 -1.81738 0
M  V30 2276 C 216.891 -2.83428 -2.17723 0
M  V30 2277 C 216.72 -4.22121 -1.55061 0
M  V30 2278 C 215.49 -4.87657 -1.3236 0
M  V30 2279 C 217.688 -5.04248 -1.01185 0
M  V30 2280 N 215.67 -6.10387 -0.655834 0
M  V30 2281 C 217.041 -6.18209 -0.470963 0
M  V30 2282 C 219.096 -4.89583 -0.906252 0
M  V30 2283 C 217.799 -7.1911 0.165172 0
M  V30 2284 C 219.825 -5.90718 -0.28397 0
M  V30 2285 C 219.187 -7.03969 0.246243 0
M  V30 2286 H 215.286 -0.666251 -0.409431 0
M  V30 2287 H 217.87 -1.89482 -0.447729 0
M  V30 2288 H 216.041 -2.6297 -2.85834 0
M  V30 2289 H 217.773 -2.87697 -2.84627 0
M  V30 2290 H 214.528 -4.46007 -1.59294 0
M  V30 2291 H 214.952 -6.76153 -0.338596 0
M  V30 2292 H 219.594 -4.02253 -1.302 0
M  V30 2293 H 217.312 -8.06066 0.572986 0
M  V30 2294 H 220.898 -5.81443 -0.203792 0
M  V30 2295 H 219.778 -7.80886 0.720173 0
M  V30 2296 N 217.281 0.66697 -1.42791 0
M  V30 2297 C 218.53 1.42278 -1.42968 0
M  V30 2298 C 218.843 1.9553 -0.0524489 0
M  V30 2299 O 220.049 2.71414 0.068363 0
M  V30 2300 C 218.505 2.57418 -2.51524 0
M  V30 2301 C 218.113 2.10832 -3.9529 0
M  V30 2302 C 219.857 3.34878 -2.60877 0
M  V30 2303 C 217.764 3.23101 -4.95338 0
M  V30 2304 H 216.694 0.534533 -0.531781 0
M  V30 2305 H 219.345 0.721302 -1.68729 0
M  V30 2306 H 217.727 3.29971 -2.18941 0
M  V30 2307 H 218.901 1.4538 -4.37266 0
M  V30 2308 H 217.216 1.46289 -3.89857 0
M  V30 2309 H 219.813 4.18505 -3.32802 0
M  V30 2310 H 220.156 3.81993 -1.6549 0
M  V30 2311 H 220.689 2.69398 -2.92693 0
M  V30 2312 H 217.428 2.80969 -5.9223 0
M  V30 2313 H 216.948 3.87309 -4.57987 0
M  V30 2314 H 218.627 3.88447 -5.17415 0
M  V30 2315 N 218.759 1.29093 0.90403 0
M  V30 2316 C 220.036 1.075 1.63411 0
M  V30 2317 C 220.416 -0.382346 2.07609 0
M  V30 2318 O 219.764 -1.37031 1.82851 0
M  V30 2319 C 219.974 2.05858 2.81822 0
M  V30 2320 C 221.322 2.36539 3.52611 0
M  V30 2321 O 222.346 2.04019 2.91984 0
M  V30 2322 O 221.205 2.92085 4.61897 0
M  V30 2323 H 218.299 0.411547 0.717327 0
M  V30 2324 H 220.845 1.40449 0.952479 0
M  V30 2325 H 219.617 3.04037 2.46327 0
M  V30 2326 H 219.24 1.73613 3.57693 0
M  V30 2327 N 220.237 -1.11381 1.11499 0
M  V30 2328 C 221.167 -2.19509 0.796125 0
M  V30 2329 C 222.148 -1.68458 -0.235796 0
M  V30 2330 O 223.333 -1.93947 -0.0991344 0
M  V30 2331 C 220.463 -3.46475 0.239205 0
M  V30 2332 C 219.417 -4.10744 1.20307 0
M  V30 2333 C 218.743 -5.32293 0.50683 0
M  V30 2334 C 220.043 -4.55597 2.55399 0
M  V30 2335 H 221.737 -2.46439 1.70024 0
M  V30 2336 H 219.283 -1.18446 0.818935 0
M  V30 2337 H 221.236 -4.214 0.00392006 0
M  V30 2338 H 219.96 -3.19006 -0.700206 0
M  V30 2339 H 218.619 -3.37813 1.42399 0
M  V30 2340 H 218.267 -5.01095 -0.437408 0
M  V30 2341 H 217.967 -5.76243 1.1497 0
M  V30 2342 H 219.491 -6.09956 0.280351 0
M  V30 2343 H 220.905 -5.21841 2.37391 0
M  V30 2344 H 219.302 -5.10363 3.15673 0
M  V30 2345 H 220.372 -3.69013 3.14575 0
M  V30 2346 N 221.715 -0.905404 -1.28997 0
M  V30 2347 C 222.647 -0.344748 -2.26592 0
M  V30 2348 C 223.66 0.512135 -1.54535 0
M  V30 2349 O 224.849 0.328368 -1.75454 0
M  V30 2350 C 221.949 0.526587 -3.34784 0
M  V30 2351 C 221.122 -0.305871 -4.36329 0
M  V30 2352 C 220.181 0.499209 -5.23827 0
M  V30 2353 O 219.207 -0.0853004 -5.69136 0
M  V30 2354 N 220.409 1.80408 -5.51755 0
M  V30 2355 H 223.174 -1.18359 -2.75338 0
M  V30 2356 H 220.735 -0.770481 -1.42391 0
M  V30 2357 H 222.727 1.07171 -3.90252 0
M  V30 2358 H 221.297 1.26613 -2.85811 0
M  V30 2359 H 220.517 -1.0324 -3.80441 0
M  V30 2360 H 221.805 -0.875773 -5.01206 0
M  V30 2361 H 221.203 2.3016 -5.16762 0
M  V30 2362 H 219.76 2.29621 -6.10014 0
M  V30 2363 N 223.193 1.4272 -0.668489 0
M  V30 2364 C 224.442 2.00846 -0.185389 0
M  V30 2365 C 224.755 1.53442 1.21305 0
M  V30 2366 O 225.961 2.03944 1.79218 0
M  V30 2367 C 224.417 3.58805 -0.280591 0
M  V30 2368 C 224.025 4.15198 -1.68268 0
M  V30 2369 C 225.769 4.24255 0.14412 0
M  V30 2370 C 223.676 5.655 -1.73099 0
M  V30 2371 H 222.606 0.751145 -0.0655475 0
M  V30 2372 H 225.257 1.63516 -0.832752 0
M  V30 2373 H 223.639 3.93608 0.434553 0
M  V30 2374 H 224.813 3.91866 -2.42441 0
M  V30 2375 H 223.128 3.62176 -2.05469 0
M  V30 2376 H 225.725 5.34547 0.128086 0
M  V30 2377 H 226.068 3.99277 1.17827 0
M  V30 2378 H 226.601 3.94389 -0.519798 0
M  V30 2379 H 223.34 5.95268 -2.74475 0
M  V30 2380 H 222.86 5.90842 -1.03274 0
M  V30 2381 H 224.539 6.29808 -1.48158 0
M  V30 2382 N 224.671 0.411399 1.52136 0
M  V30 2383 C 225.917 -0.163888 2.02137 0
M  V30 2384 C 226.25 -1.44597 1.29636 0
M  V30 2385 O 225.525 -1.90272 0.403353 0
M  V30 2386 C 225.808 -0.40927 3.57767 0
M  V30 2387 C 225.661 0.889643 4.40914 0
M  V30 2388 C 226.98 -1.19042 4.23694 0
M  V30 2389 H 224.099 -0.0580896 0.734707 0
M  V30 2390 H 226.741 0.54531 1.82007 0
M  V30 2391 H 224.891 -1.0134 3.7505 0
M  V30 2392 H 226.563 1.52575 4.35337 0
M  V30 2393 H 224.806 1.50011 4.07037 0
M  V30 2394 H 225.477 0.672314 5.4789 0
M  V30 2395 H 227.953 -0.678942 4.10524 0
M  V30 2396 H 226.829 -1.33086 5.32522 0
M  V30 2397 H 227.09 -2.21166 3.82803 0
M  V30 2398 N 226.149 -1.5696 0.141893 0
M  V30 2399 C 227.112 -2.15316 -0.785587 0
M  V30 2400 C 228.112 -1.09366 -1.1788 0
M  V30 2401 O 229.302 -1.35031 -1.10056 0
M  V30 2402 C 226.434 -2.71211 -2.06537 0
M  V30 2403 H 227.627 -2.98608 -0.278041 0
M  V30 2404 H 225.18 -1.5593 -0.107519 0
M  V30 2405 H 225.915 -1.91571 -2.6167 0
M  V30 2406 H 225.7 -3.4872 -1.79268 0
M  V30 2407 H 227.19 -3.16189 -2.72789 0
M  V30 2408 N 227.627 0.131896 -1.57047 0
M  V30 2409 C 228.874 0.841932 -1.84168 0
M  V30 2410 C 229.202 1.8048 -0.725066 0
M  V30 2411 O 228.457 1.93618 0.284692 0
M  V30 2412 C 228.756 1.63703 -3.17704 0
M  V30 2413 C 228.422 0.81961 -4.43388 0
M  V30 2414 C 227.084 0.594148 -4.77518 0
M  V30 2415 C 229.436 0.248977 -5.20605 0
M  V30 2416 C 226.764 -0.212409 -5.86315 0
M  V30 2417 C 229.116 -0.544701 -6.30251 0
M  V30 2418 C 227.78 -0.780599 -6.6292 0
M  V30 2419 H 227.05 0.308085 -0.673917 0
M  V30 2420 H 229.697 0.104867 -1.91213 0
M  V30 2421 H 228.002 2.44464 -3.06177 0
M  V30 2422 H 229.699 2.19015 -3.35907 0
M  V30 2423 H 226.289 1.00542 -4.16641 0
M  V30 2424 H 230.473 0.410408 -4.946 0
M  V30 2425 H 225.729 -0.404524 -6.1006 0
M  V30 2426 H 229.903 -0.993922 -6.89271 0
M  V30 2427 H 227.53 -1.40742 -7.47058 0
M  V30 2428 N 229.106 1.52395 0.401703 0
M  V30 2429 C 230.517 1.58899 0.980202 0
M  V30 2430 C 230.868 0.434032 1.91339 0
M  V30 2431 O 229.993 -0.444619 2.11783 0
M  V30 2432 C 230.588 2.87994 1.78451 0
M  V30 2433 C 229.147 2.96953 2.31292 0
M  V30 2434 C 228.294 2.53903 1.11483 0
M  V30 2435 H 231.245 1.57657 0.18168 0
M  V30 2436 H 231.266 2.73765 2.64259 0
M  V30 2437 H 230.778 3.72035 1.10506 0
M  V30 2438 H 228.879 2.17422 3.02586 0
M  V30 2439 H 228.992 4.01344 2.61649 0
M  V30 2440 H 227.356 2.07925 1.47104 0
M  V30 2441 H 228.139 3.40326 0.450928 0
M  V30 2442 N 230.584 -0.659388 1.43143 0
M  V30 2443 C 231.516 -1.7849 1.43784 0
M  V30 2444 C 232.529 -1.5932 0.334787 0
M  V30 2445 O 233.718 -1.68155 0.598842 0
M  V30 2446 C 230.818 -3.15828 1.22906 0
M  V30 2447 C 229.991 -3.61711 2.45934 0
M  V30 2448 C 229.05 -4.77831 2.20371 0
M  V30 2449 O 228.076 -4.87586 2.93681 0
M  V30 2450 N 229.278 -5.67611 1.21647 0
M  V30 2451 H 232.043 -1.7842 2.40803 0
M  V30 2452 H 229.604 -0.84302 1.3822 0
M  V30 2453 H 231.596 -3.91189 1.03697 0
M  V30 2454 H 230.166 -3.10707 0.343542 0
M  V30 2455 H 229.386 -2.76861 2.80609 0
M  V30 2456 H 230.674 -3.89112 3.27825 0
M  V30 2457 H 230.072 -5.62397 0.610449 0
M  V30 2458 H 228.629 -6.42719 1.08423 0
M  V30 2459 N 232.062 -1.29571 -0.897171 0
M  V30 2460 C 232.972 -1.16808 -2.03453 0
M  V30 2461 C 233.988 -0.0907471 -1.73763 0
M  V30 2462 O 235.164 -0.303312 -1.99103 0
M  V30 2463 C 232.229 -0.848264 -3.36163 0
M  V30 2464 C 231.29 -2.0097 -3.79354 0
M  V30 2465 C 230.523 -1.70505 -5.05731 0
M  V30 2466 O 230.746 -0.62718 -5.66941 0
M  V30 2467 O 229.68 -2.5538 -5.45036 0
M  V30 2468 H 233.506 -2.12325 -2.17144 0
M  V30 2469 H 231.091 -1.09047 -1.02123 0
M  V30 2470 H 232.973 -0.684581 -4.15802 0
M  V30 2471 H 231.648 0.0771071 -3.23608 0
M  V30 2472 H 230.555 -2.22863 -3.00471 0
M  V30 2473 H 231.888 -2.91636 -3.96496 0
M  V30 2474 N 233.54 1.10788 -1.12088 0
M  V30 2475 C 234.788 1.8231 -0.872205 0
M  V30 2476 C 235.109 1.85419 0.603709 0
M  V30 2477 O 234.379 1.32963 1.43867 0
M  V30 2478 H 232.959 0.675137 -0.319686 0
M  V30 2479 H 235.621 1.34068 -1.41463 0
M  V30 2480 H 234.717 2.85955 -1.25045 0
M  V30 2481 N 235.018 0.912232 1.28515 0
M  V30 2482 C 236.267 0.540504 1.94323 0
M  V30 2483 C 236.58 -0.920044 1.72611 0
M  V30 2484 O 237.786 -1.39986 2.32629 0
M  V30 2485 C 236.242 0.915803 3.48053 0
M  V30 2486 C 235.85 2.39598 3.78546 0
M  V30 2487 C 237.594 0.614588 4.20027 0
M  V30 2488 C 235.501 2.71148 5.25578 0
M  V30 2489 H 234.431 0.198418 0.727424 0
M  V30 2490 H 237.082 1.11094 1.46049 0
M  V30 2491 H 235.464 0.274168 3.9505 0
M  V30 2492 H 236.638 3.08422 3.42364 0
M  V30 2493 H 234.953 2.66749 3.1974 0
M  V30 2494 H 237.55 0.827002 5.28266 0
M  V30 2495 H 237.893 -0.447531 4.13887 0
M  V30 2496 H 238.426 1.21462 3.78803 0
M  V30 2497 H 235.165 3.76207 5.36794 0
M  V30 2498 H 234.685 2.0696 5.62963 0
M  V30 2499 H 236.364 2.58072 5.93302 0
M  V30 2500 N 236.496 -1.42363 0.676048 0
M  V30 2501 C 237.426 -2.33497 0.0124832 0
M  V30 2502 C 238.407 -1.50748 -0.787981 0
M  V30 2503 O 239.592 -1.79346 -0.744884 0
M  V30 2504 C 236.722 -3.34377 -0.938582 0
M  V30 2505 C 235.676 -4.27289 -0.246622 0
M  V30 2506 C 235.002 -5.18386 -1.31071 0
M  V30 2507 C 236.302 -5.14916 0.875125 0
M  V30 2508 H 237.996 -2.89233 0.773593 0
M  V30 2509 H 235.542 -1.39073 0.37346 0
M  V30 2510 H 237.495 -3.97044 -1.41188 0
M  V30 2511 H 236.219 -2.76947 -1.73113 0
M  V30 2512 H 234.878 -3.66018 0.206456 0
M  V30 2513 H 234.526 -4.57282 -2.09528 0
M  V30 2514 H 234.226 -5.81378 -0.852839 0
M  V30 2515 H 235.75 -5.83929 -1.78492 0
M  V30 2516 H 237.164 -5.71262 0.482983 0
M  V30 2517 H 235.561 -5.86747 1.25887 0
M  V30 2518 H 236.631 -4.53242 1.72335 0
M  V30 2519 N 237.974 -0.419461 -1.51915 0
M  V30 2520 C 239.199 0.154572 -2.06823 0
M  V30 2521 C 239.624 1.3722 -1.28656 0
M  V30 2522 O 238.982 1.78461 -0.319583 0
M  V30 2523 C 239.03 0.473172 -3.57482 0
M  V30 2524 O 238.134 1.56255 -3.81652 0
M  V30 2525 H 237.475 0.0096924 -0.663929 0
M  V30 2526 H 240.005 -0.595642 -1.95738 0
M  V30 2527 H 240.015 0.728825 -4.01438 0
M  V30 2528 H 238.69 -0.416873 -4.13805 0
M  V30 2529 H 237.267 1.29825 -3.49571 0
M  V30 2530 N 239.452 1.56882 -0.150215 0
M  V30 2531 C 240.682 2.00302 0.506213 0
M  V30 2532 C 241.09 1.02934 1.58749 0
M  V30 2533 O 240.433 0.0188384 1.8369 0
M  V30 2534 C 240.495 3.40156 1.16337 0
M  V30 2535 C 240.159 4.56439 0.226311 0
M  V30 2536 C 241.156 5.17012 -0.547265 0
M  V30 2537 C 238.841 5.02136 0.128279 0
M  V30 2538 C 240.835 6.21693 -1.40629 0
M  V30 2539 C 238.522 6.06672 -0.734345 0
M  V30 2540 C 239.52 6.6632 -1.50023 0
M  V30 2541 O 239.208 7.68831 -2.34848 0
M  V30 2542 H 238.94 0.662182 0.135984 0
M  V30 2543 H 241.494 2.03961 -0.242746 0
M  V30 2544 H 239.724 3.33346 1.96004 0
M  V30 2545 H 241.413 3.67663 1.71985 0
M  V30 2546 H 242.179 4.82603 -0.48158 0
M  V30 2547 H 238.058 4.55435 0.714157 0
M  V30 2548 H 241.602 6.68179 -2.00455 0
M  V30 2549 H 237.499 6.40507 -0.801309 0
M  V30 2550 H 238.267 7.86065 -2.28131 0
M  V30 2551 N 240.93 -0.123565 1.57115 0
M  V30 2552 C 242.341 -0.681198 1.73829 0
M  V30 2553 C 242.692 -1.80535 0.768214 0
M  V30 2554 O 241.817 -2.16317 -0.0599103 0
M  V30 2555 C 242.412 -1.24246 3.15196 0
M  V30 2556 C 240.971 -1.74643 3.33432 0
M  V30 2557 C 240.118 -0.644284 2.69711 0
M  V30 2558 H 243.069 0.102315 1.5837 0
M  V30 2559 H 243.09 -2.11216 3.16493 0
M  V30 2560 H 242.602 -0.424062 3.85776 0
M  V30 2561 H 240.703 -2.58974 2.67886 0
M  V30 2562 H 240.816 -1.85902 4.41562 0
M  V30 2563 H 239.18 -1.07676 2.3082 0
M  V30 2564 H 239.963 0.163058 3.42913 0
M  V30 2565 N 242.408 -1.52605 -0.393616 0
M  V30 2566 C 243.356 -1.77688 -1.50099 0
M  V30 2567 C 244.35 -0.644615 -1.56656 0
M  V30 2568 O 245.556 -0.826997 -1.59877 0
M  V30 2569 H 241.931 -0.562159 -0.499481 0
M  V30 2570 H 243.902 -2.7043 -1.26135 0
M  V30 2571 C 242.651 -1.95858 -2.87289 0
M  V30 2572 H 241.974 -2.8241 -2.82992 0
M  V30 2573 H 243.414 -2.174 -3.64024 0
M  V30 2574 C 241.873 -0.729848 -3.28899 0
M  V30 2575 O 242.403 0.0949217 -4.01588 0
M  V30 2576 N 240.609 -0.561283 -2.85128 0
M  V30 2577 H 240.156 -1.23357 -2.26143 0
M  V30 2578 H 240.114 0.2595 -3.13327 0
M  V30 2579 N 243.887 0.651787 -1.4349 0
M  V30 2580 C 245.135 1.40888 -1.44897 0
M  V30 2581 C 245.456 1.94856 -0.0749086 0
M  V30 2582 O 244.726 1.74518 0.889956 0
M  V30 2583 H 243.306 0.522887 -0.533478 0
M  V30 2584 H 245.968 0.768609 -1.79104 0
M  V30 2585 H 245.064 2.25052 -2.16236 0
M  V30 2586 N 245.365 1.30045 0.890287 0
M  V30 2587 C 246.275 1.17885 2.02831 0
M  V30 2588 C 247.291 0.0999609 1.73713 0
M  V30 2589 O 248.467 0.313867 1.98939 0
M  V30 2590 C 245.532 0.866079 3.35708 0
M  V30 2591 C 244.593 2.02979 3.78283 0
M  V30 2592 C 243.826 1.73184 5.0482 0
M  V30 2593 O 244.049 0.657237 5.66601 0
M  V30 2594 O 242.983 2.58267 5.43674 0
M  V30 2595 H 246.809 2.13474 2.16015 0
M  V30 2596 H 244.394 1.09587 1.01543 0
M  V30 2597 H 246.276 0.706623 4.15433 0
M  V30 2598 H 244.951 -0.0599443 3.23644 0
M  V30 2599 H 243.858 2.24454 2.99285 0
M  V30 2600 H 245.191 2.93734 3.94944 0
M  V30 2601 N 246.843 -1.10192 1.12674 0
M  V30 2602 C 247.806 -2.14786 0.799979 0
M  V30 2603 C 248.806 -1.59711 -0.18685 0
M  V30 2604 O 249.996 -1.74156 0.0392558 0
M  V30 2605 C 247.128 -3.40374 0.189228 0
M  V30 2606 H 248.321 -2.45203 1.72671 0
M  V30 2607 H 245.874 -1.25597 0.930326 0
M  V30 2608 H 246.609 -3.15577 -0.747107 0
M  V30 2609 H 246.394 -3.81637 0.899766 0
M  V30 2610 H 247.884 -4.17594 -0.0228143 0
M  V30 2611 N 248.321 -0.919034 -1.28029 0
M  V30 2612 C 249.251 -0.428581 -2.29533 0
M  V30 2613 C 250.232 0.50659 -1.62381 0
M  V30 2614 O 251.417 0.413195 -1.89753 0
M  V30 2615 C 248.547 0.327388 -3.45753 0
M  V30 2616 C 247.501 -0.519137 -4.2484 0
M  V30 2617 C 246.827 0.365486 -5.33449 0
M  V30 2618 C 248.127 -1.77914 -4.91064 0
M  V30 2619 H 249.821 -1.27687 -2.70807 0
M  V30 2620 H 247.367 -0.615428 -1.30186 0
M  V30 2621 H 249.32 0.681378 -4.15855 0
M  V30 2622 H 248.044 1.20963 -3.03374 0
M  V30 2623 H 246.703 -0.855717 -3.56473 0
M  V30 2624 H 246.351 1.24642 -4.87312 0
M  V30 2625 H 246.051 -0.197356 -5.87268 0
M  V30 2626 H 247.575 0.715241 -6.06396 0
M  V30 2627 H 248.989 -1.49374 -5.53498 0
M  V30 2628 H 247.386 -2.2848 -5.54903 0
M  V30 2629 H 248.456 -2.50382 -4.15255 0
M  V30 2630 N 249.799 1.42003 -0.683588 0
M  V30 2631 C 250.729 2.33487 -0.024866 0
M  V30 2632 C 251.71 1.51163 0.779975 0
M  V30 2633 O 252.895 1.79739 0.735362 0
M  V30 2634 C 250.025 3.3487 0.920836 0
M  V30 2635 C 248.979 4.27414 0.223958 0
M  V30 2636 C 248.305 5.19074 1.2832 0
M  V30 2637 C 249.605 5.14445 -0.90242 0
M  V30 2638 H 251.299 2.88819 -0.788921 0
M  V30 2639 H 248.845 1.38873 -0.38083 0
M  V30 2640 H 250.798 3.97787 1.39081 0
M  V30 2641 H 249.522 2.77861 1.71642 0
M  V30 2642 H 248.181 3.65904 -0.225864 0
M  V30 2643 H 247.829 4.58387 2.071 0
M  V30 2644 H 247.529 5.81822 0.821995 0
M  V30 2645 H 249.053 5.84867 1.75392 0
M  V30 2646 H 250.467 5.70998 -0.513272 0
M  V30 2647 H 248.864 5.86072 -1.28997 0
M  V30 2648 H 249.934 4.52322 -1.74737 0
M  V30 2649 N 251.277 0.427512 1.51691 0
M  V30 2650 C 252.187 -0.39527 2.31246 0
M  V30 2651 C 253.203 -1.03674 1.39742 0
M  V30 2652 O 254.379 -1.03425 1.72816 0
M  V30 2653 C 251.444 -1.48706 3.13189 0
M  V30 2654 C 250.505 -0.866743 4.20459 0
M  V30 2655 C 249.738 -1.90651 4.98486 0
M  V30 2656 O 249.961 -3.12733 4.77026 0
M  V30 2657 O 248.895 -1.5025 5.82845 0
M  V30 2658 H 252.721 0.253918 3.02637 0
M  V30 2659 H 250.306 0.190274 1.48183 0
M  V30 2660 H 252.188 -2.12047 3.64162 0
M  V30 2661 H 250.863 -2.12051 2.44573 0
M  V30 2662 H 249.77 -0.195544 3.73589 0
M  V30 2663 H 251.103 -0.276934 4.9142 0
M  V30 2664 N 252.755 -1.56801 0.158532 0
M  V30 2665 C 253.665 -2.20916 -0.789518 0
M  V30 2666 C 254.681 -1.1969 -1.26294 0
M  V30 2667 O 255.857 -1.52308 -1.31773 0
M  V30 2668 C 252.922 -2.82727 -2.00665 0
M  V30 2669 C 251.983 -3.99114 -1.58134 0
M  V30 2670 C 251.216 -4.57968 -2.74045 0
M  V30 2671 O 251.439 -4.15704 -3.90572 0
M  V30 2672 O 250.373 -5.48047 -2.48855 0
M  V30 2673 H 254.199 -3.02464 -0.273681 0
M  V30 2674 H 251.784 -1.4924 -0.0690548 0
M  V30 2675 H 253.666 -3.21968 -2.71872 0
M  V30 2676 H 252.341 -2.04184 -2.51179 0
M  V30 2677 H 251.248 -3.64567 -0.839155 0
M  V30 2678 H 252.581 -4.79212 -1.12325 0
M  V30 2679 N 254.233 0.115231 -1.57178 0
M  V30 2680 C 255.196 1.12526 -1.99676 0
M  V30 2681 C 256.196 1.34095 -0.88742 0
M  V30 2682 O 257.386 1.30548 -1.15337 0
M  V30 2683 C 254.518 2.4789 -2.34015 0
M  V30 2684 H 255.711 0.759912 -2.90113 0
M  V30 2685 H 253.264 0.359648 -1.52106 0
M  V30 2686 H 253.999 2.89339 -1.4647 0
M  V30 2687 H 253.784 2.33588 -3.14927 0
M  V30 2688 H 255.274 3.20575 -2.67622 0
M  V30 2689 N 255.711 1.52812 0.385517 0
M  V30 2690 C 256.641 1.80808 1.47752 0
M  V30 2691 C 257.622 0.660318 1.5676 0
M  V30 2692 O 258.807 0.908246 1.71652 0
M  V30 2693 C 255.937 1.98008 2.85324 0
M  V30 2694 C 254.891 3.13709 2.91154 0
M  V30 2695 C 254.217 3.16169 4.31209 0
M  V30 2696 C 255.517 4.52709 2.60483 0
M  V30 2697 H 257.211 2.72253 1.24573 0
M  V30 2698 H 254.757 1.31003 0.597839 0
M  V30 2699 H 256.71 2.16176 3.61726 0
M  V30 2700 H 255.434 1.03255 3.09848 0
M  V30 2701 H 254.093 2.95329 2.17201 0
M  V30 2702 H 253.741 2.19092 4.52778 0
M  V30 2703 H 253.441 3.93894 4.36029 0
M  V30 2704 H 254.965 3.36496 5.09512 0
M  V30 2705 H 256.379 4.71173 3.26602 0
M  V30 2706 H 254.776 5.32528 2.76648 0
M  V30 2707 H 255.846 4.59186 1.55809 0
M  V30 2708 N 257.189 -0.644168 1.43834 0
M  V30 2709 C 258.605 -0.960875 1.27434 0
M  V30 2710 C 258.805 -2.00499 0.200618 0
M  V30 2711 O 257.861 -2.49018 -0.417906 0
M  V30 2712 C 259.174 -1.43653 2.64167 0
M  V30 2713 C 260.722 -1.55271 2.71772 0
M  V30 2714 C 261.197 -2.06224 4.08944 0
M  V30 2715 N 262.688 -2.13513 4.11055 0
M  V30 2716 C 263.423 -2.54081 5.14033 0
M  V30 2717 N 262.919 -2.9388 6.27381 0
M  V30 2718 N 264.712 -2.54101 5.01387 0
M  V30 2719 H 256.863 0.0465779 2.12349 0
M  V30 2720 H 259.126 -0.0417638 0.94708 0
M  V30 2721 H 258.832 -0.743706 3.43747 0
M  V30 2722 H 258.706 -2.40993 2.90176 0
M  V30 2723 H 261.093 -2.23653 1.92519 0
M  V30 2724 H 261.174 -0.563395 2.49519 0
M  V30 2725 H 260.818 -1.38441 4.88668 0
M  V30 2726 H 260.748 -3.06003 4.28567 0
M  V30 2727 H 263.239 -1.85493 3.29242 0
M  V30 2728 H 263.552 -3.2361 7.01781 0
M  V30 2729 H 261.897 -2.91663 6.30839 0
M  V30 2730 H 265.088 -2.22391 4.11898 0
M  V30 2731 H 265.261 -2.85394 5.81768 0
M  V30 2732 N 258.668 -1.30515 -0.883378 0
M  V30 2733 C 259.598 -1.19607 -2.00541 0
M  V30 2734 C 260.579 -0.086346 -1.69881 0
M  V30 2735 O 261.764 -0.268654 -1.92333 0
M  V30 2736 C 258.894 -0.888758 -3.35736 0
M  V30 2737 C 257.848 -1.95659 -3.8066 0
M  V30 2738 C 257.174 -1.50224 -5.13164 0
M  V30 2739 C 258.474 -3.36788 -3.99213 0
M  V30 2740 H 260.168 -2.13476 -2.09925 0
M  V30 2741 H 257.714 -1.02775 -1.00863 0
M  V30 2742 H 259.667 -0.799094 -4.13754 0
M  V30 2743 H 258.391 0.0856125 -3.26488 0
M  V30 2744 H 257.05 -2.03591 -3.04871 0
M  V30 2745 H 256.698 -0.516092 -5.00345 0
M  V30 2746 H 256.398 -2.2165 -5.44192 0
M  V30 2747 H 257.922 -1.42639 -5.93706 0
M  V30 2748 H 259.336 -3.31605 -4.67665 0
M  V30 2749 H 257.733 -4.06314 -4.41621 0
M  V30 2750 H 258.803 -3.78561 -3.03017 0
M  V30 2751 N 260.146 1.09593 -1.13257 0
M  V30 2752 C 261.394 1.81375 -0.891492 0
M  V30 2753 C 261.715 1.86049 0.584009 0
M  V30 2754 O 260.985 1.34481 1.42449 0
M  V30 2755 H 259.565 0.671708 -0.326828 0
M  V30 2756 H 262.227 1.3256 -1.42877 0
M  V30 2757 H 261.323 2.84612 -1.28071 0
M  V30 2758 N 261.624 0.925811 1.2754 0
M  V30 2759 C 262.587 0.428129 2.25166 0
M  V30 2760 C 263.587 -0.452261 1.54309 0
M  V30 2761 O 264.777 -0.253608 1.72344 0
M  V30 2762 C 261.909 -0.384749 3.38722 0
M  V30 2763 H 263.102 1.29066 2.70706 0
M  V30 2764 H 260.655 0.706323 1.3943 0
M  V30 2765 H 261.39 -1.26618 2.98561 0
M  V30 2766 H 261.175 0.246454 3.91325 0
M  V30 2767 H 262.665 -0.723389 4.11287 0
M  V30 2768 N 263.102 -1.41638 0.69111 0
M  V30 2769 C 264.379 -1.95036 0.148421 0
M  V30 2770 C 264.759 -1.63072 -1.34055 0
M  V30 2771 O 264.107 -0.93538 -2.08478 0
M  V30 2772 C 264.317 -3.46279 0.434951 0
M  V30 2773 C 265.665 -4.23069 0.360275 0
M  V30 2774 O 266.689 -3.54277 0.369613 0
M  V30 2775 O 265.548 -5.45583 0.316534 0
M  V30 2776 H 262.642 -0.826908 0.0123654 0
M  V30 2777 H 265.188 -1.5138 0.766963 0
M  V30 2778 H 263.96 -3.6281 1.46576 0
M  V30 2779 H 263.583 -3.97019 -0.214787 0
M  V30 2780 N 264.58 -0.43555 -1.51462 0
M  V30 2781 C 265.826 0.131709 -2.02372 0
M  V30 2782 C 266.159 1.42516 -1.3192 0
M  V30 2783 O 265.434 1.89606 -0.433573 0
M  V30 2784 C 265.717 0.352301 -3.58373 0
M  V30 2785 C 265.57 -0.959676 -4.39443 0
M  V30 2786 C 266.889 1.12286 -4.25535 0
M  V30 2787 H 264.008 0.0463936 -0.735538 0
M  V30 2788 H 266.65 -0.574197 -1.81116 0
M  V30 2789 H 264.8 0.9536 -3.76615 0
M  V30 2790 H 266.472 -1.59482 -4.32855 0
M  V30 2791 H 264.715 -1.56468 -4.04599 0
M  V30 2792 H 265.386 -0.759394 -5.46752 0
M  V30 2793 H 267.862 0.613545 -4.11552 0
M  V30 2794 H 266.738 1.24598 -5.34571 0
M  V30 2795 H 266.999 2.15048 -3.86273 0
M  V30 2796 N 266.058 1.56714 -0.166846 0
M  V30 2797 C 267.304 1.97039 0.479962 0
M  V30 2798 C 267.637 1.05264 1.63197 0
M  V30 2799 O 266.912 0.0988833 1.94248 0
M  V30 2800 C 267.195 3.46867 0.967212 0
M  V30 2801 C 267.048 4.49421 -0.18466 0
M  V30 2802 C 268.367 3.9968 1.84238 0
M  V30 2803 H 265.486 0.71641 0.172992 0
M  V30 2804 H 268.128 1.8832 -0.252079 0
M  V30 2805 H 266.278 3.54428 1.59101 0
M  V30 2806 H 267.95 4.53924 -0.821621 0
M  V30 2807 H 266.193 4.25573 -0.840837 0
M  V30 2808 H 266.864 5.51644 0.198317 0
M  V30 2809 H 269.34 3.94723 1.31655 0
M  V30 2810 H 268.216 5.04941 2.15234 0
M  V30 2811 H 268.477 3.43226 2.78654 0
M  V30 2812 N 267.536 -0.106894 1.57237 0
M  V30 2813 C 268.784 -0.810921 1.85117 0
M  V30 2814 C 269.105 -1.7984 0.753827 0
M  V30 2815 O 268.375 -1.94649 -0.221056 0
M  V30 2816 H 266.955 -0.302466 0.683025 0
M  V30 2817 H 269.617 -0.0913324 1.94686 0
M  V30 2818 H 268.713 -1.34875 2.81452 0
M  V30 2819 N 269.014 -1.53014 -0.377408 0
M  V30 2820 C 269.977 -1.77957 -1.44444 0
M  V30 2821 C 270.977 -0.649763 -1.47087 0
M  V30 2822 O 272.167 -0.917897 -1.48055 0
M  V30 2823 C 269.299 -1.89089 -2.83651 0
M  V30 2824 H 270.492 -2.73243 -1.23606 0
M  V30 2825 H 268.045 -1.43912 -0.609844 0
M  V30 2826 H 268.78 -0.958293 -3.09818 0
M  V30 2827 H 268.565 -2.71254 -2.83132 0
M  V30 2828 H 270.055 -2.1002 -3.60945 0
M  V30 2829 N 270.492 0.636531 -1.44174 0
M  V30 2830 C 271.741 1.39213 -1.45954 0
M  V30 2831 C 272.054 1.95374 -0.0939119 0
M  V30 2832 O 273.26 2.71498 0.0107767 0
M  V30 2833 C 271.716 2.52025 -2.56927 0
M  V30 2834 C 271.324 2.024 -3.99673 0
M  V30 2835 C 273.068 3.29269 -2.67922 0
M  V30 2836 C 270.975 3.12521 -5.0208 0
M  V30 2837 H 269.905 0.523132 -0.542999 0
M  V30 2838 H 272.556 0.685349 -1.70221 0
M  V30 2839 H 270.938 3.25253 -2.25891 0
M  V30 2840 H 272.112 1.36073 -4.40251 0
M  V30 2841 H 270.427 1.37987 -3.92872 0
M  V30 2842 H 273.024 4.11352 -3.41605 0
M  V30 2843 H 273.367 3.78397 -1.73555 0
M  V30 2844 H 273.9 2.63129 -2.98342 0
M  V30 2845 H 270.639 2.68343 -5.98057 0
M  V30 2846 H 270.159 3.77507 -4.66099 0
M  V30 2847 H 271.838 3.77385 -5.25538 0
M  V30 2848 N 271.97 1.30982 0.876444 0
M  V30 2849 C 273.381 1.18277 1.44456 0
M  V30 2850 C 273.732 -0.213265 1.95037 0
M  V30 2851 O 272.857 -1.11057 1.85729 0
M  V30 2852 C 273.452 2.1411 2.62569 0
M  V30 2853 C 272.011 2.05358 3.15444 0
M  V30 2854 C 271.158 2.03706 1.88146 0
M  V30 2855 H 274.109 1.43127 0.685584 0
M  V30 2856 H 274.13 1.72692 3.39054 0
M  V30 2857 H 273.642 3.15706 2.25724 0
M  V30 2858 H 271.743 1.06934 3.56926 0
M  V30 2859 H 271.856 2.94156 3.78166 0
M  V30 2860 H 270.22 1.48629 2.06837 0
M  V30 2861 H 271.003 3.07047 1.53547 0
M  V30 2862 N 273.449 -1.08991 1.13837 0
M  V30 2863 C 274.399 -2.1393 0.788535 0
M  V30 2864 C 275.383 -1.59396 -0.219516 0
M  V30 2865 O 276.575 -1.76985 -0.0227557 0
M  V30 2866 C 273.704 -3.42305 0.261147 0
M  V30 2867 C 272.79 -4.03736 1.29837 0
M  V30 2868 N 273.181 -4.39659 2.50067 0
M  V30 2869 C 271.479 -4.30993 1.1472 0
M  V30 2870 C 272.18 -4.88113 3.16419 0
M  V30 2871 N 271.156 -4.85846 2.43832 0
M  V30 2872 H 274.958 -2.39516 1.70322 0
M  V30 2873 H 272.472 -1.26263 1.02134 0
M  V30 2874 H 274.469 -4.16899 -0.0077405 0
M  V30 2875 H 273.129 -3.18172 -0.647805 0
M  V30 2876 H 274.14 -4.30878 2.8734 0
M  V30 2877 H 270.817 -4.16444 0.296773 0
M  V30 2878 H 272.207 -5.25336 4.18894 0
M  V30 2879 N 274.927 -0.932562 -1.27047 0
M  V30 2880 C 276.174 -0.575559 -1.94148 0
M  V30 2881 C 276.502 0.883984 -1.73251 0
M  V30 2882 O 275.757 1.64655 -1.0577 0
M  V30 2883 C 276.056 -0.853713 -3.47054 0
M  V30 2884 C 275.722 -2.29577 -3.88079 0
M  V30 2885 C 274.384 -2.68999 -3.9899 0
M  V30 2886 C 276.736 -3.23331 -4.08787 0
M  V30 2887 C 274.064 -4.01289 -4.28 0
M  V30 2888 C 276.416 -4.55207 -4.39282 0
M  V30 2889 C 275.08 -4.94457 -4.48407 0
M  V30 2890 H 274.35 -0.210612 -0.710439 0
M  V30 2891 H 276.997 -1.17744 -1.51025 0
M  V30 2892 H 275.302 -0.169204 -3.91434 0
M  V30 2893 H 276.999 -0.55639 -3.97121 0
M  V30 2894 H 273.589 -1.97994 -3.80127 0
M  V30 2895 H 277.773 -2.94074 -3.99793 0
M  V30 2896 H 273.029 -4.31374 -4.33275 0
M  V30 2897 H 277.203 -5.27852 -4.54252 0
M  V30 2898 H 274.83 -5.96994 -4.7064 0
M  V30 2899 N 276.405 1.4127 -0.698611 0
M  V30 2900 C 277.315 2.34573 -0.0357891 0
M  V30 2901 C 278.331 1.56393 0.762701 0
M  V30 2902 O 279.507 1.8886 0.699564 0
M  V30 2903 C 276.572 3.35159 0.887089 0
M  V30 2904 C 275.633 4.29225 0.0804634 0
M  V30 2905 C 274.866 5.25006 0.959387 0
M  V30 2906 O 275.089 5.26314 2.19886 0
M  V30 2907 O 274.023 6.00519 0.407439 0
M  V30 2908 H 277.849 2.92838 -0.804957 0
M  V30 2909 H 275.434 1.42175 -0.458966 0
M  V30 2910 H 277.316 3.9689 1.41621 0
M  V30 2911 H 275.991 2.79333 1.6357 0
M  V30 2912 H 274.898 3.70833 -0.493328 0
M  V30 2913 H 276.231 4.88157 -0.629547 0
M  V30 2914 N 277.883 0.443576 1.51229 0
M  V30 2915 C 279.13 -0.120796 2.02139 0
M  V30 2916 C 279.458 -1.42166 1.32736 0
M  V30 2917 O 278.713 -1.90849 0.43301 0
M  V30 2918 C 279.012 -0.380579 3.55368 0
M  V30 2919 C 278.678 0.83523 4.43097 0
M  V30 2920 C 277.34 1.16864 4.66794 0
M  V30 2921 C 279.692 1.64601 4.94526 0
M  V30 2922 C 277.02 2.31339 5.39165 0
M  V30 2923 C 279.372 2.78181 5.68153 0
M  V30 2924 C 278.036 3.11969 5.90112 0
M  V30 2925 H 277.306 -0.0442023 0.73968 0
M  V30 2926 H 279.953 0.592046 1.82118 0
M  V30 2927 H 278.258 -1.17538 3.73754 0
M  V30 2928 H 279.955 -0.830777 3.923 0
M  V30 2929 H 276.545 0.565437 4.24854 0
M  V30 2930 H 280.729 1.40163 4.76097 0
M  V30 2931 H 275.985 2.57823 5.5438 0
M  V30 2932 H 280.159 3.41371 6.06992 0
M  V30 2933 H 277.786 4.00784 6.45969 0
M  V30 2934 N 279.361 -1.56624 0.175154 0
M  V30 2935 C 280.589 -2.01374 -0.474971 0
M  V30 2936 C 281.004 -1.05537 -1.56548 0
M  V30 2937 O 280.361 -0.0568668 -1.82411 0
M  V30 2938 C 280.412 -3.45923 -1.04975 0
M  V30 2939 O 280.133 -4.381 -0.00276605 0
M  V30 2940 C 281.634 -4.06093 -1.77773 0
M  V30 2941 H 278.854 -0.659962 -0.121206 0
M  V30 2942 H 281.398 -2.02601 0.27801 0
M  V30 2943 H 279.553 -3.45458 -1.75321 0
M  V30 2944 H 279.967 -5.22753 -0.427681 0
M  V30 2945 H 281.441 -5.09147 -2.13245 0
M  V30 2946 H 281.918 -3.48405 -2.67414 0
M  V30 2947 H 282.524 -4.10272 -1.12059 0
M  V30 2948 N 280.839 0.0985539 -1.57292 0
M  V30 2949 C 282.255 0.45267 -1.53046 0
M  V30 2950 C 282.455 1.80713 -0.891342 0
M  V30 2951 O 281.511 2.4785 -0.482375 0
M  V30 2952 C 282.824 0.418341 -2.97776 0
M  V30 2953 C 284.372 0.500443 -3.08973 0
M  V30 2954 C 284.847 0.496297 -4.55303 0
M  V30 2955 N 286.338 0.557151 -4.59837 0
M  V30 2956 C 287.073 0.575726 -5.70502 0
M  V30 2957 N 286.569 0.550714 -6.90608 0
M  V30 2958 N 288.362 0.620277 -5.58667 0
M  V30 2959 H 280.513 -0.788673 -1.97215 0
M  V30 2960 H 282.776 -0.293188 -0.901524 0
M  V30 2961 H 282.482 -0.509659 -3.47988 0
M  V30 2962 H 282.356 1.2386 -3.56284 0
M  V30 2963 H 284.743 1.41886 -2.58751 0
M  V30 2964 H 284.824 -0.347894 -2.53423 0
M  V30 2965 H 284.468 -0.418162 -5.06176 0
M  V30 2966 H 284.398 1.3618 -5.08687 0
M  V30 2967 H 286.889 0.581816 -3.73394 0
M  V30 2968 H 287.202 0.568075 -7.70709 0
M  V30 2969 H 285.547 0.517816 -6.93068 0
M  V30 2970 H 288.738 0.637322 -4.63741 0
M  V30 2971 H 288.911 0.631283 -6.44918 0
M  V30 2972 N 282.317 1.53212 0.369288 0
M  V30 2973 C 283.227 1.82342 1.47609 0
M  V30 2974 C 284.243 0.711532 1.58787 0
M  V30 2975 O 285.419 1.0012 1.74751 0
M  V30 2976 C 282.484 2.00393 2.8292 0
M  V30 2977 C 281.545 3.24297 2.81301 0
M  V30 2978 C 280.778 3.41478 4.10157 0
M  V30 2979 O 281.001 2.63033 5.06132 0
M  V30 2980 O 279.935 4.34817 4.16194 0
M  V30 2981 H 283.761 2.76366 1.25918 0
M  V30 2982 H 281.346 1.38547 0.559034 0
M  V30 2983 H 283.228 2.13859 3.63101 0
M  V30 2984 H 281.903 1.09559 3.04596 0
M  V30 2985 H 280.81 3.16257 1.99831 0
M  V30 2986 H 282.143 4.15041 2.64578 0
M  V30 2987 N 283.795 -0.628877 1.44509 0
M  V30 2988 C 285.025 -1.41349 1.50678 0
M  V30 2989 C 285.433 -1.88745 0.131075 0
M  V30 2990 O 284.776 -1.61592 -0.87371 0
M  V30 2991 C 284.838 -2.66608 2.41165 0
M  V30 2992 C 284.502 -2.40993 3.88293 0
M  V30 2993 C 285.499 -2.0268 4.78766 0
M  V30 2994 C 283.184 -2.54563 4.33016 0
M  V30 2995 C 285.178 -1.78269 6.11963 0
M  V30 2996 C 282.865 -2.29766 5.6626 0
M  V30 2997 C 283.863 -1.91678 6.55552 0
M  V30 2998 O 283.551 -1.67158 7.86329 0
M  V30 2999 H 283.283 -0.439851 0.51333 0
M  V30 3000 H 285.837 -0.776084 1.90174 0
M  V30 3001 H 284.067 -3.32994 1.96601 0
M  V30 3002 H 285.756 -3.28615 2.38259 0
M  V30 3003 H 286.522 -1.91751 4.45485 0
M  V30 3004 H 282.401 -2.83179 3.63773 0
M  V30 3005 H 285.945 -1.48465 6.81619 0
M  V30 3006 H 281.842 -2.40306 5.99102 0
M  V30 3007 H 282.61 -1.81386 7.98149 0
M  V30 3008 N 285.273 -1.31445 -0.869486 0
M  V30 3009 C 286.521 -1.20918 -1.61936 0
M  V30 3010 C 286.842 0.232683 -1.93607 0
M  V30 3011 O 286.112 1.15352 -1.58338 0
M  V30 3012 H 284.692 -0.44454 -0.600328 0
M  V30 3013 H 287.354 -1.64776 -1.0409 0
M  V30 3014 H 286.45 -1.78124 -2.56278 0
M  V30 3015 N 286.751 1.08385 -1.14413 0
M  V30 3016 C 287.997 1.81044 -0.913834 0
M  V30 3017 C 288.33 1.86004 0.558209 0
M  V30 3018 O 287.605 1.33606 1.4135 0
M  V30 3019 C 287.888 3.26648 -1.51569 0
M  V30 3020 C 287.741 3.29895 -3.0576 0
M  V30 3021 C 289.06 4.23629 -1.19273 0
M  V30 3022 H 286.179 0.65727 -0.333414 0
M  V30 3023 H 288.821 1.26896 -1.41412 0
M  V30 3024 H 286.971 3.72889 -1.09023 0
M  V30 3025 H 288.643 2.91977 -3.57137 0
M  V30 3026 H 286.886 2.69163 -3.40197 0
M  V30 3027 H 287.557 4.32516 -3.42977 0
M  V30 3028 H 290.033 3.85727 -1.56057 0
M  V30 3029 H 288.909 5.23822 -1.64017 0
M  V30 3030 H 289.17 4.41968 -0.108068 0
M  V30 3031 N 288.23 0.939286 1.26551 0
M  V30 3032 C 289.14 0.453432 2.30176 0
M  V30 3033 C 290.156 -0.471649 1.67486 0
M  V30 3034 O 291.332 -0.35164 1.98306 0
M  V30 3035 C 288.397 -0.275326 3.45605 0
M  V30 3036 C 287.458 0.686084 4.23782 0
M  V30 3037 C 286.691 -0.00798994 5.33699 0
M  V30 3038 O 286.914 -1.22528 5.57085 0
M  V30 3039 O 285.848 0.669746 5.98162 0
M  V30 3040 H 289.674 1.31416 2.73795 0
M  V30 3041 H 287.259 0.705095 1.31715 0
M  V30 3042 H 289.141 -0.685911 4.1578 0
M  V30 3043 H 287.816 -1.11147 3.0402 0
M  V30 3044 H 286.723 1.14658 3.56096 0
M  V30 3045 H 288.056 1.48979 4.69112 0
M  V30 3046 N 289.708 -1.40897 0.706093 0
M  V30 3047 C 290.933 -2.05895 0.249435 0
M  V30 3048 C 291.358 -1.52823 -1.09666 0
M  V30 3049 O 290.716 -0.659589 -1.68876 0
M  V30 3050 C 290.764 -3.59872 0.22904 0
M  V30 3051 O 289.868 -4.04708 -0.792784 0
M  V30 3052 H 289.209 -0.653206 0.119241 0
M  V30 3053 H 291.739 -1.80471 0.96391 0
M  V30 3054 H 291.749 -4.07951 0.0634791 0
M  V30 3055 H 290.424 -3.97866 1.21141 0
M  V30 3056 H 289.001 -3.68111 -0.59572 0
M  V30 3057 N 291.186 -0.45159 -1.50991 0
M  V30 3058 C 292.116 0.342898 -2.30969 0
M  V30 3059 C 293.097 1.00815 -1.37005 0
M  V30 3060 O 294.282 1.00907 -1.65926 0
M  V30 3061 C 291.412 1.43637 -3.16205 0
M  V30 3062 C 290.366 0.893818 -4.18563 0
M  V30 3063 C 289.692 2.08411 -4.92411 0
M  V30 3064 C 290.992 -0.0815568 -5.22236 0
M  V30 3065 H 292.686 -0.324556 -2.97636 0
M  V30 3066 H 290.232 -0.157531 -1.43136 0
M  V30 3067 H 292.185 1.9995 -3.70942 0
M  V30 3068 H 290.909 2.13232 -2.47386 0
M  V30 3069 H 289.568 0.352798 -3.64898 0
M  V30 3070 H 289.216 2.76658 -4.20082 0
M  V30 3071 H 288.916 1.72741 -5.61636 0
M  V30 3072 H 290.44 2.65251 -5.49976 0
M  V30 3073 H 291.854 0.391742 -5.7196 0
M  V30 3074 H 290.251 -0.351551 -5.99069 0
M  V30 3075 H 291.321 -1.01374 -4.74185 0
M  V30 3076 N 292.664 1.56529 -0.183458 0
M  V30 3077 C 293.614 2.1515 0.754605 0
M  V30 3078 C 294.598 1.08904 1.18443 0
M  V30 3079 O 295.79 1.34997 1.14476 0
M  V30 3080 C 292.919 2.80531 1.97881 0
M  V30 3081 C 292.005 3.93952 1.57043 0
M  V30 3082 N 292.396 4.98221 0.87231 0
M  V30 3083 C 290.694 4.05338 1.86057 0
M  V30 3084 C 291.395 5.77836 0.669377 0
M  V30 3085 N 290.371 5.29858 1.21454 0
M  V30 3086 H 294.173 2.93132 0.212387 0
M  V30 3087 H 291.687 1.62391 0.0167725 0
M  V30 3088 H 293.684 3.20914 2.6612 0
M  V30 3089 H 292.344 2.04035 2.52586 0
M  V30 3090 H 293.355 5.15191 0.529033 0
M  V30 3091 H 290.032 3.39957 2.42354 0
M  V30 3092 H 291.422 6.71799 0.116422 0
M  V30 3093 N 294.142 -0.090211 1.57342 0
M  V30 3094 C 295.089 -1.10909 2.02405 0
M  V30 3095 C 296.059 -1.39523 0.901252 0
M  V30 3096 O 297.244 -1.50903 1.1676 0
M  V30 3097 C 294.384 -2.42277 2.45755 0
M  V30 3098 C 293.497 -2.20352 3.71576 0
M  V30 3099 C 292.632 -3.45154 4.03785 0
M  V30 3100 C 291.671 -3.18512 5.22701 0
M  V30 3101 N 290.808 -4.35593 5.50639 0
M  V30 3102 H 295.648 -0.71782 2.89225 0
M  V30 3103 H 293.185 -0.342901 1.43048 0
M  V30 3104 H 295.143 -3.18951 2.68935 0
M  V30 3105 H 293.773 -2.79242 1.61938 0
M  V30 3106 H 292.825 -1.34458 3.55844 0
M  V30 3107 H 294.137 -1.96661 4.58395 0
M  V30 3108 H 293.291 -4.30233 4.27767 0
M  V30 3109 H 292.03 -3.71904 3.15498 0
M  V30 3110 H 291.035 -2.31827 4.98534 0
M  V30 3111 H 292.26 -2.93103 6.12591 0
M  V30 3112 H 290.206 -4.6241 4.6531 0
M  V30 3113 H 290.123 -4.1511 6.31838 0
M  V30 3114 H 291.391 -5.21723 5.7916 0
M  V30 3115 N 295.62 -1.53406 -0.361157 0
M  V30 3116 C 296.848 -1.73717 -1.12383 0
M  V30 3117 C 297.263 -0.468161 -1.82904 0
M  V30 3118 O 296.62 0.559198 -1.73722 0
M  V30 3119 C 296.671 -2.90558 -2.15078 0
M  V30 3120 O 296.392 -4.12549 -1.47428 0
M  V30 3121 C 297.893 -3.22777 -3.03858 0
M  V30 3122 H 295.113 -0.580896 -0.335858 0
M  V30 3123 H 297.657 -2.00167 -0.418728 0
M  V30 3124 H 295.812 -2.66489 -2.8118 0
M  V30 3125 H 296.226 -4.78009 -2.15887 0
M  V30 3126 H 297.7 -4.07927 -3.71887 0
M  V30 3127 H 298.177 -2.38329 -3.68912 0
M  V30 3128 H 298.783 -3.48787 -2.43367 0
M  V30 3129 N 297.098 0.621204 -1.44841 0
M  V30 3130 C 298.345 1.38055 -1.48145 0
M  V30 3131 C 298.673 1.94143 -0.117867 0
M  V30 3132 O 297.928 1.74713 0.881694 0
M  V30 3133 C 298.227 2.55675 -2.4973 0
M  V30 3134 C 297.893 2.17817 -3.94799 0
M  V30 3135 C 296.555 2.07205 -4.34303 0
M  V30 3136 C 298.907 1.88065 -4.86087 0
M  V30 3137 C 296.235 1.65045 -5.63007 0
M  V30 3138 C 298.587 1.47394 -6.15189 0
M  V30 3139 C 297.251 1.35331 -6.53637 0
M  V30 3140 H 296.521 0.505181 -0.542101 0
M  V30 3141 H 299.168 0.703477 -1.78111 0
M  V30 3142 H 297.473 3.2866 -2.13284 0
M  V30 3143 H 299.17 3.13904 -2.4953 0
M  V30 3144 H 295.76 2.26998 -3.63552 0
M  V30 3145 H 299.944 1.95168 -4.56315 0
M  V30 3146 H 295.2 1.54317 -5.91605 0
M  V30 3147 H 299.374 1.23415 -6.85377 0
M  V30 3148 H 297.001 1.02435 -7.53267 0
M  V30 3149 N 298.576 1.31904 0.862503 0
M  V30 3150 C 299.539 1.20131 1.95195 0
M  V30 3151 C 300.539 0.126409 1.60302 0
M  V30 3152 O 301.729 0.376234 1.70089 0
M  V30 3153 C 298.861 0.845691 3.30244 0
M  V30 3154 H 300.054 2.16943 2.07064 0
M  V30 3155 H 297.607 1.15622 1.05172 0
M  V30 3156 H 298.342 -0.120957 3.24074 0
M  V30 3157 H 298.127 1.62276 3.56944 0
M  V30 3158 H 299.617 0.787418 4.10109 0
M  V30 3159 N 300.054 -1.07777 1.14986 0
M  V30 3160 C 300.984 -2.16865 0.865557 0
M  V30 3161 C 301.965 -1.69123 -0.182083 0
M  V30 3162 O 303.15 -1.94164 -0.0373815 0
M  V30 3163 C 300.28 -3.45539 0.349313 0
M  V30 3164 C 299.234 -4.06708 1.33313 0
M  V30 3165 C 298.56 -5.30411 0.675918 0
M  V30 3166 C 299.86 -4.47241 2.69764 0
M  V30 3167 H 301.554 -2.40905 1.77778 0
M  V30 3168 H 299.1 -1.15781 0.856203 0
M  V30 3169 H 301.053 -4.21174 0.137983 0
M  V30 3170 H 299.777 -3.21072 -0.598362 0
M  V30 3171 H 298.436 -3.33112 1.53075 0
M  V30 3172 H 298.084 -5.02232 -0.277767 0
M  V30 3173 H 297.784 -5.72293 1.33244 0
M  V30 3174 H 299.308 -6.08755 0.474262 0
M  V30 3175 H 300.722 -5.14025 2.53873 0
M  V30 3176 H 299.119 -5.00062 3.3175 0
M  V30 3177 H 300.189 -3.58818 3.26156 0
M  V30 3178 N 301.532 -0.945985 -1.26051 0
M  V30 3179 C 302.495 -0.463897 -2.24456 0
M  V30 3180 C 303.495 0.427655 -1.55009 0
M  V30 3181 O 304.685 0.226157 -1.72726 0
M  V30 3182 C 301.817 0.330812 -3.39291 0
M  V30 3183 H 303.01 -1.33357 -2.68619 0
M  V30 3184 H 300.563 -0.728416 -1.38289 0
M  V30 3185 H 301.298 1.21852 -3.00537 0
M  V30 3186 H 301.083 -0.308679 -3.90883 0
M  V30 3187 H 302.573 0.657865 -4.12386 0
M  V30 3188 N 303.011 1.40521 -0.713556 0
M  V30 3189 C 303.943 2.29191 -0.0203126 0
M  V30 3190 C 304.956 1.45723 0.725864 0
M  V30 3191 O 306.145 1.69033 0.573581 0
M  V30 3192 C 303.245 3.2395 0.995486 0
M  V30 3193 C 302.418 4.36262 0.315256 0
M  V30 3194 C 301.477 5.11474 1.23616 0
M  V30 3195 O 300.503 5.64606 0.721719 0
M  V30 3196 N 301.705 5.20638 2.56743 0
M  V30 3197 H 304.47 2.89327 -0.781652 0
M  V30 3198 H 302.031 1.51869 -0.561022 0
M  V30 3199 H 304.023 3.71137 1.61368 0
M  V30 3200 H 302.593 2.64995 1.6582 0
M  V30 3201 H 301.813 3.91228 -0.483106 0
M  V30 3202 H 303.101 5.08558 -0.157004 0
M  V30 3203 H 302.499 4.7895 3.01037 0
M  V30 3204 H 301.056 5.71339 3.13712 0
M  V30 3205 N 304.489 0.459591 1.5075 0
M  V30 3206 C 305.436 -0.340524 2.28274 0
M  V30 3207 C 306.406 -0.997371 1.32822 0
M  V30 3208 O 307.591 -1.01202 1.61749 0
M  V30 3209 C 304.731 -1.42317 3.14388 0
M  V30 3210 C 303.844 -0.782251 4.24859 0
M  V30 3211 C 302.979 -1.84182 4.98247 0
M  V30 3212 C 302.018 -1.18053 6.00608 0
M  V30 3213 N 301.155 -2.18244 6.67319 0
M  V30 3214 H 305.995 0.326899 2.96202 0
M  V30 3215 H 303.532 0.173057 1.46078 0
M  V30 3216 H 305.49 -2.06241 3.62658 0
M  V30 3217 H 304.12 -2.05992 2.4853 0
M  V30 3218 H 303.172 -0.0307404 3.80388 0
M  V30 3219 H 304.484 -0.259663 4.98124 0
M  V30 3220 H 303.638 -2.55714 5.50177 0
M  V30 3221 H 302.377 -2.39819 4.24662 0
M  V30 3222 H 301.382 -0.450776 5.47949 0
M  V30 3223 H 302.607 -0.631202 6.7616 0
M  V30 3224 H 300.553 -2.72919 5.96533 0
M  V30 3225 H 300.47 -1.70938 7.36421 0
M  V30 3226 H 301.738 -2.89191 7.23871 0
M  V30 3227 N 305.967 -1.56429 0.191757 0
M  V30 3228 C 307.197 -2.01574 -0.452928 0
M  V30 3229 C 307.605 -1.07107 -1.55964 0
M  V30 3230 O 306.948 -0.067534 -1.83576 0
M  V30 3231 C 307.01 -3.43121 -1.07278 0
M  V30 3232 C 306.674 -4.56879 -0.105214 0
M  V30 3233 C 307.671 -5.15379 0.684149 0
M  V30 3234 C 305.356 -5.023 0.00489824 0
M  V30 3235 C 307.35 -6.17746 1.57062 0
M  V30 3236 C 305.037 -6.04511 0.894935 0
M  V30 3237 C 306.035 -6.62108 1.67637 0
M  V30 3238 O 305.723 -7.62335 2.55149 0
M  V30 3239 H 305.455 -0.665554 -0.118379 0
M  V30 3240 H 308.009 -2.03245 0.296737 0
M  V30 3241 H 306.239 -3.38425 -1.87097 0
M  V30 3242 H 307.928 -3.72093 -1.62177 0
M  V30 3243 H 308.694 -4.81157 0.609365 0
M  V30 3244 H 304.573 -4.57168 -0.593156 0
M  V30 3245 H 308.117 -6.6263 2.181 0
M  V30 3246 H 304.014 -6.38157 0.970847 0
M  V30 3247 H 304.782 -7.79741 2.48892 0
M  V30 3248 N 307.445 0.0818655 -1.57387 0
M  V30 3249 C 308.722 0.815343 -1.77796 0
M  V30 3250 C 309.102 1.96289 -0.77679 0
M  V30 3251 O 308.45 2.27691 0.192106 0
M  V30 3252 C 308.66 1.29765 -3.23978 0
M  V30 3253 C 310.008 1.7351 -3.8753 0
M  V30 3254 O 311.032 1.39356 -3.27808 0
M  V30 3255 O 309.891 2.36708 -4.92576 0
M  V30 3256 H 306.985 0.389914 -0.729312 0
M  V30 3257 H 309.531 0.0627213 -1.69584 0
M  V30 3258 H 308.303 0.47608 -3.88393 0
M  V30 3259 H 307.926 2.11189 -3.36875 0
M  V30 3260 N 308.923 1.53595 0.353017 0
M  V30 3261 C 310.339 1.43648 0.695516 0
M  V30 3262 C 310.539 0.585617 1.92802 0
M  V30 3263 O 309.595 0.0729223 2.52395 0
M  V30 3264 C 310.908 2.8701 0.896991 0
M  V30 3265 C 312.456 2.96723 0.996209 0
M  V30 3266 C 312.931 4.41173 1.23007 0
M  V30 3267 N 314.422 4.44657 1.29749 0
M  V30 3268 C 315.157 5.53547 1.49577 0
M  V30 3269 N 314.653 6.72461 1.66639 0
M  V30 3270 N 316.446 5.41145 1.52048 0
M  V30 3271 H 308.597 2.07415 -0.457481 0
M  V30 3272 H 310.86 0.9372 -0.142687 0
M  V30 3273 H 310.566 3.51644 0.0629938 0
M  V30 3274 H 310.44 3.31401 1.80148 0
M  V30 3275 H 312.827 2.32235 1.82074 0
M  V30 3276 H 312.908 2.55707 0.0688331 0
M  V30 3277 H 312.552 5.06238 0.410505 0
M  V30 3278 H 312.482 4.79772 2.17086 0
M  V30 3279 H 314.973 3.58963 1.18126 0
M  V30 3280 H 315.286 7.51214 1.81378 0
M  V30 3281 H 313.631 6.75423 1.63794 0
M  V30 3282 H 316.822 4.47205 1.38294 0
M  V30 3283 H 316.995 6.26068 1.67159 0
M  V30 3284 N 310.401 -0.613514 1.45168 0
M  V30 3285 C 311.331 -1.7354 1.56225 0
M  V30 3286 C 312.312 -1.64981 0.41414 0
M  V30 3287 O 313.497 -1.83472 0.636526 0
M  V30 3288 C 310.627 -3.12128 1.52295 0
M  V30 3289 C 309.581 -3.35491 2.65762 0
M  V30 3290 C 308.907 -4.74291 2.46885 0
M  V30 3291 C 310.207 -3.26325 4.0781 0
M  V30 3292 H 311.901 -1.64543 2.50132 0
M  V30 3293 H 309.447 -0.790185 1.20383 0
M  V30 3294 H 311.4 -3.90404 1.58628 0
M  V30 3295 H 310.124 -3.2195 0.549139 0
M  V30 3296 H 308.783 -2.59603 2.58847 0
M  V30 3297 H 308.431 -4.80839 1.47657 0
M  V30 3298 H 308.131 -4.9088 3.22972 0
M  V30 3299 H 309.655 -5.54775 2.55063 0
M  V30 3300 H 311.069 -3.94483 4.16 0
M  V30 3301 H 309.466 -3.54445 4.8424 0
M  V30 3302 H 310.536 -2.23855 4.30136 0
M  V30 3303 N 311.879 -1.3236 -0.855495 0
M  V30 3304 C 313.128 -1.22226 -1.60448 0
M  V30 3305 C 313.441 0.214733 -1.94418 0
M  V30 3306 O 314.647 0.437917 -2.67945 0
M  V30 3307 C 313.103 -2.14063 -2.89318 0
M  V30 3308 C 312.711 -3.62839 -2.62777 0
M  V30 3309 C 314.455 -2.12764 -3.67331 0
M  V30 3310 C 312.362 -4.4664 -3.87643 0
M  V30 3311 H 311.292 -0.453904 -0.602069 0
M  V30 3312 H 313.943 -1.57314 -0.944698 0
M  V30 3313 H 312.325 -1.71889 -3.5675 0
M  V30 3314 H 313.499 -4.1335 -2.03662 0
M  V30 3315 H 311.814 -3.66261 -1.98096 0
M  V30 3316 H 314.411 -2.72611 -4.59987 0
M  V30 3317 H 314.754 -1.11841 -4.00995 0
M  V30 3318 H 315.287 -2.53214 -3.06802 0
M  V30 3319 H 312.026 -5.48373 -3.5912 0
M  V30 3320 H 311.546 -4.0088 -4.46156 0
M  V30 3321 H 313.225 -4.59597 -4.55389 0
M  V30 3322 N 313.357 1.07166 -1.15556 0
M  V30 3323 C 314.634 1.76546 -0.842069 0
M  V30 3324 C 315.014 2.00453 0.661939 0
M  V30 3325 O 314.362 1.62452 1.60691 0
M  V30 3326 C 314.572 3.07266 -1.65495 0
M  V30 3327 C 315.92 3.81578 -1.86234 0
M  V30 3328 O 316.944 3.17083 -1.62287 0
M  V30 3329 O 315.803 4.97419 -2.26355 0
M  V30 3330 H 312.897 0.766756 -0.309862 0
M  V30 3331 H 315.443 1.13514 -1.26145 0
M  V30 3332 H 314.215 2.85494 -2.67598 0
M  V30 3333 H 313.838 3.7803 -1.23203 0
M  V30 3334 N 314.835 0.952656 1.25548 0
M  V30 3335 C 316.081 0.607272 1.93494 0
M  V30 3336 C 316.414 -0.853245 1.74452 0
M  V30 3337 O 315.689 -1.61194 1.08843 0
M  V30 3338 C 315.972 0.96435 3.46947 0
M  V30 3339 C 315.825 2.48045 3.75225 0
M  V30 3340 C 317.144 0.487987 4.37386 0
M  V30 3341 H 314.263 0.222096 0.702739 0
M  V30 3342 H 316.905 1.18895 1.48203 0
M  V30 3343 H 315.055 0.469361 3.85654 0
M  V30 3344 H 316.727 3.04905 3.46166 0
M  V30 3345 H 314.97 2.919 3.209 0
M  V30 3346 H 315.641 2.6808 4.82532 0
M  V30 3347 H 318.117 0.912558 4.0597 0
M  V30 3348 H 316.993 0.766547 5.43521 0
M  V30 3349 H 317.254 -0.612063 4.37843 0
M  V30 3350 N 316.313 -1.40141 0.720998 0
M  V30 3351 C 317.263 -2.27949 0.0482544 0
M  V30 3352 C 318.247 -1.43538 -0.727021 0
M  V30 3353 O 319.439 -1.6658 -0.598332 0
M  V30 3354 C 316.568 -3.32126 -0.868729 0
M  V30 3355 C 315.654 -4.24008 -0.0883515 0
M  V30 3356 N 316.045 -4.97154 0.931226 0
M  V30 3357 C 314.343 -4.4485 -0.320105 0
M  V30 3358 C 315.044 -5.64587 1.4006 0
M  V30 3359 N 314.02 -5.38787 0.721752 0
M  V30 3360 H 317.822 -2.81948 0.829609 0
M  V30 3361 H 315.336 -1.52656 0.554067 0
M  V30 3362 H 317.333 -3.93884 -1.36605 0
M  V30 3363 H 315.993 -2.79687 -1.6494 0
M  V30 3364 H 317.004 -5.01 1.31222 0
M  V30 3365 H 313.681 -4.03378 -1.07668 0
M  V30 3366 H 315.071 -6.33175 2.24808 0
M  V30 3367 N 317.792 -0.46758 -1.50504 0
M  V30 3368 C 319.032 0.0874114 -2.04213 0
M  V30 3369 C 319.396 1.37301 -1.34211 0
M  V30 3370 O 320.597 2.01015 -1.78456 0
M  V30 3371 C 318.868 0.270571 -3.56374 0
M  V30 3372 S 320.427 0.784623 -4.31728 0
M  V30 3373 H 317.245 0.0176153 -0.710782 0
M  V30 3374 H 319.847 -0.633915 -1.84937 0
M  V30 3375 H 318.551 -0.670942 -4.04878 0
M  V30 3376 H 318.082 1.01811 -3.79997 0
M  V30 3377 H 320.097 2.05849 -4.51487 0
M  V30 3378 N 319.27 1.56325 -0.20005 0
M  V30 3379 C 320.547 1.89484 0.48529 0
M  V30 3380 C 320.927 1.1143 1.79294 0
M  V30 3381 O 320.275 0.216919 2.27468 0
M  V30 3382 C 320.485 3.41923 0.699243 0
M  V30 3383 C 321.833 4.12256 1.01638 0
M  V30 3384 O 322.857 3.47402 0.786792 0
M  V30 3385 O 321.716 5.26887 1.45095 0
M  V30 3386 H 318.81 0.787144 0.253639 0
M  V30 3387 H 321.356 1.67985 -0.240633 0
M  V30 3388 H 320.128 3.90658 -0.224008 0
M  V30 3389 H 319.751 3.69131 1.47744 0
M  V30 3390 N 320.748 -0.0735177 1.57428 0
M  V30 3391 C 321.658 -1.10547 2.06922 0
M  V30 3392 C 322.674 -1.42506 0.998402 0
M  V30 3393 O 323.85 -1.52717 1.31299 0
M  V30 3394 C 320.915 -2.40019 2.50184 0
M  V30 3395 C 319.976 -2.15046 3.71556 0
M  V30 3396 C 319.209 -3.38345 4.12745 0
M  V30 3397 O 319.432 -4.47399 3.53822 0
M  V30 3398 O 318.366 -3.2666 5.05546 0
M  V30 3399 H 322.192 -0.715013 2.95163 0
M  V30 3400 H 319.777 -0.287531 1.46607 0
M  V30 3401 H 321.659 -3.16218 2.78539 0
M  V30 3402 H 320.334 -2.78447 1.65072 0
M  V30 3403 H 319.241 -1.36558 3.48285 0
M  V30 3404 H 320.574 -1.81499 4.57514 0
M  V30 3405 N 322.226 -1.5378 -0.344866 0
M  V30 3406 C 323.475 -1.7018 -1.08267 0
M  V30 3407 C 323.788 -0.471 -1.89845 0
M  V30 3408 O 324.994 -0.515917 -2.66553 0
M  V30 3409 C 323.45 -3.00923 -1.97417 0
M  V30 3410 C 323.058 -4.31335 -1.21053 0
M  V30 3411 C 324.802 -3.26688 -2.71063 0
M  V30 3412 C 322.709 -5.53153 -2.09225 0
M  V30 3413 H 321.639 -0.634138 -0.407903 0
M  V30 3414 H 324.29 -1.8028 -0.342246 0
M  V30 3415 H 322.672 -2.84676 -2.75274 0
M  V30 3416 H 323.846 -4.58281 -0.481159 0
M  V30 3417 H 322.161 -4.12173 -0.591813 0
M  V30 3418 H 324.758 -4.1489 -3.37299 0
M  V30 3419 H 325.101 -2.43639 -3.37558 0
M  V30 3420 H 325.634 -3.43705 -2.0028 0
M  V30 3421 H 322.373 -6.38741 -1.47274 0
M  V30 3422 H 321.893 -5.30458 -2.79955 0
M  V30 3423 H 323.572 -5.88744 -2.68308 0
M  V30 3424 N 323.704 0.605807 -1.45491 0
M  V30 3425 C 324.981 1.36522 -1.40075 0
M  V30 3426 C 325.361 2.10976 -0.0722744 0
M  V30 3427 O 324.709 2.08007 0.945808 0
M  V30 3428 C 324.919 2.31056 -2.61561 0
M  V30 3429 C 326.267 2.93608 -3.06724 0
M  V30 3430 O 327.291 2.41376 -2.61946 0
M  V30 3431 O 326.15 3.88421 -3.84437 0
M  V30 3432 H 323.244 0.612248 -0.555951 0
M  V30 3433 H 325.79 0.628747 -1.57623 0
M  V30 3434 H 324.562 1.75311 -3.49831 0
M  V30 3435 H 324.185 3.12081 -2.46356 0
M  V30 3436 N 325.182 1.32811 0.848464 0
M  V30 3437 C 326.459 1.14334 1.58704 0
M  V30 3438 C 326.839 -0.293948 2.09043 0
M  V30 3439 O 326.187 -1.29153 1.88499 0
M  V30 3440 C 326.397 2.17626 2.72837 0
M  V30 3441 C 327.745 2.51282 3.42261 0
M  V30 3442 O 328.769 2.16219 2.83068 0
M  V30 3443 O 327.628 3.11413 4.49093 0
M  V30 3444 H 324.722 0.441601 0.699226 0
M  V30 3445 H 327.268 1.44362 0.892053 0
M  V30 3446 H 326.04 3.14211 2.3321 0
M  V30 3447 H 325.663 1.88628 3.50008 0
M  V30 3448 N 326.66 -1.06551 1.16123 0
M  V30 3449 C 327.57 -2.17484 0.879662 0
M  V30 3450 C 328.586 -1.73377 -0.147104 0
M  V30 3451 O 329.762 -2.01379 0.0289128 0
M  V30 3452 C 326.827 -3.44591 0.381829 0
M  V30 3453 C 325.888 -4.0322 1.4735 0
M  V30 3454 C 325.121 -5.24261 0.999324 0
M  V30 3455 O 325.344 -5.70198 -0.151957 0
M  V30 3456 O 324.278 -5.74775 1.78653 0
M  V30 3457 H 328.104 -2.44075 1.80724 0
M  V30 3458 H 325.689 -1.16042 0.940992 0
M  V30 3459 H 327.571 -4.21254 0.111053 0
M  V30 3460 H 326.246 -3.19532 -0.51777 0
M  V30 3461 H 325.153 -3.2806 1.79798 0
M  V30 3462 H 326.486 -4.32568 2.34831 0
M  V30 3463 N 328.138 -0.959301 -1.25041 0
M  V30 3464 C 329.07 -0.440543 -2.24926 0
M  V30 3465 C 330.083 0.446131 -1.56568 0
M  V30 3466 O 331.272 0.253657 -1.76689 0
M  V30 3467 C 328.372 0.38412 -3.36716 0
M  V30 3468 C 327.545 -0.490658 -4.34639 0
M  V30 3469 C 326.604 0.276587 -5.25473 0
M  V30 3470 O 325.63 -0.326614 -5.68262 0
M  V30 3471 N 326.832 1.56844 -5.5891 0
M  V30 3472 H 329.597 -1.29931 -2.70071 0
M  V30 3473 H 327.158 -0.830181 -1.38995 0
M  V30 3474 H 329.15 0.905228 -3.94446 0
M  V30 3475 H 327.72 1.14377 -2.90924 0
M  V30 3476 H 326.94 -1.19282 -3.7572 0
M  V30 3477 H 328.228 -1.08756 -4.97041 0
M  V30 3478 H 327.626 2.08036 -5.26059 0
M  V30 3479 H 326.183 2.03541 -6.19205 0
M  V30 3480 N 329.616 1.39756 -0.72842 0
M  V30 3481 C 330.841 2.05472 -0.282159 0
M  V30 3482 C 331.266 1.54549 1.07221 0
M  V30 3483 O 330.624 0.686372 1.67805 0
M  V30 3484 C 330.672 3.59462 -0.286264 0
M  V30 3485 O 329.776 4.05918 0.728298 0
M  V30 3486 H 329.117 0.651226 -0.129618 0
M  V30 3487 H 331.647 1.78915 -0.992499 0
M  V30 3488 H 331.657 4.07798 -0.128373 0
M  V30 3489 H 330.332 3.95889 -1.27456 0
M  V30 3490 H 328.909 3.69012 0.537081 0
M  V30 3491 N 331.094 0.475555 1.50254 0
M  V30 3492 C 332.51 0.12997 1.5907 0
M  V30 3493 C 332.71 -1.36385 1.48328 0
M  V30 3494 O 331.766 -2.13754 1.34407 0
M  V30 3495 C 333.079 0.684139 2.92814 0
M  V30 3496 C 334.627 0.647965 3.0622 0
M  V30 3497 C 335.102 1.17975 4.42545 0
M  V30 3498 N 336.593 1.13936 4.48969 0
M  V30 3499 C 337.328 1.52129 5.52851 0
M  V30 3500 N 336.824 1.97793 6.63965 0
M  V30 3501 N 338.617 1.43704 5.4342 0
M  V30 3502 H 330.768 1.44706 1.55479 0
M  V30 3503 H 333.031 0.598691 0.735033 0
M  V30 3504 H 332.737 1.73079 3.06164 0
M  V30 3505 H 332.611 0.130204 3.76975 0
M  V30 3506 H 334.998 -0.38979 2.92514 0
M  V30 3507 H 335.079 1.23876 2.23805 0
M  V30 3508 H 334.723 2.21616 4.57 0
M  V30 3509 H 334.653 0.565138 5.23559 0
M  V30 3510 H 337.144 0.804488 3.69238 0
M  V30 3511 H 337.457 2.25072 7.39299 0
M  V30 3512 H 335.802 2.01749 6.65073 0
M  V30 3513 H 338.993 1.07867 4.55502 0
M  V30 3514 H 339.166 1.73794 6.24259 0
M  V30 3515 N 332.573 -1.56217 0.208337 0
M  V30 3516 C 333.82 -1.97949 -0.42692 0
M  V30 3517 C 334.148 -1.09562 -1.60706 0
M  V30 3518 O 333.403 -0.137616 -1.95216 0
M  V30 3519 C 333.702 -3.45441 -0.916797 0
M  V30 3520 C 333.368 -4.50646 0.151391 0
M  V30 3521 C 332.03 -4.79139 0.444867 0
M  V30 3522 C 334.382 -5.13811 0.874492 0
M  V30 3523 C 331.71 -5.68084 1.46619 0
M  V30 3524 C 334.062 -6.03861 1.88506 0
M  V30 3525 C 332.726 -6.30704 2.18559 0
M  V30 3526 H 331.996 -0.724345 -0.156221 0
M  V30 3527 H 334.643 -1.89006 0.308084 0
M  V30 3528 H 332.948 -3.51521 -1.73032 0
M  V30 3529 H 334.645 -3.75094 -1.41794 0
M  V30 3530 H 331.235 -4.28511 -0.0875068 0
M  V30 3531 H 335.419 -4.91879 0.660996 0
M  V30 3532 H 330.675 -5.87151 1.7048 0
M  V30 3533 H 334.849 -6.51861 2.45051 0
M  V30 3534 H 332.476 -6.99424 2.97843 0
M  V30 3535 N 334.051 0.0651679 -1.57465 0
M  V30 3536 C 335.297 0.764193 -1.87851 0
M  V30 3537 C 335.63 1.76889 -0.801495 0
M  V30 3538 O 334.905 1.93594 0.187528 0
M  V30 3539 C 335.188 1.46625 -3.28897 0
M  V30 3540 C 335.041 0.477515 -4.47258 0
M  V30 3541 C 336.36 2.4095 -3.68281 0
M  V30 3542 H 333.479 0.276351 -0.683227 0
M  V30 3543 H 336.121 0.0272868 -1.8998 0
M  V30 3544 H 334.271 2.09438 -3.27212 0
M  V30 3545 H 335.943 -0.145922 -4.61069 0
M  V30 3546 H 334.186 -0.206576 -4.33308 0
M  V30 3547 H 334.857 1.0065 -5.42746 0
M  V30 3548 H 337.333 1.88209 -3.71102 0
M  V30 3549 H 336.209 2.87072 -4.67847 0
M  V30 3550 H 336.47 3.26049 -2.98571 0
M  V30 3551 N 335.529 1.53961 0.336706 0
M  V30 3552 C 336.439 1.85432 1.43708 0
M  V30 3553 C 337.455 0.745053 1.57242 0
M  V30 3554 O 338.631 1.03804 1.72588 0
M  V30 3555 C 335.696 2.06349 2.78605 0
M  V30 3556 C 334.757 3.30191 2.74358 0
M  V30 3557 C 333.99 3.50101 4.02822 0
M  V30 3558 O 334.213 2.7371 5.00439 0
M  V30 3559 O 333.147 4.43547 4.06878 0
M  V30 3560 H 336.973 2.78975 1.20028 0
M  V30 3561 H 334.558 1.39701 0.52952 0
M  V30 3562 H 336.44 2.21513 3.58483 0
M  V30 3563 H 335.115 1.15995 3.02203 0
M  V30 3564 H 334.022 3.20425 1.93078 0
M  V30 3565 H 335.355 4.2056 2.55715 0
M  V30 3566 N 337.007 -0.598083 1.45811 0
M  V30 3567 C 338.235 -1.38322 1.53866 0
M  V30 3568 C 338.65 -1.87992 0.174479 0
M  V30 3569 O 338.007 -1.62756 -0.825627 0
M  V30 3570 C 338.058 -2.58125 2.53089 0
M  V30 3571 O 337.779 -2.10516 3.84206 0
M  V30 3572 C 339.28 -3.50869 2.70935 0
M  V30 3573 H 336.5 -0.423093 0.520801 0
M  V30 3574 H 339.044 -0.728527 1.91083 0
M  V30 3575 H 337.199 -3.19615 2.18917 0
M  V30 3576 H 337.613 -2.88425 4.38077 0
M  V30 3577 H 339.087 -4.31451 3.44317 0
M  V30 3578 H 339.564 -4.01822 1.77301 0
M  V30 3579 H 340.17 -2.95225 3.06141 0
M  V30 3580 N 338.485 -1.33259 -0.841409 0
M  V30 3581 C 339.731 -1.24757 -1.59886 0
M  V30 3582 C 340.064 0.186913 -1.93298 0
M  V30 3583 O 339.339 1.12757 -1.5848 0
M  V30 3584 C 339.622 -2.12036 -2.91055 0
M  V30 3585 C 339.475 -3.63929 -2.6434 0
M  V30 3586 C 340.794 -1.9916 -3.92458 0
M  V30 3587 H 337.913 -0.454542 -0.580138 0
M  V30 3588 H 340.555 -1.63335 -0.970647 0
M  V30 3589 H 338.705 -1.79265 -3.44669 0
M  V30 3590 H 340.377 -4.06978 -2.17178 0
M  V30 3591 H 338.62 -3.85935 -1.98082 0
M  V30 3592 H 339.291 -4.20341 -3.57796 0
M  V30 3593 H 341.767 -2.27895 -3.48143 0
M  V30 3594 H 340.643 -2.62484 -4.82072 0
M  V30 3595 H 340.904 -0.963082 -4.31482 0
M  V30 3596 N 339.963 1.05934 -1.16686 0
M  V30 3597 C 340.926 2.11669 -0.879144 0
M  V30 3598 C 341.926 1.60294 0.127445 0
M  V30 3599 O 343.116 1.7389 -0.103865 0
M  V30 3600 C 340.248 3.39438 -0.315425 0
M  V30 3601 H 341.441 2.38626 -1.81653 0
M  V30 3602 H 338.994 1.22058 -0.976299 0
M  V30 3603 H 339.729 3.18132 0.629468 0
M  V30 3604 H 339.514 3.78034 -1.04079 0
M  V30 3605 H 341.004 4.17391 -0.132189 0
M  V30 3606 N 341.441 0.965919 1.2453 0
M  V30 3607 C 342.404 0.499547 2.2369 0
M  V30 3608 C 343.404 -0.40294 1.5567 0
M  V30 3609 O 344.594 -0.19865 1.73064 0
M  V30 3610 C 341.726 -0.276792 3.39774 0
M  V30 3611 H 342.919 1.37613 2.66463 0
M  V30 3612 H 340.472 0.750324 1.37112 0
M  V30 3613 H 341.207 -1.17055 3.02438 0
M  V30 3614 H 340.992 0.370826 3.90343 0
M  V30 3615 H 342.482 -0.592175 4.1338 0
M  V30 3616 N 342.919 -1.39368 0.735821 0
M  V30 3617 C 343.849 -2.33234 0.111506 0
M  V30 3618 C 344.83 -1.53954 -0.723334 0
M  V30 3619 O 346.015 -1.82344 -0.668147 0
M  V30 3620 C 343.145 -3.38057 -0.795917 0
M  V30 3621 C 342.099 -4.2795 -0.065172 0
M  V30 3622 C 341.425 -5.23479 -1.08967 0
M  V30 3623 C 342.725 -5.10741 1.09273 0
M  V30 3624 H 344.419 -2.85692 0.895571 0
M  V30 3625 H 341.965 -1.37364 0.432109 0
M  V30 3626 H 343.918 -4.02675 -1.24221 0
M  V30 3627 H 342.642 -2.8404 -1.61211 0
M  V30 3628 H 341.301 -3.64813 0.361511 0
M  V30 3629 H 340.949 -4.65758 -1.89944 0
M  V30 3630 H 340.649 -5.84472 -0.605489 0
M  V30 3631 H 342.173 -5.90974 -1.53565 0
M  V30 3632 H 343.587 -5.68699 0.724841 0
M  V30 3633 H 341.984 -5.8088 1.50659 0
M  V30 3634 H 343.054 -4.45525 1.91404 0
M  V30 3635 N 344.397 -0.483516 -1.5 0
M  V30 3636 C 345.36 0.292965 -2.2732 0
M  V30 3637 C 346.36 0.909499 -1.32608 0
M  V30 3638 O 347.55 0.776745 -1.55924 0
M  V30 3639 C 344.682 1.41854 -3.09984 0
M  V30 3640 H 345.875 -0.385289 -2.97415 0
M  V30 3641 H 343.428 -0.237942 -1.54478 0
M  V30 3642 H 344.163 2.13148 -2.44414 0
M  V30 3643 H 343.948 0.982114 -3.79601 0
M  V30 3644 H 345.438 1.96597 -3.68429 0
M  V30 3645 N 345.875 1.56104 -0.216619 0
M  V30 3646 C 346.825 2.16703 0.708798 0
M  V30 3647 C 347.809 1.11392 1.16106 0
M  V30 3648 O 349.001 1.37395 1.11587 0
M  V30 3649 C 346.13 2.84666 1.91886 0
M  V30 3650 C 345.216 3.97195 1.48651 0
M  V30 3651 N 345.607 4.99959 0.766434 0
M  V30 3652 C 343.905 4.09193 1.77418 0
M  V30 3653 C 344.606 5.79126 0.546659 0
M  V30 3654 N 343.582 5.32315 1.10188 0
M  V30 3655 H 347.384 2.93516 0.150162 0
M  V30 3656 H 344.898 1.6239 -0.0176768 0
M  V30 3657 H 346.895 3.26486 2.59253 0
M  V30 3658 H 345.555 2.09347 2.48202 0
M  V30 3659 H 346.566 5.16197 0.419634 0
M  V30 3660 H 343.243 3.45021 2.35088 0
M  V30 3661 H 344.633 6.71895 -0.026103 0
M  V30 3662 N 347.353 -0.0568162 1.57498 0
M  V30 3663 C 348.303 -1.07315 2.01166 0
M  V30 3664 C 349.287 -1.33632 0.896171 0
M  V30 3665 O 350.479 -1.33682 1.16009 0
M  V30 3666 C 347.608 -2.38257 2.47161 0
M  V30 3667 C 346.694 -2.1515 3.65474 0
M  V30 3668 N 347.085 -1.62014 4.7915 0
M  V30 3669 C 345.383 -2.45559 3.72313 0
M  V30 3670 C 346.084 -1.54069 5.60926 0
M  V30 3671 N 345.06 -2.00652 5.05213 0
M  V30 3672 H 348.862 -0.655878 2.86488 0
M  V30 3673 H 346.376 -0.263635 1.60246 0
M  V30 3674 H 348.373 -3.11845 2.76691 0
M  V30 3675 H 347.033 -2.80687 1.63232 0
M  V30 3676 H 348.044 -1.30667 5.01145 0
M  V30 3677 H 344.721 -2.91253 2.99129 0
M  V30 3678 H 346.111 -1.13712 6.62208 0
M  V30 3679 N 348.832 -1.54138 -0.328536 0
M  V30 3680 C 349.742 -1.86192 -1.42723 0
M  V30 3681 C 350.758 -0.753382 -1.56844 0
M  V30 3682 O 351.934 -1.04718 -1.72035 0
M  V30 3683 C 348.999 -2.07824 -2.77507 0
M  V30 3684 C 348.06 -3.31641 -2.72603 0
M  V30 3685 C 347.293 -3.52232 -4.00959 0
M  V30 3686 O 347.516 -2.7636 -4.9898 0
M  V30 3687 O 346.45 -4.45699 -4.0452 0
M  V30 3688 H 350.276 -2.79608 -1.18547 0
M  V30 3689 H 347.861 -1.3998 -0.522104 0
M  V30 3690 H 349.743 -2.23411 -3.57303 0
M  V30 3691 H 348.418 -1.17596 -3.01584 0
M  V30 3692 H 347.325 -3.21444 -1.91376 0
M  V30 3693 H 348.658 -4.2191 -2.53481 0
M  V30 3694 N 350.31 0.590341 -1.46126 0
M  V30 3695 C 351.558 1.34616 -1.50742 0
M  V30 3696 C 351.879 1.94363 -0.157486 0
M  V30 3697 O 351.149 1.78136 0.815136 0
M  V30 3698 H 349.729 0.499789 -0.555175 0
M  V30 3699 H 352.391 0.691953 -1.82203 0
M  V30 3700 H 351.487 2.15678 -2.25587 0
M  V30 3701 N 351.788 1.33704 0.83433 0
M  V30 3702 C 352.721 1.18675 1.94914 0
M  V30 3703 C 353.699 0.0811145 1.62398 0
M  V30 3704 O 354.883 0.244186 1.86912 0
M  V30 3705 C 352.01 0.821231 3.28593 0
M  V30 3706 C 351.056 1.93501 3.80079 0
M  V30 3707 S 351.889 3.54671 4.01209 0
M  V30 3708 C 353.045 3.20136 5.37833 0
M  V30 3709 H 353.278 2.13043 2.07364 0
M  V30 3710 H 350.811 1.18598 0.988624 0
M  V30 3711 H 352.769 0.617123 4.05835 0
M  V30 3712 H 351.43 -0.103927 3.13928 0
M  V30 3713 H 350.623 1.63273 4.76821 0
M  V30 3714 H 350.225 2.09601 3.09747 0
M  V30 3715 H 352.517 2.71242 6.20833 0
M  V30 3716 H 353.46 4.15975 5.73036 0
M  V30 3717 H 353.868 2.56613 5.02802 0
M  V30 3718 N 353.266 -1.05314 1.17247 0
M  V30 3719 C 354.514 -1.77941 0.958194 0
M  V30 3720 C 354.835 -1.88089 -0.514556 0
M  V30 3721 O 354.105 -1.39676 -1.37359 0
M  V30 3722 H 352.685 -0.659116 0.351533 0
M  V30 3723 H 355.347 -1.27166 1.47699 0
M  V30 3724 H 354.443 -2.79663 1.38546 0
M  V30 3725 N 354.744 -0.972509 -1.24016 0
M  V30 3726 C 355.707 -0.511403 -2.23422 0
M  V30 3727 C 356.707 0.394679 -1.55881 0
M  V30 3728 O 357.897 0.189469 -1.73167 0
M  V30 3729 C 355.029 0.258769 -3.39916 0
M  V30 3730 H 356.222 -1.39024 -2.6573 0
M  V30 3731 H 353.775 -0.757585 -1.36713 0
M  V30 3732 H 354.51 1.1545 -3.03054 0
M  V30 3733 H 354.295 -0.391522 -3.9014 0
M  V30 3734 H 355.785 0.570244 -4.13688 0
M  V30 3735 N 356.222 1.38976 -0.743202 0
M  V30 3736 C 357.638 1.53984 -0.419664 0
M  V30 3737 C 357.838 1.70837 1.0685 0
M  V30 3738 O 356.894 1.7135 1.8546 0
M  V30 3739 C 358.207 2.75287 -1.20985 0
M  V30 3740 C 359.755 2.89129 -1.19889 0
M  V30 3741 C 360.23 4.13381 -1.97181 0
M  V30 3742 N 361.721 4.20437 -1.94389 0
M  V30 3743 C 362.456 5.15547 -2.50996 0
M  V30 3744 N 361.952 6.16395 -3.16274 0
M  V30 3745 N 363.745 5.07822 -2.40984 0
M  V30 3746 H 355.896 1.26285 -1.7078 0
M  V30 3747 H 358.159 0.612689 -0.723406 0
M  V30 3748 H 357.865 2.69204 -2.26323 0
M  V30 3749 H 357.739 3.68184 -0.819759 0
M  V30 3750 H 360.126 2.947 -0.153606 0
M  V30 3751 H 360.207 1.97272 -1.62841 0
M  V30 3752 H 359.851 4.08572 -3.01714 0
M  V30 3753 H 359.781 5.04298 -1.51629 0
M  V30 3754 H 362.272 3.48205 -1.46839 0
M  V30 3755 H 362.585 6.85443 -3.56915 0
M  V30 3756 H 360.93 6.16758 -3.20367 0
M  V30 3757 H 364.121 4.27973 -1.89622 0
M  V30 3758 H 364.294 5.81767 -2.85397 0
M  V30 3759 N 357.7 0.491464 1.49741 0
M  V30 3760 C 358.946 -0.0565092 2.02721 0
M  V30 3761 C 359.279 -1.37522 1.37118 0
M  V30 3762 O 358.554 -1.87866 0.503645 0
M  V30 3763 C 358.837 -0.219051 3.59433 0
M  V30 3764 C 358.69 1.12211 4.35579 0
M  V30 3765 C 360.009 -0.964157 4.29409 0
M  V30 3766 H 357.128 -0.0190627 0.736753 0
M  V30 3767 H 359.77 0.641021 1.7886 0
M  V30 3768 H 357.92 -0.813165 3.79895 0
M  V30 3769 H 359.592 1.75437 4.26637 0
M  V30 3770 H 357.835 1.71377 3.98513 0
M  V30 3771 H 358.506 0.961794 5.43556 0
M  V30 3772 H 360.982 -0.460378 4.13545 0
M  V30 3773 H 359.858 -1.04671 5.38828 0
M  V30 3774 H 360.119 -2.00563 3.93988 0
M  V30 3775 N 359.178 -1.55987 0.224894 0
M  V30 3776 C 360.406 -2.02784 -0.410665 0
M  V30 3777 C 360.821 -1.10464 -1.53112 0
M  V30 3778 O 360.178 -0.114871 -1.82138 0
M  V30 3779 C 360.229 -3.49087 -0.939165 0
M  V30 3780 O 359.95 -4.37887 0.136614 0
M  V30 3781 C 361.451 -4.11543 -1.64763 0
M  V30 3782 H 358.671 -0.663484 -0.100148 0
M  V30 3783 H 361.215 -2.01614 0.342326 0
M  V30 3784 H 359.37 -3.50861 -1.64242 0
M  V30 3785 H 359.784 -5.23849 -0.261155 0
M  V30 3786 H 361.258 -5.15673 -1.96939 0
M  V30 3787 H 361.735 -3.56736 -2.56195 0
M  V30 3788 H 362.341 -4.13629 -0.989503 0
M  V30 3789 N 360.656 0.0484629 -1.57525 0
M  V30 3790 C 361.619 1.03956 -2.04269 0
M  V30 3791 C 362.619 1.30211 -0.943496 0
M  V30 3792 O 363.809 1.25539 -1.20771 0
M  V30 3793 C 360.941 2.37742 -2.44319 0
M  V30 3794 H 362.134 0.636182 -2.93075 0
M  V30 3795 H 359.687 0.294811 -1.53494 0
M  V30 3796 H 360.422 2.82866 -1.5861 0
M  V30 3797 H 360.207 2.20021 -3.24551 0
M  V30 3798 H 361.697 3.08936 -2.80978 0
M  V30 3799 N 362.134 1.5431 0.320358 0
M  V30 3800 C 363.359 1.76954 1.08175 0
M  V30 3801 C 363.784 0.518193 1.80821 0
M  V30 3802 O 363.142 -0.530411 1.73368 0
M  V30 3803 C 363.19 2.96451 2.05303 0
M  V30 3804 O 362.294 2.68221 3.13259 0
M  V30 3805 H 361.635 0.586275 0.311733 0
M  V30 3806 H 364.165 2.01342 0.363676 0
M  V30 3807 H 364.175 3.23887 2.48116 0
M  V30 3808 H 362.85 3.87196 1.51829 0
M  V30 3809 H 361.427 2.51744 2.75099 0
M  V30 3810 N 363.613 -0.582584 1.46437 0
M  V30 3811 C 364.563 -1.68654 1.53426 0
M  V30 3812 C 365.547 -1.55971 0.395194 0
M  V30 3813 O 366.739 -1.64884 0.643612 0
M  V30 3814 C 363.868 -3.07439 1.52762 0
M  V30 3815 C 362.954 -3.25418 2.71963 0
M  V30 3816 N 363.345 -3.13556 3.96883 0
M  V30 3817 C 361.643 -3.56357 2.68189 0
M  V30 3818 C 362.344 -3.33543 4.76575 0
M  V30 3819 N 361.32 -3.58704 4.08451 0
M  V30 3820 H 365.122 -1.58014 2.47808 0
M  V30 3821 H 362.636 -0.786617 1.42078 0
M  V30 3822 H 364.633 -3.86671 1.55857 0
M  V30 3823 H 363.293 -3.1921 0.594573 0
M  V30 3824 H 364.304 -2.9142 4.28129 0
M  V30 3825 H 360.981 -3.74812 1.83908 0
M  V30 3826 H 362.371 -3.29555 5.85528 0
M  V30 3827 N 365.091 -1.34144 -0.827227 0
M  V30 3828 C 366.319 -1.29325 -1.61501 0
M  V30 3829 C 366.734 0.13354 -1.88327 0
M  V30 3830 O 366.091 1.0793 -1.47164 0
M  V30 3831 C 366.142 -2.07746 -2.95844 0
M  V30 3832 O 365.863 -3.4486 -2.70191 0
M  V30 3833 C 367.364 -2.10273 -3.90256 0
M  V30 3834 H 364.584 -0.445069 -0.50215 0
M  V30 3835 H 367.128 -1.76693 -1.02955 0
M  V30 3836 H 365.283 -1.6403 -3.5096 0
M  V30 3837 H 365.697 -3.85345 -3.55822 0
M  V30 3838 H 367.171 -2.69575 -4.81698 0
M  V30 3839 H 367.648 -1.096 -4.25305 0
M  V30 3840 H 368.254 -2.54059 -3.41078 0
M  V30 3841 N 366.569 1.04691 -1.17803 0
M  V30 3842 C 367.797 1.81446 -0.99423 0
M  V30 3843 C 368.212 1.83174 0.457459 0
M  V30 3844 O 367.569 1.26265 1.31771 0
M  V30 3845 C 367.62 3.27334 -1.5341 0
M  V30 3846 O 367.341 3.25798 -2.92895 0
M  V30 3847 C 368.842 4.20759 -1.39559 0
M  V30 3848 H 366.062 0.571599 -0.351447 0
M  V30 3849 H 368.606 1.31982 -1.56208 0
M  V30 3850 H 366.761 3.74052 -1.00815 0
M  V30 3851 H 367.175 4.17144 -3.17949 0
M  V30 3852 H 368.649 5.21084 -1.82141 0
M  V30 3853 H 369.126 4.37856 -0.343394 0
M  V30 3854 H 369.732 3.79901 -1.91195 0
M  V30 3855 N 368.047 0.979072 1.23499 0
M  V30 3856 C 369.01 0.523244 2.23147 0
M  V30 3857 C 370.01 -0.386406 1.56088 0
M  V30 3858 O 371.2 -0.180283 1.73265 0
M  V30 3859 C 368.332 -0.240739 3.40049 0
M  V30 3860 H 369.525 1.40432 2.64989 0
M  V30 3861 H 367.078 0.764824 1.36309 0
M  V30 3862 H 367.813 -1.13841 3.03662 0
M  V30 3863 H 367.598 0.412207 3.89927 0
M  V30 3864 H 369.088 -0.548297 4.13985 0
M  V30 3865 N 369.525 -1.3858 0.750561 0
M  V30 3866 C 370.458 -2.28095 0.0693139 0
M  V30 3867 C 371.436 -1.45217 -0.731491 0
M  V30 3868 O 372.62 -1.74587 -0.71076 0
M  V30 3869 C 369.747 -3.26282 -0.90871 0
M  V30 3870 C 368.793 -4.26056 -0.194507 0
M  V30 3871 S 369.626 -5.24026 1.10257 0
M  V30 3872 C 370.782 -6.2577 0.127542 0
M  V30 3873 H 371.015 -2.85526 0.8284 0
M  V30 3874 H 368.548 -1.44536 0.543014 0
M  V30 3875 H 370.506 -3.83367 -1.46766 0
M  V30 3876 H 369.167 -2.6784 -1.64075 0
M  V30 3877 H 368.36 -4.95249 -0.93512 0
M  V30 3878 H 367.962 -3.72852 0.292837 0
M  V30 3879 H 370.254 -6.73796 -0.707516 0
M  V30 3880 H 371.197 -7.03712 0.787044 0
M  V30 3881 H 371.605 -5.63938 -0.251803 0
M  V30 3882 N 371.003 -0.499398 -1.49478 0
M  V30 3883 C 371.953 0.299103 -2.2603 0
M  V30 3884 C 372.937 0.936934 -1.30807 0
M  V30 3885 O 374.129 0.844798 -1.55538 0
M  V30 3886 C 371.258 1.36391 -3.15044 0
M  V30 3887 C 370.344 0.732398 -4.17728 0
M  V30 3888 N 370.735 -0.164028 -5.05534 0
M  V30 3889 C 369.033 0.993162 -4.34801 0
M  V30 3890 C 369.734 -0.525345 -5.79323 0
M  V30 3891 N 368.71 0.106348 -5.43496 0
M  V30 3892 H 372.512 -0.391003 -2.91287 0
M  V30 3893 H 370.026 -0.31537 -1.59308 0
M  V30 3894 H 372.023 1.94939 -3.68516 0
M  V30 3895 H 370.683 2.05571 -2.51338 0
M  V30 3896 H 371.694 -0.534736 -5.15132 0
M  V30 3897 H 368.371 1.67783 -3.82302 0
M  V30 3898 H 369.761 -1.25862 -6.60006 0
M  V30 3899 N 372.481 1.55866 -0.233164 0
M  V30 3900 C 373.706 2.03449 0.402906 0
M  V30 3901 C 374.131 1.11166 1.51736 0
M  V30 3902 O 373.489 0.101996 1.81013 0
M  V30 3903 C 373.537 3.49165 0.9009 0
M  V30 3904 O 372.641 3.60019 2.01147 0
M  V30 3905 H 371.982 0.657913 0.0897025 0
M  V30 3906 H 374.512 2.01493 -0.355201 0
M  V30 3907 H 374.522 3.89716 1.2077 0
M  V30 3908 H 373.197 4.15813 0.0852889 0
M  V30 3909 H 371.774 3.3136 1.71042 0
M  V30 3910 N 373.959 -0.0401083 1.57549 0
M  V30 3911 C 375.189 -0.744115 1.92734 0
M  V30 3912 C 375.597 -1.70005 0.830348 0
M  V30 3913 O 374.94 -1.82576 -0.20286 0
M  V30 3914 C 375.002 -1.56516 3.2364 0
M  V30 3915 C 374.666 -0.7752 4.50377 0
M  V30 3916 C 375.663 -0.0803326 5.19838 0
M  V30 3917 C 373.348 -0.733002 4.96923 0
M  V30 3918 C 375.342 0.646154 6.34116 0
M  V30 3919 C 373.029 -0.00276321 6.111 0
M  V30 3920 C 374.027 0.685585 6.7955 0
M  V30 3921 O 373.715 1.40399 7.91545 0
M  V30 3922 H 373.447 -0.214861 0.640945 0
M  V30 3923 H 376.001 -0.00503675 2.05399 0
M  V30 3924 H 374.231 -2.3478 3.07271 0
M  V30 3925 H 375.92 -2.15076 3.44234 0
M  V30 3926 H 376.686 -0.104035 4.84888 0
M  V30 3927 H 372.565 -1.25827 4.43496 0
M  V30 3928 H 376.109 1.18398 6.87479 0
M  V30 3929 H 372.006 0.0229012 6.45496 0
M  V30 3930 H 372.774 1.31653 8.07843 0
M  V30 3931 N 375.437 -1.54477 -0.31217 0
M  V30 3932 C 376.385 -1.85395 -1.40469 0
M  V30 3933 C 377.379 -0.726749 -1.53019 0
M  V30 3934 O 378.585 -0.910582 -1.55269 0
M  V30 3935 H 374.96 -0.587845 -0.46898 0
M  V30 3936 H 376.931 -2.76736 -1.11623 0
M  V30 3937 C 375.68 -2.10811 -2.76503 0
M  V30 3938 H 375.003 -2.97014 -2.67625 0
M  V30 3939 H 376.443 -2.3639 -3.51988 0
M  V30 3940 C 374.902 -0.903165 -3.24568 0
M  V30 3941 O 375.432 -0.118085 -4.01526 0
M  V30 3942 N 373.638 -0.711634 -2.81752 0
M  V30 3943 H 373.185 -1.35171 -2.19286 0
M  V30 3944 H 373.143 0.0930473 -3.14262 0
M  V30 3945 N 376.915 0.57481 -1.46744 0
M  V30 3946 C 378.163 1.33009 -1.52161 0
M  V30 3947 C 378.484 1.94185 -0.178092 0
M  V30 3948 O 377.754 1.7899 0.796196 0
M  V30 3949 H 376.334 0.493873 -0.560445 0
M  V30 3950 H 378.996 0.672589 -1.82927 0
M  V30 3951 H 378.092 2.13273 -2.27862 0
M  V30 3952 N 378.394 1.34581 0.820102 0
M  V30 3953 C 379.357 1.2628 1.91275 0
M  V30 3954 C 380.357 0.177344 1.59819 0
M  V30 3955 O 381.547 0.430156 1.68806 0
M  V30 3956 C 378.679 0.950327 3.27386 0
M  V30 3957 H 379.872 2.23421 2.00057 0
M  V30 3958 H 377.425 1.1891 1.0144 0
M  V30 3959 H 378.16 -0.0177938 3.24295 0
M  V30 3960 H 377.945 1.73549 3.51601 0
M  V30 3961 H 379.435 0.917492 4.07396 0
M  V30 3962 N 379.872 -1.04064 1.18357 0
M  V30 3963 C 381.102 -1.80654 1.00238 0
M  V30 3964 C 381.51 -1.83713 -0.452362 0
M  V30 3965 O 380.853 -1.27135 -1.32599 0
M  V30 3966 C 380.915 -3.27582 1.48088 0
M  V30 3967 C 380.579 -3.48184 2.96002 0
M  V30 3968 C 381.576 -3.39372 3.93856 0
M  V30 3969 C 379.261 -3.7478 3.34433 0
M  V30 3970 C 381.255 -3.5686 5.28138 0
M  V30 3971 C 378.942 -3.91915 4.68877 0
M  V30 3972 C 379.94 -3.82956 5.65539 0
M  V30 3973 O 379.628 -3.996 6.97549 0
M  V30 3974 H 379.36 -0.575751 0.354241 0
M  V30 3975 H 381.914 -1.32044 1.57333 0
M  V30 3976 H 380.144 -3.77161 0.853588 0
M  V30 3977 H 381.833 -3.8573 1.2636 0
M  V30 3978 H 382.599 -3.18789 3.65511 0
M  V30 3979 H 378.478 -3.80852 2.59756 0
M  V30 3980 H 382.022 -3.49783 6.03571 0
M  V30 3981 H 377.919 -4.11992 4.96923 0
M  V30 3982 H 378.687 -4.1676 7.04452 0
M  V30 3983 N 381.35 -0.985608 -1.22978 0
M  V30 3984 C 382.578 -0.675582 -1.95559 0
M  V30 3985 C 382.993 0.758413 -1.72897 0
M  V30 3986 O 382.35 1.51094 -1.02357 0
M  V30 3987 C 382.401 -0.96293 -3.48439 0
M  V30 3988 O 382.122 -2.34057 -3.70336 0
M  V30 3989 C 383.623 -0.669585 -4.38214 0
M  V30 3990 H 380.843 -0.250523 -0.622478 0
M  V30 3991 H 383.387 -1.3184 -1.56328 0
M  V30 3992 H 381.542 -0.366033 -3.85667 0
M  V30 3993 H 381.956 -2.43424 -4.64591 0
M  V30 3994 H 383.43 -0.920967 -5.44263 0
M  V30 3995 H 383.907 0.396383 -4.37408 0
M  V30 3996 H 384.513 -1.2472 -4.06602 0
M  V30 3997 N 382.828 1.3818 -0.7579 0
M  V30 3998 C 384.053 2.04827 -0.325679 0
M  V30 3999 C 384.478 1.56788 1.03919 0
M  V30 4000 O 383.836 0.721811 1.66312 0
M  V30 4001 C 383.884 3.58774 -0.362447 0
M  V30 4002 O 382.988 4.07372 0.642033 0
M  V30 4003 H 382.329 0.64833 -0.143402 0
M  V30 4004 H 384.859 1.7677 -1.03023 0
M  V30 4005 H 384.869 4.07434 -0.214844 0
M  V30 4006 H 383.544 3.93096 -1.35824 0
M  V30 4007 H 382.121 3.70068 0.458688 0
M  V30 4008 N 384.306 0.507319 1.49211 0
M  V30 4009 C 385.722 0.163682 1.58758 0
M  V30 4010 C 385.922 -1.33208 1.51188 0
M  V30 4011 O 384.978 -2.10855 1.38911 0
M  V30 4012 C 386.291 0.746095 2.91297 0
M  V30 4013 C 387.839 0.712773 3.04776 0
M  V30 4014 C 388.314 1.27336 4.39943 0
M  V30 4015 N 389.805 1.23433 4.46451 0
M  V30 4016 C 390.54 1.63821 5.495 0
M  V30 4017 N 390.036 2.11832 6.5962 0
M  V30 4018 N 391.829 1.55198 5.4025 0
M  V30 4019 H 383.98 1.47972 1.52375 0
M  V30 4020 H 386.243 0.614147 0.722168 0
M  V30 4021 H 385.949 1.79534 3.02424 0
M  V30 4022 H 385.823 0.210137 3.76614 0
M  V30 4023 H 388.21 -0.327656 2.93275 0
M  V30 4024 H 388.291 1.28595 2.21127 0
M  V30 4025 H 387.935 2.3126 4.52196 0
M  V30 4026 H 387.865 0.676066 5.22242 0
M  V30 4027 H 390.356 0.882627 3.67448 0
M  V30 4028 H 390.669 2.40703 7.34358 0
M  V30 4029 H 389.014 2.1581 6.60644 0
M  V30 4030 H 392.205 1.17505 4.53112 0
M  V30 4031 H 392.378 1.86997 6.20432 0
M  V30 4032 N 385.784 -1.5574 0.241426 0
M  V30 4033 C 386.714 -2.24133 -0.654722 0
M  V30 4034 C 387.695 -1.21974 -1.1856 0
M  V30 4035 O 388.88 -1.50612 -1.22595 0
M  V30 4036 C 386.01 -2.93659 -1.85423 0
M  V30 4037 C 384.964 -4.0246 -1.45636 0
M  V30 4038 C 384.29 -4.59383 -2.73626 0
M  V30 4039 C 385.59 -5.18468 -0.631506 0
M  V30 4040 H 387.284 -2.99281 -0.0844353 0
M  V30 4041 H 384.83 -1.43947 -0.0391707 0
M  V30 4042 H 386.783 -3.40203 -2.48676 0
M  V30 4043 H 385.507 -2.15991 -2.44981 0
M  V30 4044 H 384.166 -3.56676 -0.847202 0
M  V30 4045 H 383.814 -3.78422 -3.3137 0
M  V30 4046 H 383.514 -5.32826 -2.4773 0
M  V30 4047 H 385.038 -5.08658 -3.37786 0
M  V30 4048 H 386.452 -5.61272 -1.1682 0
M  V30 4049 H 384.849 -5.98266 -0.468831 0
M  V30 4050 H 385.919 -4.8358 0.357506 0
M  V30 4051 N 387.262 0.0317525 -1.57568 0
M  V30 4052 C 388.509 0.723104 -1.89149 0
M  V30 4053 C 388.837 1.75504 -0.838377 0
M  V30 4054 O 388.092 1.95037 0.160982 0
M  V30 4055 C 388.391 1.43167 -3.27472 0
M  V30 4056 C 388.057 0.535972 -4.47703 0
M  V30 4057 C 386.719 0.289262 -4.8033 0
M  V30 4058 C 389.071 -0.0826125 -5.21135 0
M  V30 4059 C 386.399 -0.584853 -5.83778 0
M  V30 4060 C 388.751 -0.944414 -6.25511 0
M  V30 4061 C 387.415 -1.20061 -6.56614 0
M  V30 4062 H 386.685 0.264602 -0.692146 0
M  V30 4063 H 389.332 -0.0169496 -1.91492 0
M  V30 4064 H 387.637 2.24497 -3.21105 0
M  V30 4065 H 389.334 1.97209 -3.49155 0
M  V30 4066 H 385.924 0.738414 -4.22191 0
M  V30 4067 H 390.108 0.0950302 -4.96209 0
M  V30 4068 H 385.364 -0.79168 -6.06253 0
M  V30 4069 H 389.538 -1.43026 -6.81554 0
M  V30 4070 H 387.165 -1.87967 -7.36595 0
M  V30 4071 N 388.74 1.54641 0.303973 0
M  V30 4072 C 390.156 1.45788 0.649463 0
M  V30 4073 C 390.356 0.64666 1.90842 0
M  V30 4074 O 389.412 0.153183 2.52035 0
M  V30 4075 C 390.725 2.89718 0.805227 0
M  V30 4076 C 392.273 2.99742 0.901305 0
M  V30 4077 C 392.748 4.44863 1.08909 0
M  V30 4078 N 394.239 4.48559 1.15536 0
M  V30 4079 C 394.974 5.58026 1.3189 0
M  V30 4080 N 394.47 6.77422 1.45161 0
M  V30 4081 N 396.263 5.45708 1.34755 0
M  V30 4082 H 388.414 2.05854 -0.523237 0
M  V30 4083 H 390.677 0.932186 -0.172431 0
M  V30 4084 H 390.383 3.51666 -0.0489108 0
M  V30 4085 H 390.257 3.36964 1.69513 0
M  V30 4086 H 392.644 2.3791 1.74593 0
M  V30 4087 H 392.725 2.55797 -0.0125531 0
M  V30 4088 H 392.369 5.07288 0.249241 0
M  V30 4089 H 392.299 4.86436 2.01713 0
M  V30 4090 H 394.79 3.6254 1.06646 0
M  V30 4091 H 395.103 7.56604 1.57387 0
M  V30 4092 H 393.448 6.80292 1.42223 0
M  V30 4093 H 396.639 4.51378 1.23996 0
M  V30 4094 H 396.812 6.3107 1.47157 0
M  V30 4095 N 390.218 -0.567019 1.47046 0
M  V30 4096 C 391.148 -1.68482 1.61667 0
M  V30 4097 C 392.129 -1.6358 0.466418 0
M  V30 4098 O 393.314 -1.81354 0.694574 0
M  V30 4099 C 390.444 -3.07124 1.62148 0
M  V30 4100 C 389.398 -3.26867 2.76301 0
M  V30 4101 C 388.724 -4.66196 2.61849 0
M  V30 4102 C 390.024 -3.13186 4.17986 0
M  V30 4103 H 391.718 -1.56502 2.5524 0
M  V30 4104 H 389.264 -0.751486 1.22836 0
M  V30 4105 H 391.217 -3.8516 1.70968 0
M  V30 4106 H 389.941 -3.2004 0.651287 0
M  V30 4107 H 388.6 -2.51237 2.66975 0
M  V30 4108 H 388.248 -4.75898 1.62879 0
M  V30 4109 H 387.948 -4.80356 3.38425 0
M  V30 4110 H 389.472 -5.46379 2.72584 0
M  V30 4111 H 390.886 -3.81049 4.2834 0
M  V30 4112 H 389.283 -3.3886 4.95272 0
M  V30 4113 H 390.353 -2.10057 4.3704 0
M  V30 4114 N 391.696 -1.35014 -0.812953 0
M  V30 4115 C 392.626 -1.30069 -1.93919 0
M  V30 4116 C 393.607 -0.176275 -1.69184 0
M  V30 4117 O 394.792 -0.370227 -1.90638 0
M  V30 4118 C 391.922 -1.06547 -3.30552 0
M  V30 4119 C 390.876 -2.15561 -3.69753 0
M  V30 4120 C 390.202 -1.77214 -5.04479 0
M  V30 4121 C 391.502 -3.57476 -3.808 0
M  V30 4122 H 393.196 -2.24303 -1.98314 0
M  V30 4123 H 390.742 -1.07977 -0.952736 0
M  V30 4124 H 392.695 -1.01729 -4.08937 0
M  V30 4125 H 391.419 -0.0875719 -3.26483 0
M  V30 4126 H 390.078 -2.19466 -2.9365 0
M  V30 4127 H 389.726 -0.780589 -4.96906 0
M  V30 4128 H 389.426 -2.50184 -5.31678 0
M  V30 4129 H 390.95 -1.7391 -5.8531 0
M  V30 4130 H 392.364 -3.55929 -4.4943 0
M  V30 4131 H 390.761 -4.29152 -4.19462 0
M  V30 4132 H 391.831 -3.94091 -2.82525 0
M  V30 4133 N 393.175 1.03435 -1.18907 0
M  V30 4134 C 394.122 2.11591 -0.921837 0
M  V30 4135 C 395.092 1.65499 0.141226 0
M  V30 4136 O 396.277 1.908 0.000242829 0
M  V30 4137 C 393.417 3.42012 -0.460616 0
M  V30 4138 C 392.53 4.01682 -1.58982 0
M  V30 4139 C 391.665 5.20091 -1.08069 0
M  V30 4140 C 390.704 5.71805 -2.18416 0
M  V30 4141 N 389.841 6.81494 -1.68849 0
M  V30 4142 H 394.681 2.33787 -1.8479 0
M  V30 4143 H 392.218 1.1467 -0.921373 0
M  V30 4144 H 394.176 4.16834 -0.174642 0
M  V30 4145 H 392.806 3.19944 0.428467 0
M  V30 4146 H 391.858 3.24127 -1.99113 0
M  V30 4147 H 393.17 4.36084 -2.4214 0
M  V30 4148 H 392.324 6.02051 -0.749615 0
M  V30 4149 H 391.063 4.87209 -0.218771 0
M  V30 4150 H 390.068 4.88461 -2.5236 0
M  V30 4151 H 391.293 6.06728 -3.05054 0
M  V30 4152 H 389.239 6.50475 -0.849572 0
M  V30 4153 H 389.156 7.14994 -2.45601 0
M  V30 4154 H 390.424 7.67063 -1.38689 0
M  V30 4155 N 394.653 0.992116 1.22453 0
M  V30 4156 C 395.586 0.486701 2.22949 0
M  V30 4157 C 396.564 -0.45259 1.56174 0
M  V30 4158 O 397.748 -0.378317 1.84665 0
M  V30 4159 C 394.875 -0.294537 3.37417 0
M  V30 4160 C 393.921 0.590628 4.22391 0
M  V30 4161 S 394.754 2.04546 4.94895 0
M  V30 4162 C 395.91 1.27369 6.12803 0
M  V30 4163 H 396.143 1.33828 2.65475 0
M  V30 4164 H 393.676 0.799023 1.32117 0
M  V30 4165 H 395.634 -0.739241 4.03789 0
M  V30 4166 H 394.295 -1.12139 2.934 0
M  V30 4167 H 393.488 -0.0104375 5.03999 0
M  V30 4168 H 393.09 0.972064 3.61147 0
M  V30 4169 H 395.382 0.540943 6.75337 0
M  V30 4170 H 396.325 2.06502 6.7732 0
M  V30 4171 H 396.733 0.787324 5.58983 0
M  V30 4172 N 396.131 -1.37776 0.765217 0
M  V30 4173 C 397.356 -2.04651 0.336537 0
M  V30 4174 C 397.781 -1.57337 -1.03086 0
M  V30 4175 O 397.139 -0.730621 -1.65927 0
M  V30 4176 C 397.187 -3.58577 0.381468 0
M  V30 4177 O 396.291 -4.07706 -0.62042 0
M  V30 4178 H 395.632 -0.64756 0.146838 0
M  V30 4179 H 398.162 -1.76221 1.03959 0
M  V30 4180 H 398.172 -4.07314 0.236448 0
M  V30 4181 H 396.847 -3.9237 1.37907 0
M  V30 4182 H 395.424 -3.70306 -0.439056 0
M  V30 4183 N 397.609 -0.515225 -1.4894 0
M  V30 4184 C 398.857 0.0241671 -2.02086 0
M  V30 4185 C 399.178 1.3616 -1.3959 0
M  V30 4186 O 398.448 1.87841 -0.556121 0
M  V30 4187 H 397.028 0.0119203 -0.746905 0
M  V30 4188 H 399.69 -0.675702 -1.82812 0
M  V30 4189 H 398.786 0.143385 -3.1177 0
M  V30 4190 N 399.087 1.5561 -0.249682 0
M  V30 4191 C 400.336 1.98187 0.37479 0
M  V30 4192 C 400.649 1.14111 1.58865 0
M  V30 4193 O 401.855 1.46714 2.28445 0
M  V30 4194 C 400.311 3.52661 0.718192 0
M  V30 4195 C 399.919 4.45481 -0.474428 0
M  V30 4196 C 401.663 4.03888 1.3067 0
M  V30 4197 C 399.57 5.91303 -0.107026 0
M  V30 4198 H 398.5 0.740159 0.143808 0
M  V30 4199 H 401.151 1.80125 -0.350336 0
M  V30 4200 H 399.533 3.66429 1.50152 0
M  V30 4201 H 400.707 4.43473 -1.25172 0
M  V30 4202 H 399.022 4.04751 -0.978052 0
M  V30 4203 H 401.619 5.10358 1.59496 0
M  V30 4204 H 401.962 3.51401 2.23211 0
M  V30 4205 H 402.495 3.93457 0.586211 0
M  V30 4206 H 399.234 6.47833 -0.999642 0
M  V30 4207 H 398.754 5.9644 0.634013 0
M  V30 4208 H 400.433 6.46258 0.309807 0
M  V30 4209 N 400.565 -0.0233959 1.57583 0
M  V30 4210 C 401.513 -1.04063 2.08023 0
M  V30 4211 C 402.507 -1.37084 0.995204 0
M  V30 4212 O 403.713 -1.35923 1.18004 0
M  V30 4213 H 400.088 -0.353144 0.663922 0
M  V30 4214 H 402.059 -0.589453 2.9252 0
M  V30 4215 C 400.808 -2.33123 2.57971 0
M  V30 4216 H 400.131 -2.08577 3.4108 0
M  V30 4217 H 401.571 -3.02632 2.96967 0
M  V30 4218 C 400.03 -3.02483 1.48342 0
M  V30 4219 O 400.56 -3.92541 0.852898 0
M  V30 4220 N 398.766 -2.63909 1.21658 0
M  V30 4221 H 398.313 -1.90758 1.73116 0
M  V30 4222 H 398.271 -3.10633 0.485218 0
M  V30 4223 N 402.043 -1.548 -0.295768 0
M  V30 4224 C 403.29 -1.74329 -1.03032 0
M  V30 4225 C 403.618 -0.531915 -1.87085 0
M  V30 4226 O 402.873 0.486052 -1.89568 0
M  V30 4227 C 403.172 -2.98797 -1.961 0
M  V30 4228 C 402.838 -4.32356 -1.2798 0
M  V30 4229 C 401.5 -4.68661 -1.09135 0
M  V30 4230 C 403.852 -5.15128 -0.793243 0
M  V30 4231 C 401.18 -5.85312 -0.403269 0
M  V30 4232 C 403.532 -6.32488 -0.118854 0
M  V30 4233 C 402.196 -6.6745 0.0815043 0
M  V30 4234 H 401.466 -0.637916 -0.37702 0
M  V30 4235 H 404.113 -1.8906 -0.304696 0
M  V30 4236 H 402.418 -2.78869 -2.75207 0
M  V30 4237 H 404.115 -3.11102 -2.53015 0
M  V30 4238 H 400.705 -4.03808 -1.43655 0
M  V30 4239 H 404.889 -4.87575 -0.92653 0
M  V30 4240 H 400.145 -6.1094 -0.237098 0
M  V30 4241 H 404.319 -6.95892 0.266035 0
M  V30 4242 H 401.946 -7.57695 0.616685 0
M  V30 4243 N 403.521 0.559213 -1.47345 0
M  V30 4244 C 404.767 1.31843 -1.54095 0
M  V30 4245 C 405.1 1.93149 -0.201726 0
M  V30 4246 O 404.375 1.77759 0.789428 0
M  V30 4247 C 404.658 2.43006 -2.65744 0
M  V30 4248 C 404.511 1.86581 -4.09277 0
M  V30 4249 C 405.83 3.44943 -2.73318 0
M  V30 4250 H 402.949 0.478012 -0.560957 0
M  V30 4251 H 405.591 0.625977 -1.79392 0
M  V30 4252 H 403.741 3.02072 -2.44305 0
M  V30 4253 H 405.413 1.31792 -4.42073 0
M  V30 4254 H 403.656 1.17268 -4.17649 0
M  V30 4255 H 404.327 2.66933 -4.83168 0
M  V30 4256 H 406.803 2.95793 -2.92653 0
M  V30 4257 H 405.679 4.20153 -3.53218 0
M  V30 4258 H 405.94 4.03665 -1.80296 0
M  V30 4259 N 404.999 1.35443 0.805782 0
M  V30 4260 C 405.962 1.28301 1.89925 0
M  V30 4261 C 406.962 0.194285 1.59622 0
M  V30 4262 O 408.152 0.448036 1.6834 0
M  V30 4263 C 405.284 0.984997 3.2636 0
M  V30 4264 H 406.477 2.2553 1.97677 0
M  V30 4265 H 404.03 1.19979 1.00173 0
M  V30 4266 H 404.765 0.016603 3.24296 0
M  V30 4267 H 404.55 1.77269 3.4974 0
M  V30 4268 H 406.04 0.960651 4.064 0
M  V30 4269 N 406.477 -1.02803 1.19454 0
M  V30 4270 C 407.425 -2.13213 0.929673 0
M  V30 4271 C 408.419 -1.69011 -0.114806 0
M  V30 4272 O 409.625 -1.79967 0.0345147 0
M  V30 4273 H 406 -0.69662 0.28324 0
M  V30 4274 H 407.971 -2.32744 1.86743 0
M  V30 4275 C 406.72 -3.4429 0.485797 0
M  V30 4276 H 406.043 -3.7872 1.28105 0
M  V30 4277 H 407.483 -4.22638 0.339582 0
M  V30 4278 C 405.942 -3.27258 -0.800244 0
M  V30 4279 O 406.472 -3.55967 -1.86146 0
M  V30 4280 N 404.678 -2.80545 -0.75781 0
M  V30 4281 H 404.225 -2.57382 0.106039 0
M  V30 4282 H 404.183 -2.6953 -1.61867 0
M  V30 4283 N 407.956 -0.998596 -1.21925 0
M  V30 4284 C 409.367 -0.711939 -1.72593 0
M  V30 4285 C 409.718 0.770842 -1.80423 0
M  V30 4286 O 408.843 1.60237 -1.4544 0
M  V30 4287 C 409.438 -1.28567 -3.13458 0
M  V30 4288 C 407.997 -1.04828 -3.61508 0
M  V30 4289 C 407.144 -1.4024 -2.39224 0
M  V30 4290 H 410.095 -1.17027 -1.07193 0
M  V30 4291 H 410.116 -0.667098 -3.74607 0
M  V30 4292 H 409.628 -2.36486 -3.07727 0
M  V30 4293 H 407.729 0.0140383 -3.72597 0
M  V30 4294 H 407.842 -1.71566 -4.47328 0
M  V30 4295 H 406.206 -0.821077 -2.41103 0
M  V30 4296 H 406.989 -2.49176 -2.36149 0
M  V30 4297 N 409.434 1.37368 -0.772513 0
M  V30 4298 C 410.364 2.32856 -0.173304 0
M  V30 4299 C 411.345 1.55818 0.682262 0
M  V30 4300 O 412.53 1.84052 0.619566 0
M  V30 4301 C 409.66 3.40048 0.706007 0
M  V30 4302 C 408.614 4.27973 -0.0483144 0
M  V30 4303 C 407.94 5.26184 0.950491 0
M  V30 4304 C 409.24 5.07665 -1.22776 0
M  V30 4305 H 410.934 2.83217 -0.971002 0
M  V30 4306 H 408.48 1.3617 -0.468377 0
M  V30 4307 H 410.433 4.05827 1.13501 0
M  V30 4308 H 409.157 2.88214 1.53623 0
M  V30 4309 H 407.816 3.63726 -0.458107 0
M  V30 4310 H 407.464 4.7063 1.77529 0
M  V30 4311 H 407.164 5.85872 0.450314 0
M  V30 4312 H 408.688 5.94838 1.37842 0
M  V30 4313 H 410.102 5.66578 -0.875366 0
M  V30 4314 H 408.499 5.76681 -1.66007 0
M  V30 4315 H 409.569 4.40294 -2.03149 0
M  V30 4316 N 410.912 0.523116 1.48665 0
M  V30 4317 C 412.158 -0.0134963 2.02796 0
M  V30 4318 C 412.491 -1.34582 1.40004 0
M  V30 4319 O 411.766 -1.86756 0.543381 0
M  V30 4320 C 412.049 -0.14276 3.59817 0
M  V30 4321 C 411.902 1.21425 4.331 0
M  V30 4322 C 413.221 -0.872856 4.31357 0
M  V30 4323 H 410.34 -0.00343074 0.736992 0
M  V30 4324 H 412.982 0.678816 1.7746 0
M  V30 4325 H 411.132 -0.732401 3.81534 0
M  V30 4326 H 412.804 1.84447 4.2282 0
M  V30 4327 H 411.047 1.79791 3.94788 0
M  V30 4328 H 411.718 1.07687 5.41394 0
M  V30 4329 H 414.194 -0.372555 4.14429 0
M  V30 4330 H 413.07 -0.932185 5.40927 0
M  V30 4331 H 413.331 -1.92161 3.98154 0
M  V30 4332 N 412.39 -1.55475 0.257931 0
M  V30 4333 C 413.338 -2.23244 -0.653076 0
M  V30 4334 C 414.332 -1.22366 -1.17144 0
M  V30 4335 O 415.538 -1.40347 -1.12706 0
M  V30 4336 H 411.913 -0.716247 -0.229117 0
M  V30 4337 H 413.884 -2.98343 -0.0584788 0
M  V30 4338 C 412.633 -2.95401 -1.83395 0
M  V30 4339 H 411.956 -3.72802 -1.44424 0
M  V30 4340 H 413.396 -3.46165 -2.44838 0
M  V30 4341 C 411.855 -1.99895 -2.71189 0
M  V30 4342 O 412.385 -1.53909 -3.71046 0
M  V30 4343 N 410.591 -1.6676 -2.3799 0
M  V30 4344 H 410.138 -2.04352 -1.56837 0
M  V30 4345 H 410.096 -1.03127 -2.97005 0
M  V30 4346 N 413.868 0.0150385 -1.57593 0
M  V30 4347 C 415.117 0.702115 -1.89085 0
M  V30 4348 C 415.43 1.75764 -0.858277 0
M  V30 4349 O 416.636 2.49829 -1.0629 0
M  V30 4350 C 415.092 1.29992 -3.35604 0
M  V30 4351 C 414.7 0.280007 -4.47124 0
M  V30 4352 C 416.444 1.96606 -3.76227 0
M  V30 4353 C 414.351 0.886949 -5.84711 0
M  V30 4354 H 413.281 0.265997 -0.705522 0
M  V30 4355 H 415.932 -0.0430408 -1.8345 0
M  V30 4356 H 414.314 2.09525 -3.36029 0
M  V30 4357 H 415.488 -0.489631 -4.58191 0
M  V30 4358 H 413.803 -0.284835 -4.15425 0
M  V30 4359 H 416.4 2.42893 -4.76347 0
M  V30 4360 H 416.743 2.79024 -3.08952 0
M  V30 4361 H 417.276 1.23828 -3.78036 0
M  V30 4362 H 414.015 0.101876 -6.55421 0
M  V30 4363 H 413.535 1.6261 -5.77337 0
M  V30 4364 H 415.214 1.39011 -6.3189 0
M  V30 4365 N 415.346 1.54954 0.287554 0
M  V30 4366 C 416.296 1.8322 1.357 0
M  V30 4367 C 417.28 0.690152 1.45347 0
M  V30 4368 O 418.472 0.951137 1.49273 0
M  V30 4369 C 415.601 2.09481 2.71979 0
M  V30 4370 C 414.687 3.29906 2.66502 0
M  V30 4371 N 415.078 4.50154 2.30641 0
M  V30 4372 C 413.376 3.32203 2.97585 0
M  V30 4373 C 414.077 5.32209 2.34794 0
M  V30 4374 N 413.053 4.70258 2.72688 0
M  V30 4375 H 416.855 2.73746 1.0696 0
M  V30 4376 H 414.369 1.54635 0.496167 0
M  V30 4377 H 416.366 2.27882 3.49107 0
M  V30 4378 H 415.026 1.2023 3.0162 0
M  V30 4379 H 416.037 4.76515 2.02865 0
M  V30 4380 H 412.714 2.53101 3.32034 0
M  V30 4381 H 414.104 6.38321 2.09753 0
M  V30 4382 N 416.824 -0.551391 1.4764 0
M  V30 4383 C 417.754 -1.66757 1.63445 0
M  V30 4384 C 418.735 -1.63077 0.483742 0
M  V30 4385 O 419.92 -1.80607 0.71377 0
M  V30 4386 C 417.05 -3.05387 1.65396 0
M  V30 4387 C 416.004 -3.23918 2.79752 0
M  V30 4388 C 415.33 -4.63393 2.66779 0
M  V30 4389 C 416.63 -3.08735 4.21284 0
M  V30 4390 H 418.324 -1.53786 2.56886 0
M  V30 4391 H 415.87 -0.738415 1.23626 0
M  V30 4392 H 417.823 -3.83325 1.75043 0
M  V30 4393 H 416.547 -3.19332 0.685195 0
M  V30 4394 H 415.206 -2.48391 2.69625 0
M  V30 4395 H 414.854 -4.74144 1.67918 0
M  V30 4396 H 414.554 -4.7674 3.43501 0
M  V30 4397 H 416.078 -5.43458 2.78364 0
M  V30 4398 H 417.492 -3.76484 4.32357 0
M  V30 4399 H 415.889 -3.33588 4.98838 0
M  V30 4400 H 416.959 -2.0541 4.39243 0
M  V30 4401 N 418.302 -1.35869 -0.798587 0
M  V30 4402 C 419.234 -1.25305 -1.91915 0
M  V30 4403 C 420.247 -0.174548 -1.61862 0
M  V30 4404 O 421.436 -0.428499 -1.73281 0
M  V30 4405 C 418.536 -0.9086 -3.26493 0
M  V30 4406 C 417.709 -2.08711 -3.84394 0
M  V30 4407 C 416.768 -1.71717 -4.97393 0
M  V30 4408 O 415.794 -2.43692 -5.14396 0
M  V30 4409 N 416.996 -0.645473 -5.769 0
M  V30 4410 H 419.761 -2.21849 -2.01502 0
M  V30 4411 H 417.322 -1.29143 -0.976408 0
M  V30 4412 H 419.314 -0.642455 -3.99568 0
M  V30 4413 H 417.884 -0.0325815 -3.12583 0
M  V30 4414 H 417.104 -2.51659 -3.03416 0
M  V30 4415 H 418.392 -2.87468 -4.19809 0
M  V30 4416 H 417.79 -0.047648 -5.6568 0
M  V30 4417 H 416.347 -0.43913 -6.50319 0
M  V30 4418 N 419.78 1.02168 -1.19998 0
M  V30 4419 C 421.028 1.75338 -1.00504 0
M  V30 4420 C 421.349 1.89387 0.464506 0
M  V30 4421 O 420.619 1.43268 1.33608 0
M  V30 4422 H 419.199 0.649564 -0.368885 0
M  V30 4423 H 421.861 1.23205 -1.51018 0
M  V30 4424 H 420.957 2.75892 -1.45912 0
M  V30 4425 N 421.258 1.00505 1.21394 0
M  V30 4426 C 422.674 0.717873 1.42544 0
M  V30 4427 C 422.874 -0.706936 1.88692 0
M  V30 4428 O 421.93 -1.47627 2.04847 0
M  V30 4429 C 423.243 1.73377 2.45684 0
M  V30 4430 C 424.791 1.75059 2.59467 0
M  V30 4431 C 425.266 2.75545 3.6584 0
M  V30 4432 N 426.757 2.74213 3.73311 0
M  V30 4433 C 427.492 3.48626 4.55245 0
M  V30 4434 N 426.988 4.32678 5.41075 0
M  V30 4435 N 428.781 3.37276 4.49668 0
M  V30 4436 H 420.932 1.92506 0.897503 0
M  V30 4437 H 423.195 0.830919 0.456375 0
M  V30 4438 H 422.901 2.75395 2.18748 0
M  V30 4439 H 422.775 1.53647 3.44489 0
M  V30 4440 H 425.162 0.737337 2.8574 0
M  V30 4441 H 425.243 1.98861 1.60897 0
M  V30 4442 H 424.887 3.77028 3.40313 0
M  V30 4443 H 424.817 2.49009 4.64007 0
M  V30 4444 H 427.308 2.13234 3.11993 0
M  V30 4445 H 427.621 4.86253 6.00648 0
M  V30 4446 H 425.966 4.3676 5.40616 0
M  V30 4447 H 429.157 2.71043 3.81646 0
M  V30 4448 H 429.33 3.95524 5.13288 0
M  V30 4449 N 422.737 -1.36956 0.779787 0
M  V30 4450 C 423.984 -1.99491 0.347766 0
M  V30 4451 C 424.312 -1.61898 -1.07793 0
M  V30 4452 O 423.567 -0.86071 -1.75756 0
M  V30 4453 C 423.866 -3.54585 0.447686 0
M  V30 4454 C 423.532 -4.1197 1.83279 0
M  V30 4455 C 422.194 -4.27356 2.2118 0
M  V30 4456 C 424.546 -4.43354 2.74019 0
M  V30 4457 C 421.874 -4.71432 3.4924 0
M  V30 4458 C 424.226 -4.88858 4.01497 0
M  V30 4459 C 422.89 -5.0245 4.39432 0
M  V30 4460 H 422.16 -0.729991 0.127257 0
M  V30 4461 H 424.807 -1.63599 0.995376 0
M  V30 4462 H 423.112 -3.90773 -0.283447 0
M  V30 4463 H 424.809 -4.00888 0.0945948 0
M  V30 4464 H 421.399 -4.00428 1.52825 0
M  V30 4465 H 425.583 -4.31045 2.45995 0
M  V30 4466 H 420.839 -4.80141 3.78516 0
M  V30 4467 H 425.013 -5.12108 4.71931 0
M  V30 4468 H 422.64 -5.36362 5.38721 0
M  V30 4469 N 424.215 -0.530993 -1.48385 0
M  V30 4470 C 425.492 0.0671788 -1.95485 0
M  V30 4471 C 425.872 1.51191 -1.47324 0
M  V30 4472 O 425.22 2.17507 -0.700202 0
M  V30 4473 C 425.43 -0.0511206 -3.48963 0
M  V30 4474 C 426.778 0.107632 -4.24464 0
M  V30 4475 O 427.802 0.0226248 -3.56193 0
M  V30 4476 O 426.661 0.285972 -5.45751 0
M  V30 4477 H 423.755 0.0787365 -0.823243 0
M  V30 4478 H 426.301 -0.595662 -1.58902 0
M  V30 4479 H 425.073 -1.05747 -3.7674 0
M  V30 4480 H 424.696 0.650525 -3.92242 0
M  V30 4481 N 425.693 1.55336 -0.266172 0
M  V30 4482 C 426.921 2.03801 0.356756 0
M  V30 4483 C 427.336 1.14485 1.50129 0
M  V30 4484 O 426.693 0.163121 1.8177 0
M  V30 4485 C 426.744 3.51455 0.846281 0
M  V30 4486 O 426.465 4.37371 -0.252663 0
M  V30 4487 C 427.966 4.15767 1.53794 0
M  V30 4488 H 425.186 0.665906 0.0825218 0
M  V30 4489 H 427.73 2.00636 -0.39566 0
M  V30 4490 H 425.885 3.55092 1.54881 0
M  V30 4491 H 426.299 5.24358 0.122173 0
M  V30 4492 H 427.773 5.20714 1.83198 0
M  V30 4493 H 428.25 3.63404 2.46646 0
M  V30 4494 H 428.856 4.16107 0.879488 0
M  V30 4495 N 427.171 -0.0066808 1.57599 0
M  V30 4496 C 428.401 -0.703066 1.94269 0
M  V30 4497 C 428.809 -1.68206 0.866222 0
M  V30 4498 O 428.152 -1.82966 -0.164087 0
M  V30 4499 C 428.214 -1.49616 3.26887 0
M  V30 4500 C 427.878 -0.679494 4.5192 0
M  V30 4501 C 428.875 0.0299508 5.19891 0
M  V30 4502 C 426.56 -0.627433 4.98366 0
M  V30 4503 C 428.554 0.780514 6.32603 0
M  V30 4504 C 426.241 0.126861 6.10968 0
M  V30 4505 C 427.239 0.829574 6.77943 0
M  V30 4506 O 426.927 1.57157 7.88389 0
M  V30 4507 H 426.659 -0.201217 0.645359 0
M  V30 4508 H 429.213 0.0385326 2.05364 0
M  V30 4509 H 427.443 -2.28209 3.12182 0
M  V30 4510 H 429.132 -2.07726 3.48719 0
M  V30 4511 H 429.898 -0.00115963 4.85 0
M  V30 4512 H 425.777 -1.16392 4.46065 0
M  V30 4513 H 429.321 1.32954 6.84813 0
M  V30 4514 H 425.218 0.159815 6.45302 0
M  V30 4515 H 425.986 1.48758 8.04868 0
M  V30 4516 N 428.649 -1.55105 -0.279332 0
M  V30 4517 C 430.06 -1.66186 -0.850832 0
M  V30 4518 C 430.411 -0.584707 -1.87285 0
M  V30 4519 O 429.536 0.274919 -2.14647 0
M  V30 4520 C 430.131 -3.01264 -1.55001 0
M  V30 4521 C 428.69 -3.14394 -2.06963 0
M  V30 4522 C 427.837 -2.61959 -0.909536 0
M  V30 4523 H 430.788 -1.58602 -0.0558235 0
M  V30 4524 H 430.809 -2.93899 -2.41669 0
M  V30 4525 H 430.321 -3.7964 -0.805931 0
M  V30 4526 H 428.422 -2.4078 -2.84352 0
M  V30 4527 H 428.535 -4.20867 -2.28928 0
M  V30 4528 H 426.899 -2.18957 -1.30116 0
M  V30 4529 H 427.682 -3.42833 -0.179062 0
M  V30 4530 N 430.127 0.543554 -1.4793 0
M  V30 4531 C 431.074 1.64942 -1.6144 0
M  V30 4532 C 432.044 1.59692 -0.456903 0
M  V30 4533 O 433.229 1.78321 -0.678688 0
M  V30 4534 C 430.369 3.03238 -1.64744 0
M  V30 4535 C 429.482 3.18823 -2.91506 0
M  V30 4536 C 428.617 4.47599 -2.86057 0
M  V30 4537 C 427.656 4.56664 -4.07584 0
M  V30 4538 N 426.793 5.76811 -4.00292 0
M  V30 4539 H 431.633 1.52733 -2.55884 0
M  V30 4540 H 429.17 0.7438 -1.2691 0
M  V30 4541 H 431.128 3.83339 -1.64641 0
M  V30 4542 H 429.758 3.1425 -0.738017 0
M  V30 4543 H 428.81 2.32064 -3.01414 0
M  V30 4544 H 430.122 3.21384 -3.81463 0
M  V30 4545 H 429.276 5.35975 -2.84281 0
M  V30 4546 H 428.015 4.47538 -1.93807 0
M  V30 4547 H 427.02 3.66697 -4.09651 0
M  V30 4548 H 428.245 4.58474 -5.00978 0
M  V30 4549 H 426.191 5.77673 -3.10853 0
M  V30 4550 H 426.108 5.80808 -4.8394 0
M  V30 4551 H 427.376 6.67512 -4.02553 0
M  V30 4552 N 431.605 1.3629 0.791371 0
M  V30 4553 C 433.021 1.16661 1.08914 0
M  V30 4554 C 433.221 -0.0106266 2.01497 0
M  V30 4555 O 432.277 -0.676596 2.43266 0
M  V30 4556 C 433.59 2.47656 1.70549 0
M  V30 4557 C 435.138 2.54002 1.82899 0
M  V30 4558 C 435.613 3.85078 2.47949 0
M  V30 4559 N 437.104 3.86413 2.5542 0
M  V30 4560 C 437.839 4.84572 3.06557 0
M  V30 4561 N 437.335 5.93124 3.58016 0
M  V30 4562 N 439.128 4.71994 3.05251 0
M  V30 4563 H 431.279 2.11668 0.176238 0
M  V30 4564 H 433.542 0.937486 0.140796 0
M  V30 4565 H 433.248 3.34059 1.09989 0
M  V30 4566 H 433.122 2.63319 2.70079 0
M  V30 4567 H 435.509 1.68018 2.42598 0
M  V30 4568 H 435.59 2.42239 0.821808 0
M  V30 4569 H 435.234 4.71467 1.88895 0
M  V30 4570 H 435.164 3.94135 3.49235 0
M  V30 4571 H 437.655 3.07988 2.18979 0
M  V30 4572 H 437.968 6.63999 3.95381 0
M  V30 4573 H 436.313 5.96796 3.56173 0
M  V30 4574 H 439.504 3.86321 2.64336 0
M  V30 4575 H 439.677 5.48653 3.44796 0
M  V30 4576 N 433.083 -1.0153 1.20538 0
M  V30 4577 C 434.499 -1.27461 0.96051 0
M  V30 4578 C 434.699 -1.98273 -0.359193 0
M  V30 4579 O 433.755 -2.27886 -1.0874 0
M  V30 4580 C 435.068 -2.10837 2.14402 0
M  V30 4581 C 436.616 -2.24099 2.18515 0
M  V30 4582 C 437.091 -3.10852 3.36355 0
M  V30 4583 N 438.582 -3.18441 3.36377 0
M  V30 4584 C 439.317 -3.85795 4.24205 0
M  V30 4585 N 438.813 -4.55264 5.22213 0
M  V30 4586 N 440.606 -3.82331 4.12043 0
M  V30 4587 H 432.757 -0.539907 2.05423 0
M  V30 4588 H 435.02 -0.30092 0.898972 0
M  V30 4589 H 434.726 -1.66144 3.09983 0
M  V30 4590 H 434.6 -3.11576 2.12604 0
M  V30 4591 H 436.987 -2.68016 1.23497 0
M  V30 4592 H 437.068 -1.22865 2.24361 0
M  V30 4593 H 436.712 -2.6764 4.31661 0
M  V30 4594 H 436.642 -4.12177 3.27746 0
M  V30 4595 H 439.133 -2.68978 2.65442 0
M  V30 4596 H 439.446 -5.04331 5.85551 0
M  V30 4597 H 437.791 -4.54085 5.26148 0
M  V30 4598 H 440.982 -3.27207 3.34743 0
M  V30 4599 H 441.155 -4.34547 4.807 0
M  V30 4600 N 434.561 -1.01147 -1.20859 0
M  V30 4601 C 435.809 -0.696486 -1.89719 0
M  V30 4602 C 436.13 0.775788 -1.78904 0
M  V30 4603 O 435.4 1.55759 -1.18811 0
M  V30 4604 H 433.98 -0.254628 -0.702263 0
M  V30 4605 H 436.642 -1.28197 -1.46804 0
M  V30 4606 H 435.738 -0.975357 -2.96468 0
M  V30 4607 N 436.039 1.36541 -0.78704 0
M  V30 4608 C 437.288 1.98552 -0.35494 0
M  V30 4609 C 437.601 1.63171 1.07864 0
M  V30 4610 O 438.807 2.18399 1.61289 0
M  V30 4611 C 437.263 3.55136 -0.583671 0
M  V30 4612 C 436.871 3.99444 -2.02851 0
M  V30 4613 C 438.615 4.2395 -0.215957 0
M  V30 4614 C 436.522 5.48796 -2.20403 0
M  V30 4615 H 435.452 0.742888 -0.128972 0
M  V30 4616 H 438.103 1.5587 -0.968337 0
M  V30 4617 H 436.485 3.95875 0.0994046 0
M  V30 4618 H 437.659 3.6991 -2.74779 0
M  V30 4619 H 435.974 3.43459 -2.35425 0
M  V30 4620 H 438.571 5.33709 -0.325405 0
M  V30 4621 H 438.914 4.07827 0.835646 0
M  V30 4622 H 439.447 3.88565 -0.852175 0
M  V30 4623 H 436.186 5.69864 -3.23937 0
M  V30 4624 H 435.706 5.79964 -1.52977 0
M  V30 4625 H 437.385 6.14986 -2.01002 0
M  V30 4626 N 437.518 0.538854 1.48102 0
M  V30 4627 C 438.746 0.0123136 2.06896 0
M  V30 4628 C 439.161 -1.27312 1.39417 0
M  V30 4629 O 438.518 -1.75949 0.484582 0
M  V30 4630 C 438.569 -0.206118 3.60912 0
M  V30 4631 O 438.29 1.0284 4.25859 0
M  V30 4632 C 439.791 -0.772033 4.36526 0
M  V30 4633 H 437.011 0.0375239 0.66995 0
M  V30 4634 H 439.555 0.747032 1.90367 0
M  V30 4635 H 437.71 -0.89091 3.77017 0
M  V30 4636 H 438.124 0.814654 5.18135 0
M  V30 4637 H 439.598 -0.874251 5.45033 0
M  V30 4638 H 440.075 -1.77904 4.01555 0
M  V30 4639 H 440.681 -0.123526 4.25121 0
M  V30 4640 N 438.996 -1.55193 0.274407 0
M  V30 4641 C 440.412 -1.59401 -0.0797543 0
M  V30 4642 C 440.612 -1.29162 -1.54659 0
M  V30 4643 O 439.668 -1.05215 -2.29534 0
M  V30 4644 C 440.981 -2.99257 0.294238 0
M  V30 4645 C 442.529 -3.12072 0.240796 0
M  V30 4646 C 443.004 -4.54194 0.589218 0
M  V30 4647 N 444.495 -4.60033 0.540744 0
M  V30 4648 C 445.23 -5.68027 0.783147 0
M  V30 4649 N 444.726 -6.8417 1.09013 0
M  V30 4650 N 446.519 -5.57572 0.711993 0
M  V30 4651 H 438.67 -1.73113 1.23067 0
M  V30 4652 H 440.933 -0.807197 0.497129 0
M  V30 4653 H 440.639 -3.26217 1.31435 0
M  V30 4654 H 440.513 -3.75427 -0.365281 0
M  V30 4655 H 442.9 -2.84877 -0.770024 0
M  V30 4656 H 442.981 -2.38117 0.934563 0
M  V30 4657 H 442.625 -4.82115 1.59772 0
M  V30 4658 H 442.555 -5.26448 -0.126331 0
M  V30 4659 H 445.046 -3.76599 0.313327 0
M  V30 4660 H 445.359 -7.6243 1.26178 0
M  V30 4661 H 443.704 -6.85787 1.12789 0
M  V30 4662 H 446.895 -4.65714 0.472014 0
M  V30 4663 H 447.068 -6.41659 0.90429 0
M  V30 4664 N 440.474 -0.00167713 -1.576 0
M  V30 4665 C 441.72 0.683832 -1.90923 0
M  V30 4666 C 442.053 1.7333 -0.875799 0
M  V30 4667 O 441.328 1.94215 0.10525 0
M  V30 4668 C 441.611 1.32543 -3.3482 0
M  V30 4669 C 441.464 0.287387 -4.48881 0
M  V30 4670 C 442.783 2.25114 -3.78169 0
M  V30 4671 H 439.902 0.247125 -0.694333 0
M  V30 4672 H 442.544 -0.0533149 -1.89925 0
M  V30 4673 H 440.694 1.95372 -3.35801 0
M  V30 4674 H 442.366 -0.341346 -4.60035 0
M  V30 4675 H 440.609 -0.39017 -4.32042 0
M  V30 4676 H 441.28 0.775393 -5.46527 0
M  V30 4677 H 443.756 1.723 -3.7875 0
M  V30 4678 H 442.632 2.66971 -4.79602 0
M  V30 4679 H 442.893 3.13092 -3.12131 0
M  V30 4680 N 441.952 1.55251 0.271103 0
M  V30 4681 C 442.899 1.88261 1.33516 0
M  V30 4682 C 443.869 0.734296 1.48988 0
M  V30 4683 O 445.054 0.985741 1.63364 0
M  V30 4684 C 442.194 2.16168 2.69008 0
M  V30 4685 C 441.307 3.43678 2.61743 0
M  V30 4686 C 440.442 3.61276 3.89427 0
M  V30 4687 C 439.481 4.82472 3.7668 0
M  V30 4688 N 438.618 4.96717 4.96202 0
M  V30 4689 H 443.458 2.79015 1.04665 0
M  V30 4690 H 440.995 1.38137 0.505618 0
M  V30 4691 H 442.953 2.30349 3.47844 0
M  V30 4692 H 441.583 1.28646 2.96057 0
M  V30 4693 H 440.635 3.37959 1.74607 0
M  V30 4694 H 441.947 4.3265 2.48224 0
M  V30 4695 H 441.101 3.75284 4.76704 0
M  V30 4696 H 439.84 2.70492 4.05814 0
M  V30 4697 H 438.845 4.68465 2.87786 0
M  V30 4698 H 440.07 5.74692 3.61809 0
M  V30 4699 H 438.016 4.08865 5.12997 0
M  V30 4700 H 437.933 5.79738 4.85222 0
M  V30 4701 H 439.201 5.15113 5.85046 0
M  V30 4702 N 443.43 -0.535701 1.48216 0
M  V30 4703 C 444.34 -1.66785 1.64985 0
M  V30 4704 C 445.356 -1.65654 0.532414 0
M  V30 4705 O 446.532 -1.8471 0.80275 0
M  V30 4706 C 443.597 -3.0326 1.68031 0
M  V30 4707 C 442.658 -3.1529 2.9136 0
M  V30 4708 C 441.891 -4.45255 2.94252 0
M  V30 4709 O 442.114 -5.32011 2.05719 0
M  V30 4710 O 441.048 -4.6153 3.86359 0
M  V30 4711 H 444.874 -1.55576 2.60825 0
M  V30 4712 H 442.459 -0.70815 1.31551 0
M  V30 4713 H 444.341 -3.84436 1.72589 0
M  V30 4714 H 443.016 -3.14805 0.753628 0
M  V30 4715 H 441.923 -2.3343 2.92337 0
M  V30 4716 H 443.256 -3.08658 3.83394 0
M  V30 4717 N 444.908 -1.36708 -0.784132 0
M  V30 4718 C 445.841 -1.25827 -1.90375 0
M  V30 4719 C 446.819 -0.141331 -1.61985 0
M  V30 4720 O 448.003 -0.313389 -1.85877 0
M  V30 4721 C 445.13 -0.942621 -3.25319 0
M  V30 4722 C 444.176 -2.07474 -3.72635 0
M  V30 4723 S 445.009 -3.69317 -3.8777 0
M  V30 4724 C 446.165 -3.39876 -5.25581 0
M  V30 4725 H 446.398 -2.20593 -1.99314 0
M  V30 4726 H 443.931 -1.22186 -0.943926 0
M  V30 4727 H 445.889 -0.767321 -4.03265 0
M  V30 4728 H 444.55 -0.0126566 -3.14097 0
M  V30 4729 H 443.743 -1.80858 -4.70432 0
M  V30 4730 H 443.345 -2.20953 -3.01754 0
M  V30 4731 H 445.637 -2.94097 -6.10339 0
M  V30 4732 H 446.58 -4.36956 -5.57203 0
M  V30 4733 H 446.988 -2.75098 -4.92931 0
M  V30 4734 N 446.386 1.0089 -1.21074 0
M  V30 4735 C 447.316 2.1145 -0.990523 0
M  V30 4736 C 448.297 1.69897 0.0831699 0
M  V30 4737 O 449.482 1.94052 -0.0758853 0
M  V30 4738 C 446.612 3.42914 -0.550177 0
M  V30 4739 C 445.566 3.98244 -1.56799 0
M  V30 4740 C 444.892 5.25568 -0.984013 0
M  V30 4741 C 446.192 4.30752 -2.95381 0
M  V30 4742 H 447.886 2.3013 -1.91521 0
M  V30 4743 H 445.432 1.10592 -0.92225 0
M  V30 4744 H 447.385 4.19653 -0.383305 0
M  V30 4745 H 446.109 3.24014 0.41015 0
M  V30 4746 H 444.768 3.23621 -1.72236 0
M  V30 4747 H 444.416 5.02998 -0.0155216 0
M  V30 4748 H 444.116 5.63551 -1.66384 0
M  V30 4749 H 445.64 6.04955 -0.828378 0
M  V30 4750 H 447.054 4.98349 -2.8341 0
M  V30 4751 H 445.451 4.79869 -3.60341 0
M  V30 4752 H 446.521 3.39192 -3.46521 0
M  V30 4753 N 447.864 1.01787 1.20321 0
M  V30 4754 C 448.774 0.598898 2.26827 0
M  V30 4755 C 449.79 -0.36418 1.70146 0
M  V30 4756 O 450.966 -0.224812 2.00141 0
M  V30 4757 C 448.031 -0.0549769 3.46656 0
M  V30 4758 C 447.092 0.954205 4.18561 0
M  V30 4759 C 446.325 0.331439 5.3267 0
M  V30 4760 O 446.548 -0.86851 5.63749 0
M  V30 4761 O 445.482 1.0488 5.92692 0
M  V30 4762 H 449.308 1.48562 2.64883 0
M  V30 4763 H 446.893 0.787434 1.26964 0
M  V30 4764 H 448.775 -0.420102 4.19301 0
M  V30 4765 H 447.45 -0.915876 3.10473 0
M  V30 4766 H 446.357 1.37072 3.48083 0
M  V30 4767 H 447.69 1.78511 4.58688 0
M  V30 4768 N 449.342 -1.36122 0.79427 0
M  V30 4769 C 450.567 -2.03891 0.379871 0
M  V30 4770 C 450.992 -1.59488 -0.997251 0
M  V30 4771 O 450.35 -0.765652 -1.64339 0
M  V30 4772 C 450.398 -3.57687 0.457442 0
M  V30 4773 O 449.502 -4.08931 -0.5338 0
M  V30 4774 H 448.843 -0.6443 0.160541 0
M  V30 4775 H 451.373 -1.73976 1.07673 0
M  V30 4776 H 451.383 -4.06721 0.322792 0
M  V30 4777 H 450.058 -3.89357 1.46199 0
M  V30 4778 H 448.635 -3.71154 -0.360409 0
M  V30 4779 N 450.82 -0.546701 -1.47814 0
M  V30 4780 C 452.068 -0.0187037 -2.02091 0
M  V30 4781 C 452.389 1.33168 -1.42447 0
M  V30 4782 O 451.659 1.86619 -0.595839 0
M  V30 4783 H 450.239 -0.00392531 -0.74699 0
M  V30 4784 H 452.901 -0.714327 -1.81338 0
M  V30 4785 H 451.997 0.0772219 -3.12004 0
M  V30 4786 N 452.299 1.55045 -0.282633 0
M  V30 4787 C 453.548 1.98938 0.332667 0
M  V30 4788 C 453.861 1.17455 1.56409 0
M  V30 4789 O 455.067 1.51527 2.25282 0
M  V30 4790 C 453.523 3.54105 0.643226 0
M  V30 4791 C 453.131 4.44374 -0.568814 0
M  V30 4792 C 454.875 4.06569 1.22074 0
M  V30 4793 C 452.782 5.90943 -0.232426 0
M  V30 4794 H 451.712 0.743043 0.128075 0
M  V30 4795 H 454.363 1.79341 -0.388464 0
M  V30 4796 H 452.745 3.69532 1.42346 0
M  V30 4797 H 453.919 4.40718 -1.34551 0
M  V30 4798 H 452.234 4.02585 -1.06369 0
M  V30 4799 H 454.831 5.13626 1.48635 0
M  V30 4800 H 455.174 3.56057 2.15707 0
M  V30 4801 H 455.707 3.94612 0.502621 0
M  V30 4802 H 452.446 6.45567 -1.13683 0
M  V30 4803 H 451.966 5.9765 0.507357 0
M  V30 4804 H 453.645 6.4677 0.172657 0
M  V30 4805 N 453.777 0.010035 1.57597 0
M  V30 4806 C 454.725 -0.996272 2.10184 0
M  V30 4807 C 455.719 -1.34942 1.02406 0
M  V30 4808 O 456.925 -1.33389 1.20861 0
M  V30 4809 H 453.3 -0.338982 0.671264 0
M  V30 4810 H 455.271 -0.527272 2.93705 0
M  V30 4811 C 454.02 -2.27599 2.62857 0
M  V30 4812 H 453.343 -2.01295 3.45428 0
M  V30 4813 H 454.783 -2.96265 3.0332 0
M  V30 4814 C 453.242 -2.99269 1.54725 0
M  V30 4815 O 453.772 -3.90644 0.93597 0
M  V30 4816 N 451.978 -2.61269 1.27228 0
M  V30 4817 H 451.525 -1.87043 1.77123 0
M  V30 4818 H 451.483 -3.09534 0.550999 0
M  V30 4819 N 455.255 -1.55392 -0.262866 0
M  V30 4820 C 456.501 -1.76737 -0.99458 0
M  V30 4821 C 456.834 -0.572453 -1.85571 0
M  V30 4822 O 456.109 0.429732 -1.89693 0
M  V30 4823 C 456.392 -3.07824 -1.8686 0
M  V30 4824 C 456.245 -4.3769 -1.03672 0
M  V30 4825 C 457.564 -3.35021 -2.85393 0
M  V30 4826 H 454.683 -0.643005 -0.360157 0
M  V30 4827 H 457.325 -1.88126 -0.266216 0
M  V30 4828 H 455.475 -2.98245 -2.48962 0
M  V30 4829 H 457.147 -4.59238 -0.43563 0
M  V30 4830 H 455.39 -4.32461 -0.340513 0
M  V30 4831 H 456.061 -5.25759 -1.6817 0
M  V30 4832 H 458.537 -3.44458 -2.33426 0
M  V30 4833 H 457.413 -4.27989 -3.43681 0
M  V30 4834 H 457.674 -2.55153 -3.61039 0
M  V30 4835 N 456.733 0.527833 -1.48498 0
M  V30 4836 C 457.973 1.29401 -1.58224 0
M  V30 4837 C 458.337 1.90348 -0.251327 0
M  V30 4838 O 459.538 2.67868 -0.223588 0
M  V30 4839 C 457.809 2.35266 -2.69044 0
M  V30 4840 S 459.368 3.2158 -2.98549 0
M  V30 4841 H 456.186 0.440138 -0.558391 0
M  V30 4842 H 458.788 0.601079 -1.8603 0
M  V30 4843 H 457.492 1.88975 -3.64303 0
M  V30 4844 H 457.023 3.09263 -2.43146 0
M  V30 4845 H 459.038 4.35391 -2.38011 0
M  V30 4846 N 458.211 1.37122 0.776871 0
M  V30 4847 C 459.458 1.32047 1.53524 0
M  V30 4848 C 459.786 -0.0965631 1.9426 0
M  V30 4849 O 459.041 -1.06866 1.63945 0
M  V30 4850 C 459.34 2.20068 2.81611 0
M  V30 4851 C 459.006 3.68423 2.59953 0
M  V30 4852 C 457.668 4.08854 2.53755 0
M  V30 4853 C 460.02 4.62431 2.40431 0
M  V30 4854 C 457.348 5.41417 2.26018 0
M  V30 4855 C 459.7 5.95225 2.14219 0
M  V30 4856 C 458.364 6.34767 2.06462 0
M  V30 4857 H 457.634 0.483196 0.561785 0
M  V30 4858 H 460.281 1.69284 0.895268 0
M  V30 4859 H 458.586 1.75809 3.50141 0
M  V30 4860 H 460.283 2.13458 3.39465 0
M  V30 4861 H 456.873 3.36354 2.65638 0
M  V30 4862 H 461.057 4.32057 2.44213 0
M  V30 4863 H 456.313 5.71022 2.18504 0
M  V30 4864 H 460.487 6.67626 1.98112 0
M  V30 4865 H 458.114 7.37413 1.84733 0
M  V30 4866 N 459.689 -1.00246 1.21608 0
M  V30 4867 C 460.937 -1.73717 1.0328 0
M  V30 4868 C 461.258 -1.90102 -0.434318 0
M  V30 4869 O 460.528 -1.45376 -1.31311 0
M  V30 4870 H 459.108 -0.643613 0.379172 0
M  V30 4871 H 461.77 -1.20787 1.52959 0
M  V30 4872 H 460.866 -2.73535 1.50283 0
M  V30 4873 N 461.167 -1.02423 -1.1978 0
M  V30 4874 C 462.117 -0.571689 -2.20716 0
M  V30 4875 C 463.101 0.377077 -1.56419 0
M  V30 4876 O 464.293 0.198801 -1.7588 0
M  V30 4877 C 461.422 0.0808555 -3.43205 0
M  V30 4878 C 460.508 -0.890073 -4.14655 0
M  V30 4879 N 460.899 -2.05065 -4.62366 0
M  V30 4880 C 459.197 -0.71252 -4.40272 0
M  V30 4881 C 459.898 -2.66264 -5.17183 0
M  V30 4882 N 458.874 -1.94264 -5.07703 0
M  V30 4883 H 462.676 -1.45636 -2.55279 0
M  V30 4884 H 460.19 -0.890596 -1.35802 0
M  V30 4885 H 462.187 0.422654 -4.14752 0
M  V30 4886 H 460.847 0.961274 -3.10144 0
M  V30 4887 H 461.858 -2.43026 -4.57339 0
M  V30 4888 H 458.535 0.119199 -4.1733 0
M  V30 4889 H 459.925 -3.64526 -5.64421 0
M  V30 4890 N 462.645 1.35699 -0.801477 0
M  V30 4891 C 463.922 1.9324 -0.302937 0
M  V30 4892 C 464.302 1.73209 1.20672 0
M  V30 4893 O 463.65 1.09809 2.00385 0
M  V30 4894 C 463.86 3.41728 -0.708747 0
M  V30 4895 C 465.208 4.18868 -0.695328 0
M  V30 4896 O 466.232 3.5022 -0.649971 0
M  V30 4897 O 465.091 5.41342 -0.749081 0
M  V30 4898 H 462.185 0.82331 -0.0780367 0
M  V30 4899 H 464.731 1.44806 -0.884832 0
M  V30 4900 H 463.503 3.50015 -1.74944 0
M  V30 4901 H 463.126 3.97471 -0.101384 0
M  V30 4902 N 464.123 0.554532 1.47522 0
M  V30 4903 C 465.4 -0.0360704 1.95567 0
M  V30 4904 C 465.78 -1.48828 1.49711 0
M  V30 4905 O 465.128 -2.16366 0.734717 0
M  V30 4906 C 465.338 0.106631 3.48837 0
M  V30 4907 C 466.686 -0.0400899 4.24581 0
M  V30 4908 O 467.71 0.0340453 3.56184 0
M  V30 4909 O 466.569 -0.199111 5.46137 0
M  V30 4910 H 463.663 -0.0656294 0.824392 0
M  V30 4911 H 466.209 0.620867 1.57935 0
M  V30 4912 H 464.981 1.11727 3.7501 0
M  V30 4913 H 464.604 -0.58804 3.93227 0
M  V30 4914 N 465.601 -1.54893 0.290851 0
M  V30 4915 C 466.847 -2.0023 -0.321867 0
M  V30 4916 C 467.18 -1.179 -1.54316 0
M  V30 4917 O 466.455 -0.25293 -1.92848 0
M  V30 4918 C 466.738 -3.53456 -0.688515 0
M  V30 4919 C 466.591 -4.46532 0.541209 0
M  V30 4920 C 467.91 -4.13057 -1.51895 0
M  V30 4921 H 465.029 -0.727891 -0.115515 0
M  V30 4922 H 467.671 -1.85722 0.400931 0
M  V30 4923 H 465.821 -3.6595 -1.30433 0
M  V30 4924 H 467.493 -4.4596 1.17973 0
M  V30 4925 H 465.736 -4.17545 1.17636 0
M  V30 4926 H 466.407 -5.51475 0.240675 0
M  V30 4927 H 468.883 -4.03937 -0.99872 0
M  V30 4928 H 467.759 -5.20448 -1.74429 0
M  V30 4929 H 468.02 -3.64284 -2.50498 0
M  V30 4930 N 467.08 -0.0183926 -1.57589 0
M  V30 4931 C 468.327 0.662562 -1.91354 0
M  V30 4932 C 468.655 1.72747 -0.893788 0
M  V30 4933 O 467.91 1.9545 0.0988509 0
M  V30 4934 C 468.209 1.32676 -3.31861 0
M  V30 4935 C 467.875 0.393267 -4.49182 0
M  V30 4936 C 466.537 0.136302 -4.81007 0
M  V30 4937 C 468.889 -0.248366 -5.20608 0
M  V30 4938 C 466.217 -0.770282 -5.81621 0
M  V30 4939 C 468.569 -1.14294 -6.22189 0
M  V30 4940 C 467.233 -1.4089 -6.52462 0
M  V30 4941 H 466.503 0.242448 -0.700214 0
M  V30 4942 H 469.15 -0.0778629 -1.91342 0
M  V30 4943 H 467.455 2.14168 -3.28084 0
M  V30 4944 H 469.152 1.86001 -3.55253 0
M  V30 4945 H 465.742 0.603723 -4.24327 0
M  V30 4946 H 469.926 -0.062883 -4.9626 0
M  V30 4947 H 465.182 -0.984154 -6.03427 0
M  V30 4948 H 469.356 -1.64637 -6.76659 0
M  V30 4949 H 466.983 -2.11306 -7.30242 0
M  V30 4950 N 468.558 1.5553 0.254621 0
M  V30 4951 C 469.835 1.6774 1.00611 0
M  V30 4952 C 470.215 0.555993 2.03647 0
M  V30 4953 O 469.563 -0.441583 2.24193 0
M  V30 4954 C 469.773 3.07725 1.6464 0
M  V30 4955 C 471.121 3.66074 2.15116 0
M  V30 4956 O 472.145 3.10476 1.74595 0
M  V30 4957 O 471.004 4.63526 2.89493 0
M  V30 4958 H 468.098 0.681958 0.467828 0
M  V30 4959 H 470.644 1.67863 0.24902 0
M  V30 4960 H 469.416 3.80792 0.900734 0
M  V30 4961 H 469.039 3.1158 2.46989 0
M  V30 4962 N 470.036 -0.519951 1.48776 0
M  V30 4963 C 471.447 -1.10177 1.50725 0
M  V30 4964 C 471.798 -1.94153 0.282678 0
M  V30 4965 O 470.923 -2.07645 -0.609298 0
M  V30 4966 C 471.518 -2.00482 2.73116 0
M  V30 4967 C 470.077 -2.53862 2.77905 0
M  V30 4968 C 469.224 -1.31047 2.44381 0
M  V30 4969 H 472.175 -0.30473 1.55747 0
M  V30 4970 H 472.196 -2.8491 2.52203 0
M  V30 4971 H 471.708 -1.39335 3.62225 0
M  V30 4972 H 469.809 -3.18702 1.93029 0
M  V30 4973 H 469.922 -2.9231 3.79594 0
M  V30 4974 H 468.286 -1.62953 1.95751 0
M  V30 4975 H 469.069 -0.71637 3.35743 0
M  V30 4976 N 471.514 -1.37532 -0.769588 0
M  V30 4977 C 472.76 -1.34063 -1.52966 0
M  V30 4978 C 473.115 0.0737942 -1.92258 0
M  V30 4979 O 472.408 1.03291 -1.61374 0
M  V30 4980 C 472.602 -2.21558 -2.8044 0
M  V30 4981 C 472.431 -3.71367 -2.53608 0
M  V30 4982 C 471.201 -4.40464 -2.47628 0
M  V30 4983 C 473.399 -4.64177 -2.21459 0
M  V30 4984 N 471.381 -5.758 -2.12902 0
M  V30 4985 C 472.752 -5.87907 -1.9689 0
M  V30 4986 C 474.807 -4.52541 -2.07633 0
M  V30 4987 C 473.51 -7.01304 -1.59892 0
M  V30 4988 C 475.536 -5.65825 -1.72034 0
M  V30 4989 C 474.898 -6.88606 -1.48327 0
M  V30 4990 H 470.997 -0.545856 -0.559969 0
M  V30 4991 H 473.581 -1.72773 -0.897634 0
M  V30 4992 H 471.752 -1.85061 -3.41478 0
M  V30 4993 H 473.484 -2.09332 -3.46356 0
M  V30 4994 H 470.239 -3.93491 -2.63556 0
M  V30 4995 H 470.663 -6.47328 -1.9823 0
M  V30 4996 H 475.305 -3.58183 -2.24643 0
M  V30 4997 H 473.023 -7.95594 -1.4162 0
M  V30 4998 H 476.609 -5.58793 -1.61991 0
M  V30 4999 H 475.489 -7.74779 -1.21189 0
M  V30 5000 N 472.992 0.995999 -1.22138 0
M  V30 5001 C 474.222 1.76809 -1.06874 0
M  V30 5002 C 474.63 1.85265 0.383866 0
M  V30 5003 O 473.973 1.31969 1.27789 0
M  V30 5004 C 474.035 3.2186 -1.60144 0
M  V30 5005 C 473.699 3.36958 -3.0872 0
M  V30 5006 C 474.696 3.2452 -4.0618 0
M  V30 5007 C 472.381 3.62109 -3.48112 0
M  V30 5008 C 474.375 3.37013 -5.41019 0
M  V30 5009 C 472.062 3.74243 -4.831 0
M  V30 5010 C 473.06 3.61702 -5.79362 0
M  V30 5011 O 472.748 3.73436 -7.119 0
M  V30 5012 H 472.48 0.562207 -0.375365 0
M  V30 5013 H 475.034 1.26113 -1.62125 0
M  V30 5014 H 473.264 3.73734 -0.992981 0
M  V30 5015 H 474.953 3.80775 -1.40589 0
M  V30 5016 H 475.719 3.05004 -3.77091 0
M  V30 5017 H 471.598 3.70949 -2.73712 0
M  V30 5018 H 475.142 3.27141 -6.16137 0
M  V30 5019 H 471.039 3.93266 -5.11872 0
M  V30 5020 H 471.807 3.90328 -7.19435 0
M  V30 5021 N 474.47 1.03057 1.19235 0
M  V30 5022 C 475.881 0.757449 1.70645 0
M  V30 5023 C 476.232 -0.722735 1.82403 0
M  V30 5024 O 475.357 -1.56325 1.49638 0
M  V30 5025 C 475.952 1.36833 3.09939 0
M  V30 5026 C 474.511 1.14375 3.58602 0
M  V30 5027 C 473.658 1.46533 2.35422 0
M  V30 5028 H 476.609 1.19828 1.04052 0
M  V30 5029 H 476.63 0.766184 3.72706 0
M  V30 5030 H 476.142 2.44562 3.01349 0
M  V30 5031 H 474.243 0.0847542 3.72504 0
M  V30 5032 H 474.356 1.83366 4.42622 0
M  V30 5033 H 472.72 0.884712 2.38841 0
M  V30 5034 H 473.503 2.55349 2.2946 0
M  V30 5035 N 475.948 -1.35272 0.808662 0
M  V30 5036 C 476.878 -2.32315 0.234981 0
M  V30 5037 C 477.859 -1.57572 -0.64071 0
M  V30 5038 O 479.044 -1.8563 -0.570551 0
M  V30 5039 C 476.174 -3.41801 -0.615601 0
M  V30 5040 C 475.128 -4.27694 0.161767 0
M  V30 5041 C 474.454 -5.28519 -0.810649 0
M  V30 5042 C 475.754 -5.04231 1.36193 0
M  V30 5043 H 477.448 -2.80543 1.04575 0
M  V30 5044 H 474.994 -1.3488 0.504315 0
M  V30 5045 H 476.947 -4.08693 -1.02702 0
M  V30 5046 H 475.671 -2.92186 -1.45928 0
M  V30 5047 H 474.33 -3.62384 0.554382 0
M  V30 5048 H 473.978 -4.75171 -1.64988 0
M  V30 5049 H 473.678 -5.8686 -0.294822 0
M  V30 5050 H 475.202 -5.98283 -1.22023 0
M  V30 5051 H 476.616 -5.64058 1.02528 0
M  V30 5052 H 475.013 -5.72077 1.81239 0
M  V30 5053 H 476.083 -4.34753 2.14751 0
M  V30 5054 N 477.426 -0.562348 -1.47226 0
M  V30 5055 C 478.674 -0.0401371 -2.0206 0
M  V30 5056 C 478.995 1.3165 -1.43852 0
M  V30 5057 O 478.265 1.85976 -0.615599 0
M  V30 5058 H 476.845 -0.0118479 -0.746906 0
M  V30 5059 H 479.507 -0.73352 -1.8057 0
M  V30 5060 H 478.603 0.0441254 -3.12069 0
M  V30 5061 N 478.904 1.54736 -0.299062 0
M  V30 5062 C 480.132 2.04512 0.313447 0
M  V30 5063 C 480.547 1.17643 1.47667 0
M  V30 5064 O 479.904 0.20164 1.81383 0
M  V30 5065 C 479.955 3.53171 0.771542 0
M  V30 5066 O 479.676 4.36736 -0.345379 0
M  V30 5067 C 481.177 4.18936 1.4494 0
M  V30 5068 H 478.397 0.667507 0.0683784 0
M  V30 5069 H 480.941 1.99752 -0.438129 0
M  V30 5070 H 479.096 3.58298 1.47314 0
M  V30 5071 H 479.51 5.24499 0.0109219 0
M  V30 5072 H 480.984 5.24482 1.72111 0
M  V30 5073 H 481.461 3.68554 2.38883 0
M  V30 5074 H 482.067 4.17879 0.791028 0
M  V30 5075 N 480.382 0.0267497 1.57577 0
M  V30 5076 C 481.345 -0.940916 2.08996 0
M  V30 5077 C 482.345 -1.25561 1.00455 0
M  V30 5078 O 483.535 -1.19634 1.26623 0
M  V30 5079 C 480.667 -2.25814 2.55384 0
M  V30 5080 H 481.86 -0.495628 2.95776 0
M  V30 5081 H 479.413 -0.221241 1.54726 0
M  V30 5082 H 480.148 -2.74976 1.71926 0
M  V30 5083 H 479.933 -2.04285 3.34679 0
M  V30 5084 H 481.423 -2.95178 2.95398 0
M  V30 5085 N 481.861 -1.55662 -0.24637 0
M  V30 5086 C 482.809 -1.91186 -1.3248 0
M  V30 5087 C 483.803 -0.790996 -1.49799 0
M  V30 5088 O 485.009 -0.975617 -1.51267 0
M  V30 5089 H 481.384 -0.607207 -0.443626 0
M  V30 5090 H 483.355 -2.81221 -0.997853 0
M  V30 5091 C 482.104 -2.22349 -2.67313 0
M  V30 5092 H 481.427 -3.08097 -2.54786 0
M  V30 5093 H 482.867 -2.51107 -3.41645 0
M  V30 5094 C 481.326 -1.04001 -3.20446 0
M  V30 5095 O 481.856 -0.28828 -4.00664 0
M  V30 5096 N 480.062 -0.830494 -2.7848 0
M  V30 5097 H 479.609 -1.4435 -2.13356 0
M  V30 5098 H 479.567 -0.0403258 -3.14374 0
M  V30 5099 N 483.339 0.512053 -1.4905 0
M  V30 5100 C 484.272 1.63209 -1.59493 0
M  V30 5101 C 485.25 1.56407 -0.444481 0
M  V30 5102 O 486.434 1.76623 -0.658535 0
M  V30 5103 C 483.561 3.01685 -1.53961 0
M  V30 5104 C 482.607 3.26786 -2.74068 0
M  V30 5105 S 483.44 3.11107 -4.35859 0
M  V30 5106 C 484.596 4.51997 -4.32954 0
M  V30 5107 H 484.829 1.54104 -2.54243 0
M  V30 5108 H 482.362 0.696382 -1.37804 0
M  V30 5109 H 484.32 3.81538 -1.51455 0
M  V30 5110 H 482.981 3.08215 -0.605178 0
M  V30 5111 H 482.174 4.27849 -2.66386 0
M  V30 5112 H 481.776 2.54635 -2.73928 0
M  V30 5113 H 484.068 5.43871 -4.03993 0
M  V30 5114 H 485.011 4.64731 -5.34257 0
M  V30 5115 H 485.419 4.32159 -3.63178 0
M  V30 5116 N 484.817 1.37938 0.762283 0
M  V30 5117 C 485.747 1.37176 1.88958 0
M  V30 5118 C 486.728 0.238945 1.68413 0
M  V30 5119 O 487.913 0.440726 1.89133 0
M  V30 5120 C 485.043 1.18742 3.2637 0
M  V30 5121 C 483.997 2.29136 3.61498 0
M  V30 5122 C 483.323 1.95816 4.97554 0
M  V30 5123 C 484.623 3.71363 3.6727 0
M  V30 5124 H 486.317 2.31509 1.89853 0
M  V30 5125 H 483.863 1.11438 0.912005 0
M  V30 5126 H 485.816 1.16837 4.04879 0
M  V30 5127 H 484.54 0.208683 3.25933 0
M  V30 5128 H 483.199 2.30213 2.85303 0
M  V30 5129 H 482.847 0.964475 4.93667 0
M  V30 5130 H 482.547 2.69745 5.22026 0
M  V30 5131 H 484.071 1.95513 5.78452 0
M  V30 5132 H 485.485 3.72364 4.35911 0
M  V30 5133 H 483.882 4.44425 4.03245 0
M  V30 5134 H 484.952 4.04305 2.67704 0
M  V30 5135 N 486.295 -0.989507 1.22664 0
M  V30 5136 C 487.227 -2.0824 0.957542 0
M  V30 5137 C 488.24 -1.6267 -0.0651098 0
M  V30 5138 O 489.429 -1.77695 0.169312 0
M  V30 5139 C 486.529 -3.36298 0.419145 0
M  V30 5140 C 485.702 -4.10882 1.49982 0
M  V30 5141 C 484.761 -5.17221 0.967904 0
M  V30 5142 O 483.787 -5.44613 1.65487 0
M  V30 5143 N 484.989 -5.80124 -0.20896 0
M  V30 5144 H 487.754 -2.31904 1.89843 0
M  V30 5145 H 485.315 -1.15552 1.13399 0
M  V30 5146 H 487.307 -4.04671 0.0485451 0
M  V30 5147 H 485.877 -3.09671 -0.426937 0
M  V30 5148 H 485.097 -3.37092 2.04359 0
M  V30 5149 H 486.385 -4.57482 2.22682 0
M  V30 5150 H 485.783 -5.60244 -0.783818 0
M  V30 5151 H 484.34 -6.49715 -0.520913 0
M  V30 5152 N 487.773 -1.03688 -1.18687 0
M  V30 5153 C 489.019 -0.739123 -1.88851 0
M  V30 5154 C 489.352 0.731042 -1.79915 0
M  V30 5155 O 488.627 1.53313 -1.19688 0
M  V30 5156 C 488.91 -1.20106 -3.3948 0
M  V30 5157 C 488.763 -2.73304 -3.57246 0
M  V30 5158 C 490.082 -0.788134 -4.32986 0
M  V30 5159 H 487.201 -0.269978 -0.68577 0
M  V30 5160 H 489.843 -1.28822 -1.3966 0
M  V30 5161 H 487.993 -0.733915 -3.81505 0
M  V30 5162 H 489.665 -3.28027 -3.24339 0
M  V30 5163 H 487.908 -3.13313 -3.00029 0
M  V30 5164 H 488.579 -3.00684 -4.62918 0
M  V30 5165 H 491.055 -1.19005 -3.98719 0
M  V30 5166 H 489.931 -1.13915 -5.36949 0
M  V30 5167 H 490.192 0.308988 -4.41019 0
M  V30 5168 N 489.251 1.34841 -0.815825 0
M  V30 5169 C 490.181 2.32187 -0.247298 0
M  V30 5170 C 491.162 1.5791 0.632344 0
M  V30 5171 O 492.347 1.8593 0.560698 0
M  V30 5172 C 489.477 3.42122 0.597466 0
M  V30 5173 C 488.431 4.27602 -0.184446 0
M  V30 5174 C 487.757 5.28942 0.782609 0
M  V30 5175 C 489.057 5.03502 -1.38865 0
M  V30 5176 H 490.751 2.79985 -1.06061 0
M  V30 5177 H 488.297 1.34611 -0.511461 0
M  V30 5178 H 490.25 4.09232 1.00533 0
M  V30 5179 H 488.974 2.92956 1.44376 0
M  V30 5180 H 487.633 3.62085 -0.573592 0
M  V30 5181 H 487.281 4.7604 1.62466 0
M  V30 5182 H 486.981 5.87008 0.263695 0
M  V30 5183 H 488.505 5.98922 1.18848 0
M  V30 5184 H 489.919 5.63506 -1.05518 0
M  V30 5185 H 488.316 5.71108 -1.8427 0
M  V30 5186 H 489.386 4.33608 -2.17054 0
M  V30 5187 N 490.729 0.570148 1.46925 0
M  V30 5188 C 491.679 -0.190921 2.27199 0
M  V30 5189 C 492.663 -0.873457 1.35128 0
M  V30 5190 O 493.855 -0.769627 1.59392 0
M  V30 5191 C 490.984 -1.21204 3.21192 0
M  V30 5192 C 490.07 -0.532261 4.20747 0
M  V30 5193 N 490.461 0.405038 5.04176 0
M  V30 5194 C 488.759 -0.784582 4.39045 0
M  V30 5195 C 489.46 0.801149 5.76157 0
M  V30 5196 N 488.436 0.153082 5.43384 0
M  V30 5197 H 492.238 0.529535 2.8909 0
M  V30 5198 H 489.752 0.391019 1.57622 0
M  V30 5199 H 491.749 -1.77135 3.77398 0
M  V30 5200 H 490.409 -1.93345 2.6086 0
M  V30 5201 H 491.42 0.779903 5.11994 0
M  V30 5202 H 488.097 -1.49352 3.89872 0
M  V30 5203 H 489.487 1.57208 6.5325 0
M  V30 5204 N 492.207 -1.54576 0.307264 0
M  V30 5205 C 493.14 -2.19946 -0.608195 0
M  V30 5206 C 494.118 -1.17096 -1.12815 0
M  V30 5207 O 495.302 -1.45766 -1.19518 0
M  V30 5208 C 492.429 -2.84826 -1.8328 0
M  V30 5209 C 491.475 -4.01256 -1.44554 0
M  V30 5210 S 492.308 -5.33197 -0.49612 0
M  V30 5211 C 493.464 -6.01563 -1.72838 0
M  V30 5212 H 493.697 -2.97253 -0.0528544 0
M  V30 5213 H 491.23 -1.54129 0.0913837 0
M  V30 5214 H 493.188 -3.22832 -2.53554 0
M  V30 5215 H 491.849 -2.07353 -2.35931 0
M  V30 5216 H 491.042 -4.45457 -2.35762 0
M  V30 5217 H 490.644 -3.6484 -0.822671 0
M  V30 5218 H 492.936 -6.22751 -2.6681 0
M  V30 5219 H 493.879 -6.9552 -1.32882 0
M  V30 5220 H 494.287 -5.31279 -1.90795 0
M  V30 5221 N 493.685 -0.035106 -1.57561 0
M  V30 5222 C 494.933 0.64096 -1.91667 0
M  V30 5223 C 495.254 1.72323 -0.912681 0
M  V30 5224 O 494.524 1.95849 0.0449089 0
M  V30 5225 H 493.104 0.239743 -0.707483 0
M  V30 5226 H 495.766 -0.084321 -1.94718 0
M  V30 5227 H 494.862 1.08987 -2.92452 0
M  V30 5228 N 495.163 1.55791 0.238111 0
M  V30 5229 C 496.093 1.94068 1.29846 0
M  V30 5230 C 497.074 0.806726 1.49753 0
M  V30 5231 O 498.259 1.06772 1.62214 0
M  V30 5232 C 495.389 2.24302 2.65153 0
M  V30 5233 C 494.343 3.40032 2.59927 0
M  V30 5234 C 493.669 3.55829 3.99111 0
M  V30 5235 C 494.969 4.75476 2.16148 0
M  V30 5236 H 496.663 2.82887 0.980563 0
M  V30 5237 H 494.209 1.36105 0.470253 0
M  V30 5238 H 496.162 2.4967 3.39475 0
M  V30 5239 H 494.886 1.32318 2.98596 0
M  V30 5240 H 493.545 3.14687 1.88063 0
M  V30 5241 H 493.193 2.6125 4.29834 0
M  V30 5242 H 492.893 4.3366 3.96501 0
M  V30 5243 H 494.417 3.83528 4.7512 0
M  V30 5244 H 495.831 5.00158 2.80205 0
M  V30 5245 H 494.228 5.56472 2.24631 0
M  V30 5246 H 495.298 4.71946 1.11333 0
M  V30 5247 N 496.642 -0.504142 1.49319 0
M  V30 5248 C 497.592 -1.60284 1.62151 0
M  V30 5249 C 498.576 -1.53657 0.477315 0
M  V30 5250 O 499.768 -1.6124 0.730108 0
M  V30 5251 C 496.897 -2.98909 1.68844 0
M  V30 5252 C 495.983 -3.10544 2.8883 0
M  V30 5253 N 496.374 -2.92078 4.12946 0
M  V30 5254 C 494.672 -3.4164 2.86702 0
M  V30 5255 C 495.373 -3.07812 4.93585 0
M  V30 5256 N 494.349 -3.36549 4.26891 0
M  V30 5257 H 498.151 -1.44656 2.55835 0
M  V30 5258 H 495.665 -0.710198 1.46048 0
M  V30 5259 H 497.662 -3.77865 1.76134 0
M  V30 5260 H 496.322 -3.15609 0.762943 0
M  V30 5261 H 497.333 -2.68316 4.42975 0
M  V30 5262 H 494.01 -3.64537 2.03517 0
M  V30 5263 H 495.4 -2.98054 6.02174 0
M  V30 5264 N 498.12 -1.38341 -0.754957 0
M  V30 5265 C 499.366 -1.34672 -1.51628 0
M  V30 5266 C 499.699 0.0636036 -1.94096 0
M  V30 5267 O 498.974 1.0245 -1.6533 0
M  V30 5268 C 499.257 -2.30116 -2.76981 0
M  V30 5269 C 499.11 -3.80003 -2.4066 0
M  V30 5270 C 500.429 -2.23715 -3.78998 0
M  V30 5271 H 497.548 -0.490517 -0.550056 0
M  V30 5272 H 500.19 -1.69178 -0.864807 0
M  V30 5273 H 498.34 -2.00821 -3.3257 0
M  V30 5274 H 500.012 -4.19966 -1.90856 0
M  V30 5275 H 498.255 -3.97751 -1.73137 0
M  V30 5276 H 498.926 -4.42244 -3.30339 0
M  V30 5277 H 501.402 -2.49574 -3.32945 0
M  V30 5278 H 500.278 -2.9261 -4.64403 0
M  V30 5279 H 500.539 -1.23554 -4.24484 0
M  V30 5280 N 499.598 0.982988 -1.23187 0
M  V30 5281 C 500.838 1.73903 -1.07412 0
M  V30 5282 C 501.202 1.88146 0.382764 0
M  V30 5283 O 502.403 2.6053 0.661638 0
M  V30 5284 C 500.674 3.10105 -1.77678 0
M  V30 5285 S 502.233 4.01323 -1.77441 0
M  V30 5286 H 499.051 0.598093 -0.384456 0
M  V30 5287 H 501.653 1.17456 -1.56283 0
M  V30 5288 H 500.357 2.97388 -2.82822 0
M  V30 5289 H 499.888 3.71622 -1.29077 0
M  V30 5290 H 501.903 4.89189 -0.831162 0
M  V30 5291 N 501.076 1.04316 1.18135 0
M  V30 5292 C 502.008 0.594444 2.21357 0
M  V30 5293 C 503.021 -0.337215 1.59269 0
M  V30 5294 O 504.21 -0.131337 1.78016 0
M  V30 5295 C 501.31 -0.151251 3.38562 0
M  V30 5296 C 500.483 0.788907 4.30227 0
M  V30 5297 C 499.542 0.0860572 5.2613 0
M  V30 5298 O 498.568 0.717302 5.64662 0
M  V30 5299 N 499.77 -1.17969 5.68387 0
M  V30 5300 H 502.535 1.48227 2.60478 0
M  V30 5301 H 500.096 0.92396 1.32946 0
M  V30 5302 H 502.088 -0.631352 3.99745 0
M  V30 5303 H 500.658 -0.940639 2.98112 0
M  V30 5304 H 499.878 1.44882 3.6661 0
M  V30 5305 H 501.166 1.42738 4.88368 0
M  V30 5306 H 500.564 -1.71302 5.3914 0
M  V30 5307 H 499.121 -1.60402 6.31755 0
M  V30 5308 N 502.554 -1.34406 0.822964 0
M  V30 5309 C 503.484 -2.32052 0.259608 0
M  V30 5310 C 504.465 -1.58243 -0.623961 0
M  V30 5311 O 505.65 -1.86224 -0.55083 0
M  V30 5312 C 502.78 -3.42434 -0.579314 0
M  V30 5313 C 501.734 -4.27499 0.20712 0
M  V30 5314 C 501.06 -5.29349 -0.754547 0
M  V30 5315 C 502.36 -5.02758 1.41533 0
M  V30 5316 H 504.054 -2.79418 1.07545 0
M  V30 5317 H 501.6 -1.34338 0.518593 0
M  V30 5318 H 503.553 -4.0976 -0.983612 0
M  V30 5319 H 502.277 -2.93717 -1.4282 0
M  V30 5320 H 500.936 -3.61776 0.592787 0
M  V30 5321 H 500.584 -4.76895 -1.59939 0
M  V30 5322 H 500.284 -5.8714 -0.232561 0
M  V30 5323 H 501.808 -5.99544 -1.1567 0
M  V30 5324 H 503.222 -5.62938 1.08504 0
M  V30 5325 H 501.619 -5.70123 1.87296 0
M  V30 5326 H 502.689 -4.32451 2.1935 0
M  V30 5327 N 504.032 -0.577932 -1.46621 0
M  V30 5328 C 504.965 0.206312 -2.27265 0
M  V30 5329 C 505.943 0.901306 -1.35334 0
M  V30 5330 O 507.127 0.916151 -1.64739 0
M  V30 5331 C 504.254 1.29563 -3.1294 0
M  V30 5332 C 503.3 0.706981 -4.206 0
M  V30 5333 S 504.133 -0.462459 -5.33499 0
M  V30 5334 C 505.289 0.628171 -6.2274 0
M  V30 5335 H 505.522 -0.477961 -2.93433 0
M  V30 5336 H 503.055 -0.364715 -1.50031 0
M  V30 5337 H 505.013 1.91935 -3.62865 0
M  V30 5338 H 503.674 1.95183 -2.46095 0
M  V30 5339 H 502.867 1.52565 -4.80354 0
M  V30 5340 H 502.469 0.159022 -3.73662 0
M  V30 5341 H 504.761 1.51506 -6.60342 0
M  V30 5342 H 505.704 0.0674961 -7.08068 0
M  V30 5343 H 506.112 0.930167 -5.56784 0
M  V30 5344 N 505.51 1.54411 -0.315457 0
M  V30 5345 C 506.758 2.00023 0.288971 0
M  V30 5346 C 507.079 1.20529 1.5329 0
M  V30 5347 O 506.349 0.304986 1.93511 0
M  V30 5348 H 504.929 0.738891 0.109766 0
M  V30 5349 H 507.591 1.90094 -0.430129 0
M  V30 5350 H 506.687 3.07198 0.550999 0
M  V30 5351 N 506.988 0.0434614 1.5754 0
M  V30 5352 C 508.218 -0.640905 1.96408 0
M  V30 5353 C 508.626 -1.65365 0.919297 0
M  V30 5354 O 507.969 -1.83395 -0.105795 0
M  V30 5355 C 508.031 -1.39141 3.31482 0
M  V30 5356 C 507.695 -0.535375 4.53853 0
M  V30 5357 C 508.692 0.195335 5.19533 0
M  V30 5358 C 506.377 -0.468564 5.0011 0
M  V30 5359 C 508.371 0.981377 6.298 0
M  V30 5360 C 506.058 0.321171 6.10255 0
M  V30 5361 C 507.056 1.04484 6.74961 0
M  V30 5362 O 506.744 1.8216 7.8299 0
M  V30 5363 H 506.476 -0.180584 0.651433 0
M  V30 5364 H 509.03 0.103848 2.05137 0
M  V30 5365 H 507.26 -2.18162 3.19284 0
M  V30 5366 H 508.949 -1.96526 3.55151 0
M  V30 5367 H 509.715 0.15314 4.84758 0
M  V30 5368 H 505.594 -1.02142 4.49542 0
M  V30 5369 H 509.138 1.54674 6.80237 0
M  V30 5370 H 505.035 0.365032 6.44467 0
M  V30 5371 H 505.803 1.74289 7.99728 0
M  V30 5372 N 508.466 -1.55915 -0.229846 0
M  V30 5373 C 509.714 -1.7819 -0.953565 0
M  V30 5374 C 510.035 -0.610504 -1.85197 0
M  V30 5375 O 509.305 0.372988 -1.92316 0
M  V30 5376 H 507.885 -0.657208 -0.355087 0
M  V30 5377 H 510.547 -1.9337 -0.243693 0
M  V30 5378 H 509.643 -2.70011 -1.56527 0
M  V30 5379 N 509.944 0.496216 -1.49584 0
M  V30 5380 C 510.876 1.61404 -1.62731 0
M  V30 5381 C 511.889 1.54613 -0.50978 0
M  V30 5382 O 513.078 1.60458 -0.782017 0
M  V30 5383 C 510.178 3.00212 -1.57245 0
M  V30 5384 C 509.351 3.32138 -2.84611 0
M  V30 5385 C 508.41 4.5038 -2.72112 0
M  V30 5386 O 507.436 4.51926 -3.46051 0
M  V30 5387 N 508.638 5.50575 -1.83977 0
M  V30 5388 H 511.403 1.50552 -2.59141 0
M  V30 5389 H 508.964 0.684182 -1.46733 0
M  V30 5390 H 510.956 3.77241 -1.4653 0
M  V30 5391 H 509.526 3.04964 -0.686729 0
M  V30 5392 H 508.746 2.4396 -3.09641 0
M  V30 5393 H 510.034 3.50268 -3.69039 0
M  V30 5394 H 509.432 5.52128 -1.23171 0
M  V30 5395 H 507.989 6.26687 -1.79182 0
M  V30 5396 N 511.423 1.38739 0.74761 0
M  V30 5397 C 512.672 1.3459 1.50228 0
M  V30 5398 C 512.985 -0.0595592 1.95509 0
M  V30 5399 O 514.191 -0.22361 2.70578 0
M  V30 5400 C 512.647 2.36377 2.71393 0
M  V30 5401 C 512.255 3.82573 2.33113 0
M  V30 5402 C 513.999 2.41281 3.49262 0
M  V30 5403 C 511.906 4.76032 3.50924 0
M  V30 5404 H 510.836 0.500312 0.564096 0
M  V30 5405 H 513.487 1.64324 0.8167 0
M  V30 5406 H 511.869 1.99694 3.41962 0
M  V30 5407 H 513.043 4.28227 1.70171 0
M  V30 5408 H 511.358 3.80844 1.68365 0
M  V30 5409 H 513.955 3.08301 4.36869 0
M  V30 5410 H 514.298 1.43353 3.9084 0
M  V30 5411 H 514.831 2.76793 2.85711 0
M  V30 5412 H 511.57 5.75177 3.14408 0
M  V30 5413 H 511.09 4.35066 4.12889 0
M  V30 5414 H 512.769 4.94331 4.17427 0
M  V30 5415 N 512.901 -0.976442 1.23707 0
M  V30 5416 C 513.849 -2.09078 1.01927 0
M  V30 5417 C 514.843 -1.69345 -0.0430193 0
M  V30 5418 O 516.049 -1.79659 0.110814 0
M  V30 5419 H 512.424 -0.68398 0.312531 0
M  V30 5420 H 514.395 -2.24614 1.96447 0
M  V30 5421 C 513.144 -3.41919 0.631385 0
M  V30 5422 H 512.467 -3.72946 1.44053 0
M  V30 5423 H 513.907 -4.20817 0.518532 0
M  V30 5424 C 512.366 -3.30357 -0.660723 0
M  V30 5425 O 512.896 -3.63542 -1.70881 0
M  V30 5426 N 511.102 -2.83507 -0.638139 0
M  V30 5427 H 510.649 -2.567 0.215108 0
M  V30 5428 H 510.607 -2.76153 -1.50289 0
M  V30 5429 N 514.379 -1.04941 -1.1758 0
M  V30 5430 C 515.656 -0.671918 -1.83697 0
M  V30 5431 C 516.036 0.847929 -1.93322 0
M  V30 5432 O 515.384 1.75287 -1.46583 0
M  V30 5433 C 515.594 -1.35797 -3.21497 0
M  V30 5434 C 516.942 -1.4944 -3.97433 0
M  V30 5435 O 517.966 -1.31678 -3.30967 0
M  V30 5436 O 516.825 -1.78463 -5.1654 0
M  V30 5437 H 513.919 -0.236212 -0.792548 0
M  V30 5438 H 516.465 -1.14884 -1.24899 0
M  V30 5439 H 515.237 -2.39498 -3.09446 0
M  V30 5440 H 514.86 -0.870236 -3.8796 0
M  V30 5441 N 515.857 1.33968 -0.830081 0
M  V30 5442 C 517.105 1.97672 -0.420734 0
M  V30 5443 C 517.426 1.66111 1.02138 0
M  V30 5444 O 516.696 0.955503 1.71017 0
M  V30 5445 H 515.276 0.73125 -0.152587 0
M  V30 5446 H 517.938 1.63483 -1.0611 0
M  V30 5447 H 517.034 3.07294 -0.545588 0
M  V30 5448 N 517.335 0.585699 1.46312 0
M  V30 5449 C 518.265 -0.133556 2.33118 0
M  V30 5450 C 519.246 -0.880707 1.45525 0
M  V30 5451 O 520.431 -0.855579 1.74337 0
M  V30 5452 C 517.561 -1.14585 3.27853 0
M  V30 5453 C 516.515 -0.513341 4.2491 0
M  V30 5454 C 515.841 -1.63231 5.09175 0
M  V30 5455 C 517.141 0.551413 5.19381 0
M  V30 5456 H 518.835 0.59121 2.93505 0
M  V30 5457 H 516.381 0.285761 1.41136 0
M  V30 5458 H 518.334 -1.65741 3.87438 0
M  V30 5459 H 517.058 -1.90093 2.65579 0
M  V30 5460 H 515.717 -0.0228349 3.66593 0
M  V30 5461 H 515.365 -2.37713 4.43285 0
M  V30 5462 H 515.065 -1.21473 5.74907 0
M  V30 5463 H 516.589 -2.14658 5.71624 0
M  V30 5464 H 518.003 0.124804 5.73164 0
M  V30 5465 H 516.4 0.889486 5.93471 0
M  V30 5466 H 517.47 1.43655 4.63132 0
M  V30 5467 N 518.813 -1.54241 0.323641 0
M  V30 5468 C 519.761 -2.25813 -0.557804 0
M  V30 5469 C 520.755 -1.27225 -1.11849 0
M  V30 5470 O 521.961 -1.45001 -1.06652 0
M  V30 5471 H 518.336 -0.72532 -0.198532 0
M  V30 5472 H 520.307 -2.98322 0.0681112 0
M  V30 5473 C 519.056 -3.02913 -1.70701 0
M  V30 5474 H 518.379 -3.78593 -1.28482 0
M  V30 5475 H 519.819 -3.56238 -2.29935 0
M  V30 5476 C 518.278 -2.11217 -2.62467 0
M  V30 5477 O 518.808 -1.69508 -3.64184 0
M  V30 5478 N 517.014 -1.76704 -2.30703 0
M  V30 5479 H 516.561 -2.1082 -1.48029 0
M  V30 5480 H 516.519 -1.15631 -2.92364 0
M  V30 5481 N 520.291 -0.0518155 -1.57515 0
M  V30 5482 C 521.221 0.920283 -2.146 0
M  V30 5483 C 522.202 1.32406 -1.06783 0
M  V30 5484 O 523.387 1.39866 -1.34726 0
M  V30 5485 C 520.517 2.1949 -2.6915 0
M  V30 5486 C 519.471 1.93116 -3.81956 0
M  V30 5487 C 518.797 3.27037 -4.23026 0
M  V30 5488 C 520.097 1.25225 -5.07066 0
M  V30 5489 H 521.791 0.444801 -2.96077 0
M  V30 5490 H 519.337 0.212508 -1.42423 0
M  V30 5491 H 521.29 2.87894 -3.07725 0
M  V30 5492 H 520.014 2.69244 -1.84865 0
M  V30 5493 H 518.673 1.27123 -3.43854 0
M  V30 5494 H 518.321 3.74595 -3.3569 0
M  V30 5495 H 518.021 3.10189 -4.99056 0
M  V30 5496 H 519.545 3.96673 -4.64202 0
M  V30 5497 H 520.959 1.83666 -5.43083 0
M  V30 5498 H 519.356 1.18702 -5.88243 0
M  V30 5499 H 520.426 0.228382 -4.84362 0
M  V30 5500 N 521.769 1.56035 0.221574 0
M  V30 5501 C 523.018 1.78245 0.944016 0
M  V30 5502 C 523.331 0.620371 1.85501 0
M  V30 5503 O 524.537 0.726103 2.6161 0
M  V30 5504 C 522.993 3.15659 1.7288 0
M  V30 5505 C 522.601 4.39591 0.863942 0
M  V30 5506 C 524.345 3.47195 2.44246 0
M  V30 5507 C 522.252 5.6803 1.64607 0
M  V30 5508 H 521.182 0.664547 0.356222 0
M  V30 5509 H 523.833 1.8243 0.197904 0
M  V30 5510 H 522.215 3.0565 2.51781 0
M  V30 5511 H 523.389 4.60655 0.115464 0
M  V30 5512 H 521.704 4.15572 0.262407 0
M  V30 5513 H 524.301 4.40381 3.03263 0
M  V30 5514 H 524.644 2.69693 3.1713 0
M  V30 5515 H 525.177 3.58533 1.72334 0
M  V30 5516 H 521.916 6.48425 0.960507 0
M  V30 5517 H 521.436 5.51027 2.36917 0
M  V30 5518 H 523.115 6.08203 2.20675 0
M  V30 5519 N 523.247 -0.488276 1.49845 0
M  V30 5520 C 524.475 -1.26527 1.63702 0
M  V30 5521 C 524.89 -1.8618 0.313447 0
M  V30 5522 O 524.247 -1.68432 -0.702624 0
M  V30 5523 C 524.298 -2.3864 2.71538 0
M  V30 5524 O 524.019 -1.81437 3.98763 0
M  V30 5525 C 525.52 -3.29805 2.96215 0
M  V30 5526 H 522.74 -0.383295 0.55075 0
M  V30 5527 H 525.284 -0.584779 1.95961 0
M  V30 5528 H 523.439 -3.02496 2.42023 0
M  V30 5529 H 523.853 -2.55135 4.58265 0
M  V30 5530 H 525.327 -4.04722 3.75372 0
M  V30 5531 H 525.804 -3.87563 2.06619 0
M  V30 5532 H 526.41 -2.71703 3.27196 0
M  V30 5533 N 524.725 -1.39134 -0.740242 0
M  V30 5534 C 525.675 -1.33928 -1.84519 0
M  V30 5535 C 526.659 -0.221097 -1.59374 0
M  V30 5536 O 527.851 -0.458195 -1.70967 0
M  V30 5537 C 524.98 -1.17991 -3.22387 0
M  V30 5538 C 524.066 -2.34488 -3.53378 0
M  V30 5539 N 524.457 -3.59954 -3.5534 0
M  V30 5540 C 522.755 -2.27331 -3.83714 0
M  V30 5541 C 523.456 -4.36962 -3.83978 0
M  V30 5542 N 522.432 -3.66482 -4.01487 0
M  V30 5543 H 526.234 -2.28907 -1.84333 0
M  V30 5544 H 523.748 -1.32555 -0.938237 0
M  V30 5545 H 525.745 -1.12345 -4.01478 0
M  V30 5546 H 524.405 -0.23957 -3.23815 0
M  V30 5547 H 525.416 -3.93448 -3.36778 0
M  V30 5548 H 522.093 -1.41531 -3.92779 0
M  V30 5549 H 523.483 -5.45692 -3.92008 0
M  V30 5550 N 526.204 0.969867 -1.24223 0
M  V30 5551 C 527.154 2.04913 -0.999732 0
M  V30 5552 C 528.138 1.60795 0.0580636 0
M  V30 5553 O 529.33 1.76317 -0.155392 0
M  V30 5554 C 526.459 3.37942 -0.604154 0
M  V30 5555 C 525.545 3.88628 -1.69791 0
M  V30 5556 N 525.936 4.12274 -2.93025 0
M  V30 5557 C 524.234 4.17268 -1.57492 0
M  V30 5558 C 524.935 4.53808 -3.63914 0
M  V30 5559 N 523.911 4.58855 -2.91468 0
M  V30 5560 H 527.713 2.21168 -1.93551 0
M  V30 5561 H 525.227 1.15349 -1.14317 0
M  V30 5562 H 527.224 4.14863 -0.411665 0
M  V30 5563 H 525.884 3.23075 0.324465 0
M  V30 5564 H 526.895 3.99789 -3.29225 0
M  V30 5565 H 523.572 4.11346 -0.714175 0
M  V30 5566 H 524.962 4.80534 -4.69614 0
M  V30 5567 N 527.682 1.05563 1.17022 0
M  V30 5568 C 528.907 0.788437 1.91829 0
M  V30 5569 C 529.332 -0.650356 1.76499 0
M  V30 5570 O 528.69 -1.45229 1.08527 0
M  V30 5571 C 528.738 1.1786 3.40795 0
M  V30 5572 O 527.842 0.312965 4.11211 0
M  V30 5573 H 527.183 0.288794 0.597908 0
M  V30 5574 H 529.713 1.40948 1.48307 0
M  V30 5575 H 529.723 1.14697 3.91546 0
M  V30 5576 H 528.398 2.22666 3.51273 0
M  V30 5577 H 526.975 0.405515 3.70689 0
M  V30 5578 N 529.16 -1.33526 0.837174 0
M  V30 5579 C 530.123 -2.27551 0.274421 0
M  V30 5580 C 531.123 -1.50886 -0.555881 0
M  V30 5581 O 532.313 -1.70227 -0.369918 0
M  V30 5582 C 529.445 -3.35332 -0.613605 0
M  V30 5583 H 530.638 -2.78837 1.10408 0
M  V30 5584 H 528.191 -1.439 0.610126 0
M  V30 5585 H 528.926 -2.89285 -1.46577 0
M  V30 5586 H 528.711 -3.92095 -0.0195341 0
M  V30 5587 H 530.201 -4.05433 -1.00068 0
M  V30 5588 N 530.638 -0.59345 -1.46 0
M  V30 5589 C 532.054 -0.255965 -1.57534 0
M  V30 5590 C 532.254 1.24167 -1.58697 0
M  V30 5591 O 531.31 2.02398 -1.50968 0
M  V30 5592 C 532.623 -0.91466 -2.86451 0
M  V30 5593 C 534.171 -0.889253 -3.00102 0
M  V30 5594 C 534.646 -1.52769 -4.3177 0
M  V30 5595 N 536.137 -1.49253 -4.38495 0
M  V30 5596 C 536.872 -1.9558 -5.39014 0
M  V30 5597 N 536.368 -2.49929 -6.46148 0
M  V30 5598 N 538.161 -1.86432 -5.30282 0
M  V30 5599 H 530.312 -1.56604 -1.43489 0
M  V30 5600 H 532.575 -0.655207 -0.685133 0
M  V30 5601 H 532.281 -1.96861 -2.91442 0
M  V30 5602 H 532.155 -0.429356 -3.74748 0
M  V30 5603 H 534.542 0.156111 -2.94687 0
M  V30 5604 H 534.623 -1.41268 -2.13253 0
M  V30 5605 H 534.267 -2.57231 -4.37944 0
M  V30 5606 H 534.197 -0.979398 -5.17412 0
M  V30 5607 H 536.688 -1.09536 -3.61677 0
M  V30 5608 H 537.001 -2.83109 -7.19075 0
M  V30 5609 H 535.346 -2.53961 -6.46938 0
M  V30 5610 H 538.537 -1.43722 -4.4549 0
M  V30 5611 H 538.71 -2.22852 -6.08474 0
M  V30 5612 N 532.116 1.54067 -0.331816 0
M  V30 5613 C 533.344 2.05131 0.269996 0
M  V30 5614 C 533.759 1.20749 1.45138 0
M  V30 5615 O 533.116 0.240069 1.80914 0
M  V30 5616 C 533.167 3.54728 0.696456 0
M  V30 5617 O 532.888 4.35906 -0.43794 0
M  V30 5618 C 534.389 4.21916 1.36021 0
M  V30 5619 H 531.609 0.668807 0.0542042 0
M  V30 5620 H 534.153 1.98777 -0.4804 0
M  V30 5621 H 532.308 3.61342 1.39681 0
M  V30 5622 H 532.722 5.24404 -0.100334 0
M  V30 5623 H 534.196 5.28015 1.60947 0
M  V30 5624 H 534.673 3.73538 2.31011 0
M  V30 5625 H 535.279 4.19463 0.702212 0
M  V30 5626 N 533.594 0.0601682 1.57485 0
M  V30 5627 C 534.524 -0.90889 2.15085 0
M  V30 5628 C 535.505 -1.31838 1.07484 0
M  V30 5629 O 536.69 -1.3915 1.35466 0
M  V30 5630 C 533.82 -2.18059 2.7031 0
M  V30 5631 C 532.774 -1.91088 3.82974 0
M  V30 5632 C 532.1 -3.24789 4.24754 0
M  V30 5633 C 533.4 -1.22535 5.07723 0
M  V30 5634 H 535.094 -0.429093 2.96309 0
M  V30 5635 H 532.64 -0.204952 1.42534 0
M  V30 5636 H 534.593 -2.86258 3.09248 0
M  V30 5637 H 533.317 -2.6826 1.8629 0
M  V30 5638 H 531.976 -1.25297 3.44523 0
M  V30 5639 H 531.624 -3.72809 3.37672 0
M  V30 5640 H 531.324 -3.07538 5.00694 0
M  V30 5641 H 532.848 -3.94205 4.66299 0
M  V30 5642 H 534.262 -1.80783 5.4405 0
M  V30 5643 H 532.659 -1.1558 5.88864 0
M  V30 5644 H 533.729 -0.202692 4.84476 0
M  V30 5645 N 535.072 -1.5615 -0.213296 0
M  V30 5646 C 536.02 -1.93953 -1.28394 0
M  V30 5647 C 537.014 -0.822592 -1.48087 0
M  V30 5648 O 538.22 -1.00748 -1.49164 0
M  V30 5649 H 534.595 -0.61648 -0.430646 0
M  V30 5650 H 536.566 -2.83275 -0.937977 0
M  V30 5651 C 535.315 -2.27969 -2.62537 0
M  V30 5652 H 534.638 -3.13432 -2.48194 0
M  V30 5653 H 536.078 -2.58297 -3.36242 0
M  V30 5654 C 534.537 -1.10775 -3.18167 0
M  V30 5655 O 535.067 -0.373201 -3.99963 0
M  V30 5656 N 533.273 -0.889377 -2.76656 0
M  V30 5657 H 532.82 -1.48843 -2.10246 0
M  V30 5658 H 532.778 -0.107 -3.14218 0
M  V30 5659 N 536.55 0.480323 -1.50102 0
M  V30 5660 C 537.48 1.58769 -1.71215 0
M  V30 5661 C 538.461 1.60583 -0.560997 0
M  V30 5662 O 539.646 1.76996 -0.799127 0
M  V30 5663 C 536.776 2.97148 -1.79778 0
M  V30 5664 C 535.73 3.10201 -2.94888 0
M  V30 5665 C 535.056 4.50137 -2.88584 0
M  V30 5666 C 536.356 2.88283 -4.35534 0
M  V30 5667 H 538.05 1.41354 -2.6393 0
M  V30 5668 H 535.596 0.678591 -1.27008 0
M  V30 5669 H 537.549 3.74536 -1.93133 0
M  V30 5670 H 536.273 3.15699 -0.836772 0
M  V30 5671 H 534.932 2.35244 -2.81169 0
M  V30 5672 H 534.58 4.65593 -1.90349 0
M  V30 5673 H 534.28 4.59808 -3.65856 0
M  V30 5674 H 535.804 5.29558 -3.03976 0
M  V30 5675 H 537.218 3.55427 -4.49827 0
M  V30 5676 H 535.615 3.09408 -5.14186 0
M  V30 5677 H 536.685 1.84219 -4.48544 0
M  V30 5678 N 538.028 1.39524 0.732853 0
M  V30 5679 C 538.96 1.34318 1.85718 0
M  V30 5680 C 539.973 0.251576 1.60844 0
M  V30 5681 O 541.162 0.510685 1.71039 0
M  V30 5682 C 538.262 1.06334 3.21786 0
M  V30 5683 C 537.435 2.26813 3.73998 0
M  V30 5684 C 536.494 1.95253 4.88634 0
M  V30 5685 O 535.52 2.67957 5.02183 0
M  V30 5686 N 536.722 0.919984 5.73164 0
M  V30 5687 H 539.487 2.3121 1.90688 0
M  V30 5688 H 537.048 1.33654 0.91368 0
M  V30 5689 H 539.04 0.832363 3.96048 0
M  V30 5690 H 537.61 0.181682 3.12072 0
M  V30 5691 H 536.83 2.65849 2.91064 0
M  V30 5692 H 538.118 3.0717 4.05616 0
M  V30 5693 H 537.516 0.317487 5.64808 0
M  V30 5694 H 536.073 0.748905 6.47483 0
M  V30 5695 N 539.506 -0.963266 1.24736 0
M  V30 5696 C 540.783 -1.68248 0.9976 0
M  V30 5697 C 541.163 -2.05599 -0.478776 0
M  V30 5698 O 540.511 -1.7626 -1.45412 0
M  V30 5699 C 540.721 -2.91118 1.92487 0
M  V30 5700 C 542.069 -3.63261 2.19833 0
M  V30 5701 O 543.093 -3.01184 1.90176 0
M  V30 5702 O 541.952 -4.75019 2.7022 0
M  V30 5703 H 539.046 -0.735744 0.377637 0
M  V30 5704 H 541.592 -1.01696 1.35853 0
M  V30 5705 H 540.364 -2.60242 2.92215 0
M  V30 5706 H 539.987 -3.65402 1.56738 0
M  V30 5707 N 540.985 -1.06182 -1.16461 0
M  V30 5708 C 542.215 -0.797425 -1.9059 0
M  V30 5709 C 542.623 0.651845 -1.77616 0
M  V30 5710 O 541.966 1.45788 -1.11766 0
M  V30 5711 C 542.028 -1.11128 -3.41893 0
M  V30 5712 C 541.692 -2.55874 -3.78652 0
M  V30 5713 C 542.689 -3.54104 -3.80665 0
M  V30 5714 C 540.374 -2.91144 -4.09317 0
M  V30 5715 C 542.368 -4.85645 -4.12829 0
M  V30 5716 C 540.055 -4.22885 -4.41148 0
M  V30 5717 C 541.053 -5.19945 -4.42883 0
M  V30 5718 O 540.741 -6.49322 -4.73959 0
M  V30 5719 H 540.473 -0.288709 -0.611247 0
M  V30 5720 H 543.027 -1.41841 -1.4856 0
M  V30 5721 H 541.257 -0.433217 -3.84266 0
M  V30 5722 H 542.946 -0.831306 -3.97296 0
M  V30 5723 H 543.712 -3.28197 -3.57088 0
M  V30 5724 H 539.591 -2.16252 -4.07131 0
M  V30 5725 H 543.135 -5.61398 -4.14099 0
M  V30 5726 H 539.032 -4.48551 -4.6419 0
M  V30 5727 H 539.8 -6.54294 -4.91774 0
M  V30 5728 N 542.463 1.3308 -0.844243 0
M  V30 5729 C 543.711 1.97215 -0.441676 0
M  V30 5730 C 544.032 1.67185 1.0037 0
M  V30 5731 O 543.302 0.973588 1.69994 0
M  V30 5732 H 541.882 0.72959 -0.160335 0
M  V30 5733 H 544.544 1.62348 -1.07838 0
M  V30 5734 H 543.64 3.06698 -0.57815 0
M  V30 5735 N 543.941 0.601185 1.45683 0
M  V30 5736 C 545.19 0.0914953 2.01492 0
M  V30 5737 C 545.503 -1.28331 1.47616 0
M  V30 5738 O 546.709 -1.88537 1.95362 0
M  V30 5739 C 545.165 0.11291 3.59723 0
M  V30 5740 C 544.773 1.48717 4.22596 0
M  V30 5741 C 546.517 -0.341871 4.23121 0
M  V30 5742 C 544.424 1.46531 5.7296 0
M  V30 5743 H 543.354 0.0304365 0.753385 0
M  V30 5744 H 546.005 0.755568 1.67223 0
M  V30 5745 H 544.387 -0.617692 3.91153 0
M  V30 5746 H 545.561 2.23897 4.02749 0
M  V30 5747 H 543.876 1.88351 3.71366 0
M  V30 5748 H 546.473 -0.377304 5.33367 0
M  V30 5749 H 546.816 -1.36325 3.93346 0
M  V30 5750 H 547.349 0.335256 3.96385 0
M  V30 5751 H 544.088 2.46408 6.07423 0
M  V30 5752 H 543.608 0.755997 5.95017 0
M  V30 5753 H 545.287 1.18618 6.36034 0
M  V30 5754 N 545.419 -1.53889 0.339982 0
M  V30 5755 C 546.382 -2.23547 -0.50592 0
M  V30 5756 C 547.382 -1.23445 -1.03044 0
M  V30 5757 O 548.572 -1.47909 -0.920253 0
M  V30 5758 C 545.704 -2.95234 -1.7044 0
M  V30 5759 H 546.897 -2.99722 0.103247 0
M  V30 5760 H 544.45 -1.56033 0.0912804 0
M  V30 5761 H 545.185 -2.23236 -2.35236 0
M  V30 5762 H 544.97 -3.68654 -1.33553 0
M  V30 5763 H 546.46 -3.48258 -2.30447 0
M  V30 5764 N 546.897 -0.0685191 -1.57451 0
M  V30 5765 C 547.86 0.885173 -2.11417 0
M  V30 5766 C 548.86 1.22853 -1.03748 0
M  V30 5767 O 550.05 1.16235 -1.2975 0
M  V30 5768 C 547.182 2.18964 -2.61281 0
M  V30 5769 H 548.375 0.417034 -2.96986 0
M  V30 5770 H 545.928 0.18014 -1.55258 0
M  V30 5771 H 546.663 2.70321 -1.79156 0
M  V30 5772 H 546.448 1.9534 -3.39977 0
M  V30 5773 H 547.938 2.87242 -3.0312 0
M  V30 5774 N 548.375 1.56261 0.205012 0
M  V30 5775 C 549.623 1.79684 0.925096 0
M  V30 5776 C 549.944 0.63989 1.84202 0
M  V30 5777 O 549.214 -0.342345 1.92885 0
M  V30 5778 H 547.794 0.662774 0.344587 0
M  V30 5779 H 550.456 1.93734 0.212899 0
M  V30 5780 H 549.552 2.72467 1.52211 0
M  V30 5781 N 549.853 -0.472356 1.50355 0
M  V30 5782 C 550.801 -1.59126 1.69651 0
M  V30 5783 C 551.795 -1.59793 0.56237 0
M  V30 5784 O 553.001 -1.63957 0.742832 0
M  V30 5785 H 549.376 -0.528008 0.535454 0
M  V30 5786 H 551.347 -1.40013 2.63513 0
M  V30 5787 C 550.096 -2.97075 1.8067 0
M  V30 5788 H 549.419 -2.9728 2.67329 0
M  V30 5789 H 550.859 -3.74825 1.98197 0
M  V30 5790 C 549.318 -3.32247 0.558016 0
M  V30 5791 O 549.848 -4.00553 -0.303399 0
M  V30 5792 N 548.054 -2.87659 0.412415 0
M  V30 5793 H 547.601 -2.32246 1.11443 0
M  V30 5794 H 547.559 -3.11556 -0.421908 0
M  V30 5795 N 551.331 -1.39911 -0.725443 0
M  V30 5796 C 552.556 -1.41137 -1.5197 0
M  V30 5797 C 552.981 -0.010262 -1.88097 0
M  V30 5798 O 552.339 0.979184 -1.52583 0
M  V30 5799 C 552.387 -2.2994 -2.77777 0
M  V30 5800 O 551.491 -1.73586 -3.74088 0
M  V30 5801 H 550.832 -0.480219 -0.458569 0
M  V30 5802 H 553.362 -1.84023 -0.894249 0
M  V30 5803 H 553.372 -2.44785 -3.26411 0
M  V30 5804 H 552.047 -3.31759 -2.50816 0
M  V30 5805 H 550.624 -1.68035 -3.32894 0
M  V30 5806 N 552.809 0.956637 -1.25245 0
M  V30 5807 C 553.772 2.03457 -1.05537 0
M  V30 5808 C 554.772 1.60798 -0.00886317 0
M  V30 5809 O 555.962 1.72384 -0.250865 0
M  V30 5810 C 553.094 3.35543 -0.601965 0
M  V30 5811 H 554.287 2.22372 -2.01223 0
M  V30 5812 H 551.84 1.13344 -1.07623 0
M  V30 5813 H 552.575 3.22323 0.357584 0
M  V30 5814 H 552.36 3.67854 -1.35743 0
M  V30 5815 H 553.85 4.14769 -0.485454 0
M  V30 5816 N 554.287 1.06798 1.15896 0
M  V30 5817 C 555.235 0.677525 2.22514 0
M  V30 5818 C 556.229 -0.308994 1.66558 0
M  V30 5819 O 557.435 -0.173308 1.79164 0
M  V30 5820 H 553.81 0.200994 0.724642 0
M  V30 5821 H 555.781 1.5865 2.52731 0
M  V30 5822 C 554.53 0.0854153 3.47595 0
M  V30 5823 H 553.853 0.835645 3.90969 0
M  V30 5824 H 555.293 -0.150199 4.23734 0
M  V30 5825 C 553.752 -1.1724 3.15843 0
M  V30 5826 O 554.282 -2.25965 3.32119 0
M  V30 5827 N 552.488 -1.07636 2.69931 0
M  V30 5828 H 552.035 -0.191559 2.56887 0
M  V30 5829 H 551.993 -1.91876 2.4906 0
M  V30 5830 N 555.766 -1.3263 0.851289 0
M  V30 5831 C 556.696 -2.31449 0.308771 0
M  V30 5832 C 557.677 -1.59531 -0.590255 0
M  V30 5833 O 558.862 -1.87351 -0.511205 0
M  V30 5834 C 555.992 -3.43586 -0.506548 0
M  V30 5835 C 554.946 -4.26963 0.297753 0
M  V30 5836 C 554.272 -5.30831 -0.642094 0
M  V30 5837 C 555.572 -4.99643 1.52166 0
M  V30 5838 H 557.266 -2.77074 1.13447 0
M  V30 5839 H 554.812 -1.33207 0.546971 0
M  V30 5840 H 556.765 -4.11754 -0.896474 0
M  V30 5841 H 555.489 -2.96681 -1.36558 0
M  V30 5842 H 554.148 -3.60437 0.669391 0
M  V30 5843 H 553.796 -4.8018 -1.49788 0
M  V30 5844 H 553.496 -5.87501 -0.107968 0
M  V30 5845 H 555.02 -6.01862 -1.02927 0
M  V30 5846 H 556.434 -5.6051 1.20421 0
M  V30 5847 H 554.831 -5.66022 1.99347 0
M  V30 5848 H 555.901 -4.27701 2.28474 0
M  V30 5849 N 557.244 -0.608902 -1.45362 0
M  V30 5850 C 558.493 -0.10218 -2.01441 0
M  V30 5851 C 558.806 1.27546 -1.48295 0
M  V30 5852 O 560.012 1.87498 -1.96359 0
M  V30 5853 C 558.468 -0.131985 -3.59658 0
M  V30 5854 C 558.076 -1.50956 -4.21801 0
M  V30 5855 C 559.82 0.319427 -4.23296 0
M  V30 5856 C 557.727 -1.49568 -5.72174 0
M  V30 5857 H 556.657 -0.0344314 -0.753213 0
M  V30 5858 H 559.308 -0.764426 -1.6682 0
M  V30 5859 H 557.69 0.596939 -3.91475 0
M  V30 5860 H 558.864 -2.26029 -4.01556 0
M  V30 5861 H 557.179 -1.90318 -3.70362 0
M  V30 5862 H 559.776 0.349013 -5.3356 0
M  V30 5863 H 560.119 1.34237 -3.94064 0
M  V30 5864 H 560.652 -0.356273 -3.96201 0
M  V30 5865 H 557.391 -2.49626 -6.06108 0
M  V30 5866 H 556.911 -0.787542 -5.94607 0
M  V30 5867 H 558.59 -1.21989 -6.35396 0
M  V30 5868 N 558.722 1.53707 -0.348139 0
M  V30 5869 C 559.971 2.0017 0.247992 0
M  V30 5870 C 560.284 1.23983 1.51286 0
M  V30 5871 O 561.49 1.60946 2.18652 0
M  V30 5872 C 559.946 3.56515 0.492459 0
M  V30 5873 C 559.554 4.41562 -0.756777 0
M  V30 5874 C 561.298 4.11381 1.0472 0
M  V30 5875 C 559.205 5.89426 -0.482856 0
M  V30 5876 H 558.135 0.747806 0.0964452 0
M  V30 5877 H 560.786 1.77532 -0.464179 0
M  V30 5878 H 559.168 3.75236 1.26545 0
M  V30 5879 H 560.342 4.34615 -1.53122 0
M  V30 5880 H 558.657 3.97711 -1.23348 0
M  V30 5881 H 561.254 5.19468 1.26717 0
M  V30 5882 H 561.597 3.64885 2.00411 0
M  V30 5883 H 562.13 3.96389 0.334801 0
M  V30 5884 H 558.869 6.40164 -1.40962 0
M  V30 5885 H 558.389 5.99264 0.253416 0
M  V30 5886 H 560.068 6.4692 -0.101816 0
M  V30 5887 N 560.2 0.0768682 1.57412 0
M  V30 5888 C 561.13 -0.886026 2.16037 0
M  V30 5889 C 562.111 -1.30691 1.08876 0
M  V30 5890 O 563.296 -1.37705 1.36934 0
M  V30 5891 C 560.426 -2.1518 2.72608 0
M  V30 5892 C 559.38 -1.87015 3.8498 0
M  V30 5893 C 558.706 -3.20266 4.28175 0
M  V30 5894 C 560.006 -1.17143 5.08994 0
M  V30 5895 H 561.7 -0.397642 2.96748 0
M  V30 5896 H 559.246 -0.189823 1.42743 0
M  V30 5897 H 561.199 -2.82962 3.12266 0
M  V30 5898 H 559.923 -2.66269 1.89125 0
M  V30 5899 H 558.582 -1.21636 3.45833 0
M  V30 5900 H 558.23 -3.69207 3.41607 0
M  V30 5901 H 557.93 -3.0221 5.03927 0
M  V30 5902 H 559.454 -3.89237 4.70454 0
M  V30 5903 H 560.868 -1.75003 5.45937 0
M  V30 5904 H 559.265 -1.09328 5.90057 0
M  V30 5905 H 560.335 -0.151295 4.84664 0
M  V30 5906 N 561.678 -1.56367 -0.196722 0
M  V30 5907 C 563.089 -1.70462 -0.761545 0
M  V30 5908 C 563.44 -0.683161 -1.83922 0
M  V30 5909 O 562.565 0.160753 -2.15802 0
M  V30 5910 C 563.16 -3.09057 -1.38814 0
M  V30 5911 C 561.719 -3.24922 -1.90007 0
M  V30 5912 C 560.866 -2.66412 -0.769399 0
M  V30 5913 H 563.817 -1.58675 0.0283263 0
M  V30 5914 H 563.838 -3.06296 -2.2575 0
M  V30 5915 H 563.35 -3.83378 -0.603559 0
M  V30 5916 H 561.451 -2.55514 -2.71189 0
M  V30 5917 H 561.564 -4.3241 -2.06297 0
M  V30 5918 H 559.928 -2.25546 -1.18326 0
M  V30 5919 H 560.711 -3.433 0.00291773 0
M  V30 5920 N 563.156 0.464375 -1.50603 0
M  V30 5921 C 564.119 1.54393 -1.69397 0
M  V30 5922 C 565.119 1.50566 -0.564504 0
M  V30 5923 O 566.309 1.53066 -0.831645 0
M  V30 5924 C 563.441 2.9401 -1.72543 0
M  V30 5925 H 564.634 1.39044 -2.65719 0
M  V30 5926 H 562.187 0.69122 -1.40185 0
M  V30 5927 H 562.922 3.14795 -0.77938 0
M  V30 5928 H 562.707 2.98195 -2.54602 0
M  V30 5929 H 564.197 3.72375 -1.89015 0
M  V30 5930 N 564.634 1.40294 0.718013 0
M  V30 5931 C 565.544 1.42678 1.86226 0
M  V30 5932 C 566.56 0.319655 1.71039 0
M  V30 5933 O 567.736 0.563852 1.93346 0
M  V30 5934 C 564.801 1.2852 3.21999 0
M  V30 5935 C 563.862 2.49354 3.49458 0
M  V30 5936 C 563.095 2.35863 4.78753 0
M  V30 5937 O 563.318 1.37114 5.53675 0
M  V30 5938 O 562.252 3.25189 5.06494 0
M  V30 5939 H 566.078 2.39167 1.87171 0
M  V30 5940 H 563.663 1.2159 0.868112 0
M  V30 5941 H 565.545 1.22824 4.03103 0
M  V30 5942 H 564.22 0.351359 3.21787 0
M  V30 5943 H 563.127 2.60628 2.68373 0
M  V30 5944 H 564.46 3.41491 3.54464 0
M  V30 5945 N 566.112 -0.949982 1.2575 0
M  V30 5946 C 567.06 -2.06869 1.06339 0
M  V30 5947 C 568.054 -1.69399 -0.00708901 0
M  V30 5948 O 569.26 -1.79383 0.148897 0
M  V30 5949 H 565.635 -0.677197 0.326969 0
M  V30 5950 H 567.606 -2.20396 2.01167 0
M  V30 5951 C 566.355 -3.40503 0.703769 0
M  V30 5952 H 565.678 -3.69807 1.51931 0
M  V30 5953 H 567.118 -4.19623 0.607677 0
M  V30 5954 C 565.577 -3.31685 -0.5905 0
M  V30 5955 O 566.107 -3.67085 -1.63131 0
M  V30 5956 N 564.313 -2.84797 -0.577859 0
M  V30 5957 H 563.86 -2.56186 0.26951 0
M  V30 5958 H 563.818 -2.79279 -1.44398 0
M  V30 5959 N 567.59 -1.07411 -1.15328 0
M  V30 5960 C 568.838 -0.796073 -1.85761 0
M  V30 5961 C 569.159 0.679864 -1.82764 0
M  V30 5962 O 568.429 1.49242 -1.269 0
M  V30 5963 H 567.009 -0.291495 -0.687779 0
M  V30 5964 H 569.671 -1.35799 -1.39802 0
M  V30 5965 H 568.767 -1.13114 -2.90881 0
M  V30 5966 N 569.068 1.32177 -0.85831 0
M  V30 5967 C 570.315 1.97125 -0.463484 0
M  V30 5968 C 570.643 1.67907 0.981705 0
M  V30 5969 O 569.898 0.961717 1.70439 0
M  V30 5970 C 570.197 3.51372 -0.653658 0
M  V30 5971 C 569.863 4.00584 -2.06987 0
M  V30 5972 C 568.525 4.13733 -2.4572 0
M  V30 5973 C 570.877 4.26624 -2.99402 0
M  V30 5974 C 568.205 4.50268 -3.76132 0
M  V30 5975 C 570.557 4.64618 -4.29316 0
M  V30 5976 C 569.221 4.75975 -4.67979 0
M  V30 5977 H 568.491 0.72133 -0.169601 0
M  V30 5978 H 571.138 1.57517 -1.08907 0
M  V30 5979 H 569.443 3.91761 0.0551328 0
M  V30 5980 H 571.14 3.99655 -0.328163 0
M  V30 5981 H 567.73 3.90837 -1.75911 0
M  V30 5982 H 571.914 4.1597 -2.70708 0
M  V30 5983 H 567.17 4.57256 -4.05865 0
M  V30 5984 H 571.344 4.83722 -5.00985 0
M  V30 5985 H 568.971 5.04041 -5.69076 0
M  V30 5986 N 570.547 0.616602 1.45037 0
M  V30 5987 C 571.824 0.0469086 1.95544 0
M  V30 5988 C 572.204 -1.42345 1.55888 0
M  V30 5989 O 571.552 -2.13055 0.825824 0
M  V30 5990 C 571.762 0.254489 3.48071 0
M  V30 5991 C 573.11 0.140025 4.24369 0
M  V30 5992 O 574.134 0.185084 3.55719 0
M  V30 5993 O 572.993 0.0327034 5.4649 0
M  V30 5994 H 570.087 -0.0306051 0.826433 0
M  V30 5995 H 572.633 0.687293 1.55159 0
M  V30 5996 H 571.405 1.27532 3.69934 0
M  V30 5997 H 571.028 -0.42073 3.95368 0
M  V30 5998 N 572.025 -1.5352 0.356285 0
M  V30 5999 C 572.988 -2.24071 -0.482182 0
M  V30 6000 C 573.988 -1.24531 -1.01729 0
M  V30 6001 O 575.178 -1.48876 -0.904513 0
M  V30 6002 C 572.31 -2.97025 -1.67299 0
M  V30 6003 H 573.503 -2.99596 0.135031 0
M  V30 6004 H 571.056 -1.55928 0.107825 0
M  V30 6005 H 571.791 -2.25719 -2.32855 0
M  V30 6006 H 571.576 -3.7005 -1.29636 0
M  V30 6007 H 573.066 -3.50683 -2.26741 0
M  V30 6008 N 573.503 -0.0852151 -1.57369 0
M  V30 6009 C 574.433 0.874556 -2.16503 0
M  V30 6010 C 575.414 1.30111 -1.09568 0
M  V30 6011 O 576.599 1.36977 -1.37662 0
M  V30 6012 C 573.729 2.13731 -2.73745 0
M  V30 6013 C 572.683 1.84971 -3.85966 0
M  V30 6014 C 572.009 3.17991 -4.29867 0
M  V30 6015 C 573.309 1.14442 -5.09608 0
M  V30 6016 H 575.003 0.381899 -2.96954 0
M  V30 6017 H 572.549 0.18225 -1.42842 0
M  V30 6018 H 574.502 2.81302 -3.13763 0
M  V30 6019 H 573.226 2.65263 -1.90534 0
M  V30 6020 H 571.885 1.19801 -3.46473 0
M  V30 6021 H 571.533 3.6739 -3.4356 0
M  V30 6022 H 571.233 2.99534 -5.05523 0
M  V30 6023 H 572.757 3.86737 -4.72511 0
M  V30 6024 H 574.171 1.72105 -5.46857 0
M  V30 6025 H 572.568 1.06197 -5.90629 0
M  V30 6026 H 573.638 0.12559 -4.84737 0
M  V30 6027 N 574.981 1.5647 0.188427 0
M  V30 6028 C 576.397 1.50204 0.539532 0
M  V30 6029 C 576.597 0.78644 1.85519 0
M  V30 6030 O 575.653 0.339714 2.50204 0
M  V30 6031 C 576.966 2.94893 0.588103 0
M  V30 6032 C 578.514 3.05602 0.67648 0
M  V30 6033 C 578.989 4.51716 0.756101 0
M  V30 6034 N 580.48 4.55894 0.819451 0
M  V30 6035 C 581.215 5.66272 0.90134 0
M  V30 6036 N 580.711 6.86323 0.945118 0
M  V30 6037 N 582.504 5.54201 0.939043 0
M  V30 6038 H 574.655 2.01406 -0.674493 0
M  V30 6039 H 576.918 0.916828 -0.241103 0
M  V30 6040 H 576.624 3.50334 -0.309633 0
M  V30 6041 H 576.498 3.4861 1.44051 0
M  V30 6042 H 578.885 2.50206 1.56465 0
M  V30 6043 H 578.966 2.54999 -0.202262 0
M  V30 6044 H 578.61 5.07739 -0.12774 0
M  V30 6045 H 578.54 5.00058 1.65074 0
M  V30 6046 H 581.031 3.69452 0.794594 0
M  V30 6047 H 581.344 7.66194 1.0083 0
M  V30 6048 H 579.689 6.88968 0.913683 0
M  V30 6049 H 582.88 4.59333 0.901725 0
M  V30 6050 H 583.053 6.40247 0.999402 0
M  V30 6051 N 576.459 -0.456382 1.50847 0
M  V30 6052 C 577.875 -0.791345 1.386 0
M  V30 6053 C 578.075 -1.9633 0.453498 0
M  V30 6054 O 577.131 -2.52308 -0.0984353 0
M  V30 6055 C 578.444 -1.08959 2.80265 0
M  V30 6056 C 579.992 -1.19517 2.89283 0
M  V30 6057 C 580.467 -1.52647 4.31814 0
M  V30 6058 N 581.958 -1.59609 4.34832 0
M  V30 6059 C 582.693 -1.86777 5.42127 0
M  V30 6060 N 582.189 -2.11866 6.59609 0
M  V30 6061 N 583.982 -1.88402 5.29586 0
M  V30 6062 H 576.133 0.315746 2.1004 0
M  V30 6063 H 578.396 0.0787916 0.94472 0
M  V30 6064 H 578.102 -0.301355 3.50407 0
M  V30 6065 H 577.976 -2.02211 3.18419 0
M  V30 6066 H 580.363 -1.97406 2.19351 0
M  V30 6067 H 580.444 -0.242111 2.54652 0
M  V30 6068 H 580.088 -0.752922 5.02288 0
M  V30 6069 H 580.018 -2.49127 4.63943 0
M  V30 6070 H 582.509 -1.42201 3.50125 0
M  V30 6071 H 582.822 -2.31912 7.37182 0
M  V30 6072 H 581.167 -2.09228 6.62758 0
M  V30 6073 H 584.358 -1.68307 4.36795 0
M  V30 6074 H 584.531 -2.09238 6.13289 0
M  V30 6075 N 577.937 -1.40673 -0.710563 0
M  V30 6076 C 578.869 -1.37256 -1.83558 0
M  V30 6077 C 579.882 -0.277133 -1.60424 0
M  V30 6078 O 581.071 -0.537831 -1.70205 0
M  V30 6079 C 578.171 -1.1144 -3.20054 0
M  V30 6080 C 577.344 -2.32734 -3.70342 0
M  V30 6081 C 576.403 -2.03002 -4.85465 0
M  V30 6082 O 575.429 -2.75912 -4.97857 0
M  V30 6083 N 576.631 -1.01105 -5.71627 0
M  V30 6084 H 579.396 -2.34215 -1.86985 0
M  V30 6085 H 576.957 -1.35091 -0.892301 0
M  V30 6086 H 578.949 -0.895265 -3.94673 0
M  V30 6087 H 577.519 -0.231307 -3.11743 0
M  V30 6088 H 576.739 -2.70446 -2.86798 0
M  V30 6089 H 578.027 -3.13584 -4.00678 0
M  V30 6090 H 577.425 -0.407303 -5.64232 0
M  V30 6091 H 575.982 -0.85182 -6.4621 0
M  V30 6092 N 579.415 0.9433 -1.26252 0
M  V30 6093 C 580.661 1.69175 -1.11837 0
M  V30 6094 C 580.994 1.91238 0.337891 0
M  V30 6095 O 580.269 1.49152 1.24836 0
M  V30 6096 C 580.552 3.06783 -1.88563 0
M  V30 6097 C 580.405 2.9206 -3.42083 0
M  V30 6098 C 581.724 4.06865 -1.67776 0
M  V30 6099 H 578.843 0.61399 -0.407658 0
M  V30 6100 H 581.485 1.09572 -1.55222 0
M  V30 6101 H 579.635 3.57663 -1.51689 0
M  V30 6102 H 581.307 2.48419 -3.88698 0
M  V30 6103 H 579.55 2.27731 -3.69217 0
M  V30 6104 H 580.221 3.89651 -3.90994 0
M  V30 6105 H 582.697 3.64939 -1.99897 0
M  V30 6106 H 581.573 5.01168 -2.23879 0
M  V30 6107 H 581.834 4.37705 -0.621816 0
M  V30 6108 N 580.893 1.08022 1.14757 0
M  V30 6109 C 582.304 0.829144 1.67279 0
M  V30 6110 C 582.655 -0.644721 1.85305 0
M  V30 6111 O 581.78 -1.49838 1.56133 0
M  V30 6112 C 582.375 1.49855 3.03857 0
M  V30 6113 C 580.934 1.29482 3.53428 0
M  V30 6114 C 580.081 1.56386 2.28995 0
M  V30 6115 H 583.032 1.24134 0.988762 0
M  V30 6116 H 583.053 0.923572 3.69121 0
M  V30 6117 H 582.565 2.57123 2.90705 0
M  V30 6118 H 580.666 0.242669 3.71809 0
M  V30 6119 H 580.779 2.01974 4.34446 0
M  V30 6120 H 579.143 0.985217 2.34874 0
M  V30 6121 H 579.926 2.64851 2.18423 0
M  V30 6122 N 582.371 -1.3172 0.865308 0
M  V30 6123 C 583.617 -1.97168 0.474633 0
M  V30 6124 C 583.95 -1.68263 -0.969604 0
M  V30 6125 O 583.225 -0.976588 -1.68205 0
M  V30 6126 C 583.508 -3.52689 0.726808 0
M  V30 6127 C 583.361 -3.91185 2.22024 0
M  V30 6128 C 584.68 -4.39689 0.190201 0
M  V30 6129 H 581.799 -0.716185 0.17392 0
M  V30 6130 H 584.441 -1.55925 1.08569 0
M  V30 6131 H 582.591 -3.8795 0.206705 0
M  V30 6132 H 584.263 -3.66049 2.80724 0
M  V30 6133 H 582.506 -3.3996 2.69462 0
M  V30 6134 H 583.177 -4.99604 2.34735 0
M  V30 6135 H 585.653 -4.11225 0.635103 0
M  V30 6136 H 584.529 -5.47469 0.396132 0
M  V30 6137 H 584.79 -4.32683 -0.907625 0
M  V30 6138 N 583.85 -0.624285 -1.44708 0
M  V30 6139 C 585.266 -0.289322 -1.56956 0
M  V30 6140 C 585.466 1.20773 -1.61295 0
M  V30 6141 O 584.522 1.9915 -1.55227 0
M  V30 6142 C 585.835 -0.975215 -2.84447 0
M  V30 6143 C 587.383 -0.952709 -2.98148 0
M  V30 6144 C 587.858 -1.61893 -4.28433 0
M  V30 6145 N 589.349 -1.5852 -4.35231 0
M  V30 6146 C 590.084 -2.06969 -5.34744 0
M  V30 6147 N 589.58 -2.63579 -6.40701 0
M  V30 6148 N 591.373 -1.97638 -5.26209 0
M  V30 6149 H 583.524 -1.59612 -1.40135 0
M  V30 6150 H 585.787 -0.669592 -0.671081 0
M  V30 6151 H 585.493 -2.02999 -2.87201 0
M  V30 6152 H 585.367 -0.508749 -3.73753 0
M  V30 6153 H 587.754 0.093568 -2.94952 0
M  V30 6154 H 587.835 -1.4576 -2.10209 0
M  V30 6155 H 587.479 -2.66463 -4.32389 0
M  V30 6156 H 587.409 -1.08893 -5.15218 0
M  V30 6157 H 589.899 -1.17183 -3.59272 0
M  V30 6158 H 590.213 -2.98298 -7.12908 0
M  V30 6159 H 588.558 -2.67626 -6.41406 0
M  V30 6160 H 591.749 -1.5314 -4.42341 0
M  V30 6161 H 591.922 -2.35708 -6.03611 0
M  V30 6162 N 585.328 1.53329 -0.364422 0
M  V30 6163 C 586.558 2.05359 0.226096 0
M  V30 6164 C 586.966 1.23777 1.43094 0
M  V30 6165 O 586.309 0.271139 1.81688 0
M  V30 6166 C 586.371 3.52918 0.684794 0
M  V30 6167 C 586.035 4.55218 -0.403206 0
M  V30 6168 C 587.032 5.04583 -1.2527 0
M  V30 6169 C 584.717 4.99134 -0.563117 0
M  V30 6170 C 586.711 5.96463 -2.24745 0
M  V30 6171 C 584.398 5.9082 -1.56124 0
M  V30 6172 C 585.396 6.39375 -2.40184 0
M  V30 6173 O 585.084 7.29255 -3.38293 0
M  V30 6174 H 584.816 0.674588 0.0436772 0
M  V30 6175 H 587.37 1.98688 -0.520782 0
M  V30 6176 H 585.6 3.57122 1.48326 0
M  V30 6177 H 587.289 3.87812 1.19818 0
M  V30 6178 H 588.055 4.71403 -1.14034 0
M  V30 6179 H 583.934 4.60928 0.0813909 0
M  V30 6180 H 587.478 6.34285 -2.90393 0
M  V30 6181 H 583.375 6.23414 -1.67407 0
M  V30 6182 H 584.143 7.47249 -3.34009 0
M  V30 6183 N 586.806 0.0935595 1.57322 0
M  V30 6184 C 588.031 -0.582324 1.99057 0
M  V30 6185 C 588.456 -1.61025 0.972242 0
M  V30 6186 O 587.814 -1.81202 -0.0594622 0
M  V30 6187 C 587.862 -1.20799 3.39765 0
M  V30 6188 O 586.966 -2.32382 3.40694 0
M  V30 6189 H 586.307 -0.147884 0.647323 0
M  V30 6190 H 588.837 0.174516 2.03854 0
M  V30 6191 H 588.847 -1.54966 3.77425 0
M  V30 6192 H 587.522 -0.454914 4.13405 0
M  V30 6193 H 586.099 -1.99845 3.14827 0
M  V30 6194 N 588.284 -1.56567 -0.180126 0
M  V30 6195 C 589.53 -1.81761 -0.899497 0
M  V30 6196 C 589.863 -0.670015 -1.82276 0
M  V30 6197 O 589.138 0.328575 -1.91705 0
M  V30 6198 C 589.421 -3.17296 -1.7028 0
M  V30 6199 C 589.274 -4.4257 -0.803255 0
M  V30 6200 C 590.593 -3.49678 -2.67233 0
M  V30 6201 H 587.712 -0.661192 -0.325567 0
M  V30 6202 H 590.354 -1.89272 -0.16612 0
M  V30 6203 H 588.504 -3.11023 -2.32802 0
M  V30 6204 H 590.176 -4.60902 -0.191585 0
M  V30 6205 H 588.419 -4.33658 -0.110796 0
M  V30 6206 H 589.09 -5.33935 -1.40064 0
M  V30 6207 H 591.566 -3.56347 -2.14839 0
M  V30 6208 H 590.442 -4.45605 -3.20511 0
M  V30 6209 H 590.703 -2.73932 -3.47007 0
M  V30 6210 N 589.762 0.448376 -1.51087 0
M  V30 6211 C 591.178 0.783984 -1.39017 0
M  V30 6212 C 591.378 1.96087 -0.463904 0
M  V30 6213 O 590.434 2.52357 0.0850534 0
M  V30 6214 C 591.747 1.07471 -2.80839 0
M  V30 6215 C 593.295 1.17981 -2.89913 0
M  V30 6216 C 593.77 1.50354 -4.32617 0
M  V30 6217 N 595.261 1.57301 -4.35673 0
M  V30 6218 C 595.996 1.839 -5.4311 0
M  V30 6219 N 595.492 2.08365 -6.60724 0
M  V30 6220 N 597.285 1.8559 -5.30578 0
M  V30 6221 H 589.436 -0.326881 -2.0987 0
M  V30 6222 H 591.699 -0.0838006 -0.944289 0
M  V30 6223 H 591.405 0.282768 -3.50561 0
M  V30 6224 H 591.279 2.00519 -3.19487 0
M  V30 6225 H 593.666 1.9624 -2.20395 0
M  V30 6226 H 593.747 0.228603 -2.54776 0
M  V30 6227 H 593.391 0.726273 -5.0268 0
M  V30 6228 H 593.321 2.46663 -4.65258 0
M  V30 6229 H 595.812 1.40342 -3.50874 0
M  V30 6230 H 596.125 2.27999 -7.38401 0
M  V30 6231 H 594.47 2.0571 -6.63859 0
M  V30 6232 H 597.661 1.65989 -4.37682 0
M  V30 6233 H 597.834 2.05983 -6.1439 0
M  V30 6234 N 591.24 1.41047 0.703093 0
M  V30 6235 C 592.488 1.39723 1.4602 0
M  V30 6236 C 592.809 0.00461257 1.94999 0
M  V30 6237 O 592.079 -0.952292 1.71196 0
M  V30 6238 H 590.659 0.514281 0.541779 0
M  V30 6239 H 593.321 1.76217 0.832678 0
M  V30 6240 H 592.417 2.07982 2.32701 0
M  V30 6241 N 592.718 -0.936591 1.26751 0
M  V30 6242 C 593.966 -1.67998 1.12343 0
M  V30 6243 C 594.287 -1.92137 -0.332938 0
M  V30 6244 O 593.557 -1.52132 -1.23421 0
M  V30 6245 H 592.137 -0.622609 0.412756 0
M  V30 6246 H 594.799 -1.12509 1.59147 0
M  V30 6247 H 593.895 -2.65185 1.64571 0
M  V30 6248 N 594.196 -1.08629 -1.14182 0
M  V30 6249 C 595.143 -0.718299 -2.19338 0
M  V30 6250 C 596.113 0.296587 -1.63431 0
M  V30 6251 O 597.298 0.180079 -1.89948 0
M  V30 6252 C 594.438 -0.136203 -3.44831 0
M  V30 6253 C 593.551 -1.20414 -4.14879 0
M  V30 6254 C 592.686 -0.585666 -5.27962 0
M  V30 6255 C 591.725 -1.63548 -5.89846 0
M  V30 6256 N 590.862 -1.03864 -6.94375 0
M  V30 6257 H 595.702 -1.61932 -2.50164 0
M  V30 6258 H 593.239 -0.80919 -1.22844 0
M  V30 6259 H 595.197 0.219021 -4.16625 0
M  V30 6260 H 593.827 0.728121 -3.14481 0
M  V30 6261 H 592.879 -1.67676 -3.41451 0
M  V30 6262 H 594.191 -1.99959 -4.56966 0
M  V30 6263 H 593.345 -0.178818 -6.06436 0
M  V30 6264 H 592.084 0.24142 -4.87102 0
M  V30 6265 H 591.089 -2.05197 -5.10073 0
M  V30 6266 H 592.314 -2.46509 -6.3278 0
M  V30 6267 H 590.26 -0.232687 -6.55587 0
M  V30 6268 H 590.177 -1.77116 -7.3496 0
M  V30 6269 H 591.445 -0.657724 -7.7672 0
M  V30 6270 N 595.674 1.31259 -0.872281 0
M  V30 6271 C 596.92 1.96913 -0.485083 0
M  V30 6272 C 597.253 1.68774 0.960667 0
M  V30 6273 O 596.528 0.985495 1.67685 0
M  V30 6274 C 596.811 3.52299 -0.745502 0
M  V30 6275 C 596.664 3.90002 -2.24095 0
M  V30 6276 C 597.983 4.39582 -0.213516 0
M  V30 6277 H 595.102 0.715252 -0.177716 0
M  V30 6278 H 597.744 1.55347 -1.09395 0
M  V30 6279 H 595.894 3.87835 -0.227276 0
M  V30 6280 H 597.566 3.64555 -2.82661 0
M  V30 6281 H 595.809 3.38526 -2.71261 0
M  V30 6282 H 596.48 4.98352 -2.37381 0
M  V30 6283 H 598.956 4.10882 -0.656902 0
M  V30 6284 H 597.832 5.47251 -0.42516 0
M  V30 6285 H 598.093 4.33158 0.884666 0
M  V30 6286 N 597.152 0.631951 1.44375 0
M  V30 6287 C 598.401 0.134214 2.01253 0
M  V30 6288 C 598.714 -1.25171 1.50305 0
M  V30 6289 O 599.92 -1.8435 1.99317 0
M  V30 6290 C 598.376 0.189187 3.59402 0
M  V30 6291 C 597.984 1.57647 4.19346 0
M  V30 6292 C 599.728 -0.252044 4.23751 0
M  V30 6293 C 597.635 1.58651 5.69722 0
M  V30 6294 H 596.565 0.0464101 0.75257 0
M  V30 6295 H 599.216 0.790868 1.65582 0
M  V30 6296 H 597.598 -0.534584 3.92375 0
M  V30 6297 H 598.772 2.32389 3.97909 0
M  V30 6298 H 597.087 1.96186 3.67288 0
M  V30 6299 H 599.684 -0.264084 5.34047 0
M  V30 6300 H 600.027 -1.27951 3.96149 0
M  V30 6301 H 600.56 0.41926 3.95584 0
M  V30 6302 H 597.299 2.59237 6.0206 0
M  V30 6303 H 596.819 0.882039 5.93279 0
M  V30 6304 H 598.498 1.32082 6.33375 0
M  V30 6305 N 598.631 -1.53133 0.372548 0
M  V30 6306 C 599.594 -2.24569 -0.458389 0
M  V30 6307 C 600.594 -1.25603 -1.00402 0
M  V30 6308 O 601.784 -1.49827 -0.888672 0
M  V30 6309 C 598.916 -2.98783 -1.6414 0
M  V30 6310 H 600.109 -2.99436 0.166799 0
M  V30 6311 H 597.662 -1.55805 0.124357 0
M  V30 6312 H 598.397 -2.28176 -2.30448 0
M  V30 6313 H 598.182 -3.71404 -1.25704 0
M  V30 6314 H 599.672 -3.53068 -2.23008 0
M  V30 6315 N 600.109 -0.101901 -1.5727 0
M  V30 6316 C 601.334 0.571759 -1.99363 0
M  V30 6317 C 601.759 1.60507 -0.980768 0
M  V30 6318 O 601.117 1.81231 0.0498517 0
M  V30 6319 C 601.165 1.18996 -3.404 0
M  V30 6320 O 600.269 2.30572 -3.41922 0
M  V30 6321 H 599.61 0.144449 -0.648098 0
M  V30 6322 H 602.14 -0.185325 -2.03759 0
M  V30 6323 H 602.15 1.52962 -3.78241 0
M  V30 6324 H 600.825 0.432984 -4.1364 0
M  V30 6325 H 599.402 1.98173 -3.15883 0
M  V30 6326 N 601.587 1.56661 0.17182 0
M  V30 6327 C 602.815 1.861 0.904115 0
M  V30 6328 C 603.23 0.687227 1.75848 0
M  V30 6329 O 602.587 -0.343671 1.79235 0
M  V30 6330 C 602.638 3.14568 1.78127 0
M  V30 6331 O 602.359 4.27422 0.961366 0
M  V30 6332 C 603.86 3.5735 2.62327 0
M  V30 6333 H 601.08 0.617445 0.262684 0
M  V30 6334 H 603.624 2.03775 0.172068 0
M  V30 6335 H 601.779 2.98721 2.46666 0
M  V30 6336 H 602.193 5.00725 1.56123 0
M  V30 6337 H 603.667 4.50144 3.1949 0
M  V30 6338 H 604.144 2.81445 3.37173 0
M  V30 6339 H 604.75 3.75807 1.99121 0
M  V30 6340 N 603.065 -0.440357 1.51323 0
M  V30 6341 C 603.997 -1.55254 1.68609 0
M  V30 6342 C 605.01 -1.52614 0.566812 0
M  V30 6343 O 606.199 -1.57445 0.841032 0
M  V30 6344 C 603.299 -2.94169 1.68279 0
M  V30 6345 C 602.472 -3.21346 2.96742 0
M  V30 6346 C 601.531 -4.3997 2.8864 0
M  V30 6347 O 600.557 -4.38771 3.62586 0
M  V30 6348 N 601.759 -5.43367 2.04285 0
M  V30 6349 H 604.524 -1.40831 2.6455 0
M  V30 6350 H 602.085 -0.629251 1.49171 0
M  V30 6351 H 604.077 -3.71543 1.60431 0
M  V30 6352 H 602.647 -3.02205 0.799441 0
M  V30 6353 H 601.867 -2.32299 3.18482 0
M  V30 6354 H 603.155 -3.3633 3.81785 0
M  V30 6355 H 602.553 -5.47176 1.43578 0
M  V30 6356 H 601.11 -6.19605 2.02318 0
M  V30 6357 N 604.543 -1.41418 -0.695603 0
M  V30 6358 C 605.954 -1.36335 -1.27552 0
M  V30 6359 C 606.305 -0.0464336 -1.96145 0
M  V30 6360 O 605.43 0.855304 -1.9878 0
M  V30 6361 C 606.025 -2.46941 -2.3196 0
M  V30 6362 C 604.584 -2.45256 -2.85529 0
M  V30 6363 C 603.731 -2.2679 -1.59566 0
M  V30 6364 H 606.682 -1.50934 -0.490362 0
M  V30 6365 H 606.703 -2.15997 -3.1325 0
M  V30 6366 H 606.215 -3.42775 -1.82008 0
M  V30 6367 H 604.316 -1.53179 -3.39657 0
M  V30 6368 H 604.429 -3.41565 -3.35961 0
M  V30 6369 H 602.793 -1.74667 -1.85374 0
M  V30 6370 H 603.576 -3.24651 -1.1161 0
M  V30 6371 N 606.021 0.929856 -1.27246 0
M  V30 6372 C 606.984 2.01172 -1.09829 0
M  V30 6373 C 607.984 1.60743 -0.0429687 0
M  V30 6374 O 609.174 1.71813 -0.287373 0
M  V30 6375 C 606.306 3.34191 -0.673003 0
M  V30 6376 H 607.499 2.18054 -2.05895 0
M  V30 6377 H 605.052 1.11036 -1.10003 0
M  V30 6378 H 605.787 3.23009 0.289134 0
M  V30 6379 H 605.572 3.64892 -1.43515 0
M  V30 6380 H 607.062 4.13646 -0.573323 0
M  V30 6381 N 607.499 1.09233 1.13605 0
M  V30 6382 C 608.431 0.687794 2.18637 0
M  V30 6383 C 609.444 -0.26936 1.60556 0
M  V30 6384 O 610.633 -0.0557162 1.78413 0
M  V30 6385 C 607.733 -0.00751901 3.38899 0
M  V30 6386 C 606.906 0.97067 4.26494 0
M  V30 6387 C 605.965 0.309129 5.25291 0
M  V30 6388 O 604.991 0.956149 5.61112 0
M  V30 6389 N 606.193 -0.937555 5.72879 0
M  V30 6390 H 608.958 1.59141 2.53957 0
M  V30 6391 H 606.519 0.979515 1.28907 0
M  V30 6392 H 608.511 -0.461238 4.02063 0
M  V30 6393 H 607.081 -0.813353 3.01833 0
M  V30 6394 H 606.301 1.603 3.60135 0
M  V30 6395 H 607.589 1.63323 4.81875 0
M  V30 6396 H 606.987 -1.48281 5.4592 0
M  V30 6397 H 605.544 -1.33463 6.3799 0
M  V30 6398 N 608.977 -1.30795 0.87923 0
M  V30 6399 C 610.205 -2.00527 0.509548 0
M  V30 6400 C 610.62 -1.65944 -0.90045 0
M  V30 6401 O 609.977 -0.893525 -1.5913 0
M  V30 6402 C 610.028 -3.55276 0.667943 0
M  V30 6403 O 609.749 -3.88625 2.02242 0
M  V30 6404 C 611.25 -4.4228 0.300494 0
M  V30 6405 H 608.47 -0.641261 0.197549 0
M  V30 6406 H 611.014 -1.66813 1.18295 0
M  V30 6407 H 609.169 -3.87377 0.0419843 0
M  V30 6408 H 609.583 -4.83334 2.03688 0
M  V30 6409 H 611.057 -5.50061 0.462242 0
M  V30 6410 H 611.534 -4.32556 -0.76106 0
M  V30 6411 H 612.14 -4.15613 0.902536 0
M  V30 6412 N 610.455 -0.639598 -1.44038 0
M  V30 6413 C 611.683 -0.154811 -2.0632 0
M  V30 6414 C 612.098 1.17406 -1.47856 0
M  V30 6415 O 611.455 1.72193 -0.604638 0
M  V30 6416 C 611.506 -0.0429958 -3.61474 0
M  V30 6417 O 611.227 -1.31932 -4.17763 0
M  V30 6418 C 612.728 0.469486 -4.40807 0
M  V30 6419 H 609.948 -0.0835862 -0.665773 0
M  V30 6420 H 612.492 -0.876397 -1.84769 0
M  V30 6421 H 610.647 0.629075 -3.82258 0
M  V30 6422 H 611.061 -1.16965 -5.11292 0
M  V30 6423 H 612.535 0.496712 -5.49761 0
M  V30 6424 H 613.012 1.49819 -4.12857 0
M  V30 6425 H 613.618 -0.169624 -4.24962 0
M  V30 6426 N 611.933 1.52934 -0.380664 0
M  V30 6427 C 613.179 2.01765 0.20458 0
M  V30 6428 C 613.512 1.26696 1.47179 0
M  V30 6429 O 612.787 0.364936 1.91046 0
M  V30 6430 C 613.07 3.56869 0.481269 0
M  V30 6431 C 612.923 4.42617 -0.800629 0
M  V30 6432 C 614.242 4.2121 1.27554 0
M  V30 6433 H 611.361 0.733388 0.0728803 0
M  V30 6434 H 614.003 1.83068 -0.50853 0
M  V30 6435 H 612.153 3.72932 1.08875 0
M  V30 6436 H 613.825 4.38323 -1.43773 0
M  V30 6437 H 612.068 4.09977 -1.4178 0
M  V30 6438 H 612.739 5.49134 -0.561791 0
M  V30 6439 H 615.215 4.09072 0.761514 0
M  V30 6440 H 614.091 5.29732 1.43788 0
M  V30 6441 H 614.352 3.78269 2.28833 0
M  V30 6442 N 613.412 0.11024 1.57214 0
M  V30 6443 C 614.642 -0.557025 1.98949 0
M  V30 6444 C 615.05 -1.61317 0.988606 0
M  V30 6445 O 614.393 -1.83679 -0.0279159 0
M  V30 6446 C 614.455 -1.24956 3.37085 0
M  V30 6447 C 614.119 -0.342398 4.55716 0
M  V30 6448 C 615.116 0.415511 5.18237 0
M  V30 6449 C 612.801 -0.256029 5.01647 0
M  V30 6450 C 614.795 1.24761 6.25071 0
M  V30 6451 C 612.482 0.579713 6.08344 0
M  V30 6452 C 613.48 1.33017 6.69922 0
M  V30 6453 O 613.168 2.15205 7.74559 0
M  V30 6454 H 612.9 -0.152792 0.658506 0
M  V30 6455 H 615.454 0.19076 2.04512 0
M  V30 6456 H 613.684 -2.04424 3.2825 0
M  V30 6457 H 615.373 -1.81286 3.63167 0
M  V30 6458 H 616.139 0.358605 4.83672 0
M  V30 6459 H 612.018 -0.829831 4.5347 0
M  V30 6460 H 615.562 1.83386 6.73064 0
M  V30 6461 H 611.459 0.638044 6.42339 0
M  V30 6462 H 612.227 2.08052 7.91617 0
M  V30 6463 N 614.89 -1.56749 -0.16351 0
M  V30 6464 C 615.82 -2.00042 -1.20438 0
M  V30 6465 C 616.801 -0.877256 -1.45733 0
M  V30 6466 O 617.986 -1.1439 -1.56935 0
M  V30 6467 C 615.116 -2.36697 -2.54149 0
M  V30 6468 C 614.07 -3.52046 -2.43408 0
M  V30 6469 C 613.396 -3.74466 -3.81679 0
M  V30 6470 C 614.696 -4.85247 -1.93216 0
M  V30 6471 H 616.39 -2.87244 -0.844477 0
M  V30 6472 H 613.936 -1.38194 -0.40478 0
M  V30 6473 H 615.889 -2.65582 -3.27176 0
M  V30 6474 H 614.613 -1.46414 -2.91943 0
M  V30 6475 H 613.272 -3.23301 -1.72834 0
M  V30 6476 H 612.92 -2.81461 -4.1688 0
M  V30 6477 H 612.62 -4.52084 -3.75359 0
M  V30 6478 H 614.144 -4.0576 -4.5628 0
M  V30 6479 H 615.558 -5.12957 -2.56023 0
M  V30 6480 H 613.955 -5.66556 -1.97825 0
M  V30 6481 H 615.025 -4.7672 -0.88689 0
M  V30 6482 N 616.368 0.432326 -1.51554 0
M  V30 6483 C 617.278 1.55023 -1.76082 0
M  V30 6484 C 618.294 1.61593 -0.645265 0
M  V30 6485 O 619.47 1.78742 -0.928086 0
M  V30 6486 C 616.535 2.90964 -1.88523 0
M  V30 6487 C 615.596 2.9447 -3.12388 0
M  V30 6488 C 614.829 4.23926 -3.24225 0
M  V30 6489 O 615.052 5.16576 -2.4188 0
M  V30 6490 O 613.986 4.33818 -4.17235 0
M  V30 6491 H 617.812 1.37238 -2.70923 0
M  V30 6492 H 615.397 0.615845 -1.36117 0
M  V30 6493 H 617.279 3.71633 -1.98662 0
M  V30 6494 H 615.954 3.08865 -0.9687 0
M  V30 6495 H 614.861 2.12737 -3.07723 0
M  V30 6496 H 616.194 2.81514 -4.03746 0
M  V30 6497 N 617.846 1.41785 0.688094 0
M  V30 6498 C 618.778 1.40159 1.81351 0
M  V30 6499 C 619.791 0.30262 1.59963 0
M  V30 6500 O 620.98 0.564841 1.69327 0
M  V30 6501 C 618.08 1.16517 3.1824 0
M  V30 6502 C 617.253 2.38597 3.66593 0
M  V30 6503 C 616.312 2.10699 4.82174 0
M  V30 6504 O 615.338 2.83798 4.93404 0
M  V30 6505 N 616.54 1.10187 5.69947 0
M  V30 6506 H 619.305 2.3716 1.83236 0
M  V30 6507 H 616.866 1.36494 0.870697 0
M  V30 6508 H 618.858 0.957941 3.93199 0
M  V30 6509 H 617.428 0.280873 3.11336 0
M  V30 6510 H 616.648 2.74974 2.82459 0
M  V30 6511 H 617.936 3.19919 3.95638 0
M  V30 6512 H 617.334 0.497016 5.63512 0
M  V30 6513 H 615.891 0.954518 6.44773 0
M  V30 6514 N 619.324 -0.923095 1.27737 0
M  V30 6515 C 620.735 -1.48626 1.12993 0
M  V30 6516 C 621.086 -1.94142 -0.283439 0
M  V30 6517 O 620.211 -1.81605 -1.17681 0
M  V30 6518 C 620.806 -2.70117 2.04505 0
M  V30 6519 C 619.365 -3.22642 1.93853 0
M  V30 6520 C 618.512 -1.95368 1.96791 0
M  V30 6521 H 621.463 -0.736737 1.40563 0
M  V30 6522 H 621.484 -3.4506 1.60356 0
M  V30 6523 H 620.996 -2.36959 3.07363 0
M  V30 6524 H 619.097 -3.60549 0.939968 0
M  V30 6525 H 619.21 -3.88525 2.80331 0
M  V30 6526 H 617.574 -2.12061 1.41076 0
M  V30 6527 H 618.357 -1.64517 3.01312 0
M  V30 6528 N 620.802 -1.09834 -1.13024 0
M  V30 6529 C 621.712 -0.753731 -2.22162 0
M  V30 6530 C 622.728 0.246105 -1.72251 0
M  V30 6531 O 623.904 0.0864051 -2.01215 0
M  V30 6532 C 620.969 -0.183958 -3.46212 0
M  V30 6533 C 620.03 -1.24028 -4.10993 0
M  V30 6534 C 619.263 -0.697597 -5.29121 0
M  V30 6535 O 619.486 0.478092 -5.68393 0
M  V30 6536 O 618.42 -1.4546 -5.84059 0
M  V30 6537 H 622.246 -1.66456 -2.5402 0
M  V30 6538 H 619.831 -0.873026 -1.21238 0
M  V30 6539 H 621.713 0.130257 -4.21199 0
M  V30 6540 H 620.388 0.699823 -3.16045 0
M  V30 6541 H 619.295 -1.60725 -3.37814 0
M  V30 6542 H 620.628 -2.09685 -4.45301 0
M  V30 6543 N 622.28 1.30327 -0.886154 0
M  V30 6544 C 623.243 2.26376 -0.358687 0
M  V30 6545 C 624.243 1.52845 0.499498 0
M  V30 6546 O 625.433 1.71483 0.306485 0
M  V30 6547 C 622.565 3.37379 0.488726 0
M  V30 6548 H 623.758 2.74547 -1.20681 0
M  V30 6549 H 621.311 1.41536 -0.663113 0
M  V30 6550 H 622.046 2.94526 1.35739 0
M  V30 6551 H 621.831 3.91897 -0.126003 0
M  V30 6552 H 623.321 4.08868 0.84952 0
M  V30 6553 N 623.758 0.647228 1.43697 0
M  V30 6554 C 625.007 0.155552 2.01099 0
M  V30 6555 C 625.32 -1.23569 1.51624 0
M  V30 6556 O 626.526 -1.82226 2.01261 0
M  V30 6557 C 624.982 0.227296 3.59182 0
M  V30 6558 C 624.59 1.62086 4.17651 0
M  V30 6559 C 626.334 -0.207085 4.23995 0
M  V30 6560 C 624.241 1.64685 5.68008 0
M  V30 6561 H 623.171 0.0543895 0.752036 0
M  V30 6562 H 625.822 0.808386 1.64734 0
M  V30 6563 H 624.204 -0.492937 3.9292 0
M  V30 6564 H 625.378 2.36597 3.95422 0
M  V30 6565 H 623.693 2.0007 3.65186 0
M  V30 6566 H 626.29 -0.207426 5.34298 0
M  V30 6567 H 626.633 -1.23742 3.97484 0
M  V30 6568 H 627.166 0.461193 3.95118 0
M  V30 6569 H 623.905 2.65608 5.99277 0
M  V30 6570 H 623.425 0.944914 5.9231 0
M  V30 6571 H 625.104 1.38792 6.31938 0
M  V30 6572 N 625.236 -1.5273 0.388769 0
M  V30 6573 C 626.513 -1.93981 -0.251133 0
M  V30 6574 C 626.893 -1.32418 -1.64404 0
M  V30 6575 O 626.241 -0.492074 -2.23139 0
M  V30 6576 C 626.451 -3.47891 -0.27802 0
M  V30 6577 C 627.799 -4.21559 -0.507229 0
M  V30 6578 O 628.823 -3.54394 -0.358252 0
M  V30 6579 O 627.682 -5.40626 -0.799094 0
M  V30 6580 H 624.776 -0.812157 -0.15598 0
M  V30 6581 H 627.322 -1.63809 0.443237 0
M  V30 6582 H 626.094 -3.8503 0.697669 0
M  V30 6583 H 625.717 -3.84364 -1.01733 0
M  V30 6584 N 626.714 -0.118576 -1.57153 0
M  V30 6585 C 627.944 0.546466 -1.99242 0
M  V30 6586 C 628.352 1.60791 -0.997148 0
M  V30 6587 O 627.695 1.83691 0.0181745 0
M  V30 6588 C 627.757 1.23167 -3.37743 0
M  V30 6589 C 627.421 0.318226 -4.55891 0
M  V30 6590 C 628.418 -0.442988 -5.18009 0
M  V30 6591 C 626.103 0.229421 -5.01776 0
M  V30 6592 C 628.097 -1.28074 -6.244 0
M  V30 6593 C 625.784 -0.611966 -6.08028 0
M  V30 6594 C 626.782 -1.36568 -6.69207 0
M  V30 6595 O 626.47 -2.1931 -7.73407 0
M  V30 6596 H 626.202 0.149297 -0.659307 0
M  V30 6597 H 628.756 -0.201603 -2.04408 0
M  V30 6598 H 626.986 2.0268 -3.29329 0
M  V30 6599 H 628.675 1.79358 -3.64123 0
M  V30 6600 H 629.441 -0.38425 -4.83475 0
M  V30 6601 H 625.32 0.805771 -4.53903 0
M  V30 6602 H 628.864 -1.86952 -6.72082 0
M  V30 6603 H 624.761 -0.6721 -6.41991 0
M  V30 6604 H 625.529 -2.12247 -7.90502 0
M  V30 6605 N 628.193 1.56834 0.155195 0
M  V30 6606 C 629.14 1.97646 1.19184 0
M  V30 6607 C 630.11 0.842788 1.4313 0
M  V30 6608 O 631.295 1.1042 1.55602 0
M  V30 6609 C 628.435 2.35527 2.52232 0
M  V30 6610 C 627.548 3.62147 2.35529 0
M  V30 6611 C 626.683 3.89167 3.61555 0
M  V30 6612 C 625.722 5.09084 3.39853 0
M  V30 6613 N 624.859 5.32156 4.5799 0
M  V30 6614 H 629.699 2.8601 0.836802 0
M  V30 6615 H 627.236 1.41507 0.401758 0
M  V30 6616 H 629.194 2.55516 3.29799 0
M  V30 6617 H 627.824 1.50253 2.85699 0
M  V30 6618 H 626.876 3.4998 1.49057 0
M  V30 6619 H 628.188 4.49871 2.15448 0
M  V30 6620 H 627.342 4.09611 4.47553 0
M  V30 6621 H 626.081 2.9985 3.84632 0
M  V30 6622 H 625.086 4.88522 2.52243 0
M  V30 6623 H 626.311 5.99947 3.18183 0
M  V30 6624 H 624.257 4.45791 4.81255 0
M  V30 6625 H 624.174 6.14133 4.40882 0
M  V30 6626 H 625.442 5.57091 5.45225 0
M  V30 6627 N 629.671 -0.424282 1.51781 0
M  V30 6628 C 631.087 -0.761768 1.40247 0
M  V30 6629 C 631.287 -1.95324 0.495041 0
M  V30 6630 O 630.343 -2.5246 -0.0448949 0
M  V30 6631 C 631.656 -1.0299 2.82513 0
M  V30 6632 C 633.204 -1.13354 2.91753 0
M  V30 6633 C 633.679 -1.43453 4.34954 0
M  V30 6634 N 635.17 -1.5035 4.3812 0
M  V30 6635 C 635.905 -1.75236 5.45967 0
M  V30 6636 N 635.401 -1.97827 6.63955 0
M  V30 6637 N 637.194 -1.77126 5.33463 0
M  V30 6638 H 629.345 0.360228 2.09323 0
M  V30 6639 H 631.608 0.0988128 0.942836 0
M  V30 6640 H 631.314 -0.226961 3.50967 0
M  V30 6641 H 631.188 -1.95411 3.22637 0
M  V30 6642 H 633.575 -1.92709 2.23489 0
M  V30 6643 H 633.656 -0.188041 2.55108 0
M  V30 6644 H 633.3 -0.646209 5.03772 0
M  V30 6645 H 633.23 -2.3923 4.69123 0
M  V30 6646 H 635.721 -1.34742 3.53062 0
M  V30 6647 H 636.034 -2.16223 7.41935 0
M  V30 6648 H 634.379 -1.95123 6.67047 0
M  V30 6649 H 637.57 -1.59005 4.40267 0
M  V30 6650 H 637.743 -1.96182 6.17589 0
M  V30 6651 O 631.188 -1.51103 -0.570103 0
M  V30 6652 H 631.879 -1.50032 -1.22516 0
M  V30 END ATOM
M  V30 BEGIN BOND
M  V30 END BOND
M  V30 END CTAB
M  END
$$$$
