drugbank_target|Q8IBN5 40S ribosomal protein S5, putative (DB11638)
 OpenBabel12092121113D

  0  0  0     0  0            999 V3000
M  V30 BEGIN CTAB
M  V30 COUNTS 3117 3137 0 0 0
M  V30 BEGIN ATOM
M  V30 1 H -0.908 1.98254 -0.117106 0
M  V30 2 N 0 1.576 0 0
M  V30 3 C 0.933 2.03868 1.02534 0
M  V30 4 C 1.911 0.928543 1.3348 0
M  V30 5 O 3.095 1.19667 1.45644 0
M  V30 6 C 0.222 2.43627 2.35294 0
M  V30 7 C -0.732 3.65373 2.2001 0
M  V30 8 S 0.101 5.13292 1.52614 0
M  V30 9 C 1.257 5.56322 2.86805 0
M  V30 10 H 1.49 2.90518 0.631377 0
M  V30 11 H -0.977 1.52953 0.210867 0
M  V30 12 H 0.981 2.67203 3.11629 0
M  V30 13 H -0.358 1.57376 2.7183 0
M  V30 14 H -1.165 3.90944 3.18086 0
M  V30 15 H -1.563 3.418 1.51819 0
M  V30 16 H 0.729 5.58782 3.83104 0
M  V30 17 H 1.672 6.56266 2.65933 0
M  V30 18 H 2.08 4.83886 2.90714 0
M  V30 19 N 1.4781 -0.272755 1.55222 0
M  V30 20 C 2.3881 -1.35918 1.91216 0
M  V30 21 C 3.4041 -1.54026 0.809436 0
M  V30 22 O 4.5801 -1.68148 1.10852 0
M  V30 23 C 1.6451 -2.69834 2.17693 0
M  V30 24 C 0.7061 -2.6047 3.41253 0
M  V30 25 C -0.0609 -3.88 3.66458 0
M  V30 26 O 0.1621 -4.88693 2.94169 0
M  V30 27 O -0.9039 -3.88189 4.59992 0
M  V30 28 H 2.9221 -1.0839 2.83699 0
M  V30 29 H 0.5071 -0.471301 1.41771 0
M  V30 30 H 2.3891 -3.49017 2.36147 0
M  V30 31 H 1.0641 -2.97148 1.28392 0
M  V30 32 H -0.0289 -1.79663 3.28134 0
M  V30 33 H 1.3041 -2.38106 4.30774 0
M  V30 34 N 2.9562 -1.48159 -0.537278 0
M  V30 35 C 4.1842 -1.59454 -1.31841 0
M  V30 36 C 4.5992 -0.252065 -1.8711 0
M  V30 37 O 3.9562 0.757621 -1.66031 0
M  V30 38 C 4.0072 -2.63546 -2.47439 0
M  V30 39 O 3.7282 -3.92583 -1.94449 0
M  V30 40 C 5.2292 -2.85212 -3.39366 0
M  V30 41 H 2.4492 -0.53785 -0.401196 0
M  V30 42 H 4.9932 -1.93932 -0.648891 0
M  V30 43 H 3.1482 -2.31946 -3.1029 0
M  V30 44 H 3.5622 -4.49629 -2.70063 0
M  V30 45 H 5.0362 -3.61863 -4.16844 0
M  V30 46 H 5.5132 -1.93765 -3.94147 0
M  V30 47 H 6.1192 -3.18086 -2.82314 0
M  V30 48 N 4.4343 0.785586 -1.36625 0
M  V30 49 C 5.6623 1.57448 -1.3423 0
M  V30 50 C 6.0773 1.88649 0.0755653 0
M  V30 51 O 5.4343 1.50414 1.03354 0
M  V30 52 C 5.4853 2.89316 -2.16745 0
M  V30 53 O 5.2063 2.59459 -3.53005 0
M  V30 54 C 6.7073 3.83606 -2.22174 0
M  V30 55 H 3.9273 0.488226 -0.4603 0
M  V30 56 H 6.4713 0.974733 -1.79775 0
M  V30 57 H 4.6263 3.4575 -1.74745 0
M  V30 58 H 5.0403 3.43804 -3.96105 0
M  V30 59 H 6.5143 4.73181 -2.8426 0
M  V30 60 H 6.9913 4.21734 -1.22627 0
M  V30 61 H 7.5973 3.33104 -2.64427 0
M  V30 62 N 5.9124 1.20967 1.01018 0
M  V30 63 C 7.1404 1.04956 1.78303 0
M  V30 64 C 7.5554 -0.400915 1.84494 0
M  V30 65 O 6.9124 -1.27826 1.30257 0
M  V30 66 C 6.9634 1.63403 3.22462 0
M  V30 67 O 6.6844 3.02775 3.16637 0
M  V30 68 C 8.1854 1.52432 4.16268 0
M  V30 69 H 5.4054 0.368858 0.560522 0
M  V30 70 H 7.9494 1.60193 1.27116 0
M  V30 71 H 6.1044 1.1227 3.70775 0
M  V30 72 H 6.5184 3.30626 4.07169 0
M  V30 73 H 7.9924 1.98078 5.15237 0
M  V30 74 H 8.4694 0.477875 4.36592 0
M  V30 75 H 9.0754 2.02787 3.73841 0
M  V30 76 N 7.3905 -1.2043 1.01659 0
M  V30 77 C 8.3535 -2.21433 0.591616 0
M  V30 78 C 9.3535 -1.57203 -0.338226 0
M  V30 79 O 10.5435 -1.73737 -0.126918 0
M  V30 80 C 7.6755 -3.40628 -0.136058 0
M  V30 81 H 8.8685 -2.60545 1.48514 0
M  V30 82 H 6.4215 -1.33893 0.806379 0
M  V30 83 H 7.1565 -3.07019 -1.04449 0
M  V30 84 H 6.9415 -3.88475 0.531917 0
M  V30 85 H 8.4315 -4.15475 -0.420735 0
M  V30 86 N 8.8686 -0.792821 -1.36206 0
M  V30 87 C 10.1456 -0.290627 -1.93429 0
M  V30 88 C 10.5256 1.21773 -1.72437 0
M  V30 89 O 9.8736 2.0108 -1.08531 0
M  V30 90 C 10.0836 -0.686973 -3.42172 0
M  V30 91 C 11.4316 -0.668643 -4.19302 0
M  V30 92 O 12.4556 -0.627658 -3.50626 0
M  V30 93 O 11.3146 -0.714597 -5.41808 0
M  V30 94 H 8.4086 -0.0727927 -0.82379 0
M  V30 95 H 10.9546 -0.875593 -1.45367 0
M  V30 96 H 9.7266 -1.72711 -3.51122 0
M  V30 97 H 9.3496 -0.0760733 -3.97527 0
M  V30 98 N 10.3467 1.47872 -0.545128 0
M  V30 99 C 11.5957 2.01695 -0.0145033 0
M  V30 100 C 11.9087 1.42609 1.33873 0
M  V30 101 O 13.1147 1.88021 1.95858 0
M  V30 102 C 11.5707 3.59892 0.0245068 0
M  V30 103 C 11.1787 4.27966 -1.32475 0
M  V30 104 C 12.9227 4.21507 0.50316 0
M  V30 105 C 10.8297 5.78136 -1.2455 0
M  V30 106 H 9.7597 0.753998 -0.00165172 0
M  V30 107 H 12.4107 1.69985 -0.691175 0
M  V30 108 H 10.7927 3.88509 0.766575 0
M  V30 109 H 11.9667 4.11003 -2.08357 0
M  V30 110 H 10.2817 3.78286 -1.74036 0
M  V30 111 H 12.8787 5.31538 0.580656 0
M  V30 112 H 13.2217 3.87855 1.51243 0
M  V30 113 H 13.7547 3.97376 -0.183681 0
M  V30 114 H 10.4937 6.16388 -2.23039 0
M  V30 115 H 10.0137 5.97469 -0.528282 0
M  V30 116 H 11.6927 6.40099 -0.942488 0
M  V30 117 N 11.8248 0.280983 1.55075 0
M  V30 118 C 12.7718 -0.603937 2.22758 0
M  V30 119 C 13.7418 -1.1452 1.20309 0
M  V30 120 O 14.9268 -1.19343 1.48869 0
M  V30 121 C 12.0668 -1.77947 2.95684 0
M  V30 122 C 11.1798 -1.2715 4.12864 0
M  V30 123 C 10.3148 -2.4093 4.7342 0
M  V30 124 C 9.3538 -1.87165 5.82783 0
M  V30 125 N 8.4908 -2.94441 6.37377 0
M  V30 126 H 13.3308 -0.020124 2.97993 0
M  V30 127 H 10.8678 0.00183425 1.471 0
M  V30 128 H 12.8258 -2.47055 3.36184 0
M  V30 129 H 11.4558 -2.33522 2.22861 0
M  V30 130 H 10.5078 -0.473331 3.77444 0
M  V30 131 H 11.8198 -0.837751 4.91715 0
M  V30 132 H 10.9738 -3.18021 5.1667 0
M  V30 133 H 9.7128 -2.87623 3.93859 0
M  V30 134 H 8.7178 -1.08556 5.38976 0
M  V30 135 H 9.9428 -1.41401 6.64216 0
M  V30 136 H 7.8888 -3.40505 5.60707 0
M  V30 137 H 7.8058 -2.55501 7.11516 0
M  V30 138 H 9.0738 -3.71489 6.85285 0
M  V30 139 N 13.3029 -1.57598 0.00835791 0
M  V30 140 C 14.2329 -2.1198 -0.979113 0
M  V30 141 C 15.2139 -1.03091 -1.35301 0
M  V30 142 O 16.3989 -1.30818 -1.43528 0
M  V30 143 C 13.5289 -2.62995 -2.26828 0
M  V30 144 C 12.4829 -3.76485 -2.03576 0
M  V30 145 C 11.8089 -4.13846 -3.38579 0
M  V30 146 C 13.1089 -5.0342 -1.39161 0
M  V30 147 H 14.8029 -2.94738 -0.526281 0
M  V30 148 H 12.3489 -1.41783 -0.251704 0
M  V30 149 H 14.3019 -2.99669 -2.96271 0
M  V30 150 H 13.0259 -1.7737 -2.7424 0
M  V30 151 H 11.6849 -3.40217 -1.36557 0
M  V30 152 H 11.3329 -3.25232 -3.83709 0
M  V30 153 H 11.0329 -4.90312 -3.23834 0
M  V30 154 H 12.5569 -4.53086 -4.09323 0
M  V30 155 H 13.9709 -5.37812 -1.98573 0
M  V30 156 H 12.3679 -5.84746 -1.34878 0
M  V30 157 H 13.4379 -4.83548 -0.361868 0
M  V30 158 N 14.781 0.264519 -1.55364 0
M  V30 159 C 16.028 0.994986 -1.7637 0
M  V30 160 C 16.356 1.85976 -0.5695 0
M  V30 161 O 15.611 1.90509 0.44776 0
M  V30 162 C 15.91 1.9004 -3.02687 0
M  V30 163 C 15.576 1.19243 -4.34847 0
M  V30 164 C 14.238 0.996709 -4.70764 0
M  V30 165 C 16.59 0.689296 -5.16622 0
M  V30 166 C 13.918 0.285261 -5.86006 0
M  V30 167 C 16.27 -0.00860079 -6.32599 0
M  V30 168 C 14.934 -0.215963 -6.67151 0
M  V30 169 H 14.204 0.364091 -0.645383 0
M  V30 170 H 16.851 0.266543 -1.89636 0
M  V30 171 H 15.156 2.69533 -2.84357 0
M  V30 172 H 16.853 2.46695 -3.16137 0
M  V30 173 H 13.443 1.3549 -4.06621 0
M  V30 174 H 17.627 0.828108 -4.89342 0
M  V30 175 H 12.883 0.113961 -6.11294 0
M  V30 176 H 17.057 -0.406186 -6.95214 0
M  V30 177 H 14.684 -0.769217 -7.56298 0
M  V30 178 N 16.2591 1.48442 0.529413 0
M  V30 179 C 17.2061 1.63007 1.63394 0
M  V30 180 C 18.1761 0.47212 1.59249 0
M  V30 181 O 19.3611 0.695673 1.77666 0
M  V30 182 C 16.5011 1.6763 3.01653 0
M  V30 183 C 15.6141 2.94535 3.16027 0
M  V30 184 C 14.7491 2.90316 4.44849 0
M  V30 185 C 13.7881 4.11923 4.52754 0
M  V30 186 N 12.9251 4.05777 5.72965 0
M  V30 187 H 17.7651 2.5733 1.50285 0
M  V30 188 H 15.3021 1.27613 0.731656 0
M  V30 189 H 17.2601 1.68292 3.81751 0
M  V30 190 H 15.8901 0.76797 3.13532 0
M  V30 191 H 14.9421 3.03615 2.29177 0
M  V30 192 H 16.2541 3.84512 3.17729 0
M  V30 193 H 15.4081 2.89382 5.33238 0
M  V30 194 H 14.1471 1.98068 4.45668 0
M  V30 195 H 13.1521 4.13131 3.62771 0
M  V30 196 H 14.3771 5.0533 4.53672 0
M  V30 197 H 12.3231 3.16351 5.74681 0
M  V30 198 H 12.2401 4.8946 5.76164 0
M  V30 199 H 13.5081 4.08904 6.6364 0
M  V30 200 N 17.7372 -0.778329 1.37039 0
M  V30 201 C 18.6842 -1.89139 1.32269 0
M  V30 202 C 19.6542 -1.65017 0.189387 0
M  V30 203 O 20.8392 -1.87024 0.377693 0
M  V30 204 C 17.9792 -3.26112 1.12894 0
M  V30 205 C 17.0922 -3.62233 2.35396 0
M  V30 206 C 16.2272 -4.8838 2.08946 0
M  V30 207 C 15.2662 -5.17212 3.2735 0
M  V30 208 N 14.4032 -6.34546 3.00492 0
M  V30 209 H 19.2432 -1.92552 2.27437 0
M  V30 210 H 16.7802 -0.941473 1.13025 0
M  V30 211 H 18.7382 -4.05116 0.996835 0
M  V30 212 H 17.3682 -3.22091 0.213758 0
M  V30 213 H 16.4202 -2.78265 2.5937 0
M  V30 214 H 17.7322 -3.79481 3.23721 0
M  V30 215 H 16.8862 -5.75274 1.92729 0
M  V30 216 H 15.6252 -4.73222 1.17949 0
M  V30 217 H 14.6302 -4.28796 3.44113 0
M  V30 218 H 15.8552 -5.34283 4.19188 0
M  V30 219 H 13.8012 -6.20759 2.12118 0
M  V30 220 H 13.7182 -6.52179 3.82358 0
M  V30 221 H 14.9862 -7.24394 2.87879 0
M  V30 222 N 19.2153 -1.21501 -1.00376 0
M  V30 223 C 20.4613 -1.04457 -1.74529 0
M  V30 224 C 20.8163 0.417386 -1.87818 0
M  V30 225 O 20.1093 1.30556 -1.40234 0
M  V30 226 C 20.3033 -1.67673 -3.15627 0
M  V30 227 C 20.1323 -3.19865 -3.16096 0
M  V30 228 C 18.9023 -3.88915 -3.22604 0
M  V30 229 C 21.1003 -4.16936 -3.01112 0
M  V30 230 N 19.0823 -5.28284 -3.12712 0
M  V30 231 C 20.4533 -5.43066 -2.99131 0
M  V30 232 C 22.5083 -4.07968 -2.85423 0
M  V30 233 C 21.2113 -6.6126 -2.83068 0
M  V30 234 C 23.2373 -5.258 -2.70718 0
M  V30 235 C 22.5993 -6.50842 -2.69414 0
M  V30 236 H 18.6983 -0.436584 -0.648782 0
M  V30 237 H 21.2823 -1.53875 -1.19293 0
M  V30 238 H 19.4533 -1.20822 -3.6913 0
M  V30 239 H 21.1853 -1.43824 -3.78281 0
M  V30 240 H 17.9403 -3.39847 -3.2985 0
M  V30 241 H 18.3643 -6.01284 -3.11105 0
M  V30 242 H 23.0063 -3.1209 -2.85236 0
M  V30 243 H 20.7243 -7.57298 -2.82002 0
M  V30 244 H 24.3103 -5.20683 -2.59577 0
M  V30 245 H 23.1903 -7.40485 -2.5817 0
M  V30 246 N 20.6934 1.19889 -1.02296 0
M  V30 247 C 21.9184 1.9393 -0.735237 0
M  V30 248 C 22.3434 1.74639 0.698782 0
M  V30 249 O 21.7014 1.04481 1.48167 0
M  V30 250 C 21.7494 3.43916 -1.08417 0
M  V30 251 O 20.8534 4.11917 -0.199446 0
M  V30 252 H 20.1944 0.605645 -0.272196 0
M  V30 253 H 22.7244 1.52137 -1.36804 0
M  V30 254 H 22.7344 3.9456 -1.03856 0
M  V30 255 H 21.4094 3.5728 -2.12894 0
M  V30 256 H 19.9864 3.71666 -0.303136 0
M  V30 257 N 22.1715 0.800033 1.35784 0
M  V30 258 C 23.4015 0.389041 2.02904 0
M  V30 259 C 23.8095 -1.0027 1.60445 0
M  V30 260 O 23.1525 -1.65633 0.794453 0
M  V30 261 C 23.2145 0.385495 3.57427 0
M  V30 262 C 22.8785 1.72662 4.23127 0
M  V30 263 C 23.8755 2.68385 4.4527 0
M  V30 264 C 21.5605 2.00883 4.60381 0
M  V30 265 C 23.5545 3.90517 5.03761 0
M  V30 266 C 21.2415 3.2328 5.18588 0
M  V30 267 C 22.2395 4.17915 5.40218 0
M  V30 268 O 21.9275 5.38153 5.97199 0
M  V30 269 H 21.6595 0.157032 0.657508 0
M  V30 270 H 24.2135 1.08311 1.74522 0
M  V30 271 H 22.4435 -0.365128 3.84972 0
M  V30 272 H 24.1325 -0.00228296 4.059 0
M  V30 273 H 24.8985 2.47872 4.16874 0
M  V30 274 H 20.7775 1.28037 4.42863 0
M  V30 275 H 24.3215 4.64395 5.2056 0
M  V30 276 H 20.2185 3.43667 5.4641 0
M  V30 277 H 20.9865 5.3936 6.15656 0
M  V30 278 N 23.6496 -1.47581 0.552962 0
M  V30 279 C 24.5596 -2.33743 -0.200353 0
M  V30 280 C 25.5756 -1.47928 -0.916151 0
M  V30 281 O 26.7516 -1.80865 -0.885993 0
M  V30 282 C 23.8166 -3.24536 -1.21973 0
M  V30 283 C 22.8776 -4.26238 -0.511819 0
M  V30 284 C 22.1106 -5.12693 -1.48263 0
M  V30 285 O 22.3336 -5.01525 -2.71714 0
M  V30 286 O 21.2676 -5.93375 -1.00945 0
M  V30 287 H 25.0936 -2.9945 0.506304 0
M  V30 288 H 22.6786 -1.46071 0.313622 0
M  V30 289 H 24.5606 -3.80631 -1.80827 0
M  V30 290 H 23.2356 -2.61462 -1.90839 0
M  V30 291 H 22.1426 -3.73914 0.117799 0
M  V30 292 H 23.4756 -4.92014 0.135308 0
M  V30 293 N 25.1277 -0.289203 -1.54924 0
M  V30 294 C 26.0377 0.601863 -2.26748 0
M  V30 295 C 27.0537 1.15834 -1.2984 0
M  V30 296 O 28.2297 1.18564 -1.62802 0
M  V30 297 C 25.2947 1.76299 -2.98529 0
M  V30 298 C 24.3557 1.24178 -4.10948 0
M  V30 299 C 23.5887 2.34757 -4.79296 0
M  V30 300 O 23.8117 3.54411 -4.46933 0
M  V30 301 O 22.7457 2.02115 -5.66951 0
M  V30 302 H 26.5717 0.0195879 -3.03694 0
M  V30 303 H 24.1567 -0.0560868 -1.49295 0
M  V30 304 H 26.0387 2.43973 -3.43592 0
M  V30 305 H 24.7137 2.33209 -2.24488 0
M  V30 306 H 23.6207 0.531104 -3.70311 0
M  V30 307 H 24.9537 0.718252 -4.86931 0
M  V30 308 N 26.6058 1.57591 -0.0167156 0
M  V30 309 C 27.8548 1.90461 0.663877 0
M  V30 310 C 28.1678 0.893515 1.73999 0
M  V30 311 O 29.3738 1.11302 2.47637 0
M  V30 312 C 27.8298 3.38155 1.23204 0
M  V30 313 C 27.4378 4.47597 0.189866 0
M  V30 314 C 29.1818 3.80111 1.88986 0
M  V30 315 C 27.0888 5.86379 0.768964 0
M  V30 316 H 26.0188 0.710738 0.251729 0
M  V30 317 H 28.6698 1.83326 -0.0799926 0
M  V30 318 H 27.0518 3.40182 2.02712 0
M  V30 319 H 28.2258 4.57112 -0.581846 0
M  V30 320 H 26.5408 4.14766 -0.368475 0
M  V30 321 H 29.1378 4.81145 2.33247 0
M  V30 322 H 29.4808 3.14511 2.72743 0
M  V30 323 H 30.0138 3.80454 1.16187 0
M  V30 324 H 26.7528 6.55493 -0.0301957 0
M  V30 325 H 26.2728 5.80496 1.50945 0
M  V30 326 H 27.9518 6.34563 1.26251 0
M  V30 327 N 28.0839 -0.256276 1.55502 0
M  V30 328 C 29.0319 -1.33694 1.90338 0
M  V30 329 C 30.0259 -1.50299 0.781441 0
M  V30 330 O 31.2319 -1.51885 0.965966 0
M  V30 331 H 27.6069 -0.447483 0.60437 0
M  V30 332 H 29.5779 -1.01574 2.8058 0
M  V30 333 C 28.3269 -2.68724 2.20642 0
M  V30 334 H 27.6499 -2.56743 3.06469 0
M  V30 335 H 29.0899 -3.43237 2.48926 0
M  V30 336 C 27.5489 -3.21101 1.01959 0
M  V30 337 O 28.0789 -4.0084 0.262762 0
M  V30 338 N 26.2849 -2.79003 0.812746 0
M  V30 339 H 25.8319 -2.14271 1.42989 0
M  V30 340 H 25.7899 -3.14393 0.0203076 0
M  V30 341 N 29.562 -1.4872 -0.521534 0
M  V30 342 C 30.811 -1.56419 -1.27341 0
M  V30 343 C 31.124 -0.246805 -1.94037 0
M  V30 344 O 32.33 -0.202122 -2.70747 0
M  V30 345 C 30.786 -2.75896 -2.31105 0
M  V30 346 C 30.394 -4.14311 -1.70441 0
M  V30 347 C 32.138 -2.92913 -3.07249 0
M  V30 348 C 30.045 -5.25038 -2.72194 0
M  V30 349 H 28.975 -0.582344 -0.478949 0
M  V30 350 H 31.626 -1.75071 -0.549779 0
M  V30 351 H 30.008 -2.50697 -3.06541 0
M  V30 352 H 31.182 -4.49564 -1.01136 0
M  V30 353 H 29.497 -4.02482 -1.06759 0
M  V30 354 H 32.094 -3.72805 -3.83302 0
M  V30 355 H 32.437 -2.02689 -3.63625 0
M  V30 356 H 32.97 -3.18054 -2.38928 0
M  V30 357 H 29.709 -6.17255 -2.20627 0
M  V30 358 H 29.229 -4.94263 -3.39801 0
M  V30 359 H 30.908 -5.53508 -3.35019 0
M  V30 360 N 31.0401 0.771051 -1.3745 0
M  V30 361 C 32.0031 1.86598 -1.33093 0
M  V30 362 C 33.0031 1.59076 -0.234845 0
M  V30 363 O 34.1931 1.67145 -0.490732 0
M  V30 364 C 31.3251 3.23747 -1.06773 0
M  V30 365 H 32.5181 1.91873 -2.30488 0
M  V30 366 H 30.0711 0.970876 -1.2249 0
M  V30 367 H 30.8061 3.24148 -0.099129 0
M  V30 368 H 30.5911 3.45115 -1.86112 0
M  V30 369 H 32.0811 4.03824 -1.06377 0
M  V30 370 N 32.5182 1.22032 0.997298 0
M  V30 371 C 33.7952 0.950823 1.70935 0
M  V30 372 C 34.1752 -0.535292 2.042 0
M  V30 373 O 33.5232 -1.50217 1.72183 0
M  V30 374 C 33.7332 1.84386 2.96315 0
M  V30 375 C 35.0812 2.09732 3.69185 0
M  V30 376 O 36.1052 1.81798 3.06314 0
M  V30 377 O 34.9642 2.57018 4.82291 0
M  V30 378 H 32.0582 0.357204 0.745878 0
M  V30 379 H 34.6042 1.32997 1.05404 0
M  V30 380 H 33.3762 2.84928 2.68201 0
M  V30 381 H 32.9992 1.46602 3.69586 0
M  V30 382 N 33.9963 -1.19345 1.0293 0
M  V30 383 C 34.9263 -2.2481 0.631105 0
M  V30 384 C 35.9073 -1.66245 -0.360104 0
M  V30 385 O 37.0923 -1.92677 -0.242726 0
M  V30 386 C 34.2223 -3.47295 -0.0184607 0
M  V30 387 C 33.1763 -4.18536 0.895073 0
M  V30 388 C 32.5023 -5.34586 0.110592 0
M  V30 389 C 33.8023 -4.73287 2.209 0
M  V30 390 H 35.4963 -2.58372 1.51275 0
M  V30 391 H 33.0423 -1.24194 0.728818 0
M  V30 392 H 34.9953 -4.20268 -0.308675 0
M  V30 393 H 33.7193 -3.12933 -0.934907 0
M  V30 394 H 32.3783 -3.47446 1.16949 0
M  V30 395 H 32.0263 -4.96469 -0.807902 0
M  V30 396 H 31.7263 -5.83183 0.719087 0
M  V30 397 H 33.2503 -6.10355 -0.172871 0
M  V30 398 H 34.6643 -5.38013 1.98028 0
M  V30 399 H 33.0613 -5.32373 2.76946 0
M  V30 400 H 34.1313 -3.91331 2.86336 0
M  V30 401 N 35.4744 -0.807222 -1.35358 0
M  V30 402 C 36.6994 -0.399309 -2.0352 0
M  V30 403 C 37.1244 0.981986 -1.60433 0
M  V30 404 O 36.4824 1.63601 -0.781299 0
M  V30 405 C 36.5304 -0.491552 -3.57234 0
M  V30 406 O 35.6344 0.494754 -4.09421 0
M  V30 407 H 34.9754 -0.166682 -0.642739 0
M  V30 408 H 37.5054 -1.09328 -1.72941 0
M  V30 409 H 37.5154 -0.361588 -4.06395 0
M  V30 410 H 36.1904 -1.49907 -3.87944 0
M  V30 411 H 34.7674 0.324977 -3.71481 0
M  V30 412 N 36.9525 1.47285 -0.560781 0
M  V30 413 C 37.8825 2.32857 0.173105 0
M  V30 414 C 38.8635 1.44009 0.905281 0
M  V30 415 O 40.0485 1.7286 0.885046 0
M  V30 416 C 37.1785 3.25861 1.20133 0
M  V30 417 C 36.1325 4.23978 0.585388 0
M  V30 418 C 35.4585 5.06332 1.7185 0
M  V30 419 C 36.7585 5.20242 -0.463178 0
M  V30 420 H 38.4525 2.94466 -0.541307 0
M  V30 421 H 35.9985 1.41601 -0.261764 0
M  V30 422 H 37.9515 3.84569 1.72293 0
M  V30 423 H 36.6755 2.62315 1.94573 0
M  V30 424 H 35.3345 3.66501 0.085054 0
M  V30 425 H 34.9825 4.39186 2.45203 0
M  V30 426 H 34.6825 5.72762 1.31213 0
M  V30 427 H 36.2065 5.67899 2.24329 0
M  V30 428 H 37.6205 5.73293 -0.027502 0
M  V30 429 H 36.0175 5.94896 -0.788627 0
M  V30 430 H 37.0875 4.65504 -1.35773 0
M  V30 431 N 38.4306 0.297415 1.54768 0
M  V30 432 C 39.6766 -0.313376 2.00364 0
M  V30 433 C 40.0096 -1.53815 1.18553 0
M  V30 434 O 39.2846 -1.92739 0.261103 0
M  V30 435 C 39.5676 -0.673525 3.53745 0
M  V30 436 C 39.4206 0.560133 4.46299 0
M  V30 437 C 40.7396 -1.50143 4.13697 0
M  V30 438 H 37.8586 -0.112428 0.728374 0
M  V30 439 H 40.5006 0.4088 1.8555 0
M  V30 440 H 38.6506 -1.28881 3.665 0
M  V30 441 H 40.3226 1.19863 4.45455 0
M  V30 442 H 38.5656 1.19405 4.17043 0
M  V30 443 H 39.2366 0.26405 5.51368 0
M  V30 444 H 41.7126 -0.981588 4.04356 0
M  V30 445 H 40.5886 -1.72221 5.21182 0
M  V30 446 H 40.8496 -2.48952 3.65343 0
M  V30 447 N 39.9087 -1.5758 0.0250728 0
M  V30 448 C 41.1857 -1.82917 -0.692873 0
M  V30 449 C 41.5657 -0.908137 -1.90568 0
M  V30 450 O 40.9137 0.0372298 -2.2847 0
M  V30 451 C 41.1237 -3.32034 -1.07492 0
M  V30 452 C 42.4717 -3.98406 -1.46826 0
M  V30 453 O 43.4957 -3.36505 -1.16801 0
M  V30 454 O 42.3547 -5.07497 -2.02754 0
M  V30 455 H 39.4487 -0.754079 -0.33955 0
M  V30 456 H 41.9947 -1.69619 0.0524456 0
M  V30 457 H 40.7667 -3.90728 -0.211552 0
M  V30 458 H 40.3897 -3.50424 -1.87854 0
M  V30 459 N 41.3868 0.248026 -1.55636 0
M  V30 460 C 42.6268 0.983592 -1.79178 0
M  V30 461 C 42.9908 1.82567 -0.594414 0
M  V30 462 O 44.1918 2.59292 -0.708583 0
M  V30 463 C 42.4628 1.82228 -3.07454 0
M  V30 464 S 44.0218 2.61709 -3.52213 0
M  V30 465 H 40.8398 0.330866 -0.629324 0
M  V30 466 H 43.4418 0.251562 -1.93875 0
M  V30 467 H 42.1458 1.19333 -3.92668 0
M  V30 468 H 41.6768 2.59708 -2.95492 0
M  V30 469 H 43.6918 3.84655 -3.13457 0
M  V30 470 N 42.8649 1.48995 0.513639 0
M  V30 471 C 44.1139 1.57093 1.2651 0
M  V30 472 C 44.4269 0.257091 1.93903 0
M  V30 473 O 45.6329 0.216478 2.70636 0
M  V30 474 C 44.0889 2.77118 2.29638 0
M  V30 475 C 43.6969 4.15209 1.68241 0
M  V30 476 C 45.4409 2.94538 3.05692 0
M  V30 477 C 43.3479 5.26474 2.69406 0
M  V30 478 H 42.2779 0.584876 0.475854 0
M  V30 479 H 44.9289 1.7536 0.540487 0
M  V30 480 H 43.3109 2.52319 3.05207 0
M  V30 481 H 44.4849 4.50094 0.987505 0
M  V30 482 H 42.7999 4.03042 1.04623 0
M  V30 483 H 45.3969 3.74832 3.8132 0
M  V30 484 H 45.7399 2.04614 3.62545 0
M  V30 485 H 46.2729 3.19316 2.37238 0
M  V30 486 H 43.0119 6.18417 2.17351 0
M  V30 487 H 42.5319 4.96058 3.37175 0
M  V30 488 H 44.2109 5.55277 3.32078 0
M  V30 489 N 44.343 -0.763751 1.37857 0
M  V30 490 C 45.306 -1.85889 1.34081 0
M  V30 491 C 46.306 -1.58949 0.243277 0
M  V30 492 O 47.496 -1.66882 0.499589 0
M  V30 493 C 44.628 -3.23176 1.08489 0
M  V30 494 H 45.821 -1.90648 2.31502 0
M  V30 495 H 43.374 -0.964367 1.23003 0
M  V30 496 H 44.109 -3.24091 0.116318 0
M  V30 497 H 43.894 -3.44124 1.8794 0
M  V30 498 H 45.384 -4.03254 1.08517 0
M  V30 499 N 45.8211 -1.22559 -0.990812 0
M  V30 500 C 47.0671 -1.05297 -1.73322 0
M  V30 501 C 47.4001 0.410655 -1.89808 0
M  V30 502 O 46.6751 1.30439 -1.44277 0
M  V30 503 C 46.9581 -1.76713 -3.13759 0
M  V30 504 C 46.8111 -3.30684 -3.04907 0
M  V30 505 C 48.1301 -1.52121 -4.12974 0
M  V30 506 H 45.2491 -0.38392 -0.629106 0
M  V30 507 H 47.8911 -1.50926 -1.15418 0
M  V30 508 H 46.0411 -1.37924 -3.63193 0
M  V30 509 H 47.7131 -3.7893 -2.63077 0
M  V30 510 H 45.9561 -3.60253 -2.41661 0
M  V30 511 H 46.6271 -3.75833 -4.04294 0
M  V30 512 H 49.1031 -1.85819 -3.72304 0
M  V30 513 H 47.9791 -2.04582 -5.0935 0
M  V30 514 H 48.2401 -0.454257 -4.3976 0
M  V30 515 N 47.2992 1.18797 -1.03562 0
M  V30 516 C 48.5242 1.9314 -0.755764 0
M  V30 517 C 48.9492 1.7537 0.68022 0
M  V30 518 O 48.3072 1.06046 1.47051 0
M  V30 519 C 48.3552 3.42747 -1.12058 0
M  V30 520 O 47.4592 4.11683 -0.243124 0
M  V30 521 H 46.8002 0.602724 -0.278604 0
M  V30 522 H 49.3302 1.50678 -1.3841 0
M  V30 523 H 49.3402 3.93437 -1.08035 0
M  V30 524 H 48.0152 3.55002 -2.16672 0
M  V30 525 H 46.5922 3.71323 -0.342539 0
M  V30 526 N 48.7773 0.814389 1.34928 0
M  V30 527 C 49.7093 0.187834 2.28429 0
M  V30 528 C 50.7223 -0.617374 1.5064 0
M  V30 529 O 51.9113 -0.448454 1.72775 0
M  V30 530 C 49.0113 -0.755962 3.30361 0
M  V30 531 C 48.1843 0.00456686 4.374 0
M  V30 532 C 47.2433 -0.858876 5.19143 0
M  V30 533 O 46.2693 -0.306968 5.68372 0
M  V30 534 N 47.4713 -2.17988 5.38016 0
M  V30 535 H 50.2363 0.991105 2.82838 0
M  V30 536 H 47.7973 0.670561 1.4736 0
M  V30 537 H 49.7893 -1.338 3.81942 0
M  V30 538 H 48.3593 -1.46001 2.7641 0
M  V30 539 H 47.5793 0.767865 3.86649 0
M  V30 540 H 48.8673 0.528422 5.06049 0
M  V30 541 H 48.2653 -2.65212 4.99679 0
M  V30 542 H 46.8223 -2.71098 5.92747 0
M  V30 543 N 50.2554 -1.46986 0.568584 0
M  V30 544 C 51.2024 -2.30153 -0.172707 0
M  V30 545 C 52.1724 -1.39759 -0.897586 0
M  V30 546 O 53.3574 -1.68716 -0.891044 0
M  V30 547 C 50.4974 -3.23952 -1.1895 0
M  V30 548 C 49.6104 -4.29441 -0.469517 0
M  V30 549 C 48.7454 -5.1038 -1.47259 0
M  V30 550 C 47.7844 -6.07632 -0.738225 0
M  V30 551 N 46.9214 -6.8149 -1.68868 0
M  V30 552 H 51.7614 -2.93019 0.542596 0
M  V30 553 H 49.2984 -1.44422 0.279401 0
M  V30 554 H 51.2564 -3.76767 -1.79173 0
M  V30 555 H 49.8864 -2.62926 -1.87269 0
M  V30 556 H 48.9384 -3.79594 0.247467 0
M  V30 557 H 50.2504 -4.98689 0.105241 0
M  V30 558 H 49.4044 -5.67402 -2.14803 0
M  V30 559 H 48.1434 -4.4106 -2.08128 0
M  V30 560 H 47.1484 -5.49778 -0.0489293 0
M  V30 561 H 48.3734 -6.78966 -0.135129 0
M  V30 562 H 46.3194 -6.14891 -2.28573 0
M  V30 563 H 46.2364 -7.46948 -1.16636 0
M  V30 564 H 47.5044 -7.43078 -2.3549 0
M  V30 565 N 51.7335 -0.305618 -1.54608 0
M  V30 566 C 52.6965 0.555591 -2.22364 0
M  V30 567 C 53.6965 1.05768 -1.21119 0
M  V30 568 O 54.8865 0.952972 -1.45822 0
M  V30 569 C 52.0185 1.76974 -2.91364 0
M  V30 570 H 53.2115 -0.0364572 -2.99878 0
M  V30 571 H 50.7645 -0.0565007 -1.56198 0
M  V30 572 H 51.4995 2.40151 -2.17941 0
M  V30 573 H 51.2845 1.41732 -3.65588 0
M  V30 574 H 52.7745 2.38148 -3.43038 0
M  V30 575 N 53.2116 1.57565 -0.0334293 0
M  V30 576 C 54.4516 1.93844 0.648379 0
M  V30 577 C 54.8156 0.910387 1.69044 0
M  V30 578 O 56.0166 1.15952 2.42505 0
M  V30 579 C 54.2876 3.35017 1.24492 0
M  V30 580 S 55.8466 3.93229 1.94721 0
M  V30 581 H 52.6646 0.678231 0.213364 0
M  V30 582 H 55.2666 1.95254 -0.0981253 0
M  V30 583 H 53.9706 4.07652 0.474128 0
M  V30 584 H 53.5016 3.37061 2.02864 0
M  V30 585 H 55.5166 3.77014 3.22606 0
M  V30 586 N 54.6897 -0.239769 1.55765 0
M  V30 587 C 55.9357 -0.968234 1.78194 0
M  V30 588 C 56.2687 -1.84701 0.599938 0
M  V30 589 O 55.5437 -1.9031 -0.401524 0
M  V30 590 C 55.8267 -1.8227 3.10564 0
M  V30 591 C 55.6797 -0.971633 4.3918 0
M  V30 592 C 56.9987 -2.80388 3.39221 0
M  V30 593 H 54.1177 -0.350572 0.648281 0
M  V30 594 H 56.7597 -0.238259 1.885 0
M  V30 595 H 54.9097 -2.44507 3.01908 0
M  V30 596 H 56.5817 -0.367408 4.59835 0
M  V30 597 H 54.8247 -0.276276 4.32919 0
M  V30 598 H 55.4957 -1.60346 5.28198 0
M  V30 599 H 57.9717 -2.28287 3.47885 0
M  V30 600 H 56.8477 -3.3729 4.33044 0
M  V30 601 H 57.1087 -3.57212 2.60484 0
M  V30 602 N 56.1678 -1.49265 -0.50573 0
M  V30 603 C 57.3978 -1.61979 -1.28243 0
M  V30 604 C 57.8058 -0.288576 -1.86986 0
M  V30 605 O 57.1488 0.735408 -1.68337 0
M  V30 606 C 57.2108 -2.62632 -2.45489 0
M  V30 607 C 56.8748 -4.071 -2.07651 0
M  V30 608 C 57.8718 -4.94049 -1.61901 0
M  V30 609 C 55.5568 -4.52801 -2.17431 0
M  V30 610 C 57.5508 -6.24736 -1.26428 0
M  V30 611 C 55.2378 -5.83503 -1.8157 0
M  V30 612 C 56.2358 -6.69294 -1.36142 0
M  V30 613 O 55.9238 -7.9756 -1.00764 0
M  V30 614 H 55.6558 -0.54834 -0.395347 0
M  V30 615 H 58.2098 -1.96002 -0.614204 0
M  V30 616 H 56.4398 -2.2378 -3.15372 0
M  V30 617 H 58.1288 -2.64925 -3.07522 0
M  V30 618 H 58.8948 -4.5997 -1.53795 0
M  V30 619 H 54.7738 -3.86196 -2.51742 0
M  V30 620 H 58.3178 -6.91652 -0.908992 0
M  V30 621 H 54.2148 -6.17112 -1.89324 0
M  V30 622 H 54.9828 -8.10529 -1.13952 0
M  V30 623 N 57.6459 0.756429 -1.3826 0
M  V30 624 C 58.8739 1.54565 -1.3754 0
M  V30 625 C 59.2889 1.88767 0.0355331 0
M  V30 626 O 58.6459 1.52572 1.0014 0
M  V30 627 C 58.6969 2.84654 -2.22833 0
M  V30 628 O 58.4179 2.51912 -3.5843 0
M  V30 629 C 59.9189 3.78807 -2.30261 0
M  V30 630 H 57.1389 0.478353 -0.470553 0
M  V30 631 H 59.6829 0.936381 -1.81803 0
M  V30 632 H 57.8379 3.41965 -1.8204 0
M  V30 633 H 58.2519 3.35325 -4.03308 0
M  V30 634 H 59.7259 4.67045 -2.94233 0
M  V30 635 H 60.2029 4.19038 -1.31545 0
M  V30 636 H 60.8089 3.2742 -2.71433 0
M  V30 637 N 59.124 1.23083 0.984299 0
M  V30 638 C 60.535 1.05609 1.5396 0
M  V30 639 C 60.886 -0.377793 1.92528 0
M  V30 640 O 60.011 -1.26398 1.75649 0
M  V30 641 C 60.606 1.91087 2.7977 0
M  V30 642 C 59.165 1.77885 3.31713 0
M  V30 643 C 58.312 1.87028 2.04733 0
M  V30 644 H 61.263 1.36802 0.804419 0
M  V30 645 H 61.284 1.43336 3.5247 0
M  V30 646 H 60.796 2.9544 2.51668 0
M  V30 647 H 58.897 0.762995 3.64704 0
M  V30 648 H 59.01 2.61047 4.01735 0
M  V30 649 H 57.374 1.30565 2.18689 0
M  V30 650 H 58.157 2.92929 1.79017 0
M  V30 651 N 60.6021 -1.18246 1.0419 0
M  V30 652 C 61.5521 -2.19843 0.604392 0
M  V30 653 C 62.5361 -1.56962 -0.353814 0
M  V30 654 O 63.7281 -1.76156 -0.17267 0
M  V30 655 C 60.8571 -3.43287 -0.0298975 0
M  V30 656 C 59.9431 -4.13288 0.951531 0
M  V30 657 N 60.3341 -4.59271 2.11906 0
M  V30 658 C 58.6321 -4.39165 0.7778 0
M  V30 659 C 59.3331 -5.13173 2.73912 0
M  V30 660 N 58.3091 -5.04763 2.01779 0
M  V30 661 H 62.1111 -2.53089 1.4941 0
M  V30 662 H 59.6251 -1.34465 0.910658 0
M  V30 663 H 61.6221 -4.15334 -0.361037 0
M  V30 664 H 60.2821 -3.11537 -0.915127 0
M  V30 665 H 61.2931 -4.5368 2.49789 0
M  V30 666 H 57.9701 -4.17461 -0.0572331 0
M  V30 667 H 59.3601 -5.58947 3.72864 0
M  V30 668 N 62.0802 -0.821533 -1.34494 0
M  V30 669 C 63.3082 -0.421884 -2.02553 0
M  V30 670 C 63.7232 0.971745 -1.61872 0
M  V30 671 O 63.0802 1.62864 -0.823496 0
M  V30 672 C 63.1312 -0.51285 -3.57844 0
M  V30 673 O 62.8522 -1.85155 -3.97051 0
M  V30 674 C 64.3532 -0.107921 -4.43169 0
M  V30 675 H 61.5732 -0.169482 -0.649243 0
M  V30 676 H 64.1172 -1.1093 -1.71798 0
M  V30 677 H 62.2722 0.126474 -3.87193 0
M  V30 678 H 62.6862 -1.82482 -4.91732 0
M  V30 679 H 64.1602 -0.222657 -5.51551 0
M  V30 680 H 64.6372 0.948401 -4.28838 0
M  V30 681 H 65.2432 -0.720989 -4.19144 0
M  V30 682 N 63.5583 1.46682 -0.576371 0
M  V30 683 C 64.5213 2.28707 0.150239 0
M  V30 684 C 65.5213 1.38035 0.824794 0
M  V30 685 O 66.7113 1.60476 0.677719 0
M  V30 686 C 63.8433 3.18248 1.22192 0
M  V30 687 H 65.0363 2.94423 -0.570521 0
M  V30 688 H 62.5893 1.52688 -0.334078 0
M  V30 689 H 63.3243 2.57265 1.97447 0
M  V30 690 H 63.1093 3.85 0.742812 0
M  V30 691 H 64.5993 3.80001 1.73172 0
M  V30 692 N 65.0364 0.313813 1.54444 0
M  V30 693 C 66.2844 -0.291099 1.99993 0
M  V30 694 C 66.6054 -1.53418 1.20366 0
M  V30 695 O 65.8754 -1.93544 0.302927 0
M  V30 696 H 64.4554 -0.110552 0.738774 0
M  V30 697 H 67.1174 0.428106 1.9014 0
M  V30 698 H 66.2134 -0.554268 3.07139 0
M  V30 699 N 66.5145 -1.57545 0.0417849 0
M  V30 700 C 67.9305 -1.56467 -0.314704 0
M  V30 701 C 68.1305 -1.04859 -1.72066 0
M  V30 702 O 67.1865 -0.700983 -2.42575 0
M  V30 703 C 68.4995 -3.00317 -0.15174 0
M  V30 704 C 70.0475 -3.12201 -0.223553 0
M  V30 705 C 70.5225 -4.57913 -0.0892295 0
M  V30 706 N 72.0135 -4.6297 -0.145808 0
M  V30 707 C 72.7485 -5.73362 -0.0658459 0
M  V30 708 N 72.2445 -6.92769 0.0659282 0
M  V30 709 N 74.0375 -5.6197 -0.12075 0
M  V30 710 H 66.1885 -1.89416 0.961014 0
M  V30 711 H 68.4515 -0.871862 0.372237 0
M  V30 712 H 68.1575 -3.42073 0.817254 0
M  V30 713 H 68.0315 -3.65892 -0.916692 0
M  V30 714 H 70.4185 -2.70349 -1.18301 0
M  V30 715 H 70.4995 -2.49323 0.571994 0
M  V30 716 H 70.1435 -5.00448 0.866867 0
M  V30 717 H 70.0735 -5.18786 -0.903802 0
M  V30 718 H 72.5645 -3.7709 -0.247286 0
M  V30 719 H 72.8775 -7.72707 0.119905 0
M  V30 720 H 71.2225 -6.94927 0.100885 0
M  V30 721 H 74.4135 -4.67572 -0.222187 0
M  V30 722 H 74.5865 -6.47977 -0.0549735 0
M  V30 723 N 67.9926 0.231505 -1.5589 0
M  V30 724 C 69.2226 0.973092 -1.82248 0
M  V30 725 C 69.6306 1.78845 -0.617328 0
M  V30 726 O 68.9736 1.78752 0.423499 0
M  V30 727 C 69.0356 1.94732 -3.02192 0
M  V30 728 C 68.6996 1.31743 -4.37599 0
M  V30 729 C 69.6966 0.712238 -5.14998 0
M  V30 730 C 67.3816 1.33218 -4.84312 0
M  V30 731 C 69.3756 0.130195 -6.37267 0
M  V30 732 C 67.0626 0.746286 -6.06526 0
M  V30 733 C 68.0606 0.146337 -6.82843 0
M  V30 734 O 67.7486 -0.430465 -8.02747 0
M  V30 735 H 67.4806 0.29125 -0.61004 0
M  V30 736 H 70.0346 0.254915 -2.03812 0
M  V30 737 H 68.2646 2.70422 -2.76422 0
M  V30 738 H 69.9536 2.55362 -3.15508 0
M  V30 739 H 70.7196 0.69324 -4.8002 0
M  V30 740 H 66.5986 1.78854 -4.24891 0
M  V30 741 H 70.1426 -0.33871 -6.96777 0
M  V30 742 H 66.0396 0.762663 -6.40979 0
M  V30 743 H 66.8076 -0.323818 -8.17859 0
M  V30 744 N 69.4707 1.49531 0.497807 0
M  V30 745 C 70.4027 1.62559 1.61578 0
M  V30 746 C 71.4157 0.508134 1.54667 0
M  V30 747 O 72.6047 0.780309 1.60541 0
M  V30 748 C 69.7047 1.56925 3.00379 0
M  V30 749 C 68.8777 2.84257 3.3244 0
M  V30 750 C 67.9367 2.71632 4.50669 0
M  V30 751 O 66.9627 3.4557 4.52294 0
M  V30 752 N 68.1647 1.83391 5.5077 0
M  V30 753 H 70.9297 2.58981 1.50828 0
M  V30 754 H 68.4907 1.4666 0.685743 0
M  V30 755 H 70.4827 1.46129 3.77397 0
M  V30 756 H 69.0527 0.683483 3.05037 0
M  V30 757 H 68.2727 3.09381 2.44289 0
M  V30 758 H 69.5607 3.68666 3.5066 0
M  V30 759 H 68.9587 1.22583 5.52259 0
M  V30 760 H 67.5157 1.78515 6.26878 0
M  V30 761 N 70.9488 -0.749086 1.3866 0
M  V30 762 C 71.8958 -1.86291 1.36251 0
M  V30 763 C 72.8658 -1.64578 0.224347 0
M  V30 764 O 74.0508 -1.86181 0.417279 0
M  V30 765 C 71.1908 -3.23644 1.19786 0
M  V30 766 C 70.3038 -3.57158 2.43027 0
M  V30 767 C 69.4388 -4.83838 2.19258 0
M  V30 768 C 68.4778 -5.10152 3.38247 0
M  V30 769 N 67.6148 -6.28029 3.13884 0
M  V30 770 H 72.4548 -1.87685 2.3147 0
M  V30 771 H 69.9918 -0.917287 1.14997 0
M  V30 772 H 71.9498 -4.0291 1.08254 0
M  V30 773 H 70.5798 -3.21566 0.282031 0
M  V30 774 H 69.6318 -2.72701 2.65214 0
M  V30 775 H 70.9438 -3.7253 3.31697 0
M  V30 776 H 70.0978 -5.71057 2.04888 0
M  V30 777 H 68.8368 -4.70614 1.2796 0
M  V30 778 H 67.8418 -4.21401 3.53131 0
M  V30 779 H 69.0668 -5.25271 4.30427 0
M  V30 780 H 67.0128 -6.1612 2.25238 0
M  V30 781 H 66.9298 -6.43922 3.96106 0
M  V30 782 H 68.1978 -7.18124 3.03179 0
M  V30 783 N 72.4269 -1.23603 -0.977757 0
M  V30 784 C 73.3739 -1.01954 -2.07061 0
M  V30 785 C 74.3439 0.0638697 -1.65977 0
M  V30 786 O 75.5289 -0.0887624 -1.90593 0
M  V30 787 C 72.6689 -0.619658 -3.39491 0
M  V30 788 C 71.7819 -1.77547 -3.93829 0
M  V30 789 C 70.9169 -1.32212 -5.14484 0
M  V30 790 C 69.9559 -2.44852 -5.60994 0
M  V30 791 N 69.0929 -2.00456 -6.72876 0
M  V30 792 H 73.9329 -1.95495 -2.24913 0
M  V30 793 H 71.4699 -0.973861 -1.10247 0
M  V30 794 H 73.4279 -0.368898 -4.15566 0
M  V30 795 H 72.0579 0.278752 -3.21594 0
M  V30 796 H 71.1099 -2.14016 -3.14486 0
M  V30 797 H 72.4219 -2.62219 -4.24314 0
M  V30 798 H 71.5759 -1.02965 -5.97899 0
M  V30 799 H 70.3149 -0.445808 -4.85658 0
M  V30 800 H 69.3199 -2.74871 -4.76157 0
M  V30 801 H 70.5449 -3.33024 -5.91837 0
M  V30 802 H 68.4909 -1.15208 -6.45804 0
M  V30 803 H 68.4079 -2.78687 -7.02759 0
M  V30 804 H 69.6759 -1.7432 -7.59758 0
M  V30 805 N 73.905 1.17692 -1.04816 0
M  V30 806 C 75.321 1.39863 -0.768794 0
M  V30 807 C 75.521 1.91118 0.638451 0
M  V30 808 O 74.577 2.10036 1.40146 0
M  V30 809 C 75.89 2.39274 -1.82122 0
M  V30 810 C 77.438 2.52987 -1.843 0
M  V30 811 C 77.913 3.55669 -2.88555 0
M  V30 812 N 79.404 3.63183 -2.87493 0
M  V30 813 C 80.139 4.42381 -3.64811 0
M  V30 814 N 79.635 5.25125 -4.51903 0
M  V30 815 N 81.428 4.37217 -3.53267 0
M  V30 816 H 73.579 0.82752 -1.95617 0
M  V30 817 H 75.842 0.426123 -0.846831 0
M  V30 818 H 75.548 2.08678 -2.83102 0
M  V30 819 H 75.422 3.38725 -1.65967 0
M  V30 820 H 77.809 2.82896 -0.839869 0
M  V30 821 H 77.89 1.53623 -2.04532 0
M  V30 822 H 77.534 3.26499 -3.89051 0
M  V30 823 H 77.464 4.54728 -2.65575 0
M  V30 824 H 79.955 3.04103 -2.24343 0
M  V30 825 H 80.268 5.82728 -5.07591 0
M  V30 826 H 78.613 5.24519 -4.55966 0
M  V30 827 H 81.804 3.71626 -2.84625 0
M  V30 828 H 81.977 4.98696 -4.13771 0
M  V30 829 N 75.3831 0.828654 1.34056 0
M  V30 830 C 76.6301 0.419458 1.98108 0
M  V30 831 C 76.9581 -1.01886 1.65679 0
M  V30 832 O 76.2131 -1.72539 0.923512 0
M  V30 833 C 76.5121 0.575226 3.52741 0
M  V30 834 C 76.1781 1.98012 4.05095 0
M  V30 835 C 74.8401 2.36442 4.19104 0
M  V30 836 C 77.1921 2.89824 4.33188 0
M  V30 837 C 74.5201 3.66009 4.58535 0
M  V30 838 C 76.8721 4.1886 4.74066 0
M  V30 839 C 75.5361 4.5726 4.86281 0
M  V30 840 H 74.8061 0.153491 0.724929 0
M  V30 841 H 77.4531 1.05371 1.59904 0
M  V30 842 H 75.7581 -0.142385 3.91541 0
M  V30 843 H 77.4551 0.239057 4.00287 0
M  V30 844 H 74.0451 1.67162 3.94658 0
M  V30 845 H 78.2291 2.61375 4.21897 0
M  V30 846 H 73.4851 3.95579 4.66184 0
M  V30 847 H 77.6591 4.90086 4.94761 0
M  V30 848 H 75.2861 5.57707 5.16592 0
M  V30 849 N 76.8612 -1.46375 0.584142 0
M  V30 850 C 78.2772 -1.57694 0.245929 0
M  V30 851 C 78.4772 -1.57903 -1.25175 0
M  V30 852 O 77.5332 -1.49676 -2.03355 0
M  V30 853 C 78.8462 -2.87028 0.896402 0
M  V30 854 C 80.3942 -3.00662 0.870127 0
M  V30 855 C 80.8692 -4.32734 1.50017 0
M  V30 856 N 82.3602 -4.39436 1.46458 0
M  V30 857 C 83.0952 -5.40248 1.92144 0
M  V30 858 N 82.5912 -6.47726 2.4581 0
M  V30 859 N 84.3842 -5.31459 1.83052 0
M  V30 860 H 76.5352 -1.44483 1.55687 0
M  V30 861 H 78.7982 -0.689291 0.650831 0
M  V30 862 H 78.5042 -2.9269 1.95002 0
M  V30 863 H 78.3782 -3.75014 0.405486 0
M  V30 864 H 80.7652 -2.94581 -0.174871 0
M  V30 865 H 80.8462 -2.14148 1.39908 0
M  V30 866 H 80.4902 -4.39573 2.54437 0
M  V30 867 H 80.4202 -5.18025 0.946432 0
M  V30 868 H 82.9112 -3.62367 1.07231 0
M  V30 869 H 83.2242 -7.20863 2.78525 0
M  V30 870 H 81.5692 -6.48542 2.49836 0
M  V30 871 H 84.7602 -4.46396 1.40883 0
M  V30 872 H 84.9332 -6.09881 2.18973 0
M  V30 873 N 78.3393 -0.321999 -1.54275 0
M  V30 874 C 79.2863 0.544664 -2.24281 0
M  V30 875 C 80.2563 1.1129 -1.23303 0
M  V30 876 O 81.4413 1.15354 -1.51981 0
M  V30 877 C 78.5813 1.70045 -3.00298 0
M  V30 878 C 77.6943 1.16159 -4.1609 0
M  V30 879 C 76.8293 2.28293 -4.79641 0
M  V30 880 C 75.8683 1.71648 -5.8754 0
M  V30 881 N 75.0053 2.77438 -6.44959 0
M  V30 882 H 79.8453 -0.0588907 -2.97942 0
M  V30 883 H 77.3823 -0.0408345 -1.47043 0
M  V30 884 H 79.3403 2.38054 -3.42616 0
M  V30 885 H 77.9703 2.27531 -2.28975 0
M  V30 886 H 77.0223 0.373092 -3.78566 0
M  V30 887 H 78.3343 0.707087 -4.93763 0
M  V30 888 H 77.4883 3.0421 -5.2492 0
M  V30 889 H 76.2273 2.77079 -4.01346 0
M  V30 890 H 75.2323 0.942282 -5.41665 0
M  V30 891 H 76.4573 1.23741 -6.67731 0
M  V30 892 H 74.4033 3.25519 -5.69538 0
M  V30 893 H 74.3203 2.36547 -7.1804 0
M  V30 894 H 75.5883 3.53189 -6.94894 0
M  V30 895 N 79.8174 1.5752 -0.0501392 0
M  V30 896 C 80.7804 2.1037 0.909786 0
M  V30 897 C 81.7804 1.02308 1.24056 0
M  V30 898 O 82.9704 1.28385 1.17741 0
M  V30 899 C 80.1024 2.58708 2.21998 0
M  V30 900 H 81.2954 2.96479 0.451665 0
M  V30 901 H 78.8484 1.55038 0.198248 0
M  V30 902 H 79.5834 1.75989 2.72394 0
M  V30 903 H 79.3684 3.37675 1.99295 0
M  V30 904 H 80.8584 2.99747 2.9076 0
M  V30 905 N 81.2955 -0.223234 1.56011 0
M  V30 906 C 82.2255 -1.27988 1.95298 0
M  V30 907 C 83.2065 -1.48976 0.820979 0
M  V30 908 O 84.3915 -1.61188 1.08315 0
M  V30 909 C 81.5215 -2.63 2.26822 0
M  V30 910 C 80.4755 -2.56671 3.42497 0
M  V30 911 C 79.8015 -3.95697 3.59622 0
M  V30 912 C 81.1015 -2.11601 4.77517 0
M  V30 913 H 82.7955 -0.953525 2.8381 0
M  V30 914 H 80.3415 -0.457244 1.36548 0
M  V30 915 H 82.2945 -3.37077 2.52898 0
M  V30 916 H 81.0185 -2.9732 1.35161 0
M  V30 917 H 79.6775 -1.85051 3.16467 0
M  V30 918 H 79.3255 -4.27322 2.6534 0
M  V30 919 H 79.0255 -3.92345 4.37424 0
M  V30 920 H 80.5495 -4.71438 3.88044 0
M  V30 921 H 81.9635 -2.7542 5.02809 0
M  V30 922 H 80.3605 -2.19311 5.5859 0
M  V30 923 H 81.4305 -1.06824 4.72987 0
M  V30 924 N 82.7736 -1.49793 -0.48987 0
M  V30 925 C 84.0136 -1.61466 -1.25332 0
M  V30 926 C 84.3776 -0.299688 -1.89647 0
M  V30 927 O 85.5786 -0.291687 -2.67213 0
M  V30 928 C 83.8496 -2.74944 -2.28343 0
M  V30 929 S 85.4086 -3.06637 -3.13878 0
M  V30 930 H 82.2266 -0.569411 -0.425784 0
M  V30 931 H 84.8286 -1.875 -0.553541 0
M  V30 932 H 83.5326 -3.68994 -1.79643 0
M  V30 933 H 83.0636 -2.50938 -3.02975 0
M  V30 934 H 85.0786 -2.49015 -4.29192 0
M  V30 935 N 84.2517 0.741722 -1.39055 0
M  V30 936 C 85.6627 1.31966 -1.32068 0
M  V30 937 C 86.0137 1.96192 0.0180797 0
M  V30 938 O 85.1387 1.95861 0.920196 0
M  V30 939 C 85.7337 2.39954 -2.39181 0
M  V30 940 C 84.2927 2.93438 -2.35735 0
M  V30 941 C 83.4397 1.66936 -2.21422 0
M  V30 942 H 86.3907 0.539721 -1.4924 0
M  V30 943 H 86.4117 3.20182 -2.05581 0
M  V30 944 H 85.9237 1.9318 -3.36605 0
M  V30 945 H 84.0247 3.4451 -1.41929 0
M  V30 946 H 84.1377 3.4701 -3.30335 0
M  V30 947 H 82.5017 1.91016 -1.68478 0
M  V30 948 H 83.2847 1.22224 -3.20806 0
M  V30 949 N 85.7298 1.2412 0.971189 0
M  V30 950 C 86.9788 1.07284 1.70801 0
M  V30 951 C 87.2918 -0.388902 1.91695 0
M  V30 952 O 88.4978 -0.677379 2.62914 0
M  V30 953 C 86.9538 1.87145 3.07416 0
M  V30 954 C 86.5618 3.37707 2.94377 0
M  V30 955 C 88.3058 1.78828 3.84995 0
M  V30 956 C 86.2128 4.09925 4.26281 0
M  V30 957 H 85.1428 0.397854 0.64049 0
M  V30 958 H 87.7938 1.4817 1.0825 0
M  V30 959 H 86.1758 1.39071 3.70777 0
M  V30 960 H 87.3498 3.93335 2.4005 0
M  V30 961 H 85.6648 3.46938 2.30267 0
M  V30 962 H 88.2618 2.30089 4.82662 0
M  V30 963 H 88.6048 0.75284 4.09436 0
M  V30 964 H 89.1378 2.24563 3.28354 0
M  V30 965 H 85.8768 5.13813 4.07033 0
M  V30 966 H 85.3968 3.59083 4.80437 0
M  V30 967 H 87.0758 4.1673 4.94919 0
M  V30 968 N 87.2079 -1.17134 1.05439 0
M  V30 969 C 88.4539 -1.87733 0.767077 0
M  V30 970 C 88.7869 -1.8098 -0.704253 0
M  V30 971 O 88.0619 -1.21951 -1.5152 0
M  V30 972 C 88.3449 -3.37659 1.25133 0
M  V30 973 C 88.1979 -3.53149 2.78578 0
M  V30 974 C 89.5169 -4.31768 0.852324 0
M  V30 975 H 86.6359 -0.681687 0.280129 0
M  V30 976 H 89.2779 -1.37732 1.30881 0
M  V30 977 H 87.4279 -3.80373 0.790469 0
M  V30 978 H 89.0999 -3.19434 3.32806 0
M  V30 979 H 87.3429 -2.95345 3.17732 0
M  V30 980 H 88.0139 -4.58403 3.07523 0
M  V30 981 H 90.4899 -3.96909 1.24911 0
M  V30 982 H 89.3659 -5.35199 1.21873 0
M  V30 983 H 89.6269 -4.41429 -0.243485 0
M  V30 984 N 88.686 -0.835752 -1.33615 0
M  V30 985 C 89.596 -0.269088 -2.33052 0
M  V30 986 C 90.612 0.603251 -1.63208 0
M  V30 987 O 91.788 0.508112 -1.94885 0
M  V30 988 C 88.853 0.549091 -3.42324 0
M  V30 989 C 87.914 -0.347156 -4.27894 0
M  V30 990 C 87.147 0.43207 -5.31948 0
M  V30 991 O 87.37 1.66409 -5.45586 0
M  V30 992 O 86.304 -0.192298 -6.01593 0
M  V30 993 H 90.13 -1.09243 -2.83372 0
M  V30 994 H 87.715 -0.598198 -1.36901 0
M  V30 995 H 89.597 1.01414 -4.09015 0
M  V30 996 H 88.272 1.34955 -2.94226 0
M  V30 997 H 87.179 -0.859979 -3.64081 0
M  V30 998 H 88.512 -1.1123 -4.79467 0
M  V30 999 N 90.1641 1.46063 -0.591896 0
M  V30 1000 C 91.5801 1.57561 -0.254288 0
M  V30 1001 C 91.7801 1.58565 1.24336 0
M  V30 1002 O 90.8361 1.50753 2.02558 0
M  V30 1003 C 92.1491 2.86549 -0.911611 0
M  V30 1004 C 93.6971 3.00197 -0.886059 0
M  V30 1005 C 94.1721 4.31933 -1.5231 0
M  V30 1006 N 95.6631 4.38654 -1.48786 0
M  V30 1007 C 96.3981 5.39222 -1.95006 0
M  V30 1008 N 95.8941 6.46414 -2.49241 0
M  V30 1009 N 97.6871 5.3048 -1.85868 0
M  V30 1010 H 89.8381 1.43655 -1.56451 0
M  V30 1011 H 92.1011 0.68583 -0.654478 0
M  V30 1012 H 91.8071 2.91651 -1.96551 0
M  V30 1013 H 91.6811 3.74794 -0.425368 0
M  V30 1014 H 94.0681 2.9467 0.159246 0
M  V30 1015 H 94.1491 2.13403 -1.41041 0
M  V30 1016 H 93.7931 4.38217 -2.56765 0
M  V30 1017 H 93.7231 5.17516 -0.973891 0
M  V30 1018 H 96.2141 3.61793 -1.09151 0
M  V30 1019 H 96.5271 7.19376 -2.82344 0
M  V30 1020 H 94.8721 6.47208 -2.53272 0
M  V30 1021 H 98.0631 4.45643 -1.43248 0
M  V30 1022 H 98.2361 6.08711 -2.22204 0
M  V30 1023 N 91.6422 0.330177 1.54103 0
M  V30 1024 C 92.5722 -0.525353 2.27513 0
M  V30 1025 C 93.5532 -1.11383 1.2856 0
M  V30 1026 O 94.7382 -1.13773 1.57383 0
M  V30 1027 C 91.8682 -1.6831 3.03791 0
M  V30 1028 C 90.8222 -1.2236 4.10137 0
M  V30 1029 C 90.1482 -2.46882 4.74293 0
M  V30 1030 C 91.4482 -0.333697 5.21233 0
M  V30 1031 H 93.1422 0.087013 2.99274 0
M  V30 1032 H 90.6882 0.0432893 1.43935 0
M  V30 1033 H 92.6412 -2.28795 3.5388 0
M  V30 1034 H 91.3652 -2.32216 2.29659 0
M  V30 1035 H 90.0242 -0.64165 3.60941 0
M  V30 1036 H 89.6722 -3.09165 3.96769 0
M  V30 1037 H 89.3722 -2.16825 5.46133 0
M  V30 1038 H 90.8962 -3.08117 5.27159 0
M  V30 1039 H 92.3102 -0.845013 5.67038 0
M  V30 1040 H 90.7072 -0.125612 5.99969 0
M  V30 1041 H 91.7772 0.633724 4.80741 0
M  V30 1042 N 93.1203 -1.57491 0.0584922 0
M  V30 1043 C 94.3663 -1.93264 -0.614558 0
M  V30 1044 C 94.6993 -0.937717 -1.7006 0
M  V30 1045 O 93.9743 0.0351652 -1.94468 0
M  V30 1046 C 94.2573 -3.3938 -1.20386 0
M  V30 1047 C 94.1103 -4.49625 -0.125375 0
M  V30 1048 C 95.4293 -3.86039 -2.11334 0
M  V30 1049 H 92.5483 -0.702791 -0.221933 0
M  V30 1050 H 95.1903 -1.8961 0.12175 0
M  V30 1051 H 93.3403 -3.42626 -1.83139 0
M  V30 1052 H 95.0123 -4.58506 0.506971 0
M  V30 1053 H 93.2553 -4.30354 0.545672 0
M  V30 1054 H 93.9263 -5.48967 -0.577861 0
M  V30 1055 H 96.4023 -3.84716 -1.58534 0
M  V30 1056 H 95.2783 -4.88914 -2.49507 0
M  V30 1057 H 95.5393 -3.23215 -3.01636 0
M  V30 1058 N 94.5984 0.214957 -1.56127 0
M  V30 1059 C 95.5464 1.28601 -1.93816 0
M  V30 1060 C 96.5404 1.48175 -0.821016 0
M  V30 1061 O 97.7464 1.49271 -1.0059 0
M  V30 1062 H 94.1214 0.431302 -0.616022 0
M  V30 1063 H 96.0924 0.940991 -2.83175 0
M  V30 1064 C 94.8414 2.62779 -2.27689 0
M  V30 1065 H 94.1644 2.48527 -3.13168 0
M  V30 1066 H 95.6044 3.36517 -2.57939 0
M  V30 1067 C 94.0634 3.18285 -1.10436 0
M  V30 1068 O 94.5934 4.00002 -0.368945 0
M  V30 1069 N 92.7994 2.7675 -0.886433 0
M  V30 1070 H 92.3464 2.10404 -1.48619 0
M  V30 1071 H 92.3044 3.14229 -0.103656 0
M  V30 1072 N 96.0765 1.50051 0.48192 0
M  V30 1073 C 97.3015 1.64508 1.26301 0
M  V30 1074 C 97.7265 0.323851 1.85291 0
M  V30 1075 O 97.0845 -0.710969 1.66778 0
M  V30 1076 C 97.1325 2.7305 2.35533 0
M  V30 1077 O 96.2365 2.3355 3.39895 0
M  V30 1078 H 95.5775 0.549978 0.372048 0
M  V30 1079 H 98.1075 1.9636 0.574786 0
M  V30 1080 H 98.1175 2.95799 2.8101 0
M  V30 1081 H 96.7925 3.68946 1.91967 0
M  V30 1082 H 95.3695 2.21205 3.00204 0
M  V30 1083 N 97.5546 -0.734337 1.39446 0
M  V30 1084 C 98.4876 -1.85715 1.32609 0
M  V30 1085 C 99.4656 -1.6137 0.199636 0
M  V30 1086 O 100.65 -1.84626 0.380195 0
M  V30 1087 C 97.7766 -3.21709 1.05929 0
M  V30 1088 C 96.8226 -3.64913 2.20773 0
M  V30 1089 S 97.6556 -3.74203 3.83056 0
M  V30 1090 C 98.8116 -5.12986 3.58603 0
M  V30 1091 H 99.0446 -1.91232 2.27635 0
M  V30 1092 H 96.5776 -0.899263 1.25509 0
M  V30 1093 H 98.5356 -4.00236 0.912203 0
M  V30 1094 H 97.1966 -3.13848 0.125883 0
M  V30 1095 H 96.3896 -4.63606 1.97699 0
M  V30 1096 H 95.9916 -2.93593 2.31688 0
M  V30 1097 H 98.2836 -5.99339 3.15909 0
M  V30 1098 H 99.2266 -5.41088 4.5676 0
M  V30 1099 H 99.6346 -4.82694 2.9269 0
M  V30 1100 N 99.0327 -1.24633 -0.964593 0
M  V30 1101 C 99.9657 -0.984662 -2.05863 0
M  V30 1102 C 100.944 0.0826554 -1.6239 0
M  V30 1103 O 102.128 -0.0549296 -1.8842 0
M  V30 1104 C 99.2547 -0.486529 -3.35187 0
M  V30 1105 C 98.3007 -1.54286 -3.97615 0
M  V30 1106 S 99.1337 -3.12513 -4.34851 0
M  V30 1107 C 100.29 -2.6441 -5.67308 0
M  V30 1108 H 100.523 -1.91104 -2.27743 0
M  V30 1109 H 98.0557 -1.08052 -1.10291 0
M  V30 1110 H 100.014 -0.205757 -4.09984 0
M  V30 1111 H 98.6747 0.419186 -3.1129 0
M  V30 1112 H 97.8677 -1.14481 -4.90826 0
M  V30 1113 H 97.4697 -1.7738 -3.2926 0
M  V30 1114 H 99.7617 -2.07416 -6.44969 0
M  V30 1115 H 100.705 -3.56222 -6.11973 0
M  V30 1116 H 101.113 -2.04734 -5.26065 0
M  V30 1117 N 100.511 1.16574 -1.06058 0
M  V30 1118 C 101.444 2.19798 -0.61352 0
M  V30 1119 C 102.422 1.58509 0.362453 0
M  V30 1120 O 103.606 1.86527 0.271994 0
M  V30 1121 C 100.733 3.3855 0.100915 0
M  V30 1122 C 99.7788 4.18317 -0.831438 0
M  V30 1123 S 100.612 4.82375 -2.32539 0
M  V30 1124 C 101.768 6.04508 -1.62238 0
M  V30 1125 H 102.001 2.5738 -1.48805 0
M  V30 1126 H 99.5338 1.27327 -0.873338 0
M  V30 1127 H 101.492 4.07358 0.506898 0
M  V30 1128 H 100.153 2.99338 0.951604 0
M  V30 1129 H 99.3458 5.03232 -0.278071 0
M  V30 1130 H 98.9478 3.5499 -1.17719 0
M  V30 1131 H 101.24 6.71133 -0.926622 0
M  V30 1132 H 102.183 6.64389 -2.44934 0
M  V30 1133 H 102.591 5.53559 -1.106 0
M  V30 1134 N 101.989 0.842826 1.3317 0
M  V30 1135 C 102.939 0.250877 2.26616 0
M  V30 1136 C 103.923 -0.596427 1.49437 0
M  V30 1137 O 105.115 -0.447747 1.71243 0
M  V30 1138 C 102.244 -0.569779 3.38539 0
M  V30 1139 C 101.33 0.289254 4.23112 0
M  V30 1140 N 101.721 1.36987 4.86897 0
M  V30 1141 C 100.019 0.0769631 4.45934 0
M  V30 1142 C 100.72 1.89737 5.49886 0
M  V30 1143 N 99.6959 1.19827 5.30229 0
M  V30 1144 H 103.498 1.07718 2.73448 0
M  V30 1145 H 101.012 0.687693 1.47121 0
M  V30 1146 H 103.009 -1.01018 4.04476 0
M  V30 1147 H 101.669 -1.39401 2.93253 0
M  V30 1148 H 102.68 1.75277 4.87338 0
M  V30 1149 H 99.3569 -0.713507 4.11358 0
M  V30 1150 H 100.747 2.80253 6.10662 0
M  V30 1151 N 103.467 -1.45747 0.599634 0
M  V30 1152 C 104.715 -2.01893 0.0915472 0
M  V30 1153 C 105.036 -1.47155 -1.27946 0
M  V30 1154 O 104.306 -0.66273 -1.84349 0
M  V30 1155 H 102.886 -0.746363 0.0308524 0
M  V30 1156 H 105.548 -1.78645 0.779237 0
M  V30 1157 H 104.644 -3.1208 0.0353086 0
M  V30 1158 N 104.945 -0.338344 -1.53925 0
M  V30 1159 C 106.361 0.0137736 -1.59594 0
M  V30 1160 C 106.561 1.49186 -1.35447 0
M  V30 1161 O 105.617 2.24987 -1.14616 0
M  V30 1162 C 106.93 -0.41773 -2.97784 0
M  V30 1163 C 108.478 -0.369633 -3.1081 0
M  V30 1164 C 108.953 -0.776524 -4.51369 0
M  V30 1165 N 110.444 -0.730506 -4.57403 0
M  V30 1166 C 111.179 -1.01736 -5.64303 0
M  V30 1167 N 110.675 -1.3721 -6.79077 0
M  V30 1168 N 112.468 -0.941942 -5.54151 0
M  V30 1169 H 104.619 -1.3012 -1.67876 0
M  V30 1170 H 106.882 -0.530082 -0.78595 0
M  V30 1171 H 106.588 -1.44811 -3.20504 0
M  V30 1172 H 106.462 0.209729 -3.76616 0
M  V30 1173 H 108.849 0.651568 -2.87817 0
M  V30 1174 H 108.93 -1.03223 -2.34049 0
M  V30 1175 H 108.574 -1.79571 -4.75096 0
M  V30 1176 H 108.504 -0.0914649 -5.26521 0
M  V30 1177 H 110.995 -0.468783 -3.74981 0
M  V30 1178 H 111.308 -1.57597 -7.5656 0
M  V30 1179 H 109.653 -1.4105 -6.80536 0
M  V30 1180 H 112.844 -0.664184 -4.63364 0
M  V30 1181 H 113.017 -1.16884 -6.37371 0
M  V30 1182 N 106.423 1.57458 -0.0668435 0
M  V30 1183 C 107.371 2.13639 0.919851 0
M  V30 1184 C 108.365 1.07204 1.31163 0
M  V30 1185 O 109.571 1.25591 1.28945 0
M  V30 1186 H 105.946 0.683048 0.314562 0
M  V30 1187 H 107.917 2.95415 0.421047 0
M  V30 1188 C 106.666 2.70892 2.17975 0
M  V30 1189 H 105.989 3.5246 1.88711 0
M  V30 1190 H 107.429 3.13803 2.85138 0
M  V30 1191 C 105.888 1.65414 2.93496 0
M  V30 1192 O 106.418 1.07619 3.87015 0
M  V30 1193 N 104.624 1.36564 2.56512 0
M  V30 1194 H 104.171 1.83751 1.80536 0
M  V30 1195 H 104.129 0.66223 3.07347 0
M  V30 1196 N 107.901 -0.206675 1.56239 0
M  V30 1197 C 108.849 -1.27571 1.94495 0
M  V30 1198 C 109.843 -1.47737 0.828862 0
M  V30 1199 O 111.049 -1.48735 1.0138 0
M  V30 1200 H 107.424 -0.428029 0.6183 0
M  V30 1201 H 109.395 -0.925961 2.8367 0
M  V30 1202 C 108.144 -2.61568 2.29079 0
M  V30 1203 H 107.467 -2.46863 3.14482 0
M  V30 1204 H 108.907 -3.35144 2.5972 0
M  V30 1205 C 107.366 -3.17695 1.12123 0
M  V30 1206 O 107.896 -3.99801 0.390153 0
M  V30 1207 N 106.102 -2.76276 0.901097 0
M  V30 1208 H 105.649 -2.09613 1.49733 0
M  V30 1209 H 105.607 -3.1417 0.120319 0
M  V30 1210 N 109.379 -1.50304 -0.473955 0
M  V30 1211 C 110.627 -1.60832 -1.22382 0
M  V30 1212 C 110.948 -0.30939 -1.9253 0
M  V30 1213 O 110.218 0.67296 -1.83978 0
M  V30 1214 H 108.798 -0.592652 -0.454723 0
M  V30 1215 H 111.46 -1.87068 -0.546968 0
M  V30 1216 H 110.556 -2.41803 -1.97327 0
M  V30 1217 N 110.857 0.726932 -1.39834 0
M  V30 1218 C 111.804 1.841 -1.39197 0
M  V30 1219 C 112.774 1.642 -0.250502 0
M  V30 1220 O 113.959 1.85494 -0.446846 0
M  V30 1221 C 111.099 3.21697 -1.24919 0
M  V30 1222 C 110.212 3.53247 -2.48678 0
M  V30 1223 C 109.347 4.80289 -2.26928 0
M  V30 1224 C 108.386 5.04707 -3.4632 0
M  V30 1225 N 107.523 6.22956 -3.23836 0
M  V30 1226 H 112.363 1.83979 -2.34427 0
M  V30 1227 H 109.9 0.898876 -1.16442 0
M  V30 1228 H 111.858 4.01137 -1.1465 0
M  V30 1229 H 110.488 3.21076 -0.333153 0
M  V30 1230 H 109.54 2.68447 -2.69519 0
M  V30 1231 H 110.852 3.67205 -3.37582 0
M  V30 1232 H 110.006 5.67725 -2.13947 0
M  V30 1233 H 108.745 4.68519 -1.35431 0
M  V30 1234 H 107.75 4.1573 -3.5979 0
M  V30 1235 H 108.975 5.18357 -4.38729 0
M  V30 1236 H 106.921 6.12459 -2.35011 0
M  V30 1237 H 106.838 6.37539 -4.063 0
M  V30 1238 H 108.106 7.1321 -3.14566 0
M  V30 1239 N 112.336 1.25143 0.95797 0
M  V30 1240 C 113.283 1.05235 2.05412 0
M  V30 1241 C 114.253 -0.0374561 1.66058 0
M  V30 1242 O 115.438 0.119073 1.90428 0
M  V30 1243 C 112.578 0.673589 3.38462 0
M  V30 1244 C 111.691 1.8379 3.90954 0
M  V30 1245 C 110.826 1.40381 5.12315 0
M  V30 1246 C 109.865 2.53746 5.57027 0
M  V30 1247 N 109.002 2.11136 6.69601 0
M  V30 1248 H 113.842 1.99048 2.21774 0
M  V30 1249 H 111.379 0.991277 1.08683 0
M  V30 1250 H 113.337 0.434964 4.14926 0
M  V30 1251 H 111.967 -0.227554 3.21997 0
M  V30 1252 H 111.019 2.18992 3.11041 0
M  V30 1253 H 112.331 2.68937 4.20089 0
M  V30 1254 H 111.485 1.12464 5.96185 0
M  V30 1255 H 110.224 0.523015 4.84887 0
M  V30 1256 H 109.229 2.82412 4.71724 0
M  V30 1257 H 110.454 3.42398 5.86464 0
M  V30 1258 H 108.4 1.25468 6.4389 0
M  V30 1259 H 108.317 2.89832 6.98236 0
M  V30 1260 H 109.585 1.86385 7.56889 0
M  V30 1261 N 113.814 -1.1601 1.06675 0
M  V30 1262 C 114.744 -2.22688 0.702307 0
M  V30 1263 C 115.725 -1.67306 -0.307032 0
M  V30 1264 O 116.91 -1.93352 -0.181305 0
M  V30 1265 C 114.04 -3.47178 0.092038 0
M  V30 1266 C 112.994 -4.15477 1.02777 0
M  V30 1267 C 112.32 -5.33963 0.28061 0
M  V30 1268 C 113.62 -4.66019 2.35846 0
M  V30 1269 H 115.314 -2.53429 1.59419 0
M  V30 1270 H 112.86 -1.21813 0.767961 0
M  V30 1271 H 114.813 -4.21037 -0.174814 0
M  V30 1272 H 113.537 -3.15749 -0.834877 0
M  V30 1273 H 112.196 -3.43549 1.27944 0
M  V30 1274 H 111.844 -4.98788 -0.649545 0
M  V30 1275 H 111.544 -5.806 0.904258 0
M  V30 1276 H 113.068 -6.10596 0.021396 0
M  V30 1277 H 114.482 -5.3144 2.15045 0
M  V30 1278 H 112.879 -5.23293 2.93743 0
M  V30 1279 H 113.949 -3.82023 2.98641 0
M  V30 1280 N 115.292 -0.849877 -1.32721 0
M  V30 1281 C 116.239 -0.289033 -2.28983 0
M  V30 1282 C 117.209 0.601324 -1.54833 0
M  V30 1283 O 118.394 0.537253 -1.8308 0
M  V30 1284 C 115.534 0.520623 -3.4115 0
M  V30 1285 C 114.647 -0.394989 -4.3019 0
M  V30 1286 C 113.782 0.426834 -5.29482 0
M  V30 1287 C 112.821 -0.486476 -6.10164 0
M  V30 1288 N 111.958 0.297879 -7.01468 0
M  V30 1289 H 116.798 -1.11519 -2.76347 0
M  V30 1290 H 114.335 -0.56138 -1.35967 0
M  V30 1291 H 116.293 1.00563 -4.04899 0
M  V30 1292 H 114.923 1.31165 -2.9495 0
M  V30 1293 H 113.975 -0.99836 -3.67065 0
M  V30 1294 H 115.287 -1.09612 -4.86607 0
M  V30 1295 H 114.441 0.975205 -5.98811 0
M  V30 1296 H 113.18 1.16136 -4.73671 0
M  V30 1297 H 112.185 -1.04677 -5.39743 0
M  V30 1298 H 113.41 -1.21953 -6.6806 0
M  V30 1299 H 111.356 1.01558 -6.48091 0
M  V30 1300 H 111.273 -0.344318 -7.55216 0
M  V30 1301 H 112.541 0.828131 -7.75089 0
M  V30 1302 N 116.77 1.45427 -0.607355 0
M  V30 1303 C 117.733 2.28974 0.101693 0
M  V30 1304 C 118.733 1.39754 0.795329 0
M  V30 1305 O 119.923 1.61878 0.643527 0
M  V30 1306 C 117.055 3.20768 1.15414 0
M  V30 1307 H 118.248 2.93147 -0.632844 0
M  V30 1308 H 115.801 1.51945 -0.366391 0
M  V30 1309 H 116.536 2.61395 1.91945 0
M  V30 1310 H 116.321 3.86489 0.66098 0
M  V30 1311 H 117.811 3.83589 1.65073 0
M  V30 1312 N 118.248 0.346503 1.53744 0
M  V30 1313 C 119.497 -0.250122 2.00143 0
M  V30 1314 C 119.81 -1.51418 1.23822 0
M  V30 1315 O 121.016 -2.18823 1.60713 0
M  V30 1316 C 119.472 -0.496252 3.56462 0
M  V30 1317 C 119.08 0.752077 4.41642 0
M  V30 1318 C 120.824 -1.05157 4.11269 0
M  V30 1319 C 118.731 0.476583 5.89477 0
M  V30 1320 H 117.661 -0.0972409 0.747703 0
M  V30 1321 H 120.312 0.46229 1.77581 0
M  V30 1322 H 118.694 -1.26944 3.75102 0
M  V30 1323 H 119.868 1.5266 4.34778 0
M  V30 1324 H 118.183 1.22925 3.97842 0
M  V30 1325 H 120.78 -1.27269 5.19333 0
M  V30 1326 H 121.123 -2.00799 3.64672 0
M  V30 1327 H 121.656 -0.339019 3.96353 0
M  V30 1328 H 118.395 1.4028 6.40314 0
M  V30 1329 H 117.915 -0.259794 5.99237 0
M  V30 1330 H 119.594 0.0949315 6.4693 0
M  V30 1331 N 119.726 -1.57421 0.075193 0
M  V30 1332 C 121.142 -1.57099 -0.281444 0
M  V30 1333 C 121.342 -1.08486 -1.69803 0
M  V30 1334 O 120.398 -0.752279 -2.41033 0
M  V30 1335 C 121.711 -3.00571 -0.0880041 0
M  V30 1336 C 123.259 -3.12605 -0.157281 0
M  V30 1337 C 123.734 -4.57999 0.0079207 0
M  V30 1338 N 125.225 -4.63176 -0.0475725 0
M  V30 1339 C 125.96 -5.73373 0.0557876 0
M  V30 1340 N 125.456 -6.92473 0.21286 0
M  V30 1341 N 127.249 -5.621 -0.00152098 0
M  V30 1342 H 119.4 -1.87335 1.00098 0
M  V30 1343 H 121.663 -0.86377 0.390646 0
M  V30 1344 H 121.369 -3.40262 0.889629 0
M  V30 1345 H 121.243 -3.67754 -0.838875 0
M  V30 1346 H 123.63 -2.72798 -1.1254 0
M  V30 1347 H 123.711 -2.48053 0.62475 0
M  V30 1348 H 123.355 -4.98496 0.972824 0
M  V30 1349 H 123.285 -5.20586 -0.793556 0
M  V30 1350 H 125.776 -3.7753 -0.167244 0
M  V30 1351 H 126.089 -7.72279 0.283781 0
M  V30 1352 H 124.434 -6.94556 0.248267 0
M  V30 1353 H 127.625 -4.67938 -0.122958 0
M  V30 1354 H 127.798 -6.47948 0.0824844 0
M  V30 1355 N 121.204 0.198386 -1.56346 0
M  V30 1356 C 122.453 0.917451 -1.79627 0
M  V30 1357 C 122.766 1.8456 -0.64784 0
M  V30 1358 O 123.972 2.60504 -0.764859 0
M  V30 1359 C 122.428 1.68175 -3.18191 0
M  V30 1360 C 122.036 0.798589 -4.40825 0
M  V30 1361 C 123.78 2.39065 -3.50782 0
M  V30 1362 C 121.687 1.56157 -5.70411 0
M  V30 1363 H 120.617 0.346317 -0.669762 0
M  V30 1364 H 123.268 0.170801 -1.82703 0
M  V30 1365 H 121.65 2.47216 -3.09354 0
M  V30 1366 H 122.824 0.0470665 -4.60776 0
M  V30 1367 H 121.139 0.200686 -4.15916 0
M  V30 1368 H 123.736 2.96692 -4.44835 0
M  V30 1369 H 124.079 3.13091 -2.74371 0
M  V30 1370 H 124.612 1.66993 -3.61052 0
M  V30 1371 H 121.351 0.864142 -6.49779 0
M  V30 1372 H 120.871 2.2871 -5.54483 0
M  V30 1373 H 122.55 2.11622 -6.11412 0
M  V30 1374 N 122.682 1.50554 0.465978 0
M  V30 1375 C 123.928 1.62038 1.21949 0
M  V30 1376 C 124.261 0.322116 1.9151 0
M  V30 1377 O 123.536 -0.676723 1.82348 0
M  V30 1378 C 123.819 2.80421 2.25912 0
M  V30 1379 C 123.672 4.20144 1.60622 0
M  V30 1380 C 124.991 2.94354 3.27176 0
M  V30 1381 H 122.11 0.589752 0.441998 0
M  V30 1382 H 124.752 1.82956 0.51257 0
M  V30 1383 H 122.902 2.62717 2.86203 0
M  V30 1384 H 124.574 4.49449 1.03889 0
M  V30 1385 H 122.817 4.24165 0.909211 0
M  V30 1386 H 123.488 4.98914 2.36196 0
M  V30 1387 H 125.964 3.10578 2.76913 0
M  V30 1388 H 124.84 3.788 3.97242 0
M  V30 1389 H 125.101 2.05186 3.916 0
M  V30 1390 N 124.16 -0.719506 1.40217 0
M  V30 1391 C 125.123 -1.8153 1.39927 0
M  V30 1392 C 126.123 -1.58095 0.293723 0
M  V30 1393 O 127.313 -1.65209 0.552429 0
M  V30 1394 C 124.445 -3.19561 1.18716 0
M  V30 1395 H 125.638 -1.83186 2.37451 0
M  V30 1396 H 123.191 -0.924746 1.26008 0
M  V30 1397 H 123.926 -3.23557 0.219366 0
M  V30 1398 H 123.711 -3.3797 1.98793 0
M  V30 1399 H 125.201 -3.99598 1.21291 0
M  V30 1400 N 125.638 -1.25649 -0.95132 0
M  V30 1401 C 126.868 -1.13179 -1.72841 0
M  V30 1402 C 127.276 0.316827 -1.86528 0
M  V30 1403 O 126.619 1.22948 -1.3649 0
M  V30 1404 C 126.681 -1.71644 -3.15878 0
M  V30 1405 C 126.345 -3.20667 -3.25609 0
M  V30 1406 C 127.342 -4.17616 -3.09666 0
M  V30 1407 C 125.027 -3.6094 -3.49324 0
M  V30 1408 C 127.021 -5.52817 -3.17289 0
M  V30 1409 C 124.708 -4.96278 -3.56584 0
M  V30 1410 C 125.706 -5.92025 -3.40581 0
M  V30 1411 O 125.394 -7.24899 -3.47528 0
M  V30 1412 H 125.126 -0.395389 -0.54831 0
M  V30 1413 H 127.68 -1.66566 -1.20187 0
M  V30 1414 H 125.91 -1.12707 -3.69911 0
M  V30 1415 H 127.599 -1.54225 -3.75459 0
M  V30 1416 H 128.365 -3.87842 -2.91211 0
M  V30 1417 H 124.244 -2.86907 -3.6084 0
M  V30 1418 H 127.788 -6.2753 -3.04716 0
M  V30 1419 H 123.685 -5.25716 -3.74556 0
M  V30 1420 H 124.453 -7.33039 -3.64138 0
M  V30 1421 N 127.117 1.15442 -1.07289 0
M  V30 1422 C 128.08 2.18358 -0.696591 0
M  V30 1423 C 129.08 1.58637 0.262837 0
M  V30 1424 O 130.27 1.74145 0.0438809 0
M  V30 1425 C 127.402 3.4089 -0.0266151 0
M  V30 1426 H 128.595 2.53162 -1.60776 0
M  V30 1427 H 126.148 1.29893 -0.869342 0
M  V30 1428 H 126.883 3.11653 0.896822 0
M  V30 1429 H 126.668 3.85495 -0.716657 0
M  V30 1430 H 128.158 4.17009 0.222028 0
M  V30 1431 N 128.595 0.856903 1.32268 0
M  V30 1432 C 129.842 0.461386 1.97174 0
M  V30 1433 C 130.17 -0.983491 1.67803 0
M  V30 1434 O 129.425 -1.70541 0.959903 0
M  V30 1435 C 129.724 0.649919 3.51441 0
M  V30 1436 C 129.39 2.0656 4.00804 0
M  V30 1437 C 128.052 2.45279 4.13995 0
M  V30 1438 C 130.404 2.98947 4.26943 0
M  V30 1439 C 127.732 3.75653 4.50668 0
M  V30 1440 C 130.084 4.28822 4.65075 0
M  V30 1441 C 128.748 4.67472 4.76472 0
M  V30 1442 H 128.018 0.168833 0.72151 0
M  V30 1443 H 130.665 1.08739 1.57633 0
M  V30 1444 H 128.97 -0.0593018 3.91755 0
M  V30 1445 H 130.667 0.32391 3.9969 0
M  V30 1446 H 127.257 1.75495 3.91024 0
M  V30 1447 H 131.441 2.70265 4.16258 0
M  V30 1448 H 126.697 4.05379 4.57688 0
M  V30 1449 H 130.871 5.0047 4.84255 0
M  V30 1450 H 128.498 5.68539 5.04646 0
M  V30 1451 N 130.073 -1.45103 0.615059 0
M  V30 1452 C 130.983 -2.34382 -0.101034 0
M  V30 1453 C 131.999 -1.51681 -0.852585 0
M  V30 1454 O 133.175 -1.8446 -0.808484 0
M  V30 1455 C 130.24 -3.29417 -1.08099 0
M  V30 1456 C 129.301 -4.28025 -0.330577 0
M  V30 1457 C 128.534 -5.1852 -1.26385 0
M  V30 1458 O 128.757 -5.12598 -2.50198 0
M  V30 1459 O 127.691 -5.97122 -0.756866 0
M  V30 1460 H 131.517 -2.97033 0.632855 0
M  V30 1461 H 129.102 -1.4461 0.375293 0
M  V30 1462 H 130.984 -3.87958 -1.6452 0
M  V30 1463 H 129.659 -2.69321 -1.79577 0
M  V30 1464 H 128.566 -3.73078 0.276283 0
M  V30 1465 H 129.899 -4.90997 0.343866 0
M  V30 1466 N 131.551 -0.354651 -1.53558 0
M  V30 1467 C 132.8 0.239504 -2.00273 0
M  V30 1468 C 133.113 1.50759 -1.24623 0
M  V30 1469 O 134.319 2.17968 -1.61871 0
M  V30 1470 C 132.775 0.477341 -3.5672 0
M  V30 1471 C 132.383 -0.775488 -4.41237 0
M  V30 1472 C 134.127 1.02975 -4.11821 0
M  V30 1473 C 132.034 -0.507838 -5.89216 0
M  V30 1474 H 130.964 0.0932743 -0.748208 0
M  V30 1475 H 133.615 -0.471701 -1.77334 0
M  V30 1476 H 131.997 1.24953 -3.7577 0
M  V30 1477 H 133.171 -1.54963 -4.33962 0
M  V30 1478 H 131.486 -1.25033 -3.97185 0
M  V30 1479 H 134.083 1.24513 -5.2 0
M  V30 1480 H 134.426 1.98862 -3.65731 0
M  V30 1481 H 134.959 0.317994 -3.96527 0
M  V30 1482 H 131.698 -1.43674 -6.39561 0
M  V30 1483 H 131.218 0.228011 -5.99366 0
M  V30 1484 H 132.897 -0.129238 -6.46871 0
M  V30 1485 N 133.029 1.57378 -0.0835403 0
M  V30 1486 C 134.278 1.93106 0.582498 0
M  V30 1487 C 134.591 0.96651 1.70053 0
M  V30 1488 O 135.797 1.21705 2.42693 0
M  V30 1489 C 134.253 3.43076 1.08751 0
M  V30 1490 C 133.861 4.48 -0.000146404 0
M  V30 1491 C 135.605 3.87785 1.72694 0
M  V30 1492 C 133.512 5.89113 0.519568 0
M  V30 1493 H 132.442 0.720775 0.221358 0
M  V30 1494 H 135.093 1.82821 -0.157675 0
M  V30 1495 H 133.475 3.48474 1.88101 0
M  V30 1496 H 134.649 4.54233 -0.775199 0
M  V30 1497 H 132.964 4.1283 -0.54406 0
M  V30 1498 H 135.561 4.90604 2.1263 0
M  V30 1499 H 135.904 3.25796 2.59158 0
M  V30 1500 H 136.437 3.8504 0.999457 0
M  V30 1501 H 133.176 6.54775 -0.308186 0
M  V30 1502 H 132.696 5.86376 1.26188 0
M  V30 1503 H 134.375 6.39346 0.992237 0
M  V30 1504 N 134.507 -0.190092 1.56449 0
M  V30 1505 C 135.457 -1.23977 1.91347 0
M  V30 1506 C 136.441 -1.40747 0.779693 0
M  V30 1507 O 137.633 -1.43033 1.04262 0
M  V30 1508 C 134.762 -2.58347 2.26079 0
M  V30 1509 C 133.848 -2.4535 3.45925 0
M  V30 1510 N 134.239 -2.02039 4.63696 0
M  V30 1511 C 132.537 -2.76229 3.50162 0
M  V30 1512 C 133.238 -2.01053 5.4585 0
M  V30 1513 N 132.214 -2.42747 4.8639 0
M  V30 1514 H 136.016 -0.896318 2.79899 0
M  V30 1515 H 133.53 -0.398496 1.57435 0
M  V30 1516 H 135.527 -3.34173 2.49267 0
M  V30 1517 H 134.187 -2.93512 1.38856 0
M  V30 1518 H 135.198 -1.7267 4.88268 0
M  V30 1519 H 131.875 -3.15556 2.73369 0
M  V30 1520 H 133.265 -1.69426 6.50188 0
M  V30 1521 N 135.985 -1.50799 -0.457987 0
M  V30 1522 C 136.915 -1.73553 -1.5621 0
M  V30 1523 C 137.896 -0.584774 -1.59732 0
M  V30 1524 O 139.081 -0.825314 -1.7579 0
M  V30 1525 C 136.211 -1.84169 -2.94447 0
M  V30 1526 C 135.165 -2.99461 -3.0579 0
M  V30 1527 C 134.491 -2.95235 -4.45803 0
M  V30 1528 C 135.791 -4.39766 -2.81786 0
M  V30 1529 H 137.485 -2.66 -1.37421 0
M  V30 1530 H 135.031 -1.28002 -0.659662 0
M  V30 1531 H 136.984 -1.98672 -3.71628 0
M  V30 1532 H 135.708 -0.883545 -3.14422 0
M  V30 1533 H 134.367 -2.8463 -2.31044 0
M  V30 1534 H 134.015 -1.97239 -4.62715 0
M  V30 1535 H 133.715 -3.72642 -4.54326 0
M  V30 1536 H 135.239 -3.11803 -5.24987 0
M  V30 1537 H 136.653 -4.55054 -3.4871 0
M  V30 1538 H 135.05 -5.18722 -3.0174 0
M  V30 1539 H 136.12 -4.51229 -1.7754 0
M  V30 1540 N 137.463 0.71206 -1.40597 0
M  V30 1541 C 138.396 1.83582 -1.35546 0
M  V30 1542 C 139.374 1.61032 -0.225284 0
M  V30 1543 O 140.558 1.83998 -0.409519 0
M  V30 1544 C 137.685 3.19983 -1.11034 0
M  V30 1545 C 136.731 3.61355 -2.2655 0
M  V30 1546 S 137.564 3.68062 -3.88961 0
M  V30 1547 C 138.72 5.07216 -3.66719 0
M  V30 1548 H 138.953 1.87586 -2.30648 0
M  V30 1549 H 136.486 0.879182 -1.26924 0
M  V30 1550 H 138.444 3.98734 -0.975761 0
M  V30 1551 H 137.105 3.13608 -0.175798 0
M  V30 1552 H 136.298 4.60403 -2.0505 0
M  V30 1553 H 135.9 2.8987 -2.36329 0
M  V30 1554 H 138.192 5.94238 -3.25404 0
M  V30 1555 H 139.135 5.33753 -4.6531 0
M  V30 1556 H 139.543 4.77976 -3.00332 0
M  V30 1557 N 138.941 1.26152 0.944643 0
M  V30 1558 C 140.169 1.14259 1.72489 0
M  V30 1559 C 140.584 -0.302555 1.8636 0
M  V30 1560 O 139.941 -1.20741 1.36849 0
M  V30 1561 C 139.992 1.80266 3.13347 0
M  V30 1562 O 139.713 3.19133 3.00143 0
M  V30 1563 C 141.214 1.74283 4.07603 0
M  V30 1564 H 138.434 0.398051 0.540181 0
M  V30 1565 H 140.978 1.66706 1.18446 0
M  V30 1566 H 139.133 1.31766 3.64303 0
M  V30 1567 H 139.547 3.51744 3.89071 0
M  V30 1568 H 141.021 2.25111 5.04013 0
M  V30 1569 H 141.498 0.708631 4.33446 0
M  V30 1570 H 142.104 2.22319 3.62567 0
M  V30 1571 N 140.419 -1.14872 1.07899 0
M  V30 1572 C 141.667 -1.85422 0.803941 0
M  V30 1573 C 141.988 -1.83051 -0.67211 0
M  V30 1574 O 141.258 -1.27532 -1.48703 0
M  V30 1575 H 139.838 -0.686537 0.294408 0
M  V30 1576 H 142.5 -1.39226 1.3639 0
M  V30 1577 H 141.596 -2.90399 1.14346 0
M  V30 1578 N 141.898 -0.863906 -1.31812 0
M  V30 1579 C 142.808 -0.318461 -2.32428 0
M  V30 1580 C 143.824 0.568496 -1.64451 0
M  V30 1581 O 145 0.46666 -1.95919 0
M  V30 1582 C 142.065 0.476355 -3.43412 0
M  V30 1583 C 141.126 -0.43784 -4.27061 0
M  V30 1584 C 140.359 0.319138 -5.32745 0
M  V30 1585 O 140.582 1.54799 -5.48993 0
M  V30 1586 O 139.516 -0.319861 -6.01049 0
M  V30 1587 H 143.342 -1.15229 -2.80991 0
M  V30 1588 H 140.927 -0.627103 -1.35602 0
M  V30 1589 H 142.809 0.927156 -4.11074 0
M  V30 1590 H 141.484 1.28683 -2.97022 0
M  V30 1591 H 140.391 -0.937013 -3.62175 0
M  V30 1592 H 141.724 -1.21375 -4.77 0
M  V30 1593 N 143.376 1.44774 -0.622745 0
M  V30 1594 C 144.324 2.32387 0.0994683 0
M  V30 1595 C 145.318 1.46859 0.844326 0
M  V30 1596 O 146.524 1.63254 0.758174 0
M  V30 1597 H 142.899 0.750273 0.0509291 0
M  V30 1598 H 144.87 2.91062 -0.65767 0
M  V30 1599 C 143.619 3.30723 1.07319 0
M  V30 1600 H 142.942 3.96541 0.509462 0
M  V30 1601 H 144.382 3.94725 1.54817 0
M  V30 1602 C 142.841 2.59021 2.15429 0
M  V30 1603 O 143.371 2.38286 3.23393 0
M  V30 1604 N 141.577 2.189 1.91131 0
M  V30 1605 H 141.124 2.35964 1.03337 0
M  V30 1606 H 141.082 1.71251 2.63668 0
M  V30 1607 N 144.854 0.36279 1.53368 0
M  V30 1608 C 146.265 -0.117022 1.86333 0
M  V30 1609 C 146.616 -1.48397 1.28347 0
M  V30 1610 O 145.741 -2.07787 0.604428 0
M  V30 1611 C 146.336 -0.21912 3.38091 0
M  V30 1612 C 144.895 -0.643184 3.70864 0
M  V30 1613 C 144.042 0.211318 2.76494 0
M  V30 1614 H 146.993 0.581687 1.47655 0
M  V30 1615 H 147.014 -1.04319 3.6592 0
M  V30 1616 H 146.526 0.775902 3.80265 0
M  V30 1617 H 144.627 -1.64654 3.34245 0
M  V30 1618 H 144.74 -0.41973 4.77258 0
M  V30 1619 H 143.104 -0.319367 2.5269 0
M  V30 1620 H 143.887 1.20383 3.21501 0
M  V30 1621 N 146.332 -1.57332 0.0918853 0
M  V30 1622 C 147.262 -2.16872 -0.865371 0
M  V30 1623 C 148.243 -1.10118 -1.29646 0
M  V30 1624 O 149.428 -1.38242 -1.36392 0
M  V30 1625 C 146.558 -2.74649 -2.12569 0
M  V30 1626 C 145.512 -3.86747 -1.83333 0
M  V30 1627 C 144.838 -4.31212 -3.16166 0
M  V30 1628 C 146.138 -5.10089 -1.1228 0
M  V30 1629 H 147.832 -2.97114 -0.369307 0
M  V30 1630 H 145.378 -1.42918 -0.176194 0
M  V30 1631 H 147.331 -3.14952 -2.7997 0
M  V30 1632 H 146.055 -1.91657 -2.64452 0
M  V30 1633 H 144.714 -3.46978 -1.18331 0
M  V30 1634 H 144.362 -3.45115 -3.6593 0
M  V30 1635 H 144.062 -5.06788 -2.97388 0
M  V30 1636 H 145.586 -4.74146 -3.84731 0
M  V30 1637 H 147 -5.47582 -1.69785 0
M  V30 1638 H 145.397 -5.91073 -1.03693 0
M  V30 1639 H 146.467 -4.84786 -0.105041 0
M  V30 1640 N 147.81 0.181792 -1.56548 0
M  V30 1641 C 148.742 1.24956 -1.92142 0
M  V30 1642 C 149.755 1.41022 -0.813422 0
M  V30 1643 O 150.944 1.41212 -1.09186 0
M  V30 1644 C 148.044 2.61981 -2.14987 0
M  V30 1645 C 147.217 2.6735 -3.46183 0
M  V30 1646 C 146.276 3.85664 -3.5798 0
M  V30 1647 O 145.302 3.72148 -4.30691 0
M  V30 1648 N 146.504 5.01683 -2.92053 0
M  V30 1649 H 149.269 0.947329 -2.84334 0
M  V30 1650 H 146.83 0.371629 -1.57577 0
M  V30 1651 H 148.822 3.3958 -2.20154 0
M  V30 1652 H 147.392 2.84637 -1.2923 0
M  V30 1653 H 146.612 1.75925 -3.52766 0
M  V30 1654 H 147.9 2.67939 -4.32534 0
M  V30 1655 H 147.298 5.15564 -2.32832 0
M  V30 1656 H 145.855 5.77181 -3.0283 0
M  V30 1657 N 149.288 1.51039 0.449983 0
M  V30 1658 C 150.534 1.63322 1.20223 0
M  V30 1659 C 150.867 0.34241 1.91158 0
M  V30 1660 O 150.142 -0.657344 1.83055 0
M  V30 1661 C 150.425 2.82801 2.22925 0
M  V30 1662 C 150.278 4.21823 1.56157 0
M  V30 1663 C 151.597 2.97807 3.24035 0
M  V30 1664 H 148.716 0.594407 0.435718 0
M  V30 1665 H 151.358 1.83489 0.493136 0
M  V30 1666 H 149.508 2.65738 2.834 0
M  V30 1667 H 151.18 4.50526 0.991162 0
M  V30 1668 H 149.423 4.25105 0.864172 0
M  V30 1669 H 150.094 5.01391 2.30891 0
M  V30 1670 H 152.57 3.13497 2.73603 0
M  V30 1671 H 151.446 3.82992 3.93202 0
M  V30 1672 H 151.707 2.09328 3.89402 0
M  V30 1673 N 150.766 -0.704594 1.40972 0
M  V30 1674 C 152.013 -1.46458 1.39844 0
M  V30 1675 C 152.341 -1.94499 0.00447594 0
M  V30 1676 O 151.596 -1.69275 -0.982057 0
M  V30 1677 C 151.895 -2.698 2.34399 0
M  V30 1678 C 151.561 -2.40464 3.81429 0
M  V30 1679 C 150.223 -2.32174 4.21484 0
M  V30 1680 C 152.575 -2.16086 4.74296 0
M  V30 1681 C 149.903 -1.97589 5.52427 0
M  V30 1682 C 152.255 -1.83011 6.05549 0
M  V30 1683 C 150.919 -1.7321 6.44635 0
M  V30 1684 H 150.189 -0.535927 0.511725 0
M  V30 1685 H 152.836 -0.806124 1.73706 0
M  V30 1686 H 151.141 -3.40536 1.93759 0
M  V30 1687 H 152.838 -3.27919 2.30804 0
M  V30 1688 H 149.428 -2.47808 3.49699 0
M  V30 1689 H 153.612 -2.2144 4.4416 0
M  V30 1690 H 148.868 -1.88547 5.81601 0
M  V30 1691 H 153.042 -1.63164 6.77016 0
M  V30 1692 H 150.669 -1.46179 7.46013 0
M  V30 1693 N 152.244 -1.26651 -0.937939 0
M  V30 1694 C 153.49 -1.12553 -1.687 0
M  V30 1695 C 153.823 0.329782 -1.91379 0
M  V30 1696 O 153.098 1.24202 -1.4968 0
M  V30 1697 C 153.381 -1.89862 -3.05981 0
M  V30 1698 C 153.234 -3.43318 -2.90607 0
M  V30 1699 C 154.553 -1.69499 -4.0615 0
M  V30 1700 H 151.672 -0.410257 -0.612257 0
M  V30 1701 H 154.314 -1.55685 -1.08913 0
M  V30 1702 H 152.464 -1.53204 -3.57017 0
M  V30 1703 H 154.136 -3.89747 -2.46769 0
M  V30 1704 H 152.379 -3.70179 -2.26164 0
M  V30 1705 H 153.05 -3.92642 -3.8799 0
M  V30 1706 H 155.526 -2.01442 -3.64088 0
M  V30 1707 H 154.402 -2.26002 -5.00214 0
M  V30 1708 H 154.663 -0.640365 -4.37438 0
M  V30 1709 N 153.722 1.14298 -1.08507 0
M  V30 1710 C 154.67 2.21483 -0.710483 0
M  V30 1711 C 155.664 1.66998 0.284234 0
M  V30 1712 O 156.87 1.79401 0.146692 0
M  V30 1713 H 153.245 0.721578 -0.211729 0
M  V30 1714 H 155.216 2.50348 -1.62384 0
M  V30 1715 C 153.965 3.4743 -0.137007 0
M  V30 1716 H 153.288 3.89686 -0.893592 0
M  V30 1717 H 154.728 4.2391 0.0872789 0
M  V30 1718 C 153.187 3.17548 1.12538 0
M  V30 1719 O 153.717 3.35437 2.21009 0
M  V30 1720 N 151.923 2.71499 1.03617 0
M  V30 1721 H 151.47 2.57143 0.153403 0
M  V30 1722 H 151.428 2.51881 1.88158 0
M  V30 1723 N 155.201 0.870884 1.31352 0
M  V30 1724 C 156.164 0.332243 2.26779 0
M  V30 1725 C 157.164 -0.517302 1.52252 0
M  V30 1726 O 158.354 -0.326477 1.71113 0
M  V30 1727 C 155.486 -0.528066 3.36785 0
M  V30 1728 H 156.679 1.17469 2.75937 0
M  V30 1729 H 154.232 0.64655 1.423 0
M  V30 1730 H 154.967 -1.39167 2.92922 0
M  V30 1731 H 154.752 0.0802582 3.92018 0
M  V30 1732 H 156.242 -0.897179 4.07849 0
M  V30 1733 N 156.679 -1.44442 0.630414 0
M  V30 1734 C 157.925 -2.02351 0.134816 0
M  V30 1735 C 158.258 -1.4947 -1.23986 0
M  V30 1736 O 157.533 -0.678475 -1.82283 0
M  V30 1737 C 157.816 -3.59898 0.120707 0
M  V30 1738 C 157.669 -4.23063 1.52767 0
M  V30 1739 C 158.988 -4.36585 -0.555127 0
M  V30 1740 H 156.107 -0.73527 0.0504646 0
M  V30 1741 H 158.749 -1.72022 0.806751 0
M  V30 1742 H 156.899 -3.85868 -0.451477 0
M  V30 1743 H 158.571 -4.08202 2.14869 0
M  V30 1744 H 156.814 -3.80586 2.08175 0
M  V30 1745 H 157.485 -5.32071 1.46984 0
M  V30 1746 H 159.961 -4.16044 -0.0685429 0
M  V30 1747 H 158.837 -5.46294 -0.534185 0
M  V30 1748 H 159.098 -4.11138 -1.62535 0
M  V30 1749 N 158.157 -0.370918 -1.53173 0
M  V30 1750 C 159.089 0.507823 -2.23503 0
M  V30 1751 C 160.102 1.04182 -1.251 0
M  V30 1752 O 161.291 0.947286 -1.5129 0
M  V30 1753 C 158.391 1.71447 -2.92334 0
M  V30 1754 C 157.564 1.31105 -4.17289 0
M  V30 1755 C 156.623 2.38035 -4.69282 0
M  V30 1756 O 155.649 2.00204 -5.32829 0
M  V30 1757 N 156.851 3.69697 -4.47554 0
M  V30 1758 H 159.616 -0.0946382 -2.99551 0
M  V30 1759 H 157.177 -0.196358 -1.60705 0
M  V30 1760 H 159.169 2.42469 -3.24023 0
M  V30 1761 H 157.739 2.22368 -2.19707 0
M  V30 1762 H 156.959 0.430462 -3.91843 0
M  V30 1763 H 158.247 1.0179 -4.98514 0
M  V30 1764 H 157.645 4.03205 -3.9679 0
M  V30 1765 H 156.202 4.36807 -4.8378 0
M  V30 1766 N 159.635 1.57281 -0.100228 0
M  V30 1767 C 160.582 2.14305 0.856858 0
M  V30 1768 C 161.552 1.06296 1.27634 0
M  V30 1769 O 162.737 1.34109 1.35718 0
M  V30 1770 C 159.877 2.73184 2.10866 0
M  V30 1771 C 158.99 3.95442 1.73925 0
M  V30 1772 C 158.125 4.42468 2.93931 0
M  V30 1773 C 157.164 5.57303 2.5314 0
M  V30 1774 N 156.301 5.99158 3.65997 0
M  V30 1775 H 161.141 2.95772 0.363726 0
M  V30 1776 H 158.678 1.46139 0.167858 0
M  V30 1777 H 160.636 3.05442 2.84185 0
M  V30 1778 H 159.266 1.94437 2.57671 0
M  V30 1779 H 158.318 3.69464 0.905554 0
M  V30 1780 H 159.63 4.78769 1.39935 0
M  V30 1781 H 158.784 4.76537 3.75496 0
M  V30 1782 H 157.523 3.58052 3.31134 0
M  V30 1783 H 156.528 5.22857 1.70003 0
M  V30 1784 H 157.753 6.43471 2.17075 0
M  V30 1785 H 155.699 5.17687 4.02909 0
M  V30 1786 H 155.616 6.77295 3.35869 0
M  V30 1787 H 156.884 6.3786 4.48057 0
M  V30 1788 N 161.113 -0.173488 1.56642 0
M  V30 1789 C 162.361 -0.888706 1.81512 0
M  V30 1790 C 162.682 -1.82875 0.676872 0
M  V30 1791 O 161.952 -1.93536 -0.303414 0
M  V30 1792 H 160.532 -0.331164 0.669582 0
M  V30 1793 H 163.194 -0.173823 1.94123 0
M  V30 1794 H 162.29 -1.46691 2.75478 0
M  V30 1795 N 162.591 -1.51276 -0.441967 0
M  V30 1796 C 163.839 -1.63392 -1.18943 0
M  V30 1797 C 164.16 -0.350159 -1.9183 0
M  V30 1798 O 163.43 0.633784 -1.85364 0
M  V30 1799 H 162.01 -0.602164 -0.442049 0
M  V30 1800 H 164.672 -1.88186 -0.507165 0
M  V30 1801 H 163.768 -2.45934 -1.92154 0
M  V30 1802 N 164.069 0.697108 -1.41344 0
M  V30 1803 C 165.48 1.27697 -1.36199 0
M  V30 1804 C 165.831 1.9615 -0.0443463 0
M  V30 1805 O 164.956 1.98689 0.857419 0
M  V30 1806 C 165.551 2.32223 -2.46694 0
M  V30 1807 C 164.11 2.8579 -2.44952 0
M  V30 1808 C 163.257 1.59807 -2.26621 0
M  V30 1809 H 166.208 0.491968 -1.50882 0
M  V30 1810 H 166.229 3.1348 -2.15664 0
M  V30 1811 H 165.741 1.82373 -3.42581 0
M  V30 1812 H 163.842 3.3982 -1.52817 0
M  V30 1813 H 163.955 3.36325 -3.41207 0
M  V30 1814 H 162.319 1.8556 -1.7447 0
M  V30 1815 H 163.102 1.11956 -3.24532 0
M  V30 1816 N 165.547 1.27147 0.931209 0
M  V30 1817 C 166.963 1.04475 1.20653 0
M  V30 1818 C 167.163 -0.223885 2.00252 0
M  V30 1819 O 166.219 -0.930332 2.34736 0
M  V30 1820 C 167.532 2.28209 1.95809 0
M  V30 1821 C 169.08 2.33211 2.08762 0
M  V30 1822 C 169.555 3.56665 2.87323 0
M  V30 1823 N 171.046 3.57201 2.94892 0
M  V30 1824 C 171.781 4.49395 3.56134 0
M  V30 1825 N 171.277 5.51889 4.18796 0
M  V30 1826 N 173.07 4.37026 3.53504 0
M  V30 1827 H 165.221 2.08612 0.399333 0
M  V30 1828 H 167.484 0.917312 0.239253 0
M  V30 1829 H 167.19 3.20538 1.44736 0
M  V30 1830 H 167.064 2.33247 2.96438 0
M  V30 1831 H 169.451 1.41391 2.59023 0
M  V30 1832 H 169.532 2.32178 1.07364 0
M  V30 1833 H 169.176 4.4882 2.37746 0
M  V30 1834 H 169.106 3.54948 3.88998 0
M  V30 1835 H 171.597 2.83074 2.50354 0
M  V30 1836 H 171.91 6.18409 4.63454 0
M  V30 1837 H 170.255 5.55735 4.17353 0
M  V30 1838 H 173.446 3.56166 3.03749 0
M  V30 1839 H 173.619 5.09067 4.00942 0
M  V30 1840 N 167.025 -1.13721 1.09112 0
M  V30 1841 C 167.935 -2.22638 0.73957 0
M  V30 1842 C 168.951 -1.72091 -0.257068 0
M  V30 1843 O 170.127 -2.01155 -0.0992154 0
M  V30 1844 C 167.192 -3.46322 0.16191 0
M  V30 1845 C 166.253 -4.11775 1.21408 0
M  V30 1846 C 165.486 -5.29555 0.663891 0
M  V30 1847 O 165.709 -5.68077 -0.514274 0
M  V30 1848 O 164.643 -5.84973 1.41738 0
M  V30 1849 H 168.469 -2.55074 1.64836 0
M  V30 1850 H 166.054 -1.21791 0.865289 0
M  V30 1851 H 167.936 -4.21107 -0.157073 0
M  V30 1852 H 166.611 -3.15593 -0.719932 0
M  V30 1853 H 165.518 -3.3883 1.58571 0
M  V30 1854 H 166.851 -4.46627 2.06845 0
M  V30 1855 N 168.503 -0.877838 -1.30888 0
M  V30 1856 C 169.78 -0.413052 -1.91189 0
M  V30 1857 C 170.16 1.1056 -1.79832 0
M  V30 1858 O 169.508 1.93771 -1.21099 0
M  V30 1859 C 169.718 -0.903191 -3.3711 0
M  V30 1860 C 171.066 -0.93395 -4.14201 0
M  V30 1861 O 172.09 -0.849373 -3.45925 0
M  V30 1862 O 170.949 -1.05772 -5.36167 0
M  V30 1863 H 168.043 -0.125035 -0.817493 0
M  V30 1864 H 170.589 -0.966269 -1.39504 0
M  V30 1865 H 169.361 -1.94692 -3.39427 0
M  V30 1866 H 168.984 -0.328732 -3.96239 0
M  V30 1867 N 169.982 1.44106 -0.638065 0
M  V30 1868 C 171.207 2.0685 -0.150916 0
M  V30 1869 C 171.632 1.47417 1.16833 0
M  V30 1870 O 170.99 0.578264 1.71831 0
M  V30 1871 C 171.038 3.60555 -0.05708 0
M  V30 1872 O 170.142 4.00465 0.984972 0
M  V30 1873 H 169.483 0.658151 -0.0879399 0
M  V30 1874 H 172.013 1.84865 -0.876707 0
M  V30 1875 H 172.023 4.07789 0.131232 0
M  V30 1876 H 170.698 4.03193 -1.02021 0
M  V30 1877 H 169.275 3.64849 0.770672 0
M  V30 1878 N 171.46 0.379036 1.52974 0
M  V30 1879 C 172.688 -0.20679 2.05864 0
M  V30 1880 C 173.103 -1.41356 1.25155 0
M  V30 1881 O 172.46 -1.8009 0.295588 0
M  V30 1882 C 172.511 -0.587045 3.56702 0
M  V30 1883 O 172.232 0.571776 4.34353 0
M  V30 1884 C 173.733 -1.22983 4.25899 0
M  V30 1885 H 170.953 -0.0336123 0.670158 0
M  V30 1886 H 173.497 0.541298 1.97206 0
M  V30 1887 H 171.652 -1.28504 3.65466 0
M  V30 1888 H 172.066 0.261544 5.23847 0
M  V30 1889 H 173.54 -1.44635 5.32715 0
M  V30 1890 H 174.017 -2.19416 3.80465 0
M  V30 1891 H 174.623 -0.572892 4.21424 0
M  V30 1892 N 172.938 -1.57226 0.108567 0
M  V30 1893 C 174.354 -1.5766 -0.248058 0
M  V30 1894 C 174.554 -1.12063 -1.67464 0
M  V30 1895 O 173.61 -0.803236 -2.39383 0
M  V30 1896 C 174.923 -3.0069 -0.0242287 0
M  V30 1897 C 176.471 -3.12868 -0.0909372 0
M  V30 1898 C 176.946 -4.57879 0.105067 0
M  V30 1899 N 178.437 -4.63172 0.0506846 0
M  V30 1900 C 179.172 -5.73126 0.177396 0
M  V30 1901 N 178.668 -6.91866 0.359696 0
M  V30 1902 N 180.461 -5.61977 0.117709 0
M  V30 1903 H 172.612 -1.85169 1.04049 0
M  V30 1904 H 174.875 -0.85529 0.40888 0
M  V30 1905 H 174.581 -3.38299 0.961604 0
M  V30 1906 H 174.455 -3.6945 -0.76068 0
M  V30 1907 H 176.842 -2.75124 -1.06729 0
M  V30 1908 H 176.923 -2.46672 0.677225 0
M  V30 1909 H 176.567 -4.96321 1.07834 0
M  V30 1910 H 176.497 -5.22153 -0.682954 0
M  V30 1911 H 178.988 -3.778 -0.0871266 0
M  V30 1912 H 179.301 -7.71503 0.447529 0
M  V30 1913 H 177.646 -6.93874 0.395536 0
M  V30 1914 H 180.837 -4.68094 -0.0236741 0
M  V30 1915 H 181.01 -6.47627 0.219905 0
M  V30 1916 N 174.416 0.165178 -1.56732 0
M  V30 1917 C 175.665 0.879143 -1.81532 0
M  V30 1918 C 175.978 1.83144 -0.686842 0
M  V30 1919 O 177.184 2.58823 -0.819944 0
M  V30 1920 C 175.64 1.61388 -3.21686 0
M  V30 1921 C 175.248 0.704904 -4.4242 0
M  V30 1922 C 176.992 2.3157 -3.55774 0
M  V30 1923 C 174.899 1.44022 -5.73595 0
M  V30 1924 H 173.829 0.332033 -0.676957 0
M  V30 1925 H 176.48 0.132008 -1.83025 0
M  V30 1926 H 174.862 2.40599 -3.14529 0
M  V30 1927 H 176.036 -0.0506815 -4.60772 0
M  V30 1928 H 174.351 0.112419 -4.16248 0
M  V30 1929 H 176.948 2.8719 -4.51028 0
M  V30 1930 H 177.291 3.07201 -2.8095 0
M  V30 1931 H 177.824 1.59297 -3.64513 0
M  V30 1932 H 174.563 0.72612 -6.51466 0
M  V30 1933 H 174.083 2.16898 -5.5921 0
M  V30 1934 H 175.762 1.98606 -6.15764 0
M  V30 1935 N 175.894 1.51508 0.433938 0
M  V30 1936 C 177.142 1.6402 1.18075 0
M  V30 1937 C 177.463 0.360328 1.91642 0
M  V30 1938 O 176.733 -0.623945 1.85698 0
M  V30 1939 H 175.313 0.6045 0.43885 0
M  V30 1940 H 177.975 1.88452 0.497178 0
M  V30 1941 H 177.071 2.46949 1.90847 0
M  V30 1942 N 177.372 -0.689602 1.41712 0
M  V30 1943 C 178.597 -1.48329 1.44959 0
M  V30 1944 C 179.022 -1.8801 0.0581283 0
M  V30 1945 O 178.38 -1.55026 -0.940035 0
M  V30 1946 C 178.428 -2.71835 2.36935 0
M  V30 1947 O 177.532 -3.69549 1.8305 0
M  V30 1948 H 176.873 -0.446199 0.491734 0
M  V30 1949 H 179.403 -0.847127 1.86239 0
M  V30 1950 H 179.413 -3.20076 2.53013 0
M  V30 1951 H 178.088 -2.42291 3.38035 0
M  V30 1952 H 176.665 -3.2851 1.76452 0
M  V30 1953 N 178.85 -1.27639 -0.924453 0
M  V30 1954 C 179.813 -1.10681 -2.00705 0
M  V30 1955 C 180.813 -0.0497823 -1.60723 0
M  V30 1956 O 182.003 -0.294654 -1.7169 0
M  V30 1957 C 179.135 -0.687164 -3.33902 0
M  V30 1958 H 180.328 -2.06817 -2.17179 0
M  V30 1959 H 177.881 -1.10473 -1.10569 0
M  V30 1960 H 178.616 0.275439 -3.23128 0
M  V30 1961 H 178.401 -1.45061 -3.6428 0
M  V30 1962 H 179.891 -0.590853 -4.13399 0
M  V30 1963 N 180.328 1.1314 -1.09713 0
M  V30 1964 C 181.576 1.84119 -0.833338 0
M  V30 1965 C 181.897 1.84097 0.642904 0
M  V30 1966 O 181.167 1.29881 1.46655 0
M  V30 1967 H 179.747 0.681766 -0.305293 0
M  V30 1968 H 182.409 1.37038 -1.38588 0
M  V30 1969 H 181.505 2.88543 -1.18951 0
M  V30 1970 N 181.806 0.884767 1.30421 0
M  V30 1971 C 183.052 0.503851 1.96441 0
M  V30 1972 C 183.385 -0.944518 1.69684 0
M  V30 1973 O 182.66 -1.66737 1.00145 0
M  V30 1974 C 182.943 0.779085 3.51571 0
M  V30 1975 C 182.796 2.27807 3.87846 0
M  V30 1976 C 184.115 0.255452 4.39358 0
M  V30 1977 H 181.234 0.184533 0.713524 0
M  V30 1978 H 183.876 1.10872 1.54297 0
M  V30 1979 H 182.026 0.264274 3.876 0
M  V30 1980 H 183.698 2.86127 3.61841 0
M  V30 1981 H 181.941 2.74479 3.35922 0
M  V30 1982 H 182.612 2.42125 4.96064 0
M  V30 1983 H 185.088 0.696079 4.10236 0
M  V30 1984 H 183.964 0.477361 5.4682 0
M  V30 1985 H 184.225 -0.843293 4.33983 0
M  V30 1986 N 183.284 -1.43765 0.645699 0
M  V30 1987 C 184.53 -2.02197 0.156271 0
M  V30 1988 C 184.863 -1.50776 -1.22393 0
M  V30 1989 O 184.138 -0.697771 -1.81553 0
M  V30 1990 C 184.421 -3.59749 0.158872 0
M  V30 1991 C 184.274 -4.21419 1.57245 0
M  V30 1992 C 185.593 -4.37149 -0.50879 0
M  V30 1993 H 182.712 -0.734694 0.0582602 0
M  V30 1994 H 185.354 -1.71157 0.824951 0
M  V30 1995 H 183.504 -3.86325 -0.410525 0
M  V30 1996 H 185.176 -4.059 2.19186 0
M  V30 1997 H 183.419 -3.78356 2.122 0
M  V30 1998 H 184.09 -5.30482 1.52619 0
M  V30 1999 H 186.566 -4.16093 -0.024412 0
M  V30 2000 H 185.442 -5.4683 -0.476213 0
M  V30 2001 H 185.703 -4.12839 -1.58165 0
M  V30 2002 N 184.763 -0.387143 -1.52771 0
M  V30 2003 C 186.179 -0.037007 -1.59557 0
M  V30 2004 C 186.379 1.44801 -1.40124 0
M  V30 2005 O 185.435 2.21227 -1.21716 0
M  V30 2006 C 186.748 -0.512256 -2.96305 0
M  V30 2007 C 188.296 -0.468328 -3.09476 0
M  V30 2008 C 188.771 -0.919731 -4.4867 0
M  V30 2009 N 190.262 -0.875656 -4.54848 0
M  V30 2010 C 190.997 -1.19637 -5.6078 0
M  V30 2011 N 190.493 -1.58745 -6.74368 0
M  V30 2012 N 192.286 -1.11776 -5.50874 0
M  V30 2013 H 184.437 -1.35395 -1.63652 0
M  V30 2014 H 186.7 -0.554818 -0.768688 0
M  V30 2015 H 186.406 -1.54935 -3.15734 0
M  V30 2016 H 186.28 0.089805 -3.77093 0
M  V30 2017 H 188.667 0.559671 -2.89744 0
M  V30 2018 H 188.748 -1.10616 -2.30646 0
M  V30 2019 H 188.392 -1.94595 -4.69143 0
M  V30 2020 H 188.322 -0.258927 -5.25963 0
M  V30 2021 H 190.813 -0.587843 -3.733 0
M  V30 2022 H 191.126 -1.81586 -7.51163 0
M  V30 2023 H 189.471 -1.6263 -6.75705 0
M  V30 2024 H 192.662 -0.811264 -4.61016 0
M  V30 2025 H 192.835 -1.37103 -6.3333 0
M  V30 2026 N 186.241 1.57166 -0.116904 0
M  V30 2027 C 187.657 1.5779 0.239693 0
M  V30 2028 C 187.857 1.1295 1.66867 0
M  V30 2029 O 186.913 0.81592 2.38954 0
M  V30 2030 C 188.226 3.00699 0.00828202 0
M  V30 2031 C 189.774 3.12912 0.0743438 0
M  V30 2032 C 190.249 4.57817 -0.129348 0
M  V30 2033 N 191.74 4.63139 -0.075247 0
M  V30 2034 C 192.475 5.73023 -0.207788 0
M  V30 2035 N 191.971 6.91665 -0.396382 0
M  V30 2036 N 193.764 5.61906 -0.14751 0
M  V30 2037 H 185.915 1.84615 -1.05029 0
M  V30 2038 H 188.178 0.85311 -0.41341 0
M  V30 2039 H 187.884 3.37784 -0.979531 0
M  V30 2040 H 187.758 3.69848 0.741077 0
M  V30 2041 H 190.145 2.75686 1.05268 0
M  V30 2042 H 190.226 2.4631 -0.690297 0
M  V30 2043 H 189.87 4.95742 -1.10465 0
M  V30 2044 H 189.8 5.22507 0.655253 0
M  V30 2045 H 192.291 3.7784 0.0670898 0
M  V30 2046 H 192.604 7.71255 -0.488437 0
M  V30 2047 H 190.949 6.93654 -0.432329 0
M  V30 2048 H 194.14 4.681 -0.00115036 0
M  V30 2049 H 194.313 6.47501 -0.254247 0
M  V30 2050 N 187.719 -0.156864 1.56817 0
M  V30 2051 C 188.651 -1.21883 1.94106 0
M  V30 2052 C 189.664 -1.3971 0.835754 0
M  V30 2053 O 190.853 -1.39457 1.11418 0
M  V30 2054 C 187.953 -2.58527 2.19127 0
M  V30 2055 C 187.126 -2.61809 3.50393 0
M  V30 2056 C 186.185 -3.7992 3.64071 0
M  V30 2057 O 185.211 -3.65249 4.36557 0
M  V30 2058 N 186.413 -4.96973 2.99997 0
M  V30 2059 H 189.178 -0.901974 2.85805 0
M  V30 2060 H 186.739 -0.346513 1.58148 0
M  V30 2061 H 188.731 -3.36034 2.25529 0
M  V30 2062 H 187.301 -2.82545 1.33742 0
M  V30 2063 H 186.521 -1.7029 3.5552 0
M  V30 2064 H 187.809 -2.61024 4.36742 0
M  V30 2065 H 187.207 -5.11794 2.41004 0
M  V30 2066 H 185.764 -5.7229 3.11974 0
M  V30 2067 N 189.197 -1.51736 -0.425897 0
M  V30 2068 C 190.16 -1.73271 -1.50032 0
M  V30 2069 C 191.16 -0.602639 -1.4908 0
M  V30 2070 O 192.35 -0.87033 -1.509 0
M  V30 2071 C 189.482 -1.79969 -2.89523 0
M  V30 2072 H 190.675 -2.69172 -1.32237 0
M  V30 2073 H 188.228 -1.41899 -0.65532 0
M  V30 2074 H 188.963 -0.859241 -3.1271 0
M  V30 2075 H 188.748 -2.62109 -2.91619 0
M  V30 2076 H 190.238 -1.9843 -3.67444 0
M  V30 2077 N 190.675 0.682077 -1.42076 0
M  V30 2078 C 191.921 1.44428 -1.42367 0
M  V30 2079 C 192.254 1.94164 -0.0373056 0
M  V30 2080 O 191.529 1.70429 0.937239 0
M  V30 2081 C 191.812 2.64654 -2.44194 0
M  V30 2082 C 191.665 2.20596 -3.91991 0
M  V30 2083 C 192.984 3.66865 -2.431 0
M  V30 2084 H 190.103 0.523834 -0.518428 0
M  V30 2085 H 192.745 0.77576 -1.73442 0
M  V30 2086 H 190.895 3.2169 -2.17826 0
M  V30 2087 H 192.567 1.68783 -4.29313 0
M  V30 2088 H 190.81 1.52242 -4.06208 0
M  V30 2089 H 191.481 3.06921 -4.58807 0
M  V30 2090 H 193.957 3.19531 -2.66532 0
M  V30 2091 H 192.833 4.48577 -3.16339 0
M  V30 2092 H 193.094 4.17493 -1.45437 0
M  V30 2093 N 192.153 1.28127 0.917671 0
M  V30 2094 C 193.43 1.05761 1.64542 0
M  V30 2095 C 193.81 -0.404344 2.07191 0
M  V30 2096 O 193.158 -1.38963 1.81388 0
M  V30 2097 C 193.368 2.02857 2.83989 0
M  V30 2098 C 194.716 2.32786 3.551 0
M  V30 2099 O 195.74 2.0091 2.94132 0
M  V30 2100 O 194.599 2.87169 4.64969 0
M  V30 2101 H 191.693 0.403916 0.721652 0
M  V30 2102 H 194.239 1.39431 0.967322 0
M  V30 2103 H 193.011 3.01407 2.49538 0
M  V30 2104 H 192.634 1.69809 3.59514 0
M  V30 2105 N 193.631 -1.12557 1.10312 0
M  V30 2106 C 194.877 -1.84311 0.846011 0
M  V30 2107 C 195.21 -1.83805 -0.626859 0
M  V30 2108 O 194.485 -1.28268 -1.46211 0
M  V30 2109 C 194.768 -3.32048 1.39341 0
M  V30 2110 C 194.621 -3.41016 2.93305 0
M  V30 2111 C 195.94 -4.27764 1.03468 0
M  V30 2112 H 193.059 -0.669192 0.30879 0
M  V30 2113 H 195.701 -1.32057 1.36605 0
M  V30 2114 H 193.851 -3.76678 0.951087 0
M  V30 2115 H 195.523 -3.05031 3.46055 0
M  V30 2116 H 193.766 -2.81603 3.29973 0
M  V30 2117 H 194.437 -4.44948 3.26689 0
M  V30 2118 H 196.913 -3.91253 1.41633 0
M  V30 2119 H 195.789 -5.29549 1.44463 0
M  V30 2120 H 196.05 -4.42064 -0.0560404 0
M  V30 2121 N 195.109 -0.891671 -1.2995 0
M  V30 2122 C 196.334 -0.527932 -2.00568 0
M  V30 2123 C 196.759 0.877969 -1.66353 0
M  V30 2124 O 196.117 1.58301 -0.883762 0
M  V30 2125 C 196.165 -0.717745 -3.53385 0
M  V30 2126 O 195.269 0.233376 -4.11739 0
M  V30 2127 H 194.61 -0.20722 -0.630837 0
M  V30 2128 H 197.14 -1.20105 -1.65638 0
M  V30 2129 H 197.15 -0.619307 -4.03272 0
M  V30 2130 H 195.825 -1.74276 -3.77625 0
M  V30 2131 H 194.402 0.0880706 -3.72796 0
M  V30 2132 N 196.587 1.43421 -0.653314 0
M  V30 2133 C 197.998 1.85065 -0.246537 0
M  V30 2134 C 198.349 1.54688 1.2069 0
M  V30 2135 O 197.474 0.995896 1.92122 0
M  V30 2136 C 198.069 3.35922 -0.440666 0
M  V30 2137 C 196.628 3.76297 -0.0882064 0
M  V30 2138 C 195.775 2.67147 -0.743484 0
M  V30 2139 H 198.726 1.33572 -0.856979 0
M  V30 2140 H 198.747 3.79204 0.313798 0
M  V30 2141 H 198.259 3.58 -1.49858 0
M  V30 2142 H 196.36 3.5983 0.96711 0
M  V30 2143 H 196.473 4.76338 -0.513738 0
M  V30 2144 H 194.837 2.54086 -0.176712 0
M  V30 2145 H 195.62 2.92053 -1.80443 0
M  V30 2146 N 198.065 0.39524 1.52563 0
M  V30 2147 C 198.995 -0.428384 2.29537 0
M  V30 2148 C 199.976 -1.05831 1.33169 0
M  V30 2149 O 201.161 -1.06995 1.62067 0
M  V30 2150 C 198.291 -1.55274 3.10656 0
M  V30 2151 C 197.245 -1.04855 4.14957 0
M  V30 2152 C 196.571 -2.26543 4.84337 0
M  V30 2153 C 197.871 -0.112324 5.22179 0
M  V30 2154 H 199.565 0.213867 2.98635 0
M  V30 2155 H 197.111 0.104298 1.43622 0
M  V30 2156 H 199.064 -2.1358 3.63265 0
M  V30 2157 H 197.788 -2.22266 2.39302 0
M  V30 2158 H 196.447 -0.487985 3.63338 0
M  V30 2159 H 196.095 -2.92059 4.09525 0
M  V30 2160 H 195.795 -1.93466 5.54837 0
M  V30 2161 H 197.319 -2.85481 5.39753 0
M  V30 2162 H 198.733 -0.603752 5.70112 0
M  V30 2163 H 197.13 0.128968 5.99961 0
M  V30 2164 H 198.2 0.837052 4.77621 0
M  V30 2165 N 199.544 -1.57102 0.125237 0
M  V30 2166 C 200.96 -1.57915 -0.231322 0
M  V30 2167 C 201.16 -1.13833 -1.66266 0
M  V30 2168 O 200.216 -0.828581 -2.38518 0
M  V30 2169 C 201.529 -3.00699 0.00766489 0
M  V30 2170 C 203.077 -3.12947 -0.0577483 0
M  V30 2171 C 203.552 -4.57742 0.153626 0
M  V30 2172 N 205.043 -4.63092 0.0998073 0
M  V30 2173 C 205.778 -5.72905 0.238174 0
M  V30 2174 N 205.274 -6.91445 0.433057 0
M  V30 2175 N 207.067 -5.6182 0.177308 0
M  V30 2176 H 199.218 -1.84055 1.06007 0
M  V30 2177 H 201.481 -0.850905 0.417929 0
M  V30 2178 H 201.187 -3.3726 0.997431 0
M  V30 2179 H 201.061 -3.70236 -0.721452 0
M  V30 2180 H 203.448 -2.7624 -1.03804 0
M  V30 2181 H 203.529 -2.4594 0.70335 0
M  V30 2182 H 203.173 -4.95149 1.13092 0
M  V30 2183 H 203.103 -5.22848 -0.627534 0
M  V30 2184 H 205.594 -3.77871 -0.047051 0
M  V30 2185 H 205.907 -7.70985 0.529332 0
M  V30 2186 H 204.252 -6.93415 0.469109 0
M  V30 2187 H 207.443 -4.68093 0.0259748 0
M  V30 2188 H 207.616 -6.47357 0.288582 0
M  V30 2189 N 201.022 0.148545 -1.56898 0
M  V30 2190 C 202.438 0.501131 -1.51528 0
M  V30 2191 C 202.638 1.83458 -0.833399 0
M  V30 2192 O 201.694 2.49259 -0.40328 0
M  V30 2193 C 203.007 0.512864 -2.96294 0
M  V30 2194 C 204.555 0.598487 -3.07225 0
M  V30 2195 C 205.03 0.640897 -4.53494 0
M  V30 2196 N 206.521 0.703163 -4.57832 0
M  V30 2197 C 207.256 0.756935 -5.68382 0
M  V30 2198 N 206.752 0.770147 -6.88506 0
M  V30 2199 N 208.545 0.797698 -5.56411 0
M  V30 2200 H 200.696 -0.725532 -1.99624 0
M  V30 2201 H 202.959 -0.264358 -0.910395 0
M  V30 2202 H 202.665 -0.398691 -3.49433 0
M  V30 2203 H 202.539 1.35133 -3.52163 0
M  V30 2204 H 204.926 1.50046 -2.54106 0
M  V30 2205 H 205.007 -0.267093 -2.54402 0
M  V30 2206 H 204.651 -0.256915 -5.0725 0
M  V30 2207 H 204.581 1.52295 -5.04097 0
M  V30 2208 H 207.072 0.700314 -3.71354 0
M  V30 2209 H 207.385 0.812983 -7.68512 0
M  V30 2210 H 205.73 0.738049 -6.9107 0
M  V30 2211 H 208.921 0.784535 -4.61479 0
M  V30 2212 H 209.094 0.83614 -6.42583 0
M  V30 2213 N 202.5 1.5196 0.417844 0
M  V30 2214 C 203.746 1.65836 1.16732 0
M  V30 2215 C 204.079 0.382881 1.90388 0
M  V30 2216 O 203.354 -0.618368 1.84408 0
M  V30 2217 C 203.637 2.87466 2.16876 0
M  V30 2218 C 203.49 4.25041 1.47174 0
M  V30 2219 C 204.809 3.04613 3.17646 0
M  V30 2220 H 201.928 0.603515 0.423011 0
M  V30 2221 H 204.57 1.84494 0.454105 0
M  V30 2222 H 202.72 2.71689 2.777 0
M  V30 2223 H 204.392 4.52527 0.895376 0
M  V30 2224 H 202.635 4.26843 0.773806 0
M  V30 2225 H 203.306 5.06176 2.20204 0
M  V30 2226 H 205.782 3.1923 2.66892 0
M  V30 2227 H 204.658 3.91247 3.8499 0
M  V30 2228 H 204.919 2.17541 3.84874 0
M  V30 2229 N 203.978 -0.674533 1.42435 0
M  V30 2230 C 204.926 -1.80934 1.46169 0
M  V30 2231 C 205.92 -1.66006 0.3374 0
M  V30 2232 O 207.126 -1.72611 0.510425 0
M  V30 2233 H 203.501 -0.596594 0.457798 0
M  V30 2234 H 205.472 -1.74903 2.41767 0
M  V30 2235 C 204.221 -3.19088 1.38123 0
M  V30 2236 H 203.544 -3.31203 2.23931 0
M  V30 2237 H 204.984 -3.9851 1.44797 0
M  V30 2238 C 203.443 -3.36763 0.0960517 0
M  V30 2239 O 203.973 -3.92581 -0.851073 0
M  V30 2240 N 202.179 -2.90597 0.0131186 0
M  V30 2241 H 201.726 -2.45359 0.784639 0
M  V30 2242 H 201.684 -3.028 -0.846133 0
M  V30 2243 N 205.456 -1.28612 -0.910864 0
M  V30 2244 C 206.388 -1.08589 -2.01844 0
M  V30 2245 C 207.401 -0.0367419 -1.62759 0
M  V30 2246 O 208.59 -0.280101 -1.76289 0
M  V30 2247 C 205.69 -0.628626 -3.33019 0
M  V30 2248 C 204.863 -1.75382 -4.00699 0
M  V30 2249 C 203.922 -1.28945 -5.10156 0
M  V30 2250 O 202.948 -1.9922 -5.33198 0
M  V30 2251 N 204.15 -0.154224 -5.80295 0
M  V30 2252 H 206.915 -2.03973 -2.19579 0
M  V30 2253 H 204.476 -1.20403 -1.08234 0
M  V30 2254 H 206.468 -0.301508 -4.03575 0
M  V30 2255 H 205.038 0.232451 -3.11735 0
M  V30 2256 H 204.258 -2.25039 -3.23653 0
M  V30 2257 H 205.546 -2.50854 -4.42662 0
M  V30 2258 H 204.944 0.43194 -5.64049 0
M  V30 2259 H 203.501 0.113599 -6.51701 0
M  V30 2260 N 206.934 1.1197 -1.10907 0
M  V30 2261 C 207.897 2.16031 -0.765707 0
M  V30 2262 C 208.897 1.59393 0.212235 0
M  V30 2263 O 210.087 1.74196 -0.0115441 0
M  V30 2264 C 207.219 3.40632 -0.135053 0
M  V30 2265 H 208.412 2.47919 -1.68748 0
M  V30 2266 H 205.965 1.27061 -0.910226 0
M  V30 2267 H 206.7 3.14348 0.797218 0
M  V30 2268 H 206.485 3.8302 -0.838937 0
M  V30 2269 H 207.975 4.17505 0.0892469 0
M  V30 2270 N 208.412 0.89855 1.29475 0
M  V30 2271 C 209.661 0.519863 1.94885 0
M  V30 2272 C 209.974 -0.9383 1.71625 0
M  V30 2273 O 211.18 -1.42445 2.31131 0
M  V30 2274 C 209.636 0.878836 3.49005 0
M  V30 2275 C 209.244 2.35569 3.81066 0
M  V30 2276 C 210.988 0.570004 4.20656 0
M  V30 2277 C 208.895 2.65558 5.28425 0
M  V30 2278 H 207.825 0.190692 0.729488 0
M  V30 2279 H 210.476 1.09539 1.47219 0
M  V30 2280 H 208.858 0.232253 3.95318 0
M  V30 2281 H 210.032 3.04773 3.45616 0
M  V30 2282 H 208.347 2.63343 3.22552 0
M  V30 2283 H 210.944 0.770925 5.29113 0
M  V30 2284 H 211.287 -0.491404 4.1339 0
M  V30 2285 H 211.82 1.17438 3.8007 0
M  V30 2286 H 208.559 3.70493 5.40754 0
M  V30 2287 H 208.079 2.00977 5.65127 0
M  V30 2288 H 209.758 2.51765 5.96006 0
M  V30 2289 N 209.89 -1.43072 0.660911 0
M  V30 2290 C 211.12 -2.05769 0.185153 0
M  V30 2291 C 211.528 -1.49668 -1.15742 0
M  V30 2292 O 210.871 -0.625649 -1.72717 0
M  V30 2293 C 210.933 -3.59489 0.0278237 0
M  V30 2294 C 210.597 -4.38212 1.2969 0
M  V30 2295 C 211.594 -4.69772 2.22734 0
M  V30 2296 C 209.279 -4.7809 1.54063 0
M  V30 2297 C 211.273 -5.40129 3.38437 0
M  V30 2298 C 208.96 -5.4819 2.70058 0
M  V30 2299 C 209.958 -5.79132 3.62071 0
M  V30 2300 O 209.646 -6.47798 4.76039 0
M  V30 2301 H 209.378 -0.669873 0.0908086 0
M  V30 2302 H 211.932 -1.84436 0.90402 0
M  V30 2303 H 210.162 -3.79426 -0.746489 0
M  V30 2304 H 211.851 -4.03862 -0.406275 0
M  V30 2305 H 212.617 -4.39476 2.05149 0
M  V30 2306 H 208.496 -4.53408 0.833215 0
M  V30 2307 H 212.04 -5.64198 4.10277 0
M  V30 2308 H 207.937 -5.77902 2.87574 0
M  V30 2309 H 208.705 -6.66283 4.75404 0
M  V30 2310 N 211.368 -0.403325 -1.52352 0
M  V30 2311 C 212.298 0.416205 -2.29761 0
M  V30 2312 C 213.279 1.05123 -1.33728 0
M  V30 2313 O 214.464 1.06134 -1.62632 0
M  V30 2314 C 211.594 1.53624 -3.11475 0
M  V30 2315 C 210.548 1.02653 -4.15507 0
M  V30 2316 C 209.874 2.23971 -4.85532 0
M  V30 2317 C 211.174 0.08463 -5.22231 0
M  V30 2318 H 212.868 -0.229701 -2.98518 0
M  V30 2319 H 210.414 -0.111913 -1.43564 0
M  V30 2320 H 212.367 2.1165 -3.64393 0
M  V30 2321 H 211.091 2.20994 -2.40477 0
M  V30 2322 H 209.75 0.46871 -3.63591 0
M  V30 2323 H 209.398 2.89883 -4.11068 0
M  V30 2324 H 209.098 1.90521 -5.55856 0
M  V30 2325 H 210.622 2.82614 -5.41259 0
M  V30 2326 H 212.036 0.573509 -5.70424 0
M  V30 2327 H 210.433 -0.160783 -5.99885 0
M  V30 2328 H 211.503 -0.86237 -4.7717 0
M  V30 2329 N 212.846 1.57033 -0.133567 0
M  V30 2330 C 214.095 1.94861 0.520768 0
M  V30 2331 C 214.408 1.02012 1.66892 0
M  V30 2332 O 215.614 1.29365 2.38699 0
M  V30 2333 C 214.07 3.46362 0.977809 0
M  V30 2334 C 213.678 4.47773 -0.142674 0
M  V30 2335 C 215.422 3.93083 1.60269 0
M  V30 2336 C 213.329 5.90468 0.331883 0
M  V30 2337 H 212.259 0.727453 0.198315 0
M  V30 2338 H 214.91 1.82227 -0.215759 0
M  V30 2339 H 213.292 3.54282 1.7692 0
M  V30 2340 H 214.466 4.51536 -0.919317 0
M  V30 2341 H 212.781 4.10891 -0.675124 0
M  V30 2342 H 215.378 4.97121 1.96914 0
M  V30 2343 H 215.721 3.33876 2.48662 0
M  V30 2344 H 216.254 3.88025 0.876453 0
M  V30 2345 H 212.993 6.53463 -0.516341 0
M  V30 2346 H 212.513 5.90094 1.07469 0
M  V30 2347 H 214.192 6.42179 0.788332 0
M  V30 2348 N 214.325 -0.140222 1.56975 0
M  V30 2349 C 215.565 -0.857823 1.85528 0
M  V30 2350 C 215.929 -1.78039 0.718768 0
M  V30 2351 O 217.13 -2.53795 0.885521 0
M  V30 2352 C 215.401 -1.60615 3.19277 0
M  V30 2353 S 216.96 -2.36824 3.69405 0
M  V30 2354 H 213.778 -0.286727 0.650622 0
M  V30 2355 H 216.38 -0.117408 1.95147 0
M  V30 2356 H 215.084 -0.919994 3.99955 0
M  V30 2357 H 214.615 -2.38735 3.12681 0
M  V30 2358 H 216.63 -3.62148 3.3921 0
M  V30 2359 N 215.803 -1.52179 -0.40978 0
M  V30 2360 C 217.031 -1.70054 -1.17853 0
M  V30 2361 C 217.446 -0.409735 -1.843 0
M  V30 2362 O 216.803 0.614183 -1.71855 0
M  V30 2363 C 216.854 -2.83568 -2.24213 0
M  V30 2364 O 216.575 -4.0765 -1.60478 0
M  V30 2365 C 218.076 -3.12947 -3.13973 0
M  V30 2366 H 215.296 -0.569917 -0.354169 0
M  V30 2367 H 217.84 -1.98734 -0.482198 0
M  V30 2368 H 215.995 -2.57409 -2.89516 0
M  V30 2369 H 216.409 -4.70899 -2.30986 0
M  V30 2370 H 217.883 -3.95889 -3.84677 0
M  V30 2371 H 218.36 -2.26472 -3.76307 0
M  V30 2372 H 218.966 -3.40868 -2.5434 0
M  V30 2373 N 217.281 0.66697 -1.42791 0
M  V30 2374 C 218.529 1.42417 -1.43394 0
M  V30 2375 C 218.85 1.94925 -0.0542373 0
M  V30 2376 O 218.12 1.73564 0.908415 0
M  V30 2377 H 216.7 0.528515 -0.527902 0
M  V30 2378 H 219.362 0.787562 -1.78279 0
M  V30 2379 H 218.458 2.27333 -2.13837 0
M  V30 2380 N 218.759 1.29093 0.90403 0
M  V30 2381 C 219.722 1.1386 1.98919 0
M  V30 2382 C 220.722 0.0753457 1.60623 0
M  V30 2383 O 221.912 0.321931 1.71199 0
M  V30 2384 C 219.044 0.740198 3.32767 0
M  V30 2385 H 220.237 2.10246 2.13861 0
M  V30 2386 H 217.79 1.12218 1.08797 0
M  V30 2387 H 218.525 -0.223997 3.23525 0
M  V30 2388 H 218.31 1.50838 3.61926 0
M  V30 2389 H 219.8 0.656546 4.12407 0
M  V30 2390 N 220.237 -1.11381 1.11499 0
M  V30 2391 C 221.653 -1.35143 0.849031 0
M  V30 2392 C 221.853 -1.94515 -0.525938 0
M  V30 2393 O 220.909 -2.1785 -1.27662 0
M  V30 2394 C 222.222 -2.28249 1.95762 0
M  V30 2395 C 223.77 -2.41812 1.98736 0
M  V30 2396 C 224.245 -3.3824 3.088 0
M  V30 2397 N 225.736 -3.45803 3.08179 0
M  V30 2398 C 226.471 -4.20358 3.89982 0
M  V30 2399 N 225.967 -4.97884 4.8175 0
M  V30 2400 N 227.76 -4.15877 3.78157 0
M  V30 2401 H 219.911 -0.712062 2.00109 0
M  V30 2402 H 222.174 -0.376025 0.870235 0
M  V30 2403 H 221.88 -1.91817 2.94787 0
M  V30 2404 H 221.754 -3.28473 1.85433 0
M  V30 2405 H 224.141 -2.77518 1.00338 0
M  V30 2406 H 224.222 -1.41437 2.13141 0
M  V30 2407 H 223.866 -3.03261 4.07425 0
M  V30 2408 H 223.796 -4.38471 2.91635 0
M  V30 2409 H 226.287 -2.90506 2.41691 0
M  V30 2410 H 226.6 -5.52142 5.40702 0
M  V30 2411 H 224.945 -4.97043 4.85771 0
M  V30 2412 H 228.136 -3.544 3.05808 0
M  V30 2413 H 228.309 -4.73723 4.42143 0
M  V30 2414 N 221.715 -0.905404 -1.28997 0
M  V30 2415 C 222.663 -0.377431 -2.29517 0
M  V30 2416 C 223.657 0.526461 -1.61012 0
M  V30 2417 O 224.863 0.40863 -1.753 0
M  V30 2418 H 221.238 -0.103437 -0.744852 0
M  V30 2419 H 223.209 -1.23848 -2.71485 0
M  V30 2420 C 221.958 0.374833 -3.45674 0
M  V30 2421 H 221.281 -0.311474 -3.98585 0
M  V30 2422 H 222.721 0.70903 -4.1803 0
M  V30 2423 C 221.18 1.57963 -2.97572 0
M  V30 2424 O 221.71 2.67886 -2.99333 0
M  V30 2425 N 219.916 1.42375 -2.53333 0
M  V30 2426 H 219.463 0.529466 -2.521 0
M  V30 2427 H 219.421 2.23117 -2.21509 0
M  V30 2428 N 223.193 1.4272 -0.668489 0
M  V30 2429 C 224.156 2.292 0.00448567 0
M  V30 2430 C 225.156 1.43001 0.735339 0
M  V30 2431 O 226.346 1.64461 0.57429 0
M  V30 2432 C 223.478 3.25375 1.01705 0
M  V30 2433 H 224.671 2.90199 -0.756608 0
M  V30 2434 H 222.224 1.50254 -0.430506 0
M  V30 2435 H 222.959 2.69301 1.80686 0
M  V30 2436 H 222.744 3.88944 0.496463 0
M  V30 2437 H 224.234 3.90245 1.48655 0
M  V30 2438 N 224.671 0.411399 1.52136 0
M  V30 2439 C 225.634 -0.401089 2.25663 0
M  V30 2440 C 226.634 -0.971732 1.28117 0
M  V30 2441 O 227.824 -0.850254 1.52041 0
M  V30 2442 C 224.956 -1.56483 3.02863 0
M  V30 2443 H 226.149 0.24295 2.98914 0
M  V30 2444 H 223.702 0.163968 1.55438 0
M  V30 2445 H 224.437 -2.24567 2.33967 0
M  V30 2446 H 224.222 -1.16211 3.74483 0
M  V30 2447 H 225.712 -2.13951 3.58629 0
M  V30 2448 N 226.149 -1.5696 0.141893 0
M  V30 2449 C 227.396 -1.9596 -0.510492 0
M  V30 2450 C 227.724 -1.02648 -1.65208 0
M  V30 2451 O 226.979 -0.0546947 -1.95624 0
M  V30 2452 C 227.278 -3.41242 -1.06249 0
M  V30 2453 C 226.944 -4.50882 -0.0398791 0
M  V30 2454 C 225.606 -4.80595 0.241247 0
M  V30 2455 C 227.958 -5.17058 0.65578 0
M  V30 2456 C 225.286 -5.73792 1.22393 0
M  V30 2457 C 227.638 -6.11313 1.62724 0
M  V30 2458 C 226.302 -6.39407 1.91612 0
M  V30 2459 H 225.572 -0.717068 -0.186802 0
M  V30 2460 H 228.219 -1.90142 0.227643 0
M  V30 2461 H 226.524 -3.43866 -1.87785 0
M  V30 2462 H 228.221 -3.68742 -1.57576 0
M  V30 2463 H 224.811 -4.27754 -0.269174 0
M  V30 2464 H 228.995 -4.94239 0.451779 0
M  V30 2465 H 224.251 -5.93853 1.45424 0
M  V30 2466 H 228.425 -6.61668 2.17183 0
M  V30 2467 H 226.052 -7.11427 2.6791 0
M  V30 2468 N 227.627 0.131896 -1.57047 0
M  V30 2469 C 229.043 0.485031 -1.52051 0
M  V30 2470 C 229.243 1.82563 -0.85281 0
M  V30 2471 O 228.299 2.48817 -0.429694 0
M  V30 2472 C 229.612 0.481409 -2.96821 0
M  V30 2473 C 231.16 0.565868 -3.07842 0
M  V30 2474 C 231.635 0.592762 -4.54148 0
M  V30 2475 N 233.126 0.654564 -4.58552 0
M  V30 2476 C 233.861 0.696608 -5.69153 0
M  V30 2477 N 233.357 0.697078 -6.89284 0
M  V30 2478 N 235.15 0.738639 -5.57226 0
M  V30 2479 H 227.301 -0.746664 -1.98843 0
M  V30 2480 H 229.564 -0.273999 -0.90754 0
M  V30 2481 H 229.27 -0.435731 -3.4899 0
M  V30 2482 H 229.144 1.3139 -3.53577 0
M  V30 2483 H 231.531 1.47343 -2.55684 0
M  V30 2484 H 231.612 -0.29406 -2.54104 0
M  V30 2485 H 231.256 -0.310701 -5.06949 0
M  V30 2486 H 231.186 1.46939 -5.05684 0
M  V30 2487 H 233.677 0.660887 -3.72076 0
M  V30 2488 H 233.99 0.731426 -7.69331 0
M  V30 2489 H 232.335 0.66471 -6.91814 0
M  V30 2490 H 235.526 0.735545 -4.62285 0
M  V30 2491 H 235.699 0.767938 -6.43434 0
M  V30 2492 N 229.106 1.52395 0.401703 0
M  V30 2493 C 230.054 1.7689 1.51039 0
M  V30 2494 C 231.048 0.636298 1.56996 0
M  V30 2495 O 232.254 0.818507 1.60314 0
M  V30 2496 H 228.629 0.559502 0.502456 0
M  V30 2497 H 230.6 2.69757 1.27568 0
M  V30 2498 C 229.349 1.94331 2.88324 0
M  V30 2499 H 228.672 2.80905 2.84486 0
M  V30 2500 H 230.112 2.15466 3.65172 0
M  V30 2501 C 228.571 0.712396 3.29282 0
M  V30 2502 O 229.101 -0.116218 4.01532 0
M  V30 2503 N 227.307 0.546154 2.85422 0
M  V30 2504 H 226.854 1.22156 2.26794 0
M  V30 2505 H 226.812 -0.276113 3.13185 0
M  V30 2506 N 230.584 -0.659388 1.43143 0
M  V30 2507 C 231.833 -1.41518 1.43721 0
M  V30 2508 C 232.146 -1.95499 0.0628176 0
M  V30 2509 O 233.352 -2.71446 -0.0539683 0
M  V30 2510 C 231.808 -2.5608 2.52885 0
M  V30 2511 C 231.416 -2.08733 3.96402 0
M  V30 2512 C 233.16 -3.3349 2.62649 0
M  V30 2513 C 231.067 -3.20469 4.97045 0
M  V30 2514 H 229.997 -0.531705 0.534608 0
M  V30 2515 H 232.648 -0.712343 1.69109 0
M  V30 2516 H 231.03 -3.28805 2.20688 0
M  V30 2517 H 232.204 -1.43059 4.3803 0
M  V30 2518 H 230.519 -1.44219 3.90627 0
M  V30 2519 H 233.116 -4.16734 3.35017 0
M  V30 2520 H 233.459 -3.8111 1.67513 0
M  V30 2521 H 233.992 -2.67842 2.94118 0
M  V30 2522 H 230.731 -2.77824 5.93712 0
M  V30 2523 H 230.251 -3.84874 4.60034 0
M  V30 2524 H 231.93 -3.85698 5.19467 0
M  V30 2525 N 232.062 -1.29571 -0.897171 0
M  V30 2526 C 233.009 -1.14916 -2.00158 0
M  V30 2527 C 233.979 -0.0418149 -1.66047 0
M  V30 2528 O 235.164 -0.209793 -1.89643 0
M  V30 2529 C 232.304 -0.834307 -3.34863 0
M  V30 2530 C 231.417 -2.02234 -3.8174 0
M  V30 2531 C 230.552 -1.64664 -5.05034 0
M  V30 2532 C 229.591 -2.80033 -5.44286 0
M  V30 2533 N 228.728 -2.42843 -6.58765 0
M  V30 2534 H 233.568 -2.09403 -2.12025 0
M  V30 2535 H 231.105 -1.042 -1.0383 0
M  V30 2536 H 233.063 -0.632436 -4.12379 0
M  V30 2537 H 231.693 0.0736656 -3.22716 0
M  V30 2538 H 230.745 -2.33583 -3.00238 0
M  V30 2539 H 232.057 -2.88673 -4.06779 0
M  V30 2540 H 231.211 -1.4078 -5.9014 0
M  V30 2541 H 229.95 -0.753766 -4.8184 0
M  V30 2542 H 228.955 -3.04596 -4.57713 0
M  V30 2543 H 230.18 -3.69989 -5.6946 0
M  V30 2544 H 228.126 -1.56046 -6.3717 0
M  V30 2545 H 228.043 -3.22815 -6.83613 0
M  V30 2546 H 229.311 -2.22285 -7.47134 0
M  V30 2547 N 233.54 1.10788 -1.12088 0
M  V30 2548 C 234.765 1.87002 -0.896949 0
M  V30 2549 C 235.19 1.79933 0.548261 0
M  V30 2550 O 234.548 1.16662 1.38779 0
M  V30 2551 C 234.596 3.3349 -1.37174 0
M  V30 2552 O 233.7 4.08745 -0.547831 0
M  V30 2553 H 233.041 0.580397 -0.322545 0
M  V30 2554 H 235.571 1.39996 -1.49206 0
M  V30 2555 H 235.581 3.84339 -1.36922 0
M  V30 2556 H 234.256 3.37951 -2.42408 0
M  V30 2557 H 232.833 3.6776 -0.617034 0
M  V30 2558 N 235.018 0.912232 1.28515 0
M  V30 2559 C 236.267 0.540504 1.94323 0
M  V30 2560 C 236.58 -0.920044 1.72611 0
M  V30 2561 O 237.786 -1.39986 2.32629 0
M  V30 2562 C 236.242 0.915803 3.48053 0
M  V30 2563 C 235.85 2.39598 3.78546 0
M  V30 2564 C 237.594 0.614588 4.20027 0
M  V30 2565 C 235.501 2.71148 5.25578 0
M  V30 2566 H 234.431 0.198418 0.727424 0
M  V30 2567 H 237.082 1.11094 1.46049 0
M  V30 2568 H 235.464 0.274168 3.9505 0
M  V30 2569 H 236.638 3.08422 3.42364 0
M  V30 2570 H 234.953 2.66749 3.1974 0
M  V30 2571 H 237.55 0.827002 5.28266 0
M  V30 2572 H 237.893 -0.447531 4.13887 0
M  V30 2573 H 238.426 1.21462 3.78803 0
M  V30 2574 H 235.165 3.76207 5.36794 0
M  V30 2575 H 234.685 2.0696 5.62963 0
M  V30 2576 H 236.364 2.58072 5.93302 0
M  V30 2577 N 236.496 -1.42363 0.676048 0
M  V30 2578 C 237.721 -2.06377 0.205705 0
M  V30 2579 C 238.146 -1.50463 -1.12883 0
M  V30 2580 O 237.504 -0.623619 -1.70237 0
M  V30 2581 C 237.552 -3.60277 0.152655 0
M  V30 2582 O 236.656 -4.02935 -0.87845 0
M  V30 2583 H 235.997 -0.655588 0.105359 0
M  V30 2584 H 238.527 -1.82475 0.925412 0
M  V30 2585 H 238.537 -4.07993 -0.0230675 0
M  V30 2586 H 237.212 -4.00346 1.12675 0
M  V30 2587 H 235.789 -3.66764 -0.673668 0
M  V30 2588 N 237.974 -0.419461 -1.51915 0
M  V30 2589 C 238.884 0.407528 -2.31033 0
M  V30 2590 C 239.9 1.04413 -1.3919 0
M  V30 2591 O 241.076 1.0434 -1.72265 0
M  V30 2592 C 238.141 1.50365 -3.12396 0
M  V30 2593 C 237.202 0.889029 -4.19994 0
M  V30 2594 C 236.435 1.93291 -4.97468 0
M  V30 2595 O 236.658 3.15259 -4.75361 0
M  V30 2596 O 235.592 1.53339 -5.8204 0
M  V30 2597 H 239.418 -0.237865 -3.02767 0
M  V30 2598 H 237.003 -0.182413 -1.48282 0
M  V30 2599 H 238.885 2.13975 -3.63032 0
M  V30 2600 H 237.56 2.13345 -2.43445 0
M  V30 2601 H 236.467 0.215353 -3.7348 0
M  V30 2602 H 237.8 0.302991 -4.91267 0
M  V30 2603 N 239.452 1.56882 -0.150215 0
M  V30 2604 C 240.692 1.98119 0.502804 0
M  V30 2605 C 241.056 1.03327 1.61826 0
M  V30 2606 O 242.257 1.33621 2.33236 0
M  V30 2607 C 240.528 3.43329 0.992988 0
M  V30 2608 S 242.087 4.0659 1.65015 0
M  V30 2609 H 238.905 0.692189 0.162467 0
M  V30 2610 H 241.507 1.93988 -0.242689 0
M  V30 2611 H 240.211 4.10046 0.170436 0
M  V30 2612 H 239.742 3.5118 1.77303 0
M  V30 2613 H 241.757 3.99906 2.93752 0
M  V30 2614 N 240.93 -0.123565 1.57115 0
M  V30 2615 C 241.86 -1.15309 2.03042 0
M  V30 2616 C 242.841 -1.43454 0.914061 0
M  V30 2617 O 244.026 -1.53973 1.18347 0
M  V30 2618 C 241.156 -2.48043 2.43089 0
M  V30 2619 C 240.11 -2.3437 3.58127 0
M  V30 2620 C 239.436 -3.72026 3.84059 0
M  V30 2621 C 240.736 -1.80804 4.90007 0
M  V30 2622 H 242.43 -0.771102 2.893 0
M  V30 2623 H 239.976 -0.369479 1.39179 0
M  V30 2624 H 241.929 -3.20311 2.73823 0
M  V30 2625 H 240.653 -2.88122 1.53796 0
M  V30 2626 H 239.312 -1.64551 3.27595 0
M  V30 2627 H 238.96 -4.09582 2.91979 0
M  V30 2628 H 238.66 -3.63732 4.6149 0
M  V30 2629 H 240.184 -4.45806 4.1724 0
M  V30 2630 H 241.598 -2.42886 5.19307 0
M  V30 2631 H 239.995 -1.83343 5.71407 0
M  V30 2632 H 241.065 -0.76528 4.78823 0
M  V30 2633 N 242.408 -1.52605 -0.393616 0
M  V30 2634 C 243.371 -1.76415 -1.46323 0
M  V30 2635 C 244.371 -0.634126 -1.47768 0
M  V30 2636 O 245.561 -0.902142 -1.4902 0
M  V30 2637 C 242.693 -1.8607 -2.85641 0
M  V30 2638 H 243.886 -2.71916 -1.26498 0
M  V30 2639 H 241.439 -1.43257 -0.625073 0
M  V30 2640 H 242.174 -0.925378 -3.10817 0
M  V30 2641 H 241.959 -2.68235 -2.85993 0
M  V30 2642 H 243.449 -2.06179 -3.63153 0
M  V30 2643 N 243.887 0.651787 -1.4349 0
M  V30 2644 C 244.797 1.79368 -1.5121 0
M  V30 2645 C 245.813 1.69361 -0.399093 0
M  V30 2646 O 246.989 1.90505 -0.653431 0
M  V30 2647 C 244.054 3.15653 -1.43401 0
M  V30 2648 C 243.115 3.37446 -2.65384 0
M  V30 2649 C 242.348 4.67229 -2.57939 0
M  V30 2650 O 242.571 5.46676 -1.62792 0
M  V30 2651 O 241.505 4.90773 -3.48462 0
M  V30 2652 H 245.331 1.7581 -2.47638 0
M  V30 2653 H 242.916 0.810447 -1.25507 0
M  V30 2654 H 244.798 3.96935 -1.41494 0
M  V30 2655 H 243.473 3.19798 -0.501085 0
M  V30 2656 H 242.38 2.55923 -2.72863 0
M  V30 2657 H 243.713 3.38148 -3.57654 0
M  V30 2658 N 245.365 1.30045 0.890287 0
M  V30 2659 C 246.275 1.17885 2.02831 0
M  V30 2660 C 247.291 0.0999609 1.73713 0
M  V30 2661 O 248.467 0.313867 1.98939 0
M  V30 2662 C 245.532 0.866079 3.35708 0
M  V30 2663 C 244.593 2.02979 3.78283 0
M  V30 2664 C 243.826 1.73184 5.0482 0
M  V30 2665 O 244.049 0.657237 5.66601 0
M  V30 2666 O 242.983 2.58267 5.43674 0
M  V30 2667 H 246.809 2.13474 2.16015 0
M  V30 2668 H 244.394 1.09587 1.01543 0
M  V30 2669 H 246.276 0.706623 4.15433 0
M  V30 2670 H 244.951 -0.0599443 3.23644 0
M  V30 2671 H 243.858 2.24454 2.99285 0
M  V30 2672 H 245.191 2.93734 3.94944 0
M  V30 2673 N 246.843 -1.10192 1.12674 0
M  V30 2674 C 248.092 -1.81573 0.8783 0
M  V30 2675 C 248.405 -1.86249 -0.597557 0
M  V30 2676 O 249.611 -2.5386 -0.962681 0
M  V30 2677 C 248.067 -3.26149 1.52167 0
M  V30 2678 C 247.675 -3.29763 3.03249 0
M  V30 2679 C 249.419 -4.0234 1.3536 0
M  V30 2680 C 247.326 -4.68815 3.60508 0
M  V30 2681 H 246.256 -0.680394 0.324931 0
M  V30 2682 H 248.907 -1.23902 1.35353 0
M  V30 2683 H 247.289 -3.83832 0.974104 0
M  V30 2684 H 248.463 -2.8189 3.6452 0
M  V30 2685 H 246.778 -2.67059 3.19481 0
M  V30 2686 H 249.375 -5.05058 1.75559 0
M  V30 2687 H 249.718 -4.15235 0.297554 0
M  V30 2688 H 250.251 -3.51079 1.87052 0
M  V30 2689 H 246.99 -4.61121 4.65884 0
M  V30 2690 H 246.51 -5.17045 3.04014 0
M  V30 2691 H 248.189 -5.37785 3.59717 0
M  V30 2692 N 248.321 -0.919034 -1.28029 0
M  V30 2693 C 249.57 -0.550802 -1.94034 0
M  V30 2694 C 249.883 0.910877 -1.73096 0
M  V30 2695 O 251.089 1.3875 -2.33368 0
M  V30 2696 C 249.545 -0.934249 -3.47563 0
M  V30 2697 C 249.153 -2.41602 -3.7727 0
M  V30 2698 C 250.897 -0.636854 -4.19696 0
M  V30 2699 C 248.804 -2.73932 -5.24133 0
M  V30 2700 H 247.734 -0.202273 -0.726362 0
M  V30 2701 H 250.385 -1.11867 -1.45458 0
M  V30 2702 H 248.767 -0.295115 -3.94899 0
M  V30 2703 H 249.941 -3.10233 -3.40723 0
M  V30 2704 H 248.256 -2.68441 -3.18321 0
M  V30 2705 H 250.853 -0.855005 -5.2782 0
M  V30 2706 H 251.196 0.425575 -4.14119 0
M  V30 2707 H 251.729 -1.23469 -3.78154 0
M  V30 2708 H 248.468 -3.79049 -5.34792 0
M  V30 2709 H 247.988 -2.09942 -5.61858 0
M  V30 2710 H 249.667 -2.61215 -5.91925 0
M  V30 2711 N 249.799 1.42003 -0.683588 0
M  V30 2712 C 250.747 2.326 0.000815408 0
M  V30 2713 C 251.741 1.50308 0.781278 0
M  V30 2714 O 252.947 1.66322 0.688251 0
M  V30 2715 H 249.322 0.751758 0.0190616 0
M  V30 2716 H 251.293 2.88011 -0.780528 0
M  V30 2717 C 250.042 3.34978 0.93195 0
M  V30 2718 H 249.365 3.98345 0.340817 0
M  V30 2719 H 250.805 4.00936 1.37936 0
M  V30 2720 C 249.264 2.67925 2.04249 0
M  V30 2721 O 249.794 2.51788 3.12995 0
M  V30 2722 N 248 2.2681 1.81675 0
M  V30 2723 H 247.547 2.40135 0.932363 0
M  V30 2724 H 247.505 1.8228 2.56167 0
M  V30 2725 N 251.277 0.427512 1.51691 0
M  V30 2726 C 252.517 -0.141524 2.03909 0
M  V30 2727 C 252.881 -1.40811 1.30523 0
M  V30 2728 O 254.082 -2.05676 1.73063 0
M  V30 2729 C 252.353 -0.364962 3.55532 0
M  V30 2730 S 253.912 -0.898812 4.29496 0
M  V30 2731 H 250.73 -0.0364542 0.710065 0
M  V30 2732 H 253.332 0.584659 1.86553 0
M  V30 2733 H 252.036 0.56336 4.06515 0
M  V30 2734 H 251.567 -1.1185 3.77164 0
M  V30 2735 H 253.582 -2.17747 4.45871 0
M  V30 2736 N 252.755 -1.56801 0.158532 0
M  V30 2737 C 253.718 -2.16138 -0.762705 0
M  V30 2738 C 254.718 -1.1061 -1.16713 0
M  V30 2739 O 255.908 -1.36191 -1.08617 0
M  V30 2740 C 253.04 -2.73386 -2.03649 0
M  V30 2741 H 254.233 -2.98886 -0.246354 0
M  V30 2742 H 251.786 -1.56035 -0.0909744 0
M  V30 2743 H 252.521 -1.94335 -2.59623 0
M  V30 2744 H 252.306 -3.50601 -1.75559 0
M  V30 2745 H 253.796 -3.19065 -2.6942 0
M  V30 2746 N 254.233 0.115231 -1.57178 0
M  V30 2747 C 255.181 1.16014 -2.01602 0
M  V30 2748 C 256.175 1.42653 -0.913587 0
M  V30 2749 O 257.381 1.42571 -1.09879 0
M  V30 2750 H 253.756 0.391252 -0.642204 0
M  V30 2751 H 255.727 0.758998 -2.88586 0
M  V30 2752 C 254.476 2.47767 -2.4394 0
M  V30 2753 H 253.799 2.28108 -3.28339 0
M  V30 2754 H 255.239 3.19432 -2.78818 0
M  V30 2755 C 253.698 3.10617 -1.30455 0
M  V30 2756 O 254.228 3.96846 -0.622585 0
M  V30 2757 N 252.434 2.70553 -1.06064 0
M  V30 2758 H 251.981 2.00527 -1.61699 0
M  V30 2759 H 251.939 3.12934 -0.303284 0
M  V30 2760 N 255.711 1.52812 0.385517 0
M  V30 2761 C 256.621 1.80766 1.49535 0
M  V30 2762 C 257.637 0.694651 1.59532 0
M  V30 2763 O 258.813 0.982611 1.75803 0
M  V30 2764 C 255.878 1.97381 2.85029 0
M  V30 2765 C 254.939 3.21295 2.84724 0
M  V30 2766 C 254.172 3.37108 4.13756 0
M  V30 2767 O 254.395 2.5765 5.08893 0
M  V30 2768 O 253.329 4.30378 4.20783 0
M  V30 2769 H 257.155 2.75015 1.28842 0
M  V30 2770 H 254.74 1.37946 0.573697 0
M  V30 2771 H 256.622 2.09996 3.65349 0
M  V30 2772 H 255.297 1.06322 3.05741 0
M  V30 2773 H 254.204 3.1412 2.03174 0
M  V30 2774 H 255.537 4.12212 2.68965 0
M  V30 2775 N 257.189 -0.644168 1.43834 0
M  V30 2776 C 258.414 -1.43642 1.49605 0
M  V30 2777 C 258.839 -1.8773 0.117913 0
M  V30 2778 O 258.197 -1.57938 -0.890239 0
M  V30 2779 C 258.245 -2.6416 2.45463 0
M  V30 2780 O 257.349 -3.63538 1.94714 0
M  V30 2781 H 256.69 -0.430329 0.50568 0
M  V30 2782 H 259.22 -0.787448 1.8884 0
M  V30 2783 H 259.23 -3.11864 2.63068 0
M  V30 2784 H 257.905 -2.31414 3.45572 0
M  V30 2785 H 256.482 -3.2273 1.86814 0
M  V30 2786 N 258.668 -1.30515 -0.883378 0
M  V30 2787 C 259.893 -1.22487 -1.67367 0
M  V30 2788 C 260.318 0.208767 -1.86938 0
M  V30 2789 O 259.676 1.15015 -1.40148 0
M  V30 2790 C 259.724 -1.96041 -3.02655 0
M  V30 2791 O 258.828 -1.28859 -3.91751 0
M  V30 2792 H 258.169 -0.423573 -0.511353 0
M  V30 2793 H 260.699 -1.72362 -1.10239 0
M  V30 2794 H 260.709 -2.05124 -3.52687 0
M  V30 2795 H 259.384 -3.00307 -2.8773 0
M  V30 2796 H 257.961 -1.28141 -3.50192 0
M  V30 2797 N 260.146 1.09593 -1.13257 0
M  V30 2798 C 261.371 1.8604 -0.916732 0
M  V30 2799 C 261.796 1.80504 0.529146 0
M  V30 2800 O 261.154 1.18127 1.37534 0
M  V30 2801 C 261.202 3.32017 -1.40703 0
M  V30 2802 O 260.306 4.08141 -0.591153 0
M  V30 2803 H 259.647 0.576943 -0.328683 0
M  V30 2804 H 262.177 1.38405 -1.50682 0
M  V30 2805 H 262.187 3.82865 -1.4099 0
M  V30 2806 H 260.862 3.35361 -2.45979 0
M  V30 2807 H 259.439 3.67084 -0.656005 0
M  V30 2808 N 261.624 0.925811 1.2754 0
M  V30 2809 C 262.849 0.580924 1.99098 0
M  V30 2810 C 263.274 -0.833555 1.68622 0
M  V30 2811 O 262.632 -1.55903 0.925422 0
M  V30 2812 C 262.68 0.811186 3.51358 0
M  V30 2813 O 261.784 -0.124129 4.12213 0
M  V30 2814 H 261.125 0.223873 0.625122 0
M  V30 2815 H 263.655 1.24455 1.62395 0
M  V30 2816 H 263.665 0.72601 4.01489 0
M  V30 2817 H 262.34 1.84227 3.72872 0
M  V30 2818 H 260.917 0.0108006 3.72898 0
M  V30 2819 N 263.102 -1.41638 0.69111 0
M  V30 2820 C 264.332 -2.0533 0.228758 0
M  V30 2821 C 264.74 -1.52089 -1.12541 0
M  V30 2822 O 264.083 -0.662145 -1.71351 0
M  V30 2823 C 264.145 -3.59349 0.10407 0
M  V30 2824 C 263.809 -4.35362 1.38956 0
M  V30 2825 C 264.806 -4.64942 2.32648 0
M  V30 2826 C 262.491 -4.74714 1.64169 0
M  V30 2827 C 264.485 -5.32828 3.49818 0
M  V30 2828 C 262.172 -5.42338 2.81625 0
M  V30 2829 C 263.17 -5.71322 3.74273 0
M  V30 2830 O 262.858 -6.37554 4.89673 0
M  V30 2831 H 262.59 -0.667796 0.104997 0
M  V30 2832 H 265.144 -1.82477 0.942938 0
M  V30 2833 H 263.374 -3.80924 -0.665839 0
M  V30 2834 H 265.063 -4.04633 -0.320519 0
M  V30 2835 H 265.829 -4.35025 2.14425 0
M  V30 2836 H 261.708 -4.51538 0.929202 0
M  V30 2837 H 265.252 -5.55368 4.22152 0
M  V30 2838 H 261.149 -5.71673 2.99768 0
M  V30 2839 H 261.917 -6.56049 4.8943 0
M  V30 2840 N 264.58 -0.43555 -1.51462 0
M  V30 2841 C 265.543 0.365137 -2.26273 0
M  V30 2842 C 266.543 0.951227 -1.29647 0
M  V30 2843 O 267.733 0.825958 -1.53374 0
M  V30 2844 C 264.865 1.51645 -3.05314 0
M  V30 2845 H 266.058 -0.290474 -2.9849 0
M  V30 2846 H 263.611 -0.188676 -1.55157 0
M  V30 2847 H 264.346 2.20816 -2.3751 0
M  V30 2848 H 264.131 1.10238 -3.76284 0
M  V30 2849 H 265.621 2.08218 -3.61987 0
M  V30 2850 N 266.058 1.56714 -0.166846 0
M  V30 2851 C 267.307 1.95922 0.479318 0
M  V30 2852 C 267.62 1.05529 1.6469 0
M  V30 2853 O 268.826 1.34399 2.35901 0
M  V30 2854 C 267.282 3.48359 0.90412 0
M  V30 2855 C 266.89 4.47369 -0.237621 0
M  V30 2856 C 268.634 3.96394 1.51896 0
M  V30 2857 C 266.541 5.91039 0.206561 0
M  V30 2858 H 265.471 0.731495 0.18284 0
M  V30 2859 H 268.122 1.81728 -0.254363 0
M  V30 2860 H 266.504 3.57955 1.69365 0
M  V30 2861 H 267.678 4.49485 -1.01489 0
M  V30 2862 H 265.993 4.09366 -0.762128 0
M  V30 2863 H 268.59 5.01186 1.86325 0
M  V30 2864 H 268.933 3.39075 2.41524 0
M  V30 2865 H 269.466 3.89796 0.79395 0
M  V30 2866 H 266.205 6.52221 -0.654834 0
M  V30 2867 H 265.725 5.9224 0.949282 0
M  V30 2868 H 267.404 6.43707 0.651939 0
M  V30 2869 N 267.536 -0.106894 1.57237 0
M  V30 2870 C 268.483 -1.13049 2.01217 0
M  V30 2871 C 269.453 -1.40471 0.886403 0
M  V30 2872 O 270.638 -1.52133 1.15153 0
M  V30 2873 C 267.778 -2.4487 2.43172 0
M  V30 2874 C 266.891 -2.24281 3.69218 0
M  V30 2875 C 266.026 -3.49417 4.00101 0
M  V30 2876 C 265.065 -3.24038 5.19294 0
M  V30 2877 N 264.202 -4.41409 5.45988 0
M  V30 2878 H 269.042 -0.748456 2.88448 0
M  V30 2879 H 266.579 -0.358054 1.42676 0
M  V30 2880 H 268.537 -3.21786 2.65537 0
M  V30 2881 H 267.167 -2.80944 1.58967 0
M  V30 2882 H 266.219 -1.38224 3.54398 0
M  V30 2883 H 267.531 -2.01512 4.56283 0
M  V30 2884 H 266.685 -4.34746 4.2318 0
M  V30 2885 H 265.424 -3.75229 3.11535 0
M  V30 2886 H 264.429 -2.37102 4.96047 0
M  V30 2887 H 265.654 -2.99584 6.09447 0
M  V30 2888 H 263.6 -4.67319 4.60379 0
M  V30 2889 H 263.517 -4.21788 6.274 0
M  V30 2890 H 264.785 -5.27836 5.73593 0
M  V30 2891 N 269.014 -1.53014 -0.377408 0
M  V30 2892 C 269.961 -1.78616 -1.46168 0
M  V30 2893 C 270.931 -0.629917 -1.53692 0
M  V30 2894 O 272.116 -0.870861 -1.69766 0
M  V30 2895 C 269.256 -1.97123 -2.8326 0
M  V30 2896 C 268.369 -3.24831 -2.84796 0
M  V30 2897 C 267.504 -3.33591 -4.13389 0
M  V30 2898 C 266.543 -4.55377 -4.09021 0
M  V30 2899 N 265.68 -4.61355 -5.29241 0
M  V30 2900 H 270.52 -2.71142 -1.23637 0
M  V30 2901 H 268.057 -1.34326 -0.599577 0
M  V30 2902 H 270.015 -2.05839 -3.62886 0
M  V30 2903 H 268.645 -1.07946 -3.04216 0
M  V30 2904 H 267.697 -3.25128 -1.97474 0
M  V30 2905 H 269.009 -4.14523 -2.77439 0
M  V30 2906 H 268.163 -3.41554 -5.01424 0
M  V30 2907 H 266.902 -2.41894 -4.23484 0
M  V30 2908 H 265.907 -4.47527 -3.19373 0
M  V30 2909 H 267.132 -5.48402 -4.00539 0
M  V30 2910 H 265.078 -3.72554 -5.39944 0
M  V30 2911 H 264.995 -5.44935 -5.24006 0
M  V30 2912 H 266.263 -4.73586 -6.19141 0
M  V30 2913 N 270.492 0.636531 -1.44174 0
M  V30 2914 C 271.439 1.74875 -1.50624 0
M  V30 2915 C 272.409 1.62275 -0.35442 0
M  V30 2916 O 273.594 1.82276 -0.563908 0
M  V30 2917 C 270.734 3.13102 -1.45125 0
M  V30 2918 C 269.847 3.36717 -2.7064 0
M  V30 2919 C 268.982 4.64885 -2.57013 0
M  V30 2920 C 268.021 4.8166 -3.77717 0
M  V30 2921 N 267.158 6.01101 -3.62798 0
M  V30 2922 H 271.998 1.68697 -2.45653 0
M  V30 2923 H 269.535 0.823004 -1.21922 0
M  V30 2924 H 271.493 3.93034 -1.39929 0
M  V30 2925 H 270.123 3.18308 -0.536671 0
M  V30 2926 H 269.175 2.50763 -2.86046 0
M  V30 2927 H 270.487 3.44993 -3.60252 0
M  V30 2928 H 269.641 5.52969 -2.49619 0
M  V30 2929 H 268.38 4.58957 -1.64953 0
M  V30 2930 H 267.385 3.92007 -3.85501 0
M  V30 2931 H 268.61 4.89406 -4.70807 0
M  V30 2932 H 266.556 5.96273 -2.73486 0
M  V30 2933 H 266.473 6.10409 -4.46023 0
M  V30 2934 H 267.741 6.91761 -3.59286 0
M  V30 2935 N 271.97 1.30982 0.876444 0
M  V30 2936 C 273.247 1.10942 1.61094 0
M  V30 2937 C 273.627 -0.338223 2.08373 0
M  V30 2938 O 272.975 -1.33122 1.85717 0
M  V30 2939 C 273.185 2.11789 2.77392 0
M  V30 2940 C 274.533 2.43965 3.47514 0
M  V30 2941 O 275.557 2.10166 2.87591 0
M  V30 2942 O 274.416 3.01817 4.55597 0
M  V30 2943 H 271.51 0.42667 0.708436 0
M  V30 2944 H 274.056 1.42438 0.922474 0
M  V30 2945 H 272.828 3.09194 2.39823 0
M  V30 2946 H 272.451 1.81161 3.5393 0
M  V30 2947 N 273.449 -1.08991 1.13837 0
M  V30 2948 C 274.359 -2.19301 0.833333 0
M  V30 2949 C 275.375 -1.73026 -0.183847 0
M  V30 2950 O 276.551 -2.01395 -0.0138092 0
M  V30 2951 C 273.616 -3.45323 0.308651 0
M  V30 2952 C 272.677 -4.06255 1.38764 0
M  V30 2953 C 271.91 -5.26262 0.887896 0
M  V30 2954 O 272.133 -5.69747 -0.27287 0
M  V30 2955 O 271.067 -5.78435 1.66421 0
M  V30 2956 H 274.893 -2.47854 1.75506 0
M  V30 2957 H 272.478 -1.18012 0.916166 0
M  V30 2958 H 274.36 -4.21394 0.0216739 0
M  V30 2959 H 273.035 -3.18362 -0.585431 0
M  V30 2960 H 271.942 -3.318 1.72799 0
M  V30 2961 H 273.275 -4.37452 2.25602 0
M  V30 2962 N 274.927 -0.932562 -1.27047 0
M  V30 2963 C 276.176 -0.571351 -1.93439 0
M  V30 2964 C 276.489 0.892467 -1.74053 0
M  V30 2965 O 277.695 1.36267 -2.34826 0
M  V30 2966 C 276.151 -0.97106 -3.46552 0
M  V30 2967 C 275.759 -2.4559 -3.74686 0
M  V30 2968 C 277.503 -0.681333 -4.18997 0
M  V30 2969 C 275.41 -2.79475 -5.21198 0
M  V30 2970 H 274.34 -0.209966 -0.724176 0
M  V30 2971 H 276.991 -1.13403 -1.44263 0
M  V30 2972 H 275.373 -0.336983 -3.94564 0
M  V30 2973 H 276.547 -3.13829 -3.37414 0
M  V30 2974 H 274.862 -2.71802 -3.15456 0
M  V30 2975 H 277.459 -0.910939 -5.26883 0
M  V30 2976 H 277.802 0.381628 -4.14547 0
M  V30 2977 H 278.335 -1.27473 -3.76823 0
M  V30 2978 H 275.074 -3.847 -5.30741 0
M  V30 2979 H 274.594 -2.1589 -5.596 0
M  V30 2980 H 276.273 -2.67478 -5.89122 0
M  V30 2981 N 276.405 1.4127 -0.698611 0
M  V30 2982 C 277.315 2.34573 -0.0357891 0
M  V30 2983 C 278.331 1.56393 0.762701 0
M  V30 2984 O 279.507 1.8886 0.699564 0
M  V30 2985 C 276.572 3.35159 0.887089 0
M  V30 2986 C 275.633 4.29225 0.0804634 0
M  V30 2987 C 274.866 5.25006 0.959387 0
M  V30 2988 O 275.089 5.26314 2.19886 0
M  V30 2989 O 274.023 6.00519 0.407439 0
M  V30 2990 H 277.849 2.92838 -0.804957 0
M  V30 2991 H 275.434 1.42175 -0.458966 0
M  V30 2992 H 277.316 3.9689 1.41621 0
M  V30 2993 H 275.991 2.79333 1.6357 0
M  V30 2994 H 274.898 3.70833 -0.493328 0
M  V30 2995 H 276.231 4.88157 -0.629547 0
M  V30 2996 N 277.883 0.443576 1.51229 0
M  V30 2997 C 279.299 0.0962001 1.5931 0
M  V30 2998 C 279.499 -1.39501 1.45402 0
M  V30 2999 O 278.555 -2.16557 1.29843 0
M  V30 3000 C 279.868 0.621875 2.94199 0
M  V30 3001 C 281.416 0.582865 3.07525 0
M  V30 3002 C 281.891 1.08562 4.44948 0
M  V30 3003 N 283.382 1.04387 4.51284 0
M  V30 3004 C 284.117 1.40368 5.55954 0
M  V30 3005 N 283.613 1.83664 6.68011 0
M  V30 3006 N 285.406 1.32145 5.46346 0
M  V30 3007 H 277.557 1.41376 1.58514 0
M  V30 3008 H 279.82 0.582965 0.747567 0
M  V30 3009 H 279.526 1.66546 3.09767 0
M  V30 3010 H 279.4 0.0502125 3.77167 0
M  V30 3011 H 281.787 -0.451749 2.91622 0
M  V30 3012 H 281.868 1.191 2.26382 0
M  V30 3013 H 281.512 2.11873 4.61598 0
M  V30 3014 H 281.442 0.453956 5.2464 0
M  V30 3015 H 283.933 0.725986 3.70861 0
M  V30 3016 H 284.246 2.0934 7.43906 0
M  V30 3017 H 282.591 1.87596 6.69203 0
M  V30 3018 H 285.782 0.981808 4.57688 0
M  V30 3019 H 285.955 1.60514 6.27805 0
M  V30 3020 N 279.361 -1.56624 0.175154 0
M  V30 3021 C 280.607 -1.9729 -0.469506 0
M  V30 3022 C 280.94 -1.06128 -1.62636 0
M  V30 3023 O 280.215 -0.109183 -1.94193 0
M  V30 3024 C 280.498 -3.47375 -0.948804 0
M  V30 3025 C 280.351 -4.49317 0.208491 0
M  V30 3026 C 281.67 -4.00652 -1.82116 0
M  V30 3027 H 278.789 -0.717317 -0.16919 0
M  V30 3028 H 281.431 -1.88184 0.262062 0
M  V30 3029 H 279.581 -3.55267 -1.57219 0
M  V30 3030 H 281.253 -4.53482 0.845682 0
M  V30 3031 H 279.496 -4.25121 0.863395 0
M  V30 3032 H 280.167 -5.51741 -0.169059 0
M  V30 3033 H 282.643 -3.95416 -1.2956 0
M  V30 3034 H 281.519 -5.06075 -2.12554 0
M  V30 3035 H 281.78 -3.44699 -2.7683 0
M  V30 3036 N 280.839 0.0985539 -1.57292 0
M  V30 3037 C 281.802 1.10402 -2.00858 0
M  V30 3038 C 282.802 1.33146 -0.901593 0
M  V30 3039 O 283.992 1.29318 -1.16716 0
M  V30 3040 C 281.124 2.45394 -2.36632 0
M  V30 3041 H 282.317 0.729099 -2.90902 0
M  V30 3042 H 279.87 0.343495 -1.52479 0
M  V30 3043 H 280.605 2.87769 -1.49531 0
M  V30 3044 H 280.39 2.30235 -3.17387 0
M  V30 3045 H 281.88 3.17718 -2.71007 0
M  V30 3046 N 282.317 1.53212 0.369288 0
M  V30 3047 C 283.264 1.79388 1.45219 0
M  V30 3048 C 284.234 0.638059 1.53356 0
M  V30 3049 O 285.419 0.879852 1.69302 0
M  V30 3050 C 282.559 1.98623 2.82211 0
M  V30 3051 C 281.672 3.26337 2.8307 0
M  V30 3052 C 280.807 3.35779 4.11614 0
M  V30 3053 C 279.846 4.5754 4.06601 0
M  V30 3054 N 278.983 4.64155 5.26787 0
M  V30 3055 H 283.823 2.71794 1.22198 0
M  V30 3056 H 281.36 1.34642 0.592444 0
M  V30 3057 H 283.318 2.07761 3.61789 0
M  V30 3058 H 281.948 1.09558 3.03639 0
M  V30 3059 H 281 3.26171 1.95747 0
M  V30 3060 H 282.312 4.15988 2.75237 0
M  V30 3061 H 281.466 3.44208 4.99606 0
M  V30 3062 H 280.205 2.44137 4.22195 0
M  V30 3063 H 279.21 4.49215 3.16996 0
M  V30 3064 H 280.435 5.50519 3.97625 0
M  V30 3065 H 278.381 3.75413 5.3796 0
M  V30 3066 H 278.298 5.47706 5.21109 0
M  V30 3067 H 279.566 4.76863 6.16621 0
M  V30 3068 N 283.795 -0.628877 1.44509 0
M  V30 3069 C 284.758 -1.72263 1.51188 0
M  V30 3070 C 285.758 -1.55907 0.39367 0
M  V30 3071 O 286.948 -1.61361 0.656377 0
M  V30 3072 C 284.08 -3.11365 1.38798 0
M  V30 3073 H 285.273 -1.67714 2.4862 0
M  V30 3074 H 282.826 -0.842737 1.31634 0
M  V30 3075 H 283.561 -3.21507 0.424693 0
M  V30 3076 H 283.346 -3.24644 2.19884 0
M  V30 3077 H 284.836 -3.91075 1.46458 0
M  V30 3078 N 285.273 -1.31445 -0.869486 0
M  V30 3079 C 286.221 -1.19067 -1.99814 0
M  V30 3080 C 287.215 -0.0988569 -1.69111 0
M  V30 3081 O 288.421 -0.260781 -1.78101 0
M  V30 3082 H 284.796 -0.368677 -0.655425 0
M  V30 3083 H 286.767 -2.14555 -2.07385 0
M  V30 3084 C 285.516 -0.915323 -3.35436 0
M  V30 3085 H 284.839 -1.74759 -3.59582 0
M  V30 3086 H 286.279 -0.868895 -4.15001 0
M  V30 3087 C 284.738 0.381928 -3.34728 0
M  V30 3088 O 285.268 1.39857 -3.76567 0
M  V30 3089 N 283.474 0.398633 -2.87853 0
M  V30 3090 H 283.021 -0.429186 -2.54 0
M  V30 3091 H 282.979 1.26651 -2.87762 0
M  V30 3092 N 286.751 1.08385 -1.14413 0
M  V30 3093 C 288.167 1.32844 -0.884563 0
M  V30 3094 C 288.367 1.95841 0.474181 0
M  V30 3095 O 287.423 2.21158 1.21842 0
M  V30 3096 C 288.736 2.22978 -2.01745 0
M  V30 3097 C 290.284 2.36458 -2.05077 0
M  V30 3098 C 290.759 3.29934 -3.1766 0
M  V30 3099 N 292.25 3.37511 -3.17239 0
M  V30 3100 C 292.985 4.09871 -4.0099 0
M  V30 3101 N 292.481 4.84936 -4.94781 0
M  V30 3102 N 294.274 4.05704 -3.89051 0
M  V30 3103 H 286.425 0.658756 -2.01926 0
M  V30 3104 H 288.688 0.352821 -0.879899 0
M  V30 3105 H 288.394 1.83934 -2.99769 0
M  V30 3106 H 288.268 3.23441 -1.94077 0
M  V30 3107 H 290.655 2.7476 -1.0766 0
M  V30 3108 H 290.736 1.35736 -2.16816 0
M  V30 3109 H 290.38 2.92352 -4.15322 0
M  V30 3110 H 290.31 4.30584 -3.03158 0
M  V30 3111 H 292.801 2.83996 -2.49308 0
M  V30 3112 H 293.114 5.37612 -5.55151 0
M  V30 3113 H 291.459 4.83988 -4.98779 0
M  V30 3114 H 294.65 3.46167 -3.15097 0
M  V30 3115 H 294.823 4.61834 -4.54547 0
M  V30 3116 O 288.268 1.07005 1.20964 0
M  V30 3117 H 288.959 0.754737 1.78391 0
M  V30 END ATOM
M  V30 BEGIN BOND
M  V30 END BOND
M  V30 END CTAB
M  END
$$$$
