drugbank_target|P04439 HLA class I histocompatibility antigen, A-3 alpha chain (DB02740; DB06226; DB11294)
 OpenBabel12092120333D

  0  0  0     0  0            999 V3000
M  V30 BEGIN CTAB
M  V30 COUNTS 5649 5717 0 0 0
M  V30 BEGIN ATOM
M  V30 1 H -0.908 1.98254 -0.117106 0
M  V30 2 N 0 1.576 0 0
M  V30 3 C 0.933 2.03868 1.02534 0
M  V30 4 C 1.911 0.928543 1.3348 0
M  V30 5 O 3.095 1.19667 1.45644 0
M  V30 6 C 0.222 2.43627 2.35294 0
M  V30 7 C -0.732 3.65373 2.2001 0
M  V30 8 S 0.101 5.13292 1.52614 0
M  V30 9 C 1.257 5.56322 2.86805 0
M  V30 10 H 1.49 2.90518 0.631377 0
M  V30 11 H -0.977 1.52953 0.210867 0
M  V30 12 H 0.981 2.67203 3.11629 0
M  V30 13 H -0.358 1.57376 2.7183 0
M  V30 14 H -1.165 3.90944 3.18086 0
M  V30 15 H -1.563 3.418 1.51819 0
M  V30 16 H 0.729 5.58782 3.83104 0
M  V30 17 H 1.672 6.56266 2.65933 0
M  V30 18 H 2.08 4.83886 2.90714 0
M  V30 19 N 1.4781 -0.272755 1.55222 0
M  V30 20 C 2.4411 -1.32041 1.87344 0
M  V30 21 C 3.4411 -1.42342 0.74803 0
M  V30 22 O 4.6311 -1.41488 1.0162 0
M  V30 23 C 1.7631 -2.70173 2.07893 0
M  V30 24 H 2.9561 -1.04789 2.80997 0
M  V30 25 H 0.5091 -0.51083 1.47717 0
M  V30 26 H 1.2441 -3.02605 1.16622 0
M  V30 27 H 1.0291 -2.64082 2.89833 0
M  V30 28 H 2.5191 -3.45869 2.34017 0
M  V30 29 N 2.9562 -1.48159 -0.537278 0
M  V30 30 C 4.2022 -1.56035 -1.29541 0
M  V30 31 C 4.5352 -0.230377 -1.92829 0
M  V30 32 O 3.8102 0.762952 -1.78911 0
M  V30 33 C 4.0932 -2.69323 -2.39034 0
M  V30 34 C 3.9462 -4.12002 -1.80485 0
M  V30 35 C 5.2652 -2.78408 -3.40847 0
M  V30 36 H 2.3842 -0.567992 -0.469632 0
M  V30 37 H 5.0262 -1.80302 -0.599277 0
M  V30 38 H 3.1762 -2.48763 -2.98412 0
M  V30 39 H 4.8482 -4.43981 -1.25215 0
M  V30 40 H 3.0912 -4.19344 -1.11055 0
M  V30 41 H 3.7622 -4.87077 -2.59731 0
M  V30 42 H 6.2382 -2.97012 -2.91416 0
M  V30 43 H 5.1142 -3.59416 -4.14863 0
M  V30 44 H 5.3752 -1.86269 -4.00944 0
M  V30 45 N 4.4343 0.785586 -1.36625 0
M  V30 46 C 5.3673 1.90509 -1.25625 0
M  V30 47 C 6.3453 1.62 -0.139607 0
M  V30 48 O 7.5293 1.8591 -0.31141 0
M  V30 49 C 4.6563 3.25419 -0.939158 0
M  V30 50 C 3.7023 3.72856 -2.07077 0
M  V30 51 S 4.5353 3.88162 -3.68904 0
M  V30 52 C 5.6913 5.25942 -3.39317 0
M  V30 53 H 5.9243 1.99549 -2.20381 0
M  V30 54 H 3.4573 0.945226 -1.22085 0
M  V30 55 H 5.4153 4.03346 -0.763029 0
M  V30 56 H 4.0763 3.14099 -0.00931402 0
M  V30 57 H 3.2693 4.70624 -1.80357 0
M  V30 58 H 2.8713 3.01989 -2.20632 0
M  V30 59 H 5.1633 6.10651 -2.93447 0
M  V30 60 H 6.1063 5.57668 -4.36363 0
M  V30 61 H 6.5143 4.93224 -2.74573 0
M  V30 62 N 5.9124 1.20967 1.01018 0
M  V30 63 C 6.8754 0.965918 2.07853 0
M  V30 64 C 7.8754 -0.0610545 1.60684 0
M  V30 65 O 9.0654 0.175681 1.73312 0
M  V30 66 C 6.1974 0.455513 3.37843 0
M  V30 67 H 7.3904 1.91365 2.3091 0
M  V30 68 H 4.9434 1.02594 1.17916 0
M  V30 69 H 5.6784 -0.497381 3.20463 0
M  V30 70 H 5.4634 1.19622 3.73407 0
M  V30 71 H 6.9534 0.304667 4.16487 0
M  V30 72 N 7.3905 -1.2043 1.01659 0
M  V30 73 C 8.8015 -1.71517 0.737482 0
M  V30 74 C 9.1525 -1.81547 -0.743973 0
M  V30 75 O 8.2775 -1.47803 -1.58061 0
M  V30 76 C 8.8725 -3.11515 1.33206 0
M  V30 77 C 7.4315 -3.59912 1.10183 0
M  V30 78 C 6.5785 -2.37116 1.43776 0
M  V30 79 H 9.5295 -1.05444 1.18606 0
M  V30 80 H 9.5505 -3.73575 0.722636 0
M  V30 81 H 9.0625 -3.04182 2.41028 0
M  V30 82 H 7.1635 -3.72577 0.0412756 0
M  V30 83 H 7.2765 -4.44731 1.78188 0
M  V30 84 H 5.6405 -2.39857 0.856778 0
M  V30 85 H 6.4235 -2.32424 2.52654 0
M  V30 86 N 8.8686 -0.792821 -1.36206 0
M  V30 87 C 10.2846 -0.474903 -1.52371 0
M  V30 88 C 10.4846 1.00622 -1.74578 0
M  V30 89 O 9.5406 1.79162 -1.77924 0
M  V30 90 C 10.8536 -1.3083 -2.70747 0
M  V30 91 C 12.4016 -1.30234 -2.84619 0
M  V30 92 C 12.8766 -2.11956 -4.06004 0
M  V30 93 N 14.3676 -2.09419 -4.13156 0
M  V30 94 C 15.1026 -2.69419 -5.06163 0
M  V30 95 N 14.5986 -3.3829 -6.04592 0
M  V30 96 N 16.3916 -2.59134 -4.98804 0
M  V30 97 H 8.5426 -1.75222 -1.20046 0
M  V30 98 H 10.8056 -0.745024 -0.586211 0
M  V30 99 H 10.5116 -2.35881 -2.6087 0
M  V30 100 H 10.3856 -0.95196 -3.6499 0
M  V30 101 H 12.7726 -0.259748 -2.93955 0
M  V30 102 H 12.8536 -1.69847 -1.91274 0
M  V30 103 H 12.4976 -3.16248 -3.97429 0
M  V30 104 H 12.4276 -1.69711 -4.98503 0
M  V30 105 H 14.9186 -1.59297 -3.42685 0
M  V30 106 H 15.2316 -3.81394 -6.7213 0
M  V30 107 H 13.5766 -3.42393 -6.04807 0
M  V30 108 H 16.7676 -2.04927 -4.20859 0
M  V30 109 H 16.9406 -3.06185 -5.711 0
M  V30 110 N 10.3467 1.47872 -0.545128 0
M  V30 111 C 11.5747 2.06889 -0.021084 0
M  V30 112 C 11.9897 1.39955 1.2672 0
M  V30 113 O 11.3467 0.492036 1.75742 0
M  V30 114 C 11.3977 3.60996 0.190817 0
M  V30 115 O 11.1187 4.25419 -1.04644 0
M  V30 116 C 12.6197 4.36849 0.753521 0
M  V30 117 H 9.8397 0.669785 -0.0403635 0
M  V30 118 H 12.3837 1.90049 -0.755095 0
M  V30 119 H 10.5387 3.77391 0.87492 0
M  V30 120 H 10.9527 5.17785 -0.836611 0
M  V30 121 H 12.4267 5.45399 0.851139 0
M  V30 122 H 12.9037 4.02306 1.762 0
M  V30 123 H 13.5097 4.25169 0.105503 0
M  V30 124 N 11.8248 0.280983 1.55075 0
M  V30 125 C 12.7548 -0.597469 2.25727 0
M  V30 126 C 13.7358 -1.15417 1.24952 0
M  V30 127 O 14.9208 -1.18722 1.53684 0
M  V30 128 C 12.0508 -1.7789 2.98283 0
M  V30 129 C 11.0048 -1.35347 4.06036 0
M  V30 130 C 10.3308 -2.61846 4.66198 0
M  V30 131 C 11.6308 -0.499354 5.19907 0
M  V30 132 H 13.3248 -0.00824265 2.99399 0
M  V30 133 H 10.8708 -0.0025244 1.44 0
M  V30 134 H 12.8238 -2.39937 3.46422 0
M  V30 135 H 11.5478 -2.39405 2.22155 0
M  V30 136 H 10.2068 -0.756156 3.58717 0
M  V30 137 H 9.8548 -3.21632 3.86732 0
M  V30 138 H 9.5548 -2.3409 5.38958 0
M  V30 139 H 11.0788 -3.24732 5.1709 0
M  V30 140 H 12.4928 -1.02498 5.64063 0
M  V30 141 H 10.8898 -0.316424 5.99265 0
M  V30 142 H 11.9598 0.480459 4.82514 0
M  V30 143 N 13.3029 -1.57598 0.00835791 0
M  V30 144 C 14.2329 -2.1198 -0.979113 0
M  V30 145 C 15.2139 -1.03091 -1.35301 0
M  V30 146 O 16.3989 -1.30818 -1.43528 0
M  V30 147 C 13.5289 -2.62995 -2.26828 0
M  V30 148 C 12.4829 -3.76485 -2.03576 0
M  V30 149 C 11.8089 -4.13846 -3.38579 0
M  V30 150 C 13.1089 -5.0342 -1.39161 0
M  V30 151 H 14.8029 -2.94738 -0.526281 0
M  V30 152 H 12.3489 -1.41783 -0.251704 0
M  V30 153 H 14.3019 -2.99669 -2.96271 0
M  V30 154 H 13.0259 -1.7737 -2.7424 0
M  V30 155 H 11.6849 -3.40217 -1.36557 0
M  V30 156 H 11.3329 -3.25232 -3.83709 0
M  V30 157 H 11.0329 -4.90312 -3.23834 0
M  V30 158 H 12.5569 -4.53086 -4.09323 0
M  V30 159 H 13.9709 -5.37812 -1.98573 0
M  V30 160 H 12.3679 -5.84746 -1.34878 0
M  V30 161 H 13.4379 -4.83548 -0.361868 0
M  V30 162 N 14.781 0.264519 -1.55364 0
M  V30 163 C 15.711 1.33121 -1.91836 0
M  V30 164 C 16.692 1.51101 -0.781192 0
M  V30 165 O 17.877 1.64003 -1.04003 0
M  V30 166 C 15.007 2.68921 -2.19769 0
M  V30 167 C 13.961 2.65661 -3.35571 0
M  V30 168 C 13.287 4.05093 -3.49004 0
M  V30 169 C 14.587 2.24187 -4.71739 0
M  V30 170 H 16.281 1.02844 -2.81182 0
M  V30 171 H 13.827 0.493286 -1.35287 0
M  V30 172 H 15.78 3.43663 -2.43872 0
M  V30 173 H 14.504 3.00799 -1.27231 0
M  V30 174 H 13.163 1.93377 -3.1145 0
M  V30 175 H 12.811 4.34206 -2.53917 0
M  V30 176 H 12.511 4.03804 -4.26868 0
M  V30 177 H 14.035 4.81561 -3.75408 0
M  V30 178 H 15.449 2.88654 -4.9533 0
M  V30 179 H 13.846 2.34044 -5.52579 0
M  V30 180 H 14.916 1.19327 -4.69988 0
M  V30 181 N 16.2591 1.48442 0.529413 0
M  V30 182 C 17.1891 1.65902 1.64313 0
M  V30 183 C 18.1701 0.507897 1.6234 0
M  V30 184 O 19.3551 0.740503 1.79528 0
M  V30 185 C 16.4851 1.69911 3.02898 0
M  V30 186 C 15.4391 2.8453 3.19729 0
M  V30 187 C 14.7651 2.73629 4.59381 0
M  V30 188 C 16.0651 4.25821 3.02447 0
M  V30 189 H 17.7591 2.5914 1.49955 0
M  V30 190 H 15.3051 1.24709 0.719982 0
M  V30 191 H 17.2581 1.80715 3.80684 0
M  V30 192 H 15.9821 0.732524 3.18279 0
M  V30 193 H 14.6411 2.73283 2.44361 0
M  V30 194 H 14.2891 1.74938 4.71599 0
M  V30 195 H 13.9891 3.50541 4.71588 0
M  V30 196 H 15.5131 2.86401 5.39265 0
M  V30 197 H 16.9271 4.37898 3.70024 0
M  V30 198 H 15.3241 5.03735 3.26146 0
M  V30 199 H 16.3941 4.42244 1.98867 0
M  V30 200 N 17.7372 -0.778329 1.37039 0
M  V30 201 C 18.6672 -1.90546 1.34962 0
M  V30 202 C 19.6482 -1.68681 0.219274 0
M  V30 203 O 20.8332 -1.89634 0.418624 0
M  V30 204 C 17.9632 -3.27734 1.14925 0
M  V30 205 C 16.9172 -3.64147 2.24902 0
M  V30 206 C 16.2432 -4.99806 1.89996 0
M  V30 207 C 17.5432 -3.71579 3.67051 0
M  V30 208 H 19.2372 -1.92541 2.29277 0
M  V30 209 H 16.7832 -0.924948 1.10366 0
M  V30 210 H 18.7362 -4.06215 1.12104 0
M  V30 211 H 17.4602 -3.26154 0.170631 0
M  V30 212 H 16.1192 -2.8797 2.26868 0
M  V30 213 H 15.7672 -4.94759 0.906796 0
M  V30 214 H 15.4672 -5.25139 2.63634 0
M  V30 215 H 16.9912 -5.80694 1.88749 0
M  V30 216 H 18.4052 -4.40227 3.67251 0
M  V30 217 H 16.8022 -4.08405 4.39688 0
M  V30 218 H 17.8722 -2.72404 4.01154 0
M  V30 219 N 19.2153 -1.21501 -1.00376 0
M  V30 220 C 20.4403 -1.05977 -1.78279 0
M  V30 221 C 20.8653 0.385994 -1.84097 0
M  V30 222 O 20.2233 1.27849 -1.28547 0
M  V30 223 C 20.2713 -1.66302 -3.19963 0
M  V30 224 O 19.3753 -0.909333 -4.0225 0
M  V30 225 H 18.7163 -0.372906 -0.549397 0
M  V30 226 H 21.2463 -1.6107 -1.26165 0
M  V30 227 H 21.2563 -1.70574 -3.70632 0
M  V30 228 H 19.9313 -2.71515 -3.15043 0
M  V30 229 H 18.5083 -0.941795 -3.60811 0
M  V30 230 N 20.6934 1.19889 -1.02296 0
M  V30 231 C 21.9414 1.89046 -0.714558 0
M  V30 232 C 22.2624 1.79636 0.758681 0
M  V30 233 O 21.5324 1.20292 1.54618 0
M  V30 234 H 20.1124 0.699802 -0.261317 0
M  V30 235 H 22.7744 1.45574 -1.29592 0
M  V30 236 H 21.8704 2.95524 -1.0036 0
M  V30 237 N 22.1715 0.800033 1.35784 0
M  V30 238 C 23.1345 0.211565 2.28221 0
M  V30 239 C 24.1345 -0.59728 1.49296 0
M  V30 240 O 25.3245 -0.416721 1.69142 0
M  V30 241 C 22.4565 -0.705846 3.33513 0
M  V30 242 H 23.6495 1.02677 2.81776 0
M  V30 243 H 21.2025 0.570211 1.45528 0
M  V30 244 H 21.9375 -1.54498 2.85133 0
M  V30 245 H 21.7225 -0.127655 3.91892 0
M  V30 246 H 23.2125 -1.11211 4.02519 0
M  V30 247 N 23.6496 -1.47581 0.552962 0
M  V30 248 C 24.5796 -2.32762 -0.185451 0
M  V30 249 C 25.5606 -1.43527 -0.912905 0
M  V30 250 O 26.7456 -1.72388 -0.894201 0
M  V30 251 C 23.8756 -3.25219 -1.21859 0
M  V30 252 C 22.8296 -4.23661 -0.607864 0
M  V30 253 C 22.1556 -5.05413 -1.74533 0
M  V30 254 C 23.4556 -5.20481 0.435582 0
M  V30 255 H 25.1496 -2.94749 0.525684 0
M  V30 256 H 22.6956 -1.41738 0.254251 0
M  V30 257 H 24.6486 -3.8365 -1.7433 0
M  V30 258 H 23.3726 -2.61279 -1.95961 0
M  V30 259 H 22.0316 -3.66451 -0.104489 0
M  V30 260 H 21.6796 -4.3788 -2.47529 0
M  V30 261 H 21.3796 -5.72059 -1.34249 0
M  V30 262 H 22.9036 -5.66701 -2.27338 0
M  V30 263 H 24.3176 -5.733 -0.00290157 0
M  V30 264 H 22.7146 -5.95305 0.757067 0
M  V30 265 H 23.7846 -4.66217 1.33303 0
M  V30 266 N 25.1277 -0.289203 -1.54924 0
M  V30 267 C 26.0907 0.579144 -2.21762 0
M  V30 268 C 27.0907 1.07047 -1.1999 0
M  V30 269 O 28.2807 0.968384 -1.44803 0
M  V30 270 C 25.4127 1.80055 -2.8947 0
M  V30 271 H 26.6057 -0.00464908 -2.999 0
M  V30 272 H 24.1587 -0.0399306 -1.56249 0
M  V30 273 H 24.8937 2.42449 -2.15381 0
M  V30 274 H 24.6787 1.45602 -3.64064 0
M  V30 275 H 26.1687 2.41773 -3.40493 0
M  V30 276 N 26.6058 1.57591 -0.0167156 0
M  V30 277 C 27.5358 2.12496 0.967858 0
M  V30 278 C 28.5168 1.03807 1.34752 0
M  V30 279 O 29.7018 1.31577 1.42833 0
M  V30 280 C 26.8318 2.64194 2.25431 0
M  V30 281 C 25.7858 3.77559 2.01576 0
M  V30 282 C 25.1118 4.15636 3.36379 0
M  V30 283 C 26.4118 5.04151 1.36489 0
M  V30 284 H 28.1058 2.95013 0.510643 0
M  V30 285 H 25.6518 1.41915 0.244181 0
M  V30 286 H 27.6048 3.01236 2.94678 0
M  V30 287 H 26.3288 1.78821 2.73296 0
M  V30 288 H 24.9878 3.40937 1.34751 0
M  V30 289 H 24.6358 3.27263 3.81979 0
M  V30 290 H 24.3358 4.92022 3.21229 0
M  V30 291 H 25.8598 4.5525 4.06915 0
M  V30 292 H 27.2738 5.38857 1.95718 0
M  V30 293 H 25.6708 5.85453 1.31776 0
M  V30 294 H 26.7408 4.83733 0.336219 0
M  V30 295 N 28.0839 -0.256276 1.55502 0
M  V30 296 C 29.3119 -1.00342 1.8094 0
M  V30 297 C 29.7269 -1.79307 0.59114 0
M  V30 298 O 29.0839 -1.77114 -0.440081 0
M  V30 299 C 29.1349 -1.94875 3.04476 0
M  V30 300 O 28.8559 -1.19107 4.21598 0
M  V30 301 C 30.3569 -2.81266 3.42644 0
M  V30 302 H 27.5769 -0.295685 0.602338 0
M  V30 303 H 30.1209 -0.281998 2.02546 0
M  V30 304 H 28.2759 -2.62457 2.84947 0
M  V30 305 H 28.6899 -1.82969 4.91551 0
M  V30 306 H 30.1639 -3.43362 4.32211 0
M  V30 307 H 30.6409 -3.51897 2.62802 0
M  V30 308 H 31.2469 -2.1915 3.64491 0
M  V30 309 N 29.562 -1.4872 -0.521534 0
M  V30 310 C 30.494 -1.59968 -1.64143 0
M  V30 311 C 31.507 -0.483463 -1.55456 0
M  V30 312 O 32.696 -0.75467 -1.61762 0
M  V30 313 C 29.796 -1.52127 -3.02838 0
M  V30 314 C 28.969 -2.78932 -3.36921 0
M  V30 315 C 28.028 -2.64428 -4.54933 0
M  V30 316 O 27.054 -3.38331 -4.57735 0
M  V30 317 N 28.256 -1.74606 -5.53618 0
M  V30 318 H 31.021 -2.56548 -1.54929 0
M  V30 319 H 28.582 -1.45551 -0.708988 0
M  V30 320 H 30.574 -1.40106 -3.79674 0
M  V30 321 H 29.144 -0.634868 -3.06085 0
M  V30 322 H 28.364 -3.05455 -2.4918 0
M  V30 323 H 29.652 -3.63041 -3.56481 0
M  V30 324 H 29.05 -1.13782 -5.54139 0
M  V30 325 H 27.607 -1.6852 -6.29638 0
M  V30 326 N 31.0401 0.771051 -1.3745 0
M  V30 327 C 32.2681 1.56015 -1.35893 0
M  V30 328 C 32.6831 1.88718 0.0555523 0
M  V30 329 O 32.0401 1.51502 1.01752 0
M  V30 330 C 32.0911 2.87001 -2.19801 0
M  V30 331 O 31.8121 2.557 -3.55738 0
M  V30 332 C 33.3131 3.81228 -2.26231 0
M  V30 333 H 30.5331 0.483317 -0.465453 0
M  V30 334 H 33.0771 0.955611 -1.80799 0
M  V30 335 H 31.2321 3.43877 -1.78402 0
M  V30 336 H 31.6461 3.39584 -3.99729 0
M  V30 337 H 33.1201 4.70139 -2.89263 0
M  V30 338 H 33.5971 4.20409 -1.27093 0
M  V30 339 H 34.2031 3.30281 -2.67945 0
M  V30 340 N 32.5182 1.22032 0.997298 0
M  V30 341 C 33.7642 1.05382 1.73972 0
M  V30 342 C 34.1192 -0.407419 1.88037 0
M  V30 343 O 33.4122 -1.29811 1.40924 0
M  V30 344 C 33.6062 1.69345 3.14733 0
M  V30 345 C 33.4352 3.21537 3.14395 0
M  V30 346 C 32.2052 3.9062 3.20537 0
M  V30 347 C 34.4032 4.18527 2.98897 0
M  V30 348 N 32.3852 5.29935 3.09906 0
M  V30 349 C 33.7562 5.44645 2.96247 0
M  V30 350 C 35.8112 4.09476 2.83255 0
M  V30 351 C 34.5142 6.62752 2.79557 0
M  V30 352 C 36.5402 5.27228 2.67926 0
M  V30 353 C 35.9022 6.52262 2.65959 0
M  V30 354 H 32.0012 0.440018 0.646458 0
M  V30 355 H 34.5852 1.54505 1.18475 0
M  V30 356 H 32.7562 1.22778 3.68484 0
M  V30 357 H 34.4882 1.45828 3.77513 0
M  V30 358 H 31.2432 3.41592 3.28043 0
M  V30 359 H 31.6672 6.02926 3.07912 0
M  V30 360 H 36.3092 3.13598 2.83577 0
M  V30 361 H 34.0272 7.58783 2.77982 0
M  V30 362 H 37.6132 5.22053 2.56812 0
M  V30 363 H 36.4932 7.41844 2.54239 0
M  V30 364 N 33.9963 -1.19345 1.0293 0
M  V30 365 C 34.9593 -2.20793 0.615069 0
M  V30 366 C 35.9593 -1.57553 -0.321533 0
M  V30 367 O 37.1493 -1.73862 -0.108483 0
M  V30 368 C 34.2813 -3.40754 -0.0999222 0
M  V30 369 H 35.4743 -2.58955 1.51269 0
M  V30 370 H 33.0273 -1.3303 0.820534 0
M  V30 371 H 33.7623 -3.0811 -1.01187 0
M  V30 372 H 33.5473 -3.87889 0.57309 0
M  V30 373 H 35.0373 -4.15898 -0.376645 0
M  V30 374 N 35.4744 -0.807222 -1.35358 0
M  V30 375 C 36.7224 -0.387122 -1.98358 0
M  V30 376 C 37.0434 1.04942 -1.64354 0
M  V30 377 O 36.3134 1.72615 -0.926339 0
M  V30 378 H 34.8934 -0.140154 -0.733734 0
M  V30 379 H 37.5554 -1.0332 -1.6526 0
M  V30 380 H 36.6514 -0.493352 -3.08176 0
M  V30 381 N 36.9525 1.47285 -0.560781 0
M  V30 382 C 38.1775 2.07359 -0.0410566 0
M  V30 383 C 38.6025 1.41017 1.24483 0
M  V30 384 O 37.9605 0.486368 1.74654 0
M  V30 385 C 38.0085 3.6035 0.134123 0
M  V30 386 O 37.1125 3.94681 1.19587 0
M  V30 387 H 36.4535 0.661887 -0.0529291 0
M  V30 388 H 38.9835 1.89252 -0.777482 0
M  V30 389 H 38.9935 4.0652 0.347207 0
M  V30 390 H 37.6685 4.08034 -0.805047 0
M  V30 391 H 36.2455 3.60251 0.962987 0
M  V30 392 N 38.4306 0.297415 1.54768 0
M  V30 393 C 39.3806 -0.595275 2.20092 0
M  V30 394 C 40.3646 -1.10163 1.17273 0
M  V30 395 O 41.5566 -1.043 1.43006 0
M  V30 396 C 38.6856 -1.7684 2.94249 0
M  V30 397 C 37.7716 -1.27818 4.0438 0
M  V30 398 N 38.1626 -0.505695 5.03266 0
M  V30 399 C 36.4606 -1.55923 4.17857 0
M  V30 400 C 37.1616 -0.245094 5.81183 0
M  V30 401 N 36.1376 -0.823881 5.3732 0
M  V30 402 H 39.9396 0.00250837 2.939 0
M  V30 403 H 37.4536 0.102007 1.62079 0
M  V30 404 H 39.4506 -2.41944 3.39513 0
M  V30 405 H 38.1106 -2.36992 2.21957 0
M  V30 406 H 39.1216 -0.150928 5.1768 0
M  V30 407 H 35.7986 -2.16849 3.56767 0
M  V30 408 H 37.1886 0.375084 6.70852 0
M  V30 409 N 39.9087 -1.5758 0.0250728 0
M  V30 410 C 41.1337 -1.96337 -0.668317 0
M  V30 411 C 41.5587 -0.901314 -1.651 0
M  V30 412 O 40.9167 0.138187 -1.80773 0
M  V30 413 C 40.9647 -3.34191 -1.35457 0
M  V30 414 O 40.0687 -3.30269 -2.46974 0
M  V30 415 H 39.4097 -0.640281 -0.175887 0
M  V30 416 H 41.9397 -2.0442 0.0857224 0
M  V30 417 H 41.9497 -3.70331 -1.71228 0
M  V30 418 H 40.6247 -4.11036 -0.634218 0
M  V30 419 H 39.2017 -3.05841 -2.13344 0
M  V30 420 N 41.3868 0.248026 -1.55636 0
M  V30 421 C 42.3198 1.3334 -1.85191 0
M  V30 422 C 43.2978 1.46429 -0.706906 0
M  V30 423 O 44.4818 1.62662 -0.952544 0
M  V30 424 C 41.6088 2.70703 -2.03562 0
M  V30 425 C 40.6548 2.7477 -3.26196 0
M  V30 426 S 41.4878 2.31493 -4.82878 0
M  V30 427 C 42.6438 3.70783 -5.04253 0
M  V30 428 H 42.8768 1.08072 -2.76962 0
M  V30 429 H 40.4098 0.448952 -1.47729 0
M  V30 430 H 42.3678 3.49798 -2.1483 0
M  V30 431 H 41.0288 2.9321 -1.12635 0
M  V30 432 H 40.2218 3.75648 -3.36013 0
M  V30 433 H 39.8238 2.03719 -3.13647 0
M  V30 434 H 42.1158 4.6627 -4.91527 0
M  V30 435 H 43.0588 3.65901 -6.06236 0
M  V30 436 H 43.4668 3.63244 -4.32105 0
M  V30 437 N 42.8649 1.48995 0.513639 0
M  V30 438 C 44.2809 1.35478 0.843682 0
M  V30 439 C 44.4809 0.378213 1.97919 0
M  V30 440 O 43.5369 -0.194689 2.51748 0
M  V30 441 C 44.8499 2.75901 1.1958 0
M  V30 442 C 46.3979 2.84509 1.30474 0
M  V30 443 C 46.8729 4.25671 1.69021 0
M  V30 444 N 48.3639 4.28422 1.76094 0
M  V30 445 C 49.0989 5.34601 2.07338 0
M  V30 446 N 48.5949 6.5104 2.36894 0
M  V30 447 N 50.3879 5.22007 2.08483 0
M  V30 448 H 42.5389 2.11092 -0.235328 0
M  V30 449 H 44.8019 0.947039 -0.0426669 0
M  V30 450 H 44.5079 3.49001 0.434913 0
M  V30 451 H 44.3819 3.10467 2.1422 0
M  V30 452 H 46.7689 2.11655 2.05637 0
M  V30 453 H 46.8499 2.53542 0.339155 0
M  V30 454 H 46.4939 4.99048 0.944135 0
M  V30 455 H 46.4239 4.54094 2.66658 0
M  V30 456 H 48.9149 3.44441 1.55464 0
M  V30 457 H 49.2279 7.2779 2.59887 0
M  V30 458 H 47.5729 6.54287 2.34378 0
M  V30 459 H 50.7639 4.30051 1.84861 0
M  V30 460 H 50.9369 6.04854 2.325 0
M  V30 461 N 44.343 -0.763751 1.37857 0
M  V30 462 C 45.573 -1.55067 1.3652 0
M  V30 463 C 45.981 -1.89135 -0.0494227 0
M  V30 464 O 45.324 -1.52529 -1.02375 0
M  V30 465 C 45.386 -2.8838 2.14656 0
M  V30 466 C 45.05 -2.76905 3.63555 0
M  V30 467 C 46.047 -2.4739 4.57268 0
M  V30 468 C 43.732 -2.94676 4.06781 0
M  V30 469 C 45.726 -2.35786 5.92186 0
M  V30 470 C 43.413 -2.82692 5.41782 0
M  V30 471 C 44.411 -2.53289 6.34298 0
M  V30 472 O 44.099 -2.41345 7.66817 0
M  V30 473 H 43.831 -0.486776 0.469069 0
M  V30 474 H 46.385 -0.953812 1.81911 0
M  V30 475 H 44.615 -3.50217 1.63967 0
M  V30 476 H 46.304 -3.49828 2.05852 0
M  V30 477 H 47.07 -2.33339 4.2518 0
M  V30 478 H 42.949 -3.16563 3.35126 0
M  V30 479 H 46.493 -2.12757 6.64365 0
M  V30 480 H 42.39 -2.96314 5.7347 0
M  V30 481 H 43.158 -2.56634 7.77226 0
M  V30 482 N 45.8211 -1.22559 -0.990812 0
M  V30 483 C 47.0681 -1.05141 -1.73065 0
M  V30 484 C 47.3961 0.413191 -1.9006 0
M  V30 485 O 46.6511 1.32257 -1.44245 0
M  V30 486 C 46.9501 -1.71011 -3.13831 0
M  V30 487 C 46.6161 -3.20911 -3.16745 0
M  V30 488 C 45.2781 -3.61812 -3.17247 0
M  V30 489 C 47.6301 -4.16846 -3.12872 0
M  V30 490 C 44.9581 -4.97127 -3.1158 0
M  V30 491 C 47.3101 -5.5214 -3.08746 0
M  V30 492 C 45.9741 -5.92419 -3.07565 0
M  V30 493 H 45.2441 -0.384738 -0.633291 0
M  V30 494 H 47.8911 -1.5235 -1.16025 0
M  V30 495 H 46.1961 -1.16133 -3.74193 0
M  V30 496 H 47.8931 -1.55023 -3.69823 0
M  V30 497 H 44.4831 -2.88344 -3.17105 0
M  V30 498 H 48.6671 -3.86263 -3.11632 0
M  V30 499 H 43.9231 -5.27562 -3.09012 0
M  V30 500 H 48.0971 -6.26201 -3.04705 0
M  V30 501 H 45.7241 -6.97236 -3.02929 0
M  V30 502 N 47.2992 1.18797 -1.03562 0
M  V30 503 C 48.5462 1.8865 -0.736023 0
M  V30 504 C 48.8742 1.80041 0.735889 0
M  V30 505 O 48.1292 1.19179 1.55225 0
M  V30 506 C 48.4282 3.38692 -1.14117 0
M  V30 507 C 48.0942 3.67504 -2.6125 0
M  V30 508 C 46.7562 3.75078 -3.01447 0
M  V30 509 C 49.1082 3.80293 -3.56408 0
M  V30 510 C 46.4362 3.92915 -4.35701 0
M  V30 511 C 48.7882 3.99645 -4.90374 0
M  V30 512 C 47.4522 4.05453 -5.30249 0
M  V30 513 H 46.7222 0.690321 -0.26933 0
M  V30 514 H 49.3692 1.40641 -1.29971 0
M  V30 515 H 47.6742 3.88645 -0.496202 0
M  V30 516 H 49.3712 3.91072 -0.886789 0
M  V30 517 H 45.9612 3.62223 -2.29113 0
M  V30 518 H 50.1452 3.73779 -3.26501 0
M  V30 519 H 45.4012 3.95653 -4.66121 0
M  V30 520 H 49.5752 4.08482 -5.64017 0
M  V30 521 H 47.2022 4.19027 -6.34288 0
M  V30 522 N 48.7773 0.814389 1.34928 0
M  V30 523 C 50.0053 0.411136 2.02774 0
M  V30 524 C 50.4203 -0.980316 1.61354 0
M  V30 525 O 49.7773 -1.63299 0.814847 0
M  V30 526 C 49.8283 0.493865 3.58111 0
M  V30 527 O 49.5493 1.83047 3.98027 0
M  V30 528 C 51.0503 0.0844174 4.4322 0
M  V30 529 H 48.2703 0.166037 0.650133 0
M  V30 530 H 50.8143 1.10018 1.72384 0
M  V30 531 H 48.9693 -0.147006 3.87121 0
M  V30 532 H 49.3833 1.79872 4.92693 0
M  V30 533 H 50.8573 0.193404 5.51661 0
M  V30 534 H 51.3343 -0.97113 4.28329 0
M  V30 535 H 51.9403 0.69875 4.19521 0
M  V30 536 N 50.2554 -1.46986 0.568584 0
M  V30 537 C 51.4804 -2.07335 0.0520528 0
M  V30 538 C 51.9054 -1.41675 -1.23733 0
M  V30 539 O 51.2634 -0.495623 -1.74394 0
M  V30 540 C 51.3114 -3.60417 -0.11501 0
M  V30 541 O 50.4154 -3.95309 -1.17492 0
M  V30 542 H 49.7564 -0.661597 0.0564385 0
M  V30 543 H 52.2864 -1.88837 0.787507 0
M  V30 544 H 52.2964 -4.06698 -0.325644 0
M  V30 545 H 50.9714 -4.07601 0.826675 0
M  V30 546 H 49.5484 -3.60757 -0.943869 0
M  V30 547 N 51.7335 -0.305618 -1.54608 0
M  V30 548 C 52.9795 0.302746 -2.00528 0
M  V30 549 C 53.3125 1.53184 -1.19367 0
M  V30 550 O 52.5875 1.92598 -0.271321 0
M  V30 551 C 52.8705 0.654756 -3.54097 0
M  V30 552 C 52.7235 -0.583793 -4.45995 0
M  V30 553 C 54.0425 1.47947 -4.14487 0
M  V30 554 H 51.1615 0.108564 -0.72896 0
M  V30 555 H 53.8035 -0.418634 -1.85331 0
M  V30 556 H 51.9535 1.26935 -3.67178 0
M  V30 557 H 53.6255 -1.22224 -4.44814 0
M  V30 558 H 51.8685 -1.21615 -4.16404 0
M  V30 559 H 52.5395 -0.293287 -5.5122 0
M  V30 560 H 55.0155 0.96013 -4.04871 0
M  V30 561 H 53.8915 1.69454 -5.22088 0
M  V30 562 H 54.1525 2.47011 -3.66658 0
M  V30 563 N 53.2116 1.57565 -0.0334293 0
M  V30 564 C 54.4366 1.96689 0.657895 0
M  V30 565 C 54.8616 0.910057 1.64619 0
M  V30 566 O 54.2196 -0.128598 1.80843 0
M  V30 567 C 54.2676 3.34905 1.33683 0
M  V30 568 O 53.3716 3.31574 2.45219 0
M  V30 569 H 52.7126 0.641205 0.172489 0
M  V30 570 H 55.2426 2.04372 -0.0965621 0
M  V30 571 H 55.2526 3.71234 1.69262 0
M  V30 572 H 53.9276 4.11366 0.612411 0
M  V30 573 H 52.5046 3.06968 2.11719 0
M  V30 574 N 54.6897 -0.239769 1.55765 0
M  V30 575 C 56.1057 -0.588624 1.48349 0
M  V30 576 C 56.3057 -1.88005 0.72502 0
M  V30 577 O 55.3617 -2.51186 0.257269 0
M  V30 578 C 56.6747 -0.68474 2.928 0
M  V30 579 C 58.2227 -0.77659 3.03213 0
M  V30 580 C 58.6977 -0.904207 4.48986 0
M  V30 581 N 60.1887 -0.968896 4.52953 0
M  V30 582 C 60.9237 -1.08703 5.63002 0
M  V30 583 N 60.4197 -1.17026 6.82845 0
M  V30 584 N 62.2127 -1.12074 5.50814 0
M  V30 585 H 54.3637 0.607911 2.03515 0
M  V30 586 H 56.6267 0.21083 0.924259 0
M  V30 587 H 56.3327 0.194284 3.51163 0
M  V30 588 H 56.2067 -1.55435 3.43686 0
M  V30 589 H 58.5937 -1.64606 2.44926 0
M  V30 590 H 58.6747 0.118315 2.55526 0
M  V30 591 H 58.3187 -0.0392633 5.07885 0
M  V30 592 H 58.2487 -1.81426 4.9436 0
M  V30 593 H 60.7397 -0.915633 3.6664 0
M  V30 594 H 61.0527 -1.25966 7.62465 0
M  V30 595 H 59.3977 -1.13971 6.85591 0
M  V30 596 H 62.5887 -1.05226 4.5612 0
M  V30 597 H 62.7617 -1.20936 6.36615 0
M  V30 598 N 56.1678 -1.49265 -0.50573 0
M  V30 599 C 57.5788 -1.51769 -1.08734 0
M  V30 600 C 57.9298 -0.301192 -1.93874 0
M  V30 601 O 57.0548 0.589456 -2.08217 0
M  V30 602 C 57.6498 -2.75017 -1.97867 0
M  V30 603 C 56.2088 -2.80314 -2.51199 0
M  V30 604 C 55.3558 -2.4562 -1.28709 0
M  V30 605 H 58.3068 -1.56031 -0.289855 0
M  V30 606 H 58.3278 -2.5491 -2.82491 0
M  V30 607 H 57.8398 -3.63539 -1.35873 0
M  V30 608 H 55.9408 -1.96061 -3.16845 0
M  V30 609 H 56.0538 -3.82366 -2.88675 0
M  V30 610 H 54.4178 -1.97297 -1.61078 0
M  V30 611 H 55.2008 -3.36411 -0.6843 0
M  V30 612 N 57.6459 0.756429 -1.3826 0
M  V30 613 C 58.8939 1.51248 -1.34047 0
M  V30 614 C 59.2149 1.94875 0.0698372 0
M  V30 615 O 58.4849 1.67436 1.01696 0
M  V30 616 H 57.0649 0.561018 -0.493222 0
M  V30 617 H 59.7269 0.899347 -1.7291 0
M  V30 618 H 58.8229 2.40472 -1.98947 0
M  V30 619 N 59.124 1.23083 0.984299 0
M  V30 620 C 60.54 0.992637 1.24975 0
M  V30 621 C 60.74 -0.308618 1.99123 0
M  V30 622 O 59.796 -1.02905 2.30579 0
M  V30 623 C 61.109 2.19698 2.05312 0
M  V30 624 C 62.657 2.24147 2.18465 0
M  V30 625 C 63.132 3.44157 3.02192 0
M  V30 626 N 64.623 3.44372 3.09777 0
M  V30 627 C 65.358 4.33886 3.74874 0
M  V30 628 N 64.854 5.3363 4.41827 0
M  V30 629 N 66.647 4.21639 3.71721 0
M  V30 630 H 58.798 2.06731 0.487453 0
M  V30 631 H 61.061 0.906339 0.277944 0
M  V30 632 H 60.767 3.1411 1.58201 0
M  V30 633 H 60.641 2.20465 3.06064 0
M  V30 634 H 63.028 1.30277 2.64786 0
M  V30 635 H 63.109 2.27415 1.17115 0
M  V30 636 H 62.753 4.38332 2.56568 0
M  V30 637 H 62.683 3.3813 4.03702 0
M  V30 638 H 65.174 2.72201 2.62135 0
M  V30 639 H 65.487 5.98196 4.89266 0
M  V30 640 H 63.832 5.37534 4.40548 0
M  V30 641 H 67.023 3.42962 3.18582 0
M  V30 642 H 67.196 4.91604 4.22173 0
M  V30 643 N 60.6021 -1.18246 1.0419 0
M  V30 644 C 61.8501 -1.87886 0.744543 0
M  V30 645 C 62.1711 -1.8082 -0.730006 0
M  V30 646 O 61.4411 -1.22736 -1.52685 0
M  V30 647 H 60.0211 -0.695556 0.272417 0
M  V30 648 H 62.6831 -1.43494 1.31892 0
M  V30 649 H 61.7791 -2.9389 1.05049 0
M  V30 650 N 62.0802 -0.821533 -1.34494 0
M  V30 651 C 62.9902 -0.244355 -2.33324 0
M  V30 652 C 64.0062 0.620527 -1.62559 0
M  V30 653 O 65.1822 0.528754 -1.94335 0
M  V30 654 C 62.2472 0.585368 -3.41723 0
M  V30 655 C 61.3082 -0.301752 -4.28238 0
M  V30 656 C 60.5412 0.488466 -5.3146 0
M  V30 657 O 60.7642 1.72186 -5.4379 0
M  V30 658 O 59.6982 -0.12848 -6.01763 0
M  V30 659 H 63.5242 -1.06231 -2.84515 0
M  V30 660 H 61.1092 -0.583645 -1.37528 0
M  V30 661 H 62.9912 1.05747 -4.07916 0
M  V30 662 H 61.6662 1.38068 -2.92778 0
M  V30 663 H 60.5732 -0.821315 -3.64973 0
M  V30 664 H 61.9062 -1.06138 -4.8062 0
M  V30 665 N 63.5583 1.46682 -0.576371 0
M  V30 666 C 64.9693 1.86112 -0.148091 0
M  V30 667 C 65.3203 1.48073 1.2872 0
M  V30 668 O 64.4453 0.892656 1.97131 0
M  V30 669 C 65.0403 3.37786 -0.261982 0
M  V30 670 C 63.5993 3.76235 0.111384 0
M  V30 671 C 62.7463 2.70713 -0.60083 0
M  V30 672 H 65.6973 1.37927 -0.78497 0
M  V30 673 H 65.7183 3.77007 0.514364 0
M  V30 674 H 65.2303 3.6544 -1.30671 0
M  V30 675 H 63.3313 3.54198 1.15649 0
M  V30 676 H 63.4443 4.78391 -0.26052 0
M  V30 677 H 61.8083 2.54666 -0.0417783 0
M  V30 678 H 62.5913 3.01208 -1.64708 0
M  V30 679 N 65.0364 0.313813 1.54444 0
M  V30 680 C 66.4524 -0.0391619 1.59552 0
M  V30 681 C 66.6524 -1.51322 1.33056 0
M  V30 682 O 65.7084 -2.26782 1.11022 0
M  V30 683 C 67.0214 0.370302 2.98411 0
M  V30 684 C 68.5694 0.320139 3.11358 0
M  V30 685 C 69.0444 0.704617 4.52547 0
M  V30 686 N 70.5354 0.657645 4.58508 0
M  V30 687 C 71.2704 0.927453 5.6585 0
M  V30 688 N 70.7664 1.26389 6.81174 0
M  V30 689 N 72.5594 0.853662 5.5558 0
M  V30 690 H 64.7104 1.27433 1.69925 0
M  V30 691 H 66.9734 0.517511 0.794284 0
M  V30 692 H 66.6794 1.39694 3.22767 0
M  V30 693 H 66.5534 -0.269619 3.76235 0
M  V30 694 H 68.9404 -0.697275 2.86744 0
M  V30 695 H 69.0214 0.99486 2.35661 0
M  V30 696 H 68.6654 1.7199 4.77893 0
M  V30 697 H 68.5954 0.00768843 5.26599 0
M  V30 698 H 71.0864 0.409067 3.75679 0
M  V30 699 H 71.3994 1.4554 7.58972 0
M  V30 700 H 69.7444 1.30206 6.82694 0
M  V30 701 H 72.9354 0.590383 4.64362 0
M  V30 702 H 73.1084 1.0673 6.3915 0
M  V30 703 N 66.5145 -1.57545 0.0417849 0
M  V30 704 C 67.7615 -1.92317 -0.634082 0
M  V30 705 C 68.0895 -0.919334 -1.71402 0
M  V30 706 O 67.3445 0.0698253 -1.95575 0
M  V30 707 C 67.6435 -3.33794 -1.27735 0
M  V30 708 C 67.3095 -4.49716 -0.326543 0
M  V30 709 C 65.9715 -4.81156 -0.0648814 0
M  V30 710 C 68.3235 -5.20182 0.325623 0
M  V30 711 C 65.6515 -5.80414 0.856539 0
M  V30 712 C 68.0035 -6.20424 1.23518 0
M  V30 713 C 66.6675 -6.50298 1.5056 0
M  V30 714 H 65.9375 -0.703736 -0.232027 0
M  V30 715 H 68.5845 -1.91205 0.106259 0
M  V30 716 H 66.8895 -3.31228 -2.09274 0
M  V30 717 H 68.5865 -3.57975 -1.80707 0
M  V30 718 H 65.1765 -4.25176 -0.540665 0
M  V30 719 H 69.3605 -4.96112 0.136546 0
M  V30 720 H 64.6165 -6.019 1.07363 0
M  V30 721 H 68.7905 -6.74141 1.74664 0
M  V30 722 H 66.4175 -7.27025 2.22123 0
M  V30 723 N 67.9926 0.231505 -1.5589 0
M  V30 724 C 69.2416 0.955346 -1.7764 0
M  V30 725 C 69.5546 1.85893 -0.608546 0
M  V30 726 O 70.7606 2.62067 -0.70943 0
M  V30 727 C 69.2166 1.74886 -3.14552 0
M  V30 728 C 68.8246 0.891915 -4.39032 0
M  V30 729 C 70.5686 2.46452 -3.45633 0
M  V30 730 C 68.4756 1.68221 -5.66971 0
M  V30 731 H 67.4056 0.360446 -0.662265 0
M  V30 732 H 70.0566 0.209516 -1.823 0
M  V30 733 H 68.4386 2.53723 -3.04041 0
M  V30 734 H 69.6126 0.144793 -4.60572 0
M  V30 735 H 67.9276 0.288863 -4.15397 0
M  V30 736 H 70.5246 3.06061 -4.38441 0
M  V30 737 H 70.8676 3.18841 -2.67668 0
M  V30 738 H 71.4006 1.74613 -3.57428 0
M  V30 739 H 68.1396 1.00178 -6.478 0
M  V30 740 H 67.6596 2.4042 -5.49507 0
M  V30 741 H 69.3386 2.24544 -6.06786 0
M  V30 742 N 69.4707 1.49531 0.497807 0
M  V30 743 C 70.4337 1.65916 1.58128 0
M  V30 744 C 71.4337 0.530825 1.51786 0
M  V30 745 O 72.6237 0.797342 1.54881 0
M  V30 746 C 69.7557 1.65951 2.9778 0
M  V30 747 H 70.9487 2.62556 1.44929 0
M  V30 748 H 68.5017 1.38611 0.722275 0
M  V30 749 H 69.2367 0.709065 3.16453 0
M  V30 750 H 69.0217 2.47897 3.03792 0
M  V30 751 H 70.5117 1.80673 3.76493 0
M  V30 752 N 70.9488 -0.749086 1.3866 0
M  V30 753 C 72.1948 -1.51056 1.35314 0
M  V30 754 C 72.5278 -1.94121 -0.0553751 0
M  V30 755 O 71.8028 -1.65763 -1.01749 0
M  V30 756 C 72.0858 -2.76003 2.31288 0
M  V30 757 C 71.9388 -2.39047 3.8102 0
M  V30 758 C 73.2578 -3.78046 2.2532 0
M  V30 759 H 70.3768 -0.547972 0.492844 0
M  V30 760 H 73.0188 -0.857628 1.69543 0
M  V30 761 H 71.1688 -3.31716 2.02229 0
M  V30 762 H 72.8408 -1.89074 4.20771 0
M  V30 763 H 71.0838 -1.71449 3.98482 0
M  V30 764 H 71.7548 -3.28462 4.4364 0
M  V30 765 H 74.2308 -3.31884 2.50983 0
M  V30 766 H 73.1068 -4.63159 2.94576 0
M  V30 767 H 73.3678 -4.23957 1.25352 0
M  V30 768 N 72.4269 -1.23603 -0.977757 0
M  V30 769 C 73.6749 -1.06759 -1.71601 0
M  V30 770 C 73.9959 0.395929 -1.90938 0
M  V30 771 O 73.2659 1.28356 -1.47992 0
M  V30 772 H 71.8459 -0.392062 -0.635843 0
M  V30 773 H 74.5079 -1.55362 -1.1768 0
M  V30 774 H 73.6039 -1.55763 -2.70452 0
M  V30 775 N 73.905 1.17692 -1.04816 0
M  V30 776 C 75.135 1.91508 -0.775128 0
M  V30 777 C 75.543 1.76844 0.67253 0
M  V30 778 O 74.886 1.10057 1.47082 0
M  V30 779 C 74.948 3.43167 -1.0713 0
M  V30 780 C 74.612 3.81612 -2.51438 0
M  V30 781 C 75.609 3.84772 -3.49638 0
M  V30 782 C 73.294 4.12687 -2.86348 0
M  V30 783 C 75.288 4.18469 -4.80794 0
M  V30 784 C 72.975 4.46053 -4.17708 0
M  V30 785 C 73.973 4.48921 -5.14741 0
M  V30 786 O 73.661 4.81504 -6.43746 0
M  V30 787 H 73.393 0.614575 -0.281555 0
M  V30 788 H 75.947 1.50206 -1.40098 0
M  V30 789 H 74.177 3.84745 -0.388342 0
M  V30 790 H 75.866 3.98239 -0.784883 0
M  V30 791 H 76.632 3.60893 -3.24008 0
M  V30 792 H 72.511 4.09627 -2.11486 0
M  V30 793 H 76.055 4.20623 -5.56527 0
M  V30 794 H 71.952 4.69393 -4.43103 0
M  V30 795 H 72.72 4.99377 -6.4851 0
M  V30 796 N 75.3831 0.828654 1.34056 0
M  V30 797 C 76.6291 0.42008 1.98402 0
M  V30 798 C 76.9621 -1.01564 1.65525 0
M  V30 799 O 76.2371 -1.70834 0.929831 0
M  V30 800 C 76.5201 0.62927 3.54559 0
M  V30 801 C 76.3731 2.11152 3.97159 0
M  V30 802 C 77.6921 0.0688756 4.40046 0
M  V30 803 H 74.8111 0.154104 0.720709 0
M  V30 804 H 77.4531 1.04228 1.5886 0
M  V30 805 H 75.6031 0.0996418 3.88372 0
M  V30 806 H 77.2751 2.70522 3.73651 0
M  V30 807 H 75.5181 2.59985 3.47261 0
M  V30 808 H 76.1891 2.20868 5.05887 0
M  V30 809 H 78.6651 0.521458 4.1282 0
M  V30 810 H 77.5411 0.245006 5.48353 0
M  V30 811 H 77.8021 -1.0266 4.30015 0
M  V30 812 N 76.8612 -1.46375 0.584142 0
M  V30 813 C 78.1382 -1.956 0.0033388 0
M  V30 814 C 78.5182 -1.52679 -1.45782 0
M  V30 815 O 77.8662 -0.77816 -2.14842 0
M  V30 816 C 78.0762 -3.48551 0.176891 0
M  V30 817 C 79.4242 -4.24576 0.0454609 0
M  V30 818 O 80.4482 -3.56043 0.105801 0
M  V30 819 O 79.3072 -5.46427 -0.0890376 0
M  V30 820 H 76.4012 -0.825547 -0.0490066 0
M  V30 821 H 78.9472 -1.56652 0.65256 0
M  V30 822 H 77.7192 -3.72683 1.1926 0
M  V30 823 H 77.3422 -3.94332 -0.508695 0
M  V30 824 N 78.3393 -0.321999 -1.54275 0
M  V30 825 C 79.6163 0.335232 -1.92706 0
M  V30 826 C 79.9963 1.70006 -1.25145 0
M  V30 827 O 79.3443 2.25067 -0.394596 0
M  V30 828 C 79.5543 0.429008 -3.46353 0
M  V30 829 C 80.9023 0.690029 -4.18956 0
M  V30 830 O 81.9263 0.511992 -3.52501 0
M  V30 831 O 80.7853 1.03338 -5.36641 0
M  V30 832 H 77.8793 0.191143 -0.804608 0
M  V30 833 H 80.4253 -0.3716 -1.65581 0
M  V30 834 H 79.1973 -0.529611 -3.87699 0
M  V30 835 H 78.8203 1.18348 -3.79578 0
M  V30 836 N 79.8174 1.5752 -0.0501392 0
M  V30 837 C 81.0454 1.96963 0.633492 0
M  V30 838 C 81.4604 0.927631 1.6444 0
M  V30 839 O 80.8174 -0.0882665 1.82286 0
M  V30 840 C 80.8684 3.36487 1.32132 0
M  V30 841 O 80.5894 4.36693 0.350894 0
M  V30 842 C 82.0904 3.90682 2.09481 0
M  V30 843 H 79.3104 0.648244 0.173266 0
M  V30 844 H 81.8544 2.0417 -0.116134 0
M  V30 845 H 80.0094 3.30434 2.02218 0
M  V30 846 H 80.4234 5.17702 0.841735 0
M  V30 847 H 81.8974 4.90591 2.5303 0
M  V30 848 H 82.3744 3.26053 2.94255 0
M  V30 849 H 82.9804 4.00069 1.44307 0
M  V30 850 N 81.2955 -0.223234 1.56011 0
M  V30 851 C 82.2275 -1.30006 1.88762 0
M  V30 852 C 83.2405 -1.43129 0.775746 0
M  V30 853 O 84.4295 -1.44057 1.05403 0
M  V30 854 C 81.5295 -2.67589 2.07965 0
M  V30 855 C 80.7025 -2.76434 3.38973 0
M  V30 856 C 79.7615 -3.95019 3.47629 0
M  V30 857 O 78.7875 -3.83436 4.20672 0
M  V30 858 N 79.9895 -5.09249 2.78649 0
M  V30 859 H 82.7545 -1.02238 2.81722 0
M  V30 860 H 80.3155 -0.413278 1.56536 0
M  V30 861 H 82.3075 -3.45297 2.11073 0
M  V30 862 H 80.8775 -2.87964 1.21638 0
M  V30 863 H 80.0975 -1.85216 3.47978 0
M  V30 864 H 81.3855 -2.79313 4.25278 0
M  V30 865 H 80.7835 -5.21556 2.19081 0
M  V30 866 H 79.3405 -5.85007 2.8742 0
M  V30 867 N 82.7736 -1.49793 -0.48987 0
M  V30 868 C 84.0206 -1.59841 -1.24327 0
M  V30 869 C 84.3486 -0.290135 -1.92324 0
M  V30 870 O 83.6036 0.722749 -1.81865 0
M  V30 871 C 83.9026 -2.71488 -2.32441 0
M  V30 872 C 83.5686 -4.12614 -1.81826 0
M  V30 873 C 82.2306 -4.51017 -1.67742 0
M  V30 874 C 84.5826 -5.00892 -1.4407 0
M  V30 875 C 81.9106 -5.75459 -1.14297 0
M  V30 876 C 84.2626 -6.25863 -0.920742 0
M  V30 877 C 82.9266 -6.63086 -0.766383 0
M  V30 878 H 82.1966 -0.584899 -0.454944 0
M  V30 879 H 84.8436 -1.83663 -0.542215 0
M  V30 880 H 83.1486 -2.4168 -3.0838 0
M  V30 881 H 84.8456 -2.76469 -2.90458 0
M  V30 882 H 81.4356 -3.82307 -1.93751 0
M  V30 883 H 85.6196 -4.7187 -1.53794 0
M  V30 884 H 80.8756 -6.02989 -1.01068 0
M  V30 885 H 85.0496 -6.9364 -0.619448 0
M  V30 886 H 82.6766 -7.59393 -0.350083 0
M  V30 887 N 84.2517 0.741722 -1.39055 0
M  V30 888 C 85.4977 1.50336 -1.36113 0
M  V30 889 C 85.8307 1.94148 0.0450796 0
M  V30 890 O 85.1057 1.66301 1.00868 0
M  V30 891 C 85.3887 2.74773 -2.32749 0
M  V30 892 C 85.2417 2.37023 -3.82283 0
M  V30 893 C 86.5607 3.76846 -2.27322 0
M  V30 894 H 83.6797 0.545351 -0.495743 0
M  V30 895 H 86.3217 0.848624 -1.69995 0
M  V30 896 H 84.4717 3.30639 -2.03986 0
M  V30 897 H 86.1437 1.8684 -4.21768 0
M  V30 898 H 84.3867 1.69334 -3.99385 0
M  V30 899 H 85.0577 3.26104 -4.45376 0
M  V30 900 H 87.5337 3.30548 -2.5274 0
M  V30 901 H 86.4097 4.6159 -2.97028 0
M  V30 902 H 86.6707 4.23286 -1.27599 0
M  V30 903 N 85.7298 1.2412 0.971189 0
M  V30 904 C 87.1458 1.00584 1.23916 0
M  V30 905 C 87.3458 -0.287481 1.99439 0
M  V30 906 O 86.4018 -1.00454 2.31658 0
M  V30 907 C 87.7148 2.21864 2.0297 0
M  V30 908 C 89.2628 2.26452 2.16076 0
M  V30 909 C 89.7378 3.47343 2.98524 0
M  V30 910 N 91.2288 3.47639 3.06107 0
M  V30 911 C 91.9638 4.37837 3.70251 0
M  V30 912 N 91.4598 5.38286 4.36142 0
M  V30 913 N 93.2528 4.25558 3.67228 0
M  V30 914 H 85.4038 2.07236 0.465499 0
M  V30 915 H 87.6668 0.909236 0.268315 0
M  V30 916 H 87.3728 3.15771 1.54861 0
M  V30 917 H 87.2468 2.23698 3.03709 0
M  V30 918 H 89.6338 1.33078 2.6339 0
M  V30 919 H 89.7148 2.28645 1.14696 0
M  V30 920 H 89.3588 4.41029 2.51905 0
M  V30 921 H 89.2888 3.42393 4.00093 0
M  V30 922 H 91.7798 2.74966 2.59233 0
M  V30 923 H 92.0928 6.03352 4.82894 0
M  V30 924 H 90.4378 5.42176 4.34822 0
M  V30 925 H 93.6288 3.46322 3.14927 0
M  V30 926 H 93.8018 4.96054 4.16935 0
M  V30 927 N 87.2079 -1.17134 1.05439 0
M  V30 928 C 88.4549 -1.87456 0.765942 0
M  V30 929 C 88.7829 -1.81189 -0.707153 0
M  V30 930 O 88.0379 -1.21633 -1.5331 0
M  V30 931 C 88.3369 -3.36833 1.19491 0
M  V30 932 C 88.0029 -3.63301 2.67063 0
M  V30 933 C 86.6649 -3.70234 3.07376 0
M  V30 934 C 89.0169 -3.74575 3.62413 0
M  V30 935 C 86.3449 -3.85933 4.41896 0
M  V30 936 C 88.6969 -3.91793 4.9667 0
M  V30 937 C 87.3609 -3.96966 5.36633 0
M  V30 938 H 86.6309 -0.685948 0.280278 0
M  V30 939 H 89.2779 -1.38556 1.32192 0
M  V30 940 H 87.5829 -3.87807 0.557969 0
M  V30 941 H 89.2799 -3.89611 0.948893 0
M  V30 942 H 85.8699 -3.58532 2.34846 0
M  V30 943 H 90.0539 -3.68537 3.32406 0
M  V30 944 H 85.3099 -3.88187 4.72357 0
M  V30 945 H 89.4839 -3.99458 5.70444 0
M  V30 946 H 87.1109 -4.08883 6.40874 0
M  V30 947 N 88.686 -0.835752 -1.33615 0
M  V30 948 C 89.963 -0.352017 -1.92406 0
M  V30 949 C 90.343 1.16225 -1.76224 0
M  V30 950 O 89.691 1.97526 -1.14873 0
M  V30 951 C 89.901 -0.795485 -3.39813 0
M  V30 952 C 91.249 -0.801703 -4.16963 0
M  V30 953 O 92.273 -0.738889 -3.48452 0
M  V30 954 O 91.132 -0.886607 -5.3926 0
M  V30 955 H 88.226 -0.0989641 -0.821057 0
M  V30 956 H 90.772 -0.921397 -1.42507 0
M  V30 957 H 89.544 -1.83795 -3.45449 0
M  V30 958 H 89.167 -0.202505 -3.97084 0
M  V30 959 N 90.1641 1.46063 -0.591896 0
M  V30 960 C 91.3891 2.07226 -0.0850314 0
M  V30 961 C 91.8141 1.43625 1.21463 0
M  V30 962 O 91.1721 0.523305 1.73583 0
M  V30 963 C 91.2201 3.60554 0.0576567 0
M  V30 964 O 90.3241 3.97128 1.11188 0
M  V30 965 H 89.6651 0.660615 -0.0669568 0
M  V30 966 H 92.1951 1.8756 -0.81745 0
M  V30 967 H 92.2051 4.07165 0.2609 0
M  V30 968 H 90.8801 4.06235 -0.891416 0
M  V30 969 H 89.4571 3.62213 0.886356 0
M  V30 970 N 91.6422 0.330177 1.54103 0
M  V30 971 C 92.9192 -0.325007 1.92881 0
M  V30 972 C 93.2992 -1.6934 1.26045 0
M  V30 973 O 92.6472 -2.24855 0.406526 0
M  V30 974 C 92.8572 -0.410634 3.46576 0
M  V30 975 C 94.2052 -0.667801 4.19316 0
M  V30 976 O 95.2292 -0.49329 3.52768 0
M  V30 977 O 94.0882 -1.00491 5.37181 0
M  V30 978 H 91.1822 -0.186873 0.80561 0
M  V30 979 H 93.7282 0.380376 1.65382 0
M  V30 980 H 92.5002 0.550164 3.87413 0
M  V30 981 H 92.1232 -1.16333 3.802 0
M  V30 982 N 93.1203 -1.57491 0.0584922 0
M  V30 983 C 94.0833 -2.1085 -0.898617 0
M  V30 984 C 95.0833 -1.02964 -1.23511 0
M  V30 985 O 96.2733 -1.29007 -1.17059 0
M  V30 986 C 93.4053 -2.59881 -2.20623 0
M  V30 987 H 94.5983 -2.96715 -0.435936 0
M  V30 988 H 92.1513 -1.55141 -0.190023 0
M  V30 989 H 92.8863 -1.77431 -2.71457 0
M  V30 990 H 92.6713 -3.38727 -1.97501 0
M  V30 991 H 94.1613 -3.01285 -2.89166 0
M  V30 992 N 94.5984 0.214957 -1.56127 0
M  V30 993 C 95.5614 1.24997 -1.92116 0
M  V30 994 C 96.5614 1.39467 -0.800344 0
M  V30 995 O 97.7514 1.37619 -1.06802 0
M  V30 996 C 94.8834 2.62271 -2.17777 0
M  V30 997 H 96.0764 0.942875 -2.84693 0
M  V30 998 H 93.6294 0.455654 -1.49511 0
M  V30 999 H 94.3644 2.98068 -1.27773 0
M  V30 1000 H 94.1494 2.53143 -2.99434 0
M  V30 1001 H 95.6394 3.36946 -2.46693 0
M  V30 1002 N 96.0765 1.50051 0.48192 0
M  V30 1003 C 97.3015 1.64508 1.26301 0
M  V30 1004 C 97.7265 0.323851 1.85291 0
M  V30 1005 O 97.0845 -0.710969 1.66778 0
M  V30 1006 C 97.1325 2.7305 2.35533 0
M  V30 1007 O 96.2365 2.3355 3.39895 0
M  V30 1008 H 95.5775 0.549978 0.372048 0
M  V30 1009 H 98.1075 1.9636 0.574786 0
M  V30 1010 H 98.1175 2.95799 2.8101 0
M  V30 1011 H 96.7925 3.68946 1.91967 0
M  V30 1012 H 95.3695 2.21205 3.00204 0
M  V30 1013 N 97.5546 -0.734337 1.39446 0
M  V30 1014 C 98.4866 -1.85861 1.34121 0
M  V30 1015 C 99.4996 -1.60871 0.249864 0
M  V30 1016 O 100.689 -1.71093 0.508865 0
M  V30 1017 C 97.7886 -3.21899 1.05991 0
M  V30 1018 C 96.9616 -3.74239 2.26415 0
M  V30 1019 C 96.0206 -4.88841 1.94733 0
M  V30 1020 O 95.0466 -5.02468 2.67422 0
M  V30 1021 N 96.2486 -5.73261 0.913884 0
M  V30 1022 H 99.0136 -1.90934 2.31007 0
M  V30 1023 H 96.5746 -0.915102 1.33557 0
M  V30 1024 H 98.5666 -3.96136 0.828147 0
M  V30 1025 H 97.1366 -3.12091 0.178361 0
M  V30 1026 H 96.3566 -2.91347 2.65539 0
M  V30 1027 H 97.6446 -4.05942 3.06738 0
M  V30 1028 H 97.0426 -5.64842 0.311476 0
M  V30 1029 H 95.5996 -6.47563 0.742015 0
M  V30 1030 N 99.0327 -1.24633 -0.964593 0
M  V30 1031 C 100.449 -1.01239 -1.2338 0
M  V30 1032 C 100.649 0.2769 -1.99588 0
M  V30 1033 O 99.7047 0.992241 -2.32187 0
M  V30 1034 C 101.018 -2.22937 -2.01791 0
M  V30 1035 C 102.566 -2.27594 -2.14872 0
M  V30 1036 C 103.041 -3.48921 -2.96678 0
M  V30 1037 N 104.532 -3.49257 -3.04259 0
M  V30 1038 C 105.267 -4.39795 -3.67924 0
M  V30 1039 N 104.763 -5.40591 -4.33281 0
M  V30 1040 N 106.556 -4.275 -3.64966 0
M  V30 1041 H 98.7067 -2.0748 -0.454502 0
M  V30 1042 H 100.97 -0.910647 -0.26349 0
M  V30 1043 H 100.676 -3.16587 -1.53184 0
M  V30 1044 H 100.55 -2.25306 -3.02518 0
M  V30 1045 H 102.937 -1.34473 -2.6268 0
M  V30 1046 H 103.018 -2.2925 -1.13482 0
M  V30 1047 H 102.662 -4.42359 -2.49562 0
M  V30 1048 H 102.592 -3.4451 -3.98272 0
M  V30 1049 H 105.083 -2.76337 -2.57771 0
M  V30 1050 H 105.396 -6.05904 -4.79687 0
M  V30 1051 H 103.741 -5.44475 -4.3194 0
M  V30 1052 H 106.932 -3.47987 -3.13086 0
M  V30 1053 H 107.105 -4.98258 -4.14298 0
M  V30 1054 N 100.511 1.16574 -1.06058 0
M  V30 1055 C 101.444 2.19798 -0.61352 0
M  V30 1056 C 102.422 1.58509 0.362453 0
M  V30 1057 O 103.606 1.86527 0.271994 0
M  V30 1058 C 100.733 3.3855 0.100915 0
M  V30 1059 C 99.7788 4.18317 -0.831438 0
M  V30 1060 S 100.612 4.82375 -2.32539 0
M  V30 1061 C 101.768 6.04508 -1.62238 0
M  V30 1062 H 102.001 2.5738 -1.48805 0
M  V30 1063 H 99.5338 1.27327 -0.873338 0
M  V30 1064 H 101.492 4.07358 0.506898 0
M  V30 1065 H 100.153 2.99338 0.951604 0
M  V30 1066 H 99.3458 5.03232 -0.278071 0
M  V30 1067 H 98.9478 3.5499 -1.17719 0
M  V30 1068 H 101.24 6.71133 -0.926622 0
M  V30 1069 H 102.183 6.64389 -2.44934 0
M  V30 1070 H 102.591 5.53559 -1.106 0
M  V30 1071 N 101.989 0.842826 1.3317 0
M  V30 1072 C 102.899 0.281444 2.32906 0
M  V30 1073 C 103.915 -0.594587 1.63526 0
M  V30 1074 O 105.091 -0.49777 1.95152 0
M  V30 1075 C 102.156 -0.530929 3.42611 0
M  V30 1076 C 101.217 0.369843 4.27704 0
M  V30 1077 C 100.45 -0.403853 5.3217 0
M  V30 1078 O 100.673 -1.63513 5.46461 0
M  V30 1079 O 99.6069 0.224199 6.01482 0
M  V30 1080 H 103.433 1.10744 2.82789 0
M  V30 1081 H 101.018 0.60545 1.36582 0
M  V30 1082 H 102.9 -0.992437 4.09547 0
M  V30 1083 H 101.575 -1.33392 2.94938 0
M  V30 1084 H 100.482 0.879275 3.6362 0
M  V30 1085 H 101.815 1.13771 4.78871 0
M  V30 1086 N 103.467 -1.45747 0.599634 0
M  V30 1087 C 104.878 -1.85853 0.177681 0
M  V30 1088 C 105.229 -1.50102 -1.26348 0
M  V30 1089 O 104.354 -0.923905 -1.95686 0
M  V30 1090 C 104.949 -3.37326 0.315688 0
M  V30 1091 C 103.508 -3.76365 -0.0515144 0
M  V30 1092 C 102.655 -2.69722 0.643822 0
M  V30 1093 H 105.606 -1.36661 0.806814 0
M  V30 1094 H 105.627 -3.77778 -0.454321 0
M  V30 1095 H 105.139 -3.63315 1.36468 0
M  V30 1096 H 103.24 -3.55993 -1.09999 0
M  V30 1097 H 103.353 -4.77916 0.336594 0
M  V30 1098 H 101.717 -2.54567 0.0822881 0
M  V30 1099 H 102.5 -2.98549 1.6948 0
M  V30 1100 N 104.945 -0.338344 -1.53925 0
M  V30 1101 C 106.361 0.0137736 -1.59594 0
M  V30 1102 C 106.561 1.49186 -1.35447 0
M  V30 1103 O 105.617 2.24987 -1.14616 0
M  V30 1104 C 106.93 -0.41773 -2.97784 0
M  V30 1105 C 108.478 -0.369633 -3.1081 0
M  V30 1106 C 108.953 -0.776524 -4.51369 0
M  V30 1107 N 110.444 -0.730506 -4.57403 0
M  V30 1108 C 111.179 -1.01736 -5.64303 0
M  V30 1109 N 110.675 -1.3721 -6.79077 0
M  V30 1110 N 112.468 -0.941942 -5.54151 0
M  V30 1111 H 104.619 -1.3012 -1.67876 0
M  V30 1112 H 106.882 -0.530082 -0.78595 0
M  V30 1113 H 106.588 -1.44811 -3.20504 0
M  V30 1114 H 106.462 0.209729 -3.76616 0
M  V30 1115 H 108.849 0.651568 -2.87817 0
M  V30 1116 H 108.93 -1.03223 -2.34049 0
M  V30 1117 H 108.574 -1.79571 -4.75096 0
M  V30 1118 H 108.504 -0.0914649 -5.26521 0
M  V30 1119 H 110.995 -0.468783 -3.74981 0
M  V30 1120 H 111.308 -1.57597 -7.5656 0
M  V30 1121 H 109.653 -1.4105 -6.80536 0
M  V30 1122 H 112.844 -0.664184 -4.63364 0
M  V30 1123 H 113.017 -1.16884 -6.37371 0
M  V30 1124 N 106.423 1.57458 -0.0668435 0
M  V30 1125 C 107.386 2.11323 0.887422 0
M  V30 1126 C 108.386 1.03618 1.22964 0
M  V30 1127 O 109.576 1.29626 1.16373 0
M  V30 1128 C 106.708 2.61048 2.19242 0
M  V30 1129 H 107.901 2.96942 0.420194 0
M  V30 1130 H 105.454 1.55239 0.181793 0
M  V30 1131 H 106.189 1.78868 2.70512 0
M  V30 1132 H 105.974 3.39769 1.95702 0
M  V30 1133 H 107.464 3.02814 2.87565 0
M  V30 1134 N 107.901 -0.206675 1.56239 0
M  V30 1135 C 109.312 -0.772383 1.69974 0
M  V30 1136 C 109.663 -1.84353 0.671436 0
M  V30 1137 O 108.788 -2.15695 -0.174491 0
M  V30 1138 C 109.383 -1.40779 3.08167 0
M  V30 1139 C 107.942 -1.92072 3.23706 0
M  V30 1140 C 107.089 -0.786347 2.65917 0
M  V30 1141 H 110.04 0.0182223 1.5869 0
M  V30 1142 H 110.061 -2.27696 3.04852 0
M  V30 1143 H 109.573 -0.627958 3.82986 0
M  V30 1144 H 107.674 -2.7281 2.53782 0
M  V30 1145 H 107.787 -2.09046 4.31087 0
M  V30 1146 H 106.151 -1.1976 2.24788 0
M  V30 1147 H 106.934 -0.0189416 3.43295 0
M  V30 1148 N 109.379 -1.50304 -0.473955 0
M  V30 1149 C 110.625 -1.62358 -1.22521 0
M  V30 1150 C 110.98 -0.318555 -1.89745 0
M  V30 1151 O 110.273 0.683315 -1.79001 0
M  V30 1152 C 110.467 -2.73938 -2.29549 0
M  V30 1153 C 110.296 -4.15165 -1.72825 0
M  V30 1154 C 109.066 -4.81604 -1.52924 0
M  V30 1155 C 111.264 -4.99503 -1.22481 0
M  V30 1156 N 109.246 -6.07056 -0.91413 0
M  V30 1157 C 110.617 -6.15655 -0.732743 0
M  V30 1158 C 112.672 -4.85299 -1.11308 0
M  V30 1159 C 111.375 -7.19164 -0.139976 0
M  V30 1160 C 113.401 -5.88982 -0.534258 0
M  V30 1161 C 112.763 -7.0438 -0.0525562 0
M  V30 1162 H 108.862 -0.648286 -0.437321 0
M  V30 1163 H 111.446 -1.87413 -0.527692 0
M  V30 1164 H 109.617 -2.50611 -2.9673 0
M  V30 1165 H 111.349 -2.75366 -2.96573 0
M  V30 1166 H 108.104 -4.3885 -1.78067 0
M  V30 1167 H 108.528 -6.74108 -0.625071 0
M  V30 1168 H 113.17 -3.96369 -1.47144 0
M  V30 1169 H 110.888 -8.07771 0.230591 0
M  V30 1170 H 114.474 -5.80055 -0.450219 0
M  V30 1171 H 113.354 -7.83238 0.388324 0
M  V30 1172 N 110.857 0.726932 -1.39834 0
M  V30 1173 C 112.106 1.48214 -1.36805 0
M  V30 1174 C 112.419 1.95576 0.0305291 0
M  V30 1175 O 113.625 2.7088 0.183417 0
M  V30 1176 C 112.081 2.67854 -2.40379 0
M  V30 1177 C 111.689 2.27408 -3.85992 0
M  V30 1178 C 113.433 3.45641 -2.46439 0
M  V30 1179 C 111.34 3.43819 -4.81189 0
M  V30 1180 H 110.27 0.556606 -0.508631 0
M  V30 1181 H 112.921 0.792216 -1.65518 0
M  V30 1182 H 111.303 3.3896 -2.04749 0
M  V30 1183 H 112.477 1.63795 -4.30706 0
M  V30 1184 H 110.792 1.62692 -3.83302 0
M  V30 1185 H 113.389 4.32244 -3.14753 0
M  V30 1186 H 113.732 3.88669 -1.49139 0
M  V30 1187 H 114.265 2.8157 -2.81004 0
M  V30 1188 H 111.004 3.05834 -5.79781 0
M  V30 1189 H 110.524 4.06385 -4.41148 0
M  V30 1190 H 112.203 4.10043 -5.00474 0
M  V30 1191 N 112.336 1.25143 0.95797 0
M  V30 1192 C 113.246 1.06968 2.08794 0
M  V30 1193 C 114.262 0.00773911 1.73998 0
M  V30 1194 O 115.438 0.207972 2.00323 0
M  V30 1195 C 112.503 0.68691 3.39827 0
M  V30 1196 C 111.564 1.82641 3.88511 0
M  V30 1197 C 110.797 1.46181 5.1329 0
M  V30 1198 O 111.02 0.355971 5.69288 0
M  V30 1199 O 109.954 2.29085 5.566 0
M  V30 1200 H 113.78 2.01723 2.27027 0
M  V30 1201 H 111.365 1.04051 1.07209 0
M  V30 1202 H 113.247 0.485417 4.18595 0
M  V30 1203 H 111.922 -0.231417 3.22872 0
M  V30 1204 H 110.829 2.08274 3.10762 0
M  V30 1205 H 112.162 2.72386 4.09959 0
M  V30 1206 N 113.814 -1.1601 1.06675 0
M  V30 1207 C 114.746 -2.20115 0.638921 0
M  V30 1208 C 115.759 -1.59916 -0.305057 0
M  V30 1209 O 116.948 -1.78245 -0.0954446 0
M  V30 1210 C 114.048 -3.38798 -0.0830083 0
M  V30 1211 C 113.221 -4.2855 0.875426 0
M  V30 1212 C 112.28 -5.25849 0.192042 0
M  V30 1213 O 111.306 -5.63102 0.830921 0
M  V30 1214 N 112.508 -5.70648 -1.06493 0
M  V30 1215 H 115.273 -2.57439 1.53444 0
M  V30 1216 H 112.834 -1.31057 0.950557 0
M  V30 1217 H 114.826 -4.00936 -0.550685 0
M  V30 1218 H 113.396 -2.99947 -0.880386 0
M  V30 1219 H 112.616 -3.63617 1.52238 0
M  V30 1220 H 113.904 -4.85393 1.52548 0
M  V30 1221 H 113.302 -5.42482 -1.60405 0
M  V30 1222 H 111.859 -6.34859 -1.47641 0
M  V30 1223 N 115.292 -0.849877 -1.32721 0
M  V30 1224 C 116.202 -0.293791 -2.32753 0
M  V30 1225 C 117.218 0.585906 -1.63839 0
M  V30 1226 O 118.394 0.487413 -1.95413 0
M  V30 1227 C 115.459 0.512752 -3.42887 0
M  V30 1228 C 114.52 -0.39252 -4.27502 0
M  V30 1229 C 113.753 0.375625 -5.32377 0
M  V30 1230 O 113.976 1.60613 -5.4732 0
M  V30 1231 O 112.91 -0.256094 -6.01355 0
M  V30 1232 H 116.736 -1.12242 -2.82197 0
M  V30 1233 H 114.321 -0.612685 -1.36259 0
M  V30 1234 H 116.203 0.970704 -4.10067 0
M  V30 1235 H 114.878 1.31826 -2.95641 0
M  V30 1236 H 113.785 -0.898547 -3.63149 0
M  V30 1237 H 115.118 -1.16309 -4.7826 0
M  V30 1238 N 116.77 1.45427 -0.607355 0
M  V30 1239 C 118.018 2.01841 -0.102253 0
M  V30 1240 C 118.339 1.47832 1.27164 0
M  V30 1241 O 117.609 0.672497 1.83995 0
M  V30 1242 H 116.189 0.746188 -0.0348101 0
M  V30 1243 H 118.851 1.78229 -0.7887 0
M  V30 1244 H 117.947 3.12057 -0.0518585 0
M  V30 1245 N 118.248 0.346503 1.53744 0
M  V30 1246 C 119.659 -0.136779 1.86198 0
M  V30 1247 C 120.01 -1.49749 1.26766 0
M  V30 1248 O 119.135 -2.08417 0.582355 0
M  V30 1249 C 119.73 -0.254966 3.37839 0
M  V30 1250 C 118.289 -0.682482 3.70161 0
M  V30 1251 C 117.436 0.181981 2.76702 0
M  V30 1252 H 120.387 0.565994 1.48264 0
M  V30 1253 H 120.408 -1.08195 3.64793 0
M  V30 1254 H 119.92 0.735526 3.81066 0
M  V30 1255 H 118.021 -1.68189 3.3248 0
M  V30 1256 H 118.134 -0.470326 4.76786 0
M  V30 1257 H 116.498 -0.34615 2.52337 0
M  V30 1258 H 117.281 1.16966 3.2276 0
M  V30 1259 N 119.726 -1.57421 0.075193 0
M  V30 1260 C 120.636 -2.1642 -0.905511 0
M  V30 1261 C 121.652 -1.12828 -1.32461 0
M  V30 1262 O 122.828 -1.45109 -1.39661 0
M  V30 1263 C 119.893 -2.71693 -2.15369 0
M  V30 1264 C 118.954 -3.90171 -1.79068 0
M  V30 1265 C 118.187 -4.42798 -2.97936 0
M  V30 1266 O 118.41 -3.94416 -4.12058 0
M  V30 1267 O 117.344 -5.34085 -2.77555 0
M  V30 1268 H 121.17 -3.00588 -0.433626 0
M  V30 1269 H 118.755 -1.48664 -0.148067 0
M  V30 1270 H 120.637 -3.07104 -2.88557 0
M  V30 1271 H 119.312 -1.90582 -2.61649 0
M  V30 1272 H 118.219 -3.59606 -1.03122 0
M  V30 1273 H 119.552 -4.72584 -1.37569 0
M  V30 1274 N 121.204 0.198386 -1.56346 0
M  V30 1275 C 122.434 0.934215 -1.84271 0
M  V30 1276 C 122.842 1.77496 -0.655125 0
M  V30 1277 O 122.185 1.7961 0.385488 0
M  V30 1278 C 122.247 1.88278 -3.06254 0
M  V30 1279 C 121.911 1.22431 -4.40295 0
M  V30 1280 C 122.908 0.602839 -5.16393 0
M  V30 1281 C 120.593 1.22915 -4.87029 0
M  V30 1282 C 122.587 -0.0050083 -6.374 0
M  V30 1283 C 120.274 0.617465 -6.07973 0
M  V30 1284 C 121.272 0.00146341 -6.83 0
M  V30 1285 O 120.96 -0.600642 -8.01653 0
M  V30 1286 H 120.692 0.278245 -0.616081 0
M  V30 1287 H 123.246 0.211626 -2.04307 0
M  V30 1288 H 121.476 2.64498 -2.82095 0
M  V30 1289 H 123.165 2.48612 -3.20853 0
M  V30 1290 H 123.931 0.591265 -4.81382 0
M  V30 1291 H 119.81 1.69801 -4.28589 0
M  V30 1292 H 123.354 -0.48643 -6.95902 0
M  V30 1293 H 119.251 0.62653 -6.42452 0
M  V30 1294 H 120.019 -0.497225 -8.16988 0
M  V30 1295 N 122.682 1.50554 0.465978 0
M  V30 1296 C 123.928 1.63006 1.21658 0
M  V30 1297 C 124.283 0.328613 1.89573 0
M  V30 1298 O 123.576 -0.673813 1.79361 0
M  V30 1299 C 123.77 2.75152 2.28093 0
M  V30 1300 C 123.599 4.16075 1.7062 0
M  V30 1301 C 122.369 4.82408 1.50368 0
M  V30 1302 C 124.567 5.00145 1.1983 0
M  V30 1303 N 122.549 6.07532 0.881924 0
M  V30 1304 C 123.92 6.16035 0.700083 0
M  V30 1305 C 125.975 4.85882 1.08733 0
M  V30 1306 C 124.678 7.19228 0.101835 0
M  V30 1307 C 126.704 5.89257 0.503016 0
M  V30 1308 C 126.066 7.04398 0.0152005 0
M  V30 1309 H 122.165 0.650596 0.433877 0
M  V30 1310 H 124.749 1.8769 0.517746 0
M  V30 1311 H 122.92 2.52181 2.95397 0
M  V30 1312 H 124.652 2.76935 2.95109 0
M  V30 1313 H 121.407 4.39788 1.75737 0
M  V30 1314 H 121.831 6.7443 0.589312 0
M  V30 1315 H 126.473 3.97144 1.4504 0
M  V30 1316 H 124.191 8.07637 -0.273426 0
M  V30 1317 H 127.777 5.80286 0.419451 0
M  V30 1318 H 126.657 7.83021 -0.429856 0
M  V30 1319 N 124.16 -0.719506 1.40217 0
M  V30 1320 C 125.437 -1.47221 1.28784 0
M  V30 1321 C 125.817 -2.10883 -0.0956067 0
M  V30 1322 O 125.165 -1.99833 -1.10811 0
M  V30 1323 C 125.375 -2.5111 2.42373 0
M  V30 1324 C 126.723 -3.17053 2.82423 0
M  V30 1325 O 127.747 -2.61429 2.41937 0
M  V30 1326 O 126.606 -4.17742 3.52355 0
M  V30 1327 H 123.7 -0.654491 0.50554 0
M  V30 1328 H 126.246 -0.752014 1.52128 0
M  V30 1329 H 125.018 -2.02556 3.34793 0
M  V30 1330 H 124.641 -3.3067 2.20778 0
M  V30 1331 N 125.638 -1.25649 -0.95132 0
M  V30 1332 C 126.57 -1.02112 -2.05197 0
M  V30 1333 C 127.583 0.0150571 -1.62793 0
M  V30 1334 O 128.772 -0.223874 -1.77091 0
M  V30 1335 C 125.872 -0.522361 -3.3485 0
M  V30 1336 C 125.045 -1.62546 -4.06076 0
M  V30 1337 C 124.104 -1.12649 -5.14001 0
M  V30 1338 O 123.13 -1.82156 -5.39266 0
M  V30 1339 N 124.332 0.03047 -5.80492 0
M  V30 1340 H 127.097 -1.96885 -2.25957 0
M  V30 1341 H 124.658 -1.16899 -1.1201 0
M  V30 1342 H 126.65 -0.172961 -4.0433 0
M  V30 1343 H 125.22 0.33151 -3.10837 0
M  V30 1344 H 124.44 -2.14628 -3.30649 0
M  V30 1345 H 125.728 -2.36644 -4.50419 0
M  V30 1346 H 125.126 0.611169 -5.62389 0
M  V30 1347 H 123.683 0.320875 -6.5101 0
M  V30 1348 N 127.117 1.15442 -1.07289 0
M  V30 1349 C 128.027 2.23786 -0.704057 0
M  V30 1350 C 129.043 1.7166 0.284413 0
M  V30 1351 O 130.219 2.00972 0.131205 0
M  V30 1352 C 127.284 3.46535 -0.106792 0
M  V30 1353 C 126.345 4.13654 -1.14842 0
M  V30 1354 C 125.578 5.30544 -0.57956 0
M  V30 1355 O 125.801 5.67187 0.604585 0
M  V30 1356 O 124.735 5.87154 -1.32414 0
M  V30 1357 H 128.561 2.57664 -1.60757 0
M  V30 1358 H 126.146 1.23152 -0.845803 0
M  V30 1359 H 128.028 4.20804 0.224048 0
M  V30 1360 H 126.703 3.14407 0.770049 0
M  V30 1361 H 125.61 3.4131 -1.5316 0
M  V30 1362 H 126.943 4.49861 -1.99714 0
M  V30 1363 N 128.595 0.856903 1.32268 0
M  V30 1364 C 129.823 0.475439 2.01363 0
M  V30 1365 C 130.238 -0.928486 1.64392 0
M  V30 1366 O 129.595 -1.60624 0.866387 0
M  V30 1367 C 129.646 0.607545 3.56358 0
M  V30 1368 O 129.367 1.95617 3.92002 0
M  V30 1369 C 130.868 0.225382 4.42727 0
M  V30 1370 H 128.088 0.186636 0.644521 0
M  V30 1371 H 130.632 1.15446 1.68797 0
M  V30 1372 H 128.787 -0.0237719 3.87393 0
M  V30 1373 H 129.201 1.95455 4.86721 0
M  V30 1374 H 130.675 0.368813 5.50767 0
M  V30 1375 H 131.152 -0.834369 4.31202 0
M  V30 1376 H 131.758 0.831864 4.17085 0
M  V30 1377 N 130.073 -1.45103 0.615059 0
M  V30 1378 C 131.489 -1.57137 0.279322 0
M  V30 1379 C 131.689 -1.60523 -1.21797 0
M  V30 1380 O 130.745 -1.53956 -2.00134 0
M  V30 1381 C 132.058 -2.85062 0.957083 0
M  V30 1382 C 133.606 -2.98749 0.933706 0
M  V30 1383 C 134.081 -4.29455 1.59162 0
M  V30 1384 N 135.572 -4.36231 1.55746 0
M  V30 1385 C 136.307 -5.36051 2.0356 0
M  V30 1386 N 135.803 -6.42367 2.59494 0
M  V30 1387 N 137.596 -5.27456 1.94284 0
M  V30 1388 H 129.747 -1.41148 1.58717 0
M  V30 1389 H 132.01 -0.675331 0.665306 0
M  V30 1390 H 131.716 -2.88488 2.01166 0
M  V30 1391 H 131.59 -3.7407 0.48494 0
M  V30 1392 H 133.977 -2.94886 -0.112347 0
M  V30 1393 H 134.058 -2.11132 1.44419 0
M  V30 1394 H 133.702 -4.34077 2.63704 0
M  V30 1395 H 133.632 -5.15901 1.0561 0
M  V30 1396 H 136.123 -3.60011 1.14893 0
M  V30 1397 H 136.436 -7.14793 2.93752 0
M  V30 1398 H 134.781 -6.43097 2.63537 0
M  V30 1399 H 137.972 -4.43308 1.5032 0
M  V30 1400 H 138.145 -6.05099 2.3186 0
M  V30 1401 N 131.551 -0.354651 -1.53558 0
M  V30 1402 C 132.499 0.512195 -2.26891 0
M  V30 1403 C 133.493 1.09263 -1.29452 0
M  V30 1404 O 134.699 1.03709 -1.47121 0
M  V30 1405 H 131.074 0.183878 -0.729173 0
M  V30 1406 H 133.045 -0.128202 -2.98124 0
M  V30 1407 C 131.794 1.64563 -3.06291 0
M  V30 1408 H 131.117 1.20829 -3.81104 0
M  V30 1409 H 132.557 2.22711 -3.60799 0
M  V30 1410 C 131.016 2.58158 -2.16462 0
M  V30 1411 O 131.546 3.60695 -1.76811 0
M  V30 1412 N 129.752 2.27096 -1.81317 0
M  V30 1413 H 129.299 1.43751 -2.1376 0
M  V30 1414 H 129.257 2.89975 -1.21498 0
M  V30 1415 N 133.029 1.57378 -0.0835403 0
M  V30 1416 C 134.275 1.94217 0.583733 0
M  V30 1417 C 134.608 0.964653 1.68547 0
M  V30 1418 O 133.883 -0.00422258 1.945 0
M  V30 1419 C 134.166 3.41253 1.14972 0
M  V30 1420 C 134.019 4.49768 0.0538277 0
M  V30 1421 C 135.338 3.89352 2.05166 0
M  V30 1422 H 132.457 0.706233 0.210724 0
M  V30 1423 H 135.099 1.89392 -0.1519 0
M  V30 1424 H 133.249 3.45496 1.77665 0
M  V30 1425 H 134.921 4.57641 -0.579851 0
M  V30 1426 H 133.164 4.29432 -0.614068 0
M  V30 1427 H 133.835 5.49817 0.490452 0
M  V30 1428 H 136.311 3.87189 1.52393 0
M  V30 1429 H 135.187 4.92822 2.41698 0
M  V30 1430 H 135.448 3.27973 2.96456 0
M  V30 1431 N 134.507 -0.190092 1.56449 0
M  V30 1432 C 135.454 -1.23557 1.94942 0
M  V30 1433 C 136.424 -1.44972 0.810696 0
M  V30 1434 O 137.609 -1.58023 1.06927 0
M  V30 1435 C 134.749 -2.57416 2.2985 0
M  V30 1436 C 133.862 -2.43537 3.5681 0
M  V30 1437 C 132.997 -3.70134 3.81017 0
M  V30 1438 C 132.036 -3.51109 5.01387 0
M  V30 1439 N 131.173 -4.6973 5.21822 0
M  V30 1440 H 136.013 -0.900304 2.84075 0
M  V30 1441 H 133.55 -0.43318 1.40577 0
M  V30 1442 H 135.508 -3.35409 2.48106 0
M  V30 1443 H 134.138 -2.88975 1.43852 0
M  V30 1444 H 133.19 -1.56816 3.46573 0
M  V30 1445 H 134.502 -2.25415 4.4496 0
M  V30 1446 H 133.656 -4.56566 3.9954 0
M  V30 1447 H 132.395 -3.91215 2.91207 0
M  V30 1448 H 131.4 -2.63063 4.82782 0
M  V30 1449 H 132.625 -3.31468 5.9271 0
M  V30 1450 H 130.571 -4.91065 4.34961 0
M  V30 1451 H 130.488 -4.54452 6.0416 0
M  V30 1452 H 131.756 -5.57499 5.44808 0
M  V30 1453 N 135.985 -1.50799 -0.457987 0
M  V30 1454 C 136.948 -1.7005 -1.53674 0
M  V30 1455 C 137.948 -0.570881 -1.50325 0
M  V30 1456 O 139.138 -0.838126 -1.52712 0
M  V30 1457 C 136.27 -1.73788 -2.93276 0
M  V30 1458 H 137.463 -2.66306 -1.37917 0
M  V30 1459 H 135.016 -1.40477 -0.685271 0
M  V30 1460 H 135.751 -0.792717 -3.14462 0
M  V30 1461 H 135.536 -2.55864 -2.97113 0
M  V30 1462 H 137.026 -1.90591 -3.71571 0
M  V30 1463 N 137.463 0.71206 -1.40597 0
M  V30 1464 C 138.395 1.83704 -1.37061 0
M  V30 1465 C 139.408 1.60453 -0.275426 0
M  V30 1466 O 140.597 1.70262 -0.53602 0
M  V30 1467 C 137.697 3.20172 -1.11099 0
M  V30 1468 C 136.87 3.7059 -2.3234 0
M  V30 1469 C 135.929 4.85681 -2.02485 0
M  V30 1470 O 134.955 4.9815 -2.75382 0
M  V30 1471 N 136.157 5.71735 -1.00497 0
M  V30 1472 H 138.922 1.87235 -2.34016 0
M  V30 1473 H 136.483 0.893739 -1.34996 0
M  V30 1474 H 138.475 3.94768 -0.891064 0
M  V30 1475 H 137.045 3.11767 -0.227989 0
M  V30 1476 H 136.265 2.87085 -2.7014 0
M  V30 1477 H 137.553 4.01011 -3.13157 0
M  V30 1478 H 136.951 5.64275 -0.401298 0
M  V30 1479 H 135.508 6.463 -0.844942 0
M  V30 1480 N 138.941 1.26152 0.944643 0
M  V30 1481 C 140.166 1.14363 1.7302 0
M  V30 1482 C 140.591 -0.29772 1.85729 0
M  V30 1483 O 139.949 -1.2157 1.34501 0
M  V30 1484 C 139.997 1.81378 3.11664 0
M  V30 1485 O 139.101 1.10022 3.97453 0
M  V30 1486 H 138.442 0.398694 0.53098 0
M  V30 1487 H 140.972 1.66906 1.18337 0
M  V30 1488 H 140.982 1.88064 3.62072 0
M  V30 1489 H 139.657 2.86237 3.0173 0
M  V30 1490 H 138.234 1.11287 3.55907 0
M  V30 1491 N 140.419 -1.14872 1.07899 0
M  V30 1492 C 141.351 -2.19425 0.662231 0
M  V30 1493 C 142.364 -1.60231 -0.288079 0
M  V30 1494 O 143.553 -1.78336 -0.076534 0
M  V30 1495 C 140.653 -3.38867 -0.0470695 0
M  V30 1496 C 139.826 -4.27597 0.920831 0
M  V30 1497 C 138.885 -5.25616 0.247805 0
M  V30 1498 O 137.911 -5.62189 0.890599 0
M  V30 1499 N 139.113 -5.71746 -1.00435 0
M  V30 1500 H 141.878 -2.55797 1.56166 0
M  V30 1501 H 139.439 -1.30042 0.964404 0
M  V30 1502 H 141.431 -4.01497 -0.50813 0
M  V30 1503 H 140.001 -3.00864 -0.848523 0
M  V30 1504 H 139.221 -3.61982 1.56087 0
M  V30 1505 H 140.509 -4.83748 1.57688 0
M  V30 1506 H 139.907 -5.44153 -1.54642 0
M  V30 1507 H 138.464 -6.36389 -1.40899 0
M  V30 1508 N 141.898 -0.863906 -1.31812 0
M  V30 1509 C 143.126 -0.486111 -2.01108 0
M  V30 1510 C 143.541 0.919755 -1.64882 0
M  V30 1511 O 142.898 1.60162 -0.874893 0
M  V30 1512 C 142.949 -0.626435 -3.56031 0
M  V30 1513 O 142.67 -1.97693 -3.90959 0
M  V30 1514 C 144.171 -0.248857 -4.42601 0
M  V30 1515 H 141.391 -0.190052 -0.643523 0
M  V30 1516 H 143.935 -1.1634 -1.68182 0
M  V30 1517 H 142.09 0.00322717 -3.874 0
M  V30 1518 H 142.504 -1.98034 -4.85678 0
M  V30 1519 H 143.978 -0.398016 -5.50563 0
M  V30 1520 H 144.455 0.811489 -4.31638 0
M  V30 1521 H 145.061 -0.853971 -4.16638 0
M  V30 1522 N 143.376 1.44774 -0.622745 0
M  V30 1523 C 144.653 1.95522 -0.0551974 0
M  V30 1524 C 145.033 1.5649 1.41683 0
M  V30 1525 O 144.381 0.834848 2.12703 0
M  V30 1526 C 144.591 3.4796 -0.269242 0
M  V30 1527 C 145.939 4.24306 -0.158014 0
M  V30 1528 O 146.963 3.55637 -0.200162 0
M  V30 1529 O 145.822 5.46471 -0.0558693 0
M  V30 1530 H 142.916 0.826556 0.0271015 0
M  V30 1531 H 145.462 1.54866 -0.693864 0
M  V30 1532 H 144.234 3.6939 -1.29099 0
M  V30 1533 H 143.857 3.95543 0.403966 0
M  V30 1534 N 144.854 0.36279 1.53368 0
M  V30 1535 C 146.27 0.0116182 1.59596 0
M  V30 1536 C 146.47 -1.47012 1.37803 0
M  V30 1537 O 145.526 -2.23136 1.18181 0
M  V30 1538 C 146.839 0.465052 2.97082 0
M  V30 1539 C 148.387 0.419033 3.10182 0
M  V30 1540 C 148.862 0.848235 4.50077 0
M  V30 1541 N 150.353 0.803183 4.56183 0
M  V30 1542 C 151.088 1.107 5.62613 0
M  V30 1543 N 150.584 1.47996 6.76808 0
M  V30 1544 N 152.377 1.02998 5.52583 0
M  V30 1545 H 144.528 1.32775 1.65785 0
M  V30 1546 H 146.791 0.542518 0.777417 0
M  V30 1547 H 146.497 1.49892 3.18159 0
M  V30 1548 H 146.371 -0.149786 3.76902 0
M  V30 1549 H 148.758 -0.605696 2.88817 0
M  V30 1550 H 148.839 1.06933 2.32377 0
M  V30 1551 H 148.483 1.87107 4.7218 0
M  V30 1552 H 148.413 0.175218 5.26308 0
M  V30 1553 H 150.904 0.52838 3.74188 0
M  V30 1554 H 151.217 1.69613 7.53957 0
M  V30 1555 H 149.562 1.51859 6.78206 0
M  V30 1556 H 152.753 0.737817 4.62249 0
M  V30 1557 H 152.926 1.2701 6.35431 0
M  V30 1558 N 146.332 -1.57332 0.0918853 0
M  V30 1559 C 147.578 -1.94524 -0.573425 0
M  V30 1560 C 147.911 -0.973578 -1.68033 0
M  V30 1561 O 147.186 -0.00609226 -1.94499 0
M  V30 1562 C 147.469 -3.41858 -1.13161 0
M  V30 1563 C 147.322 -4.4979 -0.0299747 0
M  V30 1564 C 148.641 -3.90435 -2.03098 0
M  V30 1565 H 145.76 -0.70734 -0.206975 0
M  V30 1566 H 148.402 -1.89309 0.161942 0
M  V30 1567 H 146.552 -3.46433 -1.7583 0
M  V30 1568 H 148.224 -4.57327 0.604112 0
M  V30 1569 H 146.467 -4.291 0.636833 0
M  V30 1570 H 147.138 -5.50069 -0.461287 0
M  V30 1571 H 149.614 -3.87992 -1.50338 0
M  V30 1572 H 148.49 -4.94097 -2.39081 0
M  V30 1573 H 148.751 -3.29541 -2.94712 0
M  V30 1574 N 147.81 0.181792 -1.56548 0
M  V30 1575 C 149.087 0.926765 -1.72251 0
M  V30 1576 C 149.467 2.00831 -0.650386 0
M  V30 1577 O 148.815 2.26008 0.336521 0
M  V30 1578 C 149.025 1.50106 -3.1507 0
M  V30 1579 C 150.373 1.97805 -3.75711 0
M  V30 1580 O 151.397 1.59922 -3.18282 0
M  V30 1581 O 150.256 2.67555 -4.76525 0
M  V30 1582 H 147.35 0.435506 -0.703039 0
M  V30 1583 H 149.896 0.170443 -1.68842 0
M  V30 1584 H 148.668 0.72212 -3.84579 0
M  V30 1585 H 148.291 2.32186 -3.22763 0
M  V30 1586 N 149.288 1.51039 0.449983 0
M  V30 1587 C 150.218 1.74379 1.55288 0
M  V30 1588 C 151.199 0.593236 1.5942 0
M  V30 1589 O 152.384 0.834625 1.7535 0
M  V30 1590 C 149.514 1.85728 2.93466 0
M  V30 1591 C 148.468 3.01078 3.04197 0
M  V30 1592 C 147.794 2.97595 4.44231 0
M  V30 1593 C 149.094 4.41254 2.7945 0
M  V30 1594 H 150.788 2.66725 1.36008 0
M  V30 1595 H 148.334 1.2835 0.652864 0
M  V30 1596 H 150.287 2.0064 3.70569 0
M  V30 1597 H 149.011 0.900207 3.13949 0
M  V30 1598 H 147.67 2.85851 2.29531 0
M  V30 1599 H 147.318 1.99691 4.61663 0
M  V30 1600 H 147.018 3.75046 4.52343 0
M  V30 1601 H 148.542 3.14583 5.23326 0
M  V30 1602 H 149.956 4.56897 3.46292 0
M  V30 1603 H 148.353 5.20315 2.98985 0
M  V30 1604 H 149.423 4.52164 1.75144 0
M  V30 1605 N 150.766 -0.704594 1.40972 0
M  V30 1606 C 152.014 -1.46169 1.39568 0
M  V30 1607 C 152.335 -1.95 0.00253745 0
M  V30 1608 O 151.605 -1.71095 -0.954114 0
M  V30 1609 H 150.185 -0.542326 0.513704 0
M  V30 1610 H 152.847 -0.834553 1.76128 0
M  V30 1611 H 151.943 -2.32922 2.07735 0
M  V30 1612 N 152.244 -1.26651 -0.937939 0
M  V30 1613 C 153.472 -1.15173 -1.7188 0
M  V30 1614 C 153.887 0.292668 -1.86518 0
M  V30 1615 O 153.244 1.20014 -1.37488 0
M  V30 1616 C 153.295 -1.81925 -3.12387 0
M  V30 1617 O 153.016 -3.2072 -2.98446 0
M  V30 1618 C 154.517 -1.76442 -4.06673 0
M  V30 1619 H 151.737 -0.400911 -0.538063 0
M  V30 1620 H 154.281 -1.67332 -1.1756 0
M  V30 1621 H 152.436 -1.33696 -3.63599 0
M  V30 1622 H 152.85 -3.53802 -3.872 0
M  V30 1623 H 154.324 -2.27781 -5.02812 0
M  V30 1624 H 154.801 -0.731608 -4.33064 0
M  V30 1625 H 155.407 -2.24238 -3.61382 0
M  V30 1626 N 153.722 1.14298 -1.08507 0
M  V30 1627 C 154.652 2.21542 -0.737646 0
M  V30 1628 C 155.633 1.67773 0.280377 0
M  V30 1629 O 156.818 1.93616 0.150521 0
M  V30 1630 C 153.948 3.46988 -0.147259 0
M  V30 1631 C 152.902 4.13789 -1.09374 0
M  V30 1632 C 152.228 5.33449 -0.365524 0
M  V30 1633 C 153.528 4.62208 -2.4323 0
M  V30 1634 H 155.222 2.5086 -1.6343 0
M  V30 1635 H 152.768 1.20576 -0.787243 0
M  V30 1636 H 154.721 4.21262 0.107808 0
M  V30 1637 H 153.445 3.17037 0.784538 0
M  V30 1638 H 152.104 3.4147 -1.33393 0
M  V30 1639 H 151.752 4.99759 0.57011 0
M  V30 1640 H 151.452 5.79088 -0.996512 0
M  V30 1641 H 152.976 6.10485 -0.118534 0
M  V30 1642 H 154.39 5.27952 -2.23472 0
M  V30 1643 H 152.787 5.18553 -3.02031 0
M  V30 1644 H 153.857 3.77224 -3.04681 0
M  V30 1645 N 155.201 0.870884 1.31352 0
M  V30 1646 C 156.617 0.562932 1.49343 0
M  V30 1647 C 156.817 -0.902725 1.80148 0
M  V30 1648 O 155.873 -1.68484 1.88067 0
M  V30 1649 C 157.186 1.46393 2.62659 0
M  V30 1650 C 158.734 1.46607 2.76542 0
M  V30 1651 C 159.209 2.35266 3.92955 0
M  V30 1652 N 160.7 2.33151 4.00243 0
M  V30 1653 C 161.435 2.98471 4.89594 0
M  V30 1654 N 160.931 3.72964 5.8384 0
M  V30 1655 N 162.724 2.87775 4.82848 0
M  V30 1656 H 154.875 1.81923 1.09626 0
M  V30 1657 H 157.138 0.777934 0.541777 0
M  V30 1658 H 156.844 2.50689 2.46674 0
M  V30 1659 H 156.718 1.16314 3.58819 0
M  V30 1660 H 159.105 0.43069 2.9194 0
M  V30 1661 H 159.186 1.8071 1.81046 0
M  V30 1662 H 158.83 3.38881 3.78315 0
M  V30 1663 H 158.76 1.98487 4.87761 0
M  V30 1664 H 161.251 1.79006 3.32814 0
M  V30 1665 H 161.564 4.19932 6.4875 0
M  V30 1666 H 159.909 3.77073 5.83816 0
M  V30 1667 H 163.1 2.29116 4.08195 0
M  V30 1668 H 163.273 3.38961 5.52277 0
M  V30 1669 N 156.679 -1.44442 0.630414 0
M  V30 1670 C 157.927 -2.01653 0.134351 0
M  V30 1671 C 158.248 -1.49836 -1.24796 0
M  V30 1672 O 157.518 -0.701684 -1.82902 0
M  V30 1673 H 156.098 -0.74554 0.0466769 0
M  V30 1674 H 158.76 -1.76952 0.816955 0
M  V30 1675 H 157.856 -3.11935 0.101498 0
M  V30 1676 N 158.157 -0.370918 -1.53173 0
M  V30 1677 C 159.387 0.217389 -2.05453 0
M  V30 1678 C 159.795 1.42568 -1.24382 0
M  V30 1679 O 159.138 1.81571 -0.278839 0
M  V30 1680 C 159.2 0.669827 -3.53205 0
M  V30 1681 C 158.864 -0.4225 -4.55043 0
M  V30 1682 C 159.861 -1.27407 -5.04047 0
M  V30 1683 C 157.546 -0.58427 -4.9889 0
M  V30 1684 C 159.54 -2.27271 -5.95505 0
M  V30 1685 C 157.227 -1.58627 -5.90153 0
M  V30 1686 C 158.225 -2.42892 -6.38351 0
M  V30 1687 O 157.913 -3.41382 -7.27814 0
M  V30 1688 H 157.645 0.0408171 -0.674767 0
M  V30 1689 H 160.199 -0.5292 -1.98466 0
M  V30 1690 H 158.429 1.4681 -3.57748 0
M  V30 1691 H 160.118 1.18173 -3.88317 0
M  V30 1692 H 160.884 -1.16031 -4.70916 0
M  V30 1693 H 156.763 0.061851 -4.60959 0
M  V30 1694 H 160.307 -2.93079 -6.33049 0
M  V30 1695 H 156.204 -1.70048 -6.22699 0
M  V30 1696 H 156.972 -3.37173 -7.45826 0
M  V30 1697 N 159.635 1.57281 -0.100228 0
M  V30 1698 C 160.865 1.98591 0.569681 0
M  V30 1699 C 161.273 0.978315 1.61943 0
M  V30 1700 O 160.616 -0.0396108 1.83657 0
M  V30 1701 C 160.678 3.36282 1.271 0
M  V30 1702 C 160.342 4.55488 0.371409 0
M  V30 1703 C 161.339 5.18491 -0.382504 0
M  V30 1704 C 159.024 5.01474 0.287965 0
M  V30 1705 C 161.018 6.25852 -1.20779 0
M  V30 1706 C 158.705 6.08701 -0.540965 0
M  V30 1707 C 159.703 6.70755 -1.28749 0
M  V30 1708 O 159.391 7.75914 -2.10269 0
M  V30 1709 H 159.123 0.65752 0.156982 0
M  V30 1710 H 161.677 2.0463 -0.177734 0
M  V30 1711 H 159.907 3.26941 2.0651 0
M  V30 1712 H 161.596 3.62005 1.83595 0
M  V30 1713 H 162.362 4.83891 -0.3278 0
M  V30 1714 H 158.241 4.52932 0.858689 0
M  V30 1715 H 161.785 6.74218 -1.79096 0
M  V30 1716 H 157.682 6.42732 -0.597131 0
M  V30 1717 H 158.45 7.92925 -2.03007 0
M  V30 1718 N 161.113 -0.173488 1.56642 0
M  V30 1719 C 162.061 -1.23417 1.97157 0
M  V30 1720 C 163.055 -1.45946 0.860013 0
M  V30 1721 O 164.261 -1.46551 1.04512 0
M  V30 1722 H 160.636 -0.414818 0.62724 0
M  V30 1723 H 162.607 -0.865582 2.8557 0
M  V30 1724 C 161.356 -2.5665 2.34576 0
M  V30 1725 H 160.679 -2.40137 3.19647 0
M  V30 1726 H 162.119 -3.2956 2.6677 0
M  V30 1727 C 160.578 -3.15245 1.18836 0
M  V30 1728 O 161.108 -3.98883 0.474869 0
M  V30 1729 N 159.314 -2.74303 0.959497 0
M  V30 1730 H 158.861 -2.0639 1.54146 0
M  V30 1731 H 158.819 -3.13844 0.186932 0
M  V30 1732 N 162.591 -1.51276 -0.441967 0
M  V30 1733 C 163.523 -1.68444 -1.55433 0
M  V30 1734 C 164.536 -0.565187 -1.52674 0
M  V30 1735 O 165.725 -0.839356 -1.57534 0
M  V30 1736 C 162.825 -1.67966 -2.94348 0
M  V30 1737 C 161.998 -2.964 -3.21661 0
M  V30 1738 C 161.057 -2.88171 -4.40277 0
M  V30 1739 O 160.083 -3.62119 -4.39157 0
M  V30 1740 N 161.285 -2.03706 -5.43584 0
M  V30 1741 H 164.05 -2.644 -1.41112 0
M  V30 1742 H 161.611 -1.49104 -0.630838 0
M  V30 1743 H 163.603 -1.60035 -3.71713 0
M  V30 1744 H 162.173 -0.796225 -3.0229 0
M  V30 1745 H 161.393 -3.18234 -2.32638 0
M  V30 1746 H 162.681 -3.81427 -3.36736 0
M  V30 1747 H 162.079 -1.42995 -5.47329 0
M  V30 1748 H 160.636 -2.01658 -6.1982 0
M  V30 1749 N 164.069 0.697108 -1.41344 0
M  V30 1750 C 165.294 1.49096 -1.44171 0
M  V30 1751 C 165.719 1.88038 -0.0481568 0
M  V30 1752 O 165.077 1.54525 0.948243 0
M  V30 1753 C 165.125 2.73088 -2.3549 0
M  V30 1754 O 164.229 3.70514 -1.81088 0
M  V30 1755 H 163.57 0.448801 -0.489361 0
M  V30 1756 H 166.1 0.856992 -1.85787 0
M  V30 1757 H 166.11 3.21413 -2.51312 0
M  V30 1758 H 164.785 2.44081 -3.36745 0
M  V30 1759 H 163.362 3.29441 -1.74708 0
M  V30 1760 N 165.547 1.27147 0.931209 0
M  V30 1761 C 166.457 1.11372 2.06478 0
M  V30 1762 C 167.473 0.044645 1.73943 0
M  V30 1763 O 168.649 0.250417 1.99837 0
M  V30 1764 C 165.714 0.758838 3.38294 0
M  V30 1765 C 164.775 1.90841 3.84549 0
M  V30 1766 C 164.008 1.57036 5.10074 0
M  V30 1767 O 164.231 0.476645 5.68405 0
M  V30 1768 O 163.165 2.40839 5.51616 0
M  V30 1769 H 166.991 2.06493 2.22698 0
M  V30 1770 H 164.576 1.06301 1.04978 0
M  V30 1771 H 166.458 0.574098 4.17471 0
M  V30 1772 H 165.133 -0.162879 3.2329 0
M  V30 1773 H 164.04 2.14819 3.06274 0
M  V30 1774 H 165.373 2.81021 4.04089 0
M  V30 1775 N 167.025 -1.13721 1.09112 0
M  V30 1776 C 167.988 -2.17222 0.731241 0
M  V30 1777 C 168.988 -1.59035 -0.237566 0
M  V30 1778 O 170.178 -1.74192 -0.0161704 0
M  V30 1779 C 167.31 -3.40804 0.0808443 0
M  V30 1780 H 168.503 -2.50573 1.64783 0
M  V30 1781 H 166.056 -1.28493 0.889897 0
M  V30 1782 H 166.791 -3.1304 -0.847127 0
M  V30 1783 H 166.576 -3.84306 0.777896 0
M  V30 1784 H 168.066 -4.1731 -0.155657 0
M  V30 1785 N 168.503 -0.877838 -1.30888 0
M  V30 1786 C 169.751 -0.491723 -1.96027 0
M  V30 1787 C 170.072 0.960827 -1.69685 0
M  V30 1788 O 169.342 1.67462 -1.01654 0
M  V30 1789 H 167.922 -0.17885 -0.725273 0
M  V30 1790 H 170.584 -1.11935 -1.59551 0
M  V30 1791 H 169.68 -0.656016 -3.05128 0
M  V30 1792 N 169.982 1.44106 -0.638065 0
M  V30 1793 C 171.207 2.0685 -0.150916 0
M  V30 1794 C 171.632 1.47417 1.16833 0
M  V30 1795 O 170.99 0.578264 1.71831 0
M  V30 1796 C 171.038 3.60555 -0.05708 0
M  V30 1797 O 170.142 4.00465 0.984972 0
M  V30 1798 H 169.483 0.658151 -0.0879399 0
M  V30 1799 H 172.013 1.84865 -0.876707 0
M  V30 1800 H 172.023 4.07789 0.131232 0
M  V30 1801 H 170.698 4.03193 -1.02021 0
M  V30 1802 H 169.275 3.64849 0.770672 0
M  V30 1803 N 171.46 0.379036 1.52974 0
M  V30 1804 C 172.41 -0.477772 2.22938 0
M  V30 1805 C 173.394 -1.03792 1.22948 0
M  V30 1806 O 174.586 -0.965725 1.48333 0
M  V30 1807 C 171.715 -1.60994 3.03209 0
M  V30 1808 C 170.801 -1.06203 4.10587 0
M  V30 1809 N 171.192 -0.238214 5.05239 0
M  V30 1810 C 169.49 -1.33554 4.25534 0
M  V30 1811 C 170.191 0.0633235 5.81666 0
M  V30 1812 N 169.167 -0.537901 5.40932 0
M  V30 1813 H 172.969 0.158295 2.93473 0
M  V30 1814 H 170.483 0.187778 1.61311 0
M  V30 1815 H 172.48 -2.23607 3.5186 0
M  V30 1816 H 171.14 -2.24893 2.34207 0
M  V30 1817 H 172.151 0.123695 5.17752 0
M  V30 1818 H 168.828 -1.97632 3.6776 0
M  V30 1819 H 170.218 0.730161 6.67921 0
M  V30 1820 N 172.938 -1.57226 0.108567 0
M  V30 1821 C 174.166 -1.99179 -0.559954 0
M  V30 1822 C 174.581 -0.988022 -1.60884 0
M  V30 1823 O 173.938 0.0205512 -1.82488 0
M  V30 1824 C 173.989 -3.41159 -1.19552 0
M  V30 1825 O 173.71 -4.37694 -0.188577 0
M  V30 1826 C 175.211 -3.98188 -1.94837 0
M  V30 1827 H 172.431 -0.654228 -0.149088 0
M  V30 1828 H 174.975 -2.03598 0.19183 0
M  V30 1829 H 173.13 -3.37711 -1.89815 0
M  V30 1830 H 173.544 -5.20469 -0.649014 0
M  V30 1831 H 175.018 -4.99644 -2.34648 0
M  V30 1832 H 175.495 -3.3675 -2.81951 0
M  V30 1833 H 176.101 -4.0515 -1.2936 0
M  V30 1834 N 174.416 0.165178 -1.56732 0
M  V30 1835 C 175.665 0.879143 -1.81532 0
M  V30 1836 C 175.978 1.83144 -0.686842 0
M  V30 1837 O 177.184 2.58823 -0.819944 0
M  V30 1838 C 175.64 1.61388 -3.21686 0
M  V30 1839 C 175.248 0.704904 -4.4242 0
M  V30 1840 C 176.992 2.3157 -3.55774 0
M  V30 1841 C 174.899 1.44022 -5.73595 0
M  V30 1842 H 173.829 0.332033 -0.676957 0
M  V30 1843 H 176.48 0.132008 -1.83025 0
M  V30 1844 H 174.862 2.40599 -3.14529 0
M  V30 1845 H 176.036 -0.0506815 -4.60772 0
M  V30 1846 H 174.351 0.112419 -4.16248 0
M  V30 1847 H 176.948 2.8719 -4.51028 0
M  V30 1848 H 177.291 3.07201 -2.8095 0
M  V30 1849 H 177.824 1.59297 -3.64513 0
M  V30 1850 H 174.563 0.72612 -6.51466 0
M  V30 1851 H 174.083 2.16898 -5.5921 0
M  V30 1852 H 175.762 1.98606 -6.15764 0
M  V30 1853 N 175.894 1.51508 0.433938 0
M  V30 1854 C 176.826 1.69266 1.54537 0
M  V30 1855 C 177.839 0.573276 1.52373 0
M  V30 1856 O 179.028 0.847698 1.57087 0
M  V30 1857 C 176.128 1.69524 2.93453 0
M  V30 1858 C 175.301 2.98101 3.20085 0
M  V30 1859 C 174.36 2.90502 4.38742 0
M  V30 1860 O 173.386 3.64442 4.3723 0
M  V30 1861 N 174.588 2.06586 5.42496 0
M  V30 1862 H 177.353 2.65145 1.39708 0
M  V30 1863 H 174.914 1.49437 0.622922 0
M  V30 1864 H 176.906 1.62004 3.70859 0
M  V30 1865 H 175.476 0.812245 3.01863 0
M  V30 1866 H 174.696 3.19464 2.30947 0
M  V30 1867 H 175.984 3.83207 3.34708 0
M  V30 1868 H 175.382 1.45896 5.46563 0
M  V30 1869 H 173.939 2.04943 6.18742 0
M  V30 1870 N 177.372 -0.689602 1.41712 0
M  V30 1871 C 178.621 -1.44534 1.40686 0
M  V30 1872 C 178.934 -1.95588 0.0213352 0
M  V30 1873 O 180.14 -2.71271 -0.111534 0
M  V30 1874 C 178.596 -2.61387 2.47396 0
M  V30 1875 C 178.204 -2.17094 3.91885 0
M  V30 1876 C 179.948 -3.38986 2.55517 0
M  V30 1877 C 177.855 -3.3094 4.90135 0
M  V30 1878 H 176.785 -0.542925 0.52321 0
M  V30 1879 H 179.436 -0.748054 1.6756 0
M  V30 1880 H 177.818 -3.33412 2.13664 0
M  V30 1881 H 178.992 -1.52318 4.34897 0
M  V30 1882 H 177.307 -1.52473 3.8748 0
M  V30 1883 H 179.904 -4.23747 3.26102 0
M  V30 1884 H 180.247 -3.84578 1.59391 0
M  V30 1885 H 180.78 -2.74021 2.8837 0
M  V30 1886 H 177.519 -2.90355 5.87685 0
M  V30 1887 H 177.039 -3.94546 4.51767 0
M  V30 1888 H 178.718 -3.9663 5.11169 0
M  V30 1889 N 178.85 -1.27639 -0.924453 0
M  V30 1890 C 179.783 -1.04966 -2.02626 0
M  V30 1891 C 180.761 0.0309505 -1.62571 0
M  V30 1892 O 181.945 -0.114846 -1.8815 0
M  V30 1893 C 179.072 -0.59292 -3.3347 0
M  V30 1894 C 178.118 -1.66858 -3.92506 0
M  V30 1895 S 178.951 -3.2619 -4.24689 0
M  V30 1896 C 180.107 -2.82325 -5.58609 0
M  V30 1897 H 180.34 -1.98252 -2.21547 0
M  V30 1898 H 177.873 -1.11506 -1.06798 0
M  V30 1899 H 179.831 -0.336086 -4.09122 0
M  V30 1900 H 178.492 0.319939 -3.12466 0
M  V30 1901 H 177.685 -1.30038 -4.86935 0
M  V30 1902 H 177.287 -1.87766 -3.2345 0
M  V30 1903 H 179.579 -2.2783 -6.38044 0
M  V30 1904 H 180.522 -3.75511 -6.00331 0
M  V30 1905 H 180.93 -2.21367 -5.19285 0
M  V30 1906 N 180.328 1.1314 -1.09713 0
M  V30 1907 C 181.558 1.88048 -0.855656 0
M  V30 1908 C 181.966 1.79537 0.596919 0
M  V30 1909 O 181.309 1.16196 1.42282 0
M  V30 1910 C 181.371 3.38314 -1.21589 0
M  V30 1911 C 181.035 3.70605 -2.67397 0
M  V30 1912 C 182.032 3.69596 -3.65643 0
M  V30 1913 C 179.717 4.0017 -3.03593 0
M  V30 1914 C 181.711 3.977 -4.9811 0
M  V30 1915 C 179.398 4.27935 -4.36251 0
M  V30 1916 C 180.396 4.26685 -5.33318 0
M  V30 1917 O 180.084 4.53767 -6.63589 0
M  V30 1918 H 179.816 0.60208 -0.307368 0
M  V30 1919 H 182.37 1.44128 -1.46343 0
M  V30 1920 H 180.6 3.82752 -0.551177 0
M  V30 1921 H 182.289 3.94552 -0.953083 0
M  V30 1922 H 183.055 3.46826 -3.39023 0
M  V30 1923 H 178.934 4.00289 -2.2867 0
M  V30 1924 H 182.478 3.9664 -5.73866 0
M  V30 1925 H 178.375 4.50178 -4.62613 0
M  V30 1926 H 179.143 4.71422 -6.69107 0
M  V30 1927 N 181.806 0.884767 1.30421 0
M  V30 1928 C 183.054 0.502112 1.95763 0
M  V30 1929 C 183.375 -0.951815 1.70192 0
M  V30 1930 O 182.645 -1.6692 1.0254 0
M  V30 1931 H 181.225 0.182694 0.724315 0
M  V30 1932 H 183.887 1.1278 1.58955 0
M  V30 1933 H 182.983 0.672188 3.04775 0
M  V30 1934 N 183.284 -1.43765 0.645699 0
M  V30 1935 C 184.524 -2.03776 0.159542 0
M  V30 1936 C 184.888 -1.49792 -1.2011 0
M  V30 1937 O 186.089 -2.01398 -1.78023 0
M  V30 1938 C 184.36 -3.57036 0.161251 0
M  V30 1939 S 185.919 -4.3804 -0.258159 0
M  V30 1940 H 182.737 -0.707717 0.0682454 0
M  V30 1941 H 185.339 -1.75941 0.852352 0
M  V30 1942 H 184.043 -3.9383 1.15439 0
M  V30 1943 H 183.574 -3.89503 -0.552339 0
M  V30 1944 H 185.589 -4.7302 -1.49889 0
M  V30 1945 N 184.763 -0.387143 -1.52771 0
M  V30 1946 C 186.04 0.253197 -1.93954 0
M  V30 1947 C 186.42 1.64545 -1.32243 0
M  V30 1948 O 185.768 2.23191 -0.489699 0
M  V30 1949 C 185.978 0.281722 -3.47861 0
M  V30 1950 C 187.326 0.511715 -4.21505 0
M  V30 1951 O 188.35 0.362023 -3.54356 0
M  V30 1952 O 187.209 0.804847 -5.40541 0
M  V30 1953 H 184.303 0.156845 -0.811991 0
M  V30 1954 H 186.849 -0.441494 -1.63856 0
M  V30 1955 H 185.621 -0.693571 -3.85104 0
M  V30 1956 H 185.244 1.02142 -3.84256 0
M  V30 1957 N 186.241 1.57166 -0.116904 0
M  V30 1958 C 187.487 1.95412 0.542405 0
M  V30 1959 C 187.82 1.00019 1.66463 0
M  V30 1960 O 187.095 0.0370346 1.94465 0
M  V30 1961 C 187.378 3.43615 1.07708 0
M  V30 1962 C 187.231 4.49781 -0.0415868 0
M  V30 1963 C 188.55 3.93616 1.96861 0
M  V30 1964 H 185.669 0.710543 0.195696 0
M  V30 1965 H 188.311 1.89027 -0.192038 0
M  V30 1966 H 186.461 3.49187 1.70296 0
M  V30 1967 H 188.133 4.56308 -0.676793 0
M  V30 1968 H 186.376 4.28033 -0.705019 0
M  V30 1969 H 187.047 5.50733 0.373717 0
M  V30 1970 H 189.523 3.90335 1.44146 0
M  V30 1971 H 188.399 4.97838 2.3119 0
M  V30 1972 H 188.66 3.34188 2.89432 0
M  V30 1973 N 187.719 -0.156864 1.56817 0
M  V30 1974 C 188.967 -0.869404 1.82444 0
M  V30 1975 C 189.288 -1.82147 0.69623 0
M  V30 1976 O 188.558 -1.93847 -0.28287 0
M  V30 1977 H 187.138 -0.324043 0.673056 0
M  V30 1978 H 189.8 -0.153224 1.94297 0
M  V30 1979 H 188.896 -1.43761 2.77019 0
M  V30 1980 N 189.197 -1.51736 -0.425897 0
M  V30 1981 C 190.422 -1.69082 -1.20108 0
M  V30 1982 C 190.847 -0.392398 -1.83962 0
M  V30 1983 O 190.205 0.64858 -1.69302 0
M  V30 1984 C 190.253 -2.81604 -2.25237 0
M  V30 1985 O 189.357 -2.46004 -3.30992 0
M  V30 1986 H 188.698 -0.563408 -0.35138 0
M  V30 1987 H 191.228 -1.98358 -0.501512 0
M  V30 1988 H 191.238 -3.06025 -2.69838 0
M  V30 1989 H 189.913 -3.75817 -1.78142 0
M  V30 1990 H 188.49 -2.32195 -2.91787 0
M  V30 1991 N 190.675 0.682077 -1.42076 0
M  V30 1992 C 191.952 1.43755 -1.32642 0
M  V30 1993 C 192.332 2.11063 0.0396611 0
M  V30 1994 O 191.68 2.02701 1.05474 0
M  V30 1995 C 191.89 2.44596 -2.48946 0
M  V30 1996 C 193.238 3.09454 -2.9073 0
M  V30 1997 O 194.262 2.54922 -2.48783 0
M  V30 1998 O 193.121 4.08253 -3.63307 0
M  V30 1999 H 190.215 0.640857 -0.522715 0
M  V30 2000 H 192.761 0.711415 -1.54068 0
M  V30 2001 H 191.533 1.93609 -3.40046 0
M  V30 2002 H 191.156 3.24701 -2.29467 0
M  V30 2003 N 192.153 1.28127 0.917671 0
M  V30 2004 C 193.401 1.14825 1.66312 0
M  V30 2005 C 193.722 -0.304379 1.9261 0
M  V30 2006 O 192.992 -1.21149 1.53947 0
M  V30 2007 H 191.572 0.421953 0.616413 0
M  V30 2008 H 194.234 1.608 1.10134 0
M  V30 2009 H 193.33 1.68489 2.62712 0
M  V30 2010 N 193.631 -1.12557 1.10312 0
M  V30 2011 C 195.047 -1.36036 0.834649 0
M  V30 2012 C 195.247 -1.93946 -0.546539 0
M  V30 2013 O 194.303 -2.16484 -1.29966 0
M  V30 2014 C 195.616 -2.30312 1.9333 0
M  V30 2015 C 197.164 -2.43906 1.9616 0
M  V30 2016 C 197.639 -3.41496 3.05195 0
M  V30 2017 N 199.13 -3.49053 3.04494 0
M  V30 2018 C 199.865 -4.24471 3.85502 0
M  V30 2019 N 199.361 -5.02966 4.76442 0
M  V30 2020 N 201.154 -4.19864 3.73725 0
M  V30 2021 H 193.305 -0.733246 1.99342 0
M  V30 2022 H 195.568 -0.385234 0.866198 0
M  V30 2023 H 195.274 -1.94933 2.92735 0
M  V30 2024 H 195.148 -3.30421 1.81939 0
M  V30 2025 H 197.535 -2.78567 0.973886 0
M  V30 2026 H 197.616 -1.4369 2.11629 0
M  V30 2027 H 197.26 -3.07565 4.04186 0
M  V30 2028 H 197.19 -4.41539 2.86968 0
M  V30 2029 H 199.681 -2.93053 2.38596 0
M  V30 2030 H 199.994 -5.57846 5.34815 0
M  V30 2031 H 198.339 -5.02167 4.80472 0
M  V30 2032 H 201.53 -3.57623 3.02032 0
M  V30 2033 H 201.703 -4.78386 4.37093 0
M  V30 2034 N 195.109 -0.891671 -1.2995 0
M  V30 2035 C 196.356 -0.513501 -1.95881 0
M  V30 2036 C 196.684 0.938655 -1.70351 0
M  V30 2037 O 195.939 1.67936 -1.00478 0
M  V30 2038 C 196.238 -0.742868 -3.49594 0
M  V30 2039 C 195.904 -2.17114 -3.95186 0
M  V30 2040 C 194.566 -2.56169 -4.07346 0
M  V30 2041 C 196.918 -3.10162 -4.18866 0
M  V30 2042 C 194.246 -3.87469 -4.4055 0
M  V30 2043 C 196.598 -4.41001 -4.53542 0
M  V30 2044 C 195.262 -4.79941 -4.63911 0
M  V30 2045 H 194.532 -0.187903 -0.71678 0
M  V30 2046 H 197.179 -1.1288 -1.54694 0
M  V30 2047 H 195.484 -0.044586 -3.91775 0
M  V30 2048 H 197.181 -0.429767 -3.9869 0
M  V30 2049 H 193.771 -1.85801 -3.86233 0
M  V30 2050 H 197.955 -2.81206 -4.08946 0
M  V30 2051 H 193.211 -4.17371 -4.46779 0
M  V30 2052 H 197.385 -5.13133 -4.70815 0
M  V30 2053 H 195.012 -5.81719 -4.89395 0
M  V30 2054 N 196.587 1.43421 -0.653314 0
M  V30 2055 C 197.517 2.33487 0.0246656 0
M  V30 2056 C 198.498 1.49475 0.811863 0
M  V30 2057 O 199.683 1.78139 0.773322 0
M  V30 2058 C 196.813 3.32841 0.99166 0
M  V30 2059 C 195.767 4.26842 0.314568 0
M  V30 2060 C 195.093 5.16236 1.39302 0
M  V30 2061 C 196.393 5.16243 -0.793095 0
M  V30 2062 H 198.087 2.90427 -0.727481 0
M  V30 2063 H 195.633 1.39649 -0.351287 0
M  V30 2064 H 197.586 3.94747 1.47487 0
M  V30 2065 H 196.31 2.74158 1.77497 0
M  V30 2066 H 194.969 3.663 -0.148199 0
M  V30 2067 H 194.617 4.53891 2.16776 0
M  V30 2068 H 194.317 5.79948 0.945223 0
M  V30 2069 H 195.841 5.81015 1.87759 0
M  V30 2070 H 197.255 5.71958 -0.392039 0
M  V30 2071 H 195.652 5.88676 -1.16536 0
M  V30 2072 H 196.722 4.55927 -1.65103 0
M  V30 2073 N 198.065 0.39524 1.52563 0
M  V30 2074 C 199.481 0.0454682 1.59535 0
M  V30 2075 C 199.681 -1.44056 1.4089 0
M  V30 2076 O 198.737 -2.20579 1.22888 0
M  V30 2077 C 200.05 0.527963 2.96029 0
M  V30 2078 C 201.598 0.484733 3.09224 0
M  V30 2079 C 202.073 0.943512 4.48176 0
M  V30 2080 N 203.564 0.899765 4.54377 0
M  V30 2081 C 204.299 1.22609 5.60138 0
M  V30 2082 N 203.795 1.62319 6.73516 0
M  V30 2083 N 205.588 1.14696 5.50274 0
M  V30 2084 H 197.739 1.36261 1.62931 0
M  V30 2085 H 200.002 0.558887 0.765735 0
M  V30 2086 H 199.708 1.56607 3.14908 0
M  V30 2087 H 199.582 -0.0698056 3.77135 0
M  V30 2088 H 201.969 -0.544298 2.90037 0
M  V30 2089 H 202.05 1.11838 2.30056 0
M  V30 2090 H 201.694 1.9708 4.68104 0
M  V30 2091 H 201.624 0.286817 5.25818 0
M  V30 2092 H 204.115 0.607632 3.72983 0
M  V30 2093 H 204.428 1.85567 7.5019 0
M  V30 2094 H 202.773 1.66211 6.74833 0
M  V30 2095 H 205.964 0.835701 4.6058 0
M  V30 2096 H 206.137 1.40459 6.32594 0
M  V30 2097 N 199.544 -1.57102 0.125237 0
M  V30 2098 C 200.792 -1.95021 -0.530198 0
M  V30 2099 C 201.113 -1.00982 -1.66816 0
M  V30 2100 O 200.383 -0.0672693 -1.95784 0
M  V30 2101 H 198.963 -0.720046 -0.198853 0
M  V30 2102 H 201.625 -1.93916 0.19564 0
M  V30 2103 H 200.721 -2.98211 -0.920681 0
M  V30 2104 N 201.022 0.148545 -1.56898 0
M  V30 2105 C 202.252 0.875118 -1.8715 0
M  V30 2106 C 202.66 1.75322 -0.711262 0
M  V30 2107 O 202.003 1.80745 0.328151 0
M  V30 2108 C 202.065 1.7844 -3.12089 0
M  V30 2109 C 201.729 1.08361 -4.43967 0
M  V30 2110 C 202.726 0.438247 -5.1805 0
M  V30 2111 C 200.411 1.07358 -4.90693 0
M  V30 2112 C 202.405 -0.20779 -6.37061 0
M  V30 2113 C 200.092 0.42373 -6.09629 0
M  V30 2114 C 201.09 -0.215829 -6.82659 0
M  V30 2115 O 200.778 -0.855378 -7.99336 0
M  V30 2116 H 200.51 0.258504 -0.624621 0
M  V30 2117 H 203.064 0.14652 -2.04877 0
M  V30 2118 H 201.294 2.55389 -2.90367 0
M  V30 2119 H 202.983 2.38279 -3.286 0
M  V30 2120 H 203.749 0.437817 -4.8302 0
M  V30 2121 H 199.628 1.5608 -4.33774 0
M  V30 2122 H 203.172 -0.70758 -6.94002 0
M  V30 2123 H 199.069 0.421822 -6.4412 0
M  V30 2124 H 199.837 -0.756892 -8.14993 0
M  V30 2125 N 202.5 1.5196 0.417844 0
M  V30 2126 C 203.916 1.40569 0.755816 0
M  V30 2127 C 204.116 0.503316 1.95113 0
M  V30 2128 O 203.172 -0.0341925 2.52477 0
M  V30 2129 C 204.485 2.82947 1.01791 0
M  V30 2130 C 206.033 2.92231 1.12116 0
M  V30 2131 C 206.508 4.35559 1.41608 0
M  V30 2132 N 207.999 4.38753 1.48491 0
M  V30 2133 C 208.734 5.46705 1.7292 0
M  V30 2134 N 208.23 6.64788 1.95011 0
M  V30 2135 N 210.023 5.34209 1.74863 0
M  V30 2136 H 202.174 2.09168 -0.369098 0
M  V30 2137 H 204.437 0.942409 -0.102809 0
M  V30 2138 H 204.143 3.5106 0.212081 0
M  V30 2139 H 204.017 3.23462 1.94042 0
M  V30 2140 H 206.404 2.24304 1.9176 0
M  V30 2141 H 206.485 2.55185 0.177225 0
M  V30 2142 H 206.129 5.04042 0.624848 0
M  V30 2143 H 206.059 4.70133 2.37239 0
M  V30 2144 H 208.55 3.5363 1.33244 0
M  V30 2145 H 208.863 7.42845 2.13076 0
M  V30 2146 H 207.208 6.67869 1.92293 0
M  V30 2147 H 210.399 4.40937 1.57137 0
M  V30 2148 H 210.572 6.18415 1.93563 0
M  V30 2149 N 203.978 -0.674533 1.42435 0
M  V30 2150 C 204.91 -1.80005 1.41883 0
M  V30 2151 C 205.923 -1.59667 0.31787 0
M  V30 2152 O 207.112 -1.68781 0.580973 0
M  V30 2153 C 204.212 -3.17114 1.19549 0
M  V30 2154 C 203.385 -3.64299 2.42084 0
M  V30 2155 C 202.444 -4.80142 2.15291 0
M  V30 2156 O 201.47 -4.90673 2.88493 0
M  V30 2157 N 202.672 -5.68869 1.1562 0
M  V30 2158 H 205.437 -1.80964 2.38898 0
M  V30 2159 H 202.998 -0.857633 1.37318 0
M  V30 2160 H 204.99 -3.92267 0.995417 0
M  V30 2161 H 203.56 -3.11053 0.310569 0
M  V30 2162 H 202.78 -2.79822 2.77657 0
M  V30 2163 H 204.068 -3.92567 3.23679 0
M  V30 2164 H 203.466 -5.63012 0.550765 0
M  V30 2165 H 202.023 -6.43833 1.016 0
M  V30 2166 N 205.456 -1.28612 -0.910864 0
M  V30 2167 C 206.733 -1.06632 -1.63979 0
M  V30 2168 C 207.113 0.393351 -2.07403 0
M  V30 2169 O 206.461 1.37999 -1.82122 0
M  V30 2170 C 206.671 -2.0436 -2.8291 0
M  V30 2171 C 208.019 -2.34666 -3.5386 0
M  V30 2172 O 209.043 -2.02467 -2.93062 0
M  V30 2173 O 207.902 -2.89631 -4.63439 0
M  V30 2174 H 204.996 -0.407737 -0.7195 0
M  V30 2175 H 207.542 -1.39942 -0.959914 0
M  V30 2176 H 206.314 -3.02727 -2.47936 0
M  V30 2177 H 205.937 -1.71714 -3.58609 0
M  V30 2178 N 206.934 1.1197 -1.10907 0
M  V30 2179 C 207.897 2.16031 -0.765707 0
M  V30 2180 C 208.897 1.59393 0.212235 0
M  V30 2181 O 210.087 1.74196 -0.0115441 0
M  V30 2182 C 207.219 3.40632 -0.135053 0
M  V30 2183 H 208.412 2.47919 -1.68748 0
M  V30 2184 H 205.965 1.27061 -0.910226 0
M  V30 2185 H 206.7 3.14348 0.797218 0
M  V30 2186 H 206.485 3.8302 -0.838937 0
M  V30 2187 H 207.975 4.17505 0.0892469 0
M  V30 2188 N 208.412 0.89855 1.29475 0
M  V30 2189 C 209.642 0.538479 1.99459 0
M  V30 2190 C 210.05 -0.880922 1.67441 0
M  V30 2191 O 209.393 -1.59283 0.915127 0
M  V30 2192 C 209.455 0.649564 3.53583 0
M  V30 2193 C 209.119 2.03573 4.09154 0
M  V30 2194 C 210.116 3.00675 4.24135 0
M  V30 2195 C 207.801 2.3448 4.44212 0
M  V30 2196 C 209.795 4.26809 4.73405 0
M  V30 2197 C 207.482 3.60857 4.93179 0
M  V30 2198 C 208.48 4.56836 5.0773 0
M  V30 2199 O 208.168 5.80969 5.55635 0
M  V30 2200 H 207.9 0.205372 0.644048 0
M  V30 2201 H 210.454 1.20958 1.66007 0
M  V30 2202 H 208.684 -0.0785592 3.8662 0
M  V30 2203 H 210.373 0.29881 4.04799 0
M  V30 2204 H 211.139 2.78112 3.97339 0
M  V30 2205 H 207.018 1.60534 4.32145 0
M  V30 2206 H 210.562 5.0173 4.84678 0
M  V30 2207 H 206.459 3.83251 5.19412 0
M  V30 2208 H 207.227 5.83542 5.73952 0
M  V30 2209 N 209.89 -1.43072 0.660911 0
M  V30 2210 C 211.167 -1.95307 0.107017 0
M  V30 2211 C 211.547 -1.60192 -1.37484 0
M  V30 2212 O 210.895 -0.890949 -2.10415 0
M  V30 2213 C 211.105 -3.47124 0.361402 0
M  V30 2214 C 212.453 -4.23738 0.270455 0
M  V30 2215 O 213.477 -3.54981 0.294382 0
M  V30 2216 O 212.336 -5.46131 0.200737 0
M  V30 2217 H 209.43 -0.826984 -0.00517729 0
M  V30 2218 H 211.976 -1.52972 0.734681 0
M  V30 2219 H 210.748 -3.65837 1.38848 0
M  V30 2220 H 210.371 -3.96475 -0.298953 0
M  V30 2221 N 211.368 -0.403325 -1.52352 0
M  V30 2222 C 212.616 0.174003 -2.0135 0
M  V30 2223 C 212.937 1.46139 -1.29106 0
M  V30 2224 O 212.207 1.91448 -0.415253 0
M  V30 2225 H 210.787 0.0672911 -0.743963 0
M  V30 2226 H 213.449 -0.538235 -1.87321 0
M  V30 2227 H 212.545 0.374254 -3.09848 0
M  V30 2228 N 212.846 1.57033 -0.133567 0
M  V30 2229 C 213.793 2.16074 0.811208 0
M  V30 2230 C 214.763 1.08979 1.2535 0
M  V30 2231 O 215.948 1.36958 1.32843 0
M  V30 2232 C 213.088 2.77595 2.05024 0
M  V30 2233 C 212.201 3.99042 1.65498 0
M  V30 2234 C 211.336 4.48603 2.84479 0
M  V30 2235 C 210.375 5.62547 2.41262 0
M  V30 2236 N 209.512 6.06787 3.53206 0
M  V30 2237 H 214.352 2.96477 0.300906 0
M  V30 2238 H 211.889 1.46462 0.136822 0
M  V30 2239 H 213.847 3.11402 2.77642 0
M  V30 2240 H 212.477 1.99859 2.53488 0
M  V30 2241 H 211.529 3.71302 0.826981 0
M  V30 2242 H 212.841 4.81629 1.29748 0
M  V30 2243 H 211.995 4.84395 3.65303 0
M  V30 2244 H 210.734 3.64995 3.23465 0
M  V30 2245 H 209.739 5.26345 1.58874 0
M  V30 2246 H 210.964 6.47931 2.03377 0
M  V30 2247 H 208.91 5.26117 3.91838 0
M  V30 2248 H 208.827 6.84266 3.21427 0
M  V30 2249 H 210.095 6.4722 4.34427 0
M  V30 2250 N 214.325 -0.140222 1.56975 0
M  V30 2251 C 215.602 -0.880769 1.74648 0
M  V30 2252 C 215.982 -1.99036 0.703404 0
M  V30 2253 O 215.33 -2.26821 -0.27648 0
M  V30 2254 C 215.54 -1.417 3.18939 0
M  V30 2255 C 216.888 -1.87774 3.80823 0
M  V30 2256 O 217.912 -1.51427 3.2241 0
M  V30 2257 O 216.771 -2.54827 4.83452 0
M  V30 2258 H 213.865 -0.416713 0.714338 0
M  V30 2259 H 216.411 -0.125618 1.69234 0
M  V30 2260 H 215.183 -0.619902 3.86359 0
M  V30 2261 H 214.806 -2.23546 3.28805 0
M  V30 2262 N 215.803 -1.52179 -0.40978 0
M  V30 2263 C 217.033 -1.69807 -1.17682 0
M  V30 2264 C 217.441 -0.406908 -1.84773 0
M  V30 2265 O 216.784 0.626863 -1.72673 0
M  V30 2266 C 216.846 -2.77712 -2.2829 0
M  V30 2267 C 216.51 -4.19481 -1.81341 0
M  V30 2268 C 217.507 -5.03345 -1.30154 0
M  V30 2269 C 215.192 -4.65713 -1.88194 0
M  V30 2270 C 217.186 -6.31511 -0.864416 0
M  V30 2271 C 214.873 -5.93869 -1.44093 0
M  V30 2272 C 215.871 -6.76597 -0.933023 0
M  V30 2273 O 215.559 -8.02354 -0.49838 0
M  V30 2274 H 215.291 -0.572372 -0.359675 0
M  V30 2275 H 217.845 -1.99511 -0.488311 0
M  V30 2276 H 216.075 -2.43383 -3.00502 0
M  V30 2277 H 217.764 -2.83946 -2.90051 0
M  V30 2278 H 218.53 -4.68819 -1.24232 0
M  V30 2279 H 214.409 -4.01424 -2.26671 0
M  V30 2280 H 217.953 -6.96033 -0.467286 0
M  V30 2281 H 213.85 -6.27903 -1.49694 0
M  V30 2282 H 214.618 -8.16135 -0.621747 0
M  V30 2283 N 217.281 0.66697 -1.42791 0
M  V30 2284 C 218.53 1.42278 -1.42968 0
M  V30 2285 C 218.843 1.9553 -0.0524489 0
M  V30 2286 O 220.049 2.71414 0.068363 0
M  V30 2287 C 218.505 2.57418 -2.51524 0
M  V30 2288 C 218.113 2.10832 -3.9529 0
M  V30 2289 C 219.857 3.34878 -2.60877 0
M  V30 2290 C 217.764 3.23101 -4.95338 0
M  V30 2291 H 216.694 0.534533 -0.531781 0
M  V30 2292 H 219.345 0.721302 -1.68729 0
M  V30 2293 H 217.727 3.29971 -2.18941 0
M  V30 2294 H 218.901 1.4538 -4.37266 0
M  V30 2295 H 217.216 1.46289 -3.89857 0
M  V30 2296 H 219.813 4.18505 -3.32802 0
M  V30 2297 H 220.156 3.81993 -1.6549 0
M  V30 2298 H 220.689 2.69398 -2.92693 0
M  V30 2299 H 217.428 2.80969 -5.9223 0
M  V30 2300 H 216.948 3.87309 -4.57987 0
M  V30 2301 H 218.627 3.88447 -5.17415 0
M  V30 2302 N 218.759 1.29093 0.90403 0
M  V30 2303 C 219.722 1.1386 1.98919 0
M  V30 2304 C 220.722 0.0753457 1.60623 0
M  V30 2305 O 221.912 0.321931 1.71199 0
M  V30 2306 C 219.044 0.740198 3.32767 0
M  V30 2307 H 220.237 2.10246 2.13861 0
M  V30 2308 H 217.79 1.12218 1.08797 0
M  V30 2309 H 218.525 -0.223997 3.23525 0
M  V30 2310 H 218.31 1.50838 3.61926 0
M  V30 2311 H 219.8 0.656546 4.12407 0
M  V30 2312 N 220.237 -1.11381 1.11499 0
M  V30 2313 C 221.167 -2.19509 0.796125 0
M  V30 2314 C 222.148 -1.68458 -0.235796 0
M  V30 2315 O 223.333 -1.93947 -0.0991344 0
M  V30 2316 C 220.463 -3.46475 0.239205 0
M  V30 2317 C 219.417 -4.10744 1.20307 0
M  V30 2318 C 218.743 -5.32293 0.50683 0
M  V30 2319 C 220.043 -4.55597 2.55399 0
M  V30 2320 H 221.737 -2.46439 1.70024 0
M  V30 2321 H 219.283 -1.18446 0.818935 0
M  V30 2322 H 221.236 -4.214 0.00392006 0
M  V30 2323 H 219.96 -3.19006 -0.700206 0
M  V30 2324 H 218.619 -3.37813 1.42399 0
M  V30 2325 H 218.267 -5.01095 -0.437408 0
M  V30 2326 H 217.967 -5.76243 1.1497 0
M  V30 2327 H 219.491 -6.09956 0.280351 0
M  V30 2328 H 220.905 -5.21841 2.37391 0
M  V30 2329 H 219.302 -5.10363 3.15673 0
M  V30 2330 H 220.372 -3.69013 3.14575 0
M  V30 2331 N 221.715 -0.905404 -1.28997 0
M  V30 2332 C 222.663 -0.377431 -2.29517 0
M  V30 2333 C 223.657 0.526461 -1.61012 0
M  V30 2334 O 224.863 0.40863 -1.753 0
M  V30 2335 H 221.238 -0.103437 -0.744852 0
M  V30 2336 H 223.209 -1.23848 -2.71485 0
M  V30 2337 C 221.958 0.374833 -3.45674 0
M  V30 2338 H 221.281 -0.311474 -3.98585 0
M  V30 2339 H 222.721 0.70903 -4.1803 0
M  V30 2340 C 221.18 1.57963 -2.97572 0
M  V30 2341 O 221.71 2.67886 -2.99333 0
M  V30 2342 N 219.916 1.42375 -2.53333 0
M  V30 2343 H 219.463 0.529466 -2.521 0
M  V30 2344 H 219.421 2.23117 -2.21509 0
M  V30 2345 N 223.193 1.4272 -0.668489 0
M  V30 2346 C 224.103 2.34596 0.0139753 0
M  V30 2347 C 225.119 1.5474 0.795703 0
M  V30 2348 O 226.295 1.87334 0.739466 0
M  V30 2349 C 223.36 3.33202 0.957982 0
M  V30 2350 C 222.421 4.28957 0.17149 0
M  V30 2351 C 221.654 5.22853 1.07053 0
M  V30 2352 O 221.877 5.21531 2.31001 0
M  V30 2353 O 220.811 5.9952 0.534727 0
M  V30 2354 H 224.637 2.9448 -0.742661 0
M  V30 2355 H 222.222 1.43117 -0.428705 0
M  V30 2356 H 224.104 3.93796 1.50008 0
M  V30 2357 H 222.779 2.758 1.69458 0
M  V30 2358 H 221.686 3.71796 -0.414558 0
M  V30 2359 H 223.019 4.89383 -0.52586 0
M  V30 2360 N 224.671 0.411399 1.52136 0
M  V30 2361 C 225.948 -0.222308 1.94333 0
M  V30 2362 C 226.328 -1.6242 1.34844 0
M  V30 2363 O 225.676 -2.22384 0.525145 0
M  V30 2364 C 225.886 -0.226345 3.48265 0
M  V30 2365 C 227.234 -0.444592 4.22266 0
M  V30 2366 O 228.258 -0.305602 3.54887 0
M  V30 2367 O 227.117 -0.718749 5.41753 0
M  V30 2368 H 224.211 -0.143907 0.814383 0
M  V30 2369 H 226.757 0.467506 1.63133 0
M  V30 2370 H 225.529 0.75475 3.83952 0
M  V30 2371 H 225.152 -0.960163 3.85832 0
M  V30 2372 N 226.149 -1.5696 0.141893 0
M  V30 2373 C 227.079 -2.19516 -0.795936 0
M  V30 2374 C 228.06 -1.14187 -1.26077 0
M  V30 2375 O 229.245 -1.42511 -1.31925 0
M  V30 2376 C 226.375 -2.81272 -2.03723 0
M  V30 2377 C 225.329 -3.92384 -1.70936 0
M  V30 2378 C 224.655 -4.41052 -3.02287 0
M  V30 2379 C 225.955 -5.13403 -0.959954 0
M  V30 2380 H 227.649 -2.98138 -0.274596 0
M  V30 2381 H 225.195 -1.43406 -0.130636 0
M  V30 2382 H 227.148 -3.237 -2.69808 0
M  V30 2383 H 225.872 -1.99973 -2.58221 0
M  V30 2384 H 224.531 -3.50566 -1.07232 0
M  V30 2385 H 224.179 -3.56582 -3.54765 0
M  V30 2386 H 223.879 -5.15993 -2.81114 0
M  V30 2387 H 225.403 -4.86146 -3.69451 0
M  V30 2388 H 226.817 -5.52706 -1.52279 0
M  V30 2389 H 225.214 -5.94073 -0.848357 0
M  V30 2390 H 226.284 -4.84875 0.0492434 0
M  V30 2391 N 227.627 0.131896 -1.57047 0
M  V30 2392 C 229.043 0.485031 -1.52051 0
M  V30 2393 C 229.243 1.82563 -0.85281 0
M  V30 2394 O 228.299 2.48817 -0.429694 0
M  V30 2395 C 229.612 0.481409 -2.96821 0
M  V30 2396 C 231.16 0.565868 -3.07842 0
M  V30 2397 C 231.635 0.592762 -4.54148 0
M  V30 2398 N 233.126 0.654564 -4.58552 0
M  V30 2399 C 233.861 0.696608 -5.69153 0
M  V30 2400 N 233.357 0.697078 -6.89284 0
M  V30 2401 N 235.15 0.738639 -5.57226 0
M  V30 2402 H 227.301 -0.746664 -1.98843 0
M  V30 2403 H 229.564 -0.273999 -0.90754 0
M  V30 2404 H 229.27 -0.435731 -3.4899 0
M  V30 2405 H 229.144 1.3139 -3.53577 0
M  V30 2406 H 231.531 1.47343 -2.55684 0
M  V30 2407 H 231.612 -0.29406 -2.54104 0
M  V30 2408 H 231.256 -0.310701 -5.06949 0
M  V30 2409 H 231.186 1.46939 -5.05684 0
M  V30 2410 H 233.677 0.660887 -3.72076 0
M  V30 2411 H 233.99 0.731426 -7.69331 0
M  V30 2412 H 232.335 0.66471 -6.91814 0
M  V30 2413 H 235.526 0.735545 -4.62285 0
M  V30 2414 H 235.699 0.767938 -6.43434 0
M  V30 2415 N 229.106 1.52395 0.401703 0
M  V30 2416 C 230.331 1.70972 1.17403 0
M  V30 2417 C 230.756 0.421615 1.83314 0
M  V30 2418 O 230.114 -0.621564 1.70312 0
M  V30 2419 C 230.162 2.85151 2.20728 0
M  V30 2420 O 229.266 2.51238 3.27037 0
M  V30 2421 H 228.607 0.568927 0.342372 0
M  V30 2422 H 231.137 1.99131 0.469891 0
M  V30 2423 H 231.147 3.10279 2.64936 0
M  V30 2424 H 229.822 3.78603 1.7214 0
M  V30 2425 H 228.399 2.36808 2.88057 0
M  V30 2426 N 230.584 -0.659388 1.43143 0
M  V30 2427 C 231.83 -1.41984 1.45644 0
M  V30 2428 C 232.185 -1.92245 0.0771718 0
M  V30 2429 O 231.478 -1.68976 -0.903205 0
M  V30 2430 C 231.672 -2.62206 2.42864 0
M  V30 2431 C 231.501 -2.23711 3.90107 0
M  V30 2432 C 230.271 -2.12332 4.58523 0
M  V30 2433 C 232.469 -1.84384 4.80112 0
M  V30 2434 N 230.451 -1.67102 5.9072 0
M  V30 2435 C 231.822 -1.5019 6.01534 0
M  V30 2436 C 233.877 -1.71512 4.67427 0
M  V30 2437 C 232.58 -1.04414 7.11681 0
M  V30 2438 C 234.606 -1.27142 5.77572 0
M  V30 2439 C 233.968 -0.938808 6.98116 0
M  V30 2440 H 230.067 -0.515448 0.588079 0
M  V30 2441 H 232.651 -0.759409 1.79279 0
M  V30 2442 H 230.822 -3.25917 2.11265 0
M  V30 2443 H 232.554 -3.28877 2.35843 0
M  V30 2444 H 229.309 -2.31893 4.12944 0
M  V30 2445 H 229.733 -1.46866 6.60878 0
M  V30 2446 H 234.375 -1.95868 3.74694 0
M  V30 2447 H 232.093 -0.788061 8.04248 0
M  V30 2448 H 235.679 -1.17681 5.69774 0
M  V30 2449 H 234.559 -0.6007 7.81896 0
M  V30 2450 N 232.062 -1.29571 -0.897171 0
M  V30 2451 C 233.29 -1.20583 -1.68129 0
M  V30 2452 C 233.705 0.233181 -1.87354 0
M  V30 2453 O 233.062 1.15579 -1.41236 0
M  V30 2454 C 233.113 -1.91772 -3.06441 0
M  V30 2455 O 232.834 -3.30053 -2.88091 0
M  V30 2456 C 234.335 -1.89291 -4.00854 0
M  V30 2457 H 231.555 -0.417826 -0.525036 0
M  V30 2458 H 234.099 -1.70987 -1.12177 0
M  V30 2459 H 232.254 -1.45196 -3.59161 0
M  V30 2460 H 232.668 -3.65942 -3.75748 0
M  V30 2461 H 234.142 -2.43662 -4.95311 0
M  V30 2462 H 234.619 -0.869014 -4.30517 0
M  V30 2463 H 235.225 -2.35622 -3.54066 0
M  V30 2464 N 233.54 1.10788 -1.12088 0
M  V30 2465 C 234.503 2.15207 -0.788577 0
M  V30 2466 C 235.503 1.59609 0.195317 0
M  V30 2467 O 236.693 1.74174 -0.0300193 0
M  V30 2468 C 233.825 3.4047 -0.171174 0
M  V30 2469 H 235.018 2.46116 -1.71368 0
M  V30 2470 H 232.571 1.26089 -0.923652 0
M  V30 2471 H 233.306 3.15176 0.763832 0
M  V30 2472 H 233.091 3.82109 -0.879514 0
M  V30 2473 H 234.581 4.17576 0.04496 0
M  V30 2474 N 235.018 0.912232 1.28515 0
M  V30 2475 C 235.981 0.404223 2.25607 0
M  V30 2476 C 236.981 -0.468602 1.53821 0
M  V30 2477 O 238.171 -0.271873 1.72065 0
M  V30 2478 C 235.303 -0.420653 3.38295 0
M  V30 2479 H 236.496 1.26188 2.7206 0
M  V30 2480 H 234.049 0.691495 1.40171 0
M  V30 2481 H 234.784 -1.29777 2.97201 0
M  V30 2482 H 234.569 0.204935 3.91564 0
M  V30 2483 H 236.059 -0.766971 4.10496 0
M  V30 2484 N 236.496 -1.42363 0.676048 0
M  V30 2485 C 237.773 -1.95183 0.127726 0
M  V30 2486 C 238.153 -1.61641 -1.35777 0
M  V30 2487 O 237.501 -0.913216 -2.09458 0
M  V30 2488 C 237.711 -3.46721 0.398199 0
M  V30 2489 C 239.059 -4.23427 0.315383 0
M  V30 2490 O 240.083 -3.54649 0.332016 0
M  V30 2491 O 238.942 -5.45888 0.25865 0
M  V30 2492 H 236.036 -0.826992 0.00359427 0
M  V30 2493 H 238.582 -1.52184 0.750864 0
M  V30 2494 H 237.354 -3.64344 1.4272 0
M  V30 2495 H 236.977 -3.96769 -0.256885 0
M  V30 2496 N 237.974 -0.419461 -1.51915 0
M  V30 2497 C 238.907 0.445751 -2.23804 0
M  V30 2498 C 239.885 1.03951 -1.25031 0
M  V30 2499 O 241.069 1.08541 -1.54114 0
M  V30 2500 C 238.196 1.61964 -2.97465 0
M  V30 2501 C 237.242 1.14828 -4.10751 0
M  V30 2502 S 238.075 0.104938 -5.35397 0
M  V30 2503 C 239.231 1.28391 -6.1259 0
M  V30 2504 H 239.464 -0.164627 -2.96844 0
M  V30 2505 H 236.997 -0.203833 -1.53049 0
M  V30 2506 H 238.955 2.29271 -3.40507 0
M  V30 2507 H 237.616 2.20139 -2.24048 0
M  V30 2508 H 236.809 2.02561 -4.61503 0
M  V30 2509 H 236.411 0.553712 -3.69878 0
M  V30 2510 H 238.703 2.20563 -6.40592 0
M  V30 2511 H 239.646 0.816724 -7.03374 0
M  V30 2512 H 240.054 1.51439 -5.43807 0
M  V30 2513 N 239.452 1.56882 -0.150215 0
M  V30 2514 C 240.415 2.1573 0.774157 0
M  V30 2515 C 241.415 1.0999 1.17298 0
M  V30 2516 O 242.605 1.35613 1.09338 0
M  V30 2517 C 239.737 2.72302 2.05096 0
M  V30 2518 H 240.93 2.98752 0.262201 0
M  V30 2519 H 238.483 1.55985 0.099248 0
M  V30 2520 H 239.218 1.92956 2.6065 0
M  V30 2521 H 239.003 3.49665 1.77416 0
M  V30 2522 H 240.493 3.17632 2.71109 0
M  V30 2523 N 240.93 -0.123565 1.57115 0
M  V30 2524 C 241.893 -1.13583 1.99076 0
M  V30 2525 C 242.893 -1.34564 0.880296 0
M  V30 2526 O 244.083 -1.31158 1.14644 0
M  V30 2527 C 241.215 -2.49128 2.32698 0
M  V30 2528 H 242.408 -0.775287 2.89706 0
M  V30 2529 H 239.961 -0.36771 1.51913 0
M  V30 2530 H 240.696 -2.90111 1.44934 0
M  V30 2531 H 240.481 -2.35255 3.13684 0
M  V30 2532 H 241.971 -3.2199 2.65918 0
M  V30 2533 N 242.408 -1.52605 -0.393616 0
M  V30 2534 C 243.34 -1.73303 -1.49995 0
M  V30 2535 C 244.353 -0.613473 -1.50799 0
M  V30 2536 O 245.542 -0.889049 -1.54784 0
M  V30 2537 C 242.642 -1.77245 -2.88855 0
M  V30 2538 C 241.815 -3.06483 -3.12069 0
M  V30 2539 C 240.874 -3.02033 -4.30886 0
M  V30 2540 O 239.9 -3.75907 -4.27414 0
M  V30 2541 N 241.102 -2.20897 -5.36828 0
M  V30 2542 H 243.867 -2.68756 -1.32629 0
M  V30 2543 H 241.428 -1.51036 -0.583083 0
M  V30 2544 H 243.42 -1.7178 -3.66434 0
M  V30 2545 H 241.99 -0.891993 -2.99603 0
M  V30 2546 H 241.21 -3.25474 -2.22396 0
M  V30 2547 H 242.498 -3.91947 -3.2443 0
M  V30 2548 H 241.896 -1.60336 -5.42502 0
M  V30 2549 H 240.453 -2.21275 -6.13091 0
M  V30 2550 N 243.887 0.651787 -1.4349 0
M  V30 2551 C 245.136 1.40754 -1.44469 0
M  V30 2552 C 245.449 1.95463 -0.0731845 0
M  V30 2553 O 246.655 2.71471 0.0395721 0
M  V30 2554 C 245.111 2.54735 -2.5424 0
M  V30 2555 C 244.719 2.06628 -3.97504 0
M  V30 2556 C 246.463 3.32092 -2.64414 0
M  V30 2557 C 244.37 3.17829 -4.98737 0
M  V30 2558 H 243.3 0.528862 -0.53742 0
M  V30 2559 H 245.951 0.703365 -1.69485 0
M  V30 2560 H 244.333 3.2763 -2.22428 0
M  V30 2561 H 245.507 1.40734 -4.38783 0
M  V30 2562 H 243.822 1.42146 -3.91387 0
M  V30 2563 H 246.419 4.14952 -3.37223 0
M  V30 2564 H 246.762 3.80217 -1.69532 0
M  V30 2565 H 247.295 2.66279 -2.95534 0
M  V30 2566 H 244.034 2.74671 -5.95177 0
M  V30 2567 H 243.554 3.82429 -4.62069 0
M  V30 2568 H 245.233 3.82937 -5.21505 0
M  V30 2569 N 245.365 1.30045 0.890287 0
M  V30 2570 C 246.593 1.21472 1.67487 0
M  V30 2571 C 247.008 -0.223241 1.87476 0
M  V30 2572 O 246.365 -1.14828 1.41847 0
M  V30 2573 C 246.416 1.93394 3.05419 0
M  V30 2574 O 246.137 3.31576 2.86337 0
M  V30 2575 C 247.638 1.91414 3.99844 0
M  V30 2576 H 244.858 0.420604 0.522813 0
M  V30 2577 H 247.402 1.7158 1.11268 0
M  V30 2578 H 245.557 1.47099 3.58386 0
M  V30 2579 H 245.971 3.67929 3.73802 0
M  V30 2580 H 247.445 2.46285 4.94012 0
M  V30 2581 H 247.922 0.891833 4.3005 0
M  V30 2582 H 248.528 2.37496 3.52811 0
M  V30 2583 N 246.843 -1.10192 1.12674 0
M  V30 2584 C 247.79 -2.16606 0.796906 0
M  V30 2585 C 248.76 -1.64394 -0.237476 0
M  V30 2586 O 249.945 -1.90474 -0.111484 0
M  V30 2587 C 247.085 -3.44116 0.26043 0
M  V30 2588 C 246.198 -4.10268 1.35293 0
M  V30 2589 C 245.333 -5.25507 0.775621 0
M  V30 2590 C 244.372 -5.83567 1.84706 0
M  V30 2591 N 243.509 -6.90179 1.28829 0
M  V30 2592 H 248.349 -2.44163 1.70846 0
M  V30 2593 H 245.886 -1.19846 0.85295 0
M  V30 2594 H 247.844 -4.17143 -0.0686814 0
M  V30 2595 H 246.474 -3.16901 -0.614274 0
M  V30 2596 H 245.526 -3.35184 1.79877 0
M  V30 2597 H 246.838 -4.4946 2.16303 0
M  V30 2598 H 245.992 -6.05398 0.397327 0
M  V30 2599 H 244.731 -4.87656 -0.0656581 0
M  V30 2600 H 243.736 -5.02344 2.23452 0
M  V30 2601 H 244.961 -6.23482 2.69161 0
M  V30 2602 H 242.907 -6.54322 0.468881 0
M  V30 2603 H 242.824 -7.28097 2.03497 0
M  V30 2604 H 244.092 -7.73844 0.937311 0
M  V30 2605 N 248.321 -0.919034 -1.28029 0
M  V30 2606 C 249.737 -0.617972 -1.4715 0
M  V30 2607 C 249.937 0.835242 -1.83374 0
M  V30 2608 O 248.993 1.61388 -1.94191 0
M  V30 2609 C 250.306 -1.56041 -2.57044 0
M  V30 2610 C 251.854 -1.56769 -2.7091 0
M  V30 2611 C 252.329 -2.49688 -3.83953 0
M  V30 2612 N 253.82 -2.47845 -3.91314 0
M  V30 2613 C 254.555 -3.16437 -4.78179 0
M  V30 2614 N 254.051 -3.94376 -5.69596 0
M  V30 2615 N 255.844 -3.05498 -4.71834 0
M  V30 2616 H 247.995 -1.85866 -1.02798 0
M  V30 2617 H 250.258 -0.797506 -0.512531 0
M  V30 2618 H 249.964 -2.59671 -2.372 0
M  V30 2619 H 249.838 -1.29551 -3.54255 0
M  V30 2620 H 252.225 -0.538745 -2.90141 0
M  V30 2621 H 252.306 -1.87305 -1.74214 0
M  V30 2622 H 251.95 -3.52688 -3.65477 0
M  V30 2623 H 251.88 -2.16453 -4.80058 0
M  V30 2624 H 254.371 -1.91234 -3.25941 0
M  V30 2625 H 254.684 -4.43721 -6.32718 0
M  V30 2626 H 253.029 -3.98481 -5.69419 0
M  V30 2627 H 256.22 -2.44108 -3.99411 0
M  V30 2628 H 256.393 -3.59225 -5.39316 0
M  V30 2629 N 249.799 1.42003 -0.683588 0
M  V30 2630 C 250.746 2.30798 -0.0107309 0
M  V30 2631 C 251.716 1.4645 0.783688 0
M  V30 2632 O 252.901 1.75263 0.754156 0
M  V30 2633 C 250.041 3.3238 0.928306 0
M  V30 2634 C 249.154 4.31814 0.126776 0
M  V30 2635 C 248.289 5.20468 1.06236 0
M  V30 2636 C 247.328 6.11577 0.253035 0
M  V30 2637 N 246.465 6.92754 1.14179 0
M  V30 2638 H 251.305 2.8778 -0.773727 0
M  V30 2639 H 248.842 1.41745 -0.393283 0
M  V30 2640 H 250.8 3.89813 1.48666 0
M  V30 2641 H 249.43 2.76976 1.65783 0
M  V30 2642 H 248.482 3.76427 -0.54833 0
M  V30 2643 H 249.794 4.96276 -0.501192 0
M  V30 2644 H 248.948 5.82677 1.69035 0
M  V30 2645 H 247.687 4.56204 1.7242 0
M  V30 2646 H 246.692 5.48428 -0.388108 0
M  V30 2647 H 247.917 6.77892 -0.404839 0
M  V30 2648 H 245.863 6.3111 1.78987 0
M  V30 2649 H 245.78 7.53855 0.569111 0
M  V30 2650 H 247.048 7.59441 1.75697 0
M  V30 2651 N 251.277 0.427512 1.51691 0
M  V30 2652 C 252.523 -0.134744 2.02953 0
M  V30 2653 C 252.878 -1.41235 1.30654 0
M  V30 2654 O 252.171 -1.87168 0.409713 0
M  V30 2655 C 252.365 -0.418249 3.54944 0
M  V30 2656 C 252.194 0.830327 4.41968 0
M  V30 2657 C 250.964 1.36097 4.86627 0
M  V30 2658 C 253.162 1.7137 4.84909 0
M  V30 2659 N 251.144 2.56311 5.57833 0
M  V30 2660 C 252.515 2.76195 5.55082 0
M  V30 2661 C 254.57 1.72928 4.66905 0
M  V30 2662 C 253.273 3.82512 6.09161 0
M  V30 2663 C 255.299 2.78175 5.21894 0
M  V30 2664 C 254.661 3.8172 5.92004 0
M  V30 2665 H 250.76 -0.0103958 0.781931 0
M  V30 2666 H 253.344 0.585981 1.85673 0
M  V30 2667 H 251.515 -1.10801 3.7226 0
M  V30 2668 H 253.247 -0.970999 3.92879 0
M  V30 2669 H 250.002 0.916311 4.64651 0
M  V30 2670 H 250.426 3.17242 5.98069 0
M  V30 2671 H 255.068 0.942081 4.12171 0
M  V30 2672 H 252.786 4.62077 6.62956 0
M  V30 2673 H 256.372 2.8031 5.09821 0
M  V30 2674 H 255.252 4.61821 6.33791 0
M  V30 2675 N 252.755 -1.56801 0.158532 0
M  V30 2676 C 253.665 -2.20916 -0.789518 0
M  V30 2677 C 254.681 -1.1969 -1.26294 0
M  V30 2678 O 255.857 -1.52308 -1.31773 0
M  V30 2679 C 252.922 -2.82727 -2.00665 0
M  V30 2680 C 251.983 -3.99114 -1.58134 0
M  V30 2681 C 251.216 -4.57968 -2.74045 0
M  V30 2682 O 251.439 -4.15704 -3.90572 0
M  V30 2683 O 250.373 -5.48047 -2.48855 0
M  V30 2684 H 254.199 -3.02464 -0.273681 0
M  V30 2685 H 251.784 -1.4924 -0.0690548 0
M  V30 2686 H 253.666 -3.21968 -2.71872 0
M  V30 2687 H 252.341 -2.04184 -2.51179 0
M  V30 2688 H 251.248 -3.64567 -0.839155 0
M  V30 2689 H 252.581 -4.79212 -1.12325 0
M  V30 2690 N 254.233 0.115231 -1.57178 0
M  V30 2691 C 255.196 1.12526 -1.99676 0
M  V30 2692 C 256.196 1.34095 -0.88742 0
M  V30 2693 O 257.386 1.30548 -1.15337 0
M  V30 2694 C 254.518 2.4789 -2.34015 0
M  V30 2695 H 255.711 0.759912 -2.90113 0
M  V30 2696 H 253.264 0.359648 -1.52106 0
M  V30 2697 H 253.999 2.89339 -1.4647 0
M  V30 2698 H 253.784 2.33588 -3.14927 0
M  V30 2699 H 255.274 3.20575 -2.67622 0
M  V30 2700 N 255.711 1.52812 0.385517 0
M  V30 2701 C 256.674 1.77188 1.45386 0
M  V30 2702 C 257.674 0.641953 1.4743 0
M  V30 2703 O 258.864 0.910033 1.4854 0
M  V30 2704 C 255.996 1.87582 2.8465 0
M  V30 2705 H 257.189 2.72583 1.25054 0
M  V30 2706 H 254.742 1.43586 0.617467 0
M  V30 2707 H 255.477 0.941849 3.10322 0
M  V30 2708 H 255.262 2.69748 2.84567 0
M  V30 2709 H 256.752 2.08102 3.62054 0
M  V30 2710 N 257.189 -0.644168 1.43834 0
M  V30 2711 C 258.139 -1.7501 1.46135 0
M  V30 2712 C 259.123 -1.57507 0.328685 0
M  V30 2713 O 260.315 -1.67465 0.5731 0
M  V30 2714 C 257.444 -3.13641 1.39585 0
M  V30 2715 C 256.53 -3.3666 2.57916 0
M  V30 2716 N 256.921 -3.30107 3.83227 0
M  V30 2717 C 255.219 -3.67411 2.52834 0
M  V30 2718 C 255.92 -3.53456 4.61999 0
M  V30 2719 N 254.896 -3.75705 3.9287 0
M  V30 2720 H 258.698 -1.68382 2.40883 0
M  V30 2721 H 256.212 -0.846169 1.38614 0
M  V30 2722 H 258.209 -3.92933 1.39317 0
M  V30 2723 H 256.869 -3.21444 0.45865 0
M  V30 2724 H 257.88 -3.09316 4.15384 0
M  V30 2725 H 254.557 -3.82275 1.67845 0
M  V30 2726 H 255.947 -3.54093 5.71024 0
M  V30 2727 N 258.668 -1.30515 -0.883378 0
M  V30 2728 C 259.578 -1.18959 -2.02203 0
M  V30 2729 C 260.594 -0.109172 -1.73657 0
M  V30 2730 O 261.77 -0.324413 -1.9877 0
M  V30 2731 C 258.835 -0.883871 -3.35244 0
M  V30 2732 C 257.896 -2.04982 -3.77201 0
M  V30 2733 C 257.129 -1.75859 -5.03894 0
M  V30 2734 O 257.352 -0.687276 -5.66244 0
M  V30 2735 O 256.286 -2.61146 -5.42297 0
M  V30 2736 H 260.112 -2.14616 -2.1488 0
M  V30 2737 H 257.697 -1.10124 -1.0096 0
M  V30 2738 H 259.579 -0.728644 -4.15053 0
M  V30 2739 H 258.254 0.0427798 -3.23672 0
M  V30 2740 H 257.161 -2.26038 -2.9809 0
M  V30 2741 H 258.494 -2.95825 -3.93381 0
M  V30 2742 N 260.146 1.09593 -1.13257 0
M  V30 2743 C 261.109 2.14359 -0.811358 0
M  V30 2744 C 262.109 1.59808 0.178377 0
M  V30 2745 O 263.299 1.74132 -0.0484911 0
M  V30 2746 C 260.431 3.40269 -0.207276 0
M  V30 2747 H 261.624 2.44284 -1.73969 0
M  V30 2748 H 259.177 1.25102 -0.936973 0
M  V30 2749 H 259.912 3.15969 0.73036 0
M  V30 2750 H 259.697 3.81154 -0.919992 0
M  V30 2751 H 261.187 4.176 0.000667944 0
M  V30 2752 N 261.624 0.925811 1.2754 0
M  V30 2753 C 262.534 0.428993 2.30644 0
M  V30 2754 C 263.55 -0.489387 1.66976 0
M  V30 2755 O 264.726 -0.372653 1.97922 0
M  V30 2756 C 261.791 -0.311967 3.45294 0
M  V30 2757 C 260.852 0.641098 4.24486 0
M  V30 2758 C 260.085 -0.0645955 5.33661 0
M  V30 2759 O 260.308 -1.28429 5.55754 0
M  V30 2760 O 259.242 0.606265 5.98839 0
M  V30 2761 H 263.068 1.28504 2.75173 0
M  V30 2762 H 260.653 0.691086 1.32455 0
M  V30 2763 H 262.535 -0.729972 4.15029 0
M  V30 2764 H 261.21 -1.14365 3.02824 0
M  V30 2765 H 260.117 1.10874 3.57292 0
M  V30 2766 H 261.45 1.43995 4.70666 0
M  V30 2767 N 263.102 -1.41638 0.69111 0
M  V30 2768 C 264.034 -2.29194 -0.0161523 0
M  V30 2769 C 265.047 -1.44549 -0.748955 0
M  V30 2770 O 266.236 -1.681 -0.6004 0
M  V30 2771 C 263.336 -3.22325 -1.0469 0
M  V30 2772 C 262.509 -4.35706 -0.384621 0
M  V30 2773 C 261.568 -5.09443 -1.31737 0
M  V30 2774 O 260.594 -5.63386 -0.811451 0
M  V30 2775 N 261.796 -5.16487 -2.64993 0
M  V30 2776 H 264.561 -2.90534 0.735523 0
M  V30 2777 H 262.122 -1.52742 0.53679 0
M  V30 2778 H 264.114 -3.68522 -1.67252 0
M  V30 2779 H 262.684 -2.62323 -1.70015 0
M  V30 2780 H 261.904 -3.91948 0.420804 0
M  V30 2781 H 263.192 -5.08743 0.0760765 0
M  V30 2782 H 262.59 -4.741 -3.08619 0
M  V30 2783 H 261.147 -5.66276 -3.22761 0
M  V30 2784 N 264.58 -0.43555 -1.51462 0
M  V30 2785 C 265.51 0.367376 -2.30592 0
M  V30 2786 C 266.491 1.02263 -1.35928 0
M  V30 2787 O 267.676 1.02661 -1.64847 0
M  V30 2788 C 264.806 1.46983 -3.14664 0
M  V30 2789 C 263.76 0.938161 -4.17591 0
M  V30 2790 C 263.086 2.13622 -4.90173 0
M  V30 2791 C 264.386 -0.0261621 -5.22293 0
M  V30 2792 H 266.08 -0.292969 -2.97963 0
M  V30 2793 H 263.626 -0.14234 -1.43295 0
M  V30 2794 H 265.579 2.03873 -3.688 0
M  V30 2795 H 264.303 2.15843 -2.4511 0
M  V30 2796 H 262.962 0.391481 -3.64504 0
M  V30 2797 H 262.61 2.81098 -4.17124 0
M  V30 2798 H 262.31 1.78688 -5.59772 0
M  V30 2799 H 263.834 2.7107 -5.47132 0
M  V30 2800 H 265.248 0.452384 -5.71512 0
M  V30 2801 H 263.645 -0.287992 -5.99409 0
M  V30 2802 H 264.715 -0.963391 -4.75233 0
M  V30 2803 N 266.058 1.56714 -0.166846 0
M  V30 2804 C 267.474 1.58473 0.189372 0
M  V30 2805 C 267.674 1.18201 1.63189 0
M  V30 2806 O 266.73 0.891528 2.36237 0
M  V30 2807 C 268.043 3.00573 -0.0873872 0
M  V30 2808 C 269.591 3.1299 -0.0252443 0
M  V30 2809 C 270.066 4.57174 -0.274934 0
M  V30 2810 N 271.557 4.62665 -0.222553 0
M  V30 2811 C 272.292 5.72072 -0.389985 0
M  V30 2812 N 271.788 6.90054 -0.616229 0
M  V30 2813 N 273.581 5.61153 -0.326202 0
M  V30 2814 H 265.732 1.8118 -1.10849 0
M  V30 2815 H 267.995 0.839525 -0.440342 0
M  V30 2816 H 267.701 3.34497 -1.0865 0
M  V30 2817 H 267.575 3.72019 0.623037 0
M  V30 2818 H 269.962 2.78895 0.96444 0
M  V30 2819 H 270.043 2.43989 -0.768309 0
M  V30 2820 H 269.687 4.91976 -1.26181 0
M  V30 2821 H 269.617 5.24328 0.48869 0
M  V30 2822 H 272.108 3.77863 -0.0531512 0
M  V30 2823 H 272.421 7.69311 -0.733559 0
M  V30 2824 H 270.766 6.91927 -0.652791 0
M  V30 2825 H 273.957 4.67859 -0.150072 0
M  V30 2826 H 274.13 6.46364 -0.460116 0
M  V30 2827 N 267.536 -0.106894 1.57237 0
M  V30 2828 C 268.499 -1.11466 2.0027 0
M  V30 2829 C 269.499 -1.33623 0.894519 0
M  V30 2830 O 270.689 -1.29935 1.16028 0
M  V30 2831 C 267.821 -2.46646 2.35327 0
M  V30 2832 H 269.014 -0.744516 2.90512 0
M  V30 2833 H 266.567 -0.351576 1.52295 0
M  V30 2834 H 267.302 -2.88558 1.48003 0
M  V30 2835 H 267.087 -2.31915 3.16161 0
M  V30 2836 H 268.577 -3.19151 2.69318 0
M  V30 2837 N 269.014 -1.53014 -0.377408 0
M  V30 2838 C 270.244 -1.72265 -1.14054 0
M  V30 2839 C 270.652 -0.44601 -1.83868 0
M  V30 2840 O 269.995 0.590095 -1.73964 0
M  V30 2841 C 270.057 -2.82492 -2.22348 0
M  V30 2842 C 269.721 -4.23233 -1.72402 0
M  V30 2843 C 270.718 -5.05992 -1.19448 0
M  V30 2844 C 268.403 -4.696 -1.78273 0
M  V30 2845 C 270.397 -6.33203 -0.730268 0
M  V30 2846 C 268.084 -5.96792 -1.31464 0
M  V30 2847 C 269.082 -6.78424 -0.789297 0
M  V30 2848 O 268.77 -8.0323 -0.328077 0
M  V30 2849 H 268.502 -0.579873 -0.347453 0
M  V30 2850 H 271.056 -2.00502 -0.445882 0
M  V30 2851 H 269.286 -2.49702 -2.95272 0
M  V30 2852 H 270.975 -2.90034 -2.83963 0
M  V30 2853 H 271.741 -4.71349 -1.14259 0
M  V30 2854 H 267.62 -4.06142 -2.18106 0
M  V30 2855 H 271.164 -6.96868 -0.319542 0
M  V30 2856 H 267.061 -6.30937 -1.36342 0
M  V30 2857 H 267.829 -8.1727 -0.448493 0
M  V30 2858 N 270.492 0.636531 -1.44174 0
M  V30 2859 C 271.422 1.76003 -1.53444 0
M  V30 2860 C 272.403 1.65619 -0.387841 0
M  V30 2861 O 273.588 1.84461 -0.607257 0
M  V30 2862 C 270.718 3.14511 -1.4731 0
M  V30 2863 C 269.672 3.39677 -2.60391 0
M  V30 2864 C 268.998 4.78159 -2.39308 0
M  V30 2865 C 270.298 3.32772 -4.02567 0
M  V30 2866 H 271.992 1.68501 -2.47483 0
M  V30 2867 H 269.538 0.809237 -1.19111 0
M  V30 2868 H 271.491 3.92878 -1.52397 0
M  V30 2869 H 270.215 3.22783 -0.49785 0
M  V30 2870 H 268.874 2.63688 -2.54684 0
M  V30 2871 H 268.522 4.83128 -1.39988 0
M  V30 2872 H 268.222 4.95956 -3.15122 0
M  V30 2873 H 269.746 5.58762 -2.46205 0
M  V30 2874 H 271.16 4.01051 -4.09672 0
M  V30 2875 H 269.557 3.62104 -4.7854 0
M  V30 2876 H 270.627 2.30669 -4.2652 0
M  V30 2877 N 271.97 1.30982 0.876444 0
M  V30 2878 C 273.247 1.10942 1.61094 0
M  V30 2879 C 273.627 -0.338223 2.08373 0
M  V30 2880 O 272.975 -1.33122 1.85717 0
M  V30 2881 C 273.185 2.11789 2.77392 0
M  V30 2882 C 274.533 2.43965 3.47514 0
M  V30 2883 O 275.557 2.10166 2.87591 0
M  V30 2884 O 274.416 3.01817 4.55597 0
M  V30 2885 H 271.51 0.42667 0.708436 0
M  V30 2886 H 274.056 1.42438 0.922474 0
M  V30 2887 H 272.828 3.09194 2.39823 0
M  V30 2888 H 272.451 1.81161 3.5393 0
M  V30 2889 N 273.449 -1.08991 1.13837 0
M  V30 2890 C 274.697 -1.80899 0.901098 0
M  V30 2891 C 275.018 -1.86356 -0.574134 0
M  V30 2892 O 274.288 -1.35235 -1.41733 0
M  V30 2893 H 272.868 -0.669966 0.330386 0
M  V30 2894 H 275.53 -1.318 1.43578 0
M  V30 2895 H 274.626 -2.83929 1.29578 0
M  V30 2896 N 274.927 -0.932562 -1.27047 0
M  V30 2897 C 276.155 -0.592031 -1.98249 0
M  V30 2898 C 276.57 0.831062 -1.69525 0
M  V30 2899 O 275.927 1.55299 -0.958561 0
M  V30 2900 C 275.978 -0.814279 -3.5221 0
M  V30 2901 O 275.699 -2.18139 -3.7993 0
M  V30 2902 C 277.2 -0.483121 -4.4066 0
M  V30 2903 H 274.42 -0.223896 -0.632544 0
M  V30 2904 H 276.964 -1.25091 -1.61779 0
M  V30 2905 H 275.119 -0.20213 -3.86872 0
M  V30 2906 H 275.533 -2.235 -4.74498 0
M  V30 2907 H 277.007 -0.689298 -5.47679 0
M  V30 2908 H 277.484 0.581546 -4.35333 0
M  V30 2909 H 278.09 -1.07362 -4.11526 0
M  V30 2910 N 276.405 1.4127 -0.698611 0
M  V30 2911 C 277.645 2.03044 -0.235062 0
M  V30 2912 C 278.009 1.54146 1.14468 0
M  V30 2913 O 279.21 2.07867 1.70425 0
M  V30 2914 C 277.481 3.56192 -0.293651 0
M  V30 2915 S 279.04 4.38696 0.0954053 0
M  V30 2916 H 275.858 0.704697 -0.0944648 0
M  V30 2917 H 278.46 1.72656 -0.917064 0
M  V30 2918 H 277.164 3.89274 -1.29977 0
M  V30 2919 H 276.695 3.91285 0.407397 0
M  V30 2920 H 278.71 4.78257 1.3223 0
M  V30 2921 N 277.883 0.443576 1.51229 0
M  V30 2922 C 279.129 -0.120975 2.02439 0
M  V30 2923 C 279.462 -1.41815 1.32674 0
M  V30 2924 O 278.737 -1.89373 0.443622 0
M  V30 2925 C 279.02 -0.333291 3.58554 0
M  V30 2926 C 278.873 0.982968 4.38928 0
M  V30 2927 C 280.192 -1.10028 4.26124 0
M  V30 2928 H 277.311 -0.0424923 0.735774 0
M  V30 2929 H 279.953 0.583794 1.80809 0
M  V30 2930 H 278.103 -0.933614 3.77115 0
M  V30 2931 H 279.775 1.61775 4.32003 0
M  V30 2932 H 278.018 1.58611 4.03763 0
M  V30 2933 H 278.689 0.788379 5.46341 0
M  V30 2934 H 281.165 -0.591711 4.11871 0
M  V30 2935 H 280.041 -1.21761 5.35225 0
M  V30 2936 H 280.302 -2.12996 3.87408 0
M  V30 2937 N 279.361 -1.56624 0.175154 0
M  V30 2938 C 280.271 -2.21741 -0.766042 0
M  V30 2939 C 281.287 -1.21023 -1.25018 0
M  V30 2940 O 282.463 -1.53697 -1.3015 0
M  V30 2941 C 279.528 -2.84839 -1.97655 0
M  V30 2942 C 278.589 -4.00769 -1.53892 0
M  V30 2943 C 277.822 -4.60849 -2.69173 0
M  V30 2944 O 278.045 -4.19823 -3.86141 0
M  V30 2945 O 276.979 -5.50655 -2.43028 0
M  V30 2946 H 280.805 -3.02738 -0.241585 0
M  V30 2947 H 278.39 -1.49305 -0.053222 0
M  V30 2948 H 280.272 -3.24834 -2.68442 0
M  V30 2949 H 278.947 -2.06836 -2.48999 0
M  V30 2950 H 277.854 -3.65436 -0.80044 0
M  V30 2951 H 279.187 -4.80376 -1.07236 0
M  V30 2952 N 280.839 0.0985539 -1.57292 0
M  V30 2953 C 282.085 0.798769 -1.87059 0
M  V30 2954 C 282.44 1.76514 -0.76555 0
M  V30 2955 O 281.733 1.90181 0.232752 0
M  V30 2956 C 281.927 1.56927 -3.21105 0
M  V30 2957 C 281.756 0.679026 -4.44544 0
M  V30 2958 C 280.526 0.326071 -5.04247 0
M  V30 2959 C 282.724 -0.0124715 -5.14298 0
M  V30 2960 N 280.706 -0.572702 -6.11223 0
M  V30 2961 C 282.077 -0.769446 -6.15207 0
M  V30 2962 C 284.132 -0.0867545 -4.97824 0
M  V30 2963 C 282.835 -1.59376 -7.01421 0
M  V30 2964 C 284.861 -0.897955 -5.84543 0
M  V30 2965 C 284.223 -1.64306 -6.84969 0
M  V30 2966 H 280.322 0.268568 -0.734435 0
M  V30 2967 H 282.906 0.0614664 -1.94603 0
M  V30 2968 H 281.077 2.27748 -3.1462 0
M  V30 2969 H 282.809 2.21641 -3.38611 0
M  V30 2970 H 279.564 0.67295 -4.68795 0
M  V30 2971 H 279.988 -1.01454 -6.69355 0
M  V30 2972 H 284.63 0.474963 -4.20124 0
M  V30 2973 H 282.348 -2.16655 -7.78515 0
M  V30 2974 H 285.934 -0.958059 -5.73858 0
M  V30 2975 H 284.814 -2.26065 -7.50909 0
M  V30 2976 N 282.317 1.53212 0.369288 0
M  V30 2977 C 283.247 1.82365 1.45826 0
M  V30 2978 C 284.228 0.676907 1.56051 0
M  V30 2979 O 285.413 0.926401 1.70679 0
M  V30 2980 C 282.543 2.01023 2.83208 0
M  V30 2981 C 281.497 3.1678 2.8781 0
M  V30 2982 C 280.823 3.20724 4.27832 0
M  V30 2983 C 282.123 4.55447 2.55667 0
M  V30 2984 H 283.817 2.73559 1.21678 0
M  V30 2985 H 281.363 1.3163 0.583911 0
M  V30 2986 H 283.316 2.20001 3.59413 0
M  V30 2987 H 282.04 1.06536 3.08736 0
M  V30 2988 H 280.699 2.97616 2.14056 0
M  V30 2989 H 280.347 2.23882 4.50429 0
M  V30 2990 H 280.047 3.98496 4.31827 0
M  V30 2991 H 281.571 3.41881 5.05915 0
M  V30 2992 H 282.985 4.74611 3.21586 0
M  V30 2993 H 281.382 5.35432 2.70984 0
M  V30 2994 H 282.452 4.60812 1.5093 0
M  V30 2995 N 283.795 -0.628877 1.44509 0
M  V30 2996 C 285.211 -0.947305 1.28446 0
M  V30 2997 C 285.411 -2.00275 0.221872 0
M  V30 2998 O 284.467 -2.49447 -0.391471 0
M  V30 2999 C 285.78 -1.40843 2.65676 0
M  V30 3000 C 287.328 -1.52379 2.73404 0
M  V30 3001 C 287.803 -2.01875 4.11109 0
M  V30 3002 N 289.294 -2.09142 4.13296 0
M  V30 3003 C 290.029 -2.48615 5.16699 0
M  V30 3004 N 289.525 -2.87209 6.30462 0
M  V30 3005 N 291.318 -2.48768 5.04054 0
M  V30 3006 H 283.469 0.0690977 2.12288 0
M  V30 3007 H 285.732 -0.0317164 0.947469 0
M  V30 3008 H 285.438 -0.707206 3.44516 0
M  V30 3009 H 285.312 -2.37902 2.92716 0
M  V30 3010 H 287.699 -2.21598 1.9488 0
M  V30 3011 H 287.78 -0.536898 2.50102 0
M  V30 3012 H 287.424 -1.3325 4.90109 0
M  V30 3013 H 287.354 -3.0144 4.31789 0
M  V30 3014 H 289.845 -1.81991 3.31191 0
M  V30 3015 H 290.158 -3.16149 7.05174 0
M  V30 3016 H 288.503 -2.84955 6.33897 0
M  V30 3017 H 291.694 -2.18009 4.14234 0
M  V30 3018 H 291.867 -2.79207 5.84763 0
M  V30 3019 N 285.273 -1.31445 -0.869486 0
M  V30 3020 C 286.689 -1.10113 -1.15531 0
M  V30 3021 C 286.889 0.128087 -2.01092 0
M  V30 3022 O 285.945 0.817276 -2.38908 0
M  V30 3023 C 287.258 -2.37291 -1.84698 0
M  V30 3024 C 288.806 -2.42906 -1.97397 0
M  V30 3025 C 289.281 -3.69967 -2.69979 0
M  V30 3026 N 290.772 -3.70864 -2.77514 0
M  V30 3027 C 291.507 -4.65875 -3.34287 0
M  V30 3028 N 291.003 -5.71242 -3.91988 0
M  V30 3029 N 292.796 -4.53394 -3.3225 0
M  V30 3030 H 284.947 -2.1028 -0.299347 0
M  V30 3031 H 287.21 -0.927683 -0.195214 0
M  V30 3032 H 286.916 -3.27078 -1.29278 0
M  V30 3033 H 286.79 -2.47125 -2.84972 0
M  V30 3034 H 289.177 -1.53588 -2.51982 0
M  V30 3035 H 289.258 -2.37036 -0.961643 0
M  V30 3036 H 288.902 -4.59652 -2.16062 0
M  V30 3037 H 288.832 -3.73103 -3.7162 0
M  V30 3038 H 291.323 -2.94697 -2.36563 0
M  V30 3039 H 291.636 -6.39817 -4.33421 0
M  V30 3040 H 289.981 -5.75015 -3.90362 0
M  V30 3041 H 293.172 -3.70252 -2.8641 0
M  V30 3042 H 293.345 -5.27617 -3.76197 0
M  V30 3043 N 286.751 1.08385 -1.14413 0
M  V30 3044 C 287.981 1.8425 -0.934644 0
M  V30 3045 C 288.389 1.81907 0.520234 0
M  V30 3046 O 287.732 1.22126 1.37226 0
M  V30 3047 C 287.794 3.32853 -1.35828 0
M  V30 3048 C 287.458 3.5893 -2.82875 0
M  V30 3049 C 288.455 3.53756 -3.80989 0
M  V30 3050 C 286.14 3.86934 -3.20293 0
M  V30 3051 C 288.134 3.76216 -5.14529 0
M  V30 3052 C 285.821 4.09047 -4.54008 0
M  V30 3053 C 286.819 4.03682 -5.50936 0
M  V30 3054 O 286.507 4.25214 -6.82238 0
M  V30 3055 H 286.239 0.588502 -0.332628 0
M  V30 3056 H 288.793 1.37792 -1.52324 0
M  V30 3057 H 287.023 3.8007 -0.713019 0
M  V30 3058 H 288.712 3.90154 -1.11957 0
M  V30 3059 H 289.478 3.32135 -3.53428 0
M  V30 3060 H 285.357 3.9023 -2.45442 0
M  V30 3061 H 288.901 3.71943 -5.90173 0
M  V30 3062 H 284.798 4.30151 -4.8129 0
M  V30 3063 H 285.566 4.42619 -6.88499 0
M  V30 3064 N 288.23 0.939286 1.26551 0
M  V30 3065 C 289.16 0.465044 2.28822 0
M  V30 3066 C 290.141 -0.480692 1.63167 0
M  V30 3067 O 291.326 -0.382955 1.90387 0
M  V30 3068 C 288.456 -0.27234 3.46231 0
M  V30 3069 C 287.41 0.58666 4.2396 0
M  V30 3070 C 286.736 -0.280573 5.33963 0
M  V30 3071 C 288.036 1.85704 4.88171 0
M  V30 3072 H 289.73 1.31979 2.68741 0
M  V30 3073 H 287.276 0.636061 1.29191 0
M  V30 3074 H 289.229 -0.615133 4.16886 0
M  V30 3075 H 287.953 -1.16121 3.0526 0
M  V30 3076 H 286.612 0.91232 3.55067 0
M  V30 3077 H 286.26 -1.16874 4.89234 0
M  V30 3078 H 285.96 0.29076 5.8688 0
M  V30 3079 H 287.484 -0.618678 6.07458 0
M  V30 3080 H 288.898 1.58161 5.51052 0
M  V30 3081 H 287.295 2.37279 5.51197 0
M  V30 3082 H 288.365 2.56957 4.11219 0
M  V30 3083 N 289.708 -1.40897 0.706093 0
M  V30 3084 C 290.618 -2.3455 0.0482286 0
M  V30 3085 C 291.634 -1.56796 -0.754396 0
M  V30 3086 O 292.81 -1.89228 -0.689538 0
M  V30 3087 C 289.875 -3.35625 -0.869303 0
M  V30 3088 C 288.936 -4.29261 -0.0576994 0
M  V30 3089 C 288.169 -5.25508 -0.931531 0
M  V30 3090 O 288.392 -5.27472 -2.17092 0
M  V30 3091 O 287.326 -6.00727 -0.375587 0
M  V30 3092 H 291.152 -2.92407 0.820476 0
M  V30 3093 H 288.737 -1.4193 0.4665 0
M  V30 3094 H 290.619 -3.97635 -1.39514 0
M  V30 3095 H 289.294 -2.80196 -1.62086 0
M  V30 3096 H 288.201 -3.70566 0.512988 0
M  V30 3097 H 289.534 -4.87817 0.655426 0
M  V30 3098 N 291.186 -0.45159 -1.50991 0
M  V30 3099 C 292.134 0.366864 -2.29689 0
M  V30 3100 C 293.128 1.00809 -1.36139 0
M  V30 3101 O 294.334 0.941427 -1.53418 0
M  V30 3102 H 290.709 0.137133 -0.739391 0
M  V30 3103 H 292.68 -0.317538 -2.96706 0
M  V30 3104 C 291.429 1.44751 -3.16137 0
M  V30 3105 H 290.752 0.963473 -3.88017 0
M  V30 3106 H 292.192 1.99315 -3.74232 0
M  V30 3107 C 290.651 2.43869 -2.32442 0
M  V30 3108 O 291.181 3.4872 -1.99392 0
M  V30 3109 N 289.387 2.15105 -1.95392 0
M  V30 3110 H 288.934 1.29866 -2.22469 0
M  V30 3111 H 288.892 2.81661 -1.39693 0
M  V30 3112 N 292.664 1.56529 -0.183458 0
M  V30 3113 C 293.912 1.96855 0.457452 0
M  V30 3114 C 294.233 1.07104 1.62953 0
M  V30 3115 O 293.503 0.139887 1.954 0
M  V30 3116 H 292.083 0.72693 0.171992 0
M  V30 3117 H 294.745 1.93056 -0.267476 0
M  V30 3118 H 293.841 3.01423 0.809368 0
M  V30 3119 N 294.142 -0.090211 1.57342 0
M  V30 3120 C 295.089 -1.10909 2.02405 0
M  V30 3121 C 296.059 -1.39523 0.901252 0
M  V30 3122 O 297.244 -1.50903 1.1676 0
M  V30 3123 C 294.384 -2.42277 2.45755 0
M  V30 3124 C 293.497 -2.20352 3.71576 0
M  V30 3125 C 292.632 -3.45154 4.03785 0
M  V30 3126 C 291.671 -3.18512 5.22701 0
M  V30 3127 N 290.808 -4.35593 5.50639 0
M  V30 3128 H 295.648 -0.71782 2.89225 0
M  V30 3129 H 293.185 -0.342901 1.43048 0
M  V30 3130 H 295.143 -3.18951 2.68935 0
M  V30 3131 H 293.773 -2.79242 1.61938 0
M  V30 3132 H 292.825 -1.34458 3.55844 0
M  V30 3133 H 294.137 -1.96661 4.58395 0
M  V30 3134 H 293.291 -4.30233 4.27767 0
M  V30 3135 H 292.03 -3.71904 3.15498 0
M  V30 3136 H 291.035 -2.31827 4.98534 0
M  V30 3137 H 292.26 -2.93103 6.12591 0
M  V30 3138 H 290.206 -4.6241 4.6531 0
M  V30 3139 H 290.123 -4.1511 6.31838 0
M  V30 3140 H 291.391 -5.21723 5.7916 0
M  V30 3141 N 295.62 -1.53406 -0.361157 0
M  V30 3142 C 296.53 -1.83122 -1.4664 0
M  V30 3143 C 297.546 -0.719943 -1.58407 0
M  V30 3144 O 298.722 -1.01046 -1.74218 0
M  V30 3145 C 295.787 -2.01891 -2.81853 0
M  V30 3146 C 294.848 -3.25784 -2.79577 0
M  V30 3147 C 294.081 -3.43648 -4.0834 0
M  V30 3148 O 294.304 -2.65714 -5.0473 0
M  V30 3149 O 293.238 -4.37018 -4.13883 0
M  V30 3150 H 297.064 -2.7703 -1.24451 0
M  V30 3151 H 294.649 -1.38841 -0.551678 0
M  V30 3152 H 296.531 -2.15782 -3.61962 0
M  V30 3153 H 295.206 -1.11173 -3.0401 0
M  V30 3154 H 294.113 -3.17312 -1.98151 0
M  V30 3155 H 295.446 -4.16439 -2.62373 0
M  V30 3156 N 297.098 0.621204 -1.44841 0
M  V30 3157 C 298.326 1.40752 -1.51646 0
M  V30 3158 C 298.741 1.88246 -0.144549 0
M  V30 3159 O 298.098 1.61422 0.851416 0
M  V30 3160 C 298.149 2.62119 -2.4895 0
M  V30 3161 O 297.87 2.16602 -3.80808 0
M  V30 3162 C 299.371 3.55135 -2.65319 0
M  V30 3163 H 296.591 0.431325 -0.514004 0
M  V30 3164 H 299.135 0.758835 -1.899 0
M  V30 3165 H 297.29 3.23058 -2.13805 0
M  V30 3166 H 297.704 2.95358 -4.33433 0
M  V30 3167 H 299.178 4.36874 -3.37409 0
M  V30 3168 H 299.655 4.04592 -1.70886 0
M  V30 3169 H 300.261 3.00058 -3.01405 0
M  V30 3170 N 298.576 1.31904 0.862503 0
M  V30 3171 C 299.506 1.22782 1.98612 0
M  V30 3172 C 300.487 0.113362 1.69722 0
M  V30 3173 O 301.672 0.299218 1.91881 0
M  V30 3174 C 298.802 0.942058 3.34279 0
M  V30 3175 C 297.756 2.0169 3.77499 0
M  V30 3176 C 297.082 1.58369 5.10709 0
M  V30 3177 C 298.382 3.43096 3.93805 0
M  V30 3178 H 300.076 2.16788 2.06502 0
M  V30 3179 H 297.622 1.04366 0.992154 0
M  V30 3180 H 299.575 0.864818 4.1243 0
M  V30 3181 H 298.299 -0.0336603 3.26583 0
M  V30 3182 H 296.958 2.08416 3.01593 0
M  V30 3183 H 296.606 0.595628 4.99461 0
M  V30 3184 H 296.306 2.30279 5.40597 0
M  V30 3185 H 297.83 1.52067 5.91361 0
M  V30 3186 H 299.244 3.39003 4.62331 0
M  V30 3187 H 297.641 4.13288 4.35101 0
M  V30 3188 H 298.711 3.83334 2.96957 0
M  V30 3189 N 300.054 -1.07777 1.14986 0
M  V30 3190 C 300.986 -2.14769 0.800436 0
M  V30 3191 C 301.999 -1.61739 -0.185595 0
M  V30 3192 O 303.188 -1.78462 0.0370358 0
M  V30 3193 C 300.288 -3.38481 0.168533 0
M  V30 3194 C 299.461 -4.20876 1.1909 0
M  V30 3195 C 298.52 -5.22976 0.581575 0
M  V30 3196 O 297.546 -5.55388 1.24633 0
M  V30 3197 N 298.748 -5.76976 -0.638706 0
M  V30 3198 H 301.513 -2.45348 1.72118 0
M  V30 3199 H 299.074 -1.23645 1.04515 0
M  V30 3200 H 301.066 -4.03916 -0.251764 0
M  V30 3201 H 299.636 -3.05651 -0.655467 0
M  V30 3202 H 298.856 -3.51322 1.78791 0
M  V30 3203 H 300.144 -4.7274 1.88133 0
M  V30 3204 H 299.542 -5.52886 -1.19723 0
M  V30 3205 H 298.099 -6.44061 -1.00142 0
M  V30 3206 N 301.532 -0.945985 -1.26051 0
M  V30 3207 C 302.948 -0.649045 -1.45807 0
M  V30 3208 C 303.148 0.796158 -1.85104 0
M  V30 3209 O 302.204 1.57233 -1.97571 0
M  V30 3210 C 303.517 -1.61458 -2.53677 0
M  V30 3211 C 305.065 -1.62481 -2.67524 0
M  V30 3212 C 305.54 -2.57776 -3.7857 0
M  V30 3213 N 307.031 -2.5609 -3.85969 0
M  V30 3214 C 307.766 -3.26508 -4.7136 0
M  V30 3215 N 307.262 -4.0637 -5.61102 0
M  V30 3216 N 309.055 -3.15437 -4.65248 0
M  V30 3217 H 301.206 -1.88005 -0.988328 0
M  V30 3218 H 303.469 -0.808198 -0.4955 0
M  V30 3219 H 303.175 -2.64644 -2.31638 0
M  V30 3220 H 303.049 -1.37036 -3.51427 0
M  V30 3221 H 305.436 -0.600167 -2.88933 0
M  V30 3222 H 305.517 -1.90958 -1.70202 0
M  V30 3223 H 305.161 -3.60361 -3.57913 0
M  V30 3224 H 305.091 -2.26587 -4.75359 0
M  V30 3225 H 307.582 -1.98105 -3.21812 0
M  V30 3226 H 307.895 -4.57042 -6.23164 0
M  V30 3227 H 306.24 -4.10469 -5.60839 0
M  V30 3228 H 309.431 -2.52525 -3.94143 0
M  V30 3229 H 309.604 -3.70584 -5.31575 0
M  V30 3230 N 303.011 1.40521 -0.713556 0
M  V30 3231 C 304.239 2.05237 -0.261775 0
M  V30 3232 C 304.654 1.53755 1.09567 0
M  V30 3233 O 304.011 0.693268 1.6882 0
M  V30 3234 C 304.062 3.60763 -0.230706 0
M  V30 3235 O 303.783 4.10345 -1.53455 0
M  V30 3236 C 305.284 4.42651 0.239874 0
M  V30 3237 H 302.504 0.660533 -0.118057 0
M  V30 3238 H 305.048 1.79967 -0.971192 0
M  V30 3239 H 303.203 3.8501 0.429661 0
M  V30 3240 H 303.617 5.04526 -1.43366 0
M  V30 3241 H 305.091 5.51599 0.210468 0
M  V30 3242 H 305.568 4.20082 1.28171 0
M  V30 3243 H 306.174 4.23507 -0.390142 0
M  V30 3244 N 304.489 0.459591 1.5075 0
M  V30 3245 C 305.766 -0.160371 1.94941 0
M  V30 3246 C 306.146 -1.58048 1.39943 0
M  V30 3247 O 305.494 -2.206 0.595629 0
M  V30 3248 C 305.704 -0.115432 3.48809 0
M  V30 3249 C 307.052 -0.310026 4.23467 0
M  V30 3250 O 308.076 -0.192543 3.55679 0
M  V30 3251 O 306.935 -0.546031 5.43765 0
M  V30 3252 H 304.029 -0.117925 0.818549 0
M  V30 3253 H 306.575 0.519169 1.61563 0
M  V30 3254 H 305.347 0.87652 3.81357 0
M  V30 3255 H 304.97 -0.836928 3.88692 0
M  V30 3256 N 305.967 -1.56429 0.191757 0
M  V30 3257 C 307.378 -1.83912 -0.321428 0
M  V30 3258 C 307.729 -1.11231 -1.61623 0
M  V30 3259 O 306.854 -0.37202 -2.13178 0
M  V30 3260 C 307.449 -3.33624 -0.589961 0
M  V30 3261 C 306.008 -3.6153 -1.04753 0
M  V30 3262 C 305.155 -2.7714 -0.0943327 0
M  V30 3263 H 308.106 -1.53161 0.415612 0
M  V30 3264 H 308.127 -3.52213 -1.43966 0
M  V30 3265 H 307.639 -3.86495 0.352588 0
M  V30 3266 H 305.74 -3.14089 -2.00447 0
M  V30 3267 H 305.853 -4.69737 -0.942549 0
M  V30 3268 H 304.217 -2.47638 -0.595589 0
M  V30 3269 H 305 -3.32799 0.842601 0
M  V30 3270 N 307.445 0.0818655 -1.57387 0
M  V30 3271 C 308.856 0.634871 -1.75574 0
M  V30 3272 C 309.207 1.78435 -0.815809 0
M  V30 3273 O 308.332 2.164 0.0025366 0
M  V30 3274 C 308.927 1.15845 -3.18379 0
M  V30 3275 C 307.486 1.65741 -3.37945 0
M  V30 3276 C 306.633 0.572549 -2.71325 0
M  V30 3277 H 309.584 -0.144268 -1.58043 0
M  V30 3278 H 309.605 2.02751 -3.21982 0
M  V30 3279 H 309.117 0.321631 -3.86765 0
M  V30 3280 H 307.218 2.51781 -2.74658 0
M  V30 3281 H 307.331 1.74129 -4.46336 0
M  V30 3282 H 305.695 1.01518 -2.33594 0
M  V30 3283 H 306.478 -0.253918 -3.4236 0
M  V30 3284 N 308.923 1.53595 0.353017 0
M  V30 3285 C 309.87 1.80919 1.43308 0
M  V30 3286 C 310.84 0.654288 1.5267 0
M  V30 3287 O 312.025 0.897759 1.6836 0
M  V30 3288 C 309.165 2.01605 2.80089 0
M  V30 3289 C 308.278 3.29321 2.79593 0
M  V30 3290 C 307.413 3.40125 4.0803 0
M  V30 3291 C 306.452 4.61826 4.01725 0
M  V30 3292 N 305.589 4.69716 5.21834 0
M  V30 3293 H 310.429 2.73074 1.19308 0
M  V30 3294 H 307.966 1.35263 0.578131 0
M  V30 3295 H 309.924 2.11586 3.59565 0
M  V30 3296 H 308.554 1.12772 3.0246 0
M  V30 3297 H 307.606 3.28229 1.92276 0
M  V30 3298 H 308.918 4.18884 2.70809 0
M  V30 3299 H 308.072 3.49488 4.95927 0
M  V30 3300 H 306.811 2.48601 4.19582 0
M  V30 3301 H 305.816 4.52552 3.12213 0
M  V30 3302 H 307.041 5.54705 3.91764 0
M  V30 3303 H 304.987 3.81097 5.33948 0
M  V30 3304 H 304.904 5.53202 5.1527 0
M  V30 3305 H 306.172 4.83376 6.11529 0
M  V30 3306 N 310.401 -0.613514 1.45168 0
M  V30 3307 C 311.629 -1.39946 1.5239 0
M  V30 3308 C 312.044 -1.88167 0.154531 0
M  V30 3309 O 311.401 -1.61872 -0.842843 0
M  V30 3310 C 311.452 -2.60795 2.50337 0
M  V30 3311 O 311.173 -2.1458 3.81952 0
M  V30 3312 C 312.674 -3.53723 2.67198 0
M  V30 3313 H 309.894 -0.428593 0.516284 0
M  V30 3314 H 312.438 -0.748753 1.903 0
M  V30 3315 H 310.593 -3.21919 2.15515 0
M  V30 3316 H 311.007 -2.93055 4.34993 0
M  V30 3317 H 312.481 -4.35079 3.39721 0
M  V30 3318 H 312.958 -4.0368 1.73029 0
M  V30 3319 H 313.564 -2.98456 3.02992 0
M  V30 3320 N 311.879 -1.3236 -0.855495 0
M  V30 3321 C 312.829 -1.17809 -1.95205 0
M  V30 3322 C 313.813 -0.0852319 -1.60674 0
M  V30 3323 O 315.005 -0.311651 -1.74235 0
M  V30 3324 C 312.134 -0.902437 -3.31226 0
M  V30 3325 C 311.22 -2.03695 -3.7198 0
M  V30 3326 N 311.611 -3.28544 -3.84568 0
M  V30 3327 C 309.909 -1.93993 -4.016 0
M  V30 3328 C 310.61 -4.02847 -4.19629 0
M  V30 3329 N 309.586 -3.31138 -4.31102 0
M  V30 3330 H 313.388 -2.12462 -2.0307 0
M  V30 3331 H 310.902 -1.24127 -1.0472 0
M  V30 3332 H 312.899 -0.77915 -4.09554 0
M  V30 3333 H 311.559 0.0357267 -3.2468 0
M  V30 3334 H 312.57 -3.6349 -3.68911 0
M  V30 3335 H 309.247 -1.07733 -4.03361 0
M  V30 3336 H 310.637 -5.10506 -4.36845 0
M  V30 3337 N 313.357 1.07166 -1.15556 0
M  V30 3338 C 314.29 2.13808 -0.797593 0
M  V30 3339 C 315.268 1.6101 0.226812 0
M  V30 3340 O 316.452 1.88161 0.112932 0
M  V30 3341 C 313.579 3.38187 -0.186371 0
M  V30 3342 C 312.625 4.09766 -1.18297 0
M  V30 3343 S 313.458 4.60932 -2.72584 0
M  V30 3344 C 314.614 5.88583 -2.12886 0
M  V30 3345 H 314.847 2.43843 -1.70083 0
M  V30 3346 H 312.38 1.19467 -0.978106 0
M  V30 3347 H 314.338 4.10189 0.159837 0
M  V30 3348 H 312.999 3.06326 0.694489 0
M  V30 3349 H 312.192 4.99065 -0.703562 0
M  V30 3350 H 311.794 3.43736 -1.47381 0
M  V30 3351 H 314.086 6.60866 -1.49208 0
M  V30 3352 H 315.029 6.41241 -3.0036 0
M  V30 3353 H 315.437 5.42194 -1.57116 0
M  V30 3354 N 314.835 0.952656 1.25548 0
M  V30 3355 C 316.063 0.623496 1.97282 0
M  V30 3356 C 316.478 -0.803987 1.70826 0
M  V30 3357 O 315.835 -1.53755 0.983147 0
M  V30 3358 C 315.886 0.870209 3.5087 0
M  V30 3359 O 315.607 2.24156 3.76412 0
M  V30 3360 C 317.108 0.553164 4.39835 0
M  V30 3361 H 314.328 0.233931 0.628902 0
M  V30 3362 H 316.872 1.27649 1.59768 0
M  V30 3363 H 315.027 0.263652 3.86502 0
M  V30 3364 H 315.441 2.31021 4.70882 0
M  V30 3365 H 316.915 0.776342 5.46513 0
M  V30 3366 H 317.392 -0.512215 4.36203 0
M  V30 3367 H 317.998 1.13896 4.09766 0
M  V30 3368 N 316.313 -1.40141 0.720998 0
M  V30 3369 C 317.263 -2.27949 0.0482544 0
M  V30 3370 C 318.247 -1.43538 -0.727021 0
M  V30 3371 O 319.439 -1.6658 -0.598332 0
M  V30 3372 C 316.568 -3.32126 -0.868729 0
M  V30 3373 C 315.654 -4.24008 -0.0883515 0
M  V30 3374 N 316.045 -4.97154 0.931226 0
M  V30 3375 C 314.343 -4.4485 -0.320105 0
M  V30 3376 C 315.044 -5.64587 1.4006 0
M  V30 3377 N 314.02 -5.38787 0.721752 0
M  V30 3378 H 317.822 -2.81948 0.829609 0
M  V30 3379 H 315.336 -1.52656 0.554067 0
M  V30 3380 H 317.333 -3.93884 -1.36605 0
M  V30 3381 H 315.993 -2.79687 -1.6494 0
M  V30 3382 H 317.004 -5.01 1.31222 0
M  V30 3383 H 313.681 -4.03378 -1.07668 0
M  V30 3384 H 315.071 -6.33175 2.24808 0
M  V30 3385 N 317.792 -0.46758 -1.50504 0
M  V30 3386 C 318.742 0.34698 -2.25344 0
M  V30 3387 C 319.726 0.964469 -1.2879 0
M  V30 3388 O 320.918 0.8776 -1.53711 0
M  V30 3389 C 318.047 1.43042 -3.1208 0
M  V30 3390 C 317.133 0.82084 -4.16081 0
M  V30 3391 N 317.524 -0.0567602 -5.05768 0
M  V30 3392 C 315.822 1.08517 -4.32597 0
M  V30 3393 C 316.523 -0.402343 -5.80307 0
M  V30 3394 N 315.499 0.221607 -5.43148 0
M  V30 3395 H 319.301 -0.329129 -2.92051 0
M  V30 3396 H 316.815 -0.281508 -1.59942 0
M  V30 3397 H 318.812 2.02712 -3.64299 0
M  V30 3398 H 317.472 2.10856 -2.46921 0
M  V30 3399 H 318.483 -0.425349 -5.1615 0
M  V30 3400 H 315.16 1.75855 -3.78657 0
M  V30 3401 H 316.55 -1.11834 -6.62528 0
M  V30 3402 N 319.27 1.56325 -0.20005 0
M  V30 3403 C 320.681 1.8408 0.31167 0
M  V30 3404 C 321.032 1.12087 1.61031 0
M  V30 3405 O 320.157 0.38332 2.12978 0
M  V30 3406 C 320.752 3.33932 0.57226 0
M  V30 3407 C 319.311 3.6208 1.02834 0
M  V30 3408 C 318.458 2.77186 0.079634 0
M  V30 3409 H 321.409 1.52939 -0.423729 0
M  V30 3410 H 321.43 3.52971 1.42096 0
M  V30 3411 H 320.942 3.86303 -0.37308 0
M  V30 3412 H 319.043 3.15147 1.98778 0
M  V30 3413 H 319.156 4.7023 0.917624 0
M  V30 3414 H 317.52 2.47951 0.582448 0
M  V30 3415 H 318.303 3.32347 -0.860238 0
M  V30 3416 N 320.748 -0.0735177 1.57428 0
M  V30 3417 C 321.997 -0.771809 1.86349 0
M  V30 3418 C 322.31 -1.78828 0.792452 0
M  V30 3419 O 323.516 -2.53602 0.96945 0
M  V30 3420 C 321.972 -1.42358 3.30548 0
M  V30 3421 C 321.58 -0.445761 4.45777 0
M  V30 3422 C 323.324 -2.10434 3.6867 0
M  V30 3423 C 321.231 -1.10335 5.81016 0
M  V30 3424 H 320.161 -0.291999 0.695164 0
M  V30 3425 H 322.812 -0.0250749 1.83483 0
M  V30 3426 H 321.194 -2.21852 3.28021 0
M  V30 3427 H 322.368 0.319239 4.59693 0
M  V30 3428 H 320.683 0.130457 4.16196 0
M  V30 3429 H 323.28 -2.60405 4.67004 0
M  V30 3430 H 323.623 -2.90298 2.98383 0
M  V30 3431 H 324.156 -1.37773 3.7318 0
M  V30 3432 H 320.895 -0.345061 6.54591 0
M  V30 3433 H 320.415 -1.83925 5.70904 0
M  V30 3434 H 322.094 -1.62367 6.26295 0
M  V30 3435 N 322.226 -1.5378 -0.344866 0
M  V30 3436 C 323.451 -1.75211 -1.10977 0
M  V30 3437 C 323.876 -0.48936 -1.81623 0
M  V30 3438 O 323.234 0.557925 -1.72502 0
M  V30 3439 C 323.282 -2.93147 -2.09993 0
M  V30 3440 O 322.386 -2.63203 -3.17487 0
M  V30 3441 H 321.727 -0.581241 -0.321021 0
M  V30 3442 H 324.257 -2.00738 -0.395661 0
M  V30 3443 H 324.267 -3.19898 -2.53237 0
M  V30 3444 H 322.942 -3.84731 -1.5797 0
M  V30 3445 H 321.519 -2.47336 -2.79069 0
M  V30 3446 N 323.704 0.605807 -1.45491 0
M  V30 3447 C 324.981 1.36522 -1.40075 0
M  V30 3448 C 325.361 2.10976 -0.0722744 0
M  V30 3449 O 324.709 2.08007 0.945808 0
M  V30 3450 C 324.919 2.31056 -2.61561 0
M  V30 3451 C 326.267 2.93608 -3.06724 0
M  V30 3452 O 327.291 2.41376 -2.61946 0
M  V30 3453 O 326.15 3.88421 -3.84437 0
M  V30 3454 H 323.244 0.612248 -0.555951 0
M  V30 3455 H 325.79 0.628747 -1.57623 0
M  V30 3456 H 324.562 1.75311 -3.49831 0
M  V30 3457 H 324.185 3.12081 -2.46356 0
M  V30 3458 N 325.182 1.32811 0.848464 0
M  V30 3459 C 326.132 1.18842 1.94578 0
M  V30 3460 C 327.116 0.0937517 1.60627 0
M  V30 3461 O 328.308 0.320887 1.74067 0
M  V30 3462 C 325.437 0.91999 3.30743 0
M  V30 3463 C 324.523 2.05665 3.70894 0
M  V30 3464 N 324.914 3.30579 3.8282 0
M  V30 3465 C 323.212 1.9612 4.00566 0
M  V30 3466 C 323.913 4.05067 4.17487 0
M  V30 3467 N 322.889 3.33419 4.2934 0
M  V30 3468 H 326.691 2.13536 2.0194 0
M  V30 3469 H 324.205 1.2468 1.0406 0
M  V30 3470 H 326.202 0.800859 4.09136 0
M  V30 3471 H 324.862 -0.0185076 3.24695 0
M  V30 3472 H 325.873 3.65441 3.66978 0
M  V30 3473 H 322.55 1.09871 4.02784 0
M  V30 3474 H 323.94 5.12815 4.34131 0
M  V30 3475 N 326.66 -1.06551 1.16123 0
M  V30 3476 C 327.57 -2.17484 0.879662 0
M  V30 3477 C 328.586 -1.73377 -0.147104 0
M  V30 3478 O 329.762 -2.01379 0.0289128 0
M  V30 3479 C 326.827 -3.44591 0.381829 0
M  V30 3480 C 325.888 -4.0322 1.4735 0
M  V30 3481 C 325.121 -5.24261 0.999324 0
M  V30 3482 O 325.344 -5.70198 -0.151957 0
M  V30 3483 O 324.278 -5.74775 1.78653 0
M  V30 3484 H 328.104 -2.44075 1.80724 0
M  V30 3485 H 325.689 -1.16042 0.940992 0
M  V30 3486 H 327.571 -4.21254 0.111053 0
M  V30 3487 H 326.246 -3.19532 -0.51777 0
M  V30 3488 H 325.153 -3.2806 1.79798 0
M  V30 3489 H 326.486 -4.32568 2.34831 0
M  V30 3490 N 328.138 -0.959301 -1.25041 0
M  V30 3491 C 329.101 -0.487677 -2.23952 0
M  V30 3492 C 330.101 0.41119 -1.55454 0
M  V30 3493 O 331.291 0.207825 -1.72956 0
M  V30 3494 C 328.423 0.294807 -3.39623 0
M  V30 3495 H 329.616 -1.36198 -2.67189 0
M  V30 3496 H 327.169 -0.743042 -1.37508 0
M  V30 3497 H 327.904 1.18658 -3.01813 0
M  V30 3498 H 327.689 -0.35012 -3.90534 0
M  V30 3499 H 329.179 0.614089 -4.1306 0
M  V30 3500 N 329.616 1.39756 -0.72842 0
M  V30 3501 C 330.844 2.04948 -0.283528 0
M  V30 3502 C 331.259 1.54908 1.0793 0
M  V30 3503 O 330.616 0.711135 1.68075 0
M  V30 3504 C 330.667 3.60498 -0.268957 0
M  V30 3505 O 330.388 4.08695 -1.57798 0
M  V30 3506 C 331.889 4.4288 0.192912 0
M  V30 3507 H 329.109 0.659243 -0.125056 0
M  V30 3508 H 331.653 1.78927 -0.990226 0
M  V30 3509 H 329.808 3.85444 0.388801 0
M  V30 3510 H 330.222 5.02977 -1.48709 0
M  V30 3511 H 331.696 5.51791 0.151952 0
M  V30 3512 H 332.173 4.21418 1.23708 0
M  V30 3513 H 332.779 4.23069 -0.435039 0
M  V30 3514 N 331.094 0.475555 1.50254 0
M  V30 3515 C 332.024 -0.30611 2.31485 0
M  V30 3516 C 333.005 -0.986228 1.38591 0
M  V30 3517 O 334.19 -0.982541 1.67511 0
M  V30 3518 C 331.32 -1.38588 3.1845 0
M  V30 3519 C 330.274 -0.827115 4.19932 0
M  V30 3520 C 329.6 -2.00551 4.95665 0
M  V30 3521 C 330.9 0.16463 5.2204 0
M  V30 3522 H 332.594 0.371866 2.97082 0
M  V30 3523 H 330.14 0.180282 1.42867 0
M  V30 3524 H 332.093 -1.94023 3.74076 0
M  V30 3525 H 330.817 -2.09269 2.50747 0
M  V30 3526 H 329.476 -0.294702 3.65414 0
M  V30 3527 H 329.124 -2.6994 4.2443 0
M  V30 3528 H 328.824 -1.63784 5.64313 0
M  V30 3529 H 330.348 -2.56468 5.54127 0
M  V30 3530 H 331.762 -0.300699 5.72511 0
M  V30 3531 H 330.159 0.446813 5.98434 0
M  V30 3532 H 331.229 1.08905 4.72512 0
M  V30 3533 N 332.573 -1.56217 0.208337 0
M  V30 3534 C 333.989 -1.58919 -0.14729 0
M  V30 3535 C 334.189 -1.22486 -1.59998 0
M  V30 3536 O 333.245 -0.953849 -2.3379 0
M  V30 3537 C 334.558 -3.00236 0.167048 0
M  V30 3538 C 336.106 -3.12813 0.108219 0
M  V30 3539 C 336.581 -4.56284 0.396049 0
M  V30 3540 N 338.072 -4.61912 0.345142 0
M  V30 3541 C 338.807 -5.70837 0.541523 0
M  V30 3542 N 338.303 -6.88178 0.798968 0
M  V30 3543 N 340.096 -5.60091 0.474867 0
M  V30 3544 H 332.247 -1.78177 1.15614 0
M  V30 3545 H 334.51 -0.827555 0.462446 0
M  V30 3546 H 334.216 -3.31499 1.1748 0
M  V30 3547 H 334.09 -3.7354 -0.524184 0
M  V30 3548 H 336.477 -2.81354 -0.890157 0
M  V30 3549 H 336.558 -2.41866 0.832729 0
M  V30 3550 H 336.202 -4.88458 1.3918 0
M  V30 3551 H 336.132 -5.25439 -0.349502 0
M  V30 3552 H 338.623 -3.77589 0.153316 0
M  V30 3553 H 338.936 -7.67095 0.93727 0
M  V30 3554 H 337.281 -6.89953 0.836013 0
M  V30 3555 H 340.472 -4.67297 0.274064 0
M  V30 3556 H 340.645 -6.44917 0.631326 0
M  V30 3557 N 334.051 0.0651679 -1.57465 0
M  V30 3558 C 335.291 0.768329 -1.8941 0
M  V30 3559 C 335.655 1.74406 -0.802894 0
M  V30 3560 O 336.856 2.49281 -1.0056 0
M  V30 3561 C 335.127 1.45199 -3.26576 0
M  V30 3562 S 336.686 2.1893 -3.80283 0
M  V30 3563 H 333.504 0.255359 -0.663561 0
M  V30 3564 H 336.106 0.024167 -1.95485 0
M  V30 3565 H 334.81 0.728123 -4.03889 0
M  V30 3566 H 334.341 2.23545 -3.23715 0
M  V30 3567 H 336.356 3.45551 -3.56102 0
M  V30 3568 N 335.529 1.53961 0.336706 0
M  V30 3569 C 336.775 1.7273 1.07406 0
M  V30 3570 C 337.13 0.488095 1.86106 0
M  V30 3571 O 336.423 -0.519379 1.84426 0
M  V30 3572 C 336.617 2.93493 2.03953 0
M  V30 3573 C 336.446 4.29039 1.34744 0
M  V30 3574 C 335.216 4.93416 1.08942 0
M  V30 3575 C 337.414 5.08501 0.770115 0
M  V30 3576 N 335.396 6.12821 0.363864 0
M  V30 3577 C 336.767 6.19752 0.175472 0
M  V30 3578 C 338.822 4.93349 0.671633 0
M  V30 3579 C 337.525 7.17503 -0.508081 0
M  V30 3580 C 339.551 5.914 0.0018076 0
M  V30 3581 C 338.913 7.01993 -0.581835 0
M  V30 3582 H 335.012 0.685026 0.377177 0
M  V30 3583 H 337.596 1.91403 0.356815 0
M  V30 3584 H 335.767 2.76308 2.72962 0
M  V30 3585 H 337.499 3.00949 2.70577 0
M  V30 3586 H 334.254 4.53099 1.37833 0
M  V30 3587 H 334.678 6.76998 0.0156092 0
M  V30 3588 H 339.32 4.08007 1.1086 0
M  V30 3589 H 337.038 8.02414 -0.956918 0
M  V30 3590 H 340.624 5.81753 -0.0738538 0
M  V30 3591 H 339.504 7.76561 -1.09192 0
M  V30 3592 N 337.007 -0.598083 1.45811 0
M  V30 3593 C 337.97 -1.69018 1.54808 0
M  V30 3594 C 338.97 -1.55037 0.426652 0
M  V30 3595 O 340.16 -1.59932 0.690456 0
M  V30 3596 C 337.292 -3.0835 1.45371 0
M  V30 3597 H 338.485 -1.62403 2.52121 0
M  V30 3598 H 336.038 -0.814626 1.33392 0
M  V30 3599 H 336.773 -3.20534 0.492793 0
M  V30 3600 H 336.558 -3.19907 2.26721 0
M  V30 3601 H 338.048 -3.8788 1.54721 0
M  V30 3602 N 338.485 -1.33259 -0.841409 0
M  V30 3603 C 339.415 -1.25926 -1.96634 0
M  V30 3604 C 340.396 -0.140349 -1.6952 0
M  V30 3605 O 341.581 -0.329707 -1.91381 0
M  V30 3606 C 338.711 -0.99512 -3.32738 0
M  V30 3607 C 337.665 -2.0767 -3.74242 0
M  V30 3608 C 336.991 -1.66474 -5.08125 0
M  V30 3609 C 338.291 -3.49318 -3.88297 0
M  V30 3610 H 339.985 -2.20046 -2.03027 0
M  V30 3611 H 337.531 -1.05931 -0.975425 0
M  V30 3612 H 339.484 -0.930323 -4.11002 0
M  V30 3613 H 338.208 -0.0183004 -3.26595 0
M  V30 3614 H 336.867 -2.13187 -2.98239 0
M  V30 3615 H 336.515 -0.675012 -4.9845 0
M  V30 3616 H 336.215 -2.3885 -5.36865 0
M  V30 3617 H 337.739 -1.61455 -5.88867 0
M  V30 3618 H 339.153 -3.46316 -4.56879 0
M  V30 3619 H 337.55 -4.20158 -4.28471 0
M  V30 3620 H 338.62 -3.8801 -2.9082 0
M  V30 3621 N 339.963 1.05934 -1.16686 0
M  V30 3622 C 341.211 1.78447 -0.948744 0
M  V30 3623 C 341.532 1.87813 0.524523 0
M  V30 3624 O 340.802 1.38945 1.38098 0
M  V30 3625 H 339.382 0.660971 -0.348033 0
M  V30 3626 H 342.044 1.27947 -1.47022 0
M  V30 3627 H 341.14 2.80394 -1.37061 0
M  V30 3628 N 341.441 0.965919 1.2453 0
M  V30 3629 C 342.688 0.626831 1.92554 0
M  V30 3630 C 343.016 -0.837739 1.75534 0
M  V30 3631 O 342.271 -1.61793 1.10098 0
M  V30 3632 C 342.57 0.945428 3.44669 0
M  V30 3633 C 342.236 2.39785 3.81856 0
M  V30 3634 C 340.898 2.79483 3.91718 0
M  V30 3635 C 343.25 3.34055 4.00071 0
M  V30 3636 C 340.578 4.12496 4.1721 0
M  V30 3637 C 342.93 4.66694 4.27059 0
M  V30 3638 C 341.594 5.06172 4.3514 0
M  V30 3639 H 340.864 0.229374 0.704605 0
M  V30 3640 H 343.511 1.21707 1.4785 0
M  V30 3641 H 341.816 0.272926 3.90848 0
M  V30 3642 H 343.513 0.661484 3.95507 0
M  V30 3643 H 340.103 2.08003 3.74743 0
M  V30 3644 H 344.287 3.04571 3.91855 0
M  V30 3645 H 339.543 4.42709 4.21685 0
M  V30 3646 H 343.717 5.3971 4.40097 0
M  V30 3647 H 341.344 6.09262 4.54646 0
M  V30 3648 N 342.919 -1.39368 0.735821 0
M  V30 3649 C 344.149 -2.04498 0.293967 0
M  V30 3650 C 344.557 -1.55593 -1.07645 0
M  V30 3651 O 343.9 -0.716324 -1.69158 0
M  V30 3652 C 343.962 -3.58836 0.218342 0
M  V30 3653 C 343.626 -4.30721 1.52736 0
M  V30 3654 C 344.623 -4.57305 2.47322 0
M  V30 3655 C 342.308 -4.69251 1.79189 0
M  V30 3656 C 344.302 -5.21429 3.66593 0
M  V30 3657 C 341.989 -5.33104 2.98737 0
M  V30 3658 C 342.987 -5.59125 3.9226 0
M  V30 3659 O 342.675 -6.21653 5.09708 0
M  V30 3660 H 342.407 -0.664118 0.126189 0
M  V30 3661 H 344.961 -1.79385 1.00051 0
M  V30 3662 H 343.191 -3.8285 -0.544314 0
M  V30 3663 H 344.88 -4.05447 -0.191626 0
M  V30 3664 H 345.646 -4.27983 2.28156 0
M  V30 3665 H 341.525 -4.48354 1.07239 0
M  V30 3666 H 345.069 -5.41656 4.39607 0
M  V30 3667 H 340.966 -5.61846 3.17803 0
M  V30 3668 H 341.734 -6.40146 5.10054 0
M  V30 3669 N 344.397 -0.483516 -1.5 0
M  V30 3670 C 345.808 -0.0314176 -1.86674 0
M  V30 3671 C 346.159 1.37728 -1.39733 0
M  V30 3672 O 345.284 2.02327 -0.767635 0
M  V30 3673 C 345.879 -0.0502376 -3.38763 0
M  V30 3674 C 344.438 0.346442 -3.74802 0
M  V30 3675 C 343.585 -0.430366 -2.7394 0
M  V30 3676 H 346.536 -0.697182 -1.42566 0
M  V30 3677 H 346.557 0.749116 -3.73053 0
M  V30 3678 H 346.069 -1.07563 -3.72897 0
M  V30 3679 H 344.17 1.37572 -3.46273 0
M  V30 3680 H 344.283 0.0391486 -4.79084 0
M  V30 3681 H 342.647 0.117557 -2.54429 0
M  V30 3682 H 343.43 -1.4555 -3.10918 0
M  V30 3683 N 345.875 1.56104 -0.216619 0
M  V30 3684 C 346.838 2.18819 0.681962 0
M  V30 3685 C 347.838 1.14866 1.12528 0
M  V30 3686 O 349.028 1.40128 1.03488 0
M  V30 3687 C 346.16 2.80756 1.93362 0
M  V30 3688 H 347.353 2.99595 0.135254 0
M  V30 3689 H 344.906 1.56265 0.0330003 0
M  V30 3690 H 345.641 2.03837 2.52232 0
M  V30 3691 H 345.426 3.56876 1.62426 0
M  V30 3692 H 346.916 3.28844 2.57393 0
M  V30 3693 N 347.353 -0.0568162 1.57498 0
M  V30 3694 C 348.263 -1.08346 2.08083 0
M  V30 3695 C 349.279 -1.41439 1.01346 0
M  V30 3696 O 350.455 -1.51316 1.32912 0
M  V30 3697 C 347.52 -2.37352 2.52715 0
M  V30 3698 C 346.581 -2.11093 3.73816 0
M  V30 3699 C 345.814 -3.33949 4.1631 0
M  V30 3700 O 346.037 -4.43622 3.58547 0
M  V30 3701 O 344.971 -3.21279 5.08983 0
M  V30 3702 H 348.797 -0.683667 2.95905 0
M  V30 3703 H 346.382 -0.271965 1.46904 0
M  V30 3704 H 348.264 -3.13246 2.81877 0
M  V30 3705 H 346.939 -2.76681 1.68016 0
M  V30 3706 H 345.846 -1.32856 3.49714 0
M  V30 3707 H 347.179 -1.76637 4.59413 0
M  V30 3708 N 348.832 -1.54138 -0.328536 0
M  V30 3709 C 350.081 -1.71318 -1.06456 0
M  V30 3710 C 350.394 -0.491109 -1.89334 0
M  V30 3711 O 351.6 -0.54416 -2.65991 0
M  V30 3712 C 350.056 -3.03 -1.94214 0
M  V30 3713 C 349.664 -4.32595 -1.16471 0
M  V30 3714 C 351.408 -3.29544 -2.67583 0
M  V30 3715 C 349.315 -5.55341 -2.03347 0
M  V30 3716 H 348.245 -0.638429 -0.401155 0
M  V30 3717 H 350.896 -1.80633 -0.323106 0
M  V30 3718 H 349.278 -2.87579 -2.72239 0
M  V30 3719 H 350.452 -4.58766 -0.432525 0
M  V30 3720 H 348.767 -4.12777 -0.548063 0
M  V30 3721 H 351.364 -4.18444 -3.3288 0
M  V30 3722 H 351.707 -2.47206 -3.34955 0
M  V30 3723 H 352.24 -3.45809 -1.96623 0
M  V30 3724 H 348.979 -6.40268 -1.40491 0
M  V30 3725 H 348.499 -5.33397 -2.74313 0
M  V30 3726 H 350.178 -5.91557 -2.62049 0
M  V30 3727 N 350.31 0.590341 -1.46126 0
M  V30 3728 C 351.538 1.37504 -1.54597 0
M  V30 3729 C 351.953 1.87897 -0.184447 0
M  V30 3730 O 351.31 1.63192 0.816984 0
M  V30 3731 C 351.361 2.56779 -2.54454 0
M  V30 3732 O 351.082 2.08476 -3.85317 0
M  V30 3733 C 352.583 3.49427 -2.72792 0
M  V30 3734 H 349.803 0.420325 -0.523037 0
M  V30 3735 H 352.347 0.718383 -1.91467 0
M  V30 3736 H 350.502 3.1845 -2.20609 0
M  V30 3737 H 350.916 2.86097 -4.396 0
M  V30 3738 H 352.39 4.29619 -3.466 0
M  V30 3739 H 352.867 4.00876 -1.79429 0
M  V30 3740 H 353.473 2.93598 -3.07702 0
M  V30 3741 N 351.788 1.33704 0.83433 0
M  V30 3742 C 352.718 1.26967 1.95963 0
M  V30 3743 C 353.699 0.149337 1.69443 0
M  V30 3744 O 354.884 0.339852 1.91203 0
M  V30 3745 C 352.014 1.01275 3.32206 0
M  V30 3746 C 350.968 2.09652 3.73136 0
M  V30 3747 C 350.294 1.69166 5.07235 0
M  V30 3748 C 351.594 3.51372 3.86439 0
M  V30 3749 H 353.288 2.2112 2.01857 0
M  V30 3750 H 350.834 1.06447 0.969793 0
M  V30 3751 H 352.787 0.952106 4.10503 0
M  V30 3752 H 351.511 0.0356203 3.26581 0
M  V30 3753 H 350.17 2.14766 2.97104 0
M  V30 3754 H 349.818 0.701437 4.98085 0
M  V30 3755 H 349.518 2.41694 5.35591 0
M  V30 3756 H 351.042 1.64576 5.88003 0
M  V30 3757 H 352.456 3.48734 4.55036 0
M  V30 3758 H 350.853 4.22425 4.26236 0
M  V30 3759 H 351.923 3.89546 2.88759 0
M  V30 3760 N 353.266 -1.05314 1.17247 0
M  V30 3761 C 354.494 -1.81971 0.984593 0
M  V30 3762 C 354.909 -1.82929 -0.467166 0
M  V30 3763 O 354.266 -1.25564 -1.32438 0
M  V30 3764 C 354.317 -3.28143 1.51672 0
M  V30 3765 O 354.038 -3.27347 2.91163 0
M  V30 3766 C 355.539 -4.21493 1.37326 0
M  V30 3767 H 352.759 -0.573455 0.348411 0
M  V30 3768 H 355.303 -1.32808 1.55506 0
M  V30 3769 H 353.458 -3.74582 0.988302 0
M  V30 3770 H 353.872 -4.18824 3.15732 0
M  V30 3771 H 355.346 -5.22043 1.79375 0
M  V30 3772 H 355.823 -4.38031 0.320169 0
M  V30 3773 H 356.429 -3.80909 1.89178 0
M  V30 3774 N 354.744 -0.972509 -1.24016 0
M  V30 3775 C 355.99 -0.647583 -1.92816 0
M  V30 3776 C 356.345 0.809015 -1.74564 0
M  V30 3777 O 355.638 1.57502 -1.09103 0
M  V30 3778 C 355.832 -0.963694 -3.44162 0
M  V30 3779 C 355.661 -2.44947 -3.77135 0
M  V30 3780 C 354.431 -3.11012 -3.98246 0
M  V30 3781 C 356.629 -3.42978 -3.83237 0
M  V30 3782 N 354.611 -4.49277 -4.18358 0
M  V30 3783 C 355.982 -4.66619 -4.08248 0
M  V30 3784 C 358.037 -3.37569 -3.65994 0
M  V30 3785 C 356.74 -5.85516 -4.17808 0
M  V30 3786 C 358.766 -4.55822 -3.76802 0
M  V30 3787 C 358.128 -5.78256 -4.02243 0
M  V30 3788 H 354.227 -0.287894 -0.727077 0
M  V30 3789 H 356.811 -1.24835 -1.49413 0
M  V30 3790 H 354.982 -0.391692 -3.8642 0
M  V30 3791 H 356.714 -0.596849 -4.00275 0
M  V30 3792 H 353.469 -2.61529 -3.94841 0
M  V30 3793 H 353.893 -5.20935 -4.32384 0
M  V30 3794 H 358.535 -2.43945 -3.45327 0
M  V30 3795 H 356.253 -6.79564 -4.37285 0
M  V30 3796 H 359.839 -4.53204 -3.64825 0
M  V30 3797 H 358.719 -6.68231 -4.10411 0
M  V30 3798 N 356.222 1.38976 -0.743202 0
M  V30 3799 C 357.154 2.29096 -0.0689228 0
M  V30 3800 C 358.167 1.47229 0.694791 0
M  V30 3801 O 359.356 1.70212 0.537597 0
M  V30 3802 C 356.456 3.25988 0.926548 0
M  V30 3803 C 355.629 4.36833 0.222647 0
M  V30 3804 C 354.688 5.13981 1.12739 0
M  V30 3805 O 353.714 5.6601 0.601795 0
M  V30 3806 N 354.916 5.25966 2.45641 0
M  V30 3807 H 357.681 2.87604 -0.842846 0
M  V30 3808 H 355.242 1.50645 -0.593109 0
M  V30 3809 H 357.234 3.74476 1.5346 0
M  V30 3810 H 355.804 2.68453 1.60162 0
M  V30 3811 H 355.024 3.90116 -0.565983 0
M  V30 3812 H 356.312 5.0811 -0.264841 0
M  V30 3813 H 355.71 4.85228 2.9081 0
M  V30 3814 H 354.267 5.77865 3.01522 0
M  V30 3815 N 357.7 0.491464 1.49741 0
M  V30 3816 C 359.116 0.146835 1.58923 0
M  V30 3817 C 359.316 -1.34804 1.49767 0
M  V30 3818 O 358.372 -2.12317 1.36667 0
M  V30 3819 C 359.685 0.715157 2.92072 0
M  V30 3820 C 361.233 0.680407 3.05515 0
M  V30 3821 C 361.708 1.22663 4.41269 0
M  V30 3822 N 363.199 1.18691 4.47735 0
M  V30 3823 C 363.934 1.57984 5.51207 0
M  V30 3824 N 363.43 2.04824 6.6183 0
M  V30 3825 N 365.223 1.49459 5.41866 0
M  V30 3826 H 357.374 1.46347 1.53936 0
M  V30 3827 H 359.637 0.606453 0.728642 0
M  V30 3828 H 359.343 1.76317 3.04311 0
M  V30 3829 H 359.217 0.17018 3.76816 0
M  V30 3830 H 361.604 -0.358743 2.92911 0
M  V30 3831 H 361.685 1.26242 2.22478 0
M  V30 3832 H 361.329 2.26451 4.54623 0
M  V30 3833 H 361.259 0.620637 5.2293 0
M  V30 3834 H 363.75 0.843605 3.68364 0
M  V30 3835 H 364.063 2.32901 7.3687 0
M  V30 3836 H 362.408 2.08791 6.62896 0
M  V30 3837 H 365.599 1.12692 4.54333 0
M  V30 3838 H 365.772 1.80406 6.22381 0
M  V30 3839 N 359.178 -1.55987 0.224894 0
M  V30 3840 C 360.455 -1.90232 -0.455083 0
M  V30 3841 C 360.835 -1.14269 -1.77499 0
M  V30 3842 O 360.183 -0.253079 -2.27094 0
M  V30 3843 C 360.393 -3.42993 -0.644758 0
M  V30 3844 C 361.741 -4.13821 -0.950669 0
M  V30 3845 O 362.765 -3.4861 -0.731423 0
M  V30 3846 O 361.624 -5.29128 -1.36695 0
M  V30 3847 H 358.718 -0.79108 -0.241084 0
M  V30 3848 H 361.264 -1.67581 0.267327 0
M  V30 3849 H 360.036 -3.90252 0.28613 0
M  V30 3850 H 359.659 -3.71434 -1.41853 0
M  V30 3851 N 360.656 0.0484629 -1.57525 0
M  V30 3852 C 361.904 0.741657 -1.88 0
M  V30 3853 C 362.225 1.76918 -0.820054 0
M  V30 3854 O 361.495 1.95335 0.148661 0
M  V30 3855 H 360.075 0.276908 -0.69378 0
M  V30 3856 H 362.737 0.019013 -1.94891 0
M  V30 3857 H 361.833 1.24336 -2.86264 0
M  V30 3858 N 362.134 1.5431 0.320358 0
M  V30 3859 C 363.044 1.86946 1.41734 0
M  V30 3860 C 364.06 0.761689 1.56443 0
M  V30 3861 O 365.236 1.05629 1.71477 0
M  V30 3862 C 362.301 2.09293 2.76401 0
M  V30 3863 C 361.362 3.33082 2.70841 0
M  V30 3864 C 360.595 3.54353 3.99086 0
M  V30 3865 O 360.818 2.79002 4.97508 0
M  V30 3866 O 359.752 4.47838 4.0215 0
M  V30 3867 H 363.578 2.80232 1.17062 0
M  V30 3868 H 361.163 1.40255 0.514673 0
M  V30 3869 H 363.045 2.25303 3.56113 0
M  V30 3870 H 361.72 1.19194 3.00956 0
M  V30 3871 H 360.627 3.22454 1.89668 0
M  V30 3872 H 361.96 4.23249 2.5124 0
M  V30 3873 N 363.613 -0.582584 1.46437 0
M  V30 3874 C 364.89 -1.34276 1.4223 0
M  V30 3875 C 365.27 -2.10835 0.10583 0
M  V30 3876 O 364.618 -2.09485 -0.912596 0
M  V30 3877 C 364.828 -2.26865 2.65204 0
M  V30 3878 C 366.176 -2.88691 3.11356 0
M  V30 3879 O 367.2 -2.37178 2.65753 0
M  V30 3880 O 366.059 -3.82255 3.90568 0
M  V30 3881 H 363.153 -0.603326 0.565621 0
M  V30 3882 H 365.699 -0.603591 1.58603 0
M  V30 3883 H 364.471 -1.69724 3.52576 0
M  V30 3884 H 364.094 -3.08122 2.5129 0
M  V30 3885 N 365.091 -1.34144 -0.827227 0
M  V30 3886 C 366.023 -1.21206 -1.9453 0
M  V30 3887 C 367.036 -0.140176 -1.62195 0
M  V30 3888 O 368.225 -0.391647 -1.7415 0
M  V30 3889 C 365.325 -0.839141 -3.28347 0
M  V30 3890 C 364.498 -2.0051 -3.88734 0
M  V30 3891 C 363.557 -1.61128 -5.00923 0
M  V30 3892 O 362.583 -2.32726 -5.19449 0
M  V30 3893 N 363.785 -0.522958 -5.7814 0
M  V30 3894 H 366.55 -2.17525 -2.06162 0
M  V30 3895 H 364.111 -1.27043 -1.00358 0
M  V30 3896 H 366.103 -0.557556 -4.00841 0
M  V30 3897 H 364.673 0.0337293 -3.12582 0
M  V30 3898 H 363.893 -2.45166 -3.08686 0
M  V30 3899 H 365.181 -2.78498 -4.25812 0
M  V30 3900 H 364.579 0.0723518 -5.65654 0
M  V30 3901 H 363.136 -0.301089 -6.51104 0
M  V30 3902 N 366.569 1.04691 -1.17803 0
M  V30 3903 C 367.797 1.81446 -0.99423 0
M  V30 3904 C 368.212 1.83174 0.457459 0
M  V30 3905 O 367.569 1.26265 1.31771 0
M  V30 3906 C 367.62 3.27334 -1.5341 0
M  V30 3907 O 367.341 3.25798 -2.92895 0
M  V30 3908 C 368.842 4.20759 -1.39559 0
M  V30 3909 H 366.062 0.571599 -0.351447 0
M  V30 3910 H 368.606 1.31982 -1.56208 0
M  V30 3911 H 366.761 3.74052 -1.00815 0
M  V30 3912 H 367.175 4.17144 -3.17949 0
M  V30 3913 H 368.649 5.21084 -1.82141 0
M  V30 3914 H 369.126 4.37856 -0.343394 0
M  V30 3915 H 369.732 3.79901 -1.91195 0
M  V30 3916 N 368.047 0.979072 1.23499 0
M  V30 3917 C 368.979 0.476271 2.24197 0
M  V30 3918 C 369.992 -0.421166 1.57258 0
M  V30 3919 O 371.181 -0.225515 1.7707 0
M  V30 3920 C 368.281 -0.330503 3.37285 0
M  V30 3921 C 367.454 0.559744 4.33804 0
M  V30 3922 C 366.513 -0.192954 5.25846 0
M  V30 3923 O 365.539 0.416978 5.67671 0
M  V30 3924 N 366.741 -1.47932 5.61334 0
M  V30 3925 H 369.506 1.34211 2.67969 0
M  V30 3926 H 367.067 0.852189 1.37657 0
M  V30 3927 H 369.059 -0.842361 3.95836 0
M  V30 3928 H 367.629 -1.09734 2.92707 0
M  V30 3929 H 366.849 1.25245 3.73775 0
M  V30 3930 H 368.137 1.1665 4.95248 0
M  V30 3931 H 367.535 -1.9964 5.29302 0
M  V30 3932 H 366.092 -1.93664 6.22364 0
M  V30 3933 N 369.525 -1.3858 0.750561 0
M  V30 3934 C 370.802 -1.94231 0.231009 0
M  V30 3935 C 371.182 -1.68611 -1.27018 0
M  V30 3936 O 370.53 -1.02296 -2.04323 0
M  V30 3937 C 370.74 -3.44123 0.581428 0
M  V30 3938 C 372.088 -4.2116 0.539389 0
M  V30 3939 O 373.112 -3.52391 0.519541 0
M  V30 3940 O 371.971 -5.43749 0.54765 0
M  V30 3941 H 369.065 -0.825639 0.0474263 0
M  V30 3942 H 371.611 -1.4799 0.830478 0
M  V30 3943 H 370.383 -3.56267 1.61833 0
M  V30 3944 H 370.006 -3.97573 -0.0462047 0
M  V30 3945 N 371.003 -0.499398 -1.49478 0
M  V30 3946 C 372.231 0.0425456 -2.06856 0
M  V30 3947 C 372.646 1.30964 -1.35992 0
M  V30 3948 O 372.003 1.77172 -0.437762 0
M  V30 3949 C 372.054 0.301735 -3.60239 0
M  V30 3950 O 371.775 -0.915127 -4.28436 0
M  V30 3951 C 373.276 0.887499 -4.34325 0
M  V30 3952 H 370.496 -0.0197482 -0.670709 0
M  V30 3953 H 373.04 -0.696297 -1.92281 0
M  V30 3954 H 371.195 0.990556 -3.74522 0
M  V30 3955 H 371.609 -0.676993 -5.20113 0
M  V30 3956 H 373.083 1.01845 -5.42523 0
M  V30 3957 H 373.56 1.88488 -3.96698 0
M  V30 3958 H 374.166 0.236196 -4.24644 0
M  V30 3959 N 372.481 1.55866 -0.233164 0
M  V30 3960 C 373.391 2.24431 0.683217 0
M  V30 3961 C 374.407 1.2558 1.2044 0
M  V30 3962 O 375.583 1.58422 1.24356 0
M  V30 3963 C 372.648 2.91979 1.86947 0
M  V30 3964 C 371.709 4.06204 1.38912 0
M  V30 3965 C 370.942 4.70522 2.51883 0
M  V30 3966 O 371.165 4.33865 3.70293 0
M  V30 3967 O 370.099 5.59296 2.22423 0
M  V30 3968 H 373.925 3.03426 0.129059 0
M  V30 3969 H 371.51 1.494 -0.0022283 0
M  V30 3970 H 373.392 3.34573 2.56201 0
M  V30 3971 H 372.067 2.15935 2.41151 0
M  V30 3972 H 370.974 3.68155 0.664259 0
M  V30 3973 H 372.307 4.84025 0.893328 0
M  V30 3974 N 373.959 -0.0401083 1.57549 0
M  V30 3975 C 374.889 -1.04384 2.08869 0
M  V30 3976 C 375.87 -1.38407 0.988817 0
M  V30 3977 O 377.055 -1.47483 1.26342 0
M  V30 3978 C 374.185 -2.34808 2.55895 0
M  V30 3979 C 373.139 -2.15057 3.70047 0
M  V30 3980 C 372.465 -3.51145 4.03239 0
M  V30 3981 C 373.765 -1.54576 4.98902 0
M  V30 3982 H 375.459 -0.616666 2.92981 0
M  V30 3983 H 373.005 -0.295184 1.40942 0
M  V30 3984 H 374.958 -3.05346 2.90417 0
M  V30 3985 H 373.682 -2.79565 1.68853 0
M  V30 3986 H 372.341 -1.46954 3.35857 0
M  V30 3987 H 371.989 -3.93529 3.13279 0
M  V30 3988 H 371.689 -3.38758 4.80122 0
M  V30 3989 H 373.213 -4.23062 4.40285 0
M  V30 3990 H 374.627 -2.15017 5.31451 0
M  V30 3991 H 373.024 -1.52796 5.80322 0
M  V30 3992 H 374.094 -0.51039 4.82206 0
M  V30 3993 N 375.437 -1.54477 -0.31217 0
M  V30 3994 C 376.683 -1.73483 -1.0503 0
M  V30 3995 C 377.016 -0.513125 -1.87298 0
M  V30 3996 O 376.291 0.489864 -1.8823 0
M  V30 3997 C 376.574 -3.01723 -1.96558 0
M  V30 3998 C 376.427 -4.3417 -1.17545 0
M  V30 3999 C 377.746 -3.25772 -2.95907 0
M  V30 4000 H 374.865 -0.631222 -0.380432 0
M  V30 4001 H 377.507 -1.87184 -0.325932 0
M  V30 4002 H 375.657 -2.90174 -2.58324 0
M  V30 4003 H 377.329 -4.5762 -0.581513 0
M  V30 4004 H 375.572 -4.31159 -0.477925 0
M  V30 4005 H 376.243 -5.20143 -1.84811 0
M  V30 4006 H 378.719 -3.36857 -2.44267 0
M  V30 4007 H 377.595 -4.16838 -3.57123 0
M  V30 4008 H 377.856 -2.43537 -3.68974 0
M  V30 4009 N 376.915 0.57481 -1.46744 0
M  V30 4010 C 377.825 1.711 -1.60505 0
M  V30 4011 C 378.841 1.67008 -0.488307 0
M  V30 4012 O 380.017 1.86774 -0.753495 0
M  V30 4013 C 377.082 3.07608 -1.59932 0
M  V30 4014 C 376.143 3.22904 -2.82898 0
M  V30 4015 C 375.376 4.529 -2.82343 0
M  V30 4016 O 375.599 5.37278 -1.91542 0
M  V30 4017 O 374.533 4.71611 -3.73987 0
M  V30 4018 H 378.359 1.62436 -2.56609 0
M  V30 4019 H 375.944 0.742779 -1.29627 0
M  V30 4020 H 377.826 3.88877 -1.62336 0
M  V30 4021 H 376.501 3.16692 -0.669898 0
M  V30 4022 H 375.408 2.41099 -2.86046 0
M  V30 4023 H 376.741 3.18715 -3.75076 0
M  V30 4024 N 378.394 1.34581 0.820102 0
M  V30 4025 C 379.622 1.3018 1.60813 0
M  V30 4026 C 380.037 -0.123551 1.88395 0
M  V30 4027 O 379.394 -1.07148 1.47735 0
M  V30 4028 C 379.445 2.09312 2.94739 0
M  V30 4029 O 379.166 3.46288 2.68358 0
M  V30 4030 C 380.667 2.1234 3.89136 0
M  V30 4031 H 377.887 0.447726 0.499782 0
M  V30 4032 H 380.431 1.77237 1.02017 0
M  V30 4033 H 378.586 1.65889 3.50085 0
M  V30 4034 H 379 3.87227 3.53774 0
M  V30 4035 H 380.474 2.72126 4.80262 0
M  V30 4036 H 380.951 1.11854 4.24718 0
M  V30 4037 H 381.557 2.55864 3.39726 0
M  V30 4038 N 379.872 -1.04064 1.18357 0
M  V30 4039 C 381.288 -1.2947 0.933258 0
M  V30 4040 C 381.488 -1.97466 -0.401169 0
M  V30 4041 O 380.544 -2.25528 -1.13549 0
M  V30 4042 C 381.857 -2.15337 2.09882 0
M  V30 4043 C 383.405 -2.28683 2.13712 0
M  V30 4044 C 383.88 -3.17917 3.29686 0
M  V30 4045 N 385.371 -3.25504 3.29547 0
M  V30 4046 C 386.106 -3.94706 4.15926 0
M  V30 4047 N 385.602 -4.66239 5.12439 0
M  V30 4048 N 387.395 -3.90986 4.0384 0
M  V30 4049 H 379.546 -0.583359 2.04232 0
M  V30 4050 H 381.809 -0.319921 0.892387 0
M  V30 4051 H 381.515 -1.72682 3.06389 0
M  V30 4052 H 381.389 -3.16015 2.05947 0
M  V30 4053 H 383.776 -2.70575 1.17784 0
M  V30 4054 H 383.857 -1.27596 2.21705 0
M  V30 4055 H 383.501 -2.76736 4.25887 0
M  V30 4056 H 383.431 -4.19036 3.1893 0
M  V30 4057 H 385.922 -2.74547 2.59677 0
M  V30 4058 H 386.235 -5.16638 5.74722 0
M  V30 4059 H 384.58 -4.65143 5.16398 0
M  V30 4060 H 387.771 -3.34234 3.27727 0
M  V30 4061 H 387.944 -4.44646 4.71375 0
M  V30 4062 N 381.35 -0.985608 -1.22978 0
M  V30 4063 C 382.761 -0.693593 -1.73338 0
M  V30 4064 C 383.112 0.789935 -1.79595 0
M  V30 4065 O 382.237 1.61771 -1.43733 0
M  V30 4066 C 382.832 -1.25235 -3.14804 0
M  V30 4067 C 381.391 -1.00987 -3.626 0
M  V30 4068 C 380.538 -1.37695 -2.40698 0
M  V30 4069 H 383.489 -1.15884 -1.08428 0
M  V30 4070 H 383.51 -0.627329 -3.75293 0
M  V30 4071 H 383.022 -2.33209 -3.10218 0
M  V30 4072 H 381.123 0.0535565 -3.72562 0
M  V30 4073 H 381.236 -1.66812 -4.49122 0
M  V30 4074 H 379.6 -0.795459 -2.4196 0
M  V30 4075 H 380.383 -2.46657 -2.38779 0
M  V30 4076 N 382.828 1.3818 -0.7579 0
M  V30 4077 C 383.791 2.28764 -0.141286 0
M  V30 4078 C 384.791 1.47388 0.642907 0
M  V30 4079 O 385.981 1.67781 0.468536 0
M  V30 4080 C 383.113 3.31184 0.808069 0
M  V30 4081 H 384.306 2.848 -0.939633 0
M  V30 4082 H 381.859 1.47212 -0.525191 0
M  V30 4083 H 382.594 2.80247 1.63193 0
M  V30 4084 H 382.379 3.91314 0.248104 0
M  V30 4085 H 383.869 3.98909 1.23536 0
M  V30 4086 N 384.306 0.507319 1.49211 0
M  V30 4087 C 385.554 -0.0348839 2.0207 0
M  V30 4088 C 385.875 -1.36898 1.38866 0
M  V30 4089 O 385.145 -1.88133 0.546151 0
M  V30 4090 H 383.725 -0.0158812 0.746831 0
M  V30 4091 H 386.387 0.665998 1.83168 0
M  V30 4092 H 385.483 -0.159917 3.1169 0
M  V30 4093 N 385.784 -1.5574 0.241426 0
M  V30 4094 C 387.061 -1.90704 -0.434881 0
M  V30 4095 C 387.441 -1.16145 -1.76277 0
M  V30 4096 O 386.789 -0.277152 -2.26813 0
M  V30 4097 C 386.999 -3.43657 -0.608343 0
M  V30 4098 C 388.347 -4.14806 -0.906725 0
M  V30 4099 O 389.371 -3.49366 -0.694408 0
M  V30 4100 O 388.23 -5.30548 -1.31075 0
M  V30 4101 H 385.324 -0.793592 -0.23268 0
M  V30 4102 H 387.87 -1.67288 0.285086 0
M  V30 4103 H 386.642 -3.89927 0.327505 0
M  V30 4104 H 386.265 -3.72918 -1.37906 0
M  V30 4105 N 387.262 0.0317525 -1.57568 0
M  V30 4106 C 388.51 0.721676 -1.88776 0
M  V30 4107 C 388.831 1.76039 -0.838772 0
M  V30 4108 O 388.101 1.95482 0.127935 0
M  V30 4109 H 386.681 0.269534 -0.696678 0
M  V30 4110 H 389.343 -0.00165879 -1.949 0
M  V30 4111 H 388.439 1.21293 -2.87566 0
M  V30 4112 N 388.74 1.54641 0.303973 0
M  V30 4113 C 389.968 1.77768 1.05858 0
M  V30 4114 C 390.383 0.535722 1.8104 0
M  V30 4115 O 389.74 -0.494337 1.75677 0
M  V30 4116 C 389.791 2.9834 2.04146 0
M  V30 4117 O 389.512 4.17736 1.32015 0
M  V30 4118 C 391.013 3.33832 2.91669 0
M  V30 4119 H 388.233 0.592961 0.314067 0
M  V30 4120 H 390.777 2.01583 0.344149 0
M  V30 4121 H 388.932 2.76742 2.71096 0
M  V30 4122 H 389.346 4.85693 1.97998 0
M  V30 4123 H 390.82 4.21448 3.56491 0
M  V30 4124 H 391.297 2.51857 3.59812 0
M  V30 4125 H 391.903 3.57579 2.30254 0
M  V30 4126 N 390.218 -0.567019 1.47046 0
M  V30 4127 C 391.465 -1.32462 1.53167 0
M  V30 4128 C 391.793 -1.93571 0.189841 0
M  V30 4129 O 391.048 -1.77865 -0.816243 0
M  V30 4130 C 391.347 -2.4623 2.59047 0
M  V30 4131 C 391.013 -2.03014 4.02612 0
M  V30 4132 C 389.675 -1.90944 4.41694 0
M  V30 4133 C 392.027 -1.69895 4.92732 0
M  V30 4134 C 389.355 -1.44035 5.68745 0
M  V30 4135 C 391.707 -1.2446 6.20236 0
M  V30 4136 C 390.371 -1.10979 6.5821 0
M  V30 4137 H 389.641 -0.484713 0.560477 0
M  V30 4138 H 392.288 -0.636888 1.80599 0
M  V30 4139 H 390.593 -3.20517 2.25335 0
M  V30 4140 H 392.29 -3.04427 2.61008 0
M  V30 4141 H 388.88 -2.13348 3.71726 0
M  V30 4142 H 393.064 -1.78098 4.63244 0
M  V30 4143 H 388.32 -1.32254 5.96925 0
M  V30 4144 H 392.494 -0.978924 6.89485 0
M  V30 4145 H 390.121 -0.744078 7.5655 0
M  V30 4146 N 391.696 -1.35014 -0.812953 0
M  V30 4147 C 392.628 -1.23262 -1.93233 0
M  V30 4148 C 393.641 -0.157371 -1.62038 0
M  V30 4149 O 394.83 -0.410096 -1.73725 0
M  V30 4150 C 391.93 -0.87392 -3.27438 0
M  V30 4151 C 391.103 -2.04622 -3.86586 0
M  V30 4152 C 390.162 -1.66432 -4.99186 0
M  V30 4153 O 389.188 -2.38222 -5.16951 0
M  V30 4154 N 390.39 -0.584248 -5.77552 0
M  V30 4155 H 393.155 -2.19699 -2.03844 0
M  V30 4156 H 390.716 -1.281 -0.99005 0
M  V30 4157 H 392.708 -0.600039 -4.00227 0
M  V30 4158 H 391.278 0.00057392 -3.126 0
M  V30 4159 H 390.498 -2.48427 -3.06068 0
M  V30 4160 H 391.786 -2.82999 -4.22835 0
M  V30 4161 H 391.184 0.0123526 -5.65699 0
M  V30 4162 H 389.741 -0.37013 -6.50748 0
M  V30 4163 N 393.175 1.03435 -1.18907 0
M  V30 4164 C 394.122 2.11591 -0.921837 0
M  V30 4165 C 395.092 1.65499 0.141226 0
M  V30 4166 O 396.277 1.908 0.000242829 0
M  V30 4167 C 393.417 3.42012 -0.460616 0
M  V30 4168 C 392.53 4.01682 -1.58982 0
M  V30 4169 C 391.665 5.20091 -1.08069 0
M  V30 4170 C 390.704 5.71805 -2.18416 0
M  V30 4171 N 389.841 6.81494 -1.68849 0
M  V30 4172 H 394.681 2.33787 -1.8479 0
M  V30 4173 H 392.218 1.1467 -0.921373 0
M  V30 4174 H 394.176 4.16834 -0.174642 0
M  V30 4175 H 392.806 3.19944 0.428467 0
M  V30 4176 H 391.858 3.24127 -1.99113 0
M  V30 4177 H 393.17 4.36084 -2.4214 0
M  V30 4178 H 392.324 6.02051 -0.749615 0
M  V30 4179 H 391.063 4.87209 -0.218771 0
M  V30 4180 H 390.068 4.88461 -2.5236 0
M  V30 4181 H 391.293 6.06728 -3.05054 0
M  V30 4182 H 389.239 6.50475 -0.849572 0
M  V30 4183 H 389.156 7.14994 -2.45601 0
M  V30 4184 H 390.424 7.67063 -1.38689 0
M  V30 4185 N 394.653 0.992116 1.22453 0
M  V30 4186 C 395.899 0.678177 1.91761 0
M  V30 4187 C 396.254 -0.781141 1.75829 0
M  V30 4188 O 395.547 -1.55747 1.11595 0
M  V30 4189 C 395.741 1.01832 3.42586 0
M  V30 4190 C 395.57 2.50916 3.73191 0
M  V30 4191 C 394.34 3.17308 3.93248 0
M  V30 4192 C 396.538 3.49032 3.77732 0
M  V30 4193 N 394.52 4.55876 4.11157 0
M  V30 4194 C 395.891 4.73055 4.00773 0
M  V30 4195 C 397.946 3.43349 3.60577 0
M  V30 4196 C 396.649 5.92089 4.0844 0
M  V30 4197 C 398.675 4.61759 3.69503 0
M  V30 4198 C 398.037 5.84582 3.92993 0
M  V30 4199 H 394.136 0.299425 0.722405 0
M  V30 4200 H 396.72 1.27197 1.47408 0
M  V30 4201 H 394.891 0.453118 3.85748 0
M  V30 4202 H 396.623 0.660454 3.99274 0
M  V30 4203 H 393.378 2.67778 3.9063 0
M  V30 4204 H 393.802 5.27748 4.24042 0
M  V30 4205 H 398.444 2.49408 3.41402 0
M  V30 4206 H 396.162 6.86435 4.26418 0
M  V30 4207 H 399.748 4.58951 3.57569 0
M  V30 4208 H 398.628 6.74676 3.99728 0
M  V30 4209 N 396.131 -1.37776 0.765217 0
M  V30 4210 C 397.094 -2.28686 0.153416 0
M  V30 4211 C 398.094 -1.47727 -0.635081 0
M  V30 4212 O 399.284 -1.68027 -0.459632 0
M  V30 4213 C 396.416 -3.31608 -0.790495 0
M  V30 4214 H 397.609 -2.84297 0.954723 0
M  V30 4215 H 395.162 -1.46932 0.53299 0
M  V30 4216 H 395.897 -2.81109 -1.61705 0
M  V30 4217 H 395.682 -3.9144 -0.227348 0
M  V30 4218 H 397.172 -3.99559 -1.21419 0
M  V30 4219 N 397.609 -0.515225 -1.4894 0
M  V30 4220 C 398.572 0.244681 -2.2789 0
M  V30 4221 C 399.572 0.881166 -1.34507 0
M  V30 4222 O 400.762 0.743497 -1.57537 0
M  V30 4223 C 397.894 1.35247 -3.12923 0
M  V30 4224 H 399.087 -0.448289 -2.96531 0
M  V30 4225 H 396.64 -0.270656 -1.53939 0
M  V30 4226 H 397.375 2.07916 -2.48881 0
M  V30 4227 H 397.16 0.901374 -3.81599 0
M  V30 4228 H 398.65 1.88737 -3.72516 0
M  V30 4229 N 399.087 1.5561 -0.249682 0
M  V30 4230 C 400.333 1.99306 0.374841 0
M  V30 4231 C 400.666 1.13767 1.57387 0
M  V30 4232 O 399.941 0.201711 1.93451 0
M  V30 4233 C 400.224 3.51507 0.781986 0
M  V30 4234 C 400.077 4.4781 -0.422629 0
M  V30 4235 C 401.396 4.08884 1.62793 0
M  V30 4236 H 398.515 0.724572 0.134773 0
M  V30 4237 H 401.157 1.86719 -0.351549 0
M  V30 4238 H 399.307 3.62363 1.4009 0
M  V30 4239 H 400.979 4.48931 -1.06108 0
M  V30 4240 H 399.222 4.20518 -1.06524 0
M  V30 4241 H 399.893 5.51919 -0.0943766 0
M  V30 4242 H 402.369 4.01147 1.10547 0
M  V30 4243 H 401.245 5.1564 1.88166 0
M  V30 4244 H 401.506 3.57515 2.60068 0
M  V30 4245 N 400.565 -0.0233959 1.57583 0
M  V30 4246 C 401.811 -0.714119 1.89811 0
M  V30 4247 C 402.144 -1.74702 0.848113 0
M  V30 4248 O 401.419 -1.94023 -0.136135 0
M  V30 4249 C 401.702 -1.37853 3.32669 0
M  V30 4250 C 401.555 -0.358764 4.48367 0
M  V30 4251 C 402.874 -2.31101 3.7454 0
M  V30 4252 H 399.993 -0.25814 0.690314 0
M  V30 4253 H 402.635 0.0230927 1.89986 0
M  V30 4254 H 400.785 -2.00689 3.3265 0
M  V30 4255 H 402.457 0.268115 4.6052 0
M  V30 4256 H 400.7 0.321387 4.32608 0
M  V30 4257 H 401.371 -0.862242 5.45224 0
M  V30 4258 H 403.847 -1.78304 3.75961 0
M  V30 4259 H 402.723 -2.74567 4.75294 0
M  V30 4260 H 402.984 -3.18018 3.0711 0
M  V30 4261 N 402.043 -1.548 -0.295768 0
M  V30 4262 C 403.289 -1.74588 -1.03184 0
M  V30 4263 C 403.622 -0.532962 -1.86744 0
M  V30 4264 O 402.897 0.469872 -1.88739 0
M  V30 4265 C 403.18 -3.03791 -1.93347 0
M  V30 4266 C 403.033 -4.35392 -1.12933 0
M  V30 4267 C 404.352 -3.28892 -2.92435 0
M  V30 4268 H 401.471 -0.635221 -0.373715 0
M  V30 4269 H 404.113 -1.87519 -0.30606 0
M  V30 4270 H 402.263 -2.92898 -2.55232 0
M  V30 4271 H 403.935 -4.58211 -0.532943 0
M  V30 4272 H 402.178 -4.31642 -0.432168 0
M  V30 4273 H 402.849 -5.22074 -1.79284 0
M  V30 4274 H 405.325 -3.39429 -2.4068 0
M  V30 4275 H 404.201 -4.20603 -3.52682 0
M  V30 4276 H 404.462 -2.47437 -3.6637 0
M  V30 4277 N 403.521 0.559213 -1.47345 0
M  V30 4278 C 404.932 1.14134 -1.47751 0
M  V30 4279 C 405.283 1.94834 -0.231103 0
M  V30 4280 O 404.408 2.05957 0.664137 0
M  V30 4281 C 405.003 2.07653 -2.67705 0
M  V30 4282 C 403.562 2.61141 -2.71076 0
M  V30 4283 C 402.709 1.3748 -2.40821 0
M  V30 4284 H 405.66 0.345917 -1.54884 0
M  V30 4285 H 405.681 2.91497 -2.44561 0
M  V30 4286 H 405.193 1.4889 -3.58404 0
M  V30 4287 H 403.294 3.23707 -1.84511 0
M  V30 4288 H 403.407 3.02272 -3.7171 0
M  V30 4289 H 401.771 1.68086 -1.91362 0
M  V30 4290 H 402.554 0.805135 -3.33725 0
M  V30 4291 N 404.999 1.35443 0.805782 0
M  V30 4292 C 406.224 1.32037 1.59941 0
M  V30 4293 C 406.649 -0.0994215 1.87837 0
M  V30 4294 O 406.007 -1.06648 1.46615 0
M  V30 4295 C 406.055 2.13354 2.90711 0
M  V30 4296 O 405.159 1.5148 3.83572 0
M  V30 4297 H 404.5 0.452666 0.485787 0
M  V30 4298 H 407.03 1.78496 1.00002 0
M  V30 4299 H 407.04 2.25338 3.40128 0
M  V30 4300 H 405.715 3.16572 2.69732 0
M  V30 4301 H 404.292 1.4834 3.42125 0
M  V30 4302 N 406.477 -1.02803 1.19454 0
M  V30 4303 C 407.725 -1.75869 0.995722 0
M  V30 4304 C 408.046 -1.89138 -0.474543 0
M  V30 4305 O 407.316 -1.42558 -1.34366 0
M  V30 4306 H 405.896 -0.651511 0.365435 0
M  V30 4307 H 408.558 -1.24004 1.50363 0
M  V30 4308 H 407.654 -2.76661 1.44447 0
M  V30 4309 N 407.956 -0.998596 -1.21925 0
M  V30 4310 C 408.866 -0.562736 -2.27751 0
M  V30 4311 C 409.882 0.391203 -1.69545 0
M  V30 4312 O 411.058 0.256625 -1.99758 0
M  V30 4313 C 408.123 0.11012 -3.46525 0
M  V30 4314 C 407.184 -0.887495 -4.20026 0
M  V30 4315 C 406.417 -0.246654 -5.3313 0
M  V30 4316 O 406.64 0.958088 -5.62296 0
M  V30 4317 O 405.574 -0.954374 -5.94286 0
M  V30 4318 H 409.4 -1.44329 -2.67213 0
M  V30 4319 H 406.985 -0.767135 -1.28201 0
M  V30 4320 H 408.867 0.486756 -4.18579 0
M  V30 4321 H 407.542 0.965154 -3.08976 0
M  V30 4322 H 406.449 -1.31517 -3.5022 0
M  V30 4323 H 407.782 -1.71191 -4.6147 0
M  V30 4324 N 409.434 1.37368 -0.772513 0
M  V30 4325 C 410.344 2.34053 -0.160081 0
M  V30 4326 C 411.36 1.60216 0.678728 0
M  V30 4327 O 412.536 1.92303 0.59847 0
M  V30 4328 C 409.601 3.3939 0.708182 0
M  V30 4329 C 408.662 4.29048 -0.147172 0
M  V30 4330 C 407.895 5.29354 0.679744 0
M  V30 4331 O 408.118 5.3723 1.91678 0
M  V30 4332 O 407.052 6.01835 0.0885444 0
M  V30 4333 H 410.878 2.88159 -0.959053 0
M  V30 4334 H 408.463 1.39543 -0.533685 0
M  V30 4335 H 410.345 4.03839 1.20384 0
M  V30 4336 H 409.02 2.8761 1.48533 0
M  V30 4337 H 407.927 3.67697 -0.689205 0
M  V30 4338 H 409.26 4.84134 -0.887423 0
M  V30 4339 N 410.912 0.523116 1.48665 0
M  V30 4340 C 411.844 -0.280421 2.27478 0
M  V30 4341 C 412.857 -0.910694 1.34945 0
M  V30 4342 O 414.046 -0.790295 1.60052 0
M  V30 4343 C 411.146 -1.41171 3.08097 0
M  V30 4344 C 410.319 -0.884642 4.28361 0
M  V30 4345 C 409.378 -1.89622 4.90846 0
M  V30 4346 O 408.404 -1.4559 5.50265 0
M  V30 4347 N 409.606 -3.22801 4.82472 0
M  V30 4348 H 412.371 0.395481 2.97079 0
M  V30 4349 H 409.932 0.357018 1.57915 0
M  V30 4350 H 411.924 -2.08645 3.4677 0
M  V30 4351 H 410.494 -1.99139 2.40961 0
M  V30 4352 H 409.714 -0.0341177 3.94185 0
M  V30 4353 H 411.002 -0.511268 5.06225 0
M  V30 4354 H 410.4 -3.61246 4.35336 0
M  V30 4355 H 408.957 -3.85927 5.25265 0
M  V30 4356 N 412.39 -1.55475 0.257931 0
M  V30 4357 C 413.806 -1.59307 -0.0966563 0
M  V30 4358 C 414.006 -1.27514 -1.5602 0
M  V30 4359 O 413.062 -1.02774 -2.30637 0
M  V30 4360 C 414.375 -2.99552 0.262481 0
M  V30 4361 C 415.923 -3.1231 0.207683 0
M  V30 4362 C 416.398 -4.54793 0.541012 0
M  V30 4363 N 417.889 -4.6058 0.491921 0
M  V30 4364 C 418.624 -5.68825 0.722857 0
M  V30 4365 N 418.12 -6.85287 1.0175 0
M  V30 4366 N 419.913 -5.58296 0.652815 0
M  V30 4367 H 412.064 -1.74409 1.21224 0
M  V30 4368 H 414.327 -0.812424 0.48854 0
M  V30 4369 H 414.033 -3.27593 1.27967 0
M  V30 4370 H 413.907 -3.75019 -0.40508 0
M  V30 4371 H 416.294 -2.84044 -0.800195 0
M  V30 4372 H 416.375 -2.39095 0.909255 0
M  V30 4373 H 416.019 -4.83783 1.5465 0
M  V30 4374 H 415.949 -5.26285 -0.18216 0
M  V30 4375 H 418.44 -3.7691 0.273366 0
M  V30 4376 H 418.753 -7.63725 1.18084 0
M  V30 4377 H 417.098 -6.86945 1.05509 0
M  V30 4378 H 420.289 -4.66189 0.422592 0
M  V30 4379 H 420.462 -6.42582 0.836182 0
M  V30 4380 N 413.868 0.0150385 -1.57593 0
M  V30 4381 C 415.098 0.713359 -1.93894 0
M  V30 4382 C 415.506 1.68663 -0.857289 0
M  V30 4383 O 414.849 1.82876 0.173788 0
M  V30 4384 C 414.911 1.51348 -3.26089 0
M  V30 4385 C 414.575 0.703451 -4.51554 0
M  V30 4386 C 415.572 -0.00237924 -5.199 0
M  V30 4387 C 413.257 0.653854 -4.98026 0
M  V30 4388 C 415.251 -0.746955 -6.33008 0
M  V30 4389 C 412.938 -0.0944578 -6.11027 0
M  V30 4390 C 413.936 -0.793609 -6.78374 0
M  V30 4391 O 413.624 -1.52974 -7.89211 0
M  V30 4392 H 413.356 0.204637 -0.644282 0
M  V30 4393 H 415.91 -0.0276411 -2.05381 0
M  V30 4394 H 414.14 2.29862 -3.10967 0
M  V30 4395 H 415.829 2.09572 -3.47612 0
M  V30 4396 H 416.595 0.0268803 -4.84993 0
M  V30 4397 H 412.474 1.18756 -4.45441 0
M  V30 4398 H 416.018 -1.2932 -6.85509 0
M  V30 4399 H 411.915 -0.125591 -6.45378 0
M  V30 4400 H 412.683 -1.44488 -8.05646 0
M  V30 4401 N 415.346 1.54954 0.287554 0
M  V30 4402 C 416.574 1.78881 1.03967 0
M  V30 4403 C 416.989 0.554894 1.80462 0
M  V30 4404 O 416.346 -0.475676 1.76192 0
M  V30 4405 C 416.397 3.00488 2.0097 0
M  V30 4406 O 416.118 4.19113 1.27577 0
M  V30 4407 C 417.619 3.36907 2.88112 0
M  V30 4408 H 414.839 0.596259 0.307761 0
M  V30 4409 H 417.383 2.01937 0.322749 0
M  V30 4410 H 415.538 2.79601 2.68145 0
M  V30 4411 H 415.952 4.87765 1.92835 0
M  V30 4412 H 417.426 4.25205 3.52001 0
M  V30 4413 H 417.903 2.55659 3.57121 0
M  V30 4414 H 418.509 3.60001 2.26449 0
M  V30 4415 N 416.824 -0.551391 1.4764 0
M  V30 4416 C 418.064 -1.31901 1.56145 0
M  V30 4417 C 418.428 -1.90724 0.221013 0
M  V30 4418 O 419.629 -2.6819 0.180945 0
M  V30 4419 C 417.9 -2.39517 2.65267 0
M  V30 4420 S 419.459 -3.26289 2.93395 0
M  V30 4421 H 416.277 -0.448965 0.551318 0
M  V30 4422 H 418.879 -0.630599 1.85051 0
M  V30 4423 H 417.583 -1.94747 3.6125 0
M  V30 4424 H 417.114 -3.13092 2.38195 0
M  V30 4425 H 419.129 -4.39122 2.31055 0
M  V30 4426 N 418.302 -1.35869 -0.798587 0
M  V30 4427 C 419.252 -1.25982 -1.90033 0
M  V30 4428 C 420.236 -0.153303 -1.60168 0
M  V30 4429 O 421.428 -0.38527 -1.72756 0
M  V30 4430 C 418.557 -1.04211 -3.27101 0
M  V30 4431 C 417.643 -2.19289 -3.63006 0
M  V30 4432 N 418.034 -3.44559 -3.70287 0
M  V30 4433 C 416.332 -2.10852 -3.93011 0
M  V30 4434 C 417.033 -4.20283 -4.02166 0
M  V30 4435 N 416.009 -3.49124 -4.16669 0
M  V30 4436 H 419.811 -2.20883 -1.93876 0
M  V30 4437 H 417.325 -1.28457 -0.993614 0
M  V30 4438 H 419.322 -0.952155 -4.05881 0
M  V30 4439 H 417.982 -0.102013 -3.2454 0
M  V30 4440 H 418.993 -3.7881 -3.53162 0
M  V30 4441 H 415.67 -1.24744 -3.98428 0
M  V30 4442 H 417.06 -5.28575 -4.14799 0
M  V30 4443 N 419.78 1.02168 -1.19998 0
M  V30 4444 C 421.026 1.75945 -1.00852 0
M  V30 4445 C 421.359 1.88702 0.458828 0
M  V30 4446 O 420.634 1.40911 1.34069 0
M  V30 4447 C 420.917 3.18154 -1.68671 0
M  V30 4448 C 420.77 3.13224 -3.22817 0
M  V30 4449 C 422.089 4.16711 -1.41561 0
M  V30 4450 H 419.208 0.638673 -0.367785 0
M  V30 4451 H 421.85 1.19222 -1.4794 0
M  V30 4452 H 420 3.66586 -1.28636 0
M  V30 4453 H 421.672 2.72635 -3.72112 0
M  V30 4454 H 419.915 2.50751 -3.53986 0
M  V30 4455 H 420.586 4.13728 -3.65422 0
M  V30 4456 H 423.062 3.76913 -1.76284 0
M  V30 4457 H 421.938 5.14391 -1.91553 0
M  V30 4458 H 422.199 4.40774 -0.342193 0
M  V30 4459 N 421.258 1.00505 1.21394 0
M  V30 4460 C 422.19 0.52372 2.23136 0
M  V30 4461 C 423.203 -0.387714 1.58116 0
M  V30 4462 O 424.392 -0.187905 1.77508 0
M  V30 4463 C 421.492 -0.258885 3.3791 0
M  V30 4464 C 420.665 0.651634 4.32519 0
M  V30 4465 C 419.724 -0.0813705 5.26137 0
M  V30 4466 O 418.75 0.537295 5.66658 0
M  V30 4467 N 419.952 -1.35992 5.64346 0
M  V30 4468 H 422.717 1.39865 2.65062 0
M  V30 4469 H 420.278 0.881196 1.35818 0
M  V30 4470 H 422.27 -0.758208 3.97534 0
M  V30 4471 H 420.84 -1.035 2.94968 0
M  V30 4472 H 420.06 1.33145 3.71034 0
M  V30 4473 H 421.348 1.27129 4.92662 0
M  V30 4474 H 420.746 -1.88368 5.33417 0
M  V30 4475 H 419.303 -1.8042 6.26332 0
M  V30 4476 N 422.737 -1.36956 0.779787 0
M  V30 4477 C 423.687 -2.27539 0.144892 0
M  V30 4478 C 424.671 -1.46493 -0.665488 0
M  V30 4479 O 425.863 -1.68968 -0.527141 0
M  V30 4480 C 422.992 -3.35512 -0.727082 0
M  V30 4481 C 422.078 -4.24001 0.0915642 0
M  V30 4482 N 422.469 -4.92757 1.14125 0
M  V30 4483 C 420.767 -4.45807 -0.131141 0
M  V30 4484 C 421.468 -5.58138 1.6388 0
M  V30 4485 N 420.444 -5.35241 0.94962 0
M  V30 4486 H 424.246 -2.78176 0.948446 0
M  V30 4487 H 421.76 -1.50169 0.618315 0
M  V30 4488 H 423.757 -3.99324 -1.19776 0
M  V30 4489 H 422.417 -2.86431 -1.52929 0
M  V30 4490 H 423.428 -4.94984 1.52353 0
M  V30 4491 H 420.105 -4.07582 -0.904621 0
M  V30 4492 H 421.495 -6.23071 2.51461 0
M  V30 4493 N 424.215 -0.530993 -1.48385 0
M  V30 4494 C 425.125 0.23503 -2.3342 0
M  V30 4495 C 426.141 0.93801 -1.46552 0
M  V30 4496 O 427.317 0.912745 -1.7953 0
M  V30 4497 C 424.382 1.26778 -3.22689 0
M  V30 4498 C 423.443 0.575038 -4.25431 0
M  V30 4499 C 422.676 1.55858 -5.10435 0
M  V30 4500 O 422.899 2.79129 -4.97437 0
M  V30 4501 O 421.833 1.09742 -5.91811 0
M  V30 4502 H 425.659 -0.461794 -3.00169 0
M  V30 4503 H 423.244 -0.291903 -1.46521 0
M  V30 4504 H 425.126 1.86457 -3.77904 0
M  V30 4505 H 423.801 1.94699 -2.586 0
M  V30 4506 H 422.708 -0.0622782 -3.74048 0
M  V30 4507 H 424.041 -0.062253 -4.92161 0
M  V30 4508 N 425.693 1.55336 -0.266172 0
M  V30 4509 C 426.941 1.99003 0.35246 0
M  V30 4510 C 427.262 1.15591 1.57047 0
M  V30 4511 O 426.532 0.243268 1.94384 0
M  V30 4512 H 425.112 0.735025 0.133217 0
M  V30 4513 H 427.774 1.91367 -0.369434 0
M  V30 4514 H 426.87 3.05289 0.648453 0
M  V30 4515 N 427.171 -0.0066808 1.57599 0
M  V30 4516 C 428.101 -0.999296 2.11036 0
M  V30 4517 C 429.082 -1.36278 1.01795 0
M  V30 4518 O 430.267 -1.4477 1.29442 0
M  V30 4519 C 427.397 -2.29328 2.60818 0
M  V30 4520 C 426.351 -2.07159 3.74525 0
M  V30 4521 C 425.677 -3.42512 4.10596 0
M  V30 4522 C 426.977 -1.43959 5.02069 0
M  V30 4523 H 428.671 -0.554382 2.94223 0
M  V30 4524 H 426.217 -0.265221 1.41536 0
M  V30 4525 H 428.17 -2.99117 2.96828 0
M  V30 4526 H 426.894 -2.7592 1.74745 0
M  V30 4527 H 425.553 -1.39797 3.38899 0
M  V30 4528 H 425.201 -3.86795 3.21556 0
M  V30 4529 H 424.901 -3.28498 4.87199 0
M  V30 4530 H 426.425 -4.13628 4.4916 0
M  V30 4531 H 427.839 -2.03696 5.35893 0
M  V30 4532 H 426.236 -1.40452 5.83432 0
M  V30 4533 H 427.306 -0.407992 4.83181 0
M  V30 4534 N 428.649 -1.55105 -0.279332 0
M  V30 4535 C 430.06 -1.66186 -0.850832 0
M  V30 4536 C 430.411 -0.584707 -1.87285 0
M  V30 4537 O 429.536 0.274919 -2.14647 0
M  V30 4538 C 430.131 -3.01264 -1.55001 0
M  V30 4539 C 428.69 -3.14394 -2.06963 0
M  V30 4540 C 427.837 -2.61959 -0.909536 0
M  V30 4541 H 430.788 -1.58602 -0.0558235 0
M  V30 4542 H 430.809 -2.93899 -2.41669 0
M  V30 4543 H 430.321 -3.7964 -0.805931 0
M  V30 4544 H 428.422 -2.4078 -2.84352 0
M  V30 4545 H 428.535 -4.20867 -2.28928 0
M  V30 4546 H 426.899 -2.18957 -1.30116 0
M  V30 4547 H 427.682 -3.42833 -0.179062 0
M  V30 4548 N 430.127 0.543554 -1.4793 0
M  V30 4549 C 431.074 1.64942 -1.6144 0
M  V30 4550 C 432.044 1.59692 -0.456903 0
M  V30 4551 O 433.229 1.78321 -0.678688 0
M  V30 4552 C 430.369 3.03238 -1.64744 0
M  V30 4553 C 429.482 3.18823 -2.91506 0
M  V30 4554 C 428.617 4.47599 -2.86057 0
M  V30 4555 C 427.656 4.56664 -4.07584 0
M  V30 4556 N 426.793 5.76811 -4.00292 0
M  V30 4557 H 431.633 1.52733 -2.55884 0
M  V30 4558 H 429.17 0.7438 -1.2691 0
M  V30 4559 H 431.128 3.83339 -1.64641 0
M  V30 4560 H 429.758 3.1425 -0.738017 0
M  V30 4561 H 428.81 2.32064 -3.01414 0
M  V30 4562 H 430.122 3.21384 -3.81463 0
M  V30 4563 H 429.276 5.35975 -2.84281 0
M  V30 4564 H 428.015 4.47538 -1.93807 0
M  V30 4565 H 427.02 3.66697 -4.09651 0
M  V30 4566 H 428.245 4.58474 -5.00978 0
M  V30 4567 H 426.191 5.77673 -3.10853 0
M  V30 4568 H 426.108 5.80808 -4.8394 0
M  V30 4569 H 427.376 6.67512 -4.02553 0
M  V30 4570 N 431.605 1.3629 0.791371 0
M  V30 4571 C 433.016 1.27225 1.36641 0
M  V30 4572 C 433.367 -0.0887968 1.95999 0
M  V30 4573 O 432.492 -0.990207 1.92416 0
M  V30 4574 C 433.087 2.30375 2.48421 0
M  V30 4575 C 431.646 2.25004 3.01746 0
M  V30 4576 C 430.793 2.15259 1.7481 0
M  V30 4577 H 433.744 1.47198 0.593173 0
M  V30 4578 H 433.765 1.93905 3.27385 0
M  V30 4579 H 433.277 3.29422 2.05189 0
M  V30 4580 H 431.378 1.29417 3.49403 0
M  V30 4581 H 431.491 3.1761 3.58693 0
M  V30 4582 H 429.855 1.61482 1.96966 0
M  V30 4583 H 430.638 3.16191 1.33709 0
M  V30 4584 N 433.083 -1.0153 1.20538 0
M  V30 4585 C 434.013 -2.11972 0.979295 0
M  V30 4586 C 434.994 -1.6985 -0.0921787 0
M  V30 4587 O 436.179 -1.94089 0.0655932 0
M  V30 4588 C 433.309 -3.43201 0.531984 0
M  V30 4589 C 432.263 -3.9907 1.54685 0
M  V30 4590 C 431.589 -5.26082 0.956127 0
M  V30 4591 C 432.889 -4.32313 2.93092 0
M  V30 4592 H 434.583 -2.31143 1.90298 0
M  V30 4593 H 432.129 -1.11079 0.916372 0
M  V30 4594 H 434.082 -4.1985 0.361044 0
M  V30 4595 H 432.806 -3.23792 -0.427327 0
M  V30 4596 H 431.465 -3.2453 1.70517 0
M  V30 4597 H 431.113 -5.02999 -0.0111538 0
M  V30 4598 H 430.813 -5.64426 1.63393 0
M  V30 4599 H 432.337 -6.05386 0.796284 0
M  V30 4600 H 433.751 -4.99845 2.80763 0
M  V30 4601 H 432.148 -4.81774 3.57791 0
M  V30 4602 H 433.218 -3.41025 3.44717 0
M  V30 4603 N 434.561 -1.01147 -1.20859 0
M  V30 4604 C 435.789 -0.716911 -1.94082 0
M  V30 4605 C 436.204 0.721568 -1.74467 0
M  V30 4606 O 435.561 1.48889 -1.05539 0
M  V30 4607 C 435.612 -1.03662 -3.46318 0
M  V30 4608 O 435.333 -2.4186 -3.65288 0
M  V30 4609 C 436.834 -0.762386 -4.36695 0
M  V30 4610 H 434.054 -0.26367 -0.617024 0
M  V30 4611 H 436.598 -1.35127 -1.53496 0
M  V30 4612 H 434.753 -0.447757 -3.84804 0
M  V30 4613 H 435.167 -2.53224 -4.59323 0
M  V30 4614 H 436.641 -1.03621 -5.42187 0
M  V30 4615 H 437.118 0.303514 -4.3815 0
M  V30 4616 H 437.724 -1.33316 -4.03865 0
M  V30 4617 N 436.039 1.36541 -0.78704 0
M  V30 4618 C 436.969 2.32659 -0.197992 0
M  V30 4619 C 437.95 1.56533 0.665697 0
M  V30 4620 O 439.135 1.84698 0.60001 0
M  V30 4621 C 436.265 3.40778 0.669901 0
M  V30 4622 C 435.219 4.27897 -0.0937039 0
M  V30 4623 C 434.545 5.27163 0.894629 0
M  V30 4624 C 435.845 5.06334 -1.28154 0
M  V30 4625 H 437.539 2.82171 -1.00099 0
M  V30 4626 H 435.085 1.35665 -0.482793 0
M  V30 4627 H 437.038 4.07008 1.09191 0
M  V30 4628 H 435.762 2.89827 1.50558 0
M  V30 4629 H 434.421 3.6322 -0.49666 0
M  V30 4630 H 434.069 4.72486 1.72527 0
M  V30 4631 H 433.769 5.86317 0.388149 0
M  V30 4632 H 435.293 5.96266 1.31525 0
M  V30 4633 H 436.707 5.65617 -0.93541 0
M  V30 4634 H 435.104 5.74888 -1.72115 0
M  V30 4635 H 436.174 4.38114 -2.07807 0
M  V30 4636 N 437.518 0.538854 1.48102 0
M  V30 4637 C 438.934 0.19732 1.58376 0
M  V30 4638 C 439.134 -1.29971 1.5398 0
M  V30 4639 O 438.19 -2.07861 1.43352 0
M  V30 4640 C 439.503 0.807716 2.89649 0
M  V30 4641 C 441.051 0.77726 3.03196 0
M  V30 4642 C 441.526 1.36639 4.37143 0
M  V30 4643 N 443.017 1.32875 4.43732 0
M  V30 4644 C 443.752 1.7544 5.45901 0
M  V30 4645 N 443.248 2.25776 6.54979 0
M  V30 4646 N 445.041 1.66623 5.36836 0
M  V30 4647 H 437.192 1.5117 1.49202 0
M  V30 4648 H 439.455 0.629327 0.708979 0
M  V30 4649 H 439.161 1.85909 2.98548 0
M  V30 4650 H 439.035 0.289975 3.76084 0
M  V30 4651 H 441.422 -0.265374 2.93904 0
M  V30 4652 H 441.503 1.33256 2.18349 0
M  V30 4653 H 441.147 2.408 4.47189 0
M  V30 4654 H 441.077 0.786689 5.20691 0
M  V30 4655 H 443.568 0.96037 3.65493 0
M  V30 4656 H 443.881 2.56226 7.29087 0
M  V30 4657 H 442.226 2.29775 6.55918 0
M  V30 4658 H 445.417 1.27089 4.50517 0
M  V30 4659 H 445.59 2.00115 6.16326 0
M  V30 4660 N 438.996 -1.55193 0.274407 0
M  V30 4661 C 440.242 -2.00604 -0.33608 0
M  V30 4662 C 440.597 -1.15948 -1.53538 0
M  V30 4663 O 439.89 -0.221385 -1.90317 0
M  V30 4664 C 440.084 -3.49019 -0.769458 0
M  V30 4665 C 439.913 -4.48038 0.386301 0
M  V30 4666 C 438.683 -4.97757 0.869854 0
M  V30 4667 C 440.881 -4.99558 1.22254 0
M  V30 4668 N 438.863 -5.80575 1.99515 0
M  V30 4669 C 440.234 -5.79816 2.19575 0
M  V30 4670 C 442.289 -4.81799 1.25597 0
M  V30 4671 C 440.992 -6.44208 3.19981 0
M  V30 4672 C 443.018 -5.46989 2.24848 0
M  V30 4673 C 442.38 -6.27058 3.20901 0
M  V30 4674 H 438.479 -0.777013 -0.088172 0
M  V30 4675 H 441.063 -1.90583 0.398266 0
M  V30 4676 H 439.234 -3.59383 -1.47303 0
M  V30 4677 H 440.966 -3.81263 -1.35722 0
M  V30 4678 H 437.721 -4.71464 0.449281 0
M  V30 4679 H 438.145 -6.26675 2.5614 0
M  V30 4680 H 442.787 -4.19501 0.527158 0
M  V30 4681 H 440.505 -7.05656 3.93796 0
M  V30 4682 H 444.091 -5.35189 2.28174 0
M  V30 4683 H 442.971 -6.7661 3.96445 0
M  V30 4684 N 440.474 -0.00167713 -1.576 0
M  V30 4685 C 441.384 1.00548 -2.1196 0
M  V30 4686 C 442.4 1.3758 -1.06526 0
M  V30 4687 O 443.576 1.46278 -1.38436 0
M  V30 4688 C 440.641 2.27809 -2.6135 0
M  V30 4689 C 439.702 1.97074 -3.81393 0
M  V30 4690 C 438.935 3.18267 -4.28417 0
M  V30 4691 O 439.158 4.30009 -3.74765 0
M  V30 4692 O 438.092 3.02167 -5.20556 0
M  V30 4693 H 441.918 0.573373 -2.98238 0
M  V30 4694 H 439.503 0.217255 -1.47812 0
M  V30 4695 H 441.385 3.02568 -2.93309 0
M  V30 4696 H 440.06 2.70254 -1.78169 0
M  V30 4697 H 438.967 1.19785 -3.54404 0
M  V30 4698 H 440.3 1.59464 -4.65652 0
M  V30 4699 N 441.952 1.55251 0.271103 0
M  V30 4700 C 442.882 1.9127 1.33933 0
M  V30 4701 C 443.863 0.77478 1.5143 0
M  V30 4702 O 445.048 1.03307 1.64442 0
M  V30 4703 C 442.178 2.18627 2.69851 0
M  V30 4704 C 441.132 3.34442 2.67081 0
M  V30 4705 C 440.458 3.47284 4.06569 0
M  V30 4706 C 441.758 4.70784 2.26185 0
M  V30 4707 H 443.452 2.80744 1.04035 0
M  V30 4708 H 440.998 1.35077 0.499017 0
M  V30 4709 H 442.951 2.42413 3.44694 0
M  V30 4710 H 441.675 1.25955 3.01335 0
M  V30 4711 H 440.334 3.10627 1.94695 0
M  V30 4712 H 439.982 2.52074 4.35279 0
M  V30 4713 H 439.682 4.25152 4.0561 0
M  V30 4714 H 441.206 3.73363 4.83148 0
M  V30 4715 H 442.62 4.94102 2.90751 0
M  V30 4716 H 441.017 5.51582 2.36384 0
M  V30 4717 H 442.087 4.69478 1.21319 0
M  V30 4718 N 443.43 -0.535701 1.48216 0
M  V30 4719 C 444.655 -1.32149 1.59848 0
M  V30 4720 C 445.08 -1.86338 0.256842 0
M  V30 4721 O 444.438 -1.64107 -0.770632 0
M  V30 4722 C 444.486 -2.45224 2.64381 0
M  V30 4723 O 443.59 -3.48093 2.21144 0
M  V30 4724 H 442.931 -0.391634 0.536208 0
M  V30 4725 H 445.461 -0.645202 1.94161 0
M  V30 4726 H 445.471 -2.91491 2.85476 0
M  V30 4727 H 444.146 -2.05143 3.61786 0
M  V30 4728 H 442.723 -3.07984 2.10239 0
M  V30 4729 N 444.908 -1.36708 -0.784132 0
M  V30 4730 C 446.133 -1.34565 -1.5782 0
M  V30 4731 C 446.558 0.0695257 -1.87971 0
M  V30 4732 O 445.916 1.04302 -1.48293 0
M  V30 4733 C 445.964 -2.17952 -2.87279 0
M  V30 4734 O 445.068 -1.57563 -3.81114 0
M  V30 4735 H 444.409 -0.460337 -0.478524 0
M  V30 4736 H 446.939 -1.80064 -0.971495 0
M  V30 4737 H 446.949 -2.30721 -3.365 0
M  V30 4738 H 445.624 -3.20823 -2.64661 0
M  V30 4739 H 444.201 -1.53764 -3.39722 0
M  V30 4740 N 446.386 1.0089 -1.21074 0
M  V30 4741 C 447.318 2.09737 -0.924291 0
M  V30 4742 C 448.331 1.62546 0.0909809 0
M  V30 4743 O 449.52 1.77942 -0.141021 0
M  V30 4744 C 446.62 3.36922 -0.36559 0
M  V30 4745 C 445.793 4.13216 -1.43426 0
M  V30 4746 C 444.852 5.18696 -0.885496 0
M  V30 4747 O 443.878 5.47176 -1.56801 0
M  V30 4748 N 445.08 5.79718 0.301227 0
M  V30 4749 H 447.845 2.34895 -1.8613 0
M  V30 4750 H 445.406 1.17341 -1.11546 0
M  V30 4751 H 447.398 4.04697 0.0158407 0
M  V30 4752 H 445.968 3.08952 0.476149 0
M  V30 4753 H 445.188 3.40301 -1.9897 0
M  V30 4754 H 446.476 4.60967 -2.15376 0
M  V30 4755 H 445.874 5.58926 0.872849 0
M  V30 4756 H 444.431 6.48804 0.624211 0
M  V30 4757 N 447.864 1.01787 1.20321 0
M  V30 4758 C 449.275 0.739307 1.71438 0
M  V30 4759 C 449.626 -0.742041 1.81627 0
M  V30 4760 O 448.751 -1.57903 1.47971 0
M  V30 4761 C 449.346 1.33538 3.11373 0
M  V30 4762 C 447.905 1.10566 3.59795 0
M  V30 4763 C 447.052 1.44028 2.36962 0
M  V30 4764 H 450.003 1.18718 1.05317 0
M  V30 4765 H 450.024 0.726611 3.73498 0
M  V30 4766 H 449.536 2.41352 3.03926 0
M  V30 4767 H 447.637 0.0452405 3.72573 0
M  V30 4768 H 447.75 1.78661 4.44542 0
M  V30 4769 H 446.114 0.85933 2.39766 0
M  V30 4770 H 446.897 2.52901 2.32155 0
M  V30 4771 N 449.342 -1.36122 0.79427 0
M  V30 4772 C 450.57 -2.03362 0.380989 0
M  V30 4773 C 450.985 -1.59881 -1.00416 0
M  V30 4774 O 450.342 -0.790515 -1.6449 0
M  V30 4775 C 450.393 -3.58804 0.440649 0
M  V30 4776 O 450.114 -4.007 1.77118 0
M  V30 4777 C 451.615 -4.43296 0.0186117 0
M  V30 4778 H 448.835 -0.652526 0.156367 0
M  V30 4779 H 451.379 -1.73998 1.07447 0
M  V30 4780 H 449.534 -3.8686 -0.204458 0
M  V30 4781 H 449.948 -4.95309 1.72538 0
M  V30 4782 H 451.422 -5.51887 0.111488 0
M  V30 4783 H 451.899 -4.2684 -1.03461 0
M  V30 4784 H 452.505 -4.20512 0.636395 0
M  V30 4785 N 450.82 -0.546701 -1.47814 0
M  V30 4786 C 452.069 -0.0166497 -2.01693 0
M  V30 4787 C 452.382 1.33721 -1.42752 0
M  V30 4788 O 453.588 1.95658 -1.8823 0
M  V30 4789 C 452.044 0.0206769 -3.59894 0
M  V30 4790 C 451.652 -1.3293 -4.27824 0
M  V30 4791 C 453.396 0.498674 -4.21561 0
M  V30 4792 C 451.303 -1.25165 -5.78003 0
M  V30 4793 H 450.233 -0.0024541 -0.753996 0
M  V30 4794 H 452.884 -0.692984 -1.69912 0
M  V30 4795 H 451.266 0.76244 -3.88591 0
M  V30 4796 H 452.44 -2.08795 -4.10781 0
M  V30 4797 H 450.755 -1.74438 -3.78101 0
M  V30 4798 H 453.352 0.575 -5.31599 0
M  V30 4799 H 453.695 1.5083 -3.88016 0
M  V30 4800 H 454.228 -0.18791 -3.97356 0
M  V30 4801 H 450.967 -2.23695 -6.1615 0
M  V30 4802 H 450.487 -0.53464 -5.97412 0
M  V30 4803 H 452.166 -0.949299 -6.39998 0
M  V30 4804 N 452.299 1.55045 -0.282633 0
M  V30 4805 C 453.71 1.85473 0.213655 0
M  V30 4806 C 454.061 1.20465 1.54863 0
M  V30 4807 O 453.186 0.495676 2.10647 0
M  V30 4808 C 453.781 3.36496 0.394445 0
M  V30 4809 C 452.34 3.67022 0.834961 0
M  V30 4810 C 451.487 2.77218 -0.0674081 0
M  V30 4811 H 454.438 1.50478 -0.504202 0
M  V30 4812 H 454.459 3.60007 1.23186 0
M  V30 4813 H 453.971 3.83782 -0.577326 0
M  V30 4814 H 452.072 3.25241 1.81794 0
M  V30 4815 H 452.185 4.74433 0.667075 0
M  V30 4816 H 450.549 2.5069 0.450196 0
M  V30 4817 H 451.332 3.2732 -1.0352 0
M  V30 4818 N 453.777 0.010035 1.57597 0
M  V30 4819 C 455.026 -0.671945 1.90178 0
M  V30 4820 C 455.339 -1.74376 0.886131 0
M  V30 4821 O 456.545 -2.48107 1.10252 0
M  V30 4822 C 455.001 -1.24636 3.3763 0
M  V30 4823 C 454.609 -0.208838 4.47513 0
M  V30 4824 C 456.353 -1.90595 3.79307 0
M  V30 4825 C 454.26 -0.793814 5.86048 0
M  V30 4826 H 453.19 -0.25474 0.709665 0
M  V30 4827 H 455.841 0.0722206 1.83358 0
M  V30 4828 H 454.223 -2.04152 3.3932 0
M  V30 4829 H 455.397 0.562463 4.57354 0
M  V30 4830 H 453.712 0.350889 4.14919 0
M  V30 4831 H 456.309 -2.35284 4.80151 0
M  V30 4832 H 456.652 -2.74074 3.13352 0
M  V30 4833 H 457.185 -1.17798 3.79958 0
M  V30 4834 H 453.924 0.00240855 6.555 0
M  V30 4835 H 453.444 -1.53404 5.79851 0
M  V30 4836 H 455.123 -1.2894 6.34022 0
M  V30 4837 N 455.255 -1.55392 -0.262866 0
M  V30 4838 C 456.501 -1.76737 -0.99458 0
M  V30 4839 C 456.834 -0.572453 -1.85571 0
M  V30 4840 O 456.109 0.429732 -1.89693 0
M  V30 4841 C 456.392 -3.07824 -1.8686 0
M  V30 4842 C 456.245 -4.3769 -1.03672 0
M  V30 4843 C 457.564 -3.35021 -2.85393 0
M  V30 4844 H 454.683 -0.643005 -0.360157 0
M  V30 4845 H 457.325 -1.88126 -0.266216 0
M  V30 4846 H 455.475 -2.98245 -2.48962 0
M  V30 4847 H 457.147 -4.59238 -0.43563 0
M  V30 4848 H 455.39 -4.32461 -0.340513 0
M  V30 4849 H 456.061 -5.25759 -1.6817 0
M  V30 4850 H 458.537 -3.44458 -2.33426 0
M  V30 4851 H 457.413 -4.27989 -3.43681 0
M  V30 4852 H 457.674 -2.55153 -3.61039 0
M  V30 4853 N 456.733 0.527833 -1.48498 0
M  V30 4854 C 457.981 1.28101 -1.56316 0
M  V30 4855 C 458.302 1.9352 -0.239781 0
M  V30 4856 O 457.572 1.81433 0.738849 0
M  V30 4857 H 456.152 0.475793 -0.575873 0
M  V30 4858 H 458.814 0.614052 -1.84974 0
M  V30 4859 H 457.91 2.05916 -2.34532 0
M  V30 4860 N 458.211 1.37122 0.776871 0
M  V30 4861 C 459.46 1.31373 1.53049 0
M  V30 4862 C 459.773 -0.101016 1.95339 0
M  V30 4863 O 460.979 -0.280953 2.70042 0
M  V30 4864 C 459.435 2.30567 2.76346 0
M  V30 4865 C 459.043 3.77543 2.41175 0
M  V30 4866 C 460.787 2.33818 3.54301 0
M  V30 4867 C 458.694 4.68481 3.60943 0
M  V30 4868 H 457.624 0.488234 0.574581 0
M  V30 4869 H 460.275 1.62554 0.851372 0
M  V30 4870 H 458.657 1.92396 3.46121 0
M  V30 4871 H 459.831 4.24521 1.79216 0
M  V30 4872 H 458.146 3.77187 1.76405 0
M  V30 4873 H 460.743 2.98965 4.4331 0
M  V30 4874 H 461.086 1.3503 3.93793 0
M  V30 4875 H 461.619 2.7067 2.91518 0
M  V30 4876 H 458.358 5.68378 3.26537 0
M  V30 4877 H 457.878 4.2621 4.22025 0
M  V30 4878 H 459.557 4.85366 4.27819 0
M  V30 4879 N 459.689 -1.00246 1.21608 0
M  V30 4880 C 460.938 -1.73476 1.02902 0
M  V30 4881 C 461.251 -1.90643 -0.437561 0
M  V30 4882 O 462.457 -2.61105 -0.74407 0
M  V30 4883 C 460.913 -3.12079 1.79261 0
M  V30 4884 C 460.521 -3.02877 3.30106 0
M  V30 4885 C 462.265 -3.89421 1.68972 0
M  V30 4886 C 460.172 -4.36575 3.98944 0
M  V30 4887 H 459.102 -0.650408 0.381425 0
M  V30 4888 H 461.753 -1.11985 1.45367 0
M  V30 4889 H 460.135 -3.74196 1.2959 0
M  V30 4890 H 461.309 -2.49983 3.87098 0
M  V30 4891 H 459.624 -2.39022 3.40965 0
M  V30 4892 H 462.221 -4.88362 2.17731 0
M  V30 4893 H 462.564 -4.1122 0.648397 0
M  V30 4894 H 463.097 -3.33963 2.16133 0
M  V30 4895 H 459.836 -4.19978 5.03288 0
M  V30 4896 H 459.356 -4.8942 3.4674 0
M  V30 4897 H 461.035 -5.05364 4.04 0
M  V30 4898 N 461.167 -1.02423 -1.1978 0
M  V30 4899 C 462.13 -0.605703 -2.21052 0
M  V30 4900 C 463.13 0.328209 -1.57415 0
M  V30 4901 O 464.32 0.115853 -1.73814 0
M  V30 4902 C 461.452 0.114366 -3.40708 0
M  V30 4903 H 462.645 -1.5017 -2.59594 0
M  V30 4904 H 460.198 -0.814888 -1.33376 0
M  V30 4905 H 460.933 1.02492 -3.07678 0
M  V30 4906 H 460.718 -0.556641 -3.88129 0
M  V30 4907 H 462.208 0.394272 -4.15735 0
M  V30 4908 N 462.645 1.35699 -0.801477 0
M  V30 4909 C 463.893 1.9852 -0.37871 0
M  V30 4910 C 464.214 1.63907 1.05638 0
M  V30 4911 O 463.484 0.919013 1.73006 0
M  V30 4912 H 462.064 0.734322 -0.137042 0
M  V30 4913 H 464.726 1.65697 -1.02619 0
M  V30 4914 H 463.822 3.08382 -0.480284 0
M  V30 4915 N 464.123 0.554532 1.47522 0
M  V30 4916 C 465.053 -0.182974 2.32782 0
M  V30 4917 C 466.034 -0.911377 1.43624 0
M  V30 4918 O 467.219 -0.892366 1.72483 0
M  V30 4919 C 464.349 -1.21513 3.25349 0
M  V30 4920 C 463.303 -0.603355 4.23726 0
M  V30 4921 C 462.629 -1.73995 5.05598 0
M  V30 4922 C 463.929 0.441121 5.20434 0
M  V30 4923 H 465.623 0.52882 2.94693 0
M  V30 4924 H 463.169 0.255759 1.41711 0
M  V30 4925 H 465.122 -1.73922 3.83835 0
M  V30 4926 H 463.846 -1.95683 2.61487 0
M  V30 4927 H 462.505 -0.10059 3.66462 0
M  V30 4928 H 462.153 -2.47063 4.38143 0
M  V30 4929 H 461.853 -1.3364 5.72201 0
M  V30 4930 H 463.377 -2.26735 5.66942 0
M  V30 4931 H 464.791 0.00319931 5.733 0
M  V30 4932 H 463.188 0.763402 5.95224 0
M  V30 4933 H 464.258 1.33799 4.66075 0
M  V30 4934 N 465.601 -1.54893 0.290851 0
M  V30 4935 C 466.847 -2.0023 -0.321867 0
M  V30 4936 C 467.18 -1.179 -1.54316 0
M  V30 4937 O 466.455 -0.25293 -1.92848 0
M  V30 4938 C 466.738 -3.53456 -0.688515 0
M  V30 4939 C 466.591 -4.46532 0.541209 0
M  V30 4940 C 467.91 -4.13057 -1.51895 0
M  V30 4941 H 465.029 -0.727891 -0.115515 0
M  V30 4942 H 467.671 -1.85722 0.400931 0
M  V30 4943 H 465.821 -3.6595 -1.30433 0
M  V30 4944 H 467.493 -4.4596 1.17973 0
M  V30 4945 H 465.736 -4.17545 1.17636 0
M  V30 4946 H 466.407 -5.51475 0.240675 0
M  V30 4947 H 468.883 -4.03937 -0.99872 0
M  V30 4948 H 467.759 -5.20448 -1.74429 0
M  V30 4949 H 468.02 -3.64284 -2.50498 0
M  V30 4950 N 467.08 -0.0183926 -1.57589 0
M  V30 4951 C 468.01 0.965596 -2.12599 0
M  V30 4952 C 468.991 1.34641 -1.0395 0
M  V30 4953 O 470.176 1.42693 -1.31729 0
M  V30 4954 C 467.306 2.25149 -2.64434 0
M  V30 4955 C 466.26 2.01175 -3.77773 0
M  V30 4956 C 465.586 3.35937 -4.15994 0
M  V30 4957 C 466.886 1.35953 -5.04296 0
M  V30 4958 H 468.58 0.507504 -2.95067 0
M  V30 4959 H 466.126 0.242671 -1.41941 0
M  V30 4960 H 468.079 2.94357 -3.01549 0
M  V30 4961 H 466.803 2.73105 -1.79112 0
M  V30 4962 H 465.462 1.34388 -3.4108 0
M  V30 4963 H 465.11 3.81631 -3.27669 0
M  V30 4964 H 464.81 3.20705 -4.92364 0
M  V30 4965 H 466.334 4.0643 -4.55683 0
M  V30 4966 H 467.748 1.95144 -5.39065 0
M  V30 4967 H 466.145 1.31152 -5.85593 0
M  V30 4968 H 467.215 0.331071 -4.83768 0
M  V30 4969 N 468.558 1.5553 0.254621 0
M  V30 4970 C 469.488 1.9268 1.31897 0
M  V30 4971 C 470.469 0.790797 1.506 0
M  V30 4972 O 471.654 1.05045 1.63337 0
M  V30 4973 C 468.784 2.21477 2.67517 0
M  V30 4974 C 467.738 3.37256 2.63519 0
M  V30 4975 C 467.064 3.51576 4.02862 0
M  V30 4976 C 468.364 4.73157 2.21179 0
M  V30 4977 H 470.058 2.81832 1.01051 0
M  V30 4978 H 467.604 1.35599 0.484662 0
M  V30 4979 H 469.557 2.46055 3.42104 0
M  V30 4980 H 468.281 1.29144 2.99982 0
M  V30 4981 H 466.94 3.12675 1.9139 0
M  V30 4982 H 466.588 2.56676 4.32581 0
M  V30 4983 H 466.288 4.2943 4.01078 0
M  V30 4984 H 467.812 3.78467 4.79161 0
M  V30 4985 H 469.226 4.97158 2.85494 0
M  V30 4986 H 467.623 5.54058 2.30521 0
M  V30 4987 H 468.693 4.70739 1.16332 0
M  V30 4988 N 470.036 -0.519951 1.48776 0
M  V30 4989 C 471.284 -1.2727 1.56993 0
M  V30 4990 C 471.605 -1.9339 0.25004 0
M  V30 4991 O 470.875 -1.81822 -0.729216 0
M  V30 4992 H 469.455 -0.472732 0.578389 0
M  V30 4993 H 472.117 -0.604234 1.85297 0
M  V30 4994 H 471.213 -2.04669 2.3562 0
M  V30 4995 N 471.514 -1.37532 -0.769588 0
M  V30 4996 C 472.477 -1.33292 -1.86456 0
M  V30 4997 C 473.477 -0.236537 -1.59051 0
M  V30 4998 O 474.667 -0.492511 -1.67093 0
M  V30 4999 C 471.799 -1.07118 -3.23633 0
M  V30 5000 H 472.992 -2.30692 -1.91628 0
M  V30 5001 H 470.545 -1.22593 -0.969572 0
M  V30 5002 H 471.28 -0.102578 -3.24138 0
M  V30 5003 H 471.065 -1.86479 -3.44917 0
M  V30 5004 H 472.555 -1.06806 -4.03711 0
M  V30 5005 N 472.992 0.995999 -1.22138 0
M  V30 5006 C 474.238 1.73767 -1.04561 0
M  V30 5007 C 474.571 1.89633 0.418698 0
M  V30 5008 O 473.846 1.43723 1.3105 0
M  V30 5009 C 474.129 3.14505 -1.75382 0
M  V30 5010 C 473.982 3.06306 -3.29388 0
M  V30 5011 C 475.301 4.13615 -1.50369 0
M  V30 5012 H 472.42 0.630728 -0.38125 0
M  V30 5013 H 475.062 1.16057 -1.50435 0
M  V30 5014 H 473.212 3.63775 -1.36383 0
M  V30 5015 H 474.884 2.64681 -3.77812 0
M  V30 5016 H 473.127 2.43186 -3.59226 0
M  V30 5017 H 473.798 4.05884 -3.74116 0
M  V30 5018 H 476.274 3.73089 -1.84239 0
M  V30 5019 H 475.15 5.10212 -2.02421 0
M  V30 5020 H 475.411 4.39949 -0.435611 0
M  V30 5021 N 474.47 1.03057 1.19235 0
M  V30 5022 C 475.719 0.72326 1.88287 0
M  V30 5023 C 476.032 -0.751333 1.80594 0
M  V30 5024 O 477.238 -1.17176 2.44912 0
M  V30 5025 C 475.694 1.24338 3.3774 0
M  V30 5026 C 475.302 2.74587 3.53986 0
M  V30 5027 C 477.046 1.01213 4.12257 0
M  V30 5028 C 474.953 3.20009 4.97341 0
M  V30 5029 H 473.883 0.266848 0.705201 0
M  V30 5030 H 476.534 1.24509 1.34795 0
M  V30 5031 H 474.916 0.649457 3.90638 0
M  V30 5032 H 476.09 3.39649 3.11408 0
M  V30 5033 H 474.405 2.9601 2.9286 0
M  V30 5034 H 477.002 1.32675 5.17978 0
M  V30 5035 H 477.345 -0.051001 4.16269 0
M  V30 5036 H 477.878 1.57014 3.65501 0
M  V30 5037 H 474.617 4.25659 4.98493 0
M  V30 5038 H 474.137 2.59676 5.40674 0
M  V30 5039 H 475.816 3.13447 5.66003 0
M  V30 5040 N 475.948 -1.35272 0.808662 0
M  V30 5041 C 477.176 -2.02946 0.402537 0
M  V30 5042 C 477.591 -1.60937 -0.987147 0
M  V30 5043 O 476.948 -0.807917 -1.63643 0
M  V30 5044 C 476.999 -3.58317 0.47868 0
M  V30 5045 O 476.72 -3.98799 1.81358 0
M  V30 5046 C 478.221 -4.43251 0.0656281 0
M  V30 5047 H 475.441 -0.650831 0.163279 0
M  V30 5048 H 477.985 -1.72849 1.09286 0
M  V30 5049 H 476.14 -3.87055 -0.163415 0
M  V30 5050 H 476.554 -4.93451 1.77781 0
M  V30 5051 H 478.028 -5.51738 0.170017 0
M  V30 5052 H 478.505 -4.27913 -0.989278 0
M  V30 5053 H 479.111 -4.19813 0.68096 0
M  V30 5054 N 477.426 -0.562348 -1.47226 0
M  V30 5055 C 478.674 -0.0401371 -2.0206 0
M  V30 5056 C 478.995 1.3165 -1.43852 0
M  V30 5057 O 478.265 1.85976 -0.615599 0
M  V30 5058 H 476.845 -0.0118479 -0.746906 0
M  V30 5059 H 479.507 -0.73352 -1.8057 0
M  V30 5060 H 478.603 0.0441254 -3.12069 0
M  V30 5061 N 478.904 1.54736 -0.299062 0
M  V30 5062 C 479.867 2.22127 0.565012 0
M  V30 5063 C 480.867 1.20669 1.06281 0
M  V30 5064 O 482.057 1.45417 0.959145 0
M  V30 5065 C 479.189 2.90611 1.78208 0
M  V30 5066 H 480.382 2.99891 -0.0237448 0
M  V30 5067 H 477.935 1.5622 -0.0498788 0
M  V30 5068 H 478.67 2.16921 2.41072 0
M  V30 5069 H 478.455 3.64984 1.43281 0
M  V30 5070 H 479.945 3.42026 2.396 0
M  V30 5071 N 480.382 0.0267497 1.57577 0
M  V30 5072 C 481.628 -0.653371 1.91987 0
M  V30 5073 C 481.961 -1.71915 0.903263 0
M  V30 5074 O 481.236 -1.94358 -0.0743387 0
M  V30 5075 C 481.519 -1.272 3.36886 0
M  V30 5076 C 481.372 -0.215938 4.49281 0
M  V30 5077 C 482.691 -2.19069 3.81703 0
M  V30 5078 H 479.81 -0.236047 0.698177 0
M  V30 5079 H 482.452 0.0835236 1.89816 0
M  V30 5080 H 480.602 -1.90005 3.38866 0
M  V30 5081 H 482.274 0.41449 4.59434 0
M  V30 5082 H 480.517 0.458855 4.31366 0
M  V30 5083 H 481.188 -0.688347 5.47691 0
M  V30 5084 H 483.664 -1.66253 3.81444 0
M  V30 5085 H 482.54 -2.59307 4.83788 0
M  V30 5086 H 482.801 -3.08087 3.17072 0
M  V30 5087 N 481.861 -1.55662 -0.24637 0
M  V30 5088 C 483.107 -1.77782 -0.975779 0
M  V30 5089 C 483.44 -0.592103 -1.84953 0
M  V30 5090 O 482.715 0.409588 -1.90138 0
M  V30 5091 C 482.998 -3.09788 -1.83584 0
M  V30 5092 C 482.851 -4.38764 -0.990241 0
M  V30 5093 C 484.17 -3.38029 -2.81823 0
M  V30 5094 H 481.289 -0.646789 -0.353317 0
M  V30 5095 H 483.931 -1.88398 -0.246248 0
M  V30 5096 H 482.081 -3.00869 -2.45784 0
M  V30 5097 H 483.753 -4.59675 -0.386897 0
M  V30 5098 H 481.996 -4.32798 -0.294626 0
M  V30 5099 H 482.667 -5.27514 -1.62584 0
M  V30 5100 H 485.143 -3.46915 -2.2976 0
M  V30 5101 H 484.019 -4.3161 -3.39122 0
M  V30 5102 H 484.28 -2.58968 -3.58313 0
M  V30 5103 N 483.339 0.512053 -1.4905 0
M  V30 5104 C 484.302 1.59704 -1.64399 0
M  V30 5105 C 485.302 1.52285 -0.516317 0
M  V30 5106 O 486.492 1.55635 -0.782527 0
M  V30 5107 C 483.624 2.9935 -1.63102 0
M  V30 5108 H 484.817 1.47428 -2.61161 0
M  V30 5109 H 482.37 0.735469 -1.37915 0
M  V30 5110 H 483.105 3.17116 -0.678836 0
M  V30 5111 H 482.89 3.06144 -2.44986 0
M  V30 5112 H 484.38 3.782 -1.77072 0
M  V30 5113 N 484.817 1.37938 0.762283 0
M  V30 5114 C 485.78 1.34279 1.85747 0
M  V30 5115 C 486.78 0.244969 1.58923 0
M  V30 5116 O 487.97 0.501365 1.66829 0
M  V30 5117 C 485.102 1.08833 3.23061 0
M  V30 5118 H 486.295 2.31705 1.90401 0
M  V30 5119 H 483.848 1.23105 0.963057 0
M  V30 5120 H 484.583 0.119767 3.24079 0
M  V30 5121 H 484.368 1.88306 3.43923 0
M  V30 5122 H 485.858 1.08946 4.03138 0
M  V30 5123 N 486.295 -0.989507 1.22664 0
M  V30 5124 C 487.541 -1.7321 1.05481 0
M  V30 5125 C 487.874 -1.89852 -0.408635 0
M  V30 5126 O 487.149 -1.44416 -1.30285 0
M  V30 5127 C 487.432 -3.1357 1.77047 0
M  V30 5128 C 487.285 -3.04555 3.31008 0
M  V30 5129 C 488.604 -4.12812 1.5256 0
M  V30 5130 H 485.723 -0.628697 0.384589 0
M  V30 5131 H 488.365 -1.15258 1.51049 0
M  V30 5132 H 486.515 -3.63046 1.3831 0
M  V30 5133 H 488.187 -2.62674 3.7921 0
M  V30 5134 H 486.43 -2.41278 3.6051 0
M  V30 5135 H 487.101 -4.03894 3.76263 0
M  V30 5136 H 489.577 -3.72106 1.86215 0
M  V30 5137 H 488.453 -5.09132 2.05124 0
M  V30 5138 H 488.714 -4.39711 0.458936 0
M  V30 5139 N 487.773 -1.03688 -1.18687 0
M  V30 5140 C 488.706 -0.569112 -2.2099 0
M  V30 5141 C 489.684 0.394315 -1.57746 0
M  V30 5142 O 490.868 0.309519 -1.85941 0
M  V30 5143 C 487.995 0.169104 -3.38278 0
M  V30 5144 C 487.041 -0.746989 -4.19908 0
M  V30 5145 S 487.874 -2.22773 -4.86963 0
M  V30 5146 C 489.03 -1.50025 -6.07654 0
M  V30 5147 H 489.263 -1.43589 -2.60326 0
M  V30 5148 H 486.796 -0.847507 -1.29061 0
M  V30 5149 H 488.754 0.588868 -4.06254 0
M  V30 5150 H 487.415 1.01172 -2.9736 0
M  V30 5151 H 486.608 -0.176626 -5.0369 0
M  V30 5152 H 486.21 -1.10543 -3.5729 0
M  V30 5153 H 488.502 -0.791217 -6.72864 0
M  V30 5154 H 489.445 -2.31498 -6.69189 0
M  V30 5155 H 489.853 -0.994245 -5.55675 0
M  V30 5156 N 489.251 1.34841 -0.815825 0
M  V30 5157 C 490.497 1.99219 -0.410288 0
M  V30 5158 C 490.852 1.63532 1.01366 0
M  V30 5159 O 490.145 0.893093 1.69512 0
M  V30 5160 C 490.339 3.53273 -0.541541 0
M  V30 5161 C 490.168 4.03927 -1.9767 0
M  V30 5162 C 488.938 4.32852 -2.60706 0
M  V30 5163 C 491.136 4.21808 -2.9425 0
M  V30 5164 N 489.118 4.69494 -3.95536 0
M  V30 5165 C 490.489 4.6155 -4.13971 0
M  V30 5166 C 492.544 4.04038 -2.9096 0
M  V30 5167 C 491.247 4.85381 -5.30847 0
M  V30 5168 C 493.273 4.29031 -4.07046 0
M  V30 5169 C 492.635 4.69054 -5.25517 0
M  V30 5170 H 488.734 0.756494 -0.198094 0
M  V30 5171 H 491.318 1.63379 -1.05902 0
M  V30 5172 H 489.489 3.88323 0.0772544 0
M  V30 5173 H 491.221 4.04551 -0.109694 0
M  V30 5174 H 487.976 4.23503 -2.11995 0
M  V30 5175 H 488.4 4.92061 -4.64979 0
M  V30 5176 H 493.042 3.7223 -2.00512 0
M  V30 5177 H 490.76 5.16059 -6.21859 0
M  V30 5178 H 494.346 4.16826 -4.05891 0
M  V30 5179 H 493.226 4.88014 -6.1385 0
M  V30 5180 N 490.729 0.570148 1.46925 0
M  V30 5181 C 492.145 0.23087 1.57921 0
M  V30 5182 C 492.345 -1.26676 1.56702 0
M  V30 5183 O 491.401 -2.04774 1.47729 0
M  V30 5184 C 492.714 0.868973 2.8787 0
M  V30 5185 C 494.262 0.841397 3.01479 0
M  V30 5186 C 494.737 1.45881 4.34146 0
M  V30 5187 N 496.228 1.42258 4.40814 0
M  V30 5188 C 496.963 1.8698 5.42057 0
M  V30 5189 N 496.459 2.39618 6.50042 0
M  V30 5190 N 498.252 1.77972 5.33181 0
M  V30 5191 H 490.403 1.54301 1.45962 0
M  V30 5192 H 492.666 0.644224 0.69547 0
M  V30 5193 H 492.372 1.922 2.94537 0
M  V30 5194 H 492.246 0.369682 3.75384 0
M  V30 5195 H 494.633 -0.202973 2.94401 0
M  V30 5196 H 494.714 1.37858 2.15474 0
M  V30 5197 H 494.358 2.50231 4.4198 0
M  V30 5198 H 494.288 0.896958 5.18905 0
M  V30 5199 H 496.779 1.03768 3.63374 0
M  V30 5200 H 497.092 2.71633 7.23488 0
M  V30 5201 H 495.437 2.43636 6.50897 0
M  V30 5202 H 498.628 1.36617 4.4772 0
M  V30 5203 H 498.801 2.13143 6.11943 0
M  V30 5204 N 492.207 -1.54576 0.307264 0
M  V30 5205 C 493.623 -1.59534 -0.0459251 0
M  V30 5206 C 493.823 -1.32414 -1.51884 0
M  V30 5207 O 492.879 -1.1006 -2.27251 0
M  V30 5208 C 494.192 -2.98566 0.357649 0
M  V30 5209 C 495.74 -3.11491 0.306937 0
M  V30 5210 C 496.215 -4.52842 0.685427 0
M  V30 5211 N 497.706 -4.58782 0.638203 0
M  V30 5212 C 498.441 -5.66238 0.903458 0
M  V30 5213 N 497.937 -6.81703 1.23501 0
M  V30 5214 N 499.73 -5.55937 0.830102 0
M  V30 5215 H 491.881 -1.70464 1.26712 0
M  V30 5216 H 494.144 -0.79647 0.514139 0
M  V30 5217 H 493.85 -3.23356 1.38325 0
M  V30 5218 H 493.724 -3.76117 -0.285565 0
M  V30 5219 H 496.111 -2.86446 -0.709424 0
M  V30 5220 H 496.192 -2.36081 0.984861 0
M  V30 5221 H 495.836 -4.78618 1.69963 0
M  V30 5222 H 495.766 -5.26598 -0.0146346 0
M  V30 5223 H 498.257 -3.75849 0.393138 0
M  V30 5224 H 498.57 -7.59582 1.42322 0
M  V30 5225 H 496.915 -6.8324 1.27311 0
M  V30 5226 H 500.106 -4.64608 0.570693 0
M  V30 5227 H 500.279 -6.39597 1.04019 0
M  V30 5228 N 493.685 -0.035106 -1.57561 0
M  V30 5229 C 494.632 0.94474 -2.10578 0
M  V30 5230 C 495.602 1.3192 -1.00927 0
M  V30 5231 O 496.787 1.41147 -1.28382 0
M  V30 5232 C 493.927 2.21982 -2.64231 0
M  V30 5233 C 493.04 1.90128 -3.87911 0
M  V30 5234 C 492.175 3.11975 -4.29936 0
M  V30 5235 C 491.214 2.75968 -5.46359 0
M  V30 5236 N 490.351 3.90459 -5.83512 0
M  V30 5237 H 495.191 0.485717 -2.94015 0
M  V30 5238 H 492.728 0.228143 -1.4532 0
M  V30 5239 H 494.686 2.96572 -2.9343 0
M  V30 5240 H 493.316 2.6549 -1.83616 0
M  V30 5241 H 492.368 1.05755 -3.65404 0
M  V30 5242 H 493.68 1.59613 -4.72573 0
M  V30 5243 H 492.834 3.9488 -4.60603 0
M  V30 5244 H 491.573 3.45657 -3.44053 0
M  V30 5245 H 490.578 1.91478 -5.1538 0
M  V30 5246 H 491.803 2.43497 -6.33945 0
M  V30 5247 H 489.749 4.23971 -5.00584 0
M  V30 5248 H 489.666 3.63588 -6.62827 0
M  V30 5249 H 490.934 4.7405 -6.18787 0
M  V30 5250 N 495.163 1.55791 0.238111 0
M  V30 5251 C 496.388 1.8244 0.986432 0
M  V30 5252 C 496.813 0.613314 1.7782 0
M  V30 5253 O 496.171 -0.437767 1.75935 0
M  V30 5254 C 496.219 3.06917 1.893 0
M  V30 5255 O 495.323 2.84449 2.98601 0
M  V30 5256 H 494.664 0.601975 0.280218 0
M  V30 5257 H 497.194 2.02987 0.256437 0
M  V30 5258 H 497.204 3.36583 2.30598 0
M  V30 5259 H 495.879 3.947 1.31091 0
M  V30 5260 H 494.456 2.65972 2.61368 0
M  V30 5261 N 496.642 -0.504142 1.49319 0
M  V30 5262 C 497.867 -1.28729 1.62615 0
M  V30 5263 C 498.292 -1.85752 0.296309 0
M  V30 5264 O 497.65 -1.65704 -0.735649 0
M  V30 5265 C 497.698 -2.39561 2.69524 0
M  V30 5266 O 496.802 -3.43324 2.28478 0
M  V30 5267 H 496.143 -0.380172 0.544395 0
M  V30 5268 H 498.673 -0.603872 1.95485 0
M  V30 5269 H 498.683 -2.8537 2.91595 0
M  V30 5270 H 497.358 -1.97423 3.66056 0
M  V30 5271 H 495.935 -3.03455 2.16725 0
M  V30 5272 N 498.12 -1.38341 -0.754957 0
M  V30 5273 C 499.397 -1.24995 -1.50451 0
M  V30 5274 C 499.777 0.149244 -2.10572 0
M  V30 5275 O 499.125 1.15861 -1.96948 0
M  V30 5276 C 499.335 -2.35904 -2.57197 0
M  V30 5277 C 500.683 -2.74262 -3.24138 0
M  V30 5278 O 501.707 -2.35205 -2.67501 0
M  V30 5279 O 500.566 -3.4161 -4.26574 0
M  V30 5280 H 497.66 -0.48872 -0.667144 0
M  V30 5281 H 500.206 -1.50165 -0.790486 0
M  V30 5282 H 498.978 -3.2953 -2.11011 0
M  V30 5283 H 498.601 -2.12291 -3.36182 0
M  V30 5284 N 499.598 0.982988 -1.23187 0
M  V30 5285 C 501.014 1.2487 -0.993967 0
M  V30 5286 C 501.214 1.99155 0.306498 0
M  V30 5287 O 500.27 2.30688 1.0266 0
M  V30 5288 C 501.583 2.05078 -2.19917 0
M  V30 5289 C 503.131 2.18227 -2.2438 0
M  V30 5290 C 503.606 3.01825 -3.44479 0
M  V30 5291 N 505.097 3.09411 -3.44702 0
M  V30 5292 C 505.832 3.74412 -4.34285 0
M  V30 5293 N 505.328 4.41259 -5.341 0
M  V30 5294 N 507.121 3.71273 -4.22035 0
M  V30 5295 H 499.272 0.485253 -2.06783 0
M  V30 5296 H 501.535 0.276979 -0.906635 0
M  V30 5297 H 501.241 1.57867 -3.14279 0
M  V30 5298 H 501.115 3.05829 -2.2079 0
M  V30 5299 H 503.502 2.64648 -1.30559 0
M  V30 5300 H 503.583 1.16873 -2.2754 0
M  V30 5301 H 503.227 2.56102 -4.38605 0
M  V30 5302 H 503.157 4.03342 -3.38559 0
M  V30 5303 H 505.648 2.61845 -2.7248 0
M  V30 5304 H 505.961 4.88629 -5.98717 0
M  V30 5305 H 504.306 4.39975 -5.38002 0
M  V30 5306 H 507.497 3.18217 -3.43301 0
M  V30 5307 H 507.67 4.21649 -4.92053 0
M  V30 5308 N 501.076 1.04316 1.18135 0
M  V30 5309 C 502.023 0.636398 2.21853 0
M  V30 5310 C 502.993 -0.357039 1.62217 0
M  V30 5311 O 504.178 -0.250453 1.89149 0
M  V30 5312 C 501.318 0.00812779 3.45099 0
M  V30 5313 C 500.431 1.04933 4.19062 0
M  V30 5314 C 499.566 0.389313 5.29771 0
M  V30 5315 C 498.605 1.41544 5.9551 0
M  V30 5316 N 497.742 0.78021 6.97751 0
M  V30 5317 H 502.582 1.52536 2.56002 0
M  V30 5318 H 500.119 0.76304 1.25762 0
M  V30 5319 H 502.077 -0.373497 4.15525 0
M  V30 5320 H 500.707 -0.844336 3.11562 0
M  V30 5321 H 499.759 1.54888 3.47439 0
M  V30 5322 H 501.071 1.82862 4.64072 0
M  V30 5323 H 500.225 -0.0463805 6.06682 0
M  V30 5324 H 498.964 -0.422038 4.8587 0
M  V30 5325 H 497.969 1.86124 5.17337 0
M  V30 5326 H 499.194 2.22854 6.41493 0
M  V30 5327 H 497.14 -0.0107899 6.55999 0
M  V30 5328 H 497.057 1.49716 7.41027 0
M  V30 5329 H 498.325 0.368996 7.78626 0
M  V30 5330 N 502.554 -1.34406 0.822964 0
M  V30 5331 C 503.802 -1.97892 0.410245 0
M  V30 5332 C 504.123 -1.65567 -1.03017 0
M  V30 5333 O 503.393 -0.94642 -1.71522 0
M  V30 5334 H 501.973 -0.732049 0.148707 0
M  V30 5335 H 504.635 -1.64043 1.05242 0
M  V30 5336 H 503.731 -3.07579 0.529284 0
M  V30 5337 N 504.032 -0.577932 -1.46621 0
M  V30 5338 C 505.28 -0.061566 -2.02006 0
M  V30 5339 C 505.601 1.30117 -1.4524 0
M  V30 5340 O 504.871 1.85313 -0.63529 0
M  V30 5341 H 503.451 -0.0197692 -0.746738 0
M  V30 5342 H 506.113 -0.752631 -1.79782 0
M  V30 5343 H 505.209 0.0110238 -3.12098 0
M  V30 5344 N 505.51 1.54411 -0.315457 0
M  V30 5345 C 506.735 2.05299 0.294496 0
M  V30 5346 C 507.16 1.19052 1.4563 0
M  V30 5347 O 506.518 0.197804 1.80218 0
M  V30 5348 C 506.566 3.5345 0.714549 0
M  V30 5349 O 505.67 3.70175 1.81781 0
M  V30 5350 H 505.011 0.661743 0.0547019 0
M  V30 5351 H 507.541 1.99327 -0.461508 0
M  V30 5352 H 507.551 3.9557 0.999426 0
M  V30 5353 H 506.226 4.1568 -0.135244 0
M  V30 5354 H 504.803 3.3996 1.53236 0
M  V30 5355 N 506.988 0.0434614 1.5754 0
M  V30 5356 C 508.218 -0.640905 1.96408 0
M  V30 5357 C 508.626 -1.65365 0.919297 0
M  V30 5358 O 507.969 -1.83395 -0.105795 0
M  V30 5359 C 508.031 -1.39141 3.31482 0
M  V30 5360 C 507.695 -0.535375 4.53853 0
M  V30 5361 C 508.692 0.195335 5.19533 0
M  V30 5362 C 506.377 -0.468564 5.0011 0
M  V30 5363 C 508.371 0.981377 6.298 0
M  V30 5364 C 506.058 0.321171 6.10255 0
M  V30 5365 C 507.056 1.04484 6.74961 0
M  V30 5366 O 506.744 1.8216 7.8299 0
M  V30 5367 H 506.476 -0.180584 0.651433 0
M  V30 5368 H 509.03 0.103848 2.05137 0
M  V30 5369 H 507.26 -2.18162 3.19284 0
M  V30 5370 H 508.949 -1.96526 3.55151 0
M  V30 5371 H 509.715 0.15314 4.84758 0
M  V30 5372 H 505.594 -1.02142 4.49542 0
M  V30 5373 H 509.138 1.54674 6.80237 0
M  V30 5374 H 505.035 0.365032 6.44467 0
M  V30 5375 H 505.803 1.74289 7.99728 0
M  V30 5376 N 508.466 -1.55915 -0.229846 0
M  V30 5377 C 509.694 -1.82617 -0.972562 0
M  V30 5378 C 510.109 -0.621488 -1.78278 0
M  V30 5379 O 509.466 0.409956 -1.77836 0
M  V30 5380 C 509.517 -3.0774 -1.89679 0
M  V30 5381 O 509.238 -4.23559 -1.11934 0
M  V30 5382 C 510.739 -3.47368 -2.75409 0
M  V30 5383 H 507.959 -0.60727 -0.285419 0
M  V30 5384 H 510.503 -2.02996 -0.247579 0
M  V30 5385 H 508.658 -2.89361 -2.57583 0
M  V30 5386 H 509.072 -4.94586 -1.74599 0
M  V30 5387 H 510.546 -4.37977 -3.35977 0
M  V30 5388 H 511.023 -2.68737 -3.47386 0
M  V30 5389 H 511.629 -3.68158 -2.12931 0
M  V30 5390 N 509.944 0.496216 -1.49584 0
M  V30 5391 C 510.876 1.61404 -1.62731 0
M  V30 5392 C 511.889 1.54613 -0.50978 0
M  V30 5393 O 513.078 1.60458 -0.782017 0
M  V30 5394 C 510.178 3.00212 -1.57245 0
M  V30 5395 C 509.351 3.32138 -2.84611 0
M  V30 5396 C 508.41 4.5038 -2.72112 0
M  V30 5397 O 507.436 4.51926 -3.46051 0
M  V30 5398 N 508.638 5.50575 -1.83977 0
M  V30 5399 H 511.403 1.50552 -2.59141 0
M  V30 5400 H 508.964 0.684182 -1.46733 0
M  V30 5401 H 510.956 3.77241 -1.4653 0
M  V30 5402 H 509.526 3.04964 -0.686729 0
M  V30 5403 H 508.746 2.4396 -3.09641 0
M  V30 5404 H 510.034 3.50268 -3.69039 0
M  V30 5405 H 509.432 5.52128 -1.23171 0
M  V30 5406 H 507.989 6.26687 -1.79182 0
M  V30 5407 N 511.423 1.38739 0.74761 0
M  V30 5408 C 512.386 1.36241 1.84312 0
M  V30 5409 C 513.386 0.261811 1.58654 0
M  V30 5410 O 514.576 0.519031 1.66288 0
M  V30 5411 C 511.708 1.12253 3.21888 0
M  V30 5412 H 512.901 2.33712 1.87933 0
M  V30 5413 H 510.454 1.2412 0.949946 0
M  V30 5414 H 511.189 0.154133 3.23934 0
M  V30 5415 H 510.974 1.91943 3.41907 0
M  V30 5416 H 512.464 1.13215 4.0196 0
M  V30 5417 N 512.901 -0.976442 1.23707 0
M  V30 5418 C 513.864 -2.0511 1.02287 0
M  V30 5419 C 514.864 -1.60791 -0.0167195 0
M  V30 5420 O 516.054 -1.72761 0.223408 0
M  V30 5421 C 513.186 -3.36458 0.548507 0
M  V30 5422 H 514.379 -2.25545 1.9766 0
M  V30 5423 H 511.932 -1.15042 1.05806 0
M  V30 5424 H 512.667 -3.21713 -0.408818 0
M  V30 5425 H 512.452 -3.69967 1.29874 0
M  V30 5426 H 513.942 -4.15489 0.419406 0
M  V30 5427 N 514.379 -1.04941 -1.1758 0
M  V30 5428 C 515.604 -0.778253 -1.92245 0
M  V30 5429 C 516.029 0.659707 -1.76152 0
M  V30 5430 O 515.387 1.45803 -1.07755 0
M  V30 5431 C 515.435 -1.16051 -3.41416 0
M  V30 5432 O 514.539 -0.291153 -4.11371 0
M  V30 5433 H 513.88 -0.285619 -0.599431 0
M  V30 5434 H 516.41 -1.40159 -1.49052 0
M  V30 5435 H 516.42 -1.12619 -3.92149 0
M  V30 5436 H 515.095 -2.208 -3.52449 0
M  V30 5437 H 513.672 -0.385851 -3.70898 0
M  V30 5438 N 515.857 1.33968 -0.830081 0
M  V30 5439 C 517.082 2.02813 -0.433796 0
M  V30 5440 C 517.507 1.62076 0.954614 0
M  V30 5441 O 516.865 0.808955 1.62252 0
M  V30 5442 C 516.913 3.56348 -0.552115 0
M  V30 5443 O 516.017 4.10202 0.425191 0
M  V30 5444 H 515.358 0.639817 -0.177567 0
M  V30 5445 H 517.888 1.7106 -1.12248 0
M  V30 5446 H 517.898 4.05722 -0.430513 0
M  V30 5447 H 516.573 3.85344 -1.56471 0
M  V30 5448 H 515.15 3.71979 0.261878 0
M  V30 5449 N 517.335 0.585699 1.46312 0
M  V30 5450 C 518.612 0.00542031 1.95599 0
M  V30 5451 C 518.992 -1.45619 1.52834 0
M  V30 5452 O 518.34 -2.14759 0.780446 0
M  V30 5453 C 518.55 0.180601 3.48532 0
M  V30 5454 C 519.898 0.049979 4.24571 0
M  V30 5455 O 520.922 0.109589 3.56031 0
M  V30 5456 O 519.781 -0.0832226 5.46437 0
M  V30 5457 H 516.875 -0.0481281 0.825598 0
M  V30 5458 H 519.421 0.654227 1.56582 0
M  V30 5459 H 518.193 1.19657 3.72556 0
M  V30 5460 H 517.816 -0.504498 3.94386 0
M  V30 5461 N 518.813 -1.54241 0.323641 0
M  V30 5462 C 520.038 -2.05452 -0.283605 0
M  V30 5463 C 520.463 -1.19823 -1.44997 0
M  V30 5464 O 519.821 -0.207358 -1.8011 0
M  V30 5465 C 519.869 -3.53823 -0.695795 0
M  V30 5466 O 518.973 -3.71134 -1.79815 0
M  V30 5467 H 518.314 -0.662024 -0.0511917 0
M  V30 5468 H 520.844 -1.99079 0.472073 0
M  V30 5469 H 520.854 -3.96094 -0.978434 0
M  V30 5470 H 519.529 -4.15602 0.157287 0
M  V30 5471 H 518.106 -3.40768 -1.51431 0
M  V30 5472 N 520.291 -0.0518155 -1.57515 0
M  V30 5473 C 521.254 0.907547 -2.10467 0
M  V30 5474 C 522.254 1.23947 -1.02439 0
M  V30 5475 O 523.444 1.17604 -1.2851 0
M  V30 5476 C 520.576 2.21723 -2.58944 0
M  V30 5477 H 521.769 0.44851 -2.96527 0
M  V30 5478 H 519.322 0.196598 -1.55059 0
M  V30 5479 H 520.057 2.72206 -1.76279 0
M  V30 5480 H 519.842 1.98935 -3.37886 0
M  V30 5481 H 521.332 2.90441 -3.00056 0
M  V30 5482 N 521.769 1.56035 0.221574 0
M  V30 5483 C 522.701 1.889 1.29805 0
M  V30 5484 C 523.714 0.777269 1.43047 0
M  V30 5485 O 524.903 1.05557 1.43945 0
M  V30 5486 C 522.003 2.0825 2.67367 0
M  V30 5487 C 521.176 3.39267 2.76073 0
M  V30 5488 C 520.235 3.48049 3.94649 0
M  V30 5489 O 519.261 4.2108 3.82988 0
M  V30 5490 N 520.463 2.79191 5.08953 0
M  V30 5491 H 523.228 2.81831 1.01938 0
M  V30 5492 H 520.789 1.5658 0.411612 0
M  V30 5493 H 522.781 2.11441 3.45072 0
M  V30 5494 H 521.351 1.21944 2.87834 0
M  V30 5495 H 520.571 3.48175 1.84846 0
M  V30 5496 H 521.859 4.25575 2.7886 0
M  V30 5497 H 521.257 2.19635 5.21322 0
M  V30 5498 H 519.814 2.88043 5.84701 0
M  V30 5499 N 523.247 -0.488276 1.49845 0
M  V30 5500 C 524.495 -1.23911 1.59657 0
M  V30 5501 C 524.816 -1.92816 0.291005 0
M  V30 5502 O 524.086 -1.83328 -0.690485 0
M  V30 5503 H 522.666 -0.460357 0.588286 0
M  V30 5504 H 525.328 -0.564794 1.86537 0
M  V30 5505 H 524.424 -1.99625 2.39909 0
M  V30 5506 N 524.725 -1.39134 -0.740242 0
M  V30 5507 C 525.95 -1.39518 -1.53459 0
M  V30 5508 C 526.375 0.00968883 -1.88098 0
M  V30 5509 O 525.733 0.995312 -1.51536 0
M  V30 5510 C 525.781 -2.26981 -2.802 0
M  V30 5511 O 524.885 -1.69609 -3.75908 0
M  V30 5512 H 524.226 -0.475328 -0.463637 0
M  V30 5513 H 526.756 -1.83064 -0.913717 0
M  V30 5514 H 526.766 -2.41309 -3.28989 0
M  V30 5515 H 525.441 -3.29081 -2.5432 0
M  V30 5516 H 524.018 -1.64495 -3.34658 0
M  V30 5517 N 526.204 0.969867 -1.24223 0
M  V30 5518 C 527.481 1.68774 -0.988664 0
M  V30 5519 C 527.861 2.05342 0.489673 0
M  V30 5520 O 527.209 1.75486 1.46345 0
M  V30 5521 C 527.419 2.92135 -1.90941 0
M  V30 5522 C 528.767 3.64422 -2.17903 0
M  V30 5523 O 529.791 3.02188 -1.88576 0
M  V30 5524 O 528.65 4.76446 -2.67697 0
M  V30 5525 H 525.744 0.737736 -0.37373 0
M  V30 5526 H 528.29 1.02415 -1.35312 0
M  V30 5527 H 527.062 2.61788 -2.90831 0
M  V30 5528 H 526.685 3.66228 -1.54798 0
M  V30 5529 N 527.682 1.05563 1.17022 0
M  V30 5530 C 528.928 0.769074 1.87652 0
M  V30 5531 C 529.261 -0.702326 1.81055 0
M  V30 5532 O 528.536 -1.5139 1.22112 0
M  V30 5533 C 528.819 1.25492 3.37526 0
M  V30 5534 C 528.672 2.78953 3.52853 0
M  V30 5535 C 529.991 0.856919 4.31677 0
M  V30 5536 H 527.11 0.280854 0.681388 0
M  V30 5537 H 529.752 1.31027 1.37593 0
M  V30 5538 H 527.902 0.794516 3.80289 0
M  V30 5539 H 529.574 3.33146 3.19079 0
M  V30 5540 H 527.817 3.18046 2.95007 0
M  V30 5541 H 528.488 3.08011 4.58076 0
M  V30 5542 H 530.964 1.25334 3.96775 0
M  V30 5543 H 529.84 1.22443 5.35069 0
M  V30 5544 H 530.101 -0.238787 4.41455 0
M  V30 5545 N 529.16 -1.33526 0.837174 0
M  V30 5546 C 530.385 -2.0258 0.444545 0
M  V30 5547 C 530.81 -1.6258 -0.946006 0
M  V30 5548 O 530.168 -0.817548 -1.6182 0
M  V30 5549 C 530.216 -3.5605 0.571006 0
M  V30 5550 O 529.32 -4.10422 -0.403431 0
M  V30 5551 H 528.661 -0.638866 0.180958 0
M  V30 5552 H 531.191 -1.70462 1.13154 0
M  V30 5553 H 531.201 -4.05488 0.452024 0
M  V30 5554 H 529.876 -3.84509 1.58512 0
M  V30 5555 H 528.453 -3.72113 -0.242147 0
M  V30 5556 N 530.638 -0.59345 -1.46 0
M  V30 5557 C 531.568 0.121192 -2.33185 0
M  V30 5558 C 532.549 0.872977 -1.4599 0
M  V30 5559 O 533.734 0.846321 -1.74789 0
M  V30 5560 C 530.864 1.12844 -3.28456 0
M  V30 5561 C 529.818 0.4908 -4.25177 0
M  V30 5562 C 529.144 1.60529 -5.10034 0
M  V30 5563 C 530.444 -0.578949 -5.19081 0
M  V30 5564 H 532.138 -0.606767 -2.93187 0
M  V30 5565 H 529.684 -0.293242 -1.40983 0
M  V30 5566 H 531.637 1.63684 -3.88311 0
M  V30 5567 H 530.361 1.88681 -2.66584 0
M  V30 5568 H 529.02 0.00339328 -3.666 0
M  V30 5569 H 528.668 2.35359 -4.44539 0
M  V30 5570 H 528.368 1.18422 -5.75543 0
M  V30 5571 H 529.892 2.11623 -5.72755 0
M  V30 5572 H 531.306 -0.155199 -5.7309 0
M  V30 5573 H 529.703 -0.920947 -5.92991 0
M  V30 5574 H 530.773 -1.46109 -4.62364 0
M  V30 5575 N 532.116 1.54067 -0.331816 0
M  V30 5576 C 533.344 2.05131 0.269996 0
M  V30 5577 C 533.759 1.20749 1.45138 0
M  V30 5578 O 533.116 0.240069 1.80914 0
M  V30 5579 C 533.167 3.54728 0.696456 0
M  V30 5580 O 532.888 4.35906 -0.43794 0
M  V30 5581 C 534.389 4.21916 1.36021 0
M  V30 5582 H 531.609 0.668807 0.0542042 0
M  V30 5583 H 534.153 1.98777 -0.4804 0
M  V30 5584 H 532.308 3.61342 1.39681 0
M  V30 5585 H 532.722 5.24404 -0.100334 0
M  V30 5586 H 534.196 5.28015 1.60947 0
M  V30 5587 H 534.673 3.73538 2.31011 0
M  V30 5588 H 535.279 4.19463 0.702212 0
M  V30 5589 N 533.594 0.0601682 1.57485 0
M  V30 5590 C 534.557 -0.896373 2.10945 0
M  V30 5591 C 535.557 -1.23402 1.03095 0
M  V30 5592 O 536.747 -1.16921 1.29132 0
M  V30 5593 C 533.879 -2.20346 2.60116 0
M  V30 5594 H 535.072 -0.432778 2.96761 0
M  V30 5595 H 532.625 -0.188372 1.55161 0
M  V30 5596 H 533.36 -2.71268 1.7772 0
M  V30 5597 H 533.145 -1.9714 3.38937 0
M  V30 5598 H 534.635 -2.88846 3.01592 0
M  V30 5599 N 535.072 -1.5615 -0.213296 0
M  V30 5600 C 536.312 -1.81325 -0.943435 0
M  V30 5601 C 536.676 -0.634934 -1.81198 0
M  V30 5602 O 537.877 -0.766166 -2.5765 0
M  V30 5603 C 536.148 -3.11437 -1.75334 0
M  V30 5604 S 537.707 -3.57955 -2.53799 0
M  V30 5605 H 534.525 -0.636538 -0.316766 0
M  V30 5606 H 537.127 -1.94387 -0.208313 0
M  V30 5607 H 535.831 -3.95228 -1.10556 0
M  V30 5608 H 535.362 -3.01204 -2.53061 0
M  V30 5609 H 537.377 -3.21947 -3.77577 0
M  V30 5610 N 536.55 0.480323 -1.50102 0
M  V30 5611 C 537.497 1.57946 -1.6829 0
M  V30 5612 C 538.467 1.57611 -0.524223 0
M  V30 5613 O 539.652 1.75282 -0.753709 0
M  V30 5614 C 536.792 2.95978 -1.77457 0
M  V30 5615 C 535.905 3.06173 -3.04766 0
M  V30 5616 C 535.04 4.35063 -3.04784 0
M  V30 5617 C 534.079 4.38966 -4.26586 0
M  V30 5618 N 533.216 5.59314 -4.24396 0
M  V30 5619 H 538.056 1.41743 -2.62131 0
M  V30 5620 H 535.593 0.689304 -1.2995 0
M  V30 5621 H 537.551 3.76011 -1.80752 0
M  V30 5622 H 536.181 3.10837 -0.870637 0
M  V30 5623 H 535.233 2.19071 -3.10986 0
M  V30 5624 H 536.545 3.04916 -3.9475 0
M  V30 5625 H 535.699 5.23436 -3.06757 0
M  V30 5626 H 534.438 4.38915 -2.12614 0
M  V30 5627 H 533.443 3.48992 -4.24835 0
M  V30 5628 H 534.668 4.36813 -5.19972 0
M  V30 5629 H 532.614 5.63969 -3.35074 0
M  V30 5630 H 532.531 5.5976 -5.08138 0
M  V30 5631 H 533.799 6.49837 -4.30502 0
M  V30 5632 N 538.028 1.39524 0.732853 0
M  V30 5633 C 539.274 1.37068 1.49467 0
M  V30 5634 C 539.607 -0.0327166 1.94172 0
M  V30 5635 O 538.882 -0.998071 1.66939 0
M  V30 5636 C 539.165 2.34494 2.73285 0
M  V30 5637 C 539.018 3.83784 2.34585 0
M  V30 5638 C 540.337 2.29717 3.75391 0
M  V30 5639 H 537.456 0.499206 0.542183 0
M  V30 5640 H 540.098 1.70532 0.837783 0
M  V30 5641 H 538.248 2.06087 3.29333 0
M  V30 5642 H 539.92 4.22949 1.84151 0
M  V30 5643 H 538.163 4.00455 1.66787 0
M  V30 5644 H 538.834 4.47444 3.23262 0
M  V30 5645 H 541.31 2.54839 3.28932 0
M  V30 5646 H 540.186 2.99962 4.59689 0
M  V30 5647 H 540.447 1.30291 4.22465 0
M  V30 5648 O 539.545 -0.874016 1.35806 0
M  V30 5649 H 540.236 -1.51229 1.21035 0
M  V30 END ATOM
M  V30 BEGIN BOND
M  V30 END BOND
M  V30 END CTAB
M  END
$$$$
