drugbank_target|Q86W47 Calcium-activated potassium channel subunit beta-4 (DB00721; DB01110; DB09089)
 OpenBabel12092121003D

  0  0  0     0  0            999 V3000
M  V30 BEGIN CTAB
M  V30 COUNTS 3350 3389 0 0 0
M  V30 BEGIN ATOM
M  V30 1 H -0.908 1.98254 -0.117106 0
M  V30 2 N 0 1.576 0 0
M  V30 3 C 0.933 2.03868 1.02534 0
M  V30 4 C 1.911 0.928543 1.3348 0
M  V30 5 O 3.095 1.19667 1.45644 0
M  V30 6 C 0.222 2.43627 2.35294 0
M  V30 7 C -0.732 3.65373 2.2001 0
M  V30 8 S 0.101 5.13292 1.52614 0
M  V30 9 C 1.257 5.56322 2.86805 0
M  V30 10 H 1.49 2.90518 0.631377 0
M  V30 11 H -0.977 1.52953 0.210867 0
M  V30 12 H 0.981 2.67203 3.11629 0
M  V30 13 H -0.358 1.57376 2.7183 0
M  V30 14 H -1.165 3.90944 3.18086 0
M  V30 15 H -1.563 3.418 1.51819 0
M  V30 16 H 0.729 5.58782 3.83104 0
M  V30 17 H 1.672 6.56266 2.65933 0
M  V30 18 H 2.08 4.83886 2.90714 0
M  V30 19 N 1.4781 -0.272755 1.55222 0
M  V30 20 C 2.4411 -1.32041 1.87344 0
M  V30 21 C 3.4411 -1.42342 0.74803 0
M  V30 22 O 4.6311 -1.41488 1.0162 0
M  V30 23 C 1.7631 -2.70173 2.07893 0
M  V30 24 H 2.9561 -1.04789 2.80997 0
M  V30 25 H 0.5091 -0.51083 1.47717 0
M  V30 26 H 1.2441 -3.02605 1.16622 0
M  V30 27 H 1.0291 -2.64082 2.89833 0
M  V30 28 H 2.5191 -3.45869 2.34017 0
M  V30 29 N 2.9562 -1.48159 -0.537278 0
M  V30 30 C 3.9032 -1.62138 -1.64256 0
M  V30 31 C 4.8732 -0.463668 -1.59497 0
M  V30 32 O 6.0582 -0.686241 -1.78032 0
M  V30 33 C 3.1982 -1.66028 -3.02537 0
M  V30 34 C 2.3112 -2.92855 -3.17585 0
M  V30 35 C 1.4462 -2.87952 -4.46382 0
M  V30 36 C 0.4852 -4.09516 -4.54932 0
M  V30 37 N -0.3778 -4.02733 -5.75109 0
M  V30 38 H 4.4622 -2.56529 -1.51647 0
M  V30 39 H 1.9992 -1.27224 -0.738414 0
M  V30 40 H 3.9572 -1.66265 -3.82638 0
M  V30 41 H 2.5872 -0.751331 -3.13934 0
M  V30 42 H 1.6392 -3.02395 -2.30784 0
M  V30 43 H 2.9512 -3.82822 -3.19764 0
M  V30 44 H 2.1052 -2.8655 -5.34765 0
M  V30 45 H 0.8442 -1.95702 -4.46712 0
M  V30 46 H -0.1508 -4.11201 -3.64957 0
M  V30 47 H 1.0742 -5.02917 -4.56346 0
M  V30 48 H -0.9798 -3.13299 -5.76351 0
M  V30 49 H -1.0628 -4.86397 -5.78752 0
M  V30 50 H 0.2052 -4.05379 -6.65799 0
M  V30 51 N 4.4343 0.785586 -1.36625 0
M  V30 52 C 5.3643 1.91259 -1.33949 0
M  V30 53 C 6.3453 1.68795 -0.210325 0
M  V30 54 O 7.5303 1.89854 -0.408561 0
M  V30 55 C 4.6603 3.28339 -1.13186 0
M  V30 56 C 3.6143 3.65335 -2.22967 0
M  V30 57 C 2.9403 5.00806 -1.87342 0
M  V30 58 C 4.2403 3.7352 -3.65075 0
M  V30 59 H 5.9343 1.93755 -2.28253 0
M  V30 60 H 3.4803 0.930788 -1.09874 0
M  V30 61 H 5.4333 4.06804 -1.09948 0
M  V30 62 H 4.1573 3.2624 -0.153332 0
M  V30 63 H 2.8163 2.89169 -2.25337 0
M  V30 64 H 2.4643 4.95233 -0.880545 0
M  V30 65 H 2.1643 5.26529 -2.60846 0
M  V30 66 H 3.6883 5.81687 -1.85667 0
M  V30 67 H 5.1023 4.42168 -3.64911 0
M  V30 68 H 3.4993 4.10731 -4.37516 0
M  V30 69 H 4.5693 2.74527 -3.99703 0
M  V30 70 N 5.9124 1.20967 1.01018 0
M  V30 71 C 7.3284 0.965905 1.27053 0
M  V30 72 C 7.5284 -0.350785 1.98423 0
M  V30 73 O 6.5844 -1.07773 2.28344 0
M  V30 74 C 7.8974 2.15294 2.09926 0
M  V30 75 C 9.4454 2.19463 2.23171 0
M  V30 76 C 9.9204 3.3767 3.09424 0
M  V30 77 N 11.4114 3.37724 3.17012 0
M  V30 78 C 12.1464 4.25837 3.83993 0
M  V30 79 N 11.6424 5.24138 4.53047 0
M  V30 80 N 13.4354 4.1366 3.80581 0
M  V30 81 H 5.5864 2.0565 0.531194 0
M  V30 82 H 7.8494 0.90024 0.297106 0
M  V30 83 H 7.5554 3.10684 1.64828 0
M  V30 84 H 7.4294 2.13923 3.10672 0
M  V30 85 H 9.8164 1.24632 2.6749 0
M  V30 86 H 9.8974 2.2488 1.21912 0
M  V30 87 H 9.5414 4.32791 2.65808 0
M  V30 88 H 9.4714 3.29491 4.10784 0
M  V30 89 H 11.9624 2.6658 2.6785 0
M  V30 90 H 12.2754 5.87684 5.01844 0
M  V30 91 H 10.6204 5.28068 4.5185 0
M  V30 92 H 13.8114 3.36127 3.25785 0
M  V30 93 H 13.9844 4.82538 4.32505 0
M  V30 94 N 7.3905 -1.2043 1.01659 0
M  V30 95 C 8.6365 -1.90079 0.706963 0
M  V30 96 C 8.9695 -1.78648 -0.761474 0
M  V30 97 O 8.2445 -1.17069 -1.55323 0
M  V30 98 C 8.5275 -3.41469 1.14327 0
M  V30 99 C 8.3805 -3.61833 2.67201 0
M  V30 100 C 9.6995 -4.34261 0.714529 0
M  V30 101 H 6.8185 -0.690254 0.2583 0
M  V30 102 H 9.4605 -1.41826 1.26433 0
M  V30 103 H 7.6105 -3.82696 0.669056 0
M  V30 104 H 9.2825 -3.2986 3.22475 0
M  V30 105 H 7.5255 -3.05304 3.08175 0
M  V30 106 H 8.1965 -4.67955 2.92783 0
M  V30 107 H 10.6725 -4.00682 1.12221 0
M  V30 108 H 9.5485 -5.38806 1.04784 0
M  V30 109 H 9.8095 -4.40431 -0.383799 0
M  V30 110 N 8.8686 -0.792821 -1.36206 0
M  V30 111 C 9.8316 -0.199459 -2.2833 0
M  V30 112 C 10.8316 0.605189 -1.48977 0
M  V30 113 O 12.0216 0.425685 -1.68919 0
M  V30 114 C 9.1536 0.723523 -3.33134 0
M  V30 115 H 10.3466 -1.01181 -2.82316 0
M  V30 116 H 7.8996 -0.562485 -1.45828 0
M  V30 117 H 8.6346 1.56008 -2.84309 0
M  V30 118 H 8.4196 0.148436 -3.91819 0
M  V30 119 H 9.9096 1.13344 -4.01924 0
M  V30 120 N 10.3467 1.47872 -0.545128 0
M  V30 121 C 11.5767 2.06589 -0.0210534 0
M  V30 122 C 11.9847 1.39997 1.27269 0
M  V30 123 O 11.3277 0.486421 1.77143 0
M  V30 124 C 11.3897 3.58574 0.257933 0
M  V30 125 C 11.0537 4.47132 -0.944573 0
M  V30 126 C 12.0507 4.85986 -1.84699 0
M  V30 127 C 9.7357 4.88821 -1.15584 0
M  V30 128 C 11.7297 5.65314 -2.94446 0
M  V30 129 C 9.4167 5.67916 -2.25642 0
M  V30 130 C 10.4147 6.06073 -3.14905 0
M  V30 131 O 10.1027 6.83578 -4.23057 0
M  V30 132 H 9.8347 0.674971 -0.0372899 0
M  V30 133 H 12.3887 1.91037 -0.754599 0
M  V30 134 H 10.6187 3.72295 1.04564 0
M  V30 135 H 12.3077 3.99356 0.72592 0
M  V30 136 H 13.0737 4.54388 -1.69577 0
M  V30 137 H 8.9527 4.58595 -0.470279 0
M  V30 138 H 12.4967 5.95016 -3.64145 0
M  V30 139 H 8.3937 5.98927 -2.40742 0
M  V30 140 H 9.1617 7.01954 -4.20954 0
M  V30 141 N 11.8248 0.280983 1.55075 0
M  V30 142 C 12.7348 -0.61388 2.26426 0
M  V30 143 C 13.7508 -1.16521 1.29224 0
M  V30 144 O 14.9268 -1.19426 1.62171 0
M  V30 145 C 11.9918 -1.7788 2.9759 0
M  V30 146 C 11.0528 -1.26355 4.10284 0
M  V30 147 C 10.2858 -2.37295 4.78045 0
M  V30 148 O 10.5088 -3.56777 4.45047 0
M  V30 149 O 9.4428 -2.05119 5.65871 0
M  V30 150 H 13.2688 -0.0356932 3.03679 0
M  V30 151 H 10.8538 0.0481686 1.49322 0
M  V30 152 H 12.7358 -2.45791 3.42293 0
M  V30 153 H 11.4108 -2.34397 2.23249 0
M  V30 154 H 10.3178 -0.550735 3.70024 0
M  V30 155 H 11.6508 -0.744065 4.86543 0
M  V30 156 N 13.3029 -1.57598 0.00835791 0
M  V30 157 C 14.5329 -1.94931 -0.684496 0
M  V30 158 C 14.9409 -0.882233 -1.67372 0
M  V30 159 O 14.2839 0.146621 -1.83114 0
M  V30 160 C 14.3459 -3.283 -1.4649 0
M  V30 161 C 14.0099 -4.52548 -0.63634 0
M  V30 162 C 15.0069 -5.19839 0.0795586 0
M  V30 163 C 12.6919 -4.98942 -0.579849 0
M  V30 164 C 14.6859 -6.3183 0.840843 0
M  V30 165 C 12.3729 -6.10819 0.185155 0
M  V30 166 C 13.3709 -6.77121 0.894227 0
M  V30 167 O 13.0589 -7.86853 1.64673 0
M  V30 168 H 12.7909 -0.647249 -0.19505 0
M  V30 169 H 15.3449 -2.05318 0.0581272 0
M  V30 170 H 13.5749 -3.14345 -2.2522 0
M  V30 171 H 15.2639 -3.50685 -2.04389 0
M  V30 172 H 16.0299 -4.84979 0.0451202 0
M  V30 173 H 11.9089 -4.47155 -1.1213 0
M  V30 174 H 15.4529 -6.83513 1.39483 0
M  V30 175 H 11.3499 -6.4512 0.221384 0
M  V30 176 H 12.1179 -8.03412 1.56432 0
M  V30 177 N 14.781 0.264519 -1.55364 0
M  V30 178 C 16.009 1.013 -1.80405 0
M  V30 179 C 16.424 1.79618 -0.581622 0
M  V30 180 O 15.781 1.76879 0.449468 0
M  V30 181 C 15.832 1.96487 -3.03439 0
M  V30 182 O 15.553 1.21341 -4.20961 0
M  V30 183 C 17.054 2.83079 -3.41147 0
M  V30 184 H 14.274 0.298875 -0.600762 0
M  V30 185 H 16.818 0.292736 -2.02394 0
M  V30 186 H 14.973 2.63965 -2.83551 0
M  V30 187 H 15.387 1.85573 -4.90574 0
M  V30 188 H 16.861 3.4565 -4.30384 0
M  V30 189 H 17.338 3.53286 -2.60932 0
M  V30 190 H 17.944 2.2108 -3.63323 0
M  V30 191 N 16.2591 1.48442 0.529413 0
M  V30 192 C 17.1691 1.6569 1.66084 0
M  V30 193 C 18.1851 0.539432 1.65427 0
M  V30 194 O 19.3611 0.810572 1.84368 0
M  V30 195 C 16.4261 1.69315 3.02545 0
M  V30 196 C 15.4871 2.92694 3.14052 0
M  V30 197 C 14.7201 2.96137 4.44003 0
M  V30 198 O 14.9431 2.07973 5.31134 0
M  V30 199 O 13.8771 3.88312 4.59888 0
M  V30 200 H 17.7031 2.61483 1.54469 0
M  V30 201 H 15.2881 1.3185 0.702567 0
M  V30 202 H 17.1701 1.74217 3.83701 0
M  V30 203 H 15.8451 0.766966 3.14483 0
M  V30 204 H 14.7521 2.93324 2.32189 0
M  V30 205 H 16.0851 3.84699 3.0703 0
M  V30 206 N 17.7372 -0.778329 1.37039 0
M  V30 207 C 18.7002 -1.87301 1.32102 0
M  V30 208 C 19.7002 -1.59198 0.226405 0
M  V30 209 O 20.8902 -1.67403 0.481861 0
M  V30 210 C 18.0222 -3.24309 1.05055 0
M  V30 211 H 19.2152 -1.93093 2.29467 0
M  V30 212 H 16.7682 -0.977358 1.21973 0
M  V30 213 H 17.5032 -3.24196 0.0819373 0
M  V30 214 H 17.2882 -3.46098 1.84279 0
M  V30 215 H 18.7782 -4.04382 1.04234 0
M  V30 216 N 19.2153 -1.21501 -1.00376 0
M  V30 217 C 20.1253 -0.991447 -2.12621 0
M  V30 218 C 21.1413 0.0568446 -1.73907 0
M  V30 219 O 22.3173 -0.13348 -2.00957 0
M  V30 220 C 19.3823 -0.560312 -3.42142 0
M  V30 221 C 18.4433 -1.68096 -3.95022 0
M  V30 222 C 17.6763 -1.2703 -5.18362 0
M  V30 223 O 17.8993 -0.144438 -5.70217 0
M  V30 224 O 16.8333 -2.08269 -5.64719 0
M  V30 225 H 20.6593 -1.93158 -2.34358 0
M  V30 226 H 18.2443 -0.999999 -1.10997 0
M  V30 227 H 20.1263 -0.329724 -4.20108 0
M  V30 228 H 18.8013 0.351089 -3.2179 0
M  V30 229 H 17.7083 -1.96597 -3.18278 0
M  V30 230 H 19.0413 -2.56983 -4.19786 0
M  V30 231 N 20.6934 1.19889 -1.02296 0
M  V30 232 C 21.9704 1.85148 -0.630832 0
M  V30 233 C 22.3504 1.91385 0.890782 0
M  V30 234 O 21.6984 1.42642 1.78509 0
M  V30 235 C 21.9084 3.24442 -1.28602 0
M  V30 236 C 23.2564 4.00663 -1.4055 0
M  V30 237 O 24.2804 3.33818 -1.24273 0
M  V30 238 O 23.1394 5.20387 -1.66913 0
M  V30 239 H 20.2334 0.797613 -0.218499 0
M  V30 240 H 22.7794 1.27427 -1.12074 0
M  V30 241 H 21.5514 3.14704 -2.32545 0
M  V30 242 H 21.1744 3.89802 -0.7836 0
M  V30 243 N 22.1715 0.800033 1.35784 0
M  V30 244 C 23.1185 0.203848 2.29898 0
M  V30 245 C 24.0885 -0.658375 1.52495 0
M  V30 246 O 25.2735 -0.604832 1.8096 0
M  V30 247 C 22.4135 -0.64688 3.38983 0
M  V30 248 C 21.5265 0.235054 4.3136 0
M  V30 249 C 20.6615 -0.623054 5.27533 0
M  V30 250 C 19.7005 0.259682 6.11549 0
M  V30 251 N 18.8375 -0.558019 6.99879 0
M  V30 252 H 23.6775 1.01186 2.80295 0
M  V30 253 H 21.2145 0.51053 1.37957 0
M  V30 254 H 23.1725 -1.15521 4.00887 0
M  V30 255 H 21.8025 -1.42021 2.89879 0
M  V30 256 H 20.8545 0.861438 3.70518 0
M  V30 257 H 22.1665 0.914768 4.9034 0
M  V30 258 H 21.3205 -1.19678 5.94779 0
M  V30 259 H 20.0595 -1.33636 4.69034 0
M  V30 260 H 19.0645 0.845726 5.43256 0
M  V30 261 H 20.2895 0.970748 6.72126 0
M  V30 262 H 18.2355 -1.25542 6.43875 0
M  V30 263 H 18.1525 0.0637872 7.55973 0
M  V30 264 H 19.4205 -1.11523 7.71481 0
M  V30 265 N 23.6496 -1.47581 0.552962 0
M  V30 266 C 24.8746 -2.07378 0.0300593 0
M  V30 267 C 25.2996 -1.40355 -1.25229 0
M  V30 268 O 24.6576 -0.477099 -1.7491 0
M  V30 269 C 24.7056 -3.60274 -0.153231 0
M  V30 270 O 23.8096 -3.94041 -1.21678 0
M  V30 271 H 23.1506 -0.662158 0.0494182 0
M  V30 272 H 25.6806 -1.89662 0.767434 0
M  V30 273 H 25.6906 -4.0633 -0.368761 0
M  V30 274 H 24.3656 -4.08455 0.783397 0
M  V30 275 H 22.9426 -3.59735 -0.982079 0
M  V30 276 N 25.1277 -0.289203 -1.54924 0
M  V30 277 C 26.3767 0.324231 -1.99077 0
M  V30 278 C 26.6897 1.5591 -1.18117 0
M  V30 279 O 27.8957 2.24637 -1.52481 0
M  V30 280 C 26.3517 0.628209 -3.54375 0
M  V30 281 C 25.9597 -0.587647 -4.44129 0
M  V30 282 C 27.7037 1.20349 -4.07083 0
M  V30 283 C 25.6107 -0.257475 -5.90839 0
M  V30 284 H 24.5407 0.124924 -0.743579 0
M  V30 285 H 27.1917 -0.396063 -1.79175 0
M  V30 286 H 25.5737 1.40778 -3.70132 0
M  V30 287 H 26.7477 -1.36418 -4.40144 0
M  V30 288 H 25.0627 -1.08074 -4.0213 0
M  V30 289 H 27.6597 1.46456 -5.14252 0
M  V30 290 H 28.0027 2.14195 -3.56968 0
M  V30 291 H 28.5357 0.485889 -3.94821 0
M  V30 292 H 25.2747 -1.16419 -6.45079 0
M  V30 293 H 24.7947 0.482018 -5.9786 0
M  V30 294 H 26.4737 0.145238 -6.46837 0
M  V30 295 N 26.6058 1.57591 -0.0167156 0
M  V30 296 C 28.0218 1.55946 0.339557 0
M  V30 297 C 28.2218 1.02109 1.73713 0
M  V30 298 O 27.2778 0.662303 2.43659 0
M  V30 299 C 28.5908 3.00037 0.199499 0
M  V30 300 C 30.1388 3.11805 0.273193 0
M  V30 301 C 30.6138 4.57713 0.162068 0
M  V30 302 N 32.1048 4.6268 0.219444 0
M  V30 303 C 32.8398 5.73185 0.157054 0
M  V30 304 N 32.3358 6.92786 0.0442936 0
M  V30 305 N 34.1288 5.61707 0.21014 0
M  V30 306 H 26.2798 1.90921 -0.930758 0
M  V30 307 H 28.5428 0.877674 -0.358319 0
M  V30 308 H 28.2488 3.4333 -0.76273 0
M  V30 309 H 28.1228 3.64387 0.974786 0
M  V30 310 H 30.5098 2.68433 1.22587 0
M  V30 311 H 30.5908 2.50201 -0.532256 0
M  V30 312 H 30.2348 5.01763 -0.78714 0
M  V30 313 H 30.1648 5.17283 0.986222 0
M  V30 314 H 32.6558 3.76649 0.307246 0
M  V30 315 H 32.9688 7.728 0.00304069 0
M  V30 316 H 31.3138 6.94999 0.00968457 0
M  V30 317 H 34.5048 4.6716 0.296546 0
M  V30 318 H 34.6778 6.47807 0.158054 0
M  V30 319 N 28.0839 -0.256276 1.55502 0
M  V30 320 C 29.0139 -1.32102 1.92539 0
M  V30 321 C 29.9949 -1.50684 0.789194 0
M  V30 322 O 31.1799 -1.63449 1.04872 0
M  V30 323 C 28.3099 -2.67752 2.21192 0
M  V30 324 C 27.2639 -2.63878 3.36975 0
M  V30 325 C 26.5899 -4.03236 3.51147 0
M  V30 326 C 27.8899 -2.21682 4.72921 0
M  V30 327 H 29.5839 -1.01351 2.81724 0
M  V30 328 H 27.1299 -0.486105 1.35547 0
M  V30 329 H 29.0829 -3.42365 2.45691 0
M  V30 330 H 27.8069 -3.0012 1.28824 0
M  V30 331 H 26.4659 -1.91722 3.12471 0
M  V30 332 H 26.1139 -4.32854 2.56216 0
M  V30 333 H 25.8139 -4.01535 4.29003 0
M  V30 334 H 27.3379 -4.79563 3.77957 0
M  V30 335 H 28.7519 -2.86023 4.96854 0
M  V30 336 H 27.1489 -2.3111 5.53812 0
M  V30 337 H 28.2189 -1.16833 4.70615 0
M  V30 338 N 29.562 -1.4872 -0.521534 0
M  V30 339 C 30.81 -1.56857 -1.27437 0
M  V30 340 C 31.131 -0.247982 -1.93417 0
M  V30 341 O 30.401 0.731151 -1.81744 0
M  V30 342 H 28.981 -0.577885 -0.473347 0
M  V30 343 H 31.643 -1.85233 -0.606205 0
M  V30 344 H 30.739 -2.35402 -2.0492 0
M  V30 345 N 31.0401 0.771051 -1.3745 0
M  V30 346 C 31.9701 1.89827 -1.3597 0
M  V30 347 C 32.9511 1.68562 -0.228216 0
M  V30 348 O 34.1361 1.8941 -0.428675 0
M  V30 349 C 31.2661 3.2712 -1.16662 0
M  V30 350 C 30.2201 3.6295 -2.2683 0
M  V30 351 C 29.5461 4.98791 -1.92644 0
M  V30 352 C 30.8461 3.69627 -3.69017 0
M  V30 353 H 32.5401 1.91323 -2.30295 0
M  V30 354 H 30.0861 0.919082 -1.10855 0
M  V30 355 H 32.0391 4.05615 -1.14256 0
M  V30 356 H 30.7631 3.26059 -0.187926 0
M  V30 357 H 29.4221 2.86763 -2.28392 0
M  V30 358 H 29.0701 4.94271 -0.933021 0
M  V30 359 H 28.7701 5.23733 -2.66416 0
M  V30 360 H 30.2941 5.79685 -1.91826 0
M  V30 361 H 31.7081 4.38273 -3.69581 0
M  V30 362 H 30.1051 4.06067 -4.41848 0
M  V30 363 H 31.1751 2.70273 -4.02592 0
M  V30 364 N 32.5182 1.22032 0.997298 0
M  V30 365 C 33.7652 1.04222 1.73621 0
M  V30 366 C 34.0932 -0.423264 1.89839 0
M  V30 367 O 33.3482 -1.3302 1.43542 0
M  V30 368 C 33.6472 1.69345 3.14733 0
M  V30 369 C 33.3132 3.19226 3.18442 0
M  V30 370 C 31.9752 3.60124 3.19161 0
M  V30 371 C 34.3272 4.15181 3.15078 0
M  V30 372 C 31.6552 4.95467 3.14212 0
M  V30 373 C 34.0072 5.50495 3.1167 0
M  V30 374 C 32.6712 5.90779 3.10703 0
M  V30 375 H 31.9412 0.381374 0.635323 0
M  V30 376 H 34.5882 1.51732 1.16831 0
M  V30 377 H 32.8932 1.14147 3.74803 0
M  V30 378 H 34.5902 1.53059 3.7064 0
M  V30 379 H 31.1802 2.86659 3.18629 0
M  V30 380 H 35.3642 3.84605 3.13676 0
M  V30 381 H 30.6202 5.25916 3.11805 0
M  V30 382 H 34.7942 6.24576 3.08022 0
M  V30 383 H 32.4212 6.9562 3.06622 0
M  V30 384 N 33.9963 -1.19345 1.0293 0
M  V30 385 C 34.9263 -2.2481 0.631105 0
M  V30 386 C 35.9073 -1.66245 -0.360104 0
M  V30 387 O 37.0923 -1.92677 -0.242726 0
M  V30 388 C 34.2223 -3.47295 -0.0184607 0
M  V30 389 C 33.1763 -4.18536 0.895073 0
M  V30 390 C 32.5023 -5.34586 0.110592 0
M  V30 391 C 33.8023 -4.73287 2.209 0
M  V30 392 H 35.4963 -2.58372 1.51275 0
M  V30 393 H 33.0423 -1.24194 0.728818 0
M  V30 394 H 34.9953 -4.20268 -0.308675 0
M  V30 395 H 33.7193 -3.12933 -0.934907 0
M  V30 396 H 32.3783 -3.47446 1.16949 0
M  V30 397 H 32.0263 -4.96469 -0.807902 0
M  V30 398 H 31.7263 -5.83183 0.719087 0
M  V30 399 H 33.2503 -6.10355 -0.172871 0
M  V30 400 H 34.6643 -5.38013 1.98028 0
M  V30 401 H 33.0613 -5.32373 2.76946 0
M  V30 402 H 34.1313 -3.91331 2.86336 0
M  V30 403 N 35.4744 -0.807222 -1.35358 0
M  V30 404 C 36.7234 -0.384376 -1.98004 0
M  V30 405 C 37.0364 1.0543 -1.64754 0
M  V30 406 O 38.2424 1.58029 -2.20769 0
M  V30 407 C 36.6984 -0.636326 -3.5423 0
M  V30 408 C 36.3064 -2.08759 -3.96388 0
M  V30 409 C 38.0504 -0.278869 -4.23583 0
M  V30 410 C 35.9574 -2.28525 -5.45463 0
M  V30 411 H 34.8874 -0.139986 -0.740891 0
M  V30 412 H 37.5384 -0.991369 -1.54415 0
M  V30 413 H 35.9204 0.0406256 -3.95979 0
M  V30 414 H 37.0944 -2.8024 -3.6579 0
M  V30 415 H 35.4094 -2.40497 -3.39926 0
M  V30 416 H 38.0064 -0.404599 -5.33167 0
M  V30 417 H 38.3494 0.775012 -4.09022 0
M  V30 418 H 38.8824 -0.909764 -3.87257 0
M  V30 419 H 35.6214 -3.32361 -5.64992 0
M  V30 420 H 35.1414 -1.61569 -5.77629 0
M  V30 421 H 36.8204 -2.10109 -6.11934 0
M  V30 422 N 36.9525 1.47285 -0.560781 0
M  V30 423 C 38.2015 2.01668 -0.035895 0
M  V30 424 C 38.5145 1.44021 1.32353 0
M  V30 425 O 39.7205 1.90088 1.93853 0
M  V30 426 C 38.1765 3.59897 -0.0136659 0
M  V30 427 C 37.7845 4.26536 -1.37006 0
M  V30 428 C 39.5285 4.22017 0.458425 0
M  V30 429 C 37.4355 5.76782 -1.30675 0
M  V30 430 H 36.3655 0.753938 -0.00964879 0
M  V30 431 H 39.0165 1.69243 -0.709166 0
M  V30 432 H 37.3985 3.89301 0.725325 0
M  V30 433 H 38.5725 4.0877 -2.12705 0
M  V30 434 H 36.8875 3.76419 -1.78038 0
M  V30 435 H 39.4845 5.32124 0.524247 0
M  V30 436 H 39.8275 3.89437 1.4712 0
M  V30 437 H 40.3605 3.97159 -0.225818 0
M  V30 438 H 37.0995 6.13988 -2.29564 0
M  V30 439 H 36.6195 5.96875 -0.591622 0
M  V30 440 H 38.2985 6.39063 -1.01033 0
M  V30 441 N 38.4306 0.297415 1.54768 0
M  V30 442 C 39.6556 -0.318435 2.04941 0
M  V30 443 C 40.0806 -1.4701 1.17345 0
M  V30 444 O 39.4386 -1.80436 0.176758 0
M  V30 445 C 39.4866 -0.755749 3.52592 0
M  V30 446 O 38.5906 -1.86088 3.68028 0
M  V30 447 H 37.9316 -0.062421 0.661059 0
M  V30 448 H 40.4616 0.438215 1.99852 0
M  V30 449 H 40.4716 -1.04552 3.94376 0
M  V30 450 H 39.1466 0.0867233 4.1581 0
M  V30 451 H 37.7236 -1.57193 3.38149 0
M  V30 452 N 39.9087 -1.5758 0.0250728 0
M  V30 453 C 41.1567 -1.91255 -0.653151 0
M  V30 454 C 41.4777 -0.901691 -1.729 0
M  V30 455 O 40.7477 0.0573785 -1.95816 0
M  V30 456 H 39.3277 -0.705942 -0.244243 0
M  V30 457 H 41.9897 -1.94767 0.0719209 0
M  V30 458 H 41.0857 -2.91752 -1.10847 0
M  V30 459 N 41.3868 0.248026 -1.55636 0
M  V30 460 C 42.6328 0.97767 -1.77678 0
M  V30 461 C 42.9658 1.85016 -0.590135 0
M  V30 462 O 42.2408 1.90095 0.411611 0
M  V30 463 C 42.5238 1.83914 -3.09593 0
M  V30 464 C 42.3768 0.99491 -4.38659 0
M  V30 465 C 43.6958 2.82183 -3.37729 0
M  V30 466 H 40.8148 0.354005 -0.646413 0
M  V30 467 H 43.4568 0.248253 -1.88371 0
M  V30 468 H 41.6068 2.46104 -3.00608 0
M  V30 469 H 43.2788 0.391789 -4.59633 0
M  V30 470 H 41.5218 0.299231 -4.32767 0
M  V30 471 H 42.1928 1.63145 -5.2734 0
M  V30 472 H 44.6688 2.30129 -3.4667 0
M  V30 473 H 43.5448 3.39582 -4.31249 0
M  V30 474 H 43.8058 3.58588 -2.58586 0
M  V30 475 N 42.8649 1.48995 0.513639 0
M  V30 476 C 44.1109 1.58076 1.27042 0
M  V30 477 C 44.4439 0.261026 1.92438 0
M  V30 478 O 43.7189 -0.734393 1.80103 0
M  V30 479 C 44.0019 2.73091 2.34719 0
M  V30 480 C 43.8549 4.14821 1.73907 0
M  V30 481 C 45.1739 2.83796 3.36375 0
M  V30 482 H 42.2929 0.575391 0.460536 0
M  V30 483 H 44.9349 1.81232 0.570516 0
M  V30 484 H 43.0849 2.53479 2.94416 0
M  V30 485 H 44.7569 4.45917 1.18135 0
M  V30 486 H 42.9999 4.21058 1.0437 0
M  V30 487 H 43.6709 4.91147 2.51949 0
M  V30 488 H 46.1469 3.01611 2.86653 0
M  V30 489 H 45.0229 3.65971 4.09093 0
M  V30 490 H 45.2839 1.92624 3.9793 0
M  V30 491 N 44.343 -0.763751 1.37857 0
M  V30 492 C 45.568 -1.55805 1.36893 0
M  V30 493 C 45.993 -1.88054 -0.0416135 0
M  V30 494 O 45.351 -1.49825 -1.02089 0
M  V30 495 C 45.399 -2.84012 2.22192 0
M  V30 496 O 44.503 -3.78732 1.63204 0
M  V30 497 H 43.844 -0.471638 0.46739 0
M  V30 498 H 46.374 -0.944657 1.81487 0
M  V30 499 H 46.384 -3.33037 2.35691 0
M  V30 500 H 45.059 -2.59869 3.24716 0
M  V30 501 H 43.636 -3.37402 1.58791 0
M  V30 502 N 45.8211 -1.22559 -0.990812 0
M  V30 503 C 46.7511 -1.0218 -2.09956 0
M  V30 504 C 47.7321 0.0579394 -1.70001 0
M  V30 505 O 48.9171 -0.104684 -1.93918 0
M  V30 506 C 46.0471 -0.601023 -3.4206 0
M  V30 507 C 45.0011 -1.62694 -3.95872 0
M  V30 508 C 44.3271 -1.06193 -5.24049 0
M  V30 509 C 45.6271 -3.01743 -4.2632 0
M  V30 510 H 47.3211 -1.94916 -2.27262 0
M  V30 511 H 44.8671 -0.938566 -1.09211 0
M  V30 512 H 46.8201 -0.445561 -4.19038 0
M  V30 513 H 45.5441 0.362005 -3.24588 0
M  V30 514 H 44.2031 -1.77021 -3.21028 0
M  V30 515 H 43.8511 -0.0901903 -5.02919 0
M  V30 516 H 43.5511 -1.74732 -5.61019 0
M  V30 517 H 45.0751 -0.918092 -6.03658 0
M  V30 518 H 46.4891 -2.90777 -4.94087 0
M  V30 519 H 44.8861 -3.67425 -4.74467 0
M  V30 520 H 45.9561 -3.51518 -3.34011 0
M  V30 521 N 47.2992 1.18797 -1.03562 0
M  V30 522 C 48.5462 1.8865 -0.736023 0
M  V30 523 C 48.8742 1.80041 0.735889 0
M  V30 524 O 48.1292 1.19179 1.55225 0
M  V30 525 C 48.4282 3.38692 -1.14117 0
M  V30 526 C 48.0942 3.67504 -2.6125 0
M  V30 527 C 46.7562 3.75078 -3.01447 0
M  V30 528 C 49.1082 3.80293 -3.56408 0
M  V30 529 C 46.4362 3.92915 -4.35701 0
M  V30 530 C 48.7882 3.99645 -4.90374 0
M  V30 531 C 47.4522 4.05453 -5.30249 0
M  V30 532 H 46.7222 0.690321 -0.26933 0
M  V30 533 H 49.3692 1.40641 -1.29971 0
M  V30 534 H 47.6742 3.88645 -0.496202 0
M  V30 535 H 49.3712 3.91072 -0.886789 0
M  V30 536 H 45.9612 3.62223 -2.29113 0
M  V30 537 H 50.1452 3.73779 -3.26501 0
M  V30 538 H 45.4012 3.95653 -4.66121 0
M  V30 539 H 49.5752 4.08482 -5.64017 0
M  V30 540 H 47.2022 4.19027 -6.34288 0
M  V30 541 N 48.7773 0.814389 1.34928 0
M  V30 542 C 50.0263 0.394871 1.97797 0
M  V30 543 C 50.3393 -1.04555 1.65311 0
M  V30 544 O 51.5453 -1.56856 2.21604 0
M  V30 545 C 50.0013 0.655103 3.53888 0
M  V30 546 C 49.6093 2.10858 3.95276 0
M  V30 547 C 51.3533 0.301329 4.23429 0
M  V30 548 C 49.2603 2.31415 5.44244 0
M  V30 549 H 48.1903 0.143913 0.740139 0
M  V30 550 H 50.8413 0.999544 1.53888 0
M  V30 551 H 49.2233 -0.0196253 3.95995 0
M  V30 552 H 50.3973 2.82176 3.64298 0
M  V30 553 H 48.7123 2.42297 3.38646 0
M  V30 554 H 51.3093 0.432869 5.32945 0
M  V30 555 H 51.6523 -0.75331 4.09428 0
M  V30 556 H 52.1853 0.930288 3.86769 0
M  V30 557 H 48.9243 3.35353 5.63222 0
M  V30 558 H 48.4443 1.6463 5.76764 0
M  V30 559 H 50.1233 2.13352 6.10811 0
M  V30 560 N 50.2554 -1.46986 0.568584 0
M  V30 561 C 51.5024 -2.02441 0.0487986 0
M  V30 562 C 51.8304 -1.44169 -1.30559 0
M  V30 563 O 51.0854 -0.591213 -1.86556 0
M  V30 564 C 51.3844 -3.57306 -0.081836 0
M  V30 565 C 51.0504 -4.34552 1.20313 0
M  V30 566 C 49.7124 -4.55376 1.5552 0
M  V30 567 C 52.0644 -4.79016 2.05411 0
M  V30 568 C 49.3924 -5.17913 2.7565 0
M  V30 569 C 51.7444 -5.42879 3.24754 0
M  V30 570 C 50.4084 -5.61933 3.60261 0
M  V30 571 H 49.6784 -0.740785 0.0178567 0
M  V30 572 H 52.3254 -1.76525 0.742384 0
M  V30 573 H 50.6304 -3.8228 -0.858463 0
M  V30 574 H 52.3274 -3.97876 -0.499546 0
M  V30 575 H 48.9174 -4.18631 0.919014 0
M  V30 576 H 53.1014 -4.62696 1.79516 0
M  V30 577 H 48.3574 -5.30858 3.03315 0
M  V30 578 H 52.5314 -5.76293 3.90973 0
M  V30 579 H 50.1584 -6.10161 4.53439 0
M  V30 580 N 51.7335 -0.305618 -1.54608 0
M  V30 581 C 52.9815 0.301701 -1.99835 0
M  V30 582 C 53.3025 1.54054 -1.19551 0
M  V30 583 O 52.5725 1.93702 -0.292658 0
M  V30 584 H 51.1525 0.114468 -0.738178 0
M  V30 585 H 53.8145 -0.418016 -1.90364 0
M  V30 586 H 52.9105 0.570548 -3.06841 0
M  V30 587 N 53.2116 1.57565 -0.0334293 0
M  V30 588 C 54.4586 1.91978 0.644272 0
M  V30 589 C 54.7866 0.910231 1.71887 0
M  V30 590 O 54.0416 -0.0801961 1.95536 0
M  V30 591 C 54.3406 3.33112 1.29504 0
M  V30 592 C 54.0066 4.49537 0.350388 0
M  V30 593 C 52.6686 4.81115 0.0903974 0
M  V30 594 C 55.0206 5.20347 -0.298032 0
M  V30 595 C 52.3486 5.8086 -0.825746 0
M  V30 596 C 54.7006 6.2107 -1.20226 0
M  V30 597 C 53.3646 6.51088 -1.4711 0
M  V30 598 H 52.6346 0.702496 0.235756 0
M  V30 599 H 55.2816 1.91259 -0.0961176 0
M  V30 600 H 53.5866 3.30113 2.11028 0
M  V30 601 H 55.2836 3.57011 1.82603 0
M  V30 602 H 51.8736 4.24883 0.563205 0
M  V30 603 H 56.0576 4.96178 -0.110234 0
M  V30 604 H 51.3136 6.02461 -1.04169 0
M  V30 605 H 55.4876 6.75057 -1.71086 0
M  V30 606 H 53.1146 7.28193 -2.18264 0
M  V30 607 N 54.6897 -0.239769 1.55765 0
M  V30 608 C 55.9297 -0.974076 1.79697 0
M  V30 609 C 56.2937 -1.82249 0.604088 0
M  V30 610 O 57.4947 -2.58913 0.722324 0
M  V30 611 C 55.7657 -1.80595 3.08416 0
M  V30 612 S 57.3247 -2.59838 3.53596 0
M  V30 613 H 54.1427 -0.327524 0.63107 0
M  V30 614 H 56.7447 -0.241277 1.94005 0
M  V30 615 H 55.4487 -1.17249 3.93295 0
M  V30 616 H 54.9797 -2.58137 2.96865 0
M  V30 617 H 56.9947 -3.82987 3.15492 0
M  V30 618 N 56.1678 -1.49265 -0.50573 0
M  V30 619 C 57.4138 -1.59723 -1.25937 0
M  V30 620 C 57.7688 -0.278236 -1.90378 0
M  V30 621 O 57.0618 0.72113 -1.77511 0
M  V30 622 C 57.2558 -2.69008 -2.35308 0
M  V30 623 C 57.0848 -4.11405 -1.81592 0
M  V30 624 C 55.8548 -4.78252 -1.63105 0
M  V30 625 C 58.0528 -4.96792 -1.33048 0
M  V30 626 N 56.0348 -6.0498 -1.04269 0
M  V30 627 C 57.4058 -6.13962 -0.863168 0
M  V30 628 C 59.4608 -4.82828 -1.21577 0
M  V30 629 C 58.1638 -7.18705 -0.292489 0
M  V30 630 C 60.1898 -5.87716 -0.65907 0
M  V30 631 C 59.5518 -7.0411 -0.201954 0
M  V30 632 H 55.6508 -0.638864 -0.450973 0
M  V30 633 H 58.2348 -1.86251 -0.567326 0
M  V30 634 H 56.4058 -2.4426 -3.01979 0
M  V30 635 H 58.1378 -2.69013 -3.02348 0
M  V30 636 H 54.8928 -4.34974 -1.87336 0
M  V30 637 H 55.3168 -6.72631 -0.767919 0
M  V30 638 H 59.9588 -3.93159 -1.55518 0
M  V30 639 H 57.6768 -8.08078 0.0591987 0
M  V30 640 H 61.2628 -5.7897 -0.573156 0
M  V30 641 H 60.1428 -7.83885 0.222101 0
M  V30 642 N 57.6459 0.756429 -1.3826 0
M  V30 643 C 58.5759 1.88374 -1.37976 0
M  V30 644 C 59.5569 1.68311 -0.246082 0
M  V30 645 O 60.7419 1.88944 -0.44874 0
M  V30 646 C 57.8719 3.25864 -1.20125 0
M  V30 647 C 56.8259 3.60523 -2.30666 0
M  V30 648 C 56.1519 4.9672 -1.97923 0
M  V30 649 C 57.4519 3.65692 -3.72916 0
M  V30 650 H 59.1459 1.88869 -2.32312 0
M  V30 651 H 56.6919 0.907272 -1.11824 0
M  V30 652 H 58.6449 4.0438 -1.18552 0
M  V30 653 H 57.3689 3.25841 -0.222498 0
M  V30 654 H 56.0279 2.84324 -2.3142 0
M  V30 655 H 55.6759 4.93253 -0.985393 0
M  V30 656 H 55.3759 5.20878 -2.71955 0
M  V30 657 H 56.8999 5.77618 -1.97964 0
M  V30 658 H 58.3139 4.34328 -3.74208 0
M  V30 659 H 56.7109 4.01358 -4.4613 0
M  V30 660 H 57.7809 2.65987 -4.05436 0
M  V30 661 N 59.124 1.23083 0.984299 0
M  V30 662 C 60.349 1.088 1.76571 0
M  V30 663 C 60.774 -0.356657 1.84688 0
M  V30 664 O 60.132 -1.25788 1.30565 0
M  V30 665 C 60.18 1.71371 3.17277 0
M  V30 666 O 59.284 0.973213 4.00752 0
M  V30 667 H 58.625 0.381599 0.543395 0
M  V30 668 H 61.155 1.63057 1.23587 0
M  V30 669 H 61.165 1.76449 3.67872 0
M  V30 670 H 59.84 2.76493 3.10684 0
M  V30 671 H 58.417 0.999078 3.59267 0
M  V30 672 N 60.6021 -1.18246 1.0419 0
M  V30 673 C 62.0131 -1.69914 0.773698 0
M  V30 674 C 62.3641 -1.83085 -0.705297 0
M  V30 675 O 61.4891 -1.51123 -1.5489 0
M  V30 676 C 62.0841 -3.08619 1.39784 0
M  V30 677 C 60.6431 -3.57494 1.17792 0
M  V30 678 C 59.7901 -2.34013 1.48773 0
M  V30 679 H 62.7411 -1.02904 1.20816 0
M  V30 680 H 62.7621 -3.71958 0.801714 0
M  V30 681 H 62.2741 -2.99001 2.47426 0
M  V30 682 H 60.3751 -3.72406 0.120295 0
M  V30 683 H 60.4881 -4.40852 1.87581 0
M  V30 684 H 58.8521 -2.37986 0.907463 0
M  V30 685 H 59.6351 -2.27013 2.57527 0
M  V30 686 N 62.0802 -0.821533 -1.34494 0
M  V30 687 C 63.0432 -0.247847 -2.27856 0
M  V30 688 C 64.0432 0.573453 -1.50227 0
M  V30 689 O 65.2332 0.389759 -1.69784 0
M  V30 690 C 62.3652 0.652698 -3.34593 0
M  V30 691 H 63.5582 -1.07146 -2.80107 0
M  V30 692 H 61.1112 -0.593291 -1.44602 0
M  V30 693 H 61.8462 1.49943 -2.87555 0
M  V30 694 H 61.6312 0.065292 -3.92046 0
M  V30 695 H 63.1212 1.04793 -4.04238 0
M  V30 696 N 63.5583 1.46682 -0.576371 0
M  V30 697 C 64.4883 2.33028 0.148397 0
M  V30 698 C 65.4693 1.44961 0.889956 0
M  V30 699 O 66.6543 1.73789 0.866662 0
M  V30 700 C 63.7843 3.27117 1.1667 0
M  V30 701 C 62.7383 4.24575 0.540386 0
M  V30 702 C 62.0643 5.08126 1.6647 0
M  V30 703 C 63.3643 5.19722 -0.518331 0
M  V30 704 H 65.0583 2.93875 -0.572509 0
M  V30 705 H 62.6043 1.41315 -0.276768 0
M  V30 706 H 64.5573 3.86374 1.68204 0
M  V30 707 H 63.2813 2.64364 1.9178 0
M  V30 708 H 61.9403 3.66571 0.0461769 0
M  V30 709 H 61.5883 4.41762 2.40531 0
M  V30 710 H 61.2883 5.74122 1.25131 0
M  V30 711 H 62.8123 5.70246 2.18293 0
M  V30 712 H 64.2263 5.73232 -0.0883058 0
M  V30 713 H 62.6233 5.94026 -0.851679 0
M  V30 714 H 63.6933 4.64037 -1.40703 0
M  V30 715 N 65.0364 0.313813 1.54444 0
M  V30 716 C 65.9684 -0.590425 2.21465 0
M  V30 717 C 66.9814 -1.08753 1.21147 0
M  V30 718 O 68.1704 -1.00278 1.4767 0
M  V30 719 C 65.2704 -1.82179 2.85769 0
M  V30 720 C 64.4434 -1.46502 4.12136 0
M  V30 721 C 63.5024 -2.55288 4.60124 0
M  V30 722 O 62.5284 -2.19842 5.25032 0
M  V30 723 N 63.7304 -3.86053 4.33525 0
M  V30 724 H 66.4954 -0.0166033 2.99695 0
M  V30 725 H 64.0564 0.136578 1.61323 0
M  V30 726 H 66.0484 -2.54328 3.14801 0
M  V30 727 H 64.6184 -2.30369 2.11303 0
M  V30 728 H 63.8384 -0.575595 3.89975 0
M  V30 729 H 65.1264 -1.20221 4.94393 0
M  V30 730 H 64.5244 -4.17654 3.81552 0
M  V30 731 H 63.0814 -4.54461 4.67235 0
M  V30 732 N 66.5145 -1.57545 0.0417849 0
M  V30 733 C 67.7915 -1.83642 -0.673433 0
M  V30 734 C 68.1715 -0.928298 -1.89594 0
M  V30 735 O 67.5195 0.0129955 -2.28496 0
M  V30 736 C 67.7295 -3.33155 -1.03964 0
M  V30 737 C 69.0775 -3.99941 -1.42592 0
M  V30 738 O 70.1015 -3.37725 -1.13226 0
M  V30 739 O 68.9605 -5.09619 -1.9736 0
M  V30 740 H 66.0545 -0.757638 -0.331533 0
M  V30 741 H 68.6005 -1.69554 0.070433 0
M  V30 742 H 67.3725 -3.9093 -0.170098 0
M  V30 743 H 66.9955 -3.52396 -1.84126 0
M  V30 744 N 67.9926 0.231505 -1.5589 0
M  V30 745 C 68.9226 1.29022 -1.94617 0
M  V30 746 C 69.9036 1.4941 -0.813067 0
M  V30 747 O 71.0886 1.6176 -1.07459 0
M  V30 748 C 68.2186 2.64199 -2.25424 0
M  V30 749 C 67.1726 2.58484 -3.41131 0
M  V30 750 C 66.4986 3.97599 -3.57518 0
M  V30 751 C 67.7986 2.1413 -4.76388 0
M  V30 752 H 69.4926 0.968563 -2.83301 0
M  V30 753 H 67.0386 0.464479 -1.36303 0
M  V30 754 H 68.9916 3.38413 -2.51107 0
M  V30 755 H 67.7156 2.98032 -1.33583 0
M  V30 756 H 66.3746 1.86727 -3.15481 0
M  V30 757 H 66.0226 4.28723 -2.6307 0
M  V30 758 H 65.7226 3.94659 -4.35337 0
M  V30 759 H 67.2466 4.7349 -3.85538 0
M  V30 760 H 68.6606 2.78083 -5.01341 0
M  V30 761 H 67.0576 2.2227 -5.57419 0
M  V30 762 H 68.1276 1.09331 -4.72414 0
M  V30 763 N 69.4707 1.49531 0.497807 0
M  V30 764 C 70.4027 1.62559 1.61578 0
M  V30 765 C 71.4157 0.508134 1.54667 0
M  V30 766 O 72.6047 0.780309 1.60541 0
M  V30 767 C 69.7047 1.56925 3.00379 0
M  V30 768 C 68.8777 2.84257 3.3244 0
M  V30 769 C 67.9367 2.71632 4.50669 0
M  V30 770 O 66.9627 3.4557 4.52294 0
M  V30 771 N 68.1647 1.83391 5.5077 0
M  V30 772 H 70.9297 2.58981 1.50828 0
M  V30 773 H 68.4907 1.4666 0.685743 0
M  V30 774 H 70.4827 1.46129 3.77397 0
M  V30 775 H 69.0527 0.683483 3.05037 0
M  V30 776 H 68.2727 3.09381 2.44289 0
M  V30 777 H 69.5607 3.68666 3.5066 0
M  V30 778 H 68.9587 1.22583 5.52259 0
M  V30 779 H 67.5157 1.78515 6.26878 0
M  V30 780 N 70.9488 -0.749086 1.3866 0
M  V30 781 C 71.9118 -1.84457 1.36045 0
M  V30 782 C 72.9118 -1.58682 0.260122 0
M  V30 783 O 74.1018 -1.66343 0.517261 0
M  V30 784 C 71.2338 -3.22008 1.11911 0
M  V30 785 H 72.4268 -1.88182 2.33512 0
M  V30 786 H 69.9798 -0.951266 1.24019 0
M  V30 787 H 70.7148 -3.2395 0.150686 0
M  V30 788 H 70.4998 -3.42111 1.91579 0
M  V30 789 H 71.9898 -4.0208 1.12788 0
M  V30 790 N 72.4269 -1.23603 -0.977757 0
M  V30 791 C 73.6549 -1.09646 -1.75458 0
M  V30 792 C 74.0699 0.351859 -1.85492 0
M  V30 793 O 73.4269 1.24327 -1.336 0
M  V30 794 C 73.4779 -1.71895 -3.18016 0
M  V30 795 O 73.1989 -3.11063 -3.08498 0
M  V30 796 C 74.6999 -1.63415 -4.12081 0
M  V30 797 H 71.9199 -0.38359 -0.550545 0
M  V30 798 H 74.4639 -1.63507 -1.22824 0
M  V30 799 H 72.6189 -1.22061 -3.67668 0
M  V30 800 H 73.0329 -3.41305 -3.9826 0
M  V30 801 H 74.5069 -2.11669 -5.09804 0
M  V30 802 H 74.9839 -0.593462 -4.35172 0
M  V30 803 H 75.5899 -2.12628 -3.68334 0
M  V30 804 N 73.905 1.17692 -1.04816 0
M  V30 805 C 74.815 2.25229 -0.65643 0
M  V30 806 C 75.831 1.71018 0.320761 0
M  V30 807 O 77.007 2.00649 0.173805 0
M  V30 808 C 74.072 3.46684 -0.0332629 0
M  V30 809 C 73.133 4.15997 -1.06042 0
M  V30 810 C 72.366 5.31654 -0.466893 0
M  V30 811 O 72.589 5.65777 0.724758 0
M  V30 812 O 71.523 5.89831 -1.1993 0
M  V30 813 H 75.349 2.61016 -1.55255 0
M  V30 814 H 72.934 1.24919 -0.81949 0
M  V30 815 H 74.816 4.20234 0.313256 0
M  V30 816 H 73.491 3.12703 0.836566 0
M  V30 817 H 72.398 3.44482 -1.45886 0
M  V30 818 H 73.731 4.53996 -1.90127 0
M  V30 819 N 75.3831 0.828654 1.34056 0
M  V30 820 C 76.3461 0.259927 2.27721 0
M  V30 821 C 77.3461 -0.565478 1.50529 0
M  V30 822 O 78.5361 -0.38075 1.69988 0
M  V30 823 C 75.6681 -0.634944 3.34935 0
M  V30 824 H 76.8611 1.0863 2.79534 0
M  V30 825 H 74.4141 0.600951 1.44285 0
M  V30 826 H 75.1491 -1.48416 2.88346 0
M  V30 827 H 74.9341 -0.0444999 3.92075 0
M  V30 828 H 76.4241 -1.02648 4.04788 0
M  V30 829 N 76.8612 -1.46375 0.584142 0
M  V30 830 C 77.8092 -2.32042 -0.161047 0
M  V30 831 C 78.8032 -1.44569 -0.882966 0
M  V30 832 O 80.0092 -1.61186 -0.801191 0
M  V30 833 H 76.3842 -0.748659 -0.0708033 0
M  V30 834 H 78.3552 -2.92704 0.580269 0
M  V30 835 C 77.1042 -3.27762 -1.1605 0
M  V30 836 H 76.4272 -3.95051 -0.614419 0
M  V30 837 H 77.8672 -3.90481 -1.65228 0
M  V30 838 C 76.3262 -2.53218 -2.22221 0
M  V30 839 O 76.8562 -2.29628 -3.29597 0
M  V30 840 N 75.0622 -2.13756 -1.96868 0
M  V30 841 H 74.6092 -2.33142 -1.09557 0
M  V30 842 H 74.5672 -1.642 -2.68115 0
M  V30 843 N 78.3393 -0.321999 -1.54275 0
M  V30 844 C 79.5793 0.281657 -2.0245 0
M  V30 845 C 79.9433 1.49468 -1.20513 0
M  V30 846 O 81.1443 2.17109 -1.58484 0
M  V30 847 C 79.4153 0.609014 -3.52173 0
M  V30 848 S 80.9743 1.19255 -4.22284 0
M  V30 849 H 77.7923 0.0852825 -0.705867 0
M  V30 850 H 80.3943 -0.454758 -1.90137 0
M  V30 851 H 79.0983 -0.281982 -4.0943 0
M  V30 852 H 78.6293 1.37567 -3.68563 0
M  V30 853 H 80.6443 2.47944 -4.29812 0
M  V30 854 N 79.8174 1.5752 -0.0501392 0
M  V30 855 C 81.0454 1.96963 0.633492 0
M  V30 856 C 81.4604 0.927631 1.6444 0
M  V30 857 O 80.8174 -0.0882665 1.82286 0
M  V30 858 C 80.8684 3.36487 1.32132 0
M  V30 859 O 80.5894 4.36693 0.350894 0
M  V30 860 C 82.0904 3.90682 2.09481 0
M  V30 861 H 79.3104 0.648244 0.173266 0
M  V30 862 H 81.8544 2.0417 -0.116134 0
M  V30 863 H 80.0094 3.30434 2.02218 0
M  V30 864 H 80.4234 5.17702 0.841735 0
M  V30 865 H 81.8974 4.90591 2.5303 0
M  V30 866 H 82.3744 3.26053 2.94255 0
M  V30 867 H 82.9804 4.00069 1.44307 0
M  V30 868 N 81.2955 -0.223234 1.56011 0
M  V30 869 C 82.5415 -0.949279 1.79211 0
M  V30 870 C 82.8745 -1.84054 0.619494 0
M  V30 871 O 82.1495 -1.90726 -0.381317 0
M  V30 872 C 82.4325 -1.78965 3.12479 0
M  V30 873 C 82.2855 -0.924997 4.40186 0
M  V30 874 C 83.6045 -2.76774 3.42175 0
M  V30 875 H 80.7235 -0.343676 0.651963 0
M  V30 876 H 83.3655 -0.218253 1.88742 0
M  V30 877 H 81.5155 -2.41291 3.04485 0
M  V30 878 H 83.1875 -0.318615 4.60198 0
M  V30 879 H 81.4305 -0.230344 4.33188 0
M  V30 880 H 82.1015 -1.54735 5.29869 0
M  V30 881 H 84.5775 -2.24584 3.50287 0
M  V30 882 H 83.4535 -3.32678 4.36597 0
M  V30 883 H 83.7145 -3.54429 2.64258 0
M  V30 884 N 82.7736 -1.49793 -0.48987 0
M  V30 885 C 83.7036 -1.70201 -1.59856 0
M  V30 886 C 84.6846 -0.55076 -1.60937 0
M  V30 887 O 85.8696 -0.787841 -1.77501 0
M  V30 888 C 82.9996 -1.77882 -2.98287 0
M  V30 889 C 81.9536 -2.92907 -3.12073 0
M  V30 890 C 81.2796 -2.85712 -4.51965 0
M  V30 891 C 82.5796 -4.3369 -2.91051 0
M  V30 892 H 84.2736 -2.63025 -1.43032 0
M  V30 893 H 81.8196 -1.26574 -0.686664 0
M  V30 894 H 83.7726 -1.90744 -3.75759 0
M  V30 895 H 82.4966 -0.816653 -3.16225 0
M  V30 896 H 81.1556 -2.79665 -2.37029 0
M  V30 897 H 80.8036 -1.8738 -4.66795 0
M  V30 898 H 80.5036 -3.62921 -4.62128 0
M  V30 899 H 82.0276 -3.00598 -5.31482 0
M  V30 900 H 83.4416 -4.47555 -3.58284 0
M  V30 901 H 81.8386 -5.12205 -3.12675 0
M  V30 902 H 82.9086 -4.47362 -1.87071 0
M  V30 903 N 84.2517 0.741722 -1.39055 0
M  V30 904 C 85.4767 1.53607 -1.39354 0
M  V30 905 C 85.9017 1.88096 0.0116905 0
M  V30 906 O 85.2597 1.5143 0.996924 0
M  V30 907 C 85.3077 2.80441 -2.26682 0
M  V30 908 O 84.4117 3.76088 -1.69208 0
M  V30 909 H 83.7527 0.464142 -0.474835 0
M  V30 910 H 86.2827 0.915665 -1.82967 0
M  V30 911 H 86.2927 3.29246 -2.40959 0
M  V30 912 H 84.9677 2.5467 -3.2881 0
M  V30 913 H 83.5447 3.34833 -1.64138 0
M  V30 914 N 85.7298 1.2412 0.971189 0
M  V30 915 C 86.9758 1.08041 1.71625 0
M  V30 916 C 87.3088 -0.380407 1.90438 0
M  V30 917 O 86.5838 -1.28127 1.46334 0
M  V30 918 C 86.8668 1.81682 3.10908 0
M  V30 919 C 86.7198 3.35493 2.99608 0
M  V30 920 C 88.0388 1.58671 4.10501 0
M  V30 921 H 85.1578 0.39388 0.622919 0
M  V30 922 H 87.7998 1.52743 1.13003 0
M  V30 923 H 85.9498 1.43684 3.60953 0
M  V30 924 H 87.6218 3.83068 2.57015 0
M  V30 925 H 85.8648 3.64052 2.35899 0
M  V30 926 H 86.5358 3.82217 3.98264 0
M  V30 927 H 89.0118 1.91719 3.69301 0
M  V30 928 H 87.8878 2.1266 5.06031 0
M  V30 929 H 88.1488 0.524161 4.38982 0
M  V30 930 N 87.2079 -1.17134 1.05439 0
M  V30 931 C 88.1399 -2.2078 0.615539 0
M  V30 932 C 89.1529 -1.59584 -0.322001 0
M  V30 933 O 90.3419 -1.78133 -0.114344 0
M  V30 934 C 87.4419 -3.38691 -0.118938 0
M  V30 935 C 86.6149 -4.29454 0.829924 0
M  V30 936 C 85.6739 -5.26024 0.136258 0
M  V30 937 O 84.6999 -5.63952 0.77115 0
M  V30 938 N 85.9019 -5.69487 -1.1254 0
M  V30 939 H 88.6669 -2.59052 1.50705 0
M  V30 940 H 86.2279 -1.32058 0.936603 0
M  V30 941 H 88.2199 -4.00329 -0.593179 0
M  V30 942 H 86.7899 -2.98996 -0.91215 0
M  V30 943 H 86.0099 -3.65211 1.48373 0
M  V30 944 H 87.2979 -4.86984 1.47392 0
M  V30 945 H 86.6959 -5.4075 -1.6615 0
M  V30 946 H 85.2529 -6.33257 -1.54366 0
M  V30 947 N 88.686 -0.835752 -1.33615 0
M  V30 948 C 89.618 -0.224151 -2.28101 0
M  V30 949 C 90.631 0.593331 -1.51603 0
M  V30 950 O 91.82 0.420911 -1.73466 0
M  V30 951 C 88.92 0.703309 -3.31522 0
M  V30 952 C 88.093 -0.0741528 -4.37337 0
M  V30 953 C 87.152 0.776176 -5.20444 0
M  V30 954 O 86.178 0.216506 -5.68788 0
M  V30 955 N 87.38 2.09401 -5.41416 0
M  V30 956 H 90.145 -1.03598 -2.81225 0
M  V30 957 H 87.706 -0.69392 -1.46275 0
M  V30 958 H 89.698 1.27707 -3.84022 0
M  V30 959 H 88.268 1.41585 -2.78698 0
M  V30 960 H 87.488 -0.82928 -3.85378 0
M  V30 961 H 88.776 -0.608863 -5.05144 0
M  V30 962 H 88.174 2.57229 -5.03835 0
M  V30 963 H 86.731 2.61633 -5.96985 0
M  V30 964 N 90.1641 1.46063 -0.591896 0
M  V30 965 C 91.4131 2.01547 -0.0786637 0
M  V30 966 C 91.7261 1.46796 1.29268 0
M  V30 967 O 92.9321 1.94157 1.89777 0
M  V30 968 C 91.3881 3.59787 -0.0900024 0
M  V30 969 C 90.9961 4.23534 -1.46023 0
M  V30 970 C 92.7401 4.22895 0.368806 0
M  V30 971 C 90.6471 5.73881 -1.4288 0
M  V30 972 H 89.5771 0.753564 -0.0256388 0
M  V30 973 H 92.2281 1.677 -0.744905 0
M  V30 974 H 90.6101 3.90752 0.642586 0
M  V30 975 H 91.7841 4.04167 -2.21328 0
M  V30 976 H 90.0991 3.72558 -1.85982 0
M  V30 977 H 92.6961 5.33116 0.411258 0
M  V30 978 H 93.0391 3.9247 1.38827 0
M  V30 979 H 93.5721 3.9659 -0.31001 0
M  V30 980 H 90.3111 6.0898 -2.42536 0
M  V30 981 H 89.8311 5.95486 -0.718095 0
M  V30 982 H 91.5101 6.36776 -1.14565 0
M  V30 983 N 91.6422 0.330177 1.54103 0
M  V30 984 C 92.8902 -0.269871 2.0029 0
M  V30 985 C 93.2112 -1.52133 1.21986 0
M  V30 986 O 92.4812 -1.93212 0.323438 0
M  V30 987 H 91.0612 -0.10271 0.739905 0
M  V30 988 H 93.7232 0.448249 1.89675 0
M  V30 989 H 92.8192 -0.52166 3.07709 0
M  V30 990 N 93.1203 -1.57491 0.0584922 0
M  V30 991 C 94.0303 -2.15448 -0.928414 0
M  V30 992 C 95.0463 -1.11416 -1.3365 0
M  V30 993 O 96.2223 -1.4362 -1.41193 0
M  V30 994 C 93.2873 -2.69393 -2.18239 0
M  V30 995 C 92.3483 -3.88249 -1.83196 0
M  V30 996 C 91.5813 -4.39613 -3.02616 0
M  V30 997 O 91.8043 -3.90023 -4.16219 0
M  V30 998 O 90.7383 -5.31111 -2.83204 0
M  V30 999 H 94.5643 -3.00112 -0.465483 0
M  V30 1000 H 92.1493 -1.48499 -0.163826 0
M  V30 1001 H 94.0313 -3.04026 -2.91798 0
M  V30 1002 H 92.7063 -1.87796 -2.63656 0
M  V30 1003 H 91.6133 -3.58492 -1.06931 0
M  V30 1004 H 92.9463 -4.71098 -1.42573 0
M  V30 1005 N 94.5984 0.214957 -1.56127 0
M  V30 1006 C 95.8444 0.939762 -1.79712 0
M  V30 1007 C 96.1774 1.83723 -0.629247 0
M  V30 1008 O 95.4524 1.90925 0.371197 0
M  V30 1009 C 95.7354 1.77306 -3.13424 0
M  V30 1010 C 95.5884 0.90164 -4.40671 0
M  V30 1011 C 96.9074 2.74956 -3.43638 0
M  V30 1012 H 94.0264 0.340214 -0.653776 0
M  V30 1013 H 96.6684 0.20824 -1.88855 0
M  V30 1014 H 94.8184 2.39673 -3.0576 0
M  V30 1015 H 96.4904 0.294206 -4.60361 0
M  V30 1016 H 94.7334 0.207368 -4.33304 0
M  V30 1017 H 95.4044 1.51923 -5.30682 0
M  V30 1018 H 97.8804 2.22724 -3.51473 0
M  V30 1019 H 96.7564 3.30358 -4.38355 0
M  V30 1020 H 97.0174 3.53023 -2.66134 0
M  V30 1021 N 96.0765 1.50051 0.48192 0
M  V30 1022 C 97.3235 1.60498 1.23477 0
M  V30 1023 C 97.6515 0.300331 1.92167 0
M  V30 1024 O 96.9065 -0.713094 1.82246 0
M  V30 1025 C 97.2055 2.72717 2.30998 0
M  V30 1026 C 96.8715 4.13572 1.79636 0
M  V30 1027 C 95.5335 4.519 1.65348 0
M  V30 1028 C 97.8855 5.01649 1.41412 0
M  V30 1029 C 95.2135 5.76057 1.11244 0
M  V30 1030 C 97.5655 6.26343 0.887538 0
M  V30 1031 C 96.2295 6.63483 0.731207 0
M  V30 1032 H 95.4995 0.587303 0.451836 0
M  V30 1033 H 98.1465 1.83948 0.532468 0
M  V30 1034 H 96.4515 2.43312 3.07094 0
M  V30 1035 H 98.1485 2.78006 2.88988 0
M  V30 1036 H 94.7385 3.83329 1.91721 0
M  V30 1037 H 98.9225 4.72679 1.51289 0
M  V30 1038 H 94.1785 6.03516 0.978686 0
M  V30 1039 H 98.3525 6.93958 0.582654 0
M  V30 1040 H 95.9795 7.59568 0.309806 0
M  V30 1041 N 97.5546 -0.734337 1.39446 0
M  V30 1042 C 98.4646 -1.87879 1.40495 0
M  V30 1043 C 99.4806 -1.714 0.299672 0
M  V30 1044 O 100.657 -1.93991 0.541249 0
M  V30 1045 C 97.7216 -3.23477 1.24754 0
M  V30 1046 C 96.7826 -3.52344 2.45259 0
M  V30 1047 C 96.0156 -4.81473 2.30259 0
M  V30 1048 O 96.2386 -5.55237 1.30643 0
M  V30 1049 O 95.1726 -5.10254 3.19256 0
M  V30 1050 H 98.9986 -1.89949 2.36966 0
M  V30 1051 H 96.5836 -0.882243 1.20569 0
M  V30 1052 H 98.4656 -4.04509 1.18111 0
M  V30 1053 H 97.1406 -3.22176 0.313781 0
M  V30 1054 H 96.0476 -2.71396 2.57478 0
M  V30 1055 H 97.3806 -3.58426 3.37331 0
M  V30 1056 N 99.0327 -1.24633 -0.964593 0
M  V30 1057 C 100.273 -1.09981 -1.72289 0
M  V30 1058 C 100.637 0.354792 -1.88693 0
M  V30 1059 O 101.838 0.62289 -2.61483 0
M  V30 1060 C 100.109 -1.82262 -3.07434 0
M  V30 1061 S 101.668 -1.83379 -3.98645 0
M  V30 1062 H 98.4857 -0.393292 -0.59232 0
M  V30 1063 H 101.088 -1.58009 -1.15123 0
M  V30 1064 H 99.7917 -2.87206 -2.93157 0
M  V30 1065 H 99.3227 -1.3458 -3.69664 0
M  V30 1066 H 101.338 -0.903691 -4.87901 0
M  V30 1067 N 100.511 1.16574 -1.06058 0
M  V30 1068 C 101.739 1.90952 -0.796552 0
M  V30 1069 C 102.154 1.77302 0.648808 0
M  V30 1070 O 101.511 1.11605 1.44397 0
M  V30 1071 C 101.562 3.41736 -1.17894 0
M  V30 1072 O 101.283 3.54975 -2.56758 0
M  V30 1073 C 102.784 4.33169 -0.942308 0
M  V30 1074 H 100.004 0.605594 -0.288959 0
M  V30 1075 H 102.548 1.47777 -1.41358 0
M  V30 1076 H 100.703 3.82623 -0.606491 0
M  V30 1077 H 101.117 4.4846 -2.72 0
M  V30 1078 H 102.591 5.37439 -1.25952 0
M  V30 1079 H 103.068 4.3903 0.122078 0
M  V30 1080 H 103.674 3.98007 -1.49902 0
M  V30 1081 N 101.989 0.842826 1.3317 0
M  V30 1082 C 103.236 0.440447 1.97652 0
M  V30 1083 C 103.564 -1.00123 1.6675 0
M  V30 1084 O 102.819 -1.7155 0.941761 0
M  V30 1085 C 103.118 0.612607 3.52111 0
M  V30 1086 C 102.784 2.02297 4.02972 0
M  V30 1087 C 101.446 2.40874 4.16573 0
M  V30 1088 C 103.798 2.94402 4.30089 0
M  V30 1089 C 101.126 3.70852 4.54627 0
M  V30 1090 C 103.478 4.23865 4.69597 0
M  V30 1091 C 102.142 4.62392 4.81404 0
M  V30 1092 H 101.412 0.161171 0.72326 0
M  V30 1093 H 104.059 1.07061 1.58777 0
M  V30 1094 H 102.364 -0.100849 3.9167 0
M  V30 1095 H 104.061 0.2815 4.00011 0
M  V30 1096 H 100.651 1.71338 3.92863 0
M  V30 1097 H 104.835 2.65835 4.19101 0
M  V30 1098 H 100.091 4.00501 4.61962 0
M  V30 1099 H 104.265 4.95306 4.89536 0
M  V30 1100 H 101.892 5.63154 5.10648 0
M  V30 1101 N 103.467 -1.45747 0.599634 0
M  V30 1102 C 104.695 -2.06668 0.0978551 0
M  V30 1103 C 105.11 -1.44562 -1.21439 0
M  V30 1104 O 104.467 -0.556923 -1.73795 0
M  V30 1105 C 104.518 -3.61456 -0.0567044 0
M  V30 1106 O 104.239 -4.21242 1.20361 0
M  V30 1107 C 105.74 -4.39345 -0.590869 0
M  V30 1108 H 102.96 -0.667825 0.0651943 0
M  V30 1109 H 105.504 -1.87115 0.82511 0
M  V30 1110 H 103.659 -3.80378 -0.734251 0
M  V30 1111 H 104.073 -5.14323 1.02821 0
M  V30 1112 H 105.547 -5.48182 -0.648131 0
M  V30 1113 H 106.024 -4.08568 -1.61147 0
M  V30 1114 H 106.63 -4.25268 0.0523679 0
M  V30 1115 N 104.945 -0.338344 -1.53925 0
M  V30 1116 C 106.185 0.260168 -2.02737 0
M  V30 1117 C 106.549 1.48181 -1.22092 0
M  V30 1118 O 107.75 2.15416 -1.60777 0
M  V30 1119 C 106.021 0.571627 -3.52799 0
M  V30 1120 S 107.58 1.14769 -4.23525 0
M  V30 1121 H 104.398 0.077791 -0.706732 0
M  V30 1122 H 107 -0.474899 -1.89644 0
M  V30 1123 H 105.704 -0.325392 -4.09108 0
M  V30 1124 H 105.235 1.3365 -3.70002 0
M  V30 1125 H 107.25 2.43372 -4.32417 0
M  V30 1126 N 106.423 1.57458 -0.0668435 0
M  V30 1127 C 107.671 1.92919 0.602214 0
M  V30 1128 C 107.992 0.947215 1.70449 0
M  V30 1129 O 107.262 -0.00544117 1.95899 0
M  V30 1130 H 105.842 0.71217 0.22544 0
M  V30 1131 H 108.504 1.94508 -0.123535 0
M  V30 1132 H 107.6 2.94589 1.03073 0
M  V30 1133 N 107.901 -0.206675 1.56239 0
M  V30 1134 C 108.864 -1.23976 1.92776 0
M  V30 1135 C 109.864 -1.39041 0.807729 0
M  V30 1136 O 111.054 -1.37051 1.0753 0
M  V30 1137 C 108.186 -2.61112 2.19165 0
M  V30 1138 H 109.379 -0.927764 2.85189 0
M  V30 1139 H 106.932 -0.447718 1.4975 0
M  V30 1140 H 107.667 -2.97386 1.29352 0
M  V30 1141 H 107.452 -2.51552 3.00772 0
M  V30 1142 H 108.942 -3.35633 2.48476 0
M  V30 1143 N 109.379 -1.50304 -0.473955 0
M  V30 1144 C 110.656 -1.51667 -1.23518 0
M  V30 1145 C 111.036 -0.259701 -2.09496 0
M  V30 1146 O 110.384 0.756986 -2.15597 0
M  V30 1147 C 110.594 -2.81082 -2.06868 0
M  V30 1148 C 111.942 -3.31631 -2.65153 0
M  V30 1149 O 112.966 -2.82384 -2.17113 0
M  V30 1150 O 111.825 -4.17471 -3.52675 0
M  V30 1151 H 108.919 -0.60822 -0.560355 0
M  V30 1152 H 111.465 -1.62592 -0.486011 0
M  V30 1153 H 110.237 -3.64041 -1.4349 0
M  V30 1154 H 109.86 -2.73146 -2.88924 0
M  V30 1155 N 110.857 0.726932 -1.39834 0
M  V30 1156 C 112.097 1.4992 -1.38936 0
M  V30 1157 C 112.461 1.91996 0.0126883 0
M  V30 1158 O 113.662 2.68399 0.146715 0
M  V30 1159 C 111.933 2.70013 -2.34153 0
M  V30 1160 S 113.492 3.59563 -2.51515 0
M  V30 1161 H 110.31 0.51271 -0.492595 0
M  V30 1162 H 112.912 0.85107 -1.76003 0
M  V30 1163 H 111.616 2.37254 -3.34871 0
M  V30 1164 H 111.147 3.39748 -1.98331 0
M  V30 1165 H 113.162 4.63973 -1.75909 0
M  V30 1166 N 112.336 1.25143 0.95797 0
M  V30 1167 C 113.752 1.01892 1.22842 0
M  V30 1168 C 113.952 -0.266311 1.99732 0
M  V30 1169 O 113.008 -0.979913 2.3271 0
M  V30 1170 C 114.321 2.24004 2.00606 0
M  V30 1171 C 115.869 2.28731 2.13662 0
M  V30 1172 C 116.344 3.5049 2.94823 0
M  V30 1173 N 117.835 3.50866 3.02403 0
M  V30 1174 C 118.57 4.4174 3.65586 0
M  V30 1175 N 118.066 5.42882 4.30408 0
M  V30 1176 N 119.859 4.29429 3.62694 0
M  V30 1177 H 112.01 2.07718 0.443493 0
M  V30 1178 H 114.273 0.912031 0.258657 0
M  V30 1179 H 113.979 3.17395 1.51503 0
M  V30 1180 H 113.853 2.26907 3.01319 0
M  V30 1181 H 116.24 1.35865 2.61963 0
M  V30 1182 H 116.321 2.29848 1.12265 0
M  V30 1183 H 115.965 4.43676 2.47213 0
M  V30 1184 H 115.895 3.46617 3.96439 0
M  V30 1185 H 118.386 2.777 2.56302 0
M  V30 1186 H 118.699 6.0844 4.76467 0
M  V30 1187 H 117.044 5.46758 4.29047 0
M  V30 1188 H 120.235 3.49643 3.11236 0
M  V30 1189 H 120.408 5.00448 4.1165 0
M  V30 1190 N 113.814 -1.1601 1.06675 0
M  V30 1191 C 115.062 -1.86264 0.784229 0
M  V30 1192 C 115.383 -1.82328 -0.691488 0
M  V30 1193 O 114.653 -1.25947 -1.50047 0
M  V30 1194 H 113.233 -0.689621 0.28711 0
M  V30 1195 H 115.895 -1.40664 1.34906 0
M  V30 1196 H 114.991 -2.91595 1.11259 0
M  V30 1197 N 115.292 -0.849877 -1.32721 0
M  V30 1198 C 116.52 -0.464754 -2.01613 0
M  V30 1199 C 116.935 0.937191 -1.63897 0
M  V30 1200 O 116.292 1.61081 -0.857856 0
M  V30 1201 C 116.343 -0.588638 -3.56675 0
M  V30 1202 O 116.064 -1.93535 -3.93034 0
M  V30 1203 C 117.565 -0.2019 -4.4284 0
M  V30 1204 H 114.785 -0.183215 -0.645502 0
M  V30 1205 H 117.329 -1.1455 -1.69407 0
M  V30 1206 H 115.484 0.0443159 -3.87375 0
M  V30 1207 H 115.898 -1.92871 -4.87751 0
M  V30 1208 H 117.372 -0.339599 -5.50954 0
M  V30 1209 H 117.849 0.857224 -4.30753 0
M  V30 1210 H 118.455 -0.809733 -4.17521 0
M  V30 1211 N 116.77 1.45427 -0.607355 0
M  V30 1212 C 117.995 2.07124 -0.107006 0
M  V30 1213 C 118.42 1.44906 1.19933 0
M  V30 1214 O 117.778 0.541687 1.73019 0
M  V30 1215 C 117.826 3.60595 0.0194119 0
M  V30 1216 O 116.93 3.98285 1.0697 0
M  V30 1217 H 116.271 0.659868 -0.0739597 0
M  V30 1218 H 118.801 1.86683 -0.837297 0
M  V30 1219 H 118.811 4.07419 0.2177 0
M  V30 1220 H 117.486 4.05266 -0.934453 0
M  V30 1221 H 116.063 3.63133 0.847889 0
M  V30 1222 N 118.248 0.346503 1.53744 0
M  V30 1223 C 119.18 -0.543316 2.22667 0
M  V30 1224 C 120.193 -1.06159 1.23427 0
M  V30 1225 O 121.382 -0.971235 1.49764 0
M  V30 1226 C 118.482 -1.76076 2.89569 0
M  V30 1227 C 117.655 -1.37727 4.15151 0
M  V30 1228 C 116.714 -2.45471 4.65436 0
M  V30 1229 O 115.74 -2.08655 5.29577 0
M  V30 1230 N 116.942 -3.7677 4.41616 0
M  V30 1231 H 119.707 0.0469703 2.99663 0
M  V30 1232 H 117.268 0.170766 1.60997 0
M  V30 1233 H 119.26 -2.47593 3.20125 0
M  V30 1234 H 117.83 -2.25835 2.16142 0
M  V30 1235 H 117.05 -0.492746 3.91108 0
M  V30 1236 H 118.338 -1.09708 4.96832 0
M  V30 1237 H 117.736 -4.09467 3.90325 0
M  V30 1238 H 116.293 -4.44448 4.7677 0
M  V30 1239 N 119.726 -1.57421 0.075193 0
M  V30 1240 C 120.956 -1.97659 -0.601203 0
M  V30 1241 C 121.364 -0.952427 -1.63479 0
M  V30 1242 O 120.707 0.0688241 -1.83571 0
M  V30 1243 C 120.769 -3.34218 -1.32434 0
M  V30 1244 C 120.433 -4.5484 -0.443826 0
M  V30 1245 C 121.43 -5.19034 0.299969 0
M  V30 1246 C 119.115 -5.00952 -0.367709 0
M  V30 1247 C 121.109 -6.27695 1.10807 0
M  V30 1248 C 118.796 -6.09484 0.444058 0
M  V30 1249 C 119.794 -6.72719 1.18061 0
M  V30 1250 O 119.482 -7.79161 1.97898 0
M  V30 1251 H 119.214 -0.65494 -0.167422 0
M  V30 1252 H 121.768 -2.04886 0.145157 0
M  V30 1253 H 119.998 -3.23615 -2.11685 0
M  V30 1254 H 121.687 -3.59038 -1.89331 0
M  V30 1255 H 122.453 -4.84351 0.250776 0
M  V30 1256 H 118.332 -4.51509 -0.930638 0
M  V30 1257 H 121.876 -6.76982 1.68347 0
M  V30 1258 H 117.773 -6.43601 0.494803 0
M  V30 1259 H 118.541 -7.96055 1.90367 0
M  V30 1260 N 121.204 0.198386 -1.56346 0
M  V30 1261 C 122.615 0.763358 -1.70381 0
M  V30 1262 C 122.966 1.83995 -0.681203 0
M  V30 1263 O 122.091 2.15785 0.16305 0
M  V30 1264 C 122.686 1.39143 -3.08909 0
M  V30 1265 C 121.245 1.90352 -3.2472 0
M  V30 1266 C 120.392 0.772233 -2.6633 0
M  V30 1267 H 123.343 -0.0266377 -1.58678 0
M  V30 1268 H 123.364 2.26076 -3.06055 0
M  V30 1269 H 122.876 0.607638 -3.83314 0
M  V30 1270 H 120.977 2.71461 -2.55225 0
M  V30 1271 H 121.09 2.06757 -4.3219 0
M  V30 1272 H 119.454 1.18566 -2.2542 0
M  V30 1273 H 120.237 0.00073556 -3.433 0
M  V30 1274 N 122.682 1.50554 0.465978 0
M  V30 1275 C 123.922 1.63439 1.22747 0
M  V30 1276 C 124.286 0.329822 1.89146 0
M  V30 1277 O 125.487 0.334161 2.66715 0
M  V30 1278 C 123.758 2.78542 2.2394 0
M  V30 1279 S 125.317 3.11591 3.0896 0
M  V30 1280 H 122.135 0.576113 0.416672 0
M  V30 1281 H 124.737 1.88357 0.523641 0
M  V30 1282 H 123.441 3.71805 1.7375 0
M  V30 1283 H 122.972 2.55726 2.98944 0
M  V30 1284 H 124.987 2.55811 4.25176 0
M  V30 1285 N 124.16 -0.719506 1.40217 0
M  V30 1286 C 125.406 -1.48152 1.38488 0
M  V30 1287 C 125.739 -1.94195 -0.0141867 0
M  V30 1288 O 125.014 -1.67884 -0.982096 0
M  V30 1289 C 125.297 -2.71035 2.37091 0
M  V30 1290 C 125.15 -2.30912 3.86005 0
M  V30 1291 C 126.469 -3.73182 2.33288 0
M  V30 1292 H 123.588 -0.537395 0.504357 0
M  V30 1293 H 126.23 -0.821472 1.71324 0
M  V30 1294 H 124.38 -3.27352 2.0922 0
M  V30 1295 H 126.052 -1.80107 4.24687 0
M  V30 1296 H 124.295 -1.62958 4.02029 0
M  V30 1297 H 124.966 -3.18978 4.50508 0
M  V30 1298 H 127.442 -3.26485 2.57966 0
M  V30 1299 H 126.318 -4.56806 3.04334 0
M  V30 1300 H 126.579 -4.21202 1.34317 0
M  V30 1301 N 125.638 -1.25649 -0.95132 0
M  V30 1302 C 126.57 -1.02112 -2.05197 0
M  V30 1303 C 127.583 0.0150571 -1.62793 0
M  V30 1304 O 128.772 -0.223874 -1.77091 0
M  V30 1305 C 125.872 -0.522361 -3.3485 0
M  V30 1306 C 125.045 -1.62546 -4.06076 0
M  V30 1307 C 124.104 -1.12649 -5.14001 0
M  V30 1308 O 123.13 -1.82156 -5.39266 0
M  V30 1309 N 124.332 0.03047 -5.80492 0
M  V30 1310 H 127.097 -1.96885 -2.25957 0
M  V30 1311 H 124.658 -1.16899 -1.1201 0
M  V30 1312 H 126.65 -0.172961 -4.0433 0
M  V30 1313 H 125.22 0.33151 -3.10837 0
M  V30 1314 H 124.44 -2.14628 -3.30649 0
M  V30 1315 H 125.728 -2.36644 -4.50419 0
M  V30 1316 H 125.126 0.611169 -5.62389 0
M  V30 1317 H 123.683 0.320875 -6.5101 0
M  V30 1318 N 127.117 1.15442 -1.07289 0
M  V30 1319 C 128.363 1.86489 -0.796846 0
M  V30 1320 C 128.696 1.82078 0.675371 0
M  V30 1321 O 127.971 1.24346 1.4956 0
M  V30 1322 C 128.254 3.35626 -1.30489 0
M  V30 1323 C 128.107 3.48673 -2.84161 0
M  V30 1324 C 129.426 4.30357 -0.920907 0
M  V30 1325 H 126.545 0.677144 -0.290939 0
M  V30 1326 H 129.187 1.35633 -1.33056 0
M  V30 1327 H 127.337 3.79068 -0.850883 0
M  V30 1328 H 129.009 3.14099 -3.37846 0
M  V30 1329 H 127.252 2.90253 -3.22391 0
M  V30 1330 H 127.923 4.53453 -3.14777 0
M  V30 1331 H 130.399 3.94871 -1.3121 0
M  V30 1332 H 129.275 5.33193 -1.30372 0
M  V30 1333 H 129.536 4.4176 0.173226 0
M  V30 1334 N 128.595 0.856903 1.32268 0
M  V30 1335 C 129.825 0.47475 2.01071 0
M  V30 1336 C 130.233 -0.933746 1.64553 0
M  V30 1337 O 129.576 -1.62114 0.863989 0
M  V30 1338 C 129.638 0.536746 3.55471 0
M  V30 1339 C 129.302 1.90453 4.15423 0
M  V30 1340 C 130.299 2.87029 4.33486 0
M  V30 1341 C 127.984 2.20229 4.51447 0
M  V30 1342 C 129.978 4.11532 4.86744 0
M  V30 1343 C 127.665 3.44984 5.0441 0
M  V30 1344 C 128.663 4.40452 5.22007 0
M  V30 1345 O 128.351 5.62998 5.73837 0
M  V30 1346 H 128.083 0.184778 0.650256 0
M  V30 1347 H 130.637 1.15615 1.69771 0
M  V30 1348 H 128.867 -0.20152 3.86175 0
M  V30 1349 H 130.556 0.169875 4.05544 0
M  V30 1350 H 131.322 2.6533 4.05986 0
M  V30 1351 H 127.201 1.46705 4.37034 0
M  V30 1352 H 130.745 4.86056 5.00395 0
M  V30 1353 H 126.642 3.66532 5.31342 0
M  V30 1354 H 127.41 5.64987 5.92226 0
M  V30 1355 N 130.073 -1.45103 0.615059 0
M  V30 1356 C 131.319 -2.02483 0.113347 0
M  V30 1357 C 131.652 -1.48146 -1.25564 0
M  V30 1358 O 130.927 -0.659104 -1.82992 0
M  V30 1359 C 131.21 -3.60005 0.0825278 0
M  V30 1360 C 131.063 -4.2466 1.48271 0
M  V30 1361 C 132.382 -4.35972 -0.601401 0
M  V30 1362 H 129.501 -0.735764 0.0426632 0
M  V30 1363 H 132.143 -1.72868 0.788461 0
M  V30 1364 H 130.293 -3.85367 -0.492378 0
M  V30 1365 H 131.965 -4.10458 2.10527 0
M  V30 1366 H 130.208 -3.82772 2.04127 0
M  V30 1367 H 130.879 -5.336 1.41332 0
M  V30 1368 H 133.355 -4.15947 -0.112666 0
M  V30 1369 H 132.231 -5.45697 -0.592097 0
M  V30 1370 H 132.492 -4.09391 -1.66887 0
M  V30 1371 N 131.551 -0.354651 -1.53558 0
M  V30 1372 C 132.499 0.512195 -2.26891 0
M  V30 1373 C 133.493 1.09263 -1.29452 0
M  V30 1374 O 134.699 1.03709 -1.47121 0
M  V30 1375 H 131.074 0.183878 -0.729173 0
M  V30 1376 H 133.045 -0.128202 -2.98124 0
M  V30 1377 C 131.794 1.64563 -3.06291 0
M  V30 1378 H 131.117 1.20829 -3.81104 0
M  V30 1379 H 132.557 2.22711 -3.60799 0
M  V30 1380 C 131.016 2.58158 -2.16462 0
M  V30 1381 O 131.546 3.60695 -1.76811 0
M  V30 1382 N 129.752 2.27096 -1.81317 0
M  V30 1383 H 129.299 1.43751 -2.1376 0
M  V30 1384 H 129.257 2.89975 -1.21498 0
M  V30 1385 N 133.029 1.57378 -0.0835403 0
M  V30 1386 C 133.977 2.14602 0.89714 0
M  V30 1387 C 134.971 1.08589 1.30018 0
M  V30 1388 O 136.177 1.26952 1.27606 0
M  V30 1389 H 132.552 0.686346 0.3073 0
M  V30 1390 H 134.523 2.95845 0.38969 0
M  V30 1391 C 133.272 2.73188 2.15089 0
M  V30 1392 H 132.595 3.54442 1.84962 0
M  V30 1393 H 134.035 3.1681 2.81793 0
M  V30 1394 C 132.494 1.68517 2.91725 0
M  V30 1395 O 133.024 1.11718 3.85852 0
M  V30 1396 N 131.23 1.39277 2.55049 0
M  V30 1397 H 130.777 1.85655 1.78577 0
M  V30 1398 H 130.735 0.694791 3.06627 0
M  V30 1399 N 134.507 -0.190092 1.56449 0
M  V30 1400 C 135.732 -0.929864 1.85387 0
M  V30 1401 C 136.157 -1.7585 0.667704 0
M  V30 1402 O 135.515 -1.77198 -0.383459 0
M  V30 1403 C 135.563 -1.79773 3.12593 0
M  V30 1404 O 134.667 -2.89713 2.93496 0
M  V30 1405 H 134.008 -0.261574 0.610307 0
M  V30 1406 H 136.538 -0.193896 2.03679 0
M  V30 1407 H 136.548 -2.20139 3.43515 0
M  V30 1408 H 135.223 -1.18892 3.98544 0
M  V30 1409 H 133.8 -2.53065 2.73884 0
M  V30 1410 N 135.985 -1.50799 -0.457987 0
M  V30 1411 C 136.895 -1.73426 -1.57989 0
M  V30 1412 C 137.911 -0.617745 -1.62665 0
M  V30 1413 O 139.087 -0.897614 -1.80291 0
M  V30 1414 C 136.152 -1.83557 -2.94122 0
M  V30 1415 C 135.213 -3.07345 -2.99729 0
M  V30 1416 C 134.446 -3.16983 -4.29368 0
M  V30 1417 O 134.669 -2.33077 -5.20607 0
M  V30 1418 O 133.603 -4.09812 -4.40837 0
M  V30 1419 H 137.429 -2.68555 -1.41817 0
M  V30 1420 H 135.014 -1.35052 -0.638859 0
M  V30 1421 H 136.896 -1.92326 -3.74952 0
M  V30 1422 H 135.571 -0.916137 -3.10465 0
M  V30 1423 H 134.478 -3.04068 -2.1793 0
M  V30 1424 H 135.811 -3.9891 -2.88326 0
M  V30 1425 N 137.463 0.71206 -1.40597 0
M  V30 1426 C 138.688 1.50617 -1.42581 0
M  V30 1427 C 139.113 1.88079 -0.0282102 0
M  V30 1428 O 138.471 1.53511 0.964579 0
M  V30 1429 C 138.519 2.7557 -2.3258 0
M  V30 1430 O 137.623 3.72414 -1.77148 0
M  V30 1431 H 136.964 0.453966 -0.484573 0
M  V30 1432 H 139.494 0.876649 -1.84868 0
M  V30 1433 H 139.504 3.2406 -2.47889 0
M  V30 1434 H 138.179 2.47639 -3.34138 0
M  V30 1435 H 136.756 3.31276 -1.71204 0
M  V30 1436 N 138.941 1.26152 0.944643 0
M  V30 1437 C 139.889 1.07215 2.06417 0
M  V30 1438 C 140.883 9.2007e-05 1.694 0
M  V30 1439 O 142.089 0.1565 1.79318 0
M  V30 1440 H 138.464 0.329837 0.675805 0
M  V30 1441 H 140.435 2.02099 2.19541 0
M  V30 1442 C 139.184 0.718197 3.40202 0
M  V30 1443 H 138.507 1.53497 3.69159 0
M  V30 1444 H 139.947 0.625459 4.19361 0
M  V30 1445 C 138.406 -0.576435 3.31932 0
M  V30 1446 O 138.936 -1.61574 3.67773 0
M  V30 1447 N 137.142 -0.565781 2.85039 0
M  V30 1448 H 136.689 0.280367 2.5607 0
M  V30 1449 H 136.647 -1.43213 2.79888 0
M  V30 1450 N 140.419 -1.14872 1.07899 0
M  V30 1451 C 141.644 -1.90202 0.826926 0
M  V30 1452 C 142.069 -1.77774 -0.614664 0
M  V30 1453 O 141.427 -1.11431 -1.43013 0
M  V30 1454 C 141.475 -3.38352 1.24702 0
M  V30 1455 O 140.579 -4.10497 0.39575 0
M  V30 1456 H 139.92 -0.591968 0.300782 0
M  V30 1457 H 142.45 -1.45437 1.43907 0
M  V30 1458 H 142.46 -3.89156 1.22563 0
M  V30 1459 H 141.135 -3.46715 2.29698 0
M  V30 1460 H 139.712 -3.69796 0.480117 0
M  V30 1461 N 141.898 -0.863906 -1.31812 0
M  V30 1462 C 143.314 -0.555004 -1.49639 0
M  V30 1463 C 143.514 0.912266 -1.79666 0
M  V30 1464 O 142.57 1.69479 -1.87171 0
M  V30 1465 C 143.883 -1.44998 -2.63431 0
M  V30 1466 C 145.431 -1.45138 -2.77316 0
M  V30 1467 C 145.906 -2.33179 -3.94197 0
M  V30 1468 N 147.397 -2.31025 -4.01474 0
M  V30 1469 C 148.132 -2.95871 -4.9117 0
M  V30 1470 N 147.628 -3.69863 -5.8581 0
M  V30 1471 N 149.421 -2.85211 -4.84367 0
M  V30 1472 H 141.572 -1.81339 -1.10589 0
M  V30 1473 H 143.835 -0.77505 -0.545895 0
M  V30 1474 H 143.541 -2.49377 -2.48 0
M  V30 1475 H 143.415 -1.14409 -3.59431 0
M  V30 1476 H 145.802 -0.415201 -2.92164 0
M  V30 1477 H 145.883 -1.79747 -1.82001 0
M  V30 1478 H 145.527 -3.3687 -3.80107 0
M  V30 1479 H 145.457 -1.95897 -4.88807 0
M  V30 1480 H 147.948 -1.77238 -3.33759 0
M  V30 1481 H 148.261 -4.16486 -6.50968 0
M  V30 1482 H 146.606 -3.73971 -5.85808 0
M  V30 1483 H 149.797 -2.26948 -4.09405 0
M  V30 1484 H 149.97 -3.36027 -5.54066 0
M  V30 1485 N 143.376 1.44774 -0.622745 0
M  V30 1486 C 144.339 2.29069 0.0774015 0
M  V30 1487 C 145.339 1.4059 0.780461 0
M  V30 1488 O 146.529 1.62551 0.626322 0
M  V30 1489 C 143.661 3.21974 1.12006 0
M  V30 1490 H 144.854 2.92459 -0.663901 0
M  V30 1491 H 142.407 1.51548 -0.382486 0
M  V30 1492 H 143.142 2.63417 1.89162 0
M  V30 1493 H 142.927 3.87168 0.619951 0
M  V30 1494 H 144.417 3.85318 1.60995 0
M  V30 1495 N 144.854 0.36279 1.53368 0
M  V30 1496 C 145.784 -0.476976 2.28576 0
M  V30 1497 C 146.765 -1.08631 1.30894 0
M  V30 1498 O 147.95 -1.10409 1.59761 0
M  V30 1499 C 145.08 -1.61828 3.07293 0
M  V30 1500 C 144.034 -1.13633 4.1264 0
M  V30 1501 C 143.36 -2.36766 4.79423 0
M  V30 1502 C 144.66 -0.223061 5.21823 0
M  V30 1503 H 146.354 0.150474 2.99022 0
M  V30 1504 H 143.9 0.0738103 1.43811 0
M  V30 1505 H 145.853 -2.21237 3.58653 0
M  V30 1506 H 144.577 -2.27292 2.34533 0
M  V30 1507 H 143.236 -0.564945 3.62221 0
M  V30 1508 H 142.884 -3.0068 4.03238 0
M  V30 1509 H 142.584 -2.05192 5.50609 0
M  V30 1510 H 144.108 -2.96865 5.33576 0
M  V30 1511 H 145.522 -0.724545 5.68703 0
M  V30 1512 H 143.919 0.001678 6.001 0
M  V30 1513 H 144.989 0.735553 4.79289 0
M  V30 1514 N 146.332 -1.57332 0.0918853 0
M  V30 1515 C 147.262 -2.16872 -0.865371 0
M  V30 1516 C 148.243 -1.10118 -1.29646 0
M  V30 1517 O 149.428 -1.38242 -1.36392 0
M  V30 1518 C 146.558 -2.74649 -2.12569 0
M  V30 1519 C 145.512 -3.86747 -1.83333 0
M  V30 1520 C 144.838 -4.31212 -3.16166 0
M  V30 1521 C 146.138 -5.10089 -1.1228 0
M  V30 1522 H 147.832 -2.97114 -0.369307 0
M  V30 1523 H 145.378 -1.42918 -0.176194 0
M  V30 1524 H 147.331 -3.14952 -2.7997 0
M  V30 1525 H 146.055 -1.91657 -2.64452 0
M  V30 1526 H 144.714 -3.46978 -1.18331 0
M  V30 1527 H 144.362 -3.45115 -3.6593 0
M  V30 1528 H 144.062 -5.06788 -2.97388 0
M  V30 1529 H 145.586 -4.74146 -3.84731 0
M  V30 1530 H 147 -5.47582 -1.69785 0
M  V30 1531 H 145.397 -5.91073 -1.03693 0
M  V30 1532 H 146.467 -4.84786 -0.105041 0
M  V30 1533 N 147.81 0.181792 -1.56548 0
M  V30 1534 C 148.76 1.22961 -1.92002 0
M  V30 1535 C 149.744 1.40331 -0.787146 0
M  V30 1536 O 150.936 1.42478 -1.05019 0
M  V30 1537 C 148.065 2.57144 -2.27446 0
M  V30 1538 C 147.151 2.43512 -3.47222 0
M  V30 1539 N 147.542 1.99577 -4.64761 0
M  V30 1540 C 145.84 2.74368 -3.51622 0
M  V30 1541 C 146.541 1.98156 -5.46909 0
M  V30 1542 N 145.517 2.40164 -4.8767 0
M  V30 1543 H 149.319 0.881462 -2.8037 0
M  V30 1544 H 146.833 0.390141 -1.57644 0
M  V30 1545 H 148.83 3.32847 -2.51035 0
M  V30 1546 H 147.49 2.92771 -1.40411 0
M  V30 1547 H 148.501 1.70078 -4.89177 0
M  V30 1548 H 145.178 3.14102 -2.75038 0
M  V30 1549 H 146.568 1.65975 -6.51077 0
M  V30 1550 N 149.288 1.51039 0.449983 0
M  V30 1551 C 150.513 1.6715 1.22783 0
M  V30 1552 C 150.938 0.363081 1.84563 0
M  V30 1553 O 150.296 -0.675433 1.68249 0
M  V30 1554 C 150.344 2.77985 2.29689 0
M  V30 1555 O 149.448 2.40707 3.34864 0
M  V30 1556 H 148.789 0.557746 0.360299 0
M  V30 1557 H 151.319 1.97535 0.533005 0
M  V30 1558 H 151.329 3.01693 2.74673 0
M  V30 1559 H 150.004 3.72935 1.84098 0
M  V30 1560 H 148.581 2.27523 2.95445 0
M  V30 1561 N 150.766 -0.704594 1.40972 0
M  V30 1562 C 152.043 -1.45847 1.30338 0
M  V30 1563 C 152.423 -2.10973 -0.0732344 0
M  V30 1564 O 151.771 -2.00997 -1.08685 0
M  V30 1565 C 151.981 -2.48525 2.45023 0
M  V30 1566 C 153.329 -3.1404 2.8577 0
M  V30 1567 O 154.353 -2.58848 2.44696 0
M  V30 1568 O 153.212 -4.13981 3.56766 0
M  V30 1569 H 150.306 -0.649092 0.512454 0
M  V30 1570 H 152.852 -0.735836 1.52917 0
M  V30 1571 H 151.624 -1.98994 3.36923 0
M  V30 1572 H 151.247 -3.2831 2.24272 0
M  V30 1573 N 152.244 -1.26651 -0.937939 0
M  V30 1574 C 153.154 -1.10276 -2.07066 0
M  V30 1575 C 154.17 -0.0354197 -1.73964 0
M  V30 1576 O 155.346 -0.239816 -1.99967 0
M  V30 1577 C 152.411 -0.740887 -3.38691 0
M  V30 1578 C 151.472 -1.88799 -3.85556 0
M  V30 1579 C 150.705 -1.54329 -5.10899 0
M  V30 1580 O 150.928 -0.446494 -5.6865 0
M  V30 1581 O 149.862 -2.37911 -5.52885 0
M  V30 1582 H 153.688 -2.05309 -2.23789 0
M  V30 1583 H 151.273 -1.05743 -1.0554 0
M  V30 1584 H 153.155 -0.55195 -4.1777 0
M  V30 1585 H 151.83 0.180022 -3.23199 0
M  V30 1586 H 150.737 -2.13191 -3.07409 0
M  V30 1587 H 152.07 -2.78874 -4.05574 0
M  V30 1588 N 153.722 1.14298 -1.08507 0
M  V30 1589 C 154.672 2.17449 -0.685569 0
M  V30 1590 C 155.656 1.58167 0.295315 0
M  V30 1591 O 156.848 1.76675 0.107172 0
M  V30 1592 C 153.977 3.43161 -0.0975318 0
M  V30 1593 C 153.063 4.09471 -1.10426 0
M  V30 1594 N 153.454 4.51089 -2.28806 0
M  V30 1595 C 151.752 4.35976 -0.940258 0
M  V30 1596 C 152.453 5.02654 -2.9277 0
M  V30 1597 N 151.429 4.96927 -2.20374 0
M  V30 1598 H 155.231 2.47369 -1.587 0
M  V30 1599 H 152.745 1.30992 -0.959936 0
M  V30 1600 H 154.742 4.16388 0.20664 0
M  V30 1601 H 153.402 3.14719 0.798872 0
M  V30 1602 H 154.413 4.44097 -2.66455 0
M  V30 1603 H 151.09 4.17386 -0.0977441 0
M  V30 1604 H 152.48 5.44723 -3.93352 0
M  V30 1605 N 155.201 0.870884 1.31352 0
M  V30 1606 C 156.133 0.28455 2.27427 0
M  V30 1607 C 157.146 -0.552927 1.53123 0
M  V30 1608 O 158.335 -0.374771 1.74521 0
M  V30 1609 C 155.435 -0.615164 3.3327 0
M  V30 1610 C 154.608 0.190079 4.36987 0
M  V30 1611 C 153.667 -0.637917 5.22319 0
M  V30 1612 O 152.693 -0.065626 5.69162 0
M  V30 1613 N 153.895 -1.94973 5.46778 0
M  V30 1614 H 156.66 1.11017 2.7838 0
M  V30 1615 H 154.221 0.732458 1.44384 0
M  V30 1616 H 156.213 -1.1748 3.87273 0
M  V30 1617 H 154.783 -1.34146 2.82354 0
M  V30 1618 H 154.003 0.931165 3.83044 0
M  V30 1619 H 155.291 0.742579 5.03352 0
M  V30 1620 H 154.689 -2.4378 5.10478 0
M  V30 1621 H 153.246 -2.45713 6.03712 0
M  V30 1622 N 156.679 -1.44442 0.630414 0
M  V30 1623 C 157.609 -2.33418 -0.0618083 0
M  V30 1624 C 158.59 -1.48165 -0.835541 0
M  V30 1625 O 159.775 -1.76886 -0.801564 0
M  V30 1626 C 156.905 -3.31222 -1.04449 0
M  V30 1627 C 155.859 -4.26288 -0.382436 0
M  V30 1628 C 155.185 -5.13954 -1.47497 0
M  V30 1629 C 156.485 -5.1744 0.710865 0
M  V30 1630 H 158.179 -2.91548 0.681184 0
M  V30 1631 H 155.725 -1.40191 0.329026 0
M  V30 1632 H 157.678 -3.92351 -1.53748 0
M  V30 1633 H 156.402 -2.71299 -1.81836 0
M  V30 1634 H 155.061 -3.6649 0.0899054 0
M  V30 1635 H 154.709 -4.50385 -2.2397 0
M  V30 1636 H 154.409 -5.7837 -1.03737 0
M  V30 1637 H 155.933 -5.77955 -1.96979 0
M  V30 1638 H 157.347 -5.72509 0.300996 0
M  V30 1639 H 155.744 -5.90455 1.07156 0
M  V30 1640 H 156.814 -4.58496 1.57829 0
M  V30 1641 N 158.157 -0.370918 -1.53173 0
M  V30 1642 C 159.087 0.464847 -2.28826 0
M  V30 1643 C 160.068 1.07936 -1.31468 0
M  V30 1644 O 161.253 1.0956 -1.60344 0
M  V30 1645 C 158.383 1.60196 -3.08147 0
M  V30 1646 C 157.337 1.11443 -4.13237 0
M  V30 1647 C 156.663 2.3422 -4.80672 0
M  V30 1648 C 157.963 0.195384 -5.21934 0
M  V30 1649 H 159.657 -0.166329 -2.98938 0
M  V30 1650 H 157.203 -0.0814359 -1.4377 0
M  V30 1651 H 159.156 2.19332 -3.59822 0
M  V30 1652 H 157.88 2.26045 -2.35735 0
M  V30 1653 H 156.539 0.545727 -3.62515 0
M  V30 1654 H 156.187 2.98537 -4.04827 0
M  V30 1655 H 155.887 2.02269 -5.51689 0
M  V30 1656 H 157.411 2.94032 -5.35143 0
M  V30 1657 H 158.825 0.694375 -5.69079 0
M  V30 1658 H 157.222 -0.0335027 -6.00091 0
M  V30 1659 H 158.292 -0.760961 -4.78892 0
M  V30 1660 N 159.635 1.57281 -0.100228 0
M  V30 1661 C 160.863 1.98879 0.570509 0
M  V30 1662 C 161.278 0.979476 1.61405 0
M  V30 1663 O 160.635 -0.0302288 1.82475 0
M  V30 1664 C 160.686 3.4052 1.2136 0
M  V30 1665 O 160.407 4.37588 0.211786 0
M  V30 1666 C 161.908 3.97149 1.96945 0
M  V30 1667 H 159.128 0.653428 0.152555 0
M  V30 1668 H 161.672 2.03697 -0.18103 0
M  V30 1669 H 159.827 3.367 1.91603 0
M  V30 1670 H 160.241 5.20118 0.676607 0
M  V30 1671 H 161.715 4.98393 2.37294 0
M  V30 1672 H 162.192 3.3525 2.83733 0
M  V30 1673 H 162.798 4.04458 1.31506 0
M  V30 1674 N 161.113 -0.173488 1.56642 0
M  V30 1675 C 162.061 -1.23417 1.97157 0
M  V30 1676 C 163.055 -1.45946 0.860013 0
M  V30 1677 O 164.261 -1.46551 1.04512 0
M  V30 1678 H 160.636 -0.414818 0.62724 0
M  V30 1679 H 162.607 -0.865582 2.8557 0
M  V30 1680 C 161.356 -2.5665 2.34576 0
M  V30 1681 H 160.679 -2.40137 3.19647 0
M  V30 1682 H 162.119 -3.2956 2.6677 0
M  V30 1683 C 160.578 -3.15245 1.18836 0
M  V30 1684 O 161.108 -3.98883 0.474869 0
M  V30 1685 N 159.314 -2.74303 0.959497 0
M  V30 1686 H 158.861 -2.0639 1.54146 0
M  V30 1687 H 158.819 -3.13844 0.186932 0
M  V30 1688 N 162.591 -1.51276 -0.441967 0
M  V30 1689 C 164.002 -1.56244 -1.02199 0
M  V30 1690 C 164.353 -0.383149 -1.92422 0
M  V30 1691 O 163.478 0.500613 -2.1053 0
M  V30 1692 C 164.073 -2.83162 -1.86024 0
M  V30 1693 C 162.632 -2.90716 -2.39084 0
M  V30 1694 C 161.779 -2.50858 -1.18175 0
M  V30 1695 H 164.73 -1.5712 -0.223416 0
M  V30 1696 H 164.751 -2.66663 -2.71425 0
M  V30 1697 H 164.263 -3.68974 -1.20331 0
M  V30 1698 H 162.364 -2.09323 -3.08244 0
M  V30 1699 H 162.477 -3.94266 -2.72198 0
M  V30 1700 H 160.841 -2.03951 -1.52565 0
M  V30 1701 H 161.624 -3.3901 -0.541001 0
M  V30 1702 N 164.069 0.697108 -1.41344 0
M  V30 1703 C 165.016 1.81106 -1.43071 0
M  V30 1704 C 165.986 1.63632 -0.285275 0
M  V30 1705 O 167.171 1.84504 -0.486091 0
M  V30 1706 C 164.311 3.18975 -1.31715 0
M  V30 1707 C 163.424 3.47892 -2.56115 0
M  V30 1708 C 162.559 4.75367 -2.37064 0
M  V30 1709 C 161.598 4.97247 -3.56948 0
M  V30 1710 N 160.735 6.15947 -3.36977 0
M  V30 1711 H 165.575 1.78965 -2.38276 0
M  V30 1712 H 163.112 0.873975 -1.18322 0
M  V30 1713 H 165.07 3.98615 -1.23133 0
M  V30 1714 H 163.7 3.20297 -0.401183 0
M  V30 1715 H 162.752 2.62669 -2.75153 0
M  V30 1716 H 164.064 3.59962 -3.45295 0
M  V30 1717 H 163.218 5.63059 -2.25941 0
M  V30 1718 H 161.957 4.65541 -1.45338 0
M  V30 1719 H 160.962 4.08004 -3.68527 0
M  V30 1720 H 162.187 5.08934 -4.49626 0
M  V30 1721 H 160.133 6.07336 -2.47949 0
M  V30 1722 H 160.05 6.28777 -4.19732 0
M  V30 1723 H 161.318 7.06377 -3.29623 0
M  V30 1724 N 165.547 1.27147 0.931209 0
M  V30 1725 C 166.787 1.14511 1.69312 0
M  V30 1726 C 167.151 -0.304638 1.89568 0
M  V30 1727 O 168.352 -0.553343 2.63043 0
M  V30 1728 C 166.623 1.90349 3.02493 0
M  V30 1729 S 168.182 1.93884 3.93642 0
M  V30 1730 H 165 0.408858 0.581684 0
M  V30 1731 H 167.602 1.61006 1.10893 0
M  V30 1732 H 166.306 2.94877 2.85439 0
M  V30 1733 H 165.837 1.44333 3.65966 0
M  V30 1734 H 167.852 1.03273 4.85334 0
M  V30 1735 N 167.025 -1.13721 1.09112 0
M  V30 1736 C 168.25 -1.89314 0.847053 0
M  V30 1737 C 168.675 -1.78416 -0.595774 0
M  V30 1738 O 168.033 -1.12942 -1.41823 0
M  V30 1739 C 168.081 -3.3701 1.28284 0
M  V30 1740 O 167.185 -4.10054 0.439267 0
M  V30 1741 H 166.526 -0.588745 0.307044 0
M  V30 1742 H 169.056 -1.43902 1.45442 0
M  V30 1743 H 169.066 -3.87834 1.26683 0
M  V30 1744 H 167.741 -3.4426 2.33363 0
M  V30 1745 H 166.318 -3.69266 0.519312 0
M  V30 1746 N 168.503 -0.877838 -1.30888 0
M  V30 1747 C 169.733 -0.506678 -2.00291 0
M  V30 1748 C 170.141 0.907449 -1.66018 0
M  V30 1749 O 169.484 1.60719 -0.88967 0
M  V30 1750 C 169.546 -0.59323 -3.54572 0
M  V30 1751 C 169.21 -1.97038 -4.12341 0
M  V30 1752 C 170.207 -2.93889 -4.28865 0
M  V30 1753 C 167.892 -2.27383 -4.47886 0
M  V30 1754 C 169.886 -4.19224 -4.80136 0
M  V30 1755 C 167.573 -3.52965 -4.98857 0
M  V30 1756 C 168.571 -4.48701 -5.14934 0
M  V30 1757 O 168.259 -5.72056 -5.64808 0
M  V30 1758 H 167.991 -0.1951 -0.647234 0
M  V30 1759 H 170.545 -1.18301 -1.6791 0
M  V30 1760 H 168.775 0.140057 -3.86446 0
M  V30 1761 H 170.464 -0.234372 -4.05223 0
M  V30 1762 H 171.23 -2.71756 -4.01714 0
M  V30 1763 H 167.109 -1.53639 -4.34645 0
M  V30 1764 H 170.653 -4.93956 -4.92599 0
M  V30 1765 H 166.55 -3.74939 -5.25443 0
M  V30 1766 H 167.318 -5.74337 -5.83163 0
M  V30 1767 N 169.982 1.44106 -0.638065 0
M  V30 1768 C 171.231 2.01194 -0.142744 0
M  V30 1769 C 171.544 1.50835 1.24532 0
M  V30 1770 O 172.75 2.00096 1.83504 0
M  V30 1771 C 171.206 3.59319 -0.20442 0
M  V30 1772 C 170.814 4.18674 -1.59423 0
M  V30 1773 C 172.558 4.23854 0.234079 0
M  V30 1774 C 170.465 5.69045 -1.61065 0
M  V30 1775 H 169.395 0.752367 -0.0495998 0
M  V30 1776 H 172.046 1.65246 -0.797881 0
M  V30 1777 H 170.428 3.92598 0.517946 0
M  V30 1778 H 171.602 3.96921 -2.34074 0
M  V30 1779 H 169.917 3.66453 -1.97741 0
M  V30 1780 H 172.514 5.34155 0.241443 0
M  V30 1781 H 172.857 3.96688 1.2627 0
M  V30 1782 H 173.39 3.95403 -0.436025 0
M  V30 1783 H 170.129 6.00956 -2.61787 0
M  V30 1784 H 169.649 5.929 -0.90718 0
M  V30 1785 H 171.328 6.32809 -1.34766 0
M  V30 1786 N 171.46 0.379036 1.52974 0
M  V30 1787 C 172.871 -0.0972525 1.86447 0
M  V30 1788 C 173.222 -1.47027 1.29914 0
M  V30 1789 O 172.347 -2.07135 0.626433 0
M  V30 1790 C 172.942 -0.183248 3.38304 0
M  V30 1791 C 171.501 -0.603812 3.71525 0
M  V30 1792 C 170.648 0.240632 2.76254 0
M  V30 1793 H 173.599 0.597316 1.4703 0
M  V30 1794 H 173.62 -1.00432 3.67006 0
M  V30 1795 H 173.132 0.816191 3.79421 0
M  V30 1796 H 171.233 -1.61099 3.35973 0
M  V30 1797 H 171.346 -0.369086 4.77676 0
M  V30 1798 H 169.71 -0.292548 2.53014 0
M  V30 1799 H 170.493 1.23786 3.20206 0
M  V30 1800 N 172.938 -1.57226 0.108567 0
M  V30 1801 C 174.349 -1.8195 -0.418464 0
M  V30 1802 C 174.7 -1.02508 -1.67292 0
M  V30 1803 O 173.825 -0.258496 -2.14851 0
M  V30 1804 C 174.42 -3.30028 -0.765979 0
M  V30 1805 C 172.979 -3.55469 -1.23769 0
M  V30 1806 C 172.126 -2.7625 -0.241106 0
M  V30 1807 H 175.077 -1.55149 0.33384 0
M  V30 1808 H 175.098 -3.44086 -1.62434 0
M  V30 1809 H 174.61 -3.87821 0.147219 0
M  V30 1810 H 172.711 -3.03022 -2.16814 0
M  V30 1811 H 172.824 -4.6408 -1.19022 0
M  V30 1812 H 171.188 -2.44133 -0.72602 0
M  V30 1813 H 171.971 -3.36797 0.665007 0
M  V30 1814 N 174.416 0.165178 -1.56732 0
M  V30 1815 C 175.656 0.887231 -1.8414 0
M  V30 1816 C 176.02 1.79159 -0.690353 0
M  V30 1817 O 177.221 2.55172 -0.845032 0
M  V30 1818 C 175.492 1.65674 -3.16681 0
M  V30 1819 S 177.051 2.42671 -3.6559 0
M  V30 1820 H 173.869 0.297042 -0.645978 0
M  V30 1821 H 176.471 0.148439 -1.94936 0
M  V30 1822 H 175.175 0.983507 -3.98441 0
M  V30 1823 H 174.706 2.43679 -3.08843 0
M  V30 1824 H 176.721 3.67499 -3.33406 0
M  V30 1825 N 175.894 1.51508 0.433938 0
M  V30 1826 C 176.841 1.73068 1.52696 0
M  V30 1827 C 177.811 0.572441 1.55924 0
M  V30 1828 O 178.996 0.807253 1.72882 0
M  V30 1829 C 176.136 1.86474 2.90381 0
M  V30 1830 C 175.249 3.14037 2.96656 0
M  V30 1831 C 174.384 3.18019 4.25485 0
M  V30 1832 C 173.423 4.39882 4.2564 0
M  V30 1833 N 172.56 4.41394 5.45999 0
M  V30 1834 H 177.4 2.66366 1.33615 0
M  V30 1835 H 174.937 1.32008 0.649018 0
M  V30 1836 H 176.895 1.92229 3.70275 0
M  V30 1837 H 175.525 0.965809 3.08013 0
M  V30 1838 H 174.577 3.17575 2.09404 0
M  V30 1839 H 175.889 4.0394 2.92633 0
M  V30 1840 H 175.043 3.22708 5.13755 0
M  V30 1841 H 173.782 2.2601 4.3217 0
M  V30 1842 H 172.787 4.35366 3.35763 0
M  V30 1843 H 174.012 5.33159 4.20617 0
M  V30 1844 H 171.958 3.52258 5.53399 0
M  V30 1845 H 171.875 5.25111 5.4387 0
M  V30 1846 H 173.143 4.50281 6.36292 0
M  V30 1847 N 177.372 -0.689602 1.41712 0
M  V30 1848 C 178.788 -1.00093 1.24312 0
M  V30 1849 C 178.988 -2.01036 0.136729 0
M  V30 1850 O 178.044 -2.47562 -0.496918 0
M  V30 1851 C 179.357 -1.51985 2.59463 0
M  V30 1852 C 180.905 -1.63838 2.66695 0
M  V30 1853 C 181.38 -2.1913 4.02177 0
M  V30 1854 N 182.871 -2.26483 4.04054 0
M  V30 1855 C 183.606 -2.70306 5.0569 0
M  V30 1856 N 183.102 -3.13691 6.17713 0
M  V30 1857 N 184.895 -2.69923 4.9305 0
M  V30 1858 H 177.046 -0.0210029 2.1239 0
M  V30 1859 H 179.309 -0.0718733 0.945272 0
M  V30 1860 H 179.015 -0.85269 3.41207 0
M  V30 1861 H 178.889 -2.50103 2.82362 0
M  V30 1862 H 181.276 -2.29664 1.85306 0
M  V30 1863 H 181.357 -0.642492 2.476 0
M  V30 1864 H 181.001 -1.53918 4.84016 0
M  V30 1865 H 180.931 -3.19482 4.18615 0
M  V30 1866 H 183.422 -1.95874 3.23174 0
M  V30 1867 H 183.735 -3.45773 6.9113 0
M  V30 1868 H 182.08 -3.11585 6.21241 0
M  V30 1869 H 185.271 -2.35382 4.04614 0
M  V30 1870 H 185.444 -3.03758 5.72394 0
M  V30 1871 N 178.85 -1.27639 -0.924453 0
M  V30 1872 C 179.76 -1.12466 -2.05885 0
M  V30 1873 C 180.776 -0.053869 -1.73917 0
M  V30 1874 O 181.952 -0.261012 -1.99702 0
M  V30 1875 C 179.017 -0.776768 -3.37886 0
M  V30 1876 C 178.078 -1.92878 -3.83532 0
M  V30 1877 C 177.311 -1.59739 -5.09234 0
M  V30 1878 O 177.534 -0.506782 -5.68144 0
M  V30 1879 O 176.468 -2.43761 -5.50331 0
M  V30 1880 H 180.294 -2.07671 -2.21599 0
M  V30 1881 H 177.879 -1.06857 -1.04413 0
M  V30 1882 H 179.761 -0.596229 -4.17161 0
M  V30 1883 H 178.436 0.145732 -3.23372 0
M  V30 1884 H 177.343 -2.1644 -3.0513 0
M  V30 1885 H 178.676 -2.8316 -4.02593 0
M  V30 1886 N 180.328 1.1314 -1.09713 0
M  V30 1887 C 181.276 2.20717 -0.733934 0
M  V30 1888 C 182.27 1.6729 0.266506 0
M  V30 1889 O 183.476 1.79547 0.127656 0
M  V30 1890 H 179.851 0.719292 -0.21937 0
M  V30 1891 H 181.822 2.48611 -1.6503 0
M  V30 1892 C 180.571 3.47265 -0.173849 0
M  V30 1893 H 179.894 3.88716 -0.934873 0
M  V30 1894 H 181.334 4.23979 0.0423126 0
M  V30 1895 C 179.793 3.18724 1.09164 0
M  V30 1896 O 180.323 3.37762 2.17439 0
M  V30 1897 N 178.529 2.72583 1.00732 0
M  V30 1898 H 178.076 2.57291 0.126121 0
M  V30 1899 H 178.034 2.53862 1.85476 0
M  V30 1900 N 181.806 0.884767 1.30421 0
M  V30 1901 C 182.738 0.308655 2.27112 0
M  V30 1902 C 183.751 -0.536655 1.53701 0
M  V30 1903 O 184.94 -0.35624 1.74909 0
M  V30 1904 C 182.04 -0.579782 3.33904 0
M  V30 1905 C 181.213 0.236417 4.36761 0
M  V30 1906 C 180.272 -0.582482 5.22966 0
M  V30 1907 O 179.298 -0.00525502 5.692 0
M  V30 1908 N 180.5 -1.89163 5.48815 0
M  V30 1909 H 183.265 1.13964 2.77186 0
M  V30 1910 H 180.826 0.747731 1.43599 0
M  V30 1911 H 182.818 -1.13366 3.88497 0
M  V30 1912 H 181.388 -1.31144 2.83761 0
M  V30 1913 H 180.608 0.97174 3.82035 0
M  V30 1914 H 181.896 0.795924 5.02536 0
M  V30 1915 H 181.294 -2.38352 5.13035 0
M  V30 1916 H 179.851 -2.39296 6.06284 0
M  V30 1917 N 183.284 -1.43765 0.645699 0
M  V30 1918 C 184.231 -2.30745 -0.0504648 0
M  V30 1919 C 185.201 -1.4432 -0.822241 0
M  V30 1920 O 186.386 -1.73202 -0.800358 0
M  V30 1921 C 183.526 -3.29802 -1.0161 0
M  V30 1922 C 182.639 -4.31326 -0.241219 0
M  V30 1923 C 181.774 -5.17469 -1.19998 0
M  V30 1924 C 180.813 -6.10691 -0.415094 0
M  V30 1925 N 179.95 -6.89483 -1.32506 0
M  V30 1926 H 184.79 -2.8973 0.697155 0
M  V30 1927 H 182.327 -1.42738 0.355563 0
M  V30 1928 H 184.285 -3.85734 -1.58949 0
M  V30 1929 H 182.915 -2.72483 -1.73069 0
M  V30 1930 H 181.967 -3.77749 0.448334 0
M  V30 1931 H 183.279 -4.9743 0.369437 0
M  V30 1932 H 182.433 -5.7799 -1.84424 0
M  V30 1933 H 181.172 -4.51473 -1.84455 0
M  V30 1934 H 180.177 -5.49265 0.242565 0
M  V30 1935 H 181.402 -6.78727 0.224966 0
M  V30 1936 H 179.348 -6.26142 -1.95657 0
M  V30 1937 H 179.265 -7.52081 -0.768783 0
M  V30 1938 H 180.533 -7.54516 -1.9577 0
M  V30 1939 N 184.763 -0.387143 -1.52771 0
M  V30 1940 C 185.711 0.463953 -2.27926 0
M  V30 1941 C 186.705 1.06493 -1.31741 0
M  V30 1942 O 187.911 1.00565 -1.49287 0
M  V30 1943 H 184.286 0.16837 -0.732909 0
M  V30 1944 H 186.257 -0.19141 -2.97785 0
M  V30 1945 C 185.006 1.5803 -3.09713 0
M  V30 1946 H 184.329 1.12718 -3.83581 0
M  V30 1947 H 185.769 2.15008 -3.65442 0
M  V30 1948 C 184.228 2.53509 -2.2189 0
M  V30 1949 O 184.758 3.56863 -1.84422 0
M  V30 1950 N 182.964 2.23199 -1.86093 0
M  V30 1951 H 182.511 1.39185 -2.16761 0
M  V30 1952 H 182.469 2.87333 -1.27621 0
M  V30 1953 N 186.241 1.57166 -0.116904 0
M  V30 1954 C 187.171 2.18222 0.830759 0
M  V30 1955 C 188.152 1.12167 1.27877 0
M  V30 1956 O 189.337 1.40394 1.34176 0
M  V30 1957 C 186.467 2.77996 2.08172 0
M  V30 1958 C 185.421 3.89614 1.77157 0
M  V30 1959 C 184.747 4.36187 3.09265 0
M  V30 1960 C 186.047 5.1181 1.04151 0
M  V30 1961 H 187.741 2.97664 0.321992 0
M  V30 1962 H 185.287 1.4318 0.153434 0
M  V30 1963 H 187.24 3.19366 2.74924 0
M  V30 1964 H 185.964 1.9584 2.6137 0
M  V30 1965 H 184.623 3.48816 1.12796 0
M  V30 1966 H 184.271 3.50893 3.60393 0
M  V30 1967 H 183.971 5.11455 2.89288 0
M  V30 1968 H 185.495 4.80207 3.77139 0
M  V30 1969 H 186.909 5.50214 1.61052 0
M  V30 1970 H 185.306 5.92648 0.942762 0
M  V30 1971 H 186.376 4.84892 0.0279022 0
M  V30 1972 N 187.719 -0.156864 1.56817 0
M  V30 1973 C 188.629 -1.2136 2.00771 0
M  V30 1974 C 189.645 -1.47598 0.921459 0
M  V30 1975 O 190.821 -1.59462 1.2302 0
M  V30 1976 C 187.886 -2.52943 2.37109 0
M  V30 1977 C 186.947 -2.34439 3.59634 0
M  V30 1978 C 186.18 -3.59748 3.94229 0
M  V30 1979 O 186.403 -4.65526 3.29609 0
M  V30 1980 O 185.337 -3.52998 4.8752 0
M  V30 1981 H 189.163 -0.870468 2.90958 0
M  V30 1982 H 186.748 -0.36484 1.44877 0
M  V30 1983 H 188.63 -3.30538 2.61386 0
M  V30 1984 H 187.305 -2.86806 1.5008 0
M  V30 1985 H 186.212 -1.54828 3.40557 0
M  V30 1986 H 187.545 -2.05496 4.4725 0
M  V30 1987 N 189.197 -1.51736 -0.425897 0
M  V30 1988 C 190.422 -1.69082 -1.20108 0
M  V30 1989 C 190.847 -0.392398 -1.83962 0
M  V30 1990 O 190.205 0.64858 -1.69302 0
M  V30 1991 C 190.253 -2.81604 -2.25237 0
M  V30 1992 O 189.357 -2.46004 -3.30992 0
M  V30 1993 H 188.698 -0.563408 -0.35138 0
M  V30 1994 H 191.228 -1.98358 -0.501512 0
M  V30 1995 H 191.238 -3.06025 -2.69838 0
M  V30 1996 H 189.913 -3.75817 -1.78142 0
M  V30 1997 H 188.49 -2.32195 -2.91787 0
M  V30 1998 N 190.675 0.682077 -1.42076 0
M  V30 1999 C 191.921 1.44428 -1.42367 0
M  V30 2000 C 192.254 1.94164 -0.0373056 0
M  V30 2001 O 191.529 1.70429 0.937239 0
M  V30 2002 C 191.812 2.64654 -2.44194 0
M  V30 2003 C 191.665 2.20596 -3.91991 0
M  V30 2004 C 192.984 3.66865 -2.431 0
M  V30 2005 H 190.103 0.523834 -0.518428 0
M  V30 2006 H 192.745 0.77576 -1.73442 0
M  V30 2007 H 190.895 3.2169 -2.17826 0
M  V30 2008 H 192.567 1.68783 -4.29313 0
M  V30 2009 H 190.81 1.52242 -4.06208 0
M  V30 2010 H 191.481 3.06921 -4.58807 0
M  V30 2011 H 193.957 3.19531 -2.66532 0
M  V30 2012 H 192.833 4.48577 -3.16339 0
M  V30 2013 H 193.094 4.17493 -1.45437 0
M  V30 2014 N 192.153 1.28127 0.917671 0
M  V30 2015 C 193.086 1.06039 2.02067 0
M  V30 2016 C 194.064 -0.0223285 1.62585 0
M  V30 2017 O 195.248 0.124823 1.88086 0
M  V30 2018 C 192.375 0.610596 3.33151 0
M  V30 2019 C 191.421 1.68937 3.91615 0
M  V30 2020 S 192.254 3.28437 4.22953 0
M  V30 2021 C 193.41 2.85283 5.57103 0
M  V30 2022 H 193.643 1.99425 2.20493 0
M  V30 2023 H 191.176 1.12071 1.06205 0
M  V30 2024 H 193.134 0.357778 4.08938 0
M  V30 2025 H 191.795 -0.303364 3.12632 0
M  V30 2026 H 190.988 1.32619 4.86239 0
M  V30 2027 H 190.59 1.89478 3.2245 0
M  V30 2028 H 192.882 2.3121 6.36827 0
M  V30 2029 H 193.825 3.7869 5.98331 0
M  V30 2030 H 194.233 2.24118 5.18104 0
M  V30 2031 N 193.631 -1.12557 1.10312 0
M  V30 2032 C 194.579 -2.20325 0.745629 0
M  V30 2033 C 195.573 -1.67429 -0.25763 0
M  V30 2034 O 196.779 -1.79612 -0.118132 0
M  V30 2035 H 193.154 -0.718118 0.223182 0
M  V30 2036 H 195.125 -2.47733 1.66346 0
M  V30 2037 C 193.874 -3.47168 0.192262 0
M  V30 2038 H 193.197 -3.88215 0.955475 0
M  V30 2039 H 194.637 -4.23995 -0.0198274 0
M  V30 2040 C 193.096 -3.19298 -1.07472 0
M  V30 2041 O 193.626 -3.3891 -2.15645 0
M  V30 2042 N 191.832 -2.73113 -0.992847 0
M  V30 2043 H 191.379 -2.57354 -0.112474 0
M  V30 2044 H 191.337 -2.54842 -1.84127 0
M  V30 2045 N 195.109 -0.891671 -1.2995 0
M  V30 2046 C 196.355 -0.523649 -1.96544 0
M  V30 2047 C 196.71 0.918394 -1.69066 0
M  V30 2048 O 196.003 1.64122 -0.988659 0
M  V30 2049 C 196.197 -0.742868 -3.49594 0
M  V30 2050 C 196.026 -2.20467 -3.9195 0
M  V30 2051 C 194.796 -2.85055 -4.17219 0
M  V30 2052 C 196.994 -3.17912 -4.04273 0
M  V30 2053 N 194.976 -4.21762 -4.46083 0
M  V30 2054 C 196.347 -4.39712 -4.37097 0
M  V30 2055 C 198.402 -3.1361 -3.86721 0
M  V30 2056 C 197.105 -5.5776 -4.54199 0
M  V30 2057 C 199.131 -4.30936 -4.05028 0
M  V30 2058 C 198.493 -5.51504 -4.38204 0
M  V30 2059 H 194.592 -0.241072 -0.743914 0
M  V30 2060 H 197.176 -1.15081 -1.5705 0
M  V30 2061 H 195.347 -0.14515 -3.88129 0
M  V30 2062 H 197.079 -0.341081 -4.0326 0
M  V30 2063 H 193.834 -2.35889 -4.10674 0
M  V30 2064 H 194.258 -4.92382 -4.64638 0
M  V30 2065 H 198.9 -2.21489 -3.60142 0
M  V30 2066 H 196.618 -6.50379 -4.79618 0
M  V30 2067 H 200.204 -4.29085 -3.92909 0
M  V30 2068 H 199.084 -6.40778 -4.52077 0
M  V30 2069 N 196.587 1.43421 -0.653314 0
M  V30 2070 C 197.519 2.29071 0.0769134 0
M  V30 2071 C 198.532 1.42513 0.787017 0
M  V30 2072 O 199.721 1.66449 0.644757 0
M  V30 2073 C 196.821 3.19436 1.13199 0
M  V30 2074 C 195.994 4.34533 0.500006 0
M  V30 2075 C 195.053 5.05771 1.45198 0
M  V30 2076 O 194.079 5.61037 0.960538 0
M  V30 2077 N 195.281 5.0928 2.78594 0
M  V30 2078 H 198.046 2.92382 -0.658235 0
M  V30 2079 H 195.607 1.54112 -0.496104 0
M  V30 2080 H 197.599 3.63958 1.76964 0
M  V30 2081 H 196.169 2.57724 1.7691 0
M  V30 2082 H 195.389 3.92925 -0.316738 0
M  V30 2083 H 196.677 5.08766 0.0588345 0
M  V30 2084 H 196.075 4.65751 3.2108 0
M  V30 2085 H 194.632 5.57519 3.37662 0
M  V30 2086 N 198.065 0.39524 1.52563 0
M  V30 2087 C 198.997 -0.472201 2.24283 0
M  V30 2088 C 200.01 -1.02178 1.26742 0
M  V30 2089 O 201.199 -0.923097 1.52778 0
M  V30 2090 C 198.299 -1.66775 2.95024 0
M  V30 2091 C 197.472 -1.2445 4.19322 0
M  V30 2092 C 196.531 -2.30539 4.7301 0
M  V30 2093 O 195.557 -1.91702 5.35947 0
M  V30 2094 N 196.759 -3.6253 4.53379 0
M  V30 2095 H 199.524 0.142282 2.99362 0
M  V30 2096 H 197.085 0.2219 1.60372 0
M  V30 2097 H 199.077 -2.37283 3.27839 0
M  V30 2098 H 197.647 -2.18845 2.23217 0
M  V30 2099 H 196.867 -0.368069 3.92478 0
M  V30 2100 H 198.155 -0.938457 5.0007 0
M  V30 2101 H 197.553 -3.96841 4.03154 0
M  V30 2102 H 196.11 -4.29055 4.90668 0
M  V30 2103 N 199.544 -1.57102 0.125237 0
M  V30 2104 C 200.774 -1.99472 -0.538015 0
M  V30 2105 C 201.182 -1.00395 -1.60366 0
M  V30 2106 O 200.525 0.0103875 -1.83697 0
M  V30 2107 C 200.587 -3.38262 -1.21734 0
M  V30 2108 C 200.251 -4.56021 -0.298897 0
M  V30 2109 C 201.248 -5.17817 0.464943 0
M  V30 2110 C 198.933 -5.01869 -0.208149 0
M  V30 2111 C 200.927 -6.23852 1.3072 0
M  V30 2112 C 198.614 -6.07763 0.637736 0
M  V30 2113 C 199.612 -6.68622 1.39403 0
M  V30 2114 O 199.3 -7.7247 2.22586 0
M  V30 2115 H 199.032 -0.659934 -0.146501 0
M  V30 2116 H 201.586 -2.04321 0.210267 0
M  V30 2117 H 199.816 -3.30185 -2.01282 0
M  V30 2118 H 201.505 -3.6488 -1.77813 0
M  V30 2119 H 202.271 -4.83308 0.404741 0
M  V30 2120 H 198.15 -4.54241 -0.786522 0
M  V30 2121 H 201.694 -6.71284 1.898 0
M  V30 2122 H 197.591 -6.41701 0.699309 0
M  V30 2123 H 198.359 -7.89595 2.15596 0
M  V30 2124 N 201.022 0.148545 -1.56898 0
M  V30 2125 C 202.268 0.857877 -1.84424 0
M  V30 2126 C 202.623 1.7886 -0.709006 0
M  V30 2127 O 201.916 1.89344 0.293139 0
M  V30 2128 C 202.11 1.67064 -3.1595 0
M  V30 2129 C 201.939 0.82011 -4.42159 0
M  V30 2130 C 200.709 0.486328 -5.02954 0
M  V30 2131 C 202.907 0.151155 -5.14078 0
M  V30 2132 N 200.889 -0.377956 -6.12735 0
M  V30 2133 C 202.26 -0.573333 -6.17343 0
M  V30 2134 C 204.315 0.0716685 -4.97848 0
M  V30 2135 C 203.018 -1.3698 -7.06137 0
M  V30 2136 C 205.044 -0.711532 -5.87104 0
M  V30 2137 C 204.406 -1.42431 -6.8985 0
M  V30 2138 H 200.505 0.291798 -0.725519 0
M  V30 2139 H 203.089 0.123347 -1.94309 0
M  V30 2140 H 201.26 2.37642 -3.07215 0
M  V30 2141 H 202.992 2.32302 -3.31388 0
M  V30 2142 H 199.747 0.821753 -4.66416 0
M  V30 2143 H 200.171 -0.801077 -6.72244 0
M  V30 2144 H 204.813 0.608381 -4.184 0
M  V30 2145 H 202.531 -1.91778 -7.85014 0
M  V30 2146 H 206.117 -0.775005 -5.76615 0
M  V30 2147 H 204.997 -2.02061 -7.57721 0
M  V30 2148 N 202.5 1.5196 0.417844 0
M  V30 2149 C 203.447 1.74678 1.50852 0
M  V30 2150 C 204.417 0.588947 1.55308 0
M  V30 2151 O 205.602 0.825544 1.72016 0
M  V30 2152 C 202.742 1.89544 2.88387 0
M  V30 2153 C 201.855 3.17166 2.93309 0
M  V30 2154 C 200.99 3.22513 4.22088 0
M  V30 2155 C 200.029 4.44372 4.20951 0
M  V30 2156 N 199.166 4.47161 5.41287 0
M  V30 2157 H 204.006 2.67768 1.30783 0
M  V30 2158 H 201.543 1.32689 0.63498 0
M  V30 2159 H 203.501 1.96146 3.68216 0
M  V30 2160 H 202.131 0.998424 3.06971 0
M  V30 2161 H 201.183 3.19778 2.06024 0
M  V30 2162 H 202.495 4.07021 2.88332 0
M  V30 2163 H 201.649 3.28139 5.10303 0
M  V30 2164 H 200.388 2.30581 4.29748 0
M  V30 2165 H 199.393 4.38902 3.31127 0
M  V30 2166 H 200.618 5.3759 4.14938 0
M  V30 2167 H 198.564 3.58108 5.49632 0
M  V30 2168 H 198.481 5.3085 5.3827 0
M  V30 2169 H 199.749 4.57005 6.3148 0
M  V30 2170 N 203.978 -0.674533 1.42435 0
M  V30 2171 C 205.255 -1.4305 1.33402 0
M  V30 2172 C 205.635 -2.11081 -0.0284674 0
M  V30 2173 O 204.983 -2.03257 -1.04397 0
M  V30 2174 C 205.193 -2.43272 2.50239 0
M  V30 2175 C 206.541 -3.07907 2.92367 0
M  V30 2176 O 207.565 -2.53599 2.50132 0
M  V30 2177 O 206.424 -4.0632 3.65467 0
M  V30 2178 H 203.518 -0.638076 0.526106 0
M  V30 2179 H 206.064 -0.703235 1.54443 0
M  V30 2180 H 204.836 -1.91803 3.41068 0
M  V30 2181 H 204.459 -3.23479 2.31186 0
M  V30 2182 N 205.456 -1.28612 -0.910864 0
M  V30 2183 C 206.366 -1.14643 -2.0468 0
M  V30 2184 C 207.382 -0.0723121 -1.7385 0
M  V30 2185 O 208.558 -0.282178 -1.99413 0
M  V30 2186 C 205.623 -0.812561 -3.37044 0
M  V30 2187 C 204.684 -1.96935 -3.81465 0
M  V30 2188 C 203.917 -1.65131 -5.07511 0
M  V30 2189 O 204.14 -0.567013 -5.67575 0
M  V30 2190 O 203.074 -2.49585 -5.47714 0
M  V30 2191 H 206.9 -2.1001 -2.19384 0
M  V30 2192 H 204.485 -1.07958 -1.03274 0
M  V30 2193 H 206.367 -0.640441 -4.16505 0
M  V30 2194 H 205.042 0.111426 -3.23508 0
M  V30 2195 H 203.949 -2.19664 -3.02818 0
M  V30 2196 H 205.282 -2.87414 -3.99567 0
M  V30 2197 N 206.934 1.1197 -1.10907 0
M  V30 2198 C 208.183 1.82947 -0.849302 0
M  V30 2199 C 208.496 1.85275 0.627112 0
M  V30 2200 O 209.702 2.52296 1.00295 0
M  V30 2201 C 208.158 3.28529 -1.46959 0
M  V30 2202 C 207.766 3.34546 -2.97965 0
M  V30 2203 C 209.51 4.04443 -1.28942 0
M  V30 2204 C 207.417 4.74491 -3.53004 0
M  V30 2205 H 206.347 0.685477 -0.314065 0
M  V30 2206 H 208.998 1.2604 -1.33365 0
M  V30 2207 H 207.38 3.85333 -0.912917 0
M  V30 2208 H 208.554 2.87654 -3.59989 0
M  V30 2209 H 206.869 2.72108 -3.15192 0
M  V30 2210 H 209.466 5.07787 -1.67502 0
M  V30 2211 H 209.809 4.15656 -0.231456 0
M  V30 2212 H 210.342 3.5401 -1.81443 0
M  V30 2213 H 207.081 4.68474 -4.58489 0
M  V30 2214 H 206.601 5.21816 -2.9575 0
M  V30 2215 H 208.28 5.4344 -3.51115 0
M  V30 2216 N 208.412 0.89855 1.29475 0
M  V30 2217 C 209.66 0.522847 1.9522 0
M  V30 2218 C 209.981 -0.93371 1.71192 0
M  V30 2219 O 209.251 -1.65823 1.04305 0
M  V30 2220 H 207.831 0.190366 0.722336 0
M  V30 2221 H 210.493 1.14459 1.5775 0
M  V30 2222 H 209.589 0.704476 3.04045 0
M  V30 2223 N 209.89 -1.43072 0.660911 0
M  V30 2224 C 211.115 -2.06584 0.183805 0
M  V30 2225 C 211.54 -1.49257 -1.14472 0
M  V30 2226 O 210.898 -0.605528 -1.70889 0
M  V30 2227 C 210.946 -3.60418 0.114434 0
M  V30 2228 O 210.05 -4.01981 -0.921137 0
M  V30 2229 H 209.391 -0.656669 0.0983994 0
M  V30 2230 H 211.921 -1.83447 0.906006 0
M  V30 2231 H 211.931 -4.07946 -0.0663394 0
M  V30 2232 H 210.606 -4.01519 1.08422 0
M  V30 2233 H 209.183 -3.66029 -0.71253 0
M  V30 2234 N 211.368 -0.403325 -1.52352 0
M  V30 2235 C 212.3 0.4603 -2.2453 0
M  V30 2236 C 213.313 1.01505 -1.27282 0
M  V30 2237 O 214.502 0.914982 -1.53266 0
M  V30 2238 C 211.602 1.65208 -2.95905 0
M  V30 2239 C 210.775 1.22224 -4.19976 0
M  V30 2240 C 209.834 2.28028 -4.74226 0
M  V30 2241 O 208.86 1.88857 -5.36956 0
M  V30 2242 N 210.062 3.6012 -4.55295 0
M  V30 2243 H 212.827 -0.158156 -2.99282 0
M  V30 2244 H 210.388 -0.230402 -1.60252 0
M  V30 2245 H 212.38 2.35541 -3.29093 0
M  V30 2246 H 210.95 2.17658 -2.24374 0
M  V30 2247 H 210.17 0.34725 -3.92668 0
M  V30 2248 H 211.458 0.911924 -5.00561 0
M  V30 2249 H 210.856 3.94698 -4.05253 0
M  V30 2250 H 209.413 4.26447 -4.92936 0
M  V30 2251 N 212.846 1.57033 -0.133567 0
M  V30 2252 C 214.257 1.82593 0.389464 0
M  V30 2253 C 214.608 1.05156 1.6564 0
M  V30 2254 O 213.733 0.292644 2.14412 0
M  V30 2255 C 214.328 3.31204 0.713377 0
M  V30 2256 C 212.887 3.57393 1.18098 0
M  V30 2257 C 212.034 2.76598 0.197126 0
M  V30 2258 H 214.985 1.54598 -0.358481 0
M  V30 2259 H 215.006 3.46627 1.56939 0
M  V30 2260 H 214.518 3.87537 -0.2089 0
M  V30 2261 H 212.619 3.06433 2.11966 0
M  V30 2262 H 212.732 4.65915 1.11624 0
M  V30 2263 H 211.096 2.45257 0.687088 0
M  V30 2264 H 211.879 3.35697 -0.718504 0
M  V30 2265 N 214.325 -0.140222 1.56975 0
M  V30 2266 C 215.572 -0.851687 1.83719 0
M  V30 2267 C 215.9 -1.80862 0.715485 0
M  V30 2268 O 215.155 -1.93464 -0.294956 0
M  V30 2269 C 215.454 -1.65386 3.16832 0
M  V30 2270 C 215.12 -0.843112 4.42947 0
M  V30 2271 C 213.782 -0.619464 4.77196 0
M  V30 2272 C 216.134 -0.276582 5.20466 0
M  V30 2273 C 213.462 0.181312 5.8642 0
M  V30 2274 C 215.814 0.51127 6.30531 0
M  V30 2275 C 214.478 0.745432 6.63325 0
M  V30 2276 H 213.748 -0.311654 0.672274 0
M  V30 2277 H 216.395 -0.115006 1.91154 0
M  V30 2278 H 214.7 -2.46084 3.04877 0
M  V30 2279 H 216.397 -2.20793 3.34741 0
M  V30 2280 H 212.987 -1.0275 4.16101 0
M  V30 2281 H 217.171 -0.436632 4.94376 0
M  V30 2282 H 212.427 0.372165 6.10266 0
M  V30 2283 H 216.601 0.957354 6.89788 0
M  V30 2284 H 214.228 1.36778 7.47794 0
M  V30 2285 N 215.803 -1.52179 -0.40978 0
M  V30 2286 C 217.031 -1.70054 -1.17853 0
M  V30 2287 C 217.446 -0.409735 -1.843 0
M  V30 2288 O 216.803 0.614183 -1.71855 0
M  V30 2289 C 216.854 -2.83568 -2.24213 0
M  V30 2290 O 216.575 -4.0765 -1.60478 0
M  V30 2291 C 218.076 -3.12947 -3.13973 0
M  V30 2292 H 215.296 -0.569917 -0.354169 0
M  V30 2293 H 217.84 -1.98734 -0.482198 0
M  V30 2294 H 215.995 -2.57409 -2.89516 0
M  V30 2295 H 216.409 -4.70899 -2.30986 0
M  V30 2296 H 217.883 -3.95889 -3.84677 0
M  V30 2297 H 218.36 -2.26472 -3.76307 0
M  V30 2298 H 218.966 -3.40868 -2.5434 0
M  V30 2299 N 217.281 0.66697 -1.42791 0
M  V30 2300 C 218.521 1.43892 -1.4517 0
M  V30 2301 C 218.885 1.91877 -0.0687551 0
M  V30 2302 O 220.086 2.6878 0.0327455 0
M  V30 2303 C 218.357 2.59839 -2.45395 0
M  V30 2304 S 219.916 3.48572 -2.66539 0
M  V30 2305 H 216.734 0.491356 -0.513897 0
M  V30 2306 H 219.336 0.775656 -1.79454 0
M  V30 2307 H 218.04 2.22838 -3.44632 0
M  V30 2308 H 217.571 3.3103 -2.12562 0
M  V30 2309 H 219.586 4.56094 -1.95429 0
M  V30 2310 N 218.759 1.29093 0.90403 0
M  V30 2311 C 219.989 1.19516 1.68522 0
M  V30 2312 C 220.397 -0.24738 1.87576 0
M  V30 2313 O 219.74 -1.17798 1.40959 0
M  V30 2314 C 219.802 1.83249 3.0929 0
M  V30 2315 C 219.466 3.32531 3.13484 0
M  V30 2316 C 220.463 4.28821 2.93953 0
M  V30 2317 C 218.148 3.73656 3.35688 0
M  V30 2318 C 220.142 5.64212 2.96553 0
M  V30 2319 C 217.829 5.0917 3.37919 0
M  V30 2320 C 218.827 6.04258 3.18373 0
M  V30 2321 O 218.515 7.37298 3.20385 0
M  V30 2322 H 218.247 0.415467 0.533257 0
M  V30 2323 H 220.801 1.70912 1.13922 0
M  V30 2324 H 219.031 1.26358 3.65473 0
M  V30 2325 H 220.72 1.68054 3.69476 0
M  V30 2326 H 221.486 3.98382 2.76616 0
M  V30 2327 H 217.365 3.00101 3.49943 0
M  V30 2328 H 220.909 6.38407 2.81216 0
M  V30 2329 H 216.806 5.39256 3.54787 0
M  V30 2330 H 217.574 7.46048 3.36681 0
M  V30 2331 N 220.237 -1.11381 1.11499 0
M  V30 2332 C 221.484 -1.83132 0.864231 0
M  V30 2333 C 221.812 -1.84683 -0.610114 0
M  V30 2334 O 221.067 -1.29589 -1.46646 0
M  V30 2335 C 221.366 -3.30026 1.37177 0
M  V30 2336 C 221.032 -3.48634 2.85946 0
M  V30 2337 C 219.694 -3.53421 3.26569 0
M  V30 2338 C 222.046 -3.54837 3.81759 0
M  V30 2339 C 219.374 -3.61967 4.61733 0
M  V30 2340 C 221.726 -3.64915 5.1674 0
M  V30 2341 C 220.39 -3.67962 5.5692 0
M  V30 2342 H 219.66 -0.670127 0.316245 0
M  V30 2343 H 222.307 -1.31354 1.3935 0
M  V30 2344 H 220.612 -3.84304 0.762753 0
M  V30 2345 H 222.309 -3.84034 1.15408 0
M  V30 2346 H 218.899 -3.45579 2.53521 0
M  V30 2347 H 223.083 -3.50399 3.51474 0
M  V30 2348 H 218.339 -3.62603 4.92269 0
M  V30 2349 H 222.513 -3.68658 5.90816 0
M  V30 2350 H 220.14 -3.74336 6.61647 0
M  V30 2351 N 221.715 -0.905404 -1.28997 0
M  V30 2352 C 222.663 -0.377431 -2.29517 0
M  V30 2353 C 223.657 0.526461 -1.61012 0
M  V30 2354 O 224.863 0.40863 -1.753 0
M  V30 2355 H 221.238 -0.103437 -0.744852 0
M  V30 2356 H 223.209 -1.23848 -2.71485 0
M  V30 2357 C 221.958 0.374833 -3.45674 0
M  V30 2358 H 221.281 -0.311474 -3.98585 0
M  V30 2359 H 222.721 0.70903 -4.1803 0
M  V30 2360 C 221.18 1.57963 -2.97572 0
M  V30 2361 O 221.71 2.67886 -2.99333 0
M  V30 2362 N 219.916 1.42375 -2.53333 0
M  V30 2363 H 219.463 0.529466 -2.521 0
M  V30 2364 H 219.421 2.23117 -2.21509 0
M  V30 2365 N 223.193 1.4272 -0.668489 0
M  V30 2366 C 224.125 2.2914 0.052613 0
M  V30 2367 C 225.138 1.43339 0.771857 0
M  V30 2368 O 226.327 1.67123 0.627067 0
M  V30 2369 C 223.427 3.20618 1.09804 0
M  V30 2370 C 222.6 4.35039 0.45389 0
M  V30 2371 C 221.659 5.07282 1.39825 0
M  V30 2372 O 220.685 5.62024 0.900978 0
M  V30 2373 N 221.887 5.12206 2.73176 0
M  V30 2374 H 224.652 2.91668 -0.689209 0
M  V30 2375 H 222.213 1.53577 -0.512422 0
M  V30 2376 H 224.205 3.65815 1.73094 0
M  V30 2377 H 222.775 2.59585 1.74167 0
M  V30 2378 H 221.995 3.92567 -0.358396 0
M  V30 2379 H 223.283 5.088 0.00486972 0
M  V30 2380 H 222.681 4.6913 3.16122 0
M  V30 2381 H 221.238 5.61069 3.31729 0
M  V30 2382 N 224.671 0.411399 1.52136 0
M  V30 2383 C 225.621 -0.430376 2.23901 0
M  V30 2384 C 226.605 -1.0116 1.25121 0
M  V30 2385 O 227.797 -0.934044 1.50348 0
M  V30 2386 C 224.926 -1.54527 3.06556 0
M  V30 2387 C 224.012 -0.9747 4.12747 0
M  V30 2388 N 224.403 -0.130991 5.0563 0
M  V30 2389 C 222.701 -1.24497 4.28271 0
M  V30 2390 C 223.402 0.186689 5.814 0
M  V30 2391 N 222.378 -0.42304 5.41951 0
M  V30 2392 H 226.18 0.220509 2.93072 0
M  V30 2393 H 223.694 0.221952 1.60876 0
M  V30 2394 H 225.691 -2.16093 3.56524 0
M  V30 2395 H 224.351 -2.19875 2.38925 0
M  V30 2396 H 225.362 0.23349 5.17373 0
M  V30 2397 H 222.039 -1.89787 3.7187 0
M  V30 2398 H 223.429 0.871673 6.66222 0
M  V30 2399 N 226.149 -1.5696 0.141893 0
M  V30 2400 C 227.081 -2.13619 -0.830627 0
M  V30 2401 C 228.094 -1.08439 -1.21428 0
M  V30 2402 O 229.283 -1.35734 -1.15925 0
M  V30 2403 C 226.383 -2.63978 -2.12529 0
M  V30 2404 C 225.556 -3.93504 -1.9098 0
M  V30 2405 C 224.615 -4.29225 -3.04388 0
M  V30 2406 O 223.641 -4.97641 -2.76302 0
M  V30 2407 N 224.843 -3.88393 -4.31429 0
M  V30 2408 H 227.608 -2.97691 -0.34641 0
M  V30 2409 H 225.169 -1.61846 -0.0418375 0
M  V30 2410 H 227.161 -2.84891 -2.87436 0
M  V30 2411 H 225.731 -1.84659 -2.52229 0
M  V30 2412 H 224.951 -3.81269 -1.00139 0
M  V30 2413 H 226.239 -4.78154 -1.73914 0
M  V30 2414 H 225.637 -3.33257 -4.57117 0
M  V30 2415 H 224.194 -4.14368 -5.03133 0
M  V30 2416 N 227.627 0.131896 -1.57047 0
M  V30 2417 C 229.043 0.485031 -1.52051 0
M  V30 2418 C 229.243 1.82563 -0.85281 0
M  V30 2419 O 228.299 2.48817 -0.429694 0
M  V30 2420 C 229.612 0.481409 -2.96821 0
M  V30 2421 C 231.16 0.565868 -3.07842 0
M  V30 2422 C 231.635 0.592762 -4.54148 0
M  V30 2423 N 233.126 0.654564 -4.58552 0
M  V30 2424 C 233.861 0.696608 -5.69153 0
M  V30 2425 N 233.357 0.697078 -6.89284 0
M  V30 2426 N 235.15 0.738639 -5.57226 0
M  V30 2427 H 227.301 -0.746664 -1.98843 0
M  V30 2428 H 229.564 -0.273999 -0.90754 0
M  V30 2429 H 229.27 -0.435731 -3.4899 0
M  V30 2430 H 229.144 1.3139 -3.53577 0
M  V30 2431 H 231.531 1.47343 -2.55684 0
M  V30 2432 H 231.612 -0.29406 -2.54104 0
M  V30 2433 H 231.256 -0.310701 -5.06949 0
M  V30 2434 H 231.186 1.46939 -5.05684 0
M  V30 2435 H 233.677 0.660887 -3.72076 0
M  V30 2436 H 233.99 0.731426 -7.69331 0
M  V30 2437 H 232.335 0.66471 -6.91814 0
M  V30 2438 H 235.526 0.735545 -4.62285 0
M  V30 2439 H 235.699 0.767938 -6.43434 0
M  V30 2440 N 229.106 1.52395 0.401703 0
M  V30 2441 C 230.517 1.58899 0.980202 0
M  V30 2442 C 230.868 0.434032 1.91339 0
M  V30 2443 O 229.993 -0.444619 2.11783 0
M  V30 2444 C 230.588 2.87994 1.78451 0
M  V30 2445 C 229.147 2.96953 2.31292 0
M  V30 2446 C 228.294 2.53903 1.11483 0
M  V30 2447 H 231.245 1.57657 0.18168 0
M  V30 2448 H 231.266 2.73765 2.64259 0
M  V30 2449 H 230.778 3.72035 1.10506 0
M  V30 2450 H 228.879 2.17422 3.02586 0
M  V30 2451 H 228.992 4.01344 2.61649 0
M  V30 2452 H 227.356 2.07925 1.47104 0
M  V30 2453 H 228.139 3.40326 0.450928 0
M  V30 2454 N 230.584 -0.659388 1.43143 0
M  V30 2455 C 231.861 -1.41627 1.34912 0
M  V30 2456 C 232.241 -2.11099 -0.00607785 0
M  V30 2457 O 231.589 -2.04353 -1.02236 0
M  V30 2458 C 231.799 -2.40604 2.52805 0
M  V30 2459 C 233.147 -3.04789 2.95616 0
M  V30 2460 O 234.171 -2.50932 2.52807 0
M  V30 2461 O 233.03 -4.02421 3.69756 0
M  V30 2462 H 230.124 -0.63246 0.532844 0
M  V30 2463 H 232.67 -0.686814 1.5518 0
M  V30 2464 H 231.442 -1.88174 3.43083 0
M  V30 2465 H 231.065 -3.21009 2.34604 0
M  V30 2466 N 232.062 -1.29571 -0.897171 0
M  V30 2467 C 233.339 -1.08365 -1.62839 0
M  V30 2468 C 233.719 0.371331 -2.07808 0
M  V30 2469 O 233.067 1.3606 -1.83576 0
M  V30 2470 C 233.277 -2.0735 -2.80726 0
M  V30 2471 C 234.625 -2.38406 -3.51351 0
M  V30 2472 O 235.649 -2.05564 -2.90898 0
M  V30 2473 O 234.508 -2.9453 -4.60341 0
M  V30 2474 H 231.602 -0.415345 -0.715134 0
M  V30 2475 H 234.148 -1.40952 -0.945018 0
M  V30 2476 H 232.92 -3.05339 -2.44711 0
M  V30 2477 H 232.543 -1.75507 -3.56767 0
M  V30 2478 N 233.54 1.10788 -1.12088 0
M  V30 2479 C 234.786 1.82942 -0.875226 0
M  V30 2480 C 235.119 1.84779 0.597538 0
M  V30 2481 O 234.394 1.30578 1.44152 0
M  V30 2482 C 234.677 3.29789 -1.44606 0
M  V30 2483 C 234.53 3.36307 -2.98693 0
M  V30 2484 C 235.849 4.26064 -1.10261 0
M  V30 2485 H 232.968 0.664195 -0.319397 0
M  V30 2486 H 235.61 1.29867 -1.38689 0
M  V30 2487 H 233.76 3.75118 -1.01089 0
M  V30 2488 H 235.432 2.99487 -3.50864 0
M  V30 2489 H 233.675 2.76318 -3.34411 0
M  V30 2490 H 234.346 4.39694 -3.33726 0
M  V30 2491 H 236.822 3.88951 -1.4784 0
M  V30 2492 H 235.698 5.27183 -1.52869 0
M  V30 2493 H 235.959 4.42098 -0.0142953 0
M  V30 2494 N 235.018 0.912232 1.28515 0
M  V30 2495 C 235.948 0.416403 2.29757 0
M  V30 2496 C 236.929 -0.515194 1.6211 0
M  V30 2497 O 238.114 -0.423253 1.89532 0
M  V30 2498 C 235.244 -0.34572 3.45575 0
M  V30 2499 C 234.198 0.496599 4.25109 0
M  V30 2500 C 233.524 -0.393771 5.33248 0
M  V30 2501 C 234.824 1.75307 4.92001 0
M  V30 2502 H 236.518 1.26249 2.7148 0
M  V30 2503 H 234.064 0.608515 1.30511 0
M  V30 2504 H 236.017 -0.703422 4.15488 0
M  V30 2505 H 234.741 -1.2257 3.02728 0
M  V30 2506 H 233.4 0.8368 3.56922 0
M  V30 2507 H 233.048 -1.27225 4.86644 0
M  V30 2508 H 232.748 0.166209 5.87365 0
M  V30 2509 H 234.272 -0.747389 6.06009 0
M  V30 2510 H 235.686 1.46437 5.54283 0
M  V30 2511 H 234.083 2.25534 5.56106 0
M  V30 2512 H 235.153 2.48176 4.16577 0
M  V30 2513 N 236.496 -1.42363 0.676048 0
M  V30 2514 C 237.426 -2.33497 0.0124832 0
M  V30 2515 C 238.407 -1.50748 -0.787981 0
M  V30 2516 O 239.592 -1.79346 -0.744884 0
M  V30 2517 C 236.722 -3.34377 -0.938582 0
M  V30 2518 C 235.676 -4.27289 -0.246622 0
M  V30 2519 C 235.002 -5.18386 -1.31071 0
M  V30 2520 C 236.302 -5.14916 0.875125 0
M  V30 2521 H 237.996 -2.89233 0.773593 0
M  V30 2522 H 235.542 -1.39073 0.37346 0
M  V30 2523 H 237.495 -3.97044 -1.41188 0
M  V30 2524 H 236.219 -2.76947 -1.73113 0
M  V30 2525 H 234.878 -3.66018 0.206456 0
M  V30 2526 H 234.526 -4.57282 -2.09528 0
M  V30 2527 H 234.226 -5.81378 -0.852839 0
M  V30 2528 H 235.75 -5.83929 -1.78492 0
M  V30 2529 H 237.164 -5.71262 0.482983 0
M  V30 2530 H 235.561 -5.86747 1.25887 0
M  V30 2531 H 236.631 -4.53242 1.72335 0
M  V30 2532 N 237.974 -0.419461 -1.51915 0
M  V30 2533 C 238.924 0.418496 -2.24126 0
M  V30 2534 C 239.908 1.00495 -1.25656 0
M  V30 2535 O 241.1 0.926058 -1.50842 0
M  V30 2536 C 238.229 1.52899 -3.07371 0
M  V30 2537 C 237.315 0.952797 -4.13258 0
M  V30 2538 N 237.706 0.104175 -5.05693 0
M  V30 2539 C 236.004 1.22224 -4.28926 0
M  V30 2540 C 236.705 -0.21752 -5.81293 0
M  V30 2541 N 235.681 0.394293 -5.42168 0
M  V30 2542 H 239.483 -0.236048 -2.92951 0
M  V30 2543 H 236.997 -0.230481 -1.60756 0
M  V30 2544 H 238.994 2.14199 -3.57665 0
M  V30 2545 H 237.654 2.18605 -2.40088 0
M  V30 2546 H 238.665 -0.260924 -5.17242 0
M  V30 2547 H 235.342 1.87812 -3.72871 0
M  V30 2548 H 236.732 -0.906992 -6.6575 0
M  V30 2549 N 239.452 1.56882 -0.150215 0
M  V30 2550 C 240.868 1.58263 0.20617 0
M  V30 2551 C 241.068 1.16464 1.64434 0
M  V30 2552 O 240.124 0.866422 2.3717 0
M  V30 2553 C 241.437 3.00649 -0.0555025 0
M  V30 2554 C 242.985 3.12999 0.00795388 0
M  V30 2555 C 243.46 4.5744 -0.226429 0
M  V30 2556 N 244.951 4.62875 -0.173469 0
M  V30 2557 C 245.686 5.72454 -0.329288 0
M  V30 2558 N 245.182 6.90669 -0.543005 0
M  V30 2559 N 246.975 5.61467 -0.266666 0
M  V30 2560 H 239.126 1.82345 -1.08922 0
M  V30 2561 H 241.389 0.844149 -0.431413 0
M  V30 2562 H 241.095 3.3563 -1.05096 0
M  V30 2563 H 240.969 3.71337 0.66246 0
M  V30 2564 H 243.356 2.77857 0.993966 0
M  V30 2565 H 243.437 2.4479 -0.742388 0
M  V30 2566 H 243.081 4.93287 -1.20956 0
M  V30 2567 H 243.011 5.2378 0.544274 0
M  V30 2568 H 245.502 3.77898 -0.0130709 0
M  V30 2569 H 245.815 7.70045 -0.651922 0
M  V30 2570 H 244.16 6.92581 -0.579366 0
M  V30 2571 H 247.351 4.67992 -0.100441 0
M  V30 2572 H 247.524 6.46816 -0.391535 0
M  V30 2573 N 240.93 -0.123565 1.57115 0
M  V30 2574 C 242.158 -0.846461 1.88793 0
M  V30 2575 C 242.573 -1.73652 0.740976 0
M  V30 2576 O 241.93 -1.80207 -0.288393 0
M  V30 2577 C 241.981 -1.6837 3.19897 0
M  V30 2578 O 241.702 -0.829477 4.30176 0
M  V30 2579 C 243.203 -2.51214 3.65248 0
M  V30 2580 H 240.423 -0.243573 0.625231 0
M  V30 2581 H 242.967 -0.109324 2.04208 0
M  V30 2582 H 241.122 -2.37364 3.06165 0
M  V30 2583 H 241.536 -1.40651 5.0529 0
M  V30 2584 H 243.01 -3.05497 4.59756 0
M  V30 2585 H 243.487 -3.28359 2.9168 0
M  V30 2586 H 244.093 -1.8747 3.81752 0
M  V30 2587 N 242.408 -1.52605 -0.393616 0
M  V30 2588 C 243.358 -1.73436 -1.48 0
M  V30 2589 C 244.342 -0.588386 -1.49756 0
M  V30 2590 O 245.534 -0.846047 -1.5547 0
M  V30 2591 C 242.663 -1.90247 -2.85764 0
M  V30 2592 C 241.749 -3.10763 -2.88595 0
M  V30 2593 N 242.14 -4.33196 -2.61103 0
M  V30 2594 C 240.438 -3.10914 -3.19763 0
M  V30 2595 C 241.139 -5.1477 -2.70899 0
M  V30 2596 N 240.115 -4.50356 -3.04435 0
M  V30 2597 H 243.917 -2.65727 -1.25563 0
M  V30 2598 H 241.431 -1.5085 -0.601513 0
M  V30 2599 H 243.428 -2.03291 -3.63976 0
M  V30 2600 H 242.088 -0.991663 -3.09186 0
M  V30 2601 H 243.099 -4.61408 -2.35209 0
M  V30 2602 H 239.776 -2.29626 -3.4868 0
M  V30 2603 H 241.166 -6.22355 -2.53227 0
M  V30 2604 N 243.887 0.651787 -1.4349 0
M  V30 2605 C 245.164 1.40909 -1.35661 0
M  V30 2606 C 245.544 2.11099 -0.00511733 0
M  V30 2607 O 244.892 2.04892 1.0115 0
M  V30 2608 C 245.102 2.3926 -2.54078 0
M  V30 2609 C 246.45 3.03217 -2.97228 0
M  V30 2610 O 247.474 2.49588 -2.54135 0
M  V30 2611 O 246.333 4.00455 -3.71885 0
M  V30 2612 H 243.427 0.629625 -0.536191 0
M  V30 2613 H 245.973 0.678575 -1.55542 0
M  V30 2614 H 244.745 1.86352 -3.44076 0
M  V30 2615 H 244.368 3.1976 -2.36303 0
M  V30 2616 N 245.365 1.30045 0.890287 0
M  V30 2617 C 246.275 1.17885 2.02831 0
M  V30 2618 C 247.291 0.0999609 1.73713 0
M  V30 2619 O 248.467 0.313867 1.98939 0
M  V30 2620 C 245.532 0.866079 3.35708 0
M  V30 2621 C 244.593 2.02979 3.78283 0
M  V30 2622 C 243.826 1.73184 5.0482 0
M  V30 2623 O 244.049 0.657237 5.66601 0
M  V30 2624 O 242.983 2.58267 5.43674 0
M  V30 2625 H 246.809 2.13474 2.16015 0
M  V30 2626 H 244.394 1.09587 1.01543 0
M  V30 2627 H 246.276 0.706623 4.15433 0
M  V30 2628 H 244.951 -0.0599443 3.23644 0
M  V30 2629 H 243.858 2.24454 2.99285 0
M  V30 2630 H 245.191 2.93734 3.94944 0
M  V30 2631 N 246.843 -1.10192 1.12674 0
M  V30 2632 C 248.092 -1.81573 0.8783 0
M  V30 2633 C 248.405 -1.86249 -0.597557 0
M  V30 2634 O 249.611 -2.5386 -0.962681 0
M  V30 2635 C 248.067 -3.26149 1.52167 0
M  V30 2636 C 247.675 -3.29763 3.03249 0
M  V30 2637 C 249.419 -4.0234 1.3536 0
M  V30 2638 C 247.326 -4.68815 3.60508 0
M  V30 2639 H 246.256 -0.680394 0.324931 0
M  V30 2640 H 248.907 -1.23902 1.35353 0
M  V30 2641 H 247.289 -3.83832 0.974104 0
M  V30 2642 H 248.463 -2.8189 3.6452 0
M  V30 2643 H 246.778 -2.67059 3.19481 0
M  V30 2644 H 249.375 -5.05058 1.75559 0
M  V30 2645 H 249.718 -4.15235 0.297554 0
M  V30 2646 H 250.251 -3.51079 1.87052 0
M  V30 2647 H 246.99 -4.61121 4.65884 0
M  V30 2648 H 246.51 -5.17045 3.04014 0
M  V30 2649 H 248.189 -5.37785 3.59717 0
M  V30 2650 N 248.321 -0.919034 -1.28029 0
M  V30 2651 C 249.567 -0.555757 -1.95036 0
M  V30 2652 C 249.9 0.899198 -1.72128 0
M  V30 2653 O 249.175 1.64023 -1.04531 0
M  V30 2654 C 249.458 -0.872024 -3.49382 0
M  V30 2655 C 249.311 -2.3801 -3.81669 0
M  V30 2656 C 250.63 -0.37185 -4.38526 0
M  V30 2657 H 247.749 -0.203386 -0.708381 0
M  V30 2658 H 250.391 -1.14924 -1.51303 0
M  V30 2659 H 248.541 -0.366946 -3.86763 0
M  V30 2660 H 250.213 -2.9562 -3.54128 0
M  V30 2661 H 248.456 -2.83289 -3.28526 0
M  V30 2662 H 249.127 -2.55192 -4.8947 0
M  V30 2663 H 251.603 -0.804602 -4.08247 0
M  V30 2664 H 250.479 -0.622173 -5.45362 0
M  V30 2665 H 250.74 0.727934 -4.36066 0
M  V30 2666 N 249.799 1.42003 -0.683588 0
M  V30 2667 C 250.729 2.33487 -0.024866 0
M  V30 2668 C 251.71 1.51163 0.779975 0
M  V30 2669 O 252.895 1.79739 0.735362 0
M  V30 2670 C 250.025 3.3487 0.920836 0
M  V30 2671 C 248.979 4.27414 0.223958 0
M  V30 2672 C 248.305 5.19074 1.2832 0
M  V30 2673 C 249.605 5.14445 -0.90242 0
M  V30 2674 H 251.299 2.88819 -0.788921 0
M  V30 2675 H 248.845 1.38873 -0.38083 0
M  V30 2676 H 250.798 3.97787 1.39081 0
M  V30 2677 H 249.522 2.77861 1.71642 0
M  V30 2678 H 248.181 3.65904 -0.225864 0
M  V30 2679 H 247.829 4.58387 2.071 0
M  V30 2680 H 247.529 5.81822 0.821995 0
M  V30 2681 H 249.053 5.84867 1.75392 0
M  V30 2682 H 250.467 5.70998 -0.513272 0
M  V30 2683 H 248.864 5.86072 -1.28997 0
M  V30 2684 H 249.934 4.52322 -1.74737 0
M  V30 2685 N 251.277 0.427512 1.51691 0
M  V30 2686 C 252.207 -0.3796 2.30394 0
M  V30 2687 C 253.188 -1.02982 1.35384 0
M  V30 2688 O 254.373 -1.03534 1.643 0
M  V30 2689 C 251.503 -1.48649 3.1388 0
M  V30 2690 C 250.457 -0.960294 4.17088 0
M  V30 2691 C 249.783 -2.16219 4.89033 0
M  V30 2692 C 251.083 -0.00153679 5.223 0
M  V30 2693 H 252.777 0.277164 2.98114 0
M  V30 2694 H 250.323 0.134739 1.43368 0
M  V30 2695 H 252.276 -2.05826 3.67714 0
M  V30 2696 H 251 -2.1714 2.43962 0
M  V30 2697 H 249.659 -0.410806 3.64291 0
M  V30 2698 H 249.307 -2.83307 4.15628 0
M  V30 2699 H 249.007 -1.81654 5.58816 0
M  V30 2700 H 250.531 -2.73968 5.45687 0
M  V30 2701 H 251.945 -0.482687 5.71264 0
M  V30 2702 H 250.342 0.256199 5.99553 0
M  V30 2703 H 251.412 0.938174 4.75738 0
M  V30 2704 N 252.755 -1.56801 0.158532 0
M  V30 2705 C 253.705 -2.13923 -0.788738 0
M  V30 2706 C 254.689 -1.07006 -1.2016 0
M  V30 2707 O 255.881 -1.33159 -1.1661 0
M  V30 2708 C 253.01 -2.77348 -2.02319 0
M  V30 2709 C 252.096 -3.91404 -1.6329 0
M  V30 2710 N 252.487 -4.9677 -0.951463 0
M  V30 2711 C 250.785 -4.02326 -1.92482 0
M  V30 2712 C 251.486 -5.76698 -0.761221 0
M  V30 2713 N 250.462 -5.27859 -1.29869 0
M  V30 2714 H 254.264 -2.92757 -0.258995 0
M  V30 2715 H 251.778 -1.62344 -0.0426055 0
M  V30 2716 H 253.775 -3.16639 -2.71192 0
M  V30 2717 H 252.435 -1.99991 -2.558 0
M  V30 2718 H 253.446 -5.14284 -0.610928 0
M  V30 2719 H 250.123 -3.36059 -2.47732 0
M  V30 2720 H 251.513 -6.71529 -0.223284 0
M  V30 2721 N 254.233 0.115231 -1.57178 0
M  V30 2722 C 255.473 0.828199 -1.8687 0
M  V30 2723 C 255.837 1.76873 -0.747002 0
M  V30 2724 O 257.038 2.52354 -0.925785 0
M  V30 2725 C 255.309 1.55515 -3.21792 0
M  V30 2726 S 256.868 2.30917 -3.73125 0
M  V30 2727 H 253.686 0.27634 -0.655101 0
M  V30 2728 H 256.288 0.0863469 -1.95309 0
M  V30 2729 H 254.992 0.856248 -4.01368 0
M  V30 2730 H 254.523 2.3373 -3.16439 0
M  V30 2731 H 256.538 3.56705 -3.44929 0
M  V30 2732 N 255.711 1.52812 0.385517 0
M  V30 2733 C 256.958 1.68026 1.1302 0
M  V30 2734 C 257.286 0.421934 1.89868 0
M  V30 2735 O 256.541 -0.595749 1.86412 0
M  V30 2736 C 256.84 2.86856 2.13187 0
M  V30 2737 C 256.506 4.24159 1.5297 0
M  V30 2738 C 255.168 4.61501 1.36274 0
M  V30 2739 C 257.52 5.09627 1.09223 0
M  V30 2740 C 254.848 5.81966 0.743837 0
M  V30 2741 C 257.2 6.30719 0.487411 0
M  V30 2742 C 255.864 6.6679 0.307777 0
M  V30 2743 H 255.134 0.614849 0.413571 0
M  V30 2744 H 257.781 1.86962 0.414405 0
M  V30 2745 H 256.086 2.6235 2.90998 0
M  V30 2746 H 257.783 2.95821 2.70722 0
M  V30 2747 H 254.373 3.94746 1.66954 0
M  V30 2748 H 258.557 4.81343 1.20922 0
M  V30 2749 H 253.813 6.08519 0.592891 0
M  V30 2750 H 257.987 6.96259 0.140143 0
M  V30 2751 H 255.614 7.60001 -0.173879 0
M  V30 2752 N 257.189 -0.644168 1.43834 0
M  V30 2753 C 258.119 -1.76814 1.52509 0
M  V30 2754 C 259.1 -1.65823 0.379052 0
M  V30 2755 O 260.285 -1.84781 0.597466 0
M  V30 2756 C 257.415 -3.15288 1.4564 0
M  V30 2757 C 256.369 -3.41053 2.58586 0
M  V30 2758 C 255.695 -4.79421 2.36769 0
M  V30 2759 C 256.995 -3.34902 4.00797 0
M  V30 2760 H 258.689 -1.69812 2.46586 0
M  V30 2761 H 256.235 -0.815542 1.1868 0
M  V30 2762 H 258.188 -3.93681 1.50311 0
M  V30 2763 H 256.912 -3.23043 0.480725 0
M  V30 2764 H 255.571 -2.65035 2.53282 0
M  V30 2765 H 255.219 -4.83863 1.37424 0
M  V30 2766 H 254.919 -4.9762 3.12487 0
M  V30 2767 H 256.443 -5.6006 2.43238 0
M  V30 2768 H 257.857 -4.03218 4.07539 0
M  V30 2769 H 256.254 -3.64637 4.76613 0
M  V30 2770 H 257.324 -2.32928 4.25291 0
M  V30 2771 N 258.668 -1.30515 -0.883378 0
M  V30 2772 C 259.914 -1.20617 -1.63778 0
M  V30 2773 C 260.269 0.236469 -1.90941 0
M  V30 2774 O 259.562 1.16596 -1.52039 0
M  V30 2775 C 259.756 -1.96994 -2.98209 0
M  V30 2776 C 259.585 -3.48537 -2.84169 0
M  V30 2777 C 258.355 -4.17893 -2.84067 0
M  V30 2778 C 260.553 -4.43738 -2.60001 0
M  V30 2779 N 258.535 -5.55685 -2.60936 0
M  V30 2780 C 259.906 -5.69105 -2.46007 0
M  V30 2781 C 261.961 -4.33316 -2.45239 0
M  V30 2782 C 260.664 -6.8523 -2.18752 0
M  V30 2783 C 262.69 -5.4921 -2.19369 0
M  V30 2784 C 262.052 -6.73558 -2.06153 0
M  V30 2785 H 258.151 -0.496434 -0.604216 0
M  V30 2786 H 260.735 -1.64544 -1.04083 0
M  V30 2787 H 258.906 -1.55455 -3.55933 0
M  V30 2788 H 260.638 -1.79225 -3.62851 0
M  V30 2789 H 257.393 -3.69739 -2.95956 0
M  V30 2790 H 257.817 -6.28199 -2.52378 0
M  V30 2791 H 262.459 -3.37856 -2.54191 0
M  V30 2792 H 260.177 -7.80729 -2.08537 0
M  V30 2793 H 263.763 -5.43054 -2.08766 0
M  V30 2794 H 262.643 -7.61721 -1.86416 0
M  V30 2795 N 260.146 1.09593 -1.13257 0
M  V30 2796 C 261.557 1.63229 -0.906274 0
M  V30 2797 C 261.908 1.8811 0.557578 0
M  V30 2798 O 261.033 1.62953 1.42391 0
M  V30 2799 C 261.628 2.96535 -1.63867 0
M  V30 2800 C 260.187 3.47003 -1.45828 0
M  V30 2801 C 259.334 2.2145 -1.66898 0
M  V30 2802 H 262.285 0.92978 -1.28611 0
M  V30 2803 H 262.306 3.64411 -1.09476 0
M  V30 2804 H 261.818 2.78394 -2.70404 0
M  V30 2805 H 259.919 3.70272 -0.415848 0
M  V30 2806 H 260.032 4.24551 -2.2202 0
M  V30 2807 H 258.396 2.30022 -1.09371 0
M  V30 2808 H 259.179 2.0583 -2.74752 0
M  V30 2809 N 261.624 0.925811 1.2754 0
M  V30 2810 C 262.554 0.440748 2.29303 0
M  V30 2811 C 263.535 -0.497971 1.62648 0
M  V30 2812 O 264.72 -0.403126 1.8997 0
M  V30 2813 C 261.85 -0.309048 3.45922 0
M  V30 2814 C 260.804 0.54166 4.24559 0
M  V30 2815 C 260.13 -0.337191 5.33636 0
M  V30 2816 C 261.43 1.80516 4.90114 0
M  V30 2817 H 263.124 1.29121 2.70126 0
M  V30 2818 H 260.67 0.622323 1.29858 0
M  V30 2819 H 262.623 -0.659315 4.1621 0
M  V30 2820 H 261.347 -1.19352 3.04011 0
M  V30 2821 H 260.006 0.874609 3.56014 0
M  V30 2822 H 259.654 -1.22056 4.87966 0
M  V30 2823 H 259.354 0.228497 5.87156 0
M  V30 2824 H 260.878 -0.683072 6.06767 0
M  V30 2825 H 262.292 1.52307 5.52698 0
M  V30 2826 H 260.689 2.3142 5.53683 0
M  V30 2827 H 261.759 2.52581 4.13921 0
M  V30 2828 N 263.102 -1.41638 0.69111 0
M  V30 2829 C 264.348 -2.01598 0.220519 0
M  V30 2830 C 264.681 -1.54594 -1.17535 0
M  V30 2831 O 263.956 -0.755177 -1.79241 0
M  V30 2832 C 264.239 -3.59062 0.273243 0
M  V30 2833 C 264.092 -4.16203 1.70573 0
M  V30 2834 C 265.411 -4.38546 -0.369457 0
M  V30 2835 H 262.53 -0.732468 0.0816045 0
M  V30 2836 H 265.172 -1.68445 0.878986 0
M  V30 2837 H 263.322 -3.87435 -0.287411 0
M  V30 2838 H 264.994 -3.98722 2.31989 0
M  V30 2839 H 263.237 -3.71414 2.2413 0
M  V30 2840 H 263.908 -5.25358 1.69419 0
M  V30 2841 H 266.384 -4.1596 0.107977 0
M  V30 2842 H 265.26 -5.48069 -0.302002 0
M  V30 2843 H 265.521 -4.17662 -1.44951 0
M  V30 2844 N 264.58 -0.43555 -1.51462 0
M  V30 2845 C 265.808 0.130242 -2.0649 0
M  V30 2846 C 266.223 1.36614 -1.30315 0
M  V30 2847 O 265.58 1.78869 -0.362223 0
M  V30 2848 C 265.631 0.454253 -3.58635 0
M  V30 2849 O 265.352 -0.73259 -4.31931 0
M  V30 2850 C 266.853 1.07091 -4.3017 0
M  V30 2851 H 264.073 0.00871669 -0.670943 0
M  V30 2852 H 266.617 -0.614117 -1.95061 0
M  V30 2853 H 264.772 1.14851 -3.69984 0
M  V30 2854 H 265.186 -0.455787 -5.22516 0
M  V30 2855 H 266.66 1.24764 -5.37716 0
M  V30 2856 H 267.137 2.05144 -3.88346 0
M  V30 2857 H 267.743 0.416089 -4.2326 0
M  V30 2858 N 266.058 1.56714 -0.166846 0
M  V30 2859 C 267.305 1.96747 0.479252 0
M  V30 2860 C 267.633 1.05263 1.63554 0
M  V30 2861 O 266.888 0.0858098 1.95512 0
M  V30 2862 C 267.187 3.42889 1.00806 0
M  V30 2863 C 266.853 4.50889 -0.0318574 0
M  V30 2864 C 265.515 4.8015 -0.317675 0
M  V30 2865 C 267.867 5.15949 -0.737956 0
M  V30 2866 C 265.195 5.71772 -1.31506 0
M  V30 2867 C 267.547 6.08647 -1.72429 0
M  V30 2868 C 266.211 6.36277 -2.0176 0
M  V30 2869 H 265.481 0.719949 0.175371 0
M  V30 2870 H 268.128 1.89756 -0.257864 0
M  V30 2871 H 266.433 3.4681 1.82291 0
M  V30 2872 H 268.13 3.71203 1.51689 0
M  V30 2873 H 264.72 4.28128 0.201088 0
M  V30 2874 H 268.904 4.93458 -0.530351 0
M  V30 2875 H 264.16 5.91465 -1.54853 0
M  V30 2876 H 268.334 6.58129 -2.27682 0
M  V30 2877 H 265.961 7.07075 -2.79194 0
M  V30 2878 N 267.536 -0.106894 1.57237 0
M  V30 2879 C 268.782 -0.81373 1.85759 0
M  V30 2880 C 269.115 -1.78952 0.754315 0
M  V30 2881 O 268.39 -1.93029 -0.23879 0
M  V30 2882 C 268.673 -1.55293 3.24894 0
M  V30 2883 C 268.526 -0.595929 4.45835 0
M  V30 2884 C 269.845 -2.5063 3.61763 0
M  V30 2885 H 266.964 -0.294369 0.67566 0
M  V30 2886 H 269.606 -0.0776472 1.89841 0
M  V30 2887 H 267.756 -2.1804 3.21544 0
M  V30 2888 H 269.428 0.0236262 4.61294 0
M  V30 2889 H 267.671 0.0916191 4.33703 0
M  V30 2890 H 268.342 -1.15004 5.39887 0
M  V30 2891 H 270.818 -1.97982 3.65981 0
M  V30 2892 H 269.694 -2.99376 4.60071 0
M  V30 2893 H 269.955 -3.3385 2.89821 0
M  V30 2894 N 269.014 -1.53014 -0.377408 0
M  V30 2895 C 270.26 -1.68872 -1.12294 0
M  V30 2896 C 270.593 -0.433224 -1.89306 0
M  V30 2897 O 269.868 0.569258 -1.85983 0
M  V30 2898 C 270.151 -2.93115 -2.09179 0
M  V30 2899 C 270.004 -4.28794 -1.35853 0
M  V30 2900 C 271.323 -3.12928 -3.09458 0
M  V30 2901 H 268.442 -0.614518 -0.406862 0
M  V30 2902 H 271.084 -1.85633 -0.40503 0
M  V30 2903 H 269.234 -2.78956 -2.70399 0
M  V30 2904 H 270.906 -4.54742 -0.775082 0
M  V30 2905 H 269.149 -4.28744 -0.660364 0
M  V30 2906 H 269.82 -5.11837 -2.06706 0
M  V30 2907 H 272.296 -3.26194 -2.58334 0
M  V30 2908 H 271.172 -4.01316 -3.74482 0
M  V30 2909 H 271.433 -2.27669 -3.78971 0
M  V30 2910 N 270.492 0.636531 -1.44174 0
M  V30 2911 C 271.74 1.39343 -1.46383 0
M  V30 2912 C 272.061 1.94766 -0.0955715 0
M  V30 2913 O 271.331 1.75452 0.871395 0
M  V30 2914 H 269.911 0.517199 -0.538994 0
M  V30 2915 H 272.573 0.74957 -1.7991 0
M  V30 2916 H 271.669 2.22746 -2.18611 0
M  V30 2917 N 271.97 1.30982 0.876444 0
M  V30 2918 C 273.216 1.20474 1.63138 0
M  V30 2919 C 273.549 -0.238096 1.92735 0
M  V30 2920 O 272.824 -1.1692 1.55435 0
M  V30 2921 C 273.107 2.04244 2.96574 0
M  V30 2922 C 272.96 3.56793 2.73896 0
M  V30 2923 C 274.279 1.88684 3.97601 0
M  V30 2924 H 271.398 0.439001 0.591985 0
M  V30 2925 H 274.04 1.60704 1.01361 0
M  V30 2926 H 272.19 1.70063 3.493 0
M  V30 2927 H 273.862 4.01077 2.27892 0
M  V30 2928 H 272.105 3.80548 2.08245 0
M  V30 2929 H 272.776 4.10706 3.68815 0
M  V30 2930 H 275.252 2.18584 3.54062 0
M  V30 2931 H 274.128 2.4961 4.88862 0
M  V30 2932 H 274.389 0.848343 4.33884 0
M  V30 2933 N 273.449 -1.08991 1.13837 0
M  V30 2934 C 274.379 -2.17771 0.842507 0
M  V30 2935 C 275.36 -1.6892 -0.20001 0
M  V30 2936 O 276.545 -1.94113 -0.0579731 0
M  V30 2937 C 273.675 -3.4589 0.312644 0
M  V30 2938 C 272.629 -4.08099 1.28992 0
M  V30 2939 C 271.955 -5.31098 0.619623 0
M  V30 2940 C 273.255 -4.50077 2.65005 0
M  V30 2941 H 274.949 -2.42777 1.75213 0
M  V30 2942 H 272.495 -1.16682 0.843875 0
M  V30 2943 H 274.448 -4.21297 0.0933043 0
M  V30 2944 H 273.172 -3.20419 -0.632382 0
M  V30 2945 H 271.831 -3.34717 1.49533 0
M  V30 2946 H 271.479 -5.0191 -0.33102 0
M  V30 2947 H 271.179 -5.73674 1.27167 0
M  V30 2948 H 272.703 -6.09224 0.409669 0
M  V30 2949 H 274.117 -5.16688 2.48407 0
M  V30 2950 H 272.514 -5.03553 3.26427 0
M  V30 2951 H 273.584 -3.62257 3.22332 0
M  V30 2952 N 274.927 -0.932562 -1.27047 0
M  V30 2953 C 276.176 -0.571351 -1.93439 0
M  V30 2954 C 276.489 0.892467 -1.74053 0
M  V30 2955 O 277.695 1.36267 -2.34826 0
M  V30 2956 C 276.151 -0.97106 -3.46552 0
M  V30 2957 C 275.759 -2.4559 -3.74686 0
M  V30 2958 C 277.503 -0.681333 -4.18997 0
M  V30 2959 C 275.41 -2.79475 -5.21198 0
M  V30 2960 H 274.34 -0.209966 -0.724176 0
M  V30 2961 H 276.991 -1.13403 -1.44263 0
M  V30 2962 H 275.373 -0.336983 -3.94564 0
M  V30 2963 H 276.547 -3.13829 -3.37414 0
M  V30 2964 H 274.862 -2.71802 -3.15456 0
M  V30 2965 H 277.459 -0.910939 -5.26883 0
M  V30 2966 H 277.802 0.381628 -4.14547 0
M  V30 2967 H 278.335 -1.27473 -3.76823 0
M  V30 2968 H 275.074 -3.847 -5.30741 0
M  V30 2969 H 274.594 -2.1589 -5.596 0
M  V30 2970 H 276.273 -2.67478 -5.89122 0
M  V30 2971 N 276.405 1.4127 -0.698611 0
M  V30 2972 C 277.651 2.01478 -0.231207 0
M  V30 2973 C 277.984 1.55215 1.16713 0
M  V30 2974 O 277.259 0.764672 1.78838 0
M  V30 2975 C 277.542 3.58912 -0.292281 0
M  V30 2976 C 277.395 4.15293 -1.72778 0
M  V30 2977 C 278.714 4.38736 0.346194 0
M  V30 2978 H 275.833 0.732025 -0.0854878 0
M  V30 2979 H 278.475 1.67977 -0.887906 0
M  V30 2980 H 276.625 3.87582 0.26686 0
M  V30 2981 H 278.297 3.97486 -2.341 0
M  V30 2982 H 276.54 3.7022 -2.26096 0
M  V30 2983 H 277.211 5.24452 -1.72202 0
M  V30 2984 H 279.687 4.15897 -0.130035 0
M  V30 2985 H 278.563 5.48221 0.272932 0
M  V30 2986 H 278.824 4.18425 1.42734 0
M  V30 2987 N 277.883 0.443576 1.51229 0
M  V30 2988 C 279.129 -0.120975 2.02439 0
M  V30 2989 C 279.462 -1.41815 1.32674 0
M  V30 2990 O 278.737 -1.89373 0.443622 0
M  V30 2991 C 279.02 -0.333291 3.58554 0
M  V30 2992 C 278.873 0.982968 4.38928 0
M  V30 2993 C 280.192 -1.10028 4.26124 0
M  V30 2994 H 277.311 -0.0424923 0.735774 0
M  V30 2995 H 279.953 0.583794 1.80809 0
M  V30 2996 H 278.103 -0.933614 3.77115 0
M  V30 2997 H 279.775 1.61775 4.32003 0
M  V30 2998 H 278.018 1.58611 4.03763 0
M  V30 2999 H 278.689 0.788379 5.46341 0
M  V30 3000 H 281.165 -0.591711 4.11871 0
M  V30 3001 H 280.041 -1.21761 5.35225 0
M  V30 3002 H 280.302 -2.12996 3.87408 0
M  V30 3003 N 279.361 -1.56624 0.175154 0
M  V30 3004 C 280.291 -2.21155 -0.749195 0
M  V30 3005 C 281.272 -1.16836 -1.23626 0
M  V30 3006 O 282.457 -1.45277 -1.28873 0
M  V30 3007 C 279.587 -2.8553 -1.97711 0
M  V30 3008 C 278.541 -3.95921 -1.62575 0
M  V30 3009 C 277.867 -4.47365 -2.92864 0
M  V30 3010 C 279.167 -5.15323 -0.850838 0
M  V30 3011 H 280.861 -2.98653 -0.211295 0
M  V30 3012 H 278.407 -1.43651 -0.100188 0
M  V30 3013 H 280.36 -3.2935 -2.62881 0
M  V30 3014 H 279.084 -2.05406 -2.53921 0
M  V30 3015 H 277.743 -3.52762 -0.997719 0
M  V30 3016 H 277.391 -3.64027 -3.47122 0
M  V30 3017 H 277.091 -5.21839 -2.70106 0
M  V30 3018 H 278.615 -4.93873 -3.59056 0
M  V30 3019 H 280.029 -5.55812 -1.40521 0
M  V30 3020 H 278.426 -5.95739 -0.722154 0
M  V30 3021 H 279.496 -4.84661 0.152082 0
M  V30 3022 N 280.839 0.0985539 -1.57292 0
M  V30 3023 C 282.067 0.816318 -1.90115 0
M  V30 3024 C 282.482 1.72451 -0.768509 0
M  V30 3025 O 281.839 1.80643 0.259687 0
M  V30 3026 C 281.89 1.63259 -3.22535 0
M  V30 3027 O 281.611 0.760934 -4.31441 0
M  V30 3028 C 283.112 2.45372 -3.69199 0
M  V30 3029 H 280.332 0.233595 -0.629027 0
M  V30 3030 H 282.876 0.0768229 -2.04356 0
M  V30 3031 H 281.031 2.32463 -3.09903 0
M  V30 3032 H 281.445 1.32595 -5.07463 0
M  V30 3033 H 282.919 2.98144 -4.64558 0
M  V30 3034 H 283.396 3.23677 -2.96867 0
M  V30 3035 H 284.002 1.81373 -3.84687 0
M  V30 3036 N 282.317 1.53212 0.369288 0
M  V30 3037 C 283.566 1.68436 1.10961 0
M  V30 3038 C 283.879 0.440738 1.9057 0
M  V30 3039 O 285.085 0.473446 2.6734 0
M  V30 3040 C 283.541 2.97744 2.0218 0
M  V30 3041 C 283.149 4.29355 1.279 0
M  V30 3042 C 284.893 3.22334 2.76226 0
M  V30 3043 C 282.8 5.49755 2.17999 0
M  V30 3044 H 281.73 0.627568 0.41794 0
M  V30 3045 H 284.381 1.79713 0.370884 0
M  V30 3046 H 282.763 2.8026 2.79768 0
M  V30 3047 H 283.937 4.57458 0.554007 0
M  V30 3048 H 282.252 4.11179 0.657311 0
M  V30 3049 H 284.849 4.09471 3.43857 0
M  V30 3050 H 285.192 2.38238 3.41392 0
M  V30 3051 H 285.725 3.40475 2.05723 0
M  V30 3052 H 282.464 6.36318 1.57417 0
M  V30 3053 H 281.984 5.25937 2.88359 0
M  V30 3054 H 283.663 5.84401 2.77641 0
M  V30 3055 N 283.795 -0.628877 1.44509 0
M  V30 3056 C 285.035 -1.39993 1.48934 0
M  V30 3057 C 285.399 -1.91627 0.119604 0
M  V30 3058 O 286.6 -2.68772 0.0385283 0
M  V30 3059 C 284.871 -2.53241 2.52198 0
M  V30 3060 S 286.43 -3.41383 2.75687 0
M  V30 3061 H 283.248 -0.477558 0.526744 0
M  V30 3062 H 285.85 -0.727804 1.81448 0
M  V30 3063 H 284.554 -2.13622 3.50419 0
M  V30 3064 H 284.085 -3.25278 2.21264 0
M  V30 3065 H 286.1 -4.50752 2.07453 0
M  V30 3066 N 285.273 -1.31445 -0.869486 0
M  V30 3067 C 286.236 -1.19094 -1.9583 0
M  V30 3068 C 287.236 -0.117906 -1.60367 0
M  V30 3069 O 288.426 -0.367208 -1.70286 0
M  V30 3070 C 285.558 -0.828165 -3.30688 0
M  V30 3071 H 286.751 -2.15842 -2.08212 0
M  V30 3072 H 284.304 -1.15063 -1.05784 0
M  V30 3073 H 285.039 0.138142 -3.24006 0
M  V30 3074 H 284.824 -1.6038 -3.578 0
M  V30 3075 H 286.314 -0.765658 -4.10521 0
M  V30 3076 N 286.751 1.08385 -1.14413 0
M  V30 3077 C 287.698 2.15311 -0.831265 0
M  V30 3078 C 288.668 1.64751 0.211292 0
M  V30 3079 O 289.853 1.90627 0.0811674 0
M  V30 3080 C 286.993 3.43658 -0.315143 0
M  V30 3081 C 286.106 4.08064 -1.41802 0
M  V30 3082 C 285.241 5.24207 -0.859126 0
M  V30 3083 C 284.28 5.80554 -1.93967 0
M  V30 3084 N 283.417 6.88042 -1.39793 0
M  V30 3085 H 288.257 2.41415 -1.74708 0
M  V30 3086 H 285.794 1.18474 -0.871909 0
M  V30 3087 H 287.752 4.172 0.00230884 0
M  V30 3088 H 286.382 3.17839 0.56378 0
M  V30 3089 H 285.434 3.3228 -1.85187 0
M  V30 3090 H 286.746 4.45962 -2.23427 0
M  V30 3091 H 285.9 6.04689 -0.49359 0
M  V30 3092 H 284.639 4.87699 -0.011932 0
M  V30 3093 H 283.644 4.98725 -2.31415 0
M  V30 3094 H 284.869 6.19121 -2.79046 0
M  V30 3095 H 282.815 6.53493 -0.572919 0
M  V30 3096 H 282.732 7.24767 -2.15054 0
M  V30 3097 H 284 7.72255 -1.0603 0
M  V30 3098 N 288.23 0.939286 1.26551 0
M  V30 3099 C 289.455 0.602008 1.98471 0
M  V30 3100 C 289.88 -0.815624 1.69497 0
M  V30 3101 O 289.238 -1.54912 0.941905 0
M  V30 3102 C 289.286 0.848407 3.50477 0
M  V30 3103 O 288.39 -0.0804009 4.12322 0
M  V30 3104 H 287.731 0.23049 0.622712 0
M  V30 3105 H 290.261 1.2617 1.61066 0
M  V30 3106 H 290.271 0.768553 4.00696 0
M  V30 3107 H 288.946 1.88171 3.70897 0
M  V30 3108 H 287.523 0.0503508 3.72866 0
M  V30 3109 N 289.708 -1.40897 0.706093 0
M  V30 3110 C 290.638 -2.33418 0.0620085 0
M  V30 3111 C 291.619 -1.52385 -0.755827 0
M  V30 3112 O 292.804 -1.80886 -0.706674 0
M  V30 3113 C 289.934 -3.36293 -0.867445 0
M  V30 3114 C 288.888 -4.27716 -0.155932 0
M  V30 3115 C 288.214 -5.2105 -1.20046 0
M  V30 3116 C 289.514 -5.12944 0.984149 0
M  V30 3117 H 291.208 -2.87527 0.83477 0
M  V30 3118 H 288.754 -1.38249 0.402875 0
M  V30 3119 H 290.707 -3.99949 -1.32735 0
M  V30 3120 H 289.431 -2.80556 -1.67199 0
M  V30 3121 H 288.09 -3.65498 0.284047 0
M  V30 3122 H 287.738 -4.61624 -1.99781 0
M  V30 3123 H 287.438 -5.83056 -0.729328 0
M  V30 3124 H 288.962 -5.87584 -1.66066 0
M  V30 3125 H 290.376 -5.70109 0.604048 0
M  V30 3126 H 288.773 -5.83945 1.38304 0
M  V30 3127 H 289.843 -4.49485 1.81911 0
M  V30 3128 N 291.186 -0.45159 -1.50991 0
M  V30 3129 C 292.149 0.341117 -2.26647 0
M  V30 3130 C 293.149 0.937422 -1.30649 0
M  V30 3131 O 294.339 0.809644 -1.54241 0
M  V30 3132 C 291.471 1.48398 -3.06905 0
M  V30 3133 H 292.664 -0.322117 -2.98165 0
M  V30 3134 H 290.217 -0.205122 -1.54948 0
M  V30 3135 H 290.952 2.18284 -2.39838 0
M  V30 3136 H 290.737 1.06241 -3.77432 0
M  V30 3137 H 292.227 2.04367 -3.64176 0
M  V30 3138 N 292.664 1.56529 -0.183458 0
M  V30 3139 C 293.91 1.97537 0.459036 0
M  V30 3140 C 294.243 1.06989 1.62071 0
M  V30 3141 O 293.518 0.11948 1.94133 0
M  V30 3142 C 293.801 3.47874 0.930368 0
M  V30 3143 C 293.654 4.492 -0.232317 0
M  V30 3144 C 294.973 4.01612 1.79989 0
M  V30 3145 H 292.092 0.718204 0.165383 0
M  V30 3146 H 294.734 1.88042 -0.272038 0
M  V30 3147 H 292.884 3.56095 1.55333 0
M  V30 3148 H 294.556 4.53027 -0.86972 0
M  V30 3149 H 292.799 4.24657 -0.885928 0
M  V30 3150 H 293.47 5.51823 0.139796 0
M  V30 3151 H 295.946 3.96097 1.27461 0
M  V30 3152 H 294.822 5.07195 2.09867 0
M  V30 3153 H 295.083 3.46163 2.74998 0
M  V30 3154 N 294.142 -0.090211 1.57342 0
M  V30 3155 C 295.089 -1.10909 2.02405 0
M  V30 3156 C 296.059 -1.39523 0.901252 0
M  V30 3157 O 297.244 -1.50903 1.1676 0
M  V30 3158 C 294.384 -2.42277 2.45755 0
M  V30 3159 C 293.497 -2.20352 3.71576 0
M  V30 3160 C 292.632 -3.45154 4.03785 0
M  V30 3161 C 291.671 -3.18512 5.22701 0
M  V30 3162 N 290.808 -4.35593 5.50639 0
M  V30 3163 H 295.648 -0.71782 2.89225 0
M  V30 3164 H 293.185 -0.342901 1.43048 0
M  V30 3165 H 295.143 -3.18951 2.68935 0
M  V30 3166 H 293.773 -2.79242 1.61938 0
M  V30 3167 H 292.825 -1.34458 3.55844 0
M  V30 3168 H 294.137 -1.96661 4.58395 0
M  V30 3169 H 293.291 -4.30233 4.27767 0
M  V30 3170 H 292.03 -3.71904 3.15498 0
M  V30 3171 H 291.035 -2.31827 4.98534 0
M  V30 3172 H 292.26 -2.93103 6.12591 0
M  V30 3173 H 290.206 -4.6241 4.6531 0
M  V30 3174 H 290.123 -4.1511 6.31838 0
M  V30 3175 H 291.391 -5.21723 5.7916 0
M  V30 3176 N 295.62 -1.53406 -0.361157 0
M  V30 3177 C 296.583 -1.79479 -1.42548 0
M  V30 3178 C 297.583 -0.665327 -1.4639 0
M  V30 3179 O 298.773 -0.933549 -1.47073 0
M  V30 3180 C 295.905 -1.92087 -2.8163 0
M  V30 3181 H 297.098 -2.74538 -1.20701 0
M  V30 3182 H 294.651 -1.4455 -0.594546 0
M  V30 3183 H 295.386 -0.991099 -3.08784 0
M  V30 3184 H 295.171 -2.74241 -2.80239 0
M  V30 3185 H 296.661 -2.13836 -3.58697 0
M  V30 3186 N 297.098 0.621204 -1.44841 0
M  V30 3187 C 298.008 1.7612 -1.5498 0
M  V30 3188 C 299.024 1.68477 -0.434927 0
M  V30 3189 O 300.2 1.89076 -0.693693 0
M  V30 3190 C 297.265 3.1254 -1.50065 0
M  V30 3191 C 296.326 3.31741 -2.72482 0
M  V30 3192 C 295.559 4.61653 -2.67792 0
M  V30 3193 O 295.782 5.431 -1.74352 0
M  V30 3194 O 294.716 4.83271 -3.58794 0
M  V30 3195 H 298.542 1.70518 -2.51311 0
M  V30 3196 H 296.127 0.783643 -1.27198 0
M  V30 3197 H 298.009 3.93844 -1.49882 0
M  V30 3198 H 296.684 3.18663 -0.568806 0
M  V30 3199 H 295.591 2.50077 -2.7823 0
M  V30 3200 H 296.924 3.30486 -3.64746 0
M  V30 3201 N 298.576 1.31904 0.862503 0
M  V30 3202 C 299.539 1.20131 1.95195 0
M  V30 3203 C 300.539 0.126409 1.60302 0
M  V30 3204 O 301.729 0.376234 1.70089 0
M  V30 3205 C 298.861 0.845691 3.30244 0
M  V30 3206 H 300.054 2.16943 2.07064 0
M  V30 3207 H 297.607 1.15622 1.05172 0
M  V30 3208 H 298.342 -0.120957 3.24074 0
M  V30 3209 H 298.127 1.62276 3.56944 0
M  V30 3210 H 299.617 0.787418 4.10109 0
M  V30 3211 N 300.054 -1.07777 1.14986 0
M  V30 3212 C 300.987 -2.14228 0.786243 0
M  V30 3213 C 301.965 -1.60888 -0.235347 0
M  V30 3214 O 303.149 -1.88099 -0.122909 0
M  V30 3215 C 300.276 -3.38281 0.168433 0
M  V30 3216 C 299.322 -4.10387 1.16123 0
M  V30 3217 S 300.155 -4.62371 2.70135 0
M  V30 3218 C 301.311 -5.89704 2.09762 0
M  V30 3219 H 301.544 -2.44741 1.68787 0
M  V30 3220 H 299.077 -1.19984 0.971756 0
M  V30 3221 H 301.035 -4.10098 -0.181588 0
M  V30 3222 H 299.696 -3.05953 -0.710725 0
M  V30 3223 H 298.889 -4.99431 0.677086 0
M  V30 3224 H 298.491 -3.44513 1.45556 0
M  V30 3225 H 300.783 -6.61648 1.45701 0
M  V30 3226 H 301.726 -6.42824 2.96955 0
M  V30 3227 H 302.134 -5.4302 1.54239 0
M  V30 3228 N 301.532 -0.945985 -1.26051 0
M  V30 3229 C 302.479 -0.45809 -2.26208 0
M  V30 3230 C 303.449 0.484816 -1.58867 0
M  V30 3231 O 304.634 0.399969 -1.86561 0
M  V30 3232 C 301.774 0.266131 -3.44072 0
M  V30 3233 C 300.887 -0.713005 -4.26075 0
M  V30 3234 C 300.022 0.0329013 -5.3119 0
M  V30 3235 C 299.061 -0.93774 -6.04874 0
M  V30 3236 N 298.198 -0.223274 -7.01745 0
M  V30 3237 H 303.038 -1.3171 -2.67313 0
M  V30 3238 H 300.575 -0.66069 -1.31428 0
M  V30 3239 H 302.533 0.702514 -4.11243 0
M  V30 3240 H 301.163 1.08925 -3.03867 0
M  V30 3241 H 300.215 -1.26789 -3.58648 0
M  V30 3242 H 301.527 -1.45406 -4.77136 0
M  V30 3243 H 300.681 0.528335 -6.04395 0
M  V30 3244 H 299.42 0.806801 -4.8098 0
M  V30 3245 H 298.425 -1.44425 -5.30492 0
M  V30 3246 H 299.65 -1.71172 -6.57173 0
M  V30 3247 H 297.596 0.532046 -6.53839 0
M  V30 3248 H 297.513 -0.90357 -7.50581 0
M  V30 3249 H 298.781 0.250907 -7.79096 0
M  V30 3250 N 303.011 1.40521 -0.713556 0
M  V30 3251 C 303.958 2.30723 -0.059684 0
M  V30 3252 C 304.928 1.48079 0.752448 0
M  V30 3253 O 306.113 1.76823 0.71681 0
M  V30 3254 C 303.253 3.34274 0.857594 0
M  V30 3255 C 302.366 4.31986 0.0351536 0
M  V30 3256 C 301.501 5.22605 0.951724 0
M  V30 3257 C 300.54 6.11976 0.123253 0
M  V30 3258 N 299.677 6.9502 0.99459 0
M  V30 3259 H 304.517 2.86074 -0.834596 0
M  V30 3260 H 302.054 1.40879 -0.42326 0
M  V30 3261 H 304.012 3.92879 1.40364 0
M  V30 3262 H 302.642 2.8043 1.59871 0
M  V30 3263 H 301.694 3.7518 -0.628052 0
M  V30 3264 H 303.006 4.95101 -0.606347 0
M  V30 3265 H 302.16 5.86131 1.56638 0
M  V30 3266 H 300.899 4.59759 1.62705 0
M  V30 3267 H 299.904 5.47482 -0.50435 0
M  V30 3268 H 301.129 6.76881 -0.548539 0
M  V30 3269 H 299.075 6.34764 1.6556 0
M  V30 3270 H 298.992 7.54892 0.40908 0
M  V30 3271 H 300.26 7.62997 1.59549 0
M  V30 3272 N 304.489 0.459591 1.5075 0
M  V30 3273 C 305.905 0.113092 1.59199 0
M  V30 3274 C 306.105 -1.37951 1.46874 0
M  V30 3275 O 305.161 -2.15168 1.32132 0
M  V30 3276 C 306.474 0.653043 2.93523 0
M  V30 3277 C 308.022 0.615449 3.0689 0
M  V30 3278 C 308.497 1.13275 4.43771 0
M  V30 3279 N 309.988 1.09167 4.50152 0
M  V30 3280 C 310.723 1.46256 5.54434 0
M  V30 3281 N 310.219 1.90739 6.66026 0
M  V30 3282 N 312.012 1.37932 5.44914 0
M  V30 3283 H 304.163 1.43049 1.57005 0
M  V30 3284 H 306.426 0.590861 0.741341 0
M  V30 3285 H 306.132 1.69822 3.07983 0
M  V30 3286 H 306.006 0.0902132 3.77092 0
M  V30 3287 H 308.393 -0.420793 2.92084 0
M  V30 3288 H 308.474 1.21495 2.25106 0
M  V30 3289 H 308.118 2.16757 4.59324 0
M  V30 3290 H 308.048 0.509576 5.24129 0
M  V30 3291 H 310.539 0.76528 3.7007 0
M  V30 3292 H 310.852 2.17218 7.41644 0
M  V30 3293 H 309.197 1.94683 6.67176 0
M  V30 3294 H 312.388 1.0303 4.56621 0
M  V30 3295 H 312.561 1.67164 6.26067 0
M  V30 3296 N 305.967 -1.56429 0.191757 0
M  V30 3297 C 306.914 -2.18936 -0.730454 0
M  V30 3298 C 307.884 -1.13557 -1.21219 0
M  V30 3299 O 309.069 -1.41794 -1.27668 0
M  V30 3300 C 306.209 -2.85013 -1.9458 0
M  V30 3301 C 305.322 -4.04909 -1.50574 0
M  V30 3302 C 304.457 -4.58853 -2.67634 0
M  V30 3303 C 303.496 -5.71114 -2.20217 0
M  V30 3304 N 302.633 -6.19478 -3.30442 0
M  V30 3305 H 307.473 -2.97389 -0.190664 0
M  V30 3306 H 305.01 -1.46869 -0.0823694 0
M  V30 3307 H 306.968 -3.21492 -2.65893 0
M  V30 3308 H 305.598 -2.09129 -2.45896 0
M  V30 3309 H 304.65 -3.74115 -0.688605 0
M  V30 3310 H 305.962 -4.86113 -1.11784 0
M  V30 3311 H 305.116 -4.97619 -3.47074 0
M  V30 3312 H 303.855 -3.76749 -3.09696 0
M  V30 3313 H 302.86 -5.31879 -1.3923 0
M  V30 3314 H 304.085 -6.55033 -1.79189 0
M  V30 3315 H 302.031 -5.40297 -3.72041 0
M  V30 3316 H 301.948 -6.95725 -2.9581 0
M  V30 3317 H 303.216 -6.62898 -4.10106 0
M  V30 3318 N 307.445 0.0818655 -1.57387 0
M  V30 3319 C 308.692 0.782914 -1.86753 0
M  V30 3320 C 309.02 1.78082 -0.782118 0
M  V30 3321 O 308.275 1.94426 0.22295 0
M  V30 3322 C 308.574 1.53513 -3.22752 0
M  V30 3323 C 308.24 0.678134 -4.45771 0
M  V30 3324 C 306.902 0.441929 -4.79166 0
M  V30 3325 C 309.254 0.0832243 -5.21134 0
M  V30 3326 C 306.582 -0.398833 -5.85343 0
M  V30 3327 C 308.934 -0.744935 -6.28199 0
M  V30 3328 C 307.598 -0.991107 -6.60101 0
M  V30 3329 H 306.868 0.286489 -0.683378 0
M  V30 3330 H 309.515 0.0439808 -1.91449 0
M  V30 3331 H 307.82 2.34599 -3.138 0
M  V30 3332 H 309.517 2.08218 -3.42705 0
M  V30 3333 H 306.107 0.872357 -4.19628 0
M  V30 3334 H 310.291 0.252847 -4.95655 0
M  V30 3335 H 305.547 -0.598405 -6.08465 0
M  V30 3336 H 309.721 -1.21271 -6.8576 0
M  V30 3337 H 307.348 -1.64437 -7.42202 0
M  V30 3338 N 308.923 1.53595 0.353017 0
M  V30 3339 C 310.148 1.7462 1.11904 0
M  V30 3340 C 310.573 0.479721 1.8188 0
M  V30 3341 O 309.931 -0.567066 1.72204 0
M  V30 3342 C 309.979 2.92029 2.11545 0
M  V30 3343 O 309.083 2.61516 3.18878 0
M  V30 3344 H 308.424 0.579531 0.324099 0
M  V30 3345 H 310.954 2.00525 0.406301 0
M  V30 3346 H 310.964 3.18551 2.5493 0
M  V30 3347 H 309.639 3.83888 1.60008 0
M  V30 3348 H 308.216 2.45852 2.80377 0
M  V30 3349 O 310.44 -0.498996 1.53598 0
M  V30 3350 H 311.131 -1.15384 1.55584 0
M  V30 END ATOM
M  V30 BEGIN BOND
M  V30 END BOND
M  V30 END CTAB
M  END
$$$$
