drugbank_target|O00141 Serine/threonine-protein kinase Sgk1 (DB03247; DB07837; DB08191)
 OpenBabel12092120473D

  0  0  0     0  0            999 V3000
M  V30 BEGIN CTAB
M  V30 COUNTS 6917 7009 0 0 0
M  V30 BEGIN ATOM
M  V30 1 H -0.908 1.98254 -0.117106 0
M  V30 2 N 0 1.576 0 0
M  V30 3 C 0.933 2.03868 1.02534 0
M  V30 4 C 1.911 0.928543 1.3348 0
M  V30 5 O 3.095 1.19667 1.45644 0
M  V30 6 C 0.222 2.43627 2.35294 0
M  V30 7 C -0.732 3.65373 2.2001 0
M  V30 8 S 0.101 5.13292 1.52614 0
M  V30 9 C 1.257 5.56322 2.86805 0
M  V30 10 H 1.49 2.90518 0.631377 0
M  V30 11 H -0.977 1.52953 0.210867 0
M  V30 12 H 0.981 2.67203 3.11629 0
M  V30 13 H -0.358 1.57376 2.7183 0
M  V30 14 H -1.165 3.90944 3.18086 0
M  V30 15 H -1.563 3.418 1.51819 0
M  V30 16 H 0.729 5.58782 3.83104 0
M  V30 17 H 1.672 6.56266 2.65933 0
M  V30 18 H 2.08 4.83886 2.90714 0
M  V30 19 N 1.4781 -0.272755 1.55222 0
M  V30 20 C 2.7061 -1.02255 1.79865 0
M  V30 21 C 3.1211 -1.79924 0.572088 0
M  V30 22 O 2.4781 -1.76638 -0.458842 0
M  V30 23 C 2.5291 -1.98094 3.02392 0
M  V30 24 O 2.2501 -1.23572 4.20311 0
M  V30 25 C 3.7511 -2.84884 3.39641 0
M  V30 26 H 0.9711 -0.302057 0.599168 0
M  V30 27 H 3.5151 -0.303465 2.02236 0
M  V30 28 H 1.6701 -2.65465 2.82147 0
M  V30 29 H 2.0841 -1.88172 4.89583 0
M  V30 30 H 3.5581 -3.47927 4.28545 0
M  V30 31 H 4.0351 -3.54665 2.59055 0
M  V30 32 H 4.6411 -2.23003 3.62146 0
M  V30 33 N 2.9562 -1.48159 -0.537278 0
M  V30 34 C 4.2022 -1.56035 -1.29541 0
M  V30 35 C 4.5352 -0.230377 -1.92829 0
M  V30 36 O 3.8102 0.762952 -1.78911 0
M  V30 37 C 4.0932 -2.69323 -2.39034 0
M  V30 38 C 3.9462 -4.12002 -1.80485 0
M  V30 39 C 5.2652 -2.78408 -3.40847 0
M  V30 40 H 2.3842 -0.567992 -0.469632 0
M  V30 41 H 5.0262 -1.80302 -0.599277 0
M  V30 42 H 3.1762 -2.48763 -2.98412 0
M  V30 43 H 4.8482 -4.43981 -1.25215 0
M  V30 44 H 3.0912 -4.19344 -1.11055 0
M  V30 45 H 3.7622 -4.87077 -2.59731 0
M  V30 46 H 6.2382 -2.97012 -2.91416 0
M  V30 47 H 5.1142 -3.59416 -4.14863 0
M  V30 48 H 5.3752 -1.86269 -4.00944 0
M  V30 49 N 4.4343 0.785586 -1.36625 0
M  V30 50 C 5.3813 1.89838 -1.31264 0
M  V30 51 C 6.3513 1.65115 -0.180633 0
M  V30 52 O 7.5363 1.87222 -0.36777 0
M  V30 53 C 4.6763 3.26706 -1.11163 0
M  V30 54 C 3.7893 3.63476 -2.33472 0
M  V30 55 C 2.9243 4.89481 -2.06353 0
M  V30 56 C 1.9633 5.18941 -3.24602 0
M  V30 57 N 1.1003 6.36131 -2.97123 0
M  V30 58 H 5.9403 1.93756 -2.26413 0
M  V30 59 H 3.4773 0.947454 -1.12524 0
M  V30 60 H 5.4353 4.05639 -0.975337 0
M  V30 61 H 4.0653 3.222 -0.196674 0
M  V30 62 H 3.1173 2.79636 -2.57891 0
M  V30 63 H 4.4293 3.81193 -3.21704 0
M  V30 64 H 3.5833 5.76288 -1.89675 0
M  V30 65 H 2.3223 4.73841 -1.15437 0
M  V30 66 H 1.3273 4.30615 -3.41834 0
M  V30 67 H 2.5523 5.36498 -4.16349 0
M  V30 68 H 0.4983 6.21875 -2.08823 0
M  V30 69 H 0.4153 6.54198 -3.78894 0
M  V30 70 H 1.6833 7.2591 -2.84033 0
M  V30 71 N 5.9124 1.20967 1.01018 0
M  V30 72 C 7.1404 1.04956 1.78303 0
M  V30 73 C 7.5554 -0.400915 1.84494 0
M  V30 74 O 6.9124 -1.27826 1.30257 0
M  V30 75 C 6.9634 1.63403 3.22462 0
M  V30 76 O 6.6844 3.02775 3.16637 0
M  V30 77 C 8.1854 1.52432 4.16268 0
M  V30 78 H 5.4054 0.368858 0.560522 0
M  V30 79 H 7.9494 1.60193 1.27116 0
M  V30 80 H 6.1044 1.1227 3.70775 0
M  V30 81 H 6.5184 3.30626 4.07169 0
M  V30 82 H 7.9924 1.98078 5.15237 0
M  V30 83 H 8.4694 0.477875 4.36592 0
M  V30 84 H 9.0754 2.02787 3.73841 0
M  V30 85 N 7.3905 -1.2043 1.01659 0
M  V30 86 C 8.3005 -2.2689 0.596484 0
M  V30 87 C 9.3165 -1.70107 -0.36599 0
M  V30 88 O 10.4925 -2.00117 -0.226942 0
M  V30 89 C 7.5575 -3.4665 -0.0586659 0
M  V30 90 C 6.6185 -4.18662 0.949751 0
M  V30 91 C 5.8515 -5.32705 0.32577 0
M  V30 92 O 6.0745 -5.63656 -0.874509 0
M  V30 93 O 5.0085 -5.92803 1.04249 0
M  V30 94 H 8.8345 -2.65041 1.4828 0
M  V30 95 H 6.4195 -1.27048 0.786082 0
M  V30 96 H 8.3015 -4.19256 -0.424564 0
M  V30 97 H 6.9765 -3.10375 -0.91918 0
M  V30 98 H 5.8835 -3.48229 1.36702 0
M  V30 99 H 7.2165 -4.58878 1.78023 0
M  V30 100 N 8.8686 -0.792821 -1.36206 0
M  V30 101 C 9.8316 -0.199459 -2.2833 0
M  V30 102 C 10.8316 0.605189 -1.48977 0
M  V30 103 O 12.0216 0.425685 -1.68919 0
M  V30 104 C 9.1536 0.723523 -3.33134 0
M  V30 105 H 10.3466 -1.01181 -2.82316 0
M  V30 106 H 7.8996 -0.562485 -1.45828 0
M  V30 107 H 8.6346 1.56008 -2.84309 0
M  V30 108 H 8.4196 0.148436 -3.91819 0
M  V30 109 H 9.9096 1.13344 -4.01924 0
M  V30 110 N 10.3467 1.47872 -0.545128 0
M  V30 111 C 11.3097 2.28337 0.198717 0
M  V30 112 C 12.3097 1.36255 0.853888 0
M  V30 113 O 13.4997 1.59003 0.711606 0
M  V30 114 C 10.6317 3.15585 1.28915 0
M  V30 115 H 11.8247 2.95567 -0.507941 0
M  V30 116 H 9.3777 1.53362 -0.301616 0
M  V30 117 H 10.1127 2.53019 2.02859 0
M  V30 118 H 9.8977 3.83337 0.824309 0
M  V30 119 H 11.3877 3.76243 1.81194 0
M  V30 120 N 11.8248 0.280983 1.55075 0
M  V30 121 C 12.7718 -0.603937 2.22758 0
M  V30 122 C 13.7418 -1.1452 1.20309 0
M  V30 123 O 14.9268 -1.19343 1.48869 0
M  V30 124 C 12.0668 -1.77947 2.95684 0
M  V30 125 C 11.1798 -1.2715 4.12864 0
M  V30 126 C 10.3148 -2.4093 4.7342 0
M  V30 127 C 9.3538 -1.87165 5.82783 0
M  V30 128 N 8.4908 -2.94441 6.37377 0
M  V30 129 H 13.3308 -0.020124 2.97993 0
M  V30 130 H 10.8678 0.00183425 1.471 0
M  V30 131 H 12.8258 -2.47055 3.36184 0
M  V30 132 H 11.4558 -2.33522 2.22861 0
M  V30 133 H 10.5078 -0.473331 3.77444 0
M  V30 134 H 11.8198 -0.837751 4.91715 0
M  V30 135 H 10.9738 -3.18021 5.1667 0
M  V30 136 H 9.7128 -2.87623 3.93859 0
M  V30 137 H 8.7178 -1.08556 5.38976 0
M  V30 138 H 9.9428 -1.41401 6.64216 0
M  V30 139 H 7.8888 -3.40505 5.60707 0
M  V30 140 H 7.8058 -2.55501 7.11516 0
M  V30 141 H 9.0738 -3.71489 6.85285 0
M  V30 142 N 13.3029 -1.57598 0.00835791 0
M  V30 143 C 14.5509 -1.90551 -0.6734 0
M  V30 144 C 14.8719 -0.883301 -1.73847 0
M  V30 145 O 14.1419 0.0781442 -1.95744 0
M  V30 146 H 12.7219 -0.703312 -0.251717 0
M  V30 147 H 15.3839 -1.94833 0.0512592 0
M  V30 148 H 14.4799 -2.9056 -1.13935 0
M  V30 149 N 14.781 0.264519 -1.55364 0
M  V30 150 C 16.009 1.013 -1.80405 0
M  V30 151 C 16.424 1.79618 -0.581622 0
M  V30 152 O 15.781 1.76879 0.449468 0
M  V30 153 C 15.832 1.96487 -3.03439 0
M  V30 154 O 15.553 1.21341 -4.20961 0
M  V30 155 C 17.054 2.83079 -3.41147 0
M  V30 156 H 14.274 0.298875 -0.600762 0
M  V30 157 H 16.818 0.292736 -2.02394 0
M  V30 158 H 14.973 2.63965 -2.83551 0
M  V30 159 H 15.387 1.85573 -4.90574 0
M  V30 160 H 16.861 3.4565 -4.30384 0
M  V30 161 H 17.338 3.53286 -2.60932 0
M  V30 162 H 17.944 2.2108 -3.63323 0
M  V30 163 N 16.2591 1.48442 0.529413 0
M  V30 164 C 17.1891 1.65902 1.64313 0
M  V30 165 C 18.1701 0.507897 1.6234 0
M  V30 166 O 19.3551 0.740503 1.79528 0
M  V30 167 C 16.4851 1.69911 3.02898 0
M  V30 168 C 15.4391 2.8453 3.19729 0
M  V30 169 C 14.7651 2.73629 4.59381 0
M  V30 170 C 16.0651 4.25821 3.02447 0
M  V30 171 H 17.7591 2.5914 1.49955 0
M  V30 172 H 15.3051 1.24709 0.719982 0
M  V30 173 H 17.2581 1.80715 3.80684 0
M  V30 174 H 15.9821 0.732524 3.18279 0
M  V30 175 H 14.6411 2.73283 2.44361 0
M  V30 176 H 14.2891 1.74938 4.71599 0
M  V30 177 H 13.9891 3.50541 4.71588 0
M  V30 178 H 15.5131 2.86401 5.39265 0
M  V30 179 H 16.9271 4.37898 3.70024 0
M  V30 180 H 15.3241 5.03735 3.26146 0
M  V30 181 H 16.3941 4.42244 1.98867 0
M  V30 182 N 17.7372 -0.778329 1.37039 0
M  V30 183 C 18.9652 -1.56734 1.35063 0
M  V30 184 C 19.3802 -1.88686 -0.0655597 0
M  V30 185 O 18.7372 -1.5096 -1.02554 0
M  V30 186 C 18.7882 -2.88163 2.18276 0
M  V30 187 O 18.5092 -2.57583 3.54376 0
M  V30 188 C 20.0102 -3.82422 2.24206 0
M  V30 189 H 17.2302 -0.485778 0.462883 0
M  V30 190 H 19.7742 -0.965185 1.8029 0
M  V30 191 H 17.9292 -3.44818 1.76576 0
M  V30 192 H 18.3432 -3.41699 3.97922 0
M  V30 193 H 19.8172 -4.71667 2.86765 0
M  V30 194 H 20.2942 -4.21078 1.24861 0
M  V30 195 H 20.9002 -3.31697 2.6619 0
M  V30 196 N 19.2153 -1.21501 -1.00376 0
M  V30 197 C 20.4453 -1.05746 -1.77486 0
M  V30 198 C 20.8533 0.395655 -1.85017 0
M  V30 199 O 20.1963 1.28626 -1.31152 0
M  V30 200 C 20.2583 -1.58092 -3.22873 0
M  V30 201 C 19.9223 -3.06568 -3.38917 0
M  V30 202 C 20.9193 -4.04106 -3.271 0
M  V30 203 C 18.6043 -3.45799 -3.64319 0
M  V30 204 C 20.5983 -5.38862 -3.40451 0
M  V30 205 C 18.2853 -4.80707 -3.77311 0
M  V30 206 C 19.2833 -5.77047 -3.65384 0
M  V30 207 O 18.9713 -7.09507 -3.77961 0
M  V30 208 H 18.7033 -0.371778 -0.564586 0
M  V30 209 H 21.2573 -1.61319 -1.27143 0
M  V30 210 H 19.4873 -0.969163 -3.74358 0
M  V30 211 H 21.1763 -1.38162 -3.81662 0
M  V30 212 H 21.9423 -3.75141 -3.07399 0
M  V30 213 H 17.8213 -2.71344 -3.72684 0
M  V30 214 H 21.3653 -6.14041 -3.31058 0
M  V30 215 H 17.2623 -5.09357 -3.96517 0
M  V30 216 H 18.0303 -7.16935 -3.94901 0
M  V30 217 N 20.6934 1.19889 -1.02296 0
M  V30 218 C 21.9184 1.9393 -0.735237 0
M  V30 219 C 22.3434 1.74639 0.698782 0
M  V30 220 O 21.7014 1.04481 1.48167 0
M  V30 221 C 21.7494 3.43916 -1.08417 0
M  V30 222 O 20.8534 4.11917 -0.199446 0
M  V30 223 H 20.1944 0.605645 -0.272196 0
M  V30 224 H 22.7244 1.52137 -1.36804 0
M  V30 225 H 22.7344 3.9456 -1.03856 0
M  V30 226 H 21.4094 3.5728 -2.12894 0
M  V30 227 H 19.9864 3.71666 -0.303136 0
M  V30 228 N 22.1715 0.800033 1.35784 0
M  V30 229 C 23.5875 0.482977 1.52117 0
M  V30 230 C 23.7875 -0.996948 1.75109 0
M  V30 231 O 22.8435 -1.78216 1.78872 0
M  V30 232 C 24.1565 1.32264 2.70049 0
M  V30 233 C 25.7045 1.31742 2.83924 0
M  V30 234 C 26.1795 2.14106 4.04874 0
M  V30 235 N 27.6705 2.11607 4.12039 0
M  V30 236 C 28.4055 2.72099 5.04727 0
M  V30 237 N 27.9015 3.41492 6.02789 0
M  V30 238 N 29.6945 2.61776 4.97423 0
M  V30 239 H 21.8455 1.75856 1.19115 0
M  V30 240 H 24.1085 0.748122 0.582252 0
M  V30 241 H 23.8145 2.37261 2.59616 0
M  V30 242 H 23.6885 0.971303 3.6448 0
M  V30 243 H 26.0755 0.275333 2.93813 0
M  V30 244 H 26.1565 1.70859 1.9037 0
M  V30 245 H 25.8005 3.18351 3.95746 0
M  V30 246 H 25.7305 1.72353 4.97596 0
M  V30 247 H 28.2215 1.61112 3.41835 0
M  V30 248 H 28.5345 3.84953 6.70098 0
M  V30 249 H 26.8795 3.45596 6.02983 0
M  V30 250 H 30.0705 2.07157 4.19766 0
M  V30 251 H 30.2435 3.0921 5.69468 0
M  V30 252 N 23.6496 -1.47581 0.552962 0
M  V30 253 C 24.5826 -2.26883 -0.244857 0
M  V30 254 C 25.5606 -1.33784 -0.924147 0
M  V30 255 O 26.7446 -1.6316 -0.943981 0
M  V30 256 C 23.8716 -3.10695 -1.34856 0
M  V30 257 C 22.9176 -4.19339 -0.778268 0
M  V30 258 S 23.7506 -5.34207 0.37184 0
M  V30 259 C 24.9066 -6.21584 -0.733779 0
M  V30 260 H 25.1396 -2.94202 0.428087 0
M  V30 261 H 22.6726 -1.50628 0.339197 0
M  V30 262 H 24.6306 -3.59555 -1.98066 0
M  V30 263 H 23.2916 -2.42746 -1.99332 0
M  V30 264 H 22.4846 -4.77695 -1.60696 0
M  V30 265 H 22.0866 -3.73338 -0.222422 0
M  V30 266 H 24.3786 -6.57676 -1.62692 0
M  V30 267 H 25.3216 -7.07851 -0.187668 0
M  V30 268 H 25.7296 -5.55125 -1.02454 0
M  V30 269 N 25.1277 -0.289203 -1.54924 0
M  V30 270 C 26.5437 0.0645403 -1.59469 0
M  V30 271 C 26.7437 1.53419 -1.30632 0
M  V30 272 O 25.7997 2.2852 -1.074 0
M  V30 273 C 27.1127 -0.32278 -2.98963 0
M  V30 274 C 28.6607 -0.270564 -3.11828 0
M  V30 275 C 29.1357 -0.632532 -4.53611 0
M  V30 276 N 30.6267 -0.584617 -4.59496 0
M  V30 277 C 31.3617 -0.837314 -5.67254 0
M  V30 278 N 30.8577 -1.15536 -6.83098 0
M  V30 279 N 32.6507 -0.765166 -5.56868 0
M  V30 280 H 24.8017 -1.24714 -1.71931 0
M  V30 281 H 27.0647 -0.504809 -0.802416 0
M  V30 282 H 26.7707 -1.34541 -3.24948 0
M  V30 283 H 26.6447 0.32944 -3.75759 0
M  V30 284 H 29.0317 0.742805 -2.85598 0
M  V30 285 H 29.1127 -0.957242 -2.37214 0
M  V30 286 H 28.7567 -1.64365 -4.80569 0
M  V30 287 H 28.6867 0.07609 -5.26545 0
M  V30 288 H 31.1777 -0.349248 -3.76283 0
M  V30 289 H 31.4907 -1.33447 -7.61191 0
M  V30 290 H 29.8357 -1.19328 -6.84679 0
M  V30 291 H 33.0267 -0.516432 -4.65243 0
M  V30 292 H 33.1997 -0.965477 -6.40767 0
M  V30 293 N 26.6058 1.57591 -0.0167156 0
M  V30 294 C 27.8538 1.90906 0.663285 0
M  V30 295 C 28.1748 0.892509 1.73376 0
M  V30 296 O 27.4448 -0.0677623 1.95783 0
M  V30 297 H 26.0248 0.704637 0.247983 0
M  V30 298 H 28.6868 1.94803 -0.0615909 0
M  V30 299 H 27.7828 2.9116 1.12393 0
M  V30 300 N 28.0839 -0.256276 1.55502 0
M  V30 301 C 29.0169 -1.34321 1.84481 0
M  V30 302 C 29.9949 -1.46802 0.699131 0
M  V30 303 O 31.1789 -1.63165 0.943904 0
M  V30 304 C 28.3059 -2.71779 2.02123 0
M  V30 305 C 27.3519 -2.76496 3.24734 0
M  V30 306 S 28.1849 -2.3405 4.81644 0
M  V30 307 C 29.3409 -3.73452 5.02279 0
M  V30 308 H 29.5739 -1.09539 2.76385 0
M  V30 309 H 27.1069 -0.45678 1.47489 0
M  V30 310 H 29.0649 -3.50932 2.12972 0
M  V30 311 H 27.7259 -2.93803 1.11078 0
M  V30 312 H 26.9189 -3.77424 3.34016 0
M  V30 313 H 26.5209 -2.05379 3.12563 0
M  V30 314 H 28.8129 -4.6887 4.89047 0
M  V30 315 H 29.7559 -3.6911 6.04287 0
M  V30 316 H 30.1639 -3.6553 4.30172 0
M  V30 317 N 29.562 -1.4872 -0.521534 0
M  V30 318 C 30.808 -1.574 -1.27879 0
M  V30 319 C 31.141 -0.250817 -1.92573 0
M  V30 320 O 30.416 0.743934 -1.79711 0
M  V30 321 C 30.699 -2.71843 -2.36164 0
M  V30 322 C 30.552 -4.13893 -1.76105 0
M  V30 323 C 31.871 -2.82008 -3.37875 0
M  V30 324 H 28.99 -0.572941 -0.463581 0
M  V30 325 H 31.632 -1.80927 -0.580119 0
M  V30 326 H 29.782 -2.51914 -2.95756 0
M  V30 327 H 31.454 -4.45284 -1.20499 0
M  V30 328 H 29.697 -4.20498 -1.06601 0
M  V30 329 H 30.368 -4.89804 -2.5455 0
M  V30 330 H 32.844 -3.00086 -2.88249 0
M  V30 331 H 31.72 -3.63796 -4.11028 0
M  V30 332 H 31.981 -1.90511 -3.98946 0
M  V30 333 N 31.0401 0.771051 -1.3745 0
M  V30 334 C 32.0031 1.86598 -1.33093 0
M  V30 335 C 33.0031 1.59076 -0.234845 0
M  V30 336 O 34.1931 1.67145 -0.490732 0
M  V30 337 C 31.3251 3.23747 -1.06773 0
M  V30 338 H 32.5181 1.91873 -2.30488 0
M  V30 339 H 30.0711 0.970876 -1.2249 0
M  V30 340 H 30.8061 3.24148 -0.099129 0
M  V30 341 H 30.5911 3.45115 -1.86112 0
M  V30 342 H 32.0811 4.03824 -1.06377 0
M  V30 343 N 32.5182 1.22032 0.997298 0
M  V30 344 C 33.7672 1.03637 1.73038 0
M  V30 345 C 34.0802 -0.429475 1.90827 0
M  V30 346 O 35.2862 -0.732995 2.61418 0
M  V30 347 C 33.7422 1.80582 3.11317 0
M  V30 348 C 33.3502 3.31387 3.01474 0
M  V30 349 C 35.0942 1.70621 3.88701 0
M  V30 350 C 33.0012 4.00791 4.3488 0
M  V30 351 H 31.9312 0.384179 0.648785 0
M  V30 352 H 34.5822 1.4584 1.11368 0
M  V30 353 H 32.9642 1.31175 3.73643 0
M  V30 354 H 34.1382 3.88155 2.4834 0
M  V30 355 H 32.4532 3.41976 2.37575 0
M  V30 356 H 35.0502 2.19799 4.87434 0
M  V30 357 H 35.3932 0.665823 4.10941 0
M  V30 358 H 35.9262 2.17547 3.33044 0
M  V30 359 H 32.6652 5.05064 4.1784 0
M  V30 360 H 32.1852 3.48811 4.87945 0
M  V30 361 H 33.8642 4.06139 5.03647 0
M  V30 362 N 33.9963 -1.19345 1.0293 0
M  V30 363 C 34.9263 -2.2481 0.631105 0
M  V30 364 C 35.9073 -1.66245 -0.360104 0
M  V30 365 O 37.0923 -1.92677 -0.242726 0
M  V30 366 C 34.2223 -3.47295 -0.0184607 0
M  V30 367 C 33.1763 -4.18536 0.895073 0
M  V30 368 C 32.5023 -5.34586 0.110592 0
M  V30 369 C 33.8023 -4.73287 2.209 0
M  V30 370 H 35.4963 -2.58372 1.51275 0
M  V30 371 H 33.0423 -1.24194 0.728818 0
M  V30 372 H 34.9953 -4.20268 -0.308675 0
M  V30 373 H 33.7193 -3.12933 -0.934907 0
M  V30 374 H 32.3783 -3.47446 1.16949 0
M  V30 375 H 32.0263 -4.96469 -0.807902 0
M  V30 376 H 31.7263 -5.83183 0.719087 0
M  V30 377 H 33.2503 -6.10355 -0.172871 0
M  V30 378 H 34.6643 -5.38013 1.98028 0
M  V30 379 H 33.0613 -5.32373 2.76946 0
M  V30 380 H 34.1313 -3.91331 2.86336 0
M  V30 381 N 35.4744 -0.807222 -1.35358 0
M  V30 382 C 36.7234 -0.384376 -1.98004 0
M  V30 383 C 37.0364 1.0543 -1.64754 0
M  V30 384 O 38.2424 1.58029 -2.20769 0
M  V30 385 C 36.6984 -0.636326 -3.5423 0
M  V30 386 C 36.3064 -2.08759 -3.96388 0
M  V30 387 C 38.0504 -0.278869 -4.23583 0
M  V30 388 C 35.9574 -2.28525 -5.45463 0
M  V30 389 H 34.8874 -0.139986 -0.740891 0
M  V30 390 H 37.5384 -0.991369 -1.54415 0
M  V30 391 H 35.9204 0.0406256 -3.95979 0
M  V30 392 H 37.0944 -2.8024 -3.6579 0
M  V30 393 H 35.4094 -2.40497 -3.39926 0
M  V30 394 H 38.0064 -0.404599 -5.33167 0
M  V30 395 H 38.3494 0.775012 -4.09022 0
M  V30 396 H 38.8824 -0.909764 -3.87257 0
M  V30 397 H 35.6214 -3.32361 -5.64992 0
M  V30 398 H 35.1414 -1.61569 -5.77629 0
M  V30 399 H 36.8204 -2.10109 -6.11934 0
M  V30 400 N 36.9525 1.47285 -0.560781 0
M  V30 401 C 37.9155 2.28535 0.174488 0
M  V30 402 C 38.9155 1.37153 0.839388 0
M  V30 403 O 40.1055 1.59748 0.694702 0
M  V30 404 C 37.2375 3.16934 1.25561 0
M  V30 405 H 38.4305 2.95012 -0.539262 0
M  V30 406 H 35.9835 1.53034 -0.317865 0
M  V30 407 H 36.7185 2.55157 2.00164 0
M  V30 408 H 36.5035 3.8419 0.783604 0
M  V30 409 H 37.9935 3.78143 1.77193 0
M  V30 410 N 38.4306 0.297415 1.54768 0
M  V30 411 C 39.6776 -0.312913 2.00068 0
M  V30 412 C 40.0056 -1.54171 1.18582 0
M  V30 413 O 39.2606 -1.94108 0.249133 0
M  V30 414 C 39.5596 -0.717561 3.50123 0
M  V30 415 C 39.2256 0.409095 4.4904 0
M  V30 416 C 37.8876 0.718399 4.75807 0
M  V30 417 C 40.2396 1.16717 5.07963 0
M  V30 418 C 37.5676 1.78896 5.5876 0
M  V30 419 C 39.9196 2.22762 5.92081 0
M  V30 420 C 38.5836 2.54303 6.1716 0
M  V30 421 H 37.8536 -0.114503 0.7321 0
M  V30 422 H 40.5006 0.415767 1.86932 0
M  V30 423 H 38.8056 -1.52627 3.60849 0
M  V30 424 H 40.5026 -1.20091 3.82595 0
M  V30 425 H 37.0926 0.157918 4.28309 0
M  V30 426 H 41.2766 0.941466 4.87289 0
M  V30 427 H 36.5326 2.0381 5.7643 0
M  V30 428 H 40.7066 2.81962 6.36765 0
M  V30 429 H 38.3336 3.3739 6.81229 0
M  V30 430 N 39.9087 -1.5758 0.0250728 0
M  V30 431 C 40.8417 -2.05473 -0.992777 0
M  V30 432 C 41.8197 -0.949661 -1.31986 0
M  V30 433 O 43.0037 -1.21969 -1.43722 0
M  V30 434 C 40.1307 -2.4734 -2.31389 0
M  V30 435 C 39.1767 -3.68827 -2.1417 0
M  V30 436 S 40.0097 -5.15655 -1.44429 0
M  V30 437 C 41.1657 -5.60814 -2.77918 0
M  V30 438 H 41.3987 -2.91486 -0.585078 0
M  V30 439 H 38.9317 -1.53269 -0.186507 0
M  V30 440 H 40.8897 -2.72127 -3.07339 0
M  V30 441 H 39.5507 -1.6168 -2.69292 0
M  V30 442 H 38.7437 -3.95955 -3.11826 0
M  V30 443 H 38.3457 -3.44172 -1.46362 0
M  V30 444 H 40.6377 -5.64806 -3.74166 0
M  V30 445 H 41.5807 -6.60414 -2.55459 0
M  V30 446 H 41.9887 -4.8845 -2.82979 0
M  V30 447 N 41.3868 0.248026 -1.55636 0
M  V30 448 C 42.3338 1.30707 -1.90222 0
M  V30 449 C 43.3038 1.47881 -0.756332 0
M  V30 450 O 44.4888 1.61883 -1.00988 0
M  V30 451 C 41.6288 2.65769 -2.20138 0
M  V30 452 C 40.7418 2.56612 -3.47526 0
M  V30 453 C 39.8768 3.8402 -3.67017 0
M  V30 454 C 38.9158 3.69476 -4.8801 0
M  V30 455 N 38.0528 4.88774 -5.04029 0
M  V30 456 H 42.8928 1.00512 -2.80538 0
M  V30 457 H 40.4298 0.485055 -1.38873 0
M  V30 458 H 42.3878 3.44386 -2.35487 0
M  V30 459 H 41.0178 2.94115 -1.33027 0
M  V30 460 H 40.0698 1.69571 -3.40514 0
M  V30 461 H 41.3818 2.41774 -4.36287 0
M  V30 462 H 40.5358 4.7108 -3.8232 0
M  V30 463 H 39.2748 4.01754 -2.76487 0
M  V30 464 H 38.2798 2.80799 -4.72686 0
M  V30 465 H 39.5048 3.53238 -5.8 0
M  V30 466 H 37.4508 5.0687 -4.16435 0
M  V30 467 H 37.3678 4.76562 -5.86877 0
M  V30 468 H 38.6358 5.77335 -5.23741 0
M  V30 469 N 42.8649 1.48995 0.513639 0
M  V30 470 C 43.7969 1.60836 1.63293 0
M  V30 471 C 44.8099 0.491701 1.55197 0
M  V30 472 O 45.9989 0.763238 1.6136 0
M  V30 473 C 43.0989 1.53731 3.02027 0
M  V30 474 C 42.2719 2.80715 3.35437 0
M  V30 475 C 41.3309 2.66837 4.53525 0
M  V30 476 O 40.3569 3.40753 4.55934 0
M  V30 477 N 41.5589 1.77539 5.52684 0
M  V30 478 H 44.3239 2.57366 1.53566 0
M  V30 479 H 41.8849 1.45925 0.701259 0
M  V30 480 H 43.8769 1.42118 3.78926 0
M  V30 481 H 42.4469 0.651092 3.05744 0
M  V30 482 H 41.6669 3.06772 2.47557 0
M  V30 483 H 42.9549 3.64927 3.54551 0
M  V30 484 H 42.3529 1.16719 5.53528 0
M  V30 485 H 40.9099 1.71856 6.28736 0
M  V30 486 N 44.343 -0.763751 1.37857 0
M  V30 487 C 45.759 -1.06542 1.18832 0
M  V30 488 C 45.959 -2.01478 0.0299722 0
M  V30 489 O 45.015 -2.4458 -0.627447 0
M  V30 490 C 46.328 -1.65525 2.51042 0
M  V30 491 C 47.876 -1.77745 2.57635 0
M  V30 492 C 48.351 -2.4014 3.89996 0
M  V30 493 N 49.842 -2.47582 3.91481 0
M  V30 494 C 50.577 -2.96732 4.9065 0
M  V30 495 N 50.073 -3.45993 6.00217 0
M  V30 496 N 51.866 -2.95679 4.78048 0
M  V30 497 H 44.017 -0.133556 2.1198 0
M  V30 498 H 46.28 -0.121879 0.940133 0
M  V30 499 H 45.986 -1.03236 3.36207 0
M  V30 500 H 45.86 -2.64719 2.68707 0
M  V30 501 H 48.247 -2.39164 1.72872 0
M  V30 502 H 48.328 -0.772836 2.43846 0
M  V30 503 H 47.972 -1.79358 4.75177 0
M  V30 504 H 47.902 -3.41223 4.01092 0
M  V30 505 H 50.393 -2.1273 3.12337 0
M  V30 506 H 50.706 -3.81922 6.7183 0
M  V30 507 H 49.051 -3.44077 6.03851 0
M  V30 508 H 52.242 -2.56499 3.91568 0
M  V30 509 H 52.415 -3.33672 5.55488 0
M  V30 510 N 45.8211 -1.22559 -0.990812 0
M  V30 511 C 47.2371 -0.985996 -1.255 0
M  V30 512 C 47.4371 0.319173 -1.98956 0
M  V30 513 O 46.4931 1.04127 -2.3003 0
M  V30 514 C 47.8061 -2.18607 -2.06474 0
M  V30 515 C 49.3541 -2.22985 -2.19651 0
M  V30 516 C 49.8291 -3.4255 -3.04012 0
M  V30 517 N 51.3201 -3.42725 -3.11599 0
M  V30 518 C 52.0551 -4.31892 -3.7717 0
M  V30 519 N 51.5511 -5.31279 -4.44651 0
M  V30 520 N 53.3441 -4.19662 -3.73952 0
M  V30 521 H 45.4951 -2.06469 -0.49841 0
M  V30 522 H 47.7581 -0.904853 -0.282747 0
M  V30 523 H 47.4641 -3.13267 -1.59865 0
M  V30 524 H 47.3381 -2.18838 -3.07229 0
M  V30 525 H 49.7251 -1.28871 -2.65474 0
M  V30 526 H 49.8061 -2.26791 -1.18319 0
M  V30 527 H 49.4501 -4.36965 -2.58889 0
M  V30 528 H 49.3801 -3.35984 -4.0549 0
M  V30 529 H 51.8711 -2.70807 -2.63575 0
M  V30 530 H 52.1841 -5.95593 -4.92431 0
M  V30 531 H 50.5291 -5.3519 -4.43392 0
M  V30 532 H 53.7201 -3.41268 -3.20396 0
M  V30 533 H 53.8931 -4.89358 -4.24774 0
M  V30 534 N 47.2992 1.18797 -1.03562 0
M  V30 535 C 48.2322 2.2105 -0.56676 0
M  V30 536 C 49.2102 1.57704 0.395993 0
M  V30 537 O 50.3942 1.85908 0.311498 0
M  V30 538 C 47.5212 3.38259 0.172704 0
M  V30 539 C 46.5672 4.19987 -0.74252 0
M  V30 540 S 47.4002 4.87199 -2.22254 0
M  V30 541 C 48.5562 6.07813 -1.49379 0
M  V30 542 H 48.7892 2.60478 -1.43312 0
M  V30 543 H 46.3222 1.29151 -0.846133 0
M  V30 544 H 48.2802 4.06191 0.593191 0
M  V30 545 H 46.9412 2.97252 1.01488 0
M  V30 546 H 46.1342 5.03709 -0.171265 0
M  V30 547 H 45.7362 3.57408 -1.10163 0
M  V30 548 H 48.0282 6.72948 -0.784056 0
M  V30 549 H 48.9712 6.69435 -2.30786 0
M  V30 550 H 49.3792 5.55781 -0.988331 0
M  V30 551 N 48.7773 0.814389 1.34928 0
M  V30 552 C 50.0253 0.397636 1.9815 0
M  V30 553 C 50.3463 -1.04069 1.64908 0
M  V30 554 O 49.6163 -1.72121 0.93548 0
M  V30 555 H 48.1963 0.144043 0.732981 0
M  V30 556 H 50.8583 1.04195 1.6471 0
M  V30 557 H 49.9543 0.509688 3.0791 0
M  V30 558 N 50.2554 -1.46986 0.568584 0
M  V30 559 C 51.1854 -2.32946 -0.160753 0
M  V30 560 C 52.1664 -1.44487 -0.897631 0
M  V30 561 O 53.3514 -1.73327 -0.875867 0
M  V30 562 C 50.4814 -3.26494 -1.18403 0
M  V30 563 C 49.4354 -4.24282 -0.562895 0
M  V30 564 C 48.7614 -5.07236 -1.69163 0
M  V30 565 C 50.0614 -5.19989 0.490761 0
M  V30 566 H 51.7554 -2.94175 0.556916 0
M  V30 567 H 49.3014 -1.4146 0.26927 0
M  V30 568 H 51.2544 -3.85477 -1.70251 0
M  V30 569 H 49.9784 -2.63343 -1.93179 0
M  V30 570 H 48.6374 -3.66541 -0.0656164 0
M  V30 571 H 48.2854 -4.4048 -2.42871 0
M  V30 572 H 47.9854 -5.7345 -1.28174 0
M  V30 573 H 49.5094 -5.6908 -2.21314 0
M  V30 574 H 50.9234 -5.73271 0.0579047 0
M  V30 575 H 49.3204 -5.94469 0.820165 0
M  V30 576 H 50.3904 -4.64777 1.3824 0
M  V30 577 N 51.7335 -0.305618 -1.54608 0
M  V30 578 C 52.6815 0.584119 -2.25146 0
M  V30 579 C 53.6755 1.13326 -1.25911 0
M  V30 580 O 54.8815 1.08337 -1.43747 0
M  V30 581 H 51.2565 0.206983 -0.722954 0
M  V30 582 H 53.2275 -0.033291 -2.98381 0
M  V30 583 C 51.9765 1.74225 -3.009 0
M  V30 584 H 51.2995 1.32892 -3.77067 0
M  V30 585 H 52.7395 2.34077 -3.53531 0
M  V30 586 C 51.1985 2.64914 -2.0814 0
M  V30 587 O 51.7285 3.66137 -1.65246 0
M  V30 588 N 49.9345 2.3275 -1.74 0
M  V30 589 H 49.4815 1.50479 -2.09078 0
M  V30 590 H 49.4395 2.93694 -1.12211 0
M  V30 591 N 53.2116 1.57565 -0.0334293 0
M  V30 592 C 54.4886 1.83282 0.683163 0
M  V30 593 C 54.8686 0.91823 1.90084 0
M  V30 594 O 54.2166 -0.025113 2.28486 0
M  V30 595 C 54.4266 3.32599 1.0573 0
M  V30 596 C 55.7746 3.99179 1.44711 0
M  V30 597 O 56.7986 3.3712 1.15015 0
M  V30 598 O 55.6576 5.08565 2.0006 0
M  V30 599 H 52.7516 0.755869 0.335546 0
M  V30 600 H 55.2976 1.69589 -0.0614402 0
M  V30 601 H 54.0696 3.90834 0.190828 0
M  V30 602 H 53.6926 3.51415 1.85993 0
M  V30 603 N 54.6897 -0.239769 1.55765 0
M  V30 604 C 55.9367 -0.966801 1.7793 0
M  V30 605 C 56.2647 -1.85046 0.599015 0
M  V30 606 O 55.5197 -1.91197 -0.417395 0
M  V30 607 C 55.8187 -1.852 3.05672 0
M  V30 608 C 55.4847 -1.1231 4.36689 0
M  V30 609 C 54.1467 -0.921689 4.72291 0
M  V30 610 C 56.4987 -0.607019 5.17653 0
M  V30 611 C 53.8267 -0.191996 5.86386 0
M  V30 612 C 56.1787 0.109241 6.32506 0
M  V30 613 C 54.8427 0.322073 6.66723 0
M  V30 614 H 54.1127 -0.353778 0.651093 0
M  V30 615 H 56.7597 -0.23634 1.90036 0
M  V30 616 H 55.0647 -2.64975 2.8861 0
M  V30 617 H 56.7617 -2.41635 3.20021 0
M  V30 618 H 53.3517 -1.29004 4.08725 0
M  V30 619 H 57.5357 -0.750153 4.90598 0
M  V30 620 H 52.7917 -0.0166949 6.11398 0
M  V30 621 H 56.9657 0.516737 6.9448 0
M  V30 622 H 54.5927 0.88944 7.54979 0
M  V30 623 N 56.1678 -1.49265 -0.50573 0
M  V30 624 C 57.4168 -1.57761 -1.25675 0
M  V30 625 C 57.7298 -0.267371 -1.93764 0
M  V30 626 O 58.9358 -0.230827 -2.70517 0
M  V30 627 C 57.3918 -2.78332 -2.28165 0
M  V30 628 C 56.9998 -4.16096 -1.66037 0
M  V30 629 C 58.7438 -2.96155 -3.04125 0
M  V30 630 C 56.6508 -5.27895 -2.6661 0
M  V30 631 H 55.5808 -0.587391 -0.472745 0
M  V30 632 H 58.2318 -1.75644 -0.53118 0
M  V30 633 H 56.6138 -2.53934 -3.03865 0
M  V30 634 H 57.7878 -4.50612 -0.963622 0
M  V30 635 H 56.1028 -4.03591 -1.02484 0
M  V30 636 H 58.6998 -3.76849 -3.79327 0
M  V30 637 H 59.0428 -2.06534 -3.61455 0
M  V30 638 H 59.5758 -3.2057 -2.35541 0
M  V30 639 H 56.3148 -6.1956 -2.14068 0
M  V30 640 H 55.8348 -4.97839 -3.34539 0
M  V30 641 H 57.5138 -5.57031 -3.29129 0
M  V30 642 N 57.6459 0.756429 -1.3826 0
M  V30 643 C 58.5779 1.87971 -1.31147 0
M  V30 644 C 59.5909 1.61248 -0.224239 0
M  V30 645 O 60.7799 1.71881 -0.481581 0
M  V30 646 C 57.8799 3.23545 -1.00857 0
M  V30 647 C 57.0529 3.77794 -2.20432 0
M  V30 648 C 56.1119 4.91877 -1.86931 0
M  V30 649 O 55.1379 5.06659 -2.59395 0
M  V30 650 N 56.3399 5.74643 -0.822568 0
M  V30 651 H 59.1049 1.94585 -2.2794 0
M  V30 652 H 56.6659 0.936234 -1.32084 0
M  V30 653 H 58.6579 3.97403 -0.765021 0
M  V30 654 H 57.2279 3.12335 -0.128687 0
M  V30 655 H 56.4479 2.95534 -2.6087 0
M  V30 656 H 57.7359 4.10771 -3.00241 0
M  V30 657 H 57.1339 5.65266 -0.221575 0
M  V30 658 H 55.6909 6.48661 -0.638899 0
M  V30 659 N 59.124 1.23083 0.984299 0
M  V30 660 C 60.071 1.00854 2.07598 0
M  V30 661 C 61.041 -0.0726709 1.65941 0
M  V30 662 O 62.226 0.0786535 1.90638 0
M  V30 663 C 59.366 0.601645 3.39815 0
M  V30 664 C 58.479 1.75456 3.94765 0
M  V30 665 C 57.614 1.29482 5.15177 0
M  V30 666 C 56.653 2.41873 5.62284 0
M  V30 667 N 55.79 1.96885 6.73929 0
M  V30 668 H 60.63 1.943 2.25946 0
M  V30 669 H 58.167 0.968001 1.10762 0
M  V30 670 H 60.125 0.346854 4.15756 0
M  V30 671 H 58.755 -0.295803 3.21442 0
M  V30 672 H 57.807 2.12346 3.15616 0
M  V30 673 H 59.119 2.59965 4.25699 0
M  V30 674 H 58.273 0.997923 5.98437 0
M  V30 675 H 57.012 0.420046 4.85888 0
M  V30 676 H 56.017 2.72342 4.77608 0
M  V30 677 H 57.242 3.29881 5.93595 0
M  V30 678 H 55.188 1.11782 6.46406 0
M  V30 679 H 55.105 2.74956 7.04227 0
M  V30 680 H 56.373 1.70289 7.60672 0
M  V30 681 N 60.6021 -1.18246 1.0419 0
M  V30 682 C 61.8511 -1.87588 0.741194 0
M  V30 683 C 62.1641 -1.81303 -0.734066 0
M  V30 684 O 63.3701 -2.46019 -1.14834 0
M  V30 685 C 61.8261 -3.36538 1.27555 0
M  V30 686 C 61.4341 -3.51349 2.77953 0
M  V30 687 C 63.1781 -4.11273 1.05143 0
M  V30 688 C 61.0851 -4.94265 3.2474 0
M  V30 689 H 60.0151 -0.702622 0.273565 0
M  V30 690 H 62.6661 -1.33601 1.25789 0
M  V30 691 H 61.0481 -3.9 0.686703 0
M  V30 692 H 62.2221 -3.08153 3.42605 0
M  V30 693 H 60.5371 -2.90022 2.98791 0
M  V30 694 H 63.1341 -5.16689 1.37611 0
M  V30 695 H 63.4771 -4.16298 -0.0112774 0
M  V30 696 H 64.0101 -3.63987 1.60495 0
M  V30 697 H 60.7491 -4.94408 4.30396 0
M  V30 698 H 60.2691 -5.38172 2.64823 0
M  V30 699 H 61.9481 -5.62987 3.18834 0
M  V30 700 N 62.0802 -0.821533 -1.34494 0
M  V30 701 C 63.0432 -0.247847 -2.27856 0
M  V30 702 C 64.0432 0.573453 -1.50227 0
M  V30 703 O 65.2332 0.389759 -1.69784 0
M  V30 704 C 62.3652 0.652698 -3.34593 0
M  V30 705 H 63.5582 -1.07146 -2.80107 0
M  V30 706 H 61.1112 -0.593291 -1.44602 0
M  V30 707 H 61.8462 1.49943 -2.87555 0
M  V30 708 H 61.6312 0.065292 -3.92046 0
M  V30 709 H 63.1212 1.04793 -4.04238 0
M  V30 710 N 63.5583 1.46682 -0.576371 0
M  V30 711 C 64.5063 2.31953 0.17335 0
M  V30 712 C 65.5003 1.44098 0.89062 0
M  V30 713 O 66.7063 1.60759 0.809728 0
M  V30 714 H 63.0813 0.748273 0.0747727 0
M  V30 715 H 65.0523 2.93007 -0.564738 0
M  V30 716 C 63.8013 3.27142 1.17786 0
M  V30 717 H 63.1243 3.94719 0.635361 0
M  V30 718 H 64.5643 3.896 1.67296 0
M  V30 719 C 63.0233 2.52036 2.23561 0
M  V30 720 O 63.5533 2.27877 3.3081 0
M  V30 721 N 61.7593 2.12709 1.97998 0
M  V30 722 H 61.3063 2.32557 1.10792 0
M  V30 723 H 61.2643 1.62776 2.68982 0
M  V30 724 N 65.0364 0.313813 1.54444 0
M  V30 725 C 65.9844 -0.572171 2.25453 0
M  V30 726 C 66.9784 -1.12657 1.2651 0
M  V30 727 O 68.1844 -1.07573 1.44319 0
M  V30 728 H 64.5594 -0.203146 0.724041 0
M  V30 729 H 66.5304 0.0491145 2.9836 0
M  V30 730 C 65.2794 -1.72626 3.0182 0
M  V30 731 H 64.6024 -1.30891 3.77767 0
M  V30 732 H 66.0424 -2.32199 3.54767 0
M  V30 733 C 64.5014 -2.63806 2.09542 0
M  V30 734 O 65.0314 -3.65256 1.67185 0
M  V30 735 N 63.2374 -2.31824 1.75232 0
M  V30 736 H 62.7844 -1.49368 2.09873 0
M  V30 737 H 62.7424 -2.93095 1.13767 0
M  V30 738 N 66.5145 -1.57545 0.0417849 0
M  V30 739 C 67.7395 -1.97035 -0.647455 0
M  V30 740 C 68.1645 -0.918775 -1.64135 0
M  V30 741 O 67.5225 0.119006 -1.80909 0
M  V30 742 C 67.5705 -3.35609 -1.31905 0
M  V30 743 O 66.6745 -3.3287 -2.43457 0
M  V30 744 H 66.0155 -0.64211 -0.169086 0
M  V30 745 H 68.5455 -2.04318 0.107399 0
M  V30 746 H 68.5555 -3.72126 -1.67291 0
M  V30 747 H 67.2305 -4.11685 -0.590586 0
M  V30 748 H 65.8075 -3.08087 -2.10088 0
M  V30 749 N 67.9926 0.231505 -1.5589 0
M  V30 750 C 69.2226 0.973092 -1.82248 0
M  V30 751 C 69.6306 1.78845 -0.617328 0
M  V30 752 O 68.9736 1.78752 0.423499 0
M  V30 753 C 69.0356 1.94732 -3.02192 0
M  V30 754 C 68.6996 1.31743 -4.37599 0
M  V30 755 C 69.6966 0.712238 -5.14998 0
M  V30 756 C 67.3816 1.33218 -4.84312 0
M  V30 757 C 69.3756 0.130195 -6.37267 0
M  V30 758 C 67.0626 0.746286 -6.06526 0
M  V30 759 C 68.0606 0.146337 -6.82843 0
M  V30 760 O 67.7486 -0.430465 -8.02747 0
M  V30 761 H 67.4806 0.29125 -0.61004 0
M  V30 762 H 70.0346 0.254915 -2.03812 0
M  V30 763 H 68.2646 2.70422 -2.76422 0
M  V30 764 H 69.9536 2.55362 -3.15508 0
M  V30 765 H 70.7196 0.69324 -4.8002 0
M  V30 766 H 66.5986 1.78854 -4.24891 0
M  V30 767 H 70.1426 -0.33871 -6.96777 0
M  V30 768 H 66.0396 0.762663 -6.40979 0
M  V30 769 H 66.8076 -0.323818 -8.17859 0
M  V30 770 N 69.4707 1.49531 0.497807 0
M  V30 771 C 70.4337 1.65916 1.58128 0
M  V30 772 C 71.4337 0.530825 1.51786 0
M  V30 773 O 72.6237 0.797342 1.54881 0
M  V30 774 C 69.7557 1.65951 2.9778 0
M  V30 775 H 70.9487 2.62556 1.44929 0
M  V30 776 H 68.5017 1.38611 0.722275 0
M  V30 777 H 69.2367 0.709065 3.16453 0
M  V30 778 H 69.0217 2.47897 3.03792 0
M  V30 779 H 70.5117 1.80673 3.76493 0
M  V30 780 N 70.9488 -0.749086 1.3866 0
M  V30 781 C 72.1888 -1.52112 1.36534 0
M  V30 782 C 72.5528 -1.91951 -0.0432316 0
M  V30 783 O 73.7538 -2.68132 -0.189396 0
M  V30 784 C 72.0248 -2.73704 2.29828 0
M  V30 785 S 73.5838 -3.63519 2.45763 0
M  V30 786 H 70.4018 -0.520482 0.484375 0
M  V30 787 H 73.0038 -0.878963 1.74627 0
M  V30 788 H 71.7078 -2.42552 3.31054 0
M  V30 789 H 71.2388 -3.4286 1.929 0
M  V30 790 H 73.2538 -4.66712 1.68505 0
M  V30 791 N 72.4269 -1.23603 -0.977757 0
M  V30 792 C 73.3739 -1.01954 -2.07061 0
M  V30 793 C 74.3439 0.0638697 -1.65977 0
M  V30 794 O 75.5289 -0.0887624 -1.90593 0
M  V30 795 C 72.6689 -0.619658 -3.39491 0
M  V30 796 C 71.7819 -1.77547 -3.93829 0
M  V30 797 C 70.9169 -1.32212 -5.14484 0
M  V30 798 C 69.9559 -2.44852 -5.60994 0
M  V30 799 N 69.0929 -2.00456 -6.72876 0
M  V30 800 H 73.9329 -1.95495 -2.24913 0
M  V30 801 H 71.4699 -0.973861 -1.10247 0
M  V30 802 H 73.4279 -0.368898 -4.15566 0
M  V30 803 H 72.0579 0.278752 -3.21594 0
M  V30 804 H 71.1099 -2.14016 -3.14486 0
M  V30 805 H 72.4219 -2.62219 -4.24314 0
M  V30 806 H 71.5759 -1.02965 -5.97899 0
M  V30 807 H 70.3149 -0.445808 -4.85658 0
M  V30 808 H 69.3199 -2.74871 -4.76157 0
M  V30 809 H 70.5449 -3.33024 -5.91837 0
M  V30 810 H 68.4909 -1.15208 -6.45804 0
M  V30 811 H 68.4079 -2.78687 -7.02759 0
M  V30 812 H 69.6759 -1.7432 -7.59758 0
M  V30 813 N 73.905 1.17692 -1.04816 0
M  V30 814 C 74.855 2.1952 -0.616042 0
M  V30 815 C 75.839 1.57147 0.345485 0
M  V30 816 O 77.031 1.76245 0.163325 0
M  V30 817 C 74.16 3.43298 0.0116917 0
M  V30 818 C 73.246 4.12777 -0.973435 0
M  V30 819 N 73.637 4.5814 -2.14339 0
M  V30 820 C 71.935 4.38747 -0.80108 0
M  V30 821 C 72.636 5.11713 -2.7663 0
M  V30 822 N 71.612 5.03686 -2.04453 0
M  V30 823 H 75.414 2.52293 -1.5075 0
M  V30 824 H 72.928 1.3398 -0.917776 0
M  V30 825 H 74.925 4.15519 0.339006 0
M  V30 826 H 73.585 3.12018 0.898593 0
M  V30 827 H 74.596 4.52349 -2.52191 0
M  V30 828 H 71.273 4.17485 0.0350934 0
M  V30 829 H 72.663 5.56962 -3.75823 0
M  V30 830 N 75.3831 0.828654 1.34056 0
M  V30 831 C 76.7941 0.477534 1.8049 0
M  V30 832 C 77.1451 -1.00258 1.6865 0
M  V30 833 O 76.2701 -1.78057 1.22982 0
M  V30 834 C 76.8651 0.860018 3.27703 0
M  V30 835 C 75.4241 0.561185 3.72193 0
M  V30 836 C 74.5711 1.07385 2.55663 0
M  V30 837 H 77.5221 1.0183 1.21722 0
M  V30 838 H 77.5431 0.166038 3.80138 0
M  V30 839 H 77.0551 1.93731 3.36288 0
M  V30 840 H 75.1561 -0.506465 3.69142 0
M  V30 841 H 75.2691 1.10926 4.66082 0
M  V30 842 H 73.6331 0.495149 2.49841 0
M  V30 843 H 74.4161 2.15771 2.67016 0
M  V30 844 N 76.8612 -1.46375 0.584142 0
M  V30 845 C 77.7712 -2.34115 -0.150728 0
M  V30 846 C 78.7872 -1.49838 -0.884567 0
M  V30 847 O 79.9632 -1.82704 -0.847429 0
M  V30 848 C 77.0282 -3.2705 -1.15062 0
M  V30 849 C 76.0892 -4.27228 -0.421293 0
M  V30 850 C 75.3222 -5.15722 -1.37355 0
M  V30 851 O 75.5452 -5.07176 -2.61014 0
M  V30 852 O 74.4792 -5.95383 -0.883355 0
M  V30 853 H 78.3052 -2.98309 0.569708 0
M  V30 854 H 75.8902 -1.45373 0.344535 0
M  V30 855 H 77.7722 -3.84381 -1.72712 0
M  V30 856 H 76.4472 -2.65451 -1.8525 0
M  V30 857 H 75.3542 -3.7358 0.197085 0
M  V30 858 H 76.6872 -4.91616 0.239641 0
M  V30 859 N 78.3393 -0.321999 -1.54275 0
M  V30 860 C 79.5853 0.281461 -2.00837 0
M  V30 861 C 79.9183 1.51909 -1.20985 0
M  V30 862 O 79.1933 1.923 -0.291733 0
M  V30 863 C 79.4763 0.617162 -3.54772 0
M  V30 864 C 79.3293 -0.631064 -4.45351 0
M  V30 865 C 80.6483 1.43542 -4.16033 0
M  V30 866 H 77.7673 0.100826 -0.730071 0
M  V30 867 H 80.4093 -0.438268 -1.84876 0
M  V30 868 H 78.5593 1.23034 -3.68504 0
M  V30 869 H 80.2313 -1.26934 -4.43492 0
M  V30 870 H 78.4743 -1.26025 -4.15091 0
M  V30 871 H 79.1453 -0.351735 -5.50878 0
M  V30 872 H 81.6213 0.917134 -4.05867 0
M  V30 873 H 80.4973 1.63907 -5.23856 0
M  V30 874 H 80.7583 2.43108 -3.69257 0
M  V30 875 N 79.8174 1.5752 -0.0501392 0
M  V30 876 C 80.7494 2.08413 0.95376 0
M  V30 877 C 81.7624 1.01175 1.27544 0
M  V30 878 O 82.9514 1.28744 1.23641 0
M  V30 879 C 80.0514 2.51138 2.27559 0
M  V30 880 C 79.2244 3.817 2.13598 0
M  V30 881 C 78.2834 4.10749 3.28895 0
M  V30 882 O 77.3094 4.80685 3.04845 0
M  V30 883 N 78.5114 3.62579 4.5334 0
M  V30 884 H 81.2764 2.95165 0.519383 0
M  V30 885 H 78.8374 1.61327 0.136127 0
M  V30 886 H 80.8294 2.67648 3.03557 0
M  V30 887 H 79.3994 1.6964 2.62567 0
M  V30 888 H 78.6194 3.74782 1.22197 0
M  V30 889 H 79.9074 4.67201 2.01496 0
M  V30 890 H 79.3054 3.06039 4.75769 0
M  V30 891 H 77.8624 3.84329 5.26436 0
M  V30 892 N 81.2955 -0.223234 1.56011 0
M  V30 893 C 82.5205 -0.968978 1.83373 0
M  V30 894 C 82.9455 -1.77227 0.630254 0
M  V30 895 O 82.3035 -1.76345 -0.420959 0
M  V30 896 C 82.3515 -1.86363 3.08709 0
M  V30 897 O 81.4555 -2.95873 2.87285 0
M  V30 898 H 80.7965 -0.274461 0.604622 0
M  V30 899 H 83.3265 -0.237056 2.03222 0
M  V30 900 H 83.3365 -2.27376 3.38768 0
M  V30 901 H 82.0115 -1.27319 3.95933 0
M  V30 902 H 80.5885 -2.58818 2.68454 0
M  V30 903 N 82.7736 -1.49793 -0.48987 0
M  V30 904 C 84.0226 -1.59085 -1.23995 0
M  V30 905 C 84.3356 -0.287907 -1.9347 0
M  V30 906 O 85.5416 -0.259506 -2.70257 0
M  V30 907 C 83.9976 -2.80736 -2.252 0
M  V30 908 C 83.6056 -4.17833 -1.61614 0
M  V30 909 C 85.3496 -2.99364 -3.00967 0
M  V30 910 C 83.2566 -5.30693 -2.60996 0
M  V30 911 H 82.1866 -0.592372 -0.466488 0
M  V30 912 H 84.8376 -1.76197 -0.51252 0
M  V30 913 H 83.2196 -2.57142 -3.01154 0
M  V30 914 H 84.3936 -4.51608 -0.915774 0
M  V30 915 H 82.7086 -4.04656 -0.981977 0
M  V30 916 H 85.3056 -3.80851 -3.75308 0
M  V30 917 H 85.6486 -2.10356 -3.59244 0
M  V30 918 H 86.1816 -3.2305 -2.32128 0
M  V30 919 H 82.9206 -6.21796 -2.07485 0
M  V30 920 H 82.4406 -5.01359 -3.2924 0
M  V30 921 H 84.1196 -5.6049 -3.23202 0
M  V30 922 N 84.2517 0.741722 -1.39055 0
M  V30 923 C 85.1817 1.869 -1.39966 0
M  V30 924 C 86.1627 1.6804 -0.26392 0
M  V30 925 O 87.3477 1.88458 -0.468755 0
M  V30 926 C 84.4777 3.24572 -1.23574 0
M  V30 927 C 83.4317 3.58056 -2.34477 0
M  V30 928 C 82.7577 4.94593 -2.0318 0
M  V30 929 C 84.0577 3.61716 -3.76774 0
M  V30 930 H 85.7517 1.86395 -2.34302 0
M  V30 931 H 83.2977 0.895361 -1.1278 0
M  V30 932 H 85.2507 4.031 -1.22834 0
M  V30 933 H 83.9747 3.25587 -0.257045 0
M  V30 934 H 82.6337 2.81854 -2.34423 0
M  V30 935 H 82.2817 4.92181 -1.03765 0
M  V30 936 H 81.9817 5.17964 -2.77465 0
M  V30 937 H 83.5057 5.75486 -2.04079 0
M  V30 938 H 84.9197 4.30335 -3.78794 0
M  V30 939 H 83.3167 3.96603 -4.50362 0
M  V30 940 H 84.3867 2.61672 -4.08235 0
M  V30 941 N 85.7298 1.2412 0.971189 0
M  V30 942 C 86.6768 1.0305 2.06517 0
M  V30 943 C 87.6468 -0.0550666 1.66009 0
M  V30 944 O 88.8318 0.0988688 1.90544 0
M  V30 945 C 85.9718 0.637653 3.39158 0
M  V30 946 C 85.0848 1.79633 3.92882 0
M  V30 947 C 84.2198 1.34939 5.13775 0
M  V30 948 C 83.2588 2.47823 5.59687 0
M  V30 949 N 82.3958 2.04022 6.71803 0
M  V30 950 H 87.2358 1.96685 2.23873 0
M  V30 951 H 84.7728 0.979694 1.09729 0
M  V30 952 H 86.7308 0.390931 4.15364 0
M  V30 953 H 85.3608 -0.261693 3.21737 0
M  V30 954 H 84.4128 2.15681 3.13346 0
M  V30 955 H 85.7248 2.64466 4.22918 0
M  V30 956 H 84.8788 1.06134 5.97345 0
M  V30 957 H 83.6178 0.471557 4.85415 0
M  V30 958 H 82.6228 2.77392 4.74693 0
M  V30 959 H 83.8478 3.36158 5.90063 0
M  V30 960 H 81.7938 1.18632 6.45184 0
M  V30 961 H 81.7108 2.82409 7.01271 0
M  V30 962 H 82.9788 1.78347 7.58823 0
M  V30 963 N 87.2079 -1.17134 1.05439 0
M  V30 964 C 88.4569 -1.86791 0.761049 0
M  V30 965 C 88.7699 -1.82072 -0.714795 0
M  V30 966 O 89.9759 -2.47223 -1.12218 0
M  V30 967 C 88.4319 -3.35166 1.31117 0
M  V30 968 C 88.0399 -3.48381 2.81664 0
M  V30 969 C 89.7839 -4.10134 1.09499 0
M  V30 970 C 87.6909 -4.90793 3.29964 0
M  V30 971 H 86.6209 -0.699681 0.281002 0
M  V30 972 H 89.2719 -1.3226 1.27199 0
M  V30 973 H 87.6539 -3.8925 0.72803 0
M  V30 974 H 88.8279 -3.04502 3.45855 0
M  V30 975 H 87.1429 -2.86836 3.01851 0
M  V30 976 H 89.7399 -5.152 1.43084 0
M  V30 977 H 90.0829 -4.16287 0.0328772 0
M  V30 978 H 90.6159 -3.62264 1.64346 0
M  V30 979 H 87.3549 -4.89816 4.35616 0
M  V30 980 H 86.8749 -5.35333 2.70516 0
M  V30 981 H 88.5539 -5.59573 3.24787 0
M  V30 982 N 88.686 -0.835752 -1.33615 0
M  V30 983 C 89.911 -0.442389 -2.02627 0
M  V30 984 C 90.336 0.947735 -1.62479 0
M  V30 985 O 89.694 1.61907 -0.815826 0
M  V30 986 C 89.742 -0.567216 -3.56111 0
M  V30 987 O 88.846 0.407799 -4.10379 0
M  V30 988 H 88.187 -0.180278 -0.639059 0
M  V30 989 H 90.717 -1.12972 -1.70583 0
M  V30 990 H 90.727 -0.447708 -4.05536 0
M  V30 991 H 89.402 -1.58103 -3.84677 0
M  V30 992 H 87.979 0.246107 -3.72087 0
M  V30 993 N 90.1641 1.46063 -0.591896 0
M  V30 994 C 91.0961 2.28539 0.174001 0
M  V30 995 C 92.1091 1.39047 0.846753 0
M  V30 996 O 93.2981 1.63564 0.714774 0
M  V30 997 C 90.3981 3.14347 1.26645 0
M  V30 998 C 89.5711 4.32021 0.683856 0
M  V30 999 C 88.6301 4.99157 1.66518 0
M  V30 1000 O 87.6561 5.56458 1.19763 0
M  V30 1001 N 88.8581 4.97005 2.99943 0
M  V30 1002 H 91.6231 2.94911 -0.533633 0
M  V30 1003 H 89.1841 1.56077 -0.430294 0
M  V30 1004 H 91.1761 3.56125 1.92242 0
M  V30 1005 H 89.7461 2.49988 1.87682 0
M  V30 1006 H 88.9661 3.93915 -0.1498 0
M  V30 1007 H 90.2541 5.08059 0.274567 0
M  V30 1008 H 89.6521 4.51714 3.40545 0
M  V30 1009 H 88.2091 5.42696 3.61004 0
M  V30 1010 N 91.6422 0.330177 1.54103 0
M  V30 1011 C 93.0532 -0.15652 1.86043 0
M  V30 1012 C 93.4042 -1.51086 1.2517 0
M  V30 1013 O 92.5292 -2.09023 0.560217 0
M  V30 1014 C 93.1242 -0.290784 3.3755 0
M  V30 1015 C 91.6832 -0.721705 3.69416 0
M  V30 1016 C 90.8302 0.152622 2.7688 0
M  V30 1017 H 93.7812 0.550237 1.48856 0
M  V30 1018 H 93.8022 -1.12058 3.63625 0
M  V30 1019 H 93.3142 0.695068 3.81825 0
M  V30 1020 H 91.4152 -1.71706 3.30678 0
M  V30 1021 H 91.5282 -0.520869 4.7626 0
M  V30 1022 H 89.8922 -0.372894 2.51956 0
M  V30 1023 H 90.6752 1.13536 3.23982 0
M  V30 1024 N 93.1203 -1.57491 0.0584922 0
M  V30 1025 C 94.0523 -2.08916 -0.942694 0
M  V30 1026 C 95.0653 -1.0185 -1.27006 0
M  V30 1027 O 96.2543 -1.29398 -1.22957 0
M  V30 1028 C 93.3543 -2.52341 -2.26224 0
M  V30 1029 C 92.5273 -3.82827 -2.1157 0
M  V30 1030 C 91.5863 -4.12487 -3.26712 0
M  V30 1031 O 90.6123 -4.82295 -3.02292 0
M  V30 1032 N 91.8143 -3.64978 -4.5141 0
M  V30 1033 H 94.5793 -2.95437 -0.503722 0
M  V30 1034 H 92.1403 -1.61397 -0.12757 0
M  V30 1035 H 94.1323 -2.69254 -3.02133 0
M  V30 1036 H 92.7023 -1.7103 -2.61663 0
M  V30 1037 H 91.9223 -3.75425 -1.20208 0
M  V30 1038 H 93.2103 -4.68263 -1.99015 0
M  V30 1039 H 92.6083 -3.08558 -4.7414 0
M  V30 1040 H 91.1653 -3.87115 -5.2439 0
M  V30 1041 N 94.5984 0.214957 -1.56127 0
M  V30 1042 C 95.5084 1.28727 -1.96129 0
M  V30 1043 C 96.5244 1.50916 -0.866044 0
M  V30 1044 O 97.7004 1.63918 -1.17016 0
M  V30 1045 C 94.7654 2.61569 -2.27558 0
M  V30 1046 C 93.8264 2.47625 -3.50685 0
M  V30 1047 C 93.0594 3.74132 -3.80606 0
M  V30 1048 O 93.2824 4.77438 -3.12104 0
M  V30 1049 O 92.2164 3.70849 -4.74083 0
M  V30 1050 H 96.0424 0.977855 -2.87527 0
M  V30 1051 H 93.6274 0.418358 -1.43423 0
M  V30 1052 H 95.5094 3.40012 -2.48938 0
M  V30 1053 H 94.1844 2.92178 -1.39332 0
M  V30 1054 H 93.0914 1.67361 -3.34576 0
M  V30 1055 H 94.4244 2.21954 -4.39315 0
M  V30 1056 N 96.0765 1.50051 0.48192 0
M  V30 1057 C 97.4875 1.5348 1.06305 0
M  V30 1058 C 97.8385 0.331997 1.93371 0
M  V30 1059 O 96.9635 -0.556256 2.09129 0
M  V30 1060 C 97.5585 2.7813 1.93466 0
M  V30 1061 C 96.1175 2.84275 2.46707 0
M  V30 1062 C 95.2645 2.47637 1.24785 0
M  V30 1063 H 98.2155 1.56472 0.264995 0
M  V30 1064 H 98.2365 2.59372 2.78399 0
M  V30 1065 H 97.7485 3.65654 1.30072 0
M  V30 1066 H 95.8495 2.01077 3.13686 0
M  V30 1067 H 95.9625 3.8691 2.82555 0
M  V30 1068 H 94.3265 1.99835 1.57918 0
M  V30 1069 H 95.1095 3.37457 0.630694 0
M  V30 1070 N 97.5546 -0.734337 1.39446 0
M  V30 1071 C 98.4646 -1.87879 1.40495 0
M  V30 1072 C 99.4806 -1.714 0.299672 0
M  V30 1073 O 100.657 -1.93991 0.541249 0
M  V30 1074 C 97.7216 -3.23477 1.24754 0
M  V30 1075 C 96.7826 -3.52344 2.45259 0
M  V30 1076 C 96.0156 -4.81473 2.30259 0
M  V30 1077 O 96.2386 -5.55237 1.30643 0
M  V30 1078 O 95.1726 -5.10254 3.19256 0
M  V30 1079 H 98.9986 -1.89949 2.36966 0
M  V30 1080 H 96.5836 -0.882243 1.20569 0
M  V30 1081 H 98.4656 -4.04509 1.18111 0
M  V30 1082 H 97.1406 -3.22176 0.313781 0
M  V30 1083 H 96.0476 -2.71396 2.57478 0
M  V30 1084 H 97.3806 -3.58426 3.37331 0
M  V30 1085 N 99.0327 -1.24633 -0.964593 0
M  V30 1086 C 99.9627 -1.06611 -2.07741 0
M  V30 1087 C 100.944 0.0218666 -1.70086 0
M  V30 1088 O 102.129 -0.145793 -1.93652 0
M  V30 1089 C 99.2587 -0.673444 -3.40708 0
M  V30 1090 C 98.2127 -1.71054 -3.92332 0
M  V30 1091 C 97.5387 -1.17285 -5.21678 0
M  V30 1092 C 98.8387 -3.10718 -4.19824 0
M  V30 1093 H 100.533 -1.99693 -2.23076 0
M  V30 1094 H 98.0787 -0.96152 -1.07195 0
M  V30 1095 H 100.032 -0.534345 -4.17998 0
M  V30 1096 H 98.7557 0.293073 -3.25282 0
M  V30 1097 H 97.4147 -1.83791 -3.17201 0
M  V30 1098 H 97.0627 -0.196847 -5.02615 0
M  V30 1099 H 96.7627 -1.86592 -5.57187 0
M  V30 1100 H 98.2867 -1.04593 -6.01575 0
M  V30 1101 H 99.7007 -3.01192 -4.87808 0
M  V30 1102 H 98.0977 -3.77406 -4.66567 0
M  V30 1103 H 99.1677 -3.58524 -3.26479 0
M  V30 1104 N 100.511 1.16574 -1.06058 0
M  V30 1105 C 101.444 2.19798 -0.61352 0
M  V30 1106 C 102.422 1.58509 0.362453 0
M  V30 1107 O 103.606 1.86527 0.271994 0
M  V30 1108 C 100.733 3.3855 0.100915 0
M  V30 1109 C 99.7788 4.18317 -0.831438 0
M  V30 1110 S 100.612 4.82375 -2.32539 0
M  V30 1111 C 101.768 6.04508 -1.62238 0
M  V30 1112 H 102.001 2.5738 -1.48805 0
M  V30 1113 H 99.5338 1.27327 -0.873338 0
M  V30 1114 H 101.492 4.07358 0.506898 0
M  V30 1115 H 100.153 2.99338 0.951604 0
M  V30 1116 H 99.3458 5.03232 -0.278071 0
M  V30 1117 H 98.9478 3.5499 -1.17719 0
M  V30 1118 H 101.24 6.71133 -0.926622 0
M  V30 1119 H 102.183 6.64389 -2.44934 0
M  V30 1120 H 102.591 5.53559 -1.106 0
M  V30 1121 N 101.989 0.842826 1.3317 0
M  V30 1122 C 102.937 0.267495 2.31057 0
M  V30 1123 C 103.931 -0.602682 1.58316 0
M  V30 1124 O 105.137 -0.491803 1.73151 0
M  V30 1125 H 101.512 0.0677813 0.748939 0
M  V30 1126 H 103.483 1.10754 2.77085 0
M  V30 1127 C 102.232 -0.539331 3.43492 0
M  V30 1128 H 101.555 0.12095 3.99617 0
M  V30 1129 H 102.995 -0.90767 4.14171 0
M  V30 1130 C 101.454 -1.71981 2.89697 0
M  V30 1131 O 101.984 -2.81862 2.86211 0
M  V30 1132 N 100.19 -1.54299 2.46252 0
M  V30 1133 H 99.7369 -0.649143 2.49287 0
M  V30 1134 H 99.6949 -2.33431 2.10612 0
M  V30 1135 N 103.467 -1.45747 0.599634 0
M  V30 1136 C 104.43 -2.28917 -0.113835 0
M  V30 1137 C 105.43 -1.3933 -0.802729 0
M  V30 1138 O 106.62 -1.61534 -0.652103 0
M  V30 1139 C 103.752 -3.20152 -1.17114 0
M  V30 1140 H 104.945 -2.93478 0.617289 0
M  V30 1141 H 102.498 -1.52137 0.358327 0
M  V30 1142 H 103.233 -2.60374 -1.93329 0
M  V30 1143 H 103.018 -3.86133 -0.681468 0
M  V30 1144 H 104.508 -3.82708 -1.67105 0
M  V30 1145 N 104.945 -0.338344 -1.53925 0
M  V30 1146 C 105.893 0.536231 -2.26335 0
M  V30 1147 C 106.887 1.1063 -1.28286 0
M  V30 1148 O 108.093 1.05264 -1.46012 0
M  V30 1149 H 104.468 0.191602 -0.727181 0
M  V30 1150 H 106.439 -0.0965747 -2.98244 0
M  V30 1151 C 105.188 1.67803 -3.04528 0
M  V30 1152 H 104.511 1.24864 -3.79801 0
M  V30 1153 H 105.951 2.26526 -3.58416 0
M  V30 1154 C 104.41 2.60439 -2.13712 0
M  V30 1155 O 104.94 3.6255 -1.72975 0
M  V30 1156 N 103.146 2.29006 -1.78898 0
M  V30 1157 H 102.693 1.46011 -2.12223 0
M  V30 1158 H 102.651 2.91248 -1.18416 0
M  V30 1159 N 106.423 1.57458 -0.0668435 0
M  V30 1160 C 107.834 1.80776 0.466558 0
M  V30 1161 C 108.185 0.980361 1.69951 0
M  V30 1162 O 107.31 0.201441 2.1546 0
M  V30 1163 C 107.905 3.27881 0.85321 0
M  V30 1164 C 106.464 3.52062 1.3315 0
M  V30 1165 C 105.611 2.75513 0.314264 0
M  V30 1166 H 108.562 1.5598 -0.292588 0
M  V30 1167 H 108.583 3.39659 1.715 0
M  V30 1168 H 108.095 3.88075 -0.0443439 0
M  V30 1169 H 106.196 2.97167 2.24772 0
M  V30 1170 H 106.309 4.60762 1.31285 0
M  V30 1171 H 104.673 2.42123 0.790492 0
M  V30 1172 H 105.456 3.38442 -0.575477 0
M  V30 1173 N 107.901 -0.206675 1.56239 0
M  V30 1174 C 109.126 -0.949474 1.8439 0
M  V30 1175 C 109.551 -1.76549 0.649016 0
M  V30 1176 O 108.909 -1.76782 -0.402231 0
M  V30 1177 C 108.957 -1.83078 3.10668 0
M  V30 1178 O 108.061 -2.9281 2.90407 0
M  V30 1179 H 107.402 -0.268033 0.607499 0
M  V30 1180 H 109.932 -0.215488 2.03462 0
M  V30 1181 H 109.942 -2.2377 3.41161 0
M  V30 1182 H 108.617 -1.23112 3.97261 0
M  V30 1183 H 107.194 -2.55956 2.71184 0
M  V30 1184 N 109.379 -1.50304 -0.473955 0
M  V30 1185 C 110.79 -1.54042 -1.0549 0
M  V30 1186 C 111.141 -0.342248 -1.93192 0
M  V30 1187 O 110.266 0.545157 -2.09421 0
M  V30 1188 C 110.861 -2.79152 -1.91989 0
M  V30 1189 C 109.42 -2.8558 -2.45196 0
M  V30 1190 C 108.567 -2.48295 -1.2347 0
M  V30 1191 H 111.518 -1.5661 -0.256693 0
M  V30 1192 H 111.539 -2.60845 -2.7702 0
M  V30 1193 H 111.051 -3.66339 -1.28131 0
M  V30 1194 H 109.152 -2.02738 -3.12615 0
M  V30 1195 H 109.265 -3.88403 -2.80499 0
M  V30 1196 H 107.629 -2.00669 -1.56856 0
M  V30 1197 H 108.412 -3.37787 -0.612789 0
M  V30 1198 N 110.857 0.726932 -1.39834 0
M  V30 1199 C 112.268 1.30558 -1.3346 0
M  V30 1200 C 112.619 1.962 -0.00273003 0
M  V30 1201 O 111.744 1.96826 0.899371 0
M  V30 1202 C 112.339 2.37404 -2.41713 0
M  V30 1203 C 110.898 2.90921 -2.38835 0
M  V30 1204 C 110.045 1.64578 -2.2318 0
M  V30 1205 H 112.996 0.523862 -1.49804 0
M  V30 1206 H 113.017 3.17984 -2.08966 0
M  V30 1207 H 112.529 1.89599 -3.38635 0
M  V30 1208 H 110.63 3.42985 -1.45575 0
M  V30 1209 H 110.743 3.43487 -3.33997 0
M  V30 1210 H 109.107 1.89219 -1.70494 0
M  V30 1211 H 109.89 1.18814 -3.22084 0
M  V30 1212 N 112.336 1.25143 0.95797 0
M  V30 1213 C 113.747 1.08851 1.51685 0
M  V30 1214 C 114.098 -0.33687 1.93286 0
M  V30 1215 O 113.223 -1.22644 1.7829 0
M  V30 1216 C 113.818 1.96978 2.75654 0
M  V30 1217 C 112.377 1.84881 3.27866 0
M  V30 1218 C 111.524 1.91329 2.0072 0
M  V30 1219 H 114.475 1.38478 0.77522 0
M  V30 1220 H 114.496 1.5078 3.4935 0
M  V30 1221 H 114.008 3.00712 2.45345 0
M  V30 1222 H 112.109 0.840182 3.63004 0
M  V30 1223 H 112.222 2.6951 3.96107 0
M  V30 1224 H 110.586 1.35174 2.15871 0
M  V30 1225 H 111.369 2.96661 1.72764 0
M  V30 1226 N 113.814 -1.1601 1.06675 0
M  V30 1227 C 115.039 -1.91068 0.806706 0
M  V30 1228 C 115.464 -1.77112 -0.633485 0
M  V30 1229 O 114.822 -1.09908 -1.44187 0
M  V30 1230 C 114.87 -3.39655 1.21106 0
M  V30 1231 O 113.974 -4.10893 0.352189 0
M  V30 1232 H 113.315 -0.595125 0.294486 0
M  V30 1233 H 115.845 -1.46955 1.42356 0
M  V30 1234 H 115.855 -3.90434 1.18428 0
M  V30 1235 H 114.53 -3.49132 2.26008 0
M  V30 1236 H 113.107 -3.70285 0.440868 0
M  V30 1237 N 115.292 -0.849877 -1.32721 0
M  V30 1238 C 116.703 -0.506188 -1.79707 0
M  V30 1239 C 117.054 0.975627 -1.70223 0
M  V30 1240 O 116.179 1.76078 -1.25799 0
M  V30 1241 C 116.774 -0.912044 -3.26293 0
M  V30 1242 C 115.333 -0.620326 -3.71253 0
M  V30 1243 C 114.48 -1.11439 -2.53922 0
M  V30 1244 H 117.431 -1.03754 -1.20087 0
M  V30 1245 H 117.452 -0.226493 -3.79825 0
M  V30 1246 H 116.964 -1.99057 -3.33164 0
M  V30 1247 H 115.065 0.447674 -3.69901 0
M  V30 1248 H 115.178 -1.18327 -4.64258 0
M  V30 1249 H 113.542 -0.534834 -2.49021 0
M  V30 1250 H 114.325 -2.19992 -2.6355 0
M  V30 1251 N 116.77 1.45427 -0.607355 0
M  V30 1252 C 117.995 2.07124 -0.107006 0
M  V30 1253 C 118.42 1.44906 1.19933 0
M  V30 1254 O 117.778 0.541687 1.73019 0
M  V30 1255 C 117.826 3.60595 0.0194119 0
M  V30 1256 O 116.93 3.98285 1.0697 0
M  V30 1257 H 116.271 0.659868 -0.0739597 0
M  V30 1258 H 118.801 1.86683 -0.837297 0
M  V30 1259 H 118.811 4.07419 0.2177 0
M  V30 1260 H 117.486 4.05266 -0.934453 0
M  V30 1261 H 116.063 3.63133 0.847889 0
M  V30 1262 N 118.248 0.346503 1.53744 0
M  V30 1263 C 119.18 -0.543316 2.22667 0
M  V30 1264 C 120.193 -1.06159 1.23427 0
M  V30 1265 O 121.382 -0.971235 1.49764 0
M  V30 1266 C 118.482 -1.76076 2.89569 0
M  V30 1267 C 117.655 -1.37727 4.15151 0
M  V30 1268 C 116.714 -2.45471 4.65436 0
M  V30 1269 O 115.74 -2.08655 5.29577 0
M  V30 1270 N 116.942 -3.7677 4.41616 0
M  V30 1271 H 119.707 0.0469703 2.99663 0
M  V30 1272 H 117.268 0.170766 1.60997 0
M  V30 1273 H 119.26 -2.47593 3.20125 0
M  V30 1274 H 117.83 -2.25835 2.16142 0
M  V30 1275 H 117.05 -0.492746 3.91108 0
M  V30 1276 H 118.338 -1.09708 4.96832 0
M  V30 1277 H 117.736 -4.09467 3.90325 0
M  V30 1278 H 116.293 -4.44448 4.7677 0
M  V30 1279 N 119.726 -1.57421 0.075193 0
M  V30 1280 C 120.658 -2.09904 -0.920483 0
M  V30 1281 C 121.671 -1.03191 -1.25918 0
M  V30 1282 O 122.86 -1.30695 -1.21577 0
M  V30 1283 C 119.96 -2.54726 -2.23534 0
M  V30 1284 C 119.133 -3.8505 -2.07498 0
M  V30 1285 C 118.192 -4.15929 -3.22319 0
M  V30 1286 O 117.218 -4.85474 -2.9716 0
M  V30 1287 N 118.42 -3.69745 -4.47514 0
M  V30 1288 H 121.185 -2.95954 -0.472359 0
M  V30 1289 H 118.746 -1.61523 -0.110444 0
M  V30 1290 H 120.738 -2.72443 -2.9926 0
M  V30 1291 H 119.308 -1.73795 -2.59835 0
M  V30 1292 H 118.528 -3.76679 -1.16219 0
M  V30 1293 H 119.816 -4.70348 -1.94038 0
M  V30 1294 H 119.214 -3.13569 -4.7084 0
M  V30 1295 H 117.771 -3.92655 -5.20255 0
M  V30 1296 N 121.204 0.198386 -1.56346 0
M  V30 1297 C 122.453 0.917451 -1.79627 0
M  V30 1298 C 122.766 1.8456 -0.64784 0
M  V30 1299 O 123.972 2.60504 -0.764859 0
M  V30 1300 C 122.428 1.68175 -3.18191 0
M  V30 1301 C 122.036 0.798589 -4.40825 0
M  V30 1302 C 123.78 2.39065 -3.50782 0
M  V30 1303 C 121.687 1.56157 -5.70411 0
M  V30 1304 H 120.617 0.346317 -0.669762 0
M  V30 1305 H 123.268 0.170801 -1.82703 0
M  V30 1306 H 121.65 2.47216 -3.09354 0
M  V30 1307 H 122.824 0.0470665 -4.60776 0
M  V30 1308 H 121.139 0.200686 -4.15916 0
M  V30 1309 H 123.736 2.96692 -4.44835 0
M  V30 1310 H 124.079 3.13091 -2.74371 0
M  V30 1311 H 124.612 1.66993 -3.61052 0
M  V30 1312 H 121.351 0.864142 -6.49779 0
M  V30 1313 H 120.871 2.2871 -5.54483 0
M  V30 1314 H 122.55 2.11622 -6.11412 0
M  V30 1315 N 122.682 1.50554 0.465978 0
M  V30 1316 C 123.63 1.70324 1.58406 0
M  V30 1317 C 124.624 0.569139 1.59553 0
M  V30 1318 O 125.83 0.749776 1.63641 0
M  V30 1319 H 122.205 0.537688 0.525734 0
M  V30 1320 H 124.176 2.64104 1.38894 0
M  V30 1321 C 122.925 1.81928 2.96307 0
M  V30 1322 H 122.248 2.68586 2.96144 0
M  V30 1323 H 123.688 1.99784 3.73982 0
M  V30 1324 C 122.147 0.572095 3.32007 0
M  V30 1325 O 122.677 -0.286416 4.00678 0
M  V30 1326 N 120.883 0.424606 2.87481 0
M  V30 1327 H 120.43 1.12427 2.31771 0
M  V30 1328 H 120.388 -0.408697 3.11732 0
M  V30 1329 N 124.16 -0.719506 1.40217 0
M  V30 1330 C 125.09 -1.8465 1.42922 0
M  V30 1331 C 126.071 -1.67599 0.29062 0
M  V30 1332 O 127.256 -1.87688 0.498677 0
M  V30 1333 C 124.386 -3.22565 1.28722 0
M  V30 1334 C 123.34 -3.54281 2.40144 0
M  V30 1335 C 122.666 -4.91298 2.11023 0
M  V30 1336 C 123.966 -3.55676 3.82481 0
M  V30 1337 H 125.66 -1.82644 2.37237 0
M  V30 1338 H 123.206 -0.877305 1.1419 0
M  V30 1339 H 125.159 -4.01095 1.29232 0
M  V30 1340 H 123.883 -3.25137 0.308811 0
M  V30 1341 H 122.542 -2.78088 2.38877 0
M  V30 1342 H 122.19 -4.90468 1.11582 0
M  V30 1343 H 121.89 -5.13485 2.8567 0
M  V30 1344 H 123.414 -5.72166 2.13209 0
M  V30 1345 H 124.828 -4.24254 3.85592 0
M  V30 1346 H 123.225 -3.89388 4.56614 0
M  V30 1347 H 124.295 -2.55144 4.12346 0
M  V30 1348 N 125.638 -1.25649 -0.95132 0
M  V30 1349 C 126.886 -1.10375 -1.69298 0
M  V30 1350 C 127.207 0.355339 -1.91735 0
M  V30 1351 O 126.477 1.25188 -1.50681 0
M  V30 1352 H 125.057 -0.405461 -0.627384 0
M  V30 1353 H 127.719 -1.57823 -1.14358 0
M  V30 1354 H 126.815 -1.61465 -2.67087 0
M  V30 1355 N 127.117 1.15442 -1.07289 0
M  V30 1356 C 128.528 1.67803 -0.818475 0
M  V30 1357 C 128.879 1.8489 0.656507 0
M  V30 1358 O 128.004 1.55176 1.50829 0
M  V30 1359 C 128.599 3.04805 -1.47917 0
M  V30 1360 C 127.158 3.54245 -1.27229 0
M  V30 1361 C 126.305 2.29986 -1.54925 0
M  V30 1362 H 129.256 0.996646 -1.23502 0
M  V30 1363 H 129.277 3.69702 -0.90005 0
M  V30 1364 H 128.789 2.92336 -2.55267 0
M  V30 1365 H 126.89 3.71956 -0.21899 0
M  V30 1366 H 127.003 4.35723 -1.99203 0
M  V30 1367 H 125.367 2.35496 -0.970242 0
M  V30 1368 H 126.15 2.20105 -2.63455 0
M  V30 1369 N 128.595 0.856903 1.32268 0
M  V30 1370 C 129.82 0.474569 2.01897 0
M  V30 1371 C 130.245 -0.921766 1.63967 0
M  V30 1372 O 129.603 -1.60589 0.84148 0
M  V30 1373 C 129.651 0.623799 3.55164 0
M  V30 1374 O 128.755 -0.342459 4.10976 0
M  V30 1375 H 128.096 0.190422 0.63611 0
M  V30 1376 H 130.626 1.15672 1.68764 0
M  V30 1377 H 130.636 0.512169 4.04773 0
M  V30 1378 H 129.311 1.64202 3.82113 0
M  V30 1379 H 127.888 -0.18688 3.72431 0
M  V30 1380 N 130.073 -1.45103 0.615059 0
M  V30 1381 C 131.298 -2.07064 0.117988 0
M  V30 1382 C 131.723 -1.4554 -1.19163 0
M  V30 1383 O 131.081 -0.550855 -1.72729 0
M  V30 1384 C 131.129 -3.606 -0.000288387 0
M  V30 1385 O 130.233 -3.98847 -1.04856 0
M  V30 1386 H 129.574 -0.659467 0.0774581 0
M  V30 1387 H 132.104 -1.86236 0.847186 0
M  V30 1388 H 132.114 -4.07529 -0.196091 0
M  V30 1389 H 130.789 -4.04765 0.955932 0
M  V30 1390 H 129.366 -3.63577 -0.828619 0
M  V30 1391 N 131.551 -0.354651 -1.53558 0
M  V30 1392 C 132.499 0.512195 -2.26891 0
M  V30 1393 C 133.493 1.09263 -1.29452 0
M  V30 1394 O 134.699 1.03709 -1.47121 0
M  V30 1395 H 131.074 0.183878 -0.729173 0
M  V30 1396 H 133.045 -0.128202 -2.98124 0
M  V30 1397 C 131.794 1.64563 -3.06291 0
M  V30 1398 H 131.117 1.20829 -3.81104 0
M  V30 1399 H 132.557 2.22711 -3.60799 0
M  V30 1400 C 131.016 2.58158 -2.16462 0
M  V30 1401 O 131.546 3.60695 -1.76811 0
M  V30 1402 N 129.752 2.27096 -1.81317 0
M  V30 1403 H 129.299 1.43751 -2.1376 0
M  V30 1404 H 129.257 2.89975 -1.21498 0
M  V30 1405 N 133.029 1.57378 -0.0835403 0
M  V30 1406 C 134.44 1.81261 0.447358 0
M  V30 1407 C 134.791 0.998331 1.68902 0
M  V30 1408 O 133.916 0.224282 2.15235 0
M  V30 1409 C 134.511 3.28767 0.818386 0
M  V30 1410 C 133.07 3.53455 1.29409 0
M  V30 1411 C 132.217 2.75831 0.285024 0
M  V30 1412 H 135.168 1.5566 -0.309115 0
M  V30 1413 H 135.189 3.41459 1.67887 0
M  V30 1414 H 134.701 3.88006 -0.0855019 0
M  V30 1415 H 132.802 2.99534 2.21608 0
M  V30 1416 H 132.915 4.62128 1.2639 0
M  V30 1417 H 131.279 2.42947 0.764767 0
M  V30 1418 H 132.062 3.37813 -0.611341 0
M  V30 1419 N 134.507 -0.190092 1.56449 0
M  V30 1420 C 135.457 -1.23977 1.91347 0
M  V30 1421 C 136.441 -1.40747 0.779693 0
M  V30 1422 O 137.633 -1.43033 1.04262 0
M  V30 1423 C 134.762 -2.58347 2.26079 0
M  V30 1424 C 133.848 -2.4535 3.45925 0
M  V30 1425 N 134.239 -2.02039 4.63696 0
M  V30 1426 C 132.537 -2.76229 3.50162 0
M  V30 1427 C 133.238 -2.01053 5.4585 0
M  V30 1428 N 132.214 -2.42747 4.8639 0
M  V30 1429 H 136.016 -0.896318 2.79899 0
M  V30 1430 H 133.53 -0.398496 1.57435 0
M  V30 1431 H 135.527 -3.34173 2.49267 0
M  V30 1432 H 134.187 -2.93512 1.38856 0
M  V30 1433 H 135.198 -1.7267 4.88268 0
M  V30 1434 H 131.875 -3.15556 2.73369 0
M  V30 1435 H 133.265 -1.69426 6.50188 0
M  V30 1436 N 135.985 -1.50799 -0.457987 0
M  V30 1437 C 136.948 -1.7005 -1.53674 0
M  V30 1438 C 137.948 -0.570881 -1.50325 0
M  V30 1439 O 139.138 -0.838126 -1.52712 0
M  V30 1440 C 136.27 -1.73788 -2.93276 0
M  V30 1441 H 137.463 -2.66306 -1.37917 0
M  V30 1442 H 135.016 -1.40477 -0.685271 0
M  V30 1443 H 135.751 -0.792717 -3.14462 0
M  V30 1444 H 135.536 -2.55864 -2.97113 0
M  V30 1445 H 137.026 -1.90591 -3.71571 0
M  V30 1446 N 137.463 0.71206 -1.40597 0
M  V30 1447 C 138.41 1.82613 -1.41142 0
M  V30 1448 C 139.38 1.63925 -0.267903 0
M  V30 1449 O 140.565 1.85009 -0.466495 0
M  V30 1450 C 137.705 3.20354 -1.28324 0
M  V30 1451 C 136.818 3.50589 -2.52411 0
M  V30 1452 C 135.953 4.77855 -2.32009 0
M  V30 1453 C 134.992 5.01005 -3.51654 0
M  V30 1454 N 134.129 6.19487 -3.30425 0
M  V30 1455 H 138.969 1.81482 -2.36365 0
M  V30 1456 H 136.506 0.886475 -1.17388 0
M  V30 1457 H 138.464 3.99899 -1.18899 0
M  V30 1458 H 137.094 3.20705 -0.367189 0
M  V30 1459 H 136.146 2.65573 -2.72351 0
M  V30 1460 H 137.458 3.63604 -3.41458 0
M  V30 1461 H 136.612 5.65424 -2.19956 0
M  V30 1462 H 135.351 4.67056 -1.40392 0
M  V30 1463 H 134.356 4.1189 -3.64179 0
M  V30 1464 H 135.581 5.13674 -4.44202 0
M  V30 1465 H 133.527 6.09932 -2.41494 0
M  V30 1466 H 133.444 6.33194 -4.13039 0
M  V30 1467 H 134.712 7.09834 -3.22113 0
M  V30 1468 N 138.941 1.26152 0.944643 0
M  V30 1469 C 140.352 1.10454 1.50522 0
M  V30 1470 C 140.703 -0.31635 1.93633 0
M  V30 1471 O 139.828 -1.20746 1.79581 0
M  V30 1472 C 140.423 1.99891 2.73549 0
M  V30 1473 C 138.982 1.88348 3.25886 0
M  V30 1474 C 138.129 1.93447 1.9868 0
M  V30 1475 H 141.08 1.39292 0.760489 0
M  V30 1476 H 141.101 1.54477 3.47732 0
M  V30 1477 H 140.613 3.03297 2.42141 0
M  V30 1478 H 138.714 0.878636 3.62092 0
M  V30 1479 H 138.827 2.73696 3.93227 0
M  V30 1480 H 137.191 1.37456 2.14425 0
M  V30 1481 H 137.974 2.98476 1.69607 0
M  V30 1482 N 140.419 -1.14872 1.07899 0
M  V30 1483 C 141.644 -1.90202 0.826926 0
M  V30 1484 C 142.069 -1.77774 -0.614664 0
M  V30 1485 O 141.427 -1.11431 -1.43013 0
M  V30 1486 C 141.475 -3.38352 1.24702 0
M  V30 1487 O 140.579 -4.10497 0.39575 0
M  V30 1488 H 139.92 -0.591968 0.300782 0
M  V30 1489 H 142.45 -1.45437 1.43907 0
M  V30 1490 H 142.46 -3.89156 1.22563 0
M  V30 1491 H 141.135 -3.46715 2.29698 0
M  V30 1492 H 139.712 -3.69796 0.480117 0
M  V30 1493 N 141.898 -0.863906 -1.31812 0
M  V30 1494 C 143.175 -0.39275 -1.91616 0
M  V30 1495 C 143.555 1.12461 -1.7865 0
M  V30 1496 O 142.903 1.95045 -1.19037 0
M  V30 1497 C 143.113 -0.867385 -3.38049 0
M  V30 1498 C 144.461 -0.889966 -4.15168 0
M  V30 1499 O 145.485 -0.812635 -3.46806 0
M  V30 1500 O 144.344 -1.00079 -5.37258 0
M  V30 1501 H 141.438 -0.116358 -0.818773 0
M  V30 1502 H 143.984 -0.951418 -1.40521 0
M  V30 1503 H 142.756 -1.91081 -3.41473 0
M  V30 1504 H 142.379 -0.286687 -3.96565 0
M  V30 1505 N 143.376 1.44774 -0.622745 0
M  V30 1506 C 144.623 2.02121 -0.1239 0
M  V30 1507 C 144.951 1.48915 1.25118 0
M  V30 1508 O 144.206 0.660045 1.84233 0
M  V30 1509 C 144.505 3.57364 -0.0508323 0
M  V30 1510 C 144.171 4.29787 -1.36358 0
M  V30 1511 C 142.833 4.4929 -1.72314 0
M  V30 1512 C 145.185 4.71062 -2.23048 0
M  V30 1513 C 142.513 5.07325 -2.94682 0
M  V30 1514 C 144.865 5.30452 -3.44679 0
M  V30 1515 C 143.529 5.48175 -3.80868 0
M  V30 1516 H 142.799 0.739612 -0.0453381 0
M  V30 1517 H 145.446 1.73648 -0.807389 0
M  V30 1518 H 143.751 3.85202 0.715991 0
M  V30 1519 H 145.448 3.99456 0.351533 0
M  V30 1520 H 142.038 4.14932 -1.07375 0
M  V30 1521 H 146.222 4.55715 -1.96565 0
M  V30 1522 H 141.478 5.19235 -3.22809 0
M  V30 1523 H 145.652 5.61385 -4.12092 0
M  V30 1524 H 143.279 5.92912 -4.75773 0
M  V30 1525 N 144.854 0.36279 1.53368 0
M  V30 1526 C 145.804 -0.501391 2.22419 0
M  V30 1527 C 146.788 -1.0509 1.2184 0
M  V30 1528 O 147.98 -0.981404 1.47301 0
M  V30 1529 C 145.109 -1.64201 3.01484 0
M  V30 1530 C 144.195 -1.10552 4.09438 0
M  V30 1531 N 144.586 -0.291788 5.04958 0
M  V30 1532 C 142.884 -1.3806 4.24094 0
M  V30 1533 C 143.585 0.00162655 5.817 0
M  V30 1534 N 142.561 -0.595244 5.40331 0
M  V30 1535 H 146.363 0.127159 2.93625 0
M  V30 1536 H 143.877 0.170658 1.61501 0
M  V30 1537 H 145.874 -2.27326 3.49469 0
M  V30 1538 H 144.534 -2.27365 2.31809 0
M  V30 1539 H 145.545 0.0687731 5.17854 0
M  V30 1540 H 142.222 -2.01522 3.65644 0
M  V30 1541 H 143.612 0.659278 6.68658 0
M  V30 1542 N 146.332 -1.57332 0.0918853 0
M  V30 1543 C 147.579 -1.94236 -0.572577 0
M  V30 1544 C 147.907 -0.973398 -1.6839 0
M  V30 1545 O 147.162 0.00756912 -1.95699 0
M  V30 1546 C 147.461 -3.37689 -1.17051 0
M  V30 1547 C 147.127 -4.50527 -0.183304 0
M  V30 1548 C 145.789 -4.81119 0.0882276 0
M  V30 1549 C 148.141 -5.18883 0.49095 0
M  V30 1550 C 145.469 -5.77395 1.04076 0
M  V30 1551 C 147.821 -6.1618 1.43193 0
M  V30 1552 C 146.485 -6.45179 1.71173 0
M  V30 1553 H 145.755 -0.710762 -0.209521 0
M  V30 1554 H 148.402 -1.9077 0.167036 0
M  V30 1555 H 146.707 -3.37718 -1.9863 0
M  V30 1556 H 148.404 -3.63543 -1.69227 0
M  V30 1557 H 144.994 -4.26681 -0.405124 0
M  V30 1558 H 149.178 -4.95427 0.294312 0
M  V30 1559 H 144.434 -5.98179 1.26457 0
M  V30 1560 H 148.608 -6.68243 1.96023 0
M  V30 1561 H 146.235 -7.1959 2.4514 0
M  V30 1562 N 147.81 0.181792 -1.56548 0
M  V30 1563 C 148.74 1.22765 -1.98623 0
M  V30 1564 C 149.721 1.46747 -0.860189 0
M  V30 1565 O 150.906 1.58259 -1.12551 0
M  V30 1566 C 148.036 2.56894 -2.33715 0
M  V30 1567 C 146.99 2.475 -3.49182 0
M  V30 1568 C 146.316 3.86023 -3.69986 0
M  V30 1569 C 147.616 1.98866 -4.82959 0
M  V30 1570 H 149.31 0.877942 -2.86239 0
M  V30 1571 H 146.856 0.42088 -1.37712 0
M  V30 1572 H 148.809 3.30253 -2.61746 0
M  V30 1573 H 147.533 2.93632 -1.42997 0
M  V30 1574 H 146.192 1.76596 -3.21262 0
M  V30 1575 H 145.84 4.20136 -2.76576 0
M  V30 1576 H 145.54 3.80609 -4.47672 0
M  V30 1577 H 147.064 4.60984 -4.00407 0
M  V30 1578 H 148.478 2.61992 -5.09934 0
M  V30 1579 H 146.875 2.04424 -5.64208 0
M  V30 1580 H 147.945 0.942465 -4.75653 0
M  V30 1581 N 149.288 1.51039 0.449983 0
M  V30 1582 C 150.235 1.71439 1.54523 0
M  V30 1583 C 151.205 0.555871 1.56522 0
M  V30 1584 O 152.39 0.788871 1.73728 0
M  V30 1585 C 149.53 1.83384 2.92343 0
M  V30 1586 C 148.643 3.10873 2.9997 0
M  V30 1587 C 147.778 3.13488 4.28834 0
M  V30 1588 C 146.817 4.35343 4.30282 0
M  V30 1589 N 145.954 4.35579 5.5065 0
M  V30 1590 H 150.794 2.64934 1.36433 0
M  V30 1591 H 148.331 1.31312 0.662982 0
M  V30 1592 H 150.289 1.88291 3.72293 0
M  V30 1593 H 148.919 0.933086 3.0902 0
M  V30 1594 H 147.971 3.15336 2.12761 0
M  V30 1595 H 149.283 4.00814 2.96901 0
M  V30 1596 H 148.437 3.17241 5.17149 0
M  V30 1597 H 147.176 2.21414 4.34543 0
M  V30 1598 H 146.181 4.3178 3.40362 0
M  V30 1599 H 147.406 5.28668 4.26248 0
M  V30 1600 H 145.352 3.46369 5.57104 0
M  V30 1601 H 145.269 5.19313 5.49409 0
M  V30 1602 H 146.537 4.43507 6.41032 0
M  V30 1603 N 150.766 -0.704594 1.40972 0
M  V30 1604 C 152.012 -1.46675 1.40051 0
M  V30 1605 C 152.345 -1.94199 0.00641102 0
M  V30 1606 O 151.62 -1.68916 -0.964235 0
M  V30 1607 C 151.903 -2.68505 2.39952 0
M  V30 1608 C 151.756 -2.26805 3.88432 0
M  V30 1609 C 153.075 -3.70686 2.37233 0
M  V30 1610 H 150.194 -0.532015 0.510028 0
M  V30 1611 H 152.836 -0.803255 1.72185 0
M  V30 1612 H 150.986 -3.25114 2.1268 0
M  V30 1613 H 152.658 -1.75592 4.26574 0
M  V30 1614 H 150.901 -1.58685 4.03734 0
M  V30 1615 H 151.572 -3.14181 4.53866 0
M  V30 1616 H 154.048 -3.23731 2.61415 0
M  V30 1617 H 152.924 -4.53553 3.09162 0
M  V30 1618 H 153.185 -4.19754 1.38777 0
M  V30 1619 N 152.244 -1.26651 -0.937939 0
M  V30 1620 C 153.493 -1.11775 -1.67897 0
M  V30 1621 C 153.806 0.33794 -1.92659 0
M  V30 1622 O 155.012 0.607434 -2.64618 0
M  V30 1623 C 153.468 -1.9523 -3.02346 0
M  V30 1624 C 153.076 -3.45393 -2.8532 0
M  V30 1625 C 154.82 -1.88972 -3.80118 0
M  V30 1626 C 152.727 -4.21083 -4.15263 0
M  V30 1627 H 151.657 -0.414696 -0.629717 0
M  V30 1628 H 154.308 -1.50988 -1.04283 0
M  V30 1629 H 152.69 -1.48853 -3.66959 0
M  V30 1630 H 153.864 -3.99561 -2.29537 0
M  V30 1631 H 152.179 -3.52921 -2.20988 0
M  V30 1632 H 154.776 -2.42805 -4.76392 0
M  V30 1633 H 155.119 -0.86113 -4.07296 0
M  V30 1634 H 155.652 -2.33189 -3.22285 0
M  V30 1635 H 152.391 -5.24425 -3.93267 0
M  V30 1636 H 151.911 -3.71695 -4.70747 0
M  V30 1637 H 153.59 -4.29706 -4.83696 0
M  V30 1638 N 153.722 1.14298 -1.08507 0
M  V30 1639 C 154.97 1.84993 -0.813763 0
M  V30 1640 C 155.291 1.83405 0.662393 0
M  V30 1641 O 154.561 1.28319 1.48024 0
M  V30 1642 H 153.141 0.684966 -0.298045 0
M  V30 1643 H 155.803 1.385 -1.37126 0
M  V30 1644 H 154.899 2.89788 -1.15884 0
M  V30 1645 N 155.201 0.870884 1.31352 0
M  V30 1646 C 156.148 0.325425 2.28494 0
M  V30 1647 C 157.118 -0.576615 1.5577 0
M  V30 1648 O 158.303 -0.508059 1.83911 0
M  V30 1649 C 155.443 -0.466283 3.41935 0
M  V30 1650 C 154.556 0.463378 4.29508 0
M  V30 1651 C 153.691 -0.342544 5.30094 0
M  V30 1652 C 152.73 0.583486 6.09313 0
M  V30 1653 N 151.867 -0.186244 7.01853 0
M  V30 1654 H 156.707 1.15901 2.74538 0
M  V30 1655 H 154.244 0.58294 1.35056 0
M  V30 1656 H 156.202 -0.941085 4.06447 0
M  V30 1657 H 154.832 -1.26456 2.97 0
M  V30 1658 H 153.884 1.05663 3.65431 0
M  V30 1659 H 155.196 1.1734 4.84802 0
M  V30 1660 H 154.35 -0.879816 6.00287 0
M  V30 1661 H 153.089 -1.08585 4.75458 0
M  V30 1662 H 152.094 1.13251 5.3801 0
M  V30 1663 H 153.319 1.32566 6.66035 0
M  V30 1664 H 151.265 -0.912348 6.49625 0
M  V30 1665 H 151.182 0.464422 7.54572 0
M  V30 1666 H 152.45 -0.704716 7.76308 0
M  V30 1667 N 156.679 -1.44442 0.630414 0
M  V30 1668 C 157.927 -2.01653 0.134351 0
M  V30 1669 C 158.248 -1.49836 -1.24796 0
M  V30 1670 O 157.518 -0.701684 -1.82902 0
M  V30 1671 H 156.098 -0.74554 0.0466769 0
M  V30 1672 H 158.76 -1.76952 0.816955 0
M  V30 1673 H 157.856 -3.11935 0.101498 0
M  V30 1674 N 158.157 -0.370918 -1.53173 0
M  V30 1675 C 159.382 0.220293 -2.06227 0
M  V30 1676 C 159.807 1.41243 -1.24225 0
M  V30 1677 O 159.165 1.79387 -0.262645 0
M  V30 1678 C 159.213 0.586663 -3.55796 0
M  V30 1679 O 158.317 1.68317 -3.76488 0
M  V30 1680 H 157.658 0.0308099 -0.663285 0
M  V30 1681 H 160.188 -0.533068 -1.97534 0
M  V30 1682 H 160.198 0.85617 -3.98916 0
M  V30 1683 H 158.873 -0.285013 -4.14922 0
M  V30 1684 H 157.45 1.40881 -3.45264 0
M  V30 1685 N 159.635 1.57281 -0.100228 0
M  V30 1686 C 160.882 1.94537 0.562268 0
M  V30 1687 C 161.21 0.982315 1.67871 0
M  V30 1688 O 160.465 0.00280936 1.957 0
M  V30 1689 C 160.764 3.38305 1.15259 0
M  V30 1690 C 160.43 4.50618 0.159409 0
M  V30 1691 C 159.092 4.81066 -0.113741 0
M  V30 1692 C 161.444 5.18615 -0.518461 0
M  V30 1693 C 158.772 5.76835 -1.07137 0
M  V30 1694 C 161.124 6.15412 -1.46459 0
M  V30 1695 C 159.788 6.44262 -1.74592 0
M  V30 1696 H 159.058 0.711863 0.205748 0
M  V30 1697 H 161.705 1.90679 -0.17715 0
M  V30 1698 H 160.01 3.38766 1.96836 0
M  V30 1699 H 161.707 3.64435 1.67297 0
M  V30 1700 H 158.297 4.2689 0.382491 0
M  V30 1701 H 162.481 4.95264 -0.320581 0
M  V30 1702 H 157.737 5.975 -1.29628 0
M  V30 1703 H 161.911 6.67194 -1.99564 0
M  V30 1704 H 159.538 7.1828 -2.48953 0
M  V30 1705 N 161.113 -0.173488 1.56642 0
M  V30 1706 C 162.361 -0.888706 1.81512 0
M  V30 1707 C 162.682 -1.82875 0.676872 0
M  V30 1708 O 161.952 -1.93536 -0.303414 0
M  V30 1709 H 160.532 -0.331164 0.669582 0
M  V30 1710 H 163.194 -0.173823 1.94123 0
M  V30 1711 H 162.29 -1.46691 2.75478 0
M  V30 1712 N 162.591 -1.51276 -0.441967 0
M  V30 1713 C 163.538 -1.72256 -1.53612 0
M  V30 1714 C 164.508 -0.564164 -1.56225 0
M  V30 1715 O 165.693 -0.798074 -1.73307 0
M  V30 1716 C 162.833 -1.84932 -2.91366 0
M  V30 1717 C 161.946 -3.12459 -2.98317 0
M  V30 1718 C 161.081 -3.15758 -4.27166 0
M  V30 1719 C 160.12 -4.37619 -4.27967 0
M  V30 1720 N 159.257 -4.38493 -5.48333 0
M  V30 1721 H 164.097 -2.65654 -1.35026 0
M  V30 1722 H 161.634 -1.31662 -0.656009 0
M  V30 1723 H 163.592 -1.90263 -3.7129 0
M  V30 1724 H 162.222 -0.949461 -3.08521 0
M  V30 1725 H 161.274 -3.1646 -2.11086 0
M  V30 1726 H 162.586 -4.02382 -2.94771 0
M  V30 1727 H 161.74 -3.19979 -5.15459 0
M  V30 1728 H 160.479 -2.23715 -4.33362 0
M  V30 1729 H 159.484 -4.33579 -3.38067 0
M  V30 1730 H 160.709 -5.30921 -4.23438 0
M  V30 1731 H 158.655 -3.49318 -5.55259 0
M  V30 1732 H 158.572 -5.22219 -5.46647 0
M  V30 1733 H 159.84 -4.469 -6.38671 0
M  V30 1734 N 164.069 0.697108 -1.41344 0
M  V30 1735 C 165.315 1.4593 -1.40827 0
M  V30 1736 C 165.648 1.94193 -0.0167098 0
M  V30 1737 O 164.923 1.69425 0.955263 0
M  V30 1738 C 165.206 2.67229 -2.41373 0
M  V30 1739 C 165.059 2.24741 -3.8963 0
M  V30 1740 C 166.378 3.69423 -2.39196 0
M  V30 1741 H 163.497 0.529303 -0.512842 0
M  V30 1742 H 166.139 0.794112 -1.72609 0
M  V30 1743 H 164.289 3.23982 -2.14401 0
M  V30 1744 H 165.961 1.73327 -4.27499 0
M  V30 1745 H 164.204 1.56542 -4.0457 0
M  V30 1746 H 164.875 3.1177 -4.55525 0
M  V30 1747 H 167.351 3.2234 -2.63128 0
M  V30 1748 H 166.227 4.51907 -3.11563 0
M  V30 1749 H 166.488 4.19012 -1.41001 0
M  V30 1750 N 165.547 1.27147 0.931209 0
M  V30 1751 C 166.477 1.12081 2.04842 0
M  V30 1752 C 167.458 0.0232364 1.70084 0
M  V30 1753 O 168.643 0.197085 1.93197 0
M  V30 1754 C 165.773 0.76354 3.38803 0
M  V30 1755 C 164.727 1.81396 3.87659 0
M  V30 1756 C 164.053 1.31075 5.18385 0
M  V30 1757 C 165.353 3.21739 4.11438 0
M  V30 1758 H 167.047 2.05537 2.17703 0
M  V30 1759 H 164.593 0.989603 1.04608 0
M  V30 1760 H 166.546 0.644982 4.16435 0
M  V30 1761 H 165.27 -0.206727 3.25945 0
M  V30 1762 H 163.929 1.92136 3.12217 0
M  V30 1763 H 163.577 0.330037 5.01916 0
M  V30 1764 H 163.277 2.013 5.52044 0
M  V30 1765 H 164.801 1.20506 5.98591 0
M  V30 1766 H 166.215 3.14019 4.79651 0
M  V30 1767 H 164.612 3.89644 4.56397 0
M  V30 1768 H 165.682 3.67054 3.16859 0
M  V30 1769 N 167.025 -1.13721 1.09112 0
M  V30 1770 C 167.955 -2.21148 0.749385 0
M  V30 1771 C 168.936 -1.6792 -0.271475 0
M  V30 1772 O 170.121 -1.93693 -0.140251 0
M  V30 1773 C 167.251 -3.46905 0.165659 0
M  V30 1774 C 166.205 -4.13203 1.11567 0
M  V30 1775 C 165.531 -5.33248 0.393809 0
M  V30 1776 C 166.831 -4.60912 2.45678 0
M  V30 1777 H 168.525 -2.4999 1.64758 0
M  V30 1778 H 166.071 -1.20156 0.793626 0
M  V30 1779 H 168.024 -4.21313 -0.085466 0
M  V30 1780 H 166.748 -3.17449 -0.767714 0
M  V30 1781 H 165.407 -3.40758 1.35202 0
M  V30 1782 H 165.055 -5.00054 -0.543599 0
M  V30 1783 H 164.755 -5.78552 1.02721 0
M  V30 1784 H 166.279 -6.10413 0.150908 0
M  V30 1785 H 167.693 -5.26759 2.26269 0
M  V30 1786 H 166.09 -5.16944 3.04776 0
M  V30 1787 H 167.16 -3.75603 3.06677 0
M  V30 1788 N 168.503 -0.877838 -1.30888 0
M  V30 1789 C 169.466 -0.344265 -2.266 0
M  V30 1790 C 170.466 0.50922 -1.52524 0
M  V30 1791 O 171.656 0.317398 -1.71284 0
M  V30 1792 C 168.788 0.510198 -3.37061 0
M  V30 1793 H 169.981 -1.1893 -2.7531 0
M  V30 1794 H 167.534 -0.654088 -1.41956 0
M  V30 1795 H 168.269 1.37612 -2.93655 0
M  V30 1796 H 168.054 -0.101047 -3.9197 0
M  V30 1797 H 169.544 0.875537 -4.08319 0
M  V30 1798 N 169.982 1.44106 -0.638065 0
M  V30 1799 C 171.398 1.56672 -0.304286 0
M  V30 1800 C 171.598 1.6244 1.19228 0
M  V30 1801 O 170.654 1.57121 1.9766 0
M  V30 1802 C 171.967 2.83503 -1.00231 0
M  V30 1803 C 173.515 2.97226 -0.981116 0
M  V30 1804 C 173.99 4.26868 -1.65974 0
M  V30 1805 N 175.481 4.33698 -1.62666 0
M  V30 1806 C 176.216 5.32745 -2.12063 0
M  V30 1807 N 175.712 6.38157 -2.6968 0
M  V30 1808 N 177.505 5.24299 -2.02651 0
M  V30 1809 H 169.656 1.38605 -1.60942 0
M  V30 1810 H 171.919 0.664661 -0.675965 0
M  V30 1811 H 171.625 2.85251 -2.0573 0
M  V30 1812 H 171.499 3.73251 -0.54439 0
M  V30 1813 H 173.886 2.95027 0.0654188 0
M  V30 1814 H 173.967 2.08808 -1.47759 0
M  V30 1815 H 173.611 4.29826 -2.70576 0
M  V30 1816 H 173.541 5.14156 -1.13804 0
M  V30 1817 H 176.032 3.58138 -1.20606 0
M  V30 1818 H 176.345 7.10029 -3.05087 0
M  V30 1819 H 174.69 6.38823 -2.73734 0
M  V30 1820 H 177.881 4.4086 -1.57353 0
M  V30 1821 H 178.054 6.01334 -2.41457 0
M  V30 1822 N 171.46 0.379036 1.52974 0
M  V30 1823 C 172.41 -0.477772 2.22938 0
M  V30 1824 C 173.394 -1.03792 1.22948 0
M  V30 1825 O 174.586 -0.965725 1.48333 0
M  V30 1826 C 171.715 -1.60994 3.03209 0
M  V30 1827 C 170.801 -1.06203 4.10587 0
M  V30 1828 N 171.192 -0.238214 5.05239 0
M  V30 1829 C 169.49 -1.33554 4.25534 0
M  V30 1830 C 170.191 0.0633235 5.81666 0
M  V30 1831 N 169.167 -0.537901 5.40932 0
M  V30 1832 H 172.969 0.158295 2.93473 0
M  V30 1833 H 170.483 0.187778 1.61311 0
M  V30 1834 H 172.48 -2.23607 3.5186 0
M  V30 1835 H 171.14 -2.24893 2.34207 0
M  V30 1836 H 172.151 0.123695 5.17752 0
M  V30 1837 H 168.828 -1.97632 3.6776 0
M  V30 1838 H 170.218 0.730161 6.67921 0
M  V30 1839 N 172.938 -1.57226 0.108567 0
M  V30 1840 C 173.885 -2.14756 -0.845481 0
M  V30 1841 C 174.855 -1.06971 -1.27068 0
M  V30 1842 O 176.04 -1.34827 -1.35005 0
M  V30 1843 C 173.18 -2.74298 -2.09415 0
M  V30 1844 C 172.293 -3.96358 -1.71826 0
M  V30 1845 C 171.428 -4.44021 -2.9158 0
M  V30 1846 C 170.467 -5.58637 -2.50181 0
M  V30 1847 N 169.604 -6.01091 -3.62814 0
M  V30 1848 H 174.444 -2.95961 -0.348035 0
M  V30 1849 H 171.981 -1.46226 -0.160106 0
M  V30 1850 H 173.939 -3.06945 -2.82561 0
M  V30 1851 H 172.569 -1.95801 -2.56636 0
M  V30 1852 H 171.621 -3.69939 -0.885947 0
M  V30 1853 H 172.933 -4.79504 -1.37394 0
M  V30 1854 H 172.087 -4.78522 -3.72963 0
M  V30 1855 H 170.826 -3.59803 -3.29231 0
M  V30 1856 H 169.831 -5.23751 -1.67228 0
M  V30 1857 H 171.056 -6.44613 -2.13659 0
M  V30 1858 H 169.002 -5.19817 -4.00158 0
M  V30 1859 H 168.919 -6.79066 -3.32273 0
M  V30 1860 H 170.187 -6.40227 -4.44668 0
M  V30 1861 N 174.416 0.165178 -1.56732 0
M  V30 1862 C 175.379 1.18822 -1.95995 0
M  V30 1863 C 176.379 1.3685 -0.84431 0
M  V30 1864 O 177.569 1.34152 -1.11126 0
M  V30 1865 C 174.701 2.5521 -2.26011 0
M  V30 1866 H 175.894 0.851825 -2.87548 0
M  V30 1867 H 173.447 0.407857 -1.50885 0
M  V30 1868 H 174.182 2.93852 -1.37191 0
M  V30 1869 H 173.967 2.43489 -3.07336 0
M  V30 1870 H 175.457 3.28927 -2.57288 0
M  V30 1871 N 175.894 1.51508 0.433938 0
M  V30 1872 C 176.804 1.75917 1.5521 0
M  V30 1873 C 177.82 0.643545 1.61662 0
M  V30 1874 O 178.996 0.926183 1.7884 0
M  V30 1875 C 176.061 1.88213 2.91164 0
M  V30 1876 C 175.122 3.12074 2.94802 0
M  V30 1877 C 174.355 3.23774 4.24271 0
M  V30 1878 O 174.578 2.4133 5.16833 0
M  V30 1879 O 173.512 4.16774 4.34262 0
M  V30 1880 H 177.338 2.70777 1.37527 0
M  V30 1881 H 174.923 1.36051 0.617293 0
M  V30 1882 H 176.805 1.98267 3.71845 0
M  V30 1883 H 175.48 0.965413 3.08968 0
M  V30 1884 H 174.387 3.07497 2.13065 0
M  V30 1885 H 175.72 4.03446 2.81943 0
M  V30 1886 N 177.372 -0.689602 1.41712 0
M  V30 1887 C 178.282 -1.83314 1.46401 0
M  V30 1888 C 179.298 -1.7036 0.35405 0
M  V30 1889 O 180.474 -1.92171 0.602692 0
M  V30 1890 C 177.539 -3.19344 1.34982 0
M  V30 1891 C 176.6 -3.44363 2.56344 0
M  V30 1892 C 175.833 -4.73904 2.45461 0
M  V30 1893 O 176.056 -5.508 1.48241 0
M  V30 1894 O 174.99 -4.99839 3.35328 0
M  V30 1895 H 178.816 -1.82314 2.42889 0
M  V30 1896 H 176.401 -0.843438 1.23315 0
M  V30 1897 H 178.283 -4.00547 1.3092 0
M  V30 1898 H 176.958 -3.21014 0.41612 0
M  V30 1899 H 175.865 -2.63067 2.65982 0
M  V30 1900 H 177.198 -3.47512 3.48563 0
M  V30 1901 N 178.85 -1.27639 -0.924453 0
M  V30 1902 C 180.096 -1.14336 -1.67497 0
M  V30 1903 C 180.429 0.309465 -1.91718 0
M  V30 1904 O 179.704 1.22608 -1.50989 0
M  V30 1905 C 179.987 -1.93096 -3.0395 0
M  V30 1906 C 179.84 -3.46381 -2.8695 0
M  V30 1907 C 181.159 -1.73798 -4.0433 0
M  V30 1908 H 178.278 -0.416728 -0.607871 0
M  V30 1909 H 180.92 -1.56832 -1.07256 0
M  V30 1910 H 179.07 -1.56982 -3.55372 0
M  V30 1911 H 180.742 -3.92343 -2.42621 0
M  V30 1912 H 178.985 -3.72557 -2.22225 0
M  V30 1913 H 179.656 -3.96735 -3.83804 0
M  V30 1914 H 182.132 -2.05293 -3.61931 0
M  V30 1915 H 181.008 -2.31294 -4.97789 0
M  V30 1916 H 181.269 -0.686725 -4.36734 0
M  V30 1917 N 180.328 1.1314 -1.09713 0
M  V30 1918 C 181.575 1.84484 -0.834987 0
M  V30 1919 C 181.903 1.83689 0.639418 0
M  V30 1920 O 181.158 1.2724 1.4869 0
M  V30 1921 C 181.457 3.32167 -1.3191 0
M  V30 1922 C 181.123 3.53139 -2.80363 0
M  V30 1923 C 179.785 3.58571 -3.20905 0
M  V30 1924 C 182.137 3.60866 -3.76065 0
M  V30 1925 C 179.465 3.69267 -4.55916 0
M  V30 1926 C 181.817 3.73089 -5.10869 0
M  V30 1927 C 180.481 3.76775 -5.50996 0
M  V30 1928 H 179.751 0.675073 -0.305544 0
M  V30 1929 H 182.398 1.33554 -1.37243 0
M  V30 1930 H 180.703 3.85469 -0.701517 0
M  V30 1931 H 182.4 3.85821 -1.09284 0
M  V30 1932 H 178.99 3.49569 -2.47991 0
M  V30 1933 H 183.174 3.55946 -3.45855 0
M  V30 1934 H 178.43 3.70388 -4.86438 0
M  V30 1935 H 182.604 3.78011 -5.84877 0
M  V30 1936 H 180.231 3.84815 -6.55608 0
M  V30 1937 N 181.806 0.884767 1.30421 0
M  V30 1938 C 183.036 0.517293 2.00019 0
M  V30 1939 C 183.444 -0.898632 1.66497 0
M  V30 1940 O 182.787 -1.60245 0.898181 0
M  V30 1941 C 182.849 0.612025 3.54252 0
M  V30 1942 C 182.513 1.99222 4.1129 0
M  V30 1943 C 183.51 2.9616 4.273 0
M  V30 1944 C 181.195 2.29755 4.46674 0
M  V30 1945 C 183.189 4.21764 4.77906 0
M  V30 1946 C 180.876 3.55606 4.96979 0
M  V30 1947 C 181.874 4.51425 5.12547 0
M  V30 1948 O 181.562 5.75043 5.61766 0
M  V30 1949 H 181.294 0.198529 0.64619 0
M  V30 1950 H 183.848 1.1919 1.67281 0
M  V30 1951 H 182.078 -0.119561 3.86515 0
M  V30 1952 H 183.767 0.255859 4.05093 0
M  V30 1953 H 184.533 2.73882 4.00267 0
M  V30 1954 H 180.412 1.55942 4.33824 0
M  V30 1955 H 183.956 4.96561 4.89972 0
M  V30 1956 H 179.853 3.7772 5.23448 0
M  V30 1957 H 180.621 5.77422 5.80109 0
M  V30 1958 N 183.284 -1.43765 0.645699 0
M  V30 1959 C 184.247 -2.29163 -0.0409488 0
M  V30 1960 C 185.247 -1.41813 -0.757996 0
M  V30 1961 O 186.437 -1.63527 -0.600382 0
M  V30 1962 C 183.569 -3.23716 -1.06869 0
M  V30 1963 H 184.762 -2.91366 0.710345 0
M  V30 1964 H 182.315 -1.5092 0.406547 0
M  V30 1965 H 183.05 -2.66393 -1.84947 0
M  V30 1966 H 182.835 -3.88105 -0.558277 0
M  V30 1967 H 184.325 -3.87831 -1.54845 0
M  V30 1968 N 184.763 -0.387143 -1.52771 0
M  V30 1969 C 186.009 0.196025 -2.0185 0
M  V30 1970 C 186.342 1.46641 -1.27319 0
M  V30 1971 O 185.617 1.90889 -0.373032 0
M  V30 1972 C 185.9 0.466136 -3.5707 0
M  V30 1973 C 185.753 -0.819385 -4.42274 0
M  V30 1974 C 187.072 1.25768 -4.21747 0
M  V30 1975 H 184.191 0.0697708 -0.73369 0
M  V30 1976 H 186.833 -0.516286 -1.82851 0
M  V30 1977 H 184.983 1.07293 -3.7339 0
M  V30 1978 H 186.655 -1.4563 -4.37709 0
M  V30 1979 H 184.898 -1.43517 -4.09372 0
M  V30 1980 H 185.569 -0.585065 -5.48891 0
M  V30 1981 H 188.045 0.744167 -4.09391 0
M  V30 1982 H 186.921 1.41541 -5.30337 0
M  V30 1983 H 187.182 2.27228 -3.79236 0
M  V30 1984 N 186.241 1.57166 -0.116904 0
M  V30 1985 C 187.188 2.15202 0.83408 0
M  V30 1986 C 188.158 1.07644 1.26499 0
M  V30 1987 O 189.343 1.35541 1.34288 0
M  V30 1988 C 186.483 2.75405 2.07957 0
M  V30 1989 C 185.596 3.97264 1.69721 0
M  V30 1990 C 184.731 4.45561 2.89221 0
M  V30 1991 C 183.77 5.59956 2.47215 0
M  V30 1992 N 182.907 6.03006 3.59622 0
M  V30 1993 H 187.747 2.96141 0.332335 0
M  V30 1994 H 185.284 1.46309 0.152349 0
M  V30 1995 H 187.242 3.08439 2.80929 0
M  V30 1996 H 185.872 1.97159 2.55594 0
M  V30 1997 H 184.924 3.70404 0.866316 0
M  V30 1998 H 186.236 4.80226 1.34849 0
M  V30 1999 H 185.39 4.80493 3.7042 0
M  V30 2000 H 184.129 3.61544 3.27318 0
M  V30 2001 H 183.134 5.2463 1.64448 0
M  V30 2002 H 184.359 6.45738 2.10238 0
M  V30 2003 H 182.305 5.21931 3.97396 0
M  V30 2004 H 182.222 6.80819 3.28667 0
M  V30 2005 H 183.49 6.42576 4.41267 0
M  V30 2006 N 187.719 -0.156864 1.56817 0
M  V30 2007 C 188.965 -0.872416 1.83076 0
M  V30 2008 C 189.298 -1.81261 0.697001 0
M  V30 2009 O 188.573 -1.92171 -0.30008 0
M  V30 2010 C 188.856 -1.65551 3.19789 0
M  V30 2011 C 188.709 -0.737467 4.43713 0
M  V30 2012 C 190.028 -2.62012 3.53606 0
M  V30 2013 H 187.147 -0.315715 0.665953 0
M  V30 2014 H 189.789 -0.138004 1.89498 0
M  V30 2015 H 187.939 -2.28159 3.14445 0
M  V30 2016 H 189.611 -0.123143 4.61136 0
M  V30 2017 H 187.854 -0.0464067 4.33775 0
M  V30 2018 H 188.525 -1.32122 5.35955 0
M  V30 2019 H 191.001 -2.09525 3.59497 0
M  V30 2020 H 189.877 -3.13861 4.50314 0
M  V30 2021 H 190.138 -3.42902 2.79053 0
M  V30 2022 N 189.197 -1.51736 -0.425897 0
M  V30 2023 C 190.127 -1.76827 -1.52494 0
M  V30 2024 C 191.108 -0.618524 -1.58456 0
M  V30 2025 O 192.293 -0.862416 -1.74 0
M  V30 2026 C 189.423 -1.90374 -2.90474 0
M  V30 2027 C 188.377 -3.0588 -2.99369 0
M  V30 2028 C 187.703 -3.04625 -4.3944 0
M  V30 2029 C 189.003 -4.45644 -2.72394 0
M  V30 2030 H 190.697 -2.68855 -1.31748 0
M  V30 2031 H 188.243 -1.29372 -0.632362 0
M  V30 2032 H 190.196 -2.0651 -3.6733 0
M  V30 2033 H 188.92 -0.95004 -3.12477 0
M  V30 2034 H 187.579 -2.89467 -2.24954 0
M  V30 2035 H 187.227 -2.0701 -4.58428 0
M  V30 2036 H 186.927 -3.82195 -4.46319 0
M  V30 2037 H 188.451 -3.22869 -5.18255 0
M  V30 2038 H 189.865 -4.62348 -3.38979 0
M  V30 2039 H 188.262 -5.25006 -2.9067 0
M  V30 2040 H 189.332 -4.54893 -1.67929 0
M  V30 2041 N 190.675 0.682077 -1.42076 0
M  V30 2042 C 191.607 1.80755 -1.40926 0
M  V30 2043 C 192.62 1.59833 -0.309398 0
M  V30 2044 O 193.809 1.69087 -0.572014 0
M  V30 2045 C 190.909 3.17744 -1.17865 0
M  V30 2046 C 190.082 3.65578 -2.40149 0
M  V30 2047 C 189.141 4.81277 -2.12742 0
M  V30 2048 O 188.167 4.92197 -2.85887 0
M  V30 2049 N 189.369 5.69474 -1.12602 0
M  V30 2050 H 192.134 1.82229 -2.37935 0
M  V30 2051 H 189.695 0.864903 -1.36861 0
M  V30 2052 H 191.687 3.9279 -0.9746 0
M  V30 2053 H 190.257 3.11214 -0.294068 0
M  V30 2054 H 189.477 2.81291 -2.76169 0
M  V30 2055 H 190.765 3.94278 -3.21593 0
M  V30 2056 H 190.163 5.63297 -0.520899 0
M  V30 2057 H 188.72 6.44363 -0.981842 0
M  V30 2058 N 192.153 1.28127 0.917671 0
M  V30 2059 C 193.1 1.11717 2.0196 0
M  V30 2060 C 194.07 0.0153929 1.66093 0
M  V30 2061 O 195.255 0.179596 1.89953 0
M  V30 2062 C 192.395 0.780927 3.36148 0
M  V30 2063 C 191.508 1.96135 3.84909 0
M  V30 2064 C 190.643 1.56609 5.0759 0
M  V30 2065 C 189.682 2.71339 5.48673 0
M  V30 2066 N 188.819 2.32332 6.62545 0
M  V30 2067 H 193.659 2.06003 2.15329 0
M  V30 2068 H 191.196 1.02535 1.05475 0
M  V30 2069 H 193.154 0.56675 4.13333 0
M  V30 2070 H 191.784 -0.124998 3.22558 0
M  V30 2071 H 190.836 2.28777 3.03916 0
M  V30 2072 H 192.148 2.82165 4.1132 0
M  V30 2073 H 191.302 1.31374 5.92305 0
M  V30 2074 H 190.041 0.677014 4.82978 0
M  V30 2075 H 189.046 2.97276 4.62501 0
M  V30 2076 H 190.271 3.60882 5.75274 0
M  V30 2077 H 188.217 1.45889 6.39572 0
M  V30 2078 H 188.134 3.11899 6.88662 0
M  V30 2079 H 189.402 2.10371 7.50576 0
M  V30 2080 N 193.631 -1.12557 1.10312 0
M  V30 2081 C 194.578 -2.18247 0.750781 0
M  V30 2082 C 195.548 -1.63853 -0.272293 0
M  V30 2083 O 196.733 -1.90195 -0.151862 0
M  V30 2084 C 193.873 -3.44591 0.187379 0
M  V30 2085 C 192.986 -4.13046 1.2656 0
M  V30 2086 C 192.121 -5.27034 0.663978 0
M  V30 2087 C 191.16 -5.87353 1.72287 0
M  V30 2088 N 190.297 -6.92757 1.1416 0
M  V30 2089 H 195.137 -2.47732 1.65628 0
M  V30 2090 H 192.674 -1.21629 0.827337 0
M  V30 2091 H 194.632 -4.16904 -0.157148 0
M  V30 2092 H 193.262 -3.15527 -0.681355 0
M  V30 2093 H 192.314 -3.38924 1.72727 0
M  V30 2094 H 193.626 -4.53947 2.06721 0
M  V30 2095 H 192.78 -6.06104 0.268824 0
M  V30 2096 H 191.519 -4.87407 -0.169082 0
M  V30 2097 H 190.524 -5.06971 2.12746 0
M  V30 2098 H 191.749 -6.29051 2.55875 0
M  V30 2099 H 189.695 -6.5517 0.329984 0
M  V30 2100 H 189.612 -7.3225 1.88007 0
M  V30 2101 H 190.88 -7.75658 0.772956 0
M  V30 2102 N 195.109 -0.891671 -1.2995 0
M  V30 2103 C 196.072 -0.36828 -2.26222 0
M  V30 2104 C 197.072 0.493014 -1.53056 0
M  V30 2105 O 198.262 0.299213 -1.71611 0
M  V30 2106 C 195.394 0.47442 -3.37583 0
M  V30 2107 H 196.587 -1.21844 -2.74033 0
M  V30 2108 H 194.14 -0.669107 -1.41254 0
M  V30 2109 H 194.875 1.34489 -2.95099 0
M  V30 2110 H 194.66 -0.142615 -3.91841 0
M  V30 2111 H 196.15 0.83218 -4.09224 0
M  V30 2112 N 196.587 1.43421 -0.653314 0
M  V30 2113 C 197.836 2.01032 -0.164076 0
M  V30 2114 C 198.149 1.52147 1.22926 0
M  V30 2115 O 199.355 2.02031 1.81371 0
M  V30 2116 C 197.811 3.59082 -0.24252 0
M  V30 2117 C 197.419 4.1696 -1.63855 0
M  V30 2118 C 199.163 4.24079 0.18911 0
M  V30 2119 C 197.07 5.67304 -1.67092 0
M  V30 2120 H 196 0.751798 -0.0575769 0
M  V30 2121 H 198.651 1.6439 -0.815362 0
M  V30 2122 H 197.033 3.93125 0.476276 0
M  V30 2123 H 198.207 3.94416 -2.38271 0
M  V30 2124 H 196.522 3.64335 -2.01616 0
M  V30 2125 H 199.119 5.34381 0.184775 0
M  V30 2126 H 199.462 3.98005 1.22056 0
M  V30 2127 H 199.995 3.94918 -0.477938 0
M  V30 2128 H 196.734 5.98145 -2.68146 0
M  V30 2129 H 196.254 5.91904 -0.970014 0
M  V30 2130 H 197.933 6.31344 -1.4147 0
M  V30 2131 N 198.065 0.39524 1.52563 0
M  V30 2132 C 198.995 -0.428384 2.29537 0
M  V30 2133 C 199.976 -1.05831 1.33169 0
M  V30 2134 O 201.161 -1.06995 1.62067 0
M  V30 2135 C 198.291 -1.55274 3.10656 0
M  V30 2136 C 197.245 -1.04855 4.14957 0
M  V30 2137 C 196.571 -2.26543 4.84337 0
M  V30 2138 C 197.871 -0.112324 5.22179 0
M  V30 2139 H 199.565 0.213867 2.98635 0
M  V30 2140 H 197.111 0.104298 1.43622 0
M  V30 2141 H 199.064 -2.1358 3.63265 0
M  V30 2142 H 197.788 -2.22266 2.39302 0
M  V30 2143 H 196.447 -0.487985 3.63338 0
M  V30 2144 H 196.095 -2.92059 4.09525 0
M  V30 2145 H 195.795 -1.93466 5.54837 0
M  V30 2146 H 197.319 -2.85481 5.39753 0
M  V30 2147 H 198.733 -0.603752 5.70112 0
M  V30 2148 H 197.13 0.128968 5.99961 0
M  V30 2149 H 198.2 0.837052 4.77621 0
M  V30 2150 N 199.544 -1.57102 0.125237 0
M  V30 2151 C 200.491 -2.15641 -0.822655 0
M  V30 2152 C 201.461 -1.08313 -1.25927 0
M  V30 2153 O 202.646 -1.36251 -1.33567 0
M  V30 2154 C 199.786 -2.76504 -2.06494 0
M  V30 2155 C 198.899 -3.98158 -1.67612 0
M  V30 2156 C 198.034 -4.47088 -2.86854 0
M  V30 2157 C 197.073 -5.6126 -2.44242 0
M  V30 2158 N 196.21 -6.04905 -3.56419 0
M  V30 2159 H 201.05 -2.96313 -0.316625 0
M  V30 2160 H 198.587 -1.46388 -0.144588 0
M  V30 2161 H 200.545 -3.09925 -2.79289 0
M  V30 2162 H 199.175 -1.98512 -2.54545 0
M  V30 2163 H 198.227 -3.70858 -0.846661 0
M  V30 2164 H 199.539 -4.80934 -1.32301 0
M  V30 2165 H 198.693 -4.82451 -3.67867 0
M  V30 2166 H 197.432 -3.63275 -3.25396 0
M  V30 2167 H 196.437 -5.25495 -1.61663 0
M  V30 2168 H 197.662 -6.46843 -2.0681 0
M  V30 2169 H 195.608 -5.24032 -3.94623 0
M  V30 2170 H 195.525 -6.82552 -3.25051 0
M  V30 2171 H 196.793 -6.44907 -4.37853 0
M  V30 2172 N 201.022 0.148545 -1.56898 0
M  V30 2173 C 201.969 1.18345 -1.98149 0
M  V30 2174 C 202.939 1.42772 -0.848848 0
M  V30 2175 O 204.124 1.55132 -1.11079 0
M  V30 2176 C 201.264 2.51231 -2.36594 0
M  V30 2177 C 200.377 2.33991 -3.63142 0
M  V30 2178 C 199.512 3.59902 -3.90697 0
M  V30 2179 C 198.551 3.37692 -5.1052 0
M  V30 2180 N 197.688 4.5573 -5.34092 0
M  V30 2181 H 202.528 0.82467 -2.86362 0
M  V30 2182 H 200.065 0.395756 -1.41676 0
M  V30 2183 H 202.023 3.28713 -2.56912 0
M  V30 2184 H 200.653 2.85059 -1.51463 0
M  V30 2185 H 199.705 1.47572 -3.50609 0
M  V30 2186 H 201.017 2.13539 -4.5078 0
M  V30 2187 H 200.171 4.45813 -4.11505 0
M  V30 2188 H 198.91 3.83357 -3.01477 0
M  V30 2189 H 197.915 2.5017 -4.89587 0
M  V30 2190 H 199.14 3.15637 -6.0129 0
M  V30 2191 H 197.086 4.79361 -4.47827 0
M  V30 2192 H 197.003 4.38274 -6.15996 0
M  V30 2193 H 198.271 5.42858 -5.59397 0
M  V30 2194 N 202.5 1.5196 0.417844 0
M  V30 2195 C 203.447 1.74678 1.50852 0
M  V30 2196 C 204.417 0.588947 1.55308 0
M  V30 2197 O 205.602 0.825544 1.72016 0
M  V30 2198 C 202.742 1.89544 2.88387 0
M  V30 2199 C 201.855 3.17166 2.93309 0
M  V30 2200 C 200.99 3.22513 4.22088 0
M  V30 2201 C 200.029 4.44372 4.20951 0
M  V30 2202 N 199.166 4.47161 5.41287 0
M  V30 2203 H 204.006 2.67768 1.30783 0
M  V30 2204 H 201.543 1.32689 0.63498 0
M  V30 2205 H 203.501 1.96146 3.68216 0
M  V30 2206 H 202.131 0.998424 3.06971 0
M  V30 2207 H 201.183 3.19778 2.06024 0
M  V30 2208 H 202.495 4.07021 2.88332 0
M  V30 2209 H 201.649 3.28139 5.10303 0
M  V30 2210 H 200.388 2.30581 4.29748 0
M  V30 2211 H 199.393 4.38902 3.31127 0
M  V30 2212 H 200.618 5.3759 4.14938 0
M  V30 2213 H 198.564 3.58108 5.49632 0
M  V30 2214 H 198.481 5.3085 5.3827 0
M  V30 2215 H 199.749 4.57005 6.3148 0
M  V30 2216 N 203.978 -0.674533 1.42435 0
M  V30 2217 C 204.888 -1.81751 1.48337 0
M  V30 2218 C 205.904 -1.69975 0.372099 0
M  V30 2219 O 207.08 -1.91521 0.62304 0
M  V30 2220 C 204.145 -3.17895 1.38361 0
M  V30 2221 C 203.206 -3.41625 2.59982 0
M  V30 2222 C 202.439 -4.71274 2.50473 0
M  V30 2223 O 202.662 -5.49197 1.54075 0
M  V30 2224 O 201.596 -4.96254 3.4061 0
M  V30 2225 H 205.422 -1.79728 2.44809 0
M  V30 2226 H 203.007 -0.830312 1.24202 0
M  V30 2227 H 204.889 -3.99136 1.35161 0
M  V30 2228 H 203.564 -3.20555 0.450144 0
M  V30 2229 H 202.471 -2.60231 2.68757 0
M  V30 2230 H 203.804 -3.43796 3.52229 0
M  V30 2231 N 205.456 -1.28612 -0.910864 0
M  V30 2232 C 206.366 -1.14643 -2.0468 0
M  V30 2233 C 207.382 -0.0723121 -1.7385 0
M  V30 2234 O 208.558 -0.282178 -1.99413 0
M  V30 2235 C 205.623 -0.812561 -3.37044 0
M  V30 2236 C 204.684 -1.96935 -3.81465 0
M  V30 2237 C 203.917 -1.65131 -5.07511 0
M  V30 2238 O 204.14 -0.567013 -5.67575 0
M  V30 2239 O 203.074 -2.49585 -5.47714 0
M  V30 2240 H 206.9 -2.1001 -2.19384 0
M  V30 2241 H 204.485 -1.07958 -1.03274 0
M  V30 2242 H 206.367 -0.640441 -4.16505 0
M  V30 2243 H 205.042 0.111426 -3.23508 0
M  V30 2244 H 203.949 -2.19664 -3.02818 0
M  V30 2245 H 205.282 -2.87414 -3.99567 0
M  V30 2246 N 206.934 1.1197 -1.10907 0
M  V30 2247 C 207.881 2.17846 -0.762345 0
M  V30 2248 C 208.851 1.63995 0.263599 0
M  V30 2249 O 210.036 1.90273 0.141773 0
M  V30 2250 C 207.176 3.44487 -0.205651 0
M  V30 2251 C 206.289 4.12369 -1.28748 0
M  V30 2252 C 205.424 5.26674 -0.691919 0
M  V30 2253 C 204.463 5.86431 -1.75399 0
M  V30 2254 N 203.6 6.92142 -1.17833 0
M  V30 2255 H 208.44 2.46851 -1.6694 0
M  V30 2256 H 205.977 1.21188 -0.833776 0
M  V30 2257 H 207.935 4.16981 0.135037 0
M  V30 2258 H 206.565 3.15884 0.664613 0
M  V30 2259 H 205.617 3.38003 -1.74522 0
M  V30 2260 H 206.929 4.52844 -2.09125 0
M  V30 2261 H 206.083 6.05953 -0.300963 0
M  V30 2262 H 204.822 4.8749 0.143232 0
M  V30 2263 H 203.827 5.05835 -2.15432 0
M  V30 2264 H 205.052 6.27685 -2.59208 0
M  V30 2265 H 202.998 6.54985 -0.364725 0
M  V30 2266 H 202.915 7.31242 -1.91887 0
M  V30 2267 H 204.183 7.75237 -0.81408 0
M  V30 2268 N 208.412 0.89855 1.29475 0
M  V30 2269 C 209.362 0.346767 2.25348 0
M  V30 2270 C 210.346 -0.532509 1.51833 0
M  V30 2271 O 211.538 -0.374714 1.72988 0
M  V30 2272 C 208.667 -0.425681 3.40651 0
M  V30 2273 C 207.753 0.46845 4.21505 0
M  V30 2274 N 208.144 1.57514 4.80648 0
M  V30 2275 C 206.442 0.26603 4.45206 0
M  V30 2276 C 207.143 2.12889 5.41344 0
M  V30 2277 N 206.119 1.42208 5.24669 0
M  V30 2278 H 209.921 1.19219 2.68634 0
M  V30 2279 H 207.435 0.749473 1.44072 0
M  V30 2280 H 209.432 -0.837716 4.08397 0
M  V30 2281 H 208.092 -1.26838 2.98902 0
M  V30 2282 H 209.103 1.95789 4.79465 0
M  V30 2283 H 205.78 -0.538394 4.14014 0
M  V30 2284 H 207.17 3.05901 5.98226 0
M  V30 2285 N 209.89 -1.43072 0.660911 0
M  V30 2286 C 211.139 -2.00942 0.174735 0
M  V30 2287 C 211.452 -1.52797 -1.22117 0
M  V30 2288 O 212.658 -2.02991 -1.80297 0
M  V30 2289 C 211.114 -3.58948 0.261559 0
M  V30 2290 C 210.722 -4.16085 1.66064 0
M  V30 2291 C 212.466 -4.24173 -0.166617 0
M  V30 2292 C 210.373 -5.6641 1.70098 0
M  V30 2293 H 209.303 -0.751483 0.0615631 0
M  V30 2294 H 211.954 -1.63955 0.824069 0
M  V30 2295 H 210.336 -3.93372 -0.455421 0
M  V30 2296 H 211.51 -3.93147 2.40359 0
M  V30 2297 H 209.825 -3.6326 2.03546 0
M  V30 2298 H 212.422 -5.34471 -0.156433 0
M  V30 2299 H 212.765 -3.98647 -1.19943 0
M  V30 2300 H 213.298 -3.94659 0.498875 0
M  V30 2301 H 210.037 -5.96715 2.71315 0
M  V30 2302 H 209.557 -5.91382 1.00139 0
M  V30 2303 H 211.236 -6.30585 1.44816 0
M  V30 2304 N 211.368 -0.403325 -1.52352 0
M  V30 2305 C 212.301 0.469463 -2.23319 0
M  V30 2306 C 213.279 1.05272 -1.23922 0
M  V30 2307 O 214.463 1.10169 -1.52954 0
M  V30 2308 C 211.59 1.6511 -2.9573 0
M  V30 2309 C 210.636 1.19178 -4.0951 0
M  V30 2310 S 211.469 0.161718 -5.35256 0
M  V30 2311 C 212.625 1.34882 -6.11194 0
M  V30 2312 H 212.858 -0.133134 -2.97002 0
M  V30 2313 H 210.391 -0.187588 -1.53256 0
M  V30 2314 H 212.349 2.3287 -3.38056 0
M  V30 2315 H 211.01 2.22503 -2.21701 0
M  V30 2316 H 210.203 2.07444 -4.59329 0
M  V30 2317 H 209.805 0.592911 -3.6927 0
M  V30 2318 H 212.097 2.27345 -6.38217 0
M  V30 2319 H 213.04 0.89128 -7.02468 0
M  V30 2320 H 213.448 1.57198 -5.42171 0
M  V30 2321 N 212.846 1.57033 -0.133567 0
M  V30 2322 C 214.071 2.00475 0.531477 0
M  V30 2323 C 214.496 1.01291 1.58499 0
M  V30 2324 O 213.854 -0.0133279 1.81295 0
M  V30 2325 C 213.902 3.42729 1.12113 0
M  V30 2326 O 213.006 3.46498 2.23636 0
M  V30 2327 H 212.347 0.650876 0.131362 0
M  V30 2328 H 214.877 2.03344 -0.22634 0
M  V30 2329 H 214.887 3.81246 1.4531 0
M  V30 2330 H 213.562 4.14428 0.349557 0
M  V30 2331 H 212.139 3.19811 1.91769 0
M  V30 2332 N 214.325 -0.140222 1.56975 0
M  V30 2333 C 215.235 -1.19223 2.02047 0
M  V30 2334 C 216.251 -1.46612 0.937062 0
M  V30 2335 O 217.427 -1.58148 1.24704 0
M  V30 2336 C 214.492 -2.50414 2.39778 0
M  V30 2337 C 213.553 -2.30612 3.621 0
M  V30 2338 C 212.786 -3.55547 3.98023 0
M  V30 2339 O 213.009 -4.62004 3.34528 0
M  V30 2340 O 211.943 -3.47808 4.91237 0
M  V30 2341 H 215.769 -0.839559 2.91865 0
M  V30 2342 H 213.354 -0.349453 1.45256 0
M  V30 2343 H 215.236 -3.27747 2.64877 0
M  V30 2344 H 213.911 -2.85198 1.53114 0
M  V30 2345 H 212.818 -1.51207 3.4218 0
M  V30 2346 H 214.151 -2.00741 4.49404 0
M  V30 2347 N 215.803 -1.52179 -0.40978 0
M  V30 2348 C 217.219 -1.40968 -0.74835 0
M  V30 2349 C 217.419 -0.513657 -1.94843 0
M  V30 2350 O 216.475 0.0208026 -2.52491 0
M  V30 2351 C 217.788 -2.83483 -1.0029 0
M  V30 2352 C 219.336 -2.92821 -1.10565 0
M  V30 2353 C 219.811 -4.36303 -1.39296 0
M  V30 2354 N 221.302 -4.39535 -1.46162 0
M  V30 2355 C 222.037 -5.47614 -1.70018 0
M  V30 2356 N 221.533 -6.65812 -1.91483 0
M  V30 2357 N 223.326 -5.35129 -1.72027 0
M  V30 2358 H 215.477 -2.0897 0.380186 0
M  V30 2359 H 217.74 -0.94185 0.107805 0
M  V30 2360 H 217.446 -3.51168 -0.193461 0
M  V30 2361 H 217.32 -3.24487 -1.92323 0
M  V30 2362 H 219.707 -2.25318 -1.90568 0
M  V30 2363 H 219.788 -2.55276 -0.16369 0
M  V30 2364 H 219.432 -5.04366 -0.598109 0
M  V30 2365 H 219.362 -4.71385 -2.34743 0
M  V30 2366 H 221.853 -3.54332 -1.31367 0
M  V30 2367 H 222.166 -7.43964 -2.09134 0
M  V30 2368 H 220.511 -6.68879 -1.88749 0
M  V30 2369 H 223.702 -4.41764 -1.54796 0
M  V30 2370 H 223.875 -6.19433 -1.9028 0
M  V30 2371 N 217.281 0.66697 -1.42791 0
M  V30 2372 C 218.229 1.80157 -1.47127 0
M  V30 2373 C 219.223 1.65825 -0.346199 0
M  V30 2374 O 220.429 1.72338 -0.519572 0
M  V30 2375 H 216.804 0.594158 -0.460956 0
M  V30 2376 H 218.775 1.73619 -2.42692 0
M  V30 2377 C 217.524 3.18351 -1.39813 0
M  V30 2378 H 216.847 3.3001 -2.25684 0
M  V30 2379 H 218.287 3.97736 -1.46908 0
M  V30 2380 C 216.746 3.36707 -0.11391 0
M  V30 2381 O 217.276 3.93027 0.830241 0
M  V30 2382 N 215.482 2.90586 -0.0285295 0
M  V30 2383 H 215.029 2.4494 -0.79764 0
M  V30 2384 H 214.987 3.03245 0.830063 0
M  V30 2385 N 218.759 1.29093 0.90403 0
M  V30 2386 C 220.005 1.16986 1.65656 0
M  V30 2387 C 220.338 -0.278925 1.92186 0
M  V30 2388 O 219.613 -1.2019 1.5292 0
M  V30 2389 C 219.896 1.97908 3.0084 0
M  V30 2390 C 219.749 3.50903 2.81403 0
M  V30 2391 C 221.068 1.80208 4.01513 0
M  V30 2392 H 218.187 0.426346 0.601164 0
M  V30 2393 H 220.829 1.58518 1.04747 0
M  V30 2394 H 218.979 1.62616 3.52829 0
M  V30 2395 H 220.651 3.96153 2.36348 0
M  V30 2396 H 218.894 3.76045 2.1627 0
M  V30 2397 H 219.565 4.02791 3.77443 0
M  V30 2398 H 222.041 2.11025 3.58619 0
M  V30 2399 H 220.917 2.39184 4.94047 0
M  V30 2400 H 221.178 0.756119 4.35586 0
M  V30 2401 N 220.237 -1.11381 1.11499 0
M  V30 2402 C 221.167 -2.19509 0.796125 0
M  V30 2403 C 222.148 -1.68458 -0.235796 0
M  V30 2404 O 223.333 -1.93947 -0.0991344 0
M  V30 2405 C 220.463 -3.46475 0.239205 0
M  V30 2406 C 219.417 -4.10744 1.20307 0
M  V30 2407 C 218.743 -5.32293 0.50683 0
M  V30 2408 C 220.043 -4.55597 2.55399 0
M  V30 2409 H 221.737 -2.46439 1.70024 0
M  V30 2410 H 219.283 -1.18446 0.818935 0
M  V30 2411 H 221.236 -4.214 0.00392006 0
M  V30 2412 H 219.96 -3.19006 -0.700206 0
M  V30 2413 H 218.619 -3.37813 1.42399 0
M  V30 2414 H 218.267 -5.01095 -0.437408 0
M  V30 2415 H 217.967 -5.76243 1.1497 0
M  V30 2416 H 219.491 -6.09956 0.280351 0
M  V30 2417 H 220.905 -5.21841 2.37391 0
M  V30 2418 H 219.302 -5.10363 3.15673 0
M  V30 2419 H 220.372 -3.69013 3.14575 0
M  V30 2420 N 221.715 -0.905404 -1.28997 0
M  V30 2421 C 222.645 -0.404212 -2.29975 0
M  V30 2422 C 223.626 0.523784 -1.61835 0
M  V30 2423 O 224.811 0.433298 -1.89304 0
M  V30 2424 C 221.941 0.364042 -3.45387 0
M  V30 2425 C 220.895 -0.474048 -4.25367 0
M  V30 2426 C 220.221 0.422045 -5.33032 0
M  V30 2427 C 221.521 -1.72696 -4.92923 0
M  V30 2428 H 223.215 -1.24807 -2.72146 0
M  V30 2429 H 220.761 -0.601585 -1.30832 0
M  V30 2430 H 222.714 0.725447 -4.15109 0
M  V30 2431 H 221.438 1.24174 -3.02074 0
M  V30 2432 H 220.097 -0.81786 -3.57361 0
M  V30 2433 H 219.745 1.29804 -4.85963 0
M  V30 2434 H 219.445 -0.135057 -5.87445 0
M  V30 2435 H 220.969 0.779517 -6.05604 0
M  V30 2436 H 222.383 -1.43495 -5.55051 0
M  V30 2437 H 220.78 -2.22582 -5.57295 0
M  V30 2438 H 221.85 -2.45964 -4.17887 0
M  V30 2439 N 223.193 1.4272 -0.668489 0
M  V30 2440 C 224.14 2.30796 0.0137489 0
M  V30 2441 C 225.11 1.4561 0.799177 0
M  V30 2442 O 226.295 1.74453 0.772702 0
M  V30 2443 C 223.435 3.31377 0.963507 0
M  V30 2444 C 222.548 4.31655 0.172569 0
M  V30 2445 C 221.683 5.19312 1.1175 0
M  V30 2446 C 220.722 6.11274 0.317886 0
M  V30 2447 N 219.859 6.91504 1.2152 0
M  V30 2448 H 224.699 2.88585 -0.743161 0
M  V30 2449 H 222.236 1.42154 -0.378226 0
M  V30 2450 H 224.194 3.88214 1.52792 0
M  V30 2451 H 222.824 2.75202 1.68712 0
M  V30 2452 H 221.876 3.76988 -0.508374 0
M  V30 2453 H 223.188 4.96779 -0.448527 0
M  V30 2454 H 222.342 5.80851 1.75206 0
M  V30 2455 H 221.081 4.5435 1.77249 0
M  V30 2456 H 220.086 5.48809 -0.329918 0
M  V30 2457 H 221.311 6.78283 -0.332917 0
M  V30 2458 H 219.257 6.29176 1.85671 0
M  V30 2459 H 219.174 7.53209 0.649036 0
M  V30 2460 H 220.442 7.57535 1.83742 0
M  V30 2461 N 224.671 0.411399 1.52136 0
M  V30 2462 C 225.619 -0.427633 2.28635 0
M  V30 2463 C 226.613 -1.04383 1.33419 0
M  V30 2464 O 227.819 -0.981772 1.50868 0
M  V30 2465 H 224.194 -0.156689 0.735495 0
M  V30 2466 H 226.165 0.238761 2.97443 0
M  V30 2467 C 224.914 -1.53082 3.12188 0
M  V30 2468 H 224.237 -1.06601 3.85326 0
M  V30 2469 H 225.677 -2.09167 3.68816 0
M  V30 2470 C 224.136 -2.49946 2.25895 0
M  V30 2471 O 224.666 -3.53884 1.90076 0
M  V30 2472 N 222.872 -2.2021 1.8962 0
M  V30 2473 H 222.419 -1.35719 2.18948 0
M  V30 2474 H 222.377 -2.85266 1.32176 0
M  V30 2475 N 226.149 -1.5696 0.141893 0
M  V30 2476 C 227.395 -1.9625 -0.511248 0
M  V30 2477 C 227.728 -1.02654 -1.64851 0
M  V30 2478 O 227.003 -0.0679676 -1.94381 0
M  V30 2479 C 227.286 -3.45285 -1.02227 0
M  V30 2480 C 227.139 -4.49658 0.113138 0
M  V30 2481 C 228.458 -3.96698 -1.90574 0
M  V30 2482 H 225.577 -0.713567 -0.184367 0
M  V30 2483 H 228.219 -1.88698 0.222087 0
M  V30 2484 H 226.369 -3.51852 -1.64719 0
M  V30 2485 H 228.041 -4.55174 0.749302 0
M  V30 2486 H 226.284 -4.26857 0.773026 0
M  V30 2487 H 226.955 -5.51258 -0.286053 0
M  V30 2488 H 229.431 -3.92578 -1.37918 0
M  V30 2489 H 228.307 -5.01453 -2.2324 0
M  V30 2490 H 228.568 -3.3875 -2.84079 0
M  V30 2491 N 227.627 0.131896 -1.57047 0
M  V30 2492 C 228.574 1.16236 -1.99393 0
M  V30 2493 C 229.544 1.41863 -0.863943 0
M  V30 2494 O 230.729 1.53946 -1.12718 0
M  V30 2495 C 227.869 2.48708 -2.39245 0
M  V30 2496 C 226.982 2.30127 -3.65603 0
M  V30 2497 C 226.117 3.55738 -3.94492 0
M  V30 2498 C 225.156 3.32259 -5.14073 0
M  V30 2499 N 224.293 4.50039 -5.38896 0
M  V30 2500 H 229.133 0.794251 -2.87221 0
M  V30 2501 H 226.67 0.380707 -1.42088 0
M  V30 2502 H 228.628 3.25969 -2.60384 0
M  V30 2503 H 227.258 2.83437 -1.54478 0
M  V30 2504 H 226.31 1.43845 -3.52154 0
M  V30 2505 H 227.622 2.08746 -4.5302 0
M  V30 2506 H 226.776 4.41423 -4.1621 0
M  V30 2507 H 225.515 3.80138 -3.05526 0
M  V30 2508 H 224.52 2.44963 -4.92212 0
M  V30 2509 H 225.745 3.09242 -6.04604 0
M  V30 2510 H 223.691 4.74584 -4.52886 0
M  V30 2511 H 223.608 4.31716 -6.2061 0
M  V30 2512 H 224.876 5.36895 -5.65123 0
M  V30 2513 N 229.106 1.52395 0.401703 0
M  V30 2514 C 230.056 1.72649 1.48917 0
M  V30 2515 C 231.04 0.580436 1.50066 0
M  V30 2516 O 232.232 0.83779 1.55917 0
M  V30 2517 C 229.361 1.88729 2.86769 0
M  V30 2518 C 228.447 3.09228 2.90239 0
M  V30 2519 N 228.838 4.31805 2.63396 0
M  V30 2520 C 227.136 3.09214 3.21408 0
M  V30 2521 C 227.837 5.13326 2.73625 0
M  V30 2522 N 226.813 4.48735 3.06819 0
M  V30 2523 H 230.615 2.65058 1.26971 0
M  V30 2524 H 228.129 1.50528 0.609504 0
M  V30 2525 H 230.126 2.01358 3.65049 0
M  V30 2526 H 228.786 0.975252 3.09708 0
M  V30 2527 H 229.797 4.60154 2.37653 0
M  V30 2528 H 226.474 2.27774 3.49893 0
M  V30 2529 H 227.864 6.21003 2.56524 0
M  V30 2530 N 230.584 -0.659388 1.43143 0
M  V30 2531 C 231.995 -1.24041 1.39537 0
M  V30 2532 C 232.346 -1.95963 0.0963364 0
M  V30 2533 O 231.471 -2.00892 -0.804438 0
M  V30 2534 C 232.066 -2.25601 2.52764 0
M  V30 2535 C 230.625 -2.79195 2.52443 0
M  V30 2536 C 229.772 -1.53743 2.30778 0
M  V30 2537 H 232.723 -0.451792 1.52133 0
M  V30 2538 H 232.744 -3.07651 2.23899 0
M  V30 2539 H 232.256 -1.73226 3.47296 0
M  V30 2540 H 230.357 -3.35649 1.61773 0
M  V30 2541 H 230.47 -3.2716 3.50004 0
M  V30 2542 H 228.834 -1.80869 1.79328 0
M  V30 2543 H 229.617 -1.03312 3.27386 0
M  V30 2544 N 232.062 -1.29571 -0.897171 0
M  V30 2545 C 233.309 -1.17689 -1.6479 0
M  V30 2546 C 233.637 0.27107 -1.92602 0
M  V30 2547 O 232.892 1.21193 -1.53658 0
M  V30 2548 C 233.191 -1.9382 -3.00281 0
M  V30 2549 C 232.857 -3.43522 -2.92068 0
M  V30 2550 C 231.519 -3.84348 -2.89535 0
M  V30 2551 C 233.871 -4.38906 -2.81089 0
M  V30 2552 C 231.199 -5.18869 -2.73846 0
M  V30 2553 C 233.551 -5.73521 -2.66939 0
M  V30 2554 C 232.215 -6.13601 -2.62774 0
M  V30 2555 H 231.485 -0.430654 -0.603008 0
M  V30 2556 H 234.132 -1.60536 -1.04404 0
M  V30 2557 H 232.437 -1.4357 -3.64547 0
M  V30 2558 H 234.134 -1.82028 -3.57305 0
M  V30 2559 H 230.724 -3.11072 -2.94842 0
M  V30 2560 H 234.908 -4.08315 -2.82121 0
M  V30 2561 H 230.164 -5.4903 -2.69027 0
M  V30 2562 H 234.338 -6.47078 -2.57416 0
M  V30 2563 H 231.965 -7.17786 -2.50375 0
M  V30 2564 N 233.54 1.10788 -1.12088 0
M  V30 2565 C 234.47 2.19083 -0.807755 0
M  V30 2566 C 235.451 1.6858 0.226859 0
M  V30 2567 O 236.636 1.93997 0.0888475 0
M  V30 2568 C 233.766 3.46344 -0.257576 0
M  V30 2569 C 232.72 4.101 -1.22483 0
M  V30 2570 C 232.046 5.32016 -0.535052 0
M  V30 2571 C 233.346 4.54236 -2.57811 0
M  V30 2572 H 235.04 2.45534 -1.71328 0
M  V30 2573 H 232.586 1.1801 -0.825205 0
M  V30 2574 H 234.539 4.21392 -0.0262679 0
M  V30 2575 H 233.263 3.19373 0.683278 0
M  V30 2576 H 231.922 3.37054 -1.44189 0
M  V30 2577 H 231.57 5.01319 0.410827 0
M  V30 2578 H 231.27 5.75625 -1.18024 0
M  V30 2579 H 232.794 6.09799 -0.312695 0
M  V30 2580 H 234.208 5.20575 -2.40155 0
M  V30 2581 H 232.605 5.08682 -3.18375 0
M  V30 2582 H 233.675 3.6734 -3.16528 0
M  V30 2583 N 235.018 0.912232 1.28515 0
M  V30 2584 C 236.264 0.545405 1.95328 0
M  V30 2585 C 236.597 -0.908313 1.71649 0
M  V30 2586 O 235.872 -1.64575 1.03659 0
M  V30 2587 C 236.155 0.853483 3.4984 0
M  V30 2588 C 236.008 2.35982 3.82926 0
M  V30 2589 C 237.327 0.348589 4.38717 0
M  V30 2590 H 234.446 0.199626 0.709449 0
M  V30 2591 H 237.088 1.1412 1.5191 0
M  V30 2592 H 235.238 0.34643 3.86952 0
M  V30 2593 H 236.91 2.93738 3.55691 0
M  V30 2594 H 235.153 2.81543 3.30024 0
M  V30 2595 H 235.824 2.52593 4.90816 0
M  V30 2596 H 238.3 0.78294 4.08668 0
M  V30 2597 H 237.176 0.593242 5.45685 0
M  V30 2598 H 237.437 -0.751049 4.35674 0
M  V30 2599 N 236.496 -1.42363 0.676048 0
M  V30 2600 C 237.744 -2.01123 0.198437 0
M  V30 2601 C 238.065 -1.53731 -1.19966 0
M  V30 2602 O 237.335 -0.759518 -1.80577 0
M  V30 2603 H 235.915 -0.743678 0.0703721 0
M  V30 2604 H 238.577 -1.74263 0.872837 0
M  V30 2605 H 237.673 -3.11454 0.200686 0
M  V30 2606 N 237.974 -0.419461 -1.51915 0
M  V30 2607 C 238.904 0.391813 -2.30189 0
M  V30 2608 C 239.885 1.03699 -1.34836 0
M  V30 2609 O 241.07 1.04403 -1.63748 0
M  V30 2610 C 238.2 1.50312 -3.13087 0
M  V30 2611 C 237.154 0.9824 -4.16573 0
M  V30 2612 C 236.48 2.18809 -4.8788 0
M  V30 2613 C 237.78 0.0292356 -5.22292 0
M  V30 2614 H 239.474 -0.26135 -2.98257 0
M  V30 2615 H 237.02 -0.127134 -1.43438 0
M  V30 2616 H 238.973 2.07773 -3.66617 0
M  V30 2617 H 237.697 2.18431 -2.42807 0
M  V30 2618 H 236.356 0.430119 -3.64068 0
M  V30 2619 H 236.004 2.85507 -4.14119 0
M  V30 2620 H 235.704 1.84615 -5.57845 0
M  V30 2621 H 237.228 2.76858 -5.44226 0
M  V30 2622 H 238.642 0.512976 -5.71 0
M  V30 2623 H 237.039 -0.2244 -5.9968 0
M  V30 2624 H 238.109 -0.912931 -4.76228 0
M  V30 2625 N 239.452 1.56882 -0.150215 0
M  V30 2626 C 240.402 2.13501 0.800071 0
M  V30 2627 C 241.386 1.06368 1.20726 0
M  V30 2628 O 242.578 1.32538 1.17314 0
M  V30 2629 C 239.707 2.76271 2.03787 0
M  V30 2630 C 238.793 3.90533 1.65364 0
M  V30 2631 N 239.184 4.96259 0.977794 0
M  V30 2632 C 237.482 4.013 1.94613 0
M  V30 2633 C 238.183 5.76286 0.791794 0
M  V30 2634 N 237.159 5.27163 1.32666 0
M  V30 2635 H 240.961 2.92615 0.274517 0
M  V30 2636 H 238.475 1.62319 0.0512144 0
M  V30 2637 H 240.472 3.15197 2.72867 0
M  V30 2638 H 239.132 1.98631 2.56857 0
M  V30 2639 H 240.143 5.13953 0.638193 0
M  V30 2640 H 236.82 3.3474 2.4951 0
M  V30 2641 H 238.21 6.71401 0.258894 0
M  V30 2642 N 240.93 -0.123565 1.57115 0
M  V30 2643 C 242.177 -0.832153 1.84612 0
M  V30 2644 C 242.505 -1.80093 0.734627 0
M  V30 2645 O 241.76 -1.93766 -0.27442 0
M  V30 2646 C 242.059 -1.62016 3.18568 0
M  V30 2647 C 241.725 -0.796084 4.43817 0
M  V30 2648 C 240.387 -0.568816 4.77826 0
M  V30 2649 C 242.739 -0.221364 5.2073 0
M  V30 2650 C 240.067 0.243499 5.86194 0
M  V30 2651 C 242.419 0.578117 6.29953 0
M  V30 2652 C 241.083 0.815744 6.62497 0
M  V30 2653 H 240.353 -0.304507 0.675542 0
M  V30 2654 H 243 -0.0947248 1.91266 0
M  V30 2655 H 241.305 -2.42837 3.0747 0
M  V30 2656 H 243.002 -2.17231 3.37064 0
M  V30 2657 H 239.592 -0.983307 4.17168 0
M  V30 2658 H 243.776 -0.384173 4.94811 0
M  V30 2659 H 239.032 0.436871 6.09837 0
M  V30 2660 H 243.206 1.03046 6.88734 0
M  V30 2661 H 240.833 1.44701 7.46301 0
M  V30 2662 N 242.408 -1.52605 -0.393616 0
M  V30 2663 C 243.633 -1.71592 -1.16495 0
M  V30 2664 C 244.058 -0.43133 -1.83088 0
M  V30 2665 O 243.416 0.612523 -1.7064 0
M  V30 2666 C 243.464 -2.86318 -2.19213 0
M  V30 2667 O 242.568 -2.52969 -3.257 0
M  V30 2668 H 241.909 -0.570734 -0.33935 0
M  V30 2669 H 244.439 -1.99377 -0.459324 0
M  V30 2670 H 244.449 -3.1168 -2.63286 0
M  V30 2671 H 243.124 -3.79511 -1.7013 0
M  V30 2672 H 241.701 -2.38332 -2.86797 0
M  V30 2673 N 243.887 0.651787 -1.4349 0
M  V30 2674 C 245.134 1.41167 -1.45183 0
M  V30 2675 C 245.462 1.94349 -0.0766601 0
M  V30 2676 O 244.717 1.72804 0.918555 0
M  V30 2677 C 245.016 2.60914 -2.44251 0
M  V30 2678 C 244.682 2.26142 -3.9009 0
M  V30 2679 C 243.344 2.16371 -4.2981 0
M  V30 2680 C 245.696 1.98334 -4.81989 0
M  V30 2681 C 243.024 1.7695 -5.5938 0
M  V30 2682 C 245.376 1.6041 -6.11924 0
M  V30 2683 C 244.04 1.49166 -6.5062 0
M  V30 2684 H 243.31 0.516566 -0.531263 0
M  V30 2685 H 245.957 0.741099 -1.76579 0
M  V30 2686 H 244.262 3.3311 -2.06265 0
M  V30 2687 H 245.959 3.19127 -2.42815 0
M  V30 2688 H 242.549 2.34658 -3.58655 0
M  V30 2689 H 246.733 2.04803 -4.52072 0
M  V30 2690 H 241.989 1.66831 -5.88198 0
M  V30 2691 H 246.163 1.37925 -6.82605 0
M  V30 2692 H 243.79 1.1839 -7.50925 0
M  V30 2693 N 245.365 1.30045 0.890287 0
M  V30 2694 C 246.297 1.11786 2.00091 0
M  V30 2695 C 247.31 0.0626307 1.62679 0
M  V30 2696 O 248.499 0.308112 1.75821 0
M  V30 2697 C 245.599 0.681527 3.31977 0
M  V30 2698 C 244.772 1.81735 3.97858 0
M  V30 2699 C 243.831 1.37045 5.08041 0
M  V30 2700 O 242.857 2.07677 5.29961 0
M  V30 2701 N 244.059 0.246525 5.79976 0
M  V30 2702 H 246.824 2.07441 2.16306 0
M  V30 2703 H 244.385 1.2211 1.06305 0
M  V30 2704 H 246.377 0.365675 4.03045 0
M  V30 2705 H 244.947 -0.182828 3.12065 0
M  V30 2706 H 244.167 2.30159 3.20032 0
M  V30 2707 H 245.455 2.57865 4.38615 0
M  V30 2708 H 244.853 -0.34215 5.64664 0
M  V30 2709 H 243.41 -0.00990438 6.51799 0
M  V30 2710 N 246.843 -1.10192 1.12674 0
M  V30 2711 C 248.071 -1.85983 0.906527 0
M  V30 2712 C 248.486 -1.80783 -0.544333 0
M  V30 2713 O 247.843 -1.19834 -1.37645 0
M  V30 2714 C 247.894 -3.34281 1.37618 0
M  V30 2715 O 247.615 -3.39401 2.77017 0
M  V30 2716 C 249.116 -4.26938 1.19325 0
M  V30 2717 H 246.336 -0.587716 0.323775 0
M  V30 2718 H 248.88 -1.39284 1.49734 0
M  V30 2719 H 247.035 -3.78436 0.828539 0
M  V30 2720 H 247.449 -4.31838 2.97684 0
M  V30 2721 H 248.923 -5.29181 1.57071 0
M  V30 2722 H 249.4 -4.38995 0.134097 0
M  V30 2723 H 250.006 -3.8859 1.72852 0
M  V30 2724 N 248.321 -0.919034 -1.28029 0
M  V30 2725 C 249.284 -0.416182 -2.2539 0
M  V30 2726 C 250.284 0.460438 -1.54067 0
M  V30 2727 O 251.474 0.262744 -1.72207 0
M  V30 2728 C 248.606 0.402707 -3.38513 0
M  V30 2729 H 249.799 -1.27629 -2.71387 0
M  V30 2730 H 247.352 -0.698919 -1.39803 0
M  V30 2731 H 248.087 1.282 -2.97885 0
M  V30 2732 H 247.872 -0.225698 -3.9145 0
M  V30 2733 H 249.362 0.745191 -4.10897 0
M  V30 2734 N 249.799 1.42003 -0.683588 0
M  V30 2735 C 251.076 1.95112 -0.138075 0
M  V30 2736 C 251.456 1.62359 1.34918 0
M  V30 2737 O 250.804 0.924311 2.08971 0
M  V30 2738 C 251.014 3.46505 -0.416581 0
M  V30 2739 C 252.362 4.23254 -0.337834 0
M  V30 2740 O 253.386 3.54468 -0.35082 0
M  V30 2741 O 252.245 5.45743 -0.287596 0
M  V30 2742 H 249.339 0.826961 -0.00797996 0
M  V30 2743 H 251.885 1.51784 -0.758924 0
M  V30 2744 H 250.657 3.63582 -1.4465 0
M  V30 2745 H 250.28 3.969 0.235839 0
M  V30 2746 N 251.277 0.427512 1.51691 0
M  V30 2747 C 252.224 -0.388867 2.275 0
M  V30 2748 C 253.194 -1.02532 1.30677 0
M  V30 2749 O 254.379 -1.0461 1.59566 0
M  V30 2750 C 251.519 -1.48954 3.11298 0
M  V30 2751 C 250.632 -0.872194 4.23104 0
M  V30 2752 C 249.767 -1.94709 4.94228 0
M  V30 2753 C 248.806 -1.30766 5.97969 0
M  V30 2754 N 247.943 -2.32349 6.62539 0
M  V30 2755 H 252.783 0.263997 2.96828 0
M  V30 2756 H 250.32 0.142033 1.46413 0
M  V30 2757 H 252.278 -2.13887 3.58201 0
M  V30 2758 H 250.908 -2.11217 2.44105 0
M  V30 2759 H 249.96 -0.111419 3.80237 0
M  V30 2760 H 251.272 -0.365264 4.97461 0
M  V30 2761 H 250.426 -2.67327 5.44629 0
M  V30 2762 H 249.165 -2.48773 4.1948 0
M  V30 2763 H 248.17 -0.566902 5.4687 0
M  V30 2764 H 249.395 -0.774483 6.74669 0
M  V30 2765 H 247.341 -2.85511 5.90609 0
M  V30 2766 H 247.258 -1.8652 7.3263 0
M  V30 2767 H 248.526 -3.04481 7.17574 0
M  V30 2768 N 252.755 -1.56801 0.158532 0
M  V30 2769 C 253.685 -2.20347 -0.772609 0
M  V30 2770 C 254.666 -1.15518 -1.24859 0
M  V30 2771 O 255.851 -1.43902 -1.30406 0
M  V30 2772 C 252.981 -2.83417 -2.00729 0
M  V30 2773 C 251.935 -3.94174 -1.66765 0
M  V30 2774 C 251.261 -4.44233 -2.97592 0
M  V30 2775 C 252.561 -5.14392 -0.905447 0
M  V30 2776 H 254.255 -2.98413 -0.242959 0
M  V30 2777 H 251.801 -1.43537 -0.115419 0
M  V30 2778 H 253.754 -3.26543 -2.6636 0
M  V30 2779 H 252.478 -2.02701 -2.56086 0
M  V30 2780 H 251.137 -3.51684 -1.03508 0
M  V30 2781 H 250.785 -3.60325 -3.50963 0
M  V30 2782 H 250.485 -5.18945 -2.75626 0
M  V30 2783 H 252.009 -4.90037 -3.64274 0
M  V30 2784 H 253.423 -5.5429 -1.46408 0
M  V30 2785 H 251.82 -5.9494 -0.7853 0
M  V30 2786 H 252.89 -4.84795 0.100668 0
M  V30 2787 N 254.233 0.115231 -1.57178 0
M  V30 2788 C 255.463 0.835224 -1.88964 0
M  V30 2789 C 255.871 1.73774 -0.74829 0
M  V30 2790 O 255.214 1.81401 0.289739 0
M  V30 2791 C 255.276 1.7178 -3.15804 0
M  V30 2792 C 254.94 0.989198 -4.46166 0
M  V30 2793 C 255.937 0.328263 -5.18863 0
M  V30 2794 C 253.622 0.969256 -4.9286 0
M  V30 2795 C 255.616 -0.342873 -6.36477 0
M  V30 2796 C 253.303 0.294324 -6.10391 0
M  V30 2797 C 254.301 -0.360582 -6.82048 0
M  V30 2798 O 253.989 -1.02474 -7.97342 0
M  V30 2799 H 253.721 0.245197 -0.629964 0
M  V30 2800 H 256.275 0.10303 -2.05141 0
M  V30 2801 H 254.505 2.49173 -2.95719 0
M  V30 2802 H 256.194 2.31255 -3.33581 0
M  V30 2803 H 256.96 0.335263 -4.8384 0
M  V30 2804 H 252.839 1.46844 -4.36987 0
M  V30 2805 H 256.383 -0.854629 -6.92345 0
M  V30 2806 H 252.28 0.285099 -6.4487 0
M  V30 2807 H 253.048 -0.929594 -8.13204 0
M  V30 2808 N 255.711 1.52812 0.385517 0
M  V30 2809 C 256.958 1.68026 1.1302 0
M  V30 2810 C 257.286 0.421934 1.89868 0
M  V30 2811 O 256.541 -0.595749 1.86412 0
M  V30 2812 C 256.84 2.86856 2.13187 0
M  V30 2813 C 256.506 4.24159 1.5297 0
M  V30 2814 C 255.168 4.61501 1.36274 0
M  V30 2815 C 257.52 5.09627 1.09223 0
M  V30 2816 C 254.848 5.81966 0.743837 0
M  V30 2817 C 257.2 6.30719 0.487411 0
M  V30 2818 C 255.864 6.6679 0.307777 0
M  V30 2819 H 255.134 0.614849 0.413571 0
M  V30 2820 H 257.781 1.86962 0.414405 0
M  V30 2821 H 256.086 2.6235 2.90998 0
M  V30 2822 H 257.783 2.95821 2.70722 0
M  V30 2823 H 254.373 3.94746 1.66954 0
M  V30 2824 H 258.557 4.81343 1.20922 0
M  V30 2825 H 253.813 6.08519 0.592891 0
M  V30 2826 H 257.987 6.96259 0.140143 0
M  V30 2827 H 255.614 7.60001 -0.173879 0
M  V30 2828 N 257.189 -0.644168 1.43834 0
M  V30 2829 C 258.435 -1.40603 1.46146 0
M  V30 2830 C 258.768 -1.93997 0.0887717 0
M  V30 2831 O 258.043 -1.72854 -0.891724 0
M  V30 2832 C 258.326 -2.58086 2.51124 0
M  V30 2833 C 258.179 -2.10126 3.97702 0
M  V30 2834 C 259.498 -3.60291 2.52742 0
M  V30 2835 H 256.617 -0.509905 0.532134 0
M  V30 2836 H 259.259 -0.729502 1.75437 0
M  V30 2837 H 257.409 -3.15801 2.26278 0
M  V30 2838 H 259.081 -1.57342 4.33637 0
M  V30 2839 H 257.324 -1.41419 4.10101 0
M  V30 2840 H 257.995 -2.94649 4.66783 0
M  V30 2841 H 260.471 -3.12352 2.7491 0
M  V30 2842 H 259.347 -4.40032 3.28121 0
M  V30 2843 H 259.608 -4.1349 1.56455 0
M  V30 2844 N 258.668 -1.30515 -0.883378 0
M  V30 2845 C 259.598 -1.19607 -2.00541 0
M  V30 2846 C 260.579 -0.086346 -1.69881 0
M  V30 2847 O 261.764 -0.268654 -1.92333 0
M  V30 2848 C 258.894 -0.888758 -3.35736 0
M  V30 2849 C 257.848 -1.95659 -3.8066 0
M  V30 2850 C 257.174 -1.50224 -5.13164 0
M  V30 2851 C 258.474 -3.36788 -3.99213 0
M  V30 2852 H 260.168 -2.13476 -2.09925 0
M  V30 2853 H 257.714 -1.02775 -1.00863 0
M  V30 2854 H 259.667 -0.799094 -4.13754 0
M  V30 2855 H 258.391 0.0856125 -3.26488 0
M  V30 2856 H 257.05 -2.03591 -3.04871 0
M  V30 2857 H 256.698 -0.516092 -5.00345 0
M  V30 2858 H 256.398 -2.2165 -5.44192 0
M  V30 2859 H 257.922 -1.42639 -5.93706 0
M  V30 2860 H 259.336 -3.31605 -4.67665 0
M  V30 2861 H 257.733 -4.06314 -4.41621 0
M  V30 2862 H 258.803 -3.78561 -3.03017 0
M  V30 2863 N 260.146 1.09593 -1.13257 0
M  V30 2864 C 261.423 1.78293 -0.804432 0
M  V30 2865 C 261.803 1.99004 0.70431 0
M  V30 2866 O 261.151 1.59007 1.641 0
M  V30 2867 C 261.361 3.10707 -1.5894 0
M  V30 2868 C 262.709 3.85443 -1.78099 0
M  V30 2869 O 263.733 3.20454 -1.55525 0
M  V30 2870 O 262.592 5.02108 -2.15753 0
M  V30 2871 H 259.686 0.773156 -0.293528 0
M  V30 2872 H 262.232 1.16164 -1.23709 0
M  V30 2873 H 261.004 2.91106 -2.61482 0
M  V30 2874 H 260.627 3.80558 -1.15157 0
M  V30 2875 N 261.624 0.925811 1.2754 0
M  V30 2876 C 262.854 0.580666 1.98272 0
M  V30 2877 C 263.262 -0.845207 1.69272 0
M  V30 2878 O 262.605 -1.57306 0.948707 0
M  V30 2879 C 262.667 0.724418 3.52126 0
M  V30 2880 C 262.331 2.12206 4.04744 0
M  V30 2881 C 263.328 3.09604 4.17662 0
M  V30 2882 C 261.013 2.4385 4.39138 0
M  V30 2883 C 263.007 4.36755 4.64246 0
M  V30 2884 C 260.694 3.71237 4.85414 0
M  V30 2885 C 261.692 4.67503 4.97926 0
M  V30 2886 O 261.38 5.92624 5.43187 0
M  V30 2887 H 261.112 0.218987 0.639547 0
M  V30 2888 H 263.666 1.24452 1.63404 0
M  V30 2889 H 261.896 0.0034663 3.867 0
M  V30 2890 H 263.585 0.384607 4.04074 0
M  V30 2891 H 264.351 2.86478 3.91351 0
M  V30 2892 H 260.23 1.69665 4.28643 0
M  V30 2893 H 263.774 5.11898 4.73927 0
M  V30 2894 H 259.671 3.94182 5.11166 0
M  V30 2895 H 260.439 5.95585 5.61445 0
M  V30 2896 N 263.102 -1.41638 0.69111 0
M  V30 2897 C 264.351 -2.00526 0.217318 0
M  V30 2898 C 264.664 -1.55353 -1.18848 0
M  V30 2899 O 265.87 -2.06769 -1.75951 0
M  V30 2900 C 264.326 -3.58313 0.337639 0
M  V30 2901 C 263.934 -4.12469 1.74852 0
M  V30 2902 C 265.678 -4.24431 -0.0766066 0
M  V30 2903 C 263.585 -5.62675 1.82074 0
M  V30 2904 H 262.515 -0.750008 0.0774893 0
M  V30 2905 H 265.166 -1.6217 0.858661 0
M  V30 2906 H 263.548 -3.9425 -0.371879 0
M  V30 2907 H 264.722 -3.8796 2.48644 0
M  V30 2908 H 263.037 -3.58861 2.11205 0
M  V30 2909 H 265.634 -5.34683 -0.0430284 0
M  V30 2910 H 265.977 -4.01101 -1.1146 0
M  V30 2911 H 266.51 -3.93512 0.582476 0
M  V30 2912 H 263.249 -5.90826 2.83911 0
M  V30 2913 H 262.769 -5.89124 1.12661 0
M  V30 2914 H 264.448 -6.27371 1.58159 0
M  V30 2915 N 264.58 -0.43555 -1.51462 0
M  V30 2916 C 265.528 0.391205 -2.29287 0
M  V30 2917 C 266.522 1.02247 -1.35062 0
M  V30 2918 O 267.728 0.957646 -1.52411 0
M  V30 2919 H 264.103 0.144968 -0.737895 0
M  V30 2920 H 266.074 -0.286051 -2.97026 0
M  V30 2921 C 264.823 1.48096 -3.14583 0
M  V30 2922 H 264.146 1.00457 -3.86973 0
M  V30 2923 H 265.586 2.03273 -3.72097 0
M  V30 2924 C 264.045 2.46321 -2.29843 0
M  V30 2925 O 264.575 3.50815 -1.95682 0
M  V30 2926 N 262.781 2.17166 -1.931 0
M  V30 2927 H 262.328 1.32218 -2.21079 0
M  V30 2928 H 262.286 2.83127 -1.36698 0
M  V30 2929 N 266.058 1.56714 -0.166846 0
M  V30 2930 C 267.306 1.96358 0.478305 0
M  V30 2931 C 267.627 1.0537 1.6408 0
M  V30 2932 O 266.897 0.119154 1.95537 0
M  V30 2933 H 265.477 0.725065 0.179692 0
M  V30 2934 H 268.139 1.93329 -0.246985 0
M  V30 2935 H 267.235 3.00547 0.841292 0
M  V30 2936 N 267.536 -0.106894 1.57237 0
M  V30 2937 C 268.784 -0.810921 1.85117 0
M  V30 2938 C 269.105 -1.7984 0.753827 0
M  V30 2939 O 268.375 -1.94649 -0.221056 0
M  V30 2940 H 266.955 -0.302466 0.683025 0
M  V30 2941 H 269.617 -0.0913324 1.94686 0
M  V30 2942 H 268.713 -1.34875 2.81452 0
M  V30 2943 N 269.014 -1.53014 -0.377408 0
M  V30 2944 C 269.924 -1.81557 -1.48574 0
M  V30 2945 C 270.94 -0.703102 -1.59162 0
M  V30 2946 O 272.116 -0.99192 -1.75279 0
M  V30 2947 C 269.181 -1.9889 -2.83978 0
M  V30 2948 C 268.242 -3.22801 -2.83016 0
M  V30 2949 C 267.475 -3.39298 -4.11962 0
M  V30 2950 O 267.698 -2.60345 -5.0752 0
M  V30 2951 O 266.632 -4.32604 -4.18494 0
M  V30 2952 H 270.458 -2.75695 -1.27382 0
M  V30 2953 H 268.043 -1.38248 -0.566373 0
M  V30 2954 H 269.925 -2.11931 -3.6423 0
M  V30 2955 H 268.6 -1.07942 -3.05172 0
M  V30 2956 H 267.507 -3.15193 -2.01505 0
M  V30 2957 H 268.84 -4.13632 -2.66775 0
M  V30 2958 N 270.492 0.636531 -1.44174 0
M  V30 2959 C 271.422 1.76003 -1.53444 0
M  V30 2960 C 272.403 1.65619 -0.387841 0
M  V30 2961 O 273.588 1.84461 -0.607257 0
M  V30 2962 C 270.718 3.14511 -1.4731 0
M  V30 2963 C 269.672 3.39677 -2.60391 0
M  V30 2964 C 268.998 4.78159 -2.39308 0
M  V30 2965 C 270.298 3.32772 -4.02567 0
M  V30 2966 H 271.992 1.68501 -2.47483 0
M  V30 2967 H 269.538 0.809237 -1.19111 0
M  V30 2968 H 271.491 3.92878 -1.52397 0
M  V30 2969 H 270.215 3.22783 -0.49785 0
M  V30 2970 H 268.874 2.63688 -2.54684 0
M  V30 2971 H 268.522 4.83128 -1.39988 0
M  V30 2972 H 268.222 4.95956 -3.15122 0
M  V30 2973 H 269.746 5.58762 -2.46205 0
M  V30 2974 H 271.16 4.01051 -4.09672 0
M  V30 2975 H 269.557 3.62104 -4.7854 0
M  V30 2976 H 270.627 2.30669 -4.2652 0
M  V30 2977 N 271.97 1.30982 0.876444 0
M  V30 2978 C 273.217 1.20296 1.62896 0
M  V30 2979 C 273.545 -0.240395 1.93009 0
M  V30 2980 O 272.8 -1.18733 1.55567 0
M  V30 2981 C 273.099 1.98572 2.9716 0
M  V30 2982 C 272.765 3.48125 2.86566 0
M  V30 2983 C 271.427 3.88905 2.83383 0
M  V30 2984 C 273.779 4.43322 2.74071 0
M  V30 2985 C 271.107 5.2316 2.65556 0
M  V30 2986 C 273.459 5.77695 2.57781 0
M  V30 2987 C 272.123 6.17704 2.52979 0
M  V30 2988 H 271.393 0.440193 0.59608 0
M  V30 2989 H 274.04 1.62177 1.01837 0
M  V30 2990 H 272.345 1.49352 3.62217 0
M  V30 2991 H 274.042 1.8769 3.54364 0
M  V30 2992 H 270.632 3.15723 2.89856 0
M  V30 2993 H 274.816 4.12752 2.75589 0
M  V30 2994 H 270.072 5.53241 2.60259 0
M  V30 2995 H 274.246 6.51091 2.47089 0
M  V30 2996 H 271.873 7.21678 2.38924 0
M  V30 2997 N 273.449 -1.08991 1.13837 0
M  V30 2998 C 274.679 -1.84743 0.924859 0
M  V30 2999 C 275.087 -1.81629 -0.529874 0
M  V30 3000 O 274.43 -1.21397 -1.37872 0
M  V30 3001 C 274.492 -3.33568 1.34061 0
M  V30 3002 C 274.156 -3.60425 2.80968 0
M  V30 3003 C 275.153 -3.55771 3.79108 0
M  V30 3004 C 272.838 -3.88627 3.18236 0
M  V30 3005 C 274.832 -3.78939 5.12527 0
M  V30 3006 C 272.519 -4.11449 4.51833 0
M  V30 3007 C 273.517 -4.06598 5.48787 0
M  V30 3008 O 273.205 -4.28826 6.79973 0
M  V30 3009 H 272.937 -0.590258 0.329502 0
M  V30 3010 H 275.491 -1.38598 1.51591 0
M  V30 3011 H 273.721 -3.80442 0.692853 0
M  V30 3012 H 275.41 -3.90743 1.09886 0
M  V30 3013 H 276.176 -3.34005 3.51661 0
M  V30 3014 H 272.055 -3.91526 2.43369 0
M  V30 3015 H 275.599 -3.75068 5.88192 0
M  V30 3016 H 271.496 -4.32698 4.79002 0
M  V30 3017 H 272.264 -4.46264 6.86142 0
M  V30 3018 N 274.927 -0.932562 -1.27047 0
M  V30 3019 C 275.877 -0.406392 -2.24349 0
M  V30 3020 C 276.861 0.492066 -1.53191 0
M  V30 3021 O 278.053 0.328717 -1.73921 0
M  V30 3022 C 275.182 0.335214 -3.41659 0
M  V30 3023 C 274.268 -0.58004 -4.20115 0
M  V30 3024 N 274.659 -1.70203 -4.76303 0
M  V30 3025 C 272.957 -0.383974 -4.44344 0
M  V30 3026 C 273.658 -2.27167 -5.35509 0
M  V30 3027 N 272.634 -1.56068 -5.20715 0
M  V30 3028 H 276.436 -1.26299 -2.65378 0
M  V30 3029 H 273.95 -0.787408 -1.42034 0
M  V30 3030 H 275.947 0.729142 -4.10474 0
M  V30 3031 H 274.607 1.18868 -3.0216 0
M  V30 3032 H 275.618 -2.08433 -4.74106 0
M  V30 3033 H 272.295 0.428436 -4.15296 0
M  V30 3034 H 273.685 -3.21654 -5.89905 0
M  V30 3035 N 276.405 1.4127 -0.698611 0
M  V30 3036 C 277.335 2.33447 -0.049629 0
M  V30 3037 C 278.316 1.51982 0.763898 0
M  V30 3038 O 279.501 1.80509 0.716257 0
M  V30 3039 C 276.631 3.35828 0.885267 0
M  V30 3040 C 275.585 4.27627 0.178613 0
M  V30 3041 C 274.911 5.20406 1.22807 0
M  V30 3042 C 276.211 5.13459 -0.956933 0
M  V30 3043 H 277.905 2.87966 -0.81951 0
M  V30 3044 H 275.451 1.38461 -0.395538 0
M  V30 3045 H 277.404 3.9924 1.34854 0
M  V30 3046 H 276.128 2.79666 1.68685 0
M  V30 3047 H 274.787 3.65643 -0.26466 0
M  V30 3048 H 274.435 4.60558 2.02226 0
M  V30 3049 H 274.135 5.82661 0.760239 0
M  V30 3050 H 275.659 5.86695 1.69179 0
M  V30 3051 H 277.073 5.70421 -0.573805 0
M  V30 3052 H 275.47 5.8467 -1.35205 0
M  V30 3053 H 276.54 4.50443 -1.79524 0
M  V30 3054 N 277.883 0.443576 1.51229 0
M  V30 3055 C 278.815 -0.400608 2.25672 0
M  V30 3056 C 279.828 -0.980945 1.29928 0
M  V30 3057 O 281.017 -0.874024 1.55638 0
M  V30 3058 C 278.117 -1.57304 3.00181 0
M  V30 3059 C 277.29 -1.11046 4.23069 0
M  V30 3060 C 276.349 -2.15374 4.80105 0
M  V30 3061 O 275.375 -1.74554 5.41774 0
M  V30 3062 N 276.577 -3.47922 4.64683 0
M  V30 3063 H 279.342 0.23745 2.98758 0
M  V30 3064 H 276.903 0.272809 1.59585 0
M  V30 3065 H 278.895 -2.26733 3.35223 0
M  V30 3066 H 277.465 -2.11632 2.30066 0
M  V30 3067 H 276.685 -0.243019 3.9345 0
M  V30 3068 H 277.973 -0.778888 5.02803 0
M  V30 3069 H 277.371 -3.83815 4.15575 0
M  V30 3070 H 275.928 -4.13228 5.0407 0
M  V30 3071 N 279.361 -1.56624 0.175154 0
M  V30 3072 C 280.777 -1.58571 -0.180966 0
M  V30 3073 C 280.977 -1.19065 -1.6256 0
M  V30 3074 O 280.033 -0.904044 -2.35761 0
M  V30 3075 C 281.346 -3.00522 0.103326 0
M  V30 3076 C 282.894 -3.12972 0.0418426 0
M  V30 3077 C 283.369 -4.57022 0.299175 0
M  V30 3078 N 284.86 -4.62541 0.247086 0
M  V30 3079 C 285.595 -5.71857 0.420318 0
M  V30 3080 N 285.091 -6.89717 0.652816 0
M  V30 3081 N 286.884 -5.60972 0.355957 0
M  V30 3082 H 279.035 -1.80589 1.11809 0
M  V30 3083 H 281.298 -0.837178 0.444788 0
M  V30 3084 H 281.004 -3.33916 1.10422 0
M  V30 3085 H 280.878 -3.72344 -0.603299 0
M  V30 3086 H 283.265 -2.79403 -0.949636 0
M  V30 3087 H 283.346 -2.43578 0.781238 0
M  V30 3088 H 282.99 -4.913 1.28788 0
M  V30 3089 H 282.92 -5.24579 -0.460876 0
M  V30 3090 H 285.411 -3.77829 0.0731895 0
M  V30 3091 H 285.724 -7.68911 0.774347 0
M  V30 3092 H 284.069 -6.91572 0.689476 0
M  V30 3093 H 287.26 -4.67773 0.174882 0
M  V30 3094 H 287.433 -6.46111 0.494388 0
M  V30 3095 N 280.839 0.0985539 -1.57292 0
M  V30 3096 C 281.749 1.13824 -2.05137 0
M  V30 3097 C 282.765 1.44076 -0.975604 0
M  V30 3098 O 283.941 1.54786 -1.28853 0
M  V30 3099 C 281.006 2.43969 -2.46333 0
M  V30 3100 C 280.067 2.2093 -3.68087 0
M  V30 3101 C 279.3 3.44869 -4.0731 0
M  V30 3102 O 279.523 4.52972 -3.46659 0
M  V30 3103 O 278.457 3.34661 -5.00285 0
M  V30 3104 H 282.283 0.761881 -2.93988 0
M  V30 3105 H 279.868 0.310818 -1.46131 0
M  V30 3106 H 281.75 3.20609 -2.73473 0
M  V30 3107 H 280.425 2.81038 -1.60621 0
M  V30 3108 H 279.332 1.42081 -3.46069 0
M  V30 3109 H 280.665 1.88755 -4.54568 0
M  V30 3110 N 282.317 1.53212 0.369288 0
M  V30 3111 C 283.733 1.42902 0.710712 0
M  V30 3112 C 283.933 0.565135 1.93413 0
M  V30 3113 O 282.989 0.0461484 2.52458 0
M  V30 3114 C 284.302 2.86042 0.927382 0
M  V30 3115 C 285.85 2.9565 1.02762 0
M  V30 3116 C 286.325 4.39843 1.27679 0
M  V30 3117 N 287.816 4.43256 1.34457 0
M  V30 3118 C 288.551 5.51929 1.55439 0
M  V30 3119 N 288.047 6.70655 1.73762 0
M  V30 3120 N 289.84 5.39502 1.57779 0
M  V30 3121 H 281.991 2.07888 -0.435457 0
M  V30 3122 H 284.254 0.938661 -0.132739 0
M  V30 3123 H 283.96 3.51557 0.100287 0
M  V30 3124 H 283.834 3.29472 1.83653 0
M  V30 3125 H 286.221 2.30291 1.84527 0
M  V30 3126 H 286.302 2.5562 0.0959504 0
M  V30 3127 H 285.946 5.05774 0.464175 0
M  V30 3128 H 285.876 4.77443 2.22162 0
M  V30 3129 H 288.367 3.5769 1.21926 0
M  V30 3130 H 288.68 7.49248 1.89335 0
M  V30 3131 H 287.025 6.73648 1.70948 0
M  V30 3132 H 290.216 4.45713 1.43029 0
M  V30 3133 H 290.389 6.2426 1.7379 0
M  V30 3134 N 283.795 -0.628877 1.44509 0
M  V30 3135 C 285.035 -1.39993 1.48934 0
M  V30 3136 C 285.399 -1.91627 0.119604 0
M  V30 3137 O 286.6 -2.68772 0.0385283 0
M  V30 3138 C 284.871 -2.53241 2.52198 0
M  V30 3139 S 286.43 -3.41383 2.75687 0
M  V30 3140 H 283.248 -0.477558 0.526744 0
M  V30 3141 H 285.85 -0.727804 1.81448 0
M  V30 3142 H 284.554 -2.13622 3.50419 0
M  V30 3143 H 284.085 -3.25278 2.21264 0
M  V30 3144 H 286.1 -4.50752 2.07453 0
M  V30 3145 N 285.273 -1.31445 -0.869486 0
M  V30 3146 C 286.52 -1.21158 -1.62256 0
M  V30 3147 C 286.848 0.230155 -1.93133 0
M  V30 3148 O 286.103 1.17906 -1.56194 0
M  V30 3149 C 286.402 -2.00145 -2.96102 0
M  V30 3150 C 286.068 -3.4964 -2.84715 0
M  V30 3151 C 284.73 -3.90403 -2.81317 0
M  V30 3152 C 287.082 -4.44769 -2.71716 0
M  V30 3153 C 284.41 -5.24561 -2.62778 0
M  V30 3154 C 286.762 -5.79054 -2.54714 0
M  V30 3155 C 285.426 -6.19037 -2.49699 0
M  V30 3156 H 284.696 -0.443348 -0.593737 0
M  V30 3157 H 287.343 -1.62715 -1.00976 0
M  V30 3158 H 285.648 -1.5127 -3.6142 0
M  V30 3159 H 287.345 -1.89566 -3.53363 0
M  V30 3160 H 283.935 -3.17256 -2.88178 0
M  V30 3161 H 288.119 -4.14208 -2.73397 0
M  V30 3162 H 283.375 -5.54613 -2.57321 0
M  V30 3163 H 287.549 -6.52393 -2.43632 0
M  V30 3164 H 285.176 -7.22935 -2.35093 0
M  V30 3165 N 286.751 1.08385 -1.14413 0
M  V30 3166 C 287.681 2.17321 -0.854044 0
M  V30 3167 C 288.662 1.69024 0.191049 0
M  V30 3168 O 289.847 1.94141 0.0476779 0
M  V30 3169 C 286.977 3.45719 -0.330983 0
M  V30 3170 C 285.931 4.07409 -1.31155 0
M  V30 3171 C 285.257 5.30762 -0.64778 0
M  V30 3172 C 286.557 4.48665 -2.67388 0
M  V30 3173 H 288.251 2.41845 -1.76498 0
M  V30 3174 H 285.797 1.16233 -0.850051 0
M  V30 3175 H 287.75 4.21241 -0.115645 0
M  V30 3176 H 286.474 3.2075 0.615381 0
M  V30 3177 H 285.133 3.33919 -1.51306 0
M  V30 3178 H 284.781 5.02078 0.304398 0
M  V30 3179 H 284.481 5.72992 -1.30207 0
M  V30 3180 H 286.005 6.08998 -0.441972 0
M  V30 3181 H 287.419 5.15364 -2.51143 0
M  V30 3182 H 285.816 5.01814 -3.29093 0
M  V30 3183 H 286.886 3.60543 -3.24248 0
M  V30 3184 N 288.23 0.939286 1.26551 0
M  V30 3185 C 289.14 0.453432 2.30176 0
M  V30 3186 C 290.156 -0.471649 1.67486 0
M  V30 3187 O 291.332 -0.35164 1.98306 0
M  V30 3188 C 288.397 -0.275326 3.45605 0
M  V30 3189 C 287.458 0.686084 4.23782 0
M  V30 3190 C 286.691 -0.00798994 5.33699 0
M  V30 3191 O 286.914 -1.22528 5.57085 0
M  V30 3192 O 285.848 0.669746 5.98162 0
M  V30 3193 H 289.674 1.31416 2.73795 0
M  V30 3194 H 287.259 0.705095 1.31715 0
M  V30 3195 H 289.141 -0.685911 4.1578 0
M  V30 3196 H 287.816 -1.11147 3.0402 0
M  V30 3197 H 286.723 1.14658 3.56096 0
M  V30 3198 H 288.056 1.48979 4.69112 0
M  V30 3199 N 289.708 -1.40897 0.706093 0
M  V30 3200 C 291.119 -1.84023 0.315052 0
M  V30 3201 C 291.47 -1.5906 -1.14866 0
M  V30 3202 O 290.595 -1.06651 -1.88293 0
M  V30 3203 C 291.19 -3.34055 0.565038 0
M  V30 3204 C 289.749 -3.7571 0.227806 0
M  V30 3205 C 288.896 -2.64204 0.842122 0
M  V30 3206 H 291.847 -1.303 0.905963 0
M  V30 3207 H 291.868 -3.80107 -0.172843 0
M  V30 3208 H 291.38 -3.52192 1.63042 0
M  V30 3209 H 289.481 -3.63172 -0.832895 0
M  V30 3210 H 289.594 -4.74103 0.690174 0
M  V30 3211 H 287.958 -2.53255 0.270893 0
M  V30 3212 H 288.741 -2.85155 1.91158 0
M  V30 3213 N 291.186 -0.45159 -1.50991 0
M  V30 3214 C 292.602 -0.104647 -1.59257 0
M  V30 3215 C 292.802 1.38728 -1.4614 0
M  V30 3216 O 291.858 2.15866 -1.30989 0
M  V30 3217 C 293.171 -0.637468 -2.93865 0
M  V30 3218 C 294.719 -0.599166 -3.07212 0
M  V30 3219 C 295.194 -1.1092 -4.44366 0
M  V30 3220 N 296.685 -1.06778 -4.50725 0
M  V30 3221 C 297.42 -1.43314 -5.55201 0
M  V30 3222 N 296.916 -1.87204 -6.67028 0
M  V30 3223 N 298.709 -1.3504 -5.45638 0
M  V30 3224 H 290.86 -1.42214 -1.57762 0
M  V30 3225 H 293.123 -0.586921 -0.744465 0
M  V30 3226 H 292.829 -1.68187 -3.08879 0
M  V30 3227 H 292.703 -0.0702139 -3.77135 0
M  V30 3228 H 295.09 0.436277 -2.91857 0
M  V30 3229 H 295.171 -1.20299 -2.25747 0
M  V30 3230 H 294.815 -2.14318 -4.60467 0
M  V30 3231 H 294.745 -0.481773 -5.24392 0
M  V30 3232 H 297.236 -0.745643 -3.70471 0
M  V30 3233 H 297.549 -2.13282 -7.42786 0
M  V30 3234 H 295.894 -1.91142 -6.68199 0
M  V30 3235 H 299.085 -1.00607 -4.57161 0
M  V30 3236 H 299.258 -1.63841 -6.26945 0
M  V30 3237 N 292.664 1.56529 -0.183458 0
M  V30 3238 C 293.627 2.17324 0.728223 0
M  V30 3239 C 294.627 1.12453 1.14939 0
M  V30 3240 O 295.817 1.37902 1.06437 0
M  V30 3241 C 292.949 2.76591 1.99274 0
M  V30 3242 H 294.142 2.99241 0.198772 0
M  V30 3243 H 291.695 1.5616 0.0661391 0
M  V30 3244 H 292.43 1.98441 2.56499 0
M  V30 3245 H 292.215 3.5335 1.69959 0
M  V30 3246 H 293.705 3.23311 2.6431 0
M  V30 3247 N 294.142 -0.090211 1.57342 0
M  V30 3248 C 295.558 -0.444547 1.53284 0
M  V30 3249 C 295.758 -1.80238 0.900914 0
M  V30 3250 O 294.814 -2.4759 0.495513 0
M  V30 3251 C 296.127 -0.402543 2.97993 0
M  V30 3252 C 297.675 -0.48405 3.09234 0
M  V30 3253 C 298.15 -0.472144 4.5556 0
M  V30 3254 N 299.641 -0.532757 4.60126 0
M  V30 3255 C 300.376 -0.545462 5.708 0
M  V30 3256 N 299.872 -0.514082 6.9089 0
M  V30 3257 N 301.665 -0.59064 5.58988 0
M  V30 3258 H 293.816 0.799121 1.96794 0
M  V30 3259 H 296.079 0.297965 0.899956 0
M  V30 3260 H 295.785 0.528106 3.47712 0
M  V30 3261 H 295.659 -1.21969 3.56936 0
M  V30 3262 H 298.046 -1.40512 2.595 0
M  V30 3263 H 298.127 0.361328 2.53235 0
M  V30 3264 H 297.771 0.445 5.05947 0
M  V30 3265 H 297.701 -1.3348 5.09402 0
M  V30 3266 H 300.192 -0.562006 3.73698 0
M  V30 3267 H 300.505 -0.527195 7.71 0
M  V30 3268 H 298.85 -0.481054 6.93333 0
M  V30 3269 H 302.041 -0.61272 4.64073 0
M  V30 3270 H 302.214 -0.597073 6.45243 0
M  V30 3271 N 295.62 -1.53406 -0.361157 0
M  V30 3272 C 296.867 -1.69802 -1.10333 0
M  V30 3273 C 297.195 -0.452087 -1.89173 0
M  V30 3274 O 296.45 0.566017 -1.87336 0
M  V30 3275 C 296.749 -2.90211 -2.08596 0
M  V30 3276 C 296.415 -4.26539 -1.46203 0
M  V30 3277 C 295.077 -4.6361 -1.28915 0
M  V30 3278 C 297.429 -5.113 -1.01101 0
M  V30 3279 C 294.757 -5.83075 -0.651157 0
M  V30 3280 C 297.109 -6.31415 -0.387007 0
M  V30 3281 C 295.773 -6.67195 -0.201657 0
M  V30 3282 H 295.043 -0.621351 -0.403737 0
M  V30 3283 H 297.69 -1.87598 -0.384609 0
M  V30 3284 H 295.995 -2.66946 -2.86788 0
M  V30 3285 H 297.692 -3.00091 -2.65982 0
M  V30 3286 H 294.282 -3.97352 -1.60653 0
M  V30 3287 H 298.466 -4.83206 -1.13249 0
M  V30 3288 H 293.722 -6.09385 -0.496006 0
M  V30 3289 H 297.896 -6.96394 -0.0293563 0
M  V30 3290 H 295.523 -7.59628 0.294766 0
M  V30 3291 N 297.098 0.621204 -1.44841 0
M  V30 3292 C 298.328 1.40548 -1.51426 0
M  V30 3293 C 298.736 1.88673 -0.141083 0
M  V30 3294 O 298.079 1.62053 0.865128 0
M  V30 3295 C 298.141 2.65325 -2.42576 0
M  V30 3296 C 297.805 2.3893 -3.89566 0
M  V30 3297 C 298.802 2.00138 -4.79834 0
M  V30 3298 C 296.487 2.52263 -4.3436 0
M  V30 3299 C 298.481 1.75021 -6.129 0
M  V30 3300 C 296.168 2.2676 -5.67471 0
M  V30 3301 C 297.166 1.88199 -6.56559 0
M  V30 3302 O 296.854 1.62986 -7.87204 0
M  V30 3303 H 296.586 0.437122 -0.515655 0
M  V30 3304 H 299.14 0.765987 -1.90583 0
M  V30 3305 H 297.37 3.31947 -1.98364 0
M  V30 3306 H 299.059 3.27347 -2.39998 0
M  V30 3307 H 299.825 1.89386 -4.46495 0
M  V30 3308 H 295.704 2.81246 -3.65269 0
M  V30 3309 H 299.248 1.44848 -6.82396 0
M  V30 3310 H 295.145 2.37125 -6.00368 0
M  V30 3311 H 295.913 1.7715 -7.991 0
M  V30 3312 N 298.576 1.31904 0.862503 0
M  V30 3313 C 299.539 1.20131 1.95195 0
M  V30 3314 C 300.539 0.126409 1.60302 0
M  V30 3315 O 301.729 0.376234 1.70089 0
M  V30 3316 C 298.861 0.845691 3.30244 0
M  V30 3317 H 300.054 2.16943 2.07064 0
M  V30 3318 H 297.607 1.15622 1.05172 0
M  V30 3319 H 298.342 -0.120957 3.24074 0
M  V30 3320 H 298.127 1.62276 3.56944 0
M  V30 3321 H 299.617 0.787418 4.10109 0
M  V30 3322 N 300.054 -1.07777 1.14986 0
M  V30 3323 C 301.017 -2.13041 0.845358 0
M  V30 3324 C 302.017 -1.60071 -0.152931 0
M  V30 3325 O 303.207 -1.74033 0.0761879 0
M  V30 3326 C 300.339 -3.39896 0.261383 0
M  V30 3327 H 301.532 -2.41485 1.77834 0
M  V30 3328 H 299.085 -1.23595 0.956757 0
M  V30 3329 H 299.82 -3.17091 -0.68 0
M  V30 3330 H 299.605 -3.79642 0.980514 0
M  V30 3331 H 301.095 -4.17548 0.0657687 0
M  V30 3332 N 301.532 -0.945985 -1.26051 0
M  V30 3333 C 302.442 -0.465633 -2.29933 0
M  V30 3334 C 303.458 0.462761 -1.67733 0
M  V30 3335 O 304.634 0.341118 -1.9849 0
M  V30 3336 C 301.699 0.256994 -3.45746 0
M  V30 3337 C 300.76 -0.708549 -4.23412 0
M  V30 3338 C 299.993 -0.0203135 -5.33696 0
M  V30 3339 O 300.216 1.19571 -5.57726 0
M  V30 3340 O 299.15 -0.701459 -5.97799 0
M  V30 3341 H 302.976 -1.32866 -2.73094 0
M  V30 3342 H 300.561 -0.712071 -1.31339 0
M  V30 3343 H 302.443 0.663852 -4.16138 0
M  V30 3344 H 301.118 1.09533 -3.04605 0
M  V30 3345 H 300.025 -1.16545 -3.55483 0
M  V30 3346 H 301.358 -1.51465 -4.68315 0
M  V30 3347 N 303.011 1.40521 -0.713556 0
M  V30 3348 C 304.26 2.00155 -0.249192 0
M  V30 3349 C 304.573 1.57224 1.16362 0
M  V30 3350 O 305.779 2.09542 1.72639 0
M  V30 3351 C 304.235 3.5773 -0.3946 0
M  V30 3352 C 303.843 4.09635 -1.81392 0
M  V30 3353 C 305.587 4.24499 0.00907364 0
M  V30 3354 C 303.494 5.59707 -1.91003 0
M  V30 3355 H 302.424 0.74868 -0.0894114 0
M  V30 3356 H 305.075 1.60784 -0.884352 0
M  V30 3357 H 303.457 3.94792 0.30911 0
M  V30 3358 H 304.631 3.83955 -2.54785 0
M  V30 3359 H 302.946 3.55456 -2.16888 0
M  V30 3360 H 305.543 5.34683 -0.0420404 0
M  V30 3361 H 305.886 4.02824 1.05065 0
M  V30 3362 H 306.419 3.92536 -0.645007 0
M  V30 3363 H 303.158 5.86234 -2.93275 0
M  V30 3364 H 302.678 5.87258 -1.22019 0
M  V30 3365 H 304.357 6.24776 -1.6812 0
M  V30 3366 N 304.489 0.459591 1.5075 0
M  V30 3367 C 305.452 -0.329093 2.26825 0
M  V30 3368 C 306.452 -0.930481 1.31144 0
M  V30 3369 O 307.642 -0.801453 1.54669 0
M  V30 3370 C 304.774 -1.46768 3.07688 0
M  V30 3371 H 305.967 0.337924 2.9799 0
M  V30 3372 H 303.52 0.213336 1.54837 0
M  V30 3373 H 304.255 -2.17009 2.40993 0
M  V30 3374 H 304.04 -1.04238 3.77991 0
M  V30 3375 H 305.53 -2.02433 3.65254 0
M  V30 3376 N 305.967 -1.56429 0.191757 0
M  V30 3377 C 307.192 -2.02309 -0.456706 0
M  V30 3378 C 307.617 -1.07103 -1.5463 0
M  V30 3379 O 306.975 -0.0539677 -1.8122 0
M  V30 3380 C 307.023 -3.46654 -0.993159 0
M  V30 3381 O 306.127 -3.54559 -2.10622 0
M  V30 3382 H 305.468 -0.655303 -0.107114 0
M  V30 3383 H 307.998 -2.02364 0.301653 0
M  V30 3384 H 308.008 -3.86377 -1.31061 0
M  V30 3385 H 306.683 -4.1544 -0.195504 0
M  V30 3386 H 305.26 -3.26708 -1.79767 0
M  V30 3387 N 307.445 0.0818655 -1.57387 0
M  V30 3388 C 308.408 1.08265 -2.02018 0
M  V30 3389 C 309.408 1.32183 -0.915664 0
M  V30 3390 O 310.598 1.28073 -1.18081 0
M  V30 3391 C 307.73 2.42871 -2.39221 0
M  V30 3392 H 308.923 0.698204 -2.91659 0
M  V30 3393 H 306.476 0.327303 -1.52835 0
M  V30 3394 H 307.211 2.86167 -1.52575 0
M  V30 3395 H 306.996 2.26855 -3.19811 0
M  V30 3396 H 308.486 3.14826 -2.74362 0
M  V30 3397 N 308.923 1.53595 0.353017 0
M  V30 3398 C 309.853 1.83902 1.43883 0
M  V30 3399 C 310.834 0.693421 1.55324 0
M  V30 3400 O 312.019 0.944452 1.69687 0
M  V30 3401 C 309.149 2.04016 2.8106 0
M  V30 3402 C 308.103 3.19814 2.84434 0
M  V30 3403 C 307.429 3.25244 4.24406 0
M  V30 3404 C 308.729 4.58133 2.50822 0
M  V30 3405 H 310.423 2.74835 1.1877 0
M  V30 3406 H 307.969 1.32242 0.569917 0
M  V30 3407 H 309.922 2.238 3.57059 0
M  V30 3408 H 308.646 1.09804 3.07588 0
M  V30 3409 H 307.305 2.9987 2.10887 0
M  V30 3410 H 306.953 2.28646 4.48029 0
M  V30 3411 H 306.653 4.03054 4.27576 0
M  V30 3412 H 308.177 3.47228 5.0226 0
M  V30 3413 H 309.591 4.77995 3.16534 0
M  V30 3414 H 307.988 5.38276 2.6529 0
M  V30 3415 H 309.058 4.62387 1.46034 0
M  V30 3416 N 310.401 -0.613514 1.45168 0
M  V30 3417 C 311.649 -1.36997 1.48581 0
M  V30 3418 C 311.97 -1.94589 0.126545 0
M  V30 3419 O 311.24 -1.76816 -0.843372 0
M  V30 3420 H 309.82 -0.508558 0.547154 0
M  V30 3421 H 312.482 -0.720853 1.81079 0
M  V30 3422 H 311.578 -2.1924 2.22127 0
M  V30 3423 N 311.879 -1.3236 -0.855495 0
M  V30 3424 C 313.109 -1.25688 -1.6397 0
M  V30 3425 C 313.517 0.177592 -1.88365 0
M  V30 3426 O 312.86 1.12485 -1.45234 0
M  V30 3427 C 312.922 -1.94602 -3.02275 0
M  V30 3428 C 312.586 -3.43937 -3.00926 0
M  V30 3429 C 313.583 -4.39435 -2.77835 0
M  V30 3430 C 311.268 -3.85858 -3.21588 0
M  V30 3431 C 313.262 -5.74829 -2.75409 0
M  V30 3432 C 310.949 -5.21361 -3.18789 0
M  V30 3433 C 311.947 -6.15658 -2.95727 0
M  V30 3434 O 311.635 -7.48681 -2.928 0
M  V30 3435 H 311.367 -0.434972 -0.51747 0
M  V30 3436 H 313.921 -1.75023 -1.075 0
M  V30 3437 H 312.151 -1.39836 -3.60531 0
M  V30 3438 H 313.84 -1.81651 -3.62985 0
M  V30 3439 H 314.606 -4.08374 -2.6164 0
M  V30 3440 H 310.485 -3.12883 -3.38564 0
M  V30 3441 H 314.029 -6.48404 -2.57328 0
M  V30 3442 H 309.926 -5.52052 -3.34528 0
M  V30 3443 H 310.694 -7.5803 -3.0876 0
M  V30 3444 N 313.357 1.07166 -1.15556 0
M  V30 3445 C 314.287 2.16403 -0.877046 0
M  V30 3446 C 315.268 1.69217 0.173111 0
M  V30 3447 O 316.453 1.94181 0.027084 0
M  V30 3448 C 313.583 3.45349 -0.367632 0
M  V30 3449 C 312.537 4.05995 -1.35468 0
M  V30 3450 C 311.863 5.30045 -0.704038 0
M  V30 3451 C 313.163 4.45804 -2.72132 0
M  V30 3452 H 314.857 2.39959 -1.79053 0
M  V30 3453 H 312.403 1.15325 -0.862331 0
M  V30 3454 H 314.356 4.21095 -0.160317 0
M  V30 3455 H 313.08 3.21385 0.581326 0
M  V30 3456 H 311.739 3.32296 -1.54839 0
M  V30 3457 H 311.387 5.02373 0.251128 0
M  V30 3458 H 311.087 5.71579 -1.36277 0
M  V30 3459 H 312.611 6.08495 -0.50654 0
M  V30 3460 H 314.025 5.12671 -2.56595 0
M  V30 3461 H 312.422 4.98296 -3.34397 0
M  V30 3462 H 313.492 3.57083 -3.28054 0
M  V30 3463 N 314.835 0.952656 1.25548 0
M  V30 3464 C 315.785 0.442033 2.23674 0
M  V30 3465 C 316.769 -0.467632 1.53955 0
M  V30 3466 O 317.961 -0.301006 1.74422 0
M  V30 3467 C 315.09 -0.280816 3.4215 0
M  V30 3468 C 314.176 0.646803 4.19139 0
M  V30 3469 N 314.567 1.77759 4.73535 0
M  V30 3470 C 312.865 0.454617 4.43677 0
M  V30 3471 C 313.566 2.35658 5.31827 0
M  V30 3472 N 312.542 1.64333 5.18166 0
M  V30 3473 H 316.344 1.30505 2.63336 0
M  V30 3474 H 313.858 0.809904 1.40763 0
M  V30 3475 H 315.855 -0.663747 4.11582 0
M  V30 3476 H 314.515 -1.14046 3.04012 0
M  V30 3477 H 315.526 2.15949 4.7073 0
M  V30 3478 H 312.203 -0.362312 4.15925 0
M  V30 3479 H 313.593 3.30998 5.84713 0
M  V30 3480 N 316.313 -1.40141 0.720998 0
M  V30 3481 C 317.538 -2.05618 0.271258 0
M  V30 3482 C 317.963 -1.53978 -1.08039 0
M  V30 3483 O 317.321 -0.677463 -1.68167 0
M  V30 3484 C 317.369 -3.59609 0.267197 0
M  V30 3485 O 316.473 -4.05526 -0.749814 0
M  V30 3486 H 315.814 -0.651904 0.126162 0
M  V30 3487 H 318.344 -1.79439 0.982997 0
M  V30 3488 H 318.354 -4.0786 0.106744 0
M  V30 3489 H 317.029 -3.96559 1.25354 0
M  V30 3490 H 315.606 -3.68722 -0.556644 0
M  V30 3491 N 317.792 -0.46758 -1.50504 0
M  V30 3492 C 318.722 0.318381 -2.31319 0
M  V30 3493 C 319.703 0.993564 -1.38066 0
M  V30 3494 O 320.888 0.991411 -1.66987 0
M  V30 3495 C 318.018 1.40275 -3.17711 0
M  V30 3496 C 316.972 0.849373 -4.19487 0
M  V30 3497 C 316.298 2.03177 -4.94594 0
M  V30 3498 C 317.598 -0.136942 -5.2212 0
M  V30 3499 H 319.292 -0.356106 -2.97275 0
M  V30 3500 H 316.838 -0.172703 -1.42961 0
M  V30 3501 H 318.791 1.96004 -3.73042 0
M  V30 3502 H 317.515 2.10596 -2.49634 0
M  V30 3503 H 316.174 0.314076 -3.65252 0
M  V30 3504 H 315.822 2.72187 -4.22993 0
M  V30 3505 H 315.522 1.66774 -5.63436 0
M  V30 3506 H 317.046 2.59403 -5.52759 0
M  V30 3507 H 318.46 0.331056 -5.72343 0
M  V30 3508 H 316.857 -0.41507 -5.98663 0
M  V30 3509 H 317.927 -1.06398 -4.73083 0
M  V30 3510 N 319.27 1.56325 -0.20005 0
M  V30 3511 C 320.218 2.20666 0.735482 0
M  V30 3512 C 321.212 1.17934 1.21605 0
M  V30 3513 O 322.418 1.36068 1.17837 0
M  V30 3514 H 318.793 0.70725 0.255542 0
M  V30 3515 H 320.764 2.9792 0.169166 0
M  V30 3516 C 319.513 2.88391 1.94232 0
M  V30 3517 H 318.836 3.67185 1.58161 0
M  V30 3518 H 320.276 3.3684 2.57517 0
M  V30 3519 C 318.735 1.89692 2.78421 0
M  V30 3520 O 319.265 1.40032 3.76502 0
M  V30 3521 N 317.471 1.57813 2.44015 0
M  V30 3522 H 317.018 1.9839 1.64314 0
M  V30 3523 H 316.976 0.920325 3.00628 0
M  V30 3524 N 320.748 -0.0735177 1.57428 0
M  V30 3525 C 321.997 -0.771809 1.86349 0
M  V30 3526 C 322.31 -1.78828 0.792452 0
M  V30 3527 O 323.516 -2.53602 0.96945 0
M  V30 3528 C 321.972 -1.42358 3.30548 0
M  V30 3529 C 321.58 -0.445761 4.45777 0
M  V30 3530 C 323.324 -2.10434 3.6867 0
M  V30 3531 C 321.231 -1.10335 5.81016 0
M  V30 3532 H 320.161 -0.291999 0.695164 0
M  V30 3533 H 322.812 -0.0250749 1.83483 0
M  V30 3534 H 321.194 -2.21852 3.28021 0
M  V30 3535 H 322.368 0.319239 4.59693 0
M  V30 3536 H 320.683 0.130457 4.16196 0
M  V30 3537 H 323.28 -2.60405 4.67004 0
M  V30 3538 H 323.623 -2.90298 2.98383 0
M  V30 3539 H 324.156 -1.37773 3.7318 0
M  V30 3540 H 320.895 -0.345061 6.54591 0
M  V30 3541 H 320.415 -1.83925 5.70904 0
M  V30 3542 H 322.094 -1.62367 6.26295 0
M  V30 3543 N 322.226 -1.5378 -0.344866 0
M  V30 3544 C 323.472 -1.71216 -1.08687 0
M  V30 3545 C 323.805 -0.473281 -1.88345 0
M  V30 3546 O 323.08 0.52968 -1.87149 0
M  V30 3547 C 323.363 -2.97486 -2.02914 0
M  V30 3548 C 323.216 -4.31579 -1.26727 0
M  V30 3549 C 324.535 -3.19422 -3.0275 0
M  V30 3550 H 321.654 -0.62301 -0.393735 0
M  V30 3551 H 324.296 -1.8645 -0.365563 0
M  V30 3552 H 322.446 -2.84629 -2.64421 0
M  V30 3553 H 324.118 -4.56284 -0.67845 0
M  V30 3554 H 322.361 -4.30049 -0.569273 0
M  V30 3555 H 323.032 -5.16106 -1.95803 0
M  V30 3556 H 325.508 -3.316 -2.51357 0
M  V30 3557 H 324.384 -4.09169 -3.65885 0
M  V30 3558 H 324.645 -2.35656 -3.74057 0
M  V30 3559 N 323.704 0.605807 -1.45491 0
M  V30 3560 C 324.934 1.38934 -1.52908 0
M  V30 3561 C 325.342 1.88513 -0.161086 0
M  V30 3562 O 324.685 1.62962 0.847891 0
M  V30 3563 C 324.747 2.62737 -2.45376 0
M  V30 3564 C 324.411 2.34785 -3.92078 0
M  V30 3565 C 325.408 1.95038 -4.8193 0
M  V30 3566 C 323.093 2.47642 -4.37011 0
M  V30 3567 C 325.087 1.68511 -6.14722 0
M  V30 3568 C 322.774 2.20728 -5.69844 0
M  V30 3569 C 323.772 1.81225 -6.58519 0
M  V30 3570 O 323.46 1.54627 -7.88889 0
M  V30 3571 H 323.192 0.431629 -0.520262 0
M  V30 3572 H 325.746 0.74573 -1.91384 0
M  V30 3573 H 323.976 3.29824 -2.01874 0
M  V30 3574 H 325.665 3.24783 -2.43456 0
M  V30 3575 H 326.431 1.84639 -4.48479 0
M  V30 3576 H 322.31 2.77356 -3.68232 0
M  V30 3577 H 325.854 1.37602 -6.83894 0
M  V30 3578 H 321.751 2.30744 -6.02849 0
M  V30 3579 H 322.519 1.68665 -8.00933 0
M  V30 3580 N 325.182 1.32811 0.848464 0
M  V30 3581 C 326.598 1.11937 1.13764 0
M  V30 3582 C 326.798 -0.0960789 2.01271 0
M  V30 3583 O 325.854 -0.779165 2.40178 0
M  V30 3584 C 327.167 2.402 1.809 0
M  V30 3585 C 328.715 2.46016 1.93508 0
M  V30 3586 C 329.19 3.74215 2.64059 0
M  V30 3587 N 330.681 3.75232 2.71579 0
M  V30 3588 C 331.416 4.71134 3.26833 0
M  V30 3589 N 330.912 5.77406 3.8285 0
M  V30 3590 N 332.705 4.58623 3.24995 0
M  V30 3591 H 324.856 2.1073 0.265855 0
M  V30 3592 H 327.119 0.930671 0.180431 0
M  V30 3593 H 326.825 3.29093 1.24058 0
M  V30 3594 H 326.699 2.51628 2.81004 0
M  V30 3595 H 329.086 1.57577 2.49506 0
M  V30 3596 H 329.167 2.38536 0.923811 0
M  V30 3597 H 328.811 4.63031 2.08722 0
M  V30 3598 H 328.741 3.78968 3.65637 0
M  V30 3599 H 331.232 2.98423 2.31845 0
M  V30 3600 H 331.545 6.46632 4.23187 0
M  V30 3601 H 329.89 5.81152 3.81165 0
M  V30 3602 H 333.081 3.74762 2.80484 0
M  V30 3603 H 333.254 5.33535 3.67756 0
M  V30 3604 N 326.66 -1.06551 1.16123 0
M  V30 3605 C 327.937 -1.76097 0.85142 0
M  V30 3606 C 328.317 -2.00802 -0.6513 0
M  V30 3607 O 327.665 -1.63302 -1.59827 0
M  V30 3608 C 327.875 -3.06384 1.67122 0
M  V30 3609 C 329.223 -3.80585 1.88255 0
M  V30 3610 O 330.247 -3.16218 1.63966 0
M  V30 3611 O 329.106 -4.96212 2.2899 0
M  V30 3612 H 326.2 -0.765102 0.313923 0
M  V30 3613 H 328.746 -1.12844 1.26745 0
M  V30 3614 H 327.518 -2.84071 2.69108 0
M  V30 3615 H 327.141 -3.77371 1.25206 0
M  V30 3616 N 328.138 -0.959301 -1.25041 0
M  V30 3617 C 329.068 -0.501388 -2.28053 0
M  V30 3618 C 330.049 0.454673 -1.63911 0
M  V30 3619 O 331.234 0.352618 -1.90972 0
M  V30 3620 C 328.364 0.217224 -3.4662 0
M  V30 3621 C 327.318 -0.654034 -4.22973 0
M  V30 3622 C 326.644 0.195589 -5.34342 0
M  V30 3623 C 327.944 -1.93447 -4.85155 0
M  V30 3624 H 329.638 -1.36238 -2.66608 0
M  V30 3625 H 327.184 -0.656534 -1.28163 0
M  V30 3626 H 329.137 0.548732 -4.17812 0
M  V30 3627 H 327.861 1.1125 -3.07068 0
M  V30 3628 H 326.52 -0.968693 -3.5357 0
M  V30 3629 H 326.168 1.09076 -4.91031 0
M  V30 3630 H 325.868 -0.384091 -5.86343 0
M  V30 3631 H 327.392 0.521958 -6.08365 0
M  V30 3632 H 328.806 -1.66908 -5.48466 0
M  V30 3633 H 327.203 -2.46018 -5.47353 0
M  V30 3634 H 328.273 -2.63466 -4.07079 0
M  V30 3635 N 329.616 1.39756 -0.72842 0
M  V30 3636 C 330.563 2.30647 -0.0841519 0
M  V30 3637 C 331.533 1.48869 0.7367 0
M  V30 3638 O 332.718 1.77574 0.698015 0
M  V30 3639 C 329.858 3.35165 0.822091 0
M  V30 3640 C 328.971 4.31999 -0.0106663 0
M  V30 3641 C 328.106 5.23585 0.896241 0
M  V30 3642 C 327.145 6.12072 0.0583381 0
M  V30 3643 N 326.282 6.96035 0.920818 0
M  V30 3644 H 331.122 2.85173 -0.864891 0
M  V30 3645 H 328.659 1.40422 -0.438179 0
M  V30 3646 H 330.617 3.94345 1.36189 0
M  V30 3647 H 329.247 2.8211 1.56888 0
M  V30 3648 H 328.299 3.74492 -0.66781 0
M  V30 3649 H 329.611 4.9443 -0.658825 0
M  V30 3650 H 328.765 5.87759 1.50412 0
M  V30 3651 H 327.504 4.61459 1.57819 0
M  V30 3652 H 326.509 5.46916 -0.562389 0
M  V30 3653 H 327.734 6.76261 -0.6203 0
M  V30 3654 H 325.68 6.36485 1.58818 0
M  V30 3655 H 325.597 7.55284 0.32899 0
M  V30 3656 H 326.865 7.64646 1.51447 0
M  V30 3657 N 331.094 0.475555 1.50254 0
M  V30 3658 C 332.505 0.0215174 1.86688 0
M  V30 3659 C 332.856 -1.38467 1.39001 0
M  V30 3660 O 331.981 -2.02732 0.756894 0
M  V30 3661 C 332.576 0.0322715 3.38785 0
M  V30 3662 C 331.135 -0.366314 3.74613 0
M  V30 3663 C 330.282 0.415832 2.74164 0
M  V30 3664 H 333.233 0.689612 1.42934 0
M  V30 3665 H 333.254 -0.76889 3.7265 0
M  V30 3666 H 332.766 1.05584 3.73462 0
M  V30 3667 H 330.867 -1.39406 3.45538 0
M  V30 3668 H 330.98 -0.064555 4.79057 0
M  V30 3669 H 329.344 -0.131048 2.54363 0
M  V30 3670 H 330.127 1.43899 3.11686 0
M  V30 3671 N 332.573 -1.56217 0.208337 0
M  V30 3672 C 333.483 -2.23316 -0.718836 0
M  V30 3673 C 334.499 -1.23648 -1.22422 0
M  V30 3674 O 335.675 -1.56423 -1.26861 0
M  V30 3675 C 332.74 -2.88968 -1.91568 0
M  V30 3676 C 331.801 -4.03943 -1.45357 0
M  V30 3677 C 331.034 -4.66455 -2.59337 0
M  V30 3678 O 331.257 -4.27919 -3.77149 0
M  V30 3679 O 330.191 -5.55686 -2.31293 0
M  V30 3680 H 334.017 -3.03182 -0.177315 0
M  V30 3681 H 331.602 -1.49384 -0.0215402 0
M  V30 3682 H 333.484 -3.30455 -2.61491 0
M  V30 3683 H 332.159 -2.12071 -2.44556 0
M  V30 3684 H 331.066 -3.67052 -0.722746 0
M  V30 3685 H 332.399 -4.82543 -0.970219 0
M  V30 3686 N 334.051 0.0651679 -1.57465 0
M  V30 3687 C 334.999 1.09542 -2.05191 0
M  V30 3688 C 335.993 1.39675 -0.958509 0
M  V30 3689 O 337.199 1.39003 -1.14359 0
M  V30 3690 H 333.574 0.370623 -0.654326 0
M  V30 3691 H 335.545 0.666802 -2.90854 0
M  V30 3692 C 334.294 2.39881 -2.51699 0
M  V30 3693 H 333.617 2.17547 -3.3543 0
M  V30 3694 H 335.057 3.104 -2.88839 0
M  V30 3695 C 333.516 3.0631 -1.40271 0
M  V30 3696 O 334.046 3.94664 -0.748523 0
M  V30 3697 N 332.252 2.67041 -1.14618 0
M  V30 3698 H 331.799 1.95281 -1.67997 0
M  V30 3699 H 331.757 3.1181 -0.402688 0
M  V30 3700 N 335.529 1.53961 0.336706 0
M  V30 3701 C 336.778 1.70751 1.07363 0
M  V30 3702 C 337.091 0.481061 1.89592 0
M  V30 3703 O 338.297 0.530046 2.66276 0
M  V30 3704 C 336.753 3.01965 1.95818 0
M  V30 3705 C 336.361 4.31971 1.18764 0
M  V30 3706 C 338.105 3.28121 2.69327 0
M  V30 3707 C 336.012 5.54255 2.06289 0
M  V30 3708 H 334.942 0.636292 0.404535 0
M  V30 3709 H 337.593 1.80459 0.332681 0
M  V30 3710 H 335.975 2.86132 2.7376 0
M  V30 3711 H 337.149 4.5853 0.456849 0
M  V30 3712 H 335.464 4.12481 0.569946 0
M  V30 3713 H 338.061 4.16673 3.35094 0
M  V30 3714 H 338.404 2.45426 3.36261 0
M  V30 3715 H 338.937 3.44762 1.98454 0
M  V30 3716 H 335.676 6.39513 1.43885 0
M  V30 3717 H 335.196 5.31935 2.77138 0
M  V30 3718 H 336.875 5.90159 2.65182 0
M  V30 3719 N 337.007 -0.598083 1.45811 0
M  V30 3720 C 337.937 -1.71873 1.58057 0
M  V30 3721 C 338.918 -1.64533 0.431615 0
M  V30 3722 O 340.103 -1.82787 0.65595 0
M  V30 3723 C 337.233 -3.10495 1.55597 0
M  V30 3724 C 336.187 -3.32654 2.69305 0
M  V30 3725 C 335.513 -4.71646 2.51902 0
M  V30 3726 C 336.813 -3.21981 4.11248 0
M  V30 3727 H 338.507 -1.61881 2.51863 0
M  V30 3728 H 336.053 -0.777372 1.21214 0
M  V30 3729 H 338.006 -3.88699 1.6276 0
M  V30 3730 H 336.73 -3.2135 0.583255 0
M  V30 3731 H 335.389 -2.56843 2.61586 0
M  V30 3732 H 335.037 -4.79246 1.52748 0
M  V30 3733 H 334.737 -4.87426 3.2816 0
M  V30 3734 H 336.261 -5.52038 2.60933 0
M  V30 3735 H 337.675 -3.90049 4.20161 0
M  V30 3736 H 336.072 -3.49289 4.87972 0
M  V30 3737 H 337.142 -2.1928 4.32486 0
M  V30 3738 N 338.485 -1.33259 -0.841409 0
M  V30 3739 C 339.415 -1.25926 -1.96634 0
M  V30 3740 C 340.396 -0.140349 -1.6952 0
M  V30 3741 O 341.581 -0.329707 -1.91381 0
M  V30 3742 C 338.711 -0.99512 -3.32738 0
M  V30 3743 C 337.665 -2.0767 -3.74242 0
M  V30 3744 C 336.991 -1.66474 -5.08125 0
M  V30 3745 C 338.291 -3.49318 -3.88297 0
M  V30 3746 H 339.985 -2.20046 -2.03027 0
M  V30 3747 H 337.531 -1.05931 -0.975425 0
M  V30 3748 H 339.484 -0.930323 -4.11002 0
M  V30 3749 H 338.208 -0.0183004 -3.26595 0
M  V30 3750 H 336.867 -2.13187 -2.98239 0
M  V30 3751 H 336.515 -0.675012 -4.9845 0
M  V30 3752 H 336.215 -2.3885 -5.36865 0
M  V30 3753 H 337.739 -1.61455 -5.88867 0
M  V30 3754 H 339.153 -3.46316 -4.56879 0
M  V30 3755 H 337.55 -4.20158 -4.28471 0
M  V30 3756 H 338.62 -3.8801 -2.9082 0
M  V30 3757 N 339.963 1.05934 -1.16686 0
M  V30 3758 C 341.24 1.75643 -0.860747 0
M  V30 3759 C 341.62 2.01144 0.640641 0
M  V30 3760 O 340.968 1.64147 1.58959 0
M  V30 3761 C 341.178 3.05493 -1.68745 0
M  V30 3762 C 342.526 3.79581 -1.90271 0
M  V30 3763 O 343.55 3.15344 -1.65641 0
M  V30 3764 O 342.409 4.9499 -2.31618 0
M  V30 3765 H 339.503 0.763426 -0.317977 0
M  V30 3766 H 342.049 1.1217 -1.27342 0
M  V30 3767 H 340.821 2.8264 -2.70611 0
M  V30 3768 H 340.444 3.76702 -1.27206 0
M  V30 3769 N 341.441 0.965919 1.2453 0
M  V30 3770 C 342.666 0.643971 1.97149 0
M  V30 3771 C 343.091 -0.779487 1.71189 0
M  V30 3772 O 342.449 -1.5288 0.974553 0
M  V30 3773 C 342.497 0.922557 3.48599 0
M  V30 3774 O 341.601 0.00707672 4.12399 0
M  V30 3775 H 340.942 0.243647 0.617683 0
M  V30 3776 H 343.472 1.29558 1.58353 0
M  V30 3777 H 343.482 0.853373 3.98976 0
M  V30 3778 H 342.157 1.95996 3.66822 0
M  V30 3779 H 340.734 0.12943 3.72675 0
M  V30 3780 N 342.919 -1.39368 0.735821 0
M  V30 3781 C 343.851 -2.2913 0.0567723 0
M  V30 3782 C 344.864 -1.46859 -0.702589 0
M  V30 3783 O 346.053 -1.69925 -0.546616 0
M  V30 3784 C 343.153 -3.25492 -0.943823 0
M  V30 3785 C 342.326 -4.36709 -0.24581 0
M  V30 3786 C 341.385 -5.13376 -1.15463 0
M  V30 3787 O 340.411 -5.65683 -0.631803 0
M  V30 3788 N 341.613 -5.24656 -2.48427 0
M  V30 3789 H 344.378 -2.88047 0.827582 0
M  V30 3790 H 341.939 -1.50957 0.585112 0
M  V30 3791 H 343.931 -3.73657 -1.55443 0
M  V30 3792 H 342.501 -2.676 -1.61583 0
M  V30 3793 H 341.721 -3.9041 0.545286 0
M  V30 3794 H 343.009 -5.08244 0.237891 0
M  V30 3795 H 342.407 -4.83679 -2.93379 0
M  V30 3796 H 340.964 -5.76258 -3.04582 0
M  V30 3797 N 344.397 -0.483516 -1.5 0
M  V30 3798 C 345.645 0.067027 -2.01989 0
M  V30 3799 C 345.966 1.3909 -1.36671 0
M  V30 3800 O 345.236 1.88978 -0.516152 0
M  V30 3801 H 343.816 0.0277606 -0.746484 0
M  V30 3802 H 346.478 -0.636773 -1.84204 0
M  V30 3803 H 345.574 0.209484 -3.11396 0
M  V30 3804 N 345.875 1.56104 -0.216619 0
M  V30 3805 C 346.825 2.16703 0.708798 0
M  V30 3806 C 347.809 1.11392 1.16106 0
M  V30 3807 O 349.001 1.37395 1.11587 0
M  V30 3808 C 346.13 2.84666 1.91886 0
M  V30 3809 C 345.216 3.97195 1.48651 0
M  V30 3810 N 345.607 4.99959 0.766434 0
M  V30 3811 C 343.905 4.09193 1.77418 0
M  V30 3812 C 344.606 5.79126 0.546659 0
M  V30 3813 N 343.582 5.32315 1.10188 0
M  V30 3814 H 347.384 2.93516 0.150162 0
M  V30 3815 H 344.898 1.6239 -0.0176768 0
M  V30 3816 H 346.895 3.26486 2.59253 0
M  V30 3817 H 345.555 2.09347 2.48202 0
M  V30 3818 H 346.566 5.16197 0.419634 0
M  V30 3819 H 343.243 3.45021 2.35088 0
M  V30 3820 H 344.633 6.71895 -0.026103 0
M  V30 3821 N 347.353 -0.0568162 1.57498 0
M  V30 3822 C 348.602 -0.752001 1.87157 0
M  V30 3823 C 348.915 -1.77978 0.811375 0
M  V30 3824 O 350.121 -2.52559 0.996293 0
M  V30 3825 C 348.577 -1.38844 3.3204 0
M  V30 3826 C 348.185 -0.398456 4.46225 0
M  V30 3827 C 349.929 -2.06512 3.70882 0
M  V30 3828 C 347.836 -1.04166 5.82154 0
M  V30 3829 H 346.766 -0.28461 0.698222 0
M  V30 3830 H 349.417 -0.00561272 1.83499 0
M  V30 3831 H 347.799 -2.1836 3.30356 0
M  V30 3832 H 348.973 0.367977 4.59328 0
M  V30 3833 H 347.288 0.174592 4.16034 0
M  V30 3834 H 349.885 -2.55437 4.6974 0
M  V30 3835 H 350.228 -2.87117 3.01445 0
M  V30 3836 H 350.761 -1.33808 3.7462 0
M  V30 3837 H 347.5 -0.275614 6.5492 0
M  V30 3838 H 347.02 -1.7786 5.72823 0
M  V30 3839 H 348.699 -1.55715 6.27982 0
M  V30 3840 N 348.832 -1.54138 -0.328536 0
M  V30 3841 C 350.078 -1.7236 -1.06865 0
M  V30 3842 C 350.411 -0.493231 -1.87832 0
M  V30 3843 O 349.686 0.5098 -1.877 0
M  V30 3844 C 349.969 -2.99621 -1.99747 0
M  V30 3845 C 349.822 -4.32899 -1.22143 0
M  V30 3846 C 351.141 -3.22615 -2.99345 0
M  V30 3847 H 348.26 -0.627151 -0.387105 0
M  V30 3848 H 350.902 -1.86827 -0.345767 0
M  V30 3849 H 349.052 -2.87418 -2.61387 0
M  V30 3850 H 350.724 -4.56978 -0.630017 0
M  V30 3851 H 348.967 -4.30628 -0.523628 0
M  V30 3852 H 349.638 -5.18154 -1.90318 0
M  V30 3853 H 352.114 -3.34248 -2.47826 0
M  V30 3854 H 350.99 -4.13027 -3.61524 0
M  V30 3855 H 351.251 -2.3961 -3.71536 0
M  V30 3856 N 350.31 0.590341 -1.46126 0
M  V30 3857 C 351.24 1.71032 -1.58966 0
M  V30 3858 C 352.221 1.64302 -0.440335 0
M  V30 3859 O 353.406 1.82436 -0.665634 0
M  V30 3860 C 350.536 3.09665 -1.57241 0
M  V30 3861 C 349.49 3.31221 -2.71066 0
M  V30 3862 C 348.816 4.70303 -2.54399 0
M  V30 3863 C 350.116 3.19796 -4.1295 0
M  V30 3864 H 351.81 1.60543 -2.52718 0
M  V30 3865 H 349.356 0.770933 -1.21625 0
M  V30 3866 H 351.309 3.87831 -1.64819 0
M  V30 3867 H 350.033 3.21036 -0.600289 0
M  V30 3868 H 348.692 2.55452 -2.62944 0
M  V30 3869 H 348.34 4.78429 -1.55288 0
M  V30 3870 H 348.04 4.85679 -3.30741 0
M  V30 3871 H 349.564 5.50647 -2.63857 0
M  V30 3872 H 350.978 3.87815 -4.22223 0
M  V30 3873 H 349.375 3.46696 -4.89818 0
M  V30 3874 H 350.445 2.16983 -4.33643 0
M  V30 3875 N 351.788 1.33704 0.83433 0
M  V30 3876 C 353.016 1.28467 1.62185 0
M  V30 3877 C 353.431 -0.143526 1.88254 0
M  V30 3878 O 352.788 -1.08709 1.4659 0
M  V30 3879 C 352.839 2.06174 2.96942 0
M  V30 3880 O 352.56 3.43422 2.72016 0
M  V30 3881 C 354.061 2.08201 3.91366 0
M  V30 3882 H 351.281 0.4424 0.504503 0
M  V30 3883 H 353.825 1.76145 1.03891 0
M  V30 3884 H 351.98 1.62167 3.51825 0
M  V30 3885 H 352.394 3.83453 3.57861 0
M  V30 3886 H 353.868 2.67017 4.83121 0
M  V30 3887 H 354.345 1.07343 4.2588 0
M  V30 3888 H 354.951 2.52246 3.42421 0
M  V30 3889 N 353.266 -1.05314 1.17247 0
M  V30 3890 C 354.543 -1.75184 0.87005 0
M  V30 3891 C 354.923 -2.01481 -0.629965 0
M  V30 3892 O 354.271 -1.64988 -1.58086 0
M  V30 3893 C 354.481 -3.04594 1.70363 0
M  V30 3894 C 355.829 -3.78567 1.92281 0
M  V30 3895 O 356.853 -3.14461 1.67311 0
M  V30 3896 O 355.712 -4.93755 2.3424 0
M  V30 3897 H 352.806 -0.761729 0.322021 0
M  V30 3898 H 355.352 -1.11493 1.27935 0
M  V30 3899 H 354.124 -2.81201 2.72106 0
M  V30 3900 H 353.747 -3.76022 1.29202 0
M  V30 3901 N 354.744 -0.972509 -1.24016 0
M  V30 3902 C 355.991 -0.637034 -1.92219 0
M  V30 3903 C 356.319 0.828418 -1.75976 0
M  V30 3904 O 355.574 1.61206 -1.10955 0
M  V30 3905 C 355.873 -0.963694 -3.44162 0
M  V30 3906 C 355.539 -2.41807 -3.80579 0
M  V30 3907 C 354.201 -2.81556 -3.9023 0
M  V30 3908 C 356.553 -3.36172 -3.98293 0
M  V30 3909 C 353.881 -4.14702 -4.15017 0
M  V30 3910 C 356.233 -4.68952 -4.24578 0
M  V30 3911 C 354.897 -5.08472 -4.32449 0
M  V30 3912 H 354.167 -0.233107 -0.703379 0
M  V30 3913 H 356.814 -1.2249 -1.47202 0
M  V30 3914 H 355.119 -0.29365 -3.90698 0
M  V30 3915 H 356.816 -0.682449 -3.9515 0
M  V30 3916 H 353.406 -2.09988 -3.73635 0
M  V30 3917 H 357.59 -3.06644 -3.90234 0
M  V30 3918 H 352.846 -4.4494 -4.19331 0
M  V30 3919 H 357.02 -5.42037 -4.37229 0
M  V30 3920 H 354.647 -6.11665 -4.51409 0
M  V30 3921 N 356.222 1.38976 -0.743202 0
M  V30 3922 C 357.47 1.99948 -0.29417 0
M  V30 3923 C 357.791 1.59279 1.12495 0
M  V30 3924 O 357.061 0.844808 1.76748 0
M  V30 3925 H 355.641 0.739473 -0.105774 0
M  V30 3926 H 358.303 1.699 -0.954986 0
M  V30 3927 H 357.399 3.10142 -0.349056 0
M  V30 3928 N 357.7 0.491464 1.49741 0
M  V30 3929 C 358.63 -0.28154 2.31796 0
M  V30 3930 C 359.611 -0.971473 1.3963 0
M  V30 3931 O 360.796 -0.964719 1.68543 0
M  V30 3932 C 357.926 -1.35203 3.19902 0
M  V30 3933 C 356.88 -0.782529 4.20786 0
M  V30 3934 C 356.206 -1.95283 4.97764 0
M  V30 3935 C 357.506 0.21999 5.21837 0
M  V30 3936 H 359.2 0.403355 2.96671 0
M  V30 3937 H 356.746 0.195425 1.42668 0
M  V30 3938 H 358.699 -1.90045 3.76113 0
M  V30 3939 H 357.423 -2.06598 2.52953 0
M  V30 3940 H 356.082 -0.255928 3.65706 0
M  V30 3941 H 355.73 -2.65423 4.2727 0
M  V30 3942 H 355.43 -1.57789 5.66018 0
M  V30 3943 H 356.954 -2.50577 5.56816 0
M  V30 3944 H 358.368 -0.23996 5.72798 0
M  V30 3945 H 356.765 0.51026 5.97927 0
M  V30 3946 H 357.835 1.13911 4.7133 0
M  V30 3947 N 359.178 -1.55987 0.224894 0
M  V30 3948 C 360.418 -2.00293 -0.407706 0
M  V30 3949 C 360.782 -1.1093 -1.56711 0
M  V30 3950 O 361.983 -1.44597 -2.26595 0
M  V30 3951 C 360.254 -3.47675 -0.82805 0
M  V30 3952 S 361.813 -4.14 -1.45429 0
M  V30 3953 H 358.631 -0.699152 -0.129256 0
M  V30 3954 H 361.233 -1.92609 0.334967 0
M  V30 3955 H 359.937 -4.10392 0.0253964 0
M  V30 3956 H 359.468 -3.59239 -1.60345 0
M  V30 3957 H 361.483 -4.13465 -2.74337 0
M  V30 3958 N 360.656 0.0484629 -1.57525 0
M  V30 3959 C 361.603 1.05504 -2.05275 0
M  V30 3960 C 362.573 1.37084 -0.937927 0
M  V30 3961 O 363.758 1.47754 -1.2072 0
M  V30 3962 C 360.898 2.35676 -2.52093 0
M  V30 3963 C 360.011 2.10423 -3.77288 0
M  V30 3964 C 359.146 3.34327 -4.12794 0
M  V30 3965 C 358.185 3.04542 -5.30962 0
M  V30 3966 N 357.322 4.20841 -5.61994 0
M  V30 3967 H 362.162 0.640885 -2.91027 0
M  V30 3968 H 359.699 0.304854 -1.43906 0
M  V30 3969 H 361.657 3.11709 -2.77297 0
M  V30 3970 H 360.287 2.7485 -1.69285 0
M  V30 3971 H 359.339 1.24976 -3.59284 0
M  V30 3972 H 360.651 1.84438 -4.63448 0
M  V30 3973 H 359.805 4.1874 -4.39024 0
M  V30 3974 H 358.544 3.63408 -3.25247 0
M  V30 3975 H 357.549 2.18528 -5.04505 0
M  V30 3976 H 358.774 2.76758 -6.20146 0
M  V30 3977 H 356.72 4.4991 -4.77406 0
M  V30 3978 H 356.637 3.98212 -6.42622 0
M  V30 3979 H 357.905 5.06184 -5.92789 0
M  V30 3980 N 362.134 1.5431 0.320358 0
M  V30 3981 C 363.044 1.86946 1.41734 0
M  V30 3982 C 364.06 0.761689 1.56443 0
M  V30 3983 O 365.236 1.05629 1.71477 0
M  V30 3984 C 362.301 2.09293 2.76401 0
M  V30 3985 C 361.362 3.33082 2.70841 0
M  V30 3986 C 360.595 3.54353 3.99086 0
M  V30 3987 O 360.818 2.79002 4.97508 0
M  V30 3988 O 359.752 4.47838 4.0215 0
M  V30 3989 H 363.578 2.80232 1.17062 0
M  V30 3990 H 361.163 1.40255 0.514673 0
M  V30 3991 H 363.045 2.25303 3.56113 0
M  V30 3992 H 361.72 1.19194 3.00956 0
M  V30 3993 H 360.627 3.22454 1.89668 0
M  V30 3994 H 361.96 4.23249 2.5124 0
M  V30 3995 N 363.613 -0.582584 1.46437 0
M  V30 3996 C 364.561 -1.71272 1.5738 0
M  V30 3997 C 365.555 -1.63524 0.44229 0
M  V30 3998 O 366.761 -1.69016 0.619166 0
M  V30 3999 H 363.136 -0.566273 0.494813 0
M  V30 4000 H 365.107 -1.59174 2.52401 0
M  V30 4001 C 363.856 -3.09658 1.58136 0
M  V30 4002 H 363.179 -3.16291 2.44541 0
M  V30 4003 H 364.619 -3.88494 1.69847 0
M  V30 4004 C 363.078 -3.3547 0.310026 0
M  V30 4005 O 363.608 -3.97199 -0.599683 0
M  V30 4006 N 361.814 -2.89925 0.197901 0
M  V30 4007 H 361.361 -2.39873 0.93909 0
M  V30 4008 H 361.319 -3.07568 -0.65185 0
M  V30 4009 N 365.091 -1.34144 -0.827227 0
M  V30 4010 C 366.34 -1.25602 -1.5782 0
M  V30 4011 C 366.653 0.173445 -1.94829 0
M  V30 4012 O 367.859 0.380984 -2.68814 0
M  V30 4013 C 366.315 -2.20151 -2.84713 0
M  V30 4014 C 365.923 -3.68331 -2.55021 0
M  V30 4015 C 367.667 -2.20508 -3.62735 0
M  V30 4016 C 365.574 -4.54762 -3.78082 0
M  V30 4017 H 364.504 -0.466573 -0.592306 0
M  V30 4018 H 367.155 -1.59283 -0.911116 0
M  V30 4019 H 365.537 -1.79417 -3.53023 0
M  V30 4020 H 366.711 -4.17577 -1.94849 0
M  V30 4021 H 365.026 -3.7038 -1.90283 0
M  V30 4022 H 367.623 -2.82306 -4.54101 0
M  V30 4023 H 367.966 -1.20322 -3.98533 0
M  V30 4024 H 368.499 -2.59664 -3.01362 0
M  V30 4025 H 365.238 -5.55867 -3.47407 0
M  V30 4026 H 364.758 -4.10254 -4.37552 0
M  V30 4027 H 366.437 -4.69153 -4.45538 0
M  V30 4028 N 366.569 1.04691 -1.17803 0
M  V30 4029 C 367.479 2.16057 -0.914151 0
M  V30 4030 C 368.495 1.73589 0.119503 0
M  V30 4031 O 369.671 2.01308 -0.0609468 0
M  V30 4032 C 366.736 3.4394 -0.436603 0
M  V30 4033 C 365.797 4.00825 -1.53746 0
M  V30 4034 C 365.03 5.22604 -1.0826 0
M  V30 4035 O 365.253 5.70367 0.0612244 0
M  V30 4036 O 364.187 5.7186 -1.87775 0
M  V30 4037 H 368.013 2.41169 -1.84584 0
M  V30 4038 H 365.598 1.1453 -0.959334 0
M  V30 4039 H 367.48 4.21024 -0.178057 0
M  V30 4040 H 366.155 3.20316 0.466869 0
M  V30 4041 H 365.062 3.25158 -1.84995 0
M  V30 4042 H 366.395 4.28778 -2.41683 0
M  V30 4043 N 368.047 0.979072 1.23499 0
M  V30 4044 C 368.997 0.489378 2.22686 0
M  V30 4045 C 369.981 -0.434871 1.54912 0
M  V30 4046 O 371.173 -0.263941 1.75021 0
M  V30 4047 C 368.302 -0.208178 3.42668 0
M  V30 4048 C 367.388 0.735563 4.17672 0
M  V30 4049 N 367.779 1.87763 4.69658 0
M  V30 4050 C 366.077 0.548625 4.42613 0
M  V30 4051 C 366.778 2.46886 5.26709 0
M  V30 4052 N 365.754 1.75287 5.14563 0
M  V30 4053 H 369.556 1.36062 2.60508 0
M  V30 4054 H 367.07 0.83958 1.39014 0
M  V30 4055 H 369.067 -0.576295 4.12898 0
M  V30 4056 H 367.727 -1.07572 3.06363 0
M  V30 4057 H 368.738 2.25885 4.66043 0
M  V30 4058 H 365.415 -0.274006 4.166 0
M  V30 4059 H 366.805 3.43326 5.77561 0
M  V30 4060 N 369.525 -1.3858 0.750561 0
M  V30 4061 C 370.473 -2.32339 0.110162 0
M  V30 4062 C 371.467 -1.53864 -0.708674 0
M  V30 4063 O 372.673 -1.69417 -0.608112 0
M  V30 4064 H 369.048 -0.751812 0.0168275 0
M  V30 4065 H 371.019 -2.83959 0.917053 0
M  V30 4066 C 369.768 -3.39043 -0.771067 0
M  V30 4067 H 369.091 -3.99517 -0.150374 0
M  V30 4068 H 370.531 -4.07061 -1.1865 0
M  V30 4069 C 368.99 -2.77365 -1.91234 0
M  V30 4070 O 369.52 -2.66434 -3.00626 0
M  V30 4071 N 367.726 -2.35219 -1.70646 0
M  V30 4072 H 367.273 -2.4431 -0.81673 0
M  V30 4073 H 367.231 -1.94294 -2.47178 0
M  V30 4074 N 371.003 -0.499398 -1.49478 0
M  V30 4075 C 372.228 0.044722 -2.07352 0
M  V30 4076 C 372.653 1.30207 -1.35749 0
M  V30 4077 O 372.011 1.76516 -0.413732 0
M  V30 4078 C 372.059 0.283013 -3.59488 0
M  V30 4079 O 371.163 1.35804 -3.89398 0
M  V30 4080 H 370.504 -0.0255147 -0.66351 0
M  V30 4081 H 373.034 -0.698561 -1.92305 0
M  V30 4082 H 373.044 0.515007 -4.04737 0
M  V30 4083 H 371.719 -0.635636 -4.11014 0
M  V30 4084 H 370.296 1.11113 -3.55961 0
M  V30 4085 N 372.481 1.55866 -0.233164 0
M  V30 4086 C 373.709 2.02998 0.399905 0
M  V30 4087 C 374.124 1.11274 1.52524 0
M  V30 4088 O 373.481 0.124528 1.82075 0
M  V30 4089 C 373.532 3.4958 0.920639 0
M  V30 4090 O 373.253 4.37808 -0.159834 0
M  V30 4091 C 374.754 4.12411 1.62578 0
M  V30 4092 H 371.974 0.664006 0.0966281 0
M  V30 4093 H 374.518 2.0143 -0.353013 0
M  V30 4094 H 372.673 3.51727 1.62379 0
M  V30 4095 H 373.087 5.23981 0.23337 0
M  V30 4096 H 374.561 5.16711 1.94201 0
M  V30 4097 H 375.038 3.5809 2.54299 0
M  V30 4098 H 375.644 4.14148 0.967553 0
M  V30 4099 N 373.959 -0.0401083 1.57549 0
M  V30 4100 C 375.187 -0.745196 1.93014 0
M  V30 4101 C 375.602 -1.6948 0.831984 0
M  V30 4102 O 374.959 -1.81482 -0.192463 0
M  V30 4103 C 375.01 -1.51176 3.28372 0
M  V30 4104 O 374.731 -0.600284 4.33968 0
M  V30 4105 C 376.232 -2.315 3.78051 0
M  V30 4106 H 373.452 -0.210088 0.637263 0
M  V30 4107 H 375.996 -0.000924689 2.045 0
M  V30 4108 H 374.151 -2.20801 3.18317 0
M  V30 4109 H 374.565 -1.13669 5.12035 0
M  V30 4110 H 376.039 -2.80697 4.75303 0
M  V30 4111 H 376.516 -3.12436 3.08675 0
M  V30 4112 H 377.122 -1.66971 3.91153 0
M  V30 4113 N 375.437 -1.54477 -0.31217 0
M  V30 4114 C 376.662 -1.77526 -1.07235 0
M  V30 4115 C 377.087 -0.527775 -1.80544 0
M  V30 4116 O 376.445 0.52121 -1.73646 0
M  V30 4117 C 376.493 -2.97535 -2.03728 0
M  V30 4118 O 375.597 -2.69878 -3.11833 0
M  V30 4119 H 374.938 -0.58792 -0.30862 0
M  V30 4120 H 377.468 -2.01532 -0.352993 0
M  V30 4121 H 377.478 -3.25198 -2.46395 0
M  V30 4122 H 376.153 -3.87996 -1.49774 0
M  V30 4123 H 374.73 -2.53199 -2.7376 0
M  V30 4124 N 376.915 0.57481 -1.46744 0
M  V30 4125 C 378.143 1.35856 -1.56047 0
M  V30 4126 C 378.558 1.87691 -0.204365 0
M  V30 4127 O 377.915 1.64049 0.79963 0
M  V30 4128 C 377.966 2.54066 -2.57163 0
M  V30 4129 O 377.687 2.04377 -3.87507 0
M  V30 4130 C 379.188 3.46514 -2.76483 0
M  V30 4131 H 376.408 0.414754 -0.527466 0
M  V30 4132 H 378.952 0.698035 -1.92218 0
M  V30 4133 H 377.107 3.16092 -2.23974 0
M  V30 4134 H 377.521 2.81419 -4.4261 0
M  V30 4135 H 378.995 4.25919 -3.51137 0
M  V30 4136 H 379.472 3.98951 -1.83671 0
M  V30 4137 H 380.078 2.90318 -3.10799 0
M  V30 4138 N 378.394 1.34581 0.820102 0
M  V30 4139 C 379.641 1.27096 1.57648 0
M  V30 4140 C 379.969 -0.158317 1.93855 0
M  V30 4141 O 379.224 -1.12028 1.60463 0
M  V30 4142 C 379.523 2.10997 2.8847 0
M  V30 4143 C 379.189 3.59966 2.71543 0
M  V30 4144 C 377.851 4.00575 2.66634 0
M  V30 4145 C 380.203 4.54548 2.55021 0
M  V30 4146 C 377.531 5.33953 2.43128 0
M  V30 4147 C 379.883 5.88109 2.33047 0
M  V30 4148 C 378.547 6.27878 2.26552 0
M  V30 4149 H 377.817 0.465078 0.576874 0
M  V30 4150 H 380.464 1.6635 0.948671 0
M  V30 4151 H 378.769 1.6458 3.55557 0
M  V30 4152 H 380.466 2.0255 3.46084 0
M  V30 4153 H 377.056 3.27733 2.76205 0
M  V30 4154 H 381.24 4.24069 2.57835 0
M  V30 4155 H 376.496 5.63781 2.3656 0
M  V30 4156 H 380.67 6.60985 2.19251 0
M  V30 4157 H 378.297 7.31162 2.081 0
M  V30 4158 N 379.872 -1.04064 1.18357 0
M  V30 4159 C 381.112 -1.78829 0.989921 0
M  V30 4160 C 381.476 -1.86106 -0.472095 0
M  V30 4161 O 382.677 -2.57076 -0.785187 0
M  V30 4162 C 380.948 -3.1823 1.6268 0
M  V30 4163 S 382.507 -4.09332 1.58091 0
M  V30 4164 H 379.325 -0.615754 0.355482 0
M  V30 4165 H 381.927 -1.24778 1.50501 0
M  V30 4166 H 380.631 -3.10543 2.68311 0
M  V30 4167 H 380.162 -3.77357 1.112 0
M  V30 4168 H 382.177 -4.92598 0.596817 0
M  V30 4169 N 381.35 -0.985608 -1.22978 0
M  V30 4170 C 382.598 -0.656087 -1.91154 0
M  V30 4171 C 382.919 0.813561 -1.77218 0
M  V30 4172 O 382.189 1.58244 -1.1548 0
M  V30 4173 H 380.769 -0.239674 -0.707506 0
M  V30 4174 H 383.431 -1.25054 -1.49491 0
M  V30 4175 H 382.527 -0.912253 -2.9847 0
M  V30 4176 N 382.828 1.3818 -0.7579 0
M  V30 4177 C 384.056 2.04301 -0.326937 0
M  V30 4178 C 384.471 1.57163 1.0462 0
M  V30 4179 O 383.828 0.746626 1.66529 0
M  V30 4180 C 383.879 3.59846 -0.345363 0
M  V30 4181 O 383.6 4.05256 -1.66432 0
M  V30 4182 C 385.101 4.4319 0.098927 0
M  V30 4183 H 382.321 0.656443 -0.139012 0
M  V30 4184 H 384.865 1.76786 -1.02796 0
M  V30 4185 H 383.02 3.86182 0.306955 0
M  V30 4186 H 383.434 4.99709 -1.59345 0
M  V30 4187 H 384.908 5.51989 0.0348745 0
M  V30 4188 H 385.385 4.23947 1.14741 0
M  V30 4189 H 385.991 4.22051 -0.52468 0
M  V30 4190 N 384.306 0.507319 1.49211 0
M  V30 4191 C 385.717 0.0611118 1.866 0
M  V30 4192 C 386.068 -1.35488 1.41907 0
M  V30 4193 O 385.193 -2.0108 0.799726 0
M  V30 4194 C 385.788 0.104125 3.3864 0
M  V30 4195 C 384.347 -0.28677 3.75306 0
M  V30 4196 C 383.494 0.473893 2.73221 0
M  V30 4197 H 386.445 0.719775 1.41439 0
M  V30 4198 H 386.466 -0.689672 3.74198 0
M  V30 4199 H 385.978 1.13482 3.71138 0
M  V30 4200 H 384.079 -1.32046 3.48417 0
M  V30 4201 H 384.192 0.0370745 4.79086 0
M  V30 4202 H 382.556 -0.0770644 2.54583 0
M  V30 4203 H 383.339 1.50478 3.08563 0
M  V30 4204 N 385.784 -1.5574 0.241426 0
M  V30 4205 C 386.694 -2.2479 -0.671305 0
M  V30 4206 C 387.71 -1.26217 -1.19772 0
M  V30 4207 O 388.886 -1.59079 -1.23514 0
M  V30 4208 C 385.951 -2.92966 -1.85396 0
M  V30 4209 C 385.012 -4.06935 -1.36756 0
M  V30 4210 C 384.245 -4.71851 -2.49384 0
M  V30 4211 O 384.468 -4.35823 -3.67987 0
M  V30 4212 O 383.402 -5.60467 -2.19454 0
M  V30 4213 H 387.228 -3.0349 -0.112966 0
M  V30 4214 H 384.813 -1.49397 0.0101513 0
M  V30 4215 H 386.695 -3.35927 -2.54423 0
M  V30 4216 H 385.37 -2.17211 -2.40002 0
M  V30 4217 H 384.277 -3.68503 -0.644726 0
M  V30 4218 H 385.61 -4.84492 -0.867647 0
M  V30 4219 N 387.262 0.0317525 -1.57568 0
M  V30 4220 C 388.492 0.733884 -1.93126 0
M  V30 4221 C 388.9 1.69563 -0.839352 0
M  V30 4222 O 388.243 1.82681 0.193175 0
M  V30 4223 C 388.305 1.54798 -3.24465 0
M  V30 4224 C 387.969 0.751304 -4.50782 0
M  V30 4225 C 388.966 0.0527632 -5.19873 0
M  V30 4226 C 386.651 0.706639 -4.97305 0
M  V30 4227 C 388.645 -0.679774 -6.33765 0
M  V30 4228 C 386.332 -0.0296449 -6.11093 0
M  V30 4229 C 387.33 -0.721614 -6.79177 0
M  V30 4230 O 387.018 -1.44595 -7.90789 0
M  V30 4231 H 386.75 0.211459 -0.642076 0
M  V30 4232 H 389.304 -0.00585615 -2.05399 0
M  V30 4233 H 387.534 2.33147 -3.08512 0
M  V30 4234 H 389.223 2.13247 -3.4537 0
M  V30 4235 H 389.989 0.0783188 -4.84937 0
M  V30 4236 H 385.868 1.23474 -4.44157 0
M  V30 4237 H 389.412 -1.22042 -6.86842 0
M  V30 4238 H 385.309 -0.0571331 -6.45475 0
M  V30 4239 H 386.077 -1.35935 -8.07133 0
M  V30 4240 N 388.74 1.54641 0.303973 0
M  V30 4241 C 389.67 1.88386 1.3796 0
M  V30 4242 C 390.651 0.742485 1.5304 0
M  V30 4243 O 391.836 0.997959 1.66597 0
M  V30 4244 C 388.966 2.12854 2.74427 0
M  V30 4245 C 387.92 3.28702 2.74115 0
M  V30 4246 C 387.246 3.38582 4.13844 0
M  V30 4247 C 388.546 4.65881 2.3612 0
M  V30 4248 H 390.24 2.78474 1.09966 0
M  V30 4249 H 387.786 1.33988 0.527556 0
M  V30 4250 H 389.739 2.35047 3.49758 0
M  V30 4251 H 388.463 1.19535 3.03939 0
M  V30 4252 H 387.122 3.06428 2.0124 0
M  V30 4253 H 386.77 2.42784 4.40528 0
M  V30 4254 H 386.47 4.16453 4.14537 0
M  V30 4255 H 387.994 3.63031 4.90959 0
M  V30 4256 H 389.408 4.87823 3.01167 0
M  V30 4257 H 387.805 5.46444 2.48031 0
M  V30 4258 H 388.875 4.66799 1.3125 0
M  V30 4259 N 390.218 -0.567019 1.47046 0
M  V30 4260 C 391.181 -1.65696 1.58359 0
M  V30 4261 C 392.181 -1.54097 0.459441 0
M  V30 4262 O 393.371 -1.58432 0.724225 0
M  V30 4263 C 390.503 -3.05197 1.51879 0
M  V30 4264 H 391.696 -1.57019 2.5551 0
M  V30 4265 H 389.249 -0.786148 1.3509 0
M  V30 4266 H 389.984 -3.19417 0.560673 0
M  V30 4267 H 389.769 -3.15025 2.33455 0
M  V30 4268 H 391.259 -3.84511 1.62913 0
M  V30 4269 N 391.696 -1.35014 -0.812953 0
M  V30 4270 C 393.107 -1.25035 -1.38648 0
M  V30 4271 C 393.458 0.119967 -1.95833 0
M  V30 4272 O 392.583 1.02069 -1.90816 0
M  V30 4273 C 393.178 -2.26394 -2.52054 0
M  V30 4274 C 391.737 -2.20175 -3.05287 0
M  V30 4275 C 390.884 -2.12451 -1.78213 0
M  V30 4276 H 393.835 -1.46235 -0.616516 0
M  V30 4277 H 393.856 -1.88672 -3.30429 0
M  V30 4278 H 393.368 -3.26116 -2.10404 0
M  V30 4279 H 391.469 -1.23841 -3.51417 0
M  V30 4280 H 391.582 -3.11863 -3.63701 0
M  V30 4281 H 389.946 -1.58328 -1.9951 0
M  V30 4282 H 390.729 -3.14024 -1.38723 0
M  V30 4283 N 393.175 1.03435 -1.18907 0
M  V30 4284 C 394.085 2.15075 -0.937015 0
M  V30 4285 C 395.101 1.73706 0.101085 0
M  V30 4286 O 396.277 2.01232 -0.0822948 0
M  V30 4287 C 393.342 3.43458 -0.473057 0
M  V30 4288 C 392.403 3.99172 -1.57989 0
M  V30 4289 C 391.636 5.21427 -1.13797 0
M  V30 4290 O 391.859 5.704 0.000725941 0
M  V30 4291 O 390.793 5.69837 -1.9383 0
M  V30 4292 H 394.619 2.39198 -1.87131 0
M  V30 4293 H 392.204 1.13506 -0.971427 0
M  V30 4294 H 394.086 4.20811 -0.222702 0
M  V30 4295 H 392.761 3.20793 0.432869 0
M  V30 4296 H 391.668 3.23178 -1.88433 0
M  V30 4297 H 393.001 4.2619 -2.46217 0
M  V30 4298 N 394.653 0.992116 1.22453 0
M  V30 4299 C 395.899 0.668523 1.91464 0
M  V30 4300 C 396.232 -0.797313 1.77078 0
M  V30 4301 O 395.507 -1.5765 1.13916 0
M  V30 4302 C 395.79 1.07424 3.43703 0
M  V30 4303 C 395.643 2.59857 3.67143 0
M  V30 4304 C 396.962 0.626891 4.35612 0
M  V30 4305 H 394.081 0.244341 0.695318 0
M  V30 4306 H 396.723 1.2355 1.44345 0
M  V30 4307 H 394.873 0.591816 3.83966 0
M  V30 4308 H 396.545 3.15764 3.3629 0
M  V30 4309 H 394.788 3.01961 3.11451 0
M  V30 4310 H 395.459 2.83296 4.73759 0
M  V30 4311 H 397.935 1.04125 4.02861 0
M  V30 4312 H 396.811 0.939076 5.40807 0
M  V30 4313 H 397.072 -0.472457 4.39568 0
M  V30 4314 N 396.131 -1.37776 0.765217 0
M  V30 4315 C 397.061 -2.32945 0.160953 0
M  V30 4316 C 398.042 -1.55454 -0.690516 0
M  V30 4317 O 399.227 -1.83721 -0.629318 0
M  V30 4318 C 396.357 -3.39669 -0.724031 0
M  V30 4319 C 395.311 -4.27992 0.0256173 0
M  V30 4320 C 394.637 -5.25673 -0.978383 0
M  V30 4321 C 395.937 -5.08309 1.20082 0
M  V30 4322 H 397.631 -2.83728 0.955969 0
M  V30 4323 H 395.177 -1.36416 0.461149 0
M  V30 4324 H 397.13 -4.05219 -1.15652 0
M  V30 4325 H 395.854 -2.87396 -1.5515 0
M  V30 4326 H 394.513 -3.63964 0.438812 0
M  V30 4327 H 394.161 -4.69682 -1.80022 0
M  V30 4328 H 393.861 -5.85625 -0.481378 0
M  V30 4329 H 395.385 -5.94098 -1.40995 0
M  V30 4330 H 396.799 -5.67034 0.845307 0
M  V30 4331 H 395.196 -5.77554 1.62947 0
M  V30 4332 H 396.266 -4.41365 2.00811 0
M  V30 4333 N 397.609 -0.515225 -1.4894 0
M  V30 4334 C 398.559 0.275113 -2.26334 0
M  V30 4335 C 399.543 0.923007 -1.31793 0
M  V30 4336 O 400.735 0.828254 -1.56426 0
M  V30 4337 C 397.864 1.33041 -3.16473 0
M  V30 4338 C 396.95 0.688051 -4.18481 0
M  V30 4339 N 397.341 -0.217638 -5.05332 0
M  V30 4340 C 395.639 0.94699 -4.3583 0
M  V30 4341 C 396.34 -0.58676 -5.78733 0
M  V30 4342 N 395.316 0.0486966 -5.43578 0
M  V30 4343 H 399.118 -0.421876 -2.90856 0
M  V30 4344 H 396.632 -0.332249 -1.58965 0
M  V30 4345 H 398.629 1.9102 -3.70563 0
M  V30 4346 H 397.289 2.02894 -2.53504 0
M  V30 4347 H 398.3 -0.589343 -5.14536 0
M  V30 4348 H 394.977 1.63719 -3.8406 0
M  V30 4349 H 396.367 -1.32855 -6.58634 0
M  V30 4350 N 399.087 1.5561 -0.249682 0
M  V30 4351 C 400.034 2.21496 0.648694 0
M  V30 4352 C 401.004 1.17977 1.16921 0
M  V30 4353 O 402.189 1.46434 1.22318 0
M  V30 4354 C 399.329 2.92039 1.83868 0
M  V30 4355 C 398.442 4.10219 1.35442 0
M  V30 4356 C 397.577 4.6847 2.50419 0
M  V30 4357 C 396.616 5.78893 1.98869 0
M  V30 4358 N 395.753 6.31315 3.07223 0
M  V30 4359 H 400.593 2.97892 0.0801582 0
M  V30 4360 H 398.13 1.47074 0.0278031 0
M  V30 4361 H 400.088 3.31138 2.53778 0
M  V30 4362 H 398.718 2.18111 2.37965 0
M  V30 4363 H 397.77 3.76413 0.54928 0
M  V30 4364 H 399.082 4.89927 0.936649 0
M  V30 4365 H 398.236 5.10158 3.28366 0
M  V30 4366 H 396.975 3.87984 2.95499 0
M  V30 4367 H 395.98 5.3668 1.19393 0
M  V30 4368 H 397.205 6.61232 1.54755 0
M  V30 4369 H 395.151 5.53733 3.51732 0
M  V30 4370 H 395.068 7.06224 2.69784 0
M  V30 4371 H 396.336 6.77662 3.8522 0
M  V30 4372 N 400.565 -0.0233959 1.57583 0
M  V30 4373 C 401.497 -1.04994 2.03737 0
M  V30 4374 C 402.51 -1.32125 0.951152 0
M  V30 4375 O 403.699 -1.29512 1.22837 0
M  V30 4376 C 400.799 -2.39026 2.40249 0
M  V30 4377 C 399.972 -2.31171 3.7132 0
M  V30 4378 C 399.031 -3.47698 3.94959 0
M  V30 4379 O 398.057 -3.26937 4.65941 0
M  V30 4380 N 399.259 -4.6976 3.41037 0
M  V30 4381 H 402.024 -0.656507 2.92421 0
M  V30 4382 H 399.585 -0.211235 1.60516 0
M  V30 4383 H 401.577 -3.15712 2.53196 0
M  V30 4384 H 400.147 -2.70194 1.57207 0
M  V30 4385 H 399.367 -1.39547 3.68674 0
M  V30 4386 H 400.655 -2.23071 4.57293 0
M  V30 4387 H 400.053 -4.89528 2.83512 0
M  V30 4388 H 398.61 -5.43791 3.59353 0
M  V30 4389 N 402.043 -1.548 -0.295768 0
M  V30 4390 C 403.454 -1.65274 -0.868411 0
M  V30 4391 C 403.805 -0.56481 -1.87894 0
M  V30 4392 O 402.93 0.29767 -2.14343 0
M  V30 4393 C 403.525 -2.99603 -1.58188 0
M  V30 4394 C 402.084 -3.12181 -2.10286 0
M  V30 4395 C 401.231 -2.6098 -0.93727 0
M  V30 4396 H 404.182 -1.58534 -0.0726422 0
M  V30 4397 H 404.203 -2.91319 -2.44772 0
M  V30 4398 H 403.715 -3.78764 -0.846151 0
M  V30 4399 H 401.816 -2.3775 -2.8689 0
M  V30 4400 H 401.929 -4.18415 -2.33379 0
M  V30 4401 H 400.293 -2.17564 -1.32431 0
M  V30 4402 H 401.076 -3.42623 -0.215414 0
M  V30 4403 N 403.521 0.559213 -1.47345 0
M  V30 4404 C 404.751 1.33999 -1.57251 0
M  V30 4405 C 405.159 1.87905 -0.220978 0
M  V30 4406 O 404.502 1.65577 0.795617 0
M  V30 4407 C 404.564 2.54798 -2.53611 0
M  V30 4408 C 404.228 2.22192 -3.99349 0
M  V30 4409 C 405.225 1.79607 -4.87891 0
M  V30 4410 C 402.91 2.33613 -4.44669 0
M  V30 4411 C 404.904 1.48868 -6.19772 0
M  V30 4412 C 402.591 2.02487 -5.76578 0
M  V30 4413 C 403.589 1.60183 -6.63951 0
M  V30 4414 O 403.277 1.29451 -7.93409 0
M  V30 4415 H 403.009 0.414858 -0.533731 0
M  V30 4416 H 405.563 0.684465 -1.9366 0
M  V30 4417 H 403.793 3.23235 -2.12265 0
M  V30 4418 H 405.482 3.16873 -2.53666 0
M  V30 4419 H 406.248 1.70278 -4.54126 0
M  V30 4420 H 402.127 2.65501 -3.76869 0
M  V30 4421 H 405.671 1.15775 -6.87926 0
M  V30 4422 H 401.568 2.11448 -6.09885 0
M  V30 4423 H 402.336 1.43098 -8.05894 0
M  V30 4424 N 404.999 1.35443 0.805782 0
M  V30 4425 C 406.276 1.19325 1.54987 0
M  V30 4426 C 406.656 -0.227294 2.09873 0
M  V30 4427 O 406.004 -1.2309 1.92512 0
M  V30 4428 C 406.214 2.26196 2.65775 0
M  V30 4429 C 407.562 2.62043 3.34094 0
M  V30 4430 O 408.586 2.25115 2.76046 0
M  V30 4431 O 407.445 3.25542 4.38958 0
M  V30 4432 H 404.539 0.463623 0.684823 0
M  V30 4433 H 407.085 1.47127 0.845674 0
M  V30 4434 H 405.857 3.21471 2.23096 0
M  V30 4435 H 405.48 1.99667 3.43829 0
M  V30 4436 N 406.477 -1.02803 1.19454 0
M  V30 4437 C 407.893 -1.28473 0.946937 0
M  V30 4438 C 408.093 -1.97881 -0.380202 0
M  V30 4439 O 407.149 -2.26719 -1.11151 0
M  V30 4440 C 408.462 -2.13099 2.12154 0
M  V30 4441 C 410.01 -2.26404 2.16126 0
M  V30 4442 C 410.485 -3.14402 3.33039 0
M  V30 4443 N 411.976 -3.21991 3.32981 0
M  V30 4444 C 412.711 -3.90272 4.20089 0
M  V30 4445 N 412.207 -4.60777 5.17355 0
M  V30 4446 N 414 -3.8668 4.07964 0
M  V30 4447 H 406.151 -0.561665 2.04839 0
M  V30 4448 H 408.414 -0.310438 0.89573 0
M  V30 4449 H 408.12 -1.69422 3.08203 0
M  V30 4450 H 407.994 -3.13813 2.09287 0
M  V30 4451 H 410.381 -2.69311 1.20647 0
M  V30 4452 H 410.462 -1.25237 2.23045 0
M  V30 4453 H 410.106 -2.72204 4.28798 0
M  V30 4454 H 410.036 -4.1563 3.23356 0
M  V30 4455 H 412.527 -2.71778 2.62574 0
M  V30 4456 H 412.84 -5.10513 5.80169 0
M  V30 4457 H 411.185 -4.5964 5.21302 0
M  V30 4458 H 414.376 -3.30739 3.31254 0
M  V30 4459 H 414.549 -4.39621 4.76064 0
M  V30 4460 N 407.956 -0.998596 -1.21925 0
M  V30 4461 C 409.184 -0.696286 -1.94832 0
M  V30 4462 C 409.599 0.740032 -1.73692 0
M  V30 4463 O 408.956 1.5 -1.03953 0
M  V30 4464 C 409.007 -0.999833 -3.47398 0
M  V30 4465 O 408.728 -2.37972 -3.67833 0
M  V30 4466 C 410.229 -0.716025 -4.37479 0
M  V30 4467 H 407.449 -0.257111 -0.619786 0
M  V30 4468 H 409.993 -1.33491 -1.54921 0
M  V30 4469 H 408.148 -0.406918 -3.85257 0
M  V30 4470 H 408.562 -2.48338 -4.61983 0
M  V30 4471 H 410.036 -0.978642 -5.43256 0
M  V30 4472 H 410.513 0.349968 -4.37803 0
M  V30 4473 H 411.119 -1.29025 -4.05256 0
M  V30 4474 N 409.434 1.37368 -0.772513 0
M  V30 4475 C 410.68 1.99969 -0.337681 0
M  V30 4476 C 411.013 1.61184 1.08321 0
M  V30 4477 O 410.288 0.858395 1.74533 0
M  V30 4478 C 410.571 3.56858 -0.482121 0
M  V30 4479 C 410.424 4.0555 -1.94549 0
M  V30 4480 C 411.743 4.39955 0.113143 0
M  V30 4481 H 408.862 0.726464 -0.124171 0
M  V30 4482 H 411.504 1.63034 -0.975699 0
M  V30 4483 H 409.654 3.88452 0.0610361 0
M  V30 4484 H 411.326 3.84518 -2.54841 0
M  V30 4485 H 409.569 3.57715 -2.45403 0
M  V30 4486 H 410.24 5.14587 -1.9976 0
M  V30 4487 H 412.716 4.14623 -0.35031 0
M  V30 4488 H 411.592 5.48897 -0.0180514 0
M  V30 4489 H 411.853 4.25403 1.20354 0
M  V30 4490 N 410.912 0.523116 1.48665 0
M  V30 4491 C 412.189 -0.0775449 1.95446 0
M  V30 4492 C 412.569 -1.5197 1.4652 0
M  V30 4493 O 411.917 -2.17876 0.688657 0
M  V30 4494 C 412.127 0.0326135 3.48985 0
M  V30 4495 C 413.475 -0.130141 4.24401 0
M  V30 4496 O 414.499 -0.0415142 3.56176 0
M  V30 4497 O 413.358 -0.31491 5.45592 0
M  V30 4498 H 410.452 -0.0831012 0.822814 0
M  V30 4499 H 412.998 0.587227 1.59216 0
M  V30 4500 H 411.77 1.03748 3.77296 0
M  V30 4501 H 411.393 -0.671317 3.91892 0
M  V30 4502 N 412.39 -1.55475 0.257931 0
M  V30 4503 C 413.636 -2.00237 -0.357338 0
M  V30 4504 C 413.991 -1.14313 -1.54759 0
M  V30 4505 O 413.284 -0.201187 -1.90541 0
M  V30 4506 C 413.478 -3.48183 -0.806433 0
M  V30 4507 C 413.307 -4.48422 0.338758 0
M  V30 4508 C 412.077 -4.98651 0.817011 0
M  V30 4509 C 414.275 -5.00827 1.16949 0
M  V30 4510 N 412.257 -5.82658 1.93346 0
M  V30 4511 C 413.628 -5.82113 2.13413 0
M  V30 4512 C 415.683 -4.83104 1.2048 0
M  V30 4513 C 414.386 -6.47566 3.13131 0
M  V30 4514 C 416.412 -5.49343 2.19034 0
M  V30 4515 C 415.774 -6.30427 3.14232 0
M  V30 4516 H 411.873 -0.776034 -0.0964083 0
M  V30 4517 H 414.457 -1.90995 0.37803 0
M  V30 4518 H 412.628 -3.57801 -1.51107 0
M  V30 4519 H 414.36 -3.79802 -1.39758 0
M  V30 4520 H 411.115 -4.71914 0.39925 0
M  V30 4521 H 411.539 -6.29356 2.49478 0
M  V30 4522 H 416.181 -4.20036 0.482634 0
M  V30 4523 H 413.899 -7.09793 3.8629 0
M  V30 4524 H 417.485 -5.37579 2.22485 0
M  V30 4525 H 416.365 -6.80777 3.89246 0
M  V30 4526 N 413.868 0.0150385 -1.57593 0
M  V30 4527 C 415.114 0.69849 -1.91031 0
M  V30 4528 C 415.469 1.72208 -0.85804 0
M  V30 4529 O 414.762 1.91147 0.131614 0
M  V30 4530 C 414.956 1.39686 -3.28972 0
M  V30 4531 C 414.785 0.442428 -4.47518 0
M  V30 4532 C 413.555 0.0583223 -5.05266 0
M  V30 4533 C 415.753 -0.285072 -5.13509 0
M  V30 4534 N 413.735 -0.895893 -6.07328 0
M  V30 4535 C 415.106 -1.09447 -6.10263 0
M  V30 4536 C 417.161 -0.350518 -4.96665 0
M  V30 4537 C 415.864 -1.96333 -6.91987 0
M  V30 4538 C 417.89 -1.20655 -5.78962 0
M  V30 4539 C 417.252 -2.00383 -6.75297 0
M  V30 4540 H 413.351 0.22926 -0.747639 0
M  V30 4541 H 415.935 -0.0417748 -1.94655 0
M  V30 4542 H 414.106 2.1075 -3.2625 0
M  V30 4543 H 415.838 2.03381 -3.49883 0
M  V30 4544 H 412.593 0.423506 -4.71703 0
M  V30 4545 H 413.017 -1.36792 -6.63036 0
M  V30 4546 H 417.659 0.251596 -4.22051 0
M  V30 4547 H 415.377 -2.57618 -7.65936 0
M  V30 4548 H 418.963 -1.2609 -5.67972 0
M  V30 4549 H 417.843 -2.65552 -7.3787 0
M  V30 4550 N 415.346 1.54954 0.287554 0
M  V30 4551 C 416.586 1.76617 1.02887 0
M  V30 4552 C 416.95 0.547759 1.84021 0
M  V30 4553 O 418.151 0.642365 2.61012 0
M  V30 4554 C 416.422 3.02717 1.89993 0
M  V30 4555 S 417.981 3.45438 2.70588 0
M  V30 4556 H 414.799 0.6207 0.346775 0
M  V30 4557 H 417.401 1.93172 0.30082 0
M  V30 4558 H 416.105 3.89503 1.29287 0
M  V30 4559 H 415.636 2.88787 2.67144 0
M  V30 4560 H 417.651 3.03566 3.92508 0
M  V30 4561 N 416.824 -0.551391 1.4764 0
M  V30 4562 C 417.754 -1.66757 1.63445 0
M  V30 4563 C 418.735 -1.63077 0.483742 0
M  V30 4564 O 419.92 -1.80607 0.71377 0
M  V30 4565 C 417.05 -3.05387 1.65396 0
M  V30 4566 C 416.004 -3.23918 2.79752 0
M  V30 4567 C 415.33 -4.63393 2.66779 0
M  V30 4568 C 416.63 -3.08735 4.21284 0
M  V30 4569 H 418.324 -1.53786 2.56886 0
M  V30 4570 H 415.87 -0.738415 1.23626 0
M  V30 4571 H 417.823 -3.83325 1.75043 0
M  V30 4572 H 416.547 -3.19332 0.685195 0
M  V30 4573 H 415.206 -2.48391 2.69625 0
M  V30 4574 H 414.854 -4.74144 1.67918 0
M  V30 4575 H 414.554 -4.7674 3.43501 0
M  V30 4576 H 416.078 -5.43458 2.78364 0
M  V30 4577 H 417.492 -3.76484 4.32357 0
M  V30 4578 H 415.889 -3.33588 4.98838 0
M  V30 4579 H 416.959 -2.0541 4.39243 0
M  V30 4580 N 418.302 -1.35869 -0.798587 0
M  V30 4581 C 419.55 -1.29332 -1.55298 0
M  V30 4582 C 419.871 0.129729 -1.94568 0
M  V30 4583 O 419.141 1.06796 -1.6423 0
M  V30 4584 H 417.721 -0.475737 -0.57592 0
M  V30 4585 H 420.383 -1.70062 -0.952093 0
M  V30 4586 H 419.479 -1.91458 -2.46476 0
M  V30 4587 N 419.78 1.02168 -1.19998 0
M  V30 4588 C 420.743 2.08765 -0.94604 0
M  V30 4589 C 421.743 1.60618 0.0763846 0
M  V30 4590 O 422.933 1.73472 -0.159135 0
M  V30 4591 C 420.065 3.38262 -0.423255 0
M  V30 4592 H 421.258 2.32726 -1.89153 0
M  V30 4593 H 418.811 1.1889 -1.01464 0
M  V30 4594 H 419.546 3.19974 0.527938 0
M  V30 4595 H 419.331 3.74532 -1.16053 0
M  V30 4596 H 420.821 4.16759 -0.264911 0
M  V30 4597 N 421.258 1.00505 1.21394 0
M  V30 4598 C 422.504 0.688793 1.90745 0
M  V30 4599 C 422.837 -0.778486 1.77914 0
M  V30 4600 O 422.112 -1.56433 1.15581 0
M  V30 4601 C 422.395 1.11063 3.42545 0
M  V30 4602 C 422.248 2.63737 3.64367 0
M  V30 4603 C 423.567 0.673059 4.34923 0
M  V30 4604 H 420.686 0.251702 0.692687 0
M  V30 4605 H 423.328 1.25074 1.43026 0
M  V30 4606 H 421.478 0.632508 3.83317 0
M  V30 4607 H 423.15 3.19313 3.32922 0
M  V30 4608 H 421.393 3.05248 3.08231 0
M  V30 4609 H 422.064 2.88305 4.70727 0
M  V30 4610 H 424.54 1.08392 4.01734 0
M  V30 4611 H 423.416 0.996383 5.39781 0
M  V30 4612 H 423.677 -0.425808 4.40045 0
M  V30 4613 N 422.737 -1.36956 0.779787 0
M  V30 4614 C 423.667 -2.32761 0.185651 0
M  V30 4615 C 424.648 -1.56177 -0.673989 0
M  V30 4616 O 425.833 -1.84378 -0.609797 0
M  V30 4617 C 422.963 -3.40418 -0.687964 0
M  V30 4618 C 421.917 -4.27941 0.0710102 0
M  V30 4619 C 421.243 -5.26681 -0.922573 0
M  V30 4620 C 422.543 -5.07006 1.25467 0
M  V30 4621 H 424.237 -2.82698 0.986008 0
M  V30 4622 H 421.783 -1.3592 0.475592 0
M  V30 4623 H 423.736 -4.06423 -1.11348 0
M  V30 4624 H 422.46 -2.89025 -1.52093 0
M  V30 4625 H 421.119 -3.63478 0.47739 0
M  V30 4626 H 420.767 -4.71565 -1.7503 0
M  V30 4627 H 420.467 -5.86103 -0.419237 0
M  V30 4628 H 421.991 -5.9556 -1.34686 0
M  V30 4629 H 423.405 -5.66105 0.905401 0
M  V30 4630 H 421.802 -5.75793 1.69063 0
M  V30 4631 H 422.872 -4.3921 2.05481 0
M  V30 4632 N 424.215 -0.530993 -1.48385 0
M  V30 4633 C 425.445 -0.00133928 -2.066 0
M  V30 4634 C 425.853 1.28599 -1.38777 0
M  V30 4635 O 425.196 1.77599 -0.469495 0
M  V30 4636 C 425.258 0.292137 -3.58311 0
M  V30 4637 C 424.922 -0.901864 -4.48013 0
M  V30 4638 C 425.919 -1.80053 -4.87726 0
M  V30 4639 C 423.604 -1.10915 -4.89901 0
M  V30 4640 C 425.598 -2.89038 -5.68098 0
M  V30 4641 C 423.285 -2.20213 -5.70043 0
M  V30 4642 C 424.283 -3.09107 -6.0905 0
M  V30 4643 O 423.971 -4.16514 -6.87583 0
M  V30 4644 H 423.703 -0.0308475 -0.675296 0
M  V30 4645 H 426.257 -0.736335 -1.91748 0
M  V30 4646 H 424.487 1.08112 -3.7128 0
M  V30 4647 H 426.176 0.763994 -3.98645 0
M  V30 4648 H 426.942 -1.65234 -4.55986 0
M  V30 4649 H 422.821 -0.426498 -4.59023 0
M  V30 4650 H 426.365 -3.58451 -5.98464 0
M  V30 4651 H 422.262 -2.35016 -6.01197 0
M  V30 4652 H 423.03 -4.14237 -7.05939 0
M  V30 4653 N 425.693 1.55336 -0.266172 0
M  V30 4654 C 426.603 2.2583 0.635458 0
M  V30 4655 C 427.619 1.28106 1.17749 0
M  V30 4656 O 428.795 1.61024 1.20968 0
M  V30 4657 C 425.86 2.95879 1.80712 0
M  V30 4658 C 424.921 4.09059 1.30265 0
M  V30 4659 C 424.154 4.75759 2.41846 0
M  V30 4660 O 424.377 4.41622 3.61007 0
M  V30 4661 O 423.311 5.63888 2.1051 0
M  V30 4662 H 427.137 3.03631 0.0646693 0
M  V30 4663 H 424.722 1.49361 -0.0339177 0
M  V30 4664 H 426.604 3.39932 2.49047 0
M  V30 4665 H 425.279 2.21002 2.36516 0
M  V30 4666 H 424.186 3.69482 0.586019 0
M  V30 4667 H 425.519 4.85811 0.790458 0
M  V30 4668 N 427.171 -0.0066808 1.57599 0
M  V30 4669 C 428.104 -1.03397 2.03431 0
M  V30 4670 C 429.082 -1.33872 0.922877 0
M  V30 4671 O 430.266 -1.4615 1.19048 0
M  V30 4672 C 427.393 -2.36325 2.42628 0
M  V30 4673 C 426.439 -2.21557 3.64438 0
M  V30 4674 S 427.272 -1.54789 5.12641 0
M  V30 4675 C 428.428 -2.8916 5.55101 0
M  V30 4676 H 428.661 -0.643687 2.90248 0
M  V30 4677 H 426.194 -0.217349 1.52863 0
M  V30 4678 H 428.152 -3.12759 2.65879 0
M  V30 4679 H 426.813 -2.72495 1.56222 0
M  V30 4680 H 426.006 -3.1974 3.89592 0
M  V30 4681 H 425.608 -1.53267 3.41153 0
M  V30 4682 H 427.9 -3.8547 5.57153 0
M  V30 4683 H 428.843 -2.68713 6.55133 0
M  V30 4684 H 429.251 -2.92762 4.82649 0
M  V30 4685 N 428.649 -1.55105 -0.279332 0
M  V30 4686 C 429.579 -1.90557 -1.34945 0
M  V30 4687 C 430.56 -0.766738 -1.51839 0
M  V30 4688 O 431.745 -1.02434 -1.64988 0
M  V30 4689 C 428.875 -2.17193 -2.71006 0
M  V30 4690 C 427.829 -3.33021 -2.68851 0
M  V30 4691 C 427.155 -3.45123 -4.08405 0
M  V30 4692 C 428.455 -4.69578 -2.28678 0
M  V30 4693 H 430.149 -2.80188 -1.05522 0
M  V30 4694 H 427.695 -1.34811 -0.506173 0
M  V30 4695 H 429.648 -2.40581 -3.45975 0
M  V30 4696 H 428.372 -1.24355 -3.01999 0
M  V30 4697 H 427.031 -3.0959 -1.9634 0
M  V30 4698 H 426.679 -2.49762 -4.3661 0
M  V30 4699 H 426.379 -4.22995 -4.07859 0
M  V30 4700 H 427.903 -3.70796 -4.85121 0
M  V30 4701 H 429.317 -4.92553 -2.93368 0
M  V30 4702 H 427.714 -5.5032 -2.39306 0
M  V30 4703 H 428.784 -4.68828 -1.23807 0
M  V30 4704 N 430.127 0.543554 -1.4793 0
M  V30 4705 C 431.357 1.32324 -1.58663 0
M  V30 4706 C 431.765 1.8766 -0.240896 0
M  V30 4707 O 431.108 1.66411 0.778011 0
M  V30 4708 C 431.17 2.52094 -2.56299 0
M  V30 4709 C 430.834 2.17944 -4.01683 0
M  V30 4710 C 431.831 1.74422 -4.89768 0
M  V30 4711 C 429.516 2.28884 -4.47121 0
M  V30 4712 C 431.51 1.42287 -6.21316 0
M  V30 4713 C 429.197 1.96361 -5.78693 0
M  V30 4714 C 430.195 1.53132 -6.65612 0
M  V30 4715 O 429.883 1.21029 -7.94737 0
M  V30 4716 H 429.615 0.409174 -0.538101 0
M  V30 4717 H 432.169 0.663887 -1.94375 0
M  V30 4718 H 430.399 3.20965 -2.15681 0
M  V30 4719 H 432.088 3.14165 -2.57012 0
M  V30 4720 H 432.854 1.65452 -4.55907 0
M  V30 4721 H 428.733 2.61488 -3.79664 0
M  V30 4722 H 432.277 1.08472 -6.89115 0
M  V30 4723 H 428.174 2.04967 -6.12094 0
M  V30 4724 H 428.942 1.34543 -8.07366 0
M  V30 4725 N 431.605 1.3629 0.791371 0
M  V30 4726 C 432.853 1.30154 1.5461 0
M  V30 4727 C 433.174 -0.119409 1.94634 0
M  V30 4728 O 432.444 -1.05924 1.64794 0
M  V30 4729 H 431.024 0.478784 0.573389 0
M  V30 4730 H 433.686 1.70565 0.94306 0
M  V30 4731 H 432.782 1.92762 2.45457 0
M  V30 4732 N 433.083 -1.0153 1.20538 0
M  V30 4733 C 434.013 -2.11972 0.979295 0
M  V30 4734 C 434.994 -1.6985 -0.0921787 0
M  V30 4735 O 436.179 -1.94089 0.0655932 0
M  V30 4736 C 433.309 -3.43201 0.531984 0
M  V30 4737 C 432.263 -3.9907 1.54685 0
M  V30 4738 C 431.589 -5.26082 0.956127 0
M  V30 4739 C 432.889 -4.32313 2.93092 0
M  V30 4740 H 434.583 -2.31143 1.90298 0
M  V30 4741 H 432.129 -1.11079 0.916372 0
M  V30 4742 H 434.082 -4.1985 0.361044 0
M  V30 4743 H 432.806 -3.23792 -0.427327 0
M  V30 4744 H 431.465 -3.2453 1.70517 0
M  V30 4745 H 431.113 -5.02999 -0.0111538 0
M  V30 4746 H 430.813 -5.64426 1.63393 0
M  V30 4747 H 432.337 -6.05386 0.796284 0
M  V30 4748 H 433.751 -4.99845 2.80763 0
M  V30 4749 H 432.148 -4.81774 3.57791 0
M  V30 4750 H 433.218 -3.41025 3.44717 0
M  V30 4751 N 434.561 -1.01147 -1.20859 0
M  V30 4752 C 435.972 -0.730205 -1.71828 0
M  V30 4753 C 436.323 0.751662 -1.8123 0
M  V30 4754 O 435.448 1.58686 -1.47132 0
M  V30 4755 C 436.043 -1.31885 -3.12077 0
M  V30 4756 C 434.602 -1.08656 -3.60376 0
M  V30 4757 C 433.749 -1.42769 -2.37723 0
M  V30 4758 H 436.7 -1.18158 -1.05945 0
M  V30 4759 H 436.721 -0.706793 -3.73878 0
M  V30 4760 H 436.233 -2.39737 -3.05201 0
M  V30 4761 H 434.334 -0.0254814 -3.72591 0
M  V30 4762 H 434.447 -1.76301 -4.45483 0
M  V30 4763 H 432.811 -0.846603 -2.40218 0
M  V30 4764 H 433.594 -2.51666 -2.33493 0
M  V30 4765 N 436.039 1.36541 -0.78704 0
M  V30 4766 C 437.45 1.81873 -0.421807 0
M  V30 4767 C 437.801 1.65487 1.05397 0
M  V30 4768 O 436.926 1.17448 1.81755 0
M  V30 4769 C 437.521 3.30192 -0.758841 0
M  V30 4770 C 436.08 3.73743 -0.446468 0
M  V30 4771 C 435.227 2.58844 -0.994728 0
M  V30 4772 H 438.178 1.24796 -0.98039 0
M  V30 4773 H 438.199 3.80468 -0.0490648 0
M  V30 4774 H 437.711 3.42087 -1.83299 0
M  V30 4775 H 435.812 3.6741 0.619739 0
M  V30 4776 H 435.925 4.69272 -0.965415 0
M  V30 4777 H 434.289 2.51245 -0.418087 0
M  V30 4778 H 435.072 2.73525 -2.07458 0
M  V30 4779 N 437.518 0.538854 1.48102 0
M  V30 4780 C 438.765 0.0080018 2.02498 0
M  V30 4781 C 439.093 -1.33437 1.41509 0
M  V30 4782 O 438.348 -1.87709 0.553507 0
M  V30 4783 C 438.647 -0.153808 3.57069 0
M  V30 4784 C 438.313 1.11533 4.36888 0
M  V30 4785 C 436.975 1.46314 4.58417 0
M  V30 4786 C 439.327 1.95718 4.83057 0
M  V30 4787 C 436.655 2.6516 5.23361 0
M  V30 4788 C 439.007 3.13751 5.49312 0
M  V30 4789 C 437.671 3.48866 5.69077 0
M  V30 4790 H 436.941 0.00292807 0.740994 0
M  V30 4791 H 439.588 0.706668 1.77984 0
M  V30 4792 H 437.893 -0.935309 3.80472 0
M  V30 4793 H 439.59 -0.579607 3.96789 0
M  V30 4794 H 436.18 0.834484 4.20398 0
M  V30 4795 H 440.364 1.70158 4.66219 0
M  V30 4796 H 435.62 2.92558 5.36861 0
M  V30 4797 H 439.794 3.79282 5.84053 0
M  V30 4798 H 437.421 4.41054 6.19173 0
M  V30 4799 N 438.996 -1.55193 0.274407 0
M  V30 4800 C 440.226 -2.03692 -0.345442 0
M  V30 4801 C 440.634 -1.15224 -1.50067 0
M  V30 4802 O 439.977 -0.164749 -1.8296 0
M  V30 4803 C 440.039 -3.48325 -0.88939 0
M  V30 4804 C 439.703 -4.56794 0.137115 0
M  V30 4805 C 440.7 -5.11028 0.956378 0
M  V30 4806 C 438.385 -5.01568 0.27115 0
M  V30 4807 C 440.379 -6.08552 1.89587 0
M  V30 4808 C 438.066 -5.98918 1.21412 0
M  V30 4809 C 439.064 -6.52291 2.02498 0
M  V30 4810 O 438.752 -7.47738 2.952 0
M  V30 4811 H 438.484 -0.670893 -0.0829332 0
M  V30 4812 H 441.038 -2.01387 0.404056 0
M  V30 4813 H 439.268 -3.47867 -1.68895 0
M  V30 4814 H 440.957 -3.80167 -1.42225 0
M  V30 4815 H 441.723 -4.7725 0.863559 0
M  V30 4816 H 437.602 -4.5967 -0.349987 0
M  V30 4817 H 441.146 -6.50137 2.52918 0
M  V30 4818 H 437.043 -6.32114 1.30776 0
M  V30 4819 H 437.811 -7.65451 2.89874 0
M  V30 4820 N 440.474 -0.00167713 -1.576 0
M  V30 4821 C 441.699 0.69739 -1.95323 0
M  V30 4822 C 442.124 1.6642 -0.876706 0
M  V30 4823 O 441.482 1.80548 0.165007 0
M  V30 4824 C 441.53 1.40403 -3.32144 0
M  V30 4825 O 440.634 2.5185 -3.26566 0
M  V30 4826 H 439.975 0.185373 -0.637599 0
M  V30 4827 H 442.505 -0.0553665 -2.04525 0
M  V30 4828 H 442.515 1.76707 -3.67748 0
M  V30 4829 H 441.19 0.695167 -4.10049 0
M  V30 4830 H 439.767 2.17861 -3.0264 0
M  V30 4831 N 441.952 1.55251 0.271103 0
M  V30 4832 C 443.368 1.47133 0.618393 0
M  V30 4833 C 443.568 0.686994 1.89427 0
M  V30 4834 O 442.624 0.206609 2.51653 0
M  V30 4835 C 443.937 2.91361 0.743593 0
M  V30 4836 C 445.485 3.01587 0.837522 0
M  V30 4837 C 445.96 4.47073 0.994483 0
M  V30 4838 N 447.451 4.50909 1.05996 0
M  V30 4839 C 448.186 5.60698 1.20024 0
M  V30 4840 N 447.682 6.80348 1.30759 0
M  V30 4841 N 449.475 5.48444 1.23149 0
M  V30 4842 H 441.626 2.04698 -0.566784 0
M  V30 4843 H 443.889 0.928319 -0.192165 0
M  V30 4844 H 443.595 3.51483 -0.123493 0
M  V30 4845 H 443.469 3.40484 1.62328 0
M  V30 4846 H 445.856 2.4156 1.69507 0
M  V30 4847 H 445.937 2.55713 -0.0668086 0
M  V30 4848 H 445.581 5.07703 0.141582 0
M  V30 4849 H 445.511 4.90605 1.91349 0
M  V30 4850 H 448.002 3.6472 0.989316 0
M  V30 4851 H 448.315 7.59772 1.41303 0
M  V30 4852 H 446.66 6.83156 1.27761 0
M  V30 4853 H 449.851 4.53907 1.14394 0
M  V30 4854 H 450.024 6.34049 1.33738 0
M  V30 4855 N 443.43 -0.535701 1.48216 0
M  V30 4856 C 444.378 -1.66179 1.62749 0
M  V30 4857 C 445.372 -1.62034 0.49409 0
M  V30 4858 O 446.578 -1.6696 0.672624 0
M  V30 4859 H 442.953 -0.550244 0.512578 0
M  V30 4860 H 444.924 -1.51063 2.57337 0
M  V30 4861 C 443.673 -3.04471 1.67907 0
M  V30 4862 H 442.996 -3.08351 2.54479 0
M  V30 4863 H 444.436 -3.82894 1.82121 0
M  V30 4864 C 442.895 -3.34314 0.416596 0
M  V30 4865 O 443.425 -3.98905 -0.473014 0
M  V30 4866 N 441.631 -2.89149 0.290038 0
M  V30 4867 H 441.178 -2.36764 1.01493 0
M  V30 4868 H 441.136 -3.09486 -0.55367 0
M  V30 4869 N 444.908 -1.36708 -0.784132 0
M  V30 4870 C 446.136 -1.34398 -1.57305 0
M  V30 4871 C 446.551 0.0735577 -1.88657 0
M  V30 4872 O 445.908 1.03193 -1.50524 0
M  V30 4873 C 445.959 -2.17053 -2.89085 0
M  V30 4874 O 445.68 -3.53281 -2.59083 0
M  V30 4875 C 447.181 -2.22583 -3.83369 0
M  V30 4876 H 444.401 -0.460819 -0.487736 0
M  V30 4877 H 446.945 -1.79879 -0.972819 0
M  V30 4878 H 445.1 -1.75113 -3.45564 0
M  V30 4879 H 445.514 -3.9647 -3.43383 0
M  V30 4880 H 446.988 -2.84763 -4.72878 0
M  V30 4881 H 447.465 -1.23075 -4.21603 0
M  V30 4882 H 448.071 -2.64781 -3.32823 0
M  V30 4883 N 446.386 1.0089 -1.21074 0
M  V30 4884 C 447.349 2.0775 -0.968129 0
M  V30 4885 C 448.349 1.6069 0.0593445 0
M  V30 4886 O 449.539 1.73293 -0.177525 0
M  V30 4887 C 446.671 3.37794 -0.459108 0
M  V30 4888 H 447.864 2.30707 -1.9161 0
M  V30 4889 H 445.417 1.17807 -1.02719 0
M  V30 4890 H 446.152 3.20516 0.49397 0
M  V30 4891 H 445.937 3.7328 -1.20019 0
M  V30 4892 H 447.427 4.16454 -0.309099 0
M  V30 4893 N 447.864 1.01787 1.20321 0
M  V30 4894 C 448.774 0.598898 2.26827 0
M  V30 4895 C 449.79 -0.36418 1.70146 0
M  V30 4896 O 450.966 -0.224812 2.00141 0
M  V30 4897 C 448.031 -0.0549769 3.46656 0
M  V30 4898 C 447.092 0.954205 4.18561 0
M  V30 4899 C 446.325 0.331439 5.3267 0
M  V30 4900 O 446.548 -0.86851 5.63749 0
M  V30 4901 O 445.482 1.0488 5.92692 0
M  V30 4902 H 449.308 1.48562 2.64883 0
M  V30 4903 H 446.893 0.787434 1.26964 0
M  V30 4904 H 448.775 -0.420102 4.19301 0
M  V30 4905 H 447.45 -0.915876 3.10473 0
M  V30 4906 H 446.357 1.37072 3.48083 0
M  V30 4907 H 447.69 1.78511 4.58688 0
M  V30 4908 N 449.342 -1.36122 0.79427 0
M  V30 4909 C 450.275 -2.27759 0.141845 0
M  V30 4910 C 451.253 -1.47471 -0.684921 0
M  V30 4911 O 452.437 -1.76759 -0.654857 0
M  V30 4912 C 449.564 -3.29008 -0.804446 0
M  V30 4913 C 448.61 -4.26459 -0.0588617 0
M  V30 4914 S 449.443 -5.20253 1.26873 0
M  V30 4915 C 450.599 -6.25048 0.326562 0
M  V30 4916 H 450.832 -2.82746 0.918818 0
M  V30 4917 H 448.365 -1.42736 0.588722 0
M  V30 4918 H 450.323 -3.87842 -1.34495 0
M  V30 4919 H 448.984 -2.72924 -1.5547 0
M  V30 4920 H 448.177 -4.97973 -0.777087 0
M  V30 4921 H 447.779 -3.71731 0.411309 0
M  V30 4922 H 450.071 -6.75705 -0.492795 0
M  V30 4923 H 451.014 -7.00852 1.01053 0
M  V30 4924 H 451.422 -5.64454 -0.0722627 0
M  V30 4925 N 450.82 -0.546701 -1.47814 0
M  V30 4926 C 452.05 -0.0232519 -2.06587 0
M  V30 4927 C 452.458 1.2712 -1.40133 0
M  V30 4928 O 451.801 1.77091 -0.488305 0
M  V30 4929 C 451.863 0.254117 -3.58601 0
M  V30 4930 C 451.527 -0.949331 -4.47031 0
M  V30 4931 C 452.524 -1.85216 -4.85789 0
M  V30 4932 C 450.209 -1.16104 -4.88697 0
M  V30 4933 C 452.203 -2.95047 -5.65001 0
M  V30 4934 C 449.89 -2.26247 -5.67676 0
M  V30 4935 C 450.888 -3.1555 -6.05737 0
M  V30 4936 O 450.576 -4.23784 -6.83127 0
M  V30 4937 H 450.308 -0.0380082 -0.674931 0
M  V30 4938 H 452.862 -0.756631 -1.90956 0
M  V30 4939 H 451.092 1.04168 -3.72406 0
M  V30 4940 H 452.781 0.72167 -3.99433 0
M  V30 4941 H 453.547 -1.70061 -4.54207 0
M  V30 4942 H 449.426 -0.475159 -4.58545 0
M  V30 4943 H 452.97 -3.64778 -5.94628 0
M  V30 4944 H 448.867 -2.41379 -5.98671 0
M  V30 4945 H 449.635 -4.21701 -7.01506 0
M  V30 4946 N 452.299 1.55045 -0.282633 0
M  V30 4947 C 453.576 1.9179 0.384166 0
M  V30 4948 C 453.956 1.20778 1.73136 0
M  V30 4949 O 453.304 0.33719 2.25998 0
M  V30 4950 C 453.514 3.45149 0.517014 0
M  V30 4951 C 454.862 4.17064 0.796427 0
M  V30 4952 O 455.886 3.51084 0.601535 0
M  V30 4953 O 454.745 5.33837 1.16962 0
M  V30 4954 H 451.839 0.799483 0.211558 0
M  V30 4955 H 454.385 1.66474 -0.32934 0
M  V30 4956 H 453.157 3.88922 -0.430772 0
M  V30 4957 H 452.78 3.76443 1.2797 0
M  V30 4958 N 453.777 0.010035 1.57597 0
M  V30 4959 C 454.725 -0.996272 2.10184 0
M  V30 4960 C 455.719 -1.34942 1.02406 0
M  V30 4961 O 456.925 -1.33389 1.20861 0
M  V30 4962 H 453.3 -0.338982 0.671264 0
M  V30 4963 H 455.271 -0.527272 2.93705 0
M  V30 4964 C 454.02 -2.27599 2.62857 0
M  V30 4965 H 453.343 -2.01295 3.45428 0
M  V30 4966 H 454.783 -2.96265 3.0332 0
M  V30 4967 C 453.242 -2.99269 1.54725 0
M  V30 4968 O 453.772 -3.90644 0.93597 0
M  V30 4969 N 451.978 -2.61269 1.27228 0
M  V30 4970 H 451.525 -1.87043 1.77123 0
M  V30 4971 H 451.483 -3.09534 0.550999 0
M  V30 4972 N 455.255 -1.55392 -0.262866 0
M  V30 4973 C 456.504 -1.75679 -0.990943 0
M  V30 4974 C 456.817 -0.57097 -1.87081 0
M  V30 4975 O 458.023 -0.656486 -2.63444 0
M  V30 4976 C 456.479 -3.10964 -1.81188 0
M  V30 4977 C 456.087 -4.37146 -0.980188 0
M  V30 4978 C 457.831 -3.40597 -2.53365 0
M  V30 4979 C 455.738 -5.63466 -1.7961 0
M  V30 4980 H 454.668 -0.654868 -0.373716 0
M  V30 4981 H 457.319 -1.81841 -0.246203 0
M  V30 4982 H 455.701 -2.98867 -2.59797 0
M  V30 4983 H 456.875 -4.60187 -0.237558 0
M  V30 4984 H 455.19 -4.14731 -0.372497 0
M  V30 4985 H 457.787 -4.32186 -3.14833 0
M  V30 4986 H 458.13 -2.6119 -3.24169 0
M  V30 4987 H 458.663 -3.53838 -1.81779 0
M  V30 4988 H 455.402 -6.4565 -1.13209 0
M  V30 4989 H 454.922 -5.44552 -2.51443 0
M  V30 4990 H 456.601 -6.02139 -2.36723 0
M  V30 4991 N 456.733 0.527833 -1.48498 0
M  V30 4992 C 457.663 1.64136 -1.66077 0
M  V30 4993 C 458.644 1.62286 -0.509625 0
M  V30 4994 O 459.829 1.79449 -0.742413 0
M  V30 4995 C 456.959 3.02717 -1.70234 0
M  V30 4996 C 455.913 3.19426 -2.8487 0
M  V30 4997 C 455.239 4.5909 -2.74118 0
M  V30 4998 C 456.539 3.01993 -4.26142 0
M  V30 4999 H 458.233 1.4968 -2.593 0
M  V30 5000 H 455.779 0.718654 -1.24785 0
M  V30 5001 H 457.732 3.80491 -1.8112 0
M  V30 5002 H 456.456 3.18201 -0.735911 0
M  V30 5003 H 455.115 2.4407 -2.73542 0
M  V30 5004 H 454.763 4.71413 -1.7544 0
M  V30 5005 H 454.463 4.71214 -3.51042 0
M  V30 5006 H 455.987 5.3896 -2.86974 0
M  V30 5007 H 457.401 3.69558 -4.38292 0
M  V30 5008 H 455.798 3.2561 -5.04082 0
M  V30 5009 H 456.868 1.98396 -4.42456 0
M  V30 5010 N 458.211 1.37122 0.776871 0
M  V30 5011 C 459.159 1.32549 1.91138 0
M  V30 5012 C 460.153 0.215119 1.68029 0
M  V30 5013 O 461.359 0.382852 1.75881 0
M  V30 5014 H 457.734 0.412952 0.62847 0
M  V30 5015 H 459.705 2.28332 1.92112 0
M  V30 5016 C 458.454 1.14422 3.28333 0
M  V30 5017 H 457.777 1.99115 3.46689 0
M  V30 5018 H 459.217 1.15272 4.0803 0
M  V30 5019 C 457.676 -0.150434 3.36564 0
M  V30 5020 O 458.206 -1.13584 3.85307 0
M  V30 5021 N 456.412 -0.19939 2.89915 0
M  V30 5022 H 455.959 0.603142 2.5044 0
M  V30 5023 H 455.917 -1.06526 2.95803 0
M  V30 5024 N 459.689 -1.00246 1.21608 0
M  V30 5025 C 460.636 -2.09073 0.977613 0
M  V30 5026 C 461.606 -1.65815 -0.097297 0
M  V30 5027 O 462.791 -1.90734 0.0503445 0
M  V30 5028 C 459.931 -3.40671 0.551133 0
M  V30 5029 C 459.044 -3.97326 1.69576 0
M  V30 5030 C 458.179 -5.17043 1.2182 0
M  V30 5031 C 457.218 -5.65813 2.335 0
M  V30 5032 N 456.355 -6.76778 1.86859 0
M  V30 5033 H 461.195 -2.28806 1.90924 0
M  V30 5034 H 458.732 -1.12186 0.951452 0
M  V30 5035 H 460.69 -4.16225 0.285097 0
M  V30 5036 H 459.32 -3.20967 -0.343489 0
M  V30 5037 H 458.372 -3.18734 2.07637 0
M  V30 5038 H 459.684 -4.29511 2.53617 0
M  V30 5039 H 458.838 -5.99852 0.908975 0
M  V30 5040 H 457.577 -4.86458 0.347869 0
M  V30 5041 H 456.582 -4.81599 2.65222 0
M  V30 5042 H 457.807 -5.98427 3.21033 0
M  V30 5043 H 455.753 -6.47994 1.02174 0
M  V30 5044 H 455.67 -7.08231 2.64471 0
M  V30 5045 H 456.938 -7.63116 1.58978 0
M  V30 5046 N 461.167 -1.02423 -1.1978 0
M  V30 5047 C 462.578 -0.748389 -1.71044 0
M  V30 5048 C 462.929 0.732398 -1.82017 0
M  V30 5049 O 462.054 1.57116 -1.48807 0
M  V30 5050 C 462.649 -1.35187 -3.1066 0
M  V30 5051 C 461.208 -1.12472 -3.59203 0
M  V30 5052 C 460.355 -1.45283 -2.36195 0
M  V30 5053 H 463.306 -1.19275 -1.04686 0
M  V30 5054 H 463.327 -0.746408 -3.73107 0
M  V30 5055 H 462.839 -2.4296 -3.02642 0
M  V30 5056 H 460.94 -0.0649983 -3.72543 0
M  V30 5057 H 461.053 -1.81016 -4.43588 0
M  V30 5058 H 459.417 -0.872034 -2.39307 0
M  V30 5059 H 460.2 -2.54129 -2.30811 0
M  V30 5060 N 462.645 1.35699 -0.801477 0
M  V30 5061 C 463.575 2.32436 -0.222658 0
M  V30 5062 C 464.556 1.5723 0.649057 0
M  V30 5063 O 465.741 1.85324 0.580387 0
M  V30 5064 C 462.871 3.41469 0.633719 0
M  V30 5065 C 461.825 4.27774 -0.139083 0
M  V30 5066 C 461.151 5.28082 0.838666 0
M  V30 5067 C 462.451 5.04946 -1.33517 0
M  V30 5068 H 464.145 2.81094 -1.03086 0
M  V30 5069 H 461.691 1.35146 -0.497155 0
M  V30 5070 H 463.644 4.08143 1.04868 0
M  V30 5071 H 462.368 2.91408 1.47475 0
M  V30 5072 H 461.027 3.62673 -0.535156 0
M  V30 5073 H 460.675 4.7429 1.67506 0
M  V30 5074 H 460.375 5.86695 0.32594 0
M  V30 5075 H 461.899 5.97628 1.25194 0
M  V30 5076 H 463.313 5.64593 -0.995349 0
M  V30 5077 H 461.71 5.7303 -1.78202 0
M  V30 5078 H 462.78 4.35886 -2.12442 0
M  V30 5079 N 464.123 0.554532 1.47522 0
M  V30 5080 C 465.055 -0.232106 2.28022 0
M  V30 5081 C 466.068 -0.881865 1.36847 0
M  V30 5082 O 467.257 -0.756168 1.61692 0
M  V30 5083 C 464.357 -1.34604 3.11022 0
M  V30 5084 C 463.53 -0.793582 4.30141 0
M  V30 5085 C 462.589 -1.79168 4.94758 0
M  V30 5086 O 461.615 -1.33886 5.5323 0
M  V30 5087 N 462.817 -3.12495 4.89211 0
M  V30 5088 H 465.582 0.458407 2.96173 0
M  V30 5089 H 463.143 0.390433 1.57122 0
M  V30 5090 H 465.135 -2.01243 3.51118 0
M  V30 5091 H 463.705 -1.93983 2.45131 0
M  V30 5092 H 462.925 0.0495025 3.94169 0
M  V30 5093 H 464.213 -0.403776 5.07195 0
M  V30 5094 H 463.611 -3.51931 4.42901 0
M  V30 5095 H 462.168 -3.74698 5.33333 0
M  V30 5096 N 465.601 -1.54893 0.290851 0
M  V30 5097 C 466.531 -2.26103 -0.583084 0
M  V30 5098 C 467.512 -1.25684 -1.14619 0
M  V30 5099 O 468.697 -1.54436 -1.17741 0
M  V30 5100 C 465.827 -2.99409 -1.75987 0
M  V30 5101 C 464.781 -4.0689 -1.32758 0
M  V30 5102 C 464.107 -4.67856 -2.58872 0
M  V30 5103 C 465.407 -5.20215 -0.46624 0
M  V30 5104 H 467.101 -2.99398 0.0108214 0
M  V30 5105 H 464.647 -1.43998 0.00664468 0
M  V30 5106 H 466.6 -3.47943 -2.37727 0
M  V30 5107 H 465.324 -2.23675 -2.37985 0
M  V30 5108 H 463.983 -3.59191 -0.733299 0
M  V30 5109 H 463.631 -3.88772 -3.19163 0
M  V30 5110 H 463.331 -5.40438 -2.30653 0
M  V30 5111 H 464.855 -5.19147 -3.21433 0
M  V30 5112 H 466.269 -5.64704 -0.989047 0
M  V30 5113 H 464.666 -5.99455 -0.27826 0
M  V30 5114 H 465.736 -4.82198 0.511173 0
M  V30 5115 N 467.08 -0.0183926 -1.57589 0
M  V30 5116 C 468.027 0.967022 -2.09565 0
M  V30 5117 C 468.997 1.32983 -0.995225 0
M  V30 5118 O 470.182 1.42501 -1.26878 0
M  V30 5119 C 467.322 2.24772 -2.61861 0
M  V30 5120 C 466.435 1.94232 -3.85873 0
M  V30 5121 C 465.57 3.16518 -4.26603 0
M  V30 5122 C 464.609 2.81748 -5.43401 0
M  V30 5123 N 463.746 3.96626 -5.79338 0
M  V30 5124 H 468.586 0.516874 -2.93483 0
M  V30 5125 H 466.123 0.243544 -1.4507 0
M  V30 5126 H 468.081 2.99667 -2.90268 0
M  V30 5127 H 466.711 2.67423 -1.8079 0
M  V30 5128 H 465.763 1.09625 -3.64262 0
M  V30 5129 H 467.075 1.64616 -4.70853 0
M  V30 5130 H 466.229 3.99743 -4.56389 0
M  V30 5131 H 464.968 3.49286 -3.40368 0
M  V30 5132 H 463.973 1.96933 -5.1332 0
M  V30 5133 H 465.198 2.50207 -6.31327 0
M  V30 5134 H 463.144 4.29257 -4.96059 0
M  V30 5135 H 463.061 3.70598 -6.58933 0
M  V30 5136 H 464.329 4.80586 -6.13724 0
M  V30 5137 N 468.558 1.5553 0.254621 0
M  V30 5138 C 469.969 1.67518 0.824286 0
M  V30 5139 C 470.32 0.614429 1.86331 0
M  V30 5140 O 469.445 -0.240736 2.15057 0
M  V30 5141 C 470.04 3.03692 1.50189 0
M  V30 5142 C 468.599 3.17646 2.01935 0
M  V30 5143 C 467.746 2.63373 0.867746 0
M  V30 5144 H 470.697 1.58671 0.0305843 0
M  V30 5145 H 470.718 2.97706 2.36962 0
M  V30 5146 H 470.23 3.80874 0.745431 0
M  V30 5147 H 468.331 2.45273 2.80485 0
M  V30 5148 H 468.444 4.24455 2.22204 0
M  V30 5149 H 466.808 2.20999 1.26616 0
M  V30 5150 H 467.591 3.43074 0.124498 0
M  V30 5151 N 470.036 -0.519951 1.48776 0
M  V30 5152 C 470.984 -1.64443 1.64503 0
M  V30 5153 C 471.978 -1.61501 0.511248 0
M  V30 5154 O 473.184 -1.66238 0.690294 0
M  V30 5155 H 469.559 -0.544776 0.518385 0
M  V30 5156 H 471.53 -1.48325 2.58925 0
M  V30 5157 C 470.279 -3.02673 1.71127 0
M  V30 5158 H 469.602 -3.05635 2.57735 0
M  V30 5159 H 471.042 -3.80941 1.86172 0
M  V30 5160 C 469.501 -3.33854 0.452032 0
M  V30 5161 O 470.031 -3.99385 -0.430678 0
M  V30 5162 N 468.237 -2.88825 0.32069 0
M  V30 5163 H 467.784 -2.35674 1.03998 0
M  V30 5164 H 467.742 -3.10056 -0.520814 0
M  V30 5165 N 471.514 -1.37532 -0.769588 0
M  V30 5166 C 472.763 -1.32183 -1.5235 0
M  V30 5167 C 473.076 0.0906555 -1.9539 0
M  V30 5168 O 474.282 0.266628 -2.70188 0
M  V30 5169 C 472.738 -2.32029 -2.75119 0
M  V30 5170 C 472.346 -3.78816 -2.3917 0
M  V30 5171 C 474.09 -2.35694 -3.53056 0
M  V30 5172 C 471.997 -4.70388 -3.58453 0
M  V30 5173 H 470.927 -0.491275 -0.571984 0
M  V30 5174 H 473.578 -1.63004 -0.842739 0
M  V30 5175 H 471.96 -1.94229 -3.45096 0
M  V30 5176 H 473.134 -4.25466 -1.76962 0
M  V30 5177 H 471.449 -3.78117 -1.74402 0
M  V30 5178 H 474.046 -3.01312 -4.41718 0
M  V30 5179 H 474.389 -1.37117 -3.93071 0
M  V30 5180 H 474.922 -2.72212 -2.90078 0
M  V30 5181 H 471.661 -5.70102 -3.23518 0
M  V30 5182 H 471.181 -4.28442 -4.19758 0
M  V30 5183 H 472.86 -4.87628 -4.25239 0
M  V30 5184 N 472.992 0.995999 -1.22138 0
M  V30 5185 C 474.22 1.77066 -1.07029 0
M  V30 5186 C 474.635 1.8495 0.379357 0
M  V30 5187 O 473.992 1.3174 1.26297 0
M  V30 5188 C 474.043 3.20533 -1.67155 0
M  V30 5189 O 473.764 3.13082 -3.06449 0
M  V30 5190 C 475.265 4.14461 -1.5728 0
M  V30 5191 H 472.485 0.556179 -0.375374 0
M  V30 5192 H 475.029 1.25238 -1.61666 0
M  V30 5193 H 473.184 3.6944 -1.16589 0
M  V30 5194 H 473.598 4.03283 -3.35355 0
M  V30 5195 H 475.072 5.1289 -2.04078 0
M  V30 5196 H 475.549 4.36005 -0.528795 0
M  V30 5197 H 476.155 3.71449 -2.07136 0
M  V30 5198 N 474.47 1.03057 1.19235 0
M  V30 5199 C 475.418 0.606391 2.24557 0
M  V30 5200 C 476.412 -0.361826 1.65491 0
M  V30 5201 O 477.618 -0.23022 1.78522 0
M  V30 5202 H 473.993 0.177838 0.730669 0
M  V30 5203 H 475.964 1.50529 2.5765 0
M  V30 5204 C 474.713 -0.0252127 3.47691 0
M  V30 5205 H 474.036 0.710838 3.9343 0
M  V30 5206 H 475.476 -0.284931 4.23042 0
M  V30 5207 C 473.935 -1.27229 3.11953 0
M  V30 5208 O 474.465 -2.36416 3.24762 0
M  V30 5209 N 472.671 -1.16169 2.6637 0
M  V30 5210 H 472.218 -0.273189 2.56147 0
M  V30 5211 H 472.176 -1.99703 2.42829 0
M  V30 5212 N 475.948 -1.35272 0.808662 0
M  V30 5213 C 477.173 -2.03477 0.401475 0
M  V30 5214 C 477.598 -1.60537 -0.980279 0
M  V30 5215 O 476.956 -0.78304 -1.63518 0
M  V30 5216 C 477.004 -3.57181 0.495354 0
M  V30 5217 O 476.108 -4.09474 -0.490397 0
M  V30 5218 H 475.449 -0.642561 0.167366 0
M  V30 5219 H 477.979 -1.72824 1.09512 0
M  V30 5220 H 477.989 -4.06356 0.365912 0
M  V30 5221 H 476.664 -3.87784 1.5032 0
M  V30 5222 H 475.241 -3.71516 -0.321023 0
M  V30 5223 N 477.426 -0.562348 -1.47226 0
M  V30 5224 C 478.389 0.172056 -2.28553 0
M  V30 5225 C 479.389 0.837928 -1.37242 0
M  V30 5226 O 480.579 0.693001 -1.59822 0
M  V30 5227 C 477.711 1.25223 -3.17068 0
M  V30 5228 H 478.904 -0.542401 -2.94954 0
M  V30 5229 H 476.457 -0.319493 -1.53 0
M  V30 5230 H 477.192 1.99892 -2.55369 0
M  V30 5231 H 476.977 0.779515 -3.84273 0
M  V30 5232 H 478.467 1.76791 -3.78332 0
M  V30 5233 N 478.904 1.54736 -0.299062 0
M  V30 5234 C 480.32 1.59507 0.0543849 0
M  V30 5235 C 480.52 1.31606 1.52585 0
M  V30 5236 O 479.576 1.08853 2.27832 0
M  V30 5237 C 480.889 2.98751 -0.34181 0
M  V30 5238 C 482.437 3.1165 -0.290414 0
M  V30 5239 C 482.912 4.53199 -0.661402 0
M  V30 5240 N 484.403 4.59114 -0.613863 0
M  V30 5241 C 485.138 5.66709 -0.873417 0
M  V30 5242 N 484.634 6.82349 -1.19884 0
M  V30 5243 N 486.427 5.56369 -0.800608 0
M  V30 5244 H 478.578 1.71133 -1.25806 0
M  V30 5245 H 480.841 0.799186 -0.509908 0
M  V30 5246 H 480.547 3.24085 -1.36608 0
M  V30 5247 H 480.421 3.75961 0.305508 0
M  V30 5248 H 482.808 2.86066 0.724605 0
M  V30 5249 H 482.889 2.366 -0.972327 0
M  V30 5250 H 482.533 4.79513 -1.67422 0
M  V30 5251 H 482.463 5.26583 0.0425612 0
M  V30 5252 H 484.954 3.76053 -0.3732 0
M  V30 5253 H 485.267 7.60326 -1.38291 0
M  V30 5254 H 483.612 6.83906 -1.23685 0
M  V30 5255 H 486.803 4.64904 -0.546045 0
M  V30 5256 H 486.976 6.40139 -1.00626 0
M  V30 5257 N 480.382 0.0267497 1.57577 0
M  V30 5258 C 481.332 -0.965003 2.06571 0
M  V30 5259 C 482.316 -1.28694 0.965746 0
M  V30 5260 O 483.508 -1.27345 1.22932 0
M  V30 5261 C 480.637 -2.24821 2.59443 0
M  V30 5262 C 479.723 -1.95474 3.76365 0
M  V30 5263 N 480.114 -1.36387 4.87065 0
M  V30 5264 C 478.412 -2.25478 3.84806 0
M  V30 5265 C 479.113 -1.24119 5.68304 0
M  V30 5266 N 478.089 -1.7359 5.15138 0
M  V30 5267 H 481.891 -0.503095 2.89562 0
M  V30 5268 H 479.405 -0.178322 1.61418 0
M  V30 5269 H 481.402 -2.9674 2.92833 0
M  V30 5270 H 480.062 -2.7164 1.77881 0
M  V30 5271 H 481.073 -1.03919 5.07367 0
M  V30 5272 H 477.75 -2.74987 3.14147 0
M  V30 5273 H 479.14 -0.784504 6.67304 0
M  V30 5274 N 481.861 -1.55662 -0.24637 0
M  V30 5275 C 482.791 -1.93377 -1.30873 0
M  V30 5276 C 483.772 -0.798773 -1.50179 0
M  V30 5277 O 484.957 -1.0591 -1.62778 0
M  V30 5278 C 482.087 -2.22893 -2.66338 0
M  V30 5279 C 481.041 -3.38649 -2.61727 0
M  V30 5280 C 480.367 -3.53708 -4.00992 0
M  V30 5281 C 481.667 -4.74323 -2.18666 0
M  V30 5282 H 483.361 -2.82363 -0.995552 0
M  V30 5283 H 480.907 -1.35854 -0.477464 0
M  V30 5284 H 482.86 -2.47866 -3.40794 0
M  V30 5285 H 481.584 -1.30733 -2.99293 0
M  V30 5286 H 480.243 -3.13685 -1.89729 0
M  V30 5287 H 479.891 -2.58967 -4.31214 0
M  V30 5288 H 479.591 -4.31551 -3.98795 0
M  V30 5289 H 481.115 -3.81003 -4.77147 0
M  V30 5290 H 482.529 -4.98665 -2.82854 0
M  V30 5291 H 480.926 -5.55273 -2.27579 0
M  V30 5292 H 481.996 -4.71349 -1.13834 0
M  V30 5293 N 483.339 0.512053 -1.4905 0
M  V30 5294 C 484.269 1.62365 -1.67809 0
M  V30 5295 C 485.25 1.61737 -0.526809 0
M  V30 5296 O 486.435 1.78651 -0.761404 0
M  V30 5297 C 483.565 3.00895 -1.73435 0
M  V30 5298 C 482.519 3.16387 -2.88242 0
M  V30 5299 C 481.845 4.56157 -2.78971 0
M  V30 5300 C 483.145 2.97457 -4.29321 0
M  V30 5301 H 484.839 1.46921 -2.60873 0
M  V30 5302 H 482.385 0.705379 -1.2554 0
M  V30 5303 H 484.338 3.78549 -1.85145 0
M  V30 5304 H 483.062 3.17403 -0.769619 0
M  V30 5305 H 481.721 2.41155 -2.76116 0
M  V30 5306 H 481.369 4.69525 -1.8043 0
M  V30 5307 H 481.069 4.67465 -3.5602 0
M  V30 5308 H 482.593 5.35886 -2.92675 0
M  V30 5309 H 484.007 3.64888 -4.42187 0
M  V30 5310 H 482.404 3.20245 -5.07507 0
M  V30 5311 H 483.474 1.93692 -4.44535 0
M  V30 5312 N 484.817 1.37938 0.762283 0
M  V30 5313 C 485.727 1.36681 1.90671 0
M  V30 5314 C 486.743 0.265078 1.71969 0
M  V30 5315 O 487.919 0.502055 1.95042 0
M  V30 5316 C 484.984 1.18211 3.25925 0
M  V30 5317 C 484.045 2.3811 3.57214 0
M  V30 5318 C 483.278 2.20512 4.86014 0
M  V30 5319 O 483.501 1.19429 5.57757 0
M  V30 5320 O 482.435 3.08911 5.16583 0
M  V30 5321 H 486.261 2.33091 1.94685 0
M  V30 5322 H 483.846 1.18767 0.906356 0
M  V30 5323 H 485.728 1.09937 4.06807 0
M  V30 5324 H 484.403 0.248807 3.22742 0
M  V30 5325 H 483.31 2.51958 2.76529 0
M  V30 5326 H 484.643 3.30041 3.65149 0
M  V30 5327 N 486.295 -0.989507 1.22664 0
M  V30 5328 C 487.543 -1.72612 1.05117 0
M  V30 5329 C 487.864 -1.90552 -0.414131 0
M  V30 5330 O 487.134 -1.4676 -1.29762 0
M  V30 5331 H 485.714 -0.639555 0.385977 0
M  V30 5332 H 488.376 -1.19158 1.54232 0
M  V30 5333 H 487.472 -2.71926 1.53175 0
M  V30 5334 N 487.773 -1.03688 -1.18687 0
M  V30 5335 C 488.703 -0.645407 -2.24403 0
M  V30 5336 C 489.684 0.349511 -1.66471 0
M  V30 5337 O 490.869 0.230453 -1.92828 0
M  V30 5338 C 487.999 -0.00365337 -3.473 0
M  V30 5339 C 486.953 -0.921705 -4.17958 0
M  V30 5340 C 486.279 -0.144629 -5.34504 0
M  V30 5341 C 487.579 -2.23909 -4.71871 0
M  V30 5342 H 489.273 -1.52917 -2.57404 0
M  V30 5343 H 486.819 -0.736711 -1.23728 0
M  V30 5344 H 488.772 0.281908 -4.20456 0
M  V30 5345 H 487.496 0.914963 -3.13522 0
M  V30 5346 H 486.155 -1.19159 -3.46694 0
M  V30 5347 H 485.803 0.776274 -4.96974 0
M  V30 5348 H 485.503 -0.756206 -5.82714 0
M  V30 5349 H 487.027 0.134004 -6.10453 0
M  V30 5350 H 488.441 -2.0145 -5.36741 0
M  V30 5351 H 486.838 -2.8033 -5.30599 0
M  V30 5352 H 487.908 -2.88822 -3.895 0
M  V30 5353 N 489.251 1.34841 -0.815825 0
M  V30 5354 C 490.181 2.32187 -0.247298 0
M  V30 5355 C 491.162 1.5791 0.632344 0
M  V30 5356 O 492.347 1.8593 0.560698 0
M  V30 5357 C 489.477 3.42122 0.597466 0
M  V30 5358 C 488.431 4.27602 -0.184446 0
M  V30 5359 C 487.757 5.28942 0.782609 0
M  V30 5360 C 489.057 5.03502 -1.38865 0
M  V30 5361 H 490.751 2.79985 -1.06061 0
M  V30 5362 H 488.297 1.34611 -0.511461 0
M  V30 5363 H 490.25 4.09232 1.00533 0
M  V30 5364 H 488.974 2.92956 1.44376 0
M  V30 5365 H 487.633 3.62085 -0.573592 0
M  V30 5366 H 487.281 4.7604 1.62466 0
M  V30 5367 H 486.981 5.87008 0.263695 0
M  V30 5368 H 488.505 5.98922 1.18848 0
M  V30 5369 H 489.919 5.63506 -1.05518 0
M  V30 5370 H 488.316 5.71108 -1.8427 0
M  V30 5371 H 489.386 4.33608 -2.17054 0
M  V30 5372 N 490.729 0.570148 1.46925 0
M  V30 5373 C 491.661 -0.207909 2.28255 0
M  V30 5374 C 492.674 -0.867301 1.37774 0
M  V30 5375 O 493.863 -0.738976 1.62485 0
M  V30 5376 C 490.963 -1.31298 3.12433 0
M  V30 5377 C 490.136 -0.747915 4.30958 0
M  V30 5378 C 489.195 -1.7391 4.9663 0
M  V30 5379 O 488.221 -1.2801 5.54619 0
M  V30 5380 N 489.423 -3.07288 4.92498 0
M  V30 5381 H 492.188 0.489794 2.95671 0
M  V30 5382 H 489.749 0.407076 1.56699 0
M  V30 5383 H 491.741 -1.97507 3.53232 0
M  V30 5384 H 490.311 -1.91373 2.47175 0
M  V30 5385 H 489.531 0.0913066 3.94094 0
M  V30 5386 H 490.819 -0.349958 5.07595 0
M  V30 5387 H 490.217 -3.47213 4.46609 0
M  V30 5388 H 488.774 -3.69021 5.37277 0
M  V30 5389 N 492.207 -1.54576 0.307264 0
M  V30 5390 C 493.154 -2.23751 -0.56604 0
M  V30 5391 C 494.124 -1.22235 -1.12462 0
M  V30 5392 O 495.309 -1.50873 -1.16799 0
M  V30 5393 C 492.449 -2.98661 -1.72903 0
M  V30 5394 C 491.562 -4.14963 -1.20124 0
M  V30 5395 C 490.697 -4.77441 -2.3286 0
M  V30 5396 C 489.736 -5.85875 -1.77247 0
M  V30 5397 N 488.873 -6.42282 -2.8358 0
M  V30 5398 H 493.713 -2.97984 0.0304578 0
M  V30 5399 H 491.25 -1.47076 0.0268015 0
M  V30 5400 H 493.208 -3.40329 -2.41313 0
M  V30 5401 H 491.838 -2.26793 -2.29706 0
M  V30 5402 H 490.89 -3.78193 -0.409198 0
M  V30 5403 H 492.202 -4.93066 -0.754171 0
M  V30 5404 H 491.356 -5.21993 -3.09205 0
M  V30 5405 H 490.095 -3.98684 -2.80896 0
M  V30 5406 H 489.1 -5.40741 -0.993926 0
M  V30 5407 H 490.325 -6.6652 -1.30107 0
M  V30 5408 H 488.271 -5.66406 -3.30939 0
M  V30 5409 H 488.188 -7.1575 -2.43388 0
M  V30 5410 H 489.456 -6.91492 -3.59804 0
M  V30 5411 N 493.685 -0.035106 -1.57561 0
M  V30 5412 C 494.962 0.681212 -1.83354 0
M  V30 5413 C 495.342 1.89986 -0.920252 0
M  V30 5414 O 494.69 2.28489 0.0226815 0
M  V30 5415 C 494.9 1.05376 -3.32712 0
M  V30 5416 C 496.248 1.44286 -3.99333 0
M  V30 5417 O 497.272 1.14656 -3.37242 0
M  V30 5418 O 496.131 1.99518 -5.08778 0
M  V30 5419 H 493.225 0.334741 -0.756226 0
M  V30 5420 H 495.771 -0.0632448 -1.69582 0
M  V30 5421 H 494.543 0.186668 -3.90854 0
M  V30 5422 H 494.166 1.85619 -3.51613 0
M  V30 5423 N 495.163 1.55791 0.238111 0
M  V30 5424 C 496.579 1.48411 0.587045 0
M  V30 5425 C 496.779 0.72702 1.87927 0
M  V30 5426 O 495.835 0.259942 2.51158 0
M  V30 5427 C 497.148 2.92873 0.681623 0
M  V30 5428 C 498.696 3.03295 0.773363 0
M  V30 5429 C 499.171 4.49082 0.899428 0
M  V30 5430 N 500.662 4.53056 0.964075 0
M  V30 5431 C 501.397 5.63117 1.08104 0
M  V30 5432 N 500.893 6.82969 1.16299 0
M  V30 5433 N 502.686 5.50933 1.11488 0
M  V30 5434 H 494.837 2.0345 -0.610076 0
M  V30 5435 H 497.1 0.924034 -0.211813 0
M  V30 5436 H 496.806 3.51142 -0.19802 0
M  V30 5437 H 496.68 3.43851 1.55069 0
M  V30 5438 H 499.067 2.45101 1.64346 0
M  V30 5439 H 499.148 2.55513 -0.121034 0
M  V30 5440 H 498.792 5.07889 0.0338586 0
M  V30 5441 H 498.722 4.94553 1.809 0
M  V30 5442 H 501.213 3.66737 0.91173 0
M  V30 5443 H 501.526 7.62598 1.25155 0
M  V30 5444 H 499.871 6.85712 1.13241 0
M  V30 5445 H 503.062 4.56231 1.0474 0
M  V30 5446 H 503.235 6.36743 1.20259 0
M  V30 5447 N 496.642 -0.504142 1.49319 0
M  V30 5448 C 497.87 -1.28256 1.62351 0
M  V30 5449 C 498.285 -1.86502 0.293682 0
M  V30 5450 O 497.642 -1.67678 -0.720449 0
M  V30 5451 C 497.693 -2.41507 2.68992 0
M  V30 5452 O 497.414 -1.85656 3.96817 0
M  V30 5453 C 498.915 -3.32929 2.927 0
M  V30 5454 H 496.135 -0.389115 0.546654 0
M  V30 5455 H 498.679 -0.605531 1.95329 0
M  V30 5456 H 496.834 -3.05046 2.38801 0
M  V30 5457 H 497.248 -2.59981 4.55533 0
M  V30 5458 H 498.722 -4.0868 3.71058 0
M  V30 5459 H 499.199 -3.89733 2.02496 0
M  V30 5460 H 499.805 -2.75158 3.24296 0
M  V30 5461 N 498.12 -1.38341 -0.754957 0
M  V30 5462 C 499.067 -1.3546 -1.86867 0
M  V30 5463 C 500.037 -0.217369 -1.64672 0
M  V30 5464 O 501.222 -0.409383 -1.86356 0
M  V30 5465 C 498.362 -1.18413 -3.24149 0
M  V30 5466 C 497.475 -2.41511 -3.58185 0
M  V30 5467 C 496.61 -2.17205 -4.84763 0
M  V30 5468 C 495.649 -3.36081 -5.11582 0
M  V30 5469 N 494.786 -3.11219 -6.29354 0
M  V30 5470 H 499.626 -2.30672 -1.88664 0
M  V30 5471 H 497.163 -1.14607 -0.922154 0
M  V30 5472 H 499.121 -1.06545 -4.03366 0
M  V30 5473 H 497.751 -0.268397 -3.21682 0
M  V30 5474 H 496.803 -2.64056 -2.73822 0
M  V30 5475 H 498.115 -3.30115 -3.73932 0
M  V30 5476 H 497.269 -2.02465 -5.7192 0
M  V30 5477 H 496.008 -1.25964 -4.71152 0
M  V30 5478 H 495.013 -3.51341 -4.22894 0
M  V30 5479 H 496.238 -4.28196 -5.27091 0
M  V30 5480 H 494.184 -2.22624 -6.17069 0
M  V30 5481 H 494.101 -3.93373 -6.45596 0
M  V30 5482 H 495.369 -3.00132 -7.19403 0
M  V30 5483 N 499.598 0.982988 -1.23187 0
M  V30 5484 C 501.014 1.2487 -0.993967 0
M  V30 5485 C 501.214 1.99155 0.306498 0
M  V30 5486 O 500.27 2.30688 1.0266 0
M  V30 5487 C 501.583 2.05078 -2.19917 0
M  V30 5488 C 503.131 2.18227 -2.2438 0
M  V30 5489 C 503.606 3.01825 -3.44479 0
M  V30 5490 N 505.097 3.09411 -3.44702 0
M  V30 5491 C 505.832 3.74412 -4.34285 0
M  V30 5492 N 505.328 4.41259 -5.341 0
M  V30 5493 N 507.121 3.71273 -4.22035 0
M  V30 5494 H 499.272 0.485253 -2.06783 0
M  V30 5495 H 501.535 0.276979 -0.906635 0
M  V30 5496 H 501.241 1.57867 -3.14279 0
M  V30 5497 H 501.115 3.05829 -2.2079 0
M  V30 5498 H 503.502 2.64648 -1.30559 0
M  V30 5499 H 503.583 1.16873 -2.2754 0
M  V30 5500 H 503.227 2.56102 -4.38605 0
M  V30 5501 H 503.157 4.03342 -3.38559 0
M  V30 5502 H 505.648 2.61845 -2.7248 0
M  V30 5503 H 505.961 4.88629 -5.98717 0
M  V30 5504 H 504.306 4.39975 -5.38002 0
M  V30 5505 H 507.497 3.18217 -3.43301 0
M  V30 5506 H 507.67 4.21649 -4.92053 0
M  V30 5507 N 501.076 1.04316 1.18135 0
M  V30 5508 C 502.006 0.657299 2.24058 0
M  V30 5509 C 502.987 -0.340678 1.66654 0
M  V30 5510 O 504.172 -0.220223 1.92947 0
M  V30 5511 C 501.302 0.0220715 3.47293 0
M  V30 5512 C 500.256 0.943857 4.17463 0
M  V30 5513 C 499.582 0.172973 5.3442 0
M  V30 5514 C 500.882 2.26409 4.70677 0
M  V30 5515 H 502.576 1.5428 2.56589 0
M  V30 5516 H 500.122 0.743263 1.23335 0
M  V30 5517 H 502.075 -0.259607 4.206 0
M  V30 5518 H 500.799 -0.898323 3.14003 0
M  V30 5519 H 499.458 1.20996 3.46057 0
M  V30 5520 H 499.106 -0.749907 4.97379 0
M  V30 5521 H 498.806 0.787098 5.82304 0
M  V30 5522 H 500.33 -0.101628 6.10515 0
M  V30 5523 H 501.744 2.04294 5.35665 0
M  V30 5524 H 500.141 2.8314 5.29105 0
M  V30 5525 H 501.211 2.90883 3.87962 0
M  V30 5526 N 502.554 -1.34406 0.822964 0
M  V30 5527 C 503.802 -1.97892 0.410245 0
M  V30 5528 C 504.123 -1.65567 -1.03017 0
M  V30 5529 O 503.393 -0.94642 -1.71522 0
M  V30 5530 H 501.973 -0.732049 0.148707 0
M  V30 5531 H 504.635 -1.64043 1.05242 0
M  V30 5532 H 503.731 -3.07579 0.529284 0
M  V30 5533 N 504.032 -0.577932 -1.46621 0
M  V30 5534 C 504.995 0.147805 -2.28723 0
M  V30 5535 C 505.995 0.823325 -1.38123 0
M  V30 5536 O 507.185 0.676011 -1.60548 0
M  V30 5537 C 504.317 1.21853 -3.18378 0
M  V30 5538 H 505.51 -0.573654 -2.94362 0
M  V30 5539 H 503.063 -0.335703 -1.52652 0
M  V30 5540 H 503.798 1.97173 -2.57475 0
M  V30 5541 H 503.583 0.738714 -3.85078 0
M  V30 5542 H 505.073 1.72768 -3.80186 0
M  V30 5543 N 505.51 1.54411 -0.315457 0
M  V30 5544 C 506.457 2.24048 0.554166 0
M  V30 5545 C 507.427 1.2283 1.11812 0
M  V30 5546 O 508.612 1.51491 1.15997 0
M  V30 5547 C 505.752 2.99574 1.71316 0
M  V30 5548 C 504.865 4.15594 1.17922 0
M  V30 5549 C 504 4.78669 2.30324 0
M  V30 5550 C 503.039 5.86807 1.74137 0
M  V30 5551 N 502.176 6.43777 2.8017 0
M  V30 5552 H 507.016 2.97964 -0.0462602 0
M  V30 5553 H 504.553 1.47059 -0.0346009 0
M  V30 5554 H 506.511 3.41604 2.39505 0
M  V30 5555 H 505.141 2.28008 2.285 0
M  V30 5556 H 504.193 3.78404 0.389136 0
M  V30 5557 H 505.505 4.93459 0.728012 0
M  V30 5558 H 504.659 5.23626 3.06433 0
M  V30 5559 H 503.398 4.00168 2.78778 0
M  V30 5560 H 502.403 5.41261 0.965236 0
M  V30 5561 H 503.628 6.67201 1.2657 0
M  V30 5562 H 501.574 5.68153 3.2793 0
M  V30 5563 H 501.491 7.17031 2.39588 0
M  V30 5564 H 502.759 6.9339 3.56132 0
M  V30 5565 N 506.988 0.0434614 1.5754 0
M  V30 5566 C 508.265 -0.671479 1.83713 0
M  V30 5567 C 508.645 -1.89495 0.930315 0
M  V30 5568 O 507.993 -2.28498 -0.0105639 0
M  V30 5569 C 508.203 -1.0361 3.33266 0
M  V30 5570 C 509.551 -1.42167 4.00092 0
M  V30 5571 O 510.575 -1.12866 3.37846 0
M  V30 5572 O 509.434 -1.96817 5.09829 0
M  V30 5573 H 506.528 -0.330726 0.75799 0
M  V30 5574 H 509.074 0.0722373 1.69546 0
M  V30 5575 H 507.846 -0.165938 3.90948 0
M  V30 5576 H 507.469 -1.83751 3.52592 0
M  V30 5577 N 508.466 -1.55915 -0.229846 0
M  V30 5578 C 509.743 -1.6932 -0.979295 0
M  V30 5579 C 510.123 -0.588321 -2.02736 0
M  V30 5580 O 509.471 0.40586 -2.24867 0
M  V30 5581 C 509.681 -3.10305 -1.59724 0
M  V30 5582 C 511.029 -3.6945 -2.09264 0
M  V30 5583 O 512.053 -3.13214 -1.69633 0
M  V30 5584 O 510.912 -4.68072 -2.82082 0
M  V30 5585 H 508.006 -0.689314 -0.456919 0
M  V30 5586 H 510.552 -1.68238 -0.222283 0
M  V30 5587 H 509.324 -3.82177 -0.840039 0
M  V30 5588 H 508.947 -3.1547 -2.42001 0
M  V30 5589 N 509.944 0.496216 -1.49584 0
M  V30 5590 C 511.191 1.25003 -1.59312 0
M  V30 5591 C 511.519 1.92445 -0.28198 0
M  V30 5592 O 510.774 1.81557 0.730452 0
M  V30 5593 C 511.073 2.3359 -2.705 0
M  V30 5594 C 510.739 1.83574 -4.11839 0
M  V30 5595 C 509.401 1.69653 -4.50302 0
M  V30 5596 C 511.753 1.46193 -5.00277 0
M  V30 5597 C 509.081 1.16736 -5.74969 0
M  V30 5598 C 511.433 0.947265 -6.25468 0
M  V30 5599 C 510.097 0.794485 -6.62755 0
M  V30 5600 H 509.367 0.45742 -0.582965 0
M  V30 5601 H 512.014 0.549996 -1.83432 0
M  V30 5602 H 510.319 3.09401 -2.40371 0
M  V30 5603 H 512.016 2.91627 -2.75235 0
M  V30 5604 H 508.606 1.9537 -3.81482 0
M  V30 5605 H 512.79 1.55793 -4.71214 0
M  V30 5606 H 508.046 1.03623 -6.02555 0
M  V30 5607 H 512.22 0.648846 -6.93371 0
M  V30 5608 H 509.847 0.382271 -7.59238 0
M  V30 5609 N 511.423 1.38739 0.74761 0
M  V30 5610 C 512.356 1.3083 1.86972 0
M  V30 5611 C 513.334 0.184229 1.61553 0
M  V30 5612 O 514.518 0.36256 1.8498 0
M  V30 5613 C 511.645 1.02854 3.22705 0
M  V30 5614 C 510.691 2.17281 3.67003 0
M  V30 5615 S 511.524 3.79468 3.77842 0
M  V30 5616 C 512.68 3.53692 5.16385 0
M  V30 5617 H 512.913 2.258 1.93395 0
M  V30 5618 H 510.446 1.24646 0.911199 0
M  V30 5619 H 512.404 0.87397 4.01089 0
M  V30 5620 H 511.065 0.0959295 3.13953 0
M  V30 5621 H 510.258 1.93267 4.65472 0
M  V30 5622 H 509.86 2.28876 2.9579 0
M  V30 5623 H 512.152 3.10176 6.02327 0
M  V30 5624 H 513.095 4.51576 5.45422 0
M  V30 5625 H 513.503 2.8807 4.85464 0
M  V30 5626 N 512.901 -0.976442 1.23707 0
M  V30 5627 C 513.811 -2.10359 1.03856 0
M  V30 5628 C 514.827 -1.73991 -0.0180919 0
M  V30 5629 O 516.003 -2.0061 0.178211 0
M  V30 5630 C 513.068 -3.40809 0.636387 0
M  V30 5631 C 512.129 -3.91179 1.76854 0
M  V30 5632 C 511.362 -5.15404 1.38546 0
M  V30 5633 O 511.585 -5.69754 0.27142 0
M  V30 5634 O 510.519 -5.5994 2.20797 0
M  V30 5635 H 514.345 -2.29997 1.98331 0
M  V30 5636 H 511.93 -1.08742 1.02448 0
M  V30 5637 H 513.812 -4.19269 0.423223 0
M  V30 5638 H 512.487 -3.22493 -0.279322 0
M  V30 5639 H 511.394 -3.13819 2.03638 0
M  V30 5640 H 512.727 -4.13958 2.6627 0
M  V30 5641 N 514.379 -1.04941 -1.1758 0
M  V30 5642 C 515.628 -0.753124 -1.87112 0
M  V30 5643 C 515.941 0.722507 -1.81767 0
M  V30 5644 O 517.147 1.13265 -2.46746 0
M  V30 5645 C 515.603 -1.29695 -3.35719 0
M  V30 5646 C 515.211 -2.80184 -3.49572 0
M  V30 5647 C 516.955 -1.07759 -4.10595 0
M  V30 5648 C 514.862 -3.2788 -4.92187 0
M  V30 5649 H 513.792 -0.278034 -0.700866 0
M  V30 5650 H 516.443 -1.26637 -1.32798 0
M  V30 5651 H 514.825 -0.711522 -3.89555 0
M  V30 5652 H 515.999 -3.44561 -3.05965 0
M  V30 5653 H 514.314 -3.00632 -2.88113 0
M  V30 5654 H 516.911 -1.40899 -5.15802 0
M  V30 5655 H 517.254 -0.0152302 -4.16297 0
M  V30 5656 H 517.787 -1.62809 -3.62957 0
M  V30 5657 H 514.526 -4.33535 -4.91658 0
M  V30 5658 H 514.046 -2.68245 -5.36475 0
M  V30 5659 H 515.725 -3.22412 -5.60945 0
M  V30 5660 N 515.857 1.33968 -0.830081 0
M  V30 5661 C 516.804 2.29387 -0.255008 0
M  V30 5662 C 517.774 1.53923 0.624243 0
M  V30 5663 O 518.959 1.82262 0.564372 0
M  V30 5664 C 516.099 3.4034 0.571209 0
M  V30 5665 C 515.212 4.30729 -0.331083 0
M  V30 5666 C 514.347 5.2879 0.505389 0
M  V30 5667 C 513.386 6.10819 -0.395843 0
M  V30 5668 N 512.523 7.00948 0.401979 0
M  V30 5669 H 517.363 2.77972 -1.07404 0
M  V30 5670 H 514.9 1.36785 -0.541133 0
M  V30 5671 H 516.858 4.03361 1.06562 0
M  V30 5672 H 515.488 2.9297 1.35529 0
M  V30 5673 H 514.54 3.68507 -0.943759 0
M  V30 5674 H 515.852 4.88181 -1.02377 0
M  V30 5675 H 515.006 5.97297 1.06399 0
M  V30 5676 H 513.745 4.71894 1.23155 0
M  V30 5677 H 512.75 5.41238 -0.966529 0
M  V30 5678 H 513.975 6.69797 -1.12023 0
M  V30 5679 H 511.921 6.46512 1.11168 0
M  V30 5680 H 511.838 7.55643 -0.232167 0
M  V30 5681 H 513.106 7.73774 0.943102 0
M  V30 5682 N 517.335 0.585699 1.46312 0
M  V30 5683 C 518.56 0.0762461 2.0726 0
M  V30 5684 C 518.985 -1.22071 1.43109 0
M  V30 5685 O 518.343 -1.73804 0.515942 0
M  V30 5686 C 518.391 -0.0729404 3.60526 0
M  V30 5687 O 517.495 -1.1287 3.96654 0
M  V30 5688 H 516.836 0.0641558 0.660893 0
M  V30 5689 H 519.366 0.809492 1.87905 0
M  V30 5690 H 519.376 -0.278158 4.07051 0
M  V30 5691 H 518.051 0.874188 4.06609 0
M  V30 5692 H 516.628 -0.901703 3.61834 0
M  V30 5693 N 518.813 -1.54241 0.323641 0
M  V30 5694 C 519.763 -2.21071 -0.557833 0
M  V30 5695 C 520.747 -1.19126 -1.08157 0
M  V30 5696 O 521.939 -1.44755 -1.01857 0
M  V30 5697 C 519.068 -2.97208 -1.71821 0
M  V30 5698 C 518.154 -4.06491 -1.20936 0
M  V30 5699 N 518.545 -5.04052 -0.420202 0
M  V30 5700 C 516.843 -4.20443 -1.48808 0
M  V30 5701 C 517.544 -5.81516 -0.146413 0
M  V30 5702 N 516.52 -5.38641 -0.732562 0
M  V30 5703 H 520.322 -2.93853 0.0523921 0
M  V30 5704 H 517.836 -1.61883 0.129502 0
M  V30 5705 H 519.833 -3.4357 -2.36146 0
M  V30 5706 H 518.493 -2.25947 -2.33191 0
M  V30 5707 H 519.504 -5.17862 -0.0630401 0
M  V30 5708 H 516.181 -3.60396 -2.10762 0
M  V30 5709 H 517.571 -6.70119 0.488895 0
M  V30 5710 N 520.291 -0.0518155 -1.57515 0
M  V30 5711 C 521.537 0.622745 -1.93002 0
M  V30 5712 C 521.87 1.70456 -0.930499 0
M  V30 5713 O 521.145 1.94452 0.0434086 0
M  V30 5714 C 521.428 1.21824 -3.38867 0
M  V30 5715 C 521.281 0.144434 -4.49568 0
M  V30 5716 C 522.6 2.12968 -3.8514 0
M  V30 5717 H 519.719 0.22491 -0.701844 0
M  V30 5718 H 522.361 -0.113711 -1.89659 0
M  V30 5719 H 520.511 1.8459 -3.41846 0
M  V30 5720 H 522.183 -0.48753 -4.58717 0
M  V30 5721 H 520.426 -0.527424 -4.30582 0
M  V30 5722 H 521.097 0.601127 -5.48717 0
M  V30 5723 H 523.573 1.60163 -3.8404 0
M  V30 5724 H 522.449 2.51578 -4.87852 0
M  V30 5725 H 522.71 3.03004 -3.21934 0
M  V30 5726 N 521.769 1.56035 0.221574 0
M  V30 5727 C 523.016 1.79047 0.94597 0
M  V30 5728 C 523.344 0.62057 1.84334 0
M  V30 5729 O 522.599 -0.395053 1.91671 0
M  V30 5730 C 522.898 3.07813 1.8162 0
M  V30 5731 C 522.564 4.3797 1.07206 0
M  V30 5732 C 521.226 4.73334 0.866508 0
M  V30 5733 C 523.578 5.18326 0.546565 0
M  V30 5734 C 520.906 5.8657 0.123549 0
M  V30 5735 C 523.258 6.32335 -0.18305 0
M  V30 5736 C 521.922 6.66301 -0.399861 0
M  V30 5737 H 521.192 0.655178 0.346155 0
M  V30 5738 H 523.839 1.90299 0.214146 0
M  V30 5739 H 522.144 2.91682 2.61589 0
M  V30 5740 H 523.841 3.2282 2.37884 0
M  V30 5741 H 520.431 4.10202 1.24226 0
M  V30 5742 H 524.615 4.9144 0.692847 0
M  V30 5743 H 519.871 6.11376 -0.0546591 0
M  V30 5744 H 524.045 6.9383 -0.59775 0
M  V30 5745 H 521.672 7.53889 -0.977489 0
M  V30 5746 N 523.247 -0.488276 1.49845 0
M  V30 5747 C 524.494 -1.24157 1.59973 0
M  V30 5748 C 524.822 -1.92293 0.292182 0
M  V30 5749 O 524.077 -1.81942 -0.720813 0
M  V30 5750 C 524.376 -2.32152 2.71735 0
M  V30 5751 C 524.042 -1.81387 4.12807 0
M  V30 5752 C 522.704 -1.67262 4.51195 0
M  V30 5753 C 525.056 -1.43537 5.01045 0
M  V30 5754 C 522.384 -1.13685 5.7558 0
M  V30 5755 C 524.736 -0.914081 6.25961 0
M  V30 5756 C 523.4 -0.759327 6.63167 0
M  V30 5757 H 522.67 -0.454322 0.585383 0
M  V30 5758 H 525.317 -0.540261 1.83721 0
M  V30 5759 H 523.622 -3.08122 2.42008 0
M  V30 5760 H 525.319 -2.90164 2.76778 0
M  V30 5761 H 521.909 -1.93344 3.82513 0
M  V30 5762 H 526.093 -1.53292 4.72033 0
M  V30 5763 H 521.349 -1.00426 6.03096 0
M  V30 5764 H 525.523 -0.612066 6.93705 0
M  V30 5765 H 523.15 -0.342002 7.5943 0
M  V30 5766 N 524.725 -1.39134 -0.740242 0
M  V30 5767 C 525.95 -1.39518 -1.53459 0
M  V30 5768 C 526.375 0.00968883 -1.88098 0
M  V30 5769 O 525.733 0.995312 -1.51536 0
M  V30 5770 C 525.781 -2.26981 -2.802 0
M  V30 5771 O 524.885 -1.69609 -3.75908 0
M  V30 5772 H 524.226 -0.475328 -0.463637 0
M  V30 5773 H 526.756 -1.83064 -0.913717 0
M  V30 5774 H 526.766 -2.41309 -3.28989 0
M  V30 5775 H 525.441 -3.29081 -2.5432 0
M  V30 5776 H 524.018 -1.64495 -3.34658 0
M  V30 5777 N 526.204 0.969867 -1.24223 0
M  V30 5778 C 527.134 2.08191 -1.05729 0
M  V30 5779 C 528.115 1.70075 0.0290765 0
M  V30 5780 O 529.3 1.93712 -0.137583 0
M  V30 5781 C 526.43 3.40991 -0.658995 0
M  V30 5782 C 525.384 3.93054 -1.69389 0
M  V30 5783 C 524.71 5.22171 -1.15072 0
M  V30 5784 C 526.01 4.21137 -3.08935 0
M  V30 5785 H 527.704 2.23921 -1.98746 0
M  V30 5786 H 525.25 1.07602 -0.956967 0
M  V30 5787 H 527.203 4.18221 -0.51662 0
M  V30 5788 H 525.927 3.25155 0.30686 0
M  V30 5789 H 524.586 3.17977 -1.82444 0
M  V30 5790 H 524.234 5.02694 -0.175539 0
M  V30 5791 H 523.934 5.57973 -1.84229 0
M  V30 5792 H 525.458 6.02013 -1.02042 0
M  V30 5793 H 526.872 4.8908 -2.99121 0
M  V30 5794 H 525.269 4.68163 -3.75425 0
M  V30 5795 H 526.339 3.27996 -3.57137 0
M  V30 5796 N 527.682 1.05563 1.17022 0
M  V30 5797 C 528.931 0.763036 1.8671 0
M  V30 5798 C 529.244 -0.712857 1.82147 0
M  V30 5799 O 530.45 -1.11955 2.47343 0
M  V30 5800 C 528.906 1.31474 3.35026 0
M  V30 5801 C 528.514 2.82034 3.48081 0
M  V30 5802 C 530.258 1.09935 4.10018 0
M  V30 5803 C 528.165 3.30486 4.90442 0
M  V30 5804 H 527.095 0.281747 0.699382 0
M  V30 5805 H 529.746 1.2734 1.32124 0
M  V30 5806 H 528.128 0.732171 3.89173 0
M  V30 5807 H 529.302 3.46178 3.04133 0
M  V30 5808 H 527.617 3.02156 2.86515 0
M  V30 5809 H 530.214 1.43632 5.15048 0
M  V30 5810 H 530.557 0.0373072 4.16283 0
M  V30 5811 H 531.09 1.64732 3.62089 0
M  V30 5812 H 527.829 4.36137 4.89352 0
M  V30 5813 H 527.349 2.71086 5.35044 0
M  V30 5814 H 529.028 3.25382 5.59227 0
M  V30 5815 N 529.16 -1.33526 0.837174 0
M  V30 5816 C 530.108 -2.31168 0.257698 0
M  V30 5817 C 531.102 -1.5806 -0.609388 0
M  V30 5818 O 532.308 -1.72941 -0.499139 0
M  V30 5819 H 528.683 -0.74922 0.0646058 0
M  V30 5820 H 530.654 -2.77552 1.09578 0
M  V30 5821 C 529.403 -3.4326 -0.553887 0
M  V30 5822 H 528.726 -3.99665 0.104008 0
M  V30 5823 H 530.166 -4.13782 -0.925219 0
M  V30 5824 C 528.625 -2.88965 -1.73207 0
M  V30 5825 O 529.155 -2.85013 -2.83073 0
M  V30 5826 N 527.361 -2.45596 -1.55342 0
M  V30 5827 H 526.908 -2.49009 -0.659705 0
M  V30 5828 H 526.866 -2.0962 -2.34322 0
M  V30 5829 N 530.638 -0.59345 -1.46 0
M  V30 5830 C 531.884 -0.0916503 -2.03193 0
M  V30 5831 C 532.239 1.25839 -1.45541 0
M  V30 5832 O 531.532 1.81455 -0.615191 0
M  V30 5833 C 531.726 0.021178 -3.57394 0
M  V30 5834 C 531.555 -1.31638 -4.30002 0
M  V30 5835 C 530.325 -1.89336 -4.68487 0
M  V30 5836 C 532.523 -2.242 -4.62859 0
M  V30 5837 N 530.505 -3.1672 -5.25891 0
M  V30 5838 C 531.876 -3.36175 -5.20948 0
M  V30 5839 C 533.931 -2.23748 -4.44794 0
M  V30 5840 C 532.634 -4.47844 -5.62875 0
M  V30 5841 C 534.66 -3.34454 -4.87744 0
M  V30 5842 C 534.022 -4.4515 -5.45913 0
M  V30 5843 H 530.121 -0.0765713 -0.778242 0
M  V30 5844 H 532.705 -0.788705 -1.7801 0
M  V30 5845 H 530.876 0.687423 -3.82268 0
M  V30 5846 H 532.608 0.528343 -4.01236 0
M  V30 5847 H 529.363 -1.42704 -4.51589 0
M  V30 5848 H 529.787 -3.81746 -5.59106 0
M  V30 5849 H 534.429 -1.39433 -3.99147 0
M  V30 5850 H 532.147 -5.32894 -6.07495 0
M  V30 5851 H 535.733 -3.35234 -4.75509 0
M  V30 5852 H 534.613 -5.29398 -5.78539 0
M  V30 5853 N 532.116 1.54067 -0.331816 0
M  V30 5854 C 533.393 1.92915 0.322955 0
M  V30 5855 C 533.773 1.26225 1.69205 0
M  V30 5856 O 533.121 0.408919 2.24811 0
M  V30 5857 C 533.331 3.46619 0.406946 0
M  V30 5858 C 534.679 4.19386 0.663339 0
M  V30 5859 O 535.703 3.5282 0.489536 0
M  V30 5860 O 534.562 5.37288 0.999193 0
M  V30 5861 H 531.656 0.805808 0.186016 0
M  V30 5862 H 534.202 1.65342 -0.382135 0
M  V30 5863 H 532.974 3.87354 -0.554287 0
M  V30 5864 H 532.597 3.80324 1.15929 0
M  V30 5865 N 533.594 0.0601682 1.57485 0
M  V30 5866 C 534.871 -0.651956 1.84415 0
M  V30 5867 C 535.251 -1.88498 0.950361 0
M  V30 5868 O 534.599 -2.28496 0.0136719 0
M  V30 5869 C 534.809 -1.00069 3.34346 0
M  V30 5870 C 536.157 -1.37915 4.01578 0
M  V30 5871 O 537.181 -1.09277 3.39024 0
M  V30 5872 O 536.04 -1.91399 5.11887 0
M  V30 5873 H 533.134 -0.322668 0.761455 0
M  V30 5874 H 535.68 0.0902159 1.6946 0
M  V30 5875 H 534.452 -0.124463 3.91102 0
M  V30 5876 H 534.075 -1.80001 3.54521 0
M  V30 5877 N 535.072 -1.5615 -0.213296 0
M  V30 5878 C 536.002 -1.96109 -1.26742 0
M  V30 5879 C 536.983 -0.830448 -1.48451 0
M  V30 5880 O 538.168 -1.09339 -1.60495 0
M  V30 5881 C 535.298 -2.28492 -2.61551 0
M  V30 5882 C 534.252 -3.44124 -2.54485 0
M  V30 5883 C 533.578 -3.62134 -3.93399 0
M  V30 5884 C 534.878 -4.78855 -2.08556 0
M  V30 5885 H 536.572 -2.84412 -0.935434 0
M  V30 5886 H 534.118 -1.36836 -0.44854 0
M  V30 5887 H 536.071 -2.55039 -3.3546 0
M  V30 5888 H 534.795 -1.37052 -2.96453 0
M  V30 5889 H 533.454 -3.17639 -1.83033 0
M  V30 5890 H 533.102 -2.68055 -4.25623 0
M  V30 5891 H 532.802 -4.39913 -3.89551 0
M  V30 5892 H 534.326 -3.91038 -4.68958 0
M  V30 5893 H 535.74 -5.04552 -2.72213 0
M  V30 5894 H 534.137 -5.59975 -2.1575 0
M  V30 5895 H 535.207 -4.73657 -1.03811 0
M  V30 5896 N 536.55 0.480323 -1.50102 0
M  V30 5897 C 537.799 1.22979 -1.59872 0
M  V30 5898 C 538.112 1.93282 -0.30022 0
M  V30 5899 O 539.318 2.70086 -0.276709 0
M  V30 5900 C 537.774 2.23408 -2.82164 0
M  V30 5901 C 537.382 1.5895 -4.18854 0
M  V30 5902 C 539.126 2.99055 -3.01275 0
M  V30 5903 C 537.033 2.57611 -5.32344 0
M  V30 5904 H 535.963 0.462707 -0.59533 0
M  V30 5905 H 538.614 0.501291 -1.7652 0
M  V30 5906 H 536.996 2.99511 -2.59055 0
M  V30 5907 H 538.17 0.887 -4.52182 0
M  V30 5908 H 536.485 0.956191 -4.05273 0
M  V30 5909 H 539.082 3.72876 -3.83233 0
M  V30 5910 H 539.425 3.57897 -2.12639 0
M  V30 5911 H 539.958 2.30066 -3.24522 0
M  V30 5912 H 536.697 2.03521 -6.23105 0
M  V30 5913 H 536.217 3.26041 -5.03445 0
M  V30 5914 H 537.896 3.19627 -5.62537 0
M  V30 5915 N 538.028 1.39524 0.732853 0
M  V30 5916 C 538.976 1.38563 1.86824 0
M  V30 5917 C 539.97 0.268467 1.67259 0
M  V30 5918 O 541.176 0.438613 1.74574 0
M  V30 5919 H 537.551 0.432737 0.615014 0
M  V30 5920 H 539.522 2.34328 1.84751 0
M  V30 5921 C 538.271 1.2481 3.24527 0
M  V30 5922 H 537.594 2.10044 3.40179 0
M  V30 5923 H 539.034 1.28194 4.04156 0
M  V30 5924 C 537.493 -0.0432825 3.36872 0
M  V30 5925 O 538.023 -1.01268 3.88726 0
M  V30 5926 N 536.229 -0.107055 2.90403 0
M  V30 5927 H 535.776 0.682512 2.48394 0
M  V30 5928 H 535.734 -0.970618 2.99042 0
M  V30 5929 N 539.506 -0.963266 1.24736 0
M  V30 5930 C 540.453 -2.05857 1.04363 0
M  V30 5931 C 541.423 -1.6604 -0.0444951 0
M  V30 5932 O 542.608 -1.90477 0.110999 0
M  V30 5933 C 539.748 -3.38745 0.659235 0
M  V30 5934 C 538.861 -3.9173 1.82131 0
M  V30 5935 C 537.996 -5.12906 1.38208 0
M  V30 5936 C 537.035 -5.58098 2.51382 0
M  V30 5937 N 536.172 -6.7049 2.08295 0
M  V30 5938 H 541.012 -2.22616 1.98107 0
M  V30 5939 H 538.549 -1.09103 0.986661 0
M  V30 5940 H 540.507 -4.15107 0.417371 0
M  V30 5941 H 539.137 -3.21898 -0.241201 0
M  V30 5942 H 538.189 -3.11966 2.17672 0
M  V30 5943 H 539.501 -4.21225 2.67153 0
M  V30 5944 H 538.655 -5.96657 1.09935 0
M  V30 5945 H 537.394 -4.85105 0.502456 0
M  V30 5946 H 536.399 -4.72917 2.80409 0
M  V30 5947 H 537.624 -5.87911 3.39909 0
M  V30 5948 H 535.57 -6.44416 1.22737 0
M  V30 5949 H 535.487 -6.99458 2.86869 0
M  V30 5950 H 536.755 -7.57672 1.83175 0
M  V30 5951 N 540.985 -1.06182 -1.16461 0
M  V30 5952 C 541.932 -0.671613 -2.20812 0
M  V30 5953 C 542.902 0.331186 -1.62765 0
M  V30 5954 O 544.087 0.22033 -1.89524 0
M  V30 5955 C 541.227 -0.063029 -3.45042 0
M  V30 5956 C 540.34 -1.11587 -4.1734 0
M  V30 5957 C 539.475 -0.473546 -5.29085 0
M  V30 5958 C 538.514 -1.51 -5.93182 0
M  V30 5959 N 537.651 -0.891118 -6.96422 0
M  V30 5960 H 542.491 -1.56589 -2.53542 0
M  V30 5961 H 540.028 -0.782951 -1.24532 0
M  V30 5962 H 541.986 0.307344 -4.16066 0
M  V30 5963 H 540.616 0.794663 -3.12866 0
M  V30 5964 H 539.668 -1.60396 -3.44931 0
M  V30 5965 H 540.98 -1.90221 -4.61104 0
M  V30 5966 H 540.134 -0.0501432 -6.06679 0
M  V30 5967 H 538.873 0.344687 -4.8648 0
M  V30 5968 H 537.878 -1.94331 -5.14311 0
M  V30 5969 H 539.103 -2.33031 -6.37866 0
M  V30 5970 H 537.049 -0.0935753 -6.55933 0
M  V30 5971 H 536.966 -1.61486 -7.38551 0
M  V30 5972 H 538.234 -0.492822 -7.77941 0
M  V30 5973 N 542.463 1.3308 -0.844243 0
M  V30 5974 C 543.712 1.96868 -0.438833 0
M  V30 5975 C 544.025 1.67599 1.00846 0
M  V30 5976 O 545.231 2.25043 1.51881 0
M  V30 5977 C 543.687 3.5234 -0.73377 0
M  V30 5978 C 543.295 3.90481 -2.1961 0
M  V30 5979 C 545.039 4.22653 -0.395574 0
M  V30 5980 C 542.946 5.38954 -2.43481 0
M  V30 5981 H 541.876 0.736749 -0.160364 0
M  V30 5982 H 544.527 1.51623 -1.03358 0
M  V30 5983 H 542.909 3.95941 -0.068589 0
M  V30 5984 H 544.083 3.57922 -2.90221 0
M  V30 5985 H 542.398 3.33165 -2.4978 0
M  V30 5986 H 544.995 5.31848 -0.551477 0
M  V30 5987 H 545.338 4.11004 0.661921 0
M  V30 5988 H 545.871 3.84601 -1.01621 0
M  V30 5989 H 542.61 5.55612 -3.47816 0
M  V30 5990 H 542.13 5.72954 -1.77437 0
M  V30 5991 H 543.809 6.05907 -2.26905 0
M  V30 5992 N 543.941 0.601185 1.45683 0
M  V30 5993 C 545.169 0.100054 2.06658 0
M  V30 5994 C 545.584 -1.21285 1.44691 0
M  V30 5995 O 544.941 -1.73735 0.558772 0
M  V30 5996 C 544.992 -0.0528579 3.61461 0
M  V30 5997 O 544.713 1.20809 4.21114 0
M  V30 5998 C 546.214 -0.586193 4.39407 0
M  V30 5999 H 543.434 0.065905 0.667756 0
M  V30 6000 H 545.978 0.827101 1.87028 0
M  V30 6001 H 544.133 -0.730203 3.80456 0
M  V30 6002 H 544.547 1.03368 5.14213 0
M  V30 6003 H 546.021 -0.642297 5.4825 0
M  V30 6004 H 546.498 -1.60713 4.0874 0
M  V30 6005 H 547.104 0.0568935 4.25262 0
M  V30 6006 N 545.419 -1.53889 0.339982 0
M  V30 6007 C 546.83 -1.86139 -0.144671 0
M  V30 6008 C 547.181 -1.2613 -1.50285 0
M  V30 6009 O 546.306 -0.573515 -2.08662 0
M  V30 6010 C 546.901 -3.37728 -0.269285 0
M  V30 6011 C 545.46 -3.69868 -0.698168 0
M  V30 6012 C 544.607 -2.76777 0.170249 0
M  V30 6013 H 547.558 -1.48503 0.559704 0
M  V30 6014 H 547.579 -3.64331 -1.0974 0
M  V30 6015 H 547.091 -3.81375 0.719366 0
M  V30 6016 H 545.192 -3.31764 -1.69597 0
M  V30 6017 H 545.305 -4.76582 -0.490533 0
M  V30 6018 H 543.669 -2.52188 -0.356844 0
M  V30 6019 H 544.452 -3.23253 1.15597 0
M  V30 6020 N 546.897 -0.0685191 -1.57451 0
M  V30 6021 C 548.308 0.464634 -1.80826 0
M  V30 6022 C 548.659 1.69847 -0.982169 0
M  V30 6023 O 547.784 2.15439 -0.203734 0
M  V30 6024 C 548.379 0.849721 -3.27971 0
M  V30 6025 C 546.938 1.32776 -3.52204 0
M  V30 6026 C 546.085 0.311332 -2.75547 0
M  V30 6027 H 549.036 -0.294248 -1.55948 0
M  V30 6028 H 549.057 1.71138 -3.39841 0
M  V30 6029 H 548.569 -0.0484736 -3.8807 0
M  V30 6030 H 546.67 2.24456 -2.97406 0
M  V30 6031 H 546.783 1.30794 -4.60901 0
M  V30 6032 H 545.147 0.787915 -2.42206 0
M  V30 6033 H 545.93 -0.579078 -3.38381 0
M  V30 6034 N 548.375 1.56261 0.205012 0
M  V30 6035 C 549.622 1.8004 0.926927 0
M  V30 6036 C 549.95 0.640086 1.83666 0
M  V30 6037 O 549.205 -0.374702 1.92079 0
M  V30 6038 C 549.504 3.09722 1.78345 0
M  V30 6039 C 549.17 4.39082 1.02555 0
M  V30 6040 C 547.832 4.74226 0.816256 0
M  V30 6041 C 550.184 5.18877 0.491559 0
M  V30 6042 C 547.512 5.86668 0.0613287 0
M  V30 6043 C 549.864 6.32105 -0.250107 0
M  V30 6044 C 548.528 6.6584 -0.470508 0
M  V30 6045 H 547.798 0.658812 0.339187 0
M  V30 6046 H 550.445 1.90515 0.19395 0
M  V30 6047 H 548.75 2.9444 2.5848 0
M  V30 6048 H 550.447 3.25324 2.34446 0
M  V30 6049 H 547.037 4.11497 1.19868 0
M  V30 6050 H 551.221 4.92147 0.640684 0
M  V30 6051 H 546.477 6.11283 -0.119501 0
M  V30 6052 H 550.651 6.93157 -0.671307 0
M  V30 6053 H 548.278 7.5281 -1.05739 0
M  V30 6054 N 549.853 -0.472356 1.50355 0
M  V30 6055 C 550.801 -1.59126 1.69651 0
M  V30 6056 C 551.795 -1.59793 0.56237 0
M  V30 6057 O 553.001 -1.63957 0.742832 0
M  V30 6058 H 549.376 -0.528008 0.535454 0
M  V30 6059 H 551.347 -1.40013 2.63513 0
M  V30 6060 C 550.096 -2.97075 1.8067 0
M  V30 6061 H 549.419 -2.9728 2.67329 0
M  V30 6062 H 550.859 -3.74825 1.98197 0
M  V30 6063 C 549.318 -3.32247 0.558016 0
M  V30 6064 O 549.848 -4.00553 -0.303399 0
M  V30 6065 N 548.054 -2.87659 0.412415 0
M  V30 6066 H 547.601 -2.32246 1.11443 0
M  V30 6067 H 547.559 -3.11556 -0.421908 0
M  V30 6068 N 551.331 -1.39911 -0.725443 0
M  V30 6069 C 552.742 -1.33599 -1.30415 0
M  V30 6070 C 553.093 -0.00481792 -1.96199 0
M  V30 6071 O 552.218 0.897275 -1.96921 0
M  V30 6072 C 552.813 -2.41965 -2.37146 0
M  V30 6073 C 551.372 -2.39144 -2.90667 0
M  V30 6074 C 550.519 -2.23355 -1.64341 0
M  V30 6075 H 553.47 -1.4986 -0.522267 0
M  V30 6076 H 553.491 -2.09304 -3.17761 0
M  V30 6077 H 553.003 -3.38837 -1.89238 0
M  V30 6078 H 551.104 -1.4594 -3.4283 0
M  V30 6079 H 551.217 -3.34362 -3.43131 0
M  V30 6080 H 549.581 -1.70696 -1.89037 0
M  V30 6081 H 550.364 -3.2221 -1.18471 0
M  V30 6082 N 552.809 0.956637 -1.25245 0
M  V30 6083 C 553.757 2.0743 -1.0524 0
M  V30 6084 C 554.751 1.69392 0.0160725 0
M  V30 6085 O 555.957 1.7946 -0.139382 0
M  V30 6086 H 552.332 0.678921 -0.323373 0
M  V30 6087 H 554.303 2.2146 -1.99995 0
M  V30 6088 C 553.052 3.40872 -0.685702 0
M  V30 6089 H 552.375 3.70607 -1.49968 0
M  V30 6090 H 553.815 4.19939 -0.585415 0
M  V30 6091 C 552.274 3.31367 0.608082 0
M  V30 6092 O 552.804 3.66214 1.65076 0
M  V30 6093 N 551.01 2.84486 0.592955 0
M  V30 6094 H 550.557 2.56326 -0.25592 0
M  V30 6095 H 550.515 2.78509 1.45877 0
M  V30 6096 N 554.287 1.06798 1.15896 0
M  V30 6097 C 555.533 0.788934 1.86825 0
M  V30 6098 C 555.866 -0.683084 1.8179 0
M  V30 6099 O 555.141 -1.50086 1.23711 0
M  V30 6100 C 555.424 1.29065 3.36176 0
M  V30 6101 C 555.277 2.8268 3.49874 0
M  V30 6102 C 556.596 0.902655 4.30744 0
M  V30 6103 H 553.715 0.288066 0.678371 0
M  V30 6104 H 556.357 1.32479 1.36195 0
M  V30 6105 H 554.507 0.834806 3.79425 0
M  V30 6106 H 556.179 3.36511 3.15528 0
M  V30 6107 H 554.422 3.21157 2.91617 0
M  V30 6108 H 555.093 3.12852 4.54783 0
M  V30 6109 H 557.569 1.29535 3.95424 0
M  V30 6110 H 556.445 1.28111 5.3374 0
M  V30 6111 H 556.706 -0.191951 4.41683 0
M  V30 6112 N 555.766 -1.3263 0.851289 0
M  V30 6113 C 556.991 -2.02097 0.466006 0
M  V30 6114 C 557.416 -1.63574 -0.928709 0
M  V30 6115 O 556.774 -0.834665 -1.60944 0
M  V30 6116 C 556.822 -3.55425 0.608737 0
M  V30 6117 O 555.926 -4.10827 -0.359878 0
M  V30 6118 H 555.267 -0.636911 0.187724 0
M  V30 6119 H 557.797 -1.69253 1.14955 0
M  V30 6120 H 557.807 -4.04986 0.495006 0
M  V30 6121 H 556.482 -3.82806 1.62581 0
M  V30 6122 H 555.059 -3.72349 -0.202666 0
M  V30 6123 N 557.244 -0.608902 -1.45362 0
M  V30 6124 C 558.492 -0.104401 -2.0183 0
M  V30 6125 C 558.813 1.27007 -1.47967 0
M  V30 6126 O 558.083 1.83924 -0.674455 0
M  V30 6127 H 556.663 -0.0356042 -0.746151 0
M  V30 6128 H 559.325 -0.790596 -1.78145 0
M  V30 6129 H 558.421 -0.0551793 -3.12051 0
M  V30 6130 N 558.722 1.53707 -0.348139 0
M  V30 6131 C 560.133 1.86213 0.134797 0
M  V30 6132 C 560.484 1.26925 1.49614 0
M  V30 6133 O 559.609 0.584573 2.08355 0
M  V30 6134 C 560.204 3.37866 0.251371 0
M  V30 6135 C 558.763 3.70233 0.678543 0
M  V30 6136 C 557.91 2.76683 -0.184925 0
M  V30 6137 H 560.861 1.48204 -0.567571 0
M  V30 6138 H 560.882 3.64908 1.07806 0
M  V30 6139 H 560.394 3.80988 -0.739581 0
M  V30 6140 H 558.495 3.32659 1.67835 0
M  V30 6141 H 558.608 4.76836 0.465251 0
M  V30 6142 H 556.972 2.52374 0.343465 0
M  V30 6143 H 557.755 3.22635 -1.1731 0
M  V30 6144 N 560.2 0.0768682 1.57412 0
M  V30 6145 C 561.148 -0.906229 2.1422 0
M  V30 6146 C 562.142 -1.30477 1.08037 0
M  V30 6147 O 563.348 -1.28143 1.2641 0
M  V30 6148 H 559.723 -0.310207 0.685037 0
M  V30 6149 H 561.694 -0.402228 2.95677 0
M  V30 6150 C 560.443 -2.16245 2.72274 0
M  V30 6151 H 559.766 -1.86463 3.53655 0
M  V30 6152 H 561.206 -2.83134 3.15613 0
M  V30 6153 C 559.665 -2.92437 1.67279 0
M  V30 6154 O 560.195 -3.86322 1.10081 0
M  V30 6155 N 558.401 -2.55637 1.38195 0
M  V30 6156 H 557.948 -1.79363 1.84897 0
M  V30 6157 H 557.906 -3.06919 0.681787 0
M  V30 6158 N 561.678 -1.56367 -0.196722 0
M  V30 6159 C 562.955 -1.71359 -0.943159 0
M  V30 6160 C 563.335 -0.631192 -2.01443 0
M  V30 6161 O 562.683 0.358071 -2.25677 0
M  V30 6162 C 562.893 -3.13623 -1.53106 0
M  V30 6163 C 564.241 -3.73806 -2.01381 0
M  V30 6164 O 565.265 -3.16742 -1.62951 0
M  V30 6165 O 564.124 -4.73951 -2.7209 0
M  V30 6166 H 561.218 -0.698851 -0.442195 0
M  V30 6167 H 563.764 -1.68672 -0.186547 0
M  V30 6168 H 562.536 -3.83873 -0.758785 0
M  V30 6169 H 562.159 -3.20532 -2.35255 0
M  V30 6170 N 563.156 0.464375 -1.50603 0
M  V30 6171 C 564.086 1.56944 -1.72889 0
M  V30 6172 C 565.067 1.59979 -0.577997 0
M  V30 6173 O 566.252 1.76138 -0.817855 0
M  V30 6174 C 563.382 2.95225 -1.8292 0
M  V30 6175 C 562.336 3.07056 -2.98162 0
M  V30 6176 C 561.662 4.47051 -2.93343 0
M  V30 6177 C 562.962 2.83648 -4.38567 0
M  V30 6178 H 564.656 1.38547 -2.65415 0
M  V30 6179 H 562.202 0.665082 -1.27721 0
M  V30 6180 H 564.155 3.72467 -1.97095 0
M  V30 6181 H 562.879 3.14793 -0.870209 0
M  V30 6182 H 561.538 2.32248 -2.83648 0
M  V30 6183 H 561.186 4.63547 -1.95276 0
M  V30 6184 H 560.886 4.55902 -3.70712 0
M  V30 6185 H 562.41 5.26304 -3.09575 0
M  V30 6186 H 563.824 3.50636 -4.53572 0
M  V30 6187 H 562.221 3.03937 -5.17438 0
M  V30 6188 H 563.291 1.79451 -4.50472 0
M  V30 6189 N 564.634 1.40294 0.718013 0
M  V30 6190 C 566.05 1.2227 1.02577 0
M  V30 6191 C 566.25 0.0961976 2.0127 0
M  V30 6192 O 565.306 -0.546695 2.46511 0
M  V30 6193 C 566.619 2.56348 1.57182 0
M  V30 6194 C 568.167 2.6334 1.69178 0
M  V30 6195 C 568.642 3.9768 2.27188 0
M  V30 6196 N 570.133 3.99409 2.34578 0
M  V30 6197 C 570.868 5.00141 2.8044 0
M  V30 6198 N 570.364 6.11268 3.26073 0
M  V30 6199 N 572.157 4.87511 2.79802 0
M  V30 6200 H 564.308 2.12304 0.0637899 0
M  V30 6201 H 566.571 0.943632 0.0909036 0
M  V30 6202 H 566.277 3.3942 0.921262 0
M  V30 6203 H 566.151 2.77266 2.55741 0
M  V30 6204 H 568.538 1.80641 2.33351 0
M  V30 6205 H 568.619 2.46255 0.692247 0
M  V30 6206 H 568.263 4.80817 1.63638 0
M  V30 6207 H 568.193 4.12093 3.27852 0
M  V30 6208 H 570.684 3.19162 2.02346 0
M  V30 6209 H 570.997 6.84023 3.59628 0
M  V30 6210 H 569.342 6.14837 3.24038 0
M  V30 6211 H 572.533 3.9979 2.43487 0
M  V30 6212 H 572.706 5.66158 3.15228 0
M  V30 6213 N 566.112 -0.949982 1.2575 0
M  V30 6214 C 567.062 -2.03297 1.03221 0
M  V30 6215 C 568.046 -1.60867 -0.0324751 0
M  V30 6216 O 569.238 -1.76047 0.183423 0
M  V30 6217 C 566.367 -3.36938 0.657841 0
M  V30 6218 C 565.453 -3.85878 1.75952 0
M  V30 6219 N 565.844 -4.0756 2.99547 0
M  V30 6220 C 564.142 -4.14709 1.64111 0
M  V30 6221 C 564.843 -4.47961 3.71087 0
M  V30 6222 N 563.819 -4.5416 2.98731 0
M  V30 6223 H 567.621 -2.1806 1.97045 0
M  V30 6224 H 565.135 -1.13516 1.16138 0
M  V30 6225 H 567.132 -4.14155 0.477614 0
M  V30 6226 H 565.792 -3.2355 -0.273025 0
M  V30 6227 H 566.803 -3.94501 3.35544 0
M  V30 6228 H 563.48 -4.10158 0.779527 0
M  V30 6229 H 564.87 -4.73002 4.77199 0
M  V30 6230 N 567.59 -1.07411 -1.15328 0
M  V30 6231 C 568.837 -0.797649 -1.86128 0
M  V30 6232 C 569.165 0.676298 -1.82364 0
M  V30 6233 O 568.42 1.51223 -1.24218 0
M  V30 6234 C 568.719 -1.25191 -3.34757 0
M  V30 6235 C 568.385 -2.73191 -3.58716 0
M  V30 6236 C 567.047 -3.13616 -3.64964 0
M  V30 6237 C 569.399 -3.68718 -3.6837 0
M  V30 6238 C 566.727 -4.48383 -3.78377 0
M  V30 6239 C 569.079 -5.03248 -3.83306 0
M  V30 6240 C 567.743 -5.43293 -3.878 0
M  V30 6241 H 567.013 -0.29188 -0.681092 0
M  V30 6242 H 569.66 -1.34524 -1.36292 0
M  V30 6243 H 567.965 -0.623712 -3.86804 0
M  V30 6244 H 569.662 -1.01489 -3.87945 0
M  V30 6245 H 566.252 -2.40898 -3.54494 0
M  V30 6246 H 570.436 -3.38614 -3.62842 0
M  V30 6247 H 565.692 -4.78877 -3.80114 0
M  V30 6248 H 569.866 -5.77142 -3.89718 0
M  V30 6249 H 567.493 -6.47721 -3.97946 0
M  V30 6250 N 569.068 1.32177 -0.85831 0
M  V30 6251 C 570.345 1.91781 -0.384624 0
M  V30 6252 C 570.725 1.78171 1.13217 0
M  V30 6253 O 570.073 1.18209 1.95548 0
M  V30 6254 C 570.283 3.38414 -0.853047 0
M  V30 6255 C 571.631 4.15542 -0.872359 0
M  V30 6256 O 572.655 3.47148 -0.797926 0
M  V30 6257 O 571.514 5.37678 -0.978009 0
M  V30 6258 H 568.608 0.819259 -0.112886 0
M  V30 6259 H 571.154 1.40923 -0.945453 0
M  V30 6260 H 569.926 3.4228 -1.89632 0
M  V30 6261 H 569.549 3.96683 -0.269874 0
M  V30 6262 N 570.547 0.616602 1.45037 0
M  V30 6263 C 571.958 0.199359 1.85633 0
M  V30 6264 C 572.309 -1.24588 1.51566 0
M  V30 6265 O 571.434 -1.94594 0.94668 0
M  V30 6266 C 572.029 0.355033 3.36935 0
M  V30 6267 C 570.588 -0.00758748 3.76399 0
M  V30 6268 C 569.735 0.675256 2.68953 0
M  V30 6269 H 572.686 0.822708 1.3571 0
M  V30 6270 H 572.707 -0.410201 3.78282 0
M  V30 6271 H 572.219 1.40699 3.61698 0
M  V30 6272 H 570.32 -1.05837 3.57252 0
M  V30 6273 H 570.433 0.392346 4.77491 0
M  V30 6274 H 568.797 0.111992 2.54454 0
M  V30 6275 H 569.58 1.72952 2.96551 0
M  V30 6276 N 572.025 -1.5352 0.356285 0
M  V30 6277 C 572.935 -2.29151 -0.502712 0
M  V30 6278 C 573.951 -1.34753 -1.1008 0
M  V30 6279 O 575.127 -1.67803 -1.11374 0
M  V30 6280 C 572.192 -3.05911 -1.63154 0
M  V30 6281 C 571.253 -4.15958 -1.06194 0
M  V30 6282 C 570.486 -4.8905 -2.13696 0
M  V30 6283 O 570.709 -4.61919 -3.34645 0
M  V30 6284 O 569.643 -5.75202 -1.77275 0
M  V30 6285 H 573.469 -3.03492 0.112466 0
M  V30 6286 H 571.054 -1.4891 0.120942 0
M  V30 6287 H 572.936 -3.53874 -2.28804 0
M  V30 6288 H 571.611 -2.34415 -2.23229 0
M  V30 6289 H 570.518 -3.7227 -0.369603 0
M  V30 6290 H 571.851 -4.89593 -0.505872 0
M  V30 6291 N 573.503 -0.0852151 -1.57369 0
M  V30 6292 C 574.75 0.580806 -1.93992 0
M  V30 6293 C 575.078 1.68801 -0.966252 0
M  V30 6294 O 574.333 1.95694 0.0158649 0
M  V30 6295 C 574.632 1.18482 -3.3719 0
M  V30 6296 C 574.298 0.2024 -4.50446 0
M  V30 6297 C 572.96 -0.0678318 -4.81152 0
M  V30 6298 C 575.312 -0.46895 -5.19086 0
M  V30 6299 C 572.64 -1.01627 -5.77831 0
M  V30 6300 C 574.992 -1.4058 -6.16782 0
M  V30 6301 C 573.656 -1.68436 -6.45899 0
M  V30 6302 H 572.926 0.212532 -0.709867 0
M  V30 6303 H 575.573 -0.158947 -1.90839 0
M  V30 6304 H 573.878 2.0006 -3.36873 0
M  V30 6305 H 575.575 1.70767 -3.62822 0
M  V30 6306 H 572.165 0.423208 -4.26505 0
M  V30 6307 H 576.349 -0.273307 -4.95547 0
M  V30 6308 H 571.605 -1.2392 -5.9871 0
M  V30 6309 H 575.779 -1.93188 -6.69068 0
M  V30 6310 H 573.406 -2.42088 -7.20623 0
M  V30 6311 N 574.981 1.5647 0.188427 0
M  V30 6312 C 576.209 1.85131 0.923803 0
M  V30 6313 C 576.624 0.668537 1.76567 0
M  V30 6314 O 575.981 -0.362662 1.7886 0
M  V30 6315 C 576.032 3.12661 1.81453 0
M  V30 6316 O 575.753 4.26378 1.00665 0
M  V30 6317 C 577.254 3.54548 2.66103 0
M  V30 6318 H 574.474 0.614624 0.269218 0
M  V30 6319 H 577.018 2.03581 0.193671 0
M  V30 6320 H 575.173 2.96088 2.49821 0
M  V30 6321 H 575.587 4.99041 1.61425 0
M  V30 6322 H 577.061 4.4673 3.24247 0
M  V30 6323 H 577.538 2.77853 3.40139 0
M  V30 6324 H 578.144 3.73674 2.03096 0
M  V30 6325 N 576.459 -0.456382 1.50847 0
M  V30 6326 C 577.369 -1.57805 1.73594 0
M  V30 6327 C 578.385 -1.62599 0.619476 0
M  V30 6328 O 579.561 -1.80195 0.899532 0
M  V30 6329 C 576.626 -2.93926 1.8387 0
M  V30 6330 C 575.687 -2.99402 3.07663 0
M  V30 6331 C 574.92 -4.29031 3.1744 0
M  V30 6332 O 575.143 -5.20358 2.33631 0
M  V30 6333 O 574.077 -4.40401 4.10281 0
M  V30 6334 H 577.903 -1.41531 2.68705 0
M  V30 6335 H 575.488 -0.637422 1.3512 0
M  V30 6336 H 577.37 -3.74747 1.92725 0
M  V30 6337 H 576.045 -3.10368 0.91944 0
M  V30 6338 H 574.952 -2.17606 3.043 0
M  V30 6339 H 576.285 -2.87901 3.99216 0
M  V30 6340 N 577.937 -1.40673 -0.710563 0
M  V30 6341 C 578.847 -1.43663 -1.85467 0
M  V30 6342 C 579.863 -0.328721 -1.70867 0
M  V30 6343 O 581.039 -0.574098 -1.93044 0
M  V30 6344 C 578.104 -1.30226 -3.21313 0
M  V30 6345 C 577.165 -2.51204 -3.48131 0
M  V30 6346 C 576.398 -2.38398 -4.77495 0
M  V30 6347 O 576.621 -1.40048 -5.5294 0
M  V30 6348 O 575.555 -3.2787 -5.04762 0
M  V30 6349 H 579.381 -2.40156 -1.859 0
M  V30 6350 H 576.966 -1.22049 -0.861652 0
M  V30 6351 H 578.848 -1.2496 -4.02446 0
M  V30 6352 H 577.523 -0.368419 -3.21597 0
M  V30 6353 H 576.43 -2.62048 -2.66987 0
M  V30 6354 H 577.763 -3.43366 -3.52648 0
M  V30 6355 N 579.415 0.9433 -1.26252 0
M  V30 6356 C 580.826 1.50404 -1.10614 0
M  V30 6357 C 581.177 1.93666 0.31429 0
M  V30 6358 O 580.302 1.79709 1.20555 0
M  V30 6359 C 580.897 2.73336 -2.00182 0
M  V30 6360 C 579.456 3.25686 -1.88695 0
M  V30 6361 C 578.603 1.98474 -1.93658 0
M  V30 6362 H 581.554 0.759006 -1.39373 0
M  V30 6363 H 581.575 3.47567 -1.54847 0
M  V30 6364 H 581.087 2.41818 -3.03555 0
M  V30 6365 H 579.188 3.61998 -0.882489 0
M  V30 6366 H 579.301 3.92935 -2.74115 0
M  V30 6367 H 577.665 2.14278 -1.37684 0
M  V30 6368 H 578.448 1.6929 -2.98657 0
M  V30 6369 N 580.893 1.08022 1.14757 0
M  V30 6370 C 582.139 0.808705 1.85978 0
M  V30 6371 C 582.472 -0.663764 1.82504 0
M  V30 6372 O 581.747 -1.48765 1.25296 0
M  V30 6373 C 582.03 1.32623 3.34788 0
M  V30 6374 C 581.883 2.86375 3.46856 0
M  V30 6375 C 583.202 0.948291 4.29762 0
M  V30 6376 H 580.321 0.295244 0.675278 0
M  V30 6377 H 582.963 1.33917 1.34783 0
M  V30 6378 H 581.113 0.875002 3.78518 0
M  V30 6379 H 582.785 3.39839 3.11941 0
M  V30 6380 H 581.028 3.24232 2.88194 0
M  V30 6381 H 581.699 3.17658 4.51439 0
M  V30 6382 H 584.175 1.33722 3.94028 0
M  V30 6383 H 583.051 1.33765 5.32352 0
M  V30 6384 H 583.312 -0.145094 4.41862 0
M  V30 6385 N 582.371 -1.3172 0.865308 0
M  V30 6386 C 583.782 -1.79104 0.527126 0
M  V30 6387 C 584.133 -1.7135 -0.955695 0
M  V30 6388 O 583.258 -1.27845 -1.74598 0
M  V30 6389 C 583.853 -3.25207 0.950061 0
M  V30 6390 C 582.412 -3.70504 0.663611 0
M  V30 6391 C 581.559 -2.52605 1.14395 0
M  V30 6392 H 584.51 -1.18868 1.05148 0
M  V30 6393 H 584.531 -3.79535 0.270805 0
M  V30 6394 H 584.043 -3.30818 2.02931 0
M  V30 6395 H 582.144 -3.70398 -0.404474 0
M  V30 6396 H 582.257 -4.62845 1.23737 0
M  V30 6397 H 580.621 -2.4838 0.563859 0
M  V30 6398 H 581.404 -2.60964 2.23053 0
M  V30 6399 N 583.85 -0.624285 -1.44708 0
M  V30 6400 C 584.798 0.0969952 -2.32398 0
M  V30 6401 C 585.792 0.842762 -1.46949 0
M  V30 6402 O 586.998 0.756436 -1.63334 0
M  V30 6403 H 583.373 0.0501306 -0.750327 0
M  V30 6404 H 585.344 -0.660767 -2.90992 0
M  V30 6405 C 584.093 1.06967 -3.30837 0
M  V30 6406 H 583.416 0.505242 -3.96595 0
M  V30 6407 H 584.856 1.54397 -3.94889 0
M  V30 6408 C 583.315 2.15153 -2.5925 0
M  V30 6409 O 583.845 3.23139 -2.3863 0
M  V30 6410 N 582.051 1.90898 -2.19103 0
M  V30 6411 H 581.598 1.03086 -2.36074 0
M  V30 6412 H 581.556 2.63485 -1.71531 0
M  V30 6413 N 585.328 1.53329 -0.364422 0
M  V30 6414 C 586.553 2.06132 0.229033 0
M  V30 6415 C 586.978 1.23625 1.41769 0
M  V30 6416 O 586.336 0.255038 1.79497 0
M  V30 6417 C 586.384 3.55544 0.60174 0
M  V30 6418 O 585.488 3.75771 1.69912 0
M  V30 6419 H 584.829 0.663148 0.0336213 0
M  V30 6420 H 587.359 1.97758 -0.524689 0
M  V30 6421 H 587.369 3.98549 0.873073 0
M  V30 6422 H 586.044 4.15039 -0.267421 0
M  V30 6423 H 584.621 3.44663 1.42343 0
M  V30 6424 N 586.806 0.0935595 1.57322 0
M  V30 6425 C 588.055 -0.570191 1.93473 0
M  V30 6426 C 588.368 -1.69434 0.977318 0
M  V30 6427 O 589.574 -2.41914 1.23248 0
M  V30 6428 C 588.03 -1.06564 3.43762 0
M  V30 6429 C 587.638 0.0286723 4.47991 0
M  V30 6430 C 589.382 -1.70221 3.88877 0
M  V30 6431 C 587.289 -0.482046 5.89432 0
M  V30 6432 H 586.219 -0.216764 0.72217 0
M  V30 6433 H 588.87 0.169313 1.82717 0
M  V30 6434 H 587.252 -1.85878 3.49664 0
M  V30 6435 H 588.426 0.804106 4.5373 0
M  V30 6436 H 586.741 0.570336 4.12476 0
M  V30 6437 H 589.338 -2.09502 4.91948 0
M  V30 6438 H 589.681 -2.57078 3.27439 0
M  V30 6439 H 590.214 -0.974919 3.85668 0
M  V30 6440 H 586.953 0.349871 6.54566 0
M  V30 6441 H 586.473 -1.22452 5.87167 0
M  V30 6442 H 588.152 -0.951508 6.39965 0
M  V30 6443 N 588.284 -1.56567 -0.180126 0
M  V30 6444 C 589.532 -1.81133 -0.896392 0
M  V30 6445 C 589.853 -0.669114 -1.83161 0
M  V30 6446 O 589.123 0.311616 -1.93406 0
M  V30 6447 H 587.703 -0.668172 -0.333999 0
M  V30 6448 H 590.365 -1.94048 -0.182051 0
M  V30 6449 H 589.461 -2.74854 -1.47857 0
M  V30 6450 N 589.762 0.448376 -1.51087 0
M  V30 6451 C 590.709 1.54341 -1.71603 0
M  V30 6452 C 591.679 1.56463 -0.557536 0
M  V30 6453 O 592.864 1.73644 -0.79072 0
M  V30 6454 C 590.004 2.92148 -1.83695 0
M  V30 6455 C 589.117 2.99639 -3.11192 0
M  V30 6456 C 588.252 4.285 -3.13944 0
M  V30 6457 C 587.291 4.29819 -4.35801 0
M  V30 6458 N 586.428 5.50186 -4.36164 0
M  V30 6459 H 591.268 1.36151 -2.65079 0
M  V30 6460 H 588.805 0.661585 -1.31383 0
M  V30 6461 H 590.763 3.72093 -1.88687 0
M  V30 6462 H 589.393 3.0892 -0.936374 0
M  V30 6463 H 588.445 2.12425 -3.15562 0
M  V30 6464 H 589.757 2.96474 -4.01129 0
M  V30 6465 H 588.911 5.16811 -3.17791 0
M  V30 6466 H 587.65 4.34307 -2.21876 0
M  V30 6467 H 586.655 3.39902 -4.32142 0
M  V30 6468 H 587.88 4.25685 -5.29121 0
M  V30 6469 H 585.826 5.56735 -3.46961 0
M  V30 6470 H 585.743 5.48856 -5.19897 0
M  V30 6471 H 587.011 6.40559 -4.44189 0
M  V30 6472 N 591.24 1.41047 0.703093 0
M  V30 6473 C 592.465 1.43537 1.49706 0
M  V30 6474 C 592.89 0.0401853 1.88057 0
M  V30 6475 O 592.248 -0.954785 1.54122 0
M  V30 6476 C 592.296 2.3433 2.74084 0
M  V30 6477 O 591.4 1.79515 3.71279 0
M  V30 6478 H 590.741 0.487454 0.450871 0
M  V30 6479 H 593.271 1.85422 0.86486 0
M  V30 6480 H 593.281 2.49947 3.22476 0
M  V30 6481 H 591.956 3.35708 2.45506 0
M  V30 6482 H 590.533 1.7331 3.30179 0
M  V30 6483 N 592.718 -0.936591 1.26751 0
M  V30 6484 C 594.129 -1.49816 1.1141 0
M  V30 6485 C 594.48 -1.9383 -0.304015 0
M  V30 6486 O 593.605 -1.80346 -1.196 0
M  V30 6487 C 594.2 -2.72271 2.01629 0
M  V30 6488 C 592.759 -3.2468 1.9042 0
M  V30 6489 C 591.906 -1.97444 1.94708 0
M  V30 6490 H 594.857 -0.751604 1.39773 0
M  V30 6491 H 594.878 -3.46741 1.56688 0
M  V30 6492 H 594.39 -2.40205 3.04833 0
M  V30 6493 H 592.491 -3.61525 0.901674 0
M  V30 6494 H 592.604 -3.91476 2.76195 0
M  V30 6495 H 590.968 -2.13545 1.38818 0
M  V30 6496 H 591.751 -1.67703 2.9955 0
M  V30 6497 N 594.196 -1.08629 -1.14182 0
M  V30 6498 C 595.473 -0.73002 -1.81466 0
M  V30 6499 C 595.853 0.785996 -1.95922 0
M  V30 6500 O 595.201 1.70535 -1.52086 0
M  V30 6501 C 595.411 -1.45957 -3.17014 0
M  V30 6502 C 596.759 -1.62008 -3.92477 0
M  V30 6503 O 597.783 -1.42141 -3.26611 0
M  V30 6504 O 596.642 -1.94806 -5.106 0
M  V30 6505 H 593.736 -0.261307 -0.784632 0
M  V30 6506 H 596.282 -1.188 -1.2118 0
M  V30 6507 H 595.054 -2.49221 -3.01669 0
M  V30 6508 H 594.677 -0.993222 -3.84995 0
M  V30 6509 N 595.674 1.31259 -0.872281 0
M  V30 6510 C 596.899 2.0133 -0.498099 0
M  V30 6511 C 597.324 1.65031 0.902568 0
M  V30 6512 O 596.682 0.860164 1.59596 0
M  V30 6513 C 596.73 3.54411 -0.665205 0
M  V30 6514 O 595.834 4.11347 0.294473 0
M  V30 6515 H 595.175 0.633844 -0.197832 0
M  V30 6516 H 597.705 1.67402 -1.17633 0
M  V30 6517 H 597.715 4.04147 -0.559373 0
M  V30 6518 H 596.39 3.80171 -1.68651 0
M  V30 6519 H 594.967 3.72624 0.143403 0
M  V30 6520 N 597.152 0.631951 1.44375 0
M  V30 6521 C 598.398 0.13697 2.02337 0
M  V30 6522 C 598.731 -1.23826 1.49602 0
M  V30 6523 O 598.006 -1.8221 0.680415 0
M  V30 6524 C 598.289 0.124536 3.59885 0
M  V30 6525 C 598.142 1.53217 4.229 0
M  V30 6526 C 599.461 -0.550481 4.36644 0
M  V30 6527 H 596.58 0.051247 0.735216 0
M  V30 6528 H 599.222 0.808581 1.71936 0
M  V30 6529 H 597.372 -0.44737 3.85916 0
M  V30 6530 H 599.044 2.15303 4.07973 0
M  V30 6531 H 597.287 2.0858 3.80364 0
M  V30 6532 H 597.958 1.4755 5.31914 0
M  V30 6533 H 600.434 -0.0641154 4.16051 0
M  V30 6534 H 599.31 -0.528371 5.46351 0
M  V30 6535 H 599.571 -1.62097 4.11311 0
M  V30 6536 N 598.631 -1.53133 0.372548 0
M  V30 6537 C 599.561 -2.28876 -0.462412 0
M  V30 6538 C 600.542 -1.31583 -1.07796 0
M  V30 6539 O 601.727 -1.60461 -1.09389 0
M  V30 6540 C 598.857 -3.08317 -1.59868 0
M  V30 6541 C 597.811 -4.13355 -1.11003 0
M  V30 6542 C 597.137 -4.8092 -2.33708 0
M  V30 6543 C 598.437 -5.21955 -0.18983 0
M  V30 6544 H 600.131 -2.9892 0.169511 0
M  V30 6545 H 597.677 -1.43761 0.0829658 0
M  V30 6546 H 599.63 -3.60055 -2.18949 0
M  V30 6547 H 598.354 -2.35976 -2.25794 0
M  V30 6548 H 597.013 -3.62573 -0.541869 0
M  V30 6549 H 596.661 -4.05144 -2.98106 0
M  V30 6550 H 596.361 -5.51904 -2.01682 0
M  V30 6551 H 597.885 -5.35455 -2.93462 0
M  V30 6552 H 599.299 -5.69153 -0.688319 0
M  V30 6553 H 597.696 -6.00087 0.0398887 0
M  V30 6554 H 598.766 -4.78811 0.766057 0
M  V30 6555 N 600.109 -0.101901 -1.5727 0
M  V30 6556 C 601.355 0.561027 -1.94885 0
M  V30 6557 C 601.688 1.6741 -0.984258 0
M  V30 6558 O 600.963 1.94491 -0.0184767 0
M  V30 6559 C 601.246 1.10982 -3.42571 0
M  V30 6560 C 601.099 0.00133418 -4.498 0
M  V30 6561 C 602.418 2.00608 -3.9172 0
M  V30 6562 H 599.537 0.202467 -0.708644 0
M  V30 6563 H 602.179 -0.173992 -1.89202 0
M  V30 6564 H 600.329 1.73621 -3.47546 0
M  V30 6565 H 602.001 -0.63322 -4.56933 0
M  V30 6566 H 600.244 -0.664143 -4.28686 0
M  V30 6567 H 600.915 0.426253 -5.50352 0
M  V30 6568 H 603.391 1.47864 -3.88941 0
M  V30 6569 H 602.267 2.3593 -4.95609 0
M  V30 6570 H 602.528 2.92608 -3.3141 0
M  V30 6571 N 601.587 1.56661 0.17182 0
M  V30 6572 C 602.815 1.861 0.904115 0
M  V30 6573 C 603.23 0.687227 1.75848 0
M  V30 6574 O 602.587 -0.343671 1.79235 0
M  V30 6575 C 602.638 3.14568 1.78127 0
M  V30 6576 O 602.359 4.27422 0.961366 0
M  V30 6577 C 603.86 3.5735 2.62327 0
M  V30 6578 H 601.08 0.617445 0.262684 0
M  V30 6579 H 603.624 2.03775 0.172068 0
M  V30 6580 H 601.779 2.98721 2.46666 0
M  V30 6581 H 602.193 5.00725 1.56123 0
M  V30 6582 H 603.667 4.50144 3.1949 0
M  V30 6583 H 604.144 2.81445 3.37173 0
M  V30 6584 H 604.75 3.75807 1.99121 0
M  V30 6585 N 603.065 -0.440357 1.51323 0
M  V30 6586 C 604.028 -1.51679 1.71832 0
M  V30 6587 C 605.028 -1.49648 0.588386 0
M  V30 6588 O 606.218 -1.51724 0.855891 0
M  V30 6589 C 603.35 -2.91228 1.77199 0
M  V30 6590 H 604.543 -1.34799 2.67898 0
M  V30 6591 H 602.096 -0.66883 1.41267 0
M  V30 6592 H 602.831 -3.13516 0.829363 0
M  V30 6593 H 602.616 -2.94107 2.59314 0
M  V30 6594 H 604.106 -3.69321 1.94915 0
M  V30 6595 N 604.543 -1.41418 -0.695603 0
M  V30 6596 C 605.768 -1.44329 -1.48942 0
M  V30 6597 C 606.193 -0.0501579 -1.88033 0
M  V30 6598 O 605.551 0.946598 -1.54626 0
M  V30 6599 C 605.599 -2.3578 -2.72837 0
M  V30 6600 O 604.703 -1.81482 -3.70322 0
M  V30 6601 H 604.044 -0.489838 -0.44828 0
M  V30 6602 H 606.574 -1.85878 -0.855014 0
M  V30 6603 H 606.584 -2.51654 -3.21145 0
M  V30 6604 H 605.259 -3.37005 -2.43722 0
M  V30 6605 H 603.836 -1.75058 -3.29255 0
M  V30 6606 N 606.021 0.929856 -1.27246 0
M  V30 6607 C 607.267 1.6798 -1.13625 0
M  V30 6608 C 607.6 1.91586 0.317589 0
M  V30 6609 O 606.875 1.50467 1.23247 0
M  V30 6610 C 607.158 3.04766 -1.91806 0
M  V30 6611 C 607.011 2.88415 -3.45162 0
M  V30 6612 C 608.33 4.05063 -1.72082 0
M  V30 6613 H 605.449 0.609632 -0.414147 0
M  V30 6614 H 608.091 1.0792 -1.56376 0
M  V30 6615 H 606.241 3.56034 -1.55474 0
M  V30 6616 H 607.913 2.44282 -3.91311 0
M  V30 6617 H 606.156 2.23802 -3.71611 0
M  V30 6618 H 606.827 3.85482 -3.95105 0
M  V30 6619 H 609.303 3.62798 -2.03757 0
M  V30 6620 H 608.179 4.98765 -2.29182 0
M  V30 6621 H 608.44 4.37021 -0.668206 0
M  V30 6622 N 607.499 1.09233 1.13605 0
M  V30 6623 C 608.446 0.729921 2.18954 0
M  V30 6624 C 609.416 -0.287916 1.63586 0
M  V30 6625 O 610.601 -0.170003 1.90041 0
M  V30 6626 C 607.741 0.154489 3.44754 0
M  V30 6627 C 606.854 1.22613 4.14234 0
M  V30 6628 C 605.989 0.613657 5.27644 0
M  V30 6629 C 605.028 1.66674 5.8897 0
M  V30 6630 N 604.165 1.07545 6.93814 0
M  V30 6631 H 609.005 1.63257 2.49302 0
M  V30 6632 H 606.542 0.815693 1.22413 0
M  V30 6633 H 608.5 -0.196923 4.16735 0
M  V30 6634 H 607.13 -0.711433 3.14863 0
M  V30 6635 H 606.182 1.69485 3.40557 0
M  V30 6636 H 607.494 2.0238 4.55899 0
M  V30 6637 H 606.648 0.210976 6.06333 0
M  V30 6638 H 605.387 -0.215584 4.87223 0
M  V30 6639 H 604.392 2.07899 5.08978 0
M  V30 6640 H 605.617 2.49861 6.31464 0
M  V30 6641 H 603.563 0.267451 6.55455 0
M  V30 6642 H 603.48 1.81011 7.3401 0
M  V30 6643 H 604.748 0.698906 7.7636 0
M  V30 6644 N 608.977 -1.30795 0.87923 0
M  V30 6645 C 609.887 -2.32041 0.345565 0
M  V30 6646 C 610.903 -1.65103 -0.549265 0
M  V30 6647 O 612.079 -1.9645 -0.443763 0
M  V30 6648 C 609.144 -3.43944 -0.436245 0
M  V30 6649 C 608.205 -4.26521 0.48765 0
M  V30 6650 C 607.438 -5.33081 -0.256943 0
M  V30 6651 O 607.661 -5.50762 -1.48381 0
M  V30 6652 O 606.595 -6.00635 0.389985 0
M  V30 6653 H 610.421 -2.79627 1.18501 0
M  V30 6654 H 608.006 -1.3486 0.642885 0
M  V30 6655 H 609.888 -4.12128 -0.879119 0
M  V30 6656 H 608.563 -2.98504 -1.25208 0
M  V30 6657 H 607.47 -3.61057 0.979216 0
M  V30 6658 H 608.803 -4.75551 1.26933 0
M  V30 6659 N 610.455 -0.639598 -1.44038 0
M  V30 6660 C 611.418 0.0506628 -2.29144 0
M  V30 6661 C 612.418 0.764001 -1.41491 0
M  V30 6662 O 613.608 0.607309 -1.63271 0
M  V30 6663 C 610.74 1.0824 -3.2326 0
M  V30 6664 H 611.933 -0.697987 -2.91664 0
M  V30 6665 H 609.486 -0.400146 -1.51091 0
M  V30 6666 H 610.221 1.86075 -2.65606 0
M  V30 6667 H 610.006 0.574725 -3.87865 0
M  V30 6668 H 611.496 1.56487 -3.87171 0
M  V30 6669 N 611.933 1.52934 -0.380664 0
M  V30 6670 C 612.896 2.24809 0.446473 0
M  V30 6671 C 613.896 1.26133 0.997347 0
M  V30 6672 O 615.086 1.50297 0.880714 0
M  V30 6673 C 612.218 2.99649 1.62553 0
M  V30 6674 H 613.411 2.99343 -0.182677 0
M  V30 6675 H 610.964 1.55736 -0.132618 0
M  V30 6676 H 611.699 2.29395 2.29235 0
M  V30 6677 H 611.484 3.72066 1.23732 0
M  V30 6678 H 612.974 3.54246 2.21133 0
M  V30 6679 N 613.412 0.11024 1.57214 0
M  V30 6680 C 614.322 -0.857077 2.18383 0
M  V30 6681 C 615.338 -1.29915 1.1575 0
M  V30 6682 O 616.514 -1.36394 1.48184 0
M  V30 6683 C 613.579 -2.09264 2.76423 0
M  V30 6684 C 612.64 -1.70333 3.94063 0
M  V30 6685 C 611.873 -2.87999 4.49324 0
M  V30 6686 O 612.096 -4.0317 4.03497 0
M  V30 6687 O 611.03 -2.6559 5.40135 0
M  V30 6688 H 614.856 -0.366561 3.0148 0
M  V30 6689 H 612.441 -0.114914 1.48957 0
M  V30 6690 H 614.323 -2.81644 3.13456 0
M  V30 6691 H 612.998 -2.57339 1.96363 0
M  V30 6692 H 611.905 -0.950864 3.61814 0
M  V30 6693 H 613.238 -1.27007 4.75531 0
M  V30 6694 N 614.89 -1.56749 -0.16351 0
M  V30 6695 C 615.853 -1.96121 -1.18613 0
M  V30 6696 C 616.853 -0.845765 -1.36761 0
M  V30 6697 O 618.043 -1.11268 -1.34033 0
M  V30 6698 C 615.175 -2.26282 -2.54969 0
M  V30 6699 H 616.368 -2.87639 -0.848764 0
M  V30 6700 H 613.921 -1.50928 -0.406251 0
M  V30 6701 H 614.656 -1.37504 -2.93706 0
M  V30 6702 H 614.441 -3.07595 -2.43162 0
M  V30 6703 H 615.931 -2.57638 -3.28653 0
M  V30 6704 N 616.368 0.432326 -1.51554 0
M  V30 6705 C 617.615 1.18134 -1.64471 0
M  V30 6706 C 617.943 1.91076 -0.363349 0
M  V30 6707 O 617.198 1.84492 0.65279 0
M  V30 6708 C 617.497 2.21907 -2.80164 0
M  V30 6709 C 617.163 1.65941 -4.19255 0
M  V30 6710 C 615.825 1.50401 -4.57092 0
M  V30 6711 C 618.177 1.24843 -5.06027 0
M  V30 6712 C 615.505 0.922443 -5.79403 0
M  V30 6713 C 617.857 0.68113 -6.28922 0
M  V30 6714 C 616.521 0.512673 -6.65528 0
M  V30 6715 H 615.791 0.432283 -0.601841 0
M  V30 6716 H 618.438 0.471701 -1.856 0
M  V30 6717 H 616.743 2.98928 -2.53277 0
M  V30 6718 H 618.44 2.79691 -2.87357 0
M  V30 6719 H 615.03 1.79014 -3.89425 0
M  V30 6720 H 619.214 1.35667 -4.77397 0
M  V30 6721 H 614.47 0.779733 -6.06408 0
M  V30 6722 H 618.644 0.35418 -6.95499 0
M  V30 6723 H 616.271 0.0599084 -7.60176 0
M  V30 6724 N 617.846 1.41785 0.688094 0
M  V30 6725 C 618.776 1.47 1.8142 0
M  V30 6726 C 619.757 0.327881 1.6691 0
M  V30 6727 O 620.942 0.540362 1.86531 0
M  V30 6728 C 618.072 1.35876 3.19617 0
M  V30 6729 C 617.026 2.47976 3.48844 0
M  V30 6730 C 616.352 2.21915 4.86475 0
M  V30 6731 C 617.652 3.90309 3.47068 0
M  V30 6732 H 619.346 2.41247 1.77314 0
M  V30 6733 H 616.892 1.16116 0.851651 0
M  V30 6734 H 618.845 1.38134 3.98117 0
M  V30 6735 H 617.569 0.38116 3.24368 0
M  V30 6736 H 616.228 2.45013 2.72698 0
M  V30 6737 H 615.876 1.2248 4.8786 0
M  V30 6738 H 615.576 2.97037 5.06994 0
M  V30 6739 H 617.1 2.25901 5.67275 0
M  V30 6740 H 618.514 3.94947 4.1556 0
M  V30 6741 H 616.911 4.65175 3.7912 0
M  V30 6742 H 617.981 4.17927 2.45896 0
M  V30 6743 N 619.324 -0.923095 1.27737 0
M  V30 6744 C 620.572 -1.66797 1.14119 0
M  V30 6745 C 620.893 -1.92479 -0.312541 0
M  V30 6746 O 620.163 -1.53432 -1.218 0
M  V30 6747 H 618.743 -0.618196 0.419336 0
M  V30 6748 H 621.405 -1.10815 1.60331 0
M  V30 6749 H 620.501 -2.63424 1.67374 0
M  V30 6750 N 620.802 -1.09834 -1.13024 0
M  V30 6751 C 622.049 -0.83695 -1.84395 0
M  V30 6752 C 622.377 0.637463 -1.83757 0
M  V30 6753 O 621.632 1.48554 -1.27398 0
M  V30 6754 C 621.931 -1.32263 -3.32026 0
M  V30 6755 C 621.597 -2.80739 -3.52841 0
M  V30 6756 C 620.259 -3.21286 -3.5823 0
M  V30 6757 C 622.611 -3.76449 -3.60466 0
M  V30 6758 C 619.939 -4.56308 -3.68781 0
M  V30 6759 C 622.291 -5.11266 -3.72546 0
M  V30 6760 C 620.955 -5.51397 -3.76189 0
M  V30 6761 H 620.225 -0.306262 -0.674748 0
M  V30 6762 H 622.872 -1.37385 -1.33408 0
M  V30 6763 H 621.177 -0.705618 -3.85394 0
M  V30 6764 H 622.874 -1.09695 -3.85705 0
M  V30 6765 H 619.464 -2.48363 -3.49305 0
M  V30 6766 H 623.648 -3.46234 -3.55578 0
M  V30 6767 H 618.904 -4.86832 -3.69871 0
M  V30 6768 H 623.078 -5.85279 -3.77388 0
M  V30 6769 H 620.705 -6.56017 -3.84117 0
M  V30 6770 N 622.28 1.30327 -0.886154 0
M  V30 6771 C 623.505 2.0079 -0.519425 0
M  V30 6772 C 623.93 1.65979 0.885013 0
M  V30 6773 O 623.288 0.877043 1.58675 0
M  V30 6774 C 623.336 3.53686 -0.702758 0
M  V30 6775 O 622.44 4.11637 0.250828 0
M  V30 6776 H 621.781 0.63171 -0.204544 0
M  V30 6777 H 624.311 1.66145 -1.19402 0
M  V30 6778 H 624.321 4.03531 -0.602207 0
M  V30 6779 H 622.996 3.78361 -1.72673 0
M  V30 6780 H 621.573 3.72755 0.103873 0
M  V30 6781 N 623.758 0.647228 1.43697 0
M  V30 6782 C 624.988 0.16551 2.05936 0
M  V30 6783 C 625.396 -1.17164 1.48557 0
M  V30 6784 O 624.739 -1.73307 0.60914 0
M  V30 6785 C 624.801 -0.00648082 3.59499 0
M  V30 6786 C 624.465 1.25503 4.39429 0
M  V30 6787 C 625.462 2.18241 4.71876 0
M  V30 6788 C 623.147 1.49494 4.79538 0
M  V30 6789 C 625.141 3.33268 5.43333 0
M  V30 6790 C 622.828 2.64815 5.50742 0
M  V30 6791 C 623.826 3.56528 5.82561 0
M  V30 6792 O 623.514 4.69836 6.52311 0
M  V30 6793 H 623.246 0.0844124 0.670709 0
M  V30 6794 H 625.8 0.88638 1.8529 0
M  V30 6795 H 624.03 -0.782661 3.78697 0
M  V30 6796 H 625.719 -0.444794 4.03456 0
M  V30 6797 H 626.485 2.00946 4.41413 0
M  V30 6798 H 622.364 0.789912 4.54182 0
M  V30 6799 H 625.908 4.04874 5.68087 0
M  V30 6800 H 621.805 2.82047 5.8062 0
M  V30 6801 H 622.573 4.69024 6.70789 0
M  V30 6802 N 625.236 -1.5273 0.388769 0
M  V30 6803 C 626.199 -2.25043 -0.434544 0
M  V30 6804 C 627.199 -1.26661 -0.990644 0
M  V30 6805 O 628.389 -1.50762 -0.872731 0
M  V30 6806 C 625.521 -3.00507 -1.60961 0
M  V30 6807 H 626.714 -2.99242 0.198549 0
M  V30 6808 H 624.267 -1.55664 0.140875 0
M  V30 6809 H 625.002 -2.30607 -2.28015 0
M  V30 6810 H 624.787 -3.72716 -1.21757 0
M  V30 6811 H 626.277 -3.55413 -2.19251 0
M  V30 6812 N 626.714 -0.118576 -1.57153 0
M  V30 6813 C 628.125 0.40687 -1.82213 0
M  V30 6814 C 628.476 1.66636 -1.03571 0
M  V30 6815 O 627.601 2.14682 -0.272171 0
M  V30 6816 C 628.196 0.744949 -3.30509 0
M  V30 6817 C 626.755 1.21503 -3.5625 0
M  V30 6818 C 625.902 0.223511 -2.76398 0
M  V30 6819 H 628.853 -0.343712 -1.54933 0
M  V30 6820 H 628.874 1.6024 -3.45114 0
M  V30 6821 H 628.386 -0.171911 -3.87719 0
M  V30 6822 H 626.487 2.1488 -3.04396 0
M  V30 6823 H 626.6 1.16065 -4.64829 0
M  V30 6824 H 624.964 0.71046 -2.44591 0
M  V30 6825 H 625.747 -0.686439 -3.36367 0
M  V30 6826 N 628.193 1.56834 0.155195 0
M  V30 6827 C 629.604 1.72421 0.716082 0
M  V30 6828 C 629.955 0.731685 1.82046 0
M  V30 6829 O 629.08 -0.103481 2.16152 0
M  V30 6830 C 629.675 3.12629 1.30571 0
M  V30 6831 C 628.234 3.29846 1.81325 0
M  V30 6832 C 627.381 2.68359 0.698494 0
M  V30 6833 H 630.332 1.58544 -0.0703861 0
M  V30 6834 H 630.353 3.12174 2.1755 0
M  V30 6835 H 629.865 3.84844 0.501701 0
M  V30 6836 H 627.966 2.62614 2.64319 0
M  V30 6837 H 628.079 4.37727 1.9476 0
M  V30 6838 H 626.443 2.28604 1.12305 0
M  V30 6839 H 627.226 3.43171 -0.0939366 0
M  V30 6840 N 629.671 -0.424282 1.51781 0
M  V30 6841 C 630.899 -1.1947 1.68921 0
M  V30 6842 C 631.314 -1.84683 0.39213 0
M  V30 6843 O 630.671 -1.71261 -0.630554 0
M  V30 6844 C 630.722 -2.26909 2.81416 0
M  V30 6845 O 630.443 -1.64361 4.061 0
M  V30 6846 C 631.944 -3.16945 3.09937 0
M  V30 6847 H 629.164 -0.359591 0.566511 0
M  V30 6848 H 631.708 -0.501139 1.98265 0
M  V30 6849 H 629.863 -2.91959 2.54635 0
M  V30 6850 H 630.277 -2.35468 4.68674 0
M  V30 6851 H 631.751 -3.88437 3.922 0
M  V30 6852 H 632.228 -3.78451 2.22871 0
M  V30 6853 H 632.834 -2.57581 3.38426 0
M  V30 6854 N 631.149 -1.42148 -0.680565 0
M  V30 6855 C 632.426 -1.32795 -1.43614 0
M  V30 6856 C 632.806 0.037415 -2.11067 0
M  V30 6857 O 632.154 1.05258 -2.02813 0
M  V30 6858 C 632.364 -2.49206 -2.44331 0
M  V30 6859 C 633.712 -2.91059 -3.09144 0
M  V30 6860 O 634.736 -2.49054 -2.54657 0
M  V30 6861 O 633.595 -3.63741 -4.07866 0
M  V30 6862 H 630.689 -0.523397 -0.640301 0
M  V30 6863 H 633.235 -1.54144 -0.709775 0
M  V30 6864 H 632.007 -3.40252 -1.93247 0
M  V30 6865 H 631.63 -2.29813 -3.24456 0
M  V30 6866 N 632.627 0.916307 -1.28225 0
M  V30 6867 C 633.852 1.7043 -1.18188 0
M  V30 6868 C 634.277 1.86346 0.256274 0
M  V30 6869 O 633.635 1.37175 1.18544 0
M  V30 6870 C 633.683 3.07546 -1.88275 0
M  V30 6871 O 632.787 3.94904 -1.18848 0
M  V30 6872 H 632.128 0.521967 -0.410423 0
M  V30 6873 H 634.658 1.14589 -1.69501 0
M  V30 6874 H 634.668 3.57793 -1.96082 0
M  V30 6875 H 633.343 2.95279 -2.92887 0
M  V30 6876 H 631.92 3.53339 -1.19187 0
M  V30 6877 N 634.105 1.10431 1.1244 0
M  V30 6878 C 635.352 0.846717 1.83948 0
M  V30 6879 C 635.68 -0.627709 1.84093 0
M  V30 6880 O 634.935 -1.47876 1.28184 0
M  V30 6881 C 635.234 1.34022 3.3132 0
M  V30 6882 C 634.9 2.82606 3.51347 0
M  V30 6883 C 633.562 3.23182 3.56521 0
M  V30 6884 C 635.914 3.78356 3.58464 0
M  V30 6885 C 633.242 4.58258 3.66356 0
M  V30 6886 C 635.594 5.13234 3.69829 0
M  V30 6887 C 634.258 5.53384 3.73259 0
M  V30 6888 H 633.528 0.309836 0.673114 0
M  V30 6889 H 636.175 1.38091 1.32677 0
M  V30 6890 H 634.48 0.726047 3.85014 0
M  V30 6891 H 636.177 1.11739 3.85118 0
M  V30 6892 H 632.767 2.50212 3.47983 0
M  V30 6893 H 636.951 3.48115 3.53737 0
M  V30 6894 H 632.207 4.88787 3.67284 0
M  V30 6895 H 636.381 5.87272 3.74279 0
M  V30 6896 H 634.008 6.58045 3.80633 0
M  V30 6897 N 635.583 -1.29855 0.893053 0
M  V30 6898 C 636.513 -2.3035 0.382249 0
M  V30 6899 C 637.494 -1.61328 -0.539203 0
M  V30 6900 O 638.679 -1.88882 -0.451342 0
M  V30 6901 C 635.809 -3.45024 -0.396983 0
M  V30 6902 C 634.763 -4.258 0.433437 0
M  V30 6903 C 634.089 -5.32605 -0.472889 0
M  V30 6904 C 635.389 -4.94549 1.67984 0
M  V30 6905 H 637.083 -2.73325 1.22205 0
M  V30 6906 H 634.629 -1.314 0.589073 0
M  V30 6907 H 636.582 -4.14398 -0.765024 0
M  V30 6908 H 635.306 -3.00875 -1.2705 0
M  V30 6909 H 633.965 -3.58125 0.783723 0
M  V30 6910 H 633.613 -4.84702 -1.34435 0
M  V30 6911 H 633.313 -5.87547 0.0789958 0
M  V30 6912 H 634.837 -6.04832 -0.837269 0
M  V30 6913 H 636.251 -5.56395 1.38192 0
M  V30 6914 H 634.648 -5.59393 2.17254 0
M  V30 6915 H 635.718 -4.20215 2.41965 0
M  V30 6916 O 637.1 -0.794376 -1.40613 0
M  V30 6917 H 637.791 -0.366277 -1.90205 0
M  V30 END ATOM
M  V30 BEGIN BOND
M  V30 END BOND
M  V30 END CTAB
M  END
$$$$
