drugbank_target|P45954 Short/branched chain specific acyl-CoA dehydrogenase, mitochondrial (DB00167; DB00313)
 OpenBabel12092119343D

  0  0  0     0  0            999 V3000
M  V30 BEGIN CTAB
M  V30 COUNTS 6694 6757 0 0 0
M  V30 BEGIN ATOM
M  V30 1 H -0.908 1.98254 -0.117106 0
M  V30 2 N 0 1.576 0 0
M  V30 3 C 0.933 2.03868 1.02534 0
M  V30 4 C 1.911 0.928543 1.3348 0
M  V30 5 O 3.095 1.19667 1.45644 0
M  V30 6 C 0.222 2.43627 2.35294 0
M  V30 7 C -0.732 3.65373 2.2001 0
M  V30 8 S 0.101 5.13292 1.52614 0
M  V30 9 C 1.257 5.56322 2.86805 0
M  V30 10 H 1.49 2.90518 0.631377 0
M  V30 11 H -0.977 1.52953 0.210867 0
M  V30 12 H 0.981 2.67203 3.11629 0
M  V30 13 H -0.358 1.57376 2.7183 0
M  V30 14 H -1.165 3.90944 3.18086 0
M  V30 15 H -1.563 3.418 1.51819 0
M  V30 16 H 0.729 5.58782 3.83104 0
M  V30 17 H 1.672 6.56266 2.65933 0
M  V30 18 H 2.08 4.83886 2.90714 0
M  V30 19 N 1.4781 -0.272755 1.55222 0
M  V30 20 C 2.3881 -1.35918 1.91216 0
M  V30 21 C 3.4041 -1.54026 0.809436 0
M  V30 22 O 4.5801 -1.68148 1.10852 0
M  V30 23 C 1.6451 -2.69834 2.17693 0
M  V30 24 C 0.7061 -2.6047 3.41253 0
M  V30 25 C -0.0609 -3.88 3.66458 0
M  V30 26 O 0.1621 -4.88693 2.94169 0
M  V30 27 O -0.9039 -3.88189 4.59992 0
M  V30 28 H 2.9221 -1.0839 2.83699 0
M  V30 29 H 0.5071 -0.471301 1.41771 0
M  V30 30 H 2.3891 -3.49017 2.36147 0
M  V30 31 H 1.0641 -2.97148 1.28392 0
M  V30 32 H -0.0289 -1.79663 3.28134 0
M  V30 33 H 1.3041 -2.38106 4.30774 0
M  V30 34 N 2.9562 -1.48159 -0.537278 0
M  V30 35 C 4.2042 -1.55497 -1.29094 0
M  V30 36 C 4.5252 -0.227454 -1.93669 0
M  V30 37 O 3.7952 0.750386 -1.80959 0
M  V30 38 H 2.3752 -0.572832 -0.47945 0
M  V30 39 H 5.0372 -1.84579 -0.625818 0
M  V30 40 H 4.1332 -2.33216 -2.07405 0
M  V30 41 N 4.4343 0.785586 -1.36625 0
M  V30 42 C 5.3643 1.91259 -1.33949 0
M  V30 43 C 6.3453 1.68795 -0.210325 0
M  V30 44 O 7.5303 1.89854 -0.408561 0
M  V30 45 C 4.6603 3.28339 -1.13186 0
M  V30 46 C 3.6143 3.65335 -2.22967 0
M  V30 47 C 2.9403 5.00806 -1.87342 0
M  V30 48 C 4.2403 3.7352 -3.65075 0
M  V30 49 H 5.9343 1.93755 -2.28253 0
M  V30 50 H 3.4803 0.930788 -1.09874 0
M  V30 51 H 5.4333 4.06804 -1.09948 0
M  V30 52 H 4.1573 3.2624 -0.153332 0
M  V30 53 H 2.8163 2.89169 -2.25337 0
M  V30 54 H 2.4643 4.95233 -0.880545 0
M  V30 55 H 2.1643 5.26529 -2.60846 0
M  V30 56 H 3.6883 5.81687 -1.85667 0
M  V30 57 H 5.1023 4.42168 -3.64911 0
M  V30 58 H 3.4993 4.10731 -4.37516 0
M  V30 59 H 4.5693 2.74527 -3.99703 0
M  V30 60 N 5.9124 1.20967 1.01018 0
M  V30 61 C 6.8754 0.965918 2.07853 0
M  V30 62 C 7.8754 -0.0610545 1.60684 0
M  V30 63 O 9.0654 0.175681 1.73312 0
M  V30 64 C 6.1974 0.455513 3.37843 0
M  V30 65 H 7.3904 1.91365 2.3091 0
M  V30 66 H 4.9434 1.02594 1.17916 0
M  V30 67 H 5.6784 -0.497381 3.20463 0
M  V30 68 H 5.4634 1.19622 3.73407 0
M  V30 69 H 6.9534 0.304667 4.16487 0
M  V30 70 N 7.3905 -1.2043 1.01659 0
M  V30 71 C 8.6365 -1.90079 0.706963 0
M  V30 72 C 8.9695 -1.78648 -0.761474 0
M  V30 73 O 8.2445 -1.17069 -1.55323 0
M  V30 74 C 8.5275 -3.41469 1.14327 0
M  V30 75 C 8.3805 -3.61833 2.67201 0
M  V30 76 C 9.6995 -4.34261 0.714529 0
M  V30 77 H 6.8185 -0.690254 0.2583 0
M  V30 78 H 9.4605 -1.41826 1.26433 0
M  V30 79 H 7.6105 -3.82696 0.669056 0
M  V30 80 H 9.2825 -3.2986 3.22475 0
M  V30 81 H 7.5255 -3.05304 3.08175 0
M  V30 82 H 8.1965 -4.67955 2.92783 0
M  V30 83 H 10.6725 -4.00682 1.12221 0
M  V30 84 H 9.5485 -5.38806 1.04784 0
M  V30 85 H 9.8095 -4.40431 -0.383799 0
M  V30 86 N 8.8686 -0.792821 -1.36206 0
M  V30 87 C 10.2846 -0.474903 -1.52371 0
M  V30 88 C 10.4846 1.00622 -1.74578 0
M  V30 89 O 9.5406 1.79162 -1.77924 0
M  V30 90 C 10.8536 -1.3083 -2.70747 0
M  V30 91 C 12.4016 -1.30234 -2.84619 0
M  V30 92 C 12.8766 -2.11956 -4.06004 0
M  V30 93 N 14.3676 -2.09419 -4.13156 0
M  V30 94 C 15.1026 -2.69419 -5.06163 0
M  V30 95 N 14.5986 -3.3829 -6.04592 0
M  V30 96 N 16.3916 -2.59134 -4.98804 0
M  V30 97 H 8.5426 -1.75222 -1.20046 0
M  V30 98 H 10.8056 -0.745024 -0.586211 0
M  V30 99 H 10.5116 -2.35881 -2.6087 0
M  V30 100 H 10.3856 -0.95196 -3.6499 0
M  V30 101 H 12.7726 -0.259748 -2.93955 0
M  V30 102 H 12.8536 -1.69847 -1.91274 0
M  V30 103 H 12.4976 -3.16248 -3.97429 0
M  V30 104 H 12.4276 -1.69711 -4.98503 0
M  V30 105 H 14.9186 -1.59297 -3.42685 0
M  V30 106 H 15.2316 -3.81394 -6.7213 0
M  V30 107 H 13.5766 -3.42393 -6.04807 0
M  V30 108 H 16.7676 -2.04927 -4.20859 0
M  V30 109 H 16.9406 -3.06185 -5.711 0
M  V30 110 N 10.3467 1.47872 -0.545128 0
M  V30 111 C 11.2767 2.32661 0.197793 0
M  V30 112 C 12.2577 1.43041 0.920504 0
M  V30 113 O 13.4427 1.71912 0.90333 0
M  V30 114 C 10.5727 3.24569 1.23582 0
M  V30 115 C 9.5267 4.23333 0.630323 0
M  V30 116 C 8.8527 5.0448 1.77211 0
M  V30 117 C 10.1527 5.20704 -0.407974 0
M  V30 118 H 11.8467 2.95024 -0.510045 0
M  V30 119 H 9.3927 1.4187 -0.246731 0
M  V30 120 H 11.3457 3.8272 1.76362 0
M  V30 121 H 10.0697 2.60236 1.97344 0
M  V30 122 H 8.7287 3.6639 0.123922 0
M  V30 123 H 8.3767 4.36561 2.49847 0
M  V30 124 H 8.0767 5.71339 1.37281 0
M  V30 125 H 9.6007 5.65487 2.3034 0
M  V30 126 H 11.0147 5.7329 0.033305 0
M  V30 127 H 9.4117 5.95699 -0.725486 0
M  V30 128 H 10.4817 4.66917 -1.30828 0
M  V30 129 N 11.8248 0.280983 1.55075 0
M  V30 130 C 12.7548 -0.597469 2.25727 0
M  V30 131 C 13.7358 -1.15417 1.24952 0
M  V30 132 O 14.9208 -1.18722 1.53684 0
M  V30 133 C 12.0508 -1.7789 2.98283 0
M  V30 134 C 11.0048 -1.35347 4.06036 0
M  V30 135 C 10.3308 -2.61846 4.66198 0
M  V30 136 C 11.6308 -0.499354 5.19907 0
M  V30 137 H 13.3248 -0.00824265 2.99399 0
M  V30 138 H 10.8708 -0.0025244 1.44 0
M  V30 139 H 12.8238 -2.39937 3.46422 0
M  V30 140 H 11.5478 -2.39405 2.22155 0
M  V30 141 H 10.2068 -0.756156 3.58717 0
M  V30 142 H 9.8548 -3.21632 3.86732 0
M  V30 143 H 9.5548 -2.3409 5.38958 0
M  V30 144 H 11.0788 -3.24732 5.1709 0
M  V30 145 H 12.4928 -1.02498 5.64063 0
M  V30 146 H 10.8898 -0.316424 5.99265 0
M  V30 147 H 11.9598 0.480459 4.82514 0
M  V30 148 N 13.3029 -1.57598 0.00835791 0
M  V30 149 C 14.7189 -1.55764 -0.347822 0
M  V30 150 C 14.9189 -1.01186 -1.74252 0
M  V30 151 O 13.9749 -0.649371 -2.44007 0
M  V30 152 C 15.2879 -2.99927 -0.215407 0
M  V30 153 C 16.8359 -3.11656 -0.289725 0
M  V30 154 C 17.3109 -4.57621 -0.18634 0
M  V30 155 N 18.8019 -4.62557 -0.243978 0
M  V30 156 C 19.5369 -5.73094 -0.18745 0
M  V30 157 N 19.0329 -6.92753 -0.0810331 0
M  V30 158 N 20.8259 -5.61588 -0.239925 0
M  V30 159 H 12.9769 -1.91411 0.92062 0
M  V30 160 H 15.2399 -0.879562 0.353659 0
M  V30 161 H 14.9459 -3.43729 0.744512 0
M  V30 162 H 14.8199 -3.63865 -0.994097 0
M  V30 163 H 17.2069 -2.67779 -1.24009 0
M  V30 164 H 17.2879 -2.5048 0.51898 0
M  V30 165 H 16.9319 -5.02174 0.760519 0
M  V30 166 H 16.8619 -5.16752 -1.01364 0
M  V30 167 H 19.3529 -3.76481 -0.327217 0
M  V30 168 H 19.6659 -7.72787 -0.0440241 0
M  V30 169 H 18.0109 -6.94984 -0.0465419 0
M  V30 170 H 21.2019 -4.66996 -0.321317 0
M  V30 171 H 21.3749 -6.47714 -0.192407 0
M  V30 172 N 14.781 0.264519 -1.55364 0
M  V30 173 C 16.029 0.993021 -1.76021 0
M  V30 174 C 16.35 1.86511 -0.569099 0
M  V30 175 O 15.62 1.91438 0.415735 0
M  V30 176 H 14.2 0.369639 -0.649135 0
M  V30 177 H 16.862 0.286707 -1.9278 0
M  V30 178 H 15.958 1.62502 -2.66457 0
M  V30 179 N 16.2591 1.48442 0.529413 0
M  V30 180 C 17.4841 1.60406 1.31471 0
M  V30 181 C 17.9091 0.264738 1.86228 0
M  V30 182 O 17.2671 -0.763668 1.64432 0
M  V30 183 C 17.3151 2.65419 2.44101 0
M  V30 184 O 16.4191 2.22618 3.47153 0
M  V30 185 H 15.7601 0.537863 0.389357 0
M  V30 186 H 18.2901 1.94432 0.636965 0
M  V30 187 H 18.3001 2.86709 2.90279 0
M  V30 188 H 16.9751 3.62652 2.03608 0
M  V30 189 H 15.5521 2.11543 3.0709 0
M  V30 190 N 17.7372 -0.778329 1.37039 0
M  V30 191 C 19.1532 -1.07796 1.17695 0
M  V30 192 C 19.3532 -2.01498 0.00860115 0
M  V30 193 O 18.4092 -2.43901 -0.653352 0
M  V30 194 C 19.7222 -1.68178 2.49272 0
M  V30 195 C 21.2702 -1.80467 2.55735 0
M  V30 196 C 21.7452 -2.44263 3.87427 0
M  V30 197 N 23.2362 -2.51721 3.88833 0
M  V30 198 C 23.9712 -3.01919 4.87476 0
M  V30 199 N 23.4672 -3.5234 5.96513 0
M  V30 200 N 25.2602 -3.00733 4.74885 0
M  V30 201 H 17.4112 -0.156032 2.11826 0
M  V30 202 H 19.6742 -0.131844 0.938787 0
M  V30 203 H 19.3802 -1.06796 3.35093 0
M  V30 204 H 19.2542 -2.67554 2.65885 0
M  V30 205 H 21.6412 -2.40984 1.70325 0
M  V30 206 H 21.7222 -0.798656 2.43013 0
M  V30 207 H 21.3662 -1.84388 4.73248 0
M  V30 208 H 21.2962 -3.45458 3.9745 0
M  V30 209 H 23.7872 -2.1603 3.10063 0
M  V30 210 H 24.1002 -3.89027 6.67741 0
M  V30 211 H 22.4452 -3.50462 6.00168 0
M  V30 212 H 25.6362 -2.60638 3.88826 0
M  V30 213 H 25.8092 -3.39545 5.51918 0
M  V30 214 N 19.2153 -1.21501 -1.00376 0
M  V30 215 C 20.1453 -0.999478 -2.11028 0
M  V30 216 C 21.1263 0.0759671 -1.6993 0
M  V30 217 O 22.3113 -0.0841106 -1.94018 0
M  V30 218 C 19.4413 -0.564709 -3.42678 0
M  V30 219 C 18.3953 -1.58486 -3.97576 0
M  V30 220 C 17.7213 -1.00628 -5.25146 0
M  V30 221 C 19.0213 -2.97204 -4.29496 0
M  V30 222 H 20.7153 -1.92495 -2.29317 0
M  V30 223 H 18.2613 -0.92693 -1.102 0
M  V30 224 H 20.2143 -0.401091 -4.19487 0
M  V30 225 H 18.9383 0.396411 -3.24185 0
M  V30 226 H 17.5973 -1.73606 -3.22888 0
M  V30 227 H 17.2453 -0.0368439 -5.02987 0
M  V30 228 H 16.9453 -1.68771 -5.62841 0
M  V30 229 H 18.4693 -0.854015 -6.04598 0
M  V30 230 H 19.8833 -2.8552 -4.97143 0
M  V30 231 H 18.2803 -3.62372 -4.78338 0
M  V30 232 H 19.3503 -3.47956 -3.3772 0
M  V30 233 N 20.6934 1.19889 -1.02296 0
M  V30 234 C 21.6234 2.25141 -0.619174 0
M  V30 235 C 22.6044 1.66051 0.368915 0
M  V30 236 O 23.7894 1.92546 0.252941 0
M  V30 237 C 20.9194 3.4728 0.0368783 0
M  V30 238 C 19.8734 4.19005 -0.872865 0
M  V30 239 C 19.1994 5.34637 -0.0822402 0
M  V30 240 C 20.4994 4.74452 -2.18387 0
M  V30 241 H 22.1934 2.59171 -1.49903 0
M  V30 242 H 19.7394 1.24579 -0.722222 0
M  V30 243 H 21.6924 4.20098 0.330958 0
M  V30 244 H 20.4164 3.12433 0.95149 0
M  V30 245 H 19.0754 3.48061 -1.15105 0
M  V30 246 H 18.7234 4.96034 0.83422 0
M  V30 247 H 18.4234 5.83557 -0.688149 0
M  V30 248 H 19.9474 6.10255 0.205238 0
M  V30 249 H 21.3614 5.39055 -1.95172 0
M  V30 250 H 19.7584 5.33834 -2.74119 0
M  V30 251 H 20.8284 3.92844 -2.84257 0
M  V30 252 N 22.1715 0.800033 1.35784 0
M  V30 253 C 23.5875 0.482977 1.52117 0
M  V30 254 C 23.7875 -0.996948 1.75109 0
M  V30 255 O 22.8435 -1.78216 1.78872 0
M  V30 256 C 24.1565 1.32264 2.70049 0
M  V30 257 C 25.7045 1.31742 2.83924 0
M  V30 258 C 26.1795 2.14106 4.04874 0
M  V30 259 N 27.6705 2.11607 4.12039 0
M  V30 260 C 28.4055 2.72099 5.04727 0
M  V30 261 N 27.9015 3.41492 6.02789 0
M  V30 262 N 29.6945 2.61776 4.97423 0
M  V30 263 H 21.8455 1.75856 1.19115 0
M  V30 264 H 24.1085 0.748122 0.582252 0
M  V30 265 H 23.8145 2.37261 2.59616 0
M  V30 266 H 23.6885 0.971303 3.6448 0
M  V30 267 H 26.0755 0.275333 2.93813 0
M  V30 268 H 26.1565 1.70859 1.9037 0
M  V30 269 H 25.8005 3.18351 3.95746 0
M  V30 270 H 25.7305 1.72353 4.97596 0
M  V30 271 H 28.2215 1.61112 3.41835 0
M  V30 272 H 28.5345 3.84953 6.70098 0
M  V30 273 H 26.8795 3.45596 6.02983 0
M  V30 274 H 30.0705 2.07157 4.19766 0
M  V30 275 H 30.2435 3.0921 5.69468 0
M  V30 276 N 23.6496 -1.47581 0.552962 0
M  V30 277 C 25.0656 -1.5818 0.212424 0
M  V30 278 C 25.2656 -1.55213 -1.28496 0
M  V30 279 O 24.3216 -1.45329 -2.06484 0
M  V30 280 C 25.6346 -2.88865 0.835318 0
M  V30 281 C 27.1826 -3.0244 0.806156 0
M  V30 282 C 27.6576 -4.35819 1.40804 0
M  V30 283 N 29.1486 -4.42444 1.37103 0
M  V30 284 C 29.8836 -5.44202 1.80641 0
M  V30 285 N 29.3796 -6.52795 2.32015 0
M  V30 286 N 31.1726 -5.35222 1.71738 0
M  V30 287 H 23.3236 -1.47753 1.52587 0
M  V30 288 H 25.5866 -0.702941 0.636064 0
M  V30 289 H 25.2926 -2.9676 1.88749 0
M  V30 290 H 25.1666 -3.7579 0.325848 0
M  V30 291 H 27.5536 -2.94144 -0.237317 0
M  V30 292 H 27.6346 -2.17068 1.35334 0
M  V30 293 H 27.2786 -4.44871 2.45056 0
M  V30 294 H 27.2086 -5.19916 0.836338 0
M  V30 295 H 29.6996 -3.6456 0.995202 0
M  V30 296 H 30.0126 -7.26609 2.63171 0
M  V30 297 H 28.3576 -6.53696 2.36023 0
M  V30 298 H 31.5486 -4.49284 1.31382 0
M  V30 299 H 31.7216 -6.14389 2.05987 0
M  V30 300 N 25.1277 -0.289203 -1.54924 0
M  V30 301 C 26.0757 0.607966 -2.24514 0
M  V30 302 C 27.0697 1.14655 -1.24702 0
M  V30 303 O 28.2757 1.09856 -1.4259 0
M  V30 304 H 24.6507 0.21464 -0.720718 0
M  V30 305 H 26.6217 -0.00164182 -2.984 0
M  V30 306 C 25.3707 1.77406 -2.99036 0
M  V30 307 H 24.6937 1.36884 -3.75637 0
M  V30 308 H 26.1337 2.37814 -3.51028 0
M  V30 309 C 24.5927 2.67107 -2.05318 0
M  V30 310 O 25.1227 3.6787 -1.61353 0
M  V30 311 N 23.3287 2.34582 -1.71521 0
M  V30 312 H 22.8757 1.52688 -2.07471 0
M  V30 313 H 22.8337 2.94867 -1.0909 0
M  V30 314 N 26.6058 1.57591 -0.0167156 0
M  V30 315 C 27.8528 1.91283 0.664597 0
M  V30 316 C 28.1808 0.891949 1.72842 0
M  V30 317 O 27.4358 -0.100931 1.9544 0
M  V30 318 C 27.7348 3.3172 1.33029 0
M  V30 319 C 27.4008 4.4914 0.398047 0
M  V30 320 C 26.0628 4.80992 0.141421 0
M  V30 321 C 28.4148 5.20634 -0.242825 0
M  V30 322 C 25.7428 5.81703 -0.764092 0
M  V30 323 C 28.0948 6.22311 -1.13632 0
M  V30 324 C 26.7588 6.52611 -1.40196 0
M  V30 325 H 26.0288 0.699956 0.243193 0
M  V30 326 H 28.6758 1.9135 -0.0758267 0
M  V30 327 H 26.9808 3.27856 2.14517 0
M  V30 328 H 28.6778 3.55055 1.86379 0
M  V30 329 H 25.2678 4.24262 0.608238 0
M  V30 330 H 29.4518 4.96267 -0.0576019 0
M  V30 331 H 24.7078 6.03532 -0.977732 0
M  V30 332 H 28.8818 6.76834 -1.63917 0
M  V30 333 H 26.5088 7.30467 -2.10529 0
M  V30 334 N 28.0839 -0.256276 1.55502 0
M  V30 335 C 29.0139 -1.32102 1.92539 0
M  V30 336 C 29.9949 -1.50684 0.789194 0
M  V30 337 O 31.1799 -1.63449 1.04872 0
M  V30 338 C 28.3099 -2.67752 2.21192 0
M  V30 339 C 27.2639 -2.63878 3.36975 0
M  V30 340 C 26.5899 -4.03236 3.51147 0
M  V30 341 C 27.8899 -2.21682 4.72921 0
M  V30 342 H 29.5839 -1.01351 2.81724 0
M  V30 343 H 27.1299 -0.486105 1.35547 0
M  V30 344 H 29.0829 -3.42365 2.45691 0
M  V30 345 H 27.8069 -3.0012 1.28824 0
M  V30 346 H 26.4659 -1.91722 3.12471 0
M  V30 347 H 26.1139 -4.32854 2.56216 0
M  V30 348 H 25.8139 -4.01535 4.29003 0
M  V30 349 H 27.3379 -4.79563 3.77957 0
M  V30 350 H 28.7519 -2.86023 4.96854 0
M  V30 351 H 27.1489 -2.3111 5.53812 0
M  V30 352 H 28.2189 -1.16833 4.70615 0
M  V30 353 N 29.562 -1.4872 -0.521534 0
M  V30 354 C 30.79 -1.60843 -1.30142 0
M  V30 355 C 31.205 -0.271897 -1.86832 0
M  V30 356 O 30.562 0.739969 -1.66825 0
M  V30 357 C 30.613 -2.66155 -2.4463 0
M  V30 358 O 30.334 -3.94623 -1.90275 0
M  V30 359 C 31.835 -2.88795 -3.36322 0
M  V30 360 H 29.055 -0.542075 -0.395468 0
M  V30 361 H 31.599 -1.94609 -0.628285 0
M  V30 362 H 29.754 -2.35224 -3.07812 0
M  V30 363 H 30.168 -4.52468 -2.65279 0
M  V30 364 H 31.642 -3.66264 -4.12983 0
M  V30 365 H 32.119 -1.97934 -3.9207 0
M  V30 366 H 32.725 -3.21063 -2.78924 0
M  V30 367 N 31.0401 0.771051 -1.3745 0
M  V30 368 C 32.2801 1.54264 -1.34096 0
M  V30 369 C 32.6441 1.91858 0.0737639 0
M  V30 370 O 33.8451 2.67797 0.23203 0
M  V30 371 C 32.1161 2.77326 -2.25445 0
M  V30 372 S 33.6751 3.67383 -2.39948 0
M  V30 373 H 30.4931 0.528122 -0.476034 0
M  V30 374 H 33.0951 0.906633 -1.73206 0
M  V30 375 H 31.7991 2.47788 -3.27153 0
M  V30 376 H 31.3301 3.45886 -1.87421 0
M  V30 377 H 33.3451 4.69334 -1.61059 0
M  V30 378 N 32.5182 1.22032 0.997298 0
M  V30 379 C 33.4482 1.01065 2.10495 0
M  V30 380 C 34.4292 -0.0669542 1.69968 0
M  V30 381 O 35.6142 0.0943987 1.9397 0
M  V30 382 C 32.7442 0.582874 3.42374 0
M  V30 383 C 31.6982 1.60592 3.96729 0
M  V30 384 C 31.0242 1.03412 5.24605 0
M  V30 385 C 32.3242 2.99478 4.27914 0
M  V30 386 H 34.0182 1.93708 2.28292 0
M  V30 387 H 31.5642 0.932761 1.09707 0
M  V30 388 H 33.5172 0.423332 4.19268 0
M  V30 389 H 32.2412 -0.379213 3.24391 0
M  V30 390 H 30.9002 1.75316 3.21963 0
M  V30 391 H 30.5482 0.063518 5.0296 0
M  V30 392 H 30.2482 1.71754 5.61938 0
M  V30 393 H 31.7722 0.886066 6.04137 0
M  V30 394 H 33.1862 2.88153 4.95622 0
M  V30 395 H 31.5832 3.64903 4.76409 0
M  V30 396 H 32.6532 3.49742 3.3587 0
M  V30 397 N 33.9963 -1.19345 1.0293 0
M  V30 398 C 35.2213 -1.93538 0.745511 0
M  V30 399 C 35.6463 -1.75007 -0.689511 0
M  V30 400 O 35.0043 -1.05265 -1.47611 0
M  V30 401 C 35.0523 -3.43336 1.10239 0
M  V30 402 O 34.1563 -4.11806 0.221289 0
M  V30 403 H 33.4973 -0.604193 0.275404 0
M  V30 404 H 36.0273 -1.5141 1.37609 0
M  V30 405 H 36.0373 -3.94004 1.05947 0
M  V30 406 H 34.7123 -3.56146 2.14786 0
M  V30 407 H 33.2893 -3.715 0.322842 0
M  V30 408 N 35.4744 -0.807222 -1.35358 0
M  V30 409 C 36.6994 -0.399309 -2.0352 0
M  V30 410 C 37.1244 0.981986 -1.60433 0
M  V30 411 O 36.4824 1.63601 -0.781299 0
M  V30 412 C 36.5304 -0.491552 -3.57234 0
M  V30 413 O 35.6344 0.494754 -4.09421 0
M  V30 414 H 34.9754 -0.166682 -0.642739 0
M  V30 415 H 37.5054 -1.09328 -1.72941 0
M  V30 416 H 37.5154 -0.361588 -4.06395 0
M  V30 417 H 36.1904 -1.49907 -3.87944 0
M  V30 418 H 34.7674 0.324977 -3.71481 0
M  V30 419 N 36.9525 1.47285 -0.560781 0
M  V30 420 C 38.1985 2.03347 -0.0463654 0
M  V30 421 C 38.5535 1.42702 1.2905 0
M  V30 422 O 37.8465 0.574619 1.8278 0
M  V30 423 C 38.0405 3.57258 0.100784 0
M  V30 424 C 37.8695 4.32827 -1.22027 0
M  V30 425 C 36.6395 4.72588 -1.78854 0
M  V30 426 C 38.8375 4.67739 -2.13834 0
M  V30 427 N 36.8195 5.32816 -3.04927 0
M  V30 428 C 38.1905 5.28307 -3.24487 0
M  V30 429 C 40.2455 4.49667 -2.13784 0
M  V30 430 C 38.9485 5.72711 -4.35194 0
M  V30 431 C 40.9745 4.95073 -3.23506 0
M  V30 432 C 40.3365 5.55693 -4.32879 0
M  V30 433 H 36.4355 0.779755 -0.0592166 0
M  V30 434 H 39.0195 1.79723 -0.748857 0
M  V30 435 H 37.1905 3.80642 0.772404 0
M  V30 436 H 38.9225 3.9996 0.617589 0
M  V30 437 H 35.6775 4.54656 -1.32609 0
M  V30 438 H 36.1015 5.67471 -3.69197 0
M  V30 439 H 40.7435 4.02154 -1.30507 0
M  V30 440 H 38.4615 6.19214 -5.1923 0
M  V30 441 H 42.0475 4.82859 -3.24559 0
M  V30 442 H 40.9275 5.90188 -5.1638 0
M  V30 443 N 38.4306 0.297415 1.54768 0
M  V30 444 C 39.3776 -0.580276 2.23386 0
M  V30 445 C 40.3476 -1.13238 1.21517 0
M  V30 446 O 41.5326 -1.17757 1.50126 0
M  V30 447 C 38.6726 -1.74801 2.97555 0
M  V30 448 C 37.7856 -1.22764 4.1419 0
M  V30 449 C 36.9206 -2.35895 4.75949 0
M  V30 450 C 35.9596 -1.80974 5.84735 0
M  V30 451 N 35.0966 -2.87664 6.40464 0
M  V30 452 H 39.9366 0.0114833 2.97998 0
M  V30 453 H 37.4736 0.0174361 1.4709 0
M  V30 454 H 39.4316 -2.43475 3.38786 0
M  V30 455 H 38.0616 -2.31145 2.25326 0
M  V30 456 H 37.1136 -0.433271 3.77924 0
M  V30 457 H 38.4256 -0.785551 4.92575 0
M  V30 458 H 37.5796 -3.12523 5.20014 0
M  V30 459 H 36.3186 -2.83429 3.96887 0
M  V30 460 H 35.3236 -1.02834 5.40097 0
M  V30 461 H 36.5486 -1.34348 6.65678 0
M  V30 462 H 34.4946 -3.34538 5.64287 0
M  V30 463 H 34.4116 -2.4794 7.14186 0
M  V30 464 H 35.6796 -3.642 6.89187 0
M  V30 465 N 39.9087 -1.5758 0.0250728 0
M  V30 466 C 41.1577 -1.90811 -0.653767 0
M  V30 467 C 41.4707 -0.90273 -1.73523 0
M  V30 468 O 42.6767 -1.12614 -2.47043 0
M  V30 469 C 41.1327 -3.38804 -1.21409 0
M  V30 470 C 40.7407 -4.47692 -0.166126 0
M  V30 471 C 42.4847 -3.81108 -1.86967 0
M  V30 472 C 40.3917 -5.86779 -0.737856 0
M  V30 473 H 39.3217 -0.712063 -0.247956 0
M  V30 474 H 41.9727 -1.83281 0.0897137 0
M  V30 475 H 40.3547 -3.41252 -2.00905 0
M  V30 476 H 41.5287 -4.56797 0.606079 0
M  V30 477 H 39.8437 -4.14565 0.390466 0
M  V30 478 H 42.4407 -4.82375 -2.30692 0
M  V30 479 H 42.7837 -3.15953 -2.71071 0
M  V30 480 H 43.3167 -3.81065 -1.14167 0
M  V30 481 H 40.0557 -6.55468 0.0649577 0
M  V30 482 H 39.5757 -5.81288 -1.47864 0
M  V30 483 H 41.2547 -6.35223 -1.22884 0
M  V30 484 N 41.3868 0.248026 -1.55636 0
M  V30 485 C 42.7978 0.817177 -1.67866 0
M  V30 486 C 43.1488 1.86069 -0.622322 0
M  V30 487 O 42.2738 2.15157 0.231618 0
M  V30 488 C 42.8688 1.489 -3.04326 0
M  V30 489 C 41.4278 2.00587 -3.185 0
M  V30 490 C 40.5748 0.856573 -2.63739 0
M  V30 491 H 43.5258 0.0238579 -1.58682 0
M  V30 492 H 43.5468 2.35698 -2.98708 0
M  V30 493 H 43.0588 0.729279 -3.81186 0
M  V30 494 H 41.1598 2.79443 -2.4646 0
M  V30 495 H 41.2728 2.20402 -4.25393 0
M  V30 496 H 39.6368 1.25678 -2.21534 0
M  V30 497 H 40.4198 0.109953 -3.43124 0
M  V30 498 N 42.8649 1.48995 0.513639 0
M  V30 499 C 44.2759 1.5119 1.09537 0
M  V30 500 C 44.6269 0.290906 1.94031 0
M  V30 501 O 43.7519 -0.60049 2.07902 0
M  V30 502 C 44.3469 2.73964 1.99322 0
M  V30 503 C 42.9059 2.78978 2.52682 0
M  V30 504 C 42.0529 2.44934 1.30009 0
M  V30 505 H 45.0039 1.55875 0.298125 0
M  V30 506 H 45.0249 2.53409 2.83838 0
M  V30 507 H 44.5369 3.62813 1.37799 0
M  V30 508 H 42.6379 1.94378 3.1788 0
M  V30 509 H 42.7509 3.8083 2.90698 0
M  V30 510 H 41.1149 1.9644 1.62122 0
M  V30 511 H 41.8979 3.36043 0.702131 0
M  V30 512 N 44.343 -0.763751 1.37857 0
M  V30 513 C 45.293 -1.86765 1.30777 0
M  V30 514 C 46.277 -1.59726 0.194015 0
M  V30 515 O 47.469 -1.7172 0.42911 0
M  V30 516 C 44.598 -3.24343 1.12502 0
M  V30 517 C 43.684 -3.57307 2.28456 0
M  V30 518 N 44.075 -3.61398 3.53871 0
M  V30 519 C 42.373 -3.87517 2.20786 0
M  V30 520 C 43.074 -3.91339 4.30382 0
M  V30 521 N 42.05 -4.07649 3.59615 0
M  V30 522 H 45.852 -1.88191 2.25746 0
M  V30 523 H 43.366 -0.9606 1.30944 0
M  V30 524 H 45.363 -4.03327 1.05514 0
M  V30 525 H 44.023 -3.24175 0.184574 0
M  V30 526 H 45.034 -3.43407 3.87675 0
M  V30 527 H 41.711 -3.95125 1.34844 0
M  V30 528 H 43.101 -4.01213 5.3896 0
M  V30 529 N 45.8211 -1.22559 -0.990812 0
M  V30 530 C 47.0671 -1.05297 -1.73322 0
M  V30 531 C 47.4001 0.410655 -1.89808 0
M  V30 532 O 46.6751 1.30439 -1.44277 0
M  V30 533 C 46.9581 -1.76713 -3.13759 0
M  V30 534 C 46.8111 -3.30684 -3.04907 0
M  V30 535 C 48.1301 -1.52121 -4.12974 0
M  V30 536 H 45.2491 -0.38392 -0.629106 0
M  V30 537 H 47.8911 -1.50926 -1.15418 0
M  V30 538 H 46.0411 -1.37924 -3.63193 0
M  V30 539 H 47.7131 -3.7893 -2.63077 0
M  V30 540 H 45.9561 -3.60253 -2.41661 0
M  V30 541 H 46.6271 -3.75833 -4.04294 0
M  V30 542 H 49.1031 -1.85819 -3.72304 0
M  V30 543 H 47.9791 -2.04582 -5.0935 0
M  V30 544 H 48.2401 -0.454257 -4.3976 0
M  V30 545 N 47.2992 1.18797 -1.03562 0
M  V30 546 C 48.5242 1.9314 -0.755764 0
M  V30 547 C 48.9492 1.7537 0.68022 0
M  V30 548 O 48.3072 1.06046 1.47051 0
M  V30 549 C 48.3552 3.42747 -1.12058 0
M  V30 550 O 47.4592 4.11683 -0.243124 0
M  V30 551 H 46.8002 0.602724 -0.278604 0
M  V30 552 H 49.3302 1.50678 -1.3841 0
M  V30 553 H 49.3402 3.93437 -1.08035 0
M  V30 554 H 48.0152 3.55002 -2.16672 0
M  V30 555 H 46.5922 3.71323 -0.342539 0
M  V30 556 N 48.7773 0.814389 1.34928 0
M  V30 557 C 49.7243 0.22822 2.29669 0
M  V30 558 C 50.6943 -0.642164 1.53184 0
M  V30 559 O 51.8793 -0.585605 1.81591 0
M  V30 560 C 49.0193 -0.61089 3.3965 0
M  V30 561 C 48.1323 0.280792 4.31086 0
M  V30 562 C 47.2673 -0.567067 5.28165 0
M  V30 563 C 46.3063 0.324531 6.11239 0
M  V30 564 N 45.4433 -0.483756 7.00431 0
M  V30 565 H 50.2833 1.04153 2.79206 0
M  V30 566 H 47.8203 0.525133 1.37407 0
M  V30 567 H 49.7783 -1.11263 4.0209 0
M  V30 568 H 48.4083 -1.38939 2.91369 0
M  V30 569 H 47.4603 0.900688 3.69583 0
M  V30 570 H 48.7723 0.966723 4.89342 0
M  V30 571 H 47.9263 -1.13363 5.96015 0
M  V30 572 H 46.6653 -1.28654 4.70425 0
M  V30 573 H 45.6703 0.903298 5.42329 0
M  V30 574 H 46.8953 1.04198 6.71059 0
M  V30 575 H 44.8413 -1.18706 6.45171 0
M  V30 576 H 44.7583 0.143965 7.55863 0
M  V30 577 H 46.0263 -1.03334 7.7262 0
M  V30 578 N 50.2554 -1.46986 0.568584 0
M  V30 579 C 51.4804 -2.07335 0.0520528 0
M  V30 580 C 51.9054 -1.41675 -1.23733 0
M  V30 581 O 51.2634 -0.495623 -1.74394 0
M  V30 582 C 51.3114 -3.60417 -0.11501 0
M  V30 583 O 50.4154 -3.95309 -1.17492 0
M  V30 584 H 49.7564 -0.661597 0.0564385 0
M  V30 585 H 52.2864 -1.88837 0.787507 0
M  V30 586 H 52.2964 -4.06698 -0.325644 0
M  V30 587 H 50.9714 -4.07601 0.826675 0
M  V30 588 H 49.5484 -3.60757 -0.943869 0
M  V30 589 N 51.7335 -0.305618 -1.54608 0
M  V30 590 C 52.9585 0.307562 -2.05107 0
M  V30 591 C 53.3835 1.46385 -1.18123 0
M  V30 592 O 52.7415 1.8034 -0.186324 0
M  V30 593 C 52.7895 0.73704 -3.52987 0
M  V30 594 O 51.8935 1.84134 -3.6901 0
M  V30 595 H 51.2345 0.0589143 -0.661381 0
M  V30 596 H 53.7645 -0.448807 -1.99617 0
M  V30 597 H 53.7745 1.02459 -3.94925 0
M  V30 598 H 52.4495 -0.108773 -4.15758 0
M  V30 599 H 51.0265 1.55398 -3.38978 0
M  V30 600 N 53.2116 1.57565 -0.0334293 0
M  V30 601 C 54.1436 2.0739 0.975811 0
M  V30 602 C 55.1566 0.998166 1.2861 0
M  V30 603 O 56.3456 1.27426 1.25 0
M  V30 604 C 53.4456 2.4871 2.30209 0
M  V30 605 C 52.6186 3.79413 2.17634 0
M  V30 606 C 51.6776 4.07237 3.33233 0
M  V30 607 O 50.7036 4.77425 3.09927 0
M  V30 608 N 51.9056 3.5775 4.5716 0
M  V30 609 H 54.6706 2.94598 0.55066 0
M  V30 610 H 52.2316 1.61173 0.15323 0
M  V30 611 H 54.2236 2.64413 3.06378 0
M  V30 612 H 52.7936 1.66845 2.64351 0
M  V30 613 H 52.0136 3.73465 1.26165 0
M  V30 614 H 53.3016 4.65038 2.0644 0
M  V30 615 H 52.6996 3.00976 4.78989 0
M  V30 616 H 51.2566 3.78724 5.30482 0
M  V30 617 N 54.6897 -0.239769 1.55765 0
M  V30 618 C 55.9147 -0.988373 1.82335 0
M  V30 619 C 56.3397 -1.77886 0.611421 0
M  V30 620 O 55.6977 -1.75889 -0.439639 0
M  V30 621 C 55.7457 -1.89627 3.06715 0
M  V30 622 O 54.8497 -2.98904 2.84131 0
M  V30 623 H 54.1907 -0.280858 0.601677 0
M  V30 624 H 56.7207 -0.258597 2.02959 0
M  V30 625 H 56.7307 -2.30957 3.36338 0
M  V30 626 H 55.4057 -1.31511 3.9456 0
M  V30 627 H 53.9827 -2.61651 2.65694 0
M  V30 628 N 56.1678 -1.49265 -0.50573 0
M  V30 629 C 57.0778 -1.68312 -1.63427 0
M  V30 630 C 58.0938 -0.565682 -1.64548 0
M  V30 631 O 59.2698 -0.839801 -1.83055 0
M  V30 632 C 56.3348 -1.74107 -2.99813 0
M  V30 633 C 55.3958 -2.97653 -3.09356 0
M  V30 634 C 54.6288 -3.03163 -4.39236 0
M  V30 635 O 54.8518 -2.16396 -5.27758 0
M  V30 636 O 53.7858 -3.9558 -4.53652 0
M  V30 637 H 57.6118 -2.63907 -1.50289 0
M  V30 638 H 55.1968 -1.32951 -0.681502 0
M  V30 639 H 57.0788 -1.803 -3.80881 0
M  V30 640 H 55.7538 -0.816901 -3.13223 0
M  V30 641 H 54.6608 -2.96981 -2.27493 0
M  V30 642 H 55.9938 -3.89535 -3.00871 0
M  V30 643 N 57.6459 0.756429 -1.3826 0
M  V30 644 C 58.6089 1.85176 -1.35065 0
M  V30 645 C 59.6089 1.58818 -0.251703 0
M  V30 646 O 60.7989 1.66615 -0.508433 0
M  V30 647 C 57.9309 3.22596 -1.10201 0
M  V30 648 H 59.1239 1.89417 -2.3251 0
M  V30 649 H 56.6769 0.95783 -1.23512 0
M  V30 650 H 57.4119 3.24025 -0.133504 0
M  V30 651 H 57.1969 3.43122 -1.89762 0
M  V30 652 H 58.6869 4.02673 -1.10654 0
M  V30 653 N 59.124 1.23083 0.984299 0
M  V30 654 C 60.054 1.03292 2.09411 0
M  V30 655 C 61.035 -0.048923 1.7003 0
M  V30 656 O 62.22 0.114967 1.93859 0
M  V30 657 C 59.35 0.619155 3.41736 0
M  V30 658 C 58.304 1.64791 3.95004 0
M  V30 659 C 57.63 1.0897 5.23478 0
M  V30 660 C 58.93 3.03999 4.24714 0
M  V30 661 H 60.624 1.96119 2.26225 0
M  V30 662 H 58.17 0.944344 1.08711 0
M  V30 663 H 60.123 0.467777 4.18796 0
M  V30 664 H 58.847 -0.344786 3.24775 0
M  V30 665 H 57.506 1.78721 3.20085 0
M  V30 666 H 57.154 0.11686 5.02864 0
M  V30 667 H 56.854 1.77704 5.60085 0
M  V30 668 H 58.378 0.950093 6.03163 0
M  V30 669 H 59.792 2.93393 4.92538 0
M  V30 670 H 58.189 3.69936 4.72512 0
M  V30 671 H 59.259 3.53285 3.32142 0
M  V30 672 N 60.6021 -1.18246 1.0419 0
M  V30 673 C 61.5321 -2.24127 0.654914 0
M  V30 674 C 62.5131 -1.66617 -0.342451 0
M  V30 675 O 63.6981 -1.92924 -0.222277 0
M  V30 676 C 60.8281 -3.47295 0.0183757 0
M  V30 677 C 59.7821 -4.17563 0.939414 0
M  V30 678 C 59.1081 -5.34438 0.167286 0
M  V30 679 C 60.4081 -4.70917 2.25908 0
M  V30 680 H 62.1021 -2.56753 1.54007 0
M  V30 681 H 59.6481 -1.23414 0.74195 0
M  V30 682 H 61.6011 -4.20572 -0.264082 0
M  V30 683 H 60.3251 -3.13907 -0.901664 0
M  V30 684 H 58.9841 -3.46186 1.20628 0
M  V30 685 H 58.6321 -4.97298 -0.7552 0
M  V30 686 H 58.3321 -5.82388 0.780901 0
M  V30 687 H 59.8561 -6.10504 -0.108125 0
M  V30 688 H 61.2701 -5.35882 2.03724 0
M  V30 689 H 59.6671 -5.29406 2.82577 0
M  V30 690 H 60.7371 -3.88272 2.9047 0
M  V30 691 N 62.0802 -0.821533 -1.34494 0
M  V30 692 C 63.0282 -0.230702 -2.31453 0
M  V30 693 C 64.0222 0.627793 -1.57338 0
M  V30 694 O 65.2282 0.519288 -1.72347 0
M  V30 695 H 61.6032 -0.0558577 -0.749923 0
M  V30 696 H 63.5742 -1.06332 -2.78812 0
M  V30 697 C 62.3232 0.59391 -3.4259 0
M  V30 698 H 61.6462 -0.0573588 -3.99759 0
M  V30 699 H 63.0862 0.973446 -4.12674 0
M  V30 700 C 61.5452 1.76568 -2.86924 0
M  V30 701 O 62.0752 2.8638 -2.81691 0
M  V30 702 N 60.2812 1.58198 -2.43766 0
M  V30 703 H 59.8282 0.68872 -2.48222 0
M  V30 704 H 59.7862 2.36752 -2.06871 0
M  V30 705 N 63.5583 1.46682 -0.576371 0
M  V30 706 C 64.8073 2.01619 -0.0572825 0
M  V30 707 C 65.1203 1.45417 1.30818 0
M  V30 708 O 66.3263 1.92133 1.91825 0
M  V30 709 C 64.7823 3.59863 -0.0518371 0
M  V30 710 C 64.3903 4.25059 -1.41523 0
M  V30 711 C 66.1343 4.2248 0.413639 0
M  V30 712 C 64.0413 5.75364 -1.36785 0
M  V30 713 H 62.9713 0.753794 -0.0176448 0
M  V30 714 H 65.6223 1.68481 -0.727076 0
M  V30 715 H 64.0043 3.90048 0.683994 0
M  V30 716 H 65.1783 4.06491 -2.17029 0
M  V30 717 H 63.4933 3.7451 -1.8202 0
M  V30 718 H 66.0903 5.3265 0.467779 0
M  V30 719 H 66.4333 3.90976 1.42982 0
M  V30 720 H 66.9663 3.96897 -0.267929 0
M  V30 721 H 63.7053 6.11518 -2.36063 0
M  V30 722 H 63.2253 5.96214 -0.654895 0
M  V30 723 H 64.9043 6.37955 -1.07805 0
M  V30 724 N 65.0364 0.313813 1.54444 0
M  V30 725 C 66.2644 -0.293918 2.04802 0
M  V30 726 C 66.6794 -1.46537 1.19047 0
M  V30 727 O 66.0364 -1.81182 0.218939 0
M  V30 728 C 66.0874 -0.737806 3.53891 0
M  V30 729 O 65.8084 0.387038 4.36387 0
M  V30 730 C 67.3094 -1.40936 4.203 0
M  V30 731 H 64.5294 -0.0620057 0.668129 0
M  V30 732 H 67.0734 0.457169 1.99324 0
M  V30 733 H 65.2284 -1.43889 3.59687 0
M  V30 734 H 65.6424 0.0391274 5.24485 0
M  V30 735 H 67.1164 -1.67099 5.26101 0
M  V30 736 H 67.5934 -2.35355 3.70816 0
M  V30 737 H 68.1994 -0.751117 4.18615 0
M  V30 738 N 66.5145 -1.57545 0.0417849 0
M  V30 739 C 67.4625 -2.12148 -0.953723 0
M  V30 740 C 68.4565 -1.05104 -1.32852 0
M  V30 741 O 69.6625 -1.23524 -1.30927 0
M  V30 742 H 66.0375 -0.677957 -0.325389 0
M  V30 743 H 68.0085 -2.94707 -0.467991 0
M  V30 744 C 66.7575 -2.6739 -2.22257 0
M  V30 745 H 66.0805 -3.49413 -1.94295 0
M  V30 746 H 67.5205 -3.09227 -2.90094 0
M  V30 747 C 65.9795 -1.60723 -2.96091 0
M  V30 748 O 66.5095 -1.01449 -3.88679 0
M  V30 749 N 64.7155 -1.32466 -2.58652 0
M  V30 750 H 64.2625 -1.80856 -1.83437 0
M  V30 751 H 64.2205 -0.61325 -3.08361 0
M  V30 752 N 67.9926 0.231505 -1.5589 0
M  V30 753 C 68.9406 1.30649 -1.92441 0
M  V30 754 C 69.9346 1.49037 -0.805254 0
M  V30 755 O 71.1406 1.50329 -0.990007 0
M  V30 756 H 67.5156 0.437812 -0.611412 0
M  V30 757 H 69.4866 0.970973 -2.82161 0
M  V30 758 C 68.2356 2.65179 -2.24889 0
M  V30 759 H 67.5586 2.51835 -3.10514 0
M  V30 760 H 68.9986 3.39234 -2.54355 0
M  V30 761 C 67.4576 3.19439 -1.07054 0
M  V30 762 O 67.9876 4.00371 -0.326499 0
M  V30 763 N 66.1936 2.77675 -0.85703 0
M  V30 764 H 65.7406 2.11969 -1.46379 0
M  V30 765 H 65.6986 3.14321 -0.0703223 0
M  V30 766 N 69.4707 1.49531 0.497807 0
M  V30 767 C 70.7187 1.58865 1.24926 0
M  V30 768 C 71.0397 0.278721 1.92998 0
M  V30 769 O 70.3097 -0.702144 1.82885 0
M  V30 770 H 68.8897 0.585343 0.464094 0
M  V30 771 H 71.5517 1.86174 0.57666 0
M  V30 772 H 70.6477 2.38633 2.01149 0
M  V30 773 N 70.9488 -0.749086 1.3866 0
M  V30 774 C 72.1978 -1.50371 1.3443 0
M  V30 775 C 72.5108 -1.95503 -0.0616397 0
M  V30 776 O 73.7168 -2.70554 -0.226489 0
M  V30 777 C 72.1728 -2.71644 2.36088 0
M  V30 778 C 71.7808 -2.3352 3.82325 0
M  V30 779 C 73.5248 -3.49518 2.40909 0
M  V30 780 C 71.4318 -3.51431 4.75658 0
M  V30 781 H 70.3618 -0.564628 0.499712 0
M  V30 782 H 73.0128 -0.818449 1.64237 0
M  V30 783 H 71.3948 -3.42175 1.9933 0
M  V30 784 H 72.5688 -1.70627 4.28046 0
M  V30 785 H 70.8838 -1.6877 3.80665 0
M  V30 786 H 73.4808 -4.37197 3.07836 0
M  V30 787 H 73.8238 -3.90992 1.42937 0
M  V30 788 H 74.3568 -2.86005 2.76489 0
M  V30 789 H 71.0958 -3.15019 5.74842 0
M  V30 790 H 70.6158 -4.13352 4.34627 0
M  V30 791 H 72.2948 -4.17953 4.93887 0
M  V30 792 N 72.4269 -1.23603 -0.977757 0
M  V30 793 C 73.3769 -0.986664 -2.05545 0
M  V30 794 C 74.3609 0.0683009 -1.60755 0
M  V30 795 O 75.5529 -0.144162 -1.76412 0
M  V30 796 C 72.6819 -0.582623 -3.3832 0
M  V30 797 C 71.7679 -1.67313 -3.89701 0
M  V30 798 N 72.1589 -2.90394 -4.14132 0
M  V30 799 C 70.4569 -1.54832 -4.18262 0
M  V30 800 C 71.1579 -3.61017 -4.56116 0
M  V30 801 N 70.1339 -2.8854 -4.60701 0
M  V30 802 H 73.9359 -1.92139 -2.22396 0
M  V30 803 H 71.4499 -1.1358 -1.16074 0
M  V30 804 H 73.4469 -0.38524 -4.15116 0
M  V30 805 H 72.1069 0.34503 -3.22862 0
M  V30 806 H 73.1179 -3.26673 -4.01877 0
M  V30 807 H 69.7949 -0.687969 -4.11793 0
M  V30 808 H 71.1849 -4.66544 -4.83514 0
M  V30 809 N 73.905 1.17692 -1.04816 0
M  V30 810 C 75.152 1.87859 -0.75599 0
M  V30 811 C 75.48 1.80812 0.716752 0
M  V30 812 O 74.735 1.20819 1.53952 0
M  V30 813 C 75.034 3.37462 -1.17703 0
M  V30 814 C 74.7 3.64713 -2.65133 0
M  V30 815 C 73.362 3.71859 -3.05408 0
M  V30 816 C 75.714 3.76492 -3.60421 0
M  V30 817 C 73.042 3.88271 -4.39843 0
M  V30 818 C 75.394 3.94421 -4.94585 0
M  V30 819 C 74.058 3.99806 -5.3452 0
M  V30 820 H 73.328 0.687425 -0.276636 0
M  V30 821 H 75.975 1.39255 -1.31455 0
M  V30 822 H 74.28 3.88097 -0.537395 0
M  V30 823 H 75.977 3.90109 -0.928218 0
M  V30 824 H 72.567 3.59772 -2.32942 0
M  V30 825 H 76.751 3.70295 -3.30447 0
M  V30 826 H 72.007 3.90687 -4.70291 0
M  V30 827 H 76.181 4.02477 -5.68318 0
M  V30 828 H 73.808 4.12276 -6.38696 0
M  V30 829 N 75.3831 0.828654 1.34056 0
M  V30 830 C 76.3461 0.259927 2.27721 0
M  V30 831 C 77.3461 -0.565478 1.50529 0
M  V30 832 O 78.5361 -0.38075 1.69988 0
M  V30 833 C 75.6681 -0.634944 3.34935 0
M  V30 834 H 76.8611 1.0863 2.79534 0
M  V30 835 H 74.4141 0.600951 1.44285 0
M  V30 836 H 75.1491 -1.48416 2.88346 0
M  V30 837 H 74.9341 -0.0444999 3.92075 0
M  V30 838 H 76.4241 -1.02648 4.04788 0
M  V30 839 N 76.8612 -1.46375 0.584142 0
M  V30 840 C 78.2722 -1.86031 0.157959 0
M  V30 841 C 78.6232 -1.48753 -1.27933 0
M  V30 842 O 77.7482 -0.903098 -1.96655 0
M  V30 843 C 78.3432 -3.37642 0.279892 0
M  V30 844 C 76.9022 -3.76289 -0.09143 0
M  V30 845 C 76.0492 -2.7039 0.615178 0
M  V30 846 H 79.0002 -1.37509 0.792274 0
M  V30 847 H 79.0212 -3.77275 -0.494364 0
M  V30 848 H 78.5332 -3.64742 1.32607 0
M  V30 849 H 76.6342 -3.54806 -1.13769 0
M  V30 850 H 76.7472 -4.78246 0.285886 0
M  V30 851 H 75.1112 -2.5464 0.0552833 0
M  V30 852 H 75.8942 -3.0033 1.66303 0
M  V30 853 N 78.3393 -0.321999 -1.54275 0
M  V30 854 C 79.2693 0.537411 -2.27231 0
M  V30 855 C 80.2503 1.12064 -1.27968 0
M  V30 856 O 81.4353 1.14606 -1.56777 0
M  V30 857 C 78.5653 1.69919 -3.02894 0
M  V30 858 C 77.5193 1.24534 -4.09482 0
M  V30 859 C 76.8453 2.49394 -4.72977 0
M  V30 860 C 78.1453 0.361335 -5.21049 0
M  V30 861 H 79.8393 -0.0711406 -2.99315 0
M  V30 862 H 77.3853 -0.0356555 -1.43956 0
M  V30 863 H 79.3383 2.30668 -3.52662 0
M  V30 864 H 78.0623 2.33431 -2.28424 0
M  V30 865 H 76.7213 0.660782 -3.60596 0
M  V30 866 H 76.3693 3.11265 -3.95124 0
M  V30 867 H 76.0693 2.19718 -5.44975 0
M  V30 868 H 77.5933 3.10908 -5.25517 0
M  V30 869 H 79.0073 0.875072 -5.66582 0
M  V30 870 H 77.4043 0.157428 -5.99893 0
M  V30 871 H 78.4743 -0.60822 -4.8107 0
M  V30 872 N 79.8174 1.5752 -0.0501392 0
M  V30 873 C 80.7494 2.08413 0.95376 0
M  V30 874 C 81.7624 1.01175 1.27544 0
M  V30 875 O 82.9514 1.28744 1.23641 0
M  V30 876 C 80.0514 2.51138 2.27559 0
M  V30 877 C 79.2244 3.817 2.13598 0
M  V30 878 C 78.2834 4.10749 3.28895 0
M  V30 879 O 77.3094 4.80685 3.04845 0
M  V30 880 N 78.5114 3.62579 4.5334 0
M  V30 881 H 81.2764 2.95165 0.519383 0
M  V30 882 H 78.8374 1.61327 0.136127 0
M  V30 883 H 80.8294 2.67648 3.03557 0
M  V30 884 H 79.3994 1.6964 2.62567 0
M  V30 885 H 78.6194 3.74782 1.22197 0
M  V30 886 H 79.9074 4.67201 2.01496 0
M  V30 887 H 79.3054 3.06039 4.75769 0
M  V30 888 H 77.8624 3.84329 5.26436 0
M  V30 889 N 81.2955 -0.223234 1.56011 0
M  V30 890 C 82.5235 -0.964812 1.83027 0
M  V30 891 C 82.9385 -1.78013 0.62904 0
M  V30 892 O 82.2955 -1.78008 -0.402414 0
M  V30 893 C 82.3465 -1.88373 3.08542 0
M  V30 894 O 82.0675 -1.10137 4.2403 0
M  V30 895 C 83.5685 -2.73934 3.48533 0
M  V30 896 H 80.7885 -0.282842 0.608475 0
M  V30 897 H 83.3325 -0.238971 2.03099 0
M  V30 898 H 81.4875 -2.56354 2.9045 0
M  V30 899 H 81.9015 -1.72501 4.95322 0
M  V30 900 H 83.3755 -3.34117 4.39397 0
M  V30 901 H 83.8525 -3.46244 2.70207 0
M  V30 902 H 84.4585 -2.11369 3.69057 0
M  V30 903 N 82.7736 -1.49793 -0.48987 0
M  V30 904 C 84.0206 -1.59841 -1.24327 0
M  V30 905 C 84.3486 -0.290135 -1.92324 0
M  V30 906 O 83.6036 0.722749 -1.81865 0
M  V30 907 C 83.9026 -2.71488 -2.32441 0
M  V30 908 C 83.5686 -4.12614 -1.81826 0
M  V30 909 C 82.2306 -4.51017 -1.67742 0
M  V30 910 C 84.5826 -5.00892 -1.4407 0
M  V30 911 C 81.9106 -5.75459 -1.14297 0
M  V30 912 C 84.2626 -6.25863 -0.920742 0
M  V30 913 C 82.9266 -6.63086 -0.766383 0
M  V30 914 H 82.1966 -0.584899 -0.454944 0
M  V30 915 H 84.8436 -1.83663 -0.542215 0
M  V30 916 H 83.1486 -2.4168 -3.0838 0
M  V30 917 H 84.8456 -2.76469 -2.90458 0
M  V30 918 H 81.4356 -3.82307 -1.93751 0
M  V30 919 H 85.6196 -4.7187 -1.53794 0
M  V30 920 H 80.8756 -6.02989 -1.01068 0
M  V30 921 H 85.0496 -6.9364 -0.619448 0
M  V30 922 H 82.6766 -7.59393 -0.350083 0
M  V30 923 N 84.2517 0.741722 -1.39055 0
M  V30 924 C 85.4797 1.53098 -1.39171 0
M  V30 925 C 85.8947 1.88794 0.0155099 0
M  V30 926 O 85.2517 1.53626 0.985159 0
M  V30 927 C 85.3027 2.82274 -2.2584 0
M  V30 928 O 85.0237 2.48097 -3.61081 0
M  V30 929 C 86.5247 3.76343 -2.34266 0
M  V30 930 H 83.7447 0.473335 -0.4756 0
M  V30 931 H 86.2887 0.917045 -1.82785 0
M  V30 932 H 84.4437 3.40015 -1.85656 0
M  V30 933 H 84.8577 3.31029 -4.06842 0
M  V30 934 H 86.3317 4.63898 -2.9917 0
M  V30 935 H 86.8087 4.17619 -1.35982 0
M  V30 936 H 87.4147 3.24523 -2.74891 0
M  V30 937 N 85.7298 1.2412 0.971189 0
M  V30 938 C 87.0068 0.986867 1.6888 0
M  V30 939 C 87.3868 -0.491857 2.0529 0
M  V30 940 O 86.7348 -1.46531 1.75331 0
M  V30 941 C 86.9448 1.9063 2.92338 0
M  V30 942 C 88.2928 2.17515 3.64654 0
M  V30 943 O 89.3168 1.88254 3.02388 0
M  V30 944 O 88.1758 2.6719 4.7673 0
M  V30 945 H 85.2698 0.372944 0.738134 0
M  V30 946 H 87.8158 1.35203 1.02559 0
M  V30 947 H 86.5878 2.90552 2.62097 0
M  V30 948 H 86.2108 1.54408 3.66393 0
M  V30 949 N 87.2079 -1.17134 1.05439 0
M  V30 950 C 88.1179 -2.24878 0.668365 0
M  V30 951 C 89.1339 -1.71186 -0.311687 0
M  V30 952 O 90.3099 -2.00738 -0.163161 0
M  V30 953 C 87.3749 -3.46662 0.051648 0
M  V30 954 C 86.4359 -4.15429 1.08246 0
M  V30 955 C 85.6689 -5.31399 0.495082 0
M  V30 956 O 85.8919 -5.66153 -0.694743 0
M  V30 957 O 84.8259 -5.89187 1.23056 0
M  V30 958 H 88.6519 -2.60189 1.56637 0
M  V30 959 H 86.2369 -1.24482 0.826104 0
M  V30 960 H 88.1189 -4.20394 -0.290966 0
M  V30 961 H 86.7939 -3.13142 -0.819971 0
M  V30 962 H 85.7009 -3.43704 1.47711 0
M  V30 963 H 87.0339 -4.52982 1.92532 0
M  V30 964 N 88.686 -0.835752 -1.33615 0
M  V30 965 C 89.596 -0.269088 -2.33052 0
M  V30 966 C 90.612 0.603251 -1.63208 0
M  V30 967 O 91.788 0.508112 -1.94885 0
M  V30 968 C 88.853 0.549091 -3.42324 0
M  V30 969 C 87.914 -0.347156 -4.27894 0
M  V30 970 C 87.147 0.43207 -5.31948 0
M  V30 971 O 87.37 1.66409 -5.45586 0
M  V30 972 O 86.304 -0.192298 -6.01593 0
M  V30 973 H 90.13 -1.09243 -2.83372 0
M  V30 974 H 87.715 -0.598198 -1.36901 0
M  V30 975 H 89.597 1.01414 -4.09015 0
M  V30 976 H 88.272 1.34955 -2.94226 0
M  V30 977 H 87.179 -0.859979 -3.64081 0
M  V30 978 H 88.512 -1.1123 -4.79467 0
M  V30 979 N 90.1641 1.46063 -0.591896 0
M  V30 980 C 91.0971 2.27452 0.184617 0
M  V30 981 C 92.0751 1.36188 0.888351 0
M  V30 982 O 93.2591 1.65606 0.90039 0
M  V30 983 C 90.3861 3.14162 1.26571 0
M  V30 984 C 89.4321 4.21255 0.666814 0
M  V30 985 S 90.2651 5.33034 -0.513345 0
M  V30 986 C 91.4211 6.23311 0.56872 0
M  V30 987 H 91.6541 2.92963 -0.505939 0
M  V30 988 H 89.1871 1.49676 -0.379014 0
M  V30 989 H 91.1451 3.6468 1.88463 0
M  V30 990 H 89.8061 2.47946 1.92826 0
M  V30 991 H 88.9991 4.81788 1.47974 0
M  V30 992 H 88.6011 3.73797 0.123359 0
M  V30 993 H 90.8931 6.61758 1.45198 0
M  V30 994 H 91.8361 7.081 -7.23824e-05 0
M  V30 995 H 92.2441 5.57646 0.876996 0
M  V30 996 N 91.6422 0.330177 1.54103 0
M  V30 997 C 92.5752 -0.575477 2.20825 0
M  V30 998 C 93.5532 -1.11064 1.18758 0
M  V30 999 O 94.7372 -1.17341 1.47524 0
M  V30 1000 C 91.8642 -1.79032 2.87516 0
M  V30 1001 C 90.9102 -1.38581 4.03358 0
M  V30 1002 S 91.7432 -0.416911 5.33875 0
M  V30 1003 C 92.8992 -1.63889 6.04062 0
M  V30 1004 H 93.1322 -0.00872114 2.97299 0
M  V30 1005 H 90.6652 0.114254 1.53977 0
M  V30 1006 H 92.6232 -2.48734 3.2656 0
M  V30 1007 H 91.2842 -2.32827 2.10832 0
M  V30 1008 H 90.4772 -2.29123 4.48908 0
M  V30 1009 H 90.0792 -0.768419 3.66021 0
M  V30 1010 H 92.3712 -2.57536 6.26643 0
M  V30 1011 H 93.3142 -1.22542 6.97416 0
M  V30 1012 H 93.7222 -1.82887 5.34053 0
M  V30 1013 N 93.1203 -1.57491 0.0584922 0
M  V30 1014 C 94.3693 -1.92155 -0.613146 0
M  V30 1015 C 94.6823 -0.939334 -1.71569 0
M  V30 1016 O 95.8883 -1.17829 -2.44599 0
M  V30 1017 C 94.3443 -3.41303 -1.14195 0
M  V30 1018 C 93.9523 -4.47944 -0.0711265 0
M  V30 1019 C 95.6963 -3.84988 -1.78841 0
M  V30 1020 C 93.6033 -5.88212 -0.613225 0
M  V30 1021 H 92.5333 -0.717162 -0.232796 0
M  V30 1022 H 95.1843 -1.83049 0.12857 0
M  V30 1023 H 93.5663 -3.45437 -1.93621 0
M  V30 1024 H 94.7403 -4.55408 0.702836 0
M  V30 1025 H 93.0553 -4.13644 0.478313 0
M  V30 1026 H 95.6523 -4.87159 -2.20408 0
M  V30 1027 H 95.9953 -3.21632 -2.64308 0
M  V30 1028 H 96.5283 -3.83401 -1.06059 0
M  V30 1029 H 93.2673 -6.55183 0.203978 0
M  V30 1030 H 92.7873 -5.84294 -1.35501 0
M  V30 1031 H 94.4663 -6.37687 -1.09383 0
M  V30 1032 N 94.5984 0.214957 -1.56127 0
M  V30 1033 C 95.5454 1.26642 -1.92952 0
M  V30 1034 C 96.5154 1.46244 -0.78753 0
M  V30 1035 O 97.7004 1.59704 -1.04399 0
M  V30 1036 C 94.8404 2.6104 -2.25726 0
M  V30 1037 C 93.9534 2.49183 -3.52891 0
M  V30 1038 C 93.0884 3.76149 -3.7508 0
M  V30 1039 C 92.1274 3.59041 -4.95738 0
M  V30 1040 N 91.2644 4.77972 -5.14283 0
M  V30 1041 H 96.1044 0.945384 -2.82607 0
M  V30 1042 H 93.6414 0.455489 -1.3987 0
M  V30 1043 H 95.5994 3.39313 -2.42739 0
M  V30 1044 H 94.2294 2.91227 -1.39236 0
M  V30 1045 H 93.2814 1.6231 -3.44034 0
M  V30 1046 H 94.5934 2.32466 -4.41318 0
M  V30 1047 H 93.7474 4.62865 -3.92226 0
M  V30 1048 H 92.4864 3.95799 -2.84947 0
M  V30 1049 H 91.4914 2.7071 -4.78535 0
M  V30 1050 H 92.7164 3.40856 -5.87362 0
M  V30 1051 H 90.6624 4.97923 -4.27093 0
M  V30 1052 H 90.5794 4.64006 -5.96853 0
M  V30 1053 H 91.8474 5.66096 -5.35869 0
M  V30 1054 N 96.0765 1.50051 0.48192 0
M  V30 1055 C 97.3015 1.64508 1.26301 0
M  V30 1056 C 97.7265 0.323851 1.85291 0
M  V30 1057 O 97.0845 -0.710969 1.66778 0
M  V30 1058 C 97.1325 2.7305 2.35533 0
M  V30 1059 O 96.2365 2.3355 3.39895 0
M  V30 1060 H 95.5775 0.549978 0.372048 0
M  V30 1061 H 98.1075 1.9636 0.574786 0
M  V30 1062 H 98.1175 2.95799 2.8101 0
M  V30 1063 H 96.7925 3.68946 1.91967 0
M  V30 1064 H 95.3695 2.21205 3.00204 0
M  V30 1065 N 97.5546 -0.734337 1.39446 0
M  V30 1066 C 98.7796 -1.52866 1.40167 0
M  V30 1067 C 99.2046 -1.881 -0.00171513 0
M  V30 1068 O 98.5626 -1.51957 -0.988879 0
M  V30 1069 C 98.6106 -2.79235 2.28167 0
M  V30 1070 O 97.7146 -3.75185 1.71201 0
M  V30 1071 H 97.0556 -0.461618 0.477289 0
M  V30 1072 H 99.5856 -0.905949 1.8345 0
M  V30 1073 H 99.5956 -3.27963 2.42702 0
M  V30 1074 H 98.2706 -2.52923 3.30156 0
M  V30 1075 H 96.8476 -3.33958 1.65912 0
M  V30 1076 N 99.0327 -1.24633 -0.964593 0
M  V30 1077 C 100.279 -1.08949 -1.71049 0
M  V30 1078 C 100.612 0.370302 -1.90637 0
M  V30 1079 O 99.8867 1.27349 -1.47011 0
M  V30 1080 C 100.17 -1.83329 -3.0994 0
M  V30 1081 C 100.023 -3.37077 -2.97824 0
M  V30 1082 C 101.342 -1.60846 -4.09654 0
M  V30 1083 H 98.4607 -0.397178 -0.620821 0
M  V30 1084 H 101.103 -1.5334 -1.12191 0
M  V30 1085 H 99.2527 -1.45597 -3.60186 0
M  V30 1086 H 100.925 -3.84425 -2.5498 0
M  V30 1087 H 99.1677 -3.65298 -2.33965 0
M  V30 1088 H 99.8387 -3.84324 -3.96231 0
M  V30 1089 H 102.315 -1.93674 -3.68279 0
M  V30 1090 H 101.191 -2.1534 -5.04896 0
M  V30 1091 H 101.452 -0.547434 -4.38698 0
M  V30 1092 N 100.511 1.16574 -1.06058 0
M  V30 1093 C 101.458 2.20883 -0.669263 0
M  V30 1094 C 102.428 1.62729 0.332918 0
M  V30 1095 O 103.613 1.895 0.222346 0
M  V30 1096 C 100.753 3.45049 -0.0593572 0
M  V30 1097 C 99.8658 4.17458 -1.11143 0
M  V30 1098 C 99.0008 5.29135 -0.467916 0
M  V30 1099 C 98.0398 5.93343 -1.50369 0
M  V30 1100 N 97.1768 6.96516 -0.883706 0
M  V30 1101 H 102.017 2.53709 -1.5632 0
M  V30 1102 H 99.5538 1.24616 -0.781625 0
M  V30 1103 H 101.512 4.16033 0.311771 0
M  V30 1104 H 100.142 3.12781 0.797992 0
M  V30 1105 H 99.1938 3.45101 -1.60029 0
M  V30 1106 H 100.506 4.61307 -1.89731 0
M  V30 1107 H 99.6598 6.06684 -0.0436871 0
M  V30 1108 H 98.3988 4.86443 0.349864 0
M  V30 1109 H 97.4038 5.14517 -1.93784 0
M  V30 1110 H 98.6288 6.38114 -2.32352 0
M  V30 1111 H 96.5748 6.55943 -0.086595 0
M  V30 1112 H 96.4918 7.38723 -1.607 0
M  V30 1113 H 97.7598 7.77993 -0.484543 0
M  V30 1114 N 101.989 0.842826 1.3317 0
M  V30 1115 C 102.936 0.276885 2.29133 0
M  V30 1116 C 103.906 -0.609527 1.54512 0
M  V30 1117 O 105.091 -0.546955 1.82792 0
M  V30 1118 C 102.231 -0.538707 3.40869 0
M  V30 1119 C 101.344 0.372169 4.30394 0
M  V30 1120 C 100.479 -0.454908 5.29249 0
M  V30 1121 C 99.5179 0.45411 6.10413 0
M  V30 1122 N 98.6549 -0.335075 7.013 0
M  V30 1123 H 103.495 1.10052 2.76934 0
M  V30 1124 H 101.032 0.554161 1.36262 0
M  V30 1125 H 102.99 -1.02709 4.0436 0
M  V30 1126 H 101.62 -1.32727 2.9425 0
M  V30 1127 H 100.672 0.97888 3.6759 0
M  V30 1128 H 101.984 1.0703 4.87182 0
M  V30 1129 H 101.138 -1.00695 5.98285 0
M  V30 1130 H 99.8769 -1.18646 4.73048 0
M  V30 1131 H 98.8819 1.01813 5.40291 0
M  V30 1132 H 100.107 1.18409 6.68697 0
M  V30 1133 H 98.0529 -1.04994 6.47543 0
M  V30 1134 H 97.9699 0.304262 7.55387 0
M  V30 1135 H 99.2379 -0.869224 7.74638 0
M  V30 1136 N 103.467 -1.45747 0.599634 0
M  V30 1137 C 104.714 -2.02292 0.0917284 0
M  V30 1138 C 105.042 -1.46906 -1.27472 0
M  V30 1139 O 104.297 -0.630652 -1.8526 0
M  V30 1140 C 104.596 -3.57399 -0.00602758 0
M  V30 1141 C 104.262 -4.31902 1.29503 0
M  V30 1142 C 102.924 -4.51974 1.65144 0
M  V30 1143 C 105.276 -4.74551 2.15525 0
M  V30 1144 C 102.604 -5.11949 2.86574 0
M  V30 1145 C 104.956 -5.35868 3.36196 0
M  V30 1146 C 103.62 -5.54165 3.72099 0
M  V30 1147 H 102.89 -0.740239 0.0335658 0
M  V30 1148 H 105.537 -1.7491 0.779661 0
M  V30 1149 H 103.842 -3.84014 -0.777183 0
M  V30 1150 H 105.539 -3.98846 -0.415038 0
M  V30 1151 H 102.129 -4.16588 1.00761 0
M  V30 1152 H 106.313 -4.58784 1.8929 0
M  V30 1153 H 101.569 -5.24305 3.14507 0
M  V30 1154 H 105.743 -5.6787 4.03109 0
M  V30 1155 H 103.37 -6.00406 4.6628 0
M  V30 1156 N 104.945 -0.338344 -1.53925 0
M  V30 1157 C 105.908 0.508299 -2.23493 0
M  V30 1158 C 106.908 1.03175 -1.23335 0
M  V30 1159 O 108.098 0.921826 -1.47811 0
M  V30 1160 C 105.23 1.70754 -2.95052 0
M  V30 1161 H 106.423 -0.100058 -2.99733 0
M  V30 1162 H 103.976 -0.0896198 -1.56043 0
M  V30 1163 H 104.711 2.35474 -2.22986 0
M  V30 1164 H 104.496 1.33946 -3.68512 0
M  V30 1165 H 105.986 2.30818 -3.48013 0
M  V30 1166 N 106.423 1.57458 -0.0668435 0
M  V30 1167 C 107.355 2.09413 0.931601 0
M  V30 1168 C 108.368 1.02522 1.26464 0
M  V30 1169 O 109.557 1.30049 1.22269 0
M  V30 1170 C 106.657 2.53537 2.24882 0
M  V30 1171 C 105.83 3.83944 2.09537 0
M  V30 1172 C 104.889 4.14214 3.2452 0
M  V30 1173 O 103.915 4.83891 2.9973 0
M  V30 1174 N 105.117 3.67367 4.49469 0
M  V30 1175 H 107.882 2.95699 0.488048 0
M  V30 1176 H 105.443 1.61462 0.119009 0
M  V30 1177 H 107.435 2.70853 3.00701 0
M  V30 1178 H 106.005 1.72415 2.60753 0
M  V30 1179 H 105.225 3.76057 1.18215 0
M  V30 1180 H 106.513 4.69312 1.96529 0
M  V30 1181 H 105.911 3.11068 4.72497 0
M  V30 1182 H 104.468 3.89891 5.2233 0
M  V30 1183 N 107.901 -0.206675 1.56239 0
M  V30 1184 C 108.811 -1.27686 1.96808 0
M  V30 1185 C 109.827 -1.50455 0.874035 0
M  V30 1186 O 111.003 -1.63295 1.17884 0
M  V30 1187 C 108.068 -2.60358 2.28942 0
M  V30 1188 C 107.129 -2.45762 3.51994 0
M  V30 1189 C 106.362 -3.72108 3.82585 0
M  V30 1190 O 106.585 -4.75776 3.14631 0
M  V30 1191 O 105.519 -3.6833 4.76043 0
M  V30 1192 H 109.345 -0.962593 2.88041 0
M  V30 1193 H 106.93 -0.410746 1.43643 0
M  V30 1194 H 108.812 -3.38687 2.50737 0
M  V30 1195 H 107.487 -2.91435 1.4088 0
M  V30 1196 H 106.394 -1.65584 3.35459 0
M  V30 1197 H 107.727 -2.19621 4.40486 0
M  V30 1198 N 109.379 -1.50304 -0.473955 0
M  V30 1199 C 110.311 -1.65109 -1.58971 0
M  V30 1200 C 111.324 -0.532676 -1.53839 0
M  V30 1201 O 112.513 -0.805751 -1.59279 0
M  V30 1202 C 109.613 -1.61684 -2.97845 0
M  V30 1203 C 108.786 -2.8951 -3.27876 0
M  V30 1204 C 107.845 -2.78768 -4.4629 0
M  V30 1205 O 106.871 -3.52722 -4.46739 0
M  V30 1206 N 108.073 -1.9213 -5.47783 0
M  V30 1207 H 110.838 -2.61347 -1.46689 0
M  V30 1208 H 108.399 -1.47732 -0.662324 0
M  V30 1209 H 110.391 -1.52114 -3.75024 0
M  V30 1210 H 108.961 -0.731925 -3.03911 0
M  V30 1211 H 108.181 -3.13228 -2.39336 0
M  V30 1212 H 109.469 -3.74199 -3.4475 0
M  V30 1213 H 108.867 -1.31353 -5.50239 0
M  V30 1214 H 107.424 -1.88466 -6.23958 0
M  V30 1215 N 110.857 0.726932 -1.39834 0
M  V30 1216 C 112.106 1.48214 -1.36805 0
M  V30 1217 C 112.419 1.95576 0.0305291 0
M  V30 1218 O 113.625 2.7088 0.183417 0
M  V30 1219 C 112.081 2.67854 -2.40379 0
M  V30 1220 C 111.689 2.27408 -3.85992 0
M  V30 1221 C 113.433 3.45641 -2.46439 0
M  V30 1222 C 111.34 3.43819 -4.81189 0
M  V30 1223 H 110.27 0.556606 -0.508631 0
M  V30 1224 H 112.921 0.792216 -1.65518 0
M  V30 1225 H 111.303 3.3896 -2.04749 0
M  V30 1226 H 112.477 1.63795 -4.30706 0
M  V30 1227 H 110.792 1.62692 -3.83302 0
M  V30 1228 H 113.389 4.32244 -3.14753 0
M  V30 1229 H 113.732 3.88669 -1.49139 0
M  V30 1230 H 114.265 2.8157 -2.81004 0
M  V30 1231 H 111.004 3.05834 -5.79781 0
M  V30 1232 H 110.524 4.06385 -4.41148 0
M  V30 1233 H 112.203 4.10043 -5.00474 0
M  V30 1234 N 112.336 1.25143 0.95797 0
M  V30 1235 C 113.299 1.05321 2.03569 0
M  V30 1236 C 114.299 0.007152 1.60798 0
M  V30 1237 O 115.489 0.24903 1.72411 0
M  V30 1238 C 112.621 0.598394 3.35607 0
M  V30 1239 H 113.814 2.00986 2.22586 0
M  V30 1240 H 111.367 1.07502 1.13459 0
M  V30 1241 H 112.102 -0.361014 3.22284 0
M  V30 1242 H 111.887 1.35351 3.67998 0
M  V30 1243 H 113.377 0.48104 4.1482 0
M  V30 1244 N 113.814 -1.1601 1.06675 0
M  V30 1245 C 115.225 -1.68235 0.809565 0
M  V30 1246 C 115.576 -1.8454 -0.666303 0
M  V30 1247 O 114.701 -1.54374 -1.5165 0
M  V30 1248 C 115.296 -3.05585 1.46299 0
M  V30 1249 C 113.855 -3.54915 1.25349 0
M  V30 1250 C 113.002 -2.30804 1.53703 0
M  V30 1251 H 115.953 -1.00318 1.22971 0
M  V30 1252 H 115.974 -3.70174 0.880431 0
M  V30 1253 H 115.486 -2.93686 2.53713 0
M  V30 1254 H 113.587 -3.72067 0.199261 0
M  V30 1255 H 113.7 -4.36774 1.9689 0
M  V30 1256 H 112.064 -2.36007 0.957739 0
M  V30 1257 H 112.847 -2.21499 2.62284 0
M  V30 1258 N 115.292 -0.849877 -1.32721 0
M  V30 1259 C 116.222 -0.306308 -2.31482 0
M  V30 1260 C 117.203 0.591952 -1.59468 0
M  V30 1261 O 118.388 0.513199 -1.87296 0
M  V30 1262 C 115.518 0.510204 -3.43532 0
M  V30 1263 C 114.472 -0.293209 -4.26994 0
M  V30 1264 C 113.798 0.647743 -5.30762 0
M  V30 1265 C 115.098 -1.51634 -4.99804 0
M  V30 1266 H 116.792 -1.13153 -2.77195 0
M  V30 1267 H 114.338 -0.545553 -1.33266 0
M  V30 1268 H 116.291 0.900856 -4.11658 0
M  V30 1269 H 115.015 1.36874 -2.96535 0
M  V30 1270 H 113.674 -0.665555 -3.60508 0
M  V30 1271 H 113.322 1.50299 -4.8002 0
M  V30 1272 H 113.022 0.11422 -5.87489 0
M  V30 1273 H 114.546 1.03567 -6.01753 0
M  V30 1274 H 115.96 -1.19824 -5.60638 0
M  V30 1275 H 114.357 -1.98745 -5.66234 0
M  V30 1276 H 115.427 -2.28018 -4.27943 0
M  V30 1277 N 116.77 1.45427 -0.607355 0
M  V30 1278 C 118.016 2.0254 -0.102607 0
M  V30 1279 C 118.349 1.47478 1.26348 0
M  V30 1280 O 117.624 0.64939 1.83339 0
M  V30 1281 C 117.907 3.60044 -0.0634347 0
M  V30 1282 C 117.76 4.2544 -1.46017 0
M  V30 1283 C 119.079 4.35646 0.624514 0
M  V30 1284 H 116.198 0.73598 -0.0387607 0
M  V30 1285 H 118.84 1.73284 -0.779282 0
M  V30 1286 H 116.99 3.85101 0.512808 0
M  V30 1287 H 118.662 4.11569 -2.08347 0
M  V30 1288 H 116.905 3.83849 -2.02094 0
M  V30 1289 H 117.576 5.34342 -1.385 0
M  V30 1290 H 120.052 4.15882 0.134723 0
M  V30 1291 H 118.928 5.45376 0.621028 0
M  V30 1292 H 119.189 4.08501 1.69055 0
M  V30 1293 N 118.248 0.346503 1.53744 0
M  V30 1294 C 119.473 -0.253074 2.0585 0
M  V30 1295 C 119.898 -1.43202 1.21962 0
M  V30 1296 O 119.256 -1.79783 0.234073 0
M  V30 1297 C 119.304 -0.643193 3.54817 0
M  V30 1298 O 118.408 -1.74286 3.73762 0
M  V30 1299 H 117.749 -0.0413583 0.662711 0
M  V30 1300 H 120.279 0.501574 1.98357 0
M  V30 1301 H 120.289 -0.919526 3.97503 0
M  V30 1302 H 118.964 0.218966 4.15323 0
M  V30 1303 H 117.541 -1.46356 3.42979 0
M  V30 1304 N 119.726 -1.57421 0.075193 0
M  V30 1305 C 120.954 -1.97946 -0.602076 0
M  V30 1306 C 121.369 -0.953674 -1.62943 0
M  V30 1307 O 120.726 0.0592551 -1.82404 0
M  V30 1308 C 120.777 -3.38546 -1.26762 0
M  V30 1309 O 120.498 -4.37195 -0.281376 0
M  V30 1310 C 121.999 -3.93966 -2.03239 0
M  V30 1311 H 119.219 -0.650918 -0.162931 0
M  V30 1312 H 121.763 -2.03959 0.148601 0
M  V30 1313 H 119.918 -3.33609 -1.96936 0
M  V30 1314 H 120.332 -5.18975 -0.759267 0
M  V30 1315 H 121.806 -4.94555 -2.45193 0
M  V30 1316 H 122.283 -3.30693 -2.8903 0
M  V30 1317 H 122.889 -4.02315 -1.37924 0
M  V30 1318 N 121.204 0.198386 -1.56346 0
M  V30 1319 C 122.137 1.27381 -1.89339 0
M  V30 1320 C 123.115 1.44106 -0.753134 0
M  V30 1321 O 124.299 1.59549 -1.00381 0
M  V30 1322 C 121.426 2.6409 -2.12071 0
M  V30 1323 C 120.472 2.64253 -3.34772 0
M  V30 1324 S 121.305 2.16013 -4.89999 0
M  V30 1325 C 122.461 3.54553 -5.15794 0
M  V30 1326 H 122.694 0.992058 -2.8026 0
M  V30 1327 H 120.227 0.401726 -1.49082 0
M  V30 1328 H 122.185 3.42786 -2.2585 0
M  V30 1329 H 120.846 2.89478 -1.21906 0
M  V30 1330 H 120.039 3.64768 -3.47794 0
M  V30 1331 H 119.641 1.93637 -3.1997 0
M  V30 1332 H 121.933 4.50396 -5.06112 0
M  V30 1333 H 122.876 3.46428 -6.1757 0
M  V30 1334 H 123.284 3.49313 -4.43442 0
M  V30 1335 N 122.682 1.50554 0.465978 0
M  V30 1336 C 123.959 1.5232 1.22712 0
M  V30 1337 C 124.339 0.270807 2.09356 0
M  V30 1338 O 123.687 -0.745541 2.15995 0
M  V30 1339 C 123.897 2.82175 2.05374 0
M  V30 1340 C 125.245 3.33033 2.6339 0
M  V30 1341 O 126.269 2.83531 2.15612 0
M  V30 1342 O 125.128 4.19336 3.50456 0
M  V30 1343 H 122.222 0.611183 0.557122 0
M  V30 1344 H 124.768 1.62847 0.477381 0
M  V30 1345 H 123.54 3.64797 1.41558 0
M  V30 1346 H 123.163 2.74675 2.87471 0
M  V30 1347 N 124.16 -0.719506 1.40217 0
M  V30 1348 C 125.07 -1.86378 1.42479 0
M  V30 1349 C 126.086 -1.71073 0.317834 0
M  V30 1350 O 127.262 -1.93406 0.561794 0
M  V30 1351 C 124.327 -3.22136 1.28178 0
M  V30 1352 C 123.388 -3.49723 2.48982 0
M  V30 1353 C 122.621 -4.79004 2.35353 0
M  V30 1354 O 122.844 -5.53821 1.36524 0
M  V30 1355 O 121.778 -5.06839 3.2465 0
M  V30 1356 H 125.604 -1.87425 2.38968 0
M  V30 1357 H 123.189 -0.869405 1.21498 0
M  V30 1358 H 125.071 -4.03234 1.22395 0
M  V30 1359 H 123.746 -3.21825 0.347934 0
M  V30 1360 H 122.653 -2.6865 2.60342 0
M  V30 1361 H 123.986 -3.54828 3.41113 0
M  V30 1362 N 125.638 -1.25649 -0.95132 0
M  V30 1363 C 126.586 -1.06118 -2.06982 0
M  V30 1364 C 127.58 0.00889169 -1.69398 0
M  V30 1365 O 128.786 -0.146988 -1.79399 0
M  V30 1366 H 125.161 -0.326248 -0.677544 0
M  V30 1367 H 127.132 -2.00932 -2.2061 0
M  V30 1368 C 125.881 -0.700145 -3.40578 0
M  V30 1369 H 125.204 -1.51537 -3.69968 0
M  V30 1370 H 126.644 -0.603211 -4.19687 0
M  V30 1371 C 125.103 0.59403 -3.31622 0
M  V30 1372 O 125.633 1.63522 -3.66911 0
M  V30 1373 N 123.839 0.58089 -2.84735 0
M  V30 1374 H 123.386 -0.266783 -2.56215 0
M  V30 1375 H 123.344 1.44695 -2.79125 0
M  V30 1376 N 127.117 1.15442 -1.07289 0
M  V30 1377 C 128.342 1.90638 -0.816828 0
M  V30 1378 C 128.767 1.77445 0.624083 0
M  V30 1379 O 128.125 1.10671 1.43602 0
M  V30 1380 C 128.173 3.39008 -1.22906 0
M  V30 1381 O 127.277 4.10701 -0.373975 0
M  V30 1382 H 126.618 0.593555 -0.297638 0
M  V30 1383 H 129.148 1.46198 -1.43134 0
M  V30 1384 H 129.158 3.89801 -1.20497 0
M  V30 1385 H 127.833 3.47929 -2.27856 0
M  V30 1386 H 126.41 3.70046 -0.460499 0
M  V30 1387 N 128.595 0.856903 1.32268 0
M  V30 1388 C 129.542 0.301172 2.28827 0
M  V30 1389 C 130.512 -0.593104 1.5515 0
M  V30 1390 O 131.697 -0.527537 1.83362 0
M  V30 1391 C 128.837 -0.502523 3.41422 0
M  V30 1392 C 127.95 0.417797 4.29975 0
M  V30 1393 C 127.085 -0.398749 5.29701 0
M  V30 1394 C 126.124 0.518827 6.09897 0
M  V30 1395 N 125.261 -0.260674 7.01616 0
M  V30 1396 H 130.101 1.12983 2.75751 0
M  V30 1397 H 127.638 0.568582 1.35667 0
M  V30 1398 H 129.596 -0.984141 4.05426 0
M  V30 1399 H 128.226 -1.29599 2.95642 0
M  V30 1400 H 127.278 1.01781 3.66531 0
M  V30 1401 H 128.59 1.12191 4.86019 0
M  V30 1402 H 127.744 -0.943435 5.9932 0
M  V30 1403 H 126.483 -1.13622 4.7428 0
M  V30 1404 H 125.488 1.07538 5.39181 0
M  V30 1405 H 126.713 1.25495 6.67404 0
M  V30 1406 H 124.659 -0.981198 6.4862 0
M  V30 1407 H 124.576 0.384364 7.55022 0
M  V30 1408 H 125.844 -0.787014 7.75517 0
M  V30 1409 N 130.073 -1.45103 0.615059 0
M  V30 1410 C 131.006 -2.27717 -0.148408 0
M  V30 1411 C 131.984 -1.37584 -0.866572 0
M  V30 1412 O 133.168 -1.67017 -0.87393 0
M  V30 1413 C 130.295 -3.16136 -1.21557 0
M  V30 1414 C 129.341 -4.22263 -0.599712 0
M  V30 1415 S 130.174 -5.3215 0.598081 0
M  V30 1416 C 131.33 -6.24137 -0.469484 0
M  V30 1417 H 131.563 -2.92121 0.552483 0
M  V30 1418 H 129.096 -1.49054 0.402778 0
M  V30 1419 H 131.054 -3.67633 -1.82638 0
M  V30 1420 H 129.715 -2.50982 -1.88857 0
M  V30 1421 H 128.908 -4.84081 -1.4029 0
M  V30 1422 H 128.51 -3.73945 -0.063876 0
M  V30 1423 H 130.802 -6.63984 -1.34652 0
M  V30 1424 H 131.745 -7.0801 0.112725 0
M  V30 1425 H 132.153 -5.58971 -0.788168 0
M  V30 1426 N 131.551 -0.354651 -1.53558 0
M  V30 1427 C 132.461 0.50515 -2.29097 0
M  V30 1428 C 133.477 1.10223 -1.34636 0
M  V30 1429 O 134.653 1.11553 -1.67684 0
M  V30 1430 C 131.718 1.63479 -3.05738 0
M  V30 1431 C 130.779 1.06636 -4.15845 0
M  V30 1432 C 130.012 2.14217 -4.88822 0
M  V30 1433 O 130.235 3.35137 -4.61562 0
M  V30 1434 O 129.169 1.77887 -5.75013 0
M  V30 1435 H 132.995 -0.109237 -3.03503 0
M  V30 1436 H 130.58 -0.119357 -1.48922 0
M  V30 1437 H 132.462 2.2918 -3.5363 0
M  V30 1438 H 131.137 2.23478 -2.34178 0
M  V30 1439 H 130.044 0.373565 -3.7223 0
M  V30 1440 H 131.377 0.511081 -4.89539 0
M  V30 1441 N 133.029 1.57378 -0.0835403 0
M  V30 1442 C 133.976 2.13384 0.879539 0
M  V30 1443 C 134.946 1.04936 1.28754 0
M  V30 1444 O 136.131 1.32662 1.37133 0
M  V30 1445 C 133.271 2.70932 2.13752 0
M  V30 1446 C 132.384 3.93575 1.7811 0
M  V30 1447 C 131.519 4.39326 2.98607 0
M  V30 1448 C 130.558 5.54587 2.59037 0
M  V30 1449 N 129.695 5.95243 3.72331 0
M  V30 1450 H 134.535 2.9537 0.395076 0
M  V30 1451 H 132.072 1.45953 0.183349 0
M  V30 1452 H 134.03 3.02411 2.87408 0
M  V30 1453 H 132.66 1.91693 2.59718 0
M  V30 1454 H 131.712 3.68483 0.94469 0
M  V30 1455 H 133.024 4.77258 1.45005 0
M  V30 1456 H 132.178 4.72528 3.80529 0
M  V30 1457 H 130.917 3.5452 3.34913 0
M  V30 1458 H 129.922 5.21024 1.75539 0
M  V30 1459 H 131.147 6.41133 2.23887 0
M  V30 1460 H 129.093 5.13385 4.08378 0
M  V30 1461 H 129.01 6.73694 3.43034 0
M  V30 1462 H 130.278 6.33072 4.54797 0
M  V30 1463 N 134.507 -0.190092 1.56449 0
M  V30 1464 C 135.732 -0.929864 1.85387 0
M  V30 1465 C 136.157 -1.7585 0.667704 0
M  V30 1466 O 135.515 -1.77198 -0.383459 0
M  V30 1467 C 135.563 -1.79773 3.12593 0
M  V30 1468 O 134.667 -2.89713 2.93496 0
M  V30 1469 H 134.008 -0.261574 0.610307 0
M  V30 1470 H 136.538 -0.193896 2.03679 0
M  V30 1471 H 136.548 -2.20139 3.43515 0
M  V30 1472 H 135.223 -1.18892 3.98544 0
M  V30 1473 H 133.8 -2.53065 2.73884 0
M  V30 1474 N 135.985 -1.50799 -0.457987 0
M  V30 1475 C 137.231 -1.62683 -1.21088 0
M  V30 1476 C 137.564 -0.332268 -1.91336 0
M  V30 1477 O 136.839 0.667043 -1.82704 0
M  V30 1478 C 137.122 -2.81615 -2.24422 0
M  V30 1479 C 136.975 -4.20989 -1.58392 0
M  V30 1480 C 138.294 -2.96085 -3.2561 0
M  V30 1481 H 135.413 -0.592087 -0.438864 0
M  V30 1482 H 138.055 -1.83225 -0.50286 0
M  V30 1483 H 136.205 -2.64231 -2.84806 0
M  V30 1484 H 137.877 -4.49994 -1.01504 0
M  V30 1485 H 136.12 -4.24641 -0.886704 0
M  V30 1486 H 136.791 -5.0016 -2.33547 0
M  V30 1487 H 139.267 -3.12042 -2.75262 0
M  V30 1488 H 138.143 -3.80902 -3.95228 0
M  V30 1489 H 138.404 -2.0726 -3.90507 0
M  V30 1490 N 137.463 0.71206 -1.40597 0
M  V30 1491 C 138.712 1.46754 -1.38369 0
M  V30 1492 C 139.025 1.95598 0.0097839 0
M  V30 1493 O 140.231 2.71059 0.154677 0
M  V30 1494 C 138.687 2.65289 -2.43207 0
M  V30 1495 C 138.295 2.23301 -3.88382 0
M  V30 1496 C 140.039 3.43008 -2.50091 0
M  V30 1497 C 137.946 3.38696 -4.84808 0
M  V30 1498 H 136.876 0.55118 -0.514506 0
M  V30 1499 H 139.527 0.774616 -1.66349 0
M  V30 1500 H 137.909 3.36769 -2.08332 0
M  V30 1501 H 139.083 1.59218 -4.32419 0
M  V30 1502 H 137.398 1.58618 -3.85006 0
M  V30 1503 H 139.995 4.28881 -3.1932 0
M  V30 1504 H 140.338 3.87065 -1.53253 0
M  V30 1505 H 140.871 2.78574 -2.83974 0
M  V30 1506 H 137.61 2.99668 -5.82992 0
M  V30 1507 H 137.13 4.01683 -4.45433 0
M  V30 1508 H 138.809 4.04712 -5.04794 0
M  V30 1509 N 138.941 1.26152 0.944643 0
M  V30 1510 C 139.873 1.03199 2.04652 0
M  V30 1511 C 140.886 -0.00642356 1.62799 0
M  V30 1512 O 142.075 0.233263 1.76969 0
M  V30 1513 C 139.175 0.540111 3.34568 0
M  V30 1514 C 138.348 1.64697 4.05208 0
M  V30 1515 C 137.407 1.15374 5.13396 0
M  V30 1516 O 136.433 1.85013 5.38293 0
M  V30 1517 N 137.635 0.00031529 5.805 0
M  V30 1518 H 140.4 1.9808 2.2491 0
M  V30 1519 H 137.961 1.17491 1.11389 0
M  V30 1520 H 139.953 0.194401 4.04233 0
M  V30 1521 H 138.523 -0.315021 3.11009 0
M  V30 1522 H 137.743 2.16379 3.29506 0
M  V30 1523 H 139.031 2.3903 4.49157 0
M  V30 1524 H 138.429 -0.581336 5.62705 0
M  V30 1525 H 136.986 -0.286346 6.51171 0
M  V30 1526 N 140.419 -1.14872 1.07899 0
M  V30 1527 C 141.667 -1.85422 0.803941 0
M  V30 1528 C 141.988 -1.83051 -0.67211 0
M  V30 1529 O 141.258 -1.27532 -1.48703 0
M  V30 1530 H 139.838 -0.686537 0.294408 0
M  V30 1531 H 142.5 -1.39226 1.3639 0
M  V30 1532 H 141.596 -2.90399 1.14346 0
M  V30 1533 N 141.898 -0.863906 -1.31812 0
M  V30 1534 C 142.828 -0.330843 -2.31144 0
M  V30 1535 C 143.809 0.575005 -1.60087 0
M  V30 1536 O 144.994 0.493304 -1.8783 0
M  V30 1537 C 142.124 0.47374 -3.44054 0
M  V30 1538 C 141.078 -0.338481 -4.26659 0
M  V30 1539 C 140.404 0.591412 -5.31419 0
M  V30 1540 C 141.704 -1.56926 -4.98168 0
M  V30 1541 H 143.398 -1.16086 -2.75979 0
M  V30 1542 H 140.944 -0.559657 -1.32679 0
M  V30 1543 H 142.897 0.857143 -4.12591 0
M  V30 1544 H 141.621 1.33721 -2.9797 0
M  V30 1545 H 140.28 -0.703754 -3.59782 0
M  V30 1546 H 139.928 1.45199 -4.81587 0
M  V30 1547 H 139.628 0.0519022 -5.87577 0
M  V30 1548 H 141.152 0.97179 -6.02817 0
M  V30 1549 H 142.566 -1.25764 -5.59336 0
M  V30 1550 H 140.963 -2.04739 -5.64094 0
M  V30 1551 H 142.033 -2.32544 -4.25501 0
M  V30 1552 N 143.376 1.44774 -0.622745 0
M  V30 1553 C 144.623 2.02121 -0.1239 0
M  V30 1554 C 144.951 1.48915 1.25118 0
M  V30 1555 O 144.206 0.660045 1.84233 0
M  V30 1556 C 144.505 3.57364 -0.0508323 0
M  V30 1557 C 144.171 4.29787 -1.36358 0
M  V30 1558 C 142.833 4.4929 -1.72314 0
M  V30 1559 C 145.185 4.71062 -2.23048 0
M  V30 1560 C 142.513 5.07325 -2.94682 0
M  V30 1561 C 144.865 5.30452 -3.44679 0
M  V30 1562 C 143.529 5.48175 -3.80868 0
M  V30 1563 H 142.799 0.739612 -0.0453381 0
M  V30 1564 H 145.446 1.73648 -0.807389 0
M  V30 1565 H 143.751 3.85202 0.715991 0
M  V30 1566 H 145.448 3.99456 0.351533 0
M  V30 1567 H 142.038 4.14932 -1.07375 0
M  V30 1568 H 146.222 4.55715 -1.96565 0
M  V30 1569 H 141.478 5.19235 -3.22809 0
M  V30 1570 H 145.652 5.61385 -4.12092 0
M  V30 1571 H 143.279 5.92912 -4.75773 0
M  V30 1572 N 144.854 0.36279 1.53368 0
M  V30 1573 C 145.786 -0.519668 2.23231 0
M  V30 1574 C 146.799 -1.04844 1.24546 0
M  V30 1575 O 147.988 -0.955296 1.50786 0
M  V30 1576 C 145.088 -1.72995 2.9142 0
M  V30 1577 C 144.261 -1.33316 4.16588 0
M  V30 1578 C 143.32 -2.40521 4.68013 0
M  V30 1579 O 142.346 -2.03027 5.3176 0
M  V30 1580 N 143.548 -3.72065 4.45587 0
M  V30 1581 H 146.313 0.078751 2.99597 0
M  V30 1582 H 143.874 0.187833 1.60807 0
M  V30 1583 H 145.866 -2.44184 3.22733 0
M  V30 1584 H 144.436 -2.2353 2.18525 0
M  V30 1585 H 143.656 -0.451236 3.91609 0
M  V30 1586 H 144.944 -1.04432 4.97967 0
M  V30 1587 H 144.342 -4.05304 3.94646 0
M  V30 1588 H 142.899 -4.39366 4.81457 0
M  V30 1589 N 146.332 -1.57332 0.0918853 0
M  V30 1590 C 147.264 -2.10869 -0.898168 0
M  V30 1591 C 148.277 -1.04521 -1.24817 0
M  V30 1592 O 149.466 -1.31977 -1.20184 0
M  V30 1593 C 146.566 -2.57083 -2.2082 0
M  V30 1594 C 145.739 -3.87229 -2.03402 0
M  V30 1595 C 144.798 -4.19324 -3.17889 0
M  V30 1596 O 143.824 -4.88598 -2.91994 0
M  V30 1597 N 145.026 -3.74471 -4.43567 0
M  V30 1598 H 147.791 -2.96439 -0.440943 0
M  V30 1599 H 145.352 -1.61631 -0.0933064 0
M  V30 1600 H 147.344 -2.75602 -2.96354 0
M  V30 1601 H 145.914 -1.76541 -2.57977 0
M  V30 1602 H 145.134 -3.7789 -1.12218 0
M  V30 1603 H 146.422 -4.72379 -1.89038 0
M  V30 1604 H 145.82 -3.18546 -4.67488 0
M  V30 1605 H 144.377 -3.98151 -5.16061 0
M  V30 1606 N 147.81 0.181792 -1.56548 0
M  V30 1607 C 149.058 0.89832 -1.81038 0
M  V30 1608 C 149.379 1.83232 -0.667164 0
M  V30 1609 O 148.649 1.93372 0.313673 0
M  V30 1610 H 147.229 0.33471 -0.667816 0
M  V30 1611 H 149.891 0.184116 -1.94028 0
M  V30 1612 H 148.987 1.4815 -2.74696 0
M  V30 1613 N 149.288 1.51039 0.449983 0
M  V30 1614 C 150.218 1.74379 1.55288 0
M  V30 1615 C 151.199 0.593236 1.5942 0
M  V30 1616 O 152.384 0.834625 1.7535 0
M  V30 1617 C 149.514 1.85728 2.93466 0
M  V30 1618 C 148.468 3.01078 3.04197 0
M  V30 1619 C 147.794 2.97595 4.44231 0
M  V30 1620 C 149.094 4.41254 2.7945 0
M  V30 1621 H 150.788 2.66725 1.36008 0
M  V30 1622 H 148.334 1.2835 0.652864 0
M  V30 1623 H 150.287 2.0064 3.70569 0
M  V30 1624 H 149.011 0.900207 3.13949 0
M  V30 1625 H 147.67 2.85851 2.29531 0
M  V30 1626 H 147.318 1.99691 4.61663 0
M  V30 1627 H 147.018 3.75046 4.52343 0
M  V30 1628 H 148.542 3.14583 5.23326 0
M  V30 1629 H 149.956 4.56897 3.46292 0
M  V30 1630 H 148.353 5.20315 2.98985 0
M  V30 1631 H 149.423 4.52164 1.75144 0
M  V30 1632 N 150.766 -0.704594 1.40972 0
M  V30 1633 C 151.699 -1.82861 1.36518 0
M  V30 1634 C 152.677 -1.6091 0.23382 0
M  V30 1635 O 153.861 -1.83778 0.419271 0
M  V30 1636 C 150.988 -3.1939 1.12729 0
M  V30 1637 C 150.034 -3.60148 2.28463 0
M  V30 1638 S 150.867 -3.65994 3.90907 0
M  V30 1639 C 152.023 -5.05264 3.69403 0
M  V30 1640 H 152.256 -1.86361 2.3164 0
M  V30 1641 H 149.789 -0.872439 1.27389 0
M  V30 1642 H 151.747 -3.98211 0.996893 0
M  V30 1643 H 150.408 -3.1351 0.192427 0
M  V30 1644 H 149.601 -4.59309 2.07489 0
M  V30 1645 H 149.203 -2.88612 2.37863 0
M  V30 1646 H 151.495 -5.92504 3.28551 0
M  V30 1647 H 152.438 -5.31278 4.68134 0
M  V30 1648 H 152.846 -4.76377 3.02862 0
M  V30 1649 N 152.244 -1.26651 -0.937939 0
M  V30 1650 C 153.492 -1.12165 -1.68118 0
M  V30 1651 C 153.813 0.334983 -1.92101 0
M  V30 1652 O 153.083 1.23583 -1.52 0
M  V30 1653 H 151.663 -0.412093 -0.623048 0
M  V30 1654 H 154.325 -1.59027 -1.12678 0
M  V30 1655 H 153.421 -1.64289 -2.6536 0
M  V30 1656 N 153.722 1.14298 -1.08507 0
M  V30 1657 C 154.971 1.84708 -0.810305 0
M  V30 1658 C 155.284 1.83903 0.666271 0
M  V30 1659 O 156.49 2.50112 1.05624 0
M  V30 1660 C 154.946 3.31572 -1.39957 0
M  V30 1661 C 154.554 3.40791 -2.90801 0
M  V30 1662 C 156.298 4.07087 -1.20334 0
M  V30 1663 C 154.205 4.81872 -3.4286 0
M  V30 1664 H 153.135 0.691985 -0.299454 0
M  V30 1665 H 155.786 1.28841 -1.30661 0
M  V30 1666 H 154.168 3.87183 -0.830976 0
M  V30 1667 H 155.342 2.95225 -3.53806 0
M  V30 1668 H 153.657 2.78732 -3.0935 0
M  V30 1669 H 156.254 5.11225 -1.56693 0
M  V30 1670 H 156.597 4.16054 -0.143237 0
M  V30 1671 H 157.13 3.57779 -1.73893 0
M  V30 1672 H 153.869 4.78094 -4.48449 0
M  V30 1673 H 153.389 5.27972 -2.84615 0
M  V30 1674 H 155.068 5.50765 -3.39509 0
M  V30 1675 N 155.201 0.870884 1.31352 0
M  V30 1676 C 156.111 0.330783 2.32256 0
M  V30 1677 C 157.127 -0.559767 1.6475 0
M  V30 1678 O 158.303 -0.456263 1.96164 0
M  V30 1679 C 155.368 -0.458137 3.4366 0
M  V30 1680 C 154.429 0.460482 4.26823 0
M  V30 1681 C 153.662 -0.290881 5.32907 0
M  V30 1682 O 153.885 -1.51885 5.49806 0
M  V30 1683 O 152.819 0.351732 6.00871 0
M  V30 1684 H 156.645 1.16718 2.80376 0
M  V30 1685 H 154.23 0.634285 1.35267 0
M  V30 1686 H 156.112 -0.905343 4.1156 0
M  V30 1687 H 154.787 -1.27106 2.97701 0
M  V30 1688 H 153.694 0.956207 3.61673 0
M  V30 1689 H 155.027 1.23903 4.7635 0
M  V30 1690 N 156.679 -1.44442 0.630414 0
M  V30 1691 C 157.925 -2.02351 0.134816 0
M  V30 1692 C 158.258 -1.4947 -1.23986 0
M  V30 1693 O 157.533 -0.678475 -1.82283 0
M  V30 1694 C 157.816 -3.59898 0.120707 0
M  V30 1695 C 157.669 -4.23063 1.52767 0
M  V30 1696 C 158.988 -4.36585 -0.555127 0
M  V30 1697 H 156.107 -0.73527 0.0504646 0
M  V30 1698 H 158.749 -1.72022 0.806751 0
M  V30 1699 H 156.899 -3.85868 -0.451477 0
M  V30 1700 H 158.571 -4.08202 2.14869 0
M  V30 1701 H 156.814 -3.80586 2.08175 0
M  V30 1702 H 157.485 -5.32071 1.46984 0
M  V30 1703 H 159.961 -4.16044 -0.0685429 0
M  V30 1704 H 158.837 -5.46294 -0.534185 0
M  V30 1705 H 159.098 -4.11138 -1.62535 0
M  V30 1706 N 158.157 -0.370918 -1.53173 0
M  V30 1707 C 159.434 0.273754 -1.93675 0
M  V30 1708 C 159.814 1.65938 -1.3049 0
M  V30 1709 O 159.162 2.23698 -0.465999 0
M  V30 1710 C 159.372 0.318602 -3.47543 0
M  V30 1711 C 160.72 0.556392 -4.20939 0
M  V30 1712 O 161.744 0.399587 -3.53952 0
M  V30 1713 O 160.603 0.862133 -5.39657 0
M  V30 1714 H 157.697 0.165448 -0.810281 0
M  V30 1715 H 160.243 -0.42409 -1.64315 0
M  V30 1716 H 159.015 -0.652687 -3.85818 0
M  V30 1717 H 158.638 1.06212 -3.83151 0
M  V30 1718 N 159.635 1.57281 -0.100228 0
M  V30 1719 C 161.046 1.81725 0.428107 0
M  V30 1720 C 161.397 1.01619 1.67833 0
M  V30 1721 O 160.522 0.247098 2.14985 0
M  V30 1722 C 161.117 3.29617 0.78347 0
M  V30 1723 C 159.676 3.54808 1.25653 0
M  V30 1724 C 158.823 2.76118 0.255752 0
M  V30 1725 H 161.774 1.55324 -0.325608 0
M  V30 1726 H 161.795 3.4322 1.64256 0
M  V30 1727 H 161.307 3.87893 -0.12665 0
M  V30 1728 H 159.408 3.01868 2.18418 0
M  V30 1729 H 159.521 4.63443 1.21482 0
M  V30 1730 H 157.885 2.43745 0.738956 0
M  V30 1731 H 158.668 3.37145 -0.647136 0
M  V30 1732 N 161.113 -0.173488 1.56642 0
M  V30 1733 C 162.023 -1.23482 1.99473 0
M  V30 1734 C 163.039 -1.48567 0.905752 0
M  V30 1735 O 164.215 -1.60758 1.21321 0
M  V30 1736 C 161.28 -2.55444 2.34413 0
M  V30 1737 C 160.341 -2.38241 3.57127 0
M  V30 1738 C 159.574 -3.63909 3.90392 0
M  V30 1739 O 159.797 -4.68996 3.24653 0
M  V30 1740 O 158.731 -3.58149 4.83749 0
M  V30 1741 H 162.557 -0.901279 2.90018 0
M  V30 1742 H 160.142 -0.380185 1.44482 0
M  V30 1743 H 162.024 -3.33292 2.57865 0
M  V30 1744 H 160.699 -2.88382 1.4703 0
M  V30 1745 H 159.606 -1.58431 3.38896 0
M  V30 1746 H 160.939 -2.10228 4.45045 0
M  V30 1747 N 162.591 -1.51276 -0.441967 0
M  V30 1748 C 163.821 -1.67273 -1.21257 0
M  V30 1749 C 164.229 -0.367624 -1.85594 0
M  V30 1750 O 163.572 0.663349 -1.71305 0
M  V30 1751 C 163.634 -2.72807 -2.34129 0
M  V30 1752 C 163.298 -4.1554 -1.90198 0
M  V30 1753 C 164.295 -5.00471 -1.40801 0
M  V30 1754 C 161.98 -4.61616 -1.9803 0
M  V30 1755 C 163.974 -6.29536 -0.998174 0
M  V30 1756 C 161.661 -5.90679 -1.56658 0
M  V30 1757 C 162.659 -6.74466 -1.07633 0
M  V30 1758 O 162.347 -8.01116 -0.668459 0
M  V30 1759 H 162.079 -0.564614 -0.371734 0
M  V30 1760 H 164.633 -1.9843 -0.530521 0
M  V30 1761 H 162.863 -2.36954 -3.05597 0
M  V30 1762 H 164.552 -2.77729 -2.96009 0
M  V30 1763 H 165.318 -4.66079 -1.34148 0
M  V30 1764 H 161.197 -3.96526 -2.35135 0
M  V30 1765 H 164.741 -6.94885 -0.61482 0
M  V30 1766 H 160.638 -6.24586 -1.62979 0
M  V30 1767 H 161.406 -8.14633 -0.794722 0
M  V30 1768 N 164.069 0.697108 -1.41344 0
M  V30 1769 C 165.317 1.45426 -1.40341 0
M  V30 1770 C 165.638 1.94996 -0.0128787 0
M  V30 1771 O 164.908 1.71599 0.945027 0
M  V30 1772 H 163.488 0.539594 -0.516573 0
M  V30 1773 H 166.15 0.825201 -1.76569 0
M  V30 1774 H 165.246 2.31817 -2.08967 0
M  V30 1775 N 165.547 1.27147 0.931209 0
M  V30 1776 C 166.795 1.13055 1.6752 0
M  V30 1777 C 167.116 -0.324791 1.92276 0
M  V30 1778 O 166.386 -1.22775 1.52654 0
M  V30 1779 H 164.966 0.415391 0.620854 0
M  V30 1780 H 167.628 1.59623 1.11833 0
M  V30 1781 H 166.724 1.65694 2.64485 0
M  V30 1782 N 167.025 -1.13721 1.09112 0
M  V30 1783 C 168.253 -1.88773 0.846899 0
M  V30 1784 C 168.668 -1.7896 -0.601572 0
M  V30 1785 O 168.025 -1.15394 -1.41388 0
M  V30 1786 C 168.076 -3.3849 1.26913 0
M  V30 1787 O 167.797 -3.48043 2.66079 0
M  V30 1788 C 169.298 -4.30518 1.05682 0
M  V30 1789 H 166.518 -0.59772 0.304914 0
M  V30 1790 H 169.062 -1.43977 1.45227 0
M  V30 1791 H 167.217 -3.80881 0.707723 0
M  V30 1792 H 167.631 -4.4109 2.83795 0
M  V30 1793 H 169.105 -5.3391 1.40156 0
M  V30 1794 H 169.582 -4.392 -0.00563416 0
M  V30 1795 H 170.188 -3.93893 1.60402 0
M  V30 1796 N 168.503 -0.877838 -1.30888 0
M  V30 1797 C 169.751 -0.491723 -1.96027 0
M  V30 1798 C 170.072 0.960827 -1.69685 0
M  V30 1799 O 169.342 1.67462 -1.01654 0
M  V30 1800 H 167.922 -0.17885 -0.725273 0
M  V30 1801 H 170.584 -1.11935 -1.59551 0
M  V30 1802 H 169.68 -0.656016 -3.05128 0
M  V30 1803 N 169.982 1.44106 -0.638065 0
M  V30 1804 C 170.945 2.29138 0.0531013 0
M  V30 1805 C 171.945 1.41409 0.765506 0
M  V30 1806 O 173.135 1.63206 0.609046 0
M  V30 1807 C 170.267 3.23144 1.08584 0
M  V30 1808 H 171.46 2.91739 -0.694883 0
M  V30 1809 H 169.013 1.51134 -0.398538 0
M  V30 1810 H 169.748 2.65408 1.86357 0
M  V30 1811 H 169.533 3.87804 0.578852 0
M  V30 1812 H 171.023 3.87004 1.56899 0
M  V30 1813 N 171.46 0.379036 1.52974 0
M  V30 1814 C 172.685 -0.209353 2.06341 0
M  V30 1815 C 173.11 -1.40583 1.24972 0
M  V30 1816 O 172.468 -1.79246 0.272155 0
M  V30 1817 C 172.516 -0.567786 3.56102 0
M  V30 1818 O 171.62 -1.66318 3.77375 0
M  V30 1819 H 170.961 -0.0272919 0.663439 0
M  V30 1820 H 173.491 0.543536 1.97248 0
M  V30 1821 H 173.501 -0.835003 3.99364 0
M  V30 1822 H 172.176 0.307013 4.14765 0
M  V30 1823 H 170.753 -1.39048 3.46006 0
M  V30 1824 N 172.938 -1.57226 0.108567 0
M  V30 1825 C 174.185 -1.94833 -0.551943 0
M  V30 1826 C 174.513 -0.991204 -1.67348 0
M  V30 1827 O 173.768 -0.0131878 -1.95696 0
M  V30 1828 C 174.067 -3.38911 -1.13463 0
M  V30 1829 C 173.733 -4.50696 -0.135509 0
M  V30 1830 C 172.395 -4.80998 0.139252 0
M  V30 1831 C 174.747 -5.18333 0.545957 0
M  V30 1832 C 172.075 -5.76259 1.10194 0
M  V30 1833 C 174.427 -6.14627 1.49721 0
M  V30 1834 C 173.091 -6.43327 1.78006 0
M  V30 1835 H 172.361 -0.712944 -0.20197 0
M  V30 1836 H 175.008 -1.90582 0.18726 0
M  V30 1837 H 173.313 -3.39805 -1.95037 0
M  V30 1838 H 175.01 -3.65317 -1.65362 0
M  V30 1839 H 171.6 -4.27087 -0.359846 0
M  V30 1840 H 175.784 -4.95087 0.346842 0
M  V30 1841 H 171.04 -5.96804 1.32795 0
M  V30 1842 H 175.214 -6.66126 2.03099 0
M  V30 1843 H 172.841 -7.1695 2.52759 0
M  V30 1844 N 174.416 0.165178 -1.56732 0
M  V30 1845 C 175.346 1.20651 -1.99914 0
M  V30 1846 C 176.327 1.45827 -0.875705 0
M  V30 1847 O 177.512 1.57057 -1.14223 0
M  V30 1848 C 174.642 2.54401 -2.36427 0
M  V30 1849 C 173.596 2.43782 -3.51787 0
M  V30 1850 C 172.922 3.82078 -3.7406 0
M  V30 1851 C 174.222 1.93732 -4.85041 0
M  V30 1852 H 175.916 0.847534 -2.87154 0
M  V30 1853 H 173.462 0.40625 -1.38151 0
M  V30 1854 H 175.415 3.27458 -2.65234 0
M  V30 1855 H 174.139 2.92098 -1.46103 0
M  V30 1856 H 172.798 1.73178 -3.23117 0
M  V30 1857 H 172.446 4.17179 -2.81017 0
M  V30 1858 H 172.146 3.7584 -4.51684 0
M  V30 1859 H 173.67 4.56712 -4.05274 0
M  V30 1860 H 175.084 2.56569 -5.12684 0
M  V30 1861 H 173.481 1.98428 -5.66345 0
M  V30 1862 H 174.551 0.891962 -4.76626 0
M  V30 1863 N 175.894 1.51508 0.433938 0
M  V30 1864 C 177.119 1.68443 1.21003 0
M  V30 1865 C 177.544 0.382636 1.84167 0
M  V30 1866 O 176.902 -0.65755 1.68956 0
M  V30 1867 C 176.95 2.80405 2.26727 0
M  V30 1868 O 176.054 2.44245 3.32292 0
M  V30 1869 H 175.395 0.561536 0.354363 0
M  V30 1870 H 177.925 1.9809 0.512024 0
M  V30 1871 H 177.935 3.0459 2.71457 0
M  V30 1872 H 176.61 3.74867 1.80132 0
M  V30 1873 H 175.187 2.30644 2.93015 0
M  V30 1874 N 177.372 -0.689602 1.41712 0
M  V30 1875 C 178.6 -1.47827 1.44758 0
M  V30 1876 C 179.015 -1.88721 0.0545703 0
M  V30 1877 O 178.372 -1.57176 -0.927463 0
M  V30 1878 C 178.423 -2.73698 2.3616 0
M  V30 1879 O 178.144 -2.34524 3.7004 0
M  V30 1880 C 179.645 -3.67389 2.48072 0
M  V30 1881 H 176.865 -0.455357 0.49284 0
M  V30 1882 H 179.409 -0.848574 1.86063 0
M  V30 1883 H 177.564 -3.32891 1.98148 0
M  V30 1884 H 177.978 -3.15701 4.18847 0
M  V30 1885 H 179.452 -4.52475 3.16181 0
M  V30 1886 H 179.929 -4.12284 1.51388 0
M  V30 1887 H 180.535 -3.14097 2.86746 0
M  V30 1888 N 178.85 -1.27639 -0.924453 0
M  V30 1889 C 180.096 -1.14336 -1.67497 0
M  V30 1890 C 180.429 0.309465 -1.91718 0
M  V30 1891 O 179.704 1.22608 -1.50989 0
M  V30 1892 C 179.987 -1.93096 -3.0395 0
M  V30 1893 C 179.84 -3.46381 -2.8695 0
M  V30 1894 C 181.159 -1.73798 -4.0433 0
M  V30 1895 H 178.278 -0.416728 -0.607871 0
M  V30 1896 H 180.92 -1.56832 -1.07256 0
M  V30 1897 H 179.07 -1.56982 -3.55372 0
M  V30 1898 H 180.742 -3.92343 -2.42621 0
M  V30 1899 H 178.985 -3.72557 -2.22225 0
M  V30 1900 H 179.656 -3.96735 -3.83804 0
M  V30 1901 H 182.132 -2.05293 -3.61931 0
M  V30 1902 H 181.008 -2.31294 -4.97789 0
M  V30 1903 H 181.269 -0.686725 -4.36734 0
M  V30 1904 N 180.328 1.1314 -1.09713 0
M  V30 1905 C 181.258 2.20748 -0.761102 0
M  V30 1906 C 182.239 1.68061 0.262566 0
M  V30 1907 O 183.424 1.93765 0.129977 0
M  V30 1908 C 180.554 3.46812 -0.184054 0
M  V30 1909 C 179.508 4.12606 -1.13757 0
M  V30 1910 C 178.834 5.33031 -0.422083 0
M  V30 1911 C 180.134 4.59603 -2.48118 0
M  V30 1912 H 181.828 2.49113 -1.66082 0
M  V30 1913 H 179.374 1.19734 -0.799987 0
M  V30 1914 H 181.327 4.21353 0.0631215 0
M  V30 1915 H 180.051 3.17851 0.750868 0
M  V30 1916 H 178.71 3.40036 -1.37007 0
M  V30 1917 H 178.358 5.00335 0.517072 0
M  V30 1918 H 178.058 5.77999 -1.05788 0
M  V30 1919 H 179.582 6.10325 -0.183277 0
M  V30 1920 H 180.996 5.25552 -2.29059 0
M  V30 1921 H 179.393 5.15321 -3.07514 0
M  V30 1922 H 180.463 3.73971 -3.08665 0
M  V30 1923 N 181.806 0.884767 1.30421 0
M  V30 1924 C 183.052 0.503851 1.96441 0
M  V30 1925 C 183.385 -0.944518 1.69684 0
M  V30 1926 O 182.66 -1.66737 1.00145 0
M  V30 1927 C 182.943 0.779085 3.51571 0
M  V30 1928 C 182.796 2.27807 3.87846 0
M  V30 1929 C 184.115 0.255452 4.39358 0
M  V30 1930 H 181.234 0.184533 0.713524 0
M  V30 1931 H 183.876 1.10872 1.54297 0
M  V30 1932 H 182.026 0.264274 3.876 0
M  V30 1933 H 183.698 2.86127 3.61841 0
M  V30 1934 H 181.941 2.74479 3.35922 0
M  V30 1935 H 182.612 2.42125 4.96064 0
M  V30 1936 H 185.088 0.696079 4.10236 0
M  V30 1937 H 183.964 0.477361 5.4682 0
M  V30 1938 H 184.225 -0.843293 4.33983 0
M  V30 1939 N 183.284 -1.43765 0.645699 0
M  V30 1940 C 184.533 -2.01116 0.153412 0
M  V30 1941 C 184.846 -1.51493 -1.23731 0
M  V30 1942 O 186.052 -2.01067 -1.8244 0
M  V30 1943 C 184.508 -3.59206 0.223473 0
M  V30 1944 C 184.116 -4.17823 1.61642 0
M  V30 1945 C 185.86 -4.23972 -0.211597 0
M  V30 1946 C 183.767 -5.68183 1.64081 0
M  V30 1947 H 182.697 -0.752093 0.0535891 0
M  V30 1948 H 185.348 -1.6482 0.806633 0
M  V30 1949 H 183.73 -3.92867 -0.497118 0
M  V30 1950 H 184.904 -3.95674 2.36176 0
M  V30 1951 H 183.219 -3.65399 1.99681 0
M  V30 1952 H 185.816 -5.34275 -0.213112 0
M  V30 1953 H 186.159 -3.97352 -1.24165 0
M  V30 1954 H 186.692 -3.95166 0.456988 0
M  V30 1955 H 183.431 -5.99559 2.64971 0
M  V30 1956 H 182.951 -5.9241 0.938611 0
M  V30 1957 H 184.63 -6.32085 1.3812 0
M  V30 1958 N 184.763 -0.387143 -1.52771 0
M  V30 1959 C 185.673 0.456442 -2.30117 0
M  V30 1960 C 186.689 1.07342 -1.36944 0
M  V30 1961 O 187.865 1.07971 -1.70013 0
M  V30 1962 C 184.93 1.56957 -3.09136 0
M  V30 1963 C 183.991 0.977916 -4.18014 0
M  V30 1964 C 183.224 2.038 -4.93256 0
M  V30 1965 O 183.447 3.25271 -4.68567 0
M  V30 1966 O 182.381 1.6565 -5.78657 0
M  V30 1967 H 186.207 -0.17359 -3.03203 0
M  V30 1968 H 183.792 -0.150919 -1.48636 0
M  V30 1969 H 185.674 2.21628 -3.58412 0
M  V30 1970 H 184.349 2.18461 -2.38865 0
M  V30 1971 H 183.256 0.294525 -3.72939 0
M  V30 1972 H 184.589 0.407128 -4.90513 0
M  V30 1973 N 186.241 1.57166 -0.116904 0
M  V30 1974 C 187.151 2.18745 0.847812 0
M  V30 1975 C 188.167 1.163 1.29423 0
M  V30 1976 O 189.343 1.48761 1.35765 0
M  V30 1977 C 186.408 2.77307 2.0809 0
M  V30 1978 C 185.469 3.94781 1.68661 0
M  V30 1979 C 184.702 4.50541 2.86091 0
M  V30 1980 O 184.925 4.05202 4.01456 0
M  V30 1981 O 183.859 5.41256 2.63298 0
M  V30 1982 H 187.685 3.01632 0.353778 0
M  V30 1983 H 185.27 1.49005 0.108599 0
M  V30 1984 H 187.152 3.14647 2.80313 0
M  V30 1985 H 185.827 1.97452 2.56504 0
M  V30 1986 H 184.734 3.62214 0.935518 0
M  V30 1987 H 186.067 4.76065 1.24991 0
M  V30 1988 N 187.719 -0.156864 1.56817 0
M  V30 1989 C 188.649 -1.19589 2.00551 0
M  V30 1990 C 189.63 -1.4536 0.883426 0
M  V30 1991 O 190.815 -1.56449 1.15054 0
M  V30 1992 C 187.945 -2.53143 2.37773 0
M  V30 1993 C 186.899 -2.41913 3.53075 0
M  V30 1994 C 186.225 -3.80088 3.76081 0
M  V30 1995 C 187.525 -1.91157 4.86062 0
M  V30 1996 H 189.219 -0.832293 2.87599 0
M  V30 1997 H 186.765 -0.398918 1.38364 0
M  V30 1998 H 188.718 -3.26047 2.66967 0
M  V30 1999 H 187.442 -2.91319 1.4765 0
M  V30 2000 H 186.101 -1.71462 3.24031 0
M  V30 2001 H 185.749 -4.15683 2.83225 0
M  V30 2002 H 185.449 -3.73439 4.53671 0
M  V30 2003 H 186.973 -4.54556 4.0769 0
M  V30 2004 H 188.387 -2.53846 5.14038 0
M  V30 2005 H 186.784 -1.95422 5.67389 0
M  V30 2006 H 187.854 -0.866673 4.77092 0
M  V30 2007 N 189.197 -1.51736 -0.425897 0
M  V30 2008 C 190.16 -1.73271 -1.50032 0
M  V30 2009 C 191.16 -0.602639 -1.4908 0
M  V30 2010 O 192.35 -0.87033 -1.509 0
M  V30 2011 C 189.482 -1.79969 -2.89523 0
M  V30 2012 H 190.675 -2.69172 -1.32237 0
M  V30 2013 H 188.228 -1.41899 -0.65532 0
M  V30 2014 H 188.963 -0.859241 -3.1271 0
M  V30 2015 H 188.748 -2.62109 -2.91619 0
M  V30 2016 H 190.238 -1.9843 -3.67444 0
M  V30 2017 N 190.675 0.682077 -1.42076 0
M  V30 2018 C 191.622 1.79578 -1.44984 0
M  V30 2019 C 192.592 1.6332 -0.302614 0
M  V30 2020 O 193.777 1.83978 -0.505633 0
M  V30 2021 C 190.917 3.1756 -1.35091 0
M  V30 2022 C 190.03 3.45156 -2.59791 0
M  V30 2023 C 189.165 4.72826 -2.42093 0
M  V30 2024 C 188.204 4.93433 -3.62202 0
M  V30 2025 N 187.341 6.12338 -3.43491 0
M  V30 2026 H 192.181 1.76427 -2.40161 0
M  V30 2027 H 189.718 0.861376 -1.19242 0
M  V30 2028 H 191.676 3.97287 -1.27354 0
M  V30 2029 H 190.306 3.19854 -0.435133 0
M  V30 2030 H 189.358 2.59736 -2.77923 0
M  V30 2031 H 190.67 3.5628 -3.49094 0
M  V30 2032 H 189.824 5.60631 -2.319 0
M  V30 2033 H 188.563 4.63973 -1.50268 0
M  V30 2034 H 187.568 4.04073 -3.72834 0
M  V30 2035 H 188.793 5.04136 -4.54998 0
M  V30 2036 H 186.739 6.04672 -2.54377 0
M  V30 2037 H 186.656 6.2429 -4.26377 0
M  V30 2038 H 187.924 7.02841 -3.37097 0
M  V30 2039 N 192.153 1.28127 0.917671 0
M  V30 2040 C 193.399 1.15223 1.66888 0
M  V30 2041 C 193.732 -0.299293 1.9188 0
M  V30 2042 O 193.007 -1.21805 1.51637 0
M  V30 2043 C 193.29 1.94706 3.02922 0
M  V30 2044 C 193.143 3.47898 2.85109 0
M  V30 2045 C 194.462 1.75939 4.03402 0
M  V30 2046 H 191.581 0.419946 0.605652 0
M  V30 2047 H 194.223 1.57398 1.06423 0
M  V30 2048 H 192.373 1.58864 3.54534 0
M  V30 2049 H 194.045 3.93624 2.40537 0
M  V30 2050 H 192.288 3.7373 2.20246 0
M  V30 2051 H 192.959 3.98765 3.81694 0
M  V30 2052 H 195.435 2.07209 3.60837 0
M  V30 2053 H 194.311 2.33931 4.96556 0
M  V30 2054 H 194.572 0.709877 4.36364 0
M  V30 2055 N 193.631 -1.12557 1.10312 0
M  V30 2056 C 194.908 -1.80363 0.756878 0
M  V30 2057 C 195.288 -1.97067 -0.756824 0
M  V30 2058 O 194.636 -1.54601 -1.68259 0
M  V30 2059 C 194.846 -3.14812 1.50647 0
M  V30 2060 C 196.194 -3.90029 1.67817 0
M  V30 2061 O 197.218 -3.24464 1.46974 0
M  V30 2062 O 196.077 -5.07652 2.02365 0
M  V30 2063 H 193.171 -0.780667 0.272926 0
M  V30 2064 H 195.717 -1.19404 1.20586 0
M  V30 2065 H 194.489 -2.97936 2.53672 0
M  V30 2066 H 194.112 -3.83478 1.05026 0
M  V30 2067 N 195.109 -0.891671 -1.2995 0
M  V30 2068 C 196.072 -0.36828 -2.26222 0
M  V30 2069 C 197.072 0.493014 -1.53056 0
M  V30 2070 O 198.262 0.299213 -1.71611 0
M  V30 2071 C 195.394 0.47442 -3.37583 0
M  V30 2072 H 196.587 -1.21844 -2.74033 0
M  V30 2073 H 194.14 -0.669107 -1.41254 0
M  V30 2074 H 194.875 1.34489 -2.95099 0
M  V30 2075 H 194.66 -0.142615 -3.91841 0
M  V30 2076 H 196.15 0.83218 -4.09224 0
M  V30 2077 N 196.587 1.43421 -0.653314 0
M  V30 2078 C 197.812 2.06678 -0.172846 0
M  V30 2079 C 198.237 1.48648 1.15262 0
M  V30 2080 O 197.595 0.596457 1.71208 0
M  V30 2081 C 197.643 3.60474 -0.0953184 0
M  V30 2082 O 196.747 4.01487 0.942442 0
M  V30 2083 H 196.088 0.657181 -0.0949155 0
M  V30 2084 H 198.618 1.83925 -0.896265 0
M  V30 2085 H 198.628 4.07905 0.0879728 0
M  V30 2086 H 197.303 4.02088 -1.06291 0
M  V30 2087 H 195.88 3.65646 0.731932 0
M  V30 2088 N 198.065 0.39524 1.52563 0
M  V30 2089 C 199.311 -0.185318 2.01952 0
M  V30 2090 C 199.644 -1.45964 1.28095 0
M  V30 2091 O 198.919 -1.90689 0.38315 0
M  V30 2092 C 199.202 -0.447193 3.57312 0
M  V30 2093 C 199.055 0.842828 4.41833 0
M  V30 2094 C 200.374 -1.23529 4.22408 0
M  V30 2095 H 197.493 -0.0658788 0.73405 0
M  V30 2096 H 200.135 0.525975 1.82575 0
M  V30 2097 H 198.285 -1.05312 3.73954 0
M  V30 2098 H 199.957 1.4795 4.36931 0
M  V30 2099 H 198.2 1.45686 4.08605 0
M  V30 2100 H 198.871 0.614165 5.48573 0
M  V30 2101 H 201.347 -0.722445 4.0978 0
M  V30 2102 H 200.223 -1.38727 5.3108 0
M  V30 2103 H 200.484 -2.25213 3.80436 0
M  V30 2104 N 199.544 -1.57102 0.125237 0
M  V30 2105 C 200.507 -2.14471 -0.80838 0
M  V30 2106 C 201.507 -1.0811 -1.19033 0
M  V30 2107 O 202.697 -1.33856 -1.11482 0
M  V30 2108 C 199.829 -2.69005 -2.09402 0
M  V30 2109 H 201.022 -2.98297 -0.309696 0
M  V30 2110 H 198.575 -1.55807 -0.124051 0
M  V30 2111 H 199.31 -1.88785 -2.63687 0
M  V30 2112 H 199.095 -3.46799 -1.82957 0
M  V30 2113 H 200.585 -3.13278 -2.76128 0
M  V30 2114 N 201.022 0.148545 -1.56898 0
M  V30 2115 C 202.268 0.862694 -1.83536 0
M  V30 2116 C 202.601 1.80889 -0.706604 0
M  V30 2117 O 201.876 1.92328 0.289885 0
M  V30 2118 C 202.159 1.63853 -3.20662 0
M  V30 2119 C 202.012 0.713925 -4.44098 0
M  V30 2120 C 203.331 2.60133 -3.54991 0
M  V30 2121 H 200.45 0.312179 -0.667618 0
M  V30 2122 H 203.092 0.127953 -1.89569 0
M  V30 2123 H 201.242 2.26489 -3.1565 0
M  V30 2124 H 202.914 0.098686 -4.61194 0
M  V30 2125 H 201.157 0.0234019 -4.33794 0
M  V30 2126 H 201.828 1.29278 -5.36648 0
M  V30 2127 H 204.304 2.07616 -3.60603 0
M  V30 2128 H 203.18 3.11468 -4.51972 0
M  V30 2129 H 203.441 3.41417 -2.80868 0
M  V30 2130 N 202.5 1.5196 0.417844 0
M  V30 2131 C 203.747 1.65591 1.16559 0
M  V30 2132 C 204.075 0.381565 1.90721 0
M  V30 2133 O 203.33 -0.635156 1.85106 0
M  V30 2134 C 203.629 2.82269 2.19223 0
M  V30 2135 C 203.295 4.20819 1.61933 0
M  V30 2136 C 201.957 4.58506 1.46033 0
M  V30 2137 C 204.309 5.07196 1.20008 0
M  V30 2138 C 201.637 5.80257 0.867113 0
M  V30 2139 C 203.989 6.29544 0.621086 0
M  V30 2140 C 202.653 6.65987 0.449144 0
M  V30 2141 H 201.923 0.605939 0.42652 0
M  V30 2142 H 204.57 1.86041 0.45397 0
M  V30 2143 H 202.875 2.56118 2.96498 0
M  V30 2144 H 204.572 2.90012 2.76936 0
M  V30 2145 H 201.162 3.91116 1.7529 0
M  V30 2146 H 205.346 4.7867 1.31105 0
M  V30 2147 H 200.602 6.07124 0.721833 0
M  V30 2148 H 204.776 6.95805 0.287798 0
M  V30 2149 H 202.403 7.60199 -0.012632 0
M  V30 2150 N 203.978 -0.674533 1.42435 0
M  V30 2151 C 205.218 -1.4466 1.44405 0
M  V30 2152 C 205.582 -1.91911 0.0585784 0
M  V30 2153 O 206.783 -2.68759 -0.0469991 0
M  V30 2154 C 205.054 -2.61136 2.44013 0
M  V30 2155 S 206.613 -3.49981 2.64687 0
M  V30 2156 H 203.431 -0.494074 0.511284 0
M  V30 2157 H 206.033 -0.785162 1.7904 0
M  V30 2158 H 204.737 -2.24662 3.43446 0
M  V30 2159 H 204.268 -3.32153 2.10803 0
M  V30 2160 H 206.283 -4.57124 1.93007 0
M  V30 2161 N 205.456 -1.28612 -0.910864 0
M  V30 2162 C 206.366 -1.14643 -2.0468 0
M  V30 2163 C 207.382 -0.0723121 -1.7385 0
M  V30 2164 O 208.558 -0.282178 -1.99413 0
M  V30 2165 C 205.623 -0.812561 -3.37044 0
M  V30 2166 C 204.684 -1.96935 -3.81465 0
M  V30 2167 C 203.917 -1.65131 -5.07511 0
M  V30 2168 O 204.14 -0.567013 -5.67575 0
M  V30 2169 O 203.074 -2.49585 -5.47714 0
M  V30 2170 H 206.9 -2.1001 -2.19384 0
M  V30 2171 H 204.485 -1.07958 -1.03274 0
M  V30 2172 H 206.367 -0.640441 -4.16505 0
M  V30 2173 H 205.042 0.111426 -3.23508 0
M  V30 2174 H 203.949 -2.19664 -3.02818 0
M  V30 2175 H 205.282 -2.87414 -3.99567 0
M  V30 2176 N 206.934 1.1197 -1.10907 0
M  V30 2177 C 208.183 1.82947 -0.849302 0
M  V30 2178 C 208.496 1.85275 0.627112 0
M  V30 2179 O 209.702 2.52296 1.00295 0
M  V30 2180 C 208.158 3.28529 -1.46959 0
M  V30 2181 C 207.766 3.34546 -2.97965 0
M  V30 2182 C 209.51 4.04443 -1.28942 0
M  V30 2183 C 207.417 4.74491 -3.53004 0
M  V30 2184 H 206.347 0.685477 -0.314065 0
M  V30 2185 H 208.998 1.2604 -1.33365 0
M  V30 2186 H 207.38 3.85333 -0.912917 0
M  V30 2187 H 208.554 2.87654 -3.59989 0
M  V30 2188 H 206.869 2.72108 -3.15192 0
M  V30 2189 H 209.466 5.07787 -1.67502 0
M  V30 2190 H 209.809 4.15656 -0.231456 0
M  V30 2191 H 210.342 3.5401 -1.81443 0
M  V30 2192 H 207.081 4.68474 -4.58489 0
M  V30 2193 H 206.601 5.21816 -2.9575 0
M  V30 2194 H 208.28 5.4344 -3.51115 0
M  V30 2195 N 208.412 0.89855 1.29475 0
M  V30 2196 C 209.344 0.332726 2.26772 0
M  V30 2197 C 210.357 -0.520323 1.54261 0
M  V30 2198 O 211.546 -0.337668 1.75277 0
M  V30 2199 C 208.646 -0.544334 3.345 0
M  V30 2200 C 207.819 0.282728 4.36485 0
M  V30 2201 C 206.878 -0.526982 5.23555 0
M  V30 2202 O 205.904 0.0551165 5.69173 0
M  V30 2203 N 207.106 -1.83331 5.5079 0
M  V30 2204 H 209.871 1.16897 2.75962 0
M  V30 2205 H 207.432 0.762919 1.42798 0
M  V30 2206 H 209.424 -1.09239 3.89678 0
M  V30 2207 H 207.994 -1.28127 2.85136 0
M  V30 2208 H 207.214 1.01221 3.80983 0
M  V30 2209 H 208.502 0.84918 5.01664 0
M  V30 2210 H 207.9 -2.32898 5.15534 0
M  V30 2211 H 206.457 -2.32852 6.08788 0
M  V30 2212 N 209.89 -1.43072 0.660911 0
M  V30 2213 C 210.838 -2.32569 -0.0378199 0
M  V30 2214 C 211.832 -1.49046 -0.805092 0
M  V30 2215 O 213.038 -1.65206 -0.714624 0
M  V30 2216 H 209.413 -0.75136 -0.031019 0
M  V30 2217 H 211.384 -2.89216 0.734609 0
M  V30 2218 C 210.133 -3.33453 -0.985124 0
M  V30 2219 H 209.456 -3.97752 -0.404147 0
M  V30 2220 H 210.896 -3.98691 -1.44297 0
M  V30 2221 C 209.355 -2.64642 -2.08486 0
M  V30 2222 O 209.885 -2.46776 -3.16961 0
M  V30 2223 N 208.091 -2.23891 -1.8526 0
M  V30 2224 H 207.638 -2.38621 -0.970449 0
M  V30 2225 H 207.596 -1.78181 -2.59034 0
M  V30 2226 N 211.368 -0.403325 -1.52352 0
M  V30 2227 C 212.596 0.174012 -2.06167 0
M  V30 2228 C 213.011 1.39347 -1.27388 0
M  V30 2229 O 212.368 1.79597 -0.324201 0
M  V30 2230 C 212.419 0.530223 -3.5759 0
M  V30 2231 O 212.14 -0.640806 -4.33388 0
M  V30 2232 C 213.641 1.16192 -4.27802 0
M  V30 2233 H 210.861 0.0229464 -0.670608 0
M  V30 2234 H 213.405 -0.572604 -1.9632 0
M  V30 2235 H 211.56 1.22673 -3.67464 0
M  V30 2236 H 211.974 -0.344851 -5.23365 0
M  V30 2237 H 213.448 1.36141 -5.34948 0
M  V30 2238 H 213.925 2.13335 -3.83907 0
M  V30 2239 H 214.531 0.505775 -4.22282 0
M  V30 2240 N 212.846 1.57033 -0.133567 0
M  V30 2241 C 213.776 2.1909 0.807567 0
M  V30 2242 C 214.757 1.13517 1.26681 0
M  V30 2243 O 215.942 1.41809 1.32679 0
M  V30 2244 C 213.072 2.80188 2.05212 0
M  V30 2245 C 212.026 3.91471 1.73015 0
M  V30 2246 C 211.352 4.39443 3.04622 0
M  V30 2247 C 212.652 5.12886 0.987168 0
M  V30 2248 H 214.346 2.97988 0.290403 0
M  V30 2249 H 211.892 1.43335 0.138239 0
M  V30 2250 H 213.845 3.22264 2.71521 0
M  V30 2251 H 212.569 1.98601 2.59278 0
M  V30 2252 H 211.228 3.49993 1.0909 0
M  V30 2253 H 210.876 3.54695 3.56651 0
M  V30 2254 H 210.576 5.14495 2.83847 0
M  V30 2255 H 212.1 4.8418 3.72024 0
M  V30 2256 H 213.514 5.51891 1.55208 0
M  V30 2257 H 211.911 5.93615 0.87985 0
M  V30 2258 H 212.981 4.84894 -0.0235286 0
M  V30 2259 N 214.325 -0.140222 1.56975 0
M  V30 2260 C 215.574 -0.850152 1.82908 0
M  V30 2261 C 215.887 -1.82028 0.715892 0
M  V30 2262 O 217.093 -2.57485 0.861016 0
M  V30 2263 C 215.549 -1.5625 3.24213 0
M  V30 2264 C 215.157 -0.63443 4.43485 0
M  V30 2265 C 216.901 -2.25881 3.59413 0
M  V30 2266 C 214.808 -1.34879 5.75814 0
M  V30 2267 H 213.738 -0.321221 0.682153 0
M  V30 2268 H 216.389 -0.102874 1.83211 0
M  V30 2269 H 214.771 -2.35565 3.18316 0
M  V30 2270 H 215.945 0.12398 4.60633 0
M  V30 2271 H 214.26 -0.0461836 4.16374 0
M  V30 2272 H 216.857 -2.79978 4.5554 0
M  V30 2273 H 217.2 -3.02693 2.85802 0
M  V30 2274 H 217.733 -1.53477 3.67001 0
M  V30 2275 H 214.472 -0.622385 6.52539 0
M  V30 2276 H 213.992 -2.07974 5.6259 0
M  V30 2277 H 215.671 -1.88784 6.18845 0
M  V30 2278 N 215.803 -1.52179 -0.40978 0
M  V30 2279 C 216.751 -1.76086 -1.51975 0
M  V30 2280 C 217.745 -0.627964 -1.57331 0
M  V30 2281 O 218.951 -0.809993 -1.60745 0
M  V30 2282 H 215.326 -0.556829 -0.505416 0
M  V30 2283 H 217.297 -2.69077 -1.28996 0
M  V30 2284 C 216.046 -1.92799 -2.8935 0
M  V30 2285 H 215.369 -2.79392 -2.85972 0
M  V30 2286 H 216.809 -2.13527 -3.66309 0
M  V30 2287 C 215.268 -0.694923 -3.29655 0
M  V30 2288 O 215.798 0.13751 -4.01465 0
M  V30 2289 N 214.004 -0.53101 -2.85707 0
M  V30 2290 H 213.551 -1.20952 -2.27439 0
M  V30 2291 H 213.509 0.292718 -3.13034 0
M  V30 2292 N 217.281 0.66697 -1.42791 0
M  V30 2293 C 218.509 1.45505 -1.47091 0
M  V30 2294 C 218.924 1.8861 -0.0845873 0
M  V30 2295 O 218.281 1.58632 0.90234 0
M  V30 2296 C 218.332 2.69906 -2.40485 0
M  V30 2297 O 218.053 2.28608 -3.73725 0
M  V30 2298 C 219.554 3.63396 -2.53886 0
M  V30 2299 H 216.774 0.447459 -0.500022 0
M  V30 2300 H 219.318 0.818866 -1.8739 0
M  V30 2301 H 217.473 3.29696 -2.03419 0
M  V30 2302 H 217.887 3.08997 -4.23817 0
M  V30 2303 H 219.361 4.47387 -3.2334 0
M  V30 2304 H 219.838 4.09824 -1.57927 0
M  V30 2305 H 220.444 3.09495 -2.91706 0
M  V30 2306 N 218.759 1.29093 0.90403 0
M  V30 2307 C 219.689 1.16401 2.02418 0
M  V30 2308 C 220.67 0.0593085 1.69997 0
M  V30 2309 O 221.855 0.238021 1.92736 0
M  V30 2310 C 218.985 0.835233 3.37107 0
M  V30 2311 C 217.939 1.89578 3.83724 0
M  V30 2312 C 217.265 1.42041 5.15489 0
M  V30 2313 C 218.565 3.30394 4.04521 0
M  V30 2314 H 220.259 2.10109 2.13295 0
M  V30 2315 H 217.805 1.01157 1.02486 0
M  V30 2316 H 219.758 0.733169 4.14973 0
M  V30 2317 H 218.482 -0.137543 3.2631 0
M  V30 2318 H 217.141 1.98715 3.08071 0
M  V30 2319 H 216.789 0.436426 5.01103 0
M  V30 2320 H 216.489 2.12964 5.4765 0
M  V30 2321 H 218.013 1.33176 5.959 0
M  V30 2322 H 219.427 3.24123 4.72882 0
M  V30 2323 H 217.824 3.99237 4.48029 0
M  V30 2324 H 218.894 3.73692 3.09002 0
M  V30 2325 N 220.237 -1.11381 1.11499 0
M  V30 2326 C 221.486 -1.82494 0.858993 0
M  V30 2327 C 221.799 -1.85605 -0.617278 0
M  V30 2328 O 223.005 -2.52824 -0.989552 0
M  V30 2329 C 221.461 -3.27745 1.48699 0
M  V30 2330 C 221.069 -3.32961 2.99735 0
M  V30 2331 C 222.813 -4.03754 1.31085 0
M  V30 2332 C 220.72 -4.72612 3.55516 0
M  V30 2333 H 219.65 -0.683802 0.317696 0
M  V30 2334 H 222.301 -1.25331 1.34031 0
M  V30 2335 H 220.683 -3.84844 0.933339 0
M  V30 2336 H 221.857 -2.85741 3.61509 0
M  V30 2337 H 220.172 -2.70433 3.16631 0
M  V30 2338 H 222.769 -5.06891 1.70192 0
M  V30 2339 H 223.112 -4.15527 0.253496 0
M  V30 2340 H 223.645 -3.53043 1.83318 0
M  V30 2341 H 220.384 -4.66036 4.60967 0
M  V30 2342 H 219.904 -5.2024 2.98513 0
M  V30 2343 H 221.583 -5.4157 3.53992 0
M  V30 2344 N 221.715 -0.905404 -1.28997 0
M  V30 2345 C 223.131 -0.60233 -1.47798 0
M  V30 2346 C 223.331 0.854645 -1.82478 0
M  V30 2347 O 222.387 1.63439 -1.92468 0
M  V30 2348 C 223.7 -1.53306 -2.58685 0
M  V30 2349 C 225.248 -1.53887 -2.72558 0
M  V30 2350 C 225.723 -2.45602 -3.86579 0
M  V30 2351 N 227.214 -2.43681 -3.93921 0
M  V30 2352 C 227.949 -3.11347 -4.81509 0
M  V30 2353 N 227.445 -3.88313 -5.73746 0
M  V30 2354 N 229.238 -3.00476 -4.75048 0
M  V30 2355 H 221.389 -1.84765 -1.04764 0
M  V30 2356 H 223.652 -0.792025 -0.520961 0
M  V30 2357 H 223.358 -2.57141 -2.39941 0
M  V30 2358 H 223.232 -1.25787 -3.55609 0
M  V30 2359 H 225.619 -0.507941 -2.90696 0
M  V30 2360 H 225.7 -1.85447 -1.76191 0
M  V30 2361 H 225.344 -3.48792 -3.69197 0
M  V30 2362 H 225.274 -2.11349 -4.82327 0
M  V30 2363 H 227.765 -1.87767 -3.27951 0
M  V30 2364 H 228.078 -4.36985 -6.37389 0
M  V30 2365 H 226.423 -3.92419 -5.73614 0
M  V30 2366 H 229.614 -2.39858 -4.01977 0
M  V30 2367 H 229.787 -3.53485 -5.43095 0
M  V30 2368 N 223.193 1.4272 -0.668489 0
M  V30 2369 C 224.14 2.30796 0.0137489 0
M  V30 2370 C 225.11 1.4561 0.799177 0
M  V30 2371 O 226.295 1.74453 0.772702 0
M  V30 2372 C 223.435 3.31377 0.963507 0
M  V30 2373 C 222.548 4.31655 0.172569 0
M  V30 2374 C 221.683 5.19312 1.1175 0
M  V30 2375 C 220.722 6.11274 0.317886 0
M  V30 2376 N 219.859 6.91504 1.2152 0
M  V30 2377 H 224.699 2.88585 -0.743161 0
M  V30 2378 H 222.236 1.42154 -0.378226 0
M  V30 2379 H 224.194 3.88214 1.52792 0
M  V30 2380 H 222.824 2.75202 1.68712 0
M  V30 2381 H 221.876 3.76988 -0.508374 0
M  V30 2382 H 223.188 4.96779 -0.448527 0
M  V30 2383 H 222.342 5.80851 1.75206 0
M  V30 2384 H 221.081 4.5435 1.77249 0
M  V30 2385 H 220.086 5.48809 -0.329918 0
M  V30 2386 H 221.311 6.78283 -0.332917 0
M  V30 2387 H 219.257 6.29176 1.85671 0
M  V30 2388 H 219.174 7.53209 0.649036 0
M  V30 2389 H 220.442 7.57535 1.83742 0
M  V30 2390 N 224.671 0.411399 1.52136 0
M  V30 2391 C 225.621 -0.430376 2.23901 0
M  V30 2392 C 226.605 -1.0116 1.25121 0
M  V30 2393 O 227.797 -0.934044 1.50348 0
M  V30 2394 C 224.926 -1.54527 3.06556 0
M  V30 2395 C 224.012 -0.9747 4.12747 0
M  V30 2396 N 224.403 -0.130991 5.0563 0
M  V30 2397 C 222.701 -1.24497 4.28271 0
M  V30 2398 C 223.402 0.186689 5.814 0
M  V30 2399 N 222.378 -0.42304 5.41951 0
M  V30 2400 H 226.18 0.220509 2.93072 0
M  V30 2401 H 223.694 0.221952 1.60876 0
M  V30 2402 H 225.691 -2.16093 3.56524 0
M  V30 2403 H 224.351 -2.19875 2.38925 0
M  V30 2404 H 225.362 0.23349 5.17373 0
M  V30 2405 H 222.039 -1.89787 3.7187 0
M  V30 2406 H 223.429 0.871673 6.66222 0
M  V30 2407 N 226.149 -1.5696 0.141893 0
M  V30 2408 C 227.397 -1.95573 -0.509484 0
M  V30 2409 C 227.718 -1.02746 -1.65736 0
M  V30 2410 O 226.988 -0.0880311 -1.95702 0
M  V30 2411 H 225.568 -0.722115 -0.191205 0
M  V30 2412 H 228.23 -1.93697 0.216196 0
M  V30 2413 H 227.326 -2.99171 -0.889 0
M  V30 2414 N 227.627 0.131896 -1.57047 0
M  V30 2415 C 228.855 0.856461 -1.88341 0
M  V30 2416 C 229.27 1.74042 -0.731757 0
M  V30 2417 O 228.627 1.80051 0.297945 0
M  V30 2418 C 228.678 1.70064 -3.18999 0
M  V30 2419 O 228.399 0.852278 -4.2973 0
M  V30 2420 C 229.9 2.53148 -3.63911 0
M  V30 2421 H 227.12 0.246885 -0.62393 0
M  V30 2422 H 229.664 0.120152 -2.04147 0
M  V30 2423 H 227.819 2.38984 -3.04902 0
M  V30 2424 H 228.233 1.43329 -5.04537 0
M  V30 2425 H 229.707 3.07931 -4.58129 0
M  V30 2426 H 230.184 3.29901 -2.89935 0
M  V30 2427 H 230.79 1.89492 -3.80753 0
M  V30 2428 N 229.106 1.52395 0.401703 0
M  V30 2429 C 230.016 1.7917 1.51444 0
M  V30 2430 C 231.032 0.677691 1.6026 0
M  V30 2431 O 232.208 0.963909 1.76835 0
M  V30 2432 C 229.273 1.94347 2.87107 0
M  V30 2433 C 228.334 3.18257 2.88116 0
M  V30 2434 C 227.567 3.32701 4.17308 0
M  V30 2435 O 227.79 2.52238 5.11598 0
M  V30 2436 O 226.724 4.25891 4.25324 0
M  V30 2437 H 230.55 2.73633 1.31752 0
M  V30 2438 H 228.135 1.3733 0.588296 0
M  V30 2439 H 230.017 2.06109 3.67555 0
M  V30 2440 H 228.692 1.03073 3.06851 0
M  V30 2441 H 227.599 3.11947 2.06494 0
M  V30 2442 H 228.932 4.09336 2.73322 0
M  V30 2443 N 230.584 -0.659388 1.43143 0
M  V30 2444 C 231.494 -1.80167 1.50256 0
M  V30 2445 C 232.51 -1.69571 0.390106 0
M  V30 2446 O 233.686 -1.90849 0.643319 0
M  V30 2447 C 230.751 -3.16409 1.41725 0
M  V30 2448 C 229.812 -3.38848 2.63591 0
M  V30 2449 C 229.045 -4.68591 2.55458 0
M  V30 2450 O 229.268 -5.47532 1.59891 0
M  V30 2451 O 228.202 -4.92614 3.45854 0
M  V30 2452 H 232.028 -1.77121 2.46702 0
M  V30 2453 H 229.613 -0.817092 1.25076 0
M  V30 2454 H 231.495 -3.9768 1.39387 0
M  V30 2455 H 230.17 -3.20059 0.484118 0
M  V30 2456 H 229.077 -2.57366 2.71502 0
M  V30 2457 H 230.41 -3.4004 3.55856 0
M  V30 2458 N 232.062 -1.29571 -0.897171 0
M  V30 2459 C 232.994 -1.10724 -2.00681 0
M  V30 2460 C 234.007 -0.0540026 -1.6271 0
M  V30 2461 O 235.196 -0.298783 -1.75982 0
M  V30 2462 C 232.296 -0.663912 -3.32333 0
M  V30 2463 C 231.469 -1.79622 -3.98816 0
M  V30 2464 C 230.528 -1.34349 -5.0876 0
M  V30 2465 O 229.554 -2.04864 -5.31055 0
M  V30 2466 N 230.756 -0.215764 -5.80099 0
M  V30 2467 H 233.521 -2.06291 -2.17403 0
M  V30 2468 H 231.082 -1.21544 -1.06951 0
M  V30 2469 H 233.074 -0.344295 -4.03233 0
M  V30 2470 H 231.644 0.199375 -3.11964 0
M  V30 2471 H 230.864 -2.28459 -3.21248 0
M  V30 2472 H 232.152 -2.55535 -4.39976 0
M  V30 2473 H 231.55 0.372091 -5.64475 0
M  V30 2474 H 230.107 0.0444707 -6.51785 0
M  V30 2475 N 233.54 1.10788 -1.12088 0
M  V30 2476 C 234.487 2.17025 -0.785407 0
M  V30 2477 C 235.457 1.64265 0.246191 0
M  V30 2478 O 236.642 1.90412 0.121584 0
M  V30 2479 C 233.782 3.44249 -0.242177 0
M  V30 2480 C 232.895 4.1098 -1.33115 0
M  V30 2481 C 232.03 5.25911 -0.747741 0
M  V30 2482 C 231.069 5.84538 -1.81609 0
M  V30 2483 N 230.206 6.90853 -1.25167 0
M  V30 2484 H 235.046 2.45066 -1.69548 0
M  V30 2485 H 232.583 1.20297 -0.846582 0
M  V30 2486 H 234.541 4.17101 0.0908026 0
M  V30 2487 H 233.171 3.16571 0.631072 0
M  V30 2488 H 232.223 3.36133 -1.78097 0
M  V30 2489 H 233.535 4.50601 -2.13917 0
M  V30 2490 H 232.689 6.056 -0.365216 0
M  V30 2491 H 231.428 4.87614 0.0915188 0
M  V30 2492 H 230.433 5.03522 -2.20785 0
M  V30 2493 H 231.658 6.249 -2.6585 0
M  V30 2494 H 229.604 6.54562 -0.434174 0
M  V30 2495 H 229.521 7.29166 -1.99633 0
M  V30 2496 H 230.789 7.7433 -0.896259 0
M  V30 2497 N 235.018 0.912232 1.28515 0
M  V30 2498 C 235.981 0.404223 2.25607 0
M  V30 2499 C 236.981 -0.468602 1.53821 0
M  V30 2500 O 238.171 -0.271873 1.72065 0
M  V30 2501 C 235.303 -0.420653 3.38295 0
M  V30 2502 H 236.496 1.26188 2.7206 0
M  V30 2503 H 234.049 0.691495 1.40171 0
M  V30 2504 H 234.784 -1.29777 2.97201 0
M  V30 2505 H 234.569 0.204935 3.91564 0
M  V30 2506 H 236.059 -0.766971 4.10496 0
M  V30 2507 N 236.496 -1.42363 0.676048 0
M  V30 2508 C 237.724 -2.05859 0.207268 0
M  V30 2509 C 238.139 -1.50796 -1.13605 0
M  V30 2510 O 237.496 -0.648265 -1.70598 0
M  V30 2511 C 237.547 -3.61248 0.134975 0
M  V30 2512 O 237.268 -4.1427 1.42521 0
M  V30 2513 C 238.769 -4.41859 -0.357151 0
M  V30 2514 H 235.989 -0.663431 0.100503 0
M  V30 2515 H 238.533 -1.82479 0.923136 0
M  V30 2516 H 236.688 -3.83735 -0.531588 0
M  V30 2517 H 237.102 -5.0815 1.29939 0
M  V30 2518 H 238.576 -5.50847 -0.356641 0
M  V30 2519 H 239.053 -4.16536 -1.39264 0
M  V30 2520 H 239.659 -4.24392 0.27772 0
M  V30 2521 N 237.974 -0.419461 -1.51915 0
M  V30 2522 C 239.204 0.151915 -2.06041 0
M  V30 2523 C 239.612 1.38539 -1.28855 0
M  V30 2524 O 238.955 1.80592 -0.336463 0
M  V30 2525 C 239.017 0.557119 -3.55157 0
M  V30 2526 C 238.681 -0.567054 -4.53468 0
M  V30 2527 C 239.678 -1.43379 -4.99738 0
M  V30 2528 C 237.363 -0.742693 -4.96779 0
M  V30 2529 C 239.357 -2.46102 -5.87973 0
M  V30 2530 C 237.044 -1.77322 -5.84808 0
M  V30 2531 C 238.042 -2.63078 -6.30301 0
M  V30 2532 O 237.73 -3.64364 -7.16585 0
M  V30 2533 H 237.462 0.0193293 -0.675724 0
M  V30 2534 H 240.016 -0.592073 -1.96682 0
M  V30 2535 H 238.246 1.35355 -3.62238 0
M  V30 2536 H 239.935 1.05759 -3.9188 0
M  V30 2537 H 240.701 -1.30954 -4.66986 0
M  V30 2538 H 236.58 -0.0848307 -4.60922 0
M  V30 2539 H 240.124 -3.13071 -6.23404 0
M  V30 2540 H 236.021 -1.89773 -6.16974 0
M  V30 2541 H 236.789 -3.60731 -7.34721 0
M  V30 2542 N 239.452 1.56882 -0.150215 0
M  V30 2543 C 240.382 2.19935 0.784284 0
M  V30 2544 C 241.363 1.14854 1.25469 0
M  V30 2545 O 242.548 1.43209 1.31168 0
M  V30 2546 C 239.678 2.82349 2.02229 0
M  V30 2547 C 238.632 3.93285 1.68853 0
M  V30 2548 C 237.958 4.42649 2.99944 0
M  V30 2549 C 239.258 5.13904 0.932714 0
M  V30 2550 H 240.952 2.9828 0.258781 0
M  V30 2551 H 238.498 1.43473 0.123029 0
M  V30 2552 H 240.451 3.25126 2.68088 0
M  V30 2553 H 239.175 2.0134 2.57157 0
M  V30 2554 H 237.834 3.5113 1.05371 0
M  V30 2555 H 237.482 3.58458 3.52869 0
M  V30 2556 H 237.182 5.17476 2.78374 0
M  V30 2557 H 238.706 4.88099 3.66868 0
M  V30 2558 H 240.12 5.53506 1.49345 0
M  V30 2559 H 238.517 5.94515 0.81684 0
M  V30 2560 H 239.587 4.84842 -0.0749568 0
M  V30 2561 N 240.93 -0.123565 1.57115 0
M  V30 2562 C 242.341 -0.681198 1.73829 0
M  V30 2563 C 242.692 -1.80535 0.768214 0
M  V30 2564 O 241.817 -2.16317 -0.0599103 0
M  V30 2565 C 242.412 -1.24246 3.15196 0
M  V30 2566 C 240.971 -1.74643 3.33432 0
M  V30 2567 C 240.118 -0.644284 2.69711 0
M  V30 2568 H 243.069 0.102315 1.5837 0
M  V30 2569 H 243.09 -2.11216 3.16493 0
M  V30 2570 H 242.602 -0.424062 3.85776 0
M  V30 2571 H 240.703 -2.58974 2.67886 0
M  V30 2572 H 240.816 -1.85902 4.41562 0
M  V30 2573 H 239.18 -1.07676 2.3082 0
M  V30 2574 H 239.963 0.163058 3.42913 0
M  V30 2575 N 242.408 -1.52605 -0.393616 0
M  V30 2576 C 243.34 -1.73303 -1.49995 0
M  V30 2577 C 244.353 -0.613473 -1.50799 0
M  V30 2578 O 245.542 -0.889049 -1.54784 0
M  V30 2579 C 242.642 -1.77245 -2.88855 0
M  V30 2580 C 241.815 -3.06483 -3.12069 0
M  V30 2581 C 240.874 -3.02033 -4.30886 0
M  V30 2582 O 239.9 -3.75907 -4.27414 0
M  V30 2583 N 241.102 -2.20897 -5.36828 0
M  V30 2584 H 243.867 -2.68756 -1.32629 0
M  V30 2585 H 241.428 -1.51036 -0.583083 0
M  V30 2586 H 243.42 -1.7178 -3.66434 0
M  V30 2587 H 241.99 -0.891993 -2.99603 0
M  V30 2588 H 241.21 -3.25474 -2.22396 0
M  V30 2589 H 242.498 -3.91947 -3.2443 0
M  V30 2590 H 241.896 -1.60336 -5.42502 0
M  V30 2591 H 240.453 -2.21275 -6.13091 0
M  V30 2592 N 243.887 0.651787 -1.4349 0
M  V30 2593 C 244.817 1.77621 -1.51569 0
M  V30 2594 C 245.798 1.66022 -0.370253 0
M  V30 2595 O 246.983 1.85095 -0.587658 0
M  V30 2596 C 244.113 3.16056 -1.43966 0
M  V30 2597 C 243.067 3.4242 -2.56774 0
M  V30 2598 C 242.393 4.8067 -2.34223 0
M  V30 2599 C 243.693 3.37023 -3.99015 0
M  V30 2600 H 245.387 1.71117 -2.45681 0
M  V30 2601 H 242.933 0.821825 -1.18246 0
M  V30 2602 H 244.886 3.94472 -1.48221 0
M  V30 2603 H 243.61 3.23293 -0.463586 0
M  V30 2604 H 242.269 2.66375 -2.51873 0
M  V30 2605 H 241.917 4.84585 -1.34856 0
M  V30 2606 H 241.617 4.9927 -3.09844 0
M  V30 2607 H 243.141 5.61342 -2.40265 0
M  V30 2608 H 244.555 4.05374 -4.05395 0
M  V30 2609 H 242.952 3.67159 -4.74673 0
M  V30 2610 H 244.022 2.3518 -4.2405 0
M  V30 2611 N 245.365 1.30045 0.890287 0
M  V30 2612 C 246.593 1.21472 1.67487 0
M  V30 2613 C 247.008 -0.223241 1.87476 0
M  V30 2614 O 246.365 -1.14828 1.41847 0
M  V30 2615 C 246.416 1.93394 3.05419 0
M  V30 2616 O 246.137 3.31576 2.86337 0
M  V30 2617 C 247.638 1.91414 3.99844 0
M  V30 2618 H 244.858 0.420604 0.522813 0
M  V30 2619 H 247.402 1.7158 1.11268 0
M  V30 2620 H 245.557 1.47099 3.58386 0
M  V30 2621 H 245.971 3.67929 3.73802 0
M  V30 2622 H 247.445 2.46285 4.94012 0
M  V30 2623 H 247.922 0.891833 4.3005 0
M  V30 2624 H 248.528 2.37496 3.52811 0
M  V30 2625 N 246.843 -1.10192 1.12674 0
M  V30 2626 C 248.071 -1.85983 0.906527 0
M  V30 2627 C 248.486 -1.80783 -0.544333 0
M  V30 2628 O 247.843 -1.19834 -1.37645 0
M  V30 2629 C 247.894 -3.34281 1.37618 0
M  V30 2630 O 247.615 -3.39401 2.77017 0
M  V30 2631 C 249.116 -4.26938 1.19325 0
M  V30 2632 H 246.336 -0.587716 0.323775 0
M  V30 2633 H 248.88 -1.39284 1.49734 0
M  V30 2634 H 247.035 -3.78436 0.828539 0
M  V30 2635 H 247.449 -4.31838 2.97684 0
M  V30 2636 H 248.923 -5.29181 1.57071 0
M  V30 2637 H 249.4 -4.38995 0.134097 0
M  V30 2638 H 250.006 -3.8859 1.72852 0
M  V30 2639 N 248.321 -0.919034 -1.28029 0
M  V30 2640 C 249.231 -0.416756 -2.30869 0
M  V30 2641 C 250.247 0.498235 -1.66714 0
M  V30 2642 O 251.423 0.383144 -1.97722 0
M  V30 2643 C 248.488 0.330274 -3.45123 0
M  V30 2644 C 247.549 -0.618578 -4.2482 0
M  V30 2645 C 246.782 0.0928959 -5.33619 0
M  V30 2646 O 247.005 1.31375 -5.55065 0
M  V30 2647 O 245.939 -0.574499 -5.99152 0
M  V30 2648 H 249.765 -1.27043 -2.75851 0
M  V30 2649 H 247.35 -0.684052 -1.3282 0
M  V30 2650 H 249.232 0.751972 -4.14636 0
M  V30 2651 H 247.907 1.1597 -3.02213 0
M  V30 2652 H 246.814 -1.08978 -3.57875 0
M  V30 2653 H 248.147 -1.41497 -4.71423 0
M  V30 2654 N 249.799 1.42003 -0.683588 0
M  V30 2655 C 250.746 2.30798 -0.0107309 0
M  V30 2656 C 251.716 1.4645 0.783688 0
M  V30 2657 O 252.901 1.75263 0.754156 0
M  V30 2658 C 250.041 3.3238 0.928306 0
M  V30 2659 C 249.154 4.31814 0.126776 0
M  V30 2660 C 248.289 5.20468 1.06236 0
M  V30 2661 C 247.328 6.11577 0.253035 0
M  V30 2662 N 246.465 6.92754 1.14179 0
M  V30 2663 H 251.305 2.8778 -0.773727 0
M  V30 2664 H 248.842 1.41745 -0.393283 0
M  V30 2665 H 250.8 3.89813 1.48666 0
M  V30 2666 H 249.43 2.76976 1.65783 0
M  V30 2667 H 248.482 3.76427 -0.54833 0
M  V30 2668 H 249.794 4.96276 -0.501192 0
M  V30 2669 H 248.948 5.82677 1.69035 0
M  V30 2670 H 247.687 4.56204 1.7242 0
M  V30 2671 H 246.692 5.48428 -0.388108 0
M  V30 2672 H 247.917 6.77892 -0.404839 0
M  V30 2673 H 245.863 6.3111 1.78987 0
M  V30 2674 H 245.78 7.53855 0.569111 0
M  V30 2675 H 247.048 7.59441 1.75697 0
M  V30 2676 N 251.277 0.427512 1.51691 0
M  V30 2677 C 252.523 -0.142439 2.02299 0
M  V30 2678 C 252.856 -1.43214 1.31162 0
M  V30 2679 O 252.131 -1.89833 0.423511 0
M  V30 2680 C 252.414 -0.371301 3.58181 0
M  V30 2681 C 252.267 0.936358 4.39946 0
M  V30 2682 C 253.586 -1.14542 4.24933 0
M  V30 2683 H 250.705 -0.0502937 0.735282 0
M  V30 2684 H 253.347 0.564584 1.81418 0
M  V30 2685 H 251.497 -0.973559 3.76104 0
M  V30 2686 H 253.169 1.57184 4.33694 0
M  V30 2687 H 251.412 1.5432 4.05423 0
M  V30 2688 H 252.083 0.730388 5.47147 0
M  V30 2689 H 254.559 -0.635362 4.11221 0
M  V30 2690 H 253.435 -1.27431 5.33903 0
M  V30 2691 H 253.696 -2.17093 3.85127 0
M  V30 2692 N 252.755 -1.56801 0.158532 0
M  V30 2693 C 254.003 -1.96102 -0.488712 0
M  V30 2694 C 254.324 -1.04498 -1.64636 0
M  V30 2695 O 253.594 -0.108783 -1.95598 0
M  V30 2696 H 252.174 -0.724102 -0.183535 0
M  V30 2697 H 254.836 -1.93457 0.236728 0
M  V30 2698 H 253.932 -3.00097 -0.857219 0
M  V30 2699 N 254.233 0.115231 -1.57178 0
M  V30 2700 C 255.458 0.840354 -1.89612 0
M  V30 2701 C 255.883 1.72464 -0.750845 0
M  V30 2702 O 255.241 1.78826 0.298478 0
M  V30 2703 C 255.289 1.64654 -3.20814 0
M  V30 2704 O 254.393 2.7538 -3.06985 0
M  V30 2705 H 253.734 0.232158 -0.622092 0
M  V30 2706 H 256.264 0.0964977 -2.04372 0
M  V30 2707 H 256.274 2.03499 -3.53627 0
M  V30 2708 H 254.949 0.997416 -4.03763 0
M  V30 2709 H 253.526 2.3971 -2.85646 0
M  V30 2710 N 255.711 1.52812 0.385517 0
M  V30 2711 C 256.958 1.68026 1.1302 0
M  V30 2712 C 257.286 0.421934 1.89868 0
M  V30 2713 O 256.541 -0.595749 1.86412 0
M  V30 2714 C 256.84 2.86856 2.13187 0
M  V30 2715 C 256.506 4.24159 1.5297 0
M  V30 2716 C 255.168 4.61501 1.36274 0
M  V30 2717 C 257.52 5.09627 1.09223 0
M  V30 2718 C 254.848 5.81966 0.743837 0
M  V30 2719 C 257.2 6.30719 0.487411 0
M  V30 2720 C 255.864 6.6679 0.307777 0
M  V30 2721 H 255.134 0.614849 0.413571 0
M  V30 2722 H 257.781 1.86962 0.414405 0
M  V30 2723 H 256.086 2.6235 2.90998 0
M  V30 2724 H 257.783 2.95821 2.70722 0
M  V30 2725 H 254.373 3.94746 1.66954 0
M  V30 2726 H 258.557 4.81343 1.20922 0
M  V30 2727 H 253.813 6.08519 0.592891 0
M  V30 2728 H 257.987 6.96259 0.140143 0
M  V30 2729 H 255.614 7.60001 -0.173879 0
M  V30 2730 N 257.189 -0.644168 1.43834 0
M  V30 2731 C 258.429 -1.41565 1.47441 0
M  V30 2732 C 258.793 -1.91743 0.0992723 0
M  V30 2733 O 259.994 -2.68798 0.0100192 0
M  V30 2734 C 258.265 -2.55902 2.49498 0
M  V30 2735 S 259.824 -3.44287 2.72051 0
M  V30 2736 H 256.642 -0.483118 0.521649 0
M  V30 2737 H 259.244 -0.747008 1.80666 0
M  V30 2738 H 257.948 -2.17327 3.48134 0
M  V30 2739 H 257.479 -3.27607 2.17801 0
M  V30 2740 H 259.494 -4.52927 2.0266 0
M  V30 2741 N 258.668 -1.30515 -0.883378 0
M  V30 2742 C 259.598 -1.19607 -2.00541 0
M  V30 2743 C 260.579 -0.086346 -1.69881 0
M  V30 2744 O 261.764 -0.268654 -1.92333 0
M  V30 2745 C 258.894 -0.888758 -3.35736 0
M  V30 2746 C 257.848 -1.95659 -3.8066 0
M  V30 2747 C 257.174 -1.50224 -5.13164 0
M  V30 2748 C 258.474 -3.36788 -3.99213 0
M  V30 2749 H 260.168 -2.13476 -2.09925 0
M  V30 2750 H 257.714 -1.02775 -1.00863 0
M  V30 2751 H 259.667 -0.799094 -4.13754 0
M  V30 2752 H 258.391 0.0856125 -3.26488 0
M  V30 2753 H 257.05 -2.03591 -3.04871 0
M  V30 2754 H 256.698 -0.516092 -5.00345 0
M  V30 2755 H 256.398 -2.2165 -5.44192 0
M  V30 2756 H 257.922 -1.42639 -5.93706 0
M  V30 2757 H 259.336 -3.31605 -4.67665 0
M  V30 2758 H 257.733 -4.06314 -4.41621 0
M  V30 2759 H 258.803 -3.78561 -3.03017 0
M  V30 2760 N 260.146 1.09593 -1.13257 0
M  V30 2761 C 261.371 1.8604 -0.916732 0
M  V30 2762 C 261.796 1.80504 0.529146 0
M  V30 2763 O 261.154 1.18127 1.37534 0
M  V30 2764 C 261.202 3.32017 -1.40703 0
M  V30 2765 O 260.306 4.08141 -0.591153 0
M  V30 2766 H 259.647 0.576943 -0.328683 0
M  V30 2767 H 262.177 1.38405 -1.50682 0
M  V30 2768 H 262.187 3.82865 -1.4099 0
M  V30 2769 H 260.862 3.35361 -2.45979 0
M  V30 2770 H 259.439 3.67084 -0.656005 0
M  V30 2771 N 261.624 0.925811 1.2754 0
M  V30 2772 C 262.534 0.428993 2.30644 0
M  V30 2773 C 263.55 -0.489387 1.66976 0
M  V30 2774 O 264.726 -0.372653 1.97922 0
M  V30 2775 C 261.791 -0.311967 3.45294 0
M  V30 2776 C 260.852 0.641098 4.24486 0
M  V30 2777 C 260.085 -0.0645955 5.33661 0
M  V30 2778 O 260.308 -1.28429 5.55754 0
M  V30 2779 O 259.242 0.606265 5.98839 0
M  V30 2780 H 263.068 1.28504 2.75173 0
M  V30 2781 H 260.653 0.691086 1.32455 0
M  V30 2782 H 262.535 -0.729972 4.15029 0
M  V30 2783 H 261.21 -1.14365 3.02824 0
M  V30 2784 H 260.117 1.10874 3.57292 0
M  V30 2785 H 261.45 1.43995 4.70666 0
M  V30 2786 N 263.102 -1.41638 0.69111 0
M  V30 2787 C 264.065 -2.29178 0.0319786 0
M  V30 2788 C 265.065 -1.44153 -0.712496 0
M  V30 2789 O 266.255 -1.65354 -0.548053 0
M  V30 2790 C 263.387 -3.26952 -0.965161 0
M  V30 2791 H 264.58 -2.88959 0.802681 0
M  V30 2792 H 262.133 -1.4955 0.454356 0
M  V30 2793 H 262.868 -2.72142 -1.76378 0
M  V30 2794 H 262.653 -3.89685 -0.434522 0
M  V30 2795 H 264.143 -3.92561 -1.42428 0
M  V30 2796 N 264.58 -0.43555 -1.51462 0
M  V30 2797 C 265.828 0.131254 -2.01673 0
M  V30 2798 C 266.149 1.43368 -1.32177 0
M  V30 2799 O 265.419 1.90524 -0.455769 0
M  V30 2800 H 263.999 0.0514954 -0.745223 0
M  V30 2801 H 266.661 -0.577847 -1.86137 0
M  V30 2802 H 265.757 0.308446 -3.10572 0
M  V30 2803 N 266.058 1.56714 -0.166846 0
M  V30 2804 C 267.021 2.16539 0.751232 0
M  V30 2805 C 268.021 1.11228 1.16125 0
M  V30 2806 O 269.211 1.36765 1.07894 0
M  V30 2807 C 266.343 2.74462 2.02196 0
M  V30 2808 H 267.536 2.99013 0.230499 0
M  V30 2809 H 265.089 1.56081 0.0826982 0
M  V30 2810 H 265.824 1.95709 2.58589 0
M  V30 2811 H 265.609 3.51527 1.73698 0
M  V30 2812 H 267.099 3.20489 2.67725 0
M  V30 2813 N 267.536 -0.106894 1.57237 0
M  V30 2814 C 268.784 -0.810921 1.85117 0
M  V30 2815 C 269.105 -1.7984 0.753827 0
M  V30 2816 O 268.375 -1.94649 -0.221056 0
M  V30 2817 H 266.955 -0.302466 0.683025 0
M  V30 2818 H 269.617 -0.0913324 1.94686 0
M  V30 2819 H 268.713 -1.34875 2.81452 0
M  V30 2820 N 269.014 -1.53014 -0.377408 0
M  V30 2821 C 270.239 -1.72818 -1.14668 0
M  V30 2822 C 270.664 -0.450725 -1.8262 0
M  V30 2823 O 270.022 0.59439 -1.7128 0
M  V30 2824 C 270.07 -2.88627 -2.16164 0
M  V30 2825 O 269.174 -2.56409 -3.22998 0
M  V30 2826 H 268.515 -0.574301 -0.333278 0
M  V30 2827 H 271.045 -1.99853 -0.438152 0
M  V30 2828 H 271.055 -3.14455 -2.59966 0
M  V30 2829 H 269.73 -3.81294 -1.66095 0
M  V30 2830 H 268.307 -2.4136 -2.84253 0
M  V30 2831 N 270.492 0.636531 -1.44174 0
M  V30 2832 C 271.769 1.39463 -1.37148 0
M  V30 2833 C 272.149 2.11082 -0.027507 0
M  V30 2834 O 271.497 2.05954 0.989716 0
M  V30 2835 C 271.707 2.36552 -2.56601 0
M  V30 2836 C 273.055 3.00048 -3.00427 0
M  V30 2837 O 274.079 2.46878 -2.56767 0
M  V30 2838 O 272.938 3.96488 -3.76111 0
M  V30 2839 H 270.032 0.623903 -0.542839 0
M  V30 2840 H 272.578 0.662039 -1.56253 0
M  V30 2841 H 271.35 1.82692 -3.46034 0
M  V30 2842 H 270.973 3.17236 -2.39681 0
M  V30 2843 N 271.97 1.30982 0.876444 0
M  V30 2844 C 273.195 1.23373 1.66715 0
M  V30 2845 C 273.62 -0.19885 1.87046 0
M  V30 2846 O 272.978 -1.1427 1.40756 0
M  V30 2847 C 273.026 1.97644 3.01611 0
M  V30 2848 O 272.13 1.30935 3.91062 0
M  V30 2849 H 271.471 0.426279 0.509099 0
M  V30 2850 H 274.001 1.72944 1.09323 0
M  V30 2851 H 274.011 2.06992 3.51594 0
M  V30 2852 H 272.686 3.01829 2.86133 0
M  V30 2853 H 271.263 1.29996 3.49507 0
M  V30 2854 N 273.449 -1.08991 1.13837 0
M  V30 2855 C 274.696 -1.81258 0.902882 0
M  V30 2856 C 275.024 -1.85936 -0.570803 0
M  V30 2857 O 274.279 -1.3267 -1.43865 0
M  V30 2858 C 274.578 -3.27042 1.44147 0
M  V30 2859 C 274.244 -3.4249 2.93276 0
M  V30 2860 C 272.906 -3.46414 3.33992 0
M  V30 2861 C 275.258 -3.4666 3.892 0
M  V30 2862 C 272.586 -3.52091 4.69307 0
M  V30 2863 C 274.938 -3.53872 5.24364 0
M  V30 2864 C 273.602 -3.56066 5.646 0
M  V30 2865 H 272.872 -0.663268 0.330388 0
M  V30 2866 H 275.519 -1.28368 1.42105 0
M  V30 2867 H 273.824 -3.82599 0.844097 0
M  V30 2868 H 275.521 -3.81499 1.23528 0
M  V30 2869 H 272.111 -3.40124 2.60794 0
M  V30 2870 H 276.295 -3.42865 3.58828 0
M  V30 2871 H 271.551 -3.52079 4.9985 0
M  V30 2872 H 275.725 -3.56043 5.98503 0
M  V30 2873 H 273.352 -3.60218 6.69438 0
M  V30 2874 N 274.927 -0.932562 -1.27047 0
M  V30 2875 C 275.89 -0.440064 -2.24936 0
M  V30 2876 C 276.89 0.444071 -1.54547 0
M  V30 2877 O 278.08 0.244465 -1.72476 0
M  V30 2878 C 275.212 0.36678 -3.38921 0
M  V30 2879 H 276.405 -1.305 -2.70018 0
M  V30 2880 H 273.958 -0.713707 -1.39054 0
M  V30 2881 H 274.693 1.25033 -2.99228 0
M  V30 2882 H 274.478 -0.267204 -3.91188 0
M  V30 2883 H 275.968 0.701567 -4.11665 0
M  V30 2884 N 276.405 1.4127 -0.698611 0
M  V30 2885 C 277.335 2.33447 -0.049629 0
M  V30 2886 C 278.316 1.51982 0.763898 0
M  V30 2887 O 279.501 1.80509 0.716257 0
M  V30 2888 C 276.631 3.35828 0.885267 0
M  V30 2889 C 275.585 4.27627 0.178613 0
M  V30 2890 C 274.911 5.20406 1.22807 0
M  V30 2891 C 276.211 5.13459 -0.956933 0
M  V30 2892 H 277.905 2.87966 -0.81951 0
M  V30 2893 H 275.451 1.38461 -0.395538 0
M  V30 2894 H 277.404 3.9924 1.34854 0
M  V30 2895 H 276.128 2.79666 1.68685 0
M  V30 2896 H 274.787 3.65643 -0.26466 0
M  V30 2897 H 274.435 4.60558 2.02226 0
M  V30 2898 H 274.135 5.82661 0.760239 0
M  V30 2899 H 275.659 5.86695 1.69179 0
M  V30 2900 H 277.073 5.70421 -0.573805 0
M  V30 2901 H 275.47 5.8467 -1.35205 0
M  V30 2902 H 276.54 4.50443 -1.79524 0
M  V30 2903 N 277.883 0.443576 1.51229 0
M  V30 2904 C 278.83 -0.364716 2.279 0
M  V30 2905 C 279.8 -1.0114 1.31757 0
M  V30 2906 O 280.985 -1.02912 1.60667 0
M  V30 2907 C 278.125 -1.45644 3.12861 0
M  V30 2908 C 277.238 -0.827269 4.24005 0
M  V30 2909 C 276.373 -1.89456 4.96266 0
M  V30 2910 C 275.412 -1.24416 5.99322 0
M  V30 2911 N 274.549 -2.25309 6.64966 0
M  V30 2912 H 279.389 0.295464 2.96532 0
M  V30 2913 H 276.926 0.157554 1.46254 0
M  V30 2914 H 278.884 -2.10076 3.6045 0
M  V30 2915 H 277.514 -2.08616 2.46331 0
M  V30 2916 H 276.566 -0.0710839 3.80334 0
M  V30 2917 H 277.878 -0.312481 4.9782 0
M  V30 2918 H 277.032 -2.61535 5.47434 0
M  V30 2919 H 275.771 -2.4431 4.22095 0
M  V30 2920 H 274.776 -0.508868 5.4744 0
M  V30 2921 H 276.001 -0.702882 6.75453 0
M  V30 2922 H 273.947 -2.79231 5.93604 0
M  V30 2923 H 273.864 -1.78739 7.34567 0
M  V30 2924 H 275.132 -2.96853 7.20763 0
M  V30 2925 N 279.361 -1.56624 0.175154 0
M  V30 2926 C 280.589 -2.01374 -0.474971 0
M  V30 2927 C 281.004 -1.05537 -1.56548 0
M  V30 2928 O 280.361 -0.0568668 -1.82411 0
M  V30 2929 C 280.412 -3.45923 -1.04975 0
M  V30 2930 O 280.133 -4.381 -0.00276605 0
M  V30 2931 C 281.634 -4.06093 -1.77773 0
M  V30 2932 H 278.854 -0.659962 -0.121206 0
M  V30 2933 H 281.398 -2.02601 0.27801 0
M  V30 2934 H 279.553 -3.45458 -1.75321 0
M  V30 2935 H 279.967 -5.22753 -0.427681 0
M  V30 2936 H 281.441 -5.09147 -2.13245 0
M  V30 2937 H 281.918 -3.48405 -2.67414 0
M  V30 2938 H 282.524 -4.10272 -1.12059 0
M  V30 2939 N 280.839 0.0985539 -1.57292 0
M  V30 2940 C 282.255 0.45267 -1.53046 0
M  V30 2941 C 282.455 1.80713 -0.891342 0
M  V30 2942 O 281.511 2.4785 -0.482375 0
M  V30 2943 C 282.824 0.418341 -2.97776 0
M  V30 2944 C 284.372 0.500443 -3.08973 0
M  V30 2945 C 284.847 0.496297 -4.55303 0
M  V30 2946 N 286.338 0.557151 -4.59837 0
M  V30 2947 C 287.073 0.575726 -5.70502 0
M  V30 2948 N 286.569 0.550714 -6.90608 0
M  V30 2949 N 288.362 0.620277 -5.58667 0
M  V30 2950 H 280.513 -0.788673 -1.97215 0
M  V30 2951 H 282.776 -0.293188 -0.901524 0
M  V30 2952 H 282.482 -0.509659 -3.47988 0
M  V30 2953 H 282.356 1.2386 -3.56284 0
M  V30 2954 H 284.743 1.41886 -2.58751 0
M  V30 2955 H 284.824 -0.347894 -2.53423 0
M  V30 2956 H 284.468 -0.418162 -5.06176 0
M  V30 2957 H 284.398 1.3618 -5.08687 0
M  V30 2958 H 286.889 0.581816 -3.73394 0
M  V30 2959 H 287.202 0.568075 -7.70709 0
M  V30 2960 H 285.547 0.517816 -6.93068 0
M  V30 2961 H 288.738 0.637322 -4.63741 0
M  V30 2962 H 288.911 0.631283 -6.44918 0
M  V30 2963 N 282.317 1.53212 0.369288 0
M  V30 2964 C 283.28 1.7872 1.43498 0
M  V30 2965 C 284.28 0.657554 1.46741 0
M  V30 2966 O 285.47 0.925736 1.47566 0
M  V30 2967 C 282.602 1.90591 2.82645 0
M  V30 2968 H 283.795 2.73894 1.22156 0
M  V30 2969 H 281.348 1.44233 0.602203 0
M  V30 2970 H 282.083 0.974709 3.09306 0
M  V30 2971 H 281.868 2.72751 2.8169 0
M  V30 2972 H 283.358 2.11931 3.59826 0
M  V30 2973 N 283.795 -0.628877 1.44509 0
M  V30 2974 C 285.072 -1.38733 1.37886 0
M  V30 2975 C 285.452 -2.11065 0.0387008 0
M  V30 2976 O 284.8 -2.06476 -0.97878 0
M  V30 2977 C 285.01 -2.35188 2.57852 0
M  V30 2978 C 286.358 -2.9845 3.02014 0
M  V30 2979 O 287.382 -2.45513 2.58073 0
M  V30 2980 O 286.241 -3.94487 3.78209 0
M  V30 2981 H 283.335 -0.621015 0.54614 0
M  V30 2982 H 285.881 -0.653744 1.56602 0
M  V30 2983 H 284.653 -1.80855 3.46998 0
M  V30 2984 H 284.276 -3.1596 2.4136 0
M  V30 2985 N 285.273 -1.31445 -0.869486 0
M  V30 2986 C 286.22 -1.19135 -1.97675 0
M  V30 2987 C 287.19 -0.0770266 -1.65921 0
M  V30 2988 O 288.375 -0.249972 -1.89155 0
M  V30 2989 C 285.515 -0.905149 -3.33018 0
M  V30 2990 C 284.628 -2.10285 -3.77365 0
M  V30 2991 C 283.763 -1.75339 -5.01427 0
M  V30 2992 C 282.802 -2.91515 -5.38224 0
M  V30 2993 N 281.939 -2.56762 -6.53466 0
M  V30 2994 H 286.779 -2.13853 -2.07535 0
M  V30 2995 H 284.316 -1.06379 -1.01597 0
M  V30 2996 H 286.274 -0.719765 -4.10944 0
M  V30 2997 H 284.904 0.00519624 -3.228 0
M  V30 2998 H 283.956 -2.39899 -2.95216 0
M  V30 2999 H 285.268 -2.97237 -4.00564 0
M  V30 3000 H 284.422 -1.53266 -5.87022 0
M  V30 3001 H 283.161 -0.855801 -4.80133 0
M  V30 3002 H 282.166 -3.14237 -4.51149 0
M  V30 3003 H 283.391 -3.81985 -5.61484 0
M  V30 3004 H 281.337 -1.69526 -6.33717 0
M  V30 3005 H 281.254 -3.37243 -6.76612 0
M  V30 3006 H 282.522 -2.38083 -7.42251 0
M  V30 3007 N 286.751 1.08385 -1.14413 0
M  V30 3008 C 287.661 2.18856 -0.844951 0
M  V30 3009 C 288.677 1.73121 0.174668 0
M  V30 3010 O 289.853 2.014 0.00312857 0
M  V30 3011 C 286.918 3.45155 -0.32696 0
M  V30 3012 C 285.979 4.05513 -1.40916 0
M  V30 3013 C 285.212 5.25784 -0.915793 0
M  V30 3014 O 285.435 5.69884 0.242651 0
M  V30 3015 O 284.369 5.77545 -1.69487 0
M  V30 3016 H 288.195 2.46919 -1.76818 0
M  V30 3017 H 285.78 1.17524 -0.922411 0
M  V30 3018 H 287.662 4.21377 -0.0440211 0
M  V30 3019 H 286.337 3.18668 0.568539 0
M  V30 3020 H 285.244 3.30879 -1.74556 0
M  V30 3021 H 286.577 4.3625 -2.27919 0
M  V30 3022 N 288.23 0.939286 1.26551 0
M  V30 3023 C 289.478 0.58469 1.93457 0
M  V30 3024 C 289.799 -0.878774 1.74076 0
M  V30 3025 O 289.069 -1.62421 1.09528 0
M  V30 3026 H 287.649 0.21325 0.715914 0
M  V30 3027 H 290.311 1.1942 1.54029 0
M  V30 3028 H 289.407 0.800849 3.0165 0
M  V30 3029 N 289.708 -1.40897 0.706093 0
M  V30 3030 C 290.985 -1.94868 0.169099 0
M  V30 3031 C 291.365 -1.64485 -1.32318 0
M  V30 3032 O 290.713 -0.95744 -2.07474 0
M  V30 3033 C 290.923 -3.45798 0.471654 0
M  V30 3034 C 292.271 -4.22663 0.405127 0
M  V30 3035 O 293.295 -3.53865 0.407168 0
M  V30 3036 O 292.154 -5.45216 0.374383 0
M  V30 3037 H 289.248 -0.82673 0.0211352 0
M  V30 3038 H 291.794 -1.50558 0.782976 0
M  V30 3039 H 290.566 -3.61235 1.50416 0
M  V30 3040 H 290.189 -3.97225 -0.172666 0
M  V30 3041 N 291.186 -0.45159 -1.50991 0
M  V30 3042 C 292.416 0.108177 -2.06317 0
M  V30 3043 C 292.824 1.35774 -1.31765 0
M  V30 3044 O 292.167 1.79838 -0.374694 0
M  V30 3045 C 292.229 0.481659 -3.56259 0
M  V30 3046 C 291.893 -0.663114 -4.52163 0
M  V30 3047 C 292.89 -1.53947 -4.96585 0
M  V30 3048 C 290.575 -0.8479 -4.95092 0
M  V30 3049 C 292.569 -2.58518 -5.82621 0
M  V30 3050 C 290.256 -1.89686 -5.80915 0
M  V30 3051 C 291.254 -2.76388 -6.24579 0
M  V30 3052 O 290.942 -3.79482 -7.08695 0
M  V30 3053 H 290.674 0.00499183 -0.675982 0
M  V30 3054 H 293.228 -0.633659 -1.95381 0
M  V30 3055 H 291.458 1.27641 -3.65027 0
M  V30 3056 H 293.147 0.974233 -3.94035 0
M  V30 3057 H 293.913 -1.4083 -4.64103 0
M  V30 3058 H 289.792 -0.18258 -4.60638 0
M  V30 3059 H 293.336 -3.26224 -6.16623 0
M  V30 3060 H 289.233 -2.02817 -6.12809 0
M  V30 3061 H 290.001 -3.76234 -7.26905 0
M  V30 3062 N 292.664 1.56529 -0.183458 0
M  V30 3063 C 293.894 2.01331 0.463612 0
M  V30 3064 C 294.302 1.06278 1.5653 0
M  V30 3065 O 293.645 0.0577976 1.83609 0
M  V30 3066 C 293.707 3.42547 1.09096 0
M  V30 3067 C 293.371 4.56817 0.129442 0
M  V30 3068 C 294.368 5.15734 -0.656807 0
M  V30 3069 C 292.053 5.02295 0.02174 0
M  V30 3070 C 294.047 6.1857 -1.53784 0
M  V30 3071 C 291.734 6.04978 -0.862864 0
M  V30 3072 C 292.732 6.62988 -1.64123 0
M  V30 3073 O 292.42 7.63677 -2.51103 0
M  V30 3074 H 292.152 0.664917 0.121907 0
M  V30 3075 H 294.706 2.034 -0.285954 0
M  V30 3076 H 292.936 3.37428 1.88889 0
M  V30 3077 H 294.625 3.71228 1.64148 0
M  V30 3078 H 295.391 4.81473 -0.583839 0
M  V30 3079 H 291.27 4.56847 0.617392 0
M  V30 3080 H 294.814 6.63777 -2.14583 0
M  V30 3081 H 290.711 6.38663 -0.93699 0
M  V30 3082 H 291.479 7.81049 -2.44753 0
M  V30 3083 N 294.142 -0.090211 1.57342 0
M  V30 3084 C 295.388 -0.793982 1.86611 0
M  V30 3085 C 295.721 -1.78142 0.773252 0
M  V30 3086 O 294.996 -1.93271 -0.218304 0
M  V30 3087 C 295.279 -1.51839 3.26523 0
M  V30 3088 C 295.132 -0.548609 4.46442 0
M  V30 3089 C 296.451 -2.46779 3.64401 0
M  V30 3090 H 293.57 -0.287186 0.678744 0
M  V30 3091 H 296.212 -0.0575076 1.89913 0
M  V30 3092 H 294.362 -2.14617 3.23839 0
M  V30 3093 H 296.034 0.0725513 4.61243 0
M  V30 3094 H 294.277 0.137614 4.33582 0
M  V30 3095 H 294.948 -1.09271 5.41076 0
M  V30 3096 H 297.424 -1.94089 3.68061 0
M  V30 3097 H 296.3 -2.94479 4.63221 0
M  V30 3098 H 296.561 -3.30758 2.93346 0
M  V30 3099 N 295.62 -1.53406 -0.361157 0
M  V30 3100 C 296.55 -1.83136 -1.44857 0
M  V30 3101 C 297.531 -0.685174 -1.5569 0
M  V30 3102 O 298.716 -0.93544 -1.70186 0
M  V30 3103 C 295.846 -2.02522 -2.82138 0
M  V30 3104 C 294.8 -3.18302 -2.86126 0
M  V30 3105 C 294.126 -3.22989 -4.26125 0
M  V30 3106 C 295.426 -4.56796 -2.53248 0
M  V30 3107 H 297.12 -2.74201 -1.20226 0
M  V30 3108 H 294.666 -1.31938 -0.576922 0
M  V30 3109 H 296.619 -2.21904 -3.58241 0
M  V30 3110 H 295.343 -1.08172 -3.08166 0
M  V30 3111 H 294.002 -2.98747 -2.12475 0
M  V30 3112 H 293.65 -2.26267 -4.49235 0
M  V30 3113 H 293.35 -4.00781 -4.29708 0
M  V30 3114 H 294.874 -3.44559 -5.04094 0
M  V30 3115 H 296.288 -4.7631 -3.19064 0
M  V30 3116 H 294.685 -5.36862 -2.68141 0
M  V30 3117 H 295.755 -4.61606 -1.48484 0
M  V30 3118 N 297.098 0.621204 -1.44841 0
M  V30 3119 C 298.046 1.75385 -1.52784 0
M  V30 3120 C 299.04 1.64639 -0.398779 0
M  V30 3121 O 300.246 1.70598 -0.574137 0
M  V30 3122 H 296.621 0.579193 -0.479625 0
M  V30 3123 H 298.592 1.6581 -2.48092 0
M  V30 3124 C 297.341 3.13742 -1.4987 0
M  V30 3125 H 296.664 3.22663 -2.36069 0
M  V30 3126 H 298.104 3.92861 -1.59487 0
M  V30 3127 C 296.563 3.36175 -0.220973 0
M  V30 3128 O 297.093 3.95469 0.704782 0
M  V30 3129 N 295.299 2.90348 -0.120963 0
M  V30 3130 H 294.846 2.42278 -0.875162 0
M  V30 3131 H 294.804 3.05732 0.733168 0
M  V30 3132 N 298.576 1.31904 0.862503 0
M  V30 3133 C 299.824 1.21776 1.61292 0
M  V30 3134 C 300.145 -0.222413 1.93727 0
M  V30 3135 O 299.415 -1.1451 1.58947 0
M  V30 3136 H 297.995 0.447717 0.597962 0
M  V30 3137 H 300.657 1.65326 1.03215 0
M  V30 3138 H 299.753 1.7948 2.5533 0
M  V30 3139 N 300.054 -1.07777 1.14986 0
M  V30 3140 C 301.279 -1.84558 0.946213 0
M  V30 3141 C 301.704 -1.81323 -0.500362 0
M  V30 3142 O 301.062 -1.20301 -1.35637 0
M  V30 3143 C 301.11 -3.29736 1.45968 0
M  V30 3144 O 300.214 -4.07149 0.65601 0
M  V30 3145 H 299.555 -0.571641 0.33782 0
M  V30 3146 H 302.085 -1.35991 1.52865 0
M  V30 3147 H 302.095 -3.80574 1.47063 0
M  V30 3148 H 300.77 -3.31406 2.51283 0
M  V30 3149 H 299.347 -3.65994 0.714322 0
M  V30 3150 N 301.532 -0.945985 -1.26051 0
M  V30 3151 C 302.479 -0.45809 -2.26208 0
M  V30 3152 C 303.449 0.484816 -1.58867 0
M  V30 3153 O 304.634 0.399969 -1.86561 0
M  V30 3154 C 301.774 0.266131 -3.44072 0
M  V30 3155 C 300.887 -0.713005 -4.26075 0
M  V30 3156 C 300.022 0.0329013 -5.3119 0
M  V30 3157 C 299.061 -0.93774 -6.04874 0
M  V30 3158 N 298.198 -0.223274 -7.01745 0
M  V30 3159 H 303.038 -1.3171 -2.67313 0
M  V30 3160 H 300.575 -0.66069 -1.31428 0
M  V30 3161 H 302.533 0.702514 -4.11243 0
M  V30 3162 H 301.163 1.08925 -3.03867 0
M  V30 3163 H 300.215 -1.26789 -3.58648 0
M  V30 3164 H 301.527 -1.45406 -4.77136 0
M  V30 3165 H 300.681 0.528335 -6.04395 0
M  V30 3166 H 299.42 0.806801 -4.8098 0
M  V30 3167 H 298.425 -1.44425 -5.30492 0
M  V30 3168 H 299.65 -1.71172 -6.57173 0
M  V30 3169 H 297.596 0.532046 -6.53839 0
M  V30 3170 H 297.513 -0.90357 -7.50581 0
M  V30 3171 H 298.781 0.250907 -7.79096 0
M  V30 3172 N 303.011 1.40521 -0.713556 0
M  V30 3173 C 303.944 2.28198 -0.00881422 0
M  V30 3174 C 304.922 1.43227 0.769735 0
M  V30 3175 O 306.106 1.72641 0.756799 0
M  V30 3176 C 303.233 3.23758 0.994899 0
M  V30 3177 C 302.279 4.25391 0.3074 0
M  V30 3178 S 303.112 5.26765 -0.963247 0
M  V30 3179 C 304.268 6.25888 0.0384143 0
M  V30 3180 H 304.501 2.87622 -0.752407 0
M  V30 3181 H 302.034 1.45925 -0.504502 0
M  V30 3182 H 303.992 3.79341 1.56879 0
M  V30 3183 H 302.653 2.63396 1.71118 0
M  V30 3184 H 301.846 4.92596 1.0661 0
M  V30 3185 H 301.448 3.73497 -0.193879 0
M  V30 3186 H 303.74 6.71683 0.885912 0
M  V30 3187 H 304.683 7.05552 -0.60019 0
M  V30 3188 H 305.091 5.63072 0.401233 0
M  V30 3189 N 304.489 0.459591 1.5075 0
M  V30 3190 C 305.735 -0.091664 2.03193 0
M  V30 3191 C 306.09 -1.38432 1.3362 0
M  V30 3192 O 305.383 -1.86257 0.449322 0
M  V30 3193 C 305.577 -0.342866 3.55752 0
M  V30 3194 C 305.406 0.923888 4.40107 0
M  V30 3195 C 304.176 1.46388 4.83631 0
M  V30 3196 C 306.374 1.81617 4.81165 0
M  V30 3197 N 304.356 2.68086 5.52271 0
M  V30 3198 C 305.727 2.87907 5.49099 0
M  V30 3199 C 307.782 1.82793 4.63132 0
M  V30 3200 C 306.485 3.95347 6.0091 0
M  V30 3201 C 308.511 2.89182 5.15876 0
M  V30 3202 C 307.873 3.94191 5.83774 0
M  V30 3203 H 303.972 0.00619247 0.781975 0
M  V30 3204 H 306.556 0.625233 1.84388 0
M  V30 3205 H 304.727 -1.0288 3.74527 0
M  V30 3206 H 306.459 -0.887445 3.9485 0
M  V30 3207 H 303.214 1.01466 4.62603 0
M  V30 3208 H 303.638 3.29857 5.91205 0
M  V30 3209 H 308.28 1.0293 4.1008 0
M  V30 3210 H 305.998 4.76035 6.53006 0
M  V30 3211 H 309.584 2.91061 5.0376 0
M  V30 3212 H 308.464 4.75161 6.23853 0
M  V30 3213 N 305.967 -1.56429 0.191757 0
M  V30 3214 C 307.216 -1.9666 -0.448088 0
M  V30 3215 C 307.529 -1.08136 -1.62991 0
M  V30 3216 O 308.735 -1.38135 -2.33733 0
M  V30 3217 C 307.191 -3.49753 -0.848585 0
M  V30 3218 C 306.799 -4.46935 0.308764 0
M  V30 3219 C 308.543 -3.9876 -1.4557 0
M  V30 3220 C 306.45 -5.91293 -0.112506 0
M  V30 3221 H 305.38 -0.734312 -0.171179 0
M  V30 3222 H 308.031 -1.81301 0.283242 0
M  V30 3223 H 306.413 -3.60604 -1.63649 0
M  V30 3224 H 307.587 -4.47813 1.08627 0
M  V30 3225 H 305.902 -4.08102 0.827158 0
M  V30 3226 H 308.499 -5.04086 -1.78328 0
M  V30 3227 H 308.842 -3.42875 -2.36099 0
M  V30 3228 H 309.375 -3.9101 -0.731836 0
M  V30 3229 H 306.114 -6.51097 0.758514 0
M  V30 3230 H 305.634 -5.93676 -0.854941 0
M  V30 3231 H 307.313 -6.44663 -0.549448 0
M  V30 3232 N 307.445 0.0818655 -1.57387 0
M  V30 3233 C 308.67 0.799946 -1.91352 0
M  V30 3234 C 309.095 1.70833 -0.787258 0
M  V30 3235 O 308.453 1.79419 0.26048 0
M  V30 3236 C 308.501 1.57812 -3.24234 0
M  V30 3237 O 307.605 2.68806 -3.12757 0
M  V30 3238 H 306.946 0.21891 -0.626877 0
M  V30 3239 H 309.476 0.0531256 -2.04531 0
M  V30 3240 H 309.486 1.95952 -3.57864 0
M  V30 3241 H 308.161 0.911548 -4.05788 0
M  V30 3242 H 306.738 2.33597 -2.90666 0
M  V30 3243 N 308.923 1.53595 0.353017 0
M  V30 3244 C 310.148 1.7462 1.11904 0
M  V30 3245 C 310.573 0.479721 1.8188 0
M  V30 3246 O 309.931 -0.567066 1.72204 0
M  V30 3247 C 309.979 2.92029 2.11545 0
M  V30 3248 O 309.083 2.61516 3.18878 0
M  V30 3249 H 308.424 0.579531 0.324099 0
M  V30 3250 H 310.954 2.00525 0.406301 0
M  V30 3251 H 310.964 3.18551 2.5493 0
M  V30 3252 H 309.639 3.83888 1.60008 0
M  V30 3253 H 308.216 2.45852 2.80377 0
M  V30 3254 N 310.401 -0.613514 1.45168 0
M  V30 3255 C 311.364 -1.7065 1.53007 0
M  V30 3256 C 312.364 -1.5548 0.410184 0
M  V30 3257 O 313.554 -1.60656 0.673455 0
M  V30 3258 C 310.686 -3.09875 1.42093 0
M  V30 3259 H 311.879 -1.65068 2.50385 0
M  V30 3260 H 309.432 -0.828728 1.32521 0
M  V30 3261 H 310.167 -3.21039 0.458769 0
M  V30 3262 H 309.952 -3.22293 2.23315 0
M  V30 3263 H 311.442 -3.895 1.50598 0
M  V30 3264 N 311.879 -1.3236 -0.855495 0
M  V30 3265 C 312.789 -1.23221 -1.99634 0
M  V30 3266 C 313.805 -0.145983 -1.73387 0
M  V30 3267 O 314.981 -0.366502 -1.98037 0
M  V30 3268 C 312.046 -0.954782 -3.33294 0
M  V30 3269 C 311.107 -2.12937 -3.72769 0
M  V30 3270 C 310.34 -1.86508 -5.00051 0
M  V30 3271 O 310.563 -0.807231 -5.64659 0
M  V30 3272 O 309.497 -2.72591 -5.36636 0
M  V30 3273 H 313.323 -2.19126 -2.1028 0
M  V30 3274 H 310.908 -1.12241 -0.986018 0
M  V30 3275 H 312.79 -0.816519 -4.13414 0
M  V30 3276 H 311.465 -0.0258854 -3.2369 0
M  V30 3277 H 310.372 -2.3231 -2.93228 0
M  V30 3278 H 311.705 -3.04102 -3.87018 0
M  V30 3279 N 313.357 1.07166 -1.15556 0
M  V30 3280 C 314.307 2.12649 -0.82247 0
M  V30 3281 C 315.291 1.59725 0.194129 0
M  V30 3282 O 316.483 1.76999 -0.00540402 0
M  V30 3283 C 313.612 3.41847 -0.315572 0
M  V30 3284 C 312.698 4.0162 -1.36244 0
M  V30 3285 N 313.089 4.35625 -2.5703 0
M  V30 3286 C 311.387 4.29114 -1.21562 0
M  V30 3287 C 312.088 4.83017 -3.24144 0
M  V30 3288 N 311.064 4.81906 -2.51531 0
M  V30 3289 H 314.866 2.36776 -1.74111 0
M  V30 3290 H 312.38 1.24622 -1.0413 0
M  V30 3291 H 314.377 4.16859 -0.0585855 0
M  V30 3292 H 313.037 3.19163 0.597105 0
M  V30 3293 H 314.048 4.26253 -2.94158 0
M  V30 3294 H 310.725 4.15919 -0.362988 0
M  V30 3295 H 312.115 5.18605 -4.27198 0
M  V30 3296 N 314.835 0.952656 1.25548 0
M  V30 3297 C 315.798 0.475794 2.24207 0
M  V30 3298 C 316.798 -0.419428 1.55234 0
M  V30 3299 O 317.988 -0.216994 1.72843 0
M  V30 3300 C 315.12 -0.312814 3.39462 0
M  V30 3301 H 316.313 1.34779 2.67908 0
M  V30 3302 H 313.866 0.735739 1.37901 0
M  V30 3303 H 314.601 -1.20257 3.01179 0
M  V30 3304 H 314.386 0.329404 3.90714 0
M  V30 3305 H 315.876 -0.635986 4.12729 0
M  V30 3306 N 316.313 -1.40141 0.720998 0
M  V30 3307 C 317.561 -2.0039 0.262323 0
M  V30 3308 C 317.882 -1.57469 -1.15015 0
M  V30 3309 O 317.152 -0.816582 -1.78069 0
M  V30 3310 H 315.732 -0.741063 0.093996 0
M  V30 3311 H 318.394 -1.71398 0.927835 0
M  V30 3312 H 317.49 -3.10658 0.299671 0
M  V30 3313 N 317.792 -0.46758 -1.50504 0
M  V30 3314 C 318.722 0.318381 -2.31319 0
M  V30 3315 C 319.703 0.993564 -1.38066 0
M  V30 3316 O 320.888 0.991411 -1.66987 0
M  V30 3317 C 318.018 1.40275 -3.17711 0
M  V30 3318 C 316.972 0.849373 -4.19487 0
M  V30 3319 C 316.298 2.03177 -4.94594 0
M  V30 3320 C 317.598 -0.136942 -5.2212 0
M  V30 3321 H 319.292 -0.356106 -2.97275 0
M  V30 3322 H 316.838 -0.172703 -1.42961 0
M  V30 3323 H 318.791 1.96004 -3.73042 0
M  V30 3324 H 317.515 2.10596 -2.49634 0
M  V30 3325 H 316.174 0.314076 -3.65252 0
M  V30 3326 H 315.822 2.72187 -4.22993 0
M  V30 3327 H 315.522 1.66774 -5.63436 0
M  V30 3328 H 317.046 2.59403 -5.52759 0
M  V30 3329 H 318.46 0.331056 -5.72343 0
M  V30 3330 H 316.857 -0.41507 -5.98663 0
M  V30 3331 H 317.927 -1.06398 -4.73083 0
M  V30 3332 N 319.27 1.56325 -0.20005 0
M  V30 3333 C 320.517 1.97719 0.437411 0
M  V30 3334 C 320.845 1.08709 1.61284 0
M  V30 3335 O 320.1 0.127261 1.95286 0
M  V30 3336 C 320.399 3.4495 0.935103 0
M  V30 3337 C 320.065 4.5072 -0.12749 0
M  V30 3338 C 318.727 4.79368 -0.419451 0
M  V30 3339 C 321.079 5.14268 -0.847231 0
M  V30 3340 C 318.407 5.68854 -1.43604 0
M  V30 3341 C 320.759 6.04852 -1.85301 0
M  V30 3342 C 319.423 6.31855 -2.15211 0
M  V30 3343 H 318.693 0.723507 0.16006 0
M  V30 3344 H 321.34 1.89166 -0.298056 0
M  V30 3345 H 319.645 3.50599 1.74894 0
M  V30 3346 H 321.342 3.74337 1.43781 0
M  V30 3347 H 317.932 4.28458 0.11023 0
M  V30 3348 H 322.116 4.92222 -0.634901 0
M  V30 3349 H 317.372 5.88047 -1.67364 0
M  V30 3350 H 321.546 6.53152 -2.41591 0
M  V30 3351 H 319.173 7.00994 -2.94129 0
M  V30 3352 N 320.748 -0.0735177 1.57428 0
M  V30 3353 C 321.678 -1.0879 2.06608 0
M  V30 3354 C 322.659 -1.40473 0.959237 0
M  V30 3355 O 323.844 -1.5013 1.23185 0
M  V30 3356 C 320.974 -2.40183 2.50857 0
M  V30 3357 C 319.928 -2.22858 3.65402 0
M  V30 3358 C 319.254 -3.59619 3.957 0
M  V30 3359 C 320.554 -1.65123 4.95511 0
M  V30 3360 H 322.248 -0.678673 2.91607 0
M  V30 3361 H 319.794 -0.325013 1.40284 0
M  V30 3362 H 321.747 -3.11437 2.83874 0
M  V30 3363 H 320.471 -2.83083 1.62885 0
M  V30 3364 H 319.13 -1.54045 3.32664 0
M  V30 3365 H 318.778 -4.00086 3.04861 0
M  V30 3366 H 318.478 -3.48866 4.72828 0
M  V30 3367 H 320.002 -4.32306 4.31212 0
M  V30 3368 H 321.416 -2.26241 5.26771 0
M  V30 3369 H 319.813 -1.65071 5.7695 0
M  V30 3370 H 320.883 -0.612559 4.81015 0
M  V30 3371 N 322.226 -1.5378 -0.344866 0
M  V30 3372 C 323.472 -1.71216 -1.08687 0
M  V30 3373 C 323.805 -0.473281 -1.88345 0
M  V30 3374 O 323.08 0.52968 -1.87149 0
M  V30 3375 C 323.363 -2.97486 -2.02914 0
M  V30 3376 C 323.216 -4.31579 -1.26727 0
M  V30 3377 C 324.535 -3.19422 -3.0275 0
M  V30 3378 H 321.654 -0.62301 -0.393735 0
M  V30 3379 H 324.296 -1.8645 -0.365563 0
M  V30 3380 H 322.446 -2.84629 -2.64421 0
M  V30 3381 H 324.118 -4.56284 -0.67845 0
M  V30 3382 H 322.361 -4.30049 -0.569273 0
M  V30 3383 H 323.032 -5.16106 -1.95803 0
M  V30 3384 H 325.508 -3.316 -2.51357 0
M  V30 3385 H 324.384 -4.09169 -3.65885 0
M  V30 3386 H 324.645 -2.35656 -3.74057 0
M  V30 3387 N 323.704 0.605807 -1.45491 0
M  V30 3388 C 324.637 1.73022 -1.48791 0
M  V30 3389 C 325.615 1.58917 -0.344112 0
M  V30 3390 O 326.799 1.80453 -0.544876 0
M  V30 3391 C 323.926 3.10865 -1.34463 0
M  V30 3392 C 322.972 3.43554 -2.5273 0
M  V30 3393 S 323.805 3.38196 -4.15191 0
M  V30 3394 C 324.961 4.78616 -4.03333 0
M  V30 3395 H 325.194 1.69961 -2.43928 0
M  V30 3396 H 322.727 0.782611 -1.33096 0
M  V30 3397 H 324.685 3.90398 -1.26884 0
M  V30 3398 H 323.346 3.1144 -0.40794 0
M  V30 3399 H 322.539 4.43924 -2.38637 0
M  V30 3400 H 322.141 2.71541 -2.5718 0
M  V30 3401 H 324.433 5.68463 -3.68587 0
M  V30 3402 H 325.376 4.97767 -5.03621 0
M  V30 3403 H 325.784 4.54381 -3.34959 0
M  V30 3404 N 325.182 1.32811 0.848464 0
M  V30 3405 C 326.145 1.22194 1.9391 0
M  V30 3406 C 327.145 0.143404 1.60159 0
M  V30 3407 O 328.335 0.394253 1.6968 0
M  V30 3408 C 325.467 0.88067 3.29328 0
M  V30 3409 H 326.66 2.19127 2.04752 0
M  V30 3410 H 324.213 1.16731 1.0394 0
M  V30 3411 H 324.948 -0.0865776 3.24184 0
M  V30 3412 H 324.733 1.66052 3.55203 0
M  V30 3413 H 326.223 0.830871 4.09251 0
M  V30 3414 N 326.66 -1.06551 1.16123 0
M  V30 3415 C 327.608 -2.16063 0.861371 0
M  V30 3416 C 328.602 -1.6856 -0.168517 0
M  V30 3417 O 329.808 -1.79986 -0.0227579 0
M  V30 3418 H 326.183 -0.705278 0.260934 0
M  V30 3419 H 328.154 -2.38567 1.79244 0
M  V30 3420 C 326.903 -3.45661 0.376018 0
M  V30 3421 H 326.226 -3.82604 1.15992 0
M  V30 3422 H 327.666 -4.23504 0.204951 0
M  V30 3423 C 326.125 -3.24546 -0.903954 0
M  V30 3424 O 326.655 -3.49865 -1.97377 0
M  V30 3425 N 324.861 -2.77992 -0.846679 0
M  V30 3426 H 324.408 -2.57589 0.0241017 0
M  V30 3427 H 324.366 -2.64244 -1.70359 0
M  V30 3428 N 328.138 -0.959301 -1.25041 0
M  V30 3429 C 329.384 -0.617525 -1.9317 0
M  V30 3430 C 329.717 0.843981 -1.74902 0
M  V30 3431 O 328.992 1.60615 -1.09696 0
M  V30 3432 C 329.275 -0.982736 -3.46431 0
M  V30 3433 C 329.128 -2.50032 -3.73904 0
M  V30 3434 C 330.447 -0.511176 -4.37121 0
M  V30 3435 H 327.566 -0.22582 -0.701552 0
M  V30 3436 H 330.208 -1.19679 -1.4757 0
M  V30 3437 H 328.358 -0.489806 -3.854 0
M  V30 3438 H 330.03 -3.06737 -3.44544 0
M  V30 3439 H 328.273 -2.93598 -3.19348 0
M  V30 3440 H 328.944 -2.70635 -4.81103 0
M  V30 3441 H 331.42 -0.934075 -4.0548 0
M  V30 3442 H 330.296 -0.795361 -5.43107 0
M  V30 3443 H 330.557 0.588834 -4.38161 0
M  V30 3444 N 329.616 1.39756 -0.72842 0
M  V30 3445 C 330.893 1.94574 -0.200079 0
M  V30 3446 C 331.273 1.66569 1.29684 0
M  V30 3447 O 330.621 0.990326 2.05924 0
M  V30 3448 C 330.831 3.45004 -0.526608 0
M  V30 3449 C 332.179 4.21965 -0.472318 0
M  V30 3450 O 333.203 3.53173 -0.463413 0
M  V30 3451 O 332.062 5.44552 -0.461075 0
M  V30 3452 H 329.156 0.826289 -0.0342851 0
M  V30 3453 H 331.702 1.49293 -0.806829 0
M  V30 3454 H 330.474 3.58796 -1.56144 0
M  V30 3455 H 330.097 3.97449 0.109449 0
M  V30 3456 N 331.094 0.475555 1.50254 0
M  V30 3457 C 332.505 0.0215174 1.86688 0
M  V30 3458 C 332.856 -1.38467 1.39001 0
M  V30 3459 O 331.981 -2.02732 0.756894 0
M  V30 3460 C 332.576 0.0322715 3.38785 0
M  V30 3461 C 331.135 -0.366314 3.74613 0
M  V30 3462 C 330.282 0.415832 2.74164 0
M  V30 3463 H 333.233 0.689612 1.42934 0
M  V30 3464 H 333.254 -0.76889 3.7265 0
M  V30 3465 H 332.766 1.05584 3.73462 0
M  V30 3466 H 330.867 -1.39406 3.45538 0
M  V30 3467 H 330.98 -0.064555 4.79057 0
M  V30 3468 H 329.344 -0.131048 2.54363 0
M  V30 3469 H 330.127 1.43899 3.11686 0
M  V30 3470 N 332.573 -1.56217 0.208337 0
M  V30 3471 C 333.801 -2.02337 -0.43215 0
M  V30 3472 C 334.216 -1.08834 -1.54275 0
M  V30 3473 O 333.573 -0.0955462 -1.8225 0
M  V30 3474 C 333.624 -3.48072 -0.976138 0
M  V30 3475 O 333.345 -4.38007 0.0901621 0
M  V30 3476 C 334.846 -4.09773 -1.69119 0
M  V30 3477 H 332.066 -0.662385 -0.10718 0
M  V30 3478 H 334.61 -2.01966 0.320923 0
M  V30 3479 H 332.765 -3.49099 -1.67954 0
M  V30 3480 H 333.179 -5.23543 -0.316701 0
M  V30 3481 H 334.653 -5.13556 -2.02397 0
M  V30 3482 H 335.13 -3.53999 -2.59964 0
M  V30 3483 H 335.736 -4.12556 -1.03332 0
M  V30 3484 N 334.051 0.0651679 -1.57465 0
M  V30 3485 C 335.3 0.761916 -1.86756 0
M  V30 3486 C 335.613 1.78406 -0.801925 0
M  V30 3487 O 336.819 2.53084 -0.982885 0
M  V30 3488 C 335.275 1.40603 -3.31299 0
M  V30 3489 C 334.883 0.422115 -4.46007 0
M  V30 3490 C 336.627 2.08476 -3.69781 0
M  V30 3491 C 334.534 1.07252 -5.81593 0
M  V30 3492 H 333.464 0.288308 -0.696702 0
M  V30 3493 H 336.115 0.015344 -1.83494 0
M  V30 3494 H 334.497 2.20109 -3.29193 0
M  V30 3495 H 335.671 -0.343613 -4.59517 0
M  V30 3496 H 333.986 -0.152527 -4.16121 0
M  V30 3497 H 336.583 2.57925 -4.68379 0
M  V30 3498 H 336.926 2.88712 -2.99919 0
M  V30 3499 H 337.459 1.35792 -3.73905 0
M  V30 3500 H 334.198 0.310342 -6.54765 0
M  V30 3501 H 333.718 1.80895 -5.71872 0
M  V30 3502 H 335.397 1.59043 -6.27148 0
M  V30 3503 N 335.529 1.53961 0.336706 0
M  V30 3504 C 336.777 1.71197 1.07405 0
M  V30 3505 C 337.098 0.481475 1.88962 0
M  V30 3506 O 336.368 -0.504585 1.8929 0
M  V30 3507 H 334.948 0.631185 0.399517 0
M  V30 3508 H 337.61 1.91232 0.376323 0
M  V30 3509 H 336.706 2.58587 1.74755 0
M  V30 3510 N 337.007 -0.598083 1.45811 0
M  V30 3511 C 338.237 -1.38121 1.53643 0
M  V30 3512 C 338.645 -1.88425 0.171081 0
M  V30 3513 O 337.988 -1.63409 -0.839237 0
M  V30 3514 C 338.05 -2.61432 2.46766 0
M  V30 3515 C 337.714 -2.32702 3.93318 0
M  V30 3516 C 338.711 -1.92479 4.82957 0
M  V30 3517 C 336.396 -2.45321 4.38318 0
M  V30 3518 C 338.39 -1.65248 6.15607 0
M  V30 3519 C 336.077 -2.17703 5.71007 0
M  V30 3520 C 337.075 -1.7773 6.5947 0
M  V30 3521 O 336.763 -1.50441 7.89698 0
M  V30 3522 H 336.495 -0.428863 0.522544 0
M  V30 3523 H 339.049 -0.73557 1.91777 0
M  V30 3524 H 337.279 -3.28749 2.0362 0
M  V30 3525 H 338.968 -3.23487 2.45175 0
M  V30 3526 H 339.734 -1.82258 4.49452 0
M  V30 3527 H 335.613 -2.75399 3.69697 0
M  V30 3528 H 339.157 -1.33973 6.84614 0
M  V30 3529 H 335.054 -2.27544 6.04065 0
M  V30 3530 H 335.822 -1.64415 8.01817 0
M  V30 3531 N 338.485 -1.33259 -0.841409 0
M  V30 3532 C 339.432 -1.23302 -1.95103 0
M  V30 3533 C 340.402 -0.112204 -1.65721 0
M  V30 3534 O 341.587 -0.290038 -1.88583 0
M  V30 3535 C 338.727 -0.975583 -3.31023 0
M  V30 3536 C 337.84 -2.18243 -3.72819 0
M  V30 3537 C 336.975 -1.85936 -4.97595 0
M  V30 3538 C 336.014 -3.02866 -5.3192 0
M  V30 3539 N 335.151 -2.70565 -6.47873 0
M  V30 3540 H 339.991 -2.18207 -2.02952 0
M  V30 3541 H 337.528 -1.0851 -0.993173 0
M  V30 3542 H 339.486 -0.80677 -4.09325 0
M  V30 3543 H 338.116 -0.0632755 -3.22738 0
M  V30 3544 H 337.168 -2.46107 -2.90061 0
M  V30 3545 H 338.48 -3.05666 -3.94169 0
M  V30 3546 H 337.634 -1.65684 -5.83638 0
M  V30 3547 H 336.373 -0.957452 -4.78209 0
M  V30 3548 H 335.378 -3.23736 -4.44382 0
M  V30 3549 H 336.603 -3.93809 -5.53255 0
M  V30 3550 H 334.549 -1.8293 -6.29978 0
M  V30 3551 H 334.466 -3.51519 -6.69306 0
M  V30 3552 H 335.734 -2.53774 -7.37034 0
M  V30 3553 N 339.963 1.05934 -1.16686 0
M  V30 3554 C 341.211 1.78447 -0.948744 0
M  V30 3555 C 341.532 1.87813 0.524523 0
M  V30 3556 O 340.802 1.38945 1.38098 0
M  V30 3557 H 339.382 0.660971 -0.348033 0
M  V30 3558 H 342.044 1.27947 -1.47022 0
M  V30 3559 H 341.14 2.80394 -1.37061 0
M  V30 3560 N 341.441 0.965919 1.2453 0
M  V30 3561 C 342.69 0.622437 1.91856 0
M  V30 3562 C 343.003 -0.846006 1.76358 0
M  V30 3563 O 344.209 -1.29993 2.38357 0
M  V30 3564 C 342.665 1.0626 3.43856 0
M  V30 3565 C 342.273 2.55437 3.68043 0
M  V30 3566 C 344.017 0.792183 4.17043 0
M  V30 3567 C 341.924 2.93196 5.13605 0
M  V30 3568 H 340.854 0.229092 0.718354 0
M  V30 3569 H 343.505 1.17189 1.41206 0
M  V30 3570 H 341.887 0.441476 3.93531 0
M  V30 3571 H 343.061 3.22665 3.28974 0
M  V30 3572 H 341.376 2.8007 3.08139 0
M  V30 3573 H 343.973 1.05031 5.24283 0
M  V30 3574 H 344.316 -0.271584 4.15413 0
M  V30 3575 H 344.849 1.37419 3.73311 0
M  V30 3576 H 341.588 3.98636 5.20355 0
M  V30 3577 H 341.108 2.30651 5.53679 0
M  V30 3578 H 342.787 2.83004 5.81823 0
M  V30 3579 N 342.919 -1.39368 0.735821 0
M  V30 3580 C 344.147 -2.04795 0.294393 0
M  V30 3581 C 344.562 -1.55478 -1.07107 0
M  V30 3582 O 343.919 -0.720038 -1.67695 0
M  V30 3583 C 343.97 -3.6035 0.288071 0
M  V30 3584 O 343.691 -4.07852 1.59963 0
M  V30 3585 C 345.192 -4.42976 -0.169422 0
M  V30 3586 H 342.412 -0.658571 0.128551 0
M  V30 3587 H 344.956 -1.78399 0.999701 0
M  V30 3588 H 343.111 -3.85645 -0.368355 0
M  V30 3589 H 343.525 -5.02181 1.51375 0
M  V30 3590 H 344.999 -5.51864 -0.122687 0
M  V30 3591 H 345.476 -4.22068 -1.21472 0
M  V30 3592 H 346.082 -4.22832 0.457469 0
M  V30 3593 N 344.397 -0.483516 -1.5 0
M  V30 3594 C 345.622 0.0667119 -2.07293 0
M  V30 3595 C 346.047 1.3164 -1.3436 0
M  V30 3596 O 345.405 1.76945 -0.394987 0
M  V30 3597 C 345.453 0.321126 -3.59167 0
M  V30 3598 O 344.557 1.39927 -3.87936 0
M  V30 3599 H 343.898 -0.0184758 -0.663743 0
M  V30 3600 H 346.428 -0.678125 -1.93035 0
M  V30 3601 H 346.438 0.557906 -4.04168 0
M  V30 3602 H 345.113 -0.592007 -4.11665 0
M  V30 3603 H 343.69 1.14882 -3.54763 0
M  V30 3604 N 345.875 1.56104 -0.216619 0
M  V30 3605 C 347.122 1.98172 0.416416 0
M  V30 3606 C 347.45 1.10413 1.60122 0
M  V30 3607 O 346.705 0.147967 1.9514 0
M  V30 3608 C 347.004 3.45923 0.898464 0
M  V30 3609 C 346.67 4.50559 -0.175288 0
M  V30 3610 C 345.332 4.78897 -0.470271 0
M  V30 3611 C 347.684 5.1334 -0.901728 0
M  V30 3612 C 345.012 5.67299 -1.4963 0
M  V30 3613 C 347.364 6.02853 -1.91705 0
M  V30 3614 C 346.028 6.29537 -2.21901 0
M  V30 3615 H 345.298 0.725164 0.152377 0
M  V30 3616 H 347.945 1.88839 -0.318103 0
M  V30 3617 H 346.25 3.52434 1.71165 0
M  V30 3618 H 347.947 3.75841 1.39803 0
M  V30 3619 H 344.537 4.28551 0.0647806 0
M  V30 3620 H 348.721 4.91521 -0.687072 0
M  V30 3621 H 343.977 5.86239 -1.73592 0
M  V30 3622 H 348.151 6.50552 -2.48505 0
M  V30 3623 H 345.778 6.97835 -3.01548 0
M  V30 3624 N 347.353 -0.0568162 1.57498 0
M  V30 3625 C 348.283 -1.06593 2.0775 0
M  V30 3626 C 349.264 -1.39448 0.974082 0
M  V30 3627 O 350.449 -1.48815 1.24771 0
M  V30 3628 C 347.579 -2.37509 2.5339 0
M  V30 3629 C 346.533 -2.1897 3.67745 0
M  V30 3630 C 345.859 -3.55402 3.99492 0
M  V30 3631 C 347.159 -1.59859 4.97235 0
M  V30 3632 H 348.853 -0.647706 2.9231 0
M  V30 3633 H 346.399 -0.310116 1.40621 0
M  V30 3634 H 348.352 -3.08409 2.87162 0
M  V30 3635 H 347.076 -2.8134 1.65878 0
M  V30 3636 H 345.735 -1.50508 3.3428 0
M  V30 3637 H 345.383 -3.9683 3.09088 0
M  V30 3638 H 345.083 -3.43831 4.76502 0
M  V30 3639 H 346.607 -4.27708 4.35773 0
M  V30 3640 H 348.021 -2.20642 5.29141 0
M  V30 3641 H 346.418 -1.58942 5.78669 0
M  V30 3642 H 347.488 -0.561506 4.81638 0
M  V30 3643 N 348.832 -1.54138 -0.328536 0
M  V30 3644 C 350.078 -1.7236 -1.06865 0
M  V30 3645 C 350.411 -0.493231 -1.87832 0
M  V30 3646 O 349.686 0.5098 -1.877 0
M  V30 3647 C 349.969 -2.99621 -1.99747 0
M  V30 3648 C 349.822 -4.32899 -1.22143 0
M  V30 3649 C 351.141 -3.22615 -2.99345 0
M  V30 3650 H 348.26 -0.627151 -0.387105 0
M  V30 3651 H 350.902 -1.86827 -0.345767 0
M  V30 3652 H 349.052 -2.87418 -2.61387 0
M  V30 3653 H 350.724 -4.56978 -0.630017 0
M  V30 3654 H 348.967 -4.30628 -0.523628 0
M  V30 3655 H 349.638 -5.18154 -1.90318 0
M  V30 3656 H 352.114 -3.34248 -2.47826 0
M  V30 3657 H 350.99 -4.13027 -3.61524 0
M  V30 3658 H 351.251 -2.3961 -3.71536 0
M  V30 3659 N 350.31 0.590341 -1.46126 0
M  V30 3660 C 351.587 1.35029 -1.41515 0
M  V30 3661 C 351.967 2.10888 -0.0946472 0
M  V30 3662 O 351.315 2.08998 0.923693 0
M  V30 3663 C 351.525 2.28269 -2.63997 0
M  V30 3664 C 352.873 2.90338 -3.09821 0
M  V30 3665 O 353.897 2.38585 -2.64492 0
M  V30 3666 O 352.756 3.84321 -3.88535 0
M  V30 3667 H 349.85 0.606317 -0.562413 0
M  V30 3668 H 352.396 0.611994 -1.58281 0
M  V30 3669 H 351.168 1.71591 -3.51671 0
M  V30 3670 H 350.791 3.0945 -2.49652 0
M  V30 3671 N 351.788 1.33704 0.83433 0
M  V30 3672 C 353.204 1.13137 1.12571 0
M  V30 3673 C 353.404 -0.0747261 2.01361 0
M  V30 3674 O 352.46 -0.753647 2.4099 0
M  V30 3675 C 353.773 2.42105 1.78342 0
M  V30 3676 C 355.321 2.48054 1.90888 0
M  V30 3677 C 355.796 3.76995 2.60075 0
M  V30 3678 N 357.287 3.78092 2.67584 0
M  V30 3679 C 358.022 4.74574 3.21818 0
M  V30 3680 N 357.518 5.81434 3.76705 0
M  V30 3681 N 359.311 4.62044 3.20112 0
M  V30 3682 H 351.462 2.11 0.243489 0
M  V30 3683 H 353.725 0.932532 0.17055 0
M  V30 3684 H 353.431 3.30391 1.20561 0
M  V30 3685 H 353.305 2.54594 2.7832 0
M  V30 3686 H 355.692 1.60215 2.47821 0
M  V30 3687 H 355.773 2.39502 0.898459 0
M  V30 3688 H 355.417 4.65219 2.03799 0
M  V30 3689 H 355.347 3.82825 3.61597 0
M  V30 3690 H 357.838 3.00865 2.28667 0
M  V30 3691 H 358.151 6.51084 4.16305 0
M  V30 3692 H 356.496 5.85163 3.7498 0
M  V30 3693 H 359.687 3.77716 2.76493 0
M  V30 3694 H 359.86 5.37406 3.62076 0
M  V30 3695 N 353.266 -1.05314 1.17247 0
M  V30 3696 C 354.543 -1.75184 0.87005 0
M  V30 3697 C 354.923 -2.01481 -0.629965 0
M  V30 3698 O 354.271 -1.64988 -1.58086 0
M  V30 3699 C 354.481 -3.04594 1.70363 0
M  V30 3700 C 355.829 -3.78567 1.92281 0
M  V30 3701 O 356.853 -3.14461 1.67311 0
M  V30 3702 O 355.712 -4.93755 2.3424 0
M  V30 3703 H 352.806 -0.761729 0.322021 0
M  V30 3704 H 355.352 -1.11493 1.27935 0
M  V30 3705 H 354.124 -2.81201 2.72106 0
M  V30 3706 H 353.747 -3.76022 1.29202 0
M  V30 3707 N 354.744 -0.972509 -1.24016 0
M  V30 3708 C 355.972 -0.654803 -1.96265 0
M  V30 3709 C 356.387 0.776708 -1.72083 0
M  V30 3710 O 355.744 1.52171 -1.00748 0
M  V30 3711 C 355.795 -0.92592 -3.49441 0
M  V30 3712 O 355.516 -2.30116 -3.72798 0
M  V30 3713 C 357.017 -0.623068 -4.38899 0
M  V30 3714 H 354.237 -0.243907 -0.6251 0
M  V30 3715 H 356.781 -1.30175 -1.57717 0
M  V30 3716 H 354.936 -0.325108 -3.86033 0
M  V30 3717 H 355.35 -2.38483 -4.67147 0
M  V30 3718 H 356.824 -0.863189 -5.45209 0
M  V30 3719 H 357.301 0.442754 -4.36963 0
M  V30 3720 H 357.907 -1.204 -4.07902 0
M  V30 3721 N 356.222 1.38976 -0.743202 0
M  V30 3722 C 357.633 1.83123 -0.363732 0
M  V30 3723 C 357.984 1.6205 1.10609 0
M  V30 3724 O 357.109 1.11606 1.854 0
M  V30 3725 C 357.704 3.32439 -0.653408 0
M  V30 3726 C 356.263 3.74974 -0.327338 0
M  V30 3727 C 355.41 2.61878 -0.911875 0
M  V30 3728 H 358.361 1.27852 -0.940191 0
M  V30 3729 H 358.382 3.80432 0.0720031 0
M  V30 3730 H 357.894 3.47745 -1.72323 0
M  V30 3731 H 355.995 3.65252 0.736314 0
M  V30 3732 H 356.108 4.72106 -0.815631 0
M  V30 3733 H 354.472 2.52448 -0.337944 0
M  V30 3734 H 355.255 2.79987 -1.98651 0
M  V30 3735 N 357.7 0.491464 1.49741 0
M  V30 3736 C 358.948 -0.0563141 2.02022 0
M  V30 3737 C 359.269 -1.38363 1.37407 0
M  V30 3738 O 358.539 -1.88702 0.526166 0
M  V30 3739 H 357.119 -0.0238014 0.746621 0
M  V30 3740 H 359.781 0.646533 1.83864 0
M  V30 3741 H 358.877 -0.192967 3.11503 0
M  V30 3742 N 359.178 -1.55987 0.224894 0
M  V30 3743 C 360.108 -2.23426 -0.678457 0
M  V30 3744 C 361.089 -1.20709 -1.19847 0
M  V30 3745 O 362.274 -1.49304 -1.24186 0
M  V30 3746 C 359.404 -2.91676 -1.88527 0
M  V30 3747 C 358.358 -4.00893 -1.49896 0
M  V30 3748 C 357.684 -4.56455 -2.78483 0
M  V30 3749 C 358.984 -5.17769 -0.686461 0
M  V30 3750 H 360.678 -2.99175 -0.116173 0
M  V30 3751 H 358.224 -1.43897 -0.054436 0
M  V30 3752 H 360.177 -3.37547 -2.5227 0
M  V30 3753 H 358.901 -2.1338 -2.47258 0
M  V30 3754 H 357.56 -3.55758 -0.884985 0
M  V30 3755 H 357.208 -3.74886 -3.35365 0
M  V30 3756 H 356.908 -5.30169 -2.53368 0
M  V30 3757 H 358.432 -5.05047 -3.43162 0
M  V30 3758 H 359.846 -5.60001 -1.22767 0
M  V30 3759 H 358.243 -5.97735 -0.532259 0
M  V30 3760 H 359.313 -4.83932 0.306196 0
M  V30 3761 N 360.656 0.0484629 -1.57525 0
M  V30 3762 C 361.606 1.06246 -2.01732 0
M  V30 3763 C 362.59 1.33155 -0.903245 0
M  V30 3764 O 363.782 1.33065 -1.16717 0
M  V30 3765 C 360.911 2.36943 -2.48421 0
M  V30 3766 C 359.997 2.13208 -3.6661 0
M  V30 3767 N 360.388 1.5947 -4.80003 0
M  V30 3768 C 358.686 2.43581 -3.7361 0
M  V30 3769 C 359.387 1.51092 -5.61735 0
M  V30 3770 N 358.363 1.9797 -5.0627 0
M  V30 3771 H 362.165 0.640675 -2.86832 0
M  V30 3772 H 359.679 0.255134 -1.60383 0
M  V30 3773 H 361.676 3.10374 -2.78341 0
M  V30 3774 H 360.336 2.79818 -1.64718 0
M  V30 3775 H 361.347 1.28008 -5.01831 0
M  V30 3776 H 358.024 2.89662 -3.00669 0
M  V30 3777 H 359.414 1.10199 -6.62801 0
M  V30 3778 N 362.134 1.5431 0.320358 0
M  V30 3779 C 363.383 1.7188 1.05546 0
M  V30 3780 C 363.696 0.501143 1.89071 0
M  V30 3781 O 364.902 0.558258 2.65699 0
M  V30 3782 C 363.358 3.04025 1.92605 0
M  V30 3783 C 362.966 4.33207 1.14176 0
M  V30 3784 C 364.71 3.30959 2.65832 0
M  V30 3785 C 362.617 5.56412 2.00399 0
M  V30 3786 H 361.547 0.640547 0.397763 0
M  V30 3787 H 364.198 1.80802 0.313522 0
M  V30 3788 H 362.58 2.89019 2.7071 0
M  V30 3789 H 363.754 4.58989 0.40819 0
M  V30 3790 H 362.069 4.13062 0.526165 0
M  V30 3791 H 364.666 4.20203 3.30656 0
M  V30 3792 H 365.009 2.48979 3.33639 0
M  V30 3793 H 365.542 3.46847 1.94787 0
M  V30 3794 H 362.281 6.41004 1.37094 0
M  V30 3795 H 361.801 5.34844 2.7148 0
M  V30 3796 H 363.48 5.92938 2.58908 0
M  V30 3797 N 363.613 -0.582584 1.46437 0
M  V30 3798 C 364.861 -1.33814 1.51453 0
M  V30 3799 C 365.182 -1.94277 0.167792 0
M  V30 3800 O 364.452 -1.78566 -0.805677 0
M  V30 3801 H 363.032 -0.496838 0.557818 0
M  V30 3802 H 365.694 -0.682281 1.82568 0
M  V30 3803 H 364.79 -2.14479 2.26728 0
M  V30 3804 N 365.091 -1.34144 -0.827227 0
M  V30 3805 C 366.038 -1.25364 -1.93785 0
M  V30 3806 C 367.008 -0.129774 -1.65592 0
M  V30 3807 O 368.193 -0.310024 -1.88264 0
M  V30 3808 C 365.333 -1.01064 -3.2997 0
M  V30 3809 C 364.446 -2.22185 -3.70484 0
M  V30 3810 C 363.581 -1.91203 -4.95595 0
M  V30 3811 C 362.62 -3.08491 -5.28677 0
M  V30 3812 N 361.757 -2.77421 -6.44967 0
M  V30 3813 H 366.597 -2.20347 -2.00627 0
M  V30 3814 H 364.134 -1.09558 -0.981608 0
M  V30 3815 H 366.092 -0.850139 -4.08446 0
M  V30 3816 H 364.722 -0.0975026 -3.22653 0
M  V30 3817 H 363.774 -2.4917 -2.87434 0
M  V30 3818 H 365.086 -3.0983 -3.90905 0
M  V30 3819 H 364.24 -1.71864 -5.81848 0
M  V30 3820 H 362.979 -1.00812 -4.77167 0
M  V30 3821 H 361.984 -3.28431 -4.40923 0
M  V30 3822 H 363.209 -3.99655 -5.49047 0
M  V30 3823 H 361.155 -1.89601 -6.28003 0
M  V30 3824 H 361.072 -3.58598 -6.6554 0
M  V30 3825 H 362.34 -2.61577 -7.34301 0
M  V30 3826 N 366.569 1.04691 -1.17803 0
M  V30 3827 C 367.98 1.59238 -0.974689 0
M  V30 3828 C 368.331 1.90306 0.477292 0
M  V30 3829 O 367.456 1.68846 1.35352 0
M  V30 3830 C 368.051 2.89318 -1.76296 0
M  V30 3831 C 366.61 3.40506 -1.60414 0
M  V30 3832 C 365.757 2.14172 -1.76141 0
M  V30 3833 H 368.708 0.874395 -1.32439 0
M  V30 3834 H 368.729 3.5944 -1.24833 0
M  V30 3835 H 368.241 2.66675 -2.81968 0
M  V30 3836 H 366.342 3.68175 -0.572519 0
M  V30 3837 H 366.455 4.14753 -2.39827 0
M  V30 3838 H 364.819 2.25176 -1.19028 0
M  V30 3839 H 365.602 1.93992 -2.83235 0
M  V30 3840 N 368.047 0.979072 1.23499 0
M  V30 3841 C 368.957 0.526431 2.28617 0
M  V30 3842 C 369.973 -0.418126 1.68901 0
M  V30 3843 O 371.149 -0.288372 1.99325 0
M  V30 3844 C 368.214 -0.165235 3.46306 0
M  V30 3845 C 367.275 0.82056 4.21385 0
M  V30 3846 C 366.508 0.161807 5.33455 0
M  V30 3847 O 366.731 -1.04742 5.60701 0
M  V30 3848 O 365.665 0.859708 5.95729 0
M  V30 3849 H 369.491 1.4006 2.69475 0
M  V30 3850 H 367.076 0.746643 1.29405 0
M  V30 3851 H 368.958 -0.553287 4.17752 0
M  V30 3852 H 367.633 -1.01419 3.07402 0
M  V30 3853 H 366.54 1.25929 3.52268 0
M  V30 3854 H 367.873 1.63828 4.64135 0
M  V30 3855 N 369.525 -1.3858 0.750561 0
M  V30 3856 C 370.473 -2.32339 0.110162 0
M  V30 3857 C 371.467 -1.53864 -0.708674 0
M  V30 3858 O 372.673 -1.69417 -0.608112 0
M  V30 3859 H 369.048 -0.751812 0.0168275 0
M  V30 3860 H 371.019 -2.83959 0.917053 0
M  V30 3861 C 369.768 -3.39043 -0.771067 0
M  V30 3862 H 369.091 -3.99517 -0.150374 0
M  V30 3863 H 370.531 -4.07061 -1.1865 0
M  V30 3864 C 368.99 -2.77365 -1.91234 0
M  V30 3865 O 369.52 -2.66434 -3.00626 0
M  V30 3866 N 367.726 -2.35219 -1.70646 0
M  V30 3867 H 367.273 -2.4431 -0.81673 0
M  V30 3868 H 367.231 -1.94294 -2.47178 0
M  V30 3869 N 371.003 -0.499398 -1.49478 0
M  V30 3870 C 371.95 0.279881 -2.29097 0
M  V30 3871 C 372.92 0.961805 -1.3542 0
M  V30 3872 O 374.105 0.968777 -1.64376 0
M  V30 3873 C 371.245 1.33932 -3.18051 0
M  V30 3874 C 370.358 0.669333 -4.26783 0
M  V30 3875 C 369.493 1.70907 -5.02955 0
M  V30 3876 C 368.532 1.02087 -6.03527 0
M  V30 3877 N 367.669 2.00474 -6.7287 0
M  V30 3878 H 372.509 -0.405317 -2.95231 0
M  V30 3879 H 370.046 -0.211726 -1.45568 0
M  V30 3880 H 372.004 1.96553 -3.67998 0
M  V30 3881 H 370.634 1.9933 -2.53904 0
M  V30 3882 H 369.686 -0.0701234 -3.80335 0
M  V30 3883 H 370.998 0.127503 -4.98637 0
M  V30 3884 H 370.152 2.41037 -5.56764 0
M  V30 3885 H 368.891 2.28476 -4.30871 0
M  V30 3886 H 367.896 0.305338 -5.48951 0
M  V30 3887 H 369.121 0.451708 -6.77596 0
M  V30 3888 H 367.067 2.57007 -6.03559 0
M  V30 3889 H 366.984 1.51353 -7.40694 0
M  V30 3890 H 368.252 2.69897 -7.31284 0
M  V30 3891 N 372.481 1.55866 -0.233164 0
M  V30 3892 C 373.411 2.23783 0.666599 0
M  V30 3893 C 374.392 1.21343 1.19205 0
M  V30 3894 O 375.577 1.4996 1.23392 0
M  V30 3895 C 372.707 2.92671 1.86978 0
M  V30 3896 C 371.661 4.01682 1.47768 0
M  V30 3897 C 370.987 4.57926 2.76058 0
M  V30 3898 C 372.287 5.18126 0.658993 0
M  V30 3899 H 373.981 2.99232 0.100306 0
M  V30 3900 H 371.527 1.43924 0.046804 0
M  V30 3901 H 373.48 3.3888 2.50476 0
M  V30 3902 H 372.204 2.14688 2.46123 0
M  V30 3903 H 370.863 3.56222 0.866106 0
M  V30 3904 H 370.511 3.76659 3.33372 0
M  V30 3905 H 370.211 5.31505 2.50552 0
M  V30 3906 H 371.735 5.06859 3.40479 0
M  V30 3907 H 373.149 5.60644 1.19795 0
M  V30 3908 H 371.546 5.98009 0.500552 0
M  V30 3909 H 372.616 4.83763 -0.331856 0
M  V30 3910 N 373.959 -0.0401083 1.57549 0
M  V30 3911 C 375.207 -0.731677 1.8839 0
M  V30 3912 C 375.528 -1.76481 0.829425 0
M  V30 3913 O 374.798 -1.95411 -0.1383 0
M  V30 3914 H 373.378 -0.273225 0.695239 0
M  V30 3915 H 376.04 -0.00867725 1.94898 0
M  V30 3916 H 375.136 -1.22816 2.86919 0
M  V30 3917 N 375.437 -1.54477 -0.31217 0
M  V30 3918 C 376.367 -1.87652 -1.38957 0
M  V30 3919 C 377.348 -0.734358 -1.53431 0
M  V30 3920 O 378.533 -0.98911 -1.67123 0
M  V30 3921 C 375.663 -2.11396 -2.75552 0
M  V30 3922 C 374.617 -3.27243 -2.75855 0
M  V30 3923 C 373.943 -3.36382 -4.15633 0
M  V30 3924 C 375.243 -4.64622 -2.38587 0
M  V30 3925 H 376.937 -2.77887 -1.11442 0
M  V30 3926 H 374.483 -1.33707 -0.534655 0
M  V30 3927 H 376.436 -2.33189 -3.51 0
M  V30 3928 H 375.16 -1.17921 -3.04569 0
M  V30 3929 H 373.819 -3.05356 -2.02863 0
M  V30 3930 H 373.467 -2.40445 -4.41809 0
M  V30 3931 H 373.167 -4.14249 -4.1674 0
M  V30 3932 H 374.691 -3.60422 -4.92877 0
M  V30 3933 H 376.105 -4.86219 -3.03749 0
M  V30 3934 H 374.502 -5.45121 -2.50925 0
M  V30 3935 H 375.572 -4.66097 -1.33723 0
M  V30 3936 N 376.915 0.57481 -1.46744 0
M  V30 3937 C 378.331 0.898981 -1.31873 0
M  V30 3938 C 378.531 1.99313 -0.29605 0
M  V30 3939 O 377.587 2.50728 0.298621 0
M  V30 3940 C 378.9 1.30886 -2.7072 0
M  V30 3941 C 380.448 1.42127 -2.78871 0
M  V30 3942 C 380.923 1.86478 -4.18318 0
M  V30 3943 N 382.414 1.93658 -4.20774 0
M  V30 3944 C 383.149 2.29267 -5.2557 0
M  V30 3945 N 382.645 2.63612 -6.40688 0
M  V30 3946 N 384.438 2.29889 -5.1294 0
M  V30 3947 H 376.589 -0.147839 -2.11885 0
M  V30 3948 H 378.852 -0.00347013 -0.947994 0
M  V30 3949 H 378.558 0.578853 -3.46904 0
M  V30 3950 H 378.432 2.26874 -3.01343 0
M  V30 3951 H 380.819 2.14213 -2.0297 0
M  V30 3952 H 380.9 0.443705 -2.51922 0
M  V30 3953 H 380.544 1.14968 -4.94717 0
M  V30 3954 H 380.474 2.85207 -4.42679 0
M  V30 3955 H 382.965 1.69574 -3.37718 0
M  V30 3956 H 383.278 2.89759 -7.16421 0
M  V30 3957 H 381.623 2.61232 -6.44036 0
M  V30 3958 H 384.814 2.02485 -4.22039 0
M  V30 3959 H 384.987 2.57312 -5.94722 0
M  V30 3960 N 378.394 1.34581 0.820102 0
M  V30 3961 C 379.357 1.2628 1.91275 0
M  V30 3962 C 380.357 0.177344 1.59819 0
M  V30 3963 O 381.547 0.430156 1.68806 0
M  V30 3964 C 378.679 0.950327 3.27386 0
M  V30 3965 H 379.872 2.23421 2.00057 0
M  V30 3966 H 377.425 1.1891 1.0144 0
M  V30 3967 H 378.16 -0.0177938 3.24295 0
M  V30 3968 H 377.945 1.73549 3.51601 0
M  V30 3969 H 379.435 0.917492 4.07396 0
M  V30 3970 N 379.872 -1.04064 1.18357 0
M  V30 3971 C 381.097 -1.81454 1.00445 0
M  V30 3972 C 381.522 -1.82823 -0.442423 0
M  V30 3973 O 380.88 -1.24555 -1.31741 0
M  V30 3974 C 380.928 -3.24925 1.56384 0
M  V30 3975 O 380.032 -4.04856 0.785209 0
M  V30 3976 H 379.373 -0.560604 0.355835 0
M  V30 3977 H 381.903 -1.31059 1.57114 0
M  V30 3978 H 381.913 -3.75702 1.59097 0
M  V30 3979 H 380.588 -3.23244 2.61699 0
M  V30 3980 H 379.165 -3.63537 0.830399 0
M  V30 3981 N 381.35 -0.985608 -1.22978 0
M  V30 3982 C 382.575 -0.675254 -1.961 0
M  V30 3983 C 383 0.752154 -1.72407 0
M  V30 3984 O 382.358 1.5131 -0.998751 0
M  V30 3985 C 382.406 -0.977899 -3.47087 0
M  V30 3986 O 381.51 -0.072685 -4.12336 0
M  V30 3987 H 380.851 -0.253443 -0.613728 0
M  V30 3988 H 383.381 -1.32061 -1.56272 0
M  V30 3989 H 383.391 -0.916739 -3.97567 0
M  V30 3990 H 382.066 -2.01807 -3.63657 0
M  V30 3991 H 380.643 -0.188703 -3.72422 0
M  V30 3992 N 382.828 1.3818 -0.7579 0
M  V30 3993 C 384.056 2.04301 -0.326937 0
M  V30 3994 C 384.471 1.57163 1.0462 0
M  V30 3995 O 383.828 0.746626 1.66529 0
M  V30 3996 C 383.879 3.59846 -0.345363 0
M  V30 3997 O 383.6 4.05256 -1.66432 0
M  V30 3998 C 385.101 4.4319 0.098927 0
M  V30 3999 H 382.321 0.656443 -0.139012 0
M  V30 4000 H 384.865 1.76786 -1.02796 0
M  V30 4001 H 383.02 3.86182 0.306955 0
M  V30 4002 H 383.434 4.99709 -1.59345 0
M  V30 4003 H 384.908 5.51989 0.0348745 0
M  V30 4004 H 385.385 4.23947 1.14741 0
M  V30 4005 H 385.991 4.22051 -0.52468 0
M  V30 4006 N 384.306 0.507319 1.49211 0
M  V30 4007 C 385.546 -0.0332372 2.04373 0
M  V30 4008 C 385.91 -1.33694 1.37804 0
M  V30 4009 O 387.111 -1.96213 1.83722 0
M  V30 4010 C 385.382 -0.17599 3.56966 0
M  V30 4011 S 386.941 -0.669882 4.33657 0
M  V30 4012 H 383.759 0.00123603 0.710999 0
M  V30 4013 H 386.361 0.682725 1.83191 0
M  V30 4014 H 385.065 0.778053 4.02957 0
M  V30 4015 H 384.596 -0.917005 3.82563 0
M  V30 4016 H 386.611 -1.93806 4.56786 0
M  V30 4017 N 385.784 -1.5574 0.241426 0
M  V30 4018 C 387.195 -1.84842 -0.262755 0
M  V30 4019 C 387.546 -1.16317 -1.58003 0
M  V30 4020 O 386.671 -0.439653 -2.11887 0
M  V30 4021 C 387.266 -3.35332 -0.483523 0
M  V30 4022 C 385.825 -3.6468 -0.931977 0
M  V30 4023 C 384.972 -2.77299 -0.0061151 0
M  V30 4024 H 387.923 -1.51761 0.464129 0
M  V30 4025 H 387.944 -3.56615 -1.32688 0
M  V30 4026 H 387.456 -3.85178 0.47537 0
M  V30 4027 H 385.557 -3.20307 -1.90353 0
M  V30 4028 H 385.67 -4.72498 -0.792628 0
M  V30 4029 H 384.034 -2.49408 -0.516503 0
M  V30 4030 H 384.817 -3.2995 0.948052 0
M  V30 4031 N 387.262 0.0317525 -1.57568 0
M  V30 4032 C 388.192 1.03274 -2.0942 0
M  V30 4033 C 389.173 1.3788 -0.996143 0
M  V30 4034 O 390.358 1.46811 -1.27122 0
M  V30 4035 C 387.488 2.33448 -2.57137 0
M  V30 4036 C 386.442 2.13091 -3.71182 0
M  V30 4037 C 385.768 3.49001 -4.05095 0
M  V30 4038 C 387.068 1.51928 -4.99715 0
M  V30 4039 H 388.762 0.60112 -2.93303 0
M  V30 4040 H 386.308 0.287705 -1.41097 0
M  V30 4041 H 388.261 3.03802 -2.92032 0
M  V30 4042 H 386.985 2.78665 -1.70333 0
M  V30 4043 H 385.644 1.45171 -3.36632 0
M  V30 4044 H 385.292 3.91862 -3.15362 0
M  V30 4045 H 384.992 3.36207 -4.81911 0
M  V30 4046 H 386.516 4.20721 -4.42522 0
M  V30 4047 H 387.93 2.12196 -5.32584 0
M  V30 4048 H 386.327 1.49716 -5.81124 0
M  V30 4049 H 387.397 0.484811 -4.8247 0
M  V30 4050 N 388.74 1.54641 0.303973 0
M  V30 4051 C 389.968 1.77768 1.05858 0
M  V30 4052 C 390.383 0.535722 1.8104 0
M  V30 4053 O 389.74 -0.494337 1.75677 0
M  V30 4054 C 389.791 2.9834 2.04146 0
M  V30 4055 O 389.512 4.17736 1.32015 0
M  V30 4056 C 391.013 3.33832 2.91669 0
M  V30 4057 H 388.233 0.592961 0.314067 0
M  V30 4058 H 390.777 2.01583 0.344149 0
M  V30 4059 H 388.932 2.76742 2.71096 0
M  V30 4060 H 389.346 4.85693 1.97998 0
M  V30 4061 H 390.82 4.21448 3.56491 0
M  V30 4062 H 391.297 2.51857 3.59812 0
M  V30 4063 H 391.903 3.57579 2.30254 0
M  V30 4064 N 390.218 -0.567019 1.47046 0
M  V30 4065 C 391.465 -1.32462 1.53167 0
M  V30 4066 C 391.793 -1.93571 0.189841 0
M  V30 4067 O 391.048 -1.77865 -0.816243 0
M  V30 4068 C 391.347 -2.4623 2.59047 0
M  V30 4069 C 391.013 -2.03014 4.02612 0
M  V30 4070 C 389.675 -1.90944 4.41694 0
M  V30 4071 C 392.027 -1.69895 4.92732 0
M  V30 4072 C 389.355 -1.44035 5.68745 0
M  V30 4073 C 391.707 -1.2446 6.20236 0
M  V30 4074 C 390.371 -1.10979 6.5821 0
M  V30 4075 H 389.641 -0.484713 0.560477 0
M  V30 4076 H 392.288 -0.636888 1.80599 0
M  V30 4077 H 390.593 -3.20517 2.25335 0
M  V30 4078 H 392.29 -3.04427 2.61008 0
M  V30 4079 H 388.88 -2.13348 3.71726 0
M  V30 4080 H 393.064 -1.78098 4.63244 0
M  V30 4081 H 388.32 -1.32254 5.96925 0
M  V30 4082 H 392.494 -0.978924 6.89485 0
M  V30 4083 H 390.121 -0.744078 7.5655 0
M  V30 4084 N 391.696 -1.35014 -0.812953 0
M  V30 4085 C 392.606 -1.2951 -1.95613 0
M  V30 4086 C 393.622 -0.20107 -1.72834 0
M  V30 4087 O 394.798 -0.42932 -1.96771 0
M  V30 4088 C 391.863 -1.06033 -3.30088 0
M  V30 4089 C 390.924 -2.24688 -3.65805 0
M  V30 4090 C 390.157 -2.02322 -4.93864 0
M  V30 4091 O 390.38 -0.986464 -5.61805 0
M  V30 4092 O 389.314 -2.89525 -5.27692 0
M  V30 4093 H 393.14 -2.25705 -2.03202 0
M  V30 4094 H 390.725 -1.15321 -0.949811 0
M  V30 4095 H 392.607 -0.94763 -4.10607 0
M  V30 4096 H 391.282 -0.128852 -3.23443 0
M  V30 4097 H 390.189 -2.41521 -2.85689 0
M  V30 4098 H 391.522 -3.16261 -3.77147 0
M  V30 4099 N 393.175 1.03435 -1.18907 0
M  V30 4100 C 394.123 2.13703 -0.918353 0
M  V30 4101 C 395.117 1.68947 0.123767 0
M  V30 4102 O 396.323 1.79983 -0.0249701 0
M  V30 4103 H 392.698 0.698112 -0.279542 0
M  V30 4104 H 394.669 2.33731 -1.85506 0
M  V30 4105 C 393.418 3.44542 -0.467532 0
M  V30 4106 H 392.741 3.79394 -1.26095 0
M  V30 4107 H 394.181 4.22812 -0.317164 0
M  V30 4108 C 392.64 3.26829 0.817588 0
M  V30 4109 O 393.17 3.54975 1.88031 0
M  V30 4110 N 391.376 2.80139 0.772677 0
M  V30 4111 H 390.923 2.57434 -0.0923883 0
M  V30 4112 H 390.881 2.68668 1.63294 0
M  V30 4113 N 394.653 0.992116 1.22453 0
M  V30 4114 C 395.899 0.668523 1.91464 0
M  V30 4115 C 396.232 -0.797313 1.77078 0
M  V30 4116 O 395.507 -1.5765 1.13916 0
M  V30 4117 C 395.79 1.07424 3.43703 0
M  V30 4118 C 395.643 2.59857 3.67143 0
M  V30 4119 C 396.962 0.626891 4.35612 0
M  V30 4120 H 394.081 0.244341 0.695318 0
M  V30 4121 H 396.723 1.2355 1.44345 0
M  V30 4122 H 394.873 0.591816 3.83966 0
M  V30 4123 H 396.545 3.15764 3.3629 0
M  V30 4124 H 394.788 3.01961 3.11451 0
M  V30 4125 H 395.459 2.83296 4.73759 0
M  V30 4126 H 397.935 1.04125 4.02861 0
M  V30 4127 H 396.811 0.939076 5.40807 0
M  V30 4128 H 397.072 -0.472457 4.39568 0
M  V30 4129 N 396.131 -1.37776 0.765217 0
M  V30 4130 C 397.078 -2.30342 0.145274 0
M  V30 4131 C 398.048 -1.5077 -0.696971 0
M  V30 4132 O 399.233 -1.79362 -0.650689 0
M  V30 4133 C 396.373 -3.37227 -0.732939 0
M  V30 4134 C 395.486 -4.31819 0.125199 0
M  V30 4135 C 394.621 -5.25777 -0.757107 0
M  V30 4136 C 393.66 -6.12012 0.103963 0
M  V30 4137 N 392.797 -6.98232 -0.735953 0
M  V30 4138 H 397.637 -2.8278 0.940195 0
M  V30 4139 H 395.174 -1.39211 0.475255 0
M  V30 4140 H 397.132 -3.97818 -1.25686 0
M  V30 4141 H 395.762 -2.86171 -1.49353 0
M  V30 4142 H 394.814 -3.7259 0.766865 0
M  V30 4143 H 396.126 -4.92509 0.789683 0
M  V30 4144 H 395.28 -5.91541 -1.34776 0
M  V30 4145 H 394.019 -4.65481 -1.45529 0
M  V30 4146 H 393.024 -5.45233 0.707197 0
M  V30 4147 H 394.249 -6.74379 0.799381 0
M  V30 4148 H 392.195 -6.40472 -1.41887 0
M  V30 4149 H 392.112 -7.55891 -0.128624 0
M  V30 4150 H 393.38 -7.68393 -1.31121 0
M  V30 4151 N 397.609 -0.515225 -1.4894 0
M  V30 4152 C 398.855 0.0242508 -2.02785 0
M  V30 4153 C 399.188 1.35323 -1.39289 0
M  V30 4154 O 398.463 1.87041 -0.533469 0
M  V30 4155 C 398.746 0.16184 -3.59736 0
M  V30 4156 C 398.599 -1.19127 -4.33738 0
M  V30 4157 C 399.918 0.895719 -4.30888 0
M  V30 4158 H 397.037 0.00733914 -0.736963 0
M  V30 4159 H 399.679 -0.669395 -1.77818 0
M  V30 4160 H 397.829 0.752624 -3.8114 0
M  V30 4161 H 399.501 -1.82202 -4.23792 0
M  V30 4162 H 397.744 -1.77695 -3.95736 0
M  V30 4163 H 398.415 -1.04815 -5.41957 0
M  V30 4164 H 400.891 0.394528 -4.14225 0
M  V30 4165 H 399.767 0.960859 -5.40425 0
M  V30 4166 H 400.028 1.9427 -3.97129 0
M  V30 4167 N 399.087 1.5561 -0.249682 0
M  V30 4168 C 400.498 1.84979 0.252949 0
M  V30 4169 C 400.849 1.17153 1.57384 0
M  V30 4170 O 399.974 0.450884 2.11651 0
M  V30 4171 C 400.569 3.35584 0.465732 0
M  V30 4172 C 399.128 3.65169 0.912624 0
M  V30 4173 C 398.275 2.77299 -0.00859085 0
M  V30 4174 H 401.226 1.51513 -0.47217 0
M  V30 4175 H 401.247 3.57313 1.30795 0
M  V30 4176 H 400.759 3.8492 -0.49579 0
M  V30 4177 H 398.86 3.21312 1.88652 0
M  V30 4178 H 398.973 4.72912 0.767559 0
M  V30 4179 H 397.337 2.49678 0.50327 0
M  V30 4180 H 398.12 3.29442 -0.965537 0
M  V30 4181 N 400.565 -0.0233959 1.57583 0
M  V30 4182 C 401.475 -1.03907 2.10334 0
M  V30 4183 C 402.491 -1.39257 1.04323 0
M  V30 4184 O 403.667 -1.48462 1.36091 0
M  V30 4185 C 400.732 -2.31938 2.57693 0
M  V30 4186 C 399.793 -2.03117 3.78209 0
M  V30 4187 C 399.026 -3.25043 4.233 0
M  V30 4188 O 399.249 -4.35916 3.67876 0
M  V30 4189 O 398.183 -3.10411 5.15683 0
M  V30 4190 H 402.009 -0.620748 2.97288 0
M  V30 4191 H 399.594 -0.240743 1.47448 0
M  V30 4192 H 401.476 -3.07196 2.88458 0
M  V30 4193 H 400.151 -2.73055 1.73847 0
M  V30 4194 H 399.058 -1.25408 3.52454 0
M  V30 4195 H 400.391 -1.66852 4.63056 0
M  V30 4196 N 402.043 -1.548 -0.295768 0
M  V30 4197 C 403.006 -1.85363 -1.34808 0
M  V30 4198 C 404.006 -0.726817 -1.43436 0
M  V30 4199 O 405.196 -0.995088 -1.42981 0
M  V30 4200 C 402.328 -2.03859 -2.73229 0
M  V30 4201 H 403.521 -2.7941 -1.08949 0
M  V30 4202 H 401.074 -1.46942 -0.532702 0
M  V30 4203 H 401.809 -1.12117 -3.04303 0
M  V30 4204 H 401.594 -2.8588 -2.68356 0
M  V30 4205 H 403.084 -2.28857 -3.49305 0
M  V30 4206 N 403.521 0.559213 -1.47345 0
M  V30 4207 C 404.469 1.68747 -1.60085 0
M  V30 4208 C 405.463 1.628 -0.46825 0
M  V30 4209 O 406.669 1.68009 -0.645977 0
M  V30 4210 H 403.044 0.558329 -0.503759 0
M  V30 4211 H 405.015 1.55138 -2.54902 0
M  V30 4212 C 403.764 3.07103 -1.63042 0
M  V30 4213 H 403.087 3.12361 -2.49541 0
M  V30 4214 H 404.527 3.85743 -1.76006 0
M  V30 4215 C 402.986 3.34935 -0.363357 0
M  V30 4216 O 403.516 3.98102 0.536416 0
M  V30 4217 N 401.722 2.89574 -0.244 0
M  V30 4218 H 401.269 2.38348 -0.977133 0
M  V30 4219 H 401.227 3.08566 0.602836 0
M  V30 4220 N 404.999 1.35443 0.805782 0
M  V30 4221 C 406.248 1.28097 1.55801 0
M  V30 4222 C 406.561 -0.142428 1.95081 0
M  V30 4223 O 407.767 -0.33817 2.69386 0
M  V30 4224 C 406.223 2.24653 2.81174 0
M  V30 4225 C 405.831 3.72342 2.49129 0
M  V30 4226 C 407.575 2.2625 3.59181 0
M  V30 4227 C 405.482 4.60719 3.70799 0
M  V30 4228 H 404.412 0.475937 0.584808 0
M  V30 4229 H 407.063 1.60712 0.885661 0
M  V30 4230 H 405.445 1.85011 3.50124 0
M  V30 4231 H 406.619 4.20624 1.88181 0
M  V30 4232 H 404.934 3.73361 1.84366 0
M  V30 4233 H 407.531 2.89495 4.49552 0
M  V30 4234 H 407.874 1.26647 3.96568 0
M  V30 4235 H 408.407 2.64426 2.97193 0
M  V30 4236 H 405.146 5.61324 3.3852 0
M  V30 4237 H 404.666 4.17163 4.3097 0
M  V30 4238 H 406.345 4.76182 4.38018 0
M  V30 4239 N 406.477 -1.02803 1.19454 0
M  V30 4240 C 407.407 -2.12999 0.956758 0
M  V30 4241 C 408.388 -1.69743 -0.110188 0
M  V30 4242 O 409.573 -1.94148 0.0450038 0
M  V30 4243 C 406.703 -3.43746 0.495553 0
M  V30 4244 C 405.657 -4.00688 1.50443 0
M  V30 4245 C 404.983 -5.27067 0.900275 0
M  V30 4246 C 406.283 -4.35397 2.8849 0
M  V30 4247 H 407.977 -2.33148 1.87836 0
M  V30 4248 H 405.523 -1.12045 0.904539 0
M  V30 4249 H 407.476 -4.2021 0.316493 0
M  V30 4250 H 406.2 -3.23321 -0.461646 0
M  V30 4251 H 404.859 -3.2632 1.67065 0
M  V30 4252 H 404.507 -5.02959 -0.064503 0
M  V30 4253 H 404.207 -5.66127 1.57397 0
M  V30 4254 H 405.731 -6.06196 0.73203 0
M  V30 4255 H 407.145 -5.02795 2.75446 0
M  V30 4256 H 405.542 -4.85541 3.52661 0
M  V30 4257 H 406.612 -3.44662 3.41081 0
M  V30 4258 N 407.956 -0.998596 -1.21925 0
M  V30 4259 C 409.204 -0.676325 -1.90448 0
M  V30 4260 C 409.525 0.794719 -1.78071 0
M  V30 4261 O 408.795 1.5701 -1.17152 0
M  V30 4262 H 407.375 -0.247165 -0.704925 0
M  V30 4263 H 410.037 -1.26633 -1.48156 0
M  V30 4264 H 409.133 -0.943858 -2.97486 0
M  V30 4265 N 409.434 1.37368 -0.772513 0
M  V30 4266 C 410.366 2.28899 -0.117502 0
M  V30 4267 C 411.379 1.4867 0.663405 0
M  V30 4268 O 412.568 1.71314 0.501372 0
M  V30 4269 C 409.668 3.2788 0.857192 0
M  V30 4270 C 408.841 4.37207 0.129938 0
M  V30 4271 C 407.9 5.16257 1.01811 0
M  V30 4272 O 406.926 5.67159 0.481601 0
M  V30 4273 N 408.128 5.31058 2.3443 0
M  V30 4274 H 410.893 2.85752 -0.903662 0
M  V30 4275 H 408.454 1.49353 -0.62493 0
M  V30 4276 H 410.446 3.77647 1.45482 0
M  V30 4277 H 409.016 2.7179 1.54432 0
M  V30 4278 H 408.236 3.88827 -0.648605 0
M  V30 4279 H 409.524 5.07434 -0.372559 0
M  V30 4280 H 408.922 4.91287 2.80452 0
M  V30 4281 H 407.479 5.84131 2.89197 0
M  V30 4282 N 410.912 0.523116 1.48665 0
M  V30 4283 C 412.161 -0.01544 2.01694 0
M  V30 4284 C 412.474 -1.35975 1.40606 0
M  V30 4285 O 413.68 -1.98627 1.85093 0
M  V30 4286 C 412.136 -0.0779303 3.59816 0
M  V30 4287 C 411.744 1.26107 4.29885 0
M  V30 4288 C 413.488 -0.565678 4.20714 0
M  V30 4289 C 411.395 1.15954 5.79921 0
M  V30 4290 H 410.325 -0.00954163 0.75394 0
M  V30 4291 H 412.976 0.665865 1.70993 0
M  V30 4292 H 411.358 -0.824165 3.87329 0
M  V30 4293 H 412.532 2.02233 4.14051 0
M  V30 4294 H 410.847 1.68401 3.80828 0
M  V30 4295 H 413.444 -0.6595 5.30617 0
M  V30 4296 H 413.787 -1.56984 3.85567 0
M  V30 4297 H 414.32 0.12467 3.97605 0
M  V30 4298 H 411.059 2.13864 6.19631 0
M  V30 4299 H 410.579 0.439529 5.98187 0
M  V30 4300 H 412.258 0.847361 6.41427 0
M  V30 4301 N 412.39 -1.55475 0.257931 0
M  V30 4302 C 413.638 -1.98813 -0.363009 0
M  V30 4303 C 413.959 -1.14757 -1.57657 0
M  V30 4304 O 413.229 -0.232956 -1.9451 0
M  V30 4305 H 411.809 -0.734308 -0.137113 0
M  V30 4306 H 414.471 -1.9156 0.359281 0
M  V30 4307 H 413.567 -3.04941 -0.664634 0
M  V30 4308 N 413.868 0.0150385 -1.57593 0
M  V30 4309 C 414.818 1.01943 -2.0394 0
M  V30 4310 C 415.802 1.31209 -0.931286 0
M  V30 4311 O 416.994 1.30559 -1.19513 0
M  V30 4312 C 414.123 2.31621 -2.53391 0
M  V30 4313 C 413.209 2.05384 -3.7105 0
M  V30 4314 N 413.6 1.49253 -4.83278 0
M  V30 4315 C 411.898 2.35601 -3.78693 0
M  V30 4316 C 412.599 1.39143 -5.64813 0
M  V30 4317 N 411.575 1.87187 -5.10355 0
M  V30 4318 H 415.377 0.57969 -2.88126 0
M  V30 4319 H 412.891 0.221056 -1.60888 0
M  V30 4320 H 414.888 3.044 -2.84862 0
M  V30 4321 H 413.548 2.76261 -1.70616 0
M  V30 4322 H 414.559 1.17334 -5.04433 0
M  V30 4323 H 411.236 2.8322 -3.06746 0
M  V30 4324 H 412.626 0.961153 -6.6499 0
M  V30 4325 N 415.346 1.54954 0.287554 0
M  V30 4326 C 416.594 1.74528 1.01904 0
M  V30 4327 C 416.915 0.541349 1.87335 0
M  V30 4328 O 416.185 -0.444108 1.908 0
M  V30 4329 H 414.765 0.643576 0.379235 0
M  V30 4330 H 417.427 1.92333 0.315294 0
M  V30 4331 H 416.523 2.64015 1.6644 0
M  V30 4332 N 416.824 -0.551391 1.4764 0
M  V30 4333 C 418.054 -1.33163 1.57959 0
M  V30 4334 C 418.462 -1.87785 0.23094 0
M  V30 4335 O 417.805 -1.65996 -0.786825 0
M  V30 4336 C 417.867 -2.53449 2.54958 0
M  V30 4337 C 417.531 -2.20071 4.00522 0
M  V30 4338 C 418.528 -1.77017 4.88836 0
M  V30 4339 C 416.213 -2.31252 4.45901 0
M  V30 4340 C 418.207 -1.4558 6.20552 0
M  V30 4341 C 415.894 -1.99427 5.77644 0
M  V30 4342 C 416.892 -1.56659 6.64791 0
M  V30 4343 O 416.58 -1.25242 7.94084 0
M  V30 4344 H 416.312 -0.412022 0.535923 0
M  V30 4345 H 418.866 -0.674186 1.9402 0
M  V30 4346 H 417.096 -3.22104 2.13976 0
M  V30 4347 H 418.785 -3.15523 2.55343 0
M  V30 4348 H 419.551 -1.67867 4.55023 0
M  V30 4349 H 415.43 -2.63498 3.78272 0
M  V30 4350 H 418.974 -1.12125 6.8853 0
M  V30 4351 H 414.871 -2.08211 6.10998 0
M  V30 4352 H 415.639 -1.38822 8.06642 0
M  V30 4353 N 418.302 -1.35869 -0.798587 0
M  V30 4354 C 419.249 -1.29446 -1.91082 0
M  V30 4355 C 420.219 -0.16487 -1.6528 0
M  V30 4356 O 421.404 -0.349888 -1.87564 0
M  V30 4357 C 418.544 -1.0804 -3.27752 0
M  V30 4358 C 417.657 -2.29993 -3.65687 0
M  V30 4359 C 416.792 -2.01673 -4.91428 0
M  V30 4360 C 415.831 -3.19636 -5.22015 0
M  V30 4361 N 414.968 -2.91039 -6.38937 0
M  V30 4362 H 419.808 -2.24553 -1.95907 0
M  V30 4363 H 417.345 -1.11615 -0.958148 0
M  V30 4364 H 419.303 -0.936586 -4.06551 0
M  V30 4365 H 417.933 -0.16592 -3.22373 0
M  V30 4366 H 416.985 -2.55211 -2.82085 0
M  V30 4367 H 418.297 -3.18052 -3.84245 0
M  V30 4368 H 417.451 -1.84168 -5.78072 0
M  V30 4369 H 416.19 -1.10911 -4.74921 0
M  V30 4370 H 415.195 -3.37709 -4.33858 0
M  V30 4371 H 416.42 -4.11211 -5.40447 0
M  V30 4372 H 414.366 -2.0288 -6.2384 0
M  V30 4373 H 414.283 -3.72635 -6.57784 0
M  V30 4374 H 415.551 -2.77093 -7.28587 0
M  V30 4375 N 419.78 1.02168 -1.19998 0
M  V30 4376 C 421.01 1.79036 -1.031 0
M  V30 4377 C 421.418 1.84409 0.423078 0
M  V30 4378 O 420.761 1.29228 1.30559 0
M  V30 4379 C 420.823 3.25185 -1.53281 0
M  V30 4380 C 420.487 3.43431 -3.01503 0
M  V30 4381 C 421.484 3.33063 -3.99206 0
M  V30 4382 C 419.169 3.69412 -3.40353 0
M  V30 4383 C 421.163 3.48413 -5.33748 0
M  V30 4384 C 418.85 3.84406 -4.75053 0
M  V30 4385 C 419.848 3.7391 -5.71559 0
M  V30 4386 O 419.536 3.88452 -7.03818 0
M  V30 4387 H 419.268 0.570043 -0.363355 0
M  V30 4388 H 421.822 1.29524 -1.59414 0
M  V30 4389 H 420.052 3.75756 -0.913483 0
M  V30 4390 H 421.741 3.83671 -1.32481 0
M  V30 4391 H 422.507 3.12934 -3.70537 0
M  V30 4392 H 418.386 3.76671 -2.65782 0
M  V30 4393 H 421.93 3.40137 -6.09059 0
M  V30 4394 H 417.827 4.04035 -5.03415 0
M  V30 4395 H 418.595 4.055 -7.10993 0
M  V30 4396 N 421.258 1.00505 1.21394 0
M  V30 4397 C 422.221 0.570459 2.21987 0
M  V30 4398 C 423.221 -0.353211 1.56873 0
M  V30 4399 O 424.411 -0.14349 1.73608 0
M  V30 4400 C 421.543 -0.168555 3.40483 0
M  V30 4401 H 422.736 1.46021 2.6195 0
M  V30 4402 H 420.289 0.793565 1.34656 0
M  V30 4403 H 421.024 -1.07374 3.06009 0
M  V30 4404 H 420.809 0.494823 3.88965 0
M  V30 4405 H 422.299 -0.460362 4.15055 0
M  V30 4406 N 422.737 -1.36956 0.779787 0
M  V30 4407 C 423.986 -1.98738 0.344405 0
M  V30 4408 C 424.299 -1.62596 -1.08728 0
M  V30 4409 O 425.505 -2.1754 -1.62445 0
M  V30 4410 C 423.961 -3.5544 0.564829 0
M  V30 4411 C 423.569 -4.00514 2.0073 0
M  V30 4412 C 425.313 -4.24059 0.193471 0
M  V30 4413 C 423.22 -5.49957 2.17489 0
M  V30 4414 H 422.15 -0.743561 0.12503 0
M  V30 4415 H 424.801 -1.56381 0.960057 0
M  V30 4416 H 423.183 -3.95817 -0.120397 0
M  V30 4417 H 424.357 -3.71362 2.72814 0
M  V30 4418 H 422.672 -3.44703 2.336 0
M  V30 4419 H 425.269 -5.33874 0.297097 0
M  V30 4420 H 425.612 -4.07378 -0.857263 0
M  V30 4421 H 426.145 -3.89012 0.831556 0
M  V30 4422 H 422.884 -5.71574 3.2091 0
M  V30 4423 H 422.404 -5.80767 1.49899 0
M  V30 4424 H 424.083 -6.16043 1.97738 0
M  V30 4425 N 424.215 -0.530993 -1.48385 0
M  V30 4426 C 425.463 0.00273189 -2.021 0
M  V30 4427 C 425.784 1.34672 -1.41027 0
M  V30 4428 O 425.054 1.8724 -0.576012 0
M  V30 4429 H 423.634 0.00399774 -0.746989 0
M  V30 4430 H 426.296 -0.695054 -1.82085 0
M  V30 4431 H 425.392 0.11031 -3.11905 0
M  V30 4432 N 425.693 1.55336 -0.266172 0
M  V30 4433 C 426.918 2.04258 0.359661 0
M  V30 4434 C 427.343 1.14359 1.49344 0
M  V30 4435 O 426.701 0.140369 1.80756 0
M  V30 4436 C 426.749 3.50997 0.826635 0
M  V30 4437 O 425.853 3.64204 1.93466 0
M  V30 4438 H 425.194 0.659668 0.075727 0
M  V30 4439 H 427.724 2.00694 -0.39786 0
M  V30 4440 H 427.734 3.9219 1.12477 0
M  V30 4441 H 426.409 4.159 -0.00293032 0
M  V30 4442 H 424.986 3.34913 1.63974 0
M  V30 4443 N 427.171 -0.0066808 1.57599 0
M  V30 4444 C 428.101 -0.999296 2.11036 0
M  V30 4445 C 429.082 -1.36278 1.01795 0
M  V30 4446 O 430.267 -1.4477 1.29442 0
M  V30 4447 C 427.397 -2.29328 2.60818 0
M  V30 4448 C 426.351 -2.07159 3.74525 0
M  V30 4449 C 425.677 -3.42512 4.10596 0
M  V30 4450 C 426.977 -1.43959 5.02069 0
M  V30 4451 H 428.671 -0.554382 2.94223 0
M  V30 4452 H 426.217 -0.265221 1.41536 0
M  V30 4453 H 428.17 -2.99117 2.96828 0
M  V30 4454 H 426.894 -2.7592 1.74745 0
M  V30 4455 H 425.553 -1.39797 3.38899 0
M  V30 4456 H 425.201 -3.86795 3.21556 0
M  V30 4457 H 424.901 -3.28498 4.87199 0
M  V30 4458 H 426.425 -4.13628 4.4916 0
M  V30 4459 H 427.839 -2.03696 5.35893 0
M  V30 4460 H 426.236 -1.40452 5.83432 0
M  V30 4461 H 427.306 -0.407992 4.83181 0
M  V30 4462 N 428.649 -1.55105 -0.279332 0
M  V30 4463 C 429.597 -1.88333 -1.36505 0
M  V30 4464 C 430.591 -0.759043 -1.51443 0
M  V30 4465 O 431.797 -0.943312 -1.53302 0
M  V30 4466 H 428.172 -0.59766 -0.456406 0
M  V30 4467 H 430.143 -2.79041 -1.05728 0
M  V30 4468 C 428.892 -2.16628 -2.7197 0
M  V30 4469 H 428.215 -3.02624 -2.61264 0
M  V30 4470 H 429.655 -2.43803 -3.46895 0
M  V30 4471 C 428.114 -0.971807 -3.22579 0
M  V30 4472 O 428.644 -0.203228 -4.01186 0
M  V30 4473 N 426.85 -0.771238 -2.80179 0
M  V30 4474 H 426.397 -1.39792 -2.1637 0
M  V30 4475 H 426.355 0.0263667 -3.14389 0
M  V30 4476 N 430.127 0.543554 -1.4793 0
M  V30 4477 C 431.037 1.67657 -1.64098 0
M  V30 4478 C 432.053 1.65934 -0.523622 0
M  V30 4479 O 433.229 1.85133 -0.792943 0
M  V30 4480 C 430.294 3.04146 -1.66421 0
M  V30 4481 C 429.355 3.16831 -2.89684 0
M  V30 4482 C 428.588 4.46809 -2.91886 0
M  V30 4483 O 428.811 5.33095 -2.02895 0
M  V30 4484 O 427.745 4.63573 -3.83906 0
M  V30 4485 H 431.571 1.56957 -2.59997 0
M  V30 4486 H 429.156 0.715116 -1.31173 0
M  V30 4487 H 431.038 3.85346 -1.70548 0
M  V30 4488 H 429.713 3.152 -0.736923 0
M  V30 4489 H 428.62 2.34977 -2.91095 0
M  V30 4490 H 429.953 3.10687 -3.81752 0
M  V30 4491 N 431.605 1.3629 0.791371 0
M  V30 4492 C 432.853 1.30154 1.5461 0
M  V30 4493 C 433.174 -0.119409 1.94634 0
M  V30 4494 O 432.444 -1.05924 1.64794 0
M  V30 4495 H 431.024 0.478784 0.573389 0
M  V30 4496 H 433.686 1.70565 0.94306 0
M  V30 4497 H 432.782 1.92762 2.45457 0
M  V30 4498 N 433.083 -1.0153 1.20538 0
M  V30 4499 C 434.499 -1.27461 0.96051 0
M  V30 4500 C 434.699 -1.98273 -0.359193 0
M  V30 4501 O 433.755 -2.27886 -1.0874 0
M  V30 4502 C 435.068 -2.10837 2.14402 0
M  V30 4503 C 436.616 -2.24099 2.18515 0
M  V30 4504 C 437.091 -3.10852 3.36355 0
M  V30 4505 N 438.582 -3.18441 3.36377 0
M  V30 4506 C 439.317 -3.85795 4.24205 0
M  V30 4507 N 438.813 -4.55264 5.22213 0
M  V30 4508 N 440.606 -3.82331 4.12043 0
M  V30 4509 H 432.757 -0.539907 2.05423 0
M  V30 4510 H 435.02 -0.30092 0.898972 0
M  V30 4511 H 434.726 -1.66144 3.09983 0
M  V30 4512 H 434.6 -3.11576 2.12604 0
M  V30 4513 H 436.987 -2.68016 1.23497 0
M  V30 4514 H 437.068 -1.22865 2.24361 0
M  V30 4515 H 436.712 -2.6764 4.31661 0
M  V30 4516 H 436.642 -4.12177 3.27746 0
M  V30 4517 H 439.133 -2.68978 2.65442 0
M  V30 4518 H 439.446 -5.04331 5.85551 0
M  V30 4519 H 437.791 -4.54085 5.26148 0
M  V30 4520 H 440.982 -3.27207 3.34743 0
M  V30 4521 H 441.155 -4.34547 4.807 0
M  V30 4522 N 434.561 -1.01147 -1.20859 0
M  V30 4523 C 435.81 -0.693214 -1.89413 0
M  V30 4524 C 436.123 0.779969 -1.79376 0
M  V30 4525 O 437.329 1.21057 -2.43017 0
M  V30 4526 C 435.785 -1.18949 -3.39675 0
M  V30 4527 C 435.393 -2.68921 -3.58309 0
M  V30 4528 C 437.137 -0.94642 -4.13815 0
M  V30 4529 C 435.044 -3.12056 -5.0237 0
M  V30 4530 H 433.974 -0.255595 -0.709357 0
M  V30 4531 H 436.625 -1.22349 -1.36759 0
M  V30 4532 H 435.007 -0.587228 -3.91622 0
M  V30 4533 H 436.181 -3.34652 -3.16772 0
M  V30 4534 H 434.496 -2.91314 -2.97532 0
M  V30 4535 H 437.093 -1.24417 -5.20023 0
M  V30 4536 H 437.436 0.117219 -4.16135 0
M  V30 4537 H 437.969 -1.5118 -3.67953 0
M  V30 4538 H 434.708 -4.17674 -5.05202 0
M  V30 4539 H 434.228 -2.51041 -5.44737 0
M  V30 4540 H 435.907 -3.04403 -5.70918 0
M  V30 4541 N 436.039 1.36541 -0.78704 0
M  V30 4542 C 437.287 1.98911 -0.357633 0
M  V30 4543 C 437.608 1.62778 1.07371 0
M  V30 4544 O 436.878 0.900612 1.73971 0
M  V30 4545 H 435.458 0.735734 -0.129246 0
M  V30 4546 H 438.12 1.66776 -1.00855 0
M  V30 4547 H 437.216 3.08874 -0.447549 0
M  V30 4548 N 437.518 0.538854 1.48102 0
M  V30 4549 C 438.767 0.0059532 2.01699 0
M  V30 4550 C 439.08 -1.34476 1.42041 0
M  V30 4551 O 440.286 -1.96653 1.87189 0
M  V30 4552 C 438.742 -0.0397627 3.59878 0
M  V30 4553 C 438.35 1.30659 4.28523 0
M  V30 4554 C 440.094 -0.521024 4.2129 0
M  V30 4555 C 438.001 1.22098 5.78659 0
M  V30 4556 H 436.931 -0.00154456 0.753998 0
M  V30 4557 H 439.582 0.683963 1.70277 0
M  V30 4558 H 437.964 -0.783037 3.88181 0
M  V30 4559 H 439.138 2.06613 4.11883 0
M  V30 4560 H 437.453 1.7243 3.79021 0
M  V30 4561 H 440.05 -0.603184 5.31287 0
M  V30 4562 H 440.393 -1.52885 3.8721 0
M  V30 4563 H 440.926 0.166834 3.9745 0
M  V30 4564 H 437.665 2.20424 6.17328 0
M  V30 4565 H 437.185 0.50295 5.97688 0
M  V30 4566 H 438.864 0.915345 6.40492 0
M  V30 4567 N 438.996 -1.55193 0.274407 0
M  V30 4568 C 439.959 -2.212 -0.600279 0
M  V30 4569 C 440.959 -1.18963 -1.08187 0
M  V30 4570 O 442.149 -1.43873 -0.982158 0
M  V30 4571 C 439.281 -2.87739 -1.82809 0
M  V30 4572 H 440.474 -2.9989 -0.0239682 0
M  V30 4573 H 438.027 -1.5628 0.0250192 0
M  V30 4574 H 438.762 -2.13058 -2.44493 0
M  V30 4575 H 438.547 -3.62658 -1.49069 0
M  V30 4576 H 440.037 -3.38171 -2.45011 0
M  V30 4577 N 440.474 -0.00167713 -1.576 0
M  V30 4578 C 441.437 0.974046 -2.07473 0
M  V30 4579 C 442.437 1.27143 -0.984444 0
M  V30 4580 O 443.627 1.21633 -1.24703 0
M  V30 4581 C 440.759 2.29849 -2.51759 0
M  V30 4582 H 441.952 0.54262 -2.9495 0
M  V30 4583 H 439.505 0.245829 -1.54355 0
M  V30 4584 H 440.24 2.77677 -1.67529 0
M  V30 4585 H 440.025 2.09584 -3.31386 0
M  V30 4586 H 441.515 2.9984 -2.90664 0
M  V30 4587 N 441.952 1.55251 0.271103 0
M  V30 4588 C 442.884 1.84675 1.35749 0
M  V30 4589 C 443.897 0.731366 1.45447 0
M  V30 4590 O 445.086 1.00924 1.4723 0
M  V30 4591 C 442.186 1.99638 2.73857 0
M  V30 4592 C 441.359 3.30312 2.86727 0
M  V30 4593 C 440.418 3.35318 4.05522 0
M  V30 4594 O 439.444 4.08682 3.96191 0
M  V30 4595 N 440.646 2.62857 5.17577 0
M  V30 4596 H 443.411 2.78445 1.10853 0
M  V30 4597 H 440.972 1.55191 0.461218 0
M  V30 4598 H 442.964 2.00355 3.51625 0
M  V30 4599 H 441.534 1.12725 2.91568 0
M  V30 4600 H 440.754 3.42118 1.95829 0
M  V30 4601 H 442.042 4.16488 2.92258 0
M  V30 4602 H 441.44 2.02939 5.28046 0
M  V30 4603 H 439.997 2.69295 5.93568 0
M  V30 4604 N 443.43 -0.535701 1.48216 0
M  V30 4605 C 444.363 -1.65726 1.56876 0
M  V30 4606 C 445.341 -1.57094 0.419542 0
M  V30 4607 O 446.525 -1.77648 0.630352 0
M  V30 4608 C 443.652 -3.04096 1.49142 0
M  V30 4609 C 442.698 -3.31105 2.68834 0
M  V30 4610 S 443.531 -3.18001 4.30854 0
M  V30 4611 C 444.687 -4.58828 4.25709 0
M  V30 4612 H 444.92 -1.58129 2.51759 0
M  V30 4613 H 442.453 -0.718218 1.36678 0
M  V30 4614 H 444.411 -3.839 1.45366 0
M  V30 4615 H 443.072 -3.09139 0.556067 0
M  V30 4616 H 442.265 -4.32033 2.59545 0
M  V30 4617 H 441.867 -2.58961 2.69843 0
M  V30 4618 H 444.159 -5.5023 3.95289 0
M  V30 4619 H 445.102 -4.73172 5.26796 0
M  V30 4620 H 445.51 -4.37883 3.56257 0
M  V30 4621 N 444.908 -1.36708 -0.784132 0
M  V30 4622 C 445.838 -1.34153 -1.91116 0
M  V30 4623 C 446.819 -0.212121 -1.68772 0
M  V30 4624 O 448.004 -0.410581 -1.8981 0
M  V30 4625 C 445.134 -1.13535 -3.28218 0
M  V30 4626 C 444.088 -2.23356 -3.65097 0
M  V30 4627 C 443.414 -1.87875 -5.00607 0
M  V30 4628 C 444.714 -3.65473 -3.73131 0
M  V30 4629 H 446.408 -2.28459 -1.93512 0
M  V30 4630 H 443.954 -1.09973 -0.929618 0
M  V30 4631 H 445.907 -1.10381 -4.06687 0
M  V30 4632 H 444.631 -0.156804 -3.26223 0
M  V30 4633 H 443.29 -2.25645 -2.88929 0
M  V30 4634 H 442.938 -0.885814 -4.95139 0
M  V30 4635 H 442.638 -2.61406 -5.26252 0
M  V30 4636 H 444.162 -1.86286 -5.81489 0
M  V30 4637 H 445.576 -3.65382 -4.41779 0
M  V30 4638 H 443.973 -4.37953 -4.10265 0
M  V30 4639 H 445.043 -3.99995 -2.74102 0
M  V30 4640 N 446.386 1.0089 -1.21074 0
M  V30 4641 C 447.634 1.74262 -1.02358 0
M  V30 4642 C 447.955 1.89869 0.444393 0
M  V30 4643 O 447.225 1.44677 1.32081 0
M  V30 4644 H 445.805 0.645615 -0.375754 0
M  V30 4645 H 448.467 1.21596 -1.52317 0
M  V30 4646 H 447.563 2.74328 -1.4883 0
M  V30 4647 N 447.864 1.01787 1.20321 0
M  V30 4648 C 448.794 0.609625 2.25401 0
M  V30 4649 C 449.775 -0.375951 1.65893 0
M  V30 4650 O 450.96 -0.261101 1.92437 0
M  V30 4651 C 448.09 -0.0515995 3.47262 0
M  V30 4652 C 447.044 0.855095 4.19371 0
M  V30 4653 C 446.37 0.0595757 5.34667 0
M  V30 4654 C 447.67 2.16374 4.75373 0
M  V30 4655 H 449.364 1.48803 2.59804 0
M  V30 4656 H 446.91 0.716934 1.24884 0
M  V30 4657 H 448.863 -0.348764 4.19954 0
M  V30 4658 H 447.587 -0.964726 3.12027 0
M  V30 4659 H 446.246 1.13628 3.48546 0
M  V30 4660 H 445.894 -0.85524 4.95676 0
M  V30 4661 H 445.594 0.663406 5.83843 0
M  V30 4662 H 447.118 -0.231105 6.10162 0
M  V30 4663 H 448.532 1.92885 5.39878 0
M  V30 4664 H 446.929 2.71853 5.34991 0
M  V30 4665 H 447.999 2.82589 3.94045 0
M  V30 4666 N 449.342 -1.36122 0.79427 0
M  V30 4667 C 450.305 -2.28309 0.201889 0
M  V30 4668 C 451.305 -1.49041 -0.603603 0
M  V30 4669 O 452.495 -1.68964 -0.423888 0
M  V30 4670 C 449.627 -3.3321 -0.719978 0
M  V30 4671 H 450.82 -2.82208 1.01481 0
M  V30 4672 H 448.373 -1.45768 0.564037 0
M  V30 4673 H 449.108 -2.84475 -1.55706 0
M  V30 4674 H 448.893 -3.91835 -0.144266 0
M  V30 4675 H 450.383 -4.02044 -1.12916 0
M  V30 4676 N 450.82 -0.546701 -1.47814 0
M  V30 4677 C 451.752 0.244196 -2.27895 0
M  V30 4678 C 452.765 0.88911 -1.36377 0
M  V30 4679 O 453.954 0.764733 -1.61289 0
M  V30 4680 C 451.054 1.36252 -3.10304 0
M  V30 4681 C 450.227 0.816382 -4.29714 0
M  V30 4682 C 449.286 1.81789 -4.93801 0
M  V30 4683 O 448.312 1.36818 -5.52512 0
M  V30 4684 N 449.514 3.15085 -4.87547 0
M  V30 4685 H 452.279 -0.442694 -2.96412 0
M  V30 4686 H 449.84 -0.382095 -1.57327 0
M  V30 4687 H 451.832 2.03102 -3.50045 0
M  V30 4688 H 450.402 1.95281 -2.44099 0
M  V30 4689 H 449.622 -0.0285981 -3.9419 0
M  V30 4690 H 450.91 0.430668 -5.06974 0
M  V30 4691 H 450.308 3.54275 -4.41028 0
M  V30 4692 H 448.865 3.77522 -5.31339 0
M  V30 4693 N 452.299 1.55045 -0.282633 0
M  V30 4694 C 453.547 1.99365 0.331334 0
M  V30 4695 C 453.868 1.1725 1.55812 0
M  V30 4696 O 453.138 0.263871 1.94115 0
M  V30 4697 H 451.718 0.736397 0.125414 0
M  V30 4698 H 454.38 1.90964 -0.389711 0
M  V30 4699 H 453.476 3.0596 0.616036 0
M  V30 4700 N 453.777 0.010035 1.57597 0
M  V30 4701 C 455.017 -0.677084 1.9286 0
M  V30 4702 C 455.381 -1.70377 0.885192 0
M  V30 4703 O 456.582 -2.44199 1.12339 0
M  V30 4704 C 454.853 -1.29452 3.33132 0
M  V30 4705 S 456.412 -2.00537 3.90295 0
M  V30 4706 H 453.23 -0.223409 0.674989 0
M  V30 4707 H 455.832 0.0691289 1.95378 0
M  V30 4708 H 454.536 -0.534593 4.06903 0
M  V30 4709 H 454.067 -2.07845 3.34012 0
M  V30 4710 H 456.082 -3.28168 3.72183 0
M  V30 4711 N 455.255 -1.55392 -0.262866 0
M  V30 4712 C 456.502 -1.76476 -0.993109 0
M  V30 4713 C 456.83 -0.571479 -1.85915 0
M  V30 4714 O 456.085 0.445733 -1.90556 0
M  V30 4715 C 456.384 -3.02889 -1.89718 0
M  V30 4716 C 456.05 -4.34974 -1.18781 0
M  V30 4717 C 454.712 -4.7087 -0.991699 0
M  V30 4718 C 457.064 -5.16695 -0.683798 0
M  V30 4719 C 454.392 -5.86036 -0.279024 0
M  V30 4720 C 456.744 -6.32598 0.0153327 0
M  V30 4721 C 455.408 -6.67127 0.223062 0
M  V30 4722 H 454.678 -0.64577 -0.363404 0
M  V30 4723 H 457.325 -1.89664 -0.264525 0
M  V30 4724 H 455.63 -2.84644 -2.6923 0
M  V30 4725 H 457.327 -3.16399 -2.46359 0
M  V30 4726 H 453.917 -4.06765 -1.35058 0
M  V30 4727 H 458.101 -4.8943 -0.8229 0
M  V30 4728 H 453.357 -6.11306 -0.107456 0
M  V30 4729 H 457.531 -6.95171 0.413584 0
M  V30 4730 H 455.158 -7.56216 0.777265 0
M  V30 4731 N 456.733 0.527833 -1.48498 0
M  V30 4732 C 458.01 1.28905 -1.47115 0
M  V30 4733 C 458.39 2.10297 -0.184007 0
M  V30 4734 O 457.738 2.12728 0.834218 0
M  V30 4735 C 457.948 2.16866 -2.73441 0
M  V30 4736 C 459.296 2.76936 -3.21857 0
M  V30 4737 O 460.32 2.27152 -2.74373 0
M  V30 4738 O 459.179 3.67496 -4.04486 0
M  V30 4739 H 456.273 0.581918 -0.587623 0
M  V30 4740 H 458.819 0.544311 -1.60734 0
M  V30 4741 H 457.591 1.56521 -3.58632 0
M  V30 4742 H 457.214 2.98583 -2.62553 0
M  V30 4743 N 458.211 1.37122 0.776871 0
M  V30 4744 C 459.441 1.35034 1.56363 0
M  V30 4745 C 459.849 -0.0674681 1.8908 0
M  V30 4746 O 459.192 -1.03826 1.51545 0
M  V30 4747 C 459.254 2.11894 2.90415 0
M  V30 4748 C 458.918 3.60897 2.80362 0
M  V30 4749 C 459.915 4.54887 2.51742 0
M  V30 4750 C 457.6 4.03951 2.98545 0
M  V30 4751 C 459.594 5.89909 2.41426 0
M  V30 4752 C 457.281 5.3906 2.87849 0
M  V30 4753 C 458.279 6.31852 2.5933 0
M  V30 4754 O 457.967 7.64479 2.48651 0
M  V30 4755 H 457.699 0.464402 0.49123 0
M  V30 4756 H 460.253 1.80992 0.971127 0
M  V30 4757 H 458.483 1.60618 3.51765 0
M  V30 4758 H 460.172 2.02505 3.51776 0
M  V30 4759 H 460.938 4.22934 2.37385 0
M  V30 4760 H 456.817 3.3209 3.19746 0
M  V30 4761 H 460.361 6.62304 2.19086 0
M  V30 4762 H 456.258 5.70617 3.01773 0
M  V30 4763 H 457.026 7.74742 2.64039 0
M  V30 4764 N 459.689 -1.00246 1.21608 0
M  V30 4765 C 460.917 -1.77631 1.06089 0
M  V30 4766 C 461.332 -1.84746 -0.38916 0
M  V30 4767 O 460.689 -1.31068 -1.26994 0
M  V30 4768 C 460.74 -3.21415 1.65453 0
M  V30 4769 O 460.461 -3.14703 3.04785 0
M  V30 4770 C 461.962 -4.15289 1.55079 0
M  V30 4771 H 459.182 -0.558162 0.37242 0
M  V30 4772 H 461.726 -1.26093 1.60999 0
M  V30 4773 H 459.881 -3.70053 1.14629 0
M  V30 4774 H 460.295 -4.05056 3.33212 0
M  V30 4775 H 461.769 -5.13965 2.01355 0
M  V30 4776 H 462.246 -4.36279 0.505665 0
M  V30 4777 H 462.852 -3.72543 2.05163 0
M  V30 4778 N 461.167 -1.02423 -1.1978 0
M  V30 4779 C 462.416 -0.713265 -1.88667 0
M  V30 4780 C 462.729 0.7609 -1.80193 0
M  V30 4781 O 463.935 1.18473 -2.44288 0
M  V30 4782 C 462.391 -1.22545 -3.38394 0
M  V30 4783 C 461.999 -2.72706 -3.55437 0
M  V30 4784 C 463.743 -0.990257 -4.12788 0
M  V30 4785 C 461.65 -3.17367 -4.99031 0
M  V30 4786 H 460.58 -0.263105 -0.706606 0
M  V30 4787 H 463.231 -1.23792 -1.35454 0
M  V30 4788 H 461.613 -0.628732 -3.90977 0
M  V30 4789 H 462.787 -3.37993 -3.13205 0
M  V30 4790 H 461.102 -2.94453 -2.94425 0
M  V30 4791 H 463.699 -1.29926 -5.18675 0
M  V30 4792 H 464.042 0.0730761 -4.16236 0
M  V30 4793 H 464.575 -1.55074 -3.66329 0
M  V30 4794 H 461.314 -4.23009 -5.00743 0
M  V30 4795 H 460.834 -2.56805 -5.42044 0
M  V30 4796 H 462.513 -3.10441 -5.67658 0
M  V30 4797 N 462.645 1.35699 -0.801477 0
M  V30 4798 C 464.056 1.81415 -0.441073 0
M  V30 4799 C 464.407 1.66595 1.03636 0
M  V30 4800 O 463.532 1.19369 1.80499 0
M  V30 4801 C 464.127 3.29369 -0.793819 0
M  V30 4802 C 462.686 3.73248 -0.486083 0
M  V30 4803 C 461.833 2.57775 -1.02213 0
M  V30 4804 H 464.784 1.23749 -0.993572 0
M  V30 4805 H 464.805 3.80395 -0.0894158 0
M  V30 4806 H 464.317 3.40123 -1.86917 0
M  V30 4807 H 462.418 3.68046 0.580735 0
M  V30 4808 H 462.531 4.68222 -1.01513 0
M  V30 4809 H 460.895 2.50788 -0.444712 0
M  V30 4810 H 461.678 2.71309 -2.10348 0
M  V30 4811 N 464.123 0.554532 1.47522 0
M  V30 4812 C 465.353 0.0342074 2.06572 0
M  V30 4813 C 465.761 -1.26375 1.40805 0
M  V30 4814 O 465.104 -1.7683 0.49769 0
M  V30 4815 C 465.166 -0.235096 3.5873 0
M  V30 4816 C 464.83 0.973024 4.46521 0
M  V30 4817 C 465.827 1.8779 4.848 0
M  V30 4818 C 463.512 1.18694 4.88075 0
M  V30 4819 C 465.506 2.98039 5.63428 0
M  V30 4820 C 463.193 2.29254 5.66468 0
M  V30 4821 C 464.191 3.18757 6.04055 0
M  V30 4822 O 463.879 4.27401 6.8087 0
M  V30 4823 H 463.611 0.041587 0.67472 0
M  V30 4824 H 466.165 0.766748 1.90552 0
M  V30 4825 H 464.395 -1.02191 3.72953 0
M  V30 4826 H 466.084 -0.700477 3.9981 0
M  V30 4827 H 466.85 1.72467 4.53299 0
M  V30 4828 H 462.729 0.49947 4.58286 0
M  V30 4829 H 466.273 3.67926 5.92685 0
M  V30 4830 H 462.17 2.4455 5.97382 0
M  V30 4831 H 462.938 4.25415 6.9926 0
M  V30 4832 N 465.601 -1.54893 0.290851 0
M  V30 4833 C 466.85 -1.99111 -0.322113 0
M  V30 4834 C 467.163 -1.18283 -1.55784 0
M  V30 4835 O 468.369 -1.5272 -2.24475 0
M  V30 4836 C 466.825 -3.54442 -0.624438 0
M  V30 4837 C 466.433 -4.44066 0.592373 0
M  V30 4838 C 468.177 -4.07211 -1.19916 0
M  V30 4839 C 466.084 -5.90812 0.263762 0
M  V30 4840 H 465.014 -0.743712 -0.124133 0
M  V30 4841 H 467.665 -1.79132 0.39797 0
M  V30 4842 H 466.047 -3.70281 -1.40384 0
M  V30 4843 H 467.221 -4.39999 1.36886 0
M  V30 4844 H 465.536 -4.02015 1.08502 0
M  V30 4845 H 468.133 -5.14407 -1.45909 0
M  V30 4846 H 468.476 -3.57196 -2.13815 0
M  V30 4847 H 469.009 -3.94873 -0.481687 0
M  V30 4848 H 465.748 -6.44955 1.17105 0
M  V30 4849 H 465.268 -5.97911 -0.475655 0
M  V30 4850 H 466.947 -6.46852 -0.138354 0
M  V30 4851 N 467.08 -0.0183926 -1.57589 0
M  V30 4852 C 468.027 0.967022 -2.09565 0
M  V30 4853 C 468.997 1.32983 -0.995225 0
M  V30 4854 O 470.182 1.42501 -1.26878 0
M  V30 4855 C 467.322 2.24772 -2.61861 0
M  V30 4856 C 466.435 1.94232 -3.85873 0
M  V30 4857 C 465.57 3.16518 -4.26603 0
M  V30 4858 C 464.609 2.81748 -5.43401 0
M  V30 4859 N 463.746 3.96626 -5.79338 0
M  V30 4860 H 468.586 0.516874 -2.93483 0
M  V30 4861 H 466.123 0.243544 -1.4507 0
M  V30 4862 H 468.081 2.99667 -2.90268 0
M  V30 4863 H 466.711 2.67423 -1.8079 0
M  V30 4864 H 465.763 1.09625 -3.64262 0
M  V30 4865 H 467.075 1.64616 -4.70853 0
M  V30 4866 H 466.229 3.99743 -4.56389 0
M  V30 4867 H 464.968 3.49286 -3.40368 0
M  V30 4868 H 463.973 1.96933 -5.1332 0
M  V30 4869 H 465.198 2.50207 -6.31327 0
M  V30 4870 H 463.144 4.29257 -4.96059 0
M  V30 4871 H 463.061 3.70598 -6.58933 0
M  V30 4872 H 464.329 4.80586 -6.13724 0
M  V30 4873 N 468.558 1.5553 0.254621 0
M  V30 4874 C 469.468 1.92789 1.33677 0
M  V30 4875 C 470.484 0.827356 1.53071 0
M  V30 4876 O 471.66 1.12807 1.66843 0
M  V30 4877 C 468.725 2.20827 2.67275 0
M  V30 4878 C 467.786 3.4427 2.5647 0
M  V30 4879 C 467.019 3.70961 3.83697 0
M  V30 4880 O 467.242 2.99852 4.85227 0
M  V30 4881 O 466.176 4.64491 3.82794 0
M  V30 4882 H 470.002 2.84945 1.05071 0
M  V30 4883 H 467.587 1.42312 0.454723 0
M  V30 4884 H 469.469 2.40204 3.46237 0
M  V30 4885 H 468.144 1.31851 2.9563 0
M  V30 4886 H 467.051 3.30209 1.75821 0
M  V30 4887 H 468.384 4.33524 2.33062 0
M  V30 4888 N 470.036 -0.519951 1.48776 0
M  V30 4889 C 471.452 -0.849418 1.35119 0
M  V30 4890 C 471.652 -1.98077 0.36982 0
M  V30 4891 O 470.708 -2.51664 -0.205359 0
M  V30 4892 C 472.021 -1.20748 2.75391 0
M  V30 4893 C 473.569 -1.31679 2.83954 0
M  V30 4894 C 474.044 -1.70824 4.24951 0
M  V30 4895 N 475.535 -1.77908 4.27672 0
M  V30 4896 C 476.27 -2.09603 5.33717 0
M  V30 4897 N 475.766 -2.39652 6.5003 0
M  V30 4898 N 477.559 -2.10694 5.21119 0
M  V30 4899 H 469.71 0.226377 2.1119 0
M  V30 4900 H 471.973 0.0386519 0.947212 0
M  V30 4901 H 471.679 -0.449703 3.48813 0
M  V30 4902 H 471.553 -2.15534 3.09556 0
M  V30 4903 H 473.94 -2.06532 2.10781 0
M  V30 4904 H 474.021 -0.3499 2.53396 0
M  V30 4905 H 473.665 -0.965282 4.98643 0
M  V30 4906 H 473.595 -2.6858 4.52959 0
M  V30 4907 H 476.086 -1.56923 3.43779 0
M  V30 4908 H 476.399 -2.6297 7.26682 0
M  V30 4909 H 474.744 -2.37149 6.53288 0
M  V30 4910 H 477.935 -1.86682 4.29264 0
M  V30 4911 H 478.108 -2.35062 6.03863 0
M  V30 4912 N 471.514 -1.37532 -0.769588 0
M  V30 4913 C 472.763 -1.32183 -1.5235 0
M  V30 4914 C 473.076 0.0906555 -1.9539 0
M  V30 4915 O 474.282 0.266628 -2.70188 0
M  V30 4916 C 472.738 -2.32029 -2.75119 0
M  V30 4917 C 472.346 -3.78816 -2.3917 0
M  V30 4918 C 474.09 -2.35694 -3.53056 0
M  V30 4919 C 471.997 -4.70388 -3.58453 0
M  V30 4920 H 470.927 -0.491275 -0.571984 0
M  V30 4921 H 473.578 -1.63004 -0.842739 0
M  V30 4922 H 471.96 -1.94229 -3.45096 0
M  V30 4923 H 473.134 -4.25466 -1.76962 0
M  V30 4924 H 471.449 -3.78117 -1.74402 0
M  V30 4925 H 474.046 -3.01312 -4.41718 0
M  V30 4926 H 474.389 -1.37117 -3.93071 0
M  V30 4927 H 474.922 -2.72212 -2.90078 0
M  V30 4928 H 471.661 -5.70102 -3.23518 0
M  V30 4929 H 471.181 -4.28442 -4.19758 0
M  V30 4930 H 472.86 -4.87628 -4.25239 0
M  V30 4931 N 472.992 0.995999 -1.22138 0
M  V30 4932 C 473.924 2.08745 -0.946485 0
M  V30 4933 C 474.937 1.62633 0.0737356 0
M  V30 4934 O 476.126 1.77782 -0.159886 0
M  V30 4935 C 473.226 3.36516 -0.401305 0
M  V30 4936 C 472.399 4.11672 -1.47801 0
M  V30 4937 C 471.458 5.17728 -0.940461 0
M  V30 4938 O 470.484 5.45482 -1.62596 0
M  V30 4939 N 471.686 5.80005 0.239723 0
M  V30 4940 H 474.451 2.32908 -1.88611 0
M  V30 4941 H 472.012 1.16152 -1.12785 0
M  V30 4942 H 474.004 4.04691 -0.0270837 0
M  V30 4943 H 472.574 3.0944 0.443354 0
M  V30 4944 H 471.794 3.38171 -2.02568 0
M  V30 4945 H 473.082 4.58657 -2.20253 0
M  V30 4946 H 472.48 5.5982 0.813518 0
M  V30 4947 H 471.037 6.4943 0.555361 0
M  V30 4948 N 474.47 1.03057 1.19235 0
M  V30 4949 C 475.717 0.728019 1.88961 0
M  V30 4950 C 476.045 -0.743515 1.79728 0
M  V30 4951 O 475.3 -1.55729 1.1852 0
M  V30 4952 C 475.599 1.1268 3.39172 0
M  V30 4953 C 475.265 2.5969 3.68608 0
M  V30 4954 C 473.927 2.99854 3.76352 0
M  V30 4955 C 476.279 3.54793 3.81801 0
M  V30 4956 C 473.607 4.34031 3.94758 0
M  V30 4957 C 475.959 4.88675 4.0172 0
M  V30 4958 C 474.623 5.28526 4.07697 0
M  V30 4959 H 473.893 0.266401 0.691456 0
M  V30 4960 H 476.54 1.29373 1.41191 0
M  V30 4961 H 474.845 0.479722 3.88852 0
M  V30 4962 H 476.542 0.870203 3.91444 0
M  V30 4963 H 473.132 2.27575 3.63191 0
M  V30 4964 H 477.316 3.24914 3.7516 0
M  V30 4965 H 472.572 4.6444 3.97625 0
M  V30 4966 H 476.746 5.6228 4.1087 0
M  V30 4967 H 474.373 6.32506 4.21712 0
M  V30 4968 N 475.948 -1.35272 0.808662 0
M  V30 4969 C 477.196 -1.98316 0.389233 0
M  V30 4970 C 477.517 -1.64465 -1.04767 0
M  V30 4971 O 476.787 -0.928175 -1.72516 0
M  V30 4972 H 475.367 -0.733585 0.140935 0
M  V30 4973 H 478.029 -1.6515 1.03496 0
M  V30 4974 H 477.125 -3.08123 0.496631 0
M  V30 4975 N 477.426 -0.562348 -1.47226 0
M  V30 4976 C 478.373 0.182461 -2.30078 0
M  V30 4977 C 479.343 0.903503 -1.39377 0
M  V30 4978 O 480.528 0.898188 -1.68337 0
M  V30 4979 C 477.668 1.20322 -3.23445 0
M  V30 4980 C 476.781 0.487717 -4.29238 0
M  V30 4981 C 475.916 1.49422 -5.09752 0
M  V30 4982 C 474.955 0.763976 -6.07314 0
M  V30 4983 N 474.092 1.71755 -6.80768 0
M  V30 4984 H 478.932 -0.530169 -2.93246 0
M  V30 4985 H 476.469 -0.273276 -1.44539 0
M  V30 4986 H 478.427 1.80768 -3.76004 0
M  V30 4987 H 477.057 1.88382 -2.6213 0
M  V30 4988 H 476.109 -0.231374 -3.79696 0
M  V30 4989 H 477.421 -0.0841003 -4.98729 0
M  V30 4990 H 476.575 2.17206 -5.66486 0
M  V30 4991 H 475.314 2.09995 -4.40174 0
M  V30 4992 H 474.319 0.0722344 -5.49753 0
M  V30 4993 H 475.544 0.16391 -6.78902 0
M  V30 4994 H 473.49 2.31177 -6.13916 0
M  V30 4995 H 473.407 1.19802 -7.46447 0
M  V30 4996 H 474.675 2.38638 -7.42073 0
M  V30 4997 N 478.904 1.54736 -0.299062 0
M  V30 4998 C 480.32 1.59507 0.0543849 0
M  V30 4999 C 480.52 1.31606 1.52585 0
M  V30 5000 O 479.576 1.08853 2.27832 0
M  V30 5001 C 480.889 2.98751 -0.34181 0
M  V30 5002 C 482.437 3.1165 -0.290414 0
M  V30 5003 C 482.912 4.53199 -0.661402 0
M  V30 5004 N 484.403 4.59114 -0.613863 0
M  V30 5005 C 485.138 5.66709 -0.873417 0
M  V30 5006 N 484.634 6.82349 -1.19884 0
M  V30 5007 N 486.427 5.56369 -0.800608 0
M  V30 5008 H 478.578 1.71133 -1.25806 0
M  V30 5009 H 480.841 0.799186 -0.509908 0
M  V30 5010 H 480.547 3.24085 -1.36608 0
M  V30 5011 H 480.421 3.75961 0.305508 0
M  V30 5012 H 482.808 2.86066 0.724605 0
M  V30 5013 H 482.889 2.366 -0.972327 0
M  V30 5014 H 482.533 4.79513 -1.67422 0
M  V30 5015 H 482.463 5.26583 0.0425612 0
M  V30 5016 H 484.954 3.76053 -0.3732 0
M  V30 5017 H 485.267 7.60326 -1.38291 0
M  V30 5018 H 483.612 6.83906 -1.23685 0
M  V30 5019 H 486.803 4.64904 -0.546045 0
M  V30 5020 H 486.976 6.40139 -1.00626 0
M  V30 5021 N 480.382 0.0267497 1.57577 0
M  V30 5022 C 481.312 -0.954308 2.13108 0
M  V30 5023 C 482.293 -1.34088 1.04663 0
M  V30 5024 O 483.478 -1.41992 1.32484 0
M  V30 5025 C 480.608 -2.23744 2.65624 0
M  V30 5026 C 479.562 -1.99168 3.78835 0
M  V30 5027 C 478.888 -3.33726 4.17769 0
M  V30 5028 C 480.188 -1.33277 5.0501 0
M  V30 5029 H 481.882 -0.491848 2.95332 0
M  V30 5030 H 479.428 -0.23514 1.42067 0
M  V30 5031 H 481.381 -2.92754 3.03106 0
M  V30 5032 H 480.105 -2.72151 1.80558 0
M  V30 5033 H 478.764 -1.32577 3.41788 0
M  V30 5034 H 478.412 -3.79888 3.29688 0
M  V30 5035 H 478.112 -3.18089 4.94058 0
M  V30 5036 H 479.636 -4.04008 4.57832 0
M  V30 5037 H 481.05 -1.92283 5.40093 0
M  V30 5038 H 479.447 -1.28045 5.8628 0
M  V30 5039 H 480.517 -0.305411 4.83937 0
M  V30 5040 N 481.861 -1.55662 -0.24637 0
M  V30 5041 C 483.108 -1.77519 -0.974335 0
M  V30 5042 C 483.436 -0.591165 -1.85298 0
M  V30 5043 O 482.691 0.425497 -1.91018 0
M  V30 5044 C 482.99 -3.04885 -1.86494 0
M  V30 5045 C 482.656 -4.36209 -1.14161 0
M  V30 5046 C 481.318 -4.71896 -0.941701 0
M  V30 5047 C 483.67 -5.17391 -0.628957 0
M  V30 5048 C 480.998 -5.86299 -0.216852 0
M  V30 5049 C 483.35 -6.32546 0.0824273 0
M  V30 5050 C 482.014 -6.66853 0.293807 0
M  V30 5051 H 481.284 -0.649588 -0.356535 0
M  V30 5052 H 483.931 -1.89934 -0.244394 0
M  V30 5053 H 482.236 -2.87484 -2.66196 0
M  V30 5054 H 483.933 -3.18994 -2.42989 0
M  V30 5055 H 480.523 -4.08174 -1.30736 0
M  V30 5056 H 484.707 -4.90276 -0.770943 0
M  V30 5057 H 479.963 -6.11385 -0.0426124 0
M  V30 5058 H 484.137 -6.94693 0.487292 0
M  V30 5059 H 481.764 -7.55349 0.857428 0
M  V30 5060 N 483.339 0.512053 -1.4905 0
M  V30 5061 C 484.616 1.27337 -1.48474 0
M  V30 5062 C 484.996 2.1009 -0.206301 0
M  V30 5063 O 484.344 2.136 0.811609 0
M  V30 5064 C 484.554 2.13954 -2.75726 0
M  V30 5065 C 485.902 2.73507 -3.24776 0
M  V30 5066 O 486.926 2.24229 -2.76767 0
M  V30 5067 O 485.785 3.63186 -4.08361 0
M  V30 5068 H 482.879 0.575652 -0.593762 0
M  V30 5069 H 485.425 0.527232 -1.61302 0
M  V30 5070 H 484.197 1.52709 -3.60272 0
M  V30 5071 H 483.82 2.95782 -2.65705 0
M  V30 5072 N 484.817 1.37938 0.762283 0
M  V30 5073 C 486.064 1.33668 1.52115 0
M  V30 5074 C 486.392 -0.0759538 1.94352 0
M  V30 5075 O 485.647 -1.05121 1.6507 0
M  V30 5076 C 485.946 2.23042 2.79261 0
M  V30 5077 C 485.612 3.71159 2.56031 0
M  V30 5078 C 484.274 4.11523 2.49404 0
M  V30 5079 C 486.626 4.64955 2.35513 0
M  V30 5080 C 483.954 5.43784 2.20263 0
M  V30 5081 C 486.306 5.97464 2.07894 0
M  V30 5082 C 484.97 6.36922 1.99718 0
M  V30 5083 H 484.24 0.489127 0.556629 0
M  V30 5084 H 486.887 1.70224 0.877262 0
M  V30 5085 H 485.192 1.79512 3.48256 0
M  V30 5086 H 486.889 2.17047 3.37182 0
M  V30 5087 H 483.479 3.39153 2.62056 0
M  V30 5088 H 487.663 4.34623 2.39617 0
M  V30 5089 H 482.919 5.73307 2.12435 0
M  V30 5090 H 487.093 6.6969 1.91019 0
M  V30 5091 H 484.72 7.39331 1.76902 0
M  V30 5092 N 486.295 -0.989507 1.22664 0
M  V30 5093 C 487.227 -2.0824 0.957542 0
M  V30 5094 C 488.24 -1.6267 -0.0651098 0
M  V30 5095 O 489.429 -1.77695 0.169312 0
M  V30 5096 C 486.529 -3.36298 0.419145 0
M  V30 5097 C 485.702 -4.10882 1.49982 0
M  V30 5098 C 484.761 -5.17221 0.967904 0
M  V30 5099 O 483.787 -5.44613 1.65487 0
M  V30 5100 N 484.989 -5.80124 -0.20896 0
M  V30 5101 H 487.754 -2.31904 1.89843 0
M  V30 5102 H 485.315 -1.15552 1.13399 0
M  V30 5103 H 487.307 -4.04671 0.0485451 0
M  V30 5104 H 485.877 -3.09671 -0.426937 0
M  V30 5105 H 485.097 -3.37092 2.04359 0
M  V30 5106 H 486.385 -4.57482 2.22682 0
M  V30 5107 H 485.783 -5.60244 -0.783818 0
M  V30 5108 H 484.34 -6.49715 -0.520913 0
M  V30 5109 N 487.773 -1.03688 -1.18687 0
M  V30 5110 C 489.021 -0.736572 -1.88199 0
M  V30 5111 C 489.342 0.737665 -1.80509 0
M  V30 5112 O 488.612 1.53204 -1.22088 0
M  V30 5113 H 487.192 -0.269466 -0.696704 0
M  V30 5114 H 489.854 -1.31282 -1.44052 0
M  V30 5115 H 488.95 -1.03802 -2.94332 0
M  V30 5116 N 489.251 1.34841 -0.815825 0
M  V30 5117 C 490.181 2.32187 -0.247298 0
M  V30 5118 C 491.162 1.5791 0.632344 0
M  V30 5119 O 492.347 1.8593 0.560698 0
M  V30 5120 C 489.477 3.42122 0.597466 0
M  V30 5121 C 488.431 4.27602 -0.184446 0
M  V30 5122 C 487.757 5.28942 0.782609 0
M  V30 5123 C 489.057 5.03502 -1.38865 0
M  V30 5124 H 490.751 2.79985 -1.06061 0
M  V30 5125 H 488.297 1.34611 -0.511461 0
M  V30 5126 H 490.25 4.09232 1.00533 0
M  V30 5127 H 488.974 2.92956 1.44376 0
M  V30 5128 H 487.633 3.62085 -0.573592 0
M  V30 5129 H 487.281 4.7604 1.62466 0
M  V30 5130 H 486.981 5.87008 0.263695 0
M  V30 5131 H 488.505 5.98922 1.18848 0
M  V30 5132 H 489.919 5.63506 -1.05518 0
M  V30 5133 H 488.316 5.71108 -1.8427 0
M  V30 5134 H 489.386 4.33608 -2.17054 0
M  V30 5135 N 490.729 0.570148 1.46925 0
M  V30 5136 C 491.661 -0.207909 2.28255 0
M  V30 5137 C 492.674 -0.867301 1.37774 0
M  V30 5138 O 493.863 -0.738976 1.62485 0
M  V30 5139 C 490.963 -1.31298 3.12433 0
M  V30 5140 C 490.136 -0.747915 4.30958 0
M  V30 5141 C 489.195 -1.7391 4.9663 0
M  V30 5142 O 488.221 -1.2801 5.54619 0
M  V30 5143 N 489.423 -3.07288 4.92498 0
M  V30 5144 H 492.188 0.489794 2.95671 0
M  V30 5145 H 489.749 0.407076 1.56699 0
M  V30 5146 H 491.741 -1.97507 3.53232 0
M  V30 5147 H 490.311 -1.91373 2.47175 0
M  V30 5148 H 489.531 0.0913066 3.94094 0
M  V30 5149 H 490.819 -0.349958 5.07595 0
M  V30 5150 H 490.217 -3.47213 4.46609 0
M  V30 5151 H 488.774 -3.69021 5.37277 0
M  V30 5152 N 492.207 -1.54576 0.307264 0
M  V30 5153 C 493.157 -2.20467 -0.581249 0
M  V30 5154 C 494.141 -1.17972 -1.09414 0
M  V30 5155 O 495.333 -1.43667 -1.03387 0
M  V30 5156 C 492.462 -2.95369 -1.74963 0
M  V30 5157 C 491.548 -4.05186 -1.25241 0
M  V30 5158 N 491.939 -5.03577 -0.47364 0
M  V30 5159 C 490.237 -4.18841 -1.53259 0
M  V30 5160 C 490.938 -5.81328 -0.208083 0
M  V30 5161 N 489.914 -5.37834 -0.789651 0
M  V30 5162 H 493.716 -2.93892 0.0212221 0
M  V30 5163 H 491.23 -1.62011 0.112325 0
M  V30 5164 H 493.227 -3.41046 -2.39777 0
M  V30 5165 H 491.887 -2.23461 -2.35574 0
M  V30 5166 H 492.898 -5.17766 -0.117963 0
M  V30 5167 H 489.575 -3.58141 -2.14573 0
M  V30 5168 H 490.965 -6.706 0.417793 0
M  V30 5169 N 493.685 -0.035106 -1.57561 0
M  V30 5170 C 494.617 0.973604 -2.07494 0
M  V30 5171 C 495.63 1.28504 -0.999534 0
M  V30 5172 O 496.819 1.24864 -1.27559 0
M  V30 5173 C 493.919 2.29945 -2.48955 0
M  V30 5174 C 493.092 2.1723 -3.79644 0
M  V30 5175 C 492.151 3.328 -4.07592 0
M  V30 5176 O 491.177 3.09418 -4.77754 0
M  V30 5177 N 492.379 4.56779 -3.58236 0
M  V30 5178 H 495.144 0.547525 -2.94656 0
M  V30 5179 H 492.705 0.151515 -1.61189 0
M  V30 5180 H 494.697 3.06097 -2.64739 0
M  V30 5181 H 493.267 2.64173 -1.67126 0
M  V30 5182 H 492.487 1.25768 -3.73599 0
M  V30 5183 H 493.775 2.05945 -4.65257 0
M  V30 5184 H 493.173 4.78668 -3.01485 0
M  V30 5185 H 491.73 5.30079 -3.79288 0
M  V30 5186 N 495.163 1.55791 0.238111 0
M  V30 5187 C 496.409 1.78297 0.966337 0
M  V30 5188 C 496.742 0.601903 1.84637 0
M  V30 5189 O 496.017 -0.399499 1.90353 0
M  V30 5190 C 496.3 3.10758 1.81939 0
M  V30 5191 C 496.153 4.39283 0.966958 0
M  V30 5192 C 497.472 3.39519 2.80027 0
M  V30 5193 H 494.591 0.648654 0.349882 0
M  V30 5194 H 497.233 1.88525 0.236253 0
M  V30 5195 H 495.383 3.02168 2.44185 0
M  V30 5196 H 497.055 4.59873 0.362514 0
M  V30 5197 H 495.298 4.32948 0.271669 0
M  V30 5198 H 495.969 5.28368 1.59784 0
M  V30 5199 H 498.445 3.48128 2.27917 0
M  V30 5200 H 497.321 4.33402 3.36829 0
M  V30 5201 H 497.582 2.60864 3.56934 0
M  V30 5202 N 496.642 -0.504142 1.49319 0
M  V30 5203 C 497.605 -1.5883 1.65244 0
M  V30 5204 C 498.605 -1.52009 0.524386 0
M  V30 5205 O 499.795 -1.55218 0.79077 0
M  V30 5206 C 496.927 -2.98481 1.64687 0
M  V30 5207 H 498.12 -1.4604 2.61939 0
M  V30 5208 H 495.673 -0.728144 1.38303 0
M  V30 5209 H 496.408 -3.16751 0.695644 0
M  V30 5210 H 496.193 -3.0484 2.46607 0
M  V30 5211 H 497.683 -3.77256 1.79075 0
M  V30 5212 N 498.12 -1.38341 -0.754957 0
M  V30 5213 C 499.07 -1.31964 -1.85929 0
M  V30 5214 C 500.054 -0.204181 -1.59599 0
M  V30 5215 O 501.246 -0.440036 -1.71443 0
M  V30 5216 C 498.375 -1.14565 -3.2362 0
M  V30 5217 C 497.461 -2.30727 -3.55846 0
M  V30 5218 N 497.852 -3.56165 -3.59138 0
M  V30 5219 C 496.15 -2.23249 -3.86104 0
M  V30 5220 C 496.851 -4.32865 -3.88591 0
M  V30 5221 N 495.827 -3.62203 -4.05351 0
M  V30 5222 H 499.629 -2.2694 -1.8675 0
M  V30 5223 H 497.143 -1.31553 -0.952243 0
M  V30 5224 H 499.14 -1.0808 -4.02647 0
M  V30 5225 H 497.8 -0.205212 -3.24051 0
M  V30 5226 H 498.811 -3.89854 -3.40932 0
M  V30 5227 H 495.488 -1.37357 -3.94258 0
M  V30 5228 H 496.878 -5.41504 -3.97773 0
M  V30 5229 N 499.598 0.982988 -1.23187 0
M  V30 5230 C 500.844 1.72648 -1.06398 0
M  V30 5231 C 501.177 1.90066 0.398561 0
M  V30 5232 O 500.452 1.45105 1.29518 0
M  V30 5233 C 500.735 3.12627 -1.78707 0
M  V30 5234 C 500.588 3.02795 -3.32618 0
M  V30 5235 C 501.907 4.11997 -1.54747 0
M  V30 5236 H 499.026 0.626649 -0.387918 0
M  V30 5237 H 501.668 1.14455 -1.51658 0
M  V30 5238 H 499.818 3.62308 -1.40234 0
M  V30 5239 H 501.49 2.60659 -3.80598 0
M  V30 5240 H 499.733 2.39362 -3.61785 0
M  V30 5241 H 500.404 4.01893 -3.78399 0
M  V30 5242 H 502.88 3.71114 -1.88186 0
M  V30 5243 H 501.756 5.08037 -2.07821 0
M  V30 5244 H 502.017 4.39462 -0.482249 0
M  V30 5245 N 501.076 1.04316 1.18135 0
M  V30 5246 C 502.039 0.640794 2.2006 0
M  V30 5247 C 503.039 -0.303124 1.57917 0
M  V30 5248 O 504.229 -0.0881855 1.73977 0
M  V30 5249 C 501.361 -0.060148 3.40847 0
M  V30 5250 H 502.554 1.54281 2.57172 0
M  V30 5251 H 500.107 0.836004 1.32063 0
M  V30 5252 H 500.842 -0.975845 3.0927 0
M  V30 5253 H 500.627 0.618319 3.87194 0
M  V30 5254 H 502.117 -0.328082 4.16309 0
M  V30 5255 N 502.554 -1.34406 0.822964 0
M  V30 5256 C 503.782 -2.02508 0.424039 0
M  V30 5257 C 504.197 -1.61975 -0.970022 0
M  V30 5258 O 503.554 -0.825228 -1.62777 0
M  V30 5259 C 503.605 -3.57789 0.516657 0
M  V30 5260 O 503.326 -3.96853 1.85577 0
M  V30 5261 C 504.827 -4.43157 0.112637 0
M  V30 5262 H 502.047 -0.649063 0.170173 0
M  V30 5263 H 504.591 -1.7168 1.11113 0
M  V30 5264 H 502.746 -3.87207 -0.122353 0
M  V30 5265 H 503.16 -4.91538 1.83005 0
M  V30 5266 H 504.634 -5.51527 0.228526 0
M  V30 5267 H 505.111 -4.28939 -0.943837 0
M  V30 5268 H 505.717 -4.19067 0.725449 0
M  V30 5269 N 504.032 -0.577932 -1.46621 0
M  V30 5270 C 504.964 0.195801 -2.28362 0
M  V30 5271 C 505.977 0.859983 -1.38232 0
M  V30 5272 O 507.166 0.730349 -1.62875 0
M  V30 5273 C 504.266 1.29639 -3.13124 0
M  V30 5274 C 503.439 0.725049 -4.31349 0
M  V30 5275 C 502.498 1.71274 -4.97546 0
M  V30 5276 O 501.524 1.25067 -5.5529 0
M  V30 5277 N 502.726 3.04672 -4.94121 0
M  V30 5278 H 505.491 -0.505468 -2.95407 0
M  V30 5279 H 503.052 -0.415381 -1.56481 0
M  V30 5280 H 505.044 1.95631 -3.54275 0
M  V30 5281 H 503.614 1.90059 -2.48186 0
M  V30 5282 H 502.834 -0.112205 -3.9404 0
M  V30 5283 H 504.122 0.323034 -5.07774 0
M  V30 5284 H 503.52 3.4484 -4.48444 0
M  V30 5285 H 502.077 3.66166 -5.39227 0
M  V30 5286 N 505.51 1.54411 -0.315457 0
M  V30 5287 C 506.44 2.27002 0.547039 0
M  V30 5288 C 507.421 1.27492 1.12605 0
M  V30 5289 O 508.606 1.5629 1.15269 0
M  V30 5290 C 505.736 3.02171 1.71201 0
M  V30 5291 C 504.69 4.0895 1.26268 0
M  V30 5292 C 504.016 4.71915 2.51396 0
M  V30 5293 C 505.316 5.20891 0.383419 0
M  V30 5294 H 507.01 2.99343 -0.0584517 0
M  V30 5295 H 504.556 1.4397 -0.0295527 0
M  V30 5296 H 506.509 3.51681 2.32161 0
M  V30 5297 H 505.233 2.27433 2.34397 0
M  V30 5298 H 503.892 3.60312 0.676062 0
M  V30 5299 H 503.54 3.93801 3.12937 0
M  V30 5300 H 503.24 5.44039 2.22026 0
M  V30 5301 H 504.764 5.24195 3.13133 0
M  V30 5302 H 506.178 5.66206 0.899082 0
M  V30 5303 H 504.575 5.99821 0.182857 0
M  V30 5304 H 505.645 4.81324 -0.587821 0
M  V30 5305 N 506.988 0.0434614 1.5754 0
M  V30 5306 C 507.898 -0.94893 2.14552 0
M  V30 5307 C 508.914 -1.34707 1.10136 0
M  V30 5308 O 510.09 -1.42557 1.42266 0
M  V30 5309 C 507.155 -2.208 2.67298 0
M  V30 5310 C 506.216 -1.86893 3.86484 0
M  V30 5311 C 505.449 -3.06797 4.36705 0
M  V30 5312 O 505.672 -4.19921 3.86034 0
M  V30 5313 O 504.606 -2.8826 5.28384 0
M  V30 5314 H 508.432 -0.494099 2.99654 0
M  V30 5315 H 506.017 -0.177989 1.48336 0
M  V30 5316 H 507.899 -2.94686 3.01228 0
M  V30 5317 H 506.574 -2.65436 1.85272 0
M  V30 5318 H 505.481 -1.10347 3.57455 0
M  V30 5319 H 506.814 -1.47062 4.69716 0
M  V30 5320 N 508.466 -1.55915 -0.229846 0
M  V30 5321 C 509.429 -1.90914 -1.26824 0
M  V30 5322 C 510.429 -0.786999 -1.40225 0
M  V30 5323 O 511.619 -1.05484 -1.38632 0
M  V30 5324 C 508.751 -2.15264 -2.64337 0
M  V30 5325 H 509.944 -2.8378 -0.969998 0
M  V30 5326 H 507.497 -1.49069 -0.4699 0
M  V30 5327 H 508.232 -1.24923 -2.99274 0
M  V30 5328 H 508.017 -2.97005 -2.55989 0
M  V30 5329 H 509.507 -2.43467 -3.39284 0
M  V30 5330 N 509.944 0.496216 -1.49584 0
M  V30 5331 C 510.907 1.57952 -1.66084 0
M  V30 5332 C 511.907 1.51729 -0.53244 0
M  V30 5333 O 513.097 1.54796 -0.79899 0
M  V30 5334 C 510.229 2.97604 -1.66268 0
M  V30 5335 H 511.422 1.44649 -2.6271 0
M  V30 5336 H 508.975 0.7208 -1.38687 0
M  V30 5337 H 509.71 3.16378 -0.712432 0
M  V30 5338 H 509.495 3.03528 -2.4822 0
M  V30 5339 H 510.985 3.76301 -1.81073 0
M  V30 5340 N 511.423 1.38739 0.74761 0
M  V30 5341 C 512.839 1.20067 1.05148 0
M  V30 5342 C 513.039 0.0534835 2.01429 0
M  V30 5343 O 512.095 -0.59886 2.45296 0
M  V30 5344 C 513.408 2.52957 1.62584 0
M  V30 5345 C 514.956 2.59692 1.74726 0
M  V30 5346 C 515.431 3.92772 2.35573 0
M  V30 5347 N 516.922 3.94343 2.42997 0
M  V30 5348 C 517.657 4.9408 2.90985 0
M  V30 5349 N 517.153 6.04214 3.38965 0
M  V30 5350 N 518.946 4.81466 2.9008 0
M  V30 5351 H 511.097 2.12121 0.108808 0
M  V30 5352 H 513.36 0.941491 0.110899 0
M  V30 5353 H 513.066 3.37389 0.993051 0
M  V30 5354 H 512.94 2.71779 2.61565 0
M  V30 5355 H 515.327 1.75651 2.3713 0
M  V30 5356 H 515.408 2.44731 0.744326 0
M  V30 5357 H 515.052 4.77238 1.738 0
M  V30 5358 H 514.982 4.05046 3.36519 0
M  V30 5359 H 517.473 3.14799 2.0907 0
M  V30 5360 H 517.786 6.76241 3.74056 0
M  V30 5361 H 516.131 6.07825 3.37007 0
M  V30 5362 H 519.322 3.94535 2.51912 0
M  V30 5363 H 519.495 5.59344 3.27166 0
M  V30 5364 N 512.901 -0.976442 1.23707 0
M  V30 5365 C 513.831 -2.08749 1.04624 0
M  V30 5366 C 514.812 -1.70057 -0.0380956 0
M  V30 5367 O 515.997 -1.93782 0.127308 0
M  V30 5368 C 513.127 -3.41335 0.640902 0
M  V30 5369 C 512.081 -3.93947 1.67302 0
M  V30 5370 C 511.407 -5.22774 1.12301 0
M  V30 5371 C 512.707 -4.22769 3.06697 0
M  V30 5372 H 514.401 -2.24972 1.97555 0
M  V30 5373 H 511.947 -1.08108 0.951247 0
M  V30 5374 H 513.9 -4.18489 0.494434 0
M  V30 5375 H 512.624 -3.24988 -0.324099 0
M  V30 5376 H 511.283 -3.18941 1.80755 0
M  V30 5377 H 510.931 -5.0278 0.148877 0
M  V30 5378 H 510.631 -5.58942 1.81267 0
M  V30 5379 H 512.155 -6.02546 0.988479 0
M  V30 5380 H 513.569 -4.90659 2.96524 0
M  V30 5381 H 511.966 -4.70147 3.72937 0
M  V30 5382 H 513.036 -3.29885 3.55392 0
M  V30 5383 N 514.379 -1.04941 -1.1758 0
M  V30 5384 C 515.309 -0.669172 -2.23706 0
M  V30 5385 C 516.29 0.331835 -1.66832 0
M  V30 5386 O 517.475 0.209988 -1.93061 0
M  V30 5387 C 514.605 -0.0404889 -3.47276 0
M  V30 5388 C 513.559 -0.965983 -4.16957 0
M  V30 5389 C 512.885 -0.201312 -5.34321 0
M  V30 5390 C 514.185 -2.28902 -4.69469 0
M  V30 5391 H 515.879 -1.55639 -2.55767 0
M  V30 5392 H 513.425 -0.749793 -1.22939 0
M  V30 5393 H 515.378 0.237298 -4.20731 0
M  V30 5394 H 514.102 0.881658 -3.14475 0
M  V30 5395 H 512.761 -1.22829 -3.45411 0
M  V30 5396 H 512.409 0.723519 -4.97769 0
M  V30 5397 H 512.109 -0.817968 -5.81879 0
M  V30 5398 H 513.633 0.0692499 -6.10561 0
M  V30 5399 H 515.047 -2.07132 -5.34574 0
M  V30 5400 H 513.444 -2.85942 -5.27596 0
M  V30 5401 H 514.514 -2.92937 -3.86414 0
M  V30 5402 N 515.857 1.33968 -0.830081 0
M  V30 5403 C 517.085 2.0228 -0.434773 0
M  V30 5404 C 517.5 1.62487 0.961419 0
M  V30 5405 O 516.857 0.833849 1.62337 0
M  V30 5406 C 516.908 3.5751 -0.535625 0
M  V30 5407 O 516.629 3.95864 -1.87679 0
M  V30 5408 C 518.13 4.43091 -0.136137 0
M  V30 5409 H 515.35 0.648151 -0.173613 0
M  V30 5410 H 517.894 1.71089 -1.12022 0
M  V30 5411 H 516.049 3.87266 0.101817 0
M  V30 5412 H 516.463 4.9056 -1.85609 0
M  V30 5413 H 517.937 5.51398 -0.257772 0
M  V30 5414 H 518.414 4.29433 0.921076 0
M  V30 5415 H 519.02 4.18677 -0.747662 0
M  V30 5416 N 517.335 0.585699 1.46312 0
M  V30 5417 C 518.565 0.0780166 2.06453 0
M  V30 5418 C 518.973 -1.2336 1.43454 0
M  V30 5419 O 518.316 -1.75734 0.535086 0
M  V30 5420 C 518.378 -0.158951 3.59148 0
M  V30 5421 C 518.042 1.06752 4.44357 0
M  V30 5422 C 519.039 1.98031 4.80708 0
M  V30 5423 C 516.724 1.2902 4.85447 0
M  V30 5424 C 518.718 3.09924 5.5698 0
M  V30 5425 C 516.405 2.41218 5.61478 0
M  V30 5426 C 517.403 3.31499 5.97158 0
M  V30 5427 O 517.091 4.41747 6.71651 0
M  V30 5428 H 516.823 0.0558894 0.673686 0
M  V30 5429 H 519.377 0.806994 1.88883 0
M  V30 5430 H 517.607 -0.942575 3.75037 0
M  V30 5431 H 519.296 -0.615513 4.01206 0
M  V30 5432 H 520.062 1.82043 4.49539 0
M  V30 5433 H 515.941 0.596567 4.57124 0
M  V30 5434 H 519.485 3.80415 5.84748 0
M  V30 5435 H 515.382 2.57167 5.9206 0
M  V30 5436 H 516.15 4.40152 6.90079 0
M  V30 5437 N 518.813 -1.54241 0.323641 0
M  V30 5438 C 519.761 -2.25813 -0.557804 0
M  V30 5439 C 520.755 -1.27225 -1.11849 0
M  V30 5440 O 521.961 -1.45001 -1.06652 0
M  V30 5441 H 518.336 -0.72532 -0.198532 0
M  V30 5442 H 520.307 -2.98322 0.0681112 0
M  V30 5443 C 519.056 -3.02913 -1.70701 0
M  V30 5444 H 518.379 -3.78593 -1.28482 0
M  V30 5445 H 519.819 -3.56238 -2.29935 0
M  V30 5446 C 518.278 -2.11217 -2.62467 0
M  V30 5447 O 518.808 -1.69508 -3.64184 0
M  V30 5448 N 517.014 -1.76704 -2.30703 0
M  V30 5449 H 516.561 -2.1082 -1.48029 0
M  V30 5450 H 516.519 -1.15631 -2.92364 0
M  V30 5451 N 520.291 -0.0518155 -1.57515 0
M  V30 5452 C 521.254 0.907547 -2.10467 0
M  V30 5453 C 522.254 1.23947 -1.02439 0
M  V30 5454 O 523.444 1.17604 -1.2851 0
M  V30 5455 C 520.576 2.21723 -2.58944 0
M  V30 5456 H 521.769 0.44851 -2.96527 0
M  V30 5457 H 519.322 0.196598 -1.55059 0
M  V30 5458 H 520.057 2.72206 -1.76279 0
M  V30 5459 H 519.842 1.98935 -3.37886 0
M  V30 5460 H 521.332 2.90441 -3.00056 0
M  V30 5461 N 521.769 1.56035 0.221574 0
M  V30 5462 C 522.732 1.91584 1.2581 0
M  V30 5463 C 523.732 0.794425 1.39805 0
M  V30 5464 O 524.922 1.06217 1.38071 0
M  V30 5465 C 522.054 2.16663 2.63192 0
M  V30 5466 H 523.247 2.8429 0.954935 0
M  V30 5467 H 520.8 1.49316 0.461988 0
M  V30 5468 H 521.535 1.26508 2.98607 0
M  V30 5469 H 521.32 2.98358 2.5441 0
M  V30 5470 H 522.81 2.45262 3.37988 0
M  V30 5471 N 523.247 -0.488276 1.49845 0
M  V30 5472 C 524.663 -0.820566 1.3689 0
M  V30 5473 C 524.863 -1.97248 0.411752 0
M  V30 5474 O 523.919 -2.52042 -0.151931 0
M  V30 5475 C 525.232 -1.1488 2.77891 0
M  V30 5476 C 526.78 -1.25626 2.86683 0
M  V30 5477 C 527.255 -1.61772 4.28479 0
M  V30 5478 N 528.746 -1.68797 4.31349 0
M  V30 5479 C 529.481 -1.98235 5.38043 0
M  V30 5480 N 528.977 -2.2581 6.54967 0
M  V30 5481 N 530.77 -1.99593 5.2547 0
M  V30 5482 H 522.921 0.271123 2.10662 0
M  V30 5483 H 525.184 0.058735 0.946179 0
M  V30 5484 H 524.89 -0.375614 3.49688 0
M  V30 5485 H 524.764 -2.08919 3.14058 0
M  V30 5486 H 527.151 -2.02014 2.15114 0
M  V30 5487 H 527.232 -0.296072 2.54081 0
M  V30 5488 H 526.876 -0.859295 5.00578 0
M  V30 5489 H 526.806 -2.58912 4.58554 0
M  V30 5490 H 529.297 -1.49595 3.4703 0
M  V30 5491 H 529.61 -2.47497 7.32096 0
M  V30 5492 H 527.955 -2.23239 6.58171 0
M  V30 5493 H 531.146 -1.77535 4.33127 0
M  V30 5494 H 531.319 -2.222 6.08713 0
M  V30 5495 N 524.725 -1.39134 -0.740242 0
M  V30 5496 C 525.655 -1.40165 -1.86751 0
M  V30 5497 C 526.636 -0.265708 -1.68012 0
M  V30 5498 O 527.821 -0.47076 -1.88408 0
M  V30 5499 C 524.951 -1.2392 -3.2444 0
M  V30 5500 C 523.905 -2.34858 -3.57807 0
M  V30 5501 C 523.231 -2.03707 -4.94376 0
M  V30 5502 C 524.531 -3.77159 -3.61315 0
M  V30 5503 H 526.225 -2.345 -1.86145 0
M  V30 5504 H 523.771 -1.12875 -0.89416 0
M  V30 5505 H 525.724 -1.23263 -4.02969 0
M  V30 5506 H 524.448 -0.26051 -3.25559 0
M  V30 5507 H 523.107 -2.34723 -2.81604 0
M  V30 5508 H 522.755 -1.04289 -4.9207 0
M  V30 5509 H 522.455 -2.78016 -5.17669 0
M  V30 5510 H 523.979 -2.04691 -5.75268 0
M  V30 5511 H 525.393 -3.79252 -4.29931 0
M  V30 5512 H 523.79 -4.50784 -3.96124 0
M  V30 5513 H 524.86 -4.08513 -2.61238 0
M  V30 5514 N 526.204 0.969867 -1.24223 0
M  V30 5515 C 527.134 2.08191 -1.05729 0
M  V30 5516 C 528.115 1.70075 0.0290765 0
M  V30 5517 O 529.3 1.93712 -0.137583 0
M  V30 5518 C 526.43 3.40991 -0.658995 0
M  V30 5519 C 525.384 3.93054 -1.69389 0
M  V30 5520 C 524.71 5.22171 -1.15072 0
M  V30 5521 C 526.01 4.21137 -3.08935 0
M  V30 5522 H 527.704 2.23921 -1.98746 0
M  V30 5523 H 525.25 1.07602 -0.956967 0
M  V30 5524 H 527.203 4.18221 -0.51662 0
M  V30 5525 H 525.927 3.25155 0.30686 0
M  V30 5526 H 524.586 3.17977 -1.82444 0
M  V30 5527 H 524.234 5.02694 -0.175539 0
M  V30 5528 H 523.934 5.57973 -1.84229 0
M  V30 5529 H 525.458 6.02013 -1.02042 0
M  V30 5530 H 526.872 4.8908 -2.99121 0
M  V30 5531 H 525.269 4.68163 -3.75425 0
M  V30 5532 H 526.339 3.27996 -3.57137 0
M  V30 5533 N 527.682 1.05563 1.17022 0
M  V30 5534 C 528.592 0.670758 2.24807 0
M  V30 5535 C 529.608 -0.309865 1.71219 0
M  V30 5536 O 530.784 -0.161025 2.00755 0
M  V30 5537 C 527.849 0.055337 3.46656 0
M  V30 5538 C 526.91 1.08688 4.15314 0
M  V30 5539 C 526.143 0.500736 5.31346 0
M  V30 5540 O 526.366 -0.688718 5.66227 0
M  V30 5541 O 525.3 1.23683 5.89055 0
M  V30 5542 H 529.126 1.56914 2.60023 0
M  V30 5543 H 526.711 0.827428 1.24395 0
M  V30 5544 H 528.593 -0.286492 4.20425 0
M  V30 5545 H 527.268 -0.816638 3.13229 0
M  V30 5546 H 526.175 1.48077 3.43546 0
M  V30 5547 H 527.508 1.93014 4.52777 0
M  V30 5548 N 529.16 -1.33526 0.837174 0
M  V30 5549 C 530.123 -2.27551 0.274421 0
M  V30 5550 C 531.123 -1.50886 -0.555881 0
M  V30 5551 O 532.313 -1.70227 -0.369918 0
M  V30 5552 C 529.445 -3.35332 -0.613605 0
M  V30 5553 H 530.638 -2.78837 1.10408 0
M  V30 5554 H 528.191 -1.439 0.610126 0
M  V30 5555 H 528.926 -2.89285 -1.46577 0
M  V30 5556 H 528.711 -3.92095 -0.0195341 0
M  V30 5557 H 530.201 -4.05433 -1.00068 0
M  V30 5558 N 530.638 -0.59345 -1.46 0
M  V30 5559 C 531.886 -0.082988 -2.0193 0
M  V30 5560 C 532.207 1.28569 -1.46612 0
M  V30 5561 O 531.477 1.84629 -0.654909 0
M  V30 5562 H 530.057 -0.0276882 -0.746487 0
M  V30 5563 H 532.719 -0.771657 -1.78973 0
M  V30 5564 H 531.815 -0.022079 -3.12092 0
M  V30 5565 N 532.116 1.54067 -0.331816 0
M  V30 5566 C 533.063 2.24623 0.530372 0
M  V30 5567 C 534.033 1.24009 1.10503 0
M  V30 5568 O 535.218 1.52712 1.14384 0
M  V30 5569 C 532.358 3.01374 1.68129 0
M  V30 5570 C 531.471 4.16821 1.13507 0
M  V30 5571 C 530.606 4.81085 2.25234 0
M  V30 5572 C 529.645 5.88621 1.67903 0
M  V30 5573 N 528.782 6.46713 2.73326 0
M  V30 5574 H 533.622 2.97898 -0.0778607 0
M  V30 5575 H 531.159 1.47014 -0.0501965 0
M  V30 5576 H 533.117 3.44125 2.35868 0
M  V30 5577 H 531.747 2.30419 2.26069 0
M  V30 5578 H 530.799 3.78796 0.348979 0
M  V30 5579 H 532.111 4.94203 0.675633 0
M  V30 5580 H 531.265 5.26846 3.00862 0
M  V30 5581 H 530.004 4.03102 2.74518 0
M  V30 5582 H 529.009 5.42254 0.907773 0
M  V30 5583 H 530.234 6.68506 1.19487 0
M  V30 5584 H 528.18 5.71599 3.21886 0
M  V30 5585 H 528.097 7.19532 2.3197 0
M  V30 5586 H 529.365 6.97129 3.48758 0
M  V30 5587 N 533.594 0.0601682 1.57485 0
M  V30 5588 C 535.005 -0.474217 1.80577 0
M  V30 5589 C 535.356 -1.70365 0.973147 0
M  V30 5590 O 534.481 -2.15544 0.192306 0
M  V30 5591 C 535.076 -0.867102 3.27516 0
M  V30 5592 C 533.635 -1.34642 3.51495 0
M  V30 5593 C 532.782 -0.32594 2.75378 0
M  V30 5594 H 535.733 0.285973 1.56102 0
M  V30 5595 H 535.754 -1.72938 3.38929 0
M  V30 5596 H 535.266 0.0278927 3.8809 0
M  V30 5597 H 533.367 -2.2603 2.96212 0
M  V30 5598 H 533.48 -1.33237 4.60201 0
M  V30 5599 H 531.844 -0.800749 2.41785 0
M  V30 5600 H 532.627 0.561125 3.38683 0
M  V30 5601 N 535.072 -1.5615 -0.213296 0
M  V30 5602 C 536.319 -1.79546 -0.936462 0
M  V30 5603 C 536.647 -0.630337 -1.84003 0
M  V30 5604 O 535.902 0.384883 -1.91878 0
M  V30 5605 C 536.201 -3.08772 -1.79985 0
M  V30 5606 C 535.867 -4.38532 -1.04882 0
M  V30 5607 C 534.529 -4.73787 -0.841393 0
M  V30 5608 C 536.881 -5.18609 -0.51907 0
M  V30 5609 C 534.209 -5.86627 -0.0924403 0
M  V30 5610 C 536.561 -6.32229 0.216581 0
M  V30 5611 C 535.225 -6.6608 0.435191 0
M  V30 5612 H 534.495 -0.657004 -0.342676 0
M  V30 5613 H 537.142 -1.9041 -0.204051 0
M  V30 5614 H 535.447 -2.93065 -2.60038 0
M  V30 5615 H 537.144 -3.24077 -2.36168 0
M  V30 5616 H 533.734 -4.10855 -1.22048 0
M  V30 5617 H 537.918 -4.91801 -0.666775 0
M  V30 5618 H 533.174 -6.11338 0.087081 0
M  V30 5619 H 537.348 -6.93503 0.634538 0
M  V30 5620 H 534.975 -7.5336 1.01746 0
M  V30 5621 N 536.55 0.480323 -1.50102 0
M  V30 5622 C 537.799 1.22979 -1.59872 0
M  V30 5623 C 538.112 1.93282 -0.30022 0
M  V30 5624 O 539.318 2.70086 -0.276709 0
M  V30 5625 C 537.774 2.23408 -2.82164 0
M  V30 5626 C 537.382 1.5895 -4.18854 0
M  V30 5627 C 539.126 2.99055 -3.01275 0
M  V30 5628 C 537.033 2.57611 -5.32344 0
M  V30 5629 H 535.963 0.462707 -0.59533 0
M  V30 5630 H 538.614 0.501291 -1.7652 0
M  V30 5631 H 536.996 2.99511 -2.59055 0
M  V30 5632 H 538.17 0.887 -4.52182 0
M  V30 5633 H 536.485 0.956191 -4.05273 0
M  V30 5634 H 539.082 3.72876 -3.83233 0
M  V30 5635 H 539.425 3.57897 -2.12639 0
M  V30 5636 H 539.958 2.30066 -3.24522 0
M  V30 5637 H 536.697 2.03521 -6.23105 0
M  V30 5638 H 536.217 3.26041 -5.03445 0
M  V30 5639 H 537.896 3.19627 -5.62537 0
M  V30 5640 N 538.028 1.39524 0.732853 0
M  V30 5641 C 538.975 1.38416 1.84688 0
M  V30 5642 C 539.945 0.243539 1.64305 0
M  V30 5643 O 541.13 0.438979 1.85681 0
M  V30 5644 C 538.27 1.23555 3.22224 0
M  V30 5645 C 537.383 2.47179 3.54298 0
M  V30 5646 C 536.518 2.2489 4.81246 0
M  V30 5647 C 535.557 3.44178 5.0617 0
M  V30 5648 N 534.694 3.21192 6.24323 0
M  V30 5649 H 539.534 2.33645 1.84971 0
M  V30 5650 H 537.071 1.16059 0.903804 0
M  V30 5651 H 539.029 1.12949 4.0162 0
M  V30 5652 H 537.659 0.31954 3.21215 0
M  V30 5653 H 536.711 2.68379 2.69587 0
M  V30 5654 H 538.023 3.36022 3.68633 0
M  V30 5655 H 537.177 2.11538 5.68627 0
M  V30 5656 H 535.916 1.33443 4.69089 0
M  V30 5657 H 534.921 3.58025 4.17251 0
M  V30 5658 H 536.146 4.36528 5.20212 0
M  V30 5659 H 534.092 2.32413 6.1345 0
M  V30 5660 H 534.009 4.03594 6.39256 0
M  V30 5661 H 535.277 3.1154 7.14537 0
M  V30 5662 N 539.506 -0.963266 1.24736 0
M  V30 5663 C 540.416 -2.09246 1.06082 0
M  V30 5664 C 541.432 -1.74 0.000363101 0
M  V30 5665 O 542.608 -2.0041 0.199479 0
M  V30 5666 C 539.673 -3.40115 0.672498 0
M  V30 5667 C 538.734 -3.89282 1.80993 0
M  V30 5668 C 537.967 -5.13905 1.44004 0
M  V30 5669 O 538.19 -5.69434 0.331835 0
M  V30 5670 O 537.124 -5.57566 2.26723 0
M  V30 5671 H 540.95 -2.27881 2.00759 0
M  V30 5672 H 538.535 -1.07649 1.03595 0
M  V30 5673 H 540.417 -4.18797 0.467668 0
M  V30 5674 H 539.092 -3.22771 -0.245102 0
M  V30 5675 H 537.999 -3.11642 2.06955 0
M  V30 5676 H 539.332 -4.1111 2.70646 0
M  V30 5677 N 540.985 -1.06182 -1.16461 0
M  V30 5678 C 541.948 -0.675723 -2.19013 0
M  V30 5679 C 542.948 0.277963 -1.58379 0
M  V30 5680 O 544.138 0.0604962 -1.74095 0
M  V30 5681 C 541.27 0.00591459 -3.40899 0
M  V30 5682 H 542.463 -1.58353 -2.54685 0
M  V30 5683 H 540.016 -0.856908 -1.30716 0
M  V30 5684 H 540.751 0.92652 -3.10783 0
M  V30 5685 H 540.536 -0.67984 -3.86161 0
M  V30 5686 H 542.026 0.26181 -4.16778 0
M  V30 5687 N 542.463 1.3308 -0.844243 0
M  V30 5688 C 543.688 2.02341 -0.455282 0
M  V30 5689 C 544.113 1.6308 0.93737 0
M  V30 5690 O 543.471 0.826118 1.61385 0
M  V30 5691 C 543.519 3.55743 -0.58988 0
M  V30 5692 O 542.623 4.1063 0.38166 0
M  V30 5693 H 541.964 0.637898 -0.184343 0
M  V30 5694 H 544.494 1.6986 -1.14056 0
M  V30 5695 H 544.504 4.05243 -0.473522 0
M  V30 5696 H 543.179 3.83662 -1.60549 0
M  V30 5697 H 541.756 3.72236 0.22241 0
M  V30 5698 N 543.941 0.601185 1.45683 0
M  V30 5699 C 544.874 -0.17013 2.27565 0
M  V30 5700 C 545.852 -0.879661 1.36751 0
M  V30 5701 O 547.036 -0.889827 1.66176 0
M  V30 5702 C 544.163 -1.24568 3.14961 0
M  V30 5703 C 543.209 -0.639978 4.21671 0
M  V30 5704 S 544.042 0.547275 5.32696 0
M  V30 5705 C 545.198 -0.529019 6.2366 0
M  V30 5706 H 545.431 0.524583 2.92635 0
M  V30 5707 H 542.964 0.388537 1.49431 0
M  V30 5708 H 544.922 -1.86138 3.65873 0
M  V30 5709 H 543.583 -1.91243 2.49169 0
M  V30 5710 H 542.776 -1.44903 4.8272 0
M  V30 5711 H 542.378 -0.0995558 3.73867 0
M  V30 5712 H 544.67 -1.40981 6.62669 0
M  V30 5713 H 545.613 0.0451599 7.08086 0
M  V30 5714 H 546.021 -0.84147 5.58193 0
M  V30 5715 N 545.419 -1.53889 0.339982 0
M  V30 5716 C 546.382 -2.23547 -0.50592 0
M  V30 5717 C 547.382 -1.23445 -1.03044 0
M  V30 5718 O 548.572 -1.47909 -0.920253 0
M  V30 5719 C 545.704 -2.95234 -1.7044 0
M  V30 5720 H 546.897 -2.99722 0.103247 0
M  V30 5721 H 544.45 -1.56033 0.0912804 0
M  V30 5722 H 545.185 -2.23236 -2.35236 0
M  V30 5723 H 544.97 -3.68654 -1.33553 0
M  V30 5724 H 546.46 -3.48258 -2.30447 0
M  V30 5725 N 546.897 -0.0685191 -1.57451 0
M  V30 5726 C 547.844 0.899861 -2.12535 0
M  V30 5727 C 548.814 1.29749 -1.03703 0
M  V30 5728 O 549.999 1.38392 -1.31348 0
M  V30 5729 C 547.139 2.16328 -2.6888 0
M  V30 5730 C 546.252 1.81857 -3.91857 0
M  V30 5731 C 545.387 3.02786 -4.36457 0
M  V30 5732 C 544.426 2.64317 -5.5209 0
M  V30 5733 N 543.563 3.77994 -5.91663 0
M  V30 5734 H 548.403 0.423243 -2.94979 0
M  V30 5735 H 545.94 0.197268 -1.45771 0
M  V30 5736 H 547.898 2.90281 -2.99655 0
M  V30 5737 H 546.528 2.61536 -1.89206 0
M  V30 5738 H 545.58 0.979808 -3.67565 0
M  V30 5739 H 546.892 1.49553 -4.75852 0
M  V30 5740 H 546.046 3.85021 -4.68875 0
M  V30 5741 H 544.785 3.38281 -3.51308 0
M  V30 5742 H 543.79 1.80503 -5.19325 0
M  V30 5743 H 545.015 2.29995 -6.38967 0
M  V30 5744 H 542.961 4.13258 -5.09464 0
M  V30 5745 H 542.878 3.49447 -6.7039 0
M  V30 5746 H 544.146 4.60818 -6.28703 0
M  V30 5747 N 548.375 1.56261 0.205012 0
M  V30 5748 C 549.605 1.83874 0.942018 0
M  V30 5749 C 550.013 0.647595 1.77772 0
M  V30 5750 O 549.356 -0.393098 1.79445 0
M  V30 5751 C 549.418 3.05453 1.89575 0
M  V30 5752 C 549.082 4.39772 1.24296 0
M  V30 5753 C 550.079 5.16133 0.624724 0
M  V30 5754 C 547.764 4.86504 1.24978 0
M  V30 5755 C 549.758 6.37396 0.0220117 0
M  V30 5756 C 547.445 6.07705 0.643232 0
M  V30 5757 C 548.443 6.82993 0.0304164 0
M  V30 5758 O 548.131 8.019 -0.566654 0
M  V30 5759 H 547.863 0.614896 0.280854 0
M  V30 5760 H 550.417 2.04215 0.220285 0
M  V30 5761 H 548.647 2.80972 2.65691 0
M  V30 5762 H 550.336 3.19797 2.4997 0
M  V30 5763 H 551.102 4.81127 0.611666 0
M  V30 5764 H 546.981 4.27865 1.71616 0
M  V30 5765 H 550.525 6.96102 -0.456926 0
M  V30 5766 H 546.422 6.42181 0.653759 0
M  V30 5767 H 547.19 8.17192 -0.462588 0
M  V30 5768 N 549.853 -0.472356 1.50355 0
M  V30 5769 C 551.083 -1.24603 1.64796 0
M  V30 5770 C 551.491 -1.86297 0.330156 0
M  V30 5771 O 550.834 -1.69934 -0.697728 0
M  V30 5772 C 550.896 -2.39578 2.68035 0
M  V30 5773 C 550.56 -1.98531 4.11624 0
M  V30 5774 C 551.557 -1.50856 4.97532 0
M  V30 5775 C 549.242 -2.0729 4.57532 0
M  V30 5776 C 551.236 -1.12481 6.27397 0
M  V30 5777 C 548.923 -1.68527 5.87403 0
M  V30 5778 C 549.921 -1.212 6.7216 0
M  V30 5779 O 549.609 -0.829728 7.99607 0
M  V30 5780 H 549.341 -0.383035 0.55701 0
M  V30 5781 H 551.895 -0.570392 1.97321 0
M  V30 5782 H 550.125 -3.10309 2.30749 0
M  V30 5783 H 551.814 -3.01544 2.71709 0
M  V30 5784 H 552.58 -1.43511 4.63281 0
M  V30 5785 H 548.459 -2.43076 3.91708 0
M  V30 5786 H 552.003 -0.754698 6.93506 0
M  V30 5787 H 547.9 -1.7553 6.21176 0
M  V30 5788 H 548.668 -0.958689 8.12866 0
M  V30 5789 N 551.331 -1.39911 -0.725443 0
M  V30 5790 C 552.294 -1.39156 -1.82121 0
M  V30 5791 C 553.294 -0.287018 -1.58218 0
M  V30 5792 O 554.484 -0.545421 -1.65441 0
M  V30 5793 C 551.616 -1.1736 -3.20062 0
M  V30 5794 H 552.809 -2.36672 -1.84191 0
M  V30 5795 H 550.362 -1.25615 -0.930079 0
M  V30 5796 H 551.097 -0.205648 -3.23647 0
M  V30 5797 H 550.882 -1.97358 -3.3881 0
M  V30 5798 H 552.372 -1.19596 -4.00108 0
M  V30 5799 N 552.809 0.956637 -1.25245 0
M  V30 5800 C 554.034 1.74104 -1.12706 0
M  V30 5801 C 554.459 1.85436 0.315429 0
M  V30 5802 O 553.817 1.33334 1.22848 0
M  V30 5803 C 553.865 3.1338 -1.78396 0
M  V30 5804 O 552.969 3.98485 -1.06224 0
M  V30 5805 H 552.31 0.53476 -0.393609 0
M  V30 5806 H 554.84 1.19924 -1.65769 0
M  V30 5807 H 554.85 3.6385 -1.846 0
M  V30 5808 H 553.525 3.04448 -2.83345 0
M  V30 5809 H 552.102 3.56952 -1.07886 0
M  V30 5810 N 554.287 1.06798 1.15896 0
M  V30 5811 C 555.197 0.694564 2.24083 0
M  V30 5812 C 556.213 -0.291687 1.71538 0
M  V30 5813 O 557.389 -0.139723 2.00915 0
M  V30 5814 C 554.454 0.0921014 3.46578 0
M  V30 5815 C 553.515 1.13087 4.14137 0
M  V30 5816 C 552.748 0.557064 5.30785 0
M  V30 5817 O 552.971 -0.628623 5.66925 0
M  V30 5818 O 551.905 1.29924 5.8771 0
M  V30 5819 H 555.731 1.59663 2.58344 0
M  V30 5820 H 553.316 0.840575 1.2351 0
M  V30 5821 H 555.198 -0.241884 4.20705 0
M  V30 5822 H 553.873 -0.78337 3.14078 0
M  V30 5823 H 552.78 1.51712 3.41957 0
M  V30 5824 H 554.113 1.97805 4.50704 0
M  V30 5825 N 555.766 -1.3263 0.851289 0
M  V30 5826 C 557.015 -1.96633 0.449267 0
M  V30 5827 C 557.328 -1.68131 -0.999562 0
M  V30 5828 O 558.534 -2.25845 -1.50685 0
M  V30 5829 C 556.99 -3.51946 0.752446 0
M  V30 5830 C 556.598 -3.89311 2.21678 0
M  V30 5831 C 558.342 -4.22437 0.417983 0
M  V30 5832 C 556.249 -5.37655 2.46336 0
M  V30 5833 H 555.179 -0.735888 0.164269 0
M  V30 5834 H 557.83 -1.51073 1.0416 0
M  V30 5835 H 556.212 -3.95899 0.0895858 0
M  V30 5836 H 557.386 -3.56378 2.92115 0
M  V30 5837 H 555.701 -3.31836 2.51543 0
M  V30 5838 H 558.298 -5.31549 0.579674 0
M  V30 5839 H 558.641 -4.11349 -0.640115 0
M  V30 5840 H 559.174 -3.84057 1.03659 0
M  V30 5841 H 555.913 -5.5376 3.50757 0
M  V30 5842 H 555.433 -5.72005 1.80473 0
M  V30 5843 H 557.112 -6.04695 2.30115 0
M  V30 5844 N 557.244 -0.608902 -1.45362 0
M  V30 5845 C 558.207 0.0992563 -2.28985 0
M  V30 5846 C 559.207 0.793841 -1.39838 0
M  V30 5847 O 560.397 0.641804 -1.61946 0
M  V30 5848 C 557.529 1.15073 -3.20891 0
M  V30 5849 H 558.722 -0.635964 -2.93079 0
M  V30 5850 H 556.275 -0.368007 -1.51906 0
M  V30 5851 H 557.01 1.91667 -2.616 0
M  V30 5852 H 556.795 0.656867 -3.86559 0
M  V30 5853 H 558.285 1.64665 -3.83765 0
M  V30 5854 N 558.722 1.53707 -0.348139 0
M  V30 5855 C 559.97 2.00591 0.246478 0
M  V30 5856 C 560.291 1.23753 1.50699 0
M  V30 5857 O 559.561 0.345964 1.92821 0
M  V30 5858 H 558.141 0.741053 0.0940679 0
M  V30 5859 H 560.803 1.89139 -0.470354 0
M  V30 5860 H 559.899 3.08297 0.485714 0
M  V30 5861 N 560.2 0.0768682 1.57412 0
M  V30 5862 C 561.132 -0.918248 2.10002 0
M  V30 5863 C 562.145 -1.25808 1.03325 0
M  V30 5864 O 563.334 -1.21438 1.30824 0
M  V30 5865 C 560.434 -2.23263 2.54964 0
M  V30 5866 C 559.607 -2.07088 3.8527 0
M  V30 5867 C 558.666 -3.21876 4.16272 0
M  V30 5868 O 557.692 -2.96643 4.8579 0
M  V30 5869 N 558.894 -4.4712 3.70221 0
M  V30 5870 H 561.659 -0.469209 2.96004 0
M  V30 5871 H 559.22 -0.108725 1.61535 0
M  V30 5872 H 561.212 -2.9897 2.72762 0
M  V30 5873 H 559.782 -2.59649 1.74072 0
M  V30 5874 H 559.002 -1.15818 3.76802 0
M  V30 5875 H 560.29 -1.93537 4.70554 0
M  V30 5876 H 559.688 -4.70506 3.1407 0
M  V30 5877 H 558.245 -5.19837 3.93209 0
M  V30 5878 N 561.678 -1.56367 -0.196722 0
M  V30 5879 C 562.906 -1.84639 -0.933608 0
M  V30 5880 C 563.321 -0.659164 -1.76919 0
M  V30 5881 O 562.678 0.372142 -1.78665 0
M  V30 5882 C 562.729 -3.11694 -1.83109 0
M  V30 5883 O 562.45 -4.25838 -1.02924 0
M  V30 5884 C 563.951 -3.53132 -2.67979 0
M  V30 5885 H 561.171 -0.613188 -0.272473 0
M  V30 5886 H 563.715 -2.03475 -0.204465 0
M  V30 5887 H 561.87 -2.94759 -2.51387 0
M  V30 5888 H 562.284 -4.98178 -1.64069 0
M  V30 5889 H 563.758 -4.45005 -3.26611 0
M  V30 5890 H 564.235 -2.76045 -3.41608 0
M  V30 5891 H 564.841 -3.72592 -2.05074 0
M  V30 5892 N 563.156 0.464375 -1.50603 0
M  V30 5893 C 564.384 1.23907 -1.65695 0
M  V30 5894 C 564.799 1.85658 -0.343027 0
M  V30 5895 O 564.156 1.69529 0.675739 0
M  V30 5896 C 564.207 2.3429 -2.75301 0
M  V30 5897 O 563.928 1.7507 -4.01599 0
M  V30 5898 C 565.429 3.25051 -3.01424 0
M  V30 5899 H 562.649 0.374485 -0.556778 0
M  V30 5900 H 565.193 0.55353 -1.96866 0
M  V30 5901 H 563.348 2.98607 -2.46804 0
M  V30 5902 H 563.762 2.47812 -4.62266 0
M  V30 5903 H 565.236 3.98699 -3.81763 0
M  V30 5904 H 565.713 3.84227 -2.12758 0
M  V30 5905 H 566.319 2.66463 -3.31477 0
M  V30 5906 N 564.634 1.40294 0.718013 0
M  V30 5907 C 565.859 1.41941 1.5122 0
M  V30 5908 C 566.284 0.0202371 1.88089 0
M  V30 5909 O 565.642 -0.971078 1.53101 0
M  V30 5910 C 565.69 2.3141 2.76554 0
M  V30 5911 O 564.794 1.75567 3.73162 0
M  V30 5912 H 564.135 0.482644 0.456016 0
M  V30 5913 H 566.665 1.84494 0.884478 0
M  V30 5914 H 566.675 2.46513 3.25108 0
M  V30 5915 H 565.35 3.33085 2.49053 0
M  V30 5916 H 563.927 1.69798 3.31999 0
M  V30 5917 N 566.112 -0.949982 1.2575 0
M  V30 5918 C 567.059 -2.04738 1.06541 0
M  V30 5919 C 568.029 -1.66078 -0.0268818 0
M  V30 5920 O 569.214 -1.90348 0.131196 0
M  V30 5921 C 566.354 -3.38027 0.695127 0
M  V30 5922 C 565.467 -3.89776 1.86276 0
M  V30 5923 C 564.602 -5.11411 1.4364 0
M  V30 5924 C 563.641 -5.554 2.57287 0
M  V30 5925 N 562.778 -6.68244 2.15395 0
M  V30 5926 H 567.618 -2.20502 2.00457 0
M  V30 5927 H 565.155 -1.0805 0.998178 0
M  V30 5928 H 567.113 -4.14641 0.461375 0
M  V30 5929 H 565.743 -3.22135 -0.207046 0
M  V30 5930 H 564.795 -3.0964 2.20969 0
M  V30 5931 H 566.107 -4.18368 2.71606 0
M  V30 5932 H 565.261 -5.95457 1.16257 0
M  V30 5933 H 564 -4.84545 0.553879 0
M  V30 5934 H 563.005 -4.69916 2.85409 0
M  V30 5935 H 564.23 -5.84272 3.46125 0
M  V30 5936 H 562.176 -6.43078 1.29565 0
M  V30 5937 H 562.093 -6.96377 2.94272 0
M  V30 5938 H 563.361 -7.55687 1.91201 0
M  V30 5939 N 567.59 -1.07411 -1.15328 0
M  V30 5940 C 568.83 -0.807011 -1.87794 0
M  V30 5941 C 569.194 0.654987 -1.80482 0
M  V30 5942 O 570.395 1.03716 -2.47985 0
M  V30 5943 C 568.666 -1.30198 -3.32841 0
M  V30 5944 S 570.225 -1.16564 -4.23034 0
M  V30 5945 H 567.043 -0.292429 -0.648079 0
M  V30 5946 H 569.645 -1.37334 -1.39139 0
M  V30 5947 H 568.349 -2.3607 -3.35707 0
M  V30 5948 H 567.88 -0.730881 -3.86551 0
M  V30 5949 H 569.895 -0.103557 -4.96092 0
M  V30 5950 N 569.068 1.32177 -0.85831 0
M  V30 5951 C 570.317 1.96392 -0.459689 0
M  V30 5952 C 570.63 1.68659 0.990632 0
M  V30 5953 O 571.836 2.26641 1.49485 0
M  V30 5954 C 570.292 3.51542 -0.7711 0
M  V30 5955 C 569.9 3.8813 -2.2374 0
M  V30 5956 C 571.644 4.2221 -0.44038 0
M  V30 5957 C 569.551 5.36341 -2.49183 0
M  V30 5958 H 568.481 0.735007 -0.168169 0
M  V30 5959 H 571.132 1.50518 -1.0496 0
M  V30 5960 H 569.514 3.95846 -0.11058 0
M  V30 5961 H 570.688 3.54824 -2.94001 0
M  V30 5962 H 569.003 3.30497 -2.533 0
M  V30 5963 H 571.6 5.31234 -0.607855 0
M  V30 5964 H 571.943 4.11683 0.618291 0
M  V30 5965 H 572.476 3.83502 -1.05695 0
M  V30 5966 H 569.215 5.51892 -3.53689 0
M  V30 5967 H 568.735 5.7104 -1.83504 0
M  V30 5968 H 570.414 6.03466 -2.33318 0
M  V30 5969 N 570.547 0.616602 1.45037 0
M  V30 5970 C 571.457 -0.0985401 2.34393 0
M  V30 5971 C 572.473 -0.850971 1.51771 0
M  V30 5972 O 573.649 -0.806521 1.84546 0
M  V30 5973 C 570.714 -1.07748 3.29532 0
M  V30 5974 C 569.775 -0.326022 4.2806 0
M  V30 5975 C 569.008 -1.25833 5.18654 0
M  V30 5976 O 569.231 -2.49652 5.12864 0
M  V30 5977 O 568.165 -0.750512 5.97203 0
M  V30 5978 H 571.991 0.636016 2.96966 0
M  V30 5979 H 569.576 0.376832 1.44569 0
M  V30 5980 H 571.458 -1.64107 3.88133 0
M  V30 5981 H 570.133 -1.79291 2.69512 0
M  V30 5982 H 569.04 0.280253 3.73049 0
M  V30 5983 H 570.373 0.349091 4.9096 0
M  V30 5984 N 572.025 -1.5352 0.356285 0
M  V30 5985 C 573.271 -2.02104 -0.229271 0
M  V30 5986 C 573.626 -1.23923 -1.47176 0
M  V30 5987 O 572.919 -0.321957 -1.88876 0
M  V30 5988 C 573.113 -3.52607 -0.583369 0
M  V30 5989 C 572.942 -4.4536 0.623253 0
M  V30 5990 C 571.712 -4.92446 1.13248 0
M  V30 5991 C 573.91 -4.92375 1.48563 0
M  V30 5992 N 571.892 -5.69183 2.3001 0
M  V30 5993 C 573.263 -5.67362 2.50001 0
M  V30 5994 C 575.318 -4.74464 1.50959 0
M  V30 5995 C 574.021 -6.26341 3.5368 0
M  V30 5996 C 576.047 -5.34302 2.53526 0
M  V30 5997 C 575.409 -6.09166 3.53688 0
M  V30 5998 H 571.508 -0.780595 -0.0468602 0
M  V30 5999 H 574.092 -1.88204 0.49873 0
M  V30 6000 H 572.263 -3.66686 -1.28046 0
M  V30 6001 H 573.995 -3.87922 -1.15321 0
M  V30 6002 H 570.75 -4.6842 0.698562 0
M  V30 6003 H 571.174 -6.12216 2.88998 0
M  V30 6004 H 575.816 -4.16117 0.748785 0
M  V30 6005 H 573.534 -6.8379 4.30648 0
M  V30 6006 H 577.12 -5.22342 2.56223 0
M  V30 6007 H 576 -6.54644 4.31753 0
M  V30 6008 N 573.503 -0.0852151 -1.57369 0
M  V30 6009 C 574.436 0.913608 -2.09113 0
M  V30 6010 C 575.414 1.28264 -0.999358 0
M  V30 6011 O 576.598 1.3896 -1.27367 0
M  V30 6012 C 573.725 2.21777 -2.55993 0
M  V30 6013 C 572.771 1.99932 -3.76735 0
M  V30 6014 S 573.604 1.24637 -5.20794 0
M  V30 6015 C 574.76 2.56304 -5.71016 0
M  V30 6016 H 574.993 0.473369 -2.93507 0
M  V30 6017 H 572.526 0.127856 -1.5387 0
M  V30 6018 H 574.484 2.96726 -2.83662 0
M  V30 6019 H 573.145 2.62923 -1.71843 0
M  V30 6020 H 572.338 2.96482 -4.07571 0
M  V30 6021 H 571.94 1.33116 -3.49509 0
M  V30 6022 H 574.232 3.5233 -5.78679 0
M  V30 6023 H 575.175 2.3006 -6.69685 0
M  V30 6024 H 575.583 2.64125 -4.98897 0
M  V30 6025 N 574.981 1.5647 0.188427 0
M  V30 6026 C 576.229 1.80655 0.905986 0
M  V30 6027 C 576.55 0.659391 1.83513 0
M  V30 6028 O 575.82 -0.321868 1.93238 0
M  V30 6029 H 574.4 0.666391 0.337538 0
M  V30 6030 H 577.062 1.93949 0.192339 0
M  V30 6031 H 576.158 2.74066 1.49313 0
M  V30 6032 N 576.459 -0.456382 1.50847 0
M  V30 6033 C 577.707 -1.20497 1.62249 0
M  V30 6034 C 578.028 -1.92156 0.331839 0
M  V30 6035 O 577.298 -1.84751 -0.651443 0
M  V30 6036 H 575.878 -0.447775 0.597918 0
M  V30 6037 H 578.54 -0.525099 1.87693 0
M  V30 6038 H 577.636 -1.94492 2.44089 0
M  V30 6039 N 577.937 -1.40673 -0.710563 0
M  V30 6040 C 579.183 -1.39428 -1.47267 0
M  V30 6041 C 579.516 0.00182129 -1.942 0
M  V30 6042 O 578.791 0.971387 -1.68506 0
M  V30 6043 C 579.074 -2.38812 -2.6952 0
M  V30 6044 C 578.927 -3.87467 -2.28449 0
M  V30 6045 C 580.246 -2.3566 -3.71689 0
M  V30 6046 H 577.365 -0.507768 -0.534173 0
M  V30 6047 H 580.007 -1.71843 -0.810547 0
M  V30 6048 H 578.157 -2.113 -3.26013 0
M  V30 6049 H 579.829 -4.25825 -1.77399 0
M  V30 6050 H 578.072 -4.03058 -1.60395 0
M  V30 6051 H 578.743 -4.5253 -3.16103 0
M  V30 6052 H 581.219 -2.6004 -3.24836 0
M  V30 6053 H 580.095 -3.07237 -4.54859 0
M  V30 6054 H 580.356 -1.36996 -4.20339 0
M  V30 6055 N 579.415 0.9433 -1.26252 0
M  V30 6056 C 580.663 1.68592 -1.11451 0
M  V30 6057 C 580.984 1.91957 0.343123 0
M  V30 6058 O 580.254 1.51475 1.24226 0
M  V30 6059 H 578.834 0.624789 -0.409448 0
M  V30 6060 H 581.496 1.13351 -1.58548 0
M  V30 6061 H 580.592 2.66054 -1.63162 0
M  V30 6062 N 580.893 1.08022 1.14757 0
M  V30 6063 C 582.123 0.827646 1.89298 0
M  V30 6064 C 582.531 -0.623506 1.78631 0
M  V30 6065 O 581.874 -1.43991 1.14071 0
M  V30 6066 C 581.936 1.16553 3.40082 0
M  V30 6067 C 581.6 2.61866 3.74533 0
M  V30 6068 C 582.597 3.60116 3.74984 0
M  V30 6069 C 580.282 2.97619 4.04633 0
M  V30 6070 C 582.276 4.92151 4.05051 0
M  V30 6071 C 579.963 4.2985 4.34364 0
M  V30 6072 C 580.961 5.26926 4.34555 0
M  V30 6073 O 580.649 6.5678 4.63568 0
M  V30 6074 H 580.381 0.298396 0.606577 0
M  V30 6075 H 582.935 1.44187 1.46285 0
M  V30 6076 H 581.165 0.494296 3.83528 0
M  V30 6077 H 582.854 0.894407 3.95923 0
M  V30 6078 H 583.62 3.33837 3.51821 0
M  V30 6079 H 579.499 2.22702 4.03639 0
M  V30 6080 H 583.043 5.67915 4.05115 0
M  V30 6081 H 578.94 4.55879 4.56995 0
M  V30 6082 H 579.708 6.62035 4.81303 0
M  V30 6083 N 582.371 -1.3172 0.865308 0
M  V30 6084 C 583.599 -2.01057 0.488251 0
M  V30 6085 C 584.014 -1.64979 -0.918 0
M  V30 6086 O 583.371 -0.876597 -1.60069 0
M  V30 6087 C 583.422 -3.55964 0.630224 0
M  V30 6088 O 583.143 -3.90749 1.98109 0
M  V30 6089 C 584.644 -4.42574 0.253567 0
M  V30 6090 H 581.864 -0.64332 0.190736 0
M  V30 6091 H 584.408 -1.68058 1.16519 0
M  V30 6092 H 582.563 -3.874 0.000895422 0
M  V30 6093 H 582.977 -4.85467 1.9855 0
M  V30 6094 H 584.451 -5.50521 0.403875 0
M  V30 6095 H 584.928 -4.31724 -0.806895 0
M  V30 6096 H 585.534 -4.16547 0.858404 0
M  V30 6097 N 583.85 -0.624285 -1.44708 0
M  V30 6098 C 584.797 0.0847135 -2.30644 0
M  V30 6099 C 585.767 0.843575 -1.43084 0
M  V30 6100 O 586.952 0.825982 -1.71995 0
M  V30 6101 C 584.091 1.06495 -3.28257 0
M  V30 6102 C 583.205 0.305224 -4.3092 0
M  V30 6103 C 582.34 1.27667 -5.1563 0
M  V30 6104 C 581.379 0.505706 -6.10007 0
M  V30 6105 N 580.516 1.42727 -6.8744 0
M  V30 6106 H 585.356 -0.654068 -2.90733 0
M  V30 6107 H 582.893 -0.334334 -1.4325 0
M  V30 6108 H 584.851 1.64658 -3.83332 0
M  V30 6109 H 583.481 1.77094 -2.69884 0
M  V30 6110 H 582.533 -0.392207 -3.78373 0
M  V30 6111 H 583.845 -0.295553 -4.97924 0
M  V30 6112 H 582.999 1.92984 -5.75189 0
M  V30 6113 H 581.738 1.91137 -4.48685 0
M  V30 6114 H 580.743 -0.160999 -5.49564 0
M  V30 6115 H 581.968 -0.124183 -6.78986 0
M  V30 6116 H 579.913 2.04931 -6.23169 0
M  V30 6117 H 579.831 0.880345 -7.50857 0
M  V30 6118 H 581.099 2.0695 -7.51526 0
M  V30 6119 N 585.328 1.53329 -0.364422 0
M  V30 6120 C 586.605 1.93557 0.281962 0
M  V30 6121 C 586.985 1.29786 1.6649 0
M  V30 6122 O 586.333 0.456512 2.23893 0
M  V30 6123 C 586.543 3.47405 0.333331 0
M  V30 6124 C 587.891 4.20699 0.574231 0
M  V30 6125 O 588.915 3.53779 0.414588 0
M  V30 6126 O 587.774 5.39287 0.885002 0
M  V30 6127 H 584.868 0.809573 0.168881 0
M  V30 6128 H 587.414 1.64494 -0.417121 0
M  V30 6129 H 586.186 3.86091 -0.636326 0
M  V30 6130 H 585.809 3.82697 1.07836 0
M  V30 6131 N 586.806 0.0935595 1.57322 0
M  V30 6132 C 588.036 -0.578095 1.98347 0
M  V30 6133 C 588.444 -1.62357 0.971441 0
M  V30 6134 O 587.787 -1.83639 -0.0473959 0
M  V30 6135 C 587.849 -1.28525 3.3574 0
M  V30 6136 C 587.513 -0.390714 4.55327 0
M  V30 6137 C 588.51 0.360522 5.18648 0
M  V30 6138 C 586.195 -0.309221 5.01347 0
M  V30 6139 C 588.189 1.18125 6.26359 0
M  V30 6140 C 585.876 0.515157 6.08925 0
M  V30 6141 C 586.874 1.25904 6.71295 0
M  V30 6142 O 586.562 2.06978 7.76798 0
M  V30 6143 H 586.294 -0.159767 0.656849 0
M  V30 6144 H 588.848 0.169058 2.04703 0
M  V30 6145 H 587.078 -2.07894 3.26063 0
M  V30 6146 H 588.767 -1.85128 3.61223 0
M  V30 6147 H 589.533 0.307285 4.84026 0
M  V30 6148 H 585.412 -0.877881 4.52564 0
M  V30 6149 H 588.956 1.76236 6.74971 0
M  V30 6150 H 584.853 0.56988 6.42979 0
M  V30 6151 H 585.621 1.99644 7.93779 0
M  V30 6152 N 588.284 -1.56567 -0.180126 0
M  V30 6153 C 589.695 -1.7126 -0.743422 0
M  V30 6154 C 590.046 -0.70263 -1.83187 0
M  V30 6155 O 589.171 0.137856 -2.1596 0
M  V30 6156 C 589.766 -3.10512 -1.35528 0
M  V30 6157 C 588.325 -3.26919 -1.8655 0
M  V30 6158 C 587.472 -2.67213 -0.741099 0
M  V30 6159 H 590.423 -1.58636 0.0451543 0
M  V30 6160 H 590.444 -3.08673 -2.22489 0
M  V30 6161 H 589.956 -3.83997 -0.562862 0
M  V30 6162 H 588.057 -2.58376 -2.68464 0
M  V30 6163 H 588.17 -4.34574 -2.01699 0
M  V30 6164 H 586.534 -2.26788 -1.15927 0
M  V30 6165 H 587.317 -3.43277 0.0393291 0
M  V30 6166 N 589.762 0.448376 -1.51087 0
M  V30 6167 C 591.008 1.20049 -1.6345 0
M  V30 6168 C 591.341 1.91121 -0.344444 0
M  V30 6169 O 590.616 1.83125 0.655396 0
M  V30 6170 C 590.899 2.22624 -2.83038 0
M  V30 6171 C 590.752 1.55708 -4.21989 0
M  V30 6172 C 592.071 3.23718 -2.98152 0
M  V30 6173 H 589.19 0.435085 -0.59487 0
M  V30 6174 H 591.832 0.491183 -1.83541 0
M  V30 6175 H 589.982 2.83117 -2.66039 0
M  V30 6176 H 591.654 0.986367 -4.50631 0
M  V30 6177 H 589.897 0.859647 -4.25197 0
M  V30 6178 H 590.568 2.30357 -5.01637 0
M  V30 6179 H 593.044 2.73269 -3.13788 0
M  V30 6180 H 591.92 3.92795 -3.83411 0
M  V30 6181 H 592.181 3.89179 -2.09743 0
M  V30 6182 N 591.24 1.41047 0.703093 0
M  V30 6183 C 592.15 1.44645 1.84703 0
M  V30 6184 C 593.166 0.337778 1.7069 0
M  V30 6185 O 594.342 0.584327 1.92737 0
M  V30 6186 C 591.407 1.31928 3.20618 0
M  V30 6187 C 590.468 2.53047 3.46794 0
M  V30 6188 C 589.701 2.40927 4.76224 0
M  V30 6189 O 589.924 1.42978 5.5219 0
M  V30 6190 O 588.858 3.30543 5.03016 0
M  V30 6191 H 592.684 2.41139 1.84624 0
M  V30 6192 H 590.269 1.22504 0.855167 0
M  V30 6193 H 592.151 1.27092 4.01778 0
M  V30 6194 H 590.826 0.385469 3.21397 0
M  V30 6195 H 589.733 2.6346 2.65593 0
M  V30 6196 H 591.066 3.45231 3.50822 0
M  V30 6197 N 592.718 -0.936591 1.26751 0
M  V30 6198 C 593.665 -2.03597 1.08706 0
M  V30 6199 C 594.635 -1.66097 -0.00926542 0
M  V30 6200 O 595.82 -1.90199 0.151377 0
M  V30 6201 C 592.96 -3.3727 0.73094 0
M  V30 6202 C 592.073 -3.87778 1.90399 0
M  V30 6203 C 591.208 -5.09859 1.49056 0
M  V30 6204 C 590.247 -5.5264 2.63164 0
M  V30 6205 N 589.384 -6.65921 2.22471 0
M  V30 6206 H 594.224 -2.18364 2.02784 0
M  V30 6207 H 591.761 -1.06985 1.00958 0
M  V30 6208 H 593.719 -4.14128 0.505328 0
M  V30 6209 H 592.349 -3.22337 -0.172868 0
M  V30 6210 H 591.401 -3.07279 2.2424 0
M  V30 6211 H 592.713 -4.15464 2.76028 0
M  V30 6212 H 591.867 -5.9419 1.22567 0
M  V30 6213 H 590.606 -4.8393 0.60524 0
M  V30 6214 H 589.611 -4.66863 2.90377 0
M  V30 6215 H 590.836 -5.80568 3.52303 0
M  V30 6216 H 588.782 -6.41667 1.36379 0
M  V30 6217 H 588.699 -6.93216 3.01641 0
M  V30 6218 H 589.967 -7.53616 1.99205 0
M  V30 6219 N 594.196 -1.08629 -1.14182 0
M  V30 6220 C 595.426 -0.837673 -1.88856 0
M  V30 6221 C 595.834 0.614024 -1.78959 0
M  V30 6222 O 595.177 1.43384 -1.14833 0
M  V30 6223 C 595.239 -1.18355 -3.39459 0
M  V30 6224 C 594.903 -2.63848 -3.73139 0
M  V30 6225 C 595.9 -3.62099 -3.73069 0
M  V30 6226 C 593.585 -2.99761 -4.03049 0
M  V30 6227 C 595.579 -4.94292 -4.02435 0
M  V30 6228 C 593.266 -4.32147 -4.32078 0
M  V30 6229 C 594.264 -5.29223 -4.31755 0
M  V30 6230 O 593.952 -6.59229 -4.60079 0
M  V30 6231 H 593.684 -0.301609 -0.604986 0
M  V30 6232 H 596.238 -1.44961 -1.45518 0
M  V30 6233 H 594.468 -0.514628 -3.8326 0
M  V30 6234 H 596.157 -0.915391 -3.95443 0
M  V30 6235 H 596.923 -3.35698 -3.50046 0
M  V30 6236 H 592.802 -2.2484 -4.02453 0
M  V30 6237 H 596.346 -5.70055 -4.02098 0
M  V30 6238 H 592.243 -4.58296 -4.54571 0
M  V30 6239 H 593.011 -6.64578 -4.77785 0
M  V30 6240 N 595.674 1.31259 -0.872281 0
M  V30 6241 C 596.921 1.96622 -0.484365 0
M  V30 6242 C 597.249 1.68939 0.963841 0
M  V30 6243 O 596.504 0.97974 1.6941 0
M  V30 6244 C 596.803 3.50659 -0.690889 0
M  V30 6245 C 596.469 3.98366 -2.11224 0
M  V30 6246 C 595.131 4.11104 -2.50094 0
M  V30 6247 C 597.483 4.23425 -3.0391 0
M  V30 6248 C 594.811 4.46254 -3.80887 0
M  V30 6249 C 597.163 4.60039 -4.3422 0
M  V30 6250 C 595.827 4.70984 -4.73001 0
M  V30 6251 H 595.097 0.71949 -0.177242 0
M  V30 6252 H 597.744 1.56353 -1.10571 0
M  V30 6253 H 596.049 3.91798 0.0135782 0
M  V30 6254 H 597.746 3.99284 -0.370534 0
M  V30 6255 H 594.336 3.88949 -1.80047 0
M  V30 6256 H 598.52 4.13075 -2.75104 0
M  V30 6257 H 593.776 4.52926 -4.10692 0
M  V30 6258 H 597.95 4.78381 -5.06088 0
M  V30 6259 H 595.577 4.97977 -5.7439 0
M  V30 6260 N 597.152 0.631951 1.44375 0
M  V30 6261 C 598.568 0.297642 1.568 0
M  V30 6262 C 598.768 -1.19916 1.61934 0
M  V30 6263 O 597.824 -1.98324 1.56281 0
M  V30 6264 C 599.137 0.990286 2.83926 0
M  V30 6265 C 600.685 0.968507 2.97639 0
M  V30 6266 C 601.16 1.64163 4.27568 0
M  V30 6267 N 602.651 1.60826 4.34384 0
M  V30 6268 C 603.386 2.09802 5.33639 0
M  V30 6269 N 602.882 2.66973 6.39294 0
M  V30 6270 N 604.675 2.00426 5.25153 0
M  V30 6271 H 596.826 1.60353 1.39286 0
M  V30 6272 H 599.089 0.673142 0.667521 0
M  V30 6273 H 598.795 2.04519 2.8612 0
M  V30 6274 H 598.669 0.528563 3.73478 0
M  V30 6275 H 601.056 -0.0779247 2.94997 0
M  V30 6276 H 601.137 1.46873 2.09433 0
M  V30 6277 H 600.781 2.68752 4.3097 0
M  V30 6278 H 600.711 1.11624 5.14634 0
M  V30 6279 H 603.202 1.19087 3.58646 0
M  V30 6280 H 603.515 3.02074 7.11316 0
M  V30 6281 H 601.86 2.71024 6.39977 0
M  V30 6282 H 605.051 1.55483 4.41523 0
M  V30 6283 H 605.224 2.38906 6.02352 0
M  V30 6284 N 598.631 -1.53133 0.372548 0
M  V30 6285 C 599.908 -1.93704 -0.271693 0
M  V30 6286 C 600.288 -1.30667 -1.65799 0
M  V30 6287 O 599.636 -0.46838 -2.23648 0
M  V30 6288 C 599.846 -3.47576 -0.314903 0
M  V30 6289 C 601.194 -4.20998 -0.551912 0
M  V30 6290 O 602.218 -3.53994 -0.39582 0
M  V30 6291 O 601.077 -5.39748 -0.85639 0
M  V30 6292 H 598.171 -0.810457 -0.164586 0
M  V30 6293 H 600.717 -1.6427 0.425838 0
M  V30 6294 H 599.489 -3.85749 0.656792 0
M  V30 6295 H 599.112 -3.83264 -1.05804 0
M  V30 6296 N 600.109 -0.101901 -1.5727 0
M  V30 6297 C 601.072 0.840129 -2.13247 0
M  V30 6298 C 602.072 1.20625 -1.06331 0
M  V30 6299 O 603.262 1.13456 -1.32186 0
M  V30 6300 C 600.394 2.13372 -2.65867 0
M  V30 6301 H 601.587 0.353945 -2.97804 0
M  V30 6302 H 599.14 0.147167 -1.55606 0
M  V30 6303 H 599.875 2.66461 -1.84849 0
M  V30 6304 H 599.66 1.88085 -3.44044 0
M  V30 6305 H 601.15 2.80748 -3.09145 0
M  V30 6306 N 601.587 1.56661 0.17182 0
M  V30 6307 C 602.534 1.96371 1.21273 0
M  V30 6308 C 603.504 0.82756 1.44016 0
M  V30 6309 O 604.689 1.08764 1.56764 0
M  V30 6310 C 601.829 2.32838 2.54716 0
M  V30 6311 C 600.942 3.59628 2.39356 0
M  V30 6312 C 600.077 3.85311 3.65662 0
M  V30 6313 C 599.116 5.0545 3.45234 0
M  V30 6314 N 598.253 5.27268 4.63608 0
M  V30 6315 H 603.093 2.85106 0.86709 0
M  V30 6316 H 600.63 1.41073 0.416744 0
M  V30 6317 H 602.588 2.52004 3.3249 0
M  V30 6318 H 601.218 1.47214 2.87277 0
M  V30 6319 H 600.27 3.4838 1.52761 0
M  V30 6320 H 601.582 4.4756 2.20207 0
M  V30 6321 H 600.736 4.04841 4.51872 0
M  V30 6322 H 599.475 2.95753 3.8779 0
M  V30 6323 H 598.48 4.85819 2.5741 0
M  V30 6324 H 599.705 5.96538 3.24529 0
M  V30 6325 H 597.651 4.40662 4.85956 0
M  V30 6326 H 597.568 6.09422 4.4737 0
M  V30 6327 H 598.836 5.51277 5.51103 0
M  V30 6328 N 603.065 -0.440357 1.51323 0
M  V30 6329 C 604.314 -1.18697 1.63076 0
M  V30 6330 C 604.627 -1.92418 0.35136 0
M  V30 6331 O 605.833 -2.69258 0.348221 0
M  V30 6332 C 604.289 -2.15849 2.87988 0
M  V30 6333 C 603.897 -1.47789 4.22921 0
M  V30 6334 C 605.641 -2.90962 3.09098 0
M  V30 6335 C 603.548 -2.43407 5.38987 0
M  V30 6336 H 602.478 -0.44676 0.607389 0
M  V30 6337 H 605.129 -0.454313 1.77787 0
M  V30 6338 H 603.511 -2.92537 2.66905 0
M  V30 6339 H 604.685 -0.7668 4.54375 0
M  V30 6340 H 603 -0.848404 4.07665 0
M  V30 6341 H 605.597 -3.62584 3.92985 0
M  V30 6342 H 605.94 -3.52133 2.22053 0
M  V30 6343 H 606.473 -2.21381 3.30507 0
M  V30 6344 H 603.212 -1.86929 6.28282 0
M  V30 6345 H 602.732 -3.12579 5.11913 0
M  V30 6346 H 604.411 -3.046 5.70813 0
M  V30 6347 N 604.543 -1.41418 -0.695603 0
M  V30 6348 C 605.791 -1.40496 -1.45277 0
M  V30 6349 C 606.112 -0.0149538 -1.94994 0
M  V30 6350 O 605.382 0.9432 -1.71699 0
M  V30 6351 H 603.962 -0.517147 -0.539044 0
M  V30 6352 H 606.624 -1.76656 -0.823321 0
M  V30 6353 H 605.72 -2.09214 -2.31595 0
M  V30 6354 N 606.021 0.929856 -1.27246 0
M  V30 6355 C 607.249 1.71144 -1.16265 0
M  V30 6356 C 607.664 1.867 0.280786 0
M  V30 6357 O 607.021 1.38249 1.19136 0
M  V30 6358 C 607.072 3.11222 -1.83911 0
M  V30 6359 O 606.793 2.96398 -3.22614 0
M  V30 6360 C 608.294 4.05541 -1.79028 0
M  V30 6361 H 605.514 0.535499 -0.404328 0
M  V30 6362 H 608.058 1.16492 -1.68077 0
M  V30 6363 H 606.213 3.6274 -1.36009 0
M  V30 6364 H 606.627 3.8494 -3.56261 0
M  V30 6365 H 608.101 5.01351 -2.30978 0
M  V30 6366 H 608.578 4.32589 -0.759168 0
M  V30 6367 H 609.184 3.59947 -2.26535 0
M  V30 6368 N 607.499 1.09233 1.13605 0
M  V30 6369 C 608.748 0.82205 1.84188 0
M  V30 6370 C 609.061 -0.654548 1.84323 0
M  V30 6371 O 610.267 -1.04029 2.50779 0
M  V30 6372 C 608.723 1.42066 3.30674 0
M  V30 6373 C 608.331 2.92965 3.38933 0
M  V30 6374 C 610.075 1.22924 4.06313 0
M  V30 6375 C 607.982 3.45922 4.79679 0
M  V30 6376 H 606.912 0.303854 0.690064 0
M  V30 6377 H 609.563 1.31479 1.28006 0
M  V30 6378 H 607.945 0.855613 3.86646 0
M  V30 6379 H 609.119 3.55679 2.92966 0
M  V30 6380 H 607.434 3.11118 2.76757 0
M  V30 6381 H 610.031 1.59945 5.10217 0
M  V30 6382 H 610.374 0.169726 4.15954 0
M  V30 6383 H 610.907 1.76168 3.56665 0
M  V30 6384 H 607.646 4.51484 4.75229 0
M  V30 6385 H 607.166 2.87971 5.26149 0
M  V30 6386 H 608.845 3.43009 5.48592 0
M  V30 6387 N 608.977 -1.30795 0.87923 0
M  V30 6388 C 610.207 -2.00237 0.50881 0
M  V30 6389 C 610.615 -1.66115 -0.905682 0
M  V30 6390 O 609.958 -0.89138 -1.60624 0
M  V30 6391 C 610.02 -3.54508 0.597003 0
M  V30 6392 C 609.684 -4.12131 1.97477 0
M  V30 6393 C 610.681 -4.28552 2.94346 0
M  V30 6394 C 608.366 -4.47644 2.2786 0
M  V30 6395 C 610.36 -4.79689 4.19735 0
M  V30 6396 C 608.047 -4.98481 3.53496 0
M  V30 6397 C 609.045 -5.14456 4.49248 0
M  V30 6398 O 608.733 -5.64199 5.72656 0
M  V30 6399 H 608.465 -0.647026 0.195788 0
M  V30 6400 H 611.019 -1.67785 1.1848 0
M  V30 6401 H 609.249 -3.86461 -0.135945 0
M  V30 6402 H 610.938 -4.05198 0.238684 0
M  V30 6403 H 611.704 -4.01424 2.72183 0
M  V30 6404 H 607.583 -4.34481 1.54102 0
M  V30 6405 H 611.127 -4.92073 4.9448 0
M  V30 6406 H 607.024 -5.25044 3.75498 0
M  V30 6407 H 607.792 -5.82551 5.74957 0
M  V30 6408 N 610.455 -0.639598 -1.44038 0
M  V30 6409 C 611.365 0.0612377 -2.3452 0
M  V30 6410 C 612.381 0.826717 -1.53106 0
M  V30 6411 O 613.557 0.777059 -1.85806 0
M  V30 6412 C 610.622 1.02492 -3.31204 0
M  V30 6413 C 609.683 0.25788 -4.28525 0
M  V30 6414 C 608.916 1.17566 -5.2059 0
M  V30 6415 O 609.139 2.41461 -5.16771 0
M  V30 6416 O 608.073 0.655407 -5.98321 0
M  V30 6417 H 611.899 -0.68318 -2.95916 0
M  V30 6418 H 609.484 -0.399784 -1.43952 0
M  V30 6419 H 611.366 1.57911 -3.90694 0
M  V30 6420 H 610.041 1.7498 -2.7233 0
M  V30 6421 H 608.948 -0.339566 -3.72556 0
M  V30 6422 H 610.281 -0.427154 -4.90343 0
M  V30 6423 N 611.933 1.52934 -0.380664 0
M  V30 6424 C 613.181 2.01069 0.203874 0
M  V30 6425 C 613.502 1.26922 1.4804 0
M  V30 6426 O 612.772 0.386787 1.92044 0
M  V30 6427 H 611.352 0.742882 0.0783279 0
M  V30 6428 H 614.014 1.88099 -0.510368 0
M  V30 6429 H 613.11 3.09258 0.42021 0
M  V30 6430 N 613.412 0.11024 1.57214 0
M  V30 6431 C 614.375 -0.828808 2.1369 0
M  V30 6432 C 615.375 -1.20059 1.06969 0
M  V30 6433 O 616.565 -1.12754 1.32786 0
M  V30 6434 C 613.697 -2.11959 2.66994 0
M  V30 6435 H 614.89 -0.338146 2.97988 0
M  V30 6436 H 612.443 -0.138913 1.55681 0
M  V30 6437 H 613.178 -2.65476 1.8626 0
M  V30 6438 H 612.963 -1.86258 3.45037 0
M  V30 6439 H 614.453 -2.79105 3.10629 0
M  V30 6440 N 614.89 -1.56749 -0.16351 0
M  V30 6441 C 616.115 -1.86938 -0.898264 0
M  V30 6442 C 616.54 -0.697456 -1.74692 0
M  V30 6443 O 615.898 0.353327 -1.77824 0
M  V30 6444 C 615.946 -3.15599 -1.74441 0
M  V30 6445 O 615.05 -2.98371 -2.8469 0
M  V30 6446 H 614.391 -0.614659 -0.251178 0
M  V30 6447 H 616.921 -2.03979 -0.159298 0
M  V30 6448 H 616.931 -3.47202 -2.14277 0
M  V30 6449 H 615.606 -4.00505 -1.1211 0
M  V30 6450 H 614.183 -2.7814 -2.4838 0
M  V30 6451 N 616.368 0.432326 -1.51554 0
M  V30 6452 C 617.316 1.54572 -1.73811 0
M  V30 6453 C 618.31 1.58246 -0.604539 0
M  V30 6454 O 619.516 1.6193 -0.786041 0
M  V30 6455 H 615.891 0.513626 -0.549265 0
M  V30 6456 H 617.862 1.32977 -2.67132 0
M  V30 6457 C 616.611 2.92181 -1.88483 0
M  V30 6458 H 615.934 2.90088 -2.75116 0
M  V30 6459 H 617.374 3.69439 -2.08065 0
M  V30 6460 C 615.833 3.3065 -0.645909 0
M  V30 6461 O 616.363 4.01216 0.197093 0
M  V30 6462 N 614.569 2.86464 -0.488538 0
M  V30 6463 H 614.116 2.29209 -1.17562 0
M  V30 6464 H 614.074 3.12565 0.339156 0
M  V30 6465 N 617.846 1.41785 0.688094 0
M  V30 6466 C 619.095 1.4084 1.44385 0
M  V30 6467 C 619.408 0.0234166 1.95586 0
M  V30 6468 O 620.614 -0.108647 2.71283 0
M  V30 6469 C 619.07 2.47675 2.61123 0
M  V30 6470 C 618.678 3.92116 2.16677 0
M  V30 6471 C 620.422 2.55877 3.38714 0
M  V30 6472 C 618.329 4.90487 3.30419 0
M  V30 6473 H 617.259 0.523787 0.542368 0
M  V30 6474 H 619.91 1.6764 0.74627 0
M  V30 6475 H 618.292 2.14018 3.33185 0
M  V30 6476 H 619.466 4.35059 1.51856 0
M  V30 6477 H 617.781 3.87642 1.5206 0
M  V30 6478 H 620.378 3.26553 4.234 0
M  V30 6479 H 620.721 1.59801 3.84408 0
M  V30 6480 H 621.254 2.88662 2.73714 0
M  V30 6481 H 617.993 5.87994 2.89729 0
M  V30 6482 H 617.513 4.52187 3.94065 0
M  V30 6483 H 619.192 5.11591 3.96085 0
M  V30 6484 N 619.324 -0.923095 1.27737 0
M  V30 6485 C 620.256 -2.02871 1.06658 0
M  V30 6486 C 621.269 -1.62786 0.0212095 0
M  V30 6487 O 622.458 -1.76548 0.263267 0
M  V30 6488 C 619.558 -3.33603 0.59682 0
M  V30 6489 C 618.731 -4.02354 1.71551 0
M  V30 6490 C 617.79 -5.11364 1.24071 0
M  V30 6491 O 616.816 -5.35075 1.94123 0
M  V30 6492 N 618.018 -5.80416 0.0988444 0
M  V30 6493 H 620.783 -2.21515 2.01869 0
M  V30 6494 H 618.344 -1.09378 1.19365 0
M  V30 6495 H 620.336 -4.03845 0.262984 0
M  V30 6496 H 618.906 -3.11499 -0.262187 0
M  V30 6497 H 618.126 -3.25786 2.2194 0
M  V30 6498 H 619.414 -4.45035 2.46619 0
M  V30 6499 H 618.812 -5.63611 -0.485743 0
M  V30 6500 H 617.369 -6.51563 -0.17578 0
M  V30 6501 N 620.802 -1.09834 -1.13024 0
M  V30 6502 C 621.732 -0.763451 -2.20666 0
M  V30 6503 C 622.713 0.260778 -1.68089 0
M  V30 6504 O 623.898 0.127915 -1.93778 0
M  V30 6505 C 621.028 -0.187744 -3.46792 0
M  V30 6506 C 619.982 -1.14196 -4.12484 0
M  V30 6507 C 619.308 -0.427755 -5.32986 0
M  V30 6508 C 620.608 -2.48607 -4.59338 0
M  V30 6509 H 622.302 -1.66347 -2.48936 0
M  V30 6510 H 619.848 -0.801261 -1.19649 0
M  V30 6511 H 621.801 0.0586375 -4.21359 0
M  V30 6512 H 620.525 0.747485 -3.17931 0
M  V30 6513 H 619.184 -1.37369 -3.3989 0
M  V30 6514 H 618.832 0.511747 -5.0039 0
M  V30 6515 H 618.532 -1.06403 -5.77886 0
M  V30 6516 H 620.056 -0.189772 -6.10305 0
M  V30 6517 H 621.47 -2.29618 -5.25308 0
M  V30 6518 H 619.867 -3.08062 -5.14993 0
M  V30 6519 H 620.937 -3.09062 -3.73642 0
M  V30 6520 N 622.28 1.30327 -0.886154 0
M  V30 6521 C 623.228 2.30052 -0.343317 0
M  V30 6522 C 624.222 1.60212 0.550305 0
M  V30 6523 O 625.428 1.74674 0.434609 0
M  V30 6524 H 621.803 0.746306 -0.0923681 0
M  V30 6525 H 623.774 2.73294 -1.19804 0
M  V30 6526 C 622.523 3.45079 0.426107 0
M  V30 6527 H 621.846 3.99003 -0.25227 0
M  V30 6528 H 623.286 4.16931 0.771009 0
M  V30 6529 C 621.745 2.95195 1.62363 0
M  V30 6530 O 622.275 2.95323 2.723 0
M  V30 6531 N 620.481 2.51192 1.4612 0
M  V30 6532 H 620.028 2.51286 0.566832 0
M  V30 6533 H 619.986 2.18173 2.2638 0
M  V30 6534 N 623.758 0.647228 1.43697 0
M  V30 6535 C 624.986 0.16575 2.06235 0
M  V30 6536 C 625.401 -1.1662 1.48476 0
M  V30 6537 O 624.758 -1.7187 0.613762 0
M  V30 6538 C 624.809 0.0621651 3.61447 0
M  V30 6539 O 624.53 1.34146 4.17057 0
M  V30 6540 C 626.031 -0.446102 4.4105 0
M  V30 6541 H 623.251 0.0871158 0.665321 0
M  V30 6542 H 625.795 0.886183 1.84301 0
M  V30 6543 H 623.95 -0.608794 3.82587 0
M  V30 6544 H 624.364 1.19675 5.10664 0
M  V30 6545 H 625.838 -0.46755 5.50016 0
M  V30 6546 H 626.315 -1.47627 4.13646 0
M  V30 6547 H 626.921 0.192159 4.24866 0
M  V30 6548 N 625.236 -1.5273 0.388769 0
M  V30 6549 C 626.485 -2.00757 -0.194833 0
M  V30 6550 C 626.798 -1.27951 -1.47946 0
M  V30 6551 O 628.004 -1.66686 -2.14308 0
M  V30 6552 C 626.46 -3.57695 -0.397762 0
M  V30 6553 C 626.068 -4.394 0.873583 0
M  V30 6554 C 627.812 -4.14012 -0.937759 0
M  V30 6555 C 625.719 -5.87938 0.638962 0
M  V30 6556 H 624.649 -0.750101 -0.0765845 0
M  V30 6557 H 627.3 -1.76239 0.511086 0
M  V30 6558 H 625.682 -3.7846 -1.16552 0
M  V30 6559 H 626.856 -4.30403 1.64591 0
M  V30 6560 H 625.171 -3.94301 1.33849 0
M  V30 6561 H 627.768 -5.22645 -1.12899 0
M  V30 6562 H 628.111 -3.7007 -1.90666 0
M  V30 6563 H 628.644 -3.97137 -0.229588 0
M  V30 6564 H 625.383 -6.36202 1.57885 0
M  V30 6565 H 624.903 -5.99726 -0.094443 0
M  V30 6566 H 626.582 -6.46423 0.273299 0
M  V30 6567 N 626.714 -0.118576 -1.57153 0
M  V30 6568 C 627.677 0.817464 -2.14127 0
M  V30 6569 C 628.677 1.1949 -1.07604 0
M  V30 6570 O 629.867 1.12048 -1.33382 0
M  V30 6571 C 626.999 2.10541 -2.68115 0
M  V30 6572 H 628.192 0.322339 -2.98163 0
M  V30 6573 H 625.745 0.130655 -1.55753 0
M  V30 6574 H 626.48 2.64485 -1.87665 0
M  V30 6575 H 626.265 1.84425 -3.4602 0
M  V30 6576 H 627.755 2.77453 -3.12105 0
M  V30 6577 N 628.193 1.56834 0.155195 0
M  V30 6578 C 629.14 1.97646 1.19184 0
M  V30 6579 C 630.11 0.842788 1.4313 0
M  V30 6580 O 631.295 1.1042 1.55602 0
M  V30 6581 C 628.435 2.35527 2.52232 0
M  V30 6582 C 627.548 3.62147 2.35529 0
M  V30 6583 C 626.683 3.89167 3.61555 0
M  V30 6584 C 625.722 5.09084 3.39853 0
M  V30 6585 N 624.859 5.32156 4.5799 0
M  V30 6586 H 629.699 2.8601 0.836802 0
M  V30 6587 H 627.236 1.41507 0.401758 0
M  V30 6588 H 629.194 2.55516 3.29799 0
M  V30 6589 H 627.824 1.50253 2.85699 0
M  V30 6590 H 626.876 3.4998 1.49057 0
M  V30 6591 H 628.188 4.49871 2.15448 0
M  V30 6592 H 627.342 4.09611 4.47553 0
M  V30 6593 H 626.081 2.9985 3.84632 0
M  V30 6594 H 625.086 4.88522 2.52243 0
M  V30 6595 H 626.311 5.99947 3.18183 0
M  V30 6596 H 624.257 4.45791 4.81255 0
M  V30 6597 H 624.174 6.14133 4.40882 0
M  V30 6598 H 625.442 5.57091 5.45225 0
M  V30 6599 N 629.671 -0.424282 1.51781 0
M  V30 6600 C 630.621 -1.51464 1.70419 0
M  V30 6601 C 631.605 -1.50911 0.558094 0
M  V30 6602 O 632.797 -1.57143 0.814552 0
M  V30 6603 C 629.926 -2.89539 1.84451 0
M  V30 6604 C 629.012 -2.94798 3.04886 0
M  V30 6605 N 629.403 -2.69778 4.27848 0
M  V30 6606 C 627.701 -3.25962 3.04408 0
M  V30 6607 C 628.402 -2.81216 5.09208 0
M  V30 6608 N 627.378 -3.13447 4.44131 0
M  V30 6609 H 631.18 -1.30892 2.63144 0
M  V30 6610 H 628.694 -0.631783 1.49607 0
M  V30 6611 H 630.691 -3.67998 1.95917 0
M  V30 6612 H 629.351 -3.11121 0.929168 0
M  V30 6613 H 630.362 -2.44458 4.56575 0
M  V30 6614 H 627.039 -3.53236 2.22555 0
M  V30 6615 H 628.429 -2.65715 6.17127 0
M  V30 6616 N 631.149 -1.42148 -0.680565 0
M  V30 6617 C 632.398 -1.41604 -1.43636 0
M  V30 6618 C 632.711 -0.0337887 -1.95571 0
M  V30 6619 O 633.917 0.0942588 -2.71336 0
M  V30 6620 C 632.373 -2.49056 -2.59806 0
M  V30 6621 C 631.981 -3.9326 -2.14594 0
M  V30 6622 C 633.725 -2.5767 -3.37352 0
M  V30 6623 C 631.632 -4.92232 -3.27813 0
M  V30 6624 H 630.562 -0.526656 -0.539583 0
M  V30 6625 H 633.213 -1.68033 -0.737369 0
M  V30 6626 H 631.595 -2.15782 -3.32045 0
M  V30 6627 H 632.769 -4.35858 -1.49546 0
M  V30 6628 H 631.084 -3.88443 -1.50002 0
M  V30 6629 H 633.681 -3.28794 -4.21662 0
M  V30 6630 H 634.024 -1.61837 -3.83555 0
M  V30 6631 H 634.557 -2.90109 -2.72179 0
M  V30 6632 H 631.296 -5.89522 -2.86607 0
M  V30 6633 H 630.816 -4.5427 -3.91661 0
M  V30 6634 H 632.495 -5.13684 -3.93367 0
M  V30 6635 N 632.627 0.916307 -1.28225 0
M  V30 6636 C 633.904 1.64429 -1.05936 0
M  V30 6637 C 634.284 2.07234 0.402139 0
M  V30 6638 O 633.632 1.81535 1.3877 0
M  V30 6639 C 633.842 2.83773 -2.03159 0
M  V30 6640 C 635.19 3.54852 -2.33164 0
M  V30 6641 O 636.214 2.93918 -2.01223 0
M  V30 6642 O 635.073 4.64663 -2.87664 0
M  V30 6643 H 632.167 0.721221 -0.404683 0
M  V30 6644 H 634.713 0.965838 -1.39534 0
M  V30 6645 H 633.485 2.49217 -3.01673 0
M  V30 6646 H 633.108 3.59333 -1.70192 0
M  V30 6647 N 634.105 1.10431 1.1244 0
M  V30 6648 C 635.068 0.756542 2.16354 0
M  V30 6649 C 636.068 -0.21899 1.59302 0
M  V30 6650 O 637.258 0.00415969 1.742 0
M  V30 6651 C 634.39 0.120612 3.40687 0
M  V30 6652 H 635.583 1.67696 2.48632 0
M  V30 6653 H 633.136 0.904832 1.27446 0
M  V30 6654 H 633.871 -0.810536 3.14008 0
M  V30 6655 H 633.656 0.822693 3.83372 0
M  V30 6656 H 635.146 -0.106945 4.17463 0
M  V30 6657 N 635.583 -1.29855 0.893053 0
M  V30 6658 C 636.493 -2.31661 0.370157 0
M  V30 6659 C 637.509 -1.65677 -0.531723 0
M  V30 6660 O 638.685 -1.9691 -0.422902 0
M  V30 6661 C 635.75 -3.44388 -0.399741 0
M  V30 6662 C 634.811 -4.2598 0.532861 0
M  V30 6663 C 634.044 -5.33324 -0.200388 0
M  V30 6664 O 634.267 -5.52305 -1.42531 0
M  V30 6665 O 633.201 -6.00188 0.453668 0
M  V30 6666 H 637.027 -2.78354 1.2146 0
M  V30 6667 H 634.612 -1.34171 0.657153 0
M  V30 6668 H 636.494 -4.13037 -0.835358 0
M  V30 6669 H 635.169 -2.99815 -1.22035 0
M  V30 6670 H 634.076 -3.59998 1.01746 0
M  V30 6671 H 635.409 -4.74178 1.3197 0
M  V30 6672 N 637.061 -0.65484 -1.43351 0
M  V30 6673 C 638.291 -0.176429 -2.05845 0
M  V30 6674 C 638.699 1.16375 -1.49176 0
M  V30 6675 O 638.042 1.72981 -0.618322 0
M  V30 6676 C 638.104 -0.0125844 -3.59498 0
M  V30 6677 C 637.768 -1.27831 -4.38758 0
M  V30 6678 C 638.765 -2.2074 -4.70712 0
M  V30 6679 C 636.45 -1.52035 -4.78739 0
M  V30 6680 C 638.444 -3.36145 -5.41558 0
M  V30 6681 C 636.131 -2.67732 -5.49329 0
M  V30 6682 C 637.129 -3.59612 -5.80662 0
M  V30 6683 O 636.817 -4.73289 -6.4981 0
M  V30 6684 H 636.549 -0.0879682 -0.670252 0
M  V30 6685 H 639.103 -0.896193 -1.84818 0
M  V30 6686 H 637.333 0.762567 -3.79107 0
M  V30 6687 H 639.022 0.423392 -4.03686 0
M  V30 6688 H 639.788 -2.03284 -4.40341 0
M  V30 6689 H 635.667 -0.813987 -4.53757 0
M  V30 6690 H 639.211 -4.07881 -5.65932 0
M  V30 6691 H 635.108 -2.85122 -5.79116 0
M  V30 6692 H 635.876 -4.72575 -6.68293 0
M  V30 6693 O 638.578 1.52239 -0.539034 0
M  V30 6694 H 639.269 1.93674 -0.0315656 0
M  V30 END ATOM
M  V30 BEGIN BOND
M  V30 END BOND
M  V30 END CTAB
M  END
$$$$
