drugbank_target|P10275 Androgen receptor (DB00255; DB00367; DB00396; DB00421; DB00499; DB00621; DB00623; DB00624; DB00648; DB00655; DB00665; DB00675; DB00717; DB00858; DB00957; DB00984; DB01026; DB01063; DB01128; DB01185; DB01395; DB01406; DB01420; DB01428; DB01481; DB01541; DB01564; DB01608; DB01708; DB02266; DB02901; DB02932; DB02998; DB04709; DB04839; DB05234; DB06133; DB06412; DB06710; DB06713; DB06718; DB06870; DB07039; DB07286; DB07419; DB07421; DB07422; DB07423; DB07454; DB07717; DB07769; DB08035; DB08087; DB08088; DB08089; DB08461; DB08604; DB08804; DB08867; DB08899; DB09086; DB09123; DB09371; DB09389; DB11064; DB11219; DB11429; DB11447; DB11619; DB11901; DB12499; DB12941; DB13155; DB13934; DB13943; DB13944; DB13946; DB13951; DB14583; DB14639; DB15488; DB15647)
 OpenBabel12092119253D

  0  0  0     0  0            999 V3000
M  V30 BEGIN CTAB
M  V30 COUNTS 13692 13861 0 0 0
M  V30 BEGIN ATOM
M  V30 1 H -0.908 1.98254 -0.117106 0
M  V30 2 N 0 1.576 0 0
M  V30 3 C 0.933 2.03868 1.02534 0
M  V30 4 C 1.911 0.928543 1.3348 0
M  V30 5 O 3.095 1.19667 1.45644 0
M  V30 6 C 0.222 2.43627 2.35294 0
M  V30 7 C -0.732 3.65373 2.2001 0
M  V30 8 S 0.101 5.13292 1.52614 0
M  V30 9 C 1.257 5.56322 2.86805 0
M  V30 10 H 1.49 2.90518 0.631377 0
M  V30 11 H -0.977 1.52953 0.210867 0
M  V30 12 H 0.981 2.67203 3.11629 0
M  V30 13 H -0.358 1.57376 2.7183 0
M  V30 14 H -1.165 3.90944 3.18086 0
M  V30 15 H -1.563 3.418 1.51819 0
M  V30 16 H 0.729 5.58782 3.83104 0
M  V30 17 H 1.672 6.56266 2.65933 0
M  V30 18 H 2.08 4.83886 2.90714 0
M  V30 19 N 1.4781 -0.272755 1.55222 0
M  V30 20 C 2.3881 -1.35918 1.91216 0
M  V30 21 C 3.4041 -1.54026 0.809436 0
M  V30 22 O 4.5801 -1.68148 1.10852 0
M  V30 23 C 1.6451 -2.69834 2.17693 0
M  V30 24 C 0.7061 -2.6047 3.41253 0
M  V30 25 C -0.0609 -3.88 3.66458 0
M  V30 26 O 0.1621 -4.88693 2.94169 0
M  V30 27 O -0.9039 -3.88189 4.59992 0
M  V30 28 H 2.9221 -1.0839 2.83699 0
M  V30 29 H 0.5071 -0.471301 1.41771 0
M  V30 30 H 2.3891 -3.49017 2.36147 0
M  V30 31 H 1.0641 -2.97148 1.28392 0
M  V30 32 H -0.0289 -1.79663 3.28134 0
M  V30 33 H 1.3041 -2.38106 4.30774 0
M  V30 34 N 2.9562 -1.48159 -0.537278 0
M  V30 35 C 4.2022 -1.56035 -1.29541 0
M  V30 36 C 4.5352 -0.230377 -1.92829 0
M  V30 37 O 3.8102 0.762952 -1.78911 0
M  V30 38 C 4.0932 -2.69323 -2.39034 0
M  V30 39 C 3.9462 -4.12002 -1.80485 0
M  V30 40 C 5.2652 -2.78408 -3.40847 0
M  V30 41 H 2.3842 -0.567992 -0.469632 0
M  V30 42 H 5.0262 -1.80302 -0.599277 0
M  V30 43 H 3.1762 -2.48763 -2.98412 0
M  V30 44 H 4.8482 -4.43981 -1.25215 0
M  V30 45 H 3.0912 -4.19344 -1.11055 0
M  V30 46 H 3.7622 -4.87077 -2.59731 0
M  V30 47 H 6.2382 -2.97012 -2.91416 0
M  V30 48 H 5.1142 -3.59416 -4.14863 0
M  V30 49 H 5.3752 -1.86269 -4.00944 0
M  V30 50 N 4.4343 0.785586 -1.36625 0
M  V30 51 C 5.3663 1.90711 -1.2713 0
M  V30 52 C 6.3793 1.61688 -0.189986 0
M  V30 53 O 7.5683 1.72864 -0.445014 0
M  V30 54 C 4.6683 3.25611 -0.939713 0
M  V30 55 C 3.8413 3.82385 -2.12369 0
M  V30 56 C 2.9003 4.95732 -1.76456 0
M  V30 57 O 1.9263 5.12047 -2.48589 0
M  V30 58 N 3.1283 5.76258 -0.700492 0
M  V30 59 H 5.8933 1.99376 -2.23762 0
M  V30 60 H 3.4543 0.964041 -1.30069 0
M  V30 61 H 5.4463 3.98937 -0.680554 0
M  V30 62 H 4.0163 3.12538 -0.0624074 0
M  V30 63 H 3.2363 3.01001 -2.54543 0
M  V30 64 H 4.5243 4.17047 -2.9146 0
M  V30 65 H 3.9223 5.65609 -0.101624 0
M  V30 66 H 2.4793 6.4987 -0.501165 0
M  V30 67 N 5.9124 1.20967 1.01018 0
M  V30 68 C 6.8424 0.988272 2.11555 0
M  V30 69 C 7.8234 -0.0849778 1.69888 0
M  V30 70 O 9.0084 0.0738202 1.9406 0
M  V30 71 C 6.1384 0.546528 3.42973 0
M  V30 72 C 5.0924 1.56375 3.9841 0
M  V30 73 C 4.4184 0.97842 5.25672 0
M  V30 74 C 5.7184 2.94922 4.31066 0
M  V30 75 H 7.4124 1.91276 2.30334 0
M  V30 76 H 4.9584 0.921073 1.1069 0
M  V30 77 H 6.9114 0.378839 4.19694 0
M  V30 78 H 5.6354 -0.413598 3.23971 0
M  V30 79 H 4.2944 1.71891 3.23804 0
M  V30 80 H 3.9424 0.0101688 5.02999 0
M  V30 81 H 3.6424 1.65784 5.63728 0
M  V30 82 H 5.1664 0.821939 6.05043 0
M  V30 83 H 6.5804 2.8288 4.9865 0
M  V30 84 H 4.9774 3.5983 4.80253 0
M  V30 85 H 6.0474 3.4616 3.39561 0
M  V30 86 N 7.3905 -1.2043 1.01659 0
M  V30 87 C 8.6385 -1.89423 0.704522 0
M  V30 88 C 8.9595 -1.79231 -0.768197 0
M  V30 89 O 8.2295 -1.1947 -1.55254 0
M  V30 90 H 6.8095 -0.701178 0.257602 0
M  V30 91 H 9.4715 -1.4626 1.28818 0
M  V30 92 H 8.5675 -2.96052 0.987916 0
M  V30 93 N 8.8686 -0.792821 -1.36206 0
M  V30 94 C 9.7986 -0.207853 -2.32573 0
M  V30 95 C 10.7796 0.659055 -1.56813 0
M  V30 96 O 11.9646 0.592176 -1.84951 0
M  V30 97 C 9.0946 0.655449 -3.41059 0
M  V30 98 C 8.0486 -0.111842 -4.27854 0
M  V30 99 C 7.3746 0.872274 -5.27537 0
M  V30 100 C 8.6746 -1.30299 -5.05786 0
M  V30 101 H 10.3686 -1.01294 -2.81744 0
M  V30 102 H 7.9146 -0.48854 -1.3546 0
M  V30 103 H 9.8676 1.07464 -4.07467 0
M  V30 104 H 8.5916 1.49328 -2.90463 0
M  V30 105 H 7.2506 -0.512053 -3.63006 0
M  V30 106 H 6.8986 1.70523 -4.73214 0
M  V30 107 H 6.5986 0.363291 -5.86476 0
M  V30 108 H 8.1226 1.28996 -5.96818 0
M  V30 109 H 9.5366 -0.959379 -5.65216 0
M  V30 110 H 7.9336 -1.7455 -5.74154 0
M  V30 111 H 9.0036 -2.09663 -4.37229 0
M  V30 112 N 10.3467 1.47872 -0.545128 0
M  V30 113 C 11.5947 2.02093 -0.016553 0
M  V30 114 C 11.9157 1.42305 1.3332 0
M  V30 115 O 11.1857 0.593853 1.86682 0
M  V30 116 H 9.7657 0.746993 -0.00313038 0
M  V30 117 H 12.4277 1.81414 -0.712397 0
M  V30 118 H 11.5237 3.11996 0.0805422 0
M  V30 119 N 11.8248 0.280983 1.55075 0
M  V30 120 C 13.2408 -0.0729964 1.59433 0
M  V30 121 C 13.4408 -1.5411 1.29817 0
M  V30 122 O 12.4968 -2.29086 1.06187 0
M  V30 123 C 13.8098 0.306921 2.9913 0
M  V30 124 C 15.3578 0.254023 3.11968 0
M  V30 125 C 15.8328 0.608467 4.5394 0
M  V30 126 N 17.3238 0.560241 4.59799 0
M  V30 127 C 18.0588 0.80722 5.6769 0
M  V30 128 N 17.5548 1.11912 6.83701 0
M  V30 129 N 19.3478 0.735623 5.57266 0
M  V30 130 H 11.4988 1.238 1.7259 0
M  V30 131 H 13.7618 0.500547 0.805082 0
M  V30 132 H 13.4678 1.32816 3.25657 0
M  V30 133 H 13.3418 -0.349363 3.75579 0
M  V30 134 H 15.7288 -0.75794 2.852 0
M  V30 135 H 15.8098 0.944649 2.37718 0
M  V30 136 H 15.4538 1.61814 4.81434 0
M  V30 137 H 15.3838 -0.104013 5.26497 0
M  V30 138 H 17.8748 0.329288 3.76463 0
M  V30 139 H 18.1878 1.29409 7.61888 0
M  V30 140 H 16.5328 1.15695 6.85303 0
M  V30 141 H 19.7238 0.491752 4.6551 0
M  V30 142 H 19.8968 0.931482 6.4127 0
M  V30 143 N 13.3029 -1.57598 0.00835791 0
M  V30 144 C 14.5489 -1.91211 -0.675732 0
M  V30 145 C 14.8819 -0.883139 -1.72958 0
M  V30 146 O 14.1569 0.097016 -1.94258 0
M  V30 147 C 14.4399 -3.35379 -1.31123 0
M  V30 148 C 14.2929 -4.48999 -0.268356 0
M  V30 149 C 15.6119 -3.7912 -2.23508 0
M  V30 150 H 12.7309 -0.695374 -0.244179 0
M  V30 151 H 15.3729 -1.89901 0.0613655 0
M  V30 152 H 13.5229 -3.36626 -1.93946 0
M  V30 153 H 15.1949 -4.59887 0.360844 0
M  V30 154 H 13.4379 -4.31873 0.408482 0
M  V30 155 H 14.1089 -5.46851 -0.752218 0
M  V30 156 H 16.5849 -3.79477 -1.70693 0
M  V30 157 H 15.4609 -4.80729 -2.64936 0
M  V30 158 H 15.7219 -3.13455 -3.11766 0
M  V30 159 N 14.781 0.264519 -1.55364 0
M  V30 160 C 16.011 1.01153 -1.80143 0
M  V30 161 C 16.419 1.80115 -0.579253 0
M  V30 162 O 15.762 1.77813 0.46132 0
M  V30 163 C 15.824 2.01098 -2.97993 0
M  V30 164 C 15.488 1.40995 -4.34706 0
M  V30 165 C 16.485 0.821316 -5.13372 0
M  V30 166 C 14.17 1.43461 -4.81378 0
M  V30 167 C 16.164 0.265339 -6.36847 0
M  V30 168 C 13.851 0.874771 -6.04807 0
M  V30 169 C 14.849 0.291146 -6.82379 0
M  V30 170 O 14.537 -0.260093 -8.03479 0
M  V30 171 H 14.269 0.304125 -0.603725 0
M  V30 172 H 16.823 0.298089 -2.03225 0
M  V30 173 H 15.053 2.76224 -2.70623 0
M  V30 174 H 16.742 2.61997 -3.1002 0
M  V30 175 H 17.508 0.794903 -4.78442 0
M  V30 176 H 13.387 1.87826 -4.21002 0
M  V30 177 H 16.931 -0.190837 -6.97339 0
M  V30 178 H 12.828 0.898452 -6.39217 0
M  V30 179 H 13.596 -0.150265 -8.18362 0
M  V30 180 N 16.2591 1.48442 0.529413 0
M  V30 181 C 17.6701 1.5002 1.11134 0
M  V30 182 C 18.0211 0.27031 1.94329 0
M  V30 183 O 17.1461 -0.622507 2.07253 0
M  V30 184 C 17.7411 2.71834 2.02217 0
M  V30 185 C 16.3001 2.76283 2.55627 0
M  V30 186 C 15.4471 2.43542 1.326 0
M  V30 187 H 18.3981 1.5555 0.314641 0
M  V30 188 H 18.4191 2.50384 2.8651 0
M  V30 189 H 17.9311 3.61331 1.41639 0
M  V30 190 H 16.0321 1.90995 3.19924 0
M  V30 191 H 16.1451 3.77725 2.94721 0
M  V30 192 H 14.5091 1.94709 1.64196 0
M  V30 193 H 15.2921 3.3528 0.737734 0
M  V30 194 N 17.7372 -0.778329 1.37039 0
M  V30 195 C 19.1532 -1.07796 1.17695 0
M  V30 196 C 19.3532 -2.01498 0.00860115 0
M  V30 197 O 18.4092 -2.43901 -0.653352 0
M  V30 198 C 19.7222 -1.68178 2.49272 0
M  V30 199 C 21.2702 -1.80467 2.55735 0
M  V30 200 C 21.7452 -2.44263 3.87427 0
M  V30 201 N 23.2362 -2.51721 3.88833 0
M  V30 202 C 23.9712 -3.01919 4.87476 0
M  V30 203 N 23.4672 -3.5234 5.96513 0
M  V30 204 N 25.2602 -3.00733 4.74885 0
M  V30 205 H 17.4112 -0.156032 2.11826 0
M  V30 206 H 19.6742 -0.131844 0.938787 0
M  V30 207 H 19.3802 -1.06796 3.35093 0
M  V30 208 H 19.2542 -2.67554 2.65885 0
M  V30 209 H 21.6412 -2.40984 1.70325 0
M  V30 210 H 21.7222 -0.798656 2.43013 0
M  V30 211 H 21.3662 -1.84388 4.73248 0
M  V30 212 H 21.2962 -3.45458 3.9745 0
M  V30 213 H 23.7872 -2.1603 3.10063 0
M  V30 214 H 24.1002 -3.89027 6.67741 0
M  V30 215 H 22.4452 -3.50462 6.00168 0
M  V30 216 H 25.6362 -2.60638 3.88826 0
M  V30 217 H 25.8092 -3.39545 5.51918 0
M  V30 218 N 19.2153 -1.21501 -1.00376 0
M  V30 219 C 20.6263 -1.03146 -1.55621 0
M  V30 220 C 20.9773 0.408375 -1.91903 0
M  V30 221 O 20.1023 1.29177 -1.73616 0
M  V30 222 C 20.6973 -1.86612 -2.82775 0
M  V30 223 C 19.2563 -1.72586 -3.34501 0
M  V30 224 C 18.4033 -1.83747 -2.07683 0
M  V30 225 H 21.3543 -1.35505 -0.826081 0
M  V30 226 H 21.3753 -1.3771 -3.54706 0
M  V30 227 H 20.8873 -2.91399 -2.56336 0
M  V30 228 H 18.9883 -0.704877 -3.65872 0
M  V30 229 H 19.1013 -2.54623 -4.05837 0
M  V30 230 H 17.4653 -1.27069 -2.20739 0
M  V30 231 H 18.2483 -2.90044 -1.83655 0
M  V30 232 N 20.6934 1.19889 -1.02296 0
M  V30 233 C 22.1044 1.71124 -0.746568 0
M  V30 234 C 22.4554 1.81939 0.734335 0
M  V30 235 O 21.5804 1.48639 1.57275 0
M  V30 236 C 22.1754 3.10804 -1.34857 0
M  V30 237 C 20.7344 3.59323 -1.1209 0
M  V30 238 C 19.8814 2.3635 -1.45031 0
M  V30 239 H 22.8324 1.04813 -1.19163 0
M  V30 240 H 22.8534 3.73186 -0.742437 0
M  V30 241 H 22.3654 3.029 -2.42638 0
M  V30 242 H 20.4664 3.7255 -0.0610337 0
M  V30 243 H 20.5794 4.4378 -1.80544 0
M  V30 244 H 18.9434 2.39399 -0.869487 0
M  V30 245 H 19.7264 2.31081 -2.53883 0
M  V30 246 N 22.1715 0.800033 1.35784 0
M  V30 247 C 23.3965 0.388511 2.03729 0
M  V30 248 C 23.8215 -0.990481 1.5991 0
M  V30 249 O 23.1795 -1.64013 0.772612 0
M  V30 250 C 23.2275 0.4726 3.5749 0
M  V30 251 O 22.3315 -0.51646 4.09153 0
M  V30 252 H 21.6725 0.163271 0.643614 0
M  V30 253 H 24.2025 1.0841 1.73518 0
M  V30 254 H 24.2125 0.34003 4.06581 0
M  V30 255 H 22.8875 1.47848 3.88734 0
M  V30 256 H 21.4645 -0.344673 3.71304 0
M  V30 257 N 23.6496 -1.47581 0.552962 0
M  V30 258 C 24.5966 -2.29957 -0.197108 0
M  V30 259 C 25.5666 -1.38799 -0.912359 0
M  V30 260 O 26.7516 -1.67761 -0.908888 0
M  V30 261 C 23.8916 -3.22672 -1.22379 0
M  V30 262 C 23.0046 -4.28919 -0.515038 0
M  V30 263 C 22.1396 -5.0879 -1.52664 0
M  V30 264 C 21.1786 -6.06815 -0.802631 0
M  V30 265 N 20.3156 -6.7966 -1.76086 0
M  V30 266 H 25.1556 -2.93578 0.511486 0
M  V30 267 H 22.6926 -1.4471 0.264067 0
M  V30 268 H 24.6506 -3.74845 -1.83159 0
M  V30 269 H 23.2806 -2.60925 -1.90047 0
M  V30 270 H 22.3326 -3.79835 0.207192 0
M  V30 271 H 23.6446 -4.98773 0.0523425 0
M  V30 272 H 22.7986 -5.65091 -2.20809 0
M  V30 273 H 21.5376 -4.38828 -2.12794 0
M  V30 274 H 20.5426 -5.49695 -0.107238 0
M  V30 275 H 21.7676 -6.78784 -0.207135 0
M  V30 276 H 19.7136 -6.12432 -2.35081 0
M  V30 277 H 19.6306 -7.45669 -1.24552 0
M  V30 278 H 20.8986 -7.40538 -2.43359 0
M  V30 279 N 25.1277 -0.289203 -1.54924 0
M  V30 280 C 26.3557 0.326463 -2.04308 0
M  V30 281 C 26.7707 1.48413 -1.16701 0
M  V30 282 O 26.1277 1.81507 -0.190087 0
M  V30 283 C 26.1787 0.794014 -3.52672 0
M  V30 284 O 25.8997 -0.317564 -4.36948 0
M  V30 285 C 27.4007 1.47605 -4.18004 0
M  V30 286 H 24.6207 0.0726272 -0.667058 0
M  V30 287 H 27.1647 -0.425401 -2.00026 0
M  V30 288 H 25.3197 1.49593 -3.57352 0
M  V30 289 H 25.7337 0.0443186 -5.24481 0
M  V30 290 H 27.2077 1.75447 -5.23376 0
M  V30 291 H 27.6847 2.41224 -3.67025 0
M  V30 292 H 28.2907 0.81762 -4.17367 0
M  V30 293 N 26.6058 1.57591 -0.0167156 0
M  V30 294 C 27.8358 1.95292 0.674149 0
M  V30 295 C 28.2438 0.891097 1.66901 0
M  V30 296 O 27.5868 -0.136908 1.83189 0
M  V30 297 C 27.6488 3.29072 1.44747 0
M  V30 298 C 27.3128 4.52879 0.612331 0
M  V30 299 C 28.3098 5.1979 -0.107126 0
M  V30 300 C 25.9948 4.99242 0.553381 0
M  V30 301 C 27.9888 6.31375 -0.874339 0
M  V30 302 C 25.6758 6.10713 -0.217546 0
M  V30 303 C 26.6738 6.76637 -0.930123 0
M  V30 304 O 26.3618 7.85969 -1.68844 0
M  V30 305 H 26.0938 0.648275 0.191615 0
M  V30 306 H 28.6478 2.05284 -0.0690148 0
M  V30 307 H 26.8778 3.15535 2.2355 0
M  V30 308 H 28.5668 3.51764 2.02526 0
M  V30 309 H 29.3328 4.84948 -0.0708392 0
M  V30 310 H 25.2118 4.47744 1.09757 0
M  V30 311 H 28.7558 6.82764 -1.43106 0
M  V30 312 H 24.6528 6.44994 -0.255593 0
M  V30 313 H 25.4208 8.02571 -1.6069 0
M  V30 314 N 28.0839 -0.256276 1.55502 0
M  V30 315 C 29.4999 -0.604325 1.47716 0
M  V30 316 C 29.6999 -1.88763 0.705039 0
M  V30 317 O 28.7559 -2.51445 0.230613 0
M  V30 318 C 30.0689 -0.715756 2.92057 0
M  V30 319 C 31.6169 -0.808706 3.02372 0
M  V30 320 C 32.0919 -0.951777 4.48001 0
M  V30 321 N 33.5829 -1.01688 4.519 0
M  V30 322 C 34.3179 -1.14668 5.61817 0
M  V30 323 N 33.8139 -1.24261 6.81565 0
M  V30 324 N 35.6069 -1.1791 5.49594 0
M  V30 325 H 27.7579 0.586291 2.04148 0
M  V30 326 H 30.0209 0.201015 0.926443 0
M  V30 327 H 29.7269 0.157027 3.51349 0
M  V30 328 H 29.6009 -1.59071 3.42018 0
M  V30 329 H 31.9879 -1.67195 2.43166 0
M  V30 330 H 32.0689 0.0912063 2.55637 0
M  V30 331 H 31.7129 -0.0931291 5.07815 0
M  V30 332 H 31.6429 -1.86659 4.92408 0
M  V30 333 H 34.1339 -0.954468 3.65648 0
M  V30 334 H 34.4469 -1.34046 7.61086 0
M  V30 335 H 32.7919 -1.21236 6.84344 0
M  V30 336 H 35.9829 -1.10057 4.54978 0
M  V30 337 H 36.1559 -1.27681 6.35296 0
M  V30 338 N 29.562 -1.4872 -0.521534 0
M  V30 339 C 30.81 -1.56857 -1.27437 0
M  V30 340 C 31.131 -0.247982 -1.93417 0
M  V30 341 O 30.401 0.731151 -1.81744 0
M  V30 342 H 28.981 -0.577885 -0.473347 0
M  V30 343 H 31.643 -1.85233 -0.606205 0
M  V30 344 H 30.739 -2.35402 -2.0492 0
M  V30 345 N 31.0401 0.771051 -1.3745 0
M  V30 346 C 32.0031 1.86598 -1.33093 0
M  V30 347 C 33.0031 1.59076 -0.234845 0
M  V30 348 O 34.1931 1.67145 -0.490732 0
M  V30 349 C 31.3251 3.23747 -1.06773 0
M  V30 350 H 32.5181 1.91873 -2.30488 0
M  V30 351 H 30.0711 0.970876 -1.2249 0
M  V30 352 H 30.8061 3.24148 -0.099129 0
M  V30 353 H 30.5911 3.45115 -1.86112 0
M  V30 354 H 32.0811 4.03824 -1.06377 0
M  V30 355 N 32.5182 1.22032 0.997298 0
M  V30 356 C 33.7652 1.04222 1.73621 0
M  V30 357 C 34.0932 -0.423264 1.89839 0
M  V30 358 O 33.3482 -1.3302 1.43542 0
M  V30 359 C 33.6472 1.69345 3.14733 0
M  V30 360 C 33.3132 3.19226 3.18442 0
M  V30 361 C 31.9752 3.60124 3.19161 0
M  V30 362 C 34.3272 4.15181 3.15078 0
M  V30 363 C 31.6552 4.95467 3.14212 0
M  V30 364 C 34.0072 5.50495 3.1167 0
M  V30 365 C 32.6712 5.90779 3.10703 0
M  V30 366 H 31.9412 0.381374 0.635323 0
M  V30 367 H 34.5882 1.51732 1.16831 0
M  V30 368 H 32.8932 1.14147 3.74803 0
M  V30 369 H 34.5902 1.53059 3.7064 0
M  V30 370 H 31.1802 2.86659 3.18629 0
M  V30 371 H 35.3642 3.84605 3.13676 0
M  V30 372 H 30.6202 5.25916 3.11805 0
M  V30 373 H 34.7942 6.24576 3.08022 0
M  V30 374 H 32.4212 6.9562 3.06622 0
M  V30 375 N 33.9963 -1.19345 1.0293 0
M  V30 376 C 34.9283 -2.22036 0.56857 0
M  V30 377 C 35.9413 -1.58865 -0.355779 0
M  V30 378 O 37.1303 -1.77851 -0.152103 0
M  V30 379 C 34.2303 -3.38363 -0.190752 0
M  V30 380 C 33.4033 -4.31118 0.738643 0
M  V30 381 C 32.4623 -5.26194 0.0246497 0
M  V30 382 O 31.4883 -5.65461 0.651354 0
M  V30 383 N 32.6903 -5.66971 -1.24594 0
M  V30 384 H 35.4553 -2.6219 1.45177 0
M  V30 385 H 33.0163 -1.34015 0.908381 0
M  V30 386 H 35.0083 -3.98981 -0.677961 0
M  V30 387 H 33.5783 -2.96994 -0.975366 0
M  V30 388 H 32.7983 -3.68276 1.40593 0
M  V30 389 H 34.0863 -4.90001 1.37029 0
M  V30 390 H 33.4843 -5.37104 -1.77583 0
M  V30 391 H 32.0413 -6.2984 -1.67764 0
M  V30 392 N 35.4744 -0.807222 -1.35358 0
M  V30 393 C 36.4224 -0.20614 -2.31685 0
M  V30 394 C 37.4164 0.644445 -1.56663 0
M  V30 395 O 38.6224 0.537538 -1.71786 0
M  V30 396 H 34.9974 -0.0479006 -0.750473 0
M  V30 397 H 36.9684 -1.03369 -2.79924 0
M  V30 398 C 35.7174 0.630212 -3.41941 0
M  V30 399 H 35.0404 -0.0149558 -3.99797 0
M  V30 400 H 36.4804 1.01716 -4.11619 0
M  V30 401 C 34.9394 1.79601 -2.85035 0
M  V30 402 O 35.4694 2.89351 -2.78637 0
M  V30 403 N 33.6754 1.60774 -2.42074 0
M  V30 404 H 33.2224 0.715009 -2.47478 0
M  V30 405 H 33.1804 2.38933 -2.04349 0
M  V30 406 N 36.9525 1.47285 -0.560781 0
M  V30 407 C 37.8825 2.32857 0.173105 0
M  V30 408 C 38.8635 1.44009 0.905281 0
M  V30 409 O 40.0485 1.7286 0.885046 0
M  V30 410 C 37.1785 3.25861 1.20133 0
M  V30 411 C 36.1325 4.23978 0.585388 0
M  V30 412 C 35.4585 5.06332 1.7185 0
M  V30 413 C 36.7585 5.20242 -0.463178 0
M  V30 414 H 38.4525 2.94466 -0.541307 0
M  V30 415 H 35.9985 1.41601 -0.261764 0
M  V30 416 H 37.9515 3.84569 1.72293 0
M  V30 417 H 36.6755 2.62315 1.94573 0
M  V30 418 H 35.3345 3.66501 0.085054 0
M  V30 419 H 34.9825 4.39186 2.45203 0
M  V30 420 H 34.6825 5.72762 1.31213 0
M  V30 421 H 36.2065 5.67899 2.24329 0
M  V30 422 H 37.6205 5.73293 -0.027502 0
M  V30 423 H 36.0175 5.94896 -0.788627 0
M  V30 424 H 37.0875 4.65504 -1.35773 0
M  V30 425 N 38.4306 0.297415 1.54768 0
M  V30 426 C 39.6776 -0.312913 2.00068 0
M  V30 427 C 40.0056 -1.54171 1.18582 0
M  V30 428 O 39.2606 -1.94108 0.249133 0
M  V30 429 C 39.5596 -0.717561 3.50123 0
M  V30 430 C 39.2256 0.409095 4.4904 0
M  V30 431 C 37.8876 0.718399 4.75807 0
M  V30 432 C 40.2396 1.16717 5.07963 0
M  V30 433 C 37.5676 1.78896 5.5876 0
M  V30 434 C 39.9196 2.22762 5.92081 0
M  V30 435 C 38.5836 2.54303 6.1716 0
M  V30 436 H 37.8536 -0.114503 0.7321 0
M  V30 437 H 40.5006 0.415767 1.86932 0
M  V30 438 H 38.8056 -1.52627 3.60849 0
M  V30 439 H 40.5026 -1.20091 3.82595 0
M  V30 440 H 37.0926 0.157918 4.28309 0
M  V30 441 H 41.2766 0.941466 4.87289 0
M  V30 442 H 36.5326 2.0381 5.7643 0
M  V30 443 H 40.7066 2.81962 6.36765 0
M  V30 444 H 38.3336 3.3739 6.81229 0
M  V30 445 N 39.9087 -1.5758 0.0250728 0
M  V30 446 C 40.8407 -2.06869 -0.986796 0
M  V30 447 C 41.8537 -0.991332 -1.29137 0
M  V30 448 O 43.0427 -1.26761 -1.25674 0
M  V30 449 C 40.1427 -2.47486 -2.31525 0
M  V30 450 C 39.3157 -3.78253 -2.19643 0
M  V30 451 C 38.3747 -4.05464 -3.35388 0
M  V30 452 O 37.4007 -4.75774 -3.12454 0
M  V30 453 N 38.6027 -3.55321 -4.59051 0
M  V30 454 H 41.3677 -2.94302 -0.566276 0
M  V30 455 H 38.9287 -1.6109 -0.161776 0
M  V30 456 H 40.9207 -2.62785 -3.07776 0
M  V30 457 H 39.4907 -1.65441 -2.65232 0
M  V30 458 H 38.7107 -3.7279 -1.28144 0
M  V30 459 H 39.9987 -4.63936 -2.08903 0
M  V30 460 H 39.3967 -2.98431 -4.80578 0
M  V30 461 H 37.9537 -3.75905 -5.32483 0
M  V30 462 N 41.3868 0.248026 -1.55636 0
M  V30 463 C 42.6118 0.998028 -1.81808 0
M  V30 464 C 43.0368 1.78207 -0.601979 0
M  V30 465 O 42.3948 1.75653 0.448961 0
M  V30 466 C 42.4428 1.9125 -3.05705 0
M  V30 467 O 41.5468 3.00406 -2.82542 0
M  V30 468 H 40.8878 0.284045 -0.600179 0
M  V30 469 H 43.4178 0.269357 -2.02819 0
M  V30 470 H 43.4278 2.32737 -3.35108 0
M  V30 471 H 42.1028 1.33602 -3.93857 0
M  V30 472 H 40.6798 2.63056 -2.64303 0
M  V30 473 N 42.8649 1.48995 0.513639 0
M  V30 474 C 44.1109 1.58076 1.27042 0
M  V30 475 C 44.4439 0.261026 1.92438 0
M  V30 476 O 43.7189 -0.734393 1.80103 0
M  V30 477 C 44.0019 2.73091 2.34719 0
M  V30 478 C 43.8549 4.14821 1.73907 0
M  V30 479 C 45.1739 2.83796 3.36375 0
M  V30 480 H 42.2929 0.575391 0.460536 0
M  V30 481 H 44.9349 1.81232 0.570516 0
M  V30 482 H 43.0849 2.53479 2.94416 0
M  V30 483 H 44.7569 4.45917 1.18135 0
M  V30 484 H 42.9999 4.21058 1.0437 0
M  V30 485 H 43.6709 4.91147 2.51949 0
M  V30 486 H 46.1469 3.01611 2.86653 0
M  V30 487 H 45.0229 3.65971 4.09093 0
M  V30 488 H 45.2839 1.92624 3.9793 0
M  V30 489 N 44.343 -0.763751 1.37857 0
M  V30 490 C 45.759 -1.06542 1.18832 0
M  V30 491 C 45.959 -2.01478 0.0299722 0
M  V30 492 O 45.015 -2.4458 -0.627447 0
M  V30 493 C 46.328 -1.65525 2.51042 0
M  V30 494 C 47.876 -1.77745 2.57635 0
M  V30 495 C 48.351 -2.4014 3.89996 0
M  V30 496 N 49.842 -2.47582 3.91481 0
M  V30 497 C 50.577 -2.96732 4.9065 0
M  V30 498 N 50.073 -3.45993 6.00217 0
M  V30 499 N 51.866 -2.95679 4.78048 0
M  V30 500 H 44.017 -0.133556 2.1198 0
M  V30 501 H 46.28 -0.121879 0.940133 0
M  V30 502 H 45.986 -1.03236 3.36207 0
M  V30 503 H 45.86 -2.64719 2.68707 0
M  V30 504 H 48.247 -2.39164 1.72872 0
M  V30 505 H 48.328 -0.772836 2.43846 0
M  V30 506 H 47.972 -1.79358 4.75177 0
M  V30 507 H 47.902 -3.41223 4.01092 0
M  V30 508 H 50.393 -2.1273 3.12337 0
M  V30 509 H 50.706 -3.81922 6.7183 0
M  V30 510 H 49.051 -3.44077 6.03851 0
M  V30 511 H 52.242 -2.56499 3.91568 0
M  V30 512 H 52.415 -3.33672 5.55488 0
M  V30 513 N 45.8211 -1.22559 -0.990812 0
M  V30 514 C 46.7311 -1.01394 -2.11557 0
M  V30 515 C 47.7471 0.0383962 -1.73958 0
M  V30 516 O 48.9231 -0.154787 -2.00804 0
M  V30 517 C 45.9881 -0.596569 -3.41529 0
M  V30 518 C 45.0491 -1.72276 -3.93217 0
M  V30 519 C 44.2821 -1.32521 -5.16985 0
M  V30 520 O 44.5051 -0.204909 -5.70032 0
M  V30 521 O 43.4391 -2.14247 -5.62478 0
M  V30 522 H 47.2651 -1.95633 -2.32296 0
M  V30 523 H 44.8501 -1.01172 -1.0993 0
M  V30 524 H 46.7321 -0.374263 -4.19735 0
M  V30 525 H 45.4071 0.316939 -3.22145 0
M  V30 526 H 44.3141 -1.99961 -3.16174 0
M  V30 527 H 45.6471 -2.61421 -4.17037 0
M  V30 528 N 47.2992 1.18797 -1.03562 0
M  V30 529 C 48.5452 1.8893 -0.737113 0
M  V30 530 C 48.8782 1.79837 0.732956 0
M  V30 531 O 48.1532 1.19525 1.5344 0
M  V30 532 C 48.4362 3.39607 -1.19745 0
M  V30 533 C 48.2892 3.57537 -2.72924 0
M  V30 534 C 49.6082 4.33069 -0.783526 0
M  V30 535 H 46.7272 0.686057 -0.269249 0
M  V30 536 H 49.3692 1.39797 -1.28673 0
M  V30 537 H 47.5192 3.81583 -0.729855 0
M  V30 538 H 49.1912 3.24688 -3.27682 0
M  V30 539 H 47.4342 3.00363 -3.12993 0
M  V30 540 H 48.1052 4.63238 -3.00191 0
M  V30 541 H 50.5812 3.98846 -1.18581 0
M  V30 542 H 49.4572 5.3707 -1.13343 0
M  V30 543 H 49.7182 4.40986 0.313681 0
M  V30 544 N 48.7773 0.814389 1.34928 0
M  V30 545 C 50.0263 0.394871 1.97797 0
M  V30 546 C 50.3393 -1.04555 1.65311 0
M  V30 547 O 51.5453 -1.56856 2.21604 0
M  V30 548 C 50.0013 0.655103 3.53888 0
M  V30 549 C 49.6093 2.10858 3.95276 0
M  V30 550 C 51.3533 0.301329 4.23429 0
M  V30 551 C 49.2603 2.31415 5.44244 0
M  V30 552 H 48.1903 0.143913 0.740139 0
M  V30 553 H 50.8413 0.999544 1.53888 0
M  V30 554 H 49.2233 -0.0196253 3.95995 0
M  V30 555 H 50.3973 2.82176 3.64298 0
M  V30 556 H 48.7123 2.42297 3.38646 0
M  V30 557 H 51.3093 0.432869 5.32945 0
M  V30 558 H 51.6523 -0.75331 4.09428 0
M  V30 559 H 52.1853 0.930288 3.86769 0
M  V30 560 H 48.9243 3.35353 5.63222 0
M  V30 561 H 48.4443 1.6463 5.76764 0
M  V30 562 H 50.1233 2.13352 6.10811 0
M  V30 563 N 50.2554 -1.46986 0.568584 0
M  V30 564 C 51.1874 -2.28233 -0.210337 0
M  V30 565 C 52.2004 -1.37682 -0.868767 0
M  V30 566 O 53.3894 -1.62406 -0.740705 0
M  V30 567 C 50.4894 -3.12293 -1.3163 0
M  V30 568 C 49.6624 -4.30878 -0.7525 0
M  V30 569 C 48.7214 -4.96445 -1.74439 0
M  V30 570 O 47.7474 -5.54482 -1.286 0
M  V30 571 N 48.9494 -4.92171 -3.07812 0
M  V30 572 H 51.7144 -2.95723 0.486648 0
M  V30 573 H 49.2754 -1.56742 0.405409 0
M  V30 574 H 51.2674 -3.53022 -1.97883 0
M  V30 575 H 49.8374 -2.46971 -1.91636 0
M  V30 576 H 49.0574 -3.94104 0.0871128 0
M  V30 577 H 50.3454 -5.07558 -0.35536 0
M  V30 578 H 49.7434 -4.46239 -3.47688 0
M  V30 579 H 48.3004 -5.36884 -3.69592 0
M  V30 580 N 51.7335 -0.305618 -1.54608 0
M  V30 581 C 52.6815 0.584119 -2.25146 0
M  V30 582 C 53.6755 1.13326 -1.25911 0
M  V30 583 O 54.8815 1.08337 -1.43747 0
M  V30 584 H 51.2565 0.206983 -0.722954 0
M  V30 585 H 53.2275 -0.033291 -2.98381 0
M  V30 586 C 51.9765 1.74225 -3.009 0
M  V30 587 H 51.2995 1.32892 -3.77067 0
M  V30 588 H 52.7395 2.34077 -3.53531 0
M  V30 589 C 51.1985 2.64914 -2.0814 0
M  V30 590 O 51.7285 3.66137 -1.65246 0
M  V30 591 N 49.9345 2.3275 -1.74 0
M  V30 592 H 49.4815 1.50479 -2.09078 0
M  V30 593 H 49.4395 2.93694 -1.12211 0
M  V30 594 N 53.2116 1.57565 -0.0334293 0
M  V30 595 C 54.6226 1.79746 0.504798 0
M  V30 596 C 54.9736 0.944091 1.71992 0
M  V30 597 O 54.0986 0.155694 2.15839 0
M  V30 598 C 54.6936 3.25997 0.922567 0
M  V30 599 C 53.2526 3.49159 1.40588 0
M  V30 600 C 52.3996 2.74785 0.372633 0
M  V30 601 H 55.3506 1.56565 -0.259436 0
M  V30 602 H 55.3716 3.35945 1.78666 0
M  V30 603 H 54.8836 3.88081 0.0379825 0
M  V30 604 H 52.9846 2.92332 2.31025 0
M  V30 605 H 53.0976 4.57873 1.41028 0
M  V30 606 H 51.4616 2.40391 0.841672 0
M  V30 607 H 52.2446 3.39587 -0.503559 0
M  V30 608 N 54.6897 -0.239769 1.55765 0
M  V30 609 C 55.9377 -0.964892 1.77579 0
M  V30 610 C 56.2587 -1.85582 0.598699 0
M  V30 611 O 55.5287 -1.92075 -0.385226 0
M  V30 612 H 54.1087 -0.359265 0.654933 0
M  V30 613 H 56.7707 -0.256001 1.93211 0
M  V30 614 H 55.8667 -1.58243 2.69009 0
M  V30 615 N 56.1678 -1.49265 -0.50573 0
M  V30 616 C 57.5788 -1.51769 -1.08734 0
M  V30 617 C 57.9298 -0.301192 -1.93874 0
M  V30 618 O 57.0548 0.589456 -2.08217 0
M  V30 619 C 57.6498 -2.75017 -1.97867 0
M  V30 620 C 56.2088 -2.80314 -2.51199 0
M  V30 621 C 55.3558 -2.4562 -1.28709 0
M  V30 622 H 58.3068 -1.56031 -0.289855 0
M  V30 623 H 58.3278 -2.5491 -2.82491 0
M  V30 624 H 57.8398 -3.63539 -1.35873 0
M  V30 625 H 55.9408 -1.96061 -3.16845 0
M  V30 626 H 56.0538 -3.82366 -2.88675 0
M  V30 627 H 54.4178 -1.97297 -1.61078 0
M  V30 628 H 55.2008 -3.36411 -0.6843 0
M  V30 629 N 57.6459 0.756429 -1.3826 0
M  V30 630 C 59.0619 1.0591 -1.19395 0
M  V30 631 C 59.2619 2.01459 -0.0406567 0
M  V30 632 O 58.3179 2.44909 0.614467 0
M  V30 633 C 59.6309 1.64191 -2.51916 0
M  V30 634 C 61.1789 1.76376 -2.58574 0
M  V30 635 C 61.6539 2.38069 -3.91264 0
M  V30 636 N 63.1449 2.45503 -3.92788 0
M  V30 637 C 63.8799 2.94126 -4.92217 0
M  V30 638 N 63.3759 3.42805 -6.02043 0
M  V30 639 N 65.1689 2.9314 -4.7961 0
M  V30 640 H 57.3199 0.122313 -2.12048 0
M  V30 641 H 59.5829 0.116892 -0.940766 0
M  V30 642 H 59.2889 1.01451 -3.3675 0
M  V30 643 H 59.1629 2.6329 -2.70108 0
M  V30 644 H 61.5499 2.38244 -1.74137 0
M  V30 645 H 61.6309 0.759894 -2.44252 0
M  V30 646 H 61.2749 1.76835 -4.76121 0
M  V30 647 H 61.2049 3.39091 -4.02895 0
M  V30 648 H 63.6959 2.1107 -3.13461 0
M  V30 649 H 64.0089 3.78354 -6.73846 0
M  V30 650 H 62.3539 3.4087 -6.05667 0
M  V30 651 H 65.5449 2.54419 -3.92923 0
M  V30 652 H 65.7179 3.30721 -5.5725 0
M  V30 653 N 59.124 1.23083 0.984299 0
M  V30 654 C 60.074 0.975749 2.06066 0
M  V30 655 C 61.058 -0.0768251 1.60716 0
M  V30 656 O 62.25 0.134805 1.76486 0
M  V30 657 C 59.379 0.564673 3.38624 0
M  V30 658 C 58.465 1.65244 3.90583 0
M  V30 659 N 58.856 2.88193 4.15666 0
M  V30 660 C 57.154 1.52612 4.19077 0
M  V30 661 C 57.855 3.58593 4.58024 0
M  V30 662 N 56.831 2.86093 4.62225 0
M  V30 663 H 60.633 1.90957 2.23411 0
M  V30 664 H 58.147 1.12963 1.16675 0
M  V30 665 H 60.144 0.36322 4.15315 0
M  V30 666 H 58.804 -0.362147 3.22674 0
M  V30 667 H 59.815 3.24537 4.03604 0
M  V30 668 H 56.492 0.666121 4.12152 0
M  V30 669 H 57.882 4.63974 4.85982 0
M  V30 670 N 60.6021 -1.18246 1.0419 0
M  V30 671 C 62.0131 -1.69914 0.773698 0
M  V30 672 C 62.3641 -1.83085 -0.705297 0
M  V30 673 O 61.4891 -1.51123 -1.5489 0
M  V30 674 C 62.0841 -3.08619 1.39784 0
M  V30 675 C 60.6431 -3.57494 1.17792 0
M  V30 676 C 59.7901 -2.34013 1.48773 0
M  V30 677 H 62.7411 -1.02904 1.20816 0
M  V30 678 H 62.7621 -3.71958 0.801714 0
M  V30 679 H 62.2741 -2.99001 2.47426 0
M  V30 680 H 60.3751 -3.72406 0.120295 0
M  V30 681 H 60.4881 -4.40852 1.87581 0
M  V30 682 H 58.8521 -2.37986 0.907463 0
M  V30 683 H 59.6351 -2.27013 2.57527 0
M  V30 684 N 62.0802 -0.821533 -1.34494 0
M  V30 685 C 62.9902 -0.244355 -2.33324 0
M  V30 686 C 64.0062 0.620527 -1.62559 0
M  V30 687 O 65.1822 0.528754 -1.94335 0
M  V30 688 C 62.2472 0.585368 -3.41723 0
M  V30 689 C 61.3082 -0.301752 -4.28238 0
M  V30 690 C 60.5412 0.488466 -5.3146 0
M  V30 691 O 60.7642 1.72186 -5.4379 0
M  V30 692 O 59.6982 -0.12848 -6.01763 0
M  V30 693 H 63.5242 -1.06231 -2.84515 0
M  V30 694 H 61.1092 -0.583645 -1.37528 0
M  V30 695 H 62.9912 1.05747 -4.07916 0
M  V30 696 H 61.6662 1.38068 -2.92778 0
M  V30 697 H 60.5732 -0.821315 -3.64973 0
M  V30 698 H 61.9062 -1.06138 -4.8062 0
M  V30 699 N 63.5583 1.46682 -0.576371 0
M  V30 700 C 64.5213 2.28707 0.150239 0
M  V30 701 C 65.5213 1.38035 0.824794 0
M  V30 702 O 66.7113 1.60476 0.677719 0
M  V30 703 C 63.8433 3.18248 1.22192 0
M  V30 704 H 65.0363 2.94423 -0.570521 0
M  V30 705 H 62.5893 1.52688 -0.334078 0
M  V30 706 H 63.3243 2.57265 1.97447 0
M  V30 707 H 63.1093 3.85 0.742812 0
M  V30 708 H 64.5993 3.80001 1.73172 0
M  V30 709 N 65.0364 0.313813 1.54444 0
M  V30 710 C 65.9994 -0.54379 2.22656 0
M  V30 711 C 66.9994 -1.05124 1.21678 0
M  V30 712 O 68.1894 -0.945225 1.46325 0
M  V30 713 C 65.3214 -1.75427 2.92298 0
M  V30 714 H 66.5144 0.0523599 2.99854 0
M  V30 715 H 64.0674 0.0647834 1.56166 0
M  V30 716 H 64.8024 -2.38991 2.19211 0
M  V30 717 H 64.5874 -1.39791 3.66334 0
M  V30 718 H 66.0774 -2.36325 3.44297 0
M  V30 719 N 66.5145 -1.57545 0.0417849 0
M  V30 720 C 67.7395 -1.97035 -0.647455 0
M  V30 721 C 68.1645 -0.918775 -1.64135 0
M  V30 722 O 67.5225 0.119006 -1.80909 0
M  V30 723 C 67.5705 -3.35609 -1.31905 0
M  V30 724 O 66.6745 -3.3287 -2.43457 0
M  V30 725 H 66.0155 -0.64211 -0.169086 0
M  V30 726 H 68.5455 -2.04318 0.107399 0
M  V30 727 H 68.5555 -3.72126 -1.67291 0
M  V30 728 H 67.2305 -4.11685 -0.590586 0
M  V30 729 H 65.8075 -3.08087 -2.10088 0
M  V30 730 N 67.9926 0.231505 -1.5589 0
M  V30 731 C 68.9556 1.27028 -1.90779 0
M  V30 732 C 69.9556 1.40308 -0.785507 0
M  V30 733 O 71.1456 1.38744 -1.05336 0
M  V30 734 C 68.2776 2.64566 -2.14983 0
M  V30 735 H 69.4706 0.973017 -2.83677 0
M  V30 736 H 67.0236 0.471486 -1.49019 0
M  V30 737 H 67.7586 2.99406 -1.24604 0
M  V30 738 H 67.5436 2.56305 -2.96732 0
M  V30 739 H 69.0336 3.39543 -2.43105 0
M  V30 740 N 69.4707 1.49531 0.497807 0
M  V30 741 C 70.4337 1.65916 1.58128 0
M  V30 742 C 71.4337 0.530825 1.51786 0
M  V30 743 O 72.6237 0.797342 1.54881 0
M  V30 744 C 69.7557 1.65951 2.9778 0
M  V30 745 H 70.9487 2.62556 1.44929 0
M  V30 746 H 68.5017 1.38611 0.722275 0
M  V30 747 H 69.2367 0.709065 3.16453 0
M  V30 748 H 69.0217 2.47897 3.03792 0
M  V30 749 H 70.5117 1.80673 3.76493 0
M  V30 750 N 70.9488 -0.749086 1.3866 0
M  V30 751 C 72.3598 -1.32664 1.31366 0
M  V30 752 C 72.7108 -1.96179 -0.028484 0
M  V30 753 O 71.8358 -1.9537 -0.93057 0
M  V30 754 C 72.4308 -2.41219 2.37905 0
M  V30 755 C 70.9898 -2.94684 2.34176 0
M  V30 756 C 70.1368 -1.68108 2.20533 0
M  V30 757 H 73.0878 -0.547628 1.48952 0
M  V30 758 H 73.1088 -3.21268 2.0388 0
M  V30 759 H 72.6208 -1.94962 3.35576 0
M  V30 760 H 70.7218 -3.45258 1.401 0
M  V30 761 H 70.8348 -3.48757 3.2849 0
M  V30 762 H 69.1988 -1.91907 1.67463 0
M  V30 763 H 69.9818 -1.23923 3.20153 0
M  V30 764 N 72.4269 -1.23603 -0.977757 0
M  V30 765 C 73.8379 -1.06424 -1.53398 0
M  V30 766 C 74.1889 0.367578 -1.92726 0
M  V30 767 O 73.3139 1.25465 -1.76316 0
M  V30 768 C 73.9089 -1.92568 -2.78753 0
M  V30 769 C 72.4679 -1.79642 -3.30765 0
M  V30 770 C 71.6149 -1.88111 -2.03739 0
M  V30 771 H 74.5659 -1.37227 -0.797152 0
M  V30 772 H 74.5869 -1.45203 -3.51705 0
M  V30 773 H 74.0989 -2.96771 -2.50098 0
M  V30 774 H 72.1999 -0.782325 -3.64294 0
M  V30 775 H 72.3129 -2.63174 -4.00345 0
M  V30 776 H 70.6769 -1.31723 -2.17994 0
M  V30 777 H 71.4599 -2.93875 -1.77461 0
M  V30 778 N 73.905 1.17692 -1.04816 0
M  V30 779 C 75.153 1.87488 -0.754497 0
M  V30 780 C 75.474 1.81205 0.720407 0
M  V30 781 O 74.744 1.23544 1.52032 0
M  V30 782 H 73.324 0.694101 -0.276102 0
M  V30 783 H 75.986 1.42793 -1.32651 0
M  V30 784 H 75.082 2.93328 -1.06606 0
M  V30 785 N 75.3831 0.828654 1.34056 0
M  V30 786 C 76.3461 0.259927 2.27721 0
M  V30 787 C 77.3461 -0.565478 1.50529 0
M  V30 788 O 78.5361 -0.38075 1.69988 0
M  V30 789 C 75.6681 -0.634944 3.34935 0
M  V30 790 H 76.8611 1.0863 2.79534 0
M  V30 791 H 74.4141 0.600951 1.44285 0
M  V30 792 H 75.1491 -1.48416 2.88346 0
M  V30 793 H 74.9341 -0.0444999 3.92075 0
M  V30 794 H 76.4241 -1.02648 4.04788 0
M  V30 795 N 76.8612 -1.46375 0.584142 0
M  V30 796 C 78.0862 -2.07268 0.0740405 0
M  V30 797 C 78.5112 -1.42979 -1.22223 0
M  V30 798 O 77.8692 -0.514092 -1.73859 0
M  V30 799 C 77.9172 -3.60518 -0.0767769 0
M  V30 800 O 77.0212 -3.96533 -1.13292 0
M  V30 801 H 76.3622 -0.660961 0.0634524 0
M  V30 802 H 78.8922 -1.87991 0.807492 0
M  V30 803 H 78.9022 -4.07021 -0.282489 0
M  V30 804 H 77.5772 -4.06702 0.86986 0
M  V30 805 H 76.1542 -3.61738 -0.905553 0
M  V30 806 N 78.3393 -0.321999 -1.54275 0
M  V30 807 C 79.2693 0.537411 -2.27231 0
M  V30 808 C 80.2503 1.12064 -1.27968 0
M  V30 809 O 81.4353 1.14606 -1.56777 0
M  V30 810 C 78.5653 1.69919 -3.02894 0
M  V30 811 C 77.5193 1.24534 -4.09482 0
M  V30 812 C 76.8453 2.49394 -4.72977 0
M  V30 813 C 78.1453 0.361335 -5.21049 0
M  V30 814 H 79.8393 -0.0711406 -2.99315 0
M  V30 815 H 77.3853 -0.0356555 -1.43956 0
M  V30 816 H 79.3383 2.30668 -3.52662 0
M  V30 817 H 78.0623 2.33431 -2.28424 0
M  V30 818 H 76.7213 0.660782 -3.60596 0
M  V30 819 H 76.3693 3.11265 -3.95124 0
M  V30 820 H 76.0693 2.19718 -5.44975 0
M  V30 821 H 77.5933 3.10908 -5.25517 0
M  V30 822 H 79.0073 0.875072 -5.66582 0
M  V30 823 H 77.4043 0.157428 -5.99893 0
M  V30 824 H 78.4743 -0.60822 -4.8107 0
M  V30 825 N 79.8174 1.5752 -0.0501392 0
M  V30 826 C 80.7474 2.14502 0.922566 0
M  V30 827 C 81.7284 1.06642 1.3252 0
M  V30 828 O 82.9134 1.34577 1.4001 0
M  V30 829 C 80.0434 2.68916 2.19776 0
M  V30 830 C 78.9974 3.8175 1.93523 0
M  V30 831 C 78.3234 4.22677 3.27487 0
M  V30 832 C 79.6234 5.06932 1.25765 0
M  V30 833 H 81.3174 2.9603 0.447952 0
M  V30 834 H 78.8634 1.42401 0.214024 0
M  V30 835 H 80.8164 3.07419 2.88222 0
M  V30 836 H 79.5404 1.84578 2.69441 0
M  V30 837 H 78.1994 3.43718 1.27489 0
M  V30 838 H 77.8474 3.35291 3.74952 0
M  V30 839 H 77.5474 4.98725 3.1072 0
M  V30 840 H 79.0714 4.63779 3.97166 0
M  V30 841 H 80.4854 5.42888 1.84244 0
M  V30 842 H 78.8824 5.88116 1.19328 0
M  V30 843 H 79.9524 4.84337 0.233536 0
M  V30 844 N 81.2955 -0.223234 1.56011 0
M  V30 845 C 82.2255 -1.27988 1.95298 0
M  V30 846 C 83.2065 -1.48976 0.820979 0
M  V30 847 O 84.3915 -1.61188 1.08315 0
M  V30 848 C 81.5215 -2.63 2.26822 0
M  V30 849 C 80.4755 -2.56671 3.42497 0
M  V30 850 C 79.8015 -3.95697 3.59622 0
M  V30 851 C 81.1015 -2.11601 4.77517 0
M  V30 852 H 82.7955 -0.953525 2.8381 0
M  V30 853 H 80.3415 -0.457244 1.36548 0
M  V30 854 H 82.2945 -3.37077 2.52898 0
M  V30 855 H 81.0185 -2.9732 1.35161 0
M  V30 856 H 79.6775 -1.85051 3.16467 0
M  V30 857 H 79.3255 -4.27322 2.6534 0
M  V30 858 H 79.0255 -3.92345 4.37424 0
M  V30 859 H 80.5495 -4.71438 3.88044 0
M  V30 860 H 81.9635 -2.7542 5.02809 0
M  V30 861 H 80.3605 -2.19311 5.5859 0
M  V30 862 H 81.4305 -1.06824 4.72987 0
M  V30 863 N 82.7736 -1.49793 -0.48987 0
M  V30 864 C 83.7036 -1.70201 -1.59856 0
M  V30 865 C 84.6846 -0.55076 -1.60937 0
M  V30 866 O 85.8696 -0.787841 -1.77501 0
M  V30 867 C 82.9996 -1.77882 -2.98287 0
M  V30 868 C 81.9536 -2.92907 -3.12073 0
M  V30 869 C 81.2796 -2.85712 -4.51965 0
M  V30 870 C 82.5796 -4.3369 -2.91051 0
M  V30 871 H 84.2736 -2.63025 -1.43032 0
M  V30 872 H 81.8196 -1.26574 -0.686664 0
M  V30 873 H 83.7726 -1.90744 -3.75759 0
M  V30 874 H 82.4966 -0.816653 -3.16225 0
M  V30 875 H 81.1556 -2.79665 -2.37029 0
M  V30 876 H 80.8036 -1.8738 -4.66795 0
M  V30 877 H 80.5036 -3.62921 -4.62128 0
M  V30 878 H 82.0276 -3.00598 -5.31482 0
M  V30 879 H 83.4416 -4.47555 -3.58284 0
M  V30 880 H 81.8386 -5.12205 -3.12675 0
M  V30 881 H 82.9086 -4.47362 -1.87071 0
M  V30 882 N 84.2517 0.741722 -1.39055 0
M  V30 883 C 85.1837 1.8657 -1.33133 0
M  V30 884 C 86.1967 1.61001 -0.241329 0
M  V30 885 O 87.3857 1.7136 -0.499784 0
M  V30 886 C 84.4857 3.22457 -1.04283 0
M  V30 887 C 83.6587 3.75435 -2.24427 0
M  V30 888 C 82.7177 4.89867 -1.92138 0
M  V30 889 O 81.7437 5.03879 -2.64754 0
M  V30 890 N 82.9457 5.73738 -0.88347 0
M  V30 891 H 85.7107 1.92156 -2.29991 0
M  V30 892 H 83.2717 0.922172 -1.3307 0
M  V30 893 H 85.2637 3.9657 -0.807128 0
M  V30 894 H 83.8337 3.12181 -0.161807 0
M  V30 895 H 83.0537 2.92751 -2.6399 0
M  V30 896 H 84.3417 4.07563 -3.04581 0
M  V30 897 H 83.7397 5.64999 -0.281517 0
M  V30 898 H 82.2967 6.47947 -0.707662 0
M  V30 899 N 85.7298 1.2412 0.971189 0
M  V30 900 C 86.6618 0.988349 2.06795 0
M  V30 901 C 87.6748 -0.0409541 1.62748 0
M  V30 902 O 88.8638 0.195673 1.77424 0
M  V30 903 C 85.9638 0.469023 3.35639 0
M  V30 904 C 85.1368 1.56065 4.08611 0
M  V30 905 C 84.1958 1.04458 5.15728 0
M  V30 906 O 83.2218 1.73553 5.42096 0
M  V30 907 N 84.4238 -0.122817 5.8037 0
M  V30 908 H 87.1888 1.93265 2.29061 0
M  V30 909 H 84.7498 1.15102 1.13856 0
M  V30 910 H 86.7418 0.108613 4.04554 0
M  V30 911 H 85.3118 -0.380919 3.1027 0
M  V30 912 H 84.5318 2.09341 3.34021 0
M  V30 913 H 85.8198 2.29449 4.54126 0
M  V30 914 H 85.2178 -0.700563 5.61345 0
M  V30 915 H 83.7748 -0.424404 6.50417 0
M  V30 916 N 87.2079 -1.17134 1.05439 0
M  V30 917 C 88.1399 -2.2078 0.615539 0
M  V30 918 C 89.1529 -1.59584 -0.322001 0
M  V30 919 O 90.3419 -1.78133 -0.114344 0
M  V30 920 C 87.4419 -3.38691 -0.118938 0
M  V30 921 C 86.6149 -4.29454 0.829924 0
M  V30 922 C 85.6739 -5.26024 0.136258 0
M  V30 923 O 84.6999 -5.63952 0.77115 0
M  V30 924 N 85.9019 -5.69487 -1.1254 0
M  V30 925 H 88.6669 -2.59052 1.50705 0
M  V30 926 H 86.2279 -1.32058 0.936603 0
M  V30 927 H 88.2199 -4.00329 -0.593179 0
M  V30 928 H 86.7899 -2.98996 -0.91215 0
M  V30 929 H 86.0099 -3.65211 1.48373 0
M  V30 930 H 87.2979 -4.86984 1.47392 0
M  V30 931 H 86.6959 -5.4075 -1.6615 0
M  V30 932 H 85.2529 -6.33257 -1.54366 0
M  V30 933 N 88.686 -0.835752 -1.33615 0
M  V30 934 C 89.618 -0.224151 -2.28101 0
M  V30 935 C 90.631 0.593331 -1.51603 0
M  V30 936 O 91.82 0.420911 -1.73466 0
M  V30 937 C 88.92 0.703309 -3.31522 0
M  V30 938 C 88.093 -0.0741528 -4.37337 0
M  V30 939 C 87.152 0.776176 -5.20444 0
M  V30 940 O 86.178 0.216506 -5.68788 0
M  V30 941 N 87.38 2.09401 -5.41416 0
M  V30 942 H 90.145 -1.03598 -2.81225 0
M  V30 943 H 87.706 -0.69392 -1.46275 0
M  V30 944 H 89.698 1.27707 -3.84022 0
M  V30 945 H 88.268 1.41585 -2.78698 0
M  V30 946 H 87.488 -0.82928 -3.85378 0
M  V30 947 H 88.776 -0.608863 -5.05144 0
M  V30 948 H 88.174 2.57229 -5.03835 0
M  V30 949 H 86.731 2.61633 -5.96985 0
M  V30 950 N 90.1641 1.46063 -0.591896 0
M  V30 951 C 91.0961 2.28539 0.174001 0
M  V30 952 C 92.1091 1.39047 0.846753 0
M  V30 953 O 93.2981 1.63564 0.714774 0
M  V30 954 C 90.3981 3.14347 1.26645 0
M  V30 955 C 89.5711 4.32021 0.683856 0
M  V30 956 C 88.6301 4.99157 1.66518 0
M  V30 957 O 87.6561 5.56458 1.19763 0
M  V30 958 N 88.8581 4.97005 2.99943 0
M  V30 959 H 91.6231 2.94911 -0.533633 0
M  V30 960 H 89.1841 1.56077 -0.430294 0
M  V30 961 H 91.1761 3.56125 1.92242 0
M  V30 962 H 89.7461 2.49988 1.87682 0
M  V30 963 H 88.9661 3.93915 -0.1498 0
M  V30 964 H 90.2541 5.08059 0.274567 0
M  V30 965 H 89.6521 4.51714 3.40545 0
M  V30 966 H 88.2091 5.42696 3.61004 0
M  V30 967 N 91.6422 0.330177 1.54103 0
M  V30 968 C 92.5742 -0.566902 2.22079 0
M  V30 969 C 93.5872 -1.07462 1.22294 0
M  V30 970 O 94.7762 -0.987065 1.48726 0
M  V30 971 C 91.8762 -1.79138 2.87685 0
M  V30 972 C 91.0492 -1.42123 4.13666 0
M  V30 973 C 90.1082 -2.50394 4.62806 0
M  V30 974 O 89.1342 -2.14261 5.27334 0
M  V30 975 N 90.3362 -3.81433 4.37595 0
M  V30 976 H 93.1012 0.0151844 2.99696 0
M  V30 977 H 90.6622 0.153681 1.61169 0
M  V30 978 H 92.6542 -2.50975 3.1748 0
M  V30 979 H 91.2242 -2.28115 2.13734 0
M  V30 980 H 90.4442 -0.534201 3.90564 0
M  V30 981 H 91.7322 -1.14971 4.9564 0
M  V30 982 H 91.1302 -4.13584 3.8596 0
M  V30 983 H 89.6872 -4.4948 4.72029 0
M  V30 984 N 93.1203 -1.57491 0.0584922 0
M  V30 985 C 94.0523 -2.08916 -0.942694 0
M  V30 986 C 95.0653 -1.0185 -1.27006 0
M  V30 987 O 96.2543 -1.29398 -1.22957 0
M  V30 988 C 93.3543 -2.52341 -2.26224 0
M  V30 989 C 92.5273 -3.82827 -2.1157 0
M  V30 990 C 91.5863 -4.12487 -3.26712 0
M  V30 991 O 90.6123 -4.82295 -3.02292 0
M  V30 992 N 91.8143 -3.64978 -4.5141 0
M  V30 993 H 94.5793 -2.95437 -0.503722 0
M  V30 994 H 92.1403 -1.61397 -0.12757 0
M  V30 995 H 94.1323 -2.69254 -3.02133 0
M  V30 996 H 92.7023 -1.7103 -2.61663 0
M  V30 997 H 91.9223 -3.75425 -1.20208 0
M  V30 998 H 93.2103 -4.68263 -1.99015 0
M  V30 999 H 92.6083 -3.08558 -4.7414 0
M  V30 1000 H 91.1653 -3.87115 -5.2439 0
M  V30 1001 N 94.5984 0.214957 -1.56127 0
M  V30 1002 C 95.5304 1.29004 -1.89448 0
M  V30 1003 C 96.5434 1.42716 -0.783326 0
M  V30 1004 O 97.7324 1.43496 -1.06166 0
M  V30 1005 C 94.8324 2.66482 -2.09381 0
M  V30 1006 C 94.0054 2.74633 -3.40434 0
M  V30 1007 C 93.0644 3.9317 -3.49719 0
M  V30 1008 O 92.0904 3.812 -4.227 0
M  V30 1009 N 93.2924 5.07765 -2.81346 0
M  V30 1010 H 96.0574 1.00743 -2.82261 0
M  V30 1011 H 93.6184 0.40497 -1.56753 0
M  V30 1012 H 95.6104 3.44173 -2.12901 0
M  V30 1013 H 94.1804 2.87314 -1.23163 0
M  V30 1014 H 93.4004 1.83368 -3.48955 0
M  V30 1015 H 94.6884 2.77054 -4.26754 0
M  V30 1016 H 94.0864 5.20386 -2.21843 0
M  V30 1017 H 92.6434 5.83474 -2.90519 0
M  V30 1018 N 96.0765 1.50051 0.48192 0
M  V30 1019 C 97.0085 1.64263 1.59844 0
M  V30 1020 C 98.0215 0.52451 1.54119 0
M  V30 1021 O 99.2105 0.797293 1.59704 0
M  V30 1022 C 96.3105 1.60102 2.98698 0
M  V30 1023 C 95.4835 2.87767 3.29407 0
M  V30 1024 C 94.5425 2.76397 4.47762 0
M  V30 1025 O 93.5685 3.50348 4.48603 0
M  V30 1026 N 94.7705 1.89222 5.48794 0
M  V30 1027 H 97.5355 2.60566 1.48073 0
M  V30 1028 H 95.0965 1.47379 0.670149 0
M  V30 1029 H 97.0885 1.50123 3.75826 0
M  V30 1030 H 95.6585 0.715798 3.04294 0
M  V30 1031 H 94.8785 3.11954 2.40994 0
M  V30 1032 H 96.1665 3.72365 3.4673 0
M  V30 1033 H 95.5645 1.28434 5.50928 0
M  V30 1034 H 94.1215 1.85154 6.24949 0
M  V30 1035 N 97.5546 -0.734337 1.39446 0
M  V30 1036 C 98.4866 -1.85861 1.34121 0
M  V30 1037 C 99.4996 -1.60871 0.249864 0
M  V30 1038 O 100.689 -1.71093 0.508865 0
M  V30 1039 C 97.7886 -3.21899 1.05991 0
M  V30 1040 C 96.9616 -3.74239 2.26415 0
M  V30 1041 C 96.0206 -4.88841 1.94733 0
M  V30 1042 O 95.0466 -5.02468 2.67422 0
M  V30 1043 N 96.2486 -5.73261 0.913884 0
M  V30 1044 H 99.0136 -1.90934 2.31007 0
M  V30 1045 H 96.5746 -0.915102 1.33557 0
M  V30 1046 H 98.5666 -3.96136 0.828147 0
M  V30 1047 H 97.1366 -3.12091 0.178361 0
M  V30 1048 H 96.3566 -2.91347 2.65539 0
M  V30 1049 H 97.6446 -4.05942 3.06738 0
M  V30 1050 H 97.0426 -5.64842 0.311476 0
M  V30 1051 H 95.5996 -6.47563 0.742015 0
M  V30 1052 N 99.0327 -1.24633 -0.964593 0
M  V30 1053 C 99.9647 -0.999302 -2.06268 0
M  V30 1054 C 100.978 0.0323226 -1.62768 0
M  V30 1055 O 102.167 -0.205079 -1.77318 0
M  V30 1056 C 99.2667 -0.486816 -3.35385 0
M  V30 1057 C 98.4397 -1.5823 -4.07777 0
M  V30 1058 C 97.4987 -1.07191 -5.15166 0
M  V30 1059 O 96.5247 -1.76426 -5.41168 0
M  V30 1060 N 97.7267 0.0920373 -5.80427 0
M  V30 1061 H 100.492 -1.94477 -2.28033 0
M  V30 1062 H 98.0527 -1.15704 -1.13244 0
M  V30 1063 H 100.045 -0.130066 -4.04491 0
M  V30 1064 H 98.6147 0.364459 -3.10468 0
M  V30 1065 H 97.8347 -2.11109 -3.32906 0
M  V30 1066 H 99.1227 -2.31854 -4.52903 0
M  V30 1067 H 98.5207 0.670784 -5.61709 0
M  V30 1068 H 97.0777 0.389905 -6.50633 0
M  V30 1069 N 100.511 1.16574 -1.06058 0
M  V30 1070 C 101.443 2.2045 -0.627239 0
M  V30 1071 C 102.456 1.59752 0.313534 0
M  V30 1072 O 103.645 1.78192 0.104896 0
M  V30 1073 C 100.745 3.3875 0.100974 0
M  V30 1074 C 99.9178 4.29008 -0.852687 0
M  V30 1075 C 98.9768 5.25944 -0.164152 0
M  V30 1076 O 98.0028 5.63535 -0.801047 0
M  V30 1077 N 99.2048 5.70075 1.09518 0
M  V30 1078 H 101.97 2.58249 -1.52077 0
M  V30 1079 H 99.5308 1.3156 -0.943594 0
M  V30 1080 H 101.523 4.00638 0.57194 0
M  V30 1081 H 100.093 2.99476 0.89628 0
M  V30 1082 H 99.3128 3.64419 -1.50308 0
M  V30 1083 H 100.601 4.86195 -1.49972 0
M  V30 1084 H 99.9988 5.41624 1.6328 0
M  V30 1085 H 98.5558 6.34067 1.51006 0
M  V30 1086 N 101.989 0.842826 1.3317 0
M  V30 1087 C 102.921 0.236245 2.27979 0
M  V30 1088 C 103.934 -0.585282 1.51915 0
M  V30 1089 O 105.123 -0.411705 1.73687 0
M  V30 1090 C 102.223 -0.685717 3.3189 0
M  V30 1091 C 101.396 0.0973448 4.37292 0
M  V30 1092 C 100.455 -0.748565 5.20848 0
M  V30 1093 O 99.4809 -0.186339 5.68895 0
M  V30 1094 N 100.683 -2.06527 5.42519 0
M  V30 1095 H 103.448 1.05088 2.80672 0
M  V30 1096 H 101.009 0.701667 1.45905 0
M  V30 1097 H 103.001 -1.25669 3.84694 0
M  V30 1098 H 101.571 -1.40105 2.79445 0
M  V30 1099 H 100.791 0.849706 3.84933 0
M  V30 1100 H 102.079 0.635643 5.04814 0
M  V30 1101 H 101.477 -2.54554 5.05192 0
M  V30 1102 H 100.034 -2.58464 5.98364 0
M  V30 1103 N 103.467 -1.45747 0.599634 0
M  V30 1104 C 104.399 -2.28628 -0.161879 0
M  V30 1105 C 105.412 -1.39494 -0.839367 0
M  V30 1106 O 106.601 -1.63941 -0.706089 0
M  V30 1107 C 103.701 -3.15014 -1.24976 0
M  V30 1108 C 102.874 -4.32378 -0.660935 0
M  V30 1109 C 101.933 -5.00033 -1.63869 0
M  V30 1110 O 100.959 -5.57085 -1.1681 0
M  V30 1111 N 102.161 -4.98589 -2.97303 0
M  V30 1112 H 104.926 -2.94624 0.549265 0
M  V30 1113 H 102.487 -1.55847 0.438565 0
M  V30 1114 H 104.479 -3.5714 -1.9035 0
M  V30 1115 H 103.049 -2.5098 -1.86354 0
M  V30 1116 H 102.269 -3.9383 0.170688 0
M  V30 1117 H 103.557 -5.08197 -0.247619 0
M  V30 1118 H 102.955 -4.53514 -3.38145 0
M  V30 1119 H 101.512 -5.44603 -3.58121 0
M  V30 1120 N 104.945 -0.338344 -1.53925 0
M  V30 1121 C 105.877 0.555117 -2.22376 0
M  V30 1122 C 106.89 1.06812 -1.22862 0
M  V30 1123 O 108.079 0.979163 -1.49247 0
M  V30 1124 C 105.179 1.77609 -2.88631 0
M  V30 1125 C 104.352 1.39927 -4.14414 0
M  V30 1126 C 103.411 2.47936 -4.64127 0
M  V30 1127 O 102.437 2.11461 -5.28463 0
M  V30 1128 N 103.639 3.79107 -4.39612 0
M  V30 1129 H 106.404 -0.0310778 -2.99684 0
M  V30 1130 H 103.965 -0.162226 -1.61085 0
M  V30 1131 H 105.957 2.49287 -3.18807 0
M  V30 1132 H 104.527 2.26978 -2.14941 0
M  V30 1133 H 103.747 0.513481 -3.90841 0
M  V30 1134 H 105.035 1.12341 -4.96243 0
M  V30 1135 H 104.433 4.11531 -3.88148 0
M  V30 1136 H 102.99 4.4697 -4.74406 0
M  V30 1137 N 106.423 1.57458 -0.0668435 0
M  V30 1138 C 107.355 2.09413 0.931601 0
M  V30 1139 C 108.368 1.02522 1.26464 0
M  V30 1140 O 109.557 1.30049 1.22269 0
M  V30 1141 C 106.657 2.53537 2.24882 0
M  V30 1142 C 105.83 3.83944 2.09537 0
M  V30 1143 C 104.889 4.14214 3.2452 0
M  V30 1144 O 103.915 4.83891 2.9973 0
M  V30 1145 N 105.117 3.67367 4.49469 0
M  V30 1146 H 107.882 2.95699 0.488048 0
M  V30 1147 H 105.443 1.61462 0.119009 0
M  V30 1148 H 107.435 2.70853 3.00701 0
M  V30 1149 H 106.005 1.72415 2.60753 0
M  V30 1150 H 105.225 3.76057 1.18215 0
M  V30 1151 H 106.513 4.69312 1.96529 0
M  V30 1152 H 105.911 3.11068 4.72497 0
M  V30 1153 H 104.468 3.89891 5.2233 0
M  V30 1154 N 107.901 -0.206675 1.56239 0
M  V30 1155 C 108.833 -1.27997 1.9013 0
M  V30 1156 C 109.846 -1.42299 0.790883 0
M  V30 1157 O 111.035 -1.42931 1.06925 0
M  V30 1158 C 108.135 -2.65368 2.10792 0
M  V30 1159 C 107.308 -2.72824 3.41886 0
M  V30 1160 C 106.367 -3.9131 3.51799 0
M  V30 1161 O 105.393 -3.78953 4.24716 0
M  V30 1162 N 106.595 -5.06265 2.84035 0
M  V30 1163 H 109.36 -0.992444 2.82791 0
M  V30 1164 H 106.921 -0.396652 1.56966 0
M  V30 1165 H 108.913 -3.43039 2.14724 0
M  V30 1166 H 107.483 -2.86657 1.24685 0
M  V30 1167 H 106.703 -1.81515 3.49923 0
M  V30 1168 H 107.991 -2.74786 4.28217 0
M  V30 1169 H 107.389 -5.19203 2.246 0
M  V30 1170 H 105.946 -5.81925 2.93609 0
M  V30 1171 N 109.379 -1.50304 -0.473955 0
M  V30 1172 C 110.311 -1.65109 -1.58971 0
M  V30 1173 C 111.324 -0.532676 -1.53839 0
M  V30 1174 O 112.513 -0.805751 -1.59279 0
M  V30 1175 C 109.613 -1.61684 -2.97845 0
M  V30 1176 C 108.786 -2.8951 -3.27876 0
M  V30 1177 C 107.845 -2.78768 -4.4629 0
M  V30 1178 O 106.871 -3.52722 -4.46739 0
M  V30 1179 N 108.073 -1.9213 -5.47783 0
M  V30 1180 H 110.838 -2.61347 -1.46689 0
M  V30 1181 H 108.399 -1.47732 -0.662324 0
M  V30 1182 H 110.391 -1.52114 -3.75024 0
M  V30 1183 H 108.961 -0.731925 -3.03911 0
M  V30 1184 H 108.181 -3.13228 -2.39336 0
M  V30 1185 H 109.469 -3.74199 -3.4475 0
M  V30 1186 H 108.867 -1.31353 -5.50239 0
M  V30 1187 H 107.424 -1.88466 -6.23958 0
M  V30 1188 N 110.857 0.726932 -1.39834 0
M  V30 1189 C 111.789 1.85147 -1.35104 0
M  V30 1190 C 112.802 1.60736 -0.258392 0
M  V30 1191 O 113.991 1.70821 -0.517931 0
M  V30 1192 C 111.091 3.21332 -1.07697 0
M  V30 1193 C 110.264 3.73033 -2.28396 0
M  V30 1194 C 109.323 4.87802 -1.97322 0
M  V30 1195 O 108.349 5.01043 -2.70083 0
M  V30 1196 N 109.551 5.72768 -0.944273 0
M  V30 1197 H 112.316 1.89706 -2.32017 0
M  V30 1198 H 109.877 0.908006 -1.3404 0
M  V30 1199 H 111.869 3.95691 -0.849144 0
M  V30 1200 H 110.439 3.11992 -0.194909 0
M  V30 1201 H 109.659 2.89934 -2.6708 0
M  V30 1202 H 110.947 4.0431 -3.08887 0
M  V30 1203 H 110.345 5.64669 -0.341427 0
M  V30 1204 H 108.902 6.4716 -0.776346 0
M  V30 1205 N 112.336 1.25143 0.95797 0
M  V30 1206 C 113.268 1.01023 2.05735 0
M  V30 1207 C 114.281 -0.0236902 1.62783 0
M  V30 1208 O 115.47 0.21448 1.77207 0
M  V30 1209 C 112.57 0.504595 3.35122 0
M  V30 1210 C 111.743 1.6039 4.06932 0
M  V30 1211 C 110.802 1.09922 5.14591 0
M  V30 1212 O 109.828 1.79293 5.40225 0
M  V30 1213 N 111.03 -0.0612545 5.80468 0
M  V30 1214 H 113.795 1.95683 2.26998 0
M  V30 1215 H 111.356 1.16303 1.12629 0
M  V30 1216 H 113.348 0.151516 4.04416 0
M  V30 1217 H 111.918 -0.347989 3.10657 0
M  V30 1218 H 111.138 2.12872 3.31782 0
M  V30 1219 H 112.426 2.34252 4.51667 0
M  V30 1220 H 111.824 -0.640985 5.62057 0
M  V30 1221 H 110.381 -0.355395 6.5083 0
M  V30 1222 N 113.814 -1.1601 1.06675 0
M  V30 1223 C 114.746 -2.20115 0.638921 0
M  V30 1224 C 115.759 -1.59916 -0.305057 0
M  V30 1225 O 116.948 -1.78245 -0.0954446 0
M  V30 1226 C 114.048 -3.38798 -0.0830083 0
M  V30 1227 C 113.221 -4.2855 0.875426 0
M  V30 1228 C 112.28 -5.25849 0.192042 0
M  V30 1229 O 111.306 -5.63102 0.830921 0
M  V30 1230 N 112.508 -5.70648 -1.06493 0
M  V30 1231 H 115.273 -2.57439 1.53444 0
M  V30 1232 H 112.834 -1.31057 0.950557 0
M  V30 1233 H 114.826 -4.00936 -0.550685 0
M  V30 1234 H 113.396 -2.99947 -0.880386 0
M  V30 1235 H 112.616 -3.63617 1.52238 0
M  V30 1236 H 113.904 -4.85393 1.52548 0
M  V30 1237 H 113.302 -5.42482 -1.60405 0
M  V30 1238 H 111.859 -6.34859 -1.47641 0
M  V30 1239 N 115.292 -0.849877 -1.32721 0
M  V30 1240 C 116.202 -0.293791 -2.32753 0
M  V30 1241 C 117.218 0.585906 -1.63839 0
M  V30 1242 O 118.394 0.487413 -1.95413 0
M  V30 1243 C 115.459 0.512752 -3.42887 0
M  V30 1244 C 114.52 -0.39252 -4.27502 0
M  V30 1245 C 113.753 0.375625 -5.32377 0
M  V30 1246 O 113.976 1.60613 -5.4732 0
M  V30 1247 O 112.91 -0.256094 -6.01355 0
M  V30 1248 H 116.736 -1.12242 -2.82197 0
M  V30 1249 H 114.321 -0.612685 -1.36259 0
M  V30 1250 H 116.203 0.970704 -4.10067 0
M  V30 1251 H 114.878 1.31826 -2.95641 0
M  V30 1252 H 113.785 -0.898547 -3.63149 0
M  V30 1253 H 115.118 -1.16309 -4.7826 0
M  V30 1254 N 116.77 1.45427 -0.607355 0
M  V30 1255 C 117.998 2.06614 -0.108814 0
M  V30 1256 C 118.413 1.45204 1.2067 0
M  V30 1257 O 117.77 0.566132 1.73497 0
M  V30 1258 C 117.821 3.61481 0.0375347 0
M  V30 1259 O 117.542 4.20598 -1.22593 0
M  V30 1260 C 119.043 4.39652 0.567561 0
M  V30 1261 H 116.263 0.66747 -0.0687351 0
M  V30 1262 H 118.807 1.86675 -0.835022 0
M  V30 1263 H 116.962 3.80762 0.714068 0
M  V30 1264 H 117.376 5.1377 -1.05547 0
M  V30 1265 H 118.85 5.48518 0.61905 0
M  V30 1266 H 119.327 4.09417 1.58978 0
M  V30 1267 H 119.933 4.25234 -0.0749202 0
M  V30 1268 N 118.248 0.346503 1.53744 0
M  V30 1269 C 119.473 -0.253074 2.0585 0
M  V30 1270 C 119.898 -1.43202 1.21962 0
M  V30 1271 O 119.256 -1.79783 0.234073 0
M  V30 1272 C 119.304 -0.643193 3.54817 0
M  V30 1273 O 118.408 -1.74286 3.73762 0
M  V30 1274 H 117.749 -0.0413583 0.662711 0
M  V30 1275 H 120.279 0.501574 1.98357 0
M  V30 1276 H 120.289 -0.919526 3.97503 0
M  V30 1277 H 118.964 0.218966 4.15323 0
M  V30 1278 H 117.541 -1.46356 3.42979 0
M  V30 1279 N 119.726 -1.57421 0.075193 0
M  V30 1280 C 121.137 -1.81021 -0.456964 0
M  V30 1281 C 121.488 -0.98936 -1.69429 0
M  V30 1282 O 120.613 -0.212865 -2.15351 0
M  V30 1283 C 121.208 -3.28329 -0.83581 0
M  V30 1284 C 119.767 -3.52764 -1.31281 0
M  V30 1285 C 118.914 -2.75676 -0.299648 0
M  V30 1286 H 121.865 -1.55822 0.300856 0
M  V30 1287 H 121.886 -3.40564 -1.69696 0
M  V30 1288 H 121.398 -3.88046 0.0649238 0
M  V30 1289 H 119.499 -2.98355 -2.23193 0
M  V30 1290 H 119.612 -4.61451 -1.28839 0
M  V30 1291 H 117.976 -2.42538 -0.777641 0
M  V30 1292 H 118.759 -3.38132 0.593417 0
M  V30 1293 N 121.204 0.198386 -1.56346 0
M  V30 1294 C 122.62 0.549085 -1.49857 0
M  V30 1295 C 122.82 1.86016 -0.774611 0
M  V30 1296 O 121.876 2.50416 -0.323776 0
M  V30 1297 C 123.189 0.606868 -2.94512 0
M  V30 1298 C 124.737 0.695925 -3.05165 0
M  V30 1299 C 125.212 0.784848 -4.51225 0
M  V30 1300 N 126.703 0.848463 -4.55363 0
M  V30 1301 C 127.438 0.937378 -5.65686 0
M  V30 1302 N 126.934 0.9888 -6.85707 0
M  V30 1303 N 128.727 0.974312 -5.53592 0
M  V30 1304 H 120.878 -0.661655 -2.01831 0
M  V30 1305 H 123.141 -0.235261 -0.918344 0
M  V30 1306 H 122.847 -0.28732 -3.50524 0
M  V30 1307 H 122.721 1.46268 -3.47686 0
M  V30 1308 H 125.108 1.58055 -2.49204 0
M  V30 1309 H 125.189 -0.186022 -2.55123 0
M  V30 1310 H 124.833 -0.0954072 -5.0781 0
M  V30 1311 H 124.763 1.68255 -4.98997 0
M  V30 1312 H 127.254 0.818103 -3.68938 0
M  V30 1313 H 127.567 1.05707 -7.65536 0
M  V30 1314 H 125.912 0.957534 -6.88372 0
M  V30 1315 H 129.103 0.930954 -4.58749 0
M  V30 1316 H 129.276 1.04015 -6.39597 0
M  V30 1317 N 122.682 1.50554 0.465978 0
M  V30 1318 C 123.614 1.65949 1.58093 0
M  V30 1319 C 124.627 0.540827 1.53554 0
M  V30 1320 O 125.816 0.814187 1.5885 0
M  V30 1321 C 122.916 1.63261 2.96983 0
M  V30 1322 C 122.089 2.91245 3.26336 0
M  V30 1323 C 121.148 2.8113 4.44806 0
M  V30 1324 O 120.174 3.55086 4.44862 0
M  V30 1325 N 121.376 1.95032 5.46756 0
M  V30 1326 H 124.141 2.62122 1.45301 0
M  V30 1327 H 121.702 1.48082 0.65448 0
M  V30 1328 H 123.694 1.54101 3.74212 0
M  V30 1329 H 122.264 0.748032 3.03518 0
M  V30 1330 H 121.484 3.14493 2.37672 0
M  V30 1331 H 122.772 3.76022 3.42761 0
M  V30 1332 H 122.17 1.3427 5.49534 0
M  V30 1333 H 120.727 1.91772 6.2295 0
M  V30 1334 N 124.16 -0.719506 1.40217 0
M  V30 1335 C 125.092 -1.84428 1.36084 0
M  V30 1336 C 126.105 -1.60597 0.266913 0
M  V30 1337 O 127.294 -1.70544 0.526983 0
M  V30 1338 C 124.394 -3.20757 1.094 0
M  V30 1339 C 123.567 -3.71817 2.30372 0
M  V30 1340 C 122.626 -4.86748 1.99907 0
M  V30 1341 O 121.652 -4.99603 2.72737 0
M  V30 1342 N 122.854 -5.7226 0.974635 0
M  V30 1343 H 125.619 -1.88473 2.33019 0
M  V30 1344 H 123.18 -0.900885 1.3452 0
M  V30 1345 H 125.172 -3.95235 0.870116 0
M  V30 1346 H 123.742 -3.11884 0.211452 0
M  V30 1347 H 122.962 -2.88514 2.68614 0
M  V30 1348 H 124.25 -4.02666 3.11026 0
M  V30 1349 H 123.648 -5.6448 0.371368 0
M  V30 1350 H 122.205 -6.46739 0.810656 0
M  V30 1351 N 125.638 -1.25649 -0.95132 0
M  V30 1352 C 126.57 -1.02112 -2.05197 0
M  V30 1353 C 127.583 0.0150571 -1.62793 0
M  V30 1354 O 128.772 -0.223874 -1.77091 0
M  V30 1355 C 125.872 -0.522361 -3.3485 0
M  V30 1356 C 125.045 -1.62546 -4.06076 0
M  V30 1357 C 124.104 -1.12649 -5.14001 0
M  V30 1358 O 123.13 -1.82156 -5.39266 0
M  V30 1359 N 124.332 0.03047 -5.80492 0
M  V30 1360 H 127.097 -1.96885 -2.25957 0
M  V30 1361 H 124.658 -1.16899 -1.1201 0
M  V30 1362 H 126.65 -0.172961 -4.0433 0
M  V30 1363 H 125.22 0.33151 -3.10837 0
M  V30 1364 H 124.44 -2.14628 -3.30649 0
M  V30 1365 H 125.728 -2.36644 -4.50419 0
M  V30 1366 H 125.126 0.611169 -5.62389 0
M  V30 1367 H 123.683 0.320875 -6.5101 0
M  V30 1368 N 127.117 1.15442 -1.07289 0
M  V30 1369 C 128.049 2.19773 -0.650585 0
M  V30 1370 C 129.062 1.60076 0.296572 0
M  V30 1371 O 130.251 1.78293 0.0859905 0
M  V30 1372 C 127.351 3.38838 0.0650398 0
M  V30 1373 C 126.524 4.2808 -0.898141 0
M  V30 1374 C 125.583 5.2574 -0.219926 0
M  V30 1375 O 124.609 5.62654 -0.860773 0
M  V30 1376 N 125.811 5.71205 1.03466 0
M  V30 1377 H 128.576 2.56622 -1.54808 0
M  V30 1378 H 126.137 1.30551 -0.957494 0
M  V30 1379 H 128.129 4.01222 0.529415 0
M  V30 1380 H 126.699 3.00409 0.864466 0
M  V30 1381 H 125.919 3.62804 -1.54165 0
M  V30 1382 H 127.207 4.84577 -1.5512 0
M  V30 1383 H 126.605 5.43325 1.57526 0
M  V30 1384 H 125.162 6.35633 1.44272 0
M  V30 1385 N 128.595 0.856903 1.32268 0
M  V30 1386 C 129.527 0.260412 2.27716 0
M  V30 1387 C 130.54 -0.569137 1.52528 0
M  V30 1388 O 131.729 -0.39326 1.74114 0
M  V30 1389 C 128.829 -0.650477 3.32599 0
M  V30 1390 C 128.002 0.14372 4.37164 0
M  V30 1391 C 127.061 -0.69328 5.21613 0
M  V30 1392 O 126.087 -0.12599 5.69061 0
M  V30 1393 N 127.289 -2.00761 5.44679 0
M  V30 1394 H 130.054 1.08059 2.79541 0
M  V30 1395 H 127.615 0.717103 1.45152 0
M  V30 1396 H 129.607 -1.21581 3.86005 0
M  V30 1397 H 128.177 -1.37133 2.80915 0
M  V30 1398 H 127.397 0.890486 3.8401 0
M  V30 1399 H 128.685 0.68915 5.04111 0
M  V30 1400 H 128.083 -2.49181 5.07863 0
M  V30 1401 H 126.64 -2.52103 6.01072 0
M  V30 1402 N 130.073 -1.45103 0.615059 0
M  V30 1403 C 131.005 -2.28786 -0.13762 0
M  V30 1404 C 132.018 -1.40376 -0.824525 0
M  V30 1405 O 133.207 -1.64681 -0.688662 0
M  V30 1406 C 130.307 -3.16322 -1.21628 0
M  V30 1407 C 129.48 -4.33054 -0.615039 0
M  V30 1408 C 128.539 -5.01743 -1.58556 0
M  V30 1409 O 127.565 -5.58293 -1.10895 0
M  V30 1410 N 128.767 -5.01714 -2.91998 0
M  V30 1411 H 131.532 -2.94025 0.580483 0
M  V30 1412 H 129.093 -1.55373 0.45507 0
M  V30 1413 H 131.085 -3.59139 -1.86552 0
M  V30 1414 H 129.655 -2.52943 -1.83681 0
M  V30 1415 H 128.875 -3.93627 0.21245 0
M  V30 1416 H 130.163 -5.08431 -0.193704 0
M  V30 1417 H 129.561 -4.57075 -3.33316 0
M  V30 1418 H 128.118 -5.48371 -3.52325 0
M  V30 1419 N 131.551 -0.354651 -1.53558 0
M  V30 1420 C 132.799 0.237972 -2.00694 0
M  V30 1421 C 133.12 1.50173 -1.24391 0
M  V30 1422 O 132.39 1.92673 -0.354135 0
M  V30 1423 H 130.97 0.0909256 -0.741446 0
M  V30 1424 H 133.632 -0.478368 -1.88938 0
M  V30 1425 H 132.728 0.47264 -3.085 0
M  V30 1426 N 133.029 1.57378 -0.0835403 0
M  V30 1427 C 133.939 2.16897 0.894021 0
M  V30 1428 C 134.955 1.13528 1.31861 0
M  V30 1429 O 136.131 1.45848 1.3889 0
M  V30 1430 C 133.196 2.72831 2.13925 0
M  V30 1431 C 132.257 3.91115 1.76997 0
M  V30 1432 C 131.49 4.44371 2.95584 0
M  V30 1433 O 131.713 3.96596 4.09961 0
M  V30 1434 O 130.647 5.35549 2.74719 0
M  V30 1435 H 134.473 3.00814 0.417679 0
M  V30 1436 H 132.058 1.48741 0.140181 0
M  V30 1437 H 133.94 3.0863 2.86924 0
M  V30 1438 H 132.615 1.91967 2.60635 0
M  V30 1439 H 131.522 3.60148 1.01214 0
M  V30 1440 H 132.855 4.73307 1.3506 0
M  V30 1441 N 134.507 -0.190092 1.56449 0
M  V30 1442 C 135.784 -0.935886 1.71757 0
M  V30 1443 C 136.164 -2.01173 0.639726 0
M  V30 1444 O 135.512 -2.25827 -0.348502 0
M  V30 1445 C 135.722 -1.51775 3.1427 0
M  V30 1446 C 137.07 -1.99794 3.74656 0
M  V30 1447 O 138.094 -1.61607 3.1743 0
M  V30 1448 O 136.953 -2.70079 4.751 0
M  V30 1449 H 134.047 -0.439229 0.700719 0
M  V30 1450 H 136.593 -0.179395 1.68749 0
M  V30 1451 H 135.365 -0.742505 3.84191 0
M  V30 1452 H 134.988 -2.33894 3.21527 0
M  V30 1453 N 135.985 -1.50799 -0.457987 0
M  V30 1454 C 137.233 -1.62121 -1.2067 0
M  V30 1455 C 137.554 -0.329793 -1.92191 0
M  V30 1456 O 136.824 0.653409 -1.84682 0
M  V30 1457 H 135.404 -0.597441 -0.448411 0
M  V30 1458 H 138.066 -1.87637 -0.527096 0
M  V30 1459 H 137.162 -2.43882 -1.94751 0
M  V30 1460 N 137.463 0.71206 -1.40597 0
M  V30 1461 C 138.688 1.50617 -1.42581 0
M  V30 1462 C 139.113 1.88079 -0.0282102 0
M  V30 1463 O 138.471 1.53511 0.964579 0
M  V30 1464 C 138.519 2.7557 -2.3258 0
M  V30 1465 O 137.623 3.72414 -1.77148 0
M  V30 1466 H 136.964 0.453966 -0.484573 0
M  V30 1467 H 139.494 0.876649 -1.84868 0
M  V30 1468 H 139.504 3.2406 -2.47889 0
M  V30 1469 H 138.179 2.47639 -3.34138 0
M  V30 1470 H 136.756 3.31276 -1.71204 0
M  V30 1471 N 138.941 1.26152 0.944643 0
M  V30 1472 C 140.352 1.10454 1.50522 0
M  V30 1473 C 140.703 -0.31635 1.93633 0
M  V30 1474 O 139.828 -1.20746 1.79581 0
M  V30 1475 C 140.423 1.99891 2.73549 0
M  V30 1476 C 138.982 1.88348 3.25886 0
M  V30 1477 C 138.129 1.93447 1.9868 0
M  V30 1478 H 141.08 1.39292 0.760489 0
M  V30 1479 H 141.101 1.54477 3.47732 0
M  V30 1480 H 140.613 3.03297 2.42141 0
M  V30 1481 H 138.714 0.878636 3.62092 0
M  V30 1482 H 138.827 2.73696 3.93227 0
M  V30 1483 H 137.191 1.37456 2.14425 0
M  V30 1484 H 137.974 2.98476 1.69607 0
M  V30 1485 N 140.419 -1.14872 1.07899 0
M  V30 1486 C 141.351 -2.19425 0.662231 0
M  V30 1487 C 142.364 -1.60231 -0.288079 0
M  V30 1488 O 143.553 -1.78336 -0.076534 0
M  V30 1489 C 140.653 -3.38867 -0.0470695 0
M  V30 1490 C 139.826 -4.27597 0.920831 0
M  V30 1491 C 138.885 -5.25616 0.247805 0
M  V30 1492 O 137.911 -5.62189 0.890599 0
M  V30 1493 N 139.113 -5.71746 -1.00435 0
M  V30 1494 H 141.878 -2.55797 1.56166 0
M  V30 1495 H 139.439 -1.30042 0.964404 0
M  V30 1496 H 141.431 -4.01497 -0.50813 0
M  V30 1497 H 140.001 -3.00864 -0.848523 0
M  V30 1498 H 139.221 -3.61982 1.56087 0
M  V30 1499 H 140.509 -4.83748 1.57688 0
M  V30 1500 H 139.907 -5.44153 -1.54642 0
M  V30 1501 H 138.464 -6.36389 -1.40899 0
M  V30 1502 N 141.898 -0.863906 -1.31812 0
M  V30 1503 C 142.861 -0.320212 -2.26952 0
M  V30 1504 C 143.861 0.525369 -1.51975 0
M  V30 1505 O 145.051 0.335547 -1.70938 0
M  V30 1506 C 142.183 0.545919 -3.365 0
M  V30 1507 H 143.376 -1.16004 -2.76556 0
M  V30 1508 H 140.929 -0.638995 -1.42641 0
M  V30 1509 H 141.664 1.40718 -2.92179 0
M  V30 1510 H 141.449 -0.0594674 -3.92055 0
M  V30 1511 H 142.939 0.918796 -4.07367 0
M  V30 1512 N 143.376 1.44774 -0.622745 0
M  V30 1513 C 144.326 2.2774 0.108889 0
M  V30 1514 C 145.31 1.38189 0.824175 0
M  V30 1515 O 146.502 1.62063 0.711664 0
M  V30 1516 C 143.631 3.25353 1.09546 0
M  V30 1517 C 142.717 4.22392 0.380232 0
M  V30 1518 N 143.108 5.02388 -0.586535 0
M  V30 1519 C 141.406 4.41588 0.625792 0
M  V30 1520 C 142.107 5.72894 -1.00834 0
M  V30 1521 N 141.083 5.42479 -0.348878 0
M  V30 1522 H 144.885 2.86993 -0.63341 0
M  V30 1523 H 142.399 1.5611 -0.447589 0
M  V30 1524 H 144.396 3.83538 1.63414 0
M  V30 1525 H 143.056 2.6766 1.83815 0
M  V30 1526 H 144.067 5.0885 -0.963975 0
M  V30 1527 H 140.744 3.95003 1.352 0
M  V30 1528 H 142.134 6.47158 -1.80656 0
M  V30 1529 N 144.854 0.36279 1.53368 0
M  V30 1530 C 146.27 0.0116182 1.59596 0
M  V30 1531 C 146.47 -1.47012 1.37803 0
M  V30 1532 O 145.526 -2.23136 1.18181 0
M  V30 1533 C 146.839 0.465052 2.97082 0
M  V30 1534 C 148.387 0.419033 3.10182 0
M  V30 1535 C 148.862 0.848235 4.50077 0
M  V30 1536 N 150.353 0.803183 4.56183 0
M  V30 1537 C 151.088 1.107 5.62613 0
M  V30 1538 N 150.584 1.47996 6.76808 0
M  V30 1539 N 152.377 1.02998 5.52583 0
M  V30 1540 H 144.528 1.32775 1.65785 0
M  V30 1541 H 146.791 0.542518 0.777417 0
M  V30 1542 H 146.497 1.49892 3.18159 0
M  V30 1543 H 146.371 -0.149786 3.76902 0
M  V30 1544 H 148.758 -0.605696 2.88817 0
M  V30 1545 H 148.839 1.06933 2.32377 0
M  V30 1546 H 148.483 1.87107 4.7218 0
M  V30 1547 H 148.413 0.175218 5.26308 0
M  V30 1548 H 150.904 0.52838 3.74188 0
M  V30 1549 H 151.217 1.69613 7.53957 0
M  V30 1550 H 149.562 1.51859 6.78206 0
M  V30 1551 H 152.753 0.737817 4.62249 0
M  V30 1552 H 152.926 1.2701 6.35431 0
M  V30 1553 N 146.332 -1.57332 0.0918853 0
M  V30 1554 C 147.748 -1.57389 -0.264766 0
M  V30 1555 C 147.948 -1.10281 -1.68643 0
M  V30 1556 O 147.004 -0.777801 -2.40222 0
M  V30 1557 C 148.317 -3.00648 -0.0561195 0
M  V30 1558 C 149.865 -3.12754 -0.124116 0
M  V30 1559 C 150.34 -4.57965 0.0564972 0
M  V30 1560 N 151.831 -4.632 0.00155611 0
M  V30 1561 C 152.566 -5.73281 0.116598 0
M  V30 1562 N 152.062 -6.92208 0.286294 0
M  V30 1563 N 153.855 -5.6207 0.0580973 0
M  V30 1564 H 146.006 -1.86262 1.02079 0
M  V30 1565 H 148.269 -0.859579 0.399786 0
M  V30 1566 H 147.975 -3.393 0.925669 0
M  V30 1567 H 147.849 -3.68623 -0.799823 0
M  V30 1568 H 150.236 -2.73976 -1.09641 0
M  V30 1569 H 150.317 -2.47377 0.651024 0
M  V30 1570 H 149.961 -4.97436 1.02564 0
M  V30 1571 H 149.891 -5.21399 -0.738297 0
M  V30 1572 H 152.382 -3.77686 -0.127192 0
M  V30 1573 H 152.695 -7.71934 0.365676 0
M  V30 1574 H 151.04 -6.94254 0.32192 0
M  V30 1575 H 154.231 -4.68043 -0.0733204 0
M  V30 1576 H 154.404 -6.47824 0.151203 0
M  V30 1577 N 147.81 0.181792 -1.56548 0
M  V30 1578 C 149.058 0.89832 -1.81038 0
M  V30 1579 C 149.379 1.83232 -0.667164 0
M  V30 1580 O 148.649 1.93372 0.313673 0
M  V30 1581 H 147.229 0.33471 -0.667816 0
M  V30 1582 H 149.891 0.184116 -1.94028 0
M  V30 1583 H 148.987 1.4815 -2.74696 0
M  V30 1584 N 149.288 1.51039 0.449983 0
M  V30 1585 C 150.699 1.557 1.03026 0
M  V30 1586 C 151.05 0.372939 1.92623 0
M  V30 1587 O 150.175 -0.511771 2.10261 0
M  V30 1588 C 150.77 2.82171 1.87523 0
M  V30 1589 C 149.329 2.89444 2.40622 0
M  V30 1590 C 148.476 2.50228 1.19504 0
M  V30 1591 H 151.427 1.56999 0.231745 0
M  V30 1592 H 151.448 2.65219 2.72835 0
M  V30 1593 H 150.96 3.68331 1.22286 0
M  V30 1594 H 149.061 2.07685 3.0935 0
M  V30 1595 H 149.174 3.92816 2.74285 0
M  V30 1596 H 147.538 2.03139 1.53644 0
M  V30 1597 H 148.321 3.38719 0.558972 0
M  V30 1598 N 150.766 -0.704594 1.40972 0
M  V30 1599 C 151.994 -1.49354 1.43182 0
M  V30 1600 C 152.409 -1.88768 0.0345508 0
M  V30 1601 O 151.766 -1.56184 -0.944081 0
M  V30 1602 C 151.817 -2.76187 2.33244 0
M  V30 1603 O 151.538 -2.38436 3.67532 0
M  V30 1604 C 153.039 -3.7 2.44162 0
M  V30 1605 H 150.259 -0.460559 0.487982 0
M  V30 1606 H 152.803 -0.868261 1.85153 0
M  V30 1607 H 150.958 -3.34974 1.94606 0
M  V30 1608 H 151.372 -3.20126 4.15475 0
M  V30 1609 H 152.846 -4.55803 3.11364 0
M  V30 1610 H 153.323 -4.13867 1.47006 0
M  V30 1611 H 153.929 -3.17121 2.83398 0
M  V30 1612 N 152.244 -1.26651 -0.937939 0
M  V30 1613 C 153.492 -1.12165 -1.68118 0
M  V30 1614 C 153.813 0.334983 -1.92101 0
M  V30 1615 O 153.083 1.23583 -1.52 0
M  V30 1616 H 151.663 -0.412093 -0.623048 0
M  V30 1617 H 154.325 -1.59027 -1.12678 0
M  V30 1618 H 153.421 -1.64289 -2.6536 0
M  V30 1619 N 153.722 1.14298 -1.08507 0
M  V30 1620 C 154.952 1.88945 -0.835663 0
M  V30 1621 C 155.36 1.78894 0.615928 0
M  V30 1622 O 154.703 1.1468 1.43506 0
M  V30 1623 C 154.765 3.39585 -1.17994 0
M  V30 1624 C 154.429 3.7342 -2.63451 0
M  V30 1625 C 155.426 3.73454 -3.61702 0
M  V30 1626 C 153.111 4.03368 -2.99332 0
M  V30 1627 C 155.105 4.02961 -4.93864 0
M  V30 1628 C 152.792 4.32538 -4.31687 0
M  V30 1629 C 153.79 4.32318 -5.28763 0
M  V30 1630 O 153.478 4.6078 -6.58739 0
M  V30 1631 H 153.21 0.605307 -0.300965 0
M  V30 1632 H 155.764 1.45673 -1.44806 0
M  V30 1633 H 153.994 3.83315 -0.51055 0
M  V30 1634 H 155.683 3.9554 -0.911182 0
M  V30 1635 H 156.449 3.50403 -3.35325 0
M  V30 1636 H 152.328 4.02692 -2.24411 0
M  V30 1637 H 155.872 4.02704 -5.69627 0
M  V30 1638 H 151.769 4.55059 -4.57812 0
M  V30 1639 H 152.537 4.78492 -6.64069 0
M  V30 1640 N 155.201 0.870884 1.31352 0
M  V30 1641 C 156.131 0.343096 2.30966 0
M  V30 1642 C 157.112 -0.566507 1.60389 0
M  V30 1643 O 158.297 -0.483336 1.88089 0
M  V30 1644 C 155.427 -0.455487 3.443 0
M  V30 1645 C 154.381 0.361103 4.26474 0
M  V30 1646 C 153.707 -0.563221 5.31725 0
M  V30 1647 C 155.007 1.59566 4.97329 0
M  V30 1648 H 156.701 1.17548 2.75359 0
M  V30 1649 H 154.247 0.566686 1.32381 0
M  V30 1650 H 156.2 -0.83525 4.13039 0
M  V30 1651 H 154.924 -1.32139 2.98675 0
M  V30 1652 H 153.583 0.722825 3.59403 0
M  V30 1653 H 153.231 -1.42643 4.82351 0
M  V30 1654 H 152.931 -0.0207409 5.87596 0
M  V30 1655 H 154.455 -0.939808 6.03324 0
M  V30 1656 H 155.869 1.28728 5.58661 0
M  V30 1657 H 154.266 2.07728 5.63 0
M  V30 1658 H 155.336 2.34798 4.24262 0
M  V30 1659 N 156.679 -1.44442 0.630414 0
M  V30 1660 C 157.925 -2.02351 0.134816 0
M  V30 1661 C 158.258 -1.4947 -1.23986 0
M  V30 1662 O 157.533 -0.678475 -1.82283 0
M  V30 1663 C 157.816 -3.59898 0.120707 0
M  V30 1664 C 157.669 -4.23063 1.52767 0
M  V30 1665 C 158.988 -4.36585 -0.555127 0
M  V30 1666 H 156.107 -0.73527 0.0504646 0
M  V30 1667 H 158.749 -1.72022 0.806751 0
M  V30 1668 H 156.899 -3.85868 -0.451477 0
M  V30 1669 H 158.571 -4.08202 2.14869 0
M  V30 1670 H 156.814 -3.80586 2.08175 0
M  V30 1671 H 157.485 -5.32071 1.46984 0
M  V30 1672 H 159.961 -4.16044 -0.0685429 0
M  V30 1673 H 158.837 -5.46294 -0.534185 0
M  V30 1674 H 159.098 -4.11138 -1.62535 0
M  V30 1675 N 158.157 -0.370918 -1.53173 0
M  V30 1676 C 159.087 0.464847 -2.28826 0
M  V30 1677 C 160.068 1.07936 -1.31468 0
M  V30 1678 O 161.253 1.0956 -1.60344 0
M  V30 1679 C 158.383 1.60196 -3.08147 0
M  V30 1680 C 157.337 1.11443 -4.13237 0
M  V30 1681 C 156.663 2.3422 -4.80672 0
M  V30 1682 C 157.963 0.195384 -5.21934 0
M  V30 1683 H 159.657 -0.166329 -2.98938 0
M  V30 1684 H 157.203 -0.0814359 -1.4377 0
M  V30 1685 H 159.156 2.19332 -3.59822 0
M  V30 1686 H 157.88 2.26045 -2.35735 0
M  V30 1687 H 156.539 0.545727 -3.62515 0
M  V30 1688 H 156.187 2.98537 -4.04827 0
M  V30 1689 H 155.887 2.02269 -5.51689 0
M  V30 1690 H 157.411 2.94032 -5.35143 0
M  V30 1691 H 158.825 0.694375 -5.69079 0
M  V30 1692 H 157.222 -0.0335027 -6.00091 0
M  V30 1693 H 158.292 -0.760961 -4.78892 0
M  V30 1694 N 159.635 1.57281 -0.100228 0
M  V30 1695 C 160.912 1.86014 0.604812 0
M  V30 1696 C 161.292 0.998025 1.86018 0
M  V30 1697 O 160.64 0.0718184 2.28387 0
M  V30 1698 C 160.85 3.36784 0.915278 0
M  V30 1699 C 162.198 4.04957 1.27651 0
M  V30 1700 O 163.222 3.41695 1.00613 0
M  V30 1701 O 162.081 5.16593 1.7831 0
M  V30 1702 H 159.175 0.76942 0.303185 0
M  V30 1703 H 161.721 1.69176 -0.133313 0
M  V30 1704 H 160.493 3.91292 0.0248896 0
M  V30 1705 H 160.116 3.58987 1.70921 0
M  V30 1706 N 161.113 -0.173488 1.56642 0
M  V30 1707 C 162.023 -1.23482 1.99473 0
M  V30 1708 C 163.039 -1.48567 0.905752 0
M  V30 1709 O 164.215 -1.60758 1.21321 0
M  V30 1710 C 161.28 -2.55444 2.34413 0
M  V30 1711 C 160.341 -2.38241 3.57127 0
M  V30 1712 C 159.574 -3.63909 3.90392 0
M  V30 1713 O 159.797 -4.68996 3.24653 0
M  V30 1714 O 158.731 -3.58149 4.83749 0
M  V30 1715 H 162.557 -0.901279 2.90018 0
M  V30 1716 H 160.142 -0.380185 1.44482 0
M  V30 1717 H 162.024 -3.33292 2.57865 0
M  V30 1718 H 160.699 -2.88382 1.4703 0
M  V30 1719 H 159.606 -1.58431 3.38896 0
M  V30 1720 H 160.939 -2.10228 4.45045 0
M  V30 1721 N 162.591 -1.51276 -0.441967 0
M  V30 1722 C 163.501 -1.75092 -1.56141 0
M  V30 1723 C 164.517 -0.634963 -1.62001 0
M  V30 1724 O 165.693 -0.916686 -1.79329 0
M  V30 1725 C 162.758 -1.86666 -2.92158 0
M  V30 1726 C 161.819 -3.10506 -2.96453 0
M  V30 1727 C 161.052 -3.21519 -4.25982 0
M  V30 1728 O 161.275 -2.38586 -5.18105 0
M  V30 1729 O 160.209 -4.14465 -4.36466 0
M  V30 1730 H 164.035 -2.70044 -1.38961 0
M  V30 1731 H 161.62 -1.35722 -0.624499 0
M  V30 1732 H 163.502 -1.96292 -3.72891 0
M  V30 1733 H 162.177 -0.949014 -3.09476 0
M  V30 1734 H 161.084 -3.06363 -2.14692 0
M  V30 1735 H 162.417 -4.01945 -2.84079 0
M  V30 1736 N 164.069 0.697108 -1.41344 0
M  V30 1737 C 165.001 1.8224 -1.39001 0
M  V30 1738 C 166.014 1.60152 -0.292428 0
M  V30 1739 O 167.203 1.69684 -0.554048 0
M  V30 1740 C 164.303 3.18976 -1.14489 0
M  V30 1741 C 163.476 3.68105 -2.36258 0
M  V30 1742 C 162.535 4.83506 -2.07625 0
M  V30 1743 O 161.561 4.95201 -2.8065 0
M  V30 1744 N 162.763 5.70637 -1.06555 0
M  V30 1745 H 165.528 1.84742 -2.35988 0
M  V30 1746 H 163.089 0.87937 -1.35936 0
M  V30 1747 H 165.081 3.93801 -0.932885 0
M  V30 1748 H 163.651 3.11508 -0.261043 0
M  V30 1749 H 162.871 2.84204 -2.7317 0
M  V30 1750 H 164.159 3.97667 -3.17393 0
M  V30 1751 H 163.557 5.63817 -0.461125 0
M  V30 1752 H 162.114 6.45368 -0.913444 0
M  V30 1753 N 165.547 1.27147 0.931209 0
M  V30 1754 C 166.479 1.05364 2.03546 0
M  V30 1755 C 167.492 0.0108438 1.62796 0
M  V30 1756 O 168.681 0.25202 1.76712 0
M  V30 1757 C 165.781 0.575566 3.33977 0
M  V30 1758 C 164.954 1.68985 4.03439 0
M  V30 1759 C 164.013 1.20813 5.12143 0
M  V30 1760 O 163.039 1.90712 5.363 0
M  V30 1761 N 164.241 0.0618851 5.80467 0
M  V30 1762 H 167.006 2.00454 2.22796 0
M  V30 1763 H 164.567 1.18666 1.10136 0
M  V30 1764 H 166.559 0.237264 4.04004 0
M  V30 1765 H 165.129 -0.282016 3.11325 0
M  V30 1766 H 164.349 2.19861 3.27192 0
M  V30 1767 H 165.637 2.4378 4.46597 0
M  V30 1768 H 165.035 -0.521621 5.6329 0
M  V30 1769 H 163.592 -0.217264 6.51438 0
M  V30 1770 N 167.025 -1.13721 1.09112 0
M  V30 1771 C 168.436 -1.6648 0.845068 0
M  V30 1772 C 168.787 -1.85911 -0.62701 0
M  V30 1773 O 167.912 -1.57556 -1.48341 0
M  V30 1774 C 168.507 -3.02413 1.52748 0
M  V30 1775 C 167.066 -3.52176 1.32849 0
M  V30 1776 C 166.213 -2.27492 1.58564 0
M  V30 1777 H 169.164 -0.976872 1.25072 0
M  V30 1778 H 169.185 -3.68223 0.958752 0
M  V30 1779 H 168.697 -2.88238 2.59885 0
M  V30 1780 H 166.798 -3.7156 0.278137 0
M  V30 1781 H 166.911 -4.32499 2.0611 0
M  V30 1782 H 165.275 -2.33923 1.00758 0
M  V30 1783 H 166.058 -2.15886 2.66924 0
M  V30 1784 N 168.503 -0.877838 -1.30888 0
M  V30 1785 C 169.728 -0.506629 -2.01117 0
M  V30 1786 C 170.153 0.895564 -1.65412 0
M  V30 1787 O 169.511 1.5923 -0.866922 0
M  V30 1788 C 169.559 -0.680223 -3.54126 0
M  V30 1789 O 168.663 0.277033 -4.11468 0
M  V30 1790 H 168.004 -0.200518 -0.633 0
M  V30 1791 H 170.534 -1.18342 -1.66902 0
M  V30 1792 H 170.544 -0.5765 -4.03907 0
M  V30 1793 H 169.219 -1.70261 -3.79452 0
M  V30 1794 H 167.796 0.127606 -3.72682 0
M  V30 1795 N 169.982 1.44106 -0.638065 0
M  V30 1796 C 170.914 2.28976 0.101205 0
M  V30 1797 C 171.927 1.4167 0.802088 0
M  V30 1798 O 173.116 1.65755 0.662375 0
M  V30 1799 C 170.216 3.18217 1.16581 0
M  V30 1800 C 169.389 4.33978 0.546066 0
M  V30 1801 C 168.448 5.04202 1.50554 0
M  V30 1802 O 167.474 5.59986 1.01999 0
M  V30 1803 N 168.676 5.06296 2.8398 0
M  V30 1804 H 171.441 2.93064 -0.627186 0
M  V30 1805 H 169.002 1.54629 -0.479731 0
M  V30 1806 H 170.994 3.62061 1.80815 0
M  V30 1807 H 169.564 2.55833 1.79634 0
M  V30 1808 H 168.784 3.93239 -0.275046 0
M  V30 1809 H 170.072 5.08675 0.112793 0
M  V30 1810 H 169.47 4.62319 3.26002 0
M  V30 1811 H 168.027 5.53907 3.43556 0
M  V30 1812 N 171.46 0.379036 1.52974 0
M  V30 1813 C 172.871 -0.0972525 1.86447 0
M  V30 1814 C 173.222 -1.47027 1.29914 0
M  V30 1815 O 172.347 -2.07135 0.626433 0
M  V30 1816 C 172.942 -0.183248 3.38304 0
M  V30 1817 C 171.501 -0.603812 3.71525 0
M  V30 1818 C 170.648 0.240632 2.76254 0
M  V30 1819 H 173.599 0.597316 1.4703 0
M  V30 1820 H 173.62 -1.00432 3.67006 0
M  V30 1821 H 173.132 0.816191 3.79421 0
M  V30 1822 H 171.233 -1.61099 3.35973 0
M  V30 1823 H 171.346 -0.369086 4.77676 0
M  V30 1824 H 169.71 -0.292548 2.53014 0
M  V30 1825 H 170.493 1.23786 3.20206 0
M  V30 1826 N 172.938 -1.57226 0.108567 0
M  V30 1827 C 173.87 -2.11809 -0.875752 0
M  V30 1828 C 174.883 -1.05839 -1.23701 0
M  V30 1829 O 176.072 -1.33245 -1.18778 0
M  V30 1830 C 173.172 -2.59411 -2.18081 0
M  V30 1831 C 172.345 -3.89364 -1.99284 0
M  V30 1832 C 171.404 -4.22672 -3.13424 0
M  V30 1833 O 170.43 -4.91668 -2.86795 0
M  V30 1834 N 171.632 -3.79154 -4.3957 0
M  V30 1835 H 174.397 -2.9689 -0.409477 0
M  V30 1836 H 171.958 -1.61721 -0.076158 0
M  V30 1837 H 173.95 -2.7873 -2.93414 0
M  V30 1838 H 172.52 -1.79268 -2.5609 0
M  V30 1839 H 171.74 -3.79059 -1.08203 0
M  V30 1840 H 173.028 -4.74358 -1.84017 0
M  V30 1841 H 172.426 -3.23486 -4.64083 0
M  V30 1842 H 170.983 -4.03602 -5.11809 0
M  V30 1843 N 174.416 0.165178 -1.56732 0
M  V30 1844 C 175.641 0.900253 -1.86843 0
M  V30 1845 C 176.066 1.74766 -0.695596 0
M  V30 1846 O 175.424 1.77786 0.35522 0
M  V30 1847 C 175.472 1.74777 -3.15413 0
M  V30 1848 O 174.576 2.85007 -2.98068 0
M  V30 1849 H 173.917 0.251832 -0.614391 0
M  V30 1850 H 176.447 0.161468 -2.03962 0
M  V30 1851 H 176.457 2.14646 -3.46974 0
M  V30 1852 H 175.132 1.12537 -4.00385 0
M  V30 1853 H 173.709 2.48676 -2.77875 0
M  V30 1854 N 175.894 1.51508 0.433938 0
M  V30 1855 C 176.857 1.72473 1.50949 0
M  V30 1856 C 177.857 0.594725 1.49398 0
M  V30 1857 O 179.047 0.862315 1.5136 0
M  V30 1858 C 176.179 1.78431 2.90474 0
M  V30 1859 H 177.372 2.68467 1.33662 0
M  V30 1860 H 174.925 1.41549 0.662836 0
M  V30 1861 H 175.66 0.842645 3.13161 0
M  V30 1862 H 175.445 2.60558 2.93005 0
M  V30 1863 H 176.935 1.96479 3.68491 0
M  V30 1864 N 177.372 -0.689602 1.41712 0
M  V30 1865 C 178.302 -1.81577 1.46806 0
M  V30 1866 C 179.283 -1.66945 0.326105 0
M  V30 1867 O 180.468 -1.86588 0.538377 0
M  V30 1868 C 177.598 -3.19762 1.35535 0
M  V30 1869 C 176.552 -3.49107 2.47605 0
M  V30 1870 C 175.878 -4.86711 2.21397 0
M  V30 1871 C 177.178 -3.47483 3.89939 0
M  V30 1872 H 178.872 -1.7757 2.41058 0
M  V30 1873 H 176.418 -0.852887 1.16025 0
M  V30 1874 H 178.371 -3.98263 1.3771 0
M  V30 1875 H 177.095 -3.24409 0.377708 0
M  V30 1876 H 175.754 -2.72959 2.44722 0
M  V30 1877 H 175.402 -4.8799 1.21961 0
M  V30 1878 H 175.102 -5.0731 2.96497 0
M  V30 1879 H 176.626 -5.67515 2.25297 0
M  V30 1880 H 178.04 -4.1598 3.94505 0
M  V30 1881 H 176.437 -3.79615 4.64771 0
M  V30 1882 H 177.507 -2.46341 4.17665 0
M  V30 1883 N 178.85 -1.27639 -0.924453 0
M  V30 1884 C 179.76 -1.12466 -2.05885 0
M  V30 1885 C 180.776 -0.053869 -1.73917 0
M  V30 1886 O 181.952 -0.261012 -1.99702 0
M  V30 1887 C 179.017 -0.776768 -3.37886 0
M  V30 1888 C 178.078 -1.92878 -3.83532 0
M  V30 1889 C 177.311 -1.59739 -5.09234 0
M  V30 1890 O 177.534 -0.506782 -5.68144 0
M  V30 1891 O 176.468 -2.43761 -5.50331 0
M  V30 1892 H 180.294 -2.07671 -2.21599 0
M  V30 1893 H 177.879 -1.06857 -1.04413 0
M  V30 1894 H 179.761 -0.596229 -4.17161 0
M  V30 1895 H 178.436 0.145732 -3.23372 0
M  V30 1896 H 177.343 -2.1644 -3.0513 0
M  V30 1897 H 178.676 -2.8316 -4.02593 0
M  V30 1898 N 180.328 1.1314 -1.09713 0
M  V30 1899 C 181.568 1.8613 -0.844683 0
M  V30 1900 C 181.932 1.81765 0.618491 0
M  V30 1901 O 183.133 2.50024 0.98699 0
M  V30 1902 C 181.404 3.30151 -1.36877 0
M  V30 1903 S 182.963 4.206 -1.25064 0
M  V30 1904 H 179.781 0.642056 -0.305427 0
M  V30 1905 H 182.383 1.36343 -1.4011 0
M  V30 1906 H 181.087 3.30883 -2.42786 0
M  V30 1907 H 180.618 3.85 -0.808614 0
M  V30 1908 H 182.633 4.95783 -0.203486 0
M  V30 1909 N 181.806 0.884767 1.30421 0
M  V30 1910 C 182.756 0.322846 2.25703 0
M  V30 1911 C 183.74 -0.548582 1.51259 0
M  V30 1912 O 184.932 -0.39304 1.72581 0
M  V30 1913 C 182.061 -0.461787 3.4018 0
M  V30 1914 C 181.147 0.423717 4.21978 0
M  V30 1915 N 181.538 1.52408 4.82292 0
M  V30 1916 C 179.836 0.218795 4.45463 0
M  V30 1917 C 180.537 2.07136 5.43571 0
M  V30 1918 N 179.513 1.36635 5.26148 0
M  V30 1919 H 183.315 1.16363 2.69883 0
M  V30 1920 H 180.829 0.73415 1.44859 0
M  V30 1921 H 182.826 -0.880985 4.07485 0
M  V30 1922 H 181.486 -1.30001 2.9754 0
M  V30 1923 H 182.497 1.90693 4.81515 0
M  V30 1924 H 179.174 -0.582275 4.1342 0
M  V30 1925 H 180.564 2.99538 6.01437 0
M  V30 1926 N 183.284 -1.43765 0.645699 0
M  V30 1927 C 184.695 -1.85193 0.236719 0
M  V30 1928 C 185.046 -1.54045 -1.21509 0
M  V30 1929 O 184.171 -0.985694 -1.92647 0
M  V30 1930 C 184.766 -3.36151 0.422845 0
M  V30 1931 C 183.325 -3.76338 0.0682492 0
M  V30 1932 C 182.472 -2.67538 0.729306 0
M  V30 1933 H 185.423 -1.34025 0.849883 0
M  V30 1934 H 185.444 -3.79032 -0.333904 0
M  V30 1935 H 184.956 -3.5879 1.47958 0
M  V30 1936 H 183.057 -3.59312 -0.986179 0
M  V30 1937 H 183.17 -4.76603 0.488469 0
M  V30 1938 H 181.534 -2.54176 0.163235 0
M  V30 1939 H 182.317 -2.93006 1.78892 0
M  V30 1940 N 184.763 -0.387143 -1.52771 0
M  V30 1941 C 185.673 0.456442 -2.30117 0
M  V30 1942 C 186.689 1.07342 -1.36944 0
M  V30 1943 O 187.865 1.07971 -1.70013 0
M  V30 1944 C 184.93 1.56957 -3.09136 0
M  V30 1945 C 183.991 0.977916 -4.18014 0
M  V30 1946 C 183.224 2.038 -4.93256 0
M  V30 1947 O 183.447 3.25271 -4.68567 0
M  V30 1948 O 182.381 1.6565 -5.78657 0
M  V30 1949 H 186.207 -0.17359 -3.03203 0
M  V30 1950 H 183.792 -0.150919 -1.48636 0
M  V30 1951 H 185.674 2.21628 -3.58412 0
M  V30 1952 H 184.349 2.18461 -2.38865 0
M  V30 1953 H 183.256 0.294525 -3.72939 0
M  V30 1954 H 184.589 0.407128 -4.90513 0
M  V30 1955 N 186.241 1.57166 -0.116904 0
M  V30 1956 C 187.657 1.5779 0.239693 0
M  V30 1957 C 187.857 1.1295 1.66867 0
M  V30 1958 O 186.913 0.81592 2.38954 0
M  V30 1959 C 188.226 3.00699 0.00828202 0
M  V30 1960 C 189.774 3.12912 0.0743438 0
M  V30 1961 C 190.249 4.57817 -0.129348 0
M  V30 1962 N 191.74 4.63139 -0.075247 0
M  V30 1963 C 192.475 5.73023 -0.207788 0
M  V30 1964 N 191.971 6.91665 -0.396382 0
M  V30 1965 N 193.764 5.61906 -0.14751 0
M  V30 1966 H 185.915 1.84615 -1.05029 0
M  V30 1967 H 188.178 0.85311 -0.41341 0
M  V30 1968 H 187.884 3.37784 -0.979531 0
M  V30 1969 H 187.758 3.69848 0.741077 0
M  V30 1970 H 190.145 2.75686 1.05268 0
M  V30 1971 H 190.226 2.4631 -0.690297 0
M  V30 1972 H 189.87 4.95742 -1.10465 0
M  V30 1973 H 189.8 5.22507 0.655253 0
M  V30 1974 H 192.291 3.7784 0.0670898 0
M  V30 1975 H 192.604 7.71255 -0.488437 0
M  V30 1976 H 190.949 6.93654 -0.432329 0
M  V30 1977 H 194.14 4.681 -0.00115036 0
M  V30 1978 H 194.313 6.47501 -0.254247 0
M  V30 1979 N 187.719 -0.156864 1.56817 0
M  V30 1980 C 188.967 -0.869404 1.82444 0
M  V30 1981 C 189.288 -1.82147 0.69623 0
M  V30 1982 O 188.558 -1.93847 -0.28287 0
M  V30 1983 H 187.138 -0.324043 0.673056 0
M  V30 1984 H 189.8 -0.153224 1.94297 0
M  V30 1985 H 188.896 -1.43761 2.77019 0
M  V30 1986 N 189.197 -1.51736 -0.425897 0
M  V30 1987 C 190.437 -1.66636 -1.18371 0
M  V30 1988 C 190.801 -0.379854 -1.88205 0
M  V30 1989 O 192.002 -0.404758 -2.65735 0
M  V30 1990 C 190.273 -2.84382 -2.16476 0
M  V30 1991 S 191.832 -3.19673 -3.0059 0
M  V30 1992 H 188.65 -0.586957 -0.40125 0
M  V30 1993 H 191.252 -1.89679 -0.473518 0
M  V30 1994 H 189.956 -3.76281 -1.63831 0
M  V30 1995 H 189.487 -2.63562 -2.92059 0
M  V30 1996 H 191.502 -2.66994 -4.18245 0
M  V30 1997 N 190.675 0.682077 -1.42076 0
M  V30 1998 C 191.921 1.44428 -1.42367 0
M  V30 1999 C 192.254 1.94164 -0.0373056 0
M  V30 2000 O 191.529 1.70429 0.937239 0
M  V30 2001 C 191.812 2.64654 -2.44194 0
M  V30 2002 C 191.665 2.20596 -3.91991 0
M  V30 2003 C 192.984 3.66865 -2.431 0
M  V30 2004 H 190.103 0.523834 -0.518428 0
M  V30 2005 H 192.745 0.77576 -1.73442 0
M  V30 2006 H 190.895 3.2169 -2.17826 0
M  V30 2007 H 192.567 1.68783 -4.29313 0
M  V30 2008 H 190.81 1.52242 -4.06208 0
M  V30 2009 H 191.481 3.06921 -4.58807 0
M  V30 2010 H 193.957 3.19531 -2.66532 0
M  V30 2011 H 192.833 4.48577 -3.16339 0
M  V30 2012 H 193.094 4.17493 -1.45437 0
M  V30 2013 N 192.153 1.28127 0.917671 0
M  V30 2014 C 193.564 1.13622 1.48145 0
M  V30 2015 C 193.915 -0.275207 1.9426 0
M  V30 2016 O 193.04 -1.1691 1.82102 0
M  V30 2017 C 193.635 2.05648 2.69248 0
M  V30 2018 C 192.194 1.95219 3.21818 0
M  V30 2019 C 191.341 1.97618 1.94532 0
M  V30 2020 H 194.292 1.40874 0.730772 0
M  V30 2021 H 194.313 1.61818 3.44377 0
M  V30 2022 H 193.825 3.08365 2.35653 0
M  V30 2023 H 191.926 0.955244 3.60147 0
M  V30 2024 H 192.039 2.81976 3.87333 0
M  V30 2025 H 190.403 1.41973 2.11461 0
M  V30 2026 H 191.186 3.02007 1.63238 0
M  V30 2027 N 193.631 -1.12557 1.10312 0
M  V30 2028 C 194.541 -2.21841 0.763142 0
M  V30 2029 C 195.557 -1.72354 -0.238801 0
M  V30 2030 O 196.733 -2.01249 -0.0778746 0
M  V30 2031 C 193.798 -3.46131 0.198632 0
M  V30 2032 C 192.859 -4.10464 1.25769 0
M  V30 2033 C 192.092 -5.28821 0.72002 0
M  V30 2034 O 192.315 -5.6859 -0.453993 0
M  V30 2035 O 191.249 -5.83437 1.47935 0
M  V30 2036 H 195.075 -2.53312 1.67532 0
M  V30 2037 H 192.66 -1.20867 0.878157 0
M  V30 2038 H 194.542 -4.2125 -0.112401 0
M  V30 2039 H 193.217 -3.16338 -0.686419 0
M  V30 2040 H 192.124 -3.3713 1.62156 0
M  V30 2041 H 193.457 -4.44408 2.11571 0
M  V30 2042 N 195.109 -0.891671 -1.2995 0
M  V30 2043 C 196.52 -0.563104 -1.78006 0
M  V30 2044 C 196.871 0.920978 -1.73241 0
M  V30 2045 O 195.996 1.71987 -1.31337 0
M  V30 2046 C 196.591 -1.01539 -3.23226 0
M  V30 2047 C 195.15 -0.738124 -3.69092 0
M  V30 2048 C 194.297 -1.19461 -2.50249 0
M  V30 2049 H 197.248 -1.07522 -1.16725 0
M  V30 2050 H 197.269 -0.347217 -3.78912 0
M  V30 2051 H 196.781 -2.09555 -3.26662 0
M  V30 2052 H 194.882 0.329766 -3.71138 0
M  V30 2053 H 194.995 -1.33037 -4.60259 0
M  V30 2054 H 193.359 -0.613787 -2.47194 0
M  V30 2055 H 194.142 -2.28265 -2.56417 0
M  V30 2056 N 196.587 1.43421 -0.653314 0
M  V30 2057 C 197.835 2.01414 -0.166415 0
M  V30 2058 C 198.156 1.51803 1.22397 0
M  V30 2059 O 197.426 0.730693 1.81763 0
M  V30 2060 H 196.006 0.744703 -0.0585319 0
M  V30 2061 H 198.668 1.75629 -0.845003 0
M  V30 2062 H 197.764 3.11734 -0.151111 0
M  V30 2063 N 198.065 0.39524 1.52563 0
M  V30 2064 C 199.028 -0.425001 2.25225 0
M  V30 2065 C 200.028 -0.985266 1.27079 0
M  V30 2066 O 201.218 -0.866332 1.5113 0
M  V30 2067 C 198.35 -1.59686 3.01186 0
M  V30 2068 H 199.543 0.211233 2.99155 0
M  V30 2069 H 197.096 0.147472 1.55603 0
M  V30 2070 H 197.831 -2.27035 2.31572 0
M  V30 2071 H 197.616 -1.20176 3.73229 0
M  V30 2072 H 199.106 -2.17743 3.5634 0
M  V30 2073 N 199.544 -1.57102 0.125237 0
M  V30 2074 C 200.507 -2.14471 -0.80838 0
M  V30 2075 C 201.507 -1.0811 -1.19033 0
M  V30 2076 O 202.697 -1.33856 -1.11482 0
M  V30 2077 C 199.829 -2.69005 -2.09402 0
M  V30 2078 H 201.022 -2.98297 -0.309696 0
M  V30 2079 H 198.575 -1.55807 -0.124051 0
M  V30 2080 H 199.31 -1.88785 -2.63687 0
M  V30 2081 H 199.095 -3.46799 -1.82957 0
M  V30 2082 H 200.585 -3.13278 -2.76128 0
M  V30 2083 N 201.022 0.148545 -1.56898 0
M  V30 2084 C 202.268 0.862694 -1.83536 0
M  V30 2085 C 202.601 1.80889 -0.706604 0
M  V30 2086 O 201.876 1.92328 0.289885 0
M  V30 2087 C 202.159 1.63853 -3.20662 0
M  V30 2088 C 202.012 0.713925 -4.44098 0
M  V30 2089 C 203.331 2.60133 -3.54991 0
M  V30 2090 H 200.45 0.312179 -0.667618 0
M  V30 2091 H 203.092 0.127953 -1.89569 0
M  V30 2092 H 201.242 2.26489 -3.1565 0
M  V30 2093 H 202.914 0.098686 -4.61194 0
M  V30 2094 H 201.157 0.0234019 -4.33794 0
M  V30 2095 H 201.828 1.29278 -5.36648 0
M  V30 2096 H 204.304 2.07616 -3.60603 0
M  V30 2097 H 203.18 3.11468 -4.51972 0
M  V30 2098 H 203.441 3.41417 -2.80868 0
M  V30 2099 N 202.5 1.5196 0.417844 0
M  V30 2100 C 203.463 1.74065 1.49111 0
M  V30 2101 C 204.463 0.610537 1.48758 0
M  V30 2102 O 205.653 0.87832 1.50437 0
M  V30 2103 C 202.785 1.81502 2.88565 0
M  V30 2104 H 203.978 2.69869 1.30807 0
M  V30 2105 H 201.531 1.42244 0.647785 0
M  V30 2106 H 202.266 0.875813 3.1225 0
M  V30 2107 H 202.051 2.63651 2.90225 0
M  V30 2108 H 203.541 2.00376 3.66387 0
M  V30 2109 N 203.978 -0.674533 1.42435 0
M  V30 2110 C 204.941 -1.76986 1.45632 0
M  V30 2111 C 205.941 -1.5708 0.343871 0
M  V30 2112 O 207.131 -1.63367 0.604709 0
M  V30 2113 C 204.263 -3.15623 1.28822 0
M  V30 2114 H 205.456 -1.75539 2.43158 0
M  V30 2115 H 203.009 -0.884189 1.28887 0
M  V30 2116 H 203.744 -3.22696 0.322193 0
M  V30 2117 H 203.529 -3.31475 2.09444 0
M  V30 2118 H 205.019 -3.95537 1.33942 0
M  V30 2119 N 205.456 -1.28612 -0.910864 0
M  V30 2120 C 206.681 -1.1891 -1.69927 0
M  V30 2121 C 207.106 0.248372 -1.86453 0
M  V30 2122 O 206.464 1.17961 -1.37676 0
M  V30 2123 C 206.512 -1.89578 -3.06745 0
M  V30 2124 O 205.616 -1.20521 -3.94396 0
M  V30 2125 H 204.957 -0.412632 -0.520222 0
M  V30 2126 H 207.487 -1.69985 -1.1387 0
M  V30 2127 H 207.497 -1.97597 -3.56958 0
M  V30 2128 H 206.172 -2.94136 -2.94035 0
M  V30 2129 H 204.749 -1.20684 -3.52831 0
M  V30 2130 N 206.934 1.1197 -1.10907 0
M  V30 2131 C 207.881 2.17846 -0.762345 0
M  V30 2132 C 208.851 1.63995 0.263599 0
M  V30 2133 O 210.036 1.90273 0.141773 0
M  V30 2134 C 207.176 3.44487 -0.205651 0
M  V30 2135 C 206.289 4.12369 -1.28748 0
M  V30 2136 C 205.424 5.26674 -0.691919 0
M  V30 2137 C 204.463 5.86431 -1.75399 0
M  V30 2138 N 203.6 6.92142 -1.17833 0
M  V30 2139 H 208.44 2.46851 -1.6694 0
M  V30 2140 H 205.977 1.21188 -0.833776 0
M  V30 2141 H 207.935 4.16981 0.135037 0
M  V30 2142 H 206.565 3.15884 0.664613 0
M  V30 2143 H 205.617 3.38003 -1.74522 0
M  V30 2144 H 206.929 4.52844 -2.09125 0
M  V30 2145 H 206.083 6.05953 -0.300963 0
M  V30 2146 H 204.822 4.8749 0.143232 0
M  V30 2147 H 203.827 5.05835 -2.15432 0
M  V30 2148 H 205.052 6.27685 -2.59208 0
M  V30 2149 H 202.998 6.54985 -0.364725 0
M  V30 2150 H 202.915 7.31242 -1.91887 0
M  V30 2151 H 204.183 7.75237 -0.81408 0
M  V30 2152 N 208.412 0.89855 1.29475 0
M  V30 2153 C 209.66 0.522847 1.9522 0
M  V30 2154 C 209.981 -0.93371 1.71192 0
M  V30 2155 O 209.251 -1.65823 1.04305 0
M  V30 2156 H 207.831 0.190366 0.722336 0
M  V30 2157 H 210.493 1.14459 1.5775 0
M  V30 2158 H 209.589 0.704476 3.04045 0
M  V30 2159 N 209.89 -1.43072 0.660911 0
M  V30 2160 C 210.82 -2.33497 -0.0122829 0
M  V30 2161 C 211.801 -1.49903 -0.803925 0
M  V30 2162 O 212.986 -1.78546 -0.763864 0
M  V30 2163 C 210.116 -3.33363 -0.973994 0
M  V30 2164 C 209.07 -4.27003 -0.291928 0
M  V30 2165 C 208.396 -5.16967 -1.36562 0
M  V30 2166 C 209.696 -5.15816 0.820462 0
M  V30 2167 H 211.39 -2.90038 0.742873 0
M  V30 2168 H 208.936 -1.39461 0.358688 0
M  V30 2169 H 210.889 -3.95524 -1.45392 0
M  V30 2170 H 209.613 -2.75095 -1.7604 0
M  V30 2171 H 208.272 -3.66217 0.167623 0
M  V30 2172 H 207.92 -4.55034 -2.14366 0
M  V30 2173 H 207.62 -5.80441 -0.914454 0
M  V30 2174 H 209.144 -5.82003 -1.84675 0
M  V30 2175 H 210.558 -5.71742 0.422366 0
M  V30 2176 H 208.955 -5.8805 1.19656 0
M  V30 2177 H 210.025 -4.55045 1.67518 0
M  V30 2178 N 211.368 -0.403325 -1.52352 0
M  V30 2179 C 212.779 0.0675782 -1.86578 0
M  V30 2180 C 213.13 1.44941 -1.32236 0
M  V30 2181 O 212.255 2.06112 -0.659307 0
M  V30 2182 C 212.85 0.129404 -3.38553 0
M  V30 2183 C 211.409 0.544629 -3.72439 0
M  V30 2184 C 210.556 -0.284551 -2.75836 0
M  V30 2185 H 213.507 -0.620631 -1.46061 0
M  V30 2186 H 213.528 0.94581 -3.68558 0
M  V30 2187 H 213.04 -0.87645 -3.78074 0
M  V30 2188 H 211.141 1.55734 -3.38493 0
M  V30 2189 H 211.254 0.293046 -4.78203 0
M  V30 2190 H 209.618 0.252258 -2.53448 0
M  V30 2191 H 210.401 -1.28865 -3.18196 0
M  V30 2192 N 212.846 1.57033 -0.133567 0
M  V30 2193 C 213.778 2.13176 0.841944 0
M  V30 2194 C 214.791 1.07794 1.22001 0
M  V30 2195 O 215.98 1.35117 1.16643 0
M  V30 2196 C 213.08 2.62847 2.13926 0
M  V30 2197 C 212.253 3.92486 1.93064 0
M  V30 2198 C 211.312 4.27605 3.0666 0
M  V30 2199 O 210.338 4.96168 2.78937 0
M  V30 2200 N 211.54 3.861 4.33483 0
M  V30 2201 H 214.305 2.97503 0.362192 0
M  V30 2202 H 211.866 1.61821 0.05042 0
M  V30 2203 H 213.858 2.83363 2.88942 0
M  V30 2204 H 212.428 1.83319 2.53205 0
M  V30 2205 H 211.648 3.80732 1.02159 0
M  V30 2206 H 212.936 4.77225 1.76447 0
M  V30 2207 H 212.334 3.30828 4.58878 0
M  V30 2208 H 210.891 4.11694 5.05323 0
M  V30 2209 N 214.325 -0.140222 1.56975 0
M  V30 2210 C 215.257 -1.19818 1.95388 0
M  V30 2211 C 216.27 -1.38816 0.850525 0
M  V30 2212 O 217.459 -1.38267 1.12891 0
M  V30 2213 C 214.559 -2.56189 2.21857 0
M  V30 2214 C 213.732 -2.58077 3.5315 0
M  V30 2215 C 212.791 -3.76037 3.6808 0
M  V30 2216 O 211.817 -3.60598 4.40406 0
M  V30 2217 N 213.019 -4.93763 3.05251 0
M  V30 2218 H 215.784 -0.871609 2.86746 0
M  V30 2219 H 213.345 -0.32972 1.58507 0
M  V30 2220 H 215.337 -3.33623 2.2908 0
M  V30 2221 H 213.907 -2.81111 1.36731 0
M  V30 2222 H 213.127 -1.6651 3.57307 0
M  V30 2223 H 214.415 -2.56377 4.39486 0
M  V30 2224 H 213.813 -5.09209 2.46419 0
M  V30 2225 H 212.37 -5.68949 3.18026 0
M  V30 2226 N 215.803 -1.52179 -0.40978 0
M  V30 2227 C 216.733 -1.78435 -1.5061 0
M  V30 2228 C 217.714 -0.635295 -1.57791 0
M  V30 2229 O 218.899 -0.880823 -1.73076 0
M  V30 2230 C 216.029 -1.93444 -2.88439 0
M  V30 2231 C 214.983 -3.09038 -2.96108 0
M  V30 2232 C 214.309 -3.09268 -4.36185 0
M  V30 2233 C 215.609 -4.48508 -2.67652 0
M  V30 2234 H 217.303 -2.70237 -1.28889 0
M  V30 2235 H 214.849 -1.30036 -0.618605 0
M  V30 2236 H 216.802 -2.10394 -3.65119 0
M  V30 2237 H 215.526 -0.983129 -3.11452 0
M  V30 2238 H 214.185 -2.91837 -2.21872 0
M  V30 2239 H 213.833 -2.11861 -4.56206 0
M  V30 2240 H 213.533 -3.86907 -4.42241 0
M  V30 2241 H 215.057 -3.28348 -5.14801 0
M  V30 2242 H 216.471 -4.65918 -3.34056 0
M  V30 2243 H 214.868 -5.28059 -2.85085 0
M  V30 2244 H 215.938 -4.56649 -1.63095 0
M  V30 2245 N 217.281 0.66697 -1.42791 0
M  V30 2246 C 218.692 1.2478 -1.38877 0
M  V30 2247 C 219.043 1.96012 -0.0859426 0
M  V30 2248 O 218.168 2.00463 0.815081 0
M  V30 2249 C 218.763 2.26938 -2.51564 0
M  V30 2250 C 217.322 2.80529 -2.50959 0
M  V30 2251 C 216.469 1.54965 -2.29959 0
M  V30 2252 H 219.42 0.459853 -1.51892 0
M  V30 2253 H 219.441 3.08834 -2.22265 0
M  V30 2254 H 218.953 1.75065 -3.46372 0
M  V30 2255 H 217.054 3.36502 -1.59991 0
M  V30 2256 H 217.167 3.29012 -3.48265 0
M  V30 2257 H 215.531 1.81817 -1.78366 0
M  V30 2258 H 216.314 1.05047 -3.26833 0
M  V30 2259 N 218.759 1.29093 0.90403 0
M  V30 2260 C 219.722 1.1386 1.98919 0
M  V30 2261 C 220.722 0.0753457 1.60623 0
M  V30 2262 O 221.912 0.321931 1.71199 0
M  V30 2263 C 219.044 0.740198 3.32767 0
M  V30 2264 H 220.237 2.10246 2.13861 0
M  V30 2265 H 217.79 1.12218 1.08797 0
M  V30 2266 H 218.525 -0.223997 3.23525 0
M  V30 2267 H 218.31 1.50838 3.61926 0
M  V30 2268 H 219.8 0.656546 4.12407 0
M  V30 2269 N 220.237 -1.11381 1.11499 0
M  V30 2270 C 221.648 -1.6465 0.880191 0
M  V30 2271 C 221.999 -1.87199 -0.587434 0
M  V30 2272 O 221.124 -1.60667 -1.44966 0
M  V30 2273 C 221.719 -2.99105 1.59128 0
M  V30 2274 C 220.278 -3.49279 1.40289 0
M  V30 2275 C 219.425 -2.24077 1.63354 0
M  V30 2276 H 222.376 -0.950123 1.27116 0
M  V30 2277 H 222.397 -3.66107 1.03664 0
M  V30 2278 H 221.909 -2.82661 2.65941 0
M  V30 2279 H 220.01 -3.70887 0.356888 0
M  V30 2280 H 220.123 -4.2803 2.15238 0
M  V30 2281 H 218.487 -2.31733 1.05698 0
M  V30 2282 H 219.27 -2.10175 2.71443 0
M  V30 2283 N 221.715 -0.905404 -1.28997 0
M  V30 2284 C 223.126 -0.581953 -1.77398 0
M  V30 2285 C 223.477 0.902552 -1.74208 0
M  V30 2286 O 222.602 1.70584 -1.33154 0
M  V30 2287 C 223.197 -1.04961 -3.22131 0
M  V30 2288 C 221.756 -0.777229 -3.68288 0
M  V30 2289 C 220.903 -1.22109 -2.48967 0
M  V30 2290 H 223.854 -1.08754 -1.15578 0
M  V30 2291 H 223.875 -0.387387 -3.78523 0
M  V30 2292 H 223.387 -2.13008 -3.24421 0
M  V30 2293 H 221.488 0.290383 -3.71467 0
M  V30 2294 H 221.601 -1.37911 -4.58822 0
M  V30 2295 H 219.965 -0.639971 -2.46529 0
M  V30 2296 H 220.748 -2.30972 -2.53982 0
M  V30 2297 N 223.193 1.4272 -0.668489 0
M  V30 2298 C 224.47 1.95248 -0.117373 0
M  V30 2299 C 224.85 1.60919 1.36632 0
M  V30 2300 O 224.198 0.902095 2.09939 0
M  V30 2301 C 224.408 3.46927 -0.379806 0
M  V30 2302 C 225.756 4.23588 -0.292923 0
M  V30 2303 O 226.78 3.5482 -0.313204 0
M  V30 2304 O 225.639 5.46017 -0.229697 0
M  V30 2305 H 222.733 0.827 0.00079152 0
M  V30 2306 H 225.279 1.52581 -0.742783 0
M  V30 2307 H 224.051 3.65096 -1.40786 0
M  V30 2308 H 223.674 3.96627 0.277923 0
M  V30 2309 N 224.671 0.411399 1.52136 0
M  V30 2310 C 225.581 -0.419774 2.30814 0
M  V30 2311 C 226.597 -1.0515 1.38634 0
M  V30 2312 O 227.773 -1.05252 1.71709 0
M  V30 2313 C 224.838 -1.52019 3.11594 0
M  V30 2314 C 223.899 -0.91129 4.19516 0
M  V30 2315 C 223.132 -1.95927 4.96436 0
M  V30 2316 O 223.355 -3.17775 4.73683 0
M  V30 2317 O 222.289 -1.56423 5.81219 0
M  V30 2318 H 226.115 0.221805 3.02889 0
M  V30 2319 H 223.7 0.174547 1.48377 0
M  V30 2320 H 225.582 -2.15898 3.61892 0
M  V30 2321 H 224.257 -2.14633 2.42311 0
M  V30 2322 H 223.164 -0.235157 3.7336 0
M  V30 2323 H 224.497 -0.32904 4.91099 0
M  V30 2324 N 226.149 -1.5696 0.141893 0
M  V30 2325 C 227.426 -1.87553 -0.555281 0
M  V30 2326 C 227.806 -1.04699 -1.83306 0
M  V30 2327 O 227.154 -0.132346 -2.28116 0
M  V30 2328 C 227.364 -3.39093 -0.825664 0
M  V30 2329 C 228.712 -4.08199 -1.16869 0
M  V30 2330 O 229.736 -3.44242 -0.915185 0
M  V30 2331 O 228.595 -5.21139 -1.6455 0
M  V30 2332 H 225.689 -0.777188 -0.282679 0
M  V30 2333 H 228.235 -1.68763 0.17812 0
M  V30 2334 H 227.007 -3.91221 0.0788633 0
M  V30 2335 H 226.63 -3.63393 -1.61343 0
M  V30 2336 N 227.627 0.131896 -1.57047 0
M  V30 2337 C 228.904 0.871495 -1.75112 0
M  V30 2338 C 229.284 1.9866 -0.713949 0
M  V30 2339 O 228.632 2.26965 0.264447 0
M  V30 2340 C 228.842 1.40007 -3.19686 0
M  V30 2341 C 230.19 1.85752 -3.81813 0
M  V30 2342 O 231.214 1.49715 -3.23209 0
M  V30 2343 O 230.073 2.5226 -4.84796 0
M  V30 2344 H 227.167 0.412919 -0.716538 0
M  V30 2345 H 229.713 0.116641 -1.69299 0
M  V30 2346 H 228.485 0.599404 -3.86682 0
M  V30 2347 H 228.108 2.218 -3.29986 0
M  V30 2348 N 229.106 1.52395 0.401703 0
M  V30 2349 C 230.331 1.70972 1.17403 0
M  V30 2350 C 230.756 0.421615 1.83314 0
M  V30 2351 O 230.114 -0.621564 1.70312 0
M  V30 2352 C 230.162 2.85151 2.20728 0
M  V30 2353 O 229.266 2.51238 3.27037 0
M  V30 2354 H 228.607 0.568927 0.342372 0
M  V30 2355 H 231.137 1.99131 0.469891 0
M  V30 2356 H 231.147 3.10279 2.64936 0
M  V30 2357 H 229.822 3.78603 1.7214 0
M  V30 2358 H 228.399 2.36808 2.88057 0
M  V30 2359 N 230.584 -0.659388 1.43143 0
M  V30 2360 C 231.547 -1.75432 1.47501 0
M  V30 2361 C 232.547 -1.56707 0.360512 0
M  V30 2362 O 233.737 -1.62717 0.622002 0
M  V30 2363 C 230.869 -3.14239 1.32162 0
M  V30 2364 H 232.062 -1.7295 2.45006 0
M  V30 2365 H 229.615 -0.870469 1.29817 0
M  V30 2366 H 230.35 -3.22336 0.356401 0
M  V30 2367 H 230.135 -3.29235 2.12948 0
M  V30 2368 H 231.625 -3.94094 1.3813 0
M  V30 2369 N 232.062 -1.29571 -0.897171 0
M  V30 2370 C 233.025 -1.14913 -1.98312 0
M  V30 2371 C 234.025 -0.0838629 -1.60581 0
M  V30 2372 O 235.215 -0.331006 -1.71026 0
M  V30 2373 C 232.347 -0.757835 -3.3237 0
M  V30 2374 H 233.54 -2.11377 -2.12743 0
M  V30 2375 H 231.093 -1.12793 -1.08201 0
M  V30 2376 H 231.828 0.206837 -3.2364 0
M  V30 2377 H 231.613 -1.52755 -3.61121 0
M  V30 2378 H 233.103 -0.678408 -4.12053 0
M  V30 2379 N 233.54 1.10788 -1.12088 0
M  V30 2380 C 234.951 1.64181 -0.88891 0
M  V30 2381 C 235.302 1.87508 0.577498 0
M  V30 2382 O 234.427 1.61434 1.44112 0
M  V30 2383 C 235.022 2.98257 -1.60712 0
M  V30 2384 C 233.581 3.4853 -1.42139 0
M  V30 2385 C 232.728 2.23208 -1.6454 0
M  V30 2386 H 235.679 0.943368 -1.27618 0
M  V30 2387 H 235.7 3.65552 -1.05604 0
M  V30 2388 H 235.212 2.81246 -2.67436 0
M  V30 2389 H 233.313 3.70692 -0.376552 0
M  V30 2390 H 233.426 4.26882 -2.17505 0
M  V30 2391 H 231.79 2.31169 -1.06925 0
M  V30 2392 H 232.573 2.08733 -2.72554 0
M  V30 2393 N 235.018 0.912232 1.28515 0
M  V30 2394 C 236.243 0.559774 1.99703 0
M  V30 2395 C 236.668 -0.851393 1.67729 0
M  V30 2396 O 236.026 -1.56875 0.908834 0
M  V30 2397 C 236.074 0.773874 3.52198 0
M  V30 2398 O 235.178 -0.167842 4.12058 0
M  V30 2399 H 234.519 0.21723 0.627461 0
M  V30 2400 H 237.049 1.22725 1.63706 0
M  V30 2401 H 237.059 0.683386 4.02236 0
M  V30 2402 H 235.734 1.80261 3.74805 0
M  V30 2403 H 234.311 -0.0287509 3.72889 0
M  V30 2404 N 236.496 -1.42363 0.676048 0
M  V30 2405 C 237.724 -2.05859 0.207268 0
M  V30 2406 C 238.139 -1.50796 -1.13605 0
M  V30 2407 O 237.496 -0.648265 -1.70598 0
M  V30 2408 C 237.547 -3.61248 0.134975 0
M  V30 2409 O 237.268 -4.1427 1.42521 0
M  V30 2410 C 238.769 -4.41859 -0.357151 0
M  V30 2411 H 235.989 -0.663431 0.100503 0
M  V30 2412 H 238.533 -1.82479 0.923136 0
M  V30 2413 H 236.688 -3.83735 -0.531588 0
M  V30 2414 H 237.102 -5.0815 1.29939 0
M  V30 2415 H 238.576 -5.50847 -0.356641 0
M  V30 2416 H 239.053 -4.16536 -1.39264 0
M  V30 2417 H 239.659 -4.24392 0.27772 0
M  V30 2418 N 237.974 -0.419461 -1.51915 0
M  V30 2419 C 238.904 0.391813 -2.30189 0
M  V30 2420 C 239.885 1.03699 -1.34836 0
M  V30 2421 O 241.07 1.04403 -1.63748 0
M  V30 2422 C 238.2 1.50312 -3.13087 0
M  V30 2423 C 237.154 0.9824 -4.16573 0
M  V30 2424 C 236.48 2.18809 -4.8788 0
M  V30 2425 C 237.78 0.0292356 -5.22292 0
M  V30 2426 H 239.474 -0.26135 -2.98257 0
M  V30 2427 H 237.02 -0.127134 -1.43438 0
M  V30 2428 H 238.973 2.07773 -3.66617 0
M  V30 2429 H 237.697 2.18431 -2.42807 0
M  V30 2430 H 236.356 0.430119 -3.64068 0
M  V30 2431 H 236.004 2.85507 -4.14119 0
M  V30 2432 H 235.704 1.84615 -5.57845 0
M  V30 2433 H 237.228 2.76858 -5.44226 0
M  V30 2434 H 238.642 0.512976 -5.71 0
M  V30 2435 H 237.039 -0.2244 -5.9968 0
M  V30 2436 H 238.109 -0.912931 -4.76228 0
M  V30 2437 N 239.452 1.56882 -0.150215 0
M  V30 2438 C 240.677 2.01027 0.510184 0
M  V30 2439 C 241.102 1.02966 1.57415 0
M  V30 2440 O 240.46 0.00590158 1.81299 0
M  V30 2441 C 240.508 3.43899 1.08472 0
M  V30 2442 O 239.612 3.4885 2.19948 0
M  V30 2443 H 238.953 0.652233 0.124451 0
M  V30 2444 H 241.483 2.03093 -0.247894 0
M  V30 2445 H 241.493 3.82766 1.41259 0
M  V30 2446 H 240.168 4.14776 0.305582 0
M  V30 2447 H 238.745 3.21827 1.88366 0
M  V30 2448 N 240.93 -0.123565 1.57115 0
M  V30 2449 C 241.86 -1.15309 2.03042 0
M  V30 2450 C 242.841 -1.43454 0.914061 0
M  V30 2451 O 244.026 -1.53973 1.18347 0
M  V30 2452 C 241.156 -2.48043 2.43089 0
M  V30 2453 C 240.11 -2.3437 3.58127 0
M  V30 2454 C 239.436 -3.72026 3.84059 0
M  V30 2455 C 240.736 -1.80804 4.90007 0
M  V30 2456 H 242.43 -0.771102 2.893 0
M  V30 2457 H 239.976 -0.369479 1.39179 0
M  V30 2458 H 241.929 -3.20311 2.73823 0
M  V30 2459 H 240.653 -2.88122 1.53796 0
M  V30 2460 H 239.312 -1.64551 3.27595 0
M  V30 2461 H 238.96 -4.09582 2.91979 0
M  V30 2462 H 238.66 -3.63732 4.6149 0
M  V30 2463 H 240.184 -4.45806 4.1724 0
M  V30 2464 H 241.598 -2.42886 5.19307 0
M  V30 2465 H 239.995 -1.83343 5.71407 0
M  V30 2466 H 241.065 -0.76528 4.78823 0
M  V30 2467 N 242.408 -1.52605 -0.393616 0
M  V30 2468 C 243.338 -1.80022 -1.48709 0
M  V30 2469 C 244.319 -0.651995 -1.57108 0
M  V30 2470 O 245.504 -0.89913 -1.72132 0
M  V30 2471 C 242.634 -1.96492 -2.86371 0
M  V30 2472 C 241.588 -3.12161 -2.92813 0
M  V30 2473 C 240.914 -3.13877 -4.3288 0
M  V30 2474 C 242.214 -4.51322 -2.6288 0
M  V30 2475 H 243.908 -2.71589 -1.26015 0
M  V30 2476 H 241.454 -1.30684 -0.604778 0
M  V30 2477 H 243.407 -2.14255 -3.62867 0
M  V30 2478 H 242.131 -1.01611 -3.10391 0
M  V30 2479 H 240.79 -2.94173 -2.18764 0
M  V30 2480 H 240.438 -2.16687 -4.53933 0
M  V30 2481 H 240.138 -3.91576 -4.38112 0
M  V30 2482 H 241.662 -3.33789 -5.1129 0
M  V30 2483 H 243.076 -4.69435 -3.29096 0
M  V30 2484 H 241.473 -5.31053 -2.79468 0
M  V30 2485 H 242.543 -4.58353 -1.58242 0
M  V30 2486 N 243.887 0.651787 -1.4349 0
M  V30 2487 C 245.135 1.40888 -1.44897 0
M  V30 2488 C 245.456 1.94856 -0.0749086 0
M  V30 2489 O 244.726 1.74518 0.889956 0
M  V30 2490 H 243.306 0.522887 -0.533478 0
M  V30 2491 H 245.968 0.768609 -1.79104 0
M  V30 2492 H 245.064 2.25052 -2.16236 0
M  V30 2493 N 245.365 1.30045 0.890287 0
M  V30 2494 C 246.776 1.16738 1.45702 0
M  V30 2495 C 247.127 -0.233939 1.948 0
M  V30 2496 O 246.252 -1.13021 1.84541 0
M  V30 2497 C 246.847 2.11313 2.64825 0
M  V30 2498 C 245.406 2.02001 3.17604 0
M  V30 2499 C 244.553 2.01699 1.90296 0
M  V30 2500 H 247.504 1.42392 0.700726 0
M  V30 2501 H 247.525 1.69086 3.40867 0
M  V30 2502 H 247.037 3.13294 2.2906 0
M  V30 2503 H 245.138 1.03142 3.5804 0
M  V30 2504 H 245.251 2.90128 3.81264 0
M  V30 2505 H 243.615 1.46427 2.08402 0
M  V30 2506 H 244.398 3.05402 1.56795 0
M  V30 2507 N 246.843 -1.10192 1.12674 0
M  V30 2508 C 248.071 -1.85983 0.906527 0
M  V30 2509 C 248.486 -1.80783 -0.544333 0
M  V30 2510 O 247.843 -1.19834 -1.37645 0
M  V30 2511 C 247.894 -3.34281 1.37618 0
M  V30 2512 O 247.615 -3.39401 2.77017 0
M  V30 2513 C 249.116 -4.26938 1.19325 0
M  V30 2514 H 246.336 -0.587716 0.323775 0
M  V30 2515 H 248.88 -1.39284 1.49734 0
M  V30 2516 H 247.035 -3.78436 0.828539 0
M  V30 2517 H 247.449 -4.31838 2.97684 0
M  V30 2518 H 248.923 -5.29181 1.57071 0
M  V30 2519 H 249.4 -4.38995 0.134097 0
M  V30 2520 H 250.006 -3.8859 1.72852 0
M  V30 2521 N 248.321 -0.919034 -1.28029 0
M  V30 2522 C 249.568 -0.554934 -1.94748 0
M  V30 2523 C 249.896 0.90231 -1.72304 0
M  V30 2524 O 249.151 1.65767 -1.04018 0
M  V30 2525 C 249.45 -0.816855 -3.4794 0
M  V30 2526 C 249.116 -2.25448 -3.90492 0
M  V30 2527 C 247.778 -2.64752 -4.01821 0
M  V30 2528 C 250.13 -3.18977 -4.12193 0
M  V30 2529 C 247.458 -3.96727 -4.32232 0
M  V30 2530 C 249.81 -4.50523 -4.44086 0
M  V30 2531 C 248.474 -4.89673 -4.53626 0
M  V30 2532 H 247.744 -0.203065 -0.712633 0
M  V30 2533 H 250.391 -1.16136 -1.52265 0
M  V30 2534 H 248.696 -0.127677 -3.91592 0
M  V30 2535 H 250.393 -0.514238 -3.97689 0
M  V30 2536 H 246.983 -1.93952 -3.82205 0
M  V30 2537 H 251.167 -2.89817 -4.02889 0
M  V30 2538 H 246.423 -4.26754 -4.37825 0
M  V30 2539 H 250.597 -5.23005 -4.59825 0
M  V30 2540 H 248.224 -5.91969 -4.76946 0
M  V30 2541 N 249.799 1.42003 -0.683588 0
M  V30 2542 C 251.21 1.84501 -0.285736 0
M  V30 2543 C 251.561 1.57213 1.17382 0
M  V30 2544 O 250.686 1.03642 1.89966 0
M  V30 2545 C 251.281 3.34912 -0.511821 0
M  V30 2546 C 249.84 3.76025 -0.168005 0
M  V30 2547 C 248.987 2.6551 -0.799983 0
M  V30 2548 H 251.938 1.31724 -0.885119 0
M  V30 2549 H 251.959 3.79784 0.233292 0
M  V30 2550 H 251.471 3.54741 -1.57418 0
M  V30 2551 H 249.572 3.61801 0.890567 0
M  V30 2552 H 249.685 4.75141 -0.614661 0
M  V30 2553 H 248.049 2.53654 -0.230568 0
M  V30 2554 H 248.832 2.8816 -1.86597 0
M  V30 2555 N 251.277 0.427512 1.51691 0
M  V30 2556 C 252.525 -0.141948 2.01601 0
M  V30 2557 C 252.846 -1.44067 1.31414 0
M  V30 2558 O 252.116 -1.90763 0.445658 0
M  V30 2559 H 250.696 -0.0554468 0.744939 0
M  V30 2560 H 253.358 0.567968 1.86441 0
M  V30 2561 H 252.454 -0.324913 3.10404 0
M  V30 2562 N 252.755 -1.56801 0.158532 0
M  V30 2563 C 253.685 -2.20347 -0.772609 0
M  V30 2564 C 254.666 -1.15518 -1.24859 0
M  V30 2565 O 255.851 -1.43902 -1.30406 0
M  V30 2566 C 252.981 -2.83417 -2.00729 0
M  V30 2567 C 251.935 -3.94174 -1.66765 0
M  V30 2568 C 251.261 -4.44233 -2.97592 0
M  V30 2569 C 252.561 -5.14392 -0.905447 0
M  V30 2570 H 254.255 -2.98413 -0.242959 0
M  V30 2571 H 251.801 -1.43537 -0.115419 0
M  V30 2572 H 253.754 -3.26543 -2.6636 0
M  V30 2573 H 252.478 -2.02701 -2.56086 0
M  V30 2574 H 251.137 -3.51684 -1.03508 0
M  V30 2575 H 250.785 -3.60325 -3.50963 0
M  V30 2576 H 250.485 -5.18945 -2.75626 0
M  V30 2577 H 252.009 -4.90037 -3.64274 0
M  V30 2578 H 253.423 -5.5429 -1.46408 0
M  V30 2579 H 251.82 -5.9494 -0.7853 0
M  V30 2580 H 252.89 -4.84795 0.100668 0
M  V30 2581 N 254.233 0.115231 -1.57178 0
M  V30 2582 C 255.458 0.840354 -1.89612 0
M  V30 2583 C 255.883 1.72464 -0.750845 0
M  V30 2584 O 255.241 1.78826 0.298478 0
M  V30 2585 C 255.289 1.64654 -3.20814 0
M  V30 2586 O 254.393 2.7538 -3.06985 0
M  V30 2587 H 253.734 0.232158 -0.622092 0
M  V30 2588 H 256.264 0.0964977 -2.04372 0
M  V30 2589 H 256.274 2.03499 -3.53627 0
M  V30 2590 H 254.949 0.997416 -4.03763 0
M  V30 2591 H 253.526 2.3971 -2.85646 0
M  V30 2592 N 255.711 1.52812 0.385517 0
M  V30 2593 C 256.936 1.72207 1.15583 0
M  V30 2594 C 257.361 0.441034 1.82857 0
M  V30 2595 O 256.719 -0.603465 1.70962 0
M  V30 2596 C 256.767 2.87476 2.17692 0
M  V30 2597 O 255.871 2.54693 3.24354 0
M  V30 2598 H 255.212 0.572526 0.336319 0
M  V30 2599 H 257.742 1.99618 0.448744 0
M  V30 2600 H 257.752 3.13072 2.6163 0
M  V30 2601 H 256.427 3.80408 1.68115 0
M  V30 2602 H 255.004 2.3985 2.85529 0
M  V30 2603 N 257.189 -0.644168 1.43834 0
M  V30 2604 C 258.429 -1.41565 1.47441 0
M  V30 2605 C 258.793 -1.91743 0.0992723 0
M  V30 2606 O 259.994 -2.68798 0.0100192 0
M  V30 2607 C 258.265 -2.55902 2.49498 0
M  V30 2608 S 259.824 -3.44287 2.72051 0
M  V30 2609 H 256.642 -0.483118 0.521649 0
M  V30 2610 H 259.244 -0.747008 1.80666 0
M  V30 2611 H 257.948 -2.17327 3.48134 0
M  V30 2612 H 257.479 -3.27607 2.17801 0
M  V30 2613 H 259.494 -4.52927 2.0266 0
M  V30 2614 N 258.668 -1.30515 -0.883378 0
M  V30 2615 C 259.893 -1.22487 -1.67367 0
M  V30 2616 C 260.318 0.208767 -1.86938 0
M  V30 2617 O 259.676 1.15015 -1.40148 0
M  V30 2618 C 259.724 -1.96041 -3.02655 0
M  V30 2619 O 258.828 -1.28859 -3.91751 0
M  V30 2620 H 258.169 -0.423573 -0.511353 0
M  V30 2621 H 260.699 -1.72362 -1.10239 0
M  V30 2622 H 260.709 -2.05124 -3.52687 0
M  V30 2623 H 259.384 -3.00307 -2.8773 0
M  V30 2624 H 257.961 -1.28141 -3.50192 0
M  V30 2625 N 260.146 1.09593 -1.13257 0
M  V30 2626 C 261.109 2.14359 -0.811358 0
M  V30 2627 C 262.109 1.59808 0.178377 0
M  V30 2628 O 263.299 1.74132 -0.0484911 0
M  V30 2629 C 260.431 3.40269 -0.207276 0
M  V30 2630 H 261.624 2.44284 -1.73969 0
M  V30 2631 H 259.177 1.25102 -0.936973 0
M  V30 2632 H 259.912 3.15969 0.73036 0
M  V30 2633 H 259.697 3.81154 -0.919992 0
M  V30 2634 H 261.187 4.176 0.000667944 0
M  V30 2635 N 261.624 0.925811 1.2754 0
M  V30 2636 C 262.901 0.483726 1.89524 0
M  V30 2637 C 263.281 -1.03809 1.83812 0
M  V30 2638 O 262.629 -1.89143 1.28207 0
M  V30 2639 C 262.839 1.02769 3.33526 0
M  V30 2640 C 264.187 1.08703 4.10449 0
M  V30 2641 O 265.211 0.977175 3.42534 0
M  V30 2642 O 264.07 1.25599 5.31871 0
M  V30 2643 H 261.164 0.15529 0.812289 0
M  V30 2644 H 263.71 1.01738 1.35822 0
M  V30 2645 H 262.482 2.07155 3.31967 0
M  V30 2646 H 262.105 0.475567 3.94746 0
M  V30 2647 N 263.102 -1.41638 0.69111 0
M  V30 2648 C 264.032 -2.3347 0.037248 0
M  V30 2649 C 265.013 -1.51575 -0.771947 0
M  V30 2650 O 266.198 -1.80126 -0.72582 0
M  V30 2651 C 263.328 -3.35354 -0.903064 0
M  V30 2652 C 262.282 -4.27526 -0.201288 0
M  V30 2653 C 261.608 -5.19747 -1.25565 0
M  V30 2654 C 262.908 -5.13959 0.929689 0
M  V30 2655 H 264.602 -2.88397 0.804227 0
M  V30 2656 H 262.148 -1.38669 0.388189 0
M  V30 2657 H 264.101 -3.98519 -1.36969 0
M  V30 2658 H 262.825 -2.78767 -1.70166 0
M  V30 2659 H 261.484 -3.65779 0.245265 0
M  V30 2660 H 261.132 -4.59479 -2.04666 0
M  V30 2661 H 260.832 -5.8225 -0.791128 0
M  V30 2662 H 262.356 -5.85789 -1.72288 0
M  V30 2663 H 263.77 -5.70718 0.543546 0
M  V30 2664 H 262.167 -5.85379 1.32103 0
M  V30 2665 H 263.237 -4.51389 1.77133 0
M  V30 2666 N 264.58 -0.43555 -1.51462 0
M  V30 2667 C 265.527 0.376797 -2.27703 0
M  V30 2668 C 266.497 1.01838 -1.31219 0
M  V30 2669 O 267.682 1.03762 -1.60119 0
M  V30 2670 C 264.822 1.47301 -3.12084 0
M  V30 2671 C 263.935 0.849744 -4.2356 0
M  V30 2672 C 263.07 1.92086 -4.95254 0
M  V30 2673 C 262.109 1.27593 -5.98654 0
M  V30 2674 N 261.246 2.28833 -6.63762 0
M  V30 2675 H 266.086 -0.279734 -2.96684 0
M  V30 2676 H 263.623 -0.149795 -1.46335 0
M  V30 2677 H 265.581 2.11984 -3.59331 0
M  V30 2678 H 264.211 2.0992 -2.45221 0
M  V30 2679 H 263.263 0.0912529 -3.80291 0
M  V30 2680 H 264.575 0.338878 -4.97648 0
M  V30 2681 H 263.729 2.64435 -5.46039 0
M  V30 2682 H 262.468 2.46545 -4.20793 0
M  V30 2683 H 261.473 0.537893 -5.47162 0
M  V30 2684 H 262.698 0.738693 -6.7507 0
M  V30 2685 H 260.644 2.82375 -5.92115 0
M  V30 2686 H 260.561 1.82632 -7.33608 0
M  V30 2687 H 261.829 3.00671 -7.19178 0
M  V30 2688 N 266.058 1.56714 -0.166846 0
M  V30 2689 C 267.335 1.88412 0.525373 0
M  V30 2690 C 267.715 1.07602 1.81618 0
M  V30 2691 O 267.063 0.168621 2.27877 0
M  V30 2692 C 267.273 3.40363 0.771613 0
M  V30 2693 C 268.621 4.10007 1.1036 0
M  V30 2694 O 269.645 3.45655 0.860304 0
M  V30 2695 O 268.504 5.2369 1.56239 0
M  V30 2696 H 265.598 0.781587 0.270278 0
M  V30 2697 H 268.144 1.68458 -0.204946 0
M  V30 2698 H 266.916 3.91046 -0.141093 0
M  V30 2699 H 266.539 3.65914 1.55541 0
M  V30 2700 N 267.536 -0.106894 1.57237 0
M  V30 2701 C 268.785 -0.811163 1.8467 0
M  V30 2702 C 269.098 -1.80469 0.754342 0
M  V30 2703 O 270.304 -2.55601 0.915439 0
M  V30 2704 C 268.76 -1.49337 3.27454 0
M  V30 2705 C 268.368 -0.540217 4.44731 0
M  V30 2706 C 270.112 -2.18206 3.64124 0
M  V30 2707 C 268.019 -1.22634 5.78545 0
M  V30 2708 H 266.949 -0.306679 0.688813 0
M  V30 2709 H 269.6 -0.0639887 1.83388 0
M  V30 2710 H 267.982 -2.2876 3.23241 0
M  V30 2711 H 269.156 0.221659 4.60267 0
M  V30 2712 H 267.471 0.042146 4.16379 0
M  V30 2713 H 270.068 -2.70253 4.61376 0
M  V30 2714 H 270.411 -2.96562 2.92158 0
M  V30 2715 H 270.944 -1.45658 3.70174 0
M  V30 2716 H 267.683 -0.483832 6.53712 0
M  V30 2717 H 267.203 -1.95993 5.66874 0
M  V30 2718 H 268.882 -1.75615 6.2271 0
M  V30 2719 N 269.014 -1.53014 -0.377408 0
M  V30 2720 C 269.944 -1.81589 -1.46791 0
M  V30 2721 C 270.925 -0.668622 -1.56408 0
M  V30 2722 O 272.11 -0.917337 -1.71168 0
M  V30 2723 C 269.24 -1.99519 -2.8427 0
M  V30 2724 C 268.194 -3.15249 -2.89486 0
M  V30 2725 C 267.52 -3.18451 -4.29527 0
M  V30 2726 C 268.82 -4.54084 -2.58079 0
M  V30 2727 H 270.514 -2.7291 -1.23127 0
M  V30 2728 H 268.06 -1.31319 -0.590883 0
M  V30 2729 H 270.013 -2.18092 -3.60575 0
M  V30 2730 H 268.737 -1.04897 -3.09296 0
M  V30 2731 H 267.396 -2.96477 -2.15631 0
M  V30 2732 H 267.044 -2.2149 -4.5161 0
M  V30 2733 H 266.744 -3.962 -4.33934 0
M  V30 2734 H 268.268 -3.39193 -5.07721 0
M  V30 2735 H 269.682 -4.72899 -3.24098 0
M  V30 2736 H 268.079 -5.33987 -2.7382 0
M  V30 2737 H 269.149 -4.60006 -1.53372 0
M  V30 2738 N 270.492 0.636531 -1.44174 0
M  V30 2739 C 271.717 1.42847 -1.50364 0
M  V30 2740 C 272.142 1.87665 -0.127867 0
M  V30 2741 O 271.5 1.58408 0.88185 0
M  V30 2742 C 271.548 2.62854 -2.4686 0
M  V30 2743 O 270.652 3.62501 -1.9664 0
M  V30 2744 H 269.993 0.427642 -0.507955 0
M  V30 2745 H 272.523 0.777422 -1.89255 0
M  V30 2746 H 272.533 3.10465 -2.64718 0
M  V30 2747 H 271.208 2.29578 -3.46795 0
M  V30 2748 H 269.785 3.21735 -1.88523 0
M  V30 2749 N 271.97 1.30982 0.876444 0
M  V30 2750 C 272.88 1.2003 2.01569 0
M  V30 2751 C 273.896 0.11838 1.73597 0
M  V30 2752 O 275.072 0.33495 1.98595 0
M  V30 2753 C 272.137 0.901637 3.34771 0
M  V30 2754 C 271.198 2.06979 3.76109 0
M  V30 2755 C 270.431 1.78529 5.02954 0
M  V30 2756 O 270.654 0.717296 5.65872 0
M  V30 2757 O 269.588 2.64019 5.40905 0
M  V30 2758 H 273.414 2.15753 2.13739 0
M  V30 2759 H 270.999 1.10658 1.00375 0
M  V30 2760 H 272.881 0.750645 4.1466 0
M  V30 2761 H 271.556 -0.0256141 3.2369 0
M  V30 2762 H 270.463 2.27616 2.96887 0
M  V30 2763 H 271.796 2.97907 3.91807 0
M  V30 2764 N 273.449 -1.08991 1.13837 0
M  V30 2765 C 274.412 -2.13925 0.822715 0
M  V30 2766 C 275.412 -1.599 -0.1699 0
M  V30 2767 O 276.602 -1.74104 0.0577251 0
M  V30 2768 C 273.734 -3.40155 0.225318 0
M  V30 2769 H 274.927 -2.43358 1.75262 0
M  V30 2770 H 272.48 -1.24603 0.943594 0
M  V30 2771 H 273.215 -3.16352 -0.713594 0
M  V30 2772 H 273 -3.80661 0.940193 0
M  V30 2773 H 274.49 -4.17594 0.0214784 0
M  V30 2774 N 274.927 -0.932562 -1.27047 0
M  V30 2775 C 276.152 -0.591474 -1.98787 0
M  V30 2776 C 276.577 0.824601 -1.69062 0
M  V30 2777 O 275.935 1.5541 -0.933677 0
M  V30 2778 C 275.983 -0.829808 -3.50922 0
M  V30 2779 O 275.087 0.102266 -4.12273 0
M  V30 2780 H 274.428 -0.227185 -0.623926 0
M  V30 2781 H 276.958 -1.25314 -1.61733 0
M  V30 2782 H 276.968 -0.747292 -4.01098 0
M  V30 2783 H 275.643 -1.86201 -3.7189 0
M  V30 2784 H 274.22 -0.0305761 -3.72887 0
M  V30 2785 N 276.405 1.4127 -0.698611 0
M  V30 2786 C 277.633 2.05503 -0.239992 0
M  V30 2787 C 278.048 1.52584 1.11191 0
M  V30 2788 O 277.405 0.675323 1.69545 0
M  V30 2789 C 277.456 3.60987 -0.192429 0
M  V30 2790 O 277.177 4.1195 -1.49094 0
M  V30 2791 C 278.678 4.42371 0.28681 0
M  V30 2792 H 275.898 0.661748 -0.111045 0
M  V30 2793 H 278.442 1.80987 -0.95205 0
M  V30 2794 H 276.597 3.84533 0.470472 0
M  V30 2795 H 277.011 5.06018 -1.38007 0
M  V30 2796 H 278.485 5.51344 0.26896 0
M  V30 2797 H 278.962 4.18699 1.32619 0
M  V30 2798 H 279.568 4.23897 -0.345201 0
M  V30 2799 N 277.883 0.443576 1.51229 0
M  V30 2800 C 278.816 -0.410089 2.24485 0
M  V30 2801 C 279.794 -1.01949 1.26669 0
M  V30 2802 O 280.978 -1.06075 1.55821 0
M  V30 2803 C 278.105 -1.57211 3.00004 0
M  V30 2804 C 277.151 -1.08279 4.12526 0
M  V30 2805 S 277.984 -0.0197476 5.35496 0
M  V30 2806 C 279.14 -1.18629 6.14555 0
M  V30 2807 H 279.373 0.211832 2.96544 0
M  V30 2808 H 276.906 0.228156 1.52705 0
M  V30 2809 H 278.864 -2.23825 3.44111 0
M  V30 2810 H 277.525 -2.16547 2.27522 0
M  V30 2811 H 276.718 -1.95193 4.64667 0
M  V30 2812 H 276.32 -0.494797 3.70713 0
M  V30 2813 H 278.612 -2.10344 6.4402 0
M  V30 2814 H 279.555 -0.70472 7.04584 0
M  V30 2815 H 279.963 -1.42768 5.46148 0
M  V30 2816 N 279.361 -1.56624 0.175154 0
M  V30 2817 C 280.293 -2.15333 -0.785128 0
M  V30 2818 C 281.306 -1.1099 -1.19101 0
M  V30 2819 O 282.495 -1.38162 -1.13019 0
M  V30 2820 C 279.595 -2.68427 -2.06882 0
M  V30 2821 C 278.768 -3.97466 -1.8259 0
M  V30 2822 C 277.827 -4.35585 -2.95215 0
M  V30 2823 O 276.853 -5.03389 -2.65684 0
M  V30 2824 N 278.055 -3.97457 -4.23094 0
M  V30 2825 H 280.82 -2.98359 -0.283187 0
M  V30 2826 H 278.381 -1.61898 -0.00749817 0
M  V30 2827 H 280.373 -2.90924 -2.81328 0
M  V30 2828 H 278.943 -1.89968 -2.48256 0
M  V30 2829 H 278.163 -3.83307 -0.920287 0
M  V30 2830 H 279.451 -4.81736 -1.63733 0
M  V30 2831 H 278.849 -3.42878 -4.49945 0
M  V30 2832 H 277.406 -4.24947 -4.9423 0
M  V30 2833 N 280.839 0.0985539 -1.57292 0
M  V30 2834 C 281.769 1.12064 -2.04851 0
M  V30 2835 C 282.75 1.41981 -0.936767 0
M  V30 2836 O 283.935 1.52071 -1.20781 0
M  V30 2837 C 281.065 2.44144 -2.47004 0
M  V30 2838 C 280.019 2.28643 -3.6181 0
M  V30 2839 C 279.345 3.65869 -3.89929 0
M  V30 2840 C 280.645 1.72986 -4.92822 0
M  V30 2841 H 282.339 0.724979 -2.9049 0
M  V30 2842 H 279.885 0.34729 -1.39749 0
M  V30 2843 H 281.838 3.15914 -2.78884 0
M  V30 2844 H 280.562 2.85639 -1.5836 0
M  V30 2845 H 279.221 1.59318 -3.30172 0
M  V30 2846 H 278.869 4.04885 -2.98458 0
M  V30 2847 H 278.569 3.56344 -4.67218 0
M  V30 2848 H 280.093 4.39112 -4.2428 0
M  V30 2849 H 281.507 2.34593 -5.23105 0
M  V30 2850 H 279.904 1.74229 -5.74251 0
M  V30 2851 H 280.974 0.689007 -4.7998 0
M  V30 2852 N 282.317 1.53212 0.369288 0
M  V30 2853 C 283.247 1.82365 1.45826 0
M  V30 2854 C 284.228 0.676907 1.56051 0
M  V30 2855 O 285.413 0.926401 1.70679 0
M  V30 2856 C 282.543 2.01023 2.83208 0
M  V30 2857 C 281.497 3.1678 2.8781 0
M  V30 2858 C 280.823 3.20724 4.27832 0
M  V30 2859 C 282.123 4.55447 2.55667 0
M  V30 2860 H 283.817 2.73559 1.21678 0
M  V30 2861 H 281.363 1.3163 0.583911 0
M  V30 2862 H 283.316 2.20001 3.59413 0
M  V30 2863 H 282.04 1.06536 3.08736 0
M  V30 2864 H 280.699 2.97616 2.14056 0
M  V30 2865 H 280.347 2.23882 4.50429 0
M  V30 2866 H 280.047 3.98496 4.31827 0
M  V30 2867 H 281.571 3.41881 5.05915 0
M  V30 2868 H 282.985 4.74611 3.21586 0
M  V30 2869 H 281.382 5.35432 2.70984 0
M  V30 2870 H 282.452 4.60812 1.5093 0
M  V30 2871 N 283.795 -0.628877 1.44509 0
M  V30 2872 C 284.727 -1.754 1.47538 0
M  V30 2873 C 285.74 -1.58575 0.368506 0
M  V30 2874 O 286.929 -1.66847 0.634376 0
M  V30 2875 C 284.029 -3.1315 1.29577 0
M  V30 2876 C 283.202 -3.56413 2.53551 0
M  V30 2877 C 282.261 -4.7305 2.30457 0
M  V30 2878 O 281.287 -4.81247 3.03957 0
M  V30 2879 N 282.489 -5.64903 1.3366 0
M  V30 2880 H 285.254 -1.73272 2.44534 0
M  V30 2881 H 282.815 -0.813512 1.39977 0
M  V30 2882 H 284.807 -3.88902 1.11971 0
M  V30 2883 H 283.377 -3.09908 0.409371 0
M  V30 2884 H 282.597 -2.70847 2.86419 0
M  V30 2885 H 283.885 -3.82071 3.36005 0
M  V30 2886 H 283.283 -5.60975 0.729604 0
M  V30 2887 H 281.84 -6.40275 1.22032 0
M  V30 2888 N 285.273 -1.31445 -0.869486 0
M  V30 2889 C 286.205 -1.14955 -1.98287 0
M  V30 2890 C 287.218 -0.0885037 -1.62559 0
M  V30 2891 O 288.407 -0.336044 -1.75308 0
M  V30 2892 C 285.507 -0.734255 -3.3085 0
M  V30 2893 C 284.68 -1.88042 -3.94917 0
M  V30 2894 C 283.739 -1.4511 -5.05796 0
M  V30 2895 O 282.765 -2.16082 -5.2659 0
M  V30 2896 N 283.967 -0.338763 -5.79511 0
M  V30 2897 H 286.732 -2.10856 -2.12979 0
M  V30 2898 H 284.293 -1.23786 -1.04349 0
M  V30 2899 H 286.285 -0.42975 -4.02412 0
M  V30 2900 H 284.855 0.133158 -3.12316 0
M  V30 2901 H 284.075 -2.35222 -3.1633 0
M  V30 2902 H 285.363 -2.6481 -4.34457 0
M  V30 2903 H 284.761 0.252274 -5.65137 0
M  V30 2904 H 283.318 -0.0937925 -6.51733 0
M  V30 2905 N 286.751 1.08385 -1.14413 0
M  V30 2906 C 287.683 2.1519 -0.789036 0
M  V30 2907 C 288.696 1.61638 0.19417 0
M  V30 2908 O 289.885 1.78479 -0.0275711 0
M  V30 2909 C 286.985 3.38565 -0.15058 0
M  V30 2910 C 286.158 4.21501 -1.16857 0
M  V30 2911 C 285.217 5.23277 -0.553832 0
M  V30 2912 O 284.243 5.56041 -1.21686 0
M  V30 2913 N 285.445 5.76629 0.669296 0
M  V30 2914 H 288.21 2.46257 -1.70814 0
M  V30 2915 H 285.771 1.24198 -1.03858 0
M  V30 2916 H 287.763 4.03777 0.273181 0
M  V30 2917 H 286.333 3.05299 0.671667 0
M  V30 2918 H 285.553 3.52265 -1.76926 0
M  V30 2919 H 286.841 4.73731 -1.85624 0
M  V30 2920 H 286.239 5.52243 1.22654 0
M  V30 2921 H 284.796 6.43521 1.03556 0
M  V30 2922 N 288.23 0.939286 1.26551 0
M  V30 2923 C 289.162 0.404704 2.25599 0
M  V30 2924 C 290.175 -0.470983 1.55838 0
M  V30 2925 O 291.364 -0.281734 1.76263 0
M  V30 2926 C 288.464 -0.43764 3.36062 0
M  V30 2927 C 287.637 0.421449 4.35365 0
M  V30 2928 C 286.696 -0.36015 5.24966 0
M  V30 2929 O 285.722 0.236167 5.6871 0
M  V30 2930 N 286.924 -1.65715 5.56344 0
M  V30 2931 H 289.689 1.25618 2.72103 0
M  V30 2932 H 287.25 0.807963 1.40298 0
M  V30 2933 H 289.242 -0.967866 3.92956 0
M  V30 2934 H 287.812 -1.18991 2.89067 0
M  V30 2935 H 287.032 1.1329 3.7757 0
M  V30 2936 H 288.32 1.00835 4.98708 0
M  V30 2937 H 287.718 -2.16378 5.22682 0
M  V30 2938 H 286.275 -2.13366 6.15888 0
M  V30 2939 N 289.708 -1.40897 0.706093 0
M  V30 2940 C 290.64 -2.29199 0.00815776 0
M  V30 2941 C 291.653 -1.45336 -0.733582 0
M  V30 2942 O 292.842 -1.68727 -0.582537 0
M  V30 2943 C 289.942 -3.23417 -1.01265 0
M  V30 2944 C 289.115 -4.36089 -0.338387 0
M  V30 2945 C 288.174 -5.10811 -1.26326 0
M  V30 2946 O 287.2 -5.64215 -0.751651 0
M  V30 2947 N 288.402 -5.19269 -2.595 0
M  V30 2948 H 291.167 -2.89738 0.766297 0
M  V30 2949 H 288.728 -1.52164 0.55296 0
M  V30 2950 H 290.72 -3.70276 -1.63334 0
M  V30 2951 H 289.29 -2.64112 -1.67223 0
M  V30 2952 H 288.51 -3.91479 0.462352 0
M  V30 2953 H 289.798 -5.08634 0.130031 0
M  V30 2954 H 289.196 -4.77347 -3.03573 0
M  V30 2955 H 287.753 -5.69667 -3.16737 0
M  V30 2956 N 291.186 -0.45159 -1.50991 0
M  V30 2957 C 292.096 0.358431 -2.31846 0
M  V30 2958 C 293.112 1.01438 -1.41373 0
M  V30 2959 O 294.288 1.00663 -1.74439 0
M  V30 2960 C 291.353 1.43704 -3.15515 0
M  V30 2961 C 290.414 0.799742 -4.21785 0
M  V30 2962 C 289.647 1.82696 -5.01456 0
M  V30 2963 O 289.87 3.05105 -4.81941 0
M  V30 2964 O 288.804 1.40958 -5.85162 0
M  V30 2965 H 292.63 -0.302032 -3.02194 0
M  V30 2966 H 290.215 -0.213825 -1.47862 0
M  V30 2967 H 292.097 2.06227 -3.67489 0
M  V30 2968 H 290.772 2.08133 -2.47916 0
M  V30 2969 H 289.679 0.136084 -3.73852 0
M  V30 2970 H 291.012 0.198718 -4.91799 0
M  V30 2971 N 292.664 1.56529 -0.183458 0
M  V30 2972 C 293.627 2.17324 0.728223 0
M  V30 2973 C 294.627 1.12453 1.14939 0
M  V30 2974 O 295.817 1.37902 1.06437 0
M  V30 2975 C 292.949 2.76591 1.99274 0
M  V30 2976 H 294.142 2.99241 0.198772 0
M  V30 2977 H 291.695 1.5616 0.0661391 0
M  V30 2978 H 292.43 1.98441 2.56499 0
M  V30 2979 H 292.215 3.5335 1.69959 0
M  V30 2980 H 293.705 3.23311 2.6431 0
M  V30 2981 N 294.142 -0.090211 1.57342 0
M  V30 2982 C 295.388 -0.793982 1.86611 0
M  V30 2983 C 295.721 -1.78142 0.773252 0
M  V30 2984 O 294.996 -1.93271 -0.218304 0
M  V30 2985 C 295.279 -1.51839 3.26523 0
M  V30 2986 C 295.132 -0.548609 4.46442 0
M  V30 2987 C 296.451 -2.46779 3.64401 0
M  V30 2988 H 293.57 -0.287186 0.678744 0
M  V30 2989 H 296.212 -0.0575076 1.89913 0
M  V30 2990 H 294.362 -2.14617 3.23839 0
M  V30 2991 H 296.034 0.0725513 4.61243 0
M  V30 2992 H 294.277 0.137614 4.33582 0
M  V30 2993 H 294.948 -1.09271 5.41076 0
M  V30 2994 H 297.424 -1.94089 3.68061 0
M  V30 2995 H 296.3 -2.94479 4.63221 0
M  V30 2996 H 296.561 -3.30758 2.93346 0
M  V30 2997 N 295.62 -1.53406 -0.361157 0
M  V30 2998 C 296.845 -1.74024 -1.12829 0
M  V30 2999 C 297.27 -0.470069 -1.82132 0
M  V30 3000 O 296.628 0.57619 -1.719 0
M  V30 3001 C 296.676 -2.90903 -2.13091 0
M  V30 3002 O 295.78 -2.59821 -3.20261 0
M  V30 3003 H 295.121 -0.577804 -0.327168 0
M  V30 3004 H 297.651 -2.00307 -0.41693 0
M  V30 3005 H 297.661 -3.17194 -2.56616 0
M  V30 3006 H 296.336 -3.83034 -1.62042 0
M  V30 3007 H 294.913 -2.44362 -2.81677 0
M  V30 3008 N 297.098 0.621204 -1.44841 0
M  V30 3009 C 298.008 1.7612 -1.5498 0
M  V30 3010 C 299.024 1.68477 -0.434927 0
M  V30 3011 O 300.2 1.89076 -0.693693 0
M  V30 3012 C 297.265 3.1254 -1.50065 0
M  V30 3013 C 296.326 3.31741 -2.72482 0
M  V30 3014 C 295.559 4.61653 -2.67792 0
M  V30 3015 O 295.782 5.431 -1.74352 0
M  V30 3016 O 294.716 4.83271 -3.58794 0
M  V30 3017 H 298.542 1.70518 -2.51311 0
M  V30 3018 H 296.127 0.783643 -1.27198 0
M  V30 3019 H 298.009 3.93844 -1.49882 0
M  V30 3020 H 296.684 3.18663 -0.568806 0
M  V30 3021 H 295.591 2.50077 -2.7823 0
M  V30 3022 H 296.924 3.30486 -3.64746 0
M  V30 3023 N 298.576 1.31904 0.862503 0
M  V30 3024 C 299.824 1.21776 1.61292 0
M  V30 3025 C 300.145 -0.222413 1.93727 0
M  V30 3026 O 299.415 -1.1451 1.58947 0
M  V30 3027 H 297.995 0.447717 0.597962 0
M  V30 3028 H 300.657 1.65326 1.03215 0
M  V30 3029 H 299.753 1.7948 2.5533 0
M  V30 3030 N 300.054 -1.07777 1.14986 0
M  V30 3031 C 301.279 -1.84558 0.946213 0
M  V30 3032 C 301.704 -1.81323 -0.500362 0
M  V30 3033 O 301.062 -1.20301 -1.35637 0
M  V30 3034 C 301.11 -3.29736 1.45968 0
M  V30 3035 O 300.214 -4.07149 0.65601 0
M  V30 3036 H 299.555 -0.571641 0.33782 0
M  V30 3037 H 302.085 -1.35991 1.52865 0
M  V30 3038 H 302.095 -3.80574 1.47063 0
M  V30 3039 H 300.77 -3.31406 2.51283 0
M  V30 3040 H 299.347 -3.65994 0.714322 0
M  V30 3041 N 301.532 -0.945985 -1.26051 0
M  V30 3042 C 302.757 -0.612525 -1.98149 0
M  V30 3043 C 303.182 0.806623 -1.69927 0
M  V30 3044 O 302.54 1.54411 -0.950108 0
M  V30 3045 C 302.588 -0.866981 -3.50023 0
M  V30 3046 O 301.692 0.0585333 -4.12358 0
M  V30 3047 H 301.033 -0.23379 -0.621481 0
M  V30 3048 H 303.563 -1.27023 -1.60395 0
M  V30 3049 H 303.573 -0.789792 -4.00283 0
M  V30 3050 H 302.248 -1.90135 -3.69894 0
M  V30 3051 H 300.825 -0.0701241 -3.72834 0
M  V30 3052 N 303.011 1.40521 -0.713556 0
M  V30 3053 C 304.236 2.05759 -0.26035 0
M  V30 3054 C 304.661 1.53403 1.08854 0
M  V30 3055 O 304.019 0.668535 1.68524 0
M  V30 3056 C 304.067 3.59745 -0.248122 0
M  V30 3057 O 303.171 4.05123 0.77131 0
M  V30 3058 H 302.512 0.652564 -0.122703 0
M  V30 3059 H 305.042 1.79958 -0.973467 0
M  V30 3060 H 305.052 4.07911 -0.0851129 0
M  V30 3061 H 303.727 3.97218 -1.2325 0
M  V30 3062 H 302.304 3.68422 0.57619 0
M  V30 3063 N 304.489 0.459591 1.5075 0
M  V30 3064 C 305.737 -0.0991532 2.01857 0
M  V30 3065 C 306.058 -1.41247 1.34441 0
M  V30 3066 O 305.328 -1.89775 0.486022 0
M  V30 3067 H 303.908 -0.039633 0.745948 0
M  V30 3068 H 306.57 0.607387 1.85194 0
M  V30 3069 H 305.666 -0.258998 3.11023 0
M  V30 3070 N 305.967 -1.56429 0.191757 0
M  V30 3071 C 307.383 -1.58754 -0.164137 0
M  V30 3072 C 307.583 -1.20782 -1.61288 0
M  V30 3073 O 306.639 -0.928999 -2.34789 0
M  V30 3074 C 307.952 -3.00396 0.135195 0
M  V30 3075 C 309.5 -3.1291 0.0750351 0
M  V30 3076 C 309.975 -4.56679 0.347632 0
M  V30 3077 N 311.466 -4.62252 0.296131 0
M  V30 3078 C 312.201 -5.71379 0.480948 0
M  V30 3079 N 311.697 -6.88986 0.725933 0
M  V30 3080 N 313.49 -5.60563 0.415435 0
M  V30 3081 H 305.641 -1.79393 1.13718 0
M  V30 3082 H 307.904 -0.832414 0.453643 0
M  V30 3083 H 307.61 -3.32726 1.13958 0
M  V30 3084 H 307.484 -3.72963 -0.563773 0
M  V30 3085 H 309.871 -2.80394 -0.919948 0
M  V30 3086 H 309.952 -2.42736 0.807029 0
M  V30 3087 H 309.596 -4.89907 1.33992 0
M  V30 3088 H 309.526 -5.25039 -0.405212 0
M  V30 3089 H 312.017 -3.7773 0.113259 0
M  V30 3090 H 312.33 -7.68046 0.855857 0
M  V30 3091 H 310.675 -6.90801 0.762788 0
M  V30 3092 H 313.866 -4.67561 0.224486 0
M  V30 3093 H 314.039 -6.45551 0.562889 0
M  V30 3094 N 307.445 0.0818655 -1.57387 0
M  V30 3095 C 308.408 1.08265 -2.02018 0
M  V30 3096 C 309.408 1.32183 -0.915664 0
M  V30 3097 O 310.598 1.28073 -1.18081 0
M  V30 3098 C 307.73 2.42871 -2.39221 0
M  V30 3099 H 308.923 0.698204 -2.91659 0
M  V30 3100 H 306.476 0.327303 -1.52835 0
M  V30 3101 H 307.211 2.86167 -1.52575 0
M  V30 3102 H 306.996 2.26855 -3.19811 0
M  V30 3103 H 308.486 3.14826 -2.74362 0
M  V30 3104 N 308.923 1.53595 0.353017 0
M  V30 3105 C 310.339 1.43648 0.695516 0
M  V30 3106 C 310.539 0.585617 1.92802 0
M  V30 3107 O 309.595 0.0729223 2.52395 0
M  V30 3108 C 310.908 2.8701 0.896991 0
M  V30 3109 C 312.456 2.96723 0.996209 0
M  V30 3110 C 312.931 4.41173 1.23007 0
M  V30 3111 N 314.422 4.44657 1.29749 0
M  V30 3112 C 315.157 5.53547 1.49577 0
M  V30 3113 N 314.653 6.72461 1.66639 0
M  V30 3114 N 316.446 5.41145 1.52048 0
M  V30 3115 H 308.597 2.07415 -0.457481 0
M  V30 3116 H 310.86 0.9372 -0.142687 0
M  V30 3117 H 310.566 3.51644 0.0629938 0
M  V30 3118 H 310.44 3.31401 1.80148 0
M  V30 3119 H 312.827 2.32235 1.82074 0
M  V30 3120 H 312.908 2.55707 0.0688331 0
M  V30 3121 H 312.552 5.06238 0.410505 0
M  V30 3122 H 312.482 4.79772 2.17086 0
M  V30 3123 H 314.973 3.58963 1.18126 0
M  V30 3124 H 315.286 7.51214 1.81378 0
M  V30 3125 H 313.631 6.75423 1.63794 0
M  V30 3126 H 316.822 4.47205 1.38294 0
M  V30 3127 H 316.995 6.26068 1.67159 0
M  V30 3128 N 310.401 -0.613514 1.45168 0
M  V30 3129 C 311.311 -1.75296 1.55912 0
M  V30 3130 C 312.327 -1.68244 0.443856 0
M  V30 3131 O 313.503 -1.88706 0.70371 0
M  V30 3132 C 310.568 -3.1174 1.5172 0
M  V30 3133 C 309.629 -3.30291 2.74238 0
M  V30 3134 C 308.862 -4.60226 2.70236 0
M  V30 3135 O 309.085 -5.42168 1.77229 0
M  V30 3136 O 308.019 -4.81361 3.61352 0
M  V30 3137 H 311.845 -1.69183 2.52212 0
M  V30 3138 H 309.43 -0.776886 1.27612 0
M  V30 3139 H 311.312 -3.93044 1.51968 0
M  V30 3140 H 309.987 -3.18357 0.585697 0
M  V30 3141 H 308.894 -2.48598 2.79553 0
M  V30 3142 H 310.227 -3.28547 3.66494 0
M  V30 3143 N 311.879 -1.3236 -0.855495 0
M  V30 3144 C 312.842 -1.21164 -1.94556 0
M  V30 3145 C 313.842 -0.134908 -1.60233 0
M  V30 3146 O 315.032 -0.385249 -1.69887 0
M  V30 3147 C 312.164 -0.863192 -3.29791 0
M  V30 3148 H 313.357 -2.18038 -2.05911 0
M  V30 3149 H 310.91 -1.16179 -1.04557 0
M  V30 3150 H 311.645 0.103769 -3.24134 0
M  V30 3151 H 311.43 -1.64166 -3.56078 0
M  V30 3152 H 312.92 -0.809156 -4.09686 0
M  V30 3153 N 313.357 1.07166 -1.15556 0
M  V30 3154 C 314.582 1.84053 -0.955988 0
M  V30 3155 C 315.007 1.81586 0.490739 0
M  V30 3156 O 314.365 1.21018 1.34997 0
M  V30 3157 C 314.413 3.28957 -1.47714 0
M  V30 3158 O 313.517 4.06795 -0.677593 0
M  V30 3159 H 312.858 0.569842 -0.340847 0
M  V30 3160 H 315.388 1.35178 -1.53584 0
M  V30 3161 H 315.398 3.79788 -1.4908 0
M  V30 3162 H 314.073 3.30068 -2.53037 0
M  V30 3163 H 312.65 3.6561 -0.733721 0
M  V30 3164 N 314.835 0.952656 1.25548 0
M  V30 3165 C 316.083 0.605176 1.92826 0
M  V30 3166 C 316.404 -0.860261 1.74999 0
M  V30 3167 O 315.674 -1.6125 1.11244 0
M  V30 3168 H 314.254 0.220832 0.713612 0
M  V30 3169 H 316.916 1.21047 1.52754 0
M  V30 3170 H 316.012 0.832798 3.00784 0
M  V30 3171 N 316.313 -1.40141 0.720998 0
M  V30 3172 C 317.276 -2.29058 0.0805834 0
M  V30 3173 C 318.276 -1.45632 -0.681758 0
M  V30 3174 O 319.466 -1.6648 -0.512856 0
M  V30 3175 C 316.598 -3.28925 -0.895593 0
M  V30 3176 H 317.791 -2.87191 0.863793 0
M  V30 3177 H 315.344 -1.48553 0.485975 0
M  V30 3178 H 316.079 -2.75822 -1.70566 0
M  V30 3179 H 315.864 -3.90519 -0.351766 0
M  V30 3180 H 317.354 -3.95494 -1.34069 0
M  V30 3181 N 317.792 -0.46758 -1.50504 0
M  V30 3182 C 319.203 -0.0116166 -1.86696 0
M  V30 3183 C 319.554 1.39202 -1.38265 0
M  V30 3184 O 318.679 2.0313 -0.746132 0
M  V30 3185 C 319.274 -0.0143044 -3.38797 0
M  V30 3186 C 317.833 0.386175 -3.74414 0
M  V30 3187 C 316.98 -0.401287 -2.74381 0
M  V30 3188 H 319.931 -0.682022 -1.43297 0
M  V30 3189 H 319.952 0.788641 -3.72237 0
M  V30 3190 H 319.464 -1.03602 -3.74016 0
M  V30 3191 H 317.565 1.41237 -3.44794 0
M  V30 3192 H 317.678 0.0899596 -4.79016 0
M  V30 3193 H 316.042 0.144536 -2.5429 0
M  V30 3194 H 316.825 -1.42244 -3.12444 0
M  V30 3195 N 319.27 1.56325 -0.20005 0
M  V30 3196 C 320.498 2.02105 0.442874 0
M  V30 3197 C 320.913 1.08014 1.5485 0
M  V30 3198 O 320.27 0.0858797 1.82298 0
M  V30 3199 C 320.321 3.47549 0.994583 0
M  V30 3200 O 320.042 4.38049 -0.0669322 0
M  V30 3201 C 321.543 4.0887 1.7129 0
M  V30 3202 H 318.763 0.661807 0.110691 0
M  V30 3203 H 321.307 2.02134 -0.310207 0
M  V30 3204 H 319.462 3.48204 1.69803 0
M  V30 3205 H 319.876 5.23368 0.344462 0
M  V30 3206 H 321.35 5.12475 2.05118 0
M  V30 3207 H 321.827 3.52615 2.61838 0
M  V30 3208 H 322.433 4.12002 1.05518 0
M  V30 3209 N 320.748 -0.0735177 1.57428 0
M  V30 3210 C 321.973 -0.789787 1.91774 0
M  V30 3211 C 322.398 -1.70413 0.796306 0
M  V30 3212 O 321.756 -1.79555 -0.250961 0
M  V30 3213 C 321.804 -1.5609 3.25067 0
M  V30 3214 O 320.908 -2.67144 3.14178 0
M  V30 3215 H 320.249 -0.215582 0.628029 0
M  V30 3216 H 322.779 -0.0422781 2.04556 0
M  V30 3217 H 322.789 -1.94052 3.58898 0
M  V30 3218 H 321.464 -0.890015 4.06265 0
M  V30 3219 H 320.041 -2.32052 2.91901 0
M  V30 3220 N 322.226 -1.5378 -0.344866 0
M  V30 3221 C 323.451 -1.75211 -1.10977 0
M  V30 3222 C 323.876 -0.48936 -1.81623 0
M  V30 3223 O 323.234 0.557925 -1.72502 0
M  V30 3224 C 323.282 -2.93147 -2.09993 0
M  V30 3225 O 322.386 -2.63203 -3.17487 0
M  V30 3226 H 321.727 -0.581241 -0.321021 0
M  V30 3227 H 324.257 -2.00738 -0.395661 0
M  V30 3228 H 324.267 -3.19898 -2.53237 0
M  V30 3229 H 322.942 -3.84731 -1.5797 0
M  V30 3230 H 321.519 -2.47336 -2.79069 0
M  V30 3231 N 323.704 0.605807 -1.45491 0
M  V30 3232 C 324.651 1.7164 -1.54299 0
M  V30 3233 C 325.621 1.61486 -0.388761 0
M  V30 3234 O 326.806 1.81039 -0.602445 0
M  V30 3235 C 323.946 3.09953 -1.51734 0
M  V30 3236 C 323.059 3.309 -2.77721 0
M  V30 3237 C 322.194 4.59329 -2.66816 0
M  V30 3238 C 321.233 4.7354 -3.87848 0
M  V30 3239 N 320.37 5.9327 -3.75467 0
M  V30 3240 H 325.21 1.63449 -2.49176 0
M  V30 3241 H 322.747 0.796957 -1.23641 0
M  V30 3242 H 324.705 3.89977 -1.48235 0
M  V30 3243 H 323.335 3.17098 -0.604068 0
M  V30 3244 H 322.387 2.44639 -2.913 0
M  V30 3245 H 323.699 3.37274 -3.67488 0
M  V30 3246 H 322.853 5.4755 -2.61292 0
M  V30 3247 H 321.592 4.55355 -1.74651 0
M  V30 3248 H 320.597 3.83741 -3.93729 0
M  V30 3249 H 321.822 4.79309 -4.81082 0
M  V30 3250 H 319.768 5.90338 -2.86072 0
M  V30 3251 H 319.685 6.00811 -4.5887 0
M  V30 3252 H 320.953 6.83984 -3.73879 0
M  V30 3253 N 325.182 1.32811 0.848464 0
M  V30 3254 C 326.459 1.14334 1.58704 0
M  V30 3255 C 326.839 -0.293948 2.09043 0
M  V30 3256 O 326.187 -1.29153 1.88499 0
M  V30 3257 C 326.397 2.17626 2.72837 0
M  V30 3258 C 327.745 2.51282 3.42261 0
M  V30 3259 O 328.769 2.16219 2.83068 0
M  V30 3260 O 327.628 3.11413 4.49093 0
M  V30 3261 H 324.722 0.441601 0.699226 0
M  V30 3262 H 327.268 1.44362 0.892053 0
M  V30 3263 H 326.04 3.14211 2.3321 0
M  V30 3264 H 325.663 1.88628 3.50008 0
M  V30 3265 N 326.66 -1.06551 1.16123 0
M  V30 3266 C 327.608 -2.16063 0.861371 0
M  V30 3267 C 328.602 -1.6856 -0.168517 0
M  V30 3268 O 329.808 -1.79986 -0.0227579 0
M  V30 3269 H 326.183 -0.705278 0.260934 0
M  V30 3270 H 328.154 -2.38567 1.79244 0
M  V30 3271 C 326.903 -3.45661 0.376018 0
M  V30 3272 H 326.226 -3.82604 1.15992 0
M  V30 3273 H 327.666 -4.23504 0.204951 0
M  V30 3274 C 326.125 -3.24546 -0.903954 0
M  V30 3275 O 326.655 -3.49865 -1.97377 0
M  V30 3276 N 324.861 -2.77992 -0.846679 0
M  V30 3277 H 324.408 -2.57589 0.0241017 0
M  V30 3278 H 324.366 -2.64244 -1.70359 0
M  V30 3279 N 328.138 -0.959301 -1.25041 0
M  V30 3280 C 329.368 -0.63303 -1.96663 0
M  V30 3281 C 329.776 0.800031 -1.71453 0
M  V30 3282 O 329.119 1.54736 -0.99008 0
M  V30 3283 C 329.181 -0.817523 -3.50081 0
M  V30 3284 C 328.845 -2.22863 -3.98975 0
M  V30 3285 C 329.842 -3.20569 -4.09306 0
M  V30 3286 C 327.527 -2.55407 -4.32519 0
M  V30 3287 C 329.521 -4.4891 -4.52503 0
M  V30 3288 C 327.208 -3.83976 -4.754 0
M  V30 3289 C 328.206 -4.8054 -4.85356 0
M  V30 3290 O 327.894 -6.06817 -5.27284 0
M  V30 3291 H 327.626 -0.235866 -0.633516 0
M  V30 3292 H 330.18 -1.2874 -1.60047 0
M  V30 3293 H 328.41 -0.105992 -3.86555 0
M  V30 3294 H 330.099 -0.491604 -4.02912 0
M  V30 3295 H 330.865 -2.96753 -3.83618 0
M  V30 3296 H 326.744 -1.8097 -4.23994 0
M  V30 3297 H 330.288 -5.24283 -4.60188 0
M  V30 3298 H 326.185 -4.07596 -5.00535 0
M  V30 3299 H 326.953 -6.10262 -5.45457 0
M  V30 3300 N 329.616 1.39756 -0.72842 0
M  V30 3301 C 330.546 2.33289 -0.0991354 0
M  V30 3302 C 331.527 1.53568 0.731489 0
M  V30 3303 O 332.712 1.81987 0.677807 0
M  V30 3304 C 329.842 3.3763 0.813834 0
M  V30 3305 C 328.796 4.2791 0.0878663 0
M  V30 3306 C 328.122 5.22894 1.11741 0
M  V30 3307 C 329.422 5.11314 -1.06563 0
M  V30 3308 H 331.116 2.86163 -0.880408 0
M  V30 3309 H 328.662 1.37591 -0.424819 0
M  V30 3310 H 330.615 4.0201 1.26355 0
M  V30 3311 H 329.339 2.83181 1.62715 0
M  V30 3312 H 327.998 3.65 -0.342159 0
M  V30 3313 H 327.646 4.64744 1.92412 0
M  V30 3314 H 327.346 5.84143 0.636477 0
M  V30 3315 H 328.87 5.90151 1.56697 0
M  V30 3316 H 330.284 5.69076 -0.694671 0
M  V30 3317 H 328.681 5.81671 -1.47577 0
M  V30 3318 H 329.751 4.46534 -1.89038 0
M  V30 3319 N 331.094 0.475555 1.50254 0
M  V30 3320 C 332.342 -0.077738 2.0195 0
M  V30 3321 C 332.663 -1.39813 1.35931 0
M  V30 3322 O 331.933 -1.89249 0.506123 0
M  V30 3323 H 330.513 -0.031719 0.746326 0
M  V30 3324 H 333.175 0.626995 1.84539 0
M  V30 3325 H 332.271 -0.225995 3.11281 0
M  V30 3326 N 332.573 -1.56217 0.208337 0
M  V30 3327 C 333.821 -1.97558 -0.426076 0
M  V30 3328 C 334.142 -1.09683 -1.61229 0
M  V30 3329 O 333.412 -0.170956 -1.95153 0
M  V30 3330 H 331.992 -0.729575 -0.160405 0
M  V30 3331 H 334.654 -1.92606 0.298155 0
M  V30 3332 H 333.75 -3.02672 -0.761312 0
M  V30 3333 N 334.051 0.0651679 -1.57465 0
M  V30 3334 C 335.279 0.775808 -1.91804 0
M  V30 3335 C 335.694 1.70782 -0.804916 0
M  V30 3336 O 335.051 1.81153 0.221311 0
M  V30 3337 C 335.102 1.56381 -3.25925 0
M  V30 3338 O 334.823 0.669248 -4.32958 0
M  V30 3339 C 336.324 2.37485 -3.7432 0
M  V30 3340 H 333.544 0.2202 -0.63384 0
M  V30 3341 H 336.088 0.0334587 -2.04473 0
M  V30 3342 H 334.243 2.25837 -3.14764 0
M  V30 3343 H 334.657 1.21801 -5.10162 0
M  V30 3344 H 336.131 2.88223 -4.70778 0
M  V30 3345 H 336.608 3.17307 -3.03666 0
M  V30 3346 H 337.214 1.73173 -3.88447 0
M  V30 3347 N 335.529 1.53961 0.336706 0
M  V30 3348 C 336.754 1.75797 1.10046 0
M  V30 3349 C 337.179 0.498985 1.81361 0
M  V30 3350 O 336.537 -0.548769 1.72795 0
M  V30 3351 C 336.585 2.94257 2.08436 0
M  V30 3352 O 335.689 2.64883 3.16087 0
M  V30 3353 H 335.03 0.582936 0.317934 0
M  V30 3354 H 337.56 2.00945 0.38501 0
M  V30 3355 H 337.57 3.21237 2.51537 0
M  V30 3356 H 336.245 3.85564 1.55927 0
M  V30 3357 H 334.822 2.48812 2.77753 0
M  V30 3358 N 337.007 -0.598083 1.45811 0
M  V30 3359 C 338.235 -1.38322 1.53866 0
M  V30 3360 C 338.65 -1.87992 0.174479 0
M  V30 3361 O 338.007 -1.62756 -0.825627 0
M  V30 3362 C 338.058 -2.58125 2.53089 0
M  V30 3363 O 337.779 -2.10516 3.84206 0
M  V30 3364 C 339.28 -3.50869 2.70935 0
M  V30 3365 H 336.5 -0.423093 0.520801 0
M  V30 3366 H 339.044 -0.728527 1.91083 0
M  V30 3367 H 337.199 -3.19615 2.18917 0
M  V30 3368 H 337.613 -2.88425 4.38077 0
M  V30 3369 H 339.087 -4.31451 3.44317 0
M  V30 3370 H 339.564 -4.01822 1.77301 0
M  V30 3371 H 340.17 -2.95225 3.06141 0
M  V30 3372 N 338.485 -1.33259 -0.841409 0
M  V30 3373 C 339.734 -1.23921 -1.59143 0
M  V30 3374 C 340.047 0.1941 -1.94635 0
M  V30 3375 O 341.253 0.409474 -2.68394 0
M  V30 3376 C 339.709 -2.17119 -2.87032 0
M  V30 3377 C 339.317 -3.65606 -2.58914 0
M  V30 3378 C 341.061 -2.16648 -3.65053 0
M  V30 3379 C 338.968 -4.50726 -3.82884 0
M  V30 3380 H 337.898 -0.460264 -0.597221 0
M  V30 3381 H 340.549 -1.58307 -0.927959 0
M  V30 3382 H 338.931 -1.75663 -3.54906 0
M  V30 3383 H 340.105 -4.15487 -1.99267 0
M  V30 3384 H 338.42 -3.68341 -1.942 0
M  V30 3385 H 341.017 -2.77474 -4.57069 0
M  V30 3386 H 341.36 -1.16088 -3.99787 0
M  V30 3387 H 341.893 -2.56453 -3.041 0
M  V30 3388 H 338.632 -5.52151 -3.53283 0
M  V30 3389 H 338.152 -4.0559 -4.41879 0
M  V30 3390 H 339.831 -4.64401 -4.50489 0
M  V30 3391 N 339.963 1.05934 -1.16686 0
M  V30 3392 C 341.188 1.83029 -0.975455 0
M  V30 3393 C 341.613 1.82096 0.471452 0
M  V30 3394 O 340.971 1.22443 1.33706 0
M  V30 3395 C 341.019 3.27372 -1.51195 0
M  V30 3396 O 340.123 4.06054 -0.720701 0
M  V30 3397 H 339.464 0.566194 -0.346872 0
M  V30 3398 H 341.994 1.33541 -1.55009 0
M  V30 3399 H 342.004 3.78186 -1.53099 0
M  V30 3400 H 340.679 3.27366 -2.56523 0
M  V30 3401 H 339.256 3.64812 -0.772458 0
M  V30 3402 N 341.441 0.965919 1.2453 0
M  V30 3403 C 342.718 0.543777 1.87889 0
M  V30 3404 C 343.098 -0.97909 1.87021 0
M  V30 3405 O 342.446 -1.84969 1.3416 0
M  V30 3406 C 342.656 1.13327 3.30088 0
M  V30 3407 C 344.004 1.21707 4.06783 0
M  V30 3408 O 345.028 1.08566 3.39252 0
M  V30 3409 O 343.887 1.42456 5.27606 0
M  V30 3410 H 340.981 0.181054 0.806938 0
M  V30 3411 H 343.527 1.06007 1.32516 0
M  V30 3412 H 342.299 2.17612 3.25209 0
M  V30 3413 H 341.922 0.600911 3.93033 0
M  V30 3414 N 342.919 -1.39368 0.735821 0
M  V30 3415 C 343.867 -2.32443 0.0855131 0
M  V30 3416 C 344.861 -1.53104 -0.724954 0
M  V30 3417 O 346.067 -1.68762 -0.626047 0
M  V30 3418 H 342.442 -0.751948 0.00885257 0
M  V30 3419 H 344.413 -2.84916 0.886883 0
M  V30 3420 C 343.162 -3.38206 -0.806983 0
M  V30 3421 H 342.485 -3.99335 -0.19274 0
M  V30 3422 H 343.925 -4.05779 -1.2296 0
M  V30 3423 C 342.384 -2.75321 -1.94165 0
M  V30 3424 O 342.914 -2.63231 -3.03435 0
M  V30 3425 N 341.12 -2.33396 -1.73132 0
M  V30 3426 H 340.667 -2.4343 -0.842596 0
M  V30 3427 H 340.625 -1.91661 -2.49225 0
M  V30 3428 N 344.397 -0.483516 -1.5 0
M  V30 3429 C 345.36 0.292965 -2.2732 0
M  V30 3430 C 346.36 0.909499 -1.32608 0
M  V30 3431 O 347.55 0.776745 -1.55924 0
M  V30 3432 C 344.682 1.41854 -3.09984 0
M  V30 3433 H 345.875 -0.385289 -2.97415 0
M  V30 3434 H 343.428 -0.237942 -1.54478 0
M  V30 3435 H 344.163 2.13148 -2.44414 0
M  V30 3436 H 343.948 0.982114 -3.79601 0
M  V30 3437 H 345.438 1.96597 -3.68429 0
M  V30 3438 N 345.875 1.56104 -0.216619 0
M  V30 3439 C 346.822 2.2007 0.695531 0
M  V30 3440 C 347.792 1.15471 1.19397 0
M  V30 3441 O 348.977 1.43807 1.25396 0
M  V30 3442 C 346.117 2.88073 1.90021 0
M  V30 3443 C 345.23 4.07253 1.44113 0
M  V30 3444 C 344.365 4.63052 2.603 0
M  V30 3445 C 343.404 5.74545 2.11103 0
M  V30 3446 N 342.541 6.24656 3.20545 0
M  V30 3447 H 347.381 2.97655 0.143327 0
M  V30 3448 H 344.918 1.46982 0.0589934 0
M  V30 3449 H 346.876 3.25681 2.60745 0
M  V30 3450 H 345.506 2.13015 2.42538 0
M  V30 3451 H 344.558 3.75164 0.628999 0
M  V30 3452 H 345.87 4.8783 1.04036 0
M  V30 3453 H 345.024 5.03078 3.39113 0
M  V30 3454 H 343.763 3.81628 3.03663 0
M  V30 3455 H 342.768 5.34027 1.3075 0
M  V30 3456 H 343.993 6.57801 1.68746 0
M  V30 3457 H 341.939 5.46148 3.63399 0
M  V30 3458 H 341.856 7.00343 2.84704 0
M  V30 3459 H 343.124 6.69338 3.99508 0
M  V30 3460 N 347.353 -0.0568162 1.57498 0
M  V30 3461 C 348.263 -1.08346 2.08083 0
M  V30 3462 C 349.279 -1.41439 1.01346 0
M  V30 3463 O 350.455 -1.51316 1.32912 0
M  V30 3464 C 347.52 -2.37352 2.52715 0
M  V30 3465 C 346.581 -2.11093 3.73816 0
M  V30 3466 C 345.814 -3.33949 4.1631 0
M  V30 3467 O 346.037 -4.43622 3.58547 0
M  V30 3468 O 344.971 -3.21279 5.08983 0
M  V30 3469 H 348.797 -0.683667 2.95905 0
M  V30 3470 H 346.382 -0.271965 1.46904 0
M  V30 3471 H 348.264 -3.13246 2.81877 0
M  V30 3472 H 346.939 -2.76681 1.68016 0
M  V30 3473 H 345.846 -1.32856 3.49714 0
M  V30 3474 H 347.179 -1.76637 4.59413 0
M  V30 3475 N 348.832 -1.54138 -0.328536 0
M  V30 3476 C 349.762 -1.86167 -1.40939 0
M  V30 3477 C 350.743 -0.718044 -1.54202 0
M  V30 3478 O 351.928 -0.971328 -1.68163 0
M  V30 3479 C 349.058 -2.08461 -2.77779 0
M  V30 3480 C 348.012 -3.24299 -2.7931 0
M  V30 3481 C 347.338 -3.31955 -4.19178 0
M  V30 3482 C 348.638 -4.62065 -2.43502 0
M  V30 3483 H 350.332 -2.76689 -1.14383 0
M  V30 3484 H 347.878 -1.33132 -0.548806 0
M  V30 3485 H 349.831 -2.29453 -3.53454 0
M  V30 3486 H 348.555 -1.14684 -3.05802 0
M  V30 3487 H 347.214 -3.03187 -2.0609 0
M  V30 3488 H 346.862 -2.35745 -4.44335 0
M  V30 3489 H 346.562 -4.09805 -4.2111 0
M  V30 3490 H 348.086 -3.55175 -4.96672 0
M  V30 3491 H 349.5 -4.8297 -3.08889 0
M  V30 3492 H 347.897 -5.42429 -2.56693 0
M  V30 3493 H 348.967 -4.64652 -1.38659 0
M  V30 3494 N 350.31 0.590341 -1.46126 0
M  V30 3495 C 351.55 1.35995 -1.52593 0
M  V30 3496 C 351.914 1.91243 -0.170368 0
M  V30 3497 O 353.115 2.68576 -0.109775 0
M  V30 3498 C 351.386 2.46465 -2.58823 0
M  V30 3499 S 352.945 3.33953 -2.84641 0
M  V30 3500 H 349.763 0.463425 -0.53922 0
M  V30 3501 H 352.365 0.67944 -1.83314 0
M  V30 3502 H 351.069 2.04256 -3.5596 0
M  V30 3503 H 350.6 3.19297 -2.2981 0
M  V30 3504 H 352.615 4.45094 -2.19331 0
M  V30 3505 N 351.788 1.33704 0.83433 0
M  V30 3506 C 352.735 1.24335 1.94447 0
M  V30 3507 C 353.705 0.120991 1.65659 0
M  V30 3508 O 354.89 0.300035 1.88426 0
M  V30 3509 C 352.03 0.993124 3.30501 0
M  V30 3510 C 351.143 2.20217 3.71657 0
M  V30 3511 C 350.278 1.88572 4.96602 0
M  V30 3512 C 349.317 3.05683 5.30306 0
M  V30 3513 N 348.454 2.73997 6.46429 0
M  V30 3514 H 353.294 2.1928 2.01792 0
M  V30 3515 H 350.831 1.09035 0.987404 0
M  V30 3516 H 352.789 0.828467 4.08892 0
M  V30 3517 H 351.419 0.0803902 3.227 0
M  V30 3518 H 350.471 2.47642 2.88752 0
M  V30 3519 H 351.783 3.07752 3.92543 0
M  V30 3520 H 350.937 1.68776 5.82752 0
M  V30 3521 H 349.676 0.982799 4.77695 0
M  V30 3522 H 348.681 3.26088 4.42659 0
M  V30 3523 H 349.906 3.96737 5.51159 0
M  V30 3524 H 347.852 1.86268 6.28999 0
M  V30 3525 H 347.769 3.55064 6.67432 0
M  V30 3526 H 349.037 2.57679 7.35678 0
M  V30 3527 N 353.266 -1.05314 1.17247 0
M  V30 3528 C 354.229 -2.112 0.890357 0
M  V30 3529 C 355.229 -1.60359 -0.118943 0
M  V30 3530 O 356.419 -1.73833 0.113086 0
M  V30 3531 C 353.551 -3.39266 0.333422 0
M  V30 3532 H 354.744 -2.37659 1.82916 0
M  V30 3533 H 352.297 -1.21538 0.982758 0
M  V30 3534 H 353.032 -3.18462 -0.612587 0
M  V30 3535 H 352.817 -3.77477 1.06082 0
M  V30 3536 H 354.307 -4.17315 0.154322 0
M  V30 3537 N 354.744 -0.972509 -1.24016 0
M  V30 3538 C 355.99 -0.637978 -1.92504 0
M  V30 3539 C 356.323 0.825383 -1.75787 0
M  V30 3540 O 355.598 1.59442 -1.11393 0
M  V30 3541 C 355.881 -1.01942 -3.45369 0
M  V30 3542 C 355.734 -2.53983 -3.71231 0
M  V30 3543 C 357.053 -0.55751 -4.36555 0
M  V30 3544 H 354.172 -0.233248 -0.699117 0
M  V30 3545 H 356.814 -1.21238 -1.46292 0
M  V30 3546 H 354.964 -0.530656 -3.84859 0
M  V30 3547 H 356.636 -3.10374 -3.41271 0
M  V30 3548 H 354.879 -2.96968 -3.16216 0
M  V30 3549 H 355.55 -2.75723 -4.78206 0
M  V30 3550 H 358.026 -0.977029 -4.04467 0
M  V30 3551 H 356.902 -0.85292 -5.42233 0
M  V30 3552 H 357.163 0.542328 -4.38761 0
M  V30 3553 N 356.222 1.38976 -0.743202 0
M  V30 3554 C 357.447 2.05161 -0.303936 0
M  V30 3555 C 357.872 1.55677 1.05576 0
M  V30 3556 O 357.23 0.704131 1.67068 0
M  V30 3557 C 357.278 3.59138 -0.324373 0
M  V30 3558 O 356.382 4.06668 0.685204 0
M  V30 3559 H 355.723 0.649815 -0.136518 0
M  V30 3560 H 358.253 1.77852 -1.01142 0
M  V30 3561 H 358.263 4.07639 -0.171618 0
M  V30 3562 H 356.938 3.94515 -1.31647 0
M  V30 3563 H 355.515 3.69561 0.497913 0
M  V30 3564 N 357.7 0.491464 1.49741 0
M  V30 3565 C 358.946 -0.0565092 2.02721 0
M  V30 3566 C 359.279 -1.37522 1.37118 0
M  V30 3567 O 358.554 -1.87866 0.503645 0
M  V30 3568 C 358.837 -0.219051 3.59433 0
M  V30 3569 C 358.69 1.12211 4.35579 0
M  V30 3570 C 360.009 -0.964157 4.29409 0
M  V30 3571 H 357.128 -0.0190627 0.736753 0
M  V30 3572 H 359.77 0.641021 1.7886 0
M  V30 3573 H 357.92 -0.813165 3.79895 0
M  V30 3574 H 359.592 1.75437 4.26637 0
M  V30 3575 H 357.835 1.71377 3.98513 0
M  V30 3576 H 358.506 0.961794 5.43556 0
M  V30 3577 H 360.982 -0.460378 4.13545 0
M  V30 3578 H 359.858 -1.04671 5.38828 0
M  V30 3579 H 360.119 -2.00563 3.93988 0
M  V30 3580 N 359.178 -1.55987 0.224894 0
M  V30 3581 C 360.403 -2.03232 -0.41369 0
M  V30 3582 C 360.828 -1.10359 -1.52323 0
M  V30 3583 O 360.186 -0.092395 -1.81064 0
M  V30 3584 C 360.234 -3.48682 -0.919405 0
M  V30 3585 O 359.338 -3.58947 -2.03054 0
M  V30 3586 H 358.679 -0.657428 -0.0931903 0
M  V30 3587 H 361.209 -2.01679 0.34451 0
M  V30 3588 H 361.219 -3.8907 -1.22835 0
M  V30 3589 H 359.894 -4.15761 -0.107339 0
M  V30 3590 H 358.471 -3.30448 -1.72796 0
M  V30 3591 N 360.656 0.0484629 -1.57525 0
M  V30 3592 C 361.589 1.08755 -2.00618 0
M  V30 3593 C 362.567 1.36272 -0.887058 0
M  V30 3594 O 363.751 1.49255 -1.15131 0
M  V30 3595 C 360.878 2.42675 -2.36277 0
M  V30 3596 C 359.924 2.31142 -3.58435 0
M  V30 3597 S 360.757 1.68326 -5.08357 0
M  V30 3598 C 361.913 3.03776 -5.47239 0
M  V30 3599 H 362.146 0.720415 -2.88439 0
M  V30 3600 H 359.679 0.257801 -1.52233 0
M  V30 3601 H 361.637 3.19699 -2.57494 0
M  V30 3602 H 360.298 2.76541 -1.48942 0
M  V30 3603 H 359.491 3.29957 -3.80978 0
M  V30 3604 H 359.093 1.62258 -3.36969 0
M  V30 3605 H 361.385 4.00106 -5.46737 0
M  V30 3606 H 362.328 2.85988 -6.47778 0
M  V30 3607 H 362.736 3.05456 -4.74718 0
M  V30 3608 N 362.134 1.5431 0.320358 0
M  V30 3609 C 363.382 1.72327 1.05583 0
M  V30 3610 C 363.703 0.50149 1.88441 0
M  V30 3611 O 362.973 -0.48448 1.89815 0
M  V30 3612 H 361.553 0.635387 0.3928 0
M  V30 3613 H 364.215 1.91621 0.356019 0
M  V30 3614 H 363.311 2.60426 1.72003 0
M  V30 3615 N 363.613 -0.582584 1.46437 0
M  V30 3616 C 364.543 -1.70187 1.59871 0
M  V30 3617 C 365.524 -1.64066 0.449042 0
M  V30 3618 O 366.709 -1.82081 0.6753 0
M  V30 3619 C 363.839 -3.08827 1.58881 0
M  V30 3620 C 362.793 -3.29779 2.72819 0
M  V30 3621 C 362.119 -4.68947 2.5689 0
M  V30 3622 C 363.419 -3.17601 4.1464 0
M  V30 3623 H 365.113 -1.592 2.53566 0
M  V30 3624 H 362.659 -0.764472 1.22032 0
M  V30 3625 H 364.612 -3.86951 1.66873 0
M  V30 3626 H 363.336 -3.20713 0.617306 0
M  V30 3627 H 361.995 -2.54054 2.64296 0
M  V30 3628 H 361.643 -4.77599 1.57823 0
M  V30 3629 H 361.343 -4.83919 3.33312 0
M  V30 3630 H 362.867 -5.4924 2.66773 0
M  V30 3631 H 364.281 -3.8557 4.24274 0
M  V30 3632 H 362.678 -3.44094 4.9165 0
M  V30 3633 H 363.748 -2.14681 4.34788 0
M  V30 3634 N 365.091 -1.34144 -0.827227 0
M  V30 3635 C 366.339 -1.26009 -1.58007 0
M  V30 3636 C 366.66 0.170971 -1.94249 0
M  V30 3637 O 365.93 1.10256 -1.61927 0
M  V30 3638 H 364.51 -0.463414 -0.585881 0
M  V30 3639 H 367.172 -1.68005 -0.987951 0
M  V30 3640 H 366.268 -1.86187 -2.50481 0
M  V30 3641 N 366.569 1.04691 -1.17803 0
M  V30 3642 C 367.815 1.78045 -0.970969 0
M  V30 3643 C 368.148 1.87686 0.498751 0
M  V30 3644 O 367.423 1.38035 1.37027 0
M  V30 3645 C 367.706 3.2166 -1.61884 0
M  V30 3646 C 367.559 3.20001 -3.161 0
M  V30 3647 C 368.878 4.1962 -1.3269 0
M  V30 3648 H 365.997 0.64633 -0.354155 0
M  V30 3649 H 368.639 1.22333 -1.45378 0
M  V30 3650 H 366.789 3.69232 -1.20831 0
M  V30 3651 H 368.461 2.80467 -3.66246 0
M  V30 3652 H 366.704 2.58203 -3.48588 0
M  V30 3653 H 367.375 4.21386 -3.56564 0
M  V30 3654 H 369.851 3.80567 -1.68249 0
M  V30 3655 H 368.727 5.18339 -1.80599 0
M  V30 3656 H 368.988 4.414 -0.248622 0
M  V30 3657 N 368.047 0.979072 1.23499 0
M  V30 3658 C 368.957 0.526431 2.28617 0
M  V30 3659 C 369.973 -0.418126 1.68901 0
M  V30 3660 O 371.149 -0.288372 1.99325 0
M  V30 3661 C 368.214 -0.165235 3.46306 0
M  V30 3662 C 367.275 0.82056 4.21385 0
M  V30 3663 C 366.508 0.161807 5.33455 0
M  V30 3664 O 366.731 -1.04742 5.60701 0
M  V30 3665 O 365.665 0.859708 5.95729 0
M  V30 3666 H 369.491 1.4006 2.69475 0
M  V30 3667 H 367.076 0.746643 1.29405 0
M  V30 3668 H 368.958 -0.553287 4.17752 0
M  V30 3669 H 367.633 -1.01419 3.07402 0
M  V30 3670 H 366.54 1.25929 3.52268 0
M  V30 3671 H 367.873 1.63828 4.64135 0
M  V30 3672 N 369.525 -1.3858 0.750561 0
M  V30 3673 C 370.488 -2.28836 0.129152 0
M  V30 3674 C 371.488 -1.47045 -0.650714 0
M  V30 3675 O 372.678 -1.6753 -0.477428 0
M  V30 3676 C 369.81 -3.30751 -0.825622 0
M  V30 3677 H 371.003 -2.85294 0.924516 0
M  V30 3678 H 368.556 -1.47489 0.517376 0
M  V30 3679 H 369.291 -2.79378 -1.64677 0
M  V30 3680 H 369.076 -3.91177 -0.268852 0
M  V30 3681 H 370.566 -3.98249 -1.2565 0
M  V30 3682 N 371.003 -0.499398 -1.49478 0
M  V30 3683 C 371.933 0.269244 -2.31943 0
M  V30 3684 C 372.914 0.964054 -1.40143 0
M  V30 3685 O 374.099 0.955767 -1.69052 0
M  V30 3686 C 371.229 1.33504 -3.20615 0
M  V30 3687 C 370.183 0.760202 -4.21195 0
M  V30 3688 C 369.509 1.9264 -4.98792 0
M  V30 3689 C 370.809 -0.247661 -5.21712 0
M  V30 3690 H 372.503 -0.419082 -2.96452 0
M  V30 3691 H 370.049 -0.202988 -1.42562 0
M  V30 3692 H 372.002 1.88048 -3.77115 0
M  V30 3693 H 370.726 2.05253 -2.54045 0
M  V30 3694 H 369.385 0.23653 -3.65836 0
M  V30 3695 H 369.033 2.63154 -4.28671 0
M  V30 3696 H 368.733 1.54785 -5.66847 0
M  V30 3697 H 370.257 2.4762 -5.58137 0
M  V30 3698 H 371.671 0.209579 -5.72917 0
M  V30 3699 H 370.068 -0.541962 -5.97648 0
M  V30 3700 H 371.138 -1.16409 -4.7072 0
M  V30 3701 N 372.481 1.55866 -0.233164 0
M  V30 3702 C 373.391 2.24431 0.683217 0
M  V30 3703 C 374.407 1.2558 1.2044 0
M  V30 3704 O 375.583 1.58422 1.24356 0
M  V30 3705 C 372.648 2.91979 1.86947 0
M  V30 3706 C 371.709 4.06204 1.38912 0
M  V30 3707 C 370.942 4.70522 2.51883 0
M  V30 3708 O 371.165 4.33865 3.70293 0
M  V30 3709 O 370.099 5.59296 2.22423 0
M  V30 3710 H 373.925 3.03426 0.129059 0
M  V30 3711 H 371.51 1.494 -0.0022283 0
M  V30 3712 H 373.392 3.34573 2.56201 0
M  V30 3713 H 372.067 2.15935 2.41151 0
M  V30 3714 H 370.974 3.68155 0.664259 0
M  V30 3715 H 372.307 4.84025 0.893328 0
M  V30 3716 N 373.959 -0.0401083 1.57549 0
M  V30 3717 C 374.909 -1.05175 2.02292 0
M  V30 3718 C 375.893 -1.32674 0.910294 0
M  V30 3719 O 377.085 -1.32444 1.17421 0
M  V30 3720 C 374.214 -2.35622 2.49674 0
M  V30 3721 C 373.3 -2.11261 3.67736 0
M  V30 3722 N 373.691 -1.56923 4.80842 0
M  V30 3723 C 371.989 -2.41596 3.74897 0
M  V30 3724 C 372.69 -1.48111 5.62528 0
M  V30 3725 N 371.666 -1.95282 5.07312 0
M  V30 3726 H 375.468 -0.625455 2.87168 0
M  V30 3727 H 372.982 -0.246624 1.60516 0
M  V30 3728 H 374.979 -3.08893 2.79983 0
M  V30 3729 H 373.639 -2.7894 1.662 0
M  V30 3730 H 374.65 -1.25345 5.02503 0
M  V30 3731 H 371.327 -2.88064 3.02201 0
M  V30 3732 H 372.717 -1.06683 6.63377 0
M  V30 3733 N 375.437 -1.54477 -0.31217 0
M  V30 3734 C 376.367 -1.87652 -1.38957 0
M  V30 3735 C 377.348 -0.734358 -1.53431 0
M  V30 3736 O 378.533 -0.98911 -1.67123 0
M  V30 3737 C 375.663 -2.11396 -2.75552 0
M  V30 3738 C 374.617 -3.27243 -2.75855 0
M  V30 3739 C 373.943 -3.36382 -4.15633 0
M  V30 3740 C 375.243 -4.64622 -2.38587 0
M  V30 3741 H 376.937 -2.77887 -1.11442 0
M  V30 3742 H 374.483 -1.33707 -0.534655 0
M  V30 3743 H 376.436 -2.33189 -3.51 0
M  V30 3744 H 375.16 -1.17921 -3.04569 0
M  V30 3745 H 373.819 -3.05356 -2.02863 0
M  V30 3746 H 373.467 -2.40445 -4.41809 0
M  V30 3747 H 373.167 -4.14249 -4.1674 0
M  V30 3748 H 374.691 -3.60422 -4.92877 0
M  V30 3749 H 376.105 -4.86219 -3.03749 0
M  V30 3750 H 374.502 -5.45121 -2.50925 0
M  V30 3751 H 375.572 -4.66097 -1.33723 0
M  V30 3752 N 376.915 0.57481 -1.46744 0
M  V30 3753 C 378.14 1.36341 -1.56288 0
M  V30 3754 C 378.565 1.86954 -0.207347 0
M  V30 3755 O 377.923 1.62006 0.813871 0
M  V30 3756 C 377.971 2.52147 -2.57787 0
M  V30 3757 O 377.075 3.53834 -2.11838 0
M  V30 3758 H 376.416 0.405713 -0.525636 0
M  V30 3759 H 378.946 0.696453 -1.92382 0
M  V30 3760 H 378.956 2.98958 -2.77648 0
M  V30 3761 H 377.631 2.14663 -3.5622 0
M  V30 3762 H 376.208 3.1345 -2.01999 0
M  V30 3763 N 378.394 1.34581 0.820102 0
M  V30 3764 C 379.805 1.24298 1.39309 0
M  V30 3765 C 380.156 -0.130351 1.95767 0
M  V30 3766 O 379.281 -1.0308 1.90272 0
M  V30 3767 C 379.876 2.25054 2.53251 0
M  V30 3768 C 378.435 2.18552 3.0645 0
M  V30 3769 C 377.582 2.11503 1.79337 0
M  V30 3770 H 380.533 1.45906 0.624262 0
M  V30 3771 H 380.554 1.86917 3.31425 0
M  V30 3772 H 380.066 3.24996 2.1213 0
M  V30 3773 H 378.167 1.21976 3.52069 0
M  V30 3774 H 378.28 3.0993 3.65349 0
M  V30 3775 H 376.644 1.57268 2.00347 0
M  V30 3776 H 377.427 3.13284 1.40386 0
M  V30 3777 N 379.872 -1.04064 1.18357 0
M  V30 3778 C 381.12 -1.76915 0.977013 0
M  V30 3779 C 381.441 -1.88624 -0.494577 0
M  V30 3780 O 380.711 -1.41125 -1.3587 0
M  V30 3781 H 379.291 -0.65535 0.358504 0
M  V30 3782 H 381.953 -1.25592 1.49039 0
M  V30 3783 H 381.049 -2.78178 1.41504 0
M  V30 3784 N 381.35 -0.985608 -1.22978 0
M  V30 3785 C 382.26 -0.538548 -2.28335 0
M  V30 3786 C 383.276 0.409163 -1.69121 0
M  V30 3787 O 384.452 0.277797 -1.99475 0
M  V30 3788 C 381.517 0.146867 -3.46389 0
M  V30 3789 C 380.578 -0.842896 -4.20944 0
M  V30 3790 C 379.811 -0.190095 -5.33361 0
M  V30 3791 O 380.034 1.01767 -5.61248 0
M  V30 3792 O 378.968 -0.891289 -5.95264 0
M  V30 3793 H 382.794 -1.41487 -2.68729 0
M  V30 3794 H 380.379 -0.753495 -1.29007 0
M  V30 3795 H 382.261 0.531125 -4.1804 0
M  V30 3796 H 380.936 0.997871 -3.07935 0
M  V30 3797 H 379.843 -1.27795 -3.51595 0
M  V30 3798 H 381.176 -1.66287 -4.6326 0
M  V30 3799 N 382.828 1.3818 -0.7579 0
M  V30 3800 C 383.76 2.2901 -0.0932177 0
M  V30 3801 C 384.773 1.47958 0.679136 0
M  V30 3802 O 385.962 1.70773 0.519514 0
M  V30 3803 C 383.062 3.26953 0.89192 0
M  V30 3804 C 382.235 4.37045 0.176303 0
M  V30 3805 C 381.294 5.15148 1.07281 0
M  V30 3806 O 380.32 5.66616 0.541728 0
M  V30 3807 N 381.522 5.28542 2.40049 0
M  V30 3808 H 384.287 2.86694 -0.873303 0
M  V30 3809 H 381.848 1.50007 -0.609054 0
M  V30 3810 H 383.84 3.76083 1.49479 0
M  V30 3811 H 382.41 2.70136 1.57306 0
M  V30 3812 H 381.63 3.89493 -0.607328 0
M  V30 3813 H 382.918 5.07801 -0.318718 0
M  V30 3814 H 382.316 4.88285 2.85647 0
M  V30 3815 H 380.873 5.8103 2.95376 0
M  V30 3816 N 384.306 0.507319 1.49211 0
M  V30 3817 C 385.236 -0.256939 2.32082 0
M  V30 3818 C 386.217 -0.956609 1.40652 0
M  V30 3819 O 387.402 -0.946788 1.69557 0
M  V30 3820 C 384.532 -1.31802 3.21318 0
M  V30 3821 C 383.486 -0.737855 4.21592 0
M  V30 3822 C 382.812 -1.89992 4.99807 0
M  V30 3823 C 384.112 0.275325 5.21574 0
M  V30 3824 H 385.806 0.434798 2.96226 0
M  V30 3825 H 383.352 0.210546 1.42452 0
M  V30 3826 H 385.305 -1.86045 3.78107 0
M  V30 3827 H 384.029 -2.03903 2.5513 0
M  V30 3828 H 382.688 -0.217126 3.65956 0
M  V30 3829 H 382.336 -2.60877 4.30061 0
M  V30 3830 H 382.036 -1.51777 5.6766 0
M  V30 3831 H 383.56 -2.44657 5.59442 0
M  V30 3832 H 384.974 -0.179193 5.7302 0
M  V30 3833 H 383.371 0.573649 5.97352 0
M  V30 3834 H 384.441 1.18903 4.70096 0
M  V30 3835 N 385.784 -1.5574 0.241426 0
M  V30 3836 C 387.2 -1.59196 -0.113548 0
M  V30 3837 C 387.4 -1.25852 -1.57364 0
M  V30 3838 O 386.456 -1.00322 -2.31715 0
M  V30 3839 C 387.769 -2.99814 0.230695 0
M  V30 3840 C 389.317 -3.12513 0.174547 0
M  V30 3841 C 389.792 -4.55342 0.492744 0
M  V30 3842 N 391.283 -4.61076 0.443043 0
M  V30 3843 C 392.018 -5.6956 0.662484 0
M  V30 3844 N 391.514 -6.86328 0.944761 0
M  V30 3845 N 393.307 -5.58957 0.593564 0
M  V30 3846 H 385.458 -1.75685 1.19368 0
M  V30 3847 H 387.721 -0.81756 0.479896 0
M  V30 3848 H 387.427 -3.28932 1.24485 0
M  V30 3849 H 387.301 -3.74568 -0.444833 0
M  V30 3850 H 389.688 -2.83179 -0.830277 0
M  V30 3851 H 389.769 -2.40045 0.883845 0
M  V30 3852 H 389.413 -4.85396 1.4951 0
M  V30 3853 H 389.343 -5.26062 -0.23797 0
M  V30 3854 H 391.834 -3.77179 0.233374 0
M  V30 3855 H 392.147 -7.64935 1.09977 0
M  V30 3856 H 390.492 -6.88025 0.982175 0
M  V30 3857 H 393.683 -4.66611 0.373123 0
M  V30 3858 H 393.856 -6.43433 0.767981 0
M  V30 3859 N 387.262 0.0317525 -1.57568 0
M  V30 3860 C 388.51 0.721676 -1.88776 0
M  V30 3861 C 388.831 1.76039 -0.838772 0
M  V30 3862 O 388.101 1.95482 0.127935 0
M  V30 3863 H 386.681 0.269534 -0.696678 0
M  V30 3864 H 389.343 -0.00165879 -1.949 0
M  V30 3865 H 388.439 1.21293 -2.87566 0
M  V30 3866 N 388.74 1.54641 0.303973 0
M  V30 3867 C 390.017 1.64455 1.05896 0
M  V30 3868 C 390.397 0.490923 2.05312 0
M  V30 3869 O 389.745 -0.512685 2.22674 0
M  V30 3870 C 389.955 3.02331 1.74347 0
M  V30 3871 C 391.303 3.59045 2.26653 0
M  V30 3872 O 392.327 3.04764 1.84384 0
M  V30 3873 O 391.186 4.54081 3.04093 0
M  V30 3874 H 388.28 0.666729 0.489287 0
M  V30 3875 H 390.826 1.66986 0.302298 0
M  V30 3876 H 389.598 3.77734 1.02142 0
M  V30 3877 H 389.221 3.03565 2.56777 0
M  V30 3878 N 390.218 -0.567019 1.47046 0
M  V30 3879 C 391.458 -1.3355 1.54738 0
M  V30 3880 C 391.822 -1.90947 0.200772 0
M  V30 3881 O 393.023 -2.68367 0.152489 0
M  V30 3882 C 391.294 -2.42317 2.62712 0
M  V30 3883 S 392.853 -3.29383 2.89918 0
M  V30 3884 H 389.671 -0.454788 0.546525 0
M  V30 3885 H 392.273 -0.650191 1.84371 0
M  V30 3886 H 390.977 -1.98568 3.59164 0
M  V30 3887 H 390.508 -3.15601 2.34861 0
M  V30 3888 H 392.523 -4.41548 2.26384 0
M  V30 3889 N 391.696 -1.35014 -0.812953 0
M  V30 3890 C 392.629 -1.21761 -1.93001 0
M  V30 3891 C 393.607 -0.10694 -1.62248 0
M  V30 3892 O 394.791 -0.273891 -1.865 0
M  V30 3893 C 391.918 -0.873404 -3.27245 0
M  V30 3894 C 390.964 -1.99523 -3.76952 0
M  V30 3895 S 391.797 -3.61009 -3.95516 0
M  V30 3896 C 392.953 -3.28651 -5.32672 0
M  V30 3897 H 393.186 -2.16315 -2.03948 0
M  V30 3898 H 390.719 -1.20156 -0.969631 0
M  V30 3899 H 392.677 -0.68161 -4.04802 0
M  V30 3900 H 391.338 0.053971 -3.14054 0
M  V30 3901 H 390.531 -1.70838 -4.74163 0
M  V30 3902 H 390.133 -2.14503 -3.06373 0
M  V30 3903 H 392.425 -2.81085 -6.1644 0
M  V30 3904 H 393.368 -4.25039 -5.66346 0
M  V30 3905 H 393.776 -2.6458 -4.98656 0
M  V30 3906 N 393.175 1.03435 -1.18907 0
M  V30 3907 C 394.405 1.8012 -1.01195 0
M  V30 3908 C 394.813 1.8395 0.442613 0
M  V30 3909 O 394.156 1.27836 1.31923 0
M  V30 3910 C 394.218 3.26792 -1.49823 0
M  V30 3911 C 393.882 3.46609 -2.97844 0
M  V30 3912 C 394.879 3.37278 -3.95651 0
M  V30 3913 C 392.564 3.73001 -3.36416 0
M  V30 3914 C 394.558 3.54054 -5.30023 0
M  V30 3915 C 392.245 3.89423 -4.70949 0
M  V30 3916 C 393.243 3.79951 -5.67562 0
M  V30 3917 O 392.931 3.95895 -6.99659 0
M  V30 3918 H 392.663 0.573865 -0.357289 0
M  V30 3919 H 395.217 1.31207 -1.58031 0
M  V30 3920 H 393.447 3.76703 -0.873578 0
M  V30 3921 H 395.136 3.85055 -1.28404 0
M  V30 3922 H 395.902 3.16846 -3.67197 0
M  V30 3923 H 391.781 3.79469 -2.61772 0
M  V30 3924 H 395.325 3.46577 -6.05417 0
M  V30 3925 H 391.222 4.09351 -4.99101 0
M  V30 3926 H 391.99 4.13019 -7.06653 0
M  V30 3927 N 394.653 0.992116 1.22453 0
M  V30 3928 C 395.616 0.546883 2.2258 0
M  V30 3929 C 396.616 -0.369829 1.56489 0
M  V30 3930 O 397.806 -0.161896 1.73446 0
M  V30 3931 C 394.938 -0.204659 3.40285 0
M  V30 3932 H 396.131 1.43234 2.63484 0
M  V30 3933 H 393.684 0.779239 1.3549 0
M  V30 3934 H 394.419 -1.10614 3.04853 0
M  V30 3935 H 394.204 0.45354 3.89468 0
M  V30 3936 H 395.694 -0.504358 4.14543 0
M  V30 3937 N 396.131 -1.37776 0.765217 0
M  V30 3938 C 397.542 -1.82521 0.392819 0
M  V30 3939 C 397.893 -1.63789 -1.08017 0
M  V30 3940 O 397.018 -1.14542 -1.83601 0
M  V30 3941 C 397.613 -3.31358 0.706214 0
M  V30 3942 C 396.172 -3.74406 0.386952 0
M  V30 3943 C 395.319 -2.60394 0.953422 0
M  V30 3944 H 398.27 -1.2634 0.960412 0
M  V30 3945 H 398.291 -3.80498 -0.0114706 0
M  V30 3946 H 397.803 -3.44959 1.77833 0
M  V30 3947 H 395.904 -3.66377 -0.678112 0
M  V30 3948 H 396.017 -4.70749 0.890636 0
M  V30 3949 H 394.381 -2.51878 0.378064 0
M  V30 3950 H 395.164 -2.76791 2.03081 0
M  V30 3951 N 397.609 -0.515225 -1.4894 0
M  V30 3952 C 398.539 0.244628 -2.32215 0
M  V30 3953 C 399.52 0.949136 -1.41157 0
M  V30 3954 O 400.705 0.937783 -1.70057 0
M  V30 3955 C 397.835 1.30096 -3.22013 0
M  V30 3956 C 396.789 0.715486 -4.21977 0
M  V30 3957 C 396.115 1.87339 -5.00808 0
M  V30 3958 C 397.415 -0.302982 -5.2142 0
M  V30 3959 H 399.109 -0.450501 -2.95991 0
M  V30 3960 H 396.655 -0.218098 -1.42339 0
M  V30 3961 H 398.608 1.84037 -3.79089 0
M  V30 3962 H 397.332 2.02547 -2.56207 0
M  V30 3963 H 395.991 0.197715 -3.66066 0
M  V30 3964 H 395.639 2.58592 -4.31438 0
M  V30 3965 H 395.339 1.48764 -5.68457 0
M  V30 3966 H 396.863 2.41686 -5.60732 0
M  V30 3967 H 398.277 0.148802 -5.73107 0
M  V30 3968 H 396.674 -0.60532 -5.97039 0
M  V30 3969 H 397.744 -1.21395 -4.69459 0
M  V30 3970 N 399.087 1.5561 -0.249682 0
M  V30 3971 C 400.017 2.24477 0.642826 0
M  V30 3972 C 400.998 1.22601 1.17911 0
M  V30 3973 O 402.183 1.5126 1.21795 0
M  V30 3974 C 399.313 2.94638 1.83863 0
M  V30 3975 C 398.267 4.03227 1.435 0
M  V30 3976 C 397.593 4.60828 2.71186 0
M  V30 3977 C 398.893 5.18796 0.604002 0
M  V30 3978 H 400.587 2.99321 0.0685625 0
M  V30 3979 H 398.133 1.43965 0.0315363 0
M  V30 3980 H 400.086 3.41517 2.46868 0
M  V30 3981 H 398.81 2.17287 2.43832 0
M  V30 3982 H 397.469 3.57121 0.828275 0
M  V30 3983 H 397.117 3.80174 3.29358 0
M  V30 3984 H 396.817 5.34132 2.44901 0
M  V30 3985 H 398.341 5.10442 3.35084 0
M  V30 3986 H 399.755 5.61883 1.13842 0
M  V30 3987 H 398.152 5.98506 0.437097 0
M  V30 3988 H 399.222 4.83384 -0.383147 0
M  V30 3989 N 400.565 -0.0233959 1.57583 0
M  V30 3990 C 401.813 -0.711654 1.89156 0
M  V30 3991 C 402.134 -1.75591 0.848096 0
M  V30 3992 O 401.404 -1.95547 -0.117566 0
M  V30 3993 H 399.984 -0.265835 0.698098 0
M  V30 3994 H 402.646 0.0119948 1.94896 0
M  V30 3995 H 401.742 -1.19766 2.88206 0
M  V30 3996 N 402.043 -1.548 -0.295768 0
M  V30 3997 C 403.289 -1.74588 -1.03184 0
M  V30 3998 C 403.622 -0.532962 -1.86744 0
M  V30 3999 O 402.897 0.469872 -1.88739 0
M  V30 4000 C 403.18 -3.03791 -1.93347 0
M  V30 4001 C 403.033 -4.35392 -1.12933 0
M  V30 4002 C 404.352 -3.28892 -2.92435 0
M  V30 4003 H 401.471 -0.635221 -0.373715 0
M  V30 4004 H 404.113 -1.87519 -0.30606 0
M  V30 4005 H 402.263 -2.92898 -2.55232 0
M  V30 4006 H 403.935 -4.58211 -0.532943 0
M  V30 4007 H 402.178 -4.31642 -0.432168 0
M  V30 4008 H 402.849 -5.22074 -1.79284 0
M  V30 4009 H 405.325 -3.39429 -2.4068 0
M  V30 4010 H 404.201 -4.20603 -3.52682 0
M  V30 4011 H 404.462 -2.47437 -3.6637 0
M  V30 4012 N 403.521 0.559213 -1.47345 0
M  V30 4013 C 404.932 1.14134 -1.47751 0
M  V30 4014 C 405.283 1.94834 -0.231103 0
M  V30 4015 O 404.408 2.05957 0.664137 0
M  V30 4016 C 405.003 2.07653 -2.67705 0
M  V30 4017 C 403.562 2.61141 -2.71076 0
M  V30 4018 C 402.709 1.3748 -2.40821 0
M  V30 4019 H 405.66 0.345917 -1.54884 0
M  V30 4020 H 405.681 2.91497 -2.44561 0
M  V30 4021 H 405.193 1.4889 -3.58404 0
M  V30 4022 H 403.294 3.23707 -1.84511 0
M  V30 4023 H 403.407 3.02272 -3.7171 0
M  V30 4024 H 401.771 1.68086 -1.91362 0
M  V30 4025 H 402.554 0.805135 -3.33725 0
M  V30 4026 N 404.999 1.35443 0.805782 0
M  V30 4027 C 406.41 1.25768 1.37983 0
M  V30 4028 C 406.761 -0.10958 1.95894 0
M  V30 4029 O 405.886 -1.01056 1.91355 0
M  V30 4030 C 406.481 2.27727 2.5085 0
M  V30 4031 C 405.04 2.2179 3.04115 0
M  V30 4032 C 404.187 2.13393 1.77084 0
M  V30 4033 H 407.138 1.4656 0.608752 0
M  V30 4034 H 407.159 1.90422 3.29424 0
M  V30 4035 H 406.671 3.27227 2.08671 0
M  V30 4036 H 404.772 1.25703 3.50756 0
M  V30 4037 H 404.885 3.13788 3.62042 0
M  V30 4038 H 403.249 1.59384 1.98668 0
M  V30 4039 H 404.032 3.14755 1.37056 0
M  V30 4040 N 406.477 -1.02803 1.19454 0
M  V30 4041 C 407.44 -2.09264 0.934955 0
M  V30 4042 C 408.44 -1.60576 -0.0849015 0
M  V30 4043 O 409.63 -1.73554 0.149933 0
M  V30 4044 C 406.762 -3.38482 0.40531 0
M  V30 4045 H 407.955 -2.33726 1.87916 0
M  V30 4046 H 405.508 -1.19426 1.00832 0
M  V30 4047 H 406.243 -3.19689 -0.544899 0
M  V30 4048 H 406.028 -3.75142 1.14065 0
M  V30 4049 H 407.518 -4.16894 0.242806 0
M  V30 4050 N 407.956 -0.998596 -1.21925 0
M  V30 4051 C 409.202 -0.678667 -1.91107 0
M  V30 4052 C 409.535 0.78791 -1.77498 0
M  V30 4053 O 408.81 1.57043 -1.1475 0
M  V30 4054 C 409.093 -1.09245 -3.43129 0
M  V30 4055 C 408.946 -2.61801 -3.6576 0
M  V30 4056 C 410.265 -0.649984 -4.35274 0
M  V30 4057 H 407.384 -0.248025 -0.694012 0
M  V30 4058 H 410.026 -1.24314 -1.43688 0
M  V30 4059 H 408.176 -0.612171 -3.83647 0
M  V30 4060 H 409.848 -3.17543 -3.34611 0
M  V30 4061 H 408.091 -3.03609 -3.09845 0
M  V30 4062 H 408.762 -2.85804 -4.7225 0
M  V30 4063 H 411.238 -1.0626 -4.02303 0
M  V30 4064 H 410.114 -0.967743 -5.40302 0
M  V30 4065 H 410.375 0.449139 -4.39813 0
M  V30 4066 N 409.434 1.37368 -0.772513 0
M  V30 4067 C 410.85 1.53059 -0.452231 0
M  V30 4068 C 411.05 1.73065 1.03203 0
M  V30 4069 O 410.106 1.75245 1.81784 0
M  V30 4070 C 411.419 2.72659 -1.26797 0
M  V30 4071 C 412.967 2.86521 -1.25995 0
M  V30 4072 C 413.442 4.09105 -2.05905 0
M  V30 4073 N 414.933 4.16219 -2.03263 0
M  V30 4074 C 415.668 5.10107 -2.61875 0
M  V30 4075 N 415.164 6.09547 -3.29278 0
M  V30 4076 N 416.957 5.02596 -2.51701 0
M  V30 4077 H 409.108 1.22634 -1.7342 0
M  V30 4078 H 411.371 0.597206 -0.736239 0
M  V30 4079 H 411.077 2.64343 -2.31982 0
M  V30 4080 H 410.951 3.66363 -0.897672 0
M  V30 4081 H 413.338 2.94308 -0.216081 0
M  V30 4082 H 413.419 1.93774 -1.66989 0
M  V30 4083 H 413.063 4.0208 -3.10313 0
M  V30 4084 H 412.993 5.00968 -1.62292 0
M  V30 4085 H 415.484 3.45012 -1.54192 0
M  V30 4086 H 415.797 6.77718 -3.71374 0
M  V30 4087 H 414.142 6.09824 -3.33377 0
M  V30 4088 H 417.333 4.23855 -1.98657 0
M  V30 4089 H 417.506 5.75582 -2.97673 0
M  V30 4090 N 410.912 0.523116 1.48665 0
M  V30 4091 C 412.323 0.0808997 1.86525 0
M  V30 4092 C 412.674 -1.33975 1.43336 0
M  V30 4093 O 411.799 -2.00221 0.821009 0
M  V30 4094 C 412.394 0.140037 3.3851 0
M  V30 4095 C 410.953 -0.246948 3.75589 0
M  V30 4096 C 410.1 0.502845 2.72703 0
M  V30 4097 H 413.051 0.734736 1.40667 0
M  V30 4098 H 413.072 -0.649945 3.74908 0
M  V30 4099 H 412.584 1.17412 3.69914 0
M  V30 4100 H 410.685 -1.28343 3.49798 0
M  V30 4101 H 410.798 0.0878859 4.79019 0
M  V30 4102 H 409.162 -0.0500581 2.54651 0
M  V30 4103 H 409.945 1.53743 3.0695 0
M  V30 4104 N 412.39 -1.55475 0.257931 0
M  V30 4105 C 413.618 -2.03609 -0.367559 0
M  V30 4106 C 414.033 -1.13687 -1.50734 0
M  V30 4107 O 413.39 -0.153479 -1.81853 0
M  V30 4108 C 413.441 -3.51001 -0.864908 0
M  V30 4109 O 413.162 -4.37499 0.229465 0
M  V30 4110 C 414.663 -4.14946 -1.55997 0
M  V30 4111 H 411.883 -0.665459 -0.0860521 0
M  V30 4112 H 414.427 -2.00843 0.385014 0
M  V30 4113 H 412.582 -3.54266 -1.56762 0
M  V30 4114 H 412.996 -5.24286 -0.14998 0
M  V30 4115 H 414.47 -5.19735 -1.85956 0
M  V30 4116 H 414.947 -3.6209 -2.4857 0
M  V30 4117 H 415.553 -4.15635 -0.901543 0
M  V30 4118 N 413.868 0.0150385 -1.57593 0
M  V30 4119 C 415.279 0.559832 -1.78109 0
M  V30 4120 C 415.63 1.74814 -0.890756 0
M  V30 4121 O 414.755 2.16216 -0.0892482 0
M  V30 4122 C 415.35 1.02238 -3.23006 0
M  V30 4123 C 413.909 1.51258 -3.44671 0
M  V30 4124 C 413.056 0.456955 -2.73509 0
M  V30 4125 H 416.007 -0.211169 -1.57289 0
M  V30 4126 H 416.028 1.88912 -3.30292 0
M  V30 4127 H 415.54 0.157302 -3.87781 0
M  V30 4128 H 413.641 2.39905 -2.8509 0
M  V30 4129 H 413.754 1.55042 -4.5332 0
M  V30 4130 H 412.118 0.915196 -2.37689 0
M  V30 4131 H 412.901 -0.398896 -3.40975 0
M  V30 4132 N 415.346 1.54954 0.287554 0
M  V30 4133 C 416.586 1.76617 1.02887 0
M  V30 4134 C 416.95 0.547759 1.84021 0
M  V30 4135 O 418.151 0.642365 2.61012 0
M  V30 4136 C 416.422 3.02717 1.89993 0
M  V30 4137 S 417.981 3.45438 2.70588 0
M  V30 4138 H 414.799 0.6207 0.346775 0
M  V30 4139 H 417.401 1.93172 0.30082 0
M  V30 4140 H 416.105 3.89503 1.29287 0
M  V30 4141 H 415.636 2.88787 2.67144 0
M  V30 4142 H 417.651 3.03566 3.92508 0
M  V30 4143 N 416.824 -0.551391 1.4764 0
M  V30 4144 C 417.787 -1.64007 1.60107 0
M  V30 4145 C 418.787 -1.53601 0.47576 0
M  V30 4146 O 419.977 -1.57655 0.740988 0
M  V30 4147 C 417.109 -3.03569 1.55108 0
M  V30 4148 H 418.302 -1.543 2.57161 0
M  V30 4149 H 415.855 -0.771776 1.35917 0
M  V30 4150 H 416.59 -3.18804 0.594519 0
M  V30 4151 H 416.375 -3.12532 2.36783 0
M  V30 4152 H 417.865 -3.82762 1.66982 0
M  V30 4153 N 418.302 -1.35869 -0.798587 0
M  V30 4154 C 419.713 -1.26498 -1.37314 0
M  V30 4155 C 420.064 0.0991899 -1.95949 0
M  V30 4156 O 419.189 1.0004 -1.91888 0
M  V30 4157 C 419.784 -2.29054 -2.49639 0
M  V30 4158 C 418.343 -2.234 -3.02935 0
M  V30 4159 C 417.49 -2.14329 -1.75949 0
M  V30 4160 H 420.441 -1.46881 -0.600971 0
M  V30 4161 H 420.462 -1.92166 -3.28409 0
M  V30 4162 H 419.974 -3.2833 -2.06933 0
M  V30 4163 H 418.075 -1.27562 -3.50084 0
M  V30 4164 H 418.188 -3.15703 -3.60372 0
M  V30 4165 H 416.552 -1.60435 -1.9782 0
M  V30 4166 H 417.335 -3.15477 -1.35384 0
M  V30 4167 N 419.78 1.02168 -1.19998 0
M  V30 4168 C 420.71 2.12488 -0.96804 0
M  V30 4169 C 421.691 1.69799 0.101185 0
M  V30 4170 O 422.876 1.94121 -0.0552993 0
M  V30 4171 C 420.006 3.43479 -0.513776 0
M  V30 4172 C 418.96 3.99884 -1.52566 0
M  V30 4173 C 418.286 5.26582 -0.928214 0
M  V30 4174 C 419.586 4.33861 -2.90795 0
M  V30 4175 H 421.28 2.32149 -1.89069 0
M  V30 4176 H 418.826 1.11564 -0.910468 0
M  V30 4177 H 420.779 4.20036 -0.338774 0
M  V30 4178 H 419.503 3.23561 0.444493 0
M  V30 4179 H 418.162 3.25429 -1.68794 0
M  V30 4180 H 417.81 5.02986 0.0378289 0
M  V30 4181 H 417.51 5.65284 -1.60397 0
M  V30 4182 H 419.034 6.05799 -0.764167 0
M  V30 4183 H 420.448 5.01327 -2.78109 0
M  V30 4184 H 418.845 4.83664 -3.55231 0
M  V30 4185 H 419.915 3.42848 -3.42904 0
M  V30 4186 N 421.258 1.00505 1.21394 0
M  V30 4187 C 422.221 0.570459 2.21987 0
M  V30 4188 C 423.221 -0.353211 1.56873 0
M  V30 4189 O 424.411 -0.14349 1.73608 0
M  V30 4190 C 421.543 -0.168555 3.40483 0
M  V30 4191 H 422.736 1.46021 2.6195 0
M  V30 4192 H 420.289 0.793565 1.34656 0
M  V30 4193 H 421.024 -1.07374 3.06009 0
M  V30 4194 H 420.809 0.494823 3.88965 0
M  V30 4195 H 422.299 -0.460362 4.15055 0
M  V30 4196 N 422.737 -1.36956 0.779787 0
M  V30 4197 C 423.647 -2.33965 0.172491 0
M  V30 4198 C 424.663 -1.60574 -0.670222 0
M  V30 4199 O 425.839 -1.92617 -0.588263 0
M  V30 4200 C 422.904 -3.39761 -0.690173 0
M  V30 4201 C 421.965 -4.28964 0.169924 0
M  V30 4202 C 421.198 -5.29707 -0.651662 0
M  V30 4203 O 421.421 -5.38238 -1.88827 0
M  V30 4204 O 420.355 -6.01873 -0.0566264 0
M  V30 4205 H 424.181 -2.87647 0.974321 0
M  V30 4206 H 421.766 -1.39258 0.541078 0
M  V30 4207 H 423.648 -4.04471 -1.1824 0
M  V30 4208 H 422.323 -2.88394 -1.47006 0
M  V30 4209 H 421.23 -3.67326 0.708696 0
M  V30 4210 H 422.563 -4.83656 0.913085 0
M  V30 4211 N 424.215 -0.530993 -1.48385 0
M  V30 4212 C 425.455 0.000718982 -2.044 0
M  V30 4213 C 425.819 1.31485 -1.39913 0
M  V30 4214 O 427.02 1.93265 -1.86821 0
M  V30 4215 C 425.291 0.119177 -3.57201 0
M  V30 4216 S 426.85 0.600806 -4.34667 0
M  V30 4217 H 423.668 -0.0125473 -0.710889 0
M  V30 4218 H 426.27 -0.711783 -1.82082 0
M  V30 4219 H 424.974 -0.842061 -4.01668 0
M  V30 4220 H 424.505 0.856026 -3.83974 0
M  V30 4221 H 426.52 1.86514 -4.59812 0
M  V30 4222 N 425.693 1.55336 -0.266172 0
M  V30 4223 C 426.64 2.22172 0.625165 0
M  V30 4224 C 427.61 1.19211 1.15663 0
M  V30 4225 O 428.795 1.47723 1.20758 0
M  V30 4226 C 425.935 2.93972 1.8076 0
M  V30 4227 C 425.048 4.11632 1.31084 0
M  V30 4228 C 424.183 4.71099 2.45436 0
M  V30 4229 C 423.222 5.8097 1.92718 0
M  V30 4230 N 422.359 6.34538 3.00509 0
M  V30 4231 H 427.199 2.9796 0.0485582 0
M  V30 4232 H 424.736 1.47095 0.0122024 0
M  V30 4233 H 426.694 3.33811 2.50251 0
M  V30 4234 H 425.324 2.20623 2.35638 0
M  V30 4235 H 424.376 3.76975 0.509326 0
M  V30 4236 H 425.688 4.90893 0.884633 0
M  V30 4237 H 424.842 5.13612 3.22936 0
M  V30 4238 H 423.581 3.91096 2.91368 0
M  V30 4239 H 422.586 5.37916 1.13695 0
M  V30 4240 H 423.811 6.62836 1.47733 0
M  V30 4241 H 421.757 5.57433 3.45839 0
M  V30 4242 H 421.674 7.09046 2.62279 0
M  V30 4243 H 422.942 6.81709 3.78011 0
M  V30 4244 N 427.171 -0.0066808 1.57599 0
M  V30 4245 C 428.419 -0.691552 1.899 0
M  V30 4246 C 428.74 -1.74682 0.866672 0
M  V30 4247 O 428.01 -1.95661 -0.0968189 0
M  V30 4248 H 426.59 -0.258416 0.700878 0
M  V30 4249 H 429.252 0.0326655 1.94873 0
M  V30 4250 H 428.348 -1.16702 2.8946 0
M  V30 4251 N 428.649 -1.55105 -0.279332 0
M  V30 4252 C 429.874 -1.7976 -1.03446 0
M  V30 4253 C 430.299 -0.565952 -1.79384 0
M  V30 4254 O 429.657 0.484259 -1.74713 0
M  V30 4255 C 429.705 -3.0179 -1.97371 0
M  V30 4256 O 428.809 -2.76432 -3.06038 0
M  V30 4257 H 428.15 -0.594334 -0.29608 0
M  V30 4258 H 430.68 -2.02235 -0.310165 0
M  V30 4259 H 430.69 -3.30351 -2.39441 0
M  V30 4260 H 429.365 -3.91085 -1.4151 0
M  V30 4261 H 427.942 -2.58949 -2.68328 0
M  V30 4262 N 430.127 0.543554 -1.4793 0
M  V30 4263 C 431.057 1.65888 -1.64327 0
M  V30 4264 C 432.038 1.62818 -0.492383 0
M  V30 4265 O 433.223 1.80226 -0.723338 0
M  V30 4266 C 430.353 3.04506 -1.67013 0
M  V30 4267 C 429.307 3.2243 -2.81466 0
M  V30 4268 C 428.633 4.61972 -2.69233 0
M  V30 4269 C 429.933 3.06496 -4.22915 0
M  V30 4270 H 431.627 1.52421 -2.57698 0
M  V30 4271 H 429.173 0.731849 -1.24016 0
M  V30 4272 H 431.126 3.82391 -1.77074 0
M  V30 4273 H 429.85 3.18964 -0.70212 0
M  V30 4274 H 428.509 2.46957 -2.70938 0
M  V30 4275 H 428.157 4.73247 -1.7043 0
M  V30 4276 H 427.857 4.74911 -3.46025 0
M  V30 4277 H 429.381 5.41974 -2.81242 0
M  V30 4278 H 430.795 3.74186 -4.34348 0
M  V30 4279 H 429.192 3.30938 -5.006 0
M  V30 4280 H 430.262 2.03077 -4.40327 0
M  V30 4281 N 431.605 1.3629 0.791371 0
M  V30 4282 C 432.535 1.33137 1.91825 0
M  V30 4283 C 433.516 0.203168 1.68882 0
M  V30 4284 O 434.701 0.400509 1.90025 0
M  V30 4285 C 431.831 1.11793 3.28816 0
M  V30 4286 C 430.785 2.21417 3.66277 0
M  V30 4287 C 430.111 1.85218 5.01596 0
M  V30 4288 C 431.411 3.63489 3.75064 0
M  V30 4289 H 433.105 2.2743 1.9472 0
M  V30 4290 H 430.651 1.09479 0.935437 0
M  V30 4291 H 432.604 1.08222 4.07266 0
M  V30 4292 H 431.328 0.139501 3.26302 0
M  V30 4293 H 429.987 2.2411 2.90121 0
M  V30 4294 H 429.635 0.859544 4.95602 0
M  V30 4295 H 429.335 2.58611 5.27631 0
M  V30 4296 H 430.859 1.832 5.82469 0
M  V30 4297 H 432.273 3.63034 4.43711 0
M  V30 4298 H 430.67 4.35771 4.12582 0
M  V30 4299 H 431.74 3.98536 2.76219 0
M  V30 4300 N 433.083 -1.0153 1.20538 0
M  V30 4301 C 434.36 -1.72327 0.925343 0
M  V30 4302 C 434.74 -2.03383 -0.565547 0
M  V30 4303 O 434.088 -1.69934 -1.52757 0
M  V30 4304 C 434.298 -2.9902 1.79967 0
M  V30 4305 C 435.646 -3.72258 2.04228 0
M  V30 4306 O 436.67 -3.08979 1.77231 0
M  V30 4307 O 435.529 -4.86053 2.4983 0
M  V30 4308 H 432.623 -0.751099 0.346092 0
M  V30 4309 H 435.169 -1.07366 1.31417 0
M  V30 4310 H 433.941 -2.72402 2.80915 0
M  V30 4311 H 433.564 -3.71721 1.41099 0
M  V30 4312 N 434.561 -1.01147 -1.20859 0
M  V30 4313 C 435.838 -0.613136 -1.85742 0
M  V30 4314 C 436.218 0.909004 -1.90526 0
M  V30 4315 O 435.566 1.79862 -1.40932 0
M  V30 4316 C 435.776 -1.255 -3.25654 0
M  V30 4317 C 437.124 -1.3672 -4.01986 0
M  V30 4318 O 438.148 -1.21082 -3.34989 0
M  V30 4319 O 437.007 -1.6194 -5.21956 0
M  V30 4320 H 434.101 -0.210878 -0.799662 0
M  V30 4321 H 436.647 -1.10853 -1.2849 0
M  V30 4322 H 435.419 -2.29532 -3.16908 0
M  V30 4323 H 435.042 -0.746369 -3.90532 0
M  V30 4324 N 436.039 1.36541 -0.78704 0
M  V30 4325 C 437.264 2.0409 -0.369053 0
M  V30 4326 C 437.689 1.58957 1.00569 0
M  V30 4327 O 437.047 0.756926 1.64743 0
M  V30 4328 C 437.095 3.57924 -0.438466 0
M  V30 4329 O 436.199 4.08642 0.555479 0
M  V30 4330 H 435.54 0.645142 -0.157122 0
M  V30 4331 H 438.07 1.74545 -1.06749 0
M  V30 4332 H 438.08 4.06887 -0.301218 0
M  V30 4333 H 436.755 3.90127 -1.44132 0
M  V30 4334 H 435.332 3.70958 0.380088 0
M  V30 4335 N 437.518 0.538854 1.48102 0
M  V30 4336 C 438.481 -0.208395 2.28251 0
M  V30 4337 C 439.481 -0.859656 1.35892 0
M  V30 4338 O 440.671 -0.71834 1.58699 0
M  V30 4339 C 437.803 -1.30252 3.15035 0
M  V30 4340 H 438.996 0.495407 2.9578 0
M  V30 4341 H 436.549 0.295112 1.53489 0
M  V30 4342 H 437.284 -2.0393 2.52157 0
M  V30 4343 H 437.069 -0.840551 3.82985 0
M  V30 4344 H 438.559 -1.82787 3.75471 0
M  V30 4345 N 438.996 -1.55193 0.274407 0
M  V30 4346 C 440.244 -1.99187 -0.341902 0
M  V30 4347 C 440.565 -1.16422 -1.56431 0
M  V30 4348 O 439.835 -0.253573 -1.94252 0
M  V30 4349 H 438.415 -0.735721 -0.129317 0
M  V30 4350 H 441.077 -1.91168 0.379578 0
M  V30 4351 H 440.173 -3.05629 -0.632253 0
M  V30 4352 N 440.474 -0.00167713 -1.576 0
M  V30 4353 C 441.421 0.989195 -2.08527 0
M  V30 4354 C 442.391 1.34031 -0.981065 0
M  V30 4355 O 443.576 1.43839 -1.2536 0
M  V30 4356 C 440.716 2.27537 -2.59463 0
M  V30 4357 C 439.829 1.98314 -3.83791 0
M  V30 4358 C 438.964 3.21025 -4.23222 0
M  V30 4359 C 438.003 2.87495 -5.40382 0
M  V30 4360 N 437.14 4.02749 -5.75098 0
M  V30 4361 H 441.98 0.547973 -2.92919 0
M  V30 4362 H 439.517 0.258917 -1.44803 0
M  V30 4363 H 441.475 3.02729 -2.87073 0
M  V30 4364 H 440.105 2.69325 -1.77943 0
M  V30 4365 H 439.157 1.13482 -3.63078 0
M  V30 4366 H 440.469 1.69601 -4.69081 0
M  V30 4367 H 439.623 4.04561 -4.52123 0
M  V30 4368 H 438.362 3.52877 -3.36644 0
M  V30 4369 H 437.367 2.02367 -5.11202 0
M  V30 4370 H 438.592 2.56889 -6.28637 0
M  V30 4371 H 436.538 4.34494 -4.91478 0
M  V30 4372 H 436.455 3.77566 -6.54966 0
M  V30 4373 H 437.723 4.87068 -6.08592 0
M  V30 4374 N 441.952 1.55251 0.271103 0
M  V30 4375 C 443.177 1.80306 1.02491 0
M  V30 4376 C 443.602 0.575457 1.79081 0
M  V30 4377 O 442.96 -0.474987 1.74967 0
M  V30 4378 C 443.008 3.02832 1.95768 0
M  V30 4379 O 442.112 2.78051 3.04568 0
M  V30 4380 H 441.453 0.595896 0.292923 0
M  V30 4381 H 443.983 2.02397 0.299436 0
M  V30 4382 H 443.993 3.31616 2.37686 0
M  V30 4383 H 442.668 3.9183 1.39434 0
M  V30 4384 H 441.245 2.60369 2.66951 0
M  V30 4385 N 443.43 -0.535701 1.48216 0
M  V30 4386 C 444.658 -1.31671 1.59594 0
M  V30 4387 C 445.073 -1.87083 0.254056 0
M  V30 4388 O 444.43 -1.66112 -0.755854 0
M  V30 4389 C 444.481 -2.47158 2.63809 0
M  V30 4390 O 444.202 -1.94032 3.92789 0
M  V30 4391 C 445.703 -3.39062 2.85573 0
M  V30 4392 H 442.923 -0.400623 0.538277 0
M  V30 4393 H 445.467 -0.646827 1.94001 0
M  V30 4394 H 443.622 -3.10043 2.32276 0
M  V30 4395 H 444.036 -2.69585 4.49916 0
M  V30 4396 H 445.51 -4.16459 3.62306 0
M  V30 4397 H 445.987 -3.93941 1.94184 0
M  V30 4398 H 446.593 -2.81975 3.18387 0
M  V30 4399 N 444.908 -1.36708 -0.784132 0
M  V30 4400 C 445.818 -1.3363 -1.92822 0
M  V30 4401 C 446.834 -0.237686 -1.72369 0
M  V30 4402 O 448.01 -0.470962 -1.95816 0
M  V30 4403 C 445.075 -1.13011 -3.27764 0
M  V30 4404 C 444.136 -2.32397 -3.60957 0
M  V30 4405 C 443.369 -2.12752 -4.89461 0
M  V30 4406 O 443.592 -1.10541 -5.59586 0
M  V30 4407 O 442.526 -3.00653 -5.21432 0
M  V30 4408 H 446.352 -2.29964 -1.98369 0
M  V30 4409 H 443.937 -1.1731 -0.925136 0
M  V30 4410 H 445.819 -1.03451 -4.08504 0
M  V30 4411 H 444.494 -0.19743 -3.23097 0
M  V30 4412 H 443.401 -2.47527 -2.80502 0
M  V30 4413 H 444.734 -3.2419 -3.70354 0
M  V30 4414 N 446.386 1.0089 -1.21074 0
M  V30 4415 C 447.663 1.71834 -0.934469 0
M  V30 4416 C 448.043 2.0368 0.554753 0
M  V30 4417 O 447.391 1.70742 1.51854 0
M  V30 4418 C 447.601 2.98061 -1.8155 0
M  V30 4419 C 448.949 3.7117 -2.06199 0
M  V30 4420 O 449.973 3.08034 -1.78867 0
M  V30 4421 O 448.832 4.84721 -2.52404 0
M  V30 4422 H 445.926 0.749253 -0.35007 0
M  V30 4423 H 448.472 1.06668 -1.31985 0
M  V30 4424 H 447.244 2.70908 -2.82355 0
M  V30 4425 H 446.867 3.70968 -1.43068 0
M  V30 4426 N 447.864 1.01787 1.20321 0
M  V30 4427 C 449.092 0.727194 1.937 0
M  V30 4428 C 449.507 -0.712305 1.74848 0
M  V30 4429 O 448.864 -1.48327 1.06327 0
M  V30 4430 C 448.915 1.05497 3.45764 0
M  V30 4431 O 448.636 2.43794 3.64 0
M  V30 4432 C 450.137 0.785534 4.36285 0
M  V30 4433 H 447.357 0.266939 0.615617 0
M  V30 4434 H 449.901 1.35939 1.52777 0
M  V30 4435 H 448.056 0.468158 3.84561 0
M  V30 4436 H 448.47 2.55656 4.57974 0
M  V30 4437 H 449.944 1.06495 5.4163 0
M  V30 4438 H 450.421 -0.280273 4.38305 0
M  V30 4439 H 451.027 1.35456 4.03152 0
M  V30 4440 N 449.342 -1.36122 0.79427 0
M  V30 4441 C 450.305 -2.28309 0.201889 0
M  V30 4442 C 451.305 -1.49041 -0.603603 0
M  V30 4443 O 452.495 -1.68964 -0.423888 0
M  V30 4444 C 449.627 -3.3321 -0.719978 0
M  V30 4445 H 450.82 -2.82208 1.01481 0
M  V30 4446 H 448.373 -1.45768 0.564037 0
M  V30 4447 H 449.108 -2.84475 -1.55706 0
M  V30 4448 H 448.893 -3.91835 -0.144266 0
M  V30 4449 H 450.383 -4.02044 -1.12916 0
M  V30 4450 N 450.82 -0.546701 -1.47814 0
M  V30 4451 C 451.73 0.21026 -2.33656 0
M  V30 4452 C 452.746 0.922413 -1.47538 0
M  V30 4453 O 453.922 0.893652 -1.80488 0
M  V30 4454 C 450.987 1.23348 -3.24016 0
M  V30 4455 C 450.048 0.529883 -4.26017 0
M  V30 4456 C 449.281 1.50435 -5.12059 0
M  V30 4457 O 449.504 2.73837 -5.00369 0
M  V30 4458 O 448.438 1.03459 -5.92942 0
M  V30 4459 H 452.264 -0.493605 -2.99662 0
M  V30 4460 H 449.849 -0.307427 -1.46203 0
M  V30 4461 H 451.731 1.82438 -3.79861 0
M  V30 4462 H 450.406 1.91945 -2.60651 0
M  V30 4463 H 449.313 -0.101948 -3.73961 0
M  V30 4464 H 450.646 -0.11445 -4.92067 0
M  V30 4465 N 452.299 1.55045 -0.282633 0
M  V30 4466 C 453.529 2.03872 0.334635 0
M  V30 4467 C 453.937 1.16018 1.49454 0
M  V30 4468 O 453.28 0.174449 1.8287 0
M  V30 4469 C 453.342 3.48791 0.870905 0
M  V30 4470 C 453.006 4.56715 -0.161338 0
M  V30 4471 C 454.003 5.10513 -0.983466 0
M  V30 4472 C 451.688 5.01417 -0.297745 0
M  V30 4473 C 453.682 6.07538 -1.92811 0
M  V30 4474 C 451.369 5.98265 -1.24586 0
M  V30 4475 C 452.367 6.51208 -2.05954 0
M  V30 4476 O 452.055 7.46162 -2.99162 0
M  V30 4477 H 451.787 0.671324 0.0793742 0
M  V30 4478 H 454.341 2.01169 -0.41473 0
M  V30 4479 H 452.571 3.48758 1.67047 0
M  V30 4480 H 454.26 3.80916 1.40207 0
M  V30 4481 H 455.026 4.76785 -0.888856 0
M  V30 4482 H 450.905 4.59849 0.325604 0
M  V30 4483 H 454.449 6.48787 -2.56363 0
M  V30 4484 H 450.346 6.31412 -1.34126 0
M  V30 4485 H 451.114 7.63903 -2.93929 0
M  V30 4486 N 453.777 0.010035 1.57597 0
M  V30 4487 C 455.002 -0.687021 1.95691 0
M  V30 4488 C 455.427 -1.65952 0.885519 0
M  V30 4489 O 454.785 -1.80633 -0.15543 0
M  V30 4490 C 454.833 -1.3864 3.32884 0
M  V30 4491 O 453.937 -2.50115 3.27897 0
M  V30 4492 H 453.278 -0.181989 0.638573 0
M  V30 4493 H 455.808 0.0662122 2.04493 0
M  V30 4494 H 455.818 -1.74754 3.6868 0
M  V30 4495 H 454.493 -0.673411 4.10412 0
M  V30 4496 H 453.07 -2.16253 3.03791 0
M  V30 4497 N 455.255 -1.55392 -0.262866 0
M  V30 4498 C 456.666 -1.67079 -0.833158 0
M  V30 4499 C 457.017 -0.604539 -1.86654 0
M  V30 4500 O 456.142 0.252138 -2.14926 0
M  V30 4501 C 456.737 -3.02891 -1.51797 0
M  V30 4502 C 455.296 -3.16571 -2.03617 0
M  V30 4503 C 454.443 -2.62909 -0.881701 0
M  V30 4504 H 457.394 -1.58652 -0.0389986 0
M  V30 4505 H 457.415 -2.96445 -2.38538 0
M  V30 4506 H 456.927 -3.80473 -0.765619 0
M  V30 4507 H 455.028 -2.43782 -2.81782 0
M  V30 4508 H 455.141 -4.23271 -2.24452 0
M  V30 4509 H 453.505 -2.20324 -1.27786 0
M  V30 4510 H 454.288 -3.43003 -0.14269 0
M  V30 4511 N 456.733 0.527833 -1.48498 0
M  V30 4512 C 457.98 1.28354 -1.56625 0
M  V30 4513 C 458.308 1.93 -0.241096 0
M  V30 4514 O 457.563 1.79967 0.768798 0
M  V30 4515 C 457.862 2.39275 -2.65485 0
M  V30 4516 C 457.528 1.92268 -4.07853 0
M  V30 4517 C 456.19 1.79166 -4.46602 0
M  V30 4518 C 458.542 1.56771 -4.97064 0
M  V30 4519 C 455.87 1.28905 -5.72364 0
M  V30 4520 C 458.222 1.07972 -6.23318 0
M  V30 4521 C 456.886 0.934887 -6.60921 0
M  V30 4522 H 456.156 0.469682 -0.573131 0
M  V30 4523 H 458.803 0.588781 -1.82224 0
M  V30 4524 H 457.108 3.1443 -2.33754 0
M  V30 4525 H 458.805 2.974 -2.68988 0
M  V30 4526 H 455.395 2.03417 -3.77252 0
M  V30 4527 H 459.579 1.65753 -4.67803 0
M  V30 4528 H 454.835 1.16381 -6.00221 0
M  V30 4529 H 459.009 0.795775 -6.91838 0
M  V30 4530 H 456.636 0.543231 -7.58257 0
M  V30 4531 N 458.211 1.37122 0.776871 0
M  V30 4532 C 459.158 1.3247 1.88998 0
M  V30 4533 C 460.128 0.191143 1.64997 0
M  V30 4534 O 461.313 0.379683 1.86984 0
M  V30 4535 C 458.453 1.13241 3.25992 0
M  V30 4536 C 457.566 2.35782 3.61982 0
M  V30 4537 C 456.701 2.09465 4.88158 0
M  V30 4538 C 455.74 3.279 5.16864 0
M  V30 4539 N 454.877 3.01167 6.34226 0
M  V30 4540 H 459.717 2.27642 1.9231 0
M  V30 4541 H 457.254 1.13125 0.94027 0
M  V30 4542 H 459.212 1.00115 4.0501 0
M  V30 4543 H 457.842 0.217186 3.22069 0
M  V30 4544 H 456.894 2.59666 2.77989 0
M  V30 4545 H 458.206 3.24125 3.79137 0
M  V30 4546 H 457.36 1.93341 5.75069 0
M  V30 4547 H 456.099 1.18452 4.73097 0
M  V30 4548 H 455.104 3.44569 4.2843 0
M  V30 4549 H 456.329 4.19757 5.33836 0
M  V30 4550 H 454.275 2.12779 6.20533 0
M  V30 4551 H 454.192 3.83052 6.51772 0
M  V30 4552 H 455.46 2.88649 7.24087 0
M  V30 4553 N 459.689 -1.00246 1.21608 0
M  V30 4554 C 460.937 -1.73717 1.0328 0
M  V30 4555 C 461.258 -1.90102 -0.434318 0
M  V30 4556 O 460.528 -1.45376 -1.31311 0
M  V30 4557 H 459.108 -0.643613 0.379172 0
M  V30 4558 H 461.77 -1.20787 1.52959 0
M  V30 4559 H 460.866 -2.73535 1.50283 0
M  V30 4560 N 461.167 -1.02423 -1.1978 0
M  V30 4561 C 462.415 -0.716569 -1.8897 0
M  V30 4562 C 462.736 0.756769 -1.79716 0
M  V30 4563 O 462.006 1.5449 -1.20456 0
M  V30 4564 H 460.586 -0.262062 -0.699523 0
M  V30 4565 H 463.248 -1.29747 -1.45436 0
M  V30 4566 H 462.344 -1.00675 -2.95417 0
M  V30 4567 N 462.645 1.35699 -0.801477 0
M  V30 4568 C 463.875 2.02862 -0.3912 0
M  V30 4569 C 464.283 1.60552 1.00099 0
M  V30 4570 O 463.626 0.796215 1.65548 0
M  V30 4571 C 463.688 3.57386 -0.389299 0
M  V30 4572 C 463.352 4.22943 -1.73113 0
M  V30 4573 C 464.349 4.44984 -2.68859 0
M  V30 4574 C 462.034 4.60167 -2.01373 0
M  V30 4575 C 464.028 5.03345 -3.91053 0
M  V30 4576 C 461.715 5.18243 -3.23832 0
M  V30 4577 C 462.713 5.39773 -4.1849 0
M  V30 4578 O 462.401 5.96626 -5.38788 0
M  V30 4579 H 462.133 0.657341 -0.157732 0
M  V30 4580 H 464.687 1.74407 -1.08496 0
M  V30 4581 H 462.917 3.85011 0.361031 0
M  V30 4582 H 464.606 4.059 -0.0020365 0
M  V30 4583 H 465.372 4.1661 -2.48316 0
M  V30 4584 H 461.251 4.42726 -1.28508 0
M  V30 4585 H 464.795 5.20065 -4.64949 0
M  V30 4586 H 460.692 5.46044 -3.44248 0
M  V30 4587 H 461.46 6.15082 -5.40015 0
M  V30 4588 N 464.123 0.554532 1.47522 0
M  V30 4589 C 465.351 0.034257 2.06872 0
M  V30 4590 C 465.766 -1.25826 1.40759 0
M  V30 4591 O 465.123 -1.75425 0.503217 0
M  V30 4592 C 465.174 -0.167827 3.6111 0
M  V30 4593 O 464.895 1.07351 4.24744 0
M  V30 4594 C 466.396 -0.72569 4.3732 0
M  V30 4595 H 463.616 0.0446275 0.669514 0
M  V30 4596 H 466.16 0.767181 1.89564 0
M  V30 4597 H 464.315 -0.850872 3.7794 0
M  V30 4598 H 464.729 0.869563 5.17242 0
M  V30 4599 H 466.203 -0.816394 5.45929 0
M  V30 4600 H 466.68 -1.73635 4.0342 0
M  V30 4601 H 467.286 -0.0784292 4.25228 0
M  V30 4602 N 465.601 -1.54893 0.290851 0
M  V30 4603 C 466.548 -2.23138 -0.58974 0
M  V30 4604 C 467.518 -1.21036 -1.13752 0
M  V30 4605 O 468.703 -1.49626 -1.18392 0
M  V30 4606 C 465.843 -2.96811 -1.76061 0
M  V30 4607 C 464.956 -4.13665 -1.24519 0
M  V30 4608 C 464.091 -4.74944 -2.3791 0
M  V30 4609 C 463.13 -5.83963 -1.83451 0
M  V30 4610 N 462.267 -6.39239 -2.90376 0
M  V30 4611 H 467.107 -2.98 -0.00114915 0
M  V30 4612 H 464.644 -1.47096 0.0112006 0
M  V30 4613 H 466.602 -3.37751 -2.44909 0
M  V30 4614 H 465.232 -2.24344 -2.32098 0
M  V30 4615 H 464.284 -3.77737 -0.449288 0
M  V30 4616 H 465.596 -4.92238 -0.806424 0
M  V30 4617 H 464.75 -5.18684 -3.14724 0
M  V30 4618 H 463.489 -3.95682 -2.85109 0
M  V30 4619 H 462.494 -5.39657 -1.05122 0
M  V30 4620 H 463.719 -6.65103 -1.37169 0
M  V30 4621 H 461.665 -5.62864 -3.36927 0
M  V30 4622 H 461.582 -7.13129 -2.50965 0
M  V30 4623 H 462.85 -6.87637 -3.67118 0
M  V30 4624 N 467.08 -0.0183926 -1.57589 0
M  V30 4625 C 468.328 0.661253 -1.90976 0
M  V30 4626 C 468.649 1.73281 -0.894353 0
M  V30 4627 O 467.919 1.9579 0.0656788 0
M  V30 4628 H 466.499 0.247233 -0.704901 0
M  V30 4629 H 469.161 -0.0636639 -1.94796 0
M  V30 4630 H 468.257 1.12083 -2.9128 0
M  V30 4631 N 468.558 1.5553 0.254621 0
M  V30 4632 C 469.488 1.9268 1.31897 0
M  V30 4633 C 470.469 0.790797 1.506 0
M  V30 4634 O 471.654 1.05045 1.63337 0
M  V30 4635 C 468.784 2.21477 2.67517 0
M  V30 4636 C 467.738 3.37256 2.63519 0
M  V30 4637 C 467.064 3.51576 4.02862 0
M  V30 4638 C 468.364 4.73157 2.21179 0
M  V30 4639 H 470.058 2.81832 1.01051 0
M  V30 4640 H 467.604 1.35599 0.484662 0
M  V30 4641 H 469.557 2.46055 3.42104 0
M  V30 4642 H 468.281 1.29144 2.99982 0
M  V30 4643 H 466.94 3.12675 1.9139 0
M  V30 4644 H 466.588 2.56676 4.32581 0
M  V30 4645 H 466.288 4.2943 4.01078 0
M  V30 4646 H 467.812 3.78467 4.79161 0
M  V30 4647 H 469.226 4.97158 2.85494 0
M  V30 4648 H 467.623 5.54058 2.30521 0
M  V30 4649 H 468.693 4.70739 1.16332 0
M  V30 4650 N 470.036 -0.519951 1.48776 0
M  V30 4651 C 470.946 -1.65025 1.66745 0
M  V30 4652 C 471.962 -1.6508 0.549954 0
M  V30 4653 O 473.138 -1.83848 0.822295 0
M  V30 4654 C 470.203 -3.0146 1.71238 0
M  V30 4655 C 469.264 -3.12182 2.94688 0
M  V30 4656 C 468.497 -4.42109 2.98958 0
M  V30 4657 O 468.72 -5.29799 2.1135 0
M  V30 4658 O 467.654 -4.57406 3.91233 0
M  V30 4659 H 471.48 -1.52801 2.62461 0
M  V30 4660 H 469.065 -0.694157 1.32294 0
M  V30 4661 H 470.947 -3.82584 1.76657 0
M  V30 4662 H 469.622 -3.13988 0.786975 0
M  V30 4663 H 468.529 -2.30316 2.94797 0
M  V30 4664 H 469.862 -3.04574 3.86646 0
M  V30 4665 N 471.514 -1.37532 -0.769588 0
M  V30 4666 C 472.762 -1.32597 -1.5252 0
M  V30 4667 C 473.083 0.0884294 -1.94799 0
M  V30 4668 O 472.353 1.03289 -1.66458 0
M  V30 4669 H 470.933 -0.487846 -0.565699 0
M  V30 4670 H 473.595 -1.72044 -0.915806 0
M  V30 4671 H 472.691 -1.96643 -2.42359 0
M  V30 4672 N 472.992 0.995999 -1.22138 0
M  V30 4673 C 473.902 2.11985 -1.00496 0
M  V30 4674 C 474.918 1.7394 0.0457701 0
M  V30 4675 O 476.094 2.00868 -0.146273 0
M  V30 4676 C 473.159 3.41779 -0.582086 0
M  V30 4677 C 472.22 3.93943 -1.70608 0
M  V30 4678 C 471.453 5.17542 -1.30328 0
M  V30 4679 O 471.676 5.70114 -0.180743 0
M  V30 4680 O 470.61 5.63382 -2.11861 0
M  V30 4681 H 474.436 2.33123 -1.94647 0
M  V30 4682 H 472.021 1.10358 -1.00705 0
M  V30 4683 H 473.903 4.1989 -0.356467 0
M  V30 4684 H 472.578 3.22007 0.330592 0
M  V30 4685 H 471.485 3.17019 -1.98619 0
M  V30 4686 H 472.818 4.18141 -2.59651 0
M  V30 4687 N 474.47 1.03057 1.19235 0
M  V30 4688 C 475.695 0.74757 1.93458 0
M  V30 4689 C 476.12 -0.687648 1.7508 0
M  V30 4690 O 475.478 -1.47499 1.05422 0
M  V30 4691 C 475.526 1.10604 3.43219 0
M  V30 4692 O 474.63 0.225671 4.11782 0
M  V30 4693 H 473.971 0.276047 0.603899 0
M  V30 4694 H 476.501 1.3777 1.51263 0
M  V30 4695 H 476.511 1.06366 3.93891 0
M  V30 4696 H 475.186 2.15165 3.55917 0
M  V30 4697 H 473.763 0.326795 3.71465 0
M  V30 4698 N 475.948 -1.35272 0.808662 0
M  V30 4699 C 476.878 -2.32315 0.234981 0
M  V30 4700 C 477.859 -1.57572 -0.64071 0
M  V30 4701 O 479.044 -1.8563 -0.570551 0
M  V30 4702 C 476.174 -3.41801 -0.615601 0
M  V30 4703 C 475.128 -4.27694 0.161767 0
M  V30 4704 C 474.454 -5.28519 -0.810649 0
M  V30 4705 C 475.754 -5.04231 1.36193 0
M  V30 4706 H 477.448 -2.80543 1.04575 0
M  V30 4707 H 474.994 -1.3488 0.504315 0
M  V30 4708 H 476.947 -4.08693 -1.02702 0
M  V30 4709 H 475.671 -2.92186 -1.45928 0
M  V30 4710 H 474.33 -3.62384 0.554382 0
M  V30 4711 H 473.978 -4.75171 -1.64988 0
M  V30 4712 H 473.678 -5.8686 -0.294822 0
M  V30 4713 H 475.202 -5.98283 -1.22023 0
M  V30 4714 H 476.616 -5.64058 1.02528 0
M  V30 4715 H 475.013 -5.72077 1.81239 0
M  V30 4716 H 476.083 -4.34753 2.14751 0
M  V30 4717 N 477.426 -0.562348 -1.47226 0
M  V30 4718 C 478.674 -0.0401371 -2.0206 0
M  V30 4719 C 478.995 1.3165 -1.43852 0
M  V30 4720 O 478.265 1.85976 -0.615599 0
M  V30 4721 H 476.845 -0.0118479 -0.746906 0
M  V30 4722 H 479.507 -0.73352 -1.8057 0
M  V30 4723 H 478.603 0.0441254 -3.12069 0
M  V30 4724 N 478.904 1.54736 -0.299062 0
M  V30 4725 C 480.144 2.0201 0.31168 0
M  V30 4726 C 480.508 1.18281 1.5124 0
M  V30 4727 O 481.709 1.55243 2.19438 0
M  V30 4728 C 479.98 3.5123 0.661227 0
M  V30 4729 S 481.539 4.20467 1.2551 0
M  V30 4730 H 478.357 0.704523 0.0957517 0
M  V30 4731 H 480.959 1.90791 -0.426482 0
M  V30 4732 H 479.663 4.09804 -0.221171 0
M  V30 4733 H 479.194 3.66481 1.43023 0
M  V30 4734 H 481.209 4.26083 2.54298 0
M  V30 4735 N 480.382 0.0267497 1.57577 0
M  V30 4736 C 481.607 -0.666227 1.96408 0
M  V30 4737 C 482.032 -1.65004 0.903071 0
M  V30 4738 O 481.39 -1.80787 -0.136263 0
M  V30 4739 C 481.438 -1.35101 3.34335 0
M  V30 4740 O 480.542 -2.46623 3.30531 0
M  V30 4741 H 479.883 -0.175206 0.640468 0
M  V30 4742 H 482.413 0.0878977 2.04411 0
M  V30 4743 H 482.423 -1.70834 3.70513 0
M  V30 4744 H 481.098 -0.629844 4.11103 0
M  V30 4745 H 479.675 -2.13019 3.06068 0
M  V30 4746 N 481.861 -1.55662 -0.24637 0
M  V30 4747 C 483.109 -1.77168 -0.972411 0
M  V30 4748 C 483.43 -0.590827 -1.85834 0
M  V30 4749 O 482.7 0.393365 -1.9191 0
M  V30 4750 H 481.28 -0.653405 -0.362038 0
M  V30 4751 H 483.942 -1.93101 -0.264189 0
M  V30 4752 H 483.038 -2.68335 -1.59382 0
M  V30 4753 N 483.339 0.512053 -1.4905 0
M  V30 4754 C 484.564 1.2959 -1.6193 0
M  V30 4755 C 484.989 1.85906 -0.286454 0
M  V30 4756 O 484.347 1.65312 0.744426 0
M  V30 4757 C 484.395 2.40987 -2.68249 0
M  V30 4758 O 483.499 3.44531 -2.26654 0
M  V30 4759 H 482.84 0.383053 -0.542371 0
M  V30 4760 H 485.37 0.614231 -1.95162 0
M  V30 4761 H 485.38 2.86913 -2.90078 0
M  V30 4762 H 484.055 1.99361 -3.65004 0
M  V30 4763 H 482.632 3.046 -2.15112 0
M  V30 4764 N 484.817 1.37938 0.762283 0
M  V30 4765 C 485.78 1.34279 1.85747 0
M  V30 4766 C 486.78 0.244969 1.58923 0
M  V30 4767 O 487.97 0.501365 1.66829 0
M  V30 4768 C 485.102 1.08833 3.23061 0
M  V30 4769 H 486.295 2.31705 1.90401 0
M  V30 4770 H 483.848 1.23105 0.963057 0
M  V30 4771 H 484.583 0.119767 3.24079 0
M  V30 4772 H 484.368 1.88306 3.43923 0
M  V30 4773 H 485.858 1.08946 4.03138 0
M  V30 4774 N 486.295 -0.989507 1.22664 0
M  V30 4775 C 487.258 -2.06183 1.00106 0
M  V30 4776 C 488.258 -1.60765 -0.0337726 0
M  V30 4777 O 489.448 -1.72989 0.205072 0
M  V30 4778 C 486.58 -3.37021 0.51279 0
M  V30 4779 H 487.773 -2.27629 1.95256 0
M  V30 4780 H 485.326 -1.16158 1.0458 0
M  V30 4781 H 486.061 -3.21261 -0.442917 0
M  V30 4782 H 485.846 -3.71323 1.25942 0
M  V30 4783 H 487.336 -4.1591 0.375315 0
M  V30 4784 N 487.773 -1.03688 -1.18687 0
M  V30 4785 C 488.736 -0.629115 -2.20397 0
M  V30 4786 C 489.736 0.311495 -1.57754 0
M  V30 4787 O 490.926 0.0974107 -1.73927 0
M  V30 4788 C 488.058 0.0782231 -3.4081 0
M  V30 4789 H 489.251 -1.52915 -2.57987 0
M  V30 4790 H 486.804 -0.828988 -1.32505 0
M  V30 4791 H 487.539 0.992233 -3.08748 0
M  V30 4792 H 487.324 -0.597776 -3.87517 0
M  V30 4793 H 488.814 0.350156 -4.16129 0
M  V30 4794 N 489.251 1.34841 -0.815825 0
M  V30 4795 C 490.499 1.98107 -0.399744 0
M  V30 4796 C 490.82 1.65019 1.03894 0
M  V30 4797 O 490.09 0.937311 1.72021 0
M  V30 4798 H 488.67 0.732827 -0.144823 0
M  V30 4799 H 491.332 1.64599 -1.0437 0
M  V30 4800 H 490.428 3.07856 -0.512965 0
M  V30 4801 N 490.729 0.570148 1.46925 0
M  V30 4802 C 491.954 0.0542592 2.07329 0
M  V30 4803 C 492.379 -1.23582 1.41806 0
M  V30 4804 O 491.737 -1.74341 0.497479 0
M  V30 4805 C 491.785 -0.111175 3.60429 0
M  V30 4806 O 490.889 -1.17071 3.95434 0
M  V30 4807 H 490.23 0.0571425 0.661537 0
M  V30 4808 H 492.76 0.789516 1.88753 0
M  V30 4809 H 492.77 -0.321315 4.06733 0
M  V30 4810 H 491.445 0.831012 4.07513 0
M  V30 4811 H 490.022 -0.940029 3.60857 0
M  V30 4812 N 492.207 -1.54576 0.307264 0
M  V30 4813 C 493.432 -2.05139 -0.305379 0
M  V30 4814 C 493.857 -1.18278 -1.46259 0
M  V30 4815 O 493.215 -0.188243 -1.8032 0
M  V30 4816 C 493.263 -3.53066 -0.733283 0
M  V30 4817 O 492.367 -3.69206 -1.83741 0
M  V30 4818 H 491.708 -0.661444 -0.0582105 0
M  V30 4819 H 494.238 -1.99569 0.450931 0
M  V30 4820 H 494.248 -3.95034 -1.02039 0
M  V30 4821 H 492.923 -4.15746 0.113198 0
M  V30 4822 H 491.5 -3.39143 -1.55037 0
M  V30 4823 N 493.685 -0.035106 -1.57561 0
M  V30 4824 C 494.933 0.64096 -1.91667 0
M  V30 4825 C 495.254 1.72323 -0.912681 0
M  V30 4826 O 494.524 1.95849 0.0449089 0
M  V30 4827 H 493.104 0.239743 -0.707483 0
M  V30 4828 H 495.766 -0.084321 -1.94718 0
M  V30 4829 H 494.862 1.08987 -2.92452 0
M  V30 4830 N 495.163 1.55791 0.238111 0
M  V30 4831 C 496.391 1.82098 0.982233 0
M  V30 4832 C 496.806 0.612025 1.78605 0
M  V30 4833 O 496.163 -0.419381 1.77616 0
M  V30 4834 C 496.214 3.0673 1.91309 0
M  V30 4835 O 495.935 4.2296 1.14179 0
M  V30 4836 C 497.436 3.45903 2.77248 0
M  V30 4837 H 494.656 0.605748 0.288635 0
M  V30 4838 H 497.2 2.02862 0.258341 0
M  V30 4839 H 495.355 2.87991 2.59114 0
M  V30 4840 H 495.769 4.93653 1.7722 0
M  V30 4841 H 497.243 4.36189 3.38295 0
M  V30 4842 H 497.72 2.66891 3.48806 0
M  V30 4843 H 498.326 3.67024 2.14881 0
M  V30 4844 N 496.642 -0.504142 1.49319 0
M  V30 4845 C 497.572 -1.61473 1.68667 0
M  V30 4846 C 498.553 -1.61455 0.535378 0
M  V30 4847 O 499.738 -1.78245 0.770868 0
M  V30 4848 C 496.868 -2.99971 1.75028 0
M  V30 4849 C 495.822 -3.14854 2.89916 0
M  V30 4850 C 495.148 -4.54671 2.81387 0
M  V30 4851 C 496.448 -2.95176 4.30893 0
M  V30 4852 H 498.142 -1.45535 2.61648 0
M  V30 4853 H 495.688 -0.698711 1.25913 0
M  V30 4854 H 497.641 -3.77562 1.8715 0
M  V30 4855 H 496.365 -3.1699 0.786441 0
M  V30 4856 H 495.024 -2.39687 2.77391 0
M  V30 4857 H 494.672 -4.68562 1.82917 0
M  V30 4858 H 494.372 -4.6557 3.58494 0
M  V30 4859 H 495.896 -5.34327 2.95512 0
M  V30 4860 H 497.31 -3.62538 4.44116 0
M  V30 4861 H 495.707 -3.17549 5.09198 0
M  V30 4862 H 496.777 -1.91332 4.45556 0
M  V30 4863 N 498.12 -1.38341 -0.754957 0
M  V30 4864 C 499.03 -1.3769 -1.89944 0
M  V30 4865 C 500.046 -0.274194 -1.71826 0
M  V30 4866 O 501.222 -0.512391 -1.94773 0
M  V30 4867 C 498.287 -1.19938 -3.25293 0
M  V30 4868 C 497.348 -2.40001 -3.55946 0
M  V30 4869 C 496.581 -2.23087 -4.84838 0
M  V30 4870 O 496.804 -1.22386 -5.57116 0
M  V30 4871 O 495.738 -3.11646 -5.14937 0
M  V30 4872 H 499.564 -2.3412 -1.93446 0
M  V30 4873 H 497.149 -1.19246 -0.900044 0
M  V30 4874 H 499.031 -1.12093 -4.06218 0
M  V30 4875 H 497.706 -0.265919 -3.22606 0
M  V30 4876 H 496.613 -2.53421 -2.75188 0
M  V30 4877 H 497.946 -3.31973 -3.63394 0
M  V30 4878 N 499.598 0.982988 -1.23187 0
M  V30 4879 C 500.528 2.09301 -1.03515 0
M  V30 4880 C 501.509 1.70035 0.0471136 0
M  V30 4881 O 502.694 1.93847 -0.117029 0
M  V30 4882 C 499.824 3.4167 -0.622791 0
M  V30 4883 C 498.778 3.94828 -1.65211 0
M  V30 4884 C 498.104 5.23362 -1.09527 0
M  V30 4885 C 499.404 4.2439 -3.04451 0
M  V30 4886 H 501.098 2.26016 -1.96359 0
M  V30 4887 H 498.644 1.08611 -0.945501 0
M  V30 4888 H 500.597 4.18746 -0.472233 0
M  V30 4889 H 499.321 3.24811 0.341329 0
M  V30 4890 H 497.98 3.19895 -1.79061 0
M  V30 4891 H 497.628 5.02852 -0.122211 0
M  V30 4892 H 497.328 5.59895 -1.783 0
M  V30 4893 H 498.852 6.03062 -0.956511 0
M  V30 4894 H 500.266 4.92225 -2.93917 0
M  V30 4895 H 498.663 4.72118 -3.70438 0
M  V30 4896 H 499.733 3.31765 -3.53638 0
M  V30 4897 N 501.076 1.04316 1.18135 0
M  V30 4898 C 502.487 0.775505 1.69832 0
M  V30 4899 C 502.838 -0.703348 1.8316 0
M  V30 4900 O 501.963 -1.54729 1.51287 0
M  V30 4901 C 502.558 1.40112 3.0847 0
M  V30 4902 C 501.117 1.18172 3.57368 0
M  V30 4903 C 500.264 1.49022 2.33854 0
M  V30 4904 H 503.215 1.20925 1.02775 0
M  V30 4905 H 503.236 0.805672 3.71873 0
M  V30 4906 H 502.748 2.47744 2.98738 0
M  V30 4907 H 500.849 0.124258 3.72393 0
M  V30 4908 H 500.962 1.8805 4.40652 0
M  V30 4909 H 499.326 0.909995 2.37889 0
M  V30 4910 H 500.109 2.57768 2.26738 0
M  V30 4911 N 502.554 -1.34406 0.822964 0
M  V30 4912 C 503.779 -2.0304 0.423034 0
M  V30 4913 C 504.204 -1.61568 -0.963196 0
M  V30 4914 O 503.562 -0.800339 -1.62678 0
M  V30 4915 C 503.61 -3.56636 0.53321 0
M  V30 4916 O 502.714 -4.09971 -0.446939 0
M  V30 4917 H 502.055 -0.64075 0.174171 0
M  V30 4918 H 504.585 -1.71653 1.11339 0
M  V30 4919 H 504.595 -4.05945 0.408991 0
M  V30 4920 H 503.27 -3.86168 1.54425 0
M  V30 4921 H 501.847 -3.71835 -0.281601 0
M  V30 4922 N 504.032 -0.577932 -1.46621 0
M  V30 4923 C 505.26 -0.0671642 -2.06791 0
M  V30 4924 C 505.675 1.23571 -1.42743 0
M  V30 4925 O 505.032 1.74602 -0.531062 0
M  V30 4926 C 505.083 0.110357 -3.61332 0
M  V30 4927 O 504.804 -1.14095 -4.22982 0
M  V30 4928 C 506.305 0.656025 -4.38419 0
M  V30 4929 H 503.525 -0.0552732 -0.66872 0
M  V30 4930 H 506.069 -0.797242 -1.8832 0
M  V30 4931 H 504.224 0.790637 -3.79246 0
M  V30 4932 H 504.638 -0.951742 -5.15793 0
M  V30 4933 H 506.112 0.729438 -5.47159 0
M  V30 4934 H 506.589 1.67195 -4.06131 0
M  V30 4935 H 507.195 0.0107692 -4.25299 0
M  V30 4936 N 505.51 1.54411 -0.315457 0
M  V30 4937 C 506.44 2.27002 0.547039 0
M  V30 4938 C 507.421 1.27492 1.12605 0
M  V30 4939 O 508.606 1.5629 1.15269 0
M  V30 4940 C 505.736 3.02171 1.71201 0
M  V30 4941 C 504.69 4.0895 1.26268 0
M  V30 4942 C 504.016 4.71915 2.51396 0
M  V30 4943 C 505.316 5.20891 0.383419 0
M  V30 4944 H 507.01 2.99343 -0.0584517 0
M  V30 4945 H 504.556 1.4397 -0.0295527 0
M  V30 4946 H 506.509 3.51681 2.32161 0
M  V30 4947 H 505.233 2.27433 2.34397 0
M  V30 4948 H 503.892 3.60312 0.676062 0
M  V30 4949 H 503.54 3.93801 3.12937 0
M  V30 4950 H 503.24 5.44039 2.22026 0
M  V30 4951 H 504.764 5.24195 3.13133 0
M  V30 4952 H 506.178 5.66206 0.899082 0
M  V30 4953 H 504.575 5.99821 0.182857 0
M  V30 4954 H 505.645 4.81324 -0.587821 0
M  V30 4955 N 506.988 0.0434614 1.5754 0
M  V30 4956 C 508.213 -0.645358 1.97104 0
M  V30 4957 C 508.638 -1.64037 0.920521 0
M  V30 4958 O 507.996 -1.80922 -0.11708 0
M  V30 4959 C 508.044 -1.31547 3.35749 0
M  V30 4960 O 507.148 -2.43103 3.33129 0
M  V30 4961 H 506.489 -0.168403 0.64229 0
M  V30 4962 H 509.019 0.109573 2.04306 0
M  V30 4963 H 509.029 -1.66895 3.72304 0
M  V30 4964 H 507.704 -0.586205 4.11748 0
M  V30 4965 H 506.281 -2.0976 3.0831 0
M  V30 4966 N 508.466 -1.55915 -0.229846 0
M  V30 4967 C 509.396 -1.94754 -1.28815 0
M  V30 4968 C 510.377 -0.814657 -1.49323 0
M  V30 4969 O 511.562 -1.07631 -1.61645 0
M  V30 4970 C 508.692 -2.25705 -2.63959 0
M  V30 4971 C 507.646 -3.41406 -2.5812 0
M  V30 4972 C 506.972 -3.57941 -3.97218 0
M  V30 4973 C 508.272 -4.76616 -2.13623 0
M  V30 4974 H 509.966 -2.83404 -0.965547 0
M  V30 4975 H 507.512 -1.36353 -0.463028 0
M  V30 4976 H 509.465 -2.51467 -3.38146 0
M  V30 4977 H 508.189 -1.339 -2.9789 0
M  V30 4978 H 506.848 -3.1568 -1.86391 0
M  V30 4979 H 506.496 -2.63526 -4.28443 0
M  V30 4980 H 506.196 -4.35757 -3.94195 0
M  V30 4981 H 507.72 -3.86042 -4.73079 0
M  V30 4982 H 509.134 -5.01637 -2.77549 0
M  V30 4983 H 507.531 -5.57655 -2.21677 0
M  V30 4984 H 508.601 -4.7253 -1.08829 0
M  V30 4985 N 509.944 0.496216 -1.49584 0
M  V30 4986 C 511.174 1.27209 -1.62793 0
M  V30 4987 C 511.582 1.86799 -0.300476 0
M  V30 4988 O 510.925 1.68802 0.724674 0
M  V30 4989 C 510.987 2.43812 -2.64189 0
M  V30 4990 C 510.651 2.05055 -4.08414 0
M  V30 4991 C 511.648 1.58752 -4.9507 0
M  V30 4992 C 509.333 2.14543 -4.54177 0
M  V30 4993 C 511.327 1.22448 -6.25528 0
M  V30 4994 C 509.014 1.77851 -5.84647 0
M  V30 4995 C 510.012 1.31878 -6.70147 0
M  V30 4996 O 509.7 0.956834 -7.98185 0
M  V30 4997 H 509.432 0.391848 -0.550846 0
M  V30 4998 H 511.986 0.601712 -1.96389 0
M  V30 4999 H 510.216 3.13941 -2.25783 0
M  V30 5000 H 511.905 3.05829 -2.66877 0
M  V30 5001 H 512.671 1.50863 -4.60939 0
M  V30 5002 H 508.55 2.49277 -3.87791 0
M  V30 5003 H 512.094 0.864933 -6.92217 0
M  V30 5004 H 507.991 1.8539 -6.18305 0
M  V30 5005 H 508.759 1.08789 -8.11238 0
M  V30 5006 N 511.423 1.38739 0.74761 0
M  V30 5007 C 512.37 1.36449 1.86146 0
M  V30 5008 C 513.34 0.226098 1.64554 0
M  V30 5009 O 514.525 0.41926 1.86137 0
M  V30 5010 C 511.665 1.2013 3.23516 0
M  V30 5011 C 510.778 2.43407 3.56899 0
M  V30 5012 C 509.913 2.19773 4.83605 0
M  V30 5013 C 508.952 3.3879 5.09792 0
M  V30 5014 N 508.089 3.14553 6.27695 0
M  V30 5015 H 512.929 2.3167 1.87438 0
M  V30 5016 H 510.466 1.15094 0.916063 0
M  V30 5017 H 512.424 1.08683 4.02795 0
M  V30 5018 H 511.054 0.285453 3.21535 0
M  V30 5019 H 510.106 2.65504 2.72418 0
M  V30 5020 H 511.418 3.32094 3.72176 0
M  V30 5021 H 510.572 2.05496 5.70838 0
M  V30 5022 H 509.311 1.28461 4.70478 0
M  V30 5023 H 508.316 3.53579 4.21025 0
M  V30 5024 H 509.541 4.30986 5.24812 0
M  V30 5025 H 507.487 2.25893 6.1588 0
M  V30 5026 H 507.404 3.96791 6.435 0
M  V30 5027 H 508.672 3.03943 7.17801 0
M  V30 5028 N 512.901 -0.976442 1.23707 0
M  V30 5029 C 514.126 -1.75875 1.09922 0
M  V30 5030 C 514.551 -1.84911 -0.34489 0
M  V30 5031 O 513.909 -1.31363 -1.24954 0
M  V30 5032 C 513.957 -3.16179 1.73388 0
M  V30 5033 O 513.061 -4.00124 0.99871 0
M  V30 5034 H 512.402 -0.540954 0.385052 0
M  V30 5035 H 514.932 -1.22546 1.6384 0
M  V30 5036 H 514.942 -3.66741 1.78788 0
M  V30 5037 H 513.617 -3.08917 2.78466 0
M  V30 5038 H 512.194 -3.58624 1.02193 0
M  V30 5039 N 514.379 -1.04941 -1.1758 0
M  V30 5040 C 515.627 -0.756492 -1.87408 0
M  V30 5041 C 515.948 0.718478 -1.81281 0
M  V30 5042 O 515.218 1.519 -1.23706 0
M  V30 5043 H 513.798 -0.276841 -0.693807 0
M  V30 5044 H 516.46 -1.32803 -1.42652 0
M  V30 5045 H 515.556 -1.06918 -2.93215 0
M  V30 5046 N 515.857 1.33968 -0.830081 0
M  V30 5047 C 516.82 2.27694 -0.26235 0
M  V30 5048 C 517.82 1.50589 0.563876 0
M  V30 5049 O 519.01 1.70028 0.378941 0
M  V30 5050 C 516.142 3.35002 0.63138 0
M  V30 5051 H 517.335 2.79419 -1.08928 0
M  V30 5052 H 514.888 1.44221 -0.602486 0
M  V30 5053 H 515.623 2.88504 1.48109 0
M  V30 5054 H 515.408 3.92079 0.0403276 0
M  V30 5055 H 516.898 4.04897 1.02217 0
M  V30 5056 N 517.335 0.585699 1.46312 0
M  V30 5057 C 518.265 -0.133556 2.33118 0
M  V30 5058 C 519.246 -0.880707 1.45525 0
M  V30 5059 O 520.431 -0.855579 1.74337 0
M  V30 5060 C 517.561 -1.14585 3.27853 0
M  V30 5061 C 516.515 -0.513341 4.2491 0
M  V30 5062 C 515.841 -1.63231 5.09175 0
M  V30 5063 C 517.141 0.551413 5.19381 0
M  V30 5064 H 518.835 0.59121 2.93505 0
M  V30 5065 H 516.381 0.285761 1.41136 0
M  V30 5066 H 518.334 -1.65741 3.87438 0
M  V30 5067 H 517.058 -1.90093 2.65579 0
M  V30 5068 H 515.717 -0.0228349 3.66593 0
M  V30 5069 H 515.365 -2.37713 4.43285 0
M  V30 5070 H 515.065 -1.21473 5.74907 0
M  V30 5071 H 516.589 -2.14658 5.71624 0
M  V30 5072 H 518.003 0.124804 5.73164 0
M  V30 5073 H 516.4 0.889486 5.93471 0
M  V30 5074 H 517.47 1.43655 4.63132 0
M  V30 5075 N 518.813 -1.54241 0.323641 0
M  V30 5076 C 520.09 -1.92741 -0.333181 0
M  V30 5077 C 520.47 -1.25326 -1.69872 0
M  V30 5078 O 519.818 -0.396991 -2.25025 0
M  V30 5079 C 520.028 -3.46399 -0.425322 0
M  V30 5080 C 521.376 -4.19029 -0.68557 0
M  V30 5081 O 522.4 -3.52555 -0.50824 0
M  V30 5082 O 521.259 -5.36751 -1.02767 0
M  V30 5083 H 518.353 -0.804811 -0.190286 0
M  V30 5084 H 520.899 -1.65542 0.373361 0
M  V30 5085 H 519.671 -3.87643 0.533737 0
M  V30 5086 H 519.294 -3.79704 -1.17944 0
M  V30 5087 N 520.291 -0.0518155 -1.57515 0
M  V30 5088 C 521.201 0.937539 -2.15052 0
M  V30 5089 C 522.217 1.34121 -1.10849 0
M  V30 5090 O 523.393 1.418 -1.4302 0
M  V30 5091 C 520.458 2.19379 -2.68466 0
M  V30 5092 C 519.519 1.84841 -3.87469 0
M  V30 5093 C 518.752 3.04477 -4.38326 0
M  V30 5094 O 518.975 4.17868 -3.88256 0
M  V30 5095 O 517.909 2.85453 -5.29906 0
M  V30 5096 H 521.735 0.478201 -2.99912 0
M  V30 5097 H 519.32 0.17012 -1.48428 0
M  V30 5098 H 521.202 2.93084 -3.02787 0
M  V30 5099 H 519.877 2.64449 -1.86677 0
M  V30 5100 H 518.784 1.08449 -3.58036 0
M  V30 5101 H 520.117 1.44569 -4.7049 0
M  V30 5102 N 521.769 1.56035 0.221574 0
M  V30 5103 C 522.732 1.91584 1.2581 0
M  V30 5104 C 523.732 0.794425 1.39805 0
M  V30 5105 O 524.922 1.06217 1.38071 0
M  V30 5106 C 522.054 2.16663 2.63192 0
M  V30 5107 H 523.247 2.8429 0.954935 0
M  V30 5108 H 520.8 1.49316 0.461988 0
M  V30 5109 H 521.535 1.26508 2.98607 0
M  V30 5110 H 521.32 2.98358 2.5441 0
M  V30 5111 H 522.81 2.45262 3.37988 0
M  V30 5112 N 523.247 -0.488276 1.49845 0
M  V30 5113 C 524.21 -1.57069 1.66919 0
M  V30 5114 C 525.21 -1.51445 0.540479 0
M  V30 5115 O 526.4 -1.5437 0.807188 0
M  V30 5116 C 523.532 -2.96718 1.67844 0
M  V30 5117 H 524.725 -1.43254 2.63474 0
M  V30 5118 H 522.278 -0.713435 1.39068 0
M  V30 5119 H 523.013 -3.15996 0.7292 0
M  V30 5120 H 522.798 -3.02208 2.49826 0
M  V30 5121 H 524.288 -3.75335 1.83066 0
M  V30 5122 N 524.725 -1.39134 -0.740242 0
M  V30 5123 C 525.688 -1.37217 -1.83587 0
M  V30 5124 C 526.688 -0.270221 -1.58513 0
M  V30 5125 O 527.878 -0.527843 -1.6601 0
M  V30 5126 C 525.01 -1.13959 -3.21288 0
M  V30 5127 H 526.203 -2.34705 -1.86691 0
M  V30 5128 H 523.756 -1.24622 -0.94335 0
M  V30 5129 H 524.491 -0.17131 -3.23847 0
M  V30 5130 H 524.276 -1.93754 -3.40884 0
M  V30 5131 H 525.766 -1.15346 -4.01354 0
M  V30 5132 N 526.204 0.969867 -1.24223 0
M  V30 5133 C 527.434 1.74502 -1.106 0
M  V30 5134 C 527.842 1.86038 0.344483 0
M  V30 5135 O 527.185 1.3465 1.24961 0
M  V30 5136 C 527.247 3.18391 -1.66935 0
M  V30 5137 C 526.911 3.30334 -3.15798 0
M  V30 5138 C 527.908 3.15832 -4.12973 0
M  V30 5139 C 525.593 3.54644 -3.55715 0
M  V30 5140 C 527.587 3.25461 -5.48045 0
M  V30 5141 C 525.274 3.63912 -4.90929 0
M  V30 5142 C 526.272 3.49332 -5.86904 0
M  V30 5143 O 525.96 3.58251 -7.1966 0
M  V30 5144 H 525.692 0.554119 -0.387206 0
M  V30 5145 H 528.246 1.22646 -1.64764 0
M  V30 5146 H 526.476 3.71543 -1.07203 0
M  V30 5147 H 528.165 3.77707 -1.48634 0
M  V30 5148 H 528.931 2.96937 -3.83476 0
M  V30 5149 H 524.81 3.65059 -2.81519 0
M  V30 5150 H 528.354 3.13998 -6.22937 0
M  V30 5151 H 524.251 3.82319 -5.20098 0
M  V30 5152 H 525.019 3.7498 -7.27552 0
M  V30 5153 N 527.682 1.05563 1.17022 0
M  V30 5154 C 528.614 0.617888 2.20714 0
M  V30 5155 C 529.627 -0.320303 1.59618 0
M  V30 5156 O 530.816 -0.112449 1.78145 0
M  V30 5157 C 527.916 -0.115333 3.38704 0
M  V30 5158 C 527.089 0.834493 4.29366 0
M  V30 5159 C 526.148 0.141855 5.26009 0
M  V30 5160 O 525.174 0.777151 5.6387 0
M  V30 5161 N 526.376 -1.11934 5.69606 0
M  V30 5162 H 529.141 1.50981 2.58892 0
M  V30 5163 H 526.702 0.938008 1.31958 0
M  V30 5164 H 528.694 -0.588918 4.00392 0
M  V30 5165 H 527.264 -0.908967 2.99093 0
M  V30 5166 H 526.484 1.48762 3.65053 0
M  V30 5167 H 527.772 1.4791 4.86827 0
M  V30 5168 H 527.17 -1.65574 5.40927 0
M  V30 5169 H 525.727 -1.53692 6.33421 0
M  V30 5170 N 529.16 -1.33526 0.837174 0
M  V30 5171 C 530.385 -2.0258 0.444545 0
M  V30 5172 C 530.81 -1.6258 -0.946006 0
M  V30 5173 O 530.168 -0.817548 -1.6182 0
M  V30 5174 C 530.216 -3.5605 0.571006 0
M  V30 5175 O 529.32 -4.10422 -0.403431 0
M  V30 5176 H 528.661 -0.638866 0.180958 0
M  V30 5177 H 531.191 -1.70462 1.13154 0
M  V30 5178 H 531.201 -4.05488 0.452024 0
M  V30 5179 H 529.876 -3.84509 1.58512 0
M  V30 5180 H 528.453 -3.72113 -0.242147 0
M  V30 5181 N 530.638 -0.59345 -1.46 0
M  V30 5182 C 532.054 -0.255965 -1.57534 0
M  V30 5183 C 532.254 1.24167 -1.58697 0
M  V30 5184 O 531.31 2.02398 -1.50968 0
M  V30 5185 C 532.623 -0.91466 -2.86451 0
M  V30 5186 C 534.171 -0.889253 -3.00102 0
M  V30 5187 C 534.646 -1.52769 -4.3177 0
M  V30 5188 N 536.137 -1.49253 -4.38495 0
M  V30 5189 C 536.872 -1.9558 -5.39014 0
M  V30 5190 N 536.368 -2.49929 -6.46148 0
M  V30 5191 N 538.161 -1.86432 -5.30282 0
M  V30 5192 H 530.312 -1.56604 -1.43489 0
M  V30 5193 H 532.575 -0.655207 -0.685133 0
M  V30 5194 H 532.281 -1.96861 -2.91442 0
M  V30 5195 H 532.155 -0.429356 -3.74748 0
M  V30 5196 H 534.542 0.156111 -2.94687 0
M  V30 5197 H 534.623 -1.41268 -2.13253 0
M  V30 5198 H 534.267 -2.57231 -4.37944 0
M  V30 5199 H 534.197 -0.979398 -5.17412 0
M  V30 5200 H 536.688 -1.09536 -3.61677 0
M  V30 5201 H 537.001 -2.83109 -7.19075 0
M  V30 5202 H 535.346 -2.53961 -6.46938 0
M  V30 5203 H 538.537 -1.43722 -4.4549 0
M  V30 5204 H 538.71 -2.22852 -6.08474 0
M  V30 5205 N 532.116 1.54067 -0.331816 0
M  V30 5206 C 533.393 1.92915 0.322955 0
M  V30 5207 C 533.773 1.26225 1.69205 0
M  V30 5208 O 533.121 0.408919 2.24811 0
M  V30 5209 C 533.331 3.46619 0.406946 0
M  V30 5210 C 534.679 4.19386 0.663339 0
M  V30 5211 O 535.703 3.5282 0.489536 0
M  V30 5212 O 534.562 5.37288 0.999193 0
M  V30 5213 H 531.656 0.805808 0.186016 0
M  V30 5214 H 534.202 1.65342 -0.382135 0
M  V30 5215 H 532.974 3.87354 -0.554287 0
M  V30 5216 H 532.597 3.80324 1.15929 0
M  V30 5217 N 533.594 0.0601682 1.57485 0
M  V30 5218 C 534.824 -0.620037 1.97076 0
M  V30 5219 C 535.232 -1.64381 0.936784 0
M  V30 5220 O 534.575 -1.83497 -0.0863377 0
M  V30 5221 C 534.637 -1.35617 3.32939 0
M  V30 5222 C 534.301 -0.487208 4.54396 0
M  V30 5223 C 535.298 0.250428 5.19297 0
M  V30 5224 C 532.983 -0.415494 5.00579 0
M  V30 5225 C 534.977 1.04812 6.28723 0
M  V30 5226 C 532.664 0.385879 6.0988 0
M  V30 5227 C 533.662 1.11637 6.73815 0
M  V30 5228 O 533.35 1.90454 7.81014 0
M  V30 5229 H 533.082 -0.173664 0.653312 0
M  V30 5230 H 535.636 0.1256 2.05016 0
M  V30 5231 H 533.866 -2.14763 3.2158 0
M  V30 5232 H 535.555 -1.92749 3.57215 0
M  V30 5233 H 536.321 0.204546 4.84568 0
M  V30 5234 H 532.2 -0.973679 4.506 0
M  V30 5235 H 535.744 1.6188 6.78558 0
M  V30 5236 H 531.641 0.433366 6.44044 0
M  V30 5237 H 532.409 1.82762 7.97835 0
M  V30 5238 N 535.072 -1.5615 -0.213296 0
M  V30 5239 C 536.302 -1.83372 -0.951757 0
M  V30 5240 C 536.71 -0.638158 -1.78113 0
M  V30 5241 O 536.053 0.402609 -1.79234 0
M  V30 5242 C 536.115 -3.04444 -1.91192 0
M  V30 5243 C 535.779 -4.39107 -1.26627 0
M  V30 5244 C 536.776 -5.15794 -0.652087 0
M  V30 5245 C 534.461 -4.85834 -1.27556 0
M  V30 5246 C 536.455 -6.37376 -0.055814 0
M  V30 5247 C 534.142 -6.07356 -0.675451 0
M  V30 5248 C 535.14 -6.82967 -0.0666367 0
M  V30 5249 O 534.828 -8.0219 0.524119 0
M  V30 5250 H 534.56 -0.613398 -0.284111 0
M  V30 5251 H 537.114 -2.04096 -0.231112 0
M  V30 5252 H 535.344 -2.79559 -2.67178 0
M  V30 5253 H 537.033 -3.18466 -2.51662 0
M  V30 5254 H 537.799 -4.80796 -0.637172 0
M  V30 5255 H 533.678 -4.26949 -1.73883 0
M  V30 5256 H 537.222 -6.96334 0.420004 0
M  V30 5257 H 533.119 -6.41825 -0.687806 0
M  V30 5258 H 533.887 -8.17426 0.419243 0
M  V30 5259 N 536.55 0.480323 -1.50102 0
M  V30 5260 C 537.498 1.60024 -1.68805 0
M  V30 5261 C 538.492 1.60089 -0.553888 0
M  V30 5262 O 539.698 1.64349 -0.734127 0
M  V30 5263 H 536.073 0.530841 -0.532646 0
M  V30 5264 H 538.044 1.41408 -2.62767 0
M  V30 5265 C 536.793 2.98029 -1.79092 0
M  V30 5266 H 536.116 2.98694 -2.65748 0
M  V30 5267 H 537.556 3.75871 -1.96206 0
M  V30 5268 C 536.015 3.32538 -0.540388 0
M  V30 5269 O 536.545 4.00386 0.324637 0
M  V30 5270 N 534.751 2.87873 -0.397154 0
M  V30 5271 H 534.298 2.32834 -1.1021 0
M  V30 5272 H 534.256 3.11328 0.438425 0
M  V30 5273 N 538.028 1.39524 0.732853 0
M  V30 5274 C 539.275 1.36865 1.49246 0
M  V30 5275 C 539.603 -0.0347118 1.94469 0
M  V30 5276 O 538.858 -1.01596 1.67262 0
M  V30 5277 C 539.157 2.28916 2.74468 0
M  V30 5278 C 538.823 3.76506 2.481 0
M  V30 5279 C 537.485 4.16721 2.40619 0
M  V30 5280 C 539.837 4.69846 2.25598 0
M  V30 5281 C 537.165 5.48334 2.08679 0
M  V30 5282 C 539.517 6.01739 1.95174 0
M  V30 5283 C 538.181 6.41015 1.86163 0
M  V30 5284 H 537.451 0.500824 0.546129 0
M  V30 5285 H 540.098 1.72047 0.840958 0
M  V30 5286 H 538.403 1.86859 3.4437 0
M  V30 5287 H 540.1 2.2415 3.32502 0
M  V30 5288 H 536.69 3.44635 2.54803 0
M  V30 5289 H 540.874 4.39608 2.30344 0
M  V30 5290 H 536.13 5.77685 2.00226 0
M  V30 5291 H 540.304 6.73591 1.76771 0
M  V30 5292 H 537.931 7.42917 1.61179 0
M  V30 5293 N 539.506 -0.963266 1.24736 0
M  V30 5294 C 540.917 -1.52145 1.08207 0
M  V30 5295 C 541.268 -1.93142 -0.345061 0
M  V30 5296 O 540.393 -1.77769 -1.23399 0
M  V30 5297 C 540.988 -2.76486 1.95808 0
M  V30 5298 C 539.547 -3.28646 1.8349 0
M  V30 5299 C 538.694 -2.01529 1.90476 0
M  V30 5300 H 541.645 -0.781083 1.38148 0
M  V30 5301 H 541.666 -3.49986 1.49297 0
M  V30 5302 H 541.178 -2.46617 2.99669 0
M  V30 5303 H 539.279 -3.63357 0.824787 0
M  V30 5304 H 539.392 -3.97246 2.67829 0
M  V30 5305 H 537.756 -2.16442 1.34258 0
M  V30 5306 H 538.539 -1.7402 2.95926 0
M  V30 5307 N 540.985 -1.06182 -1.16461 0
M  V30 5308 C 541.915 -0.692861 -2.22984 0
M  V30 5309 C 542.896 0.314122 -1.67174 0
M  V30 5310 O 544.081 0.189499 -1.93273 0
M  V30 5311 C 541.211 -0.07732 -3.47214 0
M  V30 5312 C 540.165 -1.01015 -4.15909 0
M  V30 5313 C 539.491 -0.257973 -5.34077 0
M  V30 5314 C 540.791 -2.33868 -4.67015 0
M  V30 5315 H 542.485 -1.58343 -2.54102 0
M  V30 5316 H 540.031 -0.76279 -1.22137 0
M  V30 5317 H 541.984 0.19266 -4.20959 0
M  V30 5318 H 540.708 0.848254 -3.15392 0
M  V30 5319 H 539.367 -1.26486 -3.44088 0
M  V30 5320 H 539.015 0.670684 -4.98509 0
M  V30 5321 H 538.715 -0.879638 -5.80979 0
M  V30 5322 H 540.239 0.00448788 -6.106 0
M  V30 5323 H 541.653 -2.1279 -5.32347 0
M  V30 5324 H 540.05 -2.91522 -5.24533 0
M  V30 5325 H 541.12 -2.97019 -3.83286 0
M  V30 5326 N 542.463 1.3308 -0.844243 0
M  V30 5327 C 543.426 2.27403 -0.286485 0
M  V30 5328 C 544.426 1.51179 0.547872 0
M  V30 5329 O 545.616 1.70421 0.360886 0
M  V30 5330 C 542.748 3.35653 0.595813 0
M  V30 5331 H 543.941 2.78248 -1.11885 0
M  V30 5332 H 541.494 1.43574 -0.617749 0
M  V30 5333 H 542.229 2.90058 1.4504 0
M  V30 5334 H 542.014 3.921 -0.00125994 0
M  V30 5335 H 543.504 4.05958 0.979168 0
M  V30 5336 N 543.941 0.601185 1.45683 0
M  V30 5337 C 544.871 -0.108824 2.33246 0
M  V30 5338 C 545.852 -0.865223 1.46451 0
M  V30 5339 O 547.037 -0.83704 1.75235 0
M  V30 5340 C 544.167 -1.11101 3.2905 0
M  V30 5341 C 543.121 -0.468244 4.25431 0
M  V30 5342 C 542.447 -1.57822 5.10878 0
M  V30 5343 C 543.747 0.606469 5.18767 0
M  V30 5344 H 545.441 0.622306 2.92861 0
M  V30 5345 H 542.987 0.300714 1.40825 0
M  V30 5346 H 544.94 -1.61622 3.89174 0
M  V30 5347 H 543.664 -1.87265 2.67581 0
M  V30 5348 H 542.323 0.0160484 3.66596 0
M  V30 5349 H 541.971 -2.32998 4.45781 0
M  V30 5350 H 541.671 -1.15369 5.76163 0
M  V30 5351 H 543.195 -2.08583 5.73869 0
M  V30 5352 H 544.609 0.185589 5.73 0
M  V30 5353 H 543.006 0.952381 5.92494 0
M  V30 5354 H 544.076 1.48559 4.61582 0
M  V30 5355 N 545.419 -1.53889 0.339982 0
M  V30 5356 C 546.382 -2.23547 -0.50592 0
M  V30 5357 C 547.382 -1.23445 -1.03044 0
M  V30 5358 O 548.572 -1.47909 -0.920253 0
M  V30 5359 C 545.704 -2.95234 -1.7044 0
M  V30 5360 H 546.897 -2.99722 0.103247 0
M  V30 5361 H 544.45 -1.56033 0.0912804 0
M  V30 5362 H 545.185 -2.23236 -2.35236 0
M  V30 5363 H 544.97 -3.68654 -1.33553 0
M  V30 5364 H 546.46 -3.48258 -2.30447 0
M  V30 5365 N 546.897 -0.0685191 -1.57451 0
M  V30 5366 C 548.145 0.60016 -1.92983 0
M  V30 5367 C 548.466 1.70348 -0.949028 0
M  V30 5368 O 547.736 1.959 0.00335647 0
M  V30 5369 H 546.316 0.224682 -0.712409 0
M  V30 5370 H 548.978 -0.125605 -1.94495 0
M  V30 5371 H 548.074 1.02759 -2.94698 0
M  V30 5372 N 548.375 1.56261 0.205012 0
M  V30 5373 C 549.786 1.70056 0.770574 0
M  V30 5374 C 550.137 0.673398 1.84282 0
M  V30 5375 O 549.262 -0.172196 2.15714 0
M  V30 5376 C 549.857 3.08316 1.40451 0
M  V30 5377 C 548.416 3.2391 1.91727 0
M  V30 5378 C 547.563 2.66001 0.783516 0
M  V30 5379 H 550.514 1.58688 -0.019911 0
M  V30 5380 H 550.535 3.05094 2.27371 0
M  V30 5381 H 550.047 3.83053 0.623882 0
M  V30 5382 H 548.148 2.54072 2.7254 0
M  V30 5383 H 548.261 4.3131 2.08588 0
M  V30 5384 H 546.625 2.24915 1.19521 0
M  V30 5385 H 547.408 3.43297 0.0152883 0
M  V30 5386 N 549.853 -0.472356 1.50355 0
M  V30 5387 C 551.264 -1.05326 1.54154 0
M  V30 5388 C 551.615 -1.93155 0.344303 0
M  V30 5389 O 550.74 -2.09479 -0.542928 0
M  V30 5390 C 551.335 -1.91691 2.79356 0
M  V30 5391 C 549.894 -2.44892 2.8584 0
M  V30 5392 C 549.041 -1.23205 2.48426 0
M  V30 5393 H 551.992 -0.255027 1.56637 0
M  V30 5394 H 552.013 -2.76742 2.6114 0
M  V30 5395 H 551.525 -1.27741 3.66475 0
M  V30 5396 H 549.626 -3.12399 2.0307 0
M  V30 5397 H 549.739 -2.80086 3.88701 0
M  V30 5398 H 548.103 -1.56643 2.00836 0
M  V30 5399 H 548.886 -0.609194 3.37852 0
M  V30 5400 N 551.331 -1.39911 -0.725443 0
M  V30 5401 C 552.742 -1.33599 -1.30415 0
M  V30 5402 C 553.093 -0.00481792 -1.96199 0
M  V30 5403 O 552.218 0.897275 -1.96921 0
M  V30 5404 C 552.813 -2.41965 -2.37146 0
M  V30 5405 C 551.372 -2.39144 -2.90667 0
M  V30 5406 C 550.519 -2.23355 -1.64341 0
M  V30 5407 H 553.47 -1.4986 -0.522267 0
M  V30 5408 H 553.491 -2.09304 -3.17761 0
M  V30 5409 H 553.003 -3.38837 -1.89238 0
M  V30 5410 H 551.104 -1.4594 -3.4283 0
M  V30 5411 H 551.217 -3.34362 -3.43131 0
M  V30 5412 H 549.581 -1.70696 -1.89037 0
M  V30 5413 H 550.364 -3.2221 -1.18471 0
M  V30 5414 N 552.809 0.956637 -1.25245 0
M  V30 5415 C 554.22 1.51569 -1.09012 0
M  V30 5416 C 554.571 1.93322 0.334813 0
M  V30 5417 O 553.696 1.78421 1.22454 0
M  V30 5418 C 554.291 2.75444 -1.97271 0
M  V30 5419 C 552.85 3.27669 -1.8523 0
M  V30 5420 C 551.997 2.00517 -1.91542 0
M  V30 5421 H 554.948 0.773746 -1.3856 0
M  V30 5422 H 554.969 3.4919 -1.51151 0
M  V30 5423 H 554.481 2.45024 -3.00973 0
M  V30 5424 H 552.582 3.62914 -0.844045 0
M  V30 5425 H 552.695 3.9582 -2.69932 0
M  V30 5426 H 551.059 2.15727 -1.35404 0
M  V30 5427 H 551.842 1.72448 -2.96844 0
M  V30 5428 N 554.287 1.06798 1.15896 0
M  V30 5429 C 555.698 0.811355 1.68149 0
M  V30 5430 C 556.049 -0.664339 1.8461 0
M  V30 5431 O 555.174 -1.51485 1.54535 0
M  V30 5432 C 555.769 1.46624 3.05429 0
M  V30 5433 C 554.328 1.25726 3.54781 0
M  V30 5434 C 553.475 1.53949 2.3064 0
M  V30 5435 H 556.426 1.23078 1.00187 0
M  V30 5436 H 556.447 0.88437 3.7008 0
M  V30 5437 H 555.959 2.54025 2.93416 0
M  V30 5438 H 554.06 0.20322 3.72045 0
M  V30 5439 H 554.173 1.97354 4.36564 0
M  V30 5440 H 552.537 0.96025 2.35905 0
M  V30 5441 H 553.32 2.6252 2.2122 0
M  V30 5442 N 555.766 -1.3263 0.851289 0
M  V30 5443 C 557.177 -1.79653 0.5081 0
M  V30 5444 C 557.528 -1.70327 -0.973815 0
M  V30 5445 O 556.653 -1.25986 -1.75944 0
M  V30 5446 C 557.248 -3.26196 0.915515 0
M  V30 5447 C 555.807 -3.71187 0.624277 0
M  V30 5448 C 554.954 -2.53804 1.11709 0
M  V30 5449 H 557.905 -1.19976 1.03882 0
M  V30 5450 H 557.926 -3.79801 0.230535 0
M  V30 5451 H 557.438 -3.32952 1.99411 0
M  V30 5452 H 555.539 -3.69948 -0.443737 0
M  V30 5453 H 555.652 -4.64132 1.18821 0
M  V30 5454 H 554.016 -2.48964 0.537484 0
M  V30 5455 H 554.799 -2.63315 2.20272 0
M  V30 5456 N 557.244 -0.608902 -1.45362 0
M  V30 5457 C 558.655 -0.189511 -1.85736 0
M  V30 5458 C 559.006 1.2539 -1.50903 0
M  V30 5459 O 558.131 1.95094 -0.936347 0
M  V30 5460 C 558.726 -0.33716 -3.37118 0
M  V30 5461 C 557.285 0.0275487 -3.7639 0
M  V30 5462 C 556.432 -0.660983 -2.69307 0
M  V30 5463 H 559.383 -0.815499 -1.36144 0
M  V30 5464 H 559.404 0.430257 -3.7806 0
M  V30 5465 H 558.916 -1.38779 -3.62439 0
M  V30 5466 H 557.017 1.0773 -3.56686 0
M  V30 5467 H 557.13 -0.367018 -4.77692 0
M  V30 5468 H 555.494 -0.0984958 -2.54509 0
M  V30 5469 H 556.277 -1.71377 -2.97464 0
M  V30 5470 N 558.722 1.53707 -0.348139 0
M  V30 5471 C 560.133 1.86213 0.134797 0
M  V30 5472 C 560.484 1.26925 1.49614 0
M  V30 5473 O 559.609 0.584573 2.08355 0
M  V30 5474 C 560.204 3.37866 0.251371 0
M  V30 5475 C 558.763 3.70233 0.678543 0
M  V30 5476 C 557.91 2.76683 -0.184925 0
M  V30 5477 H 560.861 1.48204 -0.567571 0
M  V30 5478 H 560.882 3.64908 1.07806 0
M  V30 5479 H 560.394 3.80988 -0.739581 0
M  V30 5480 H 558.495 3.32659 1.67835 0
M  V30 5481 H 558.608 4.76836 0.465251 0
M  V30 5482 H 556.972 2.52374 0.343465 0
M  V30 5483 H 557.755 3.22635 -1.1731 0
M  V30 5484 N 560.2 0.0768682 1.57412 0
M  V30 5485 C 561.15 -0.898795 2.09537 0
M  V30 5486 C 562.134 -1.25556 1.0062 0
M  V30 5487 O 563.326 -1.23369 1.26921 0
M  V30 5488 C 560.455 -2.16453 2.66464 0
M  V30 5489 C 559.541 -1.83401 3.82393 0
M  V30 5490 N 559.932 -1.20823 4.91157 0
M  V30 5491 C 558.23 -2.13121 3.91785 0
M  V30 5492 C 558.931 -1.05976 5.71965 0
M  V30 5493 N 557.907 -1.57113 5.204 0
M  V30 5494 H 561.709 -0.410718 2.91016 0
M  V30 5495 H 559.223 -0.126878 1.61904 0
M  V30 5496 H 561.22 -2.87274 3.02125 0
M  V30 5497 H 559.88 -2.65844 1.86433 0
M  V30 5498 H 560.891 -0.877249 5.10416 0
M  V30 5499 H 557.568 -2.64854 3.22736 0
M  V30 5500 H 558.958 -0.571809 6.69462 0
M  V30 5501 N 561.678 -1.56367 -0.196722 0
M  V30 5502 C 563.089 -1.70462 -0.761545 0
M  V30 5503 C 563.44 -0.683161 -1.83922 0
M  V30 5504 O 562.565 0.160753 -2.15802 0
M  V30 5505 C 563.16 -3.09057 -1.38814 0
M  V30 5506 C 561.719 -3.24922 -1.90007 0
M  V30 5507 C 560.866 -2.66412 -0.769399 0
M  V30 5508 H 563.817 -1.58675 0.0283263 0
M  V30 5509 H 563.838 -3.06296 -2.2575 0
M  V30 5510 H 563.35 -3.83378 -0.603559 0
M  V30 5511 H 561.451 -2.55514 -2.71189 0
M  V30 5512 H 561.564 -4.3241 -2.06297 0
M  V30 5513 H 559.928 -2.25546 -1.18326 0
M  V30 5514 H 560.711 -3.433 0.00291773 0
M  V30 5515 N 563.156 0.464375 -1.50603 0
M  V30 5516 C 564.106 1.55929 -1.66343 0
M  V30 5517 C 565.09 1.52338 -0.517887 0
M  V30 5518 O 566.282 1.59248 -0.772601 0
M  V30 5519 C 563.411 2.94327 -1.7671 0
M  V30 5520 C 562.497 3.02777 -2.96962 0
M  V30 5521 N 562.888 2.81026 -4.20545 0
M  V30 5522 C 561.186 3.33919 -2.95659 0
M  V30 5523 C 561.887 2.94618 -5.01573 0
M  V30 5524 N 560.863 3.25112 -4.35664 0
M  V30 5525 H 564.665 1.37822 -2.59581 0
M  V30 5526 H 562.179 0.671227 -1.47879 0
M  V30 5527 H 564.176 3.73063 -1.86091 0
M  V30 5528 H 562.836 3.13476 -0.846353 0
M  V30 5529 H 563.847 2.56477 -4.49933 0
M  V30 5530 H 560.524 3.59013 -2.13111 0
M  V30 5531 H 561.914 2.81984 -6.09865 0
M  V30 5532 N 564.634 1.40294 0.718013 0
M  V30 5533 C 565.597 1.4012 1.81381 0
M  V30 5534 C 566.597 0.295405 1.58063 0
M  V30 5535 O 567.787 0.554187 1.6515 0
M  V30 5536 C 564.919 1.19056 3.19435 0
M  V30 5537 H 566.112 2.37645 1.82933 0
M  V30 5538 H 563.665 1.26107 0.923405 0
M  V30 5539 H 564.4 0.222809 3.23534 0
M  V30 5540 H 564.185 1.99152 3.37758 0
M  V30 5541 H 565.675 1.21716 3.99468 0
M  V30 5542 N 566.112 -0.949982 1.2575 0
M  V30 5543 C 567.528 -1.22191 1.02672 0
M  V30 5544 C 567.728 -1.99898 -0.253588 0
M  V30 5545 O 566.784 -2.33329 -0.965076 0
M  V30 5546 C 568.097 -1.99175 2.25277 0
M  V30 5547 C 569.645 -2.12201 2.30087 0
M  V30 5548 C 570.12 -2.92586 3.5236 0
M  V30 5549 N 571.611 -3.00163 3.52784 0
M  V30 5550 C 572.346 -3.62766 4.44059 0
M  V30 5551 N 571.842 -4.26943 5.45611 0
M  V30 5552 N 573.635 -3.59953 4.3173 0
M  V30 5553 H 565.786 -0.430258 2.07996 0
M  V30 5554 H 568.049 -0.252844 0.91366 0
M  V30 5555 H 567.755 -1.49479 3.18354 0
M  V30 5556 H 567.629 -2.99868 2.28821 0
M  V30 5557 H 570.016 -2.61093 1.3753 0
M  V30 5558 H 570.097 -1.10799 2.30559 0
M  V30 5559 H 569.741 -2.44383 4.45241 0
M  V30 5560 H 569.671 -3.94224 3.49134 0
M  V30 5561 H 572.162 -2.54529 2.79327 0
M  V30 5562 H 572.475 -4.72583 6.11461 0
M  V30 5563 H 570.82 -4.25557 5.49478 0
M  V30 5564 H 574.011 -3.09003 3.51617 0
M  V30 5565 H 574.184 -4.08455 5.03059 0
M  V30 5566 N 567.59 -1.07411 -1.15328 0
M  V30 5567 C 568.839 -0.792643 -1.85473 0
M  V30 5568 C 569.152 0.683789 -1.83259 0
M  V30 5569 O 570.358 1.08005 -2.49093 0
M  V30 5570 C 568.814 -1.36787 -3.32892 0
M  V30 5571 C 568.422 -2.87536 -3.43551 0
M  V30 5572 C 570.166 -1.16444 -4.08217 0
M  V30 5573 C 568.073 -3.38247 -4.85122 0
M  V30 5574 H 567.003 -0.292838 -0.694811 0
M  V30 5575 H 569.654 -1.29426 -1.30082 0
M  V30 5576 H 568.036 -0.793993 -3.87958 0
M  V30 5577 H 569.21 -3.50973 -2.98588 0
M  V30 5578 H 567.525 -3.06676 -2.81672 0
M  V30 5579 H 570.122 -1.51808 -5.12697 0
M  V30 5580 H 570.465 -0.10353 -4.16171 0
M  V30 5581 H 570.998 -1.70472 -3.59422 0
M  V30 5582 H 567.737 -4.43866 -4.82351 0
M  V30 5583 H 567.257 -2.79564 -5.30664 0
M  V30 5584 H 568.936 -3.34238 -5.5398 0
M  V30 5585 N 569.068 1.32177 -0.85831 0
M  V30 5586 C 570.015 2.28794 -0.303607 0
M  V30 5587 C 570.985 1.55213 0.591453 0
M  V30 5588 O 572.17 1.83418 0.525585 0
M  V30 5589 C 569.31 3.41475 0.49889 0
M  V30 5590 C 568.423 4.2993 -0.422373 0
M  V30 5591 C 567.558 5.29743 0.393111 0
M  V30 5592 C 566.597 6.09842 -0.525317 0
M  V30 5593 N 565.734 7.01643 0.253208 0
M  V30 5594 H 570.574 2.75631 -1.13276 0
M  V30 5595 H 568.111 1.35606 -0.570026 0
M  V30 5596 H 570.069 4.05531 0.979826 0
M  V30 5597 H 568.699 2.95779 1.29284 0
M  V30 5598 H 567.751 3.66422 -1.02171 0
M  V30 5599 H 569.063 4.85899 -1.12709 0
M  V30 5600 H 568.217 5.9942 0.937056 0
M  V30 5601 H 566.956 4.744 1.13117 0
M  V30 5602 H 565.961 5.39066 -1.08112 0
M  V30 5603 H 567.186 6.6727 -1.26205 0
M  V30 5604 H 565.132 6.48725 0.974295 0
M  V30 5605 H 565.049 7.54981 -0.392398 0
M  V30 5606 H 566.317 7.756 0.778761 0
M  V30 5607 N 570.547 0.616602 1.45037 0
M  V30 5608 C 571.477 -0.0840787 2.33349 0
M  V30 5609 C 572.458 -0.849641 1.4736 0
M  V30 5610 O 573.643 -0.818407 1.76113 0
M  V30 5611 C 570.773 -1.07604 3.3021 0
M  V30 5612 C 569.727 -0.423096 4.25904 0
M  V30 5613 C 569.053 -1.52394 5.12523 0
M  V30 5614 C 570.353 0.661457 5.18095 0
M  V30 5615 H 572.047 0.653333 2.92185 0
M  V30 5616 H 569.593 0.315634 1.40498 0
M  V30 5617 H 571.546 -1.57485 3.90866 0
M  V30 5618 H 570.27 -1.84416 2.69552 0
M  V30 5619 H 568.929 0.05493 3.66559 0
M  V30 5620 H 568.577 -2.28257 4.48227 0
M  V30 5621 H 568.277 -1.09251 5.77354 0
M  V30 5622 H 569.801 -2.02485 5.76049 0
M  V30 5623 H 571.215 0.246353 5.7277 0
M  V30 5624 H 569.612 1.01517 5.91451 0
M  V30 5625 H 570.682 1.53446 4.59981 0
M  V30 5626 N 572.025 -1.5352 0.356285 0
M  V30 5627 C 572.935 -2.29151 -0.502712 0
M  V30 5628 C 573.951 -1.34753 -1.1008 0
M  V30 5629 O 575.127 -1.67803 -1.11374 0
M  V30 5630 C 572.192 -3.05911 -1.63154 0
M  V30 5631 C 571.253 -4.15958 -1.06194 0
M  V30 5632 C 570.486 -4.8905 -2.13696 0
M  V30 5633 O 570.709 -4.61919 -3.34645 0
M  V30 5634 O 569.643 -5.75202 -1.77275 0
M  V30 5635 H 573.469 -3.03492 0.112466 0
M  V30 5636 H 571.054 -1.4891 0.120942 0
M  V30 5637 H 572.936 -3.53874 -2.28804 0
M  V30 5638 H 571.611 -2.34415 -2.23229 0
M  V30 5639 H 570.518 -3.7227 -0.369603 0
M  V30 5640 H 571.851 -4.89593 -0.505872 0
M  V30 5641 N 573.503 -0.0852151 -1.57369 0
M  V30 5642 C 574.451 0.894856 -2.14698 0
M  V30 5643 C 575.445 1.29903 -1.08727 0
M  V30 5644 O 576.651 1.27471 -1.27088 0
M  V30 5645 H 573.026 0.306569 -0.686673 0
M  V30 5646 H 574.997 0.386542 -2.95886 0
M  V30 5647 C 573.746 2.14798 -2.73417 0
M  V30 5648 H 573.069 1.84585 -3.54638 0
M  V30 5649 H 574.509 2.81456 -3.1711 0
M  V30 5650 C 572.968 2.91546 -1.68828 0
M  V30 5651 O 573.498 3.85733 -1.12129 0
M  V30 5652 N 571.704 2.54901 -1.39549 0
M  V30 5653 H 571.251 1.7838 -1.85845 0
M  V30 5654 H 571.209 3.06553 -0.698054 0
M  V30 5655 N 574.981 1.5647 0.188427 0
M  V30 5656 C 576.392 1.70864 0.752494 0
M  V30 5657 C 576.743 0.692905 1.83557 0
M  V30 5658 O 575.868 -0.149307 2.15884 0
M  V30 5659 C 576.463 3.09789 1.37173 0
M  V30 5660 C 575.022 3.25925 1.88281 0
M  V30 5661 C 574.169 2.66817 0.755259 0
M  V30 5662 H 577.12 1.58657 -0.0367408 0
M  V30 5663 H 577.141 3.07489 2.24122 0
M  V30 5664 H 576.653 3.83693 0.583219 0
M  V30 5665 H 574.754 2.56948 2.6983 0
M  V30 5666 H 574.867 4.33498 2.04001 0
M  V30 5667 H 573.231 2.2617 1.17128 0
M  V30 5668 H 574.014 3.43294 -0.0211237 0
M  V30 5669 N 576.459 -0.456382 1.50847 0
M  V30 5670 C 577.389 -1.56025 1.73719 0
M  V30 5671 C 578.37 -1.5967 0.586473 0
M  V30 5672 O 579.555 -1.75702 0.827185 0
M  V30 5673 C 576.685 -2.94251 1.84483 0
M  V30 5674 C 575.639 -3.05471 2.99786 0
M  V30 5675 C 574.965 -4.45489 2.95709 0
M  V30 5676 C 576.265 -2.81318 4.40065 0
M  V30 5677 H 577.959 -1.37138 2.66146 0
M  V30 5678 H 575.505 -0.658299 1.28072 0
M  V30 5679 H 577.458 -3.71417 1.99067 0
M  V30 5680 H 576.182 -3.14328 0.886891 0
M  V30 5681 H 574.841 -2.30741 2.84876 0
M  V30 5682 H 574.489 -4.62505 1.97732 0
M  V30 5683 H 574.189 -4.53929 3.73125 0
M  V30 5684 H 575.713 -5.24655 3.12362 0
M  V30 5685 H 577.127 -3.48226 4.55425 0
M  V30 5686 H 575.524 -3.01188 5.19043 0
M  V30 5687 H 576.594 -1.7706 4.51418 0
M  V30 5688 N 577.937 -1.40673 -0.710563 0
M  V30 5689 C 579.214 -1.29718 -1.46398 0
M  V30 5690 C 579.594 0.082177 -2.1094 0
M  V30 5691 O 578.942 1.09536 -2.00534 0
M  V30 5692 C 579.152 -2.43967 -2.49562 0
M  V30 5693 C 580.5 -2.84436 -3.15248 0
M  V30 5694 O 581.524 -2.43597 -2.59883 0
M  V30 5695 O 580.383 -3.55008 -4.1549 0
M  V30 5696 H 577.477 -0.509697 -0.651258 0
M  V30 5697 H 580.023 -1.52603 -0.742312 0
M  V30 5698 H 578.795 -3.36076 -2.0042 0
M  V30 5699 H 578.418 -2.22879 -3.29258 0
M  V30 5700 N 579.415 0.9433 -1.26252 0
M  V30 5701 C 580.645 1.72117 -1.14277 0
M  V30 5702 C 581.053 1.86726 0.304944 0
M  V30 5703 O 580.396 1.3727 1.22076 0
M  V30 5704 C 580.458 3.14778 -1.73651 0
M  V30 5705 C 580.122 3.23561 -3.22734 0
M  V30 5706 C 581.119 3.07001 -4.19579 0
M  V30 5707 C 578.804 3.47019 -3.63157 0
M  V30 5708 C 580.798 3.13763 -5.54826 0
M  V30 5709 C 578.485 3.53416 -4.98538 0
M  V30 5710 C 579.483 3.36804 -5.94182 0
M  V30 5711 O 579.171 3.42906 -7.27098 0
M  V30 5712 H 578.903 0.545781 -0.398873 0
M  V30 5713 H 581.457 1.19123 -1.67328 0
M  V30 5714 H 579.687 3.69186 -1.1506 0
M  V30 5715 H 581.376 3.74469 -1.56613 0
M  V30 5716 H 582.142 2.88736 -3.89688 0
M  V30 5717 H 578.021 3.59006 -2.89199 0
M  V30 5718 H 581.565 3.00714 -6.29458 0
M  V30 5719 H 577.462 3.71201 -5.28091 0
M  V30 5720 H 578.23 3.59463 -7.35342 0
M  V30 5721 N 580.893 1.08022 1.14757 0
M  V30 5722 C 582.141 0.805913 1.85336 0
M  V30 5723 C 582.462 -0.670162 1.83122 0
M  V30 5724 O 581.732 -1.48567 1.2769 0
M  V30 5725 H 580.312 0.295138 0.686223 0
M  V30 5726 H 582.974 1.36538 1.3908 0
M  V30 5727 H 582.07 1.14655 2.90277 0
M  V30 5728 N 582.371 -1.3172 0.865308 0
M  V30 5729 C 583.596 -2.01591 0.487415 0
M  V30 5730 C 584.021 -1.6455 -0.911307 0
M  V30 5731 O 583.379 -0.851689 -1.6005 0
M  V30 5732 C 583.427 -3.54759 0.646401 0
M  V30 5733 O 582.531 -4.11185 -0.316284 0
M  V30 5734 H 581.872 -0.634884 0.194468 0
M  V30 5735 H 584.402 -1.68024 1.16744 0
M  V30 5736 H 584.412 -4.04438 0.537932 0
M  V30 5737 H 583.087 -3.8106 1.66632 0
M  V30 5738 H 581.664 -3.72543 -0.163162 0
M  V30 5739 N 583.85 -0.624285 -1.44708 0
M  V30 5740 C 584.812 0.0749638 -2.29077 0
M  V30 5741 C 585.812 0.778965 -1.40673 0
M  V30 5742 O 587.003 0.624591 -1.62618 0
M  V30 5743 C 584.135 1.11663 -3.22094 0
M  V30 5744 H 585.327 -0.667013 -2.92388 0
M  V30 5745 H 582.88 -0.384098 -1.51507 0
M  V30 5746 H 583.615 1.88881 -2.63618 0
M  V30 5747 H 583.401 0.61583 -3.87234 0
M  V30 5748 H 584.891 1.60585 -3.8549 0
M  V30 5749 N 585.328 1.53329 -0.364422 0
M  V30 5750 C 586.574 2.02222 0.21855 0
M  V30 5751 C 586.929 1.24702 1.46517 0
M  V30 5752 O 586.222 0.331969 1.88702 0
M  V30 5753 C 586.416 3.52911 0.564661 0
M  V30 5754 C 586.245 4.45023 -0.646862 0
M  V30 5755 C 585.015 4.91838 -1.15858 0
M  V30 5756 C 587.213 4.91581 -1.51172 0
M  V30 5757 N 585.195 5.67955 -2.33025 0
M  V30 5758 C 586.566 5.66028 -2.53006 0
M  V30 5759 C 588.621 4.73656 -1.53473 0
M  V30 5760 C 587.324 6.24457 -3.56996 0
M  V30 5761 C 589.35 5.3295 -2.56356 0
M  V30 5762 C 588.712 6.07282 -3.56914 0
M  V30 5763 H 584.811 0.780832 0.0427199 0
M  V30 5764 H 587.395 1.87937 -0.508704 0
M  V30 5765 H 585.566 3.6736 1.26099 0
M  V30 5766 H 587.298 3.88528 1.13262 0
M  V30 5767 H 584.053 4.68043 -0.723393 0
M  V30 5768 H 584.477 6.10675 -2.92241 0
M  V30 5769 H 589.119 4.15714 -0.770842 0
M  V30 5770 H 586.837 6.81496 -4.34268 0
M  V30 5771 H 590.423 5.20976 -2.58989 0
M  V30 5772 H 589.303 6.52345 -4.35218 0
M  V30 5773 N 586.806 0.0935595 1.57322 0
M  V30 5774 C 587.769 -0.851426 2.12799 0
M  V30 5775 C 588.769 -1.21187 1.0569 0
M  V30 5776 O 589.959 -1.14156 1.31583 0
M  V30 5777 C 587.091 -2.14779 2.64731 0
M  V30 5778 H 588.284 -0.369733 2.97612 0
M  V30 5779 H 585.837 -0.155417 1.55525 0
M  V30 5780 H 586.572 -2.67437 1.83434 0
M  V30 5781 H 586.357 -1.89907 3.43042 0
M  V30 5782 H 587.847 -2.82383 3.07651 0
M  V30 5783 N 588.284 -1.56567 -0.180126 0
M  V30 5784 C 589.247 -1.94852 -1.20686 0
M  V30 5785 C 590.247 -0.831212 -1.3765 0
M  V30 5786 O 591.437 -1.09841 -1.35206 0
M  V30 5787 C 588.569 -2.23565 -2.57355 0
M  V30 5788 H 589.762 -2.86722 -0.879225 0
M  V30 5789 H 587.315 -1.50489 -0.422237 0
M  V30 5790 H 588.05 -1.34381 -2.95148 0
M  V30 5791 H 587.835 -3.04999 -2.46411 0
M  V30 5792 H 589.325 -2.54137 -3.31367 0
M  V30 5793 N 589.762 0.448376 -1.51087 0
M  V30 5794 C 590.725 1.52588 -1.71025 0
M  V30 5795 C 591.725 1.49958 -0.580442 0
M  V30 5796 O 592.915 1.52176 -0.847833 0
M  V30 5797 C 590.047 2.92163 -1.75652 0
M  V30 5798 H 591.24 1.36218 -2.67179 0
M  V30 5799 H 588.793 0.676313 -1.4091 0
M  V30 5800 H 589.528 3.13951 -0.812724 0
M  V30 5801 H 589.313 2.95478 -2.57751 0
M  V30 5802 H 590.803 3.70349 -1.92953 0
M  V30 5803 N 591.24 1.41047 0.703093 0
M  V30 5804 C 592.203 1.42036 1.79884 0
M  V30 5805 C 593.203 0.312153 1.57741 0
M  V30 5806 O 594.393 0.571672 1.64553 0
M  V30 5807 C 591.525 1.22437 3.18154 0
M  V30 5808 H 592.718 2.39572 1.80403 0
M  V30 5809 H 590.271 1.27079 0.909977 0
M  V30 5810 H 591.006 0.257112 3.23279 0
M  V30 5811 H 590.791 2.02723 3.35627 0
M  V30 5812 H 592.281 1.25946 3.98155 0
M  V30 5813 N 592.718 -0.936591 1.26751 0
M  V30 5814 C 593.681 -2.01752 1.08761 0
M  V30 5815 C 594.681 -1.60763 0.0344435 0
M  V30 5816 O 595.871 -1.71963 0.278258 0
M  V30 5817 C 593.003 -3.34543 0.655271 0
M  V30 5818 H 594.196 -2.19143 2.04735 0
M  V30 5819 H 591.749 -1.11618 1.09413 0
M  V30 5820 H 592.484 -3.22851 -0.30626 0
M  V30 5821 H 592.269 -3.65647 1.41578 0
M  V30 5822 H 593.759 -4.13944 0.551378 0
M  V30 5823 N 594.196 -1.08629 -1.14182 0
M  V30 5824 C 595.128 -0.676189 -2.18998 0
M  V30 5825 C 596.141 0.277871 -1.60411 0
M  V30 5826 O 597.33 0.0651771 -1.78381 0
M  V30 5827 C 594.43 0.0254916 -3.3889 0
M  V30 5828 C 593.603 -0.948039 -4.27002 0
M  V30 5829 C 592.662 -0.281268 -5.25448 0
M  V30 5830 O 591.688 -0.926378 -5.61611 0
M  V30 5831 N 592.89 0.967923 -5.72374 0
M  V30 5832 H 595.655 -1.57792 -2.54798 0
M  V30 5833 H 593.216 -0.972665 -1.29425 0
M  V30 5834 H 595.208 0.482554 -4.01813 0
M  V30 5835 H 593.778 0.829348 -3.01398 0
M  V30 5836 H 592.998 -1.58388 -3.6098 0
M  V30 5837 H 594.286 -1.60765 -4.82734 0
M  V30 5838 H 593.684 1.51175 -5.45126 0
M  V30 5839 H 592.241 1.36844 -6.37273 0
M  V30 5840 N 595.674 1.31259 -0.872281 0
M  V30 5841 C 596.914 1.98418 -0.490894 0
M  V30 5842 C 597.278 1.67429 0.939755 0
M  V30 5843 O 598.479 2.27818 1.42661 0
M  V30 5844 C 596.75 3.49583 -0.743408 0
M  V30 5845 S 598.309 4.36359 -0.462226 0
M  V30 5846 H 595.127 0.687005 -0.183151 0
M  V30 5847 H 597.729 1.59619 -1.12881 0
M  V30 5848 H 596.433 3.69627 -1.78338 0
M  V30 5849 H 595.964 3.93291 -0.0925758 0
M  V30 5850 H 597.979 4.91173 0.704525 0
M  V30 5851 N 597.152 0.631951 1.44375 0
M  V30 5852 C 598.568 0.297642 1.568 0
M  V30 5853 C 598.768 -1.19916 1.61934 0
M  V30 5854 O 597.824 -1.98324 1.56281 0
M  V30 5855 C 599.137 0.990286 2.83926 0
M  V30 5856 C 600.685 0.968507 2.97639 0
M  V30 5857 C 601.16 1.64163 4.27568 0
M  V30 5858 N 602.651 1.60826 4.34384 0
M  V30 5859 C 603.386 2.09802 5.33639 0
M  V30 5860 N 602.882 2.66973 6.39294 0
M  V30 5861 N 604.675 2.00426 5.25153 0
M  V30 5862 H 596.826 1.60353 1.39286 0
M  V30 5863 H 599.089 0.673142 0.667521 0
M  V30 5864 H 598.795 2.04519 2.8612 0
M  V30 5865 H 598.669 0.528563 3.73478 0
M  V30 5866 H 601.056 -0.0779247 2.94997 0
M  V30 5867 H 601.137 1.46873 2.09433 0
M  V30 5868 H 600.781 2.68752 4.3097 0
M  V30 5869 H 600.711 1.11624 5.14634 0
M  V30 5870 H 603.202 1.19087 3.58646 0
M  V30 5871 H 603.515 3.02074 7.11316 0
M  V30 5872 H 601.86 2.71024 6.39977 0
M  V30 5873 H 605.051 1.55483 4.41523 0
M  V30 5874 H 605.224 2.38906 6.02352 0
M  V30 5875 N 598.631 -1.53133 0.372548 0
M  V30 5876 C 599.861 -2.05476 -0.215202 0
M  V30 5877 C 600.269 -1.24534 -1.42436 0
M  V30 5878 O 599.612 -0.280771 -1.81542 0
M  V30 5879 C 599.674 -3.53276 -0.666068 0
M  V30 5880 C 599.338 -4.54998 0.427342 0
M  V30 5881 C 600.335 -5.03911 1.27944 0
M  V30 5882 C 598.02 -4.98828 0.589579 0
M  V30 5883 C 600.014 -5.95263 2.27905 0
M  V30 5884 C 597.701 -5.89984 1.59255 0
M  V30 5885 C 598.699 -6.38093 2.43571 0
M  V30 5886 O 598.387 -7.27451 3.42156 0
M  V30 5887 H 598.119 -0.67481 -0.040099 0
M  V30 5888 H 600.673 -1.98409 0.531312 0
M  V30 5889 H 598.903 -3.57904 -1.4643 0
M  V30 5890 H 600.592 -3.88442 -1.1776 0
M  V30 5891 H 601.358 -4.70792 1.16532 0
M  V30 5892 H 597.237 -4.60965 -0.0569456 0
M  V30 5893 H 600.781 -6.32736 2.93753 0
M  V30 5894 H 596.678 -6.22518 1.70711 0
M  V30 5895 H 597.446 -7.45467 3.37967 0
M  V30 5896 N 600.109 -0.101901 -1.5727 0
M  V30 5897 C 601.357 0.559091 -1.94213 0
M  V30 5898 C 601.678 1.68297 -0.984948 0
M  V30 5899 O 600.948 1.95863 -0.0381975 0
M  V30 5900 H 599.528 0.20952 -0.717015 0
M  V30 5901 H 602.19 -0.166831 -1.94185 0
M  V30 5902 H 601.286 0.96485 -2.96811 0
M  V30 5903 N 601.587 1.56661 0.17182 0
M  V30 5904 C 602.864 1.72838 0.915778 0
M  V30 5905 C 603.244 0.66316 2.00413 0
M  V30 5906 O 602.592 -0.322123 2.26218 0
M  V30 5907 C 602.802 3.16019 1.48097 0
M  V30 5908 C 604.15 3.76962 1.95408 0
M  V30 5909 O 605.174 3.19294 1.57892 0
M  V30 5910 O 604.033 4.78219 2.64516 0
M  V30 5911 H 601.127 0.705797 0.431021 0
M  V30 5912 H 603.673 1.68947 0.159689 0
M  V30 5913 H 602.445 3.85031 0.697618 0
M  V30 5914 H 602.068 3.24234 2.30126 0
M  V30 5915 N 603.065 -0.440357 1.51323 0
M  V30 5916 C 603.995 -1.54174 1.75364 0
M  V30 5917 C 604.976 -1.59039 0.603375 0
M  V30 5918 O 606.161 -1.74815 0.845774 0
M  V30 5919 C 603.291 -2.92277 1.87593 0
M  V30 5920 C 602.245 -3.02274 3.03009 0
M  V30 5921 C 601.571 -4.42327 3.00418 0
M  V30 5922 C 602.871 -2.76634 4.43024 0
M  V30 5923 H 604.565 -1.34307 2.67585 0
M  V30 5924 H 602.111 -0.644678 1.28763 0
M  V30 5925 H 604.064 -3.69284 2.02995 0
M  V30 5926 H 602.788 -3.13369 0.920179 0
M  V30 5927 H 601.447 -2.27706 2.87307 0
M  V30 5928 H 601.095 -4.60382 2.02626 0
M  V30 5929 H 600.795 -4.49946 3.77918 0
M  V30 5930 H 602.319 -5.21312 3.17909 0
M  V30 5931 H 603.733 -3.43376 4.59093 0
M  V30 5932 H 602.13 -2.95666 5.22208 0
M  V30 5933 H 603.2 -1.72262 4.5327 0
M  V30 5934 N 604.543 -1.41418 -0.695603 0
M  V30 5935 C 605.506 -1.42988 -1.79129 0
M  V30 5936 C 606.506 -0.320514 -1.57573 0
M  V30 5937 O 607.696 -0.58039 -1.64247 0
M  V30 5938 C 604.828 -1.24122 -3.175 0
M  V30 5939 H 606.021 -2.40526 -1.7913 0
M  V30 5940 H 603.574 -1.2756 -0.903225 0
M  V30 5941 H 604.309 -0.274253 -3.23138 0
M  V30 5942 H 604.094 -2.045 -3.34547 0
M  V30 5943 H 605.584 -1.28056 -3.97481 0
M  V30 5944 N 606.021 0.929856 -1.27246 0
M  V30 5945 C 607.246 1.71674 -1.16374 0
M  V30 5946 C 607.671 1.86064 0.276024 0
M  V30 5947 O 607.029 1.3591 1.19992 0
M  V30 5948 C 607.077 3.09526 -1.85003 0
M  V30 5949 O 606.181 3.96142 -1.14653 0
M  V30 5950 H 605.522 0.52629 -0.404863 0
M  V30 5951 H 608.052 1.16381 -1.68276 0
M  V30 5952 H 608.062 3.59852 -1.92276 0
M  V30 5953 H 606.737 2.98369 -2.89739 0
M  V30 5954 H 605.314 3.54584 -1.15433 0
M  V30 5955 N 607.499 1.09233 1.13605 0
M  V30 5956 C 608.429 0.751738 2.21068 0
M  V30 5957 C 609.41 -0.269688 1.67948 0
M  V30 5958 O 610.595 -0.13819 1.93708 0
M  V30 5959 C 607.725 0.16935 3.46887 0
M  V30 5960 C 606.679 1.12007 4.13084 0
M  V30 5961 C 606.005 0.399483 5.33206 0
M  V30 5962 C 607.305 2.46168 4.6065 0
M  V30 5963 H 608.999 1.65024 2.49815 0
M  V30 5964 H 606.545 0.794905 1.20072 0
M  V30 5965 H 608.498 -0.0809824 4.21322 0
M  V30 5966 H 607.222 -0.764335 3.1753 0
M  V30 5967 H 605.881 1.35564 3.40614 0
M  V30 5968 H 605.529 -0.538277 5.00112 0
M  V30 5969 H 605.229 1.03337 5.78442 0
M  V30 5970 H 606.753 0.157403 6.10397 0
M  V30 5971 H 608.167 2.26829 5.26518 0
M  V30 5972 H 606.564 3.05326 5.1662 0
M  V30 5973 H 607.634 3.07076 3.75276 0
M  V30 5974 N 608.977 -1.30795 0.87923 0
M  V30 5975 C 609.927 -2.25838 0.313276 0
M  V30 5976 C 610.911 -1.51025 -0.55499 0
M  V30 5977 O 612.103 -1.72413 -0.400353 0
M  V30 5978 C 609.232 -3.39981 -0.476204 0
M  V30 5979 C 608.318 -4.22154 0.405826 0
M  V30 5980 N 608.709 -4.82934 1.50362 0
M  V30 5981 C 607.007 -4.45552 0.199909 0
M  V30 5982 C 607.708 -5.44444 2.0483 0
M  V30 5983 N 606.684 -5.26723 1.34403 0
M  V30 5984 H 610.486 -2.70374 1.15218 0
M  V30 5985 H 608 -1.45168 0.728003 0
M  V30 5986 H 609.997 -4.07108 -0.898251 0
M  V30 5987 H 608.657 -2.96986 -1.31261 0
M  V30 5988 H 609.668 -4.82319 1.8865 0
M  V30 5989 H 606.345 -4.13169 -0.599795 0
M  V30 5990 H 607.735 -6.02701 2.96986 0
M  V30 5991 N 610.455 -0.639598 -1.44038 0
M  V30 5992 C 611.703 -0.147188 -2.01563 0
M  V30 5993 C 612.024 1.2384 -1.50628 0
M  V30 5994 O 611.294 1.82452 -0.713316 0
M  V30 5995 H 609.874 -0.0514231 -0.745228 0
M  V30 5996 H 612.536 -0.828205 -1.76428 0
M  V30 5997 H 611.632 -0.121358 -3.11864 0
M  V30 5998 N 611.933 1.52934 -0.380664 0
M  V30 5999 C 612.896 2.24809 0.446473 0
M  V30 6000 C 613.896 1.26133 0.997347 0
M  V30 6001 O 615.086 1.50297 0.880714 0
M  V30 6002 C 612.218 2.99649 1.62553 0
M  V30 6003 H 613.411 2.99343 -0.182677 0
M  V30 6004 H 610.964 1.55736 -0.132618 0
M  V30 6005 H 611.699 2.29395 2.29235 0
M  V30 6006 H 611.484 3.72066 1.23732 0
M  V30 6007 H 612.974 3.54246 2.21133 0
M  V30 6008 N 613.412 0.11024 1.57214 0
M  V30 6009 C 614.66 -0.548783 1.94506 0
M  V30 6010 C 614.981 -1.67772 0.99386 0
M  V30 6011 O 614.251 -1.9584 0.0485841 0
M  V30 6012 H 612.831 -0.205715 0.718116 0
M  V30 6013 H 615.493 0.177127 1.94093 0
M  V30 6014 H 614.589 -0.949096 2.97319 0
M  V30 6015 N 614.89 -1.56749 -0.16351 0
M  V30 6016 C 615.853 -1.96121 -1.18613 0
M  V30 6017 C 616.853 -0.845765 -1.36761 0
M  V30 6018 O 618.043 -1.11268 -1.34033 0
M  V30 6019 C 615.175 -2.26282 -2.54969 0
M  V30 6020 H 616.368 -2.87639 -0.848764 0
M  V30 6021 H 613.921 -1.50928 -0.406251 0
M  V30 6022 H 614.656 -1.37504 -2.93706 0
M  V30 6023 H 614.441 -3.07595 -2.43162 0
M  V30 6024 H 615.931 -2.57638 -3.28653 0
M  V30 6025 N 616.368 0.432326 -1.51554 0
M  V30 6026 C 617.331 1.50765 -1.72634 0
M  V30 6027 C 618.331 1.49334 -0.596314 0
M  V30 6028 O 619.521 1.51268 -0.863925 0
M  V30 6029 C 616.653 2.90284 -1.7874 0
M  V30 6030 H 617.846 1.33377 -2.68609 0
M  V30 6031 H 615.399 0.661329 -1.4162 0
M  V30 6032 H 616.134 3.13071 -0.845977 0
M  V30 6033 H 615.919 2.92727 -2.6087 0
M  V30 6034 H 617.409 3.68282 -1.96871 0
M  V30 6035 N 617.846 1.41785 0.688094 0
M  V30 6036 C 619.094 1.41264 1.4453 0
M  V30 6037 C 619.415 0.0252946 1.94984 0
M  V30 6038 O 618.685 -0.934081 1.72197 0
M  V30 6039 H 617.265 0.519998 0.536294 0
M  V30 6040 H 619.927 1.7709 0.813941 0
M  V30 6041 H 619.023 2.10439 2.30482 0
M  V30 6042 N 619.324 -0.923095 1.27737 0
M  V30 6043 C 620.735 -1.48626 1.12993 0
M  V30 6044 C 621.086 -1.94142 -0.283439 0
M  V30 6045 O 620.211 -1.81605 -1.17681 0
M  V30 6046 C 620.806 -2.70117 2.04505 0
M  V30 6047 C 619.365 -3.22642 1.93853 0
M  V30 6048 C 618.512 -1.95368 1.96791 0
M  V30 6049 H 621.463 -0.736737 1.40563 0
M  V30 6050 H 621.484 -3.4506 1.60356 0
M  V30 6051 H 620.996 -2.36959 3.07363 0
M  V30 6052 H 619.097 -3.60549 0.939968 0
M  V30 6053 H 619.21 -3.88525 2.80331 0
M  V30 6054 H 617.574 -2.12061 1.41076 0
M  V30 6055 H 618.357 -1.64517 3.01312 0
M  V30 6056 N 620.802 -1.09834 -1.13024 0
M  V30 6057 C 622.05 -0.835297 -1.8403 0
M  V30 6058 C 622.371 0.640944 -1.84165 0
M  V30 6059 O 621.641 1.46517 -1.30037 0
M  V30 6060 H 620.221 -0.306018 -0.681441 0
M  V30 6061 H 622.883 -1.38734 -1.36891 0
M  V30 6062 H 621.979 -1.19258 -2.88416 0
M  V30 6063 N 622.28 1.30327 -0.886154 0
M  V30 6064 C 623.505 2.0079 -0.519425 0
M  V30 6065 C 623.93 1.65979 0.885013 0
M  V30 6066 O 623.288 0.877043 1.58675 0
M  V30 6067 C 623.336 3.53686 -0.702758 0
M  V30 6068 O 622.44 4.11637 0.250828 0
M  V30 6069 H 621.781 0.63171 -0.204544 0
M  V30 6070 H 624.311 1.66145 -1.19402 0
M  V30 6071 H 624.321 4.03531 -0.602207 0
M  V30 6072 H 622.996 3.78361 -1.72673 0
M  V30 6073 H 621.573 3.72755 0.103873 0
M  V30 6074 N 623.758 0.647228 1.43697 0
M  V30 6075 C 625.006 0.157876 2.01482 0
M  V30 6076 C 625.327 -1.23039 1.51282 0
M  V30 6077 O 624.597 -1.82071 0.722982 0
M  V30 6078 H 623.177 0.0553745 0.744945 0
M  V30 6079 H 625.839 0.83755 1.75986 0
M  V30 6080 H 624.935 0.137895 3.11795 0
M  V30 6081 N 625.236 -1.5273 0.388769 0
M  V30 6082 C 626.461 -2.0647 -0.19621 0
M  V30 6083 C 626.886 -1.25865 -1.39784 0
M  V30 6084 O 626.244 -0.283562 -1.79069 0
M  V30 6085 C 626.292 -3.56456 -0.5451 0
M  V30 6086 O 625.396 -3.78426 -1.63912 0
M  V30 6087 H 624.737 -0.663599 -0.023067 0
M  V30 6088 H 627.267 -1.96898 0.556084 0
M  V30 6089 H 627.277 -3.99888 -0.809557 0
M  V30 6090 H 625.952 -4.14561 0.333417 0
M  V30 6091 H 624.529 -3.46884 -1.36842 0
M  V30 6092 N 626.714 -0.118576 -1.57153 0
M  V30 6093 C 628.125 0.40687 -1.82213 0
M  V30 6094 C 628.476 1.66636 -1.03571 0
M  V30 6095 O 627.601 2.14682 -0.272171 0
M  V30 6096 C 628.196 0.744949 -3.30509 0
M  V30 6097 C 626.755 1.21503 -3.5625 0
M  V30 6098 C 625.902 0.223511 -2.76398 0
M  V30 6099 H 628.853 -0.343712 -1.54933 0
M  V30 6100 H 628.874 1.6024 -3.45114 0
M  V30 6101 H 628.386 -0.171911 -3.87719 0
M  V30 6102 H 626.487 2.1488 -3.04396 0
M  V30 6103 H 626.6 1.16065 -4.64829 0
M  V30 6104 H 624.964 0.71046 -2.44591 0
M  V30 6105 H 625.747 -0.686439 -3.36367 0
M  V30 6106 N 628.193 1.56834 0.155195 0
M  V30 6107 C 629.418 1.87412 0.888337 0
M  V30 6108 C 629.843 0.70671 1.74319 0
M  V30 6109 O 629.201 -0.343892 1.78009 0
M  V30 6110 C 629.249 3.1652 1.72765 0
M  V30 6111 O 628.353 2.99877 2.83103 0
M  V30 6112 H 627.694 0.615983 0.247914 0
M  V30 6113 H 630.224 2.04061 0.148478 0
M  V30 6114 H 630.234 3.48334 2.12433 0
M  V30 6115 H 628.909 4.01094 1.09985 0
M  V30 6116 H 627.486 2.79453 2.46902 0
M  V30 6117 N 629.671 -0.424282 1.51781 0
M  V30 6118 C 630.634 -1.49848 1.73431 0
M  V30 6119 C 631.634 -1.49016 0.604225 0
M  V30 6120 O 632.824 -1.50808 0.871935 0
M  V30 6121 C 629.956 -2.89332 1.80277 0
M  V30 6122 H 631.149 -1.3195 2.69312 0
M  V30 6123 H 628.702 -0.653809 1.41968 0
M  V30 6124 H 629.437 -3.12618 0.862568 0
M  V30 6125 H 629.222 -2.9134 2.62419 0
M  V30 6126 H 630.712 -3.67233 1.98821 0
M  V30 6127 N 631.149 -1.42148 -0.680565 0
M  V30 6128 C 632.112 -1.4488 -1.77602 0
M  V30 6129 C 633.112 -0.337209 -1.57224 0
M  V30 6130 O 634.302 -0.597778 -1.63622 0
M  V30 6131 C 631.434 -1.27483 -3.16166 0
M  V30 6132 H 632.627 -2.42412 -1.76568 0
M  V30 6133 H 630.18 -1.28511 -0.889645 0
M  V30 6134 H 630.915 -0.30851 -3.22829 0
M  V30 6135 H 630.7 -2.08037 -3.3236 0
M  V30 6136 H 632.19 -1.32265 -3.96101 0
M  V30 6137 N 632.627 0.916307 -1.28225 0
M  V30 6138 C 633.59 1.99996 -1.11957 0
M  V30 6139 C 634.59 1.60688 -0.0600152 0
M  V30 6140 O 635.78 1.71499 -0.30558 0
M  V30 6141 C 632.912 3.33458 -0.708411 0
M  V30 6142 H 634.105 2.15858 -2.08196 0
M  V30 6143 H 631.658 1.09863 -1.11175 0
M  V30 6144 H 632.393 3.23297 0.254859 0
M  V30 6145 H 632.178 3.63349 -1.47377 0
M  V30 6146 H 633.668 4.13014 -0.617164 0
M  V30 6147 N 634.105 1.10431 1.1244 0
M  V30 6148 C 635.33 0.869089 1.88313 0
M  V30 6149 C 635.755 -0.574912 1.79099 0
M  V30 6150 O 635.113 -1.40496 1.14589 0
M  V30 6151 C 635.161 1.32208 3.3549 0
M  V30 6152 O 634.265 0.487092 4.09513 0
M  V30 6153 H 633.606 0.313894 0.585121 0
M  V30 6154 H 636.136 1.47111 1.42195 0
M  V30 6155 H 636.146 1.31201 3.86329 0
M  V30 6156 H 634.821 2.37364 3.41513 0
M  V30 6157 H 633.398 0.562372 3.68635 0
M  V30 6158 N 635.583 -1.29855 0.893053 0
M  V30 6159 C 636.808 -2.00512 0.530066 0
M  V30 6160 C 637.233 -1.66446 -0.876199 0
M  V30 6161 O 636.591 -0.885446 -1.58207 0
M  V30 6162 C 636.639 -3.53308 0.721505 0
M  V30 6163 O 635.743 -4.11764 -0.228994 0
M  V30 6164 H 635.084 -0.630617 0.207891 0
M  V30 6165 H 637.614 -1.6551 1.20282 0
M  V30 6166 H 637.624 -4.03206 0.623599 0
M  V30 6167 H 636.299 -3.77439 1.74678 0
M  V30 6168 H 634.876 -3.72805 -0.0841034 0
M  V30 6169 N 637.061 -0.65484 -1.43351 0
M  V30 6170 C 638.286 -0.175046 -2.0666 0
M  V30 6171 C 638.711 1.15104 -1.4877 0
M  V30 6172 O 638.069 1.71144 -0.598279 0
M  V30 6173 C 638.117 -0.0991544 -3.60464 0
M  V30 6174 O 637.221 0.938169 -4.01587 0
M  V30 6175 H 636.562 -0.0956148 -0.65708 0
M  V30 6176 H 639.092 -0.898222 -1.83829 0
M  V30 6177 H 639.102 0.083632 -4.07914 0
M  V30 6178 H 637.777 -1.06719 -4.01975 0
M  V30 6179 H 636.354 0.72804 -3.65724 0
M  V30 6180 N 638.539 1.52521 -0.396863 0
M  V30 6181 C 639.785 2.02641 0.175606 0
M  V30 6182 C 640.14 1.27782 1.43839 0
M  V30 6183 O 639.433 0.371921 1.87956 0
M  V30 6184 C 639.627 3.5403 0.489677 0
M  V30 6185 C 639.456 4.43551 -0.741113 0
M  V30 6186 C 638.226 4.8927 -1.26265 0
M  V30 6187 C 640.424 4.88263 -1.61565 0
M  V30 6188 N 638.406 5.62884 -2.4502 0
M  V30 6189 C 639.777 5.60534 -2.64955 0
M  V30 6190 C 641.832 4.70294 -1.63486 0
M  V30 6191 C 640.535 6.16744 -3.70162 0
M  V30 6192 C 642.561 5.27392 -2.67603 0
M  V30 6193 C 641.923 5.99575 -3.69715 0
M  V30 6194 H 638.022 0.781563 0.0261477 0
M  V30 6195 H 640.606 1.86816 -0.548454 0
M  V30 6196 H 638.777 3.69952 1.18279 0
M  V30 6197 H 640.509 3.90843 1.04996 0
M  V30 6198 H 637.264 4.66403 -0.822509 0
M  V30 6199 H 637.688 6.04339 -3.05128 0
M  V30 6200 H 642.33 4.13985 -0.858848 0
M  V30 6201 H 640.048 6.72131 -4.48626 0
M  V30 6202 H 643.634 5.15365 -2.69982 0
M  V30 6203 H 642.514 6.42967 -4.48958 0
M  V30 6204 N 640.017 0.126909 1.57088 0
M  V30 6205 C 640.967 -0.831678 2.1229 0
M  V30 6206 C 641.951 -1.22292 1.04564 0
M  V30 6207 O 643.143 -1.19269 1.30782 0
M  V30 6208 C 640.272 -2.07866 2.73215 0
M  V30 6209 C 639.358 -1.71143 3.88035 0
M  V30 6210 N 639.749 -1.05136 4.94753 0
M  V30 6211 C 638.047 -2.00549 3.98367 0
M  V30 6212 C 638.748 -0.877257 5.75047 0
M  V30 6213 N 637.724 -1.40477 5.25135 0
M  V30 6214 H 641.526 -0.317926 2.92175 0
M  V30 6215 H 639.04 -0.0753052 1.62225 0
M  V30 6216 H 641.037 -2.77516 3.11111 0
M  V30 6217 H 639.697 -2.59778 1.94796 0
M  V30 6218 H 640.708 -0.71442 5.12949 0
M  V30 6219 H 637.385 -2.54452 3.30999 0
M  V30 6220 H 638.775 -0.358536 6.70943 0
M  V30 6221 N 641.495 -1.56914 -0.146875 0
M  V30 6222 C 642.723 -1.87515 -0.874394 0
M  V30 6223 C 643.138 -0.715116 -1.74733 0
M  V30 6224 O 642.495 0.315113 -1.79759 0
M  V30 6225 C 642.546 -3.17362 -1.731 0
M  V30 6226 O 642.267 -4.28897 -0.893245 0
M  V30 6227 C 643.768 -3.61479 -2.56609 0
M  V30 6228 H 640.988 -0.621546 -0.252827 0
M  V30 6229 H 643.532 -2.04023 -0.139627 0
M  V30 6230 H 641.687 -3.02608 -2.41883 0
M  V30 6231 H 642.101 -5.03146 -1.48137 0
M  V30 6232 H 643.575 -4.5517 -3.12289 0
M  V30 6233 H 644.052 -2.86773 -3.32653 0
M  V30 6234 H 644.658 -3.78927 -1.93117 0
M  V30 6235 N 642.974 0.416227 -1.52004 0
M  V30 6236 C 643.904 1.51365 -1.77795 0
M  V30 6237 C 644.885 1.58059 -0.628601 0
M  V30 6238 O 646.07 1.73447 -0.873478 0
M  V30 6239 C 643.2 2.89256 -1.92219 0
M  V30 6240 C 642.154 2.97415 -3.0778 0
M  V30 6241 C 641.48 4.37492 -3.07417 0
M  V30 6242 C 642.78 2.69551 -4.47369 0
M  V30 6243 H 644.474 1.30033 -2.69688 0
M  V30 6244 H 642.02 0.624112 -1.29772 0
M  V30 6245 H 643.973 3.66008 -2.08845 0
M  V30 6246 H 642.697 3.11866 -0.969917 0
M  V30 6247 H 641.356 2.23107 -2.90893 0
M  V30 6248 H 641.004 4.571 -2.09925 0
M  V30 6249 H 640.704 4.43877 -3.85029 0
M  V30 6250 H 642.228 5.16188 -3.26162 0
M  V30 6251 H 643.642 3.36028 -4.64497 0
M  V30 6252 H 642.039 2.87321 -5.26846 0
M  V30 6253 H 643.109 1.65029 -4.55953 0
M  V30 6254 N 644.452 1.42507 0.673017 0
M  V30 6255 C 645.699 1.43072 1.43306 0
M  V30 6256 C 646.027 0.0478004 1.94441 0
M  V30 6257 O 645.282 -0.944106 1.71421 0
M  V30 6258 C 645.581 2.40351 2.64511 0
M  V30 6259 C 645.247 3.8669 2.31908 0
M  V30 6260 C 643.909 4.26551 2.22728 0
M  V30 6261 C 646.261 4.78991 2.05467 0
M  V30 6262 C 643.589 5.56691 1.85234 0
M  V30 6263 C 645.941 6.09476 1.69477 0
M  V30 6264 C 644.605 6.48334 1.58808 0
M  V30 6265 H 643.875 0.523536 0.524395 0
M  V30 6266 H 646.522 1.75459 0.76723 0
M  V30 6267 H 644.827 2.01297 3.36135 0
M  V30 6268 H 646.524 2.38051 3.22696 0
M  V30 6269 H 643.114 3.55132 2.39956 0
M  V30 6270 H 647.298 4.48982 2.11492 0
M  V30 6271 H 642.554 5.85657 1.75545 0
M  V30 6272 H 646.728 6.80482 1.48043 0
M  V30 6273 H 644.355 7.49084 1.29525 0
M  V30 6274 N 645.93 -0.909495 1.28709 0
M  V30 6275 C 647.158 -1.69272 1.18973 0
M  V30 6276 C 647.573 -1.87123 -0.251048 0
M  V30 6277 O 646.93 -1.40127 -1.16922 0
M  V30 6278 C 646.981 -3.08257 1.88839 0
M  V30 6279 O 646.702 -2.91228 3.27289 0
M  V30 6280 C 648.203 -4.02642 1.85457 0
M  V30 6281 H 645.423 -0.528999 0.412797 0
M  V30 6282 H 647.967 -1.13803 1.69909 0
M  V30 6283 H 646.122 -3.6053 1.41762 0
M  V30 6284 H 646.536 -3.79223 3.6234 0
M  V30 6285 H 648.01 -4.97613 2.38925 0
M  V30 6286 H 648.487 -4.31327 0.827893 0
M  V30 6287 H 649.093 -3.56298 2.32233 0
M  V30 6288 N 647.408 -1.11026 -1.11852 0
M  V30 6289 C 648.371 -0.768006 -2.1595 0
M  V30 6290 C 649.371 0.210538 -1.59416 0
M  V30 6291 O 650.561 -0.0133978 -1.74195 0
M  V30 6292 C 647.693 -0.138678 -3.40618 0
M  V30 6293 H 648.886 -1.69012 -2.4774 0
M  V30 6294 H 646.439 -0.911578 -1.26964 0
M  V30 6295 H 647.174 0.793872 -3.14433 0
M  V30 6296 H 646.959 -0.843012 -3.8293 0
M  V30 6297 H 648.449 0.0848039 -4.17514 0
M  V30 6298 N 648.886 1.2938 -0.899927 0
M  V30 6299 C 649.796 2.31462 -0.382437 0
M  V30 6300 C 650.812 1.65956 0.522929 0
M  V30 6301 O 651.988 1.97131 0.412454 0
M  V30 6302 C 649.053 3.44595 0.381472 0
M  V30 6303 C 648.114 4.25692 -0.555444 0
M  V30 6304 C 647.347 5.33422 0.172102 0
M  V30 6305 O 647.57 5.53053 1.396 0
M  V30 6306 O 646.504 5.99939 -0.485491 0
M  V30 6307 H 650.33 2.77706 -1.22934 0
M  V30 6308 H 647.915 1.33821 -0.664259 0
M  V30 6309 H 649.797 4.13474 0.813442 0
M  V30 6310 H 648.472 3.00458 1.20443 0
M  V30 6311 H 647.379 3.59453 -1.03653 0
M  V30 6312 H 648.712 4.73471 -1.34483 0
M  V30 6313 N 650.364 0.662433 1.43002 0
M  V30 6314 C 651.274 -0.0239199 2.34588 0
M  V30 6315 C 652.29 -0.802255 1.54402 0
M  V30 6316 O 653.466 -0.747401 1.87018 0
M  V30 6317 C 650.531 -0.972098 3.32793 0
M  V30 6318 C 649.592 -0.189673 4.28881 0
M  V30 6319 C 648.825 -1.09269 5.22395 0
M  V30 6320 O 649.048 -2.33209 5.20547 0
M  V30 6321 O 647.982 -0.560136 5.99288 0
M  V30 6322 H 651.808 0.730171 2.94792 0
M  V30 6323 H 649.393 0.422635 1.43297 0
M  V30 6324 H 651.275 -1.51676 3.93157 0
M  V30 6325 H 649.95 -1.70626 2.75079 0
M  V30 6326 H 648.857 0.398794 3.71968 0
M  V30 6327 H 650.19 0.50511 4.89601 0
M  V30 6328 N 651.842 -1.52309 0.404946 0
M  V30 6329 C 653.09 -2.01368 -0.17186 0
M  V30 6330 C 653.411 -1.29261 -1.46002 0
M  V30 6331 O 652.681 -0.41729 -1.91404 0
M  V30 6332 H 651.261 -0.744034 -0.0664993 0
M  V30 6333 H 653.923 -1.87263 0.540228 0
M  V30 6334 H 653.019 -3.09888 -0.370957 0
M  V30 6335 N 653.32 -0.135238 -1.57019 0
M  V30 6336 C 654.252 0.839675 -2.13265 0
M  V30 6337 C 655.265 1.21887 -1.07923 0
M  V30 6338 O 656.454 1.16499 -1.35241 0
M  V30 6339 C 653.554 2.13647 -2.63075 0
M  V30 6340 C 652.727 1.92646 -3.92691 0
M  V30 6341 C 651.786 3.06205 -4.27931 0
M  V30 6342 O 650.812 2.78409 -4.96465 0
M  V30 6343 N 652.014 4.33072 -3.86561 0
M  V30 6344 H 654.779 0.359026 -2.97542 0
M  V30 6345 H 652.34 0.0486979 -1.61827 0
M  V30 6346 H 654.332 2.88641 -2.8367 0
M  V30 6347 H 652.902 2.5301 -1.83588 0
M  V30 6348 H 652.122 1.01754 -3.80841 0
M  V30 6349 H 653.41 1.75939 -4.77413 0
M  V30 6350 H 652.808 4.58526 -3.31316 0
M  V30 6351 H 651.365 5.04885 -4.12231 0
M  V30 6352 N 654.798 1.5699 0.138552 0
M  V30 6353 C 655.728 2.01933 1.17241 0
M  V30 6354 C 656.709 0.90033 1.44319 0
M  V30 6355 O 657.894 1.16872 1.55095 0
M  V30 6356 C 655.024 2.40711 2.50351 0
M  V30 6357 C 653.978 3.55874 2.37776 0
M  V30 6358 C 653.304 3.80491 3.75674 0
M  V30 6359 C 654.604 4.8826 1.85472 0
M  V30 6360 H 656.298 2.88551 0.798672 0
M  V30 6361 H 653.844 1.3882 0.382743 0
M  V30 6362 H 655.797 2.70754 3.22909 0
M  V30 6363 H 654.521 1.5104 2.89576 0
M  V30 6364 H 653.18 3.2601 1.67669 0
M  V30 6365 H 652.828 2.88057 4.12349 0
M  V30 6366 H 652.528 4.57998 3.68119 0
M  V30 6367 H 654.052 4.12967 4.49767 0
M  V30 6368 H 655.466 5.16965 2.4783 0
M  V30 6369 H 653.863 5.69631 1.88787 0
M  V30 6370 H 654.933 4.78071 0.810935 0
M  V30 6371 N 656.276 -0.40816 1.52223 0
M  V30 6372 C 657.506 -1.17501 1.69932 0
M  V30 6373 C 657.914 -1.84729 0.408874 0
M  V30 6374 O 657.257 -1.7274 -0.625025 0
M  V30 6375 C 657.319 -2.27994 2.77955 0
M  V30 6376 C 656.983 -1.80894 4.19674 0
M  V30 6377 C 657.98 -1.29618 5.03483 0
M  V30 6378 C 655.665 -1.87698 4.65913 0
M  V30 6379 C 657.659 -0.857695 6.31603 0
M  V30 6380 C 655.346 -1.43461 5.94022 0
M  V30 6381 C 656.344 -0.925822 6.76696 0
M  V30 6382 O 656.032 -0.489841 8.02406 0
M  V30 6383 H 655.764 -0.359065 0.572755 0
M  V30 6384 H 658.318 -0.486188 1.99563 0
M  V30 6385 H 656.548 -3.00243 2.43703 0
M  V30 6386 H 658.237 -2.89749 2.84254 0
M  V30 6387 H 659.003 -1.23733 4.68951 0
M  V30 6388 H 654.882 -2.26244 4.01665 0
M  V30 6389 H 658.426 -0.459879 6.96083 0
M  V30 6390 H 654.323 -1.49026 6.28062 0
M  V30 6391 H 655.091 -0.613062 8.16201 0
M  V30 6392 N 657.755 -1.42862 -0.66545 0
M  V30 6393 C 659.003 -1.43546 -1.42264 0
M  V30 6394 C 659.324 -0.0563116 -1.94919 0
M  V30 6395 O 658.594 0.906568 -1.73661 0
M  V30 6396 H 657.174 -0.528464 -0.527953 0
M  V30 6397 H 659.836 -1.78363 -0.785665 0
M  V30 6398 H 658.932 -2.14079 -2.27105 0
M  V30 6399 N 659.233 0.902656 -1.29189 0
M  V30 6400 C 660.644 1.46809 -1.15343 0
M  V30 6401 C 660.995 1.94568 0.252517 0
M  V30 6402 O 660.12 1.83454 1.14777 0
M  V30 6403 C 660.715 2.66829 -2.08776 0
M  V30 6404 C 659.274 3.19518 -1.98961 0
M  V30 6405 C 658.421 1.92212 -1.99874 0
M  V30 6406 H 661.372 0.714282 -1.41717 0
M  V30 6407 H 661.393 3.42465 -1.65826 0
M  V30 6408 H 660.905 2.32039 -3.11094 0
M  V30 6409 H 659.006 3.59008 -0.99721 0
M  V30 6410 H 659.119 3.84016 -2.86477 0
M  V30 6411 H 657.483 2.0979 -1.44431 0
M  V30 6412 H 658.266 1.59702 -3.03891 0
M  V30 6413 N 660.711 1.11618 1.11262 0
M  V30 6414 C 661.951 0.876154 1.8467 0
M  V30 6415 C 662.315 -0.587551 1.82789 0
M  V30 6416 O 663.516 -0.944411 2.51663 0
M  V30 6417 C 661.787 1.42461 3.2778 0
M  V30 6418 S 663.346 1.32185 4.18417 0
M  V30 6419 H 660.164 0.31628 0.636779 0
M  V30 6420 H 662.766 1.42404 1.33946 0
M  V30 6421 H 661.47 2.48367 3.26714 0
M  V30 6422 H 661.001 0.873844 3.83572 0
M  V30 6423 H 663.016 0.287607 4.95366 0
M  V30 6424 N 662.189 -1.289 0.906776 0
M  V30 6425 C 663.437 -1.94883 0.535266 0
M  V30 6426 C 663.758 -1.71784 -0.922791 0
M  V30 6427 O 663.028 -1.05359 -1.65156 0
M  V30 6428 H 661.608 -0.721109 0.194962 0
M  V30 6429 H 664.27 -1.57018 1.15461 0
M  V30 6430 H 663.366 -3.03591 0.723821 0
M  V30 6431 N 663.667 -0.670007 -1.42649 0
M  V30 6432 C 664.915 -0.18991 -2.01206 0
M  V30 6433 C 665.236 1.20617 -1.53221 0
M  V30 6434 O 664.506 1.80898 -0.751856 0
M  V30 6435 H 663.086 -0.0672189 -0.743969 0
M  V30 6436 H 665.748 -0.865442 -1.74631 0
M  V30 6437 H 664.844 -0.187481 -3.11536 0
M  V30 6438 N 665.145 1.52092 -0.413018 0
M  V30 6439 C 666.393 2.01456 0.161178 0
M  V30 6440 C 666.714 1.30034 1.45314 0
M  V30 6441 O 665.984 0.427435 1.9118 0
M  V30 6442 H 664.564 0.744376 0.0625526 0
M  V30 6443 H 667.226 1.86974 -0.550151 0
M  V30 6444 H 666.322 3.1008 0.354517 0
M  V30 6445 N 666.623 0.143563 1.56945 0
M  V30 6446 C 667.871 -0.507402 1.95627 0
M  V30 6447 C 668.192 -1.65626 1.02922 0
M  V30 6448 O 667.462 -1.95693 0.0901136 0
M  V30 6449 H 666.042 -0.190436 0.722318 0
M  V30 6450 H 668.704 0.218257 1.93674 0
M  V30 6451 H 667.8 -0.885816 2.99265 0
M  V30 6452 N 668.101 -1.57061 -0.130224 0
M  V30 6453 C 669.349 -1.83893 -0.838313 0
M  V30 6454 C 669.67 -0.727046 -1.80939 0
M  V30 6455 O 668.94 0.249927 -1.94299 0
M  V30 6456 H 667.52 -0.67846 -0.312573 0
M  V30 6457 H 670.182 -1.94529 -0.120224 0
M  V30 6458 H 669.278 -2.79419 -1.39038 0
M  V30 6459 N 669.579 0.400081 -1.52437 0
M  V30 6460 C 670.827 1.14392 -1.6661 0
M  V30 6461 C 671.148 1.90792 -0.402927 0
M  V30 6462 O 670.418 1.87042 0.582425 0
M  V30 6463 H 668.998 0.425275 -0.614125 0
M  V30 6464 H 671.66 0.455076 -1.89513 0
M  V30 6465 H 670.756 1.85298 -2.51139 0
M  V30 6466 N 671.057 1.43213 0.657864 0
M  V30 6467 C 672.305 1.44298 1.41501 0
M  V30 6468 C 672.626 0.0666478 1.94886 0
M  V30 6469 O 671.896 -0.897345 1.74139 0
M  V30 6470 H 670.476 0.531257 0.525143 0
M  V30 6471 H 673.138 1.78777 0.776195 0
M  V30 6472 H 672.234 2.1528 2.25966 0
M  V30 6473 N 672.536 -0.895792 1.29666 0
M  V30 6474 C 673.784 -1.64339 1.17631 0
M  V30 6475 C 674.105 -1.93099 -0.271643 0
M  V30 6476 O 673.375 -1.55981 -1.18518 0
M  V30 6477 H 671.955 -0.609162 0.432354 0
M  V30 6478 H 674.617 -1.07389 1.62646 0
M  V30 6479 H 673.713 -2.59815 1.72924 0
M  V30 6480 N 674.014 -1.12206 -1.10668 0
M  V30 6481 C 675.262 -0.874144 -1.82217 0
M  V30 6482 C 675.583 0.601736 -1.85484 0
M  V30 6483 O 674.853 1.43725 -1.33116 0
M  V30 6484 H 673.433 -0.320404 -0.674797 0
M  V30 6485 H 676.095 -1.41606 -1.33917 0
M  V30 6486 H 675.191 -1.25349 -2.85822 0
M  V30 6487 N 675.492 1.28418 -0.913599 0
M  V30 6488 C 676.74 1.94596 -0.545594 0
M  V30 6489 C 677.061 1.7227 0.913668 0
M  V30 6490 O 676.331 1.06233 1.64595 0
M  V30 6491 H 674.911 0.720065 -0.198783 0
M  V30 6492 H 677.573 1.56404 -1.16292 0
M  V30 6493 H 676.669 3.03202 -0.739911 0
M  V30 6494 N 676.97 0.677563 1.42291 0
M  V30 6495 C 678.218 0.200578 2.01102 0
M  V30 6496 C 678.539 -1.19803 1.53858 0
M  V30 6497 O 677.809 -1.80496 0.761439 0
M  V30 6498 H 676.389 0.0711634 0.743603 0
M  V30 6499 H 679.051 0.874691 1.7417 0
M  V30 6500 H 678.147 0.204 3.11433 0
M  V30 6501 N 678.448 -1.51871 0.421078 0
M  V30 6502 C 679.696 -2.01539 -0.150492 0
M  V30 6503 C 680.017 -1.30803 -1.44623 0
M  V30 6504 O 679.287 -0.437568 -1.90951 0
M  V30 6505 H 677.867 -0.744698 -0.0586041 0
M  V30 6506 H 680.529 -1.8668 0.560059 0
M  V30 6507 H 679.625 -3.10264 -0.338068 0
M  V30 6508 N 679.926 -0.151884 -1.56866 0
M  V30 6509 C 681.174 0.497021 -1.95893 0
M  V30 6510 C 681.495 1.65078 -1.03799 0
M  V30 6511 O 680.765 1.95642 -0.10049 0
M  V30 6512 H 679.345 0.186603 -0.723318 0
M  V30 6513 H 682.007 -0.228525 -1.93556 0
M  V30 6514 H 681.103 0.869933 -2.99731 0
M  V30 6515 N 681.404 1.57128 0.121893 0
M  V30 6516 C 682.652 1.84335 0.828548 0
M  V30 6517 C 682.973 0.736632 1.80551 0
M  V30 6518 O 682.243 -0.23962 1.94429 0
M  V30 6519 H 680.823 0.680108 0.30897 0
M  V30 6520 H 683.485 1.9459 0.109906 0
M  V30 6521 H 682.581 2.80152 1.37554 0
M  V30 6522 N 682.882 -0.391992 1.52647 0
M  V30 6523 C 684.13 -1.13507 1.67214 0
M  V30 6524 C 684.451 -1.90575 0.41304 0
M  V30 6525 O 683.721 -1.87348 -0.572498 0
M  V30 6526 H 682.301 -0.422013 0.616372 0
M  V30 6527 H 684.963 -0.44502 1.89751 0
M  V30 6528 H 684.059 -1.83964 2.52118 0
M  V30 6529 N 684.36 -1.4356 -0.65026 0
M  V30 6530 C 685.608 -1.45046 -1.40734 0
M  V30 6531 C 685.929 -0.0769822 -1.94848 0
M  V30 6532 O 685.199 0.888098 -1.74613 0
M  V30 6533 H 683.779 -0.534034 -0.522318 0
M  V30 6534 H 686.441 -1.79186 -0.766703 0
M  V30 6535 H 685.537 -2.16476 -2.24822 0
M  V30 6536 N 685.838 0.888903 -1.30139 0
M  V30 6537 C 687.086 1.63713 -1.18501 0
M  V30 6538 C 687.407 1.9324 0.261399 0
M  V30 6539 O 686.677 1.56608 1.17689 0
M  V30 6540 H 685.257 0.606861 -0.435579 0
M  V30 6541 H 687.919 1.06525 -1.63213 0
M  V30 6542 H 687.015 2.58894 -1.743 0
M  V30 6543 N 687.317 1.12792 1.10072 0
M  V30 6544 C 688.565 0.883796 1.81751 0
M  V30 6545 C 688.886 -0.591891 1.858 0
M  V30 6546 O 688.156 -1.43017 1.33876 0
M  V30 6547 H 686.736 0.323978 0.673088 0
M  V30 6548 H 689.398 1.42314 1.33164 0
M  V30 6549 H 688.494 1.26863 2.85153 0
M  V30 6550 N 688.795 -1.27931 0.920396 0
M  V30 6551 C 690.043 -1.94304 0.555906 0
M  V30 6552 C 690.364 -1.72753 -0.904519 0
M  V30 6553 O 689.634 -1.07104 -1.64029 0
M  V30 6554 H 688.214 -0.719001 0.202599 0
M  V30 6555 H 690.876 -1.55785 1.1712 0
M  V30 6556 H 689.972 -3.02806 0.755981 0
M  V30 6557 N 690.273 -0.685099 -1.4193 0
M  V30 6558 C 691.521 -0.21124 -2.00993 0
M  V30 6559 C 691.842 1.18985 -1.54491 0
M  V30 6560 O 691.112 1.8009 -0.771 0
M  V30 6561 H 689.692 -0.0751059 -0.743215 0
M  V30 6562 H 692.354 -0.883915 -1.73704 0
M  V30 6563 H 691.45 -0.220513 -3.1132 0
M  V30 6564 N 691.751 1.51645 -0.429126 0
M  V30 6565 C 692.999 2.01616 0.139802 0
M  V30 6566 C 693.32 1.31568 1.43927 0
M  V30 6567 O 692.59 0.447688 1.90716 0
M  V30 6568 H 691.17 0.744998 0.054654 0
M  V30 6569 H 693.832 1.8638 -0.569952 0
M  V30 6570 H 692.928 3.10439 0.321609 0
M  V30 6571 N 693.229 0.160201 1.56784 0
M  V30 6572 C 694.477 -0.486625 1.96154 0
M  V30 6573 C 694.798 -1.64525 1.04673 0
M  V30 6574 O 694.068 -1.95586 0.110864 0
M  V30 6575 H 692.648 -0.182764 0.724297 0
M  V30 6576 H 695.31 0.238787 1.93432 0
M  V30 6577 H 694.406 -0.854025 3.00188 0
M  V30 6578 N 694.707 -1.5719 -0.113559 0
M  V30 6579 C 695.955 -1.84772 -0.818761 0
M  V30 6580 C 696.276 -0.746196 -1.80158 0
M  V30 6581 O 695.546 0.229305 -1.94553 0
M  V30 6582 H 694.126 -0.681737 -0.305359 0
M  V30 6583 H 696.788 -1.94645 -0.0995845 0
M  V30 6584 H 695.884 -2.80878 -1.36067 0
M  V30 6585 N 696.185 0.383891 -1.52853 0
M  V30 6586 C 697.433 1.12619 -1.67814 0
M  V30 6587 C 697.754 1.90354 -0.423141 0
M  V30 6588 O 697.024 1.87649 0.562554 0
M  V30 6589 H 695.604 0.418738 -0.618601 0
M  V30 6590 H 698.266 0.43495 -1.89985 0
M  V30 6591 H 697.362 1.82624 -2.5309 0
M  V30 6592 N 697.663 1.43903 0.642637 0
M  V30 6593 C 698.573 1.52349 1.78401 0
M  V30 6594 C 699.589 0.409869 1.69104 0
M  V30 6595 O 700.765 0.665548 1.90085 0
M  V30 6596 C 697.83 1.45408 3.14734 0
M  V30 6597 C 696.891 2.67528 3.35749 0
M  V30 6598 C 696.124 2.60909 4.65577 0
M  V30 6599 O 696.347 1.6627 5.45628 0
M  V30 6600 O 695.281 3.5158 4.88544 0
M  V30 6601 H 699.107 2.48752 1.7423 0
M  V30 6602 H 696.692 1.26021 0.802439 0
M  V30 6603 H 698.574 1.44019 3.96026 0
M  V30 6604 H 697.249 0.521437 3.19473 0
M  V30 6605 H 696.156 2.74487 2.5418 0
M  V30 6606 H 697.489 3.598 3.35864 0
M  V30 6607 N 699.141 -0.881989 1.30609 0
M  V30 6608 C 700.104 -1.96957 1.1722 0
M  V30 6609 C 701.104 -1.60472 0.102598 0
M  V30 6610 O 702.294 -1.70628 0.350943 0
M  V30 6611 C 699.426 -3.31463 0.796572 0
M  V30 6612 H 700.619 -2.10262 2.13846 0
M  V30 6613 H 698.172 -1.06877 1.14048 0
M  V30 6614 H 698.907 -3.23859 -0.169053 0
M  V30 6615 H 698.692 -3.59314 1.56959 0
M  V30 6616 H 700.182 -4.11233 0.72645 0
M  V30 6617 N 700.619 -1.13374 -1.09472 0
M  V30 6618 C 701.867 -0.893422 -1.8128 0
M  V30 6619 C 702.188 0.582029 -1.86111 0
M  V30 6620 O 701.458 1.42305 -1.34633 0
M  V30 6621 H 700.038 -0.327543 -0.67136 0
M  V30 6622 H 702.7 -1.43018 -1.32408 0
M  V30 6623 H 701.796 -1.28374 -2.84476 0
M  V30 6624 N 702.098 1.27442 -0.927168 0
M  V30 6625 C 703.061 2.2512 -0.430525 0
M  V30 6626 C 704.061 1.54357 0.450619 0
M  V30 6627 O 705.251 1.72371 0.251774 0
M  V30 6628 C 702.383 3.38763 0.381144 0
M  V30 6629 H 703.576 2.70569 -1.29354 0
M  V30 6630 H 701.129 1.39355 -0.707806 0
M  V30 6631 H 701.864 2.98695 1.263 0
M  V30 6632 H 701.649 3.91298 -0.250618 0
M  V30 6633 H 703.139 4.11364 0.719012 0
M  V30 6634 N 703.576 0.692616 1.41565 0
M  V30 6635 C 704.822 0.222664 2.01574 0
M  V30 6636 C 705.155 -1.1737 1.54719 0
M  V30 6637 O 704.43 -1.79161 0.757084 0
M  V30 6638 C 704.713 0.277064 3.59033 0
M  V30 6639 C 704.566 1.71016 4.16021 0
M  V30 6640 C 705.885 -0.36479 4.38586 0
M  V30 6641 H 703.004 0.0823839 0.732381 0
M  V30 6642 H 705.646 0.880778 1.68352 0
M  V30 6643 H 703.796 -0.283288 3.87466 0
M  V30 6644 H 705.468 2.32413 3.98475 0
M  V30 6645 H 703.711 2.24525 3.71175 0
M  V30 6646 H 704.382 1.69978 5.25178 0
M  V30 6647 H 706.858 0.112404 4.15948 0
M  V30 6648 H 705.734 -0.296169 5.481 0
M  V30 6649 H 705.995 -1.44506 4.17816 0
M  V30 6650 N 705.054 -1.51416 0.437162 0
M  V30 6651 C 706.017 -2.26312 -0.362729 0
M  V30 6652 C 707.017 -1.29748 -0.949847 0
M  V30 6653 O 708.207 -1.53462 -0.824325 0
M  V30 6654 C 705.339 -3.05475 -1.5132 0
M  V30 6655 H 706.532 -2.98459 0.29365 0
M  V30 6656 H 704.085 -1.55137 0.190327 0
M  V30 6657 H 704.82 -2.37744 -2.20563 0
M  V30 6658 H 704.605 -3.76401 -1.09838 0
M  V30 6659 H 706.095 -3.62209 -2.07833 0
M  V30 6660 N 706.532 -0.168513 -1.56696 0
M  V30 6661 C 707.943 0.348694 -1.83415 0
M  V30 6662 C 708.294 1.63257 -1.0882 0
M  V30 6663 O 707.419 2.13707 -0.340333 0
M  V30 6664 C 708.014 0.639423 -3.32711 0
M  V30 6665 C 706.573 1.10108 -3.59935 0
M  V30 6666 C 705.72 0.135464 -2.76969 0
M  V30 6667 H 708.671 -0.392829 -1.53761 0
M  V30 6668 H 708.692 1.49179 -3.50037 0
M  V30 6669 H 708.204 -0.295173 -3.86976 0
M  V30 6670 H 706.305 2.05088 -3.11079 0
M  V30 6671 H 706.418 1.01218 -4.68286 0
M  V30 6672 H 704.782 0.632286 -2.46727 0
M  V30 6673 H 705.565 -0.793104 -3.34013 0
M  V30 6674 N 708.01 1.57248 0.105221 0
M  V30 6675 C 709.24 1.89492 0.823175 0
M  V30 6676 C 709.648 0.75934 1.73294 0
M  V30 6677 O 708.991 -0.278182 1.81581 0
M  V30 6678 C 709.053 3.16891 1.69765 0
M  V30 6679 C 708.717 4.46787 0.960769 0
M  V30 6680 C 709.714 5.19061 0.295218 0
M  V30 6681 C 707.399 4.93467 0.937854 0
M  V30 6682 C 709.393 6.36246 -0.383393 0
M  V30 6683 C 707.08 6.10566 0.255452 0
M  V30 6684 C 708.078 6.81804 -0.404003 0
M  V30 6685 O 707.766 7.96673 -1.07549 0
M  V30 6686 H 707.498 0.631512 0.24118 0
M  V30 6687 H 710.052 2.05203 0.0899655 0
M  V30 6688 H 708.282 2.973 2.47285 0
M  V30 6689 H 709.971 3.35046 2.29126 0
M  V30 6690 H 710.737 4.84044 0.304448 0
M  V30 6691 H 706.616 4.37913 1.44058 0
M  V30 6692 H 710.16 6.91787 -0.898696 0
M  V30 6693 H 706.057 6.45039 0.244032 0
M  V30 6694 H 706.825 8.12596 -0.981355 0
M  V30 6695 N 709.488 -0.375779 1.53054 0
M  V30 6696 C 710.736 -1.11727 1.68409 0
M  V30 6697 C 711.057 -1.90127 0.43323 0
M  V30 6698 O 710.327 -1.87945 -0.552595 0
M  V30 6699 H 708.907 -0.415451 0.620813 0
M  V30 6700 H 711.569 -0.424869 1.90213 0
M  V30 6701 H 710.665 -1.8128 2.54055 0
M  V30 6702 N 710.966 -1.44241 -0.634997 0
M  V30 6703 C 712.196 -1.50078 -1.41987 0
M  V30 6704 C 712.604 -0.123072 -1.88799 0
M  V30 6705 O 711.947 0.880552 -1.6122 0
M  V30 6706 C 712.009 -2.40033 -2.67628 0
M  V30 6707 C 711.673 -3.87268 -2.42637 0
M  V30 6708 C 712.67 -4.77902 -2.04708 0
M  V30 6709 C 710.355 -4.31933 -2.56396 0
M  V30 6710 C 712.349 -6.11202 -1.80862 0
M  V30 6711 C 710.036 -5.65281 -2.32164 0
M  V30 6712 C 711.034 -6.54734 -1.94455 0
M  V30 6713 O 710.722 -7.85613 -1.7049 0
M  V30 6714 H 710.454 -0.51146 -0.442023 0
M  V30 6715 H 713.008 -1.89843 -0.784138 0
M  V30 6716 H 711.238 -1.95188 -3.33824 0
M  V30 6717 H 712.927 -2.36863 -3.29622 0
M  V30 6718 H 713.693 -4.44668 -1.93638 0
M  V30 6719 H 709.572 -3.62569 -2.84719 0
M  V30 6720 H 713.116 -6.80983 -1.51353 0
M  V30 6721 H 709.013 -5.98078 -2.42843 0
M  V30 6722 H 709.781 -7.97373 -1.84767 0
M  V30 6723 N 712.444 0.87505 -1.31075 0
M  V30 6724 C 713.672 1.66058 -1.23419 0
M  V30 6725 C 714.087 1.87723 0.201347 0
M  V30 6726 O 713.444 1.43178 1.13165 0
M  V30 6727 C 713.495 3.03142 -1.96945 0
M  V30 6728 O 713.216 2.82448 -3.34895 0
M  V30 6729 C 714.717 3.97583 -1.96067 0
M  V30 6730 H 711.937 0.517868 -0.426677 0
M  V30 6731 H 714.481 1.09258 -1.72867 0
M  V30 6732 H 712.636 3.56645 -1.51271 0
M  V30 6733 H 713.05 3.69483 -3.72267 0
M  V30 6734 H 714.524 4.91104 -2.52034 0
M  V30 6735 H 715.001 4.2898 -0.941961 0
M  V30 6736 H 715.607 3.50015 -2.41597 0
M  V30 6737 N 713.922 1.13953 1.08869 0
M  V30 6738 C 715.338 0.878924 1.33218 0
M  V30 6739 C 715.538 -0.482478 1.95638 0
M  V30 6740 O 714.594 -1.22778 2.2064 0
M  V30 6741 C 715.907 2.00798 2.23832 0
M  V30 6742 C 717.455 2.04073 2.37325 0
M  V30 6743 C 717.93 3.16258 3.31278 0
M  V30 6744 N 719.421 3.15805 3.38853 0
M  V30 6745 C 720.156 3.99249 4.11567 0
M  V30 6746 N 719.652 4.92721 4.87029 0
M  V30 6747 N 721.445 3.87327 4.0735 0
M  V30 6748 H 713.596 2.01645 0.66731 0
M  V30 6749 H 715.859 0.878395 0.356547 0
M  V30 6750 H 715.565 2.98986 1.85203 0
M  V30 6751 H 715.439 1.92704 3.24261 0
M  V30 6752 H 717.826 1.06495 2.75214 0
M  V30 6753 H 717.907 2.16239 1.36654 0
M  V30 6754 H 717.551 4.14079 2.9411 0
M  V30 6755 H 717.481 3.0133 4.31866 0
M  V30 6756 H 719.972 2.48102 2.8505 0
M  V30 6757 H 720.285 5.52867 5.39961 0
M  V30 6758 H 718.63 4.96723 4.86098 0
M  V30 6759 H 721.821 3.13627 3.475 0
M  V30 6760 H 721.994 4.52585 4.63757 0
M  V30 6761 N 715.4 -1.26948 0.933913 0
M  V30 6762 C 716.811 -1.76058 0.621324 0
M  V30 6763 C 717.162 -1.76175 -0.863522 0
M  V30 6764 O 716.287 -1.36921 -1.67576 0
M  V30 6765 C 716.882 -3.19713 1.12111 0
M  V30 6766 C 715.441 -3.66465 0.859074 0
M  V30 6767 C 714.588 -2.46186 1.27624 0
M  V30 6768 H 717.539 -1.13127 1.11301 0
M  V30 6769 H 717.56 -3.77566 0.471608 0
M  V30 6770 H 717.072 -3.19596 2.20182 0
M  V30 6771 H 715.173 -3.72021 -0.207566 0
M  V30 6772 H 715.286 -4.55636 1.48098 0
M  V30 6773 H 713.65 -2.45042 0.694727 0
M  V30 6774 H 714.433 -2.48774 2.36572 0
M  V30 6775 N 716.879 -0.700114 -1.41195 0
M  V30 6776 C 718.29 -0.307249 -1.84154 0
M  V30 6777 C 718.641 1.15539 -1.58572 0
M  V30 6778 O 717.766 1.88744 -1.05852 0
M  V30 6779 C 718.361 -0.550872 -3.34292 0
M  V30 6780 C 716.92 -0.211877 -3.75803 0
M  V30 6781 C 716.067 -0.830915 -2.64558 0
M  V30 6782 H 719.018 -0.900431 -1.30683 0
M  V30 6783 H 719.039 0.188954 -3.80031 0
M  V30 6784 H 718.551 -1.61548 -3.5288 0
M  V30 6785 H 716.652 0.848283 -3.62815 0
M  V30 6786 H 716.765 -0.67007 -4.74391 0
M  V30 6787 H 715.129 -0.260155 -2.53368 0
M  V30 6788 H 715.912 -1.89948 -2.85963 0
M  V30 6789 N 718.357 1.51182 -0.445186 0
M  V30 6790 C 719.289 2.25714 0.398206 0
M  V30 6791 C 720.302 1.30032 0.979562 0
M  V30 6792 O 721.491 1.55731 0.872368 0
M  V30 6793 C 718.591 3.00348 1.56985 0
M  V30 6794 C 717.764 4.23187 1.10596 0
M  V30 6795 C 716.823 4.80334 2.14863 0
M  V30 6796 O 715.849 5.4196 1.73977 0
M  V30 6797 N 717.051 4.65053 3.47427 0
M  V30 6798 H 719.816 2.98732 -0.240629 0
M  V30 6799 H 717.377 1.59556 -0.274507 0
M  V30 6800 H 719.369 3.35464 2.26376 0
M  V30 6801 H 717.939 2.30291 2.11387 0
M  V30 6802 H 717.159 3.93476 0.238832 0
M  V30 6803 H 718.447 5.02886 0.773537 0
M  V30 6804 H 717.845 4.15984 3.83372 0
M  V30 6805 H 716.402 5.04509 4.12691 0
M  V30 6806 N 719.835 0.176821 1.56605 0
M  V30 6807 C 721.083 -0.465793 1.96659 0
M  V30 6808 C 721.404 -1.63406 1.06412 0
M  V30 6809 O 720.674 -1.95457 0.131603 0
M  V30 6810 H 719.254 -0.175072 0.726195 0
M  V30 6811 H 721.916 0.25929 1.93168 0
M  V30 6812 H 721.012 -0.822138 3.01077 0
M  V30 6813 N 721.313 -1.57302 -0.09688 0
M  V30 6814 C 722.243 -2.0497 -1.11846 0
M  V30 6815 C 723.224 -0.938278 -1.41882 0
M  V30 6816 O 724.409 -1.20943 -1.51942 0
M  V30 6817 C 721.539 -2.47264 -2.43881 0
M  V30 6818 C 720.493 -3.62053 -2.28257 0
M  V30 6819 C 719.819 -3.90318 -3.65453 0
M  V30 6820 C 721.119 -4.93005 -1.72461 0
M  V30 6821 H 722.813 -2.90567 -0.721888 0
M  V30 6822 H 720.359 -1.39786 -0.345803 0
M  V30 6823 H 722.312 -2.7922 -3.15617 0
M  V30 6824 H 721.036 -1.58664 -2.8547 0
M  V30 6825 H 719.695 -3.30341 -1.58967 0
M  V30 6826 H 719.343 -2.98889 -4.04567 0
M  V30 6827 H 719.043 -4.67597 -3.55846 0
M  V30 6828 H 720.567 -4.24747 -4.3866 0
M  V30 6829 H 721.981 -5.23354 -2.34036 0
M  V30 6830 H 720.378 -5.74436 -1.73618 0
M  V30 6831 H 721.448 -4.80053 -0.683898 0
M  V30 6832 N 722.791 0.367657 -1.53252 0
M  V30 6833 C 723.754 1.43308 -1.78873 0
M  V30 6834 C 724.754 1.46671 -0.659115 0
M  V30 6835 O 725.944 1.47468 -0.927306 0
M  V30 6836 C 723.076 2.82442 -1.90892 0
M  V30 6837 H 724.269 1.21864 -2.74024 0
M  V30 6838 H 721.822 0.600668 -1.44297 0
M  V30 6839 H 722.557 3.09202 -0.978 0
M  V30 6840 H 722.342 2.81399 -2.73051 0
M  V30 6841 H 723.832 3.59601 -2.12314 0
M  V30 6842 N 724.269 1.44576 0.627338 0
M  V30 6843 C 725.517 1.47267 1.38408 0
M  V30 6844 C 725.838 0.107971 1.94701 0
M  V30 6845 O 725.108 -0.860206 1.76004 0
M  V30 6846 H 723.688 0.542276 0.513756 0
M  V30 6847 H 726.35 1.80383 0.738099 0
M  V30 6848 H 725.446 2.20025 2.21349 0
M  V30 6849 N 725.747 -0.868086 1.31537 0
M  V30 6850 C 726.679 -1.98165 1.15166 0
M  V30 6851 C 727.692 -1.6255 0.0902335 0
M  V30 6852 O 728.881 -1.75272 0.33791 0
M  V30 6853 C 725.981 -3.30772 0.737776 0
M  V30 6854 C 725.154 -3.94716 1.88462 0
M  V30 6855 C 724.213 -5.05641 1.45648 0
M  V30 6856 O 723.239 -5.2636 2.16642 0
M  V30 6857 N 724.441 -5.79474 0.34493 0
M  V30 6858 H 727.206 -2.12754 2.11083 0
M  V30 6859 H 724.767 -1.04217 1.23897 0
M  V30 6860 H 726.759 -4.02366 0.434032 0
M  V30 6861 H 725.329 -3.1233 -0.129834 0
M  V30 6862 H 724.549 -3.16079 2.35558 0
M  V30 6863 H 725.837 -4.34175 2.65273 0
M  V30 6864 H 725.235 -5.65164 -0.246259 0
M  V30 6865 H 723.792 -6.51722 0.100728 0
M  V30 6866 N 727.225 -1.14528 -1.08264 0
M  V30 6867 C 728.135 -0.84728 -2.18765 0
M  V30 6868 C 729.151 0.172826 -1.7314 0
M  V30 6869 O 730.327 0.000985336 -2.014 0
M  V30 6870 C 727.392 -0.330633 -3.4512 0
M  V30 6871 C 726.453 -1.41348 -4.05363 0
M  V30 6872 C 725.686 -0.921387 -5.25686 0
M  V30 6873 O 725.909 0.236587 -5.69909 0
M  V30 6874 O 724.843 -1.70101 -5.77364 0
M  V30 6875 H 728.669 -1.7708 -2.46731 0
M  V30 6876 H 726.254 -0.923661 -1.17426 0
M  V30 6877 H 728.136 -0.0485053 -4.21372 0
M  V30 6878 H 726.811 0.565147 -3.18728 0
M  V30 6879 H 725.718 -1.74908 -3.30693 0
M  V30 6880 H 727.051 -2.28383 -4.36007 0
M  V30 6881 N 728.703 1.26451 -0.940633 0
M  V30 6882 C 729.928 1.98407 -0.60412 0
M  V30 6883 C 730.353 1.69584 0.81382 0
M  V30 6884 O 729.711 0.943553 1.54812 0
M  V30 6885 C 729.759 3.50387 -0.852136 0
M  V30 6886 O 728.863 4.1233 0.076013 0
M  V30 6887 H 728.204 0.622466 -0.231153 0
M  V30 6888 H 730.734 1.60932 -1.26342 0
M  V30 6889 H 730.744 4.00614 -0.772816 0
M  V30 6890 H 729.419 3.70696 -1.88566 0
M  V30 6891 H 727.996 3.7286 -0.0543187 0
M  V30 6892 N 730.181 0.707592 1.40822 0
M  V30 6893 C 731.458 0.171172 1.9485 0
M  V30 6894 C 731.838 -1.32143 1.64625 0
M  V30 6895 O 731.186 -2.07372 0.959647 0
M  V30 6896 C 731.396 0.475334 3.45748 0
M  V30 6897 C 732.744 0.409625 4.22619 0
M  V30 6898 O 733.768 0.410934 3.53822 0
M  V30 6899 O 732.627 0.380185 5.45176 0
M  V30 6900 H 729.721 0.022015 0.826707 0
M  V30 6901 H 732.267 0.784577 1.50474 0
M  V30 6902 H 731.039 1.50801 3.61075 0
M  V30 6903 H 730.662 -0.168439 3.97243 0
M  V30 6904 N 731.66 -1.50943 0.453197 0
M  V30 6905 C 732.907 -2.02212 -0.107922 0
M  V30 6906 C 733.235 -1.33639 -1.41318 0
M  V30 6907 O 732.49 -0.445154 -1.9057 0
M  V30 6908 C 732.789 -3.55603 -0.357944 0
M  V30 6909 C 732.455 -4.42556 0.863427 0
M  V30 6910 C 731.117 -4.6604 1.19834 0
M  V30 6911 C 733.469 -4.93468 1.67747 0
M  V30 6912 C 730.797 -5.37681 2.34768 0
M  V30 6913 C 733.149 -5.6637 2.81793 0
M  V30 6914 C 731.813 -5.88113 3.1572 0
M  V30 6915 H 731.083 -0.739947 -0.0394916 0
M  V30 6916 H 733.73 -1.81738 0.60363 0
M  V30 6917 H 732.035 -3.74495 -1.15156 0
M  V30 6918 H 733.732 -3.92821 -0.805781 0
M  V30 6919 H 730.322 -4.24485 0.592478 0
M  V30 6920 H 734.506 -4.75194 1.43192 0
M  V30 6921 H 729.762 -5.52727 2.61348 0
M  V30 6922 H 733.936 -6.04806 3.45229 0
M  V30 6923 H 731.563 -6.43404 4.04889 0
M  V30 6924 N 733.138 -0.185124 -1.56509 0
M  V30 6925 C 734.366 0.462139 -2.01673 0
M  V30 6926 C 734.781 1.55873 -1.06532 0
M  V30 6927 O 734.138 1.82371 -0.0684805 0
M  V30 6928 C 734.189 1.0277 -3.46584 0
M  V30 6929 O 733.91 -0.0251296 -4.38093 0
M  V30 6930 C 735.411 1.75183 -4.07217 0
M  V30 6931 H 732.631 0.117001 -0.660721 0
M  V30 6932 H 735.175 -0.290905 -2.0242 0
M  V30 6933 H 733.33 1.73118 -3.46568 0
M  V30 6934 H 733.744 0.394387 -5.23015 0
M  V30 6935 H 735.218 2.09999 -5.10494 0
M  V30 6936 H 735.695 2.6519 -3.50101 0
M  V30 6937 H 736.301 1.09445 -4.10977 0
M  V30 6938 N 734.616 1.57351 0.0885366 0
M  V30 6939 C 735.579 2.01557 1.09121 0
M  V30 6940 C 736.579 0.910052 1.3257 0
M  V30 6941 O 737.769 1.17537 1.28572 0
M  V30 6942 C 734.901 2.38189 2.43883 0
M  V30 6943 H 736.094 2.91361 0.710562 0
M  V30 6944 H 733.647 1.52694 0.333779 0
M  V30 6945 H 734.382 1.5136 2.86811 0
M  V30 6946 H 734.167 3.18846 2.28209 0
M  V30 6947 H 735.657 2.73025 3.15986 0
M  V30 6948 N 736.094 -0.359525 1.53444 0
M  V30 6949 C 737.505 -0.936009 1.61542 0
M  V30 6950 C 737.856 -1.90069 0.486633 0
M  V30 6951 O 736.981 -2.12929 -0.386047 0
M  V30 6952 C 737.576 -1.70441 2.92806 0
M  V30 6953 C 736.135 -2.23015 3.03218 0
M  V30 6954 C 735.282 -1.04438 2.56881 0
M  V30 6955 H 738.233 -0.138134 1.58098 0
M  V30 6956 H 738.254 -2.56609 2.80948 0
M  V30 6957 H 737.766 -1.00205 3.74941 0
M  V30 6958 H 735.867 -2.96475 2.25684 0
M  V30 6959 H 735.98 -2.50481 4.08407 0
M  V30 6960 H 734.344 -1.41314 2.11902 0
M  V30 6961 H 735.127 -0.356905 3.4144 0
M  V30 6962 N 737.572 -1.44907 -0.619662 0
M  V30 6963 C 738.849 -1.38766 -1.37852 0
M  V30 6964 C 739.229 -0.0521393 -2.11036 0
M  V30 6965 O 738.577 0.965613 -2.07095 0
M  V30 6966 C 738.787 -2.59344 -2.33541 0
M  V30 6967 C 740.135 -3.03909 -2.96521 0
M  V30 6968 O 741.159 -2.59631 -2.43865 0
M  V30 6969 O 740.018 -3.80713 -3.92071 0
M  V30 6970 H 737.112 -0.550083 -0.617525 0
M  V30 6971 H 739.658 -1.57015 -0.643759 0
M  V30 6972 H 738.43 -3.48142 -1.78642 0
M  V30 6973 H 738.053 -2.43367 -3.14417 0
M  V30 6974 N 739.05 0.861098 -1.31996 0
M  V30 6975 C 740.296 1.61721 -1.22369 0
M  V30 6976 C 740.629 1.93 0.215587 0
M  V30 6977 O 739.904 1.56789 1.15098 0
M  V30 6978 C 740.187 2.9417 -2.07691 0
M  V30 6979 C 740.04 2.69714 -3.59965 0
M  V30 6980 C 741.359 3.95372 -1.93312 0
M  V30 6981 H 738.478 0.586822 -0.44588 0
M  V30 6982 H 741.12 0.994788 -1.61876 0
M  V30 6983 H 739.27 3.47292 -1.74128 0
M  V30 6984 H 740.942 2.23196 -4.03709 0
M  V30 6985 H 739.185 2.03789 -3.82952 0
M  V30 6986 H 739.856 3.63996 -4.14983 0
M  V30 6987 H 742.332 3.51487 -2.22701 0
M  V30 6988 H 741.208 4.85916 -2.55298 0
M  V30 6989 H 741.469 4.32865 -0.898922 0
M  V30 6990 N 740.528 1.15101 1.07655 0
M  V30 6991 C 741.774 0.935313 1.8062 0
M  V30 6992 C 742.129 -0.532052 1.84897 0
M  V30 6993 O 741.422 -1.3893 1.31943 0
M  V30 6994 C 741.616 1.47954 3.25337 0
M  V30 6995 C 741.445 2.99829 3.35161 0
M  V30 6996 C 740.215 3.68348 3.45902 0
M  V30 6997 C 742.413 3.97638 3.26173 0
M  V30 6998 N 740.395 5.08062 3.44596 0
M  V30 6999 C 741.766 5.23651 3.31949 0
M  V30 7000 C 743.821 3.89651 3.09962 0
M  V30 7001 C 742.524 6.42609 3.23182 0
M  V30 7002 C 744.55 5.08164 3.02528 0
M  V30 7003 C 743.912 6.3305 3.08913 0
M  V30 7004 H 740.011 0.395876 0.674393 0
M  V30 7005 H 742.595 1.4625 1.28526 0
M  V30 7006 H 740.766 0.979022 3.75859 0
M  V30 7007 H 742.498 1.20298 3.86407 0
M  V30 7008 H 739.253 3.18928 3.50117 0
M  V30 7009 H 739.677 5.81023 3.47479 0
M  V30 7010 H 744.319 2.93966 3.03881 0
M  V30 7011 H 742.037 7.38531 3.28022 0
M  V30 7012 H 745.623 5.03742 2.91093 0
M  V30 7013 H 744.503 7.23214 3.03201 0
M  V30 7014 N 742.006 -1.2595 0.947325 0
M  V30 7015 C 743.236 -1.97258 0.614235 0
M  V30 7016 C 743.644 -1.70682 -0.816355 0
M  V30 7017 O 742.987 -0.97527 -1.55673 0
M  V30 7018 C 743.049 -3.50845 0.784081 0
M  V30 7019 C 742.713 -4.01084 2.19045 0
M  V30 7020 C 743.71 -4.12347 3.16648 0
M  V30 7021 C 741.395 -4.34936 2.51268 0
M  V30 7022 C 743.389 -4.56766 4.44572 0
M  V30 7023 C 741.076 -4.79043 3.79422 0
M  V30 7024 C 742.074 -4.89919 4.75887 0
M  V30 7025 O 741.762 -5.3305 6.01758 0
M  V30 7026 H 741.494 -0.635738 0.22981 0
M  V30 7027 H 744.048 -1.61268 1.27207 0
M  V30 7028 H 742.278 -3.86638 0.069101 0
M  V30 7029 H 743.967 -4.03363 0.453135 0
M  V30 7030 H 744.733 -3.86432 2.93079 0
M  V30 7031 H 740.612 -4.25702 1.76916 0
M  V30 7032 H 744.156 -4.6517 5.19868 0
M  V30 7033 H 740.053 -5.04402 4.02802 0
M  V30 7034 H 740.821 -5.51255 6.05029 0
M  V30 7035 N 743.484 -0.715051 -1.40445 0
M  V30 7036 C 744.895 -0.326763 -1.83818 0
M  V30 7037 C 745.246 1.13851 -1.59789 0
M  V30 7038 O 744.371 1.87611 -1.07848 0
M  V30 7039 C 744.966 -0.586297 -3.33688 0
M  V30 7040 C 743.525 -0.251724 -3.75557 0
M  V30 7041 C 742.672 -0.858928 -2.63662 0
M  V30 7042 H 745.623 -0.914241 -1.2972 0
M  V30 7043 H 745.644 0.148636 -3.8021 0
M  V30 7044 H 745.156 -1.65281 -3.51146 0
M  V30 7045 H 743.257 0.809754 -3.63695 0
M  V30 7046 H 743.37 -0.720348 -4.73654 0
M  V30 7047 H 741.734 -0.287013 -2.53078 0
M  V30 7048 H 742.517 -1.9297 -2.83932 0
M  V30 7049 N 744.962 1.50701 -0.461195 0
M  V30 7050 C 746.21 2.01867 0.0970051 0
M  V30 7051 C 746.531 1.34591 1.41104 0
M  V30 7052 O 745.801 0.488041 1.89723 0
M  V30 7053 H 744.381 0.74599 0.0388392 0
M  V30 7054 H 747.043 1.85129 -0.609357 0
M  V30 7055 H 746.139 3.11051 0.255688 0
M  V30 7056 N 746.441 0.193421 1.56409 0
M  V30 7057 C 747.689 -0.444908 1.97142 0
M  V30 7058 C 748.01 -1.62268 1.08139 0
M  V30 7059 O 747.28 -1.95307 0.152326 0
M  V30 7060 H 745.86 -0.16736 0.728011 0
M  V30 7061 H 748.522 0.279763 1.92882 0
M  V30 7062 H 747.618 -0.790159 3.01932 0
M  V30 7063 N 747.919 -1.57396 -0.0801906 0
M  V30 7064 C 748.852 -1.98386 -1.12774 0
M  V30 7065 C 749.83 -0.859423 -1.38031 0
M  V30 7066 O 751.014 -1.12101 -1.51544 0
M  V30 7067 C 748.141 -2.3134 -2.47386 0
M  V30 7068 C 747.187 -3.53706 -2.38316 0
M  V30 7069 S 748.02 -5.04862 -1.78534 0
M  V30 7070 C 749.176 -5.41008 -3.1474 0
M  V30 7071 H 749.409 -2.86929 -0.778382 0
M  V30 7072 H 746.942 -1.51682 -0.28842 0
M  V30 7073 H 748.9 -2.51 -3.24822 0
M  V30 7074 H 747.561 -1.4334 -2.79486 0
M  V30 7075 H 746.754 -3.74253 -3.37566 0
M  V30 7076 H 746.356 -3.33632 -1.69014 0
M  V30 7077 H 748.648 -5.38565 -4.1104 0
M  V30 7078 H 749.591 -6.41885 -2.98981 0
M  V30 7079 H 749.999 -4.68467 -3.14958 0
M  V30 7080 N 749.397 0.351382 -1.53633 0
M  V30 7081 C 750.643 1.09411 -1.70754 0
M  V30 7082 C 750.976 1.88544 -0.465293 0
M  V30 7083 O 750.251 1.86923 0.537608 0
M  V30 7084 C 750.534 2.04173 -2.96623 0
M  V30 7085 C 750.387 1.28556 -4.31038 0
M  V30 7086 C 751.706 3.04102 -3.18136 0
M  V30 7087 H 748.825 0.396373 -0.621335 0
M  V30 7088 H 751.467 0.373464 -1.86293 0
M  V30 7089 H 749.617 2.65625 -2.83506 0
M  V30 7090 H 751.289 0.697786 -4.55992 0
M  V30 7091 H 749.532 0.587498 -4.29803 0
M  V30 7092 H 750.203 1.97989 -5.15271 0
M  V30 7093 H 752.679 2.5276 -3.30532 0
M  V30 7094 H 751.555 3.67616 -4.07615 0
M  V30 7095 H 751.816 3.75053 -2.34068 0
M  V30 7096 N 750.875 1.45233 0.611969 0
M  V30 7097 C 752.1 1.52767 1.40274 0
M  V30 7098 C 752.525 0.159701 1.87421 0
M  V30 7099 O 751.883 -0.854837 1.59882 0
M  V30 7100 C 751.931 2.51286 2.58626 0
M  V30 7101 O 751.035 2.02764 3.59111 0
M  V30 7102 H 750.376 0.515141 0.418958 0
M  V30 7103 H 752.906 1.90547 0.745188 0
M  V30 7104 H 752.916 2.69949 3.05927 0
M  V30 7105 H 751.591 3.50641 2.23659 0
M  V30 7106 H 750.168 1.93957 3.18489 0
M  V30 7107 N 752.353 -0.854086 1.3245 0
M  V30 7108 C 753.769 -1.14238 1.11453 0
M  V30 7109 C 753.969 -2.01228 -0.10461 0
M  V30 7110 O 753.025 -2.39845 -0.789339 0
M  V30 7111 C 754.338 -1.81916 2.39431 0
M  V30 7112 C 755.886 -1.94549 2.45193 0
M  V30 7113 C 756.361 -2.65642 3.73093 0
M  V30 7114 N 757.852 -2.73167 3.74078 0
M  V30 7115 C 758.587 -3.28828 4.69744 0
M  V30 7116 N 758.083 -3.85295 5.75778 0
M  V30 7117 N 759.876 -3.26936 4.57241 0
M  V30 7118 H 752.027 -0.274786 2.10615 0
M  V30 7119 H 754.29 -0.184375 0.929898 0
M  V30 7120 H 753.996 -1.25452 3.28565 0
M  V30 7121 H 753.87 -2.82068 2.50434 0
M  V30 7122 H 756.257 -2.50172 1.56518 0
M  V30 7123 H 756.338 -0.933914 2.38142 0
M  V30 7124 H 755.982 -2.10683 4.62142 0
M  V30 7125 H 755.912 -3.6724 3.77415 0
M  V30 7126 H 758.403 -2.33108 2.97438 0
M  V30 7127 H 758.716 -4.25925 6.44832 0
M  V30 7128 H 757.061 -3.83625 5.79531 0
M  V30 7129 H 760.252 -2.8207 3.7357 0
M  V30 7130 H 760.425 -3.70014 5.31971 0
M  V30 7131 N 753.831 -1.1567 -1.07043 0
M  V30 7132 C 755.077 -0.9349 -1.79965 0
M  V30 7133 C 755.41 0.536464 -1.86643 0
M  V30 7134 O 754.685 1.39781 -1.35247 0
M  V30 7135 C 754.968 -1.55371 -3.24857 0
M  V30 7136 C 754.821 -3.09589 -3.26305 0
M  V30 7137 C 756.14 -1.24209 -4.22209 0
M  V30 7138 H 753.259 -0.341061 -0.653335 0
M  V30 7139 H 755.901 -1.42883 -1.25237 0
M  V30 7140 H 754.051 -1.13368 -3.71591 0
M  V30 7141 H 755.723 -3.60521 -2.87789 0
M  V30 7142 H 753.966 -3.43315 -2.65174 0
M  V30 7143 H 754.637 -3.48002 -4.28484 0
M  V30 7144 H 757.113 -1.60548 -3.8388 0
M  V30 7145 H 755.989 -1.70119 -5.21872 0
M  V30 7146 H 756.25 -0.15964 -4.41812 0
M  V30 7147 N 755.309 1.25446 -0.953992 0
M  V30 7148 C 756.72 1.75047 -0.649255 0
M  V30 7149 C 757.071 1.77527 0.835385 0
M  V30 7150 O 756.196 1.39569 1.65377 0
M  V30 7151 C 756.791 3.17889 -1.17183 0
M  V30 7152 C 755.35 3.65052 -0.917267 0
M  V30 7153 C 754.497 2.44124 -1.31525 0
M  V30 7154 H 757.448 1.11342 -1.13087 0
M  V30 7155 H 757.469 3.76768 -0.531616 0
M  V30 7156 H 756.981 3.16052 -2.25239 0
M  V30 7157 H 755.082 3.72305 0.148354 0
M  V30 7158 H 755.195 4.53222 -1.55328 0
M  V30 7159 H 753.559 2.43906 -0.733624 0
M  V30 7160 H 754.342 2.44979 -2.405 0
M  V30 7161 N 756.787 0.722489 1.40064 0
M  V30 7162 C 758.017 0.274439 2.04769 0
M  V30 7163 C 758.425 -1.09125 1.54559 0
M  V30 7164 O 757.768 -1.69834 0.700149 0
M  V30 7165 C 757.83 0.184091 3.59028 0
M  V30 7166 C 757.494 1.48619 4.32159 0
M  V30 7167 C 758.491 2.42947 4.59644 0
M  V30 7168 C 756.176 1.74703 4.7094 0
M  V30 7169 C 758.17 3.616 5.24904 0
M  V30 7170 C 755.857 2.93636 5.3593 0
M  V30 7171 C 756.855 3.86907 5.62843 0
M  V30 7172 O 756.543 5.03753 6.26489 0
M  V30 7173 H 756.275 0.119847 0.665292 0
M  V30 7174 H 758.829 0.983352 1.80331 0
M  V30 7175 H 757.059 -0.580821 3.82313 0
M  V30 7176 H 758.748 -0.230306 4.05246 0
M  V30 7177 H 759.514 2.24062 4.30141 0
M  V30 7178 H 755.393 1.02955 4.49356 0
M  V30 7179 H 758.937 4.34418 5.45827 0
M  V30 7180 H 754.834 3.12428 5.64853 0
M  V30 7181 H 755.602 5.03922 6.44984 0
M  V30 7182 N 758.265 -1.50454 0.469181 0
M  V30 7183 C 759.676 -1.86695 0.0136034 0
M  V30 7184 C 760.027 -1.38413 -1.39055 0
M  V30 7185 O 759.152 -0.748294 -2.03051 0
M  V30 7186 C 759.747 -3.38795 0.0179098 0
M  V30 7187 C 758.306 -3.74455 -0.382191 0
M  V30 7188 C 757.453 -2.74338 0.404207 0
M  V30 7189 H 760.404 -1.43225 0.683547 0
M  V30 7190 H 760.425 -3.72321 -0.78468 0
M  V30 7191 H 759.937 -3.73906 1.04 0
M  V30 7192 H 758.038 -3.44944 -1.4087 0
M  V30 7193 H 758.151 -4.79025 -0.084862 0
M  V30 7194 H 756.515 -2.54305 -0.141829 0
M  V30 7195 H 757.298 -3.12293 1.42577 0
M  V30 7196 N 759.743 -0.201713 -1.56304 0
M  V30 7197 C 760.968 0.443815 -2.02596 0
M  V30 7198 C 761.393 1.53945 -1.08086 0
M  V30 7199 O 760.751 1.81182 -0.0655056 0
M  V30 7200 C 760.799 0.971066 -3.47279 0
M  V30 7201 O 759.903 2.0836 -3.55893 0
M  V30 7202 H 759.244 0.10294 -0.655972 0
M  V30 7203 H 761.774 -0.314533 -2.02168 0
M  V30 7204 H 761.784 1.28598 -3.87204 0
M  V30 7205 H 760.459 0.169048 -4.15556 0
M  V30 7206 H 759.036 1.77683 -3.27846 0
M  V30 7207 N 761.222 1.57436 0.0718424 0
M  V30 7208 C 762.633 1.75975 0.623678 0
M  V30 7209 C 762.984 0.827155 1.77912 0
M  V30 7210 O 762.109 0.0112425 2.16397 0
M  V30 7211 C 762.704 3.1911 1.13816 0
M  V30 7212 C 761.263 3.38994 1.63586 0
M  V30 7213 C 760.41 2.71684 0.555261 0
M  V30 7214 H 763.361 1.57948 -0.154328 0
M  V30 7215 H 763.382 3.23267 2.00696 0
M  V30 7216 H 762.894 3.86962 0.296998 0
M  V30 7217 H 760.995 2.76256 2.50027 0
M  V30 7218 H 761.108 4.47436 1.71283 0
M  V30 7219 H 759.472 2.34236 1.00029 0
M  V30 7220 H 760.255 3.42191 -0.275712 0
M  V30 7221 N 762.7 -0.34323 1.53817 0
M  V30 7222 C 763.928 -1.10348 1.75017 0
M  V30 7223 C 764.343 -1.82345 0.489475 0
M  V30 7224 O 763.7 -1.74362 -0.538886 0
M  V30 7225 C 763.751 -2.11672 2.93048 0
M  V30 7226 O 763.472 -1.42603 4.14241 0
M  V30 7227 C 764.973 -3.0007 3.26301 0
M  V30 7228 H 762.193 -0.329056 0.584776 0
M  V30 7229 H 764.737 -0.395339 2.00642 0
M  V30 7230 H 762.892 -2.78051 2.69753 0
M  V30 7231 H 763.306 -2.10294 4.80496 0
M  V30 7232 H 764.78 -3.67101 4.12239 0
M  V30 7233 H 765.257 -3.66105 2.42618 0
M  V30 7234 H 765.863 -2.3928 3.51604 0
M  V30 7235 N 764.178 -1.45556 -0.604258 0
M  V30 7236 C 765.418 -1.51289 -1.37445 0
M  V30 7237 C 765.782 -0.152112 -1.91397 0
M  V30 7238 O 766.983 -0.0841419 -2.68668 0
M  V30 7239 C 765.254 -2.5646 -2.48924 0
M  V30 7240 S 766.813 -2.81442 -3.36654 0
M  V30 7241 H 763.631 -0.534774 -0.468549 0
M  V30 7242 H 766.233 -1.82657 -0.696902 0
M  V30 7243 H 764.937 -3.53995 -2.07644 0
M  V30 7244 H 764.468 -2.26753 -3.21476 0
M  V30 7245 H 766.483 -2.15074 -4.47166 0
M  V30 7246 N 765.656 0.84705 -1.32902 0
M  V30 7247 C 766.902 1.60414 -1.24078 0
M  V30 7248 C 767.235 1.93217 0.195105 0
M  V30 7249 O 766.51 1.58001 1.13428 0
M  V30 7250 C 766.793 2.91951 -2.108 0
M  V30 7251 C 766.646 2.6588 -3.62805 0
M  V30 7252 C 767.965 3.93299 -1.97494 0
M  V30 7253 H 765.084 0.58206 -0.452079 0
M  V30 7254 H 767.726 0.977562 -1.62922 0
M  V30 7255 H 765.876 3.45425 -1.77802 0
M  V30 7256 H 767.548 2.18902 -4.06054 0
M  V30 7257 H 765.791 1.99716 -3.85092 0
M  V30 7258 H 766.462 3.59574 -4.1882 0
M  V30 7259 H 768.938 3.49105 -2.26417 0
M  V30 7260 H 767.814 4.8318 -2.60438 0
M  V30 7261 H 768.075 4.31887 -0.944782 0
M  V30 7262 N 767.134 1.16236 1.06428 0
M  V30 7263 C 768.081 0.86769 2.13869 0
M  V30 7264 C 769.051 -0.183298 1.65086 0
M  V30 7265 O 770.236 -0.0488002 1.90738 0
M  V30 7266 C 767.376 0.373427 3.43074 0
M  V30 7267 C 766.489 1.48708 4.05598 0
M  V30 7268 C 765.624 0.947977 5.22673 0
M  V30 7269 C 764.663 2.03793 5.77178 0
M  V30 7270 N 763.8 1.51451 6.85571 0
M  V30 7271 H 768.64 1.78781 2.38414 0
M  V30 7272 H 766.177 0.891892 1.16977 0
M  V30 7273 H 768.135 0.0685035 4.17144 0
M  V30 7274 H 766.765 -0.509752 3.1875 0
M  V30 7275 H 765.817 1.908 3.29089 0
M  V30 7276 H 767.129 2.30964 4.42105 0
M  V30 7277 H 766.283 0.596154 6.03764 0
M  V30 7278 H 765.022 0.0947081 4.87608 0
M  V30 7279 H 764.027 2.39847 4.94726 0
M  V30 7280 H 765.252 2.89514 6.14295 0
M  V30 7281 H 763.198 0.683755 6.52427 0
M  V30 7282 H 763.115 2.27325 7.21013 0
M  V30 7283 H 764.383 1.19123 7.70344 0
M  V30 7284 N 768.612 -1.24939 0.960631 0
M  V30 7285 C 769.837 -1.9742 0.635608 0
M  V30 7286 C 770.262 -1.70857 -0.786737 0
M  V30 7287 O 769.62 -0.968063 -1.53291 0
M  V30 7288 C 769.668 -3.48987 0.907771 0
M  V30 7289 O 768.772 -4.12399 -0.0104053 0
M  V30 7290 H 768.113 -0.61871 0.241027 0
M  V30 7291 H 770.643 -1.58901 1.28886 0
M  V30 7292 H 770.653 -3.99334 0.836453 0
M  V30 7293 H 769.328 -3.6765 1.94439 0
M  V30 7294 H 767.905 -3.72727 0.113631 0
M  V30 7295 N 770.09 -0.729906 -1.39679 0
M  V30 7296 C 771 -0.0880322 -2.34435 0
M  V30 7297 C 772.016 0.727674 -1.58053 0
M  V30 7298 O 773.192 0.657321 -1.90371 0
M  V30 7299 C 770.257 0.812211 -3.37052 0
M  V30 7300 C 769.318 -0.0151681 -4.29297 0
M  V30 7301 C 768.551 0.842202 -5.27013 0
M  V30 7302 O 768.774 2.08108 -5.31081 0
M  V30 7303 O 767.708 0.27357 -6.01278 0
M  V30 7304 H 771.534 -0.869989 -2.90972 0
M  V30 7305 H 769.119 -0.490522 -1.41118 0
M  V30 7306 H 771.001 1.32745 -3.99946 0
M  V30 7307 H 769.676 1.57307 -2.82907 0
M  V30 7308 H 768.583 -0.575811 -3.69642 0
M  V30 7309 H 769.916 -0.738129 -4.86634 0
M  V30 7310 N 771.568 1.50203 -0.477153 0
M  V30 7311 C 772.501 2.25343 0.359983 0
M  V30 7312 C 773.479 1.28909 0.991022 0
M  V30 7313 O 774.663 1.58146 1.02578 0
M  V30 7314 C 771.79 3.03431 1.5049 0
M  V30 7315 C 770.836 4.14836 0.99063 0
M  V30 7316 S 771.669 5.35407 -0.0995413 0
M  V30 7317 C 772.825 6.17045 1.04911 0
M  V30 7318 H 773.058 2.95999 -0.277836 0
M  V30 7319 H 770.591 1.52159 -0.262115 0
M  V30 7320 H 772.549 3.49012 2.16105 0
M  V30 7321 H 771.21 2.32289 2.11425 0
M  V30 7322 H 770.403 4.689 1.84794 0
M  V30 7323 H 770.005 3.71723 0.412097 0
M  V30 7324 H 772.297 6.48546 1.95946 0
M  V30 7325 H 773.24 7.05979 0.547596 0
M  V30 7326 H 773.648 5.49193 1.30567 0
M  V30 7327 N 773.046 0.209999 1.56195 0
M  V30 7328 C 774.294 -0.423974 1.97603 0
M  V30 7329 C 774.615 -1.61112 1.09854 0
M  V30 7330 O 773.885 -1.95134 0.173032 0
M  V30 7331 H 772.465 -0.159629 0.729745 0
M  V30 7332 H 775.127 0.300205 1.92574 0
M  V30 7333 H 774.223 -0.75809 3.02753 0
M  V30 7334 N 774.524 -1.57472 -0.0634922 0
M  V30 7335 C 775.935 -1.76303 -0.614337 0
M  V30 7336 C 776.286 -0.836578 -1.77471 0
M  V30 7337 O 775.411 -0.0227184 -2.16388 0
M  V30 7338 C 776.006 -3.19709 -1.12122 0
M  V30 7339 C 774.565 -3.39856 -1.61786 0
M  V30 7340 C 773.712 -2.71975 -0.540845 0
M  V30 7341 H 776.663 -1.57864 0.162702 0
M  V30 7342 H 776.684 -3.24326 -1.98979 0
M  V30 7343 H 776.196 -3.87114 -0.276472 0
M  V30 7344 H 774.297 -2.77578 -2.48558 0
M  V30 7345 H 774.41 -4.48338 -1.68908 0
M  V30 7346 H 772.774 -2.34763 -0.987854 0
M  V30 7347 H 773.557 -3.4204 0.293856 0
M  V30 7348 N 776.003 0.335068 -1.53997 0
M  V30 7349 C 777.249 1.07222 -1.72844 0
M  V30 7350 C 777.604 1.86054 -0.490075 0
M  V30 7351 O 776.897 1.84481 0.517416 0
M  V30 7352 C 777.091 2.0364 -2.9371 0
M  V30 7353 C 776.92 1.34287 -4.29182 0
M  V30 7354 C 775.69 1.08417 -4.93532 0
M  V30 7355 C 777.888 0.764703 -5.08583 0
M  V30 7356 N 775.87 0.357342 -6.12859 0
M  V30 7357 C 777.241 0.168876 -6.1977 0
M  V30 7358 C 779.296 0.666383 -4.9342 0
M  V30 7359 C 777.999 -0.515716 -7.17449 0
M  V30 7360 C 780.025 -0.0044859 -5.914 0
M  V30 7361 C 779.387 -0.589305 -7.01931 0
M  V30 7362 H 775.486 0.376448 -0.685427 0
M  V30 7363 H 778.07 0.354778 -1.9144 0
M  V30 7364 H 776.241 2.72668 -2.76599 0
M  V30 7365 H 777.973 2.70256 -3.01237 0
M  V30 7366 H 774.728 1.37351 -4.53246 0
M  V30 7367 H 775.152 0.00840481 -6.76999 0
M  V30 7368 H 779.794 1.10426 -4.08125 0
M  V30 7369 H 777.512 -0.965457 -8.02312 0
M  V30 7370 H 781.098 -0.0800446 -5.81745 0
M  V30 7371 H 779.978 -1.10019 -7.76444 0
M  V30 7372 N 777.481 1.45874 0.596531 0
M  V30 7373 C 778.414 1.49889 1.72071 0
M  V30 7374 C 779.392 0.354224 1.58695 0
M  V30 7375 O 780.576 0.556355 1.80103 0
M  V30 7376 C 777.703 1.3644 3.10003 0
M  V30 7377 C 776.749 2.54913 3.41938 0
M  V30 7378 S 777.582 4.17336 3.35545 0
M  V30 7379 C 778.738 4.06372 4.76039 0
M  V30 7380 H 778.971 2.45005 1.68404 0
M  V30 7381 H 776.504 1.33592 0.77412 0
M  V30 7382 H 778.462 1.29368 3.89582 0
M  V30 7383 H 777.123 0.427762 3.11174 0
M  V30 7384 H 776.316 2.41458 4.42396 0
M  V30 7385 H 775.918 2.58904 2.69898 0
M  V30 7386 H 778.21 3.72199 5.66105 0
M  V30 7387 H 779.153 5.0678 4.9455 0
M  V30 7388 H 779.561 3.37846 4.52239 0
M  V30 7389 N 778.959 -0.83999 1.33349 0
M  V30 7390 C 780.236 -1.57973 1.15342 0
M  V30 7391 C 780.616 -2.09226 -0.280632 0
M  V30 7392 O 779.964 -1.89317 -1.2795 0
M  V30 7393 C 780.174 -2.71446 2.19359 0
M  V30 7394 C 781.522 -3.40654 2.53456 0
M  V30 7395 O 782.546 -2.81686 2.18017 0
M  V30 7396 O 781.405 -4.47101 3.14266 0
M  V30 7397 H 778.499 -0.6964 0.446044 0
M  V30 7398 H 781.045 -0.882843 1.44927 0
M  V30 7399 H 779.817 -2.31205 3.1569 0
M  V30 7400 H 779.44 -3.488 1.90852 0
M  V30 7401 N 780.437 -1.16799 -1.0581 0
M  V30 7402 C 781.662 -0.977402 -1.82925 0
M  V30 7403 C 782.087 0.469514 -1.82146 0
M  V30 7404 O 781.445 1.33576 -1.22585 0
M  V30 7405 C 781.493 -1.51543 -3.27211 0
M  V30 7406 O 780.597 -0.725021 -4.05977 0
M  V30 7407 H 779.938 -0.347474 -0.565825 0
M  V30 7408 H 782.468 -1.55151 -1.33376 0
M  V30 7409 H 782.478 -1.53502 -3.78023 0
M  V30 7410 H 781.153 -2.56872 -3.27093 0
M  V30 7411 H 779.73 -0.77634 -3.64729 0
M  V30 7412 N 781.915 1.24427 -0.967243 0
M  V30 7413 C 783.145 1.96256 -0.64554 0
M  V30 7414 C 783.553 1.71959 0.789098 0
M  V30 7415 O 782.896 0.999913 1.54102 0
M  V30 7416 C 782.958 3.49553 -0.839798 0
M  V30 7417 C 782.622 3.97548 -2.25399 0
M  V30 7418 C 783.619 4.07257 -3.23168 0
M  V30 7419 C 781.304 4.30884 -2.58156 0
M  V30 7420 C 783.298 4.49635 -4.51782 0
M  V30 7421 C 780.985 4.72946 -3.86996 0
M  V30 7422 C 781.983 4.82286 -4.83621 0
M  V30 7423 O 781.671 5.23409 -6.10162 0
M  V30 7424 H 781.403 0.632002 -0.239895 0
M  V30 7425 H 783.957 1.59224 -1.29757 0
M  V30 7426 H 782.187 3.86479 -0.130603 0
M  V30 7427 H 783.876 4.02591 -0.517249 0
M  V30 7428 H 784.642 3.8172 -2.9919 0
M  V30 7429 H 780.521 4.22833 -1.83666 0
M  V30 7430 H 784.065 4.5684 -5.27203 0
M  V30 7431 H 779.962 4.9793 -4.10775 0
M  V30 7432 H 780.73 5.4156 -6.13722 0
M  V30 7433 N 783.393 0.737304 1.3929 0
M  V30 7434 C 784.618 0.295237 2.05288 0
M  V30 7435 C 785.043 -1.06235 1.55228 0
M  V30 7436 O 784.401 -1.67365 0.697043 0
M  V30 7437 C 784.449 0.309146 3.59272 0
M  V30 7438 O 783.553 -0.702437 4.06374 0
M  V30 7439 H 782.894 0.133762 0.650387 0
M  V30 7440 H 785.424 1.00387 1.78279 0
M  V30 7441 H 785.434 0.154336 4.07708 0
M  V30 7442 H 784.109 1.29974 3.95069 0
M  V30 7443 H 782.686 -0.513574 3.69346 0
M  V30 7444 N 784.871 -1.49948 0.485112 0
M  V30 7445 C 786.119 -2.01996 -0.0648775 0
M  V30 7446 C 786.44 -1.36819 -1.38945 0
M  V30 7447 O 785.71 -0.518163 -1.88923 0
M  V30 7448 H 784.29 -0.746513 -0.0269662 0
M  V30 7449 H 786.952 -1.84136 0.638733 0
M  V30 7450 H 786.048 -3.11418 -0.20617 0
M  V30 7451 N 786.349 -0.21828 -1.56081 0
M  V30 7452 C 787.76 0.290166 -1.84431 0
M  V30 7453 C 788.111 1.59712 -1.13958 0
M  V30 7454 O 787.236 2.12516 -0.40815 0
M  V30 7455 C 787.831 0.53325 -3.34577 0
M  V30 7456 C 786.39 0.986011 -3.63256 0
M  V30 7457 C 785.537 0.0472798 -2.7726 0
M  V30 7458 H 788.488 -0.441548 -1.52434 0
M  V30 7459 H 788.509 1.37967 -3.54606 0
M  V30 7460 H 788.021 -0.418137 -3.85841 0
M  V30 7461 H 786.122 1.95087 -3.17446 0
M  V30 7462 H 786.235 0.862684 -4.71269 0
M  V30 7463 H 784.599 0.553471 -2.48614 0
M  V30 7464 H 785.382 -0.898966 -3.31321 0
M  V30 7465 N 787.827 1.57504 0.0551401 0
M  V30 7466 C 789.057 1.92015 0.762472 0
M  V30 7467 C 789.465 0.814088 1.7079 0
M  V30 7468 O 788.808 -0.220273 1.82375 0
M  V30 7469 C 788.87 3.22132 1.59598 0
M  V30 7470 C 788.534 4.49617 0.818141 0
M  V30 7471 C 789.531 5.19738 0.129933 0
M  V30 7472 C 787.216 4.96201 0.780387 0
M  V30 7473 C 789.21 6.34704 -0.585616 0
M  V30 7474 C 786.897 6.11069 0.0610756 0
M  V30 7475 C 787.895 6.80174 -0.62071 0
M  V30 7476 O 787.583 7.92849 -1.3284 0
M  V30 7477 H 787.315 0.638866 0.220967 0
M  V30 7478 H 789.869 2.05385 0.0246362 0
M  V30 7479 H 788.099 3.05016 2.37701 0
M  V30 7480 H 789.788 3.42166 2.18351 0
M  V30 7481 H 790.554 4.84767 0.150299 0
M  V30 7482 H 786.433 4.42275 1.30054 0
M  V30 7483 H 789.977 6.88578 -1.11833 0
M  V30 7484 H 785.874 6.45488 0.0386945 0
M  V30 7485 H 786.642 8.09062 -1.23938 0
M  V30 7486 N 789.305 -0.326896 1.54172 0
M  V30 7487 C 790.553 -1.06313 1.71878 0
M  V30 7488 C 790.874 -1.88652 0.493498 0
M  V30 7489 O 790.144 -1.89608 -0.492522 0
M  V30 7490 H 788.724 -0.39549 0.633716 0
M  V30 7491 H 791.386 -0.364139 1.91468 0
M  V30 7492 H 790.482 -1.73105 2.59694 0
M  V30 7493 N 790.784 -1.46188 -0.588786 0
M  V30 7494 C 792.061 -1.41659 -1.34878 0
M  V30 7495 C 792.441 -0.0968913 -2.10878 0
M  V30 7496 O 791.789 0.921468 -2.09096 0
M  V30 7497 C 791.999 -2.6424 -2.27988 0
M  V30 7498 C 793.347 -3.1013 -2.90008 0
M  V30 7499 O 794.371 -2.64745 -2.38303 0
M  V30 7500 O 793.23 -3.88944 -3.83908 0
M  V30 7501 H 790.324 -0.563058 -0.605718 0
M  V30 7502 H 792.87 -1.58346 -0.610309 0
M  V30 7503 H 791.642 -3.51853 -1.71217 0
M  V30 7504 H 791.265 -2.49982 -3.09184 0
M  V30 7505 N 792.262 0.832906 -1.33792 0
M  V30 7506 C 793.195 1.94788 -1.18882 0
M  V30 7507 C 794.173 1.62389 -0.0828426 0
M  V30 7508 O 795.357 1.86886 -0.246175 0
M  V30 7509 C 792.484 3.28506 -0.824728 0
M  V30 7510 C 791.53 3.79872 -1.93905 0
M  V30 7511 S 792.363 4.00832 -3.55097 0
M  V30 7512 C 793.519 5.37492 -3.20708 0
M  V30 7513 H 793.752 2.07137 -2.13264 0
M  V30 7514 H 791.285 0.987362 -1.18704 0
M  V30 7515 H 793.243 4.05769 -0.621442 0
M  V30 7516 H 791.904 3.13939 0.100587 0
M  V30 7517 H 791.097 4.76647 -1.6378 0
M  V30 7518 H 790.699 3.09524 -2.09931 0
M  V30 7519 H 792.991 6.20544 -2.71903 0
M  V30 7520 H 793.934 5.72593 -4.16584 0
M  V30 7521 H 794.342 5.02529 -2.57148 0
M  V30 7522 N 793.74 1.17359 1.05189 0
M  V30 7523 C 795.156 0.920861 1.30355 0
M  V30 7524 C 795.356 -0.419993 1.97074 0
M  V30 7525 O 794.412 -1.15696 2.24434 0
M  V30 7526 C 795.725 2.07818 2.1733 0
M  V30 7527 C 797.273 2.1152 2.30712 0
M  V30 7528 C 797.748 3.26637 3.21048 0
M  V30 7529 N 799.239 3.26426 3.28634 0
M  V30 7530 C 799.974 4.12141 3.98657 0
M  V30 7531 N 799.47 5.07966 4.71107 0
M  V30 7532 N 801.263 4.00091 3.94821 0
M  V30 7533 H 793.414 2.03666 0.602821 0
M  V30 7534 H 795.677 0.889294 0.328421 0
M  V30 7535 H 795.383 3.04727 1.75597 0
M  V30 7536 H 795.257 2.02922 3.17966 0
M  V30 7537 H 797.644 1.15196 2.71687 0
M  V30 7538 H 797.725 2.20477 1.29706 0
M  V30 7539 H 797.369 4.23227 2.80788 0
M  V30 7540 H 797.299 3.14917 4.2206 0
M  V30 7541 H 799.79 2.57045 2.77013 0
M  V30 7542 H 800.103 5.69766 5.22099 0
M  V30 7543 H 798.448 5.11936 4.7005 0
M  V30 7544 H 801.639 3.24523 3.37346 0
M  V30 7545 H 801.812 4.6711 4.49123 0
M  V30 7546 N 795.218 -1.23913 0.973828 0
M  V30 7547 C 796.148 -2.27453 0.527969 0
M  V30 7548 C 797.129 -1.6443 -0.435513 0
M  V30 7549 O 798.314 -1.9137 -0.330306 0
M  V30 7550 C 795.444 -3.4685 -0.176757 0
M  V30 7551 C 794.398 -4.22181 0.703352 0
M  V30 7552 C 793.724 -5.34534 -0.133215 0
M  V30 7553 C 795.024 -4.82865 1.99096 0
M  V30 7554 H 796.718 -2.65 1.3934 0
M  V30 7555 H 794.264 -1.27388 0.671446 0
M  V30 7556 H 796.217 -4.18424 -0.499934 0
M  V30 7557 H 794.941 -3.08346 -1.07659 0
M  V30 7558 H 793.6 -3.52416 1.00989 0
M  V30 7559 H 793.248 -4.92271 -1.03338 0
M  V30 7560 H 792.948 -5.85855 0.452494 0
M  V30 7561 H 794.472 -6.08933 -0.450924 0
M  V30 7562 H 795.886 -5.46481 1.73297 0
M  V30 7563 H 794.283 -5.44444 2.52389 0
M  V30 7564 H 795.353 -4.03977 2.68199 0
M  V30 7565 N 796.696 -0.74468 -1.38897 0
M  V30 7566 C 797.606 -0.112892 -2.34328 0
M  V30 7567 C 798.622 0.71087 -1.58816 0
M  V30 7568 O 799.798 0.637092 -1.91058 0
M  V30 7569 C 796.863 0.776417 -3.37894 0
M  V30 7570 C 795.924 -0.0606999 -4.29257 0
M  V30 7571 C 795.157 0.786258 -5.27877 0
M  V30 7572 O 795.38 2.02463 -5.33259 0
M  V30 7573 O 794.314 0.209781 -6.01534 0
M  V30 7574 H 798.14 -0.900801 -2.90033 0
M  V30 7575 H 795.725 -0.505462 -1.4059 0
M  V30 7576 H 797.607 1.28496 -4.01331 0
M  V30 7577 H 796.282 1.54297 -2.84559 0
M  V30 7578 H 795.189 -0.614984 -3.69011 0
M  V30 7579 H 796.522 -0.789702 -4.85824 0
M  V30 7580 N 798.174 1.49689 -0.493057 0
M  V30 7581 C 799.402 2.06836 0.0513141 0
M  V30 7582 C 799.817 1.35436 1.31539 0
M  V30 7583 O 799.174 0.430248 1.77356 0
M  V30 7584 C 799.225 3.60107 0.317003 0
M  V30 7585 O 798.946 4.2882 -0.896957 0
M  V30 7586 C 800.447 4.33945 0.905902 0
M  V30 7587 H 797.667 0.670787 -0.0169048 0
M  V30 7588 H 800.211 1.92574 -0.688139 0
M  V30 7589 H 798.366 3.74099 1.00642 0
M  V30 7590 H 798.78 5.20395 -0.654939 0
M  V30 7591 H 800.254 5.42087 1.04144 0
M  V30 7592 H 800.731 3.95895 1.90168 0
M  V30 7593 H 801.337 4.2454 0.254195 0
M  V30 7594 N 799.652 0.226554 1.55963 0
M  V30 7595 C 800.615 -0.668015 2.19249 0
M  V30 7596 C 801.615 -1.11794 1.1558 0
M  V30 7597 O 802.805 -1.02593 1.40784 0
M  V30 7598 C 799.937 -1.91571 2.81981 0
M  V30 7599 H 801.13 -0.116175 2.99675 0
M  V30 7600 H 798.683 -0.0230497 1.56283 0
M  V30 7601 H 799.418 -2.50929 2.05439 0
M  V30 7602 H 799.203 -1.6015 3.57903 0
M  V30 7603 H 800.693 -2.55294 3.30477 0
M  V30 7604 N 801.13 -1.57531 -0.0467866 0
M  V30 7605 C 802.546 -1.54451 -0.402107 0
M  V30 7606 C 802.746 -0.950275 -1.77685 0
M  V30 7607 O 801.802 -0.563602 -2.4613 0
M  V30 7608 C 803.115 -2.9899 -0.320212 0
M  V30 7609 C 804.663 -3.10452 -0.398588 0
M  V30 7610 C 805.138 -4.56689 -0.346335 0
M  V30 7611 N 806.629 -4.6142 -0.405666 0
M  V30 7612 C 807.364 -5.72087 -0.387845 0
M  V30 7613 N 806.86 -6.92045 -0.32336 0
M  V30 7614 N 808.653 -5.60404 -0.436263 0
M  V30 7615 H 800.804 -1.94515 0.853087 0
M  V30 7616 H 803.067 -0.891397 0.322669 0
M  V30 7617 H 802.773 -3.46124 0.623794 0
M  V30 7618 H 802.647 -3.60164 -1.1208 0
M  V30 7619 H 805.034 -2.63276 -1.33302 0
M  V30 7620 H 805.115 -2.52142 0.431026 0
M  V30 7621 H 804.759 -5.04527 0.584356 0
M  V30 7622 H 804.689 -5.12889 -1.19382 0
M  V30 7623 H 807.18 -3.75105 -0.458737 0
M  V30 7624 H 807.493 -7.7216 -0.314375 0
M  V30 7625 H 805.838 -6.94396 -0.28967 0
M  V30 7626 H 809.029 -4.65586 -0.48451 0
M  V30 7627 H 809.202 -6.46645 -0.418907 0
M  V30 7628 N 802.608 0.318715 -1.54344 0
M  V30 7629 C 803.885 1.07461 -1.63437 0
M  V30 7630 C 804.265 2.05771 -0.47131 0
M  V30 7631 O 803.613 2.22175 0.53391 0
M  V30 7632 C 803.823 1.77224 -3.00654 0
M  V30 7633 C 805.171 2.30069 -3.56866 0
M  V30 7634 O 806.195 1.87284 -3.0299 0
M  V30 7635 O 805.054 3.08412 -4.51159 0
M  V30 7636 H 802.148 0.495627 -0.66203 0
M  V30 7637 H 804.694 0.318218 -1.6669 0
M  V30 7638 H 803.466 1.05742 -3.76742 0
M  V30 7639 H 803.089 2.59662 -3.01101 0
M  V30 7640 N 804.086 1.46499 0.581025 0
M  V30 7641 C 805.036 1.53606 1.68491 0
M  V30 7642 C 806.02 0.396853 1.55929 0
M  V30 7643 O 807.212 0.645366 1.64815 0
M  V30 7644 C 804.341 1.53089 3.07276 0
M  V30 7645 C 803.427 2.72309 3.25128 0
M  V30 7646 N 803.818 3.97216 3.13134 0
M  V30 7647 C 802.116 2.68568 3.56072 0
M  V30 7648 C 802.817 4.7693 3.33036 0
M  V30 7649 N 801.793 4.08833 3.58269 0
M  V30 7650 H 805.595 2.47976 1.5775 0
M  V30 7651 H 803.109 1.42161 0.785104 0
M  V30 7652 H 805.106 1.56268 3.86505 0
M  V30 7653 H 803.766 0.597969 3.19146 0
M  V30 7654 H 804.777 4.28439 2.90964 0
M  V30 7655 H 801.454 1.84307 3.74616 0
M  V30 7656 H 802.844 5.85879 3.28932 0
M  V30 7657 N 805.565 -0.825799 1.34232 0
M  V30 7658 C 806.811 -1.58419 1.26614 0
M  V30 7659 C 807.144 -1.93503 -0.164341 0
M  V30 7660 O 806.419 -1.59785 -1.109 0
M  V30 7661 C 806.702 -2.8856 2.15418 0
M  V30 7662 C 806.555 -2.60075 3.66989 0
M  V30 7663 C 807.874 -3.90107 2.03726 0
M  V30 7664 H 804.993 -0.574794 0.461282 0
M  V30 7665 H 807.635 -0.951519 1.64457 0
M  V30 7666 H 805.785 -3.42553 1.83275 0
M  V30 7667 H 807.457 -2.12414 4.09485 0
M  V30 7668 H 805.7 -1.93565 3.88221 0
M  V30 7669 H 806.371 -3.52866 4.24488 0
M  V30 7670 H 808.847 -3.45459 2.31942 0
M  V30 7671 H 807.723 -4.78976 2.68092 0
M  V30 7672 H 807.984 -4.30329 1.01337 0
M  V30 7673 N 807.043 -1.17915 -1.04565 0
M  V30 7674 C 807.973 -0.925033 -2.14395 0
M  V30 7675 C 808.954 0.135375 -1.6956 0
M  V30 7676 O 810.139 -0.0161774 -1.94193 0
M  V30 7677 C 807.269 -0.444469 -3.44444 0
M  V30 7678 C 806.223 -1.44478 -4.02877 0
M  V30 7679 C 805.549 -0.821933 -5.28345 0
M  V30 7680 C 806.849 -2.81995 -4.39632 0
M  V30 7681 H 808.543 -1.84354 -2.35911 0
M  V30 7682 H 806.089 -0.887806 -1.13375 0
M  V30 7683 H 808.042 -0.254078 -4.20633 0
M  V30 7684 H 806.766 0.509592 -3.226 0
M  V30 7685 H 805.425 -1.62203 -3.28764 0
M  V30 7686 H 805.073 0.139161 -5.02807 0
M  V30 7687 H 804.773 -1.48976 -5.68401 0
M  V30 7688 H 806.297 -0.641959 -6.07216 0
M  V30 7689 H 807.711 -2.67952 -5.06828 0
M  V30 7690 H 806.108 -3.45414 -4.90723 0
M  V30 7691 H 807.178 -3.35927 -3.49687 0
M  V30 7692 N 808.521 1.23394 -0.980386 0
M  V30 7693 C 809.932 1.73631 -0.686239 0
M  V30 7694 C 810.283 1.79259 0.797541 0
M  V30 7695 O 809.408 1.43046 1.62379 0
M  V30 7696 C 810.003 3.15332 -1.239 0
M  V30 7697 C 808.562 3.63024 -0.994494 0
M  V30 7698 C 807.709 2.41279 -1.36673 0
M  V30 7699 H 810.66 1.08918 -1.15423 0
M  V30 7700 H 810.681 3.75556 -0.611414 0
M  V30 7701 H 810.193 3.11204 -2.31892 0
M  V30 7702 H 808.294 3.72535 0.0693492 0
M  V30 7703 H 808.407 4.49825 -1.64906 0
M  V30 7704 H 806.771 2.42295 -0.785195 0
M  V30 7705 H 807.554 2.39822 -2.45642 0
M  V30 7706 N 809.999 0.752036 1.385 0
M  V30 7707 C 811.248 0.304294 1.99391 0
M  V30 7708 C 811.561 -1.11982 1.60373 0
M  V30 7709 O 812.767 -1.66795 2.14223 0
M  V30 7710 C 811.223 0.493101 3.56506 0
M  V30 7711 C 810.831 1.9262 4.04477 0
M  V30 7712 C 812.575 0.107994 4.24363 0
M  V30 7713 C 810.482 2.06365 5.54227 0
M  V30 7714 H 809.412 0.110024 0.745929 0
M  V30 7715 H 812.063 0.928355 1.58284 0
M  V30 7716 H 810.445 -0.20012 3.95494 0
M  V30 7717 H 811.619 2.65276 3.76783 0
M  V30 7718 H 809.934 2.26608 3.49339 0
M  V30 7719 H 812.531 0.189474 5.34364 0
M  V30 7720 H 812.874 -0.939165 4.05568 0
M  V30 7721 H 813.407 0.753011 3.90608 0
M  V30 7722 H 810.146 3.0933 5.77923 0
M  V30 7723 H 809.666 1.38167 5.83669 0
M  V30 7724 H 811.345 1.85286 6.19902 0
M  V30 7725 N 811.477 -1.49425 0.500989 0
M  V30 7726 C 812.754 -1.9531 -0.106551 0
M  V30 7727 C 813.134 -1.44248 -1.54129 0
M  V30 7728 O 812.482 -0.656237 -2.18874 0
M  V30 7729 C 812.692 -3.48995 -0.0191972 0
M  V30 7730 C 814.04 -4.24161 -0.193129 0
M  V30 7731 O 815.064 -3.56075 -0.0943843 0
M  V30 7732 O 813.923 -5.45064 -0.395869 0
M  V30 7733 H 811.017 -0.82149 -0.0953068 0
M  V30 7734 H 813.563 -1.6007 0.563526 0
M  V30 7735 H 812.335 -3.78794 0.981353 0
M  V30 7736 H 811.958 -3.90852 -0.72942 0
M  V30 7737 N 812.955 -0.234822 -1.55841 0
M  V30 7738 C 814.185 0.397168 -2.02746 0
M  V30 7739 C 814.593 1.52951 -1.11367 0
M  V30 7740 O 813.936 1.8332 -0.118133 0
M  V30 7741 C 813.998 0.977748 -3.45948 0
M  V30 7742 C 813.662 -0.0208193 -4.56995 0
M  V30 7743 C 814.659 -0.826015 -5.13296 0
M  V30 7744 C 812.344 -0.143416 -5.02095 0
M  V30 7745 C 814.338 -1.74038 -6.1318 0
M  V30 7746 C 812.025 -1.0613 -6.01814 0
M  V30 7747 C 813.023 -1.85832 -6.57233 0
M  V30 7748 O 812.711 -2.76075 -7.55008 0
M  V30 7749 H 812.443 0.0999802 -0.668566 0
M  V30 7750 H 814.997 -0.352673 -2.0235 0
M  V30 7751 H 813.227 1.77693 -3.43456 0
M  V30 7752 H 814.916 1.51854 -3.76424 0
M  V30 7753 H 815.682 -0.741822 -4.79293 0
M  V30 7754 H 811.561 0.466857 -4.5863 0
M  V30 7755 H 815.105 -2.36291 -6.56363 0
M  V30 7756 H 811.002 -1.14646 -6.35237 0
M  V30 7757 H 811.77 -2.703 -7.7258 0
M  V30 7758 N 814.433 1.57553 0.0384317 0
M  V30 7759 C 815.663 1.92813 0.742064 0
M  V30 7760 C 816.071 0.832157 1.69917 0
M  V30 7761 O 815.414 -0.200917 1.82598 0
M  V30 7762 C 815.476 3.23806 1.56172 0
M  V30 7763 C 815.14 4.50459 0.770407 0
M  V30 7764 C 816.137 5.19846 0.0748006 0
M  V30 7765 C 813.822 4.97001 0.727714 0
M  V30 7766 C 815.816 6.34047 -0.652902 0
M  V30 7767 C 813.503 6.111 -0.00373992 0
M  V30 7768 C 814.501 6.79477 -0.692816 0
M  V30 7769 O 814.189 7.91395 -1.41241 0
M  V30 7770 H 813.921 0.641174 0.214179 0
M  V30 7771 H 816.475 2.054 0.00285095 0
M  V30 7772 H 814.705 3.0752 2.34453 0
M  V30 7773 H 816.394 3.44463 2.14709 0
M  V30 7774 H 817.16 4.84899 0.098875 0
M  V30 7775 H 813.039 4.43629 1.25355 0
M  V30 7776 H 816.583 6.87353 -1.1913 0
M  V30 7777 H 812.48 6.45493 -0.0297703 0
M  V30 7778 H 813.248 8.07702 -1.32512 0
M  V30 7779 N 815.911 -0.310526 1.54511 0
M  V30 7780 C 817.158 -1.04691 1.73338 0
M  V30 7781 C 817.486 -1.87584 0.514038 0
M  V30 7782 O 816.741 -1.89096 -0.504119 0
M  V30 7783 C 817.04 -1.98942 2.96912 0
M  V30 7784 C 816.706 -1.321 4.31115 0
M  V30 7785 C 815.368 -1.13603 4.67598 0
M  V30 7786 C 817.72 -0.842362 5.14348 0
M  V30 7787 C 815.048 -0.459102 5.84901 0
M  V30 7788 C 817.4 -0.179202 6.32346 0
M  V30 7789 C 816.064 0.0178111 6.67498 0
M  V30 7790 H 815.334 -0.38309 0.634289 0
M  V30 7791 H 817.981 -0.322723 1.88761 0
M  V30 7792 H 816.286 -2.77856 2.76231 0
M  V30 7793 H 817.983 -2.55972 3.08674 0
M  V30 7794 H 814.573 -1.47502 4.02419 0
M  V30 7795 H 818.757 -0.973013 4.86668 0
M  V30 7796 H 814.013 -0.295385 6.10686 0
M  V30 7797 H 818.187 0.199619 6.96114 0
M  V30 7798 H 815.814 0.544356 7.58249 0
M  V30 7799 N 817.389 -1.46805 -0.573248 0
M  V30 7800 C 818.8 -1.46655 -1.15539 0
M  V30 7801 C 819.151 -0.2125 -1.95046 0
M  V30 7802 O 818.276 0.683759 -2.05314 0
M  V30 7803 C 818.871 -2.65711 -2.10198 0
M  V30 7804 C 817.43 -2.68572 -2.63716 0
M  V30 7805 C 816.577 -2.39498 -1.39772 0
M  V30 7806 H 819.528 -1.54547 -0.36068 0
M  V30 7807 H 819.549 -2.41768 -2.93817 0
M  V30 7808 H 819.061 -3.56967 -1.52303 0
M  V30 7809 H 817.162 -1.81414 -3.25453 0
M  V30 7810 H 817.275 -3.68809 -3.05805 0
M  V30 7811 H 815.639 -1.89749 -1.69904 0
M  V30 7812 H 816.422 -3.32942 -0.836943 0
M  V30 7813 N 818.867 0.818669 -1.34668 0
M  V30 7814 C 820.278 1.39177 -1.24446 0
M  V30 7815 C 820.629 1.9578 0.128268 0
M  V30 7816 O 819.754 1.90382 1.02877 0
M  V30 7817 C 820.349 2.53012 -2.25323 0
M  V30 7818 C 818.908 3.06218 -2.18878 0
M  V30 7819 C 818.055 1.79112 -2.11694 0
M  V30 7820 H 821.006 0.622709 -1.45973 0
M  V30 7821 H 821.027 3.31226 -1.8727 0
M  V30 7822 H 820.539 2.11784 -3.25221 0
M  V30 7823 H 818.64 3.51939 -1.22351 0
M  V30 7824 H 818.753 3.65019 -3.10319 0
M  V30 7825 H 817.117 2.0018 -1.57481 0
M  V30 7826 H 817.9 1.40053 -3.13433 0
M  V30 7827 N 820.346 1.18468 1.03938 0
M  V30 7828 C 821.278 0.870615 2.12021 0
M  V30 7829 C 822.291 -0.132318 1.62261 0
M  V30 7830 O 823.48 0.0956901 1.78243 0
M  V30 7831 C 820.58 0.279727 3.37744 0
M  V30 7832 C 819.753 1.32863 4.16733 0
M  V30 7833 C 818.812 0.753204 5.20781 0
M  V30 7834 O 817.838 1.42825 5.5099 0
M  V30 7835 N 819.04 -0.448664 5.78764 0
M  V30 7836 H 821.805 1.80091 2.39556 0
M  V30 7837 H 819.366 1.08524 1.20142 0
M  V30 7838 H 821.358 -0.118829 4.04526 0
M  V30 7839 H 819.928 -0.554621 3.07641 0
M  V30 7840 H 819.148 1.90245 3.45254 0
M  V30 7841 H 820.436 2.03574 4.66299 0
M  V30 7842 H 819.834 -1.01481 5.56523 0
M  V30 7843 H 818.391 -0.789125 6.47005 0
M  V30 7844 N 821.824 -1.22873 0.986916 0
M  V30 7845 C 822.771 -2.2458 0.532215 0
M  V30 7846 C 823.741 -1.60375 -0.432322 0
M  V30 7847 O 824.926 -1.87775 -0.338416 0
M  V30 7848 C 822.066 -3.44761 -0.152864 0
M  V30 7849 C 821.179 -4.23501 0.852704 0
M  V30 7850 C 820.314 -5.31011 0.14176 0
M  V30 7851 C 819.353 -6.01464 1.1361 0
M  V30 7852 N 818.49 -7.00631 0.453871 0
M  V30 7853 H 823.33 -2.62838 1.40428 0
M  V30 7854 H 820.867 -1.29185 0.703543 0
M  V30 7855 H 822.825 -4.1333 -0.566926 0
M  V30 7856 H 821.455 -3.07284 -0.988756 0
M  V30 7857 H 820.507 -3.54286 1.38512 0
M  V30 7858 H 821.819 -4.72097 1.61014 0
M  V30 7859 H 820.973 -6.05805 -0.329337 0
M  V30 7860 H 819.712 -4.83373 -0.648229 0
M  V30 7861 H 818.717 -5.25456 1.61789 0
M  V30 7862 H 819.942 -6.5119 1.92686 0
M  V30 7863 H 817.888 -6.55235 -0.316791 0
M  V30 7864 H 817.805 -7.47204 1.14986 0
M  V30 7865 H 819.073 -7.795 0.00537823 0
M  V30 7866 N 823.302 -0.75937 -1.38099 0
M  V30 7867 C 824.53 -0.329111 -2.04266 0
M  V30 7868 C 824.945 1.04453 -1.57274 0
M  V30 7869 O 824.302 1.66449 -0.748397 0
M  V30 7870 C 824.353 -0.349192 -3.5981 0
M  V30 7871 O 824.074 -1.66863 -4.05078 0
M  V30 7872 C 825.575 0.0942106 -4.432 0
M  V30 7873 H 822.795 -0.13971 -0.656294 0
M  V30 7874 H 825.339 -1.02984 -1.76677 0
M  V30 7875 H 823.494 0.302846 -3.86214 0
M  V30 7876 H 823.908 -1.59877 -4.9954 0
M  V30 7877 H 825.382 0.0290004 -5.51992 0
M  V30 7878 H 825.859 1.1429 -4.24069 0
M  V30 7879 H 826.465 -0.529171 -4.21995 0
M  V30 7880 N 824.78 1.49157 -0.508906 0
M  V30 7881 C 826.02 2.04376 0.0310623 0
M  V30 7882 C 826.384 1.37946 1.33547 0
M  V30 7883 O 827.585 1.83931 1.96017 0
M  V30 7884 C 825.856 3.56985 0.172191 0
M  V30 7885 S 827.415 4.33728 0.665267 0
M  V30 7886 H 824.233 0.710997 -0.00199266 0
M  V30 7887 H 826.835 1.83119 -0.684674 0
M  V30 7888 H 825.539 4.02874 -0.78234 0
M  V30 7889 H 825.07 3.82661 0.912933 0
M  V30 7890 H 827.085 4.56992 1.9332 0
M  V30 7891 N 826.258 0.243083 1.55714 0
M  V30 7892 C 827.188 -0.652336 2.24203 0
M  V30 7893 C 828.169 -1.1843 1.221 0
M  V30 7894 O 829.354 -1.22435 1.50743 0
M  V30 7895 C 826.484 -1.85111 2.93856 0
M  V30 7896 C 825.438 -1.45208 4.02615 0
M  V30 7897 C 824.764 -2.73137 4.59674 0
M  V30 7898 C 826.064 -0.625988 5.18535 0
M  V30 7899 H 827.758 -0.0812504 2.9929 0
M  V30 7900 H 825.304 -0.0376388 1.43951 0
M  V30 7901 H 827.257 -2.48314 3.40468 0
M  V30 7902 H 825.981 -2.44751 2.16251 0
M  V30 7903 H 824.64 -0.843406 3.56766 0
M  V30 7904 H 824.288 -3.30967 3.78774 0
M  V30 7905 H 823.988 -2.47163 5.33089 0
M  V30 7906 H 825.512 -3.37245 5.09017 0
M  V30 7907 H 826.926 -1.16223 5.61396 0
M  V30 7908 H 825.323 -0.462465 5.98315 0
M  V30 7909 H 826.393 0.362652 4.83542 0
M  V30 7910 N 827.736 -1.57571 -0.0300757 0
M  V30 7911 C 828.985 -1.88407 -0.720126 0
M  V30 7912 C 829.298 -0.841466 -1.76575 0
M  V30 7913 O 830.504 -1.03902 -2.50832 0
M  V30 7914 C 828.96 -3.34348 -1.33188 0
M  V30 7915 C 828.568 -4.46837 -0.32266 0
M  V30 7916 C 830.312 -3.74333 -2.00187 0
M  V30 7917 C 828.219 -5.83838 -0.942703 0
M  V30 7918 H 827.149 -0.702952 -0.272718 0
M  V30 7919 H 829.8 -1.83482 0.0255337 0
M  V30 7920 H 828.182 -3.34014 -2.12721 0
M  V30 7921 H 829.356 -4.58638 0.445887 0
M  V30 7922 H 827.671 -4.15678 0.245181 0
M  V30 7923 H 830.268 -4.74008 -2.47428 0
M  V30 7924 H 830.611 -3.06275 -2.81959 0
M  V30 7925 H 831.144 -3.76837 -1.2743 0
M  V30 7926 H 827.883 -6.55294 -0.164413 0
M  V30 7927 H 827.403 -5.75759 -1.68111 0
M  V30 7928 H 829.082 -6.30535 -1.45034 0
M  V30 7929 N 829.214 0.302327 -1.54673 0
M  V30 7930 C 830.454 1.04568 -1.75627 0
M  V30 7931 C 830.818 1.84535 -0.530175 0
M  V30 7932 O 832.019 2.61613 -0.61743 0
M  V30 7933 C 830.29 1.92873 -3.0089 0
M  V30 7934 S 831.849 2.73872 -3.4284 0
M  V30 7935 H 828.667 0.352682 -0.617362 0
M  V30 7936 H 831.269 0.319239 -1.92876 0
M  V30 7937 H 829.973 1.32998 -3.88252 0
M  V30 7938 H 829.504 2.69887 -2.86225 0
M  V30 7939 H 831.519 3.95386 -2.99807 0
M  V30 7940 N 830.692 1.47107 0.565454 0
M  V30 7941 C 831.94 1.53005 1.32038 0
M  V30 7942 C 832.261 0.190453 1.94068 0
M  V30 7943 O 831.531 -0.784783 1.79494 0
M  V30 7944 H 830.111 0.563578 0.490294 0
M  V30 7945 H 832.773 1.83351 0.660928 0
M  V30 7946 H 831.869 2.29215 2.11818 0
M  V30 7947 N 832.17 -0.811516 1.35101 0
M  V30 7948 C 833.447 -1.55491 1.18667 0
M  V30 7949 C 833.827 -2.09775 -0.236189 0
M  V30 7950 O 833.175 -1.91989 -1.23905 0
M  V30 7951 C 833.385 -2.66732 2.25067 0
M  V30 7952 C 834.733 -3.35201 2.60625 0
M  V30 7953 O 835.757 -2.76998 2.23943 0
M  V30 7954 O 834.616 -4.40334 3.23679 0
M  V30 7955 H 831.71 -0.686783 0.460716 0
M  V30 7956 H 834.256 -0.851903 1.46768 0
M  V30 7957 H 833.028 -2.24457 3.20523 0
M  V30 7958 H 832.651 -3.44673 1.98208 0
M  V30 7959 N 833.648 -1.19017 -1.03309 0
M  V30 7960 C 834.558 -0.939303 -2.14975 0
M  V30 7961 C 835.574 0.0992359 -1.73717 0
M  V30 7962 O 836.75 -0.0844362 -2.01223 0
M  V30 7963 C 833.815 -0.476712 -3.43407 0
M  V30 7964 C 832.876 -1.58413 -3.99003 0
M  V30 7965 C 832.109 -1.14352 -5.21305 0
M  V30 7966 O 832.332 -0.00534408 -5.704 0
M  V30 7967 O 831.266 -1.94436 -5.6963 0
M  V30 7968 H 835.092 -1.87386 -2.38998 0
M  V30 7969 H 832.677 -0.972635 -1.13403 0
M  V30 7970 H 834.559 -0.22718 -4.20787 0
M  V30 7971 H 833.234 0.429455 -3.20839 0
M  V30 7972 H 832.141 -1.88777 -3.22977 0
M  V30 7973 H 833.474 -2.4667 -4.25928 0
M  V30 7974 N 835.127 1.22348 -0.993418 0
M  V30 7975 C 836.09 2.22522 -0.549251 0
M  V30 7976 C 837.09 1.56529 0.368164 0
M  V30 7977 O 838.28 1.73463 0.16005 0
M  V30 7978 C 835.412 3.40307 0.201037 0
M  V30 7979 H 836.605 2.63332 -1.43515 0
M  V30 7980 H 834.158 1.35407 -0.78068 0
M  V30 7981 H 834.893 3.0497 1.10289 0
M  V30 7982 H 834.678 3.8942 -0.457685 0
M  V30 7983 H 836.168 4.14597 0.499946 0
M  V30 7984 N 836.605 0.766683 1.37694 0
M  V30 7985 C 837.83 0.338715 2.04615 0
M  V30 7986 C 838.255 -1.02918 1.57447 0
M  V30 7987 O 837.613 -1.65849 0.732386 0
M  V30 7988 C 837.661 0.385284 3.58536 0
M  V30 7989 O 836.765 -0.616081 4.07772 0
M  V30 7990 H 836.106 0.147527 0.647404 0
M  V30 7991 H 838.636 1.04146 1.7611 0
M  V30 7992 H 838.646 0.240782 4.07289 0
M  V30 7993 H 837.321 1.38325 3.92223 0
M  V30 7994 H 835.898 -0.435115 3.70353 0
M  V30 7995 N 838.083 -1.48885 0.516809 0
M  V30 7996 C 839.331 -2.02088 -0.0220166 0
M  V30 7997 C 839.652 -1.39735 -1.36011 0
M  V30 7998 O 838.922 -0.558119 -1.87781 0
M  V30 7999 H 837.502 -0.746917 -0.0111255 0
M  V30 8000 H 840.164 -1.8274 0.677647 0
M  V30 8001 H 839.26 -3.11786 -0.140067 0
M  V30 8002 N 839.561 -0.251338 -1.55583 0
M  V30 8003 C 840.801 0.373651 -2.00956 0
M  V30 8004 C 841.165 1.54806 -1.13574 0
M  V30 8005 O 842.366 2.24108 -1.48422 0
M  V30 8006 C 840.637 0.768919 -3.49031 0
M  V30 8007 S 842.196 1.38381 -4.16409 0
M  V30 8008 H 839.014 0.117371 -0.701245 0
M  V30 8009 H 841.616 -0.367611 -1.92013 0
M  V30 8010 H 840.32 -0.0950492 -4.1029 0
M  V30 8011 H 839.851 1.54225 -3.61909 0
M  V30 8012 H 841.866 2.6728 -4.18062 0
M  V30 8013 N 841.039 1.57585 0.0217189 0
M  V30 8014 C 841.989 2.03506 1.02807 0
M  V30 8015 C 842.973 0.925716 1.31603 0
M  V30 8016 O 844.165 1.18958 1.31065 0
M  V30 8017 C 841.294 2.52407 2.32693 0
M  V30 8018 C 840.38 3.70176 2.06955 0
M  V30 8019 N 840.771 4.82641 1.513 0
M  V30 8020 C 839.069 3.77691 2.37204 0
M  V30 8021 C 839.77 5.64218 1.41536 0
M  V30 8022 N 838.746 5.09557 1.89348 0
M  V30 8023 H 842.548 2.87878 0.591899 0
M  V30 8024 H 840.062 1.60793 0.227875 0
M  V30 8025 H 842.059 2.83569 3.05605 0
M  V30 8026 H 840.719 1.69444 2.76982 0
M  V30 8027 H 841.73 5.03931 1.19472 0
M  V30 8028 H 838.407 3.05542 2.84517 0
M  V30 8029 H 839.797 6.64576 0.989333 0
M  V30 8030 N 842.517 -0.29412 1.54831 0
M  V30 8031 C 843.747 -1.04572 1.7818 0
M  V30 8032 C 844.155 -1.81187 0.544776 0
M  V30 8033 O 843.498 -1.769 -0.495169 0
M  V30 8034 C 843.56 -2.06748 2.94101 0
M  V30 8035 C 843.224 -1.49265 4.31936 0
M  V30 8036 C 844.221 -0.919136 5.11711 0
M  V30 8037 C 841.906 -1.52621 4.78552 0
M  V30 8038 C 843.9 -0.386824 6.36225 0
M  V30 8039 C 841.587 -0.990031 6.03027 0
M  V30 8040 C 842.585 -0.421315 6.81699 0
M  V30 8041 O 842.273 0.106713 8.03829 0
M  V30 8042 H 842.005 -0.31559 0.597812 0
M  V30 8043 H 844.559 -0.336817 2.0262 0
M  V30 8044 H 842.789 -2.81339 2.65303 0
M  V30 8045 H 844.478 -2.67865 3.04964 0
M  V30 8046 H 845.244 -0.886062 4.76837 0
M  V30 8047 H 841.123 -1.95826 4.17341 0
M  V30 8048 H 844.667 0.0577248 6.97576 0
M  V30 8049 H 840.564 -1.02027 6.37386 0
M  V30 8050 H 841.332 -0.00593526 8.185 0
M  V30 8051 N 843.995 -1.47404 -0.557645 0
M  V30 8052 C 845.243 -1.53703 -1.31224 0
M  V30 8053 C 845.564 -0.200742 -1.93964 0
M  V30 8054 O 844.834 0.775253 -1.79907 0
M  V30 8055 H 843.414 -0.566171 -0.487299 0
M  V30 8056 H 846.076 -1.83699 -0.651195 0
M  V30 8057 H 845.172 -2.30335 -2.10599 0
M  V30 8058 N 845.473 0.80434 -1.35529 0
M  V30 8059 C 846.436 1.89788 -1.28503 0
M  V30 8060 C 847.436 1.59601 -0.195983 0
M  V30 8061 O 848.626 1.68292 -0.449827 0
M  V30 8062 C 845.758 3.26255 -0.98847 0
M  V30 8063 H 846.951 1.97436 -2.25741 0
M  V30 8064 H 844.504 1.00046 -1.20086 0
M  V30 8065 H 845.239 3.24294 -0.0200541 0
M  V30 8066 H 845.024 3.49551 -1.77641 0
M  V30 8067 H 846.514 4.06298 -0.964975 0
M  V30 8068 N 846.951 1.19563 1.02676 0
M  V30 8069 C 847.881 0.959024 2.12897 0
M  V30 8070 C 848.862 -0.108382 1.69754 0
M  V30 8071 O 850.047 0.0470698 1.94143 0
M  V30 8072 C 847.177 0.499211 3.43693 0
M  V30 8073 C 846.131 1.5087 4.00528 0
M  V30 8074 C 845.457 0.905884 5.2697 0
M  V30 8075 C 846.757 2.88954 4.3509 0
M  V30 8076 H 848.451 1.88084 2.32948 0
M  V30 8077 H 845.997 0.905731 1.11949 0
M  V30 8078 H 847.95 0.320965 4.20176 0
M  V30 8079 H 846.674 -0.458205 3.2337 0
M  V30 8080 H 845.333 1.67413 3.26142 0
M  V30 8081 H 844.981 -0.0591506 5.02965 0
M  V30 8082 H 844.681 1.58 5.65959 0
M  V30 8083 H 846.205 0.73848 6.06118 0
M  V30 8084 H 847.619 2.75981 5.02501 0
M  V30 8085 H 846.016 3.53177 4.85166 0
M  V30 8086 H 847.086 3.41447 3.44299 0
M  V30 8087 N 848.429 -1.21819 0.999893 0
M  V30 8088 C 849.657 -1.94758 0.698359 0
M  V30 8089 C 850.072 -1.73771 -0.738183 0
M  V30 8090 O 849.429 -1.04113 -1.49889 0
M  V30 8091 C 849.48 -3.47292 1.00353 0
M  V30 8092 O 849.201 -3.67579 2.38363 0
M  V30 8093 C 850.702 -4.37403 0.72068 0
M  V30 8094 H 847.922 -0.619512 0.257771 0
M  V30 8095 H 850.466 -1.54778 1.33656 0
M  V30 8096 H 848.621 -3.85213 0.411018 0
M  V30 8097 H 849.035 -4.61719 2.48829 0
M  V30 8098 H 850.509 -5.43151 0.984422 0
M  V30 8099 H 850.986 -4.3784 -0.345309 0
M  V30 8100 H 851.592 -4.05119 1.29456 0
M  V30 8101 N 849.908 -0.773975 -1.37286 0
M  V30 8102 C 851.148 -0.344505 -2.01476 0
M  V30 8103 C 851.512 1.05966 -1.6011 0
M  V30 8104 O 852.713 1.58937 -2.16778 0
M  V30 8105 C 850.984 -0.485816 -3.54083 0
M  V30 8106 S 852.543 -0.141939 -4.3857 0
M  V30 8107 H 849.361 -0.13243 -0.698558 0
M  V30 8108 H 851.963 -1.00908 -1.67445 0
M  V30 8109 H 850.667 -1.50835 -3.81677 0
M  V30 8110 H 850.198 0.195232 -3.92915 0
M  V30 8111 H 852.213 1.06177 -4.84707 0
M  V30 8112 N 851.386 1.48609 -0.524698 0
M  V30 8113 C 852.634 2.02097 0.0112991 0
M  V30 8114 C 852.955 1.40455 1.35268 0
M  V30 8115 O 852.225 0.56807 1.87483 0
M  V30 8116 H 850.805 0.746966 0.00716426 0
M  V30 8117 H 853.467 1.82378 -0.687329 0
M  V30 8118 H 852.563 3.11855 0.123531 0
M  V30 8119 N 852.864 0.259585 1.55447 0
M  V30 8120 C 854.089 -0.368317 2.04103 0
M  V30 8121 C 854.514 -1.49827 1.13725 0
M  V30 8122 O 853.872 -1.80814 0.132705 0
M  V30 8123 C 853.92 -0.841506 3.50644 0
M  V30 8124 O 853.024 -1.95008 3.63381 0
M  V30 8125 H 852.365 -0.0785227 0.659341 0
M  V30 8126 H 854.895 0.389349 2.00861 0
M  V30 8127 H 854.905 -1.14138 3.9171 0
M  V30 8128 H 853.58 -0.0147001 4.15897 0
M  V30 8129 H 852.157 -1.65393 3.34215 0
M  V30 8130 N 854.342 -1.57594 -0.0133615 0
M  V30 8131 C 855.582 -1.91834 -0.705639 0
M  V30 8132 C 855.946 -0.859801 -1.71672 0
M  V30 8133 O 857.147 -1.08702 -2.4584 0
M  V30 8134 C 855.418 -3.31174 -1.34383 0
M  V30 8135 S 856.977 -3.87275 -2.06309 0
M  V30 8136 H 853.795 -0.671598 -0.233404 0
M  V30 8137 H 856.397 -1.95459 0.0401173 0
M  V30 8138 H 855.101 -4.06065 -0.594939 0
M  V30 8139 H 854.632 -3.3089 -2.12781 0
M  V30 8140 H 856.647 -3.67271 -3.33657 0
M  V30 8141 N 855.82 0.285905 -1.54985 0
M  V30 8142 C 856.767 1.35306 -1.86978 0
M  V30 8143 C 857.737 1.49682 -0.720046 0
M  V30 8144 O 858.922 1.64297 -0.970107 0
M  V30 8145 C 856.062 2.71059 -2.13591 0
M  V30 8146 C 855.175 2.6501 -3.41165 0
M  V30 8147 C 854.31 3.92856 -3.57544 0
M  V30 8148 C 853.349 3.81266 -4.78855 0
M  V30 8149 N 852.486 5.00919 -4.9196 0
M  V30 8150 H 857.326 1.07323 -2.78003 0
M  V30 8151 H 854.863 0.518776 -1.37649 0
M  V30 8152 H 856.821 3.50026 -2.27019 0
M  V30 8153 H 855.451 2.97271 -1.25816 0
M  V30 8154 H 854.503 1.77824 -3.36278 0
M  V30 8155 H 855.815 2.52342 -4.30262 0
M  V30 8156 H 854.969 4.80263 -3.70718 0
M  V30 8157 H 853.708 4.08377 -2.66608 0
M  V30 8158 H 852.713 2.92243 -4.65698 0
M  V30 8159 H 853.938 3.67277 -5.71213 0
M  V30 8160 H 851.884 5.16875 -4.03951 0
M  V30 8161 H 851.801 4.90732 -5.75081 0
M  V30 8162 H 853.069 5.89935 -5.09507 0
M  V30 8163 N 857.298 1.47698 0.54982 0
M  V30 8164 C 858.544 1.54931 1.30859 0
M  V30 8165 C 858.877 0.214021 1.93017 0
M  V30 8166 O 858.152 -0.778093 1.78258 0
M  V30 8167 C 858.435 2.67286 2.41309 0
M  V30 8168 C 858.288 4.10457 1.83971 0
M  V30 8169 C 859.607 2.75509 3.43195 0
M  V30 8170 H 856.726 0.56399 0.474431 0
M  V30 8171 H 859.368 1.79787 0.614541 0
M  V30 8172 H 857.518 2.46224 3.0051 0
M  V30 8173 H 859.19 4.42903 1.28974 0
M  V30 8174 H 857.433 4.18387 1.14606 0
M  V30 8175 H 858.104 4.84857 2.63851 0
M  V30 8176 H 860.58 2.94531 2.93923 0
M  V30 8177 H 859.456 3.55886 4.17895 0
M  V30 8178 H 859.717 1.82863 4.02509 0
M  V30 8179 N 858.776 -0.797141 1.35954 0
M  V30 8180 C 860.023 -1.55468 1.29754 0
M  V30 8181 C 860.351 -1.94095 -0.125391 0
M  V30 8182 O 859.606 -1.62341 -1.09288 0
M  V30 8183 C 859.905 -2.84847 2.15863 0
M  V30 8184 C 859.571 -2.65394 3.64523 0
M  V30 8185 C 858.233 -2.59796 4.05042 0
M  V30 8186 C 860.585 -2.4727 4.58811 0
M  V30 8187 C 857.913 -2.3403 5.38002 0
M  V30 8188 C 860.265 -2.23032 5.91979 0
M  V30 8189 C 858.929 -2.15862 6.31633 0
M  V30 8190 H 858.199 -0.568897 0.474803 0
M  V30 8191 H 860.846 -0.920299 1.67937 0
M  V30 8192 H 859.151 -3.52712 1.70591 0
M  V30 8193 H 860.848 -3.42597 2.08395 0
M  V30 8194 H 857.438 -2.70602 3.32374 0
M  V30 8195 H 861.622 -2.506 4.28384 0
M  V30 8196 H 856.878 -2.26956 5.67715 0
M  V30 8197 H 861.052 -2.08001 6.64612 0
M  V30 8198 H 858.679 -1.9566 7.34589 0
M  V30 8199 N 860.254 -1.20106 -1.0204 0
M  V30 8200 C 861.501 -1.00889 -1.75578 0
M  V30 8201 C 861.829 0.459415 -1.88996 0
M  V30 8202 O 861.084 1.35735 -1.40977 0
M  V30 8203 C 861.383 -1.63308 -3.17908 0
M  V30 8204 C 861.049 -3.13091 -3.24476 0
M  V30 8205 C 859.711 -3.53968 -3.25976 0
M  V30 8206 C 862.063 -4.09093 -3.22944 0
M  V30 8207 C 859.391 -4.89381 -3.2361 0
M  V30 8208 C 861.743 -5.44447 -3.22119 0
M  V30 8209 C 860.407 -5.84742 -3.2192 0
M  V30 8210 H 859.677 -0.36918 -0.642485 0
M  V30 8211 H 862.324 -1.49475 -1.19706 0
M  V30 8212 H 860.629 -1.06974 -3.76914 0
M  V30 8213 H 862.326 -1.45958 -3.73493 0
M  V30 8214 H 858.916 -2.80526 -3.24042 0
M  V30 8215 H 863.1 -3.78549 -3.20958 0
M  V30 8216 H 858.356 -5.1987 -3.21785 0
M  V30 8217 H 862.53 -6.18584 -3.19885 0
M  V30 8218 H 860.157 -6.89642 -3.19841 0
M  V30 8219 N 861.732 1.21287 -1.00634 0
M  V30 8220 C 862.679 2.23705 -0.567876 0
M  V30 8221 C 863.649 1.61043 0.406753 0
M  V30 8222 O 864.834 1.88289 0.308499 0
M  V30 8223 C 861.974 3.44961 0.097996 0
M  V30 8224 C 861.087 4.22091 -0.919972 0
M  V30 8225 C 860.222 5.30718 -0.226222 0
M  V30 8226 C 859.261 5.99581 -1.23165 0
M  V30 8227 N 858.398 6.99821 -0.565278 0
M  V30 8228 H 863.238 2.60571 -1.44592 0
M  V30 8229 H 860.775 1.28049 -0.724006 0
M  V30 8230 H 862.733 4.1418 0.501097 0
M  V30 8231 H 861.363 3.08818 0.939744 0
M  V30 8232 H 860.415 3.52038 -1.44131 0
M  V30 8233 H 861.727 4.69476 -1.68505 0
M  V30 8234 H 860.881 6.06253 0.232917 0
M  V30 8235 H 859.62 4.84343 0.571247 0
M  V30 8236 H 858.625 5.22816 -1.70128 0
M  V30 8237 H 859.85 6.48042 -2.03022 0
M  V30 8238 H 857.796 6.55656 0.212508 0
M  V30 8239 H 857.713 7.4528 -1.26858 0
M  V30 8240 H 858.981 7.79393 -0.129389 0
M  V30 8241 N 863.21 0.781244 1.36873 0
M  V30 8242 C 864.626 0.461968 1.52768 0
M  V30 8243 C 864.826 -1.02099 1.73719 0
M  V30 8244 O 863.882 -1.80665 1.76399 0
M  V30 8245 C 865.195 1.2853 2.71846 0
M  V30 8246 C 866.743 1.27817 2.85713 0
M  V30 8247 C 867.218 2.08506 4.07786 0
M  V30 8248 N 868.709 2.05909 4.14917 0
M  V30 8249 C 869.444 2.65118 5.08429 0
M  V30 8250 N 868.94 3.33152 6.07438 0
M  V30 8251 N 870.733 2.54896 5.00983 0
M  V30 8252 H 862.884 1.74198 1.21527 0
M  V30 8253 H 865.147 0.740027 0.592506 0
M  V30 8254 H 864.853 2.3366 2.62861 0
M  V30 8255 H 864.727 0.920981 3.65784 0
M  V30 8256 H 867.114 0.234817 2.94164 0
M  V30 8257 H 867.195 1.68219 1.92707 0
M  V30 8258 H 866.839 3.12867 4.00096 0
M  V30 8259 H 866.769 1.65479 4.99924 0
M  V30 8260 H 869.26 1.56386 3.44023 0
M  V30 8261 H 869.573 3.75681 6.75339 0
M  V30 8262 H 867.918 3.37253 6.07689 0
M  V30 8263 H 871.109 2.01352 4.22581 0
M  V30 8264 H 871.282 3.01332 5.73675 0
M  V30 8265 N 864.689 -1.48329 0.532571 0
M  V30 8266 C 865.652 -2.2816 -0.218069 0
M  V30 8267 C 866.652 -1.35526 -0.865409 0
M  V30 8268 O 867.842 -1.58394 -0.725061 0
M  V30 8269 C 864.974 -3.1448 -1.31586 0
M  V30 8270 H 866.167 -2.95987 0.482865 0
M  V30 8271 H 863.72 -1.53612 0.288603 0
M  V30 8272 H 864.455 -2.5129 -2.04997 0
M  V30 8273 H 864.24 -3.82625 -0.856779 0
M  V30 8274 H 865.73 -3.74693 -1.84377 0
M  V30 8275 N 866.167 -0.267825 -1.55308 0
M  V30 8276 C 867.13 0.60965 -2.20943 0
M  V30 8277 C 868.13 1.0869 -1.18504 0
M  V30 8278 O 869.32 0.988248 -1.43455 0
M  V30 8279 C 866.452 1.84027 -2.86961 0
M  V30 8280 H 867.645 0.0366806 -2.99878 0
M  V30 8281 H 865.198 -0.0183941 -1.56289 0
M  V30 8282 H 865.933 2.45394 -2.1202 0
M  V30 8283 H 865.718 1.50605 -3.62023 0
M  V30 8284 H 867.208 2.46442 -3.37129 0
M  V30 8285 N 867.645 1.57599 0.00500368 0
M  V30 8286 C 868.555 2.11532 1.01446 0
M  V30 8287 C 869.571 1.05941 1.3803 0
M  V30 8288 O 870.747 1.37815 1.46864 0
M  V30 8289 C 867.812 2.60382 2.28915 0
M  V30 8290 C 866.873 3.80554 1.98689 0
M  V30 8291 C 866.106 4.27064 3.20081 0
M  V30 8292 O 866.329 3.72939 4.31593 0
M  V30 8293 O 865.263 5.1927 3.04371 0
M  V30 8294 H 869.089 2.97993 0.586011 0
M  V30 8295 H 866.674 1.47718 0.223519 0
M  V30 8296 H 868.556 2.92024 3.03809 0
M  V30 8297 H 867.231 1.77022 2.71007 0
M  V30 8298 H 866.138 3.53893 1.21286 0
M  V30 8299 H 867.471 4.64972 1.61437 0
M  V30 8300 N 869.123 -0.277682 1.55134 0
M  V30 8301 C 870.371 -1.00791 1.75173 0
M  V30 8302 C 870.692 -1.86987 0.553266 0
M  V30 8303 O 869.962 -1.91079 -0.43195 0
M  V30 8304 H 868.542 -0.375129 0.645978 0
M  V30 8305 H 871.204 -0.303041 1.9253 0
M  V30 8306 H 870.3 -1.64756 2.6507 0
M  V30 8307 N 870.601 -1.47988 -0.541979 0
M  V30 8308 C 871.548 -1.61615 -1.6477 0
M  V30 8309 C 872.518 -0.458602 -1.59644 0
M  V30 8310 O 873.703 -0.680585 -1.78249 0
M  V30 8311 C 870.843 -1.65066 -3.03063 0
M  V30 8312 C 869.956 -2.91845 -3.18513 0
M  V30 8313 C 869.091 -2.86534 -4.47294 0
M  V30 8314 C 868.13 -4.0807 -4.5623 0
M  V30 8315 N 867.267 -4.00905 -5.76385 0
M  V30 8316 H 872.107 -2.56046 -1.52461 0
M  V30 8317 H 869.644 -1.26989 -0.742449 0
M  V30 8318 H 871.602 -1.65049 -3.83164 0
M  V30 8319 H 870.232 -0.74136 -3.14171 0
M  V30 8320 H 869.284 -3.01661 -2.31743 0
M  V30 8321 H 870.596 -3.81804 -3.20978 0
M  V30 8322 H 869.75 -2.84851 -5.35672 0
M  V30 8323 H 868.489 -1.94283 -4.47332 0
M  V30 8324 H 867.494 -4.10041 -3.66261 0
M  V30 8325 H 868.719 -5.01465 -4.5794 0
M  V30 8326 H 866.665 -3.11467 -5.77342 0
M  V30 8327 H 866.582 -4.84557 -5.80293 0
M  V30 8328 H 867.85 -4.03263 -6.67083 0
M  V30 8329 N 872.079 0.78992 -1.36375 0
M  V30 8330 C 873.011 1.91113 -1.26524 0
M  V30 8331 C 874.024 1.61747 -0.184851 0
M  V30 8332 O 875.213 1.73004 -0.439524 0
M  V30 8333 C 872.313 3.25908 -0.92937 0
M  V30 8334 C 871.486 3.83057 -2.11154 0
M  V30 8335 C 870.545 4.96289 -1.74881 0
M  V30 8336 O 869.571 5.12834 -2.46962 0
M  V30 8337 N 870.773 5.76478 -0.682193 0
M  V30 8338 H 873.538 2.00085 -2.23128 0
M  V30 8339 H 871.099 0.968165 -1.29762 0
M  V30 8340 H 873.091 3.99151 -0.667884 0
M  V30 8341 H 871.661 3.12556 -0.0524843 0
M  V30 8342 H 870.881 3.01808 -2.53586 0
M  V30 8343 H 872.169 4.1797 -2.90135 0
M  V30 8344 H 871.567 5.65638 -0.0836661 0
M  V30 8345 H 870.124 6.50026 -0.480529 0
M  V30 8346 N 873.557 1.20646 1.01402 0
M  V30 8347 C 874.504 0.957618 2.09996 0
M  V30 8348 C 875.474 -0.113115 1.65714 0
M  V30 8349 O 876.659 0.032142 1.90773 0
M  V30 8350 C 873.799 0.5186 3.41181 0
M  V30 8351 C 872.912 1.65777 3.98926 0
M  V30 8352 C 872.047 1.16881 5.18182 0
M  V30 8353 C 871.086 2.2809 5.68015 0
M  V30 8354 N 870.223 1.80392 6.7853 0
M  V30 8355 H 875.063 1.88732 2.30617 0
M  V30 8356 H 872.6 0.940703 1.13089 0
M  V30 8357 H 874.558 0.245367 4.16478 0
M  V30 8358 H 873.188 -0.3741 3.20625 0
M  V30 8359 H 872.24 2.04586 3.207 0
M  V30 8360 H 873.552 2.49507 4.31912 0
M  V30 8361 H 872.706 0.851694 6.00692 0
M  V30 8362 H 871.445 0.301434 4.86768 0
M  V30 8363 H 870.45 2.60614 4.84108 0
M  V30 8364 H 871.675 3.15308 6.01463 0
M  V30 8365 H 869.621 0.959856 6.4894 0
M  V30 8366 H 869.538 2.57701 7.10722 0
M  V30 8367 H 870.806 1.51688 7.64598 0
M  V30 8368 N 875.035 -1.20752 1.01276 0
M  V30 8369 C 876.265 -1.93725 0.717934 0
M  V30 8370 C 876.673 -1.74769 -0.724732 0
M  V30 8371 O 876.016 -1.05642 -1.50285 0
M  V30 8372 C 876.078 -3.46196 0.968954 0
M  V30 8373 C 875.742 -3.88909 2.39998 0
M  V30 8374 C 876.739 -3.94982 3.38061 0
M  V30 8375 C 874.424 -4.21006 2.7397 0
M  V30 8376 C 876.418 -4.32558 4.68159 0
M  V30 8377 C 874.105 -4.58257 4.04282 0
M  V30 8378 C 875.103 -4.64004 5.01187 0
M  V30 8379 O 874.791 -5.00403 6.29168 0
M  V30 8380 H 874.523 -0.622663 0.263186 0
M  V30 8381 H 877.077 -1.54299 1.35577 0
M  V30 8382 H 875.307 -3.85728 0.273952 0
M  V30 8383 H 876.996 -4.00394 0.666312 0
M  V30 8384 H 877.762 -3.70353 3.13151 0
M  V30 8385 H 873.641 -4.15725 1.99233 0
M  V30 8386 H 877.185 -4.36959 5.43795 0
M  V30 8387 H 873.082 -4.82341 4.28973 0
M  V30 8388 H 873.85 -5.18409 6.33399 0
M  V30 8389 N 876.513 -0.788492 -1.36457 0
M  V30 8390 C 877.443 -0.200468 -2.32638 0
M  V30 8391 C 878.424 0.664031 -1.56603 0
M  V30 8392 O 879.609 0.598045 -1.84762 0
M  V30 8393 C 876.739 0.666274 -3.40849 0
M  V30 8394 C 875.693 -0.0982574 -4.27887 0
M  V30 8395 C 875.019 0.889018 -5.27258 0
M  V30 8396 C 876.319 -1.28692 -5.06197 0
M  V30 8397 H 878.013 -1.00399 -2.82065 0
M  V30 8398 H 875.559 -0.484237 -1.35614 0
M  V30 8399 H 877.512 1.08757 -4.07124 0
M  V30 8400 H 876.236 1.50249 -2.89987 0
M  V30 8401 H 874.895 -0.500525 -3.63167 0
M  V30 8402 H 874.543 1.72024 -4.7267 0
M  V30 8403 H 874.243 0.381909 -5.86358 0
M  V30 8404 H 875.767 1.30891 -5.96406 0
M  V30 8405 H 877.181 -0.941429 -5.65517 0
M  V30 8406 H 875.578 -1.72726 -5.74705 0
M  V30 8407 H 876.648 -2.08273 -4.37893 0
M  V30 8408 N 877.991 1.48044 -0.54043 0
M  V30 8409 C 879.231 2.04396 -0.012296 0
M  V30 8410 C 879.595 1.40748 1.30591 0
M  V30 8411 O 880.796 1.88048 1.92072 0
M  V30 8412 C 879.067 3.5727 0.0964302 0
M  V30 8413 S 880.626 4.35041 0.573117 0
M  V30 8414 H 877.444 0.710795 -0.0170735 0
M  V30 8415 H 880.046 1.81625 -0.723362 0
M  V30 8416 H 878.75 4.01124 -0.86762 0
M  V30 8417 H 878.281 3.84511 0.83156 0
M  V30 8418 H 880.296 4.6099 1.83583 0
M  V30 8419 N 879.47 0.276058 1.55163 0
M  V30 8420 C 880.433 -0.597924 2.21263 0
M  V30 8421 C 881.433 -1.0806 1.19078 0
M  V30 8422 O 882.623 -0.980626 1.43977 0
M  V30 8423 C 879.755 -1.82503 2.87933 0
M  V30 8424 H 880.948 -0.0207769 2.99893 0
M  V30 8425 H 878.501 0.0266823 1.56277 0
M  V30 8426 H 879.236 -2.44266 2.13318 0
M  V30 8427 H 879.021 -1.48683 3.62816 0
M  V30 8428 H 880.511 -2.44651 3.38431 0
M  V30 8429 N 880.948 -1.576 0.00335426 0
M  V30 8430 C 882.173 -1.95398 -0.695311 0
M  V30 8431 C 882.598 -0.878476 -1.66326 0
M  V30 8432 O 881.956 0.163086 -1.80565 0
M  V30 8433 C 882.004 -3.32293 -1.40049 0
M  V30 8434 O 881.108 -3.26834 -2.51502 0
M  V30 8435 H 880.449 -0.637796 -0.184694 0
M  V30 8436 H 882.979 -2.04519 0.057543 0
M  V30 8437 H 882.989 -3.67936 -1.76316 0
M  V30 8438 H 881.664 -4.10123 -0.690803 0
M  V30 8439 H 880.241 -3.02872 -2.17539 0
M  V30 8440 N 882.426 0.269451 -1.5528 0
M  V30 8441 C 883.842 0.616827 -1.47199 0
M  V30 8442 C 884.042 1.89354 -0.68901 0
M  V30 8443 O 883.098 2.51631 -0.209287 0
M  V30 8444 C 884.411 0.740492 -2.9144 0
M  V30 8445 C 885.959 0.834312 -3.01676 0
M  V30 8446 C 886.434 0.989725 -4.47178 0
M  V30 8447 N 887.925 1.05516 -4.51022 0
M  V30 8448 C 888.66 1.19427 -5.60825 0
M  V30 8449 N 888.156 1.30035 -6.80487 0
M  V30 8450 N 889.949 1.22566 -5.48575 0
M  V30 8451 H 882.1 -0.568962 -2.04638 0
M  V30 8452 H 884.363 -0.193153 -0.928114 0
M  V30 8453 H 884.069 -0.127234 -3.5147 0
M  V30 8454 H 883.943 1.61965 -3.40657 0
M  V30 8455 H 886.33 1.6925 -2.4174 0
M  V30 8456 H 886.411 -0.0695298 -2.55705 0
M  V30 8457 H 886.055 0.136179 -5.07717 0
M  V30 8458 H 885.985 1.90827 -4.90808 0
M  V30 8459 H 888.476 0.985434 -3.64825 0
M  V30 8460 H 888.789 1.40494 -7.59922 0
M  V30 8461 H 887.134 1.27033 -6.83292 0
M  V30 8462 H 890.325 1.13911 -4.54029 0
M  V30 8463 H 890.498 1.33063 -6.34191 0
M  V30 8464 N 883.904 1.48273 0.534124 0
M  V30 8465 C 884.852 1.62926 1.66005 0
M  V30 8466 C 885.846 0.495814 1.61982 0
M  V30 8467 O 887.052 0.6744 1.66889 0
M  V30 8468 H 883.427 0.513163 0.549698 0
M  V30 8469 H 885.398 2.57498 1.50789 0
M  V30 8470 C 884.147 1.68231 3.04292 0
M  V30 8471 H 883.47 2.54807 3.0808 0
M  V30 8472 H 884.91 1.82528 3.827 0
M  V30 8473 C 883.369 0.420154 3.3427 0
M  V30 8474 O 883.899 -0.468769 3.98955 0
M  V30 8475 N 882.105 0.293115 2.89118 0
M  V30 8476 H 881.652 1.01745 2.36655 0
M  V30 8477 H 881.61 -0.550376 3.09545 0
M  V30 8478 N 885.382 -0.782676 1.36792 0
M  V30 8479 C 886.659 -1.52939 1.21939 0
M  V30 8480 C 887.039 -2.10228 -0.191639 0
M  V30 8481 O 886.387 -1.94574 -1.19805 0
M  V30 8482 C 886.597 -2.61898 2.30674 0
M  V30 8483 C 887.945 -3.29598 2.67676 0
M  V30 8484 O 888.969 -2.72186 2.29768 0
M  V30 8485 O 887.828 -4.3337 3.32946 0
M  V30 8486 H 884.922 -0.676856 0.47518 0
M  V30 8487 H 887.468 -0.82058 1.48542 0
M  V30 8488 H 886.24 -2.17607 3.25212 0
M  V30 8489 H 885.863 -3.40391 2.05475 0
M  V30 8490 N 886.86 -1.21182 -1.00761 0
M  V30 8491 C 888.1 -1.03886 -1.76031 0
M  V30 8492 C 888.464 0.420593 -1.87337 0
M  V30 8493 O 889.665 0.713994 -2.59144 0
M  V30 8494 C 887.936 -1.71394 -3.13622 0
M  V30 8495 S 889.495 -1.69319 -4.04816 0
M  V30 8496 H 886.313 -0.372327 -0.605717 0
M  V30 8497 H 888.915 -1.53885 -1.20581 0
M  V30 8498 H 887.619 -2.76773 -3.03026 0
M  V30 8499 H 887.15 -1.21564 -3.74147 0
M  V30 8500 H 889.165 -0.732434 -4.90765 0
M  V30 8501 N 888.338 1.20213 -1.01915 0
M  V30 8502 C 889.566 1.93622 -0.729255 0
M  V30 8503 C 889.981 1.74923 0.710444 0
M  V30 8504 O 889.338 1.06484 1.48214 0
M  V30 8505 C 889.389 3.45651 -1.05865 0
M  V30 8506 O 889.11 3.63741 -2.44181 0
M  V30 8507 C 890.611 4.36201 -0.790176 0
M  V30 8508 H 887.831 0.615333 -0.267594 0
M  V30 8509 H 890.375 1.52633 -1.36101 0
M  V30 8510 H 888.53 3.84511 -0.47225 0
M  V30 8511 H 888.944 4.57702 -2.56143 0
M  V30 8512 H 890.418 5.41516 -1.07071 0
M  V30 8513 H 890.895 4.38334 0.275609 0
M  V30 8514 H 891.501 4.03008 -1.35885 0
M  V30 8515 N 889.816 0.795718 1.36037 0
M  V30 8516 C 891.065 0.367575 1.98322 0
M  V30 8517 C 891.378 -1.06823 1.63854 0
M  V30 8518 O 892.584 -1.59895 2.19421 0
M  V30 8519 C 891.04 0.606272 3.54757 0
M  V30 8520 C 890.648 2.0539 3.98144 0
M  V30 8521 C 892.392 0.242947 4.23804 0
M  V30 8522 C 890.299 2.23893 5.47381 0
M  V30 8523 H 889.229 0.133699 0.742052 0
M  V30 8524 H 891.88 0.978242 1.5525 0
M  V30 8525 H 890.262 -0.0741957 3.9593 0
M  V30 8526 H 891.436 2.77129 3.68152 0
M  V30 8527 H 889.751 2.37607 3.41953 0
M  V30 8528 H 892.348 0.359382 5.33491 0
M  V30 8529 H 892.691 -0.809661 4.08351 0
M  V30 8530 H 893.224 0.876899 3.88015 0
M  V30 8531 H 889.963 3.27559 5.6779 0
M  V30 8532 H 889.483 1.56666 5.78978 0
M  V30 8533 H 891.162 2.04914 6.13693 0
M  V30 8534 N 891.294 -1.47756 0.548274 0
M  V30 8535 C 892.571 -1.9555 -0.0443603 0
M  V30 8536 C 892.951 -1.49079 -1.49462 0
M  V30 8537 O 892.299 -0.725538 -2.16675 0
M  V30 8538 C 892.509 -3.48879 0.0918425 0
M  V30 8539 C 893.857 -4.2456 -0.0580879 0
M  V30 8540 O 894.881 -3.56195 0.018946 0
M  V30 8541 O 893.74 -5.46048 -0.222261 0
M  V30 8542 H 890.834 -0.824106 -0.0691235 0
M  V30 8543 H 893.38 -1.58196 0.614166 0
M  V30 8544 H 892.152 -3.7548 1.10137 0
M  V30 8545 H 891.775 -3.92975 -0.604704 0
M  V30 8546 N 892.772 -0.284283 -1.55015 0
M  V30 8547 C 893.719 0.599194 -2.22886 0
M  V30 8548 C 894.689 1.14264 -1.20553 0
M  V30 8549 O 895.874 1.19025 -1.49123 0
M  V30 8550 C 893.014 1.77317 -2.96062 0
M  V30 8551 C 892.127 1.26271 -4.13134 0
M  V30 8552 C 891.262 2.39922 -4.73931 0
M  V30 8553 C 890.301 1.85925 -5.8318 0
M  V30 8554 N 889.438 2.93084 -6.38002 0
M  V30 8555 H 894.278 0.0137816 -2.97997 0
M  V30 8556 H 891.815 -0.00496503 -1.47099 0
M  V30 8557 H 893.773 2.46339 -3.36709 0
M  V30 8558 H 892.403 2.33047 -2.23358 0
M  V30 8559 H 891.455 0.465296 -3.77544 0
M  V30 8560 H 892.767 0.827284 -4.91892 0
M  V30 8561 H 891.921 3.1692 -5.17346 0
M  V30 8562 H 890.66 2.86784 -3.9447 0
M  V30 8563 H 889.665 1.07409 -5.39206 0
M  V30 8564 H 890.89 1.39987 -6.64515 0
M  V30 8565 H 888.836 3.3931 -5.61431 0
M  V30 8566 H 888.753 2.53986 -7.12058 0
M  V30 8567 H 890.021 3.7003 -6.86075 0
M  V30 8568 N 894.251 1.57596 -0.0117121 0
M  V30 8569 C 895.498 1.91071 0.670667 0
M  V30 8570 C 895.826 0.886457 1.73125 0
M  V30 8571 O 895.081 -0.107135 1.95407 0
M  V30 8572 C 895.38 3.31296 1.34082 0
M  V30 8573 C 895.046 4.49011 0.412305 0
M  V30 8574 C 893.708 4.80945 0.156691 0
M  V30 8575 C 896.06 5.20709 -0.226294 0
M  V30 8576 C 893.388 5.81943 -0.745619 0
M  V30 8577 C 895.74 6.22668 -1.11655 0
M  V30 8578 C 894.404 6.53053 -1.38123 0
M  V30 8579 H 893.674 0.69918 0.245415 0
M  V30 8580 H 896.321 1.91373 -0.0697511 0
M  V30 8581 H 894.626 3.27174 2.15557 0
M  V30 8582 H 896.323 3.54461 1.87506 0
M  V30 8583 H 892.913 4.24067 0.621705 0
M  V30 8584 H 897.097 4.96282 -0.0418456 0
M  V30 8585 H 892.353 6.03839 -0.958566 0
M  V30 8586 H 896.527 6.77351 -1.61767 0
M  V30 8587 H 894.154 7.31132 -2.08208 0
M  V30 8588 N 895.729 -0.261212 1.5542 0
M  V30 8589 C 897.145 -0.609012 1.47524 0
M  V30 8590 C 897.345 -1.88986 0.699042 0
M  V30 8591 O 896.401 -2.51517 0.222628 0
M  V30 8592 C 897.714 -0.725025 2.91828 0
M  V30 8593 C 899.262 -0.818302 3.02114 0
M  V30 8594 C 899.737 -0.965996 4.47697 0
M  V30 8595 N 901.228 -1.03123 4.51575 0
M  V30 8596 C 901.963 -1.16451 5.6145 0
M  V30 8597 N 901.459 -1.26425 6.81167 0
M  V30 8598 N 903.252 -1.19655 5.49217 0
M  V30 8599 H 895.403 0.579807 2.04333 0
M  V30 8600 H 897.666 0.198072 0.927077 0
M  V30 8601 H 897.372 0.145871 3.51397 0
M  V30 8602 H 897.246 -1.60156 3.41511 0
M  V30 8603 H 899.633 -1.67966 2.42634 0
M  V30 8604 H 899.714 0.0830895 2.55665 0
M  V30 8605 H 899.358 -0.109251 5.07782 0
M  V30 8606 H 899.288 -1.88221 4.91813 0
M  V30 8607 H 901.779 -0.966072 3.65343 0
M  V30 8608 H 902.092 -1.36462 7.60656 0
M  V30 8609 H 900.437 -1.23408 6.83956 0
M  V30 8610 H 903.628 -1.11501 4.54626 0
M  V30 8611 H 903.801 -1.29698 6.34888 0
M  V30 8612 N 897.207 -1.48554 -0.526253 0
M  V30 8613 C 898.623 -1.34757 -0.855138 0
M  V30 8614 C 898.823 -0.36142 -1.98232 0
M  V30 8615 O 897.879 0.216026 -2.51574 0
M  V30 8616 C 899.192 -2.74877 -1.21915 0
M  V30 8617 C 900.74 -2.83393 -1.32882 0
M  V30 8618 C 901.215 -4.24223 -1.72624 0
M  V30 8619 N 902.706 -4.26913 -1.7972 0
M  V30 8620 C 903.441 -5.32824 -2.11863 0
M  V30 8621 N 902.937 -6.49008 -2.42405 0
M  V30 8622 N 904.73 -5.20221 -2.12901 0
M  V30 8623 H 896.881 -2.11284 0.217422 0
M  V30 8624 H 899.144 -0.947367 0.0346362 0
M  V30 8625 H 898.85 -3.48619 -0.464486 0
M  V30 8626 H 898.724 -3.0864 -2.16844 0
M  V30 8627 H 901.111 -2.09904 -2.07424 0
M  V30 8628 H 901.192 -2.53245 -0.360638 0
M  V30 8629 H 900.836 -4.98229 -0.986411 0
M  V30 8630 H 900.766 -4.51817 -2.70498 0
M  V30 8631 H 903.257 -3.4311 -1.58379 0
M  V30 8632 H 903.57 -7.25561 -2.66048 0
M  V30 8633 H 901.915 -6.52277 -2.39917 0
M  V30 8634 H 905.106 -4.28469 -1.885 0
M  V30 8635 H 905.279 -6.02861 -2.37619 0
M  V30 8636 N 898.685 0.775411 -1.37205 0
M  V30 8637 C 899.632 1.88857 -1.32671 0
M  V30 8638 C 900.602 1.64976 -0.192899 0
M  V30 8639 O 901.787 1.86944 -0.381673 0
M  V30 8640 C 898.927 3.25871 -1.13588 0
M  V30 8641 C 898.04 3.61731 -2.36167 0
M  V30 8642 C 897.175 4.87934 -2.09985 0
M  V30 8643 C 896.214 5.16514 -3.2845 0
M  V30 8644 N 895.351 6.33905 -3.01842 0
M  V30 8645 H 900.191 1.92068 -2.27846 0
M  V30 8646 H 897.728 0.939066 -1.13225 0
M  V30 8647 H 899.686 4.04903 -1.00546 0
M  V30 8648 H 898.316 3.22045 -0.220613 0
M  V30 8649 H 897.368 2.77712 -2.59962 0
M  V30 8650 H 898.68 3.78792 -3.24528 0
M  V30 8651 H 897.834 5.74863 -1.93953 0
M  V30 8652 H 896.573 4.7297 -1.18956 0
M  V30 8653 H 895.578 4.28063 -3.45025 0
M  V30 8654 H 896.803 5.33389 -4.20325 0
M  V30 8655 H 894.749 6.20306 -2.13439 0
M  V30 8656 H 894.666 6.51364 -3.83746 0
M  V30 8657 H 895.934 7.23779 -2.8942 0
M  V30 8658 N 900.163 1.21714 1.00117 0
M  V30 8659 C 901.111 0.976937 2.11089 0
M  V30 8660 C 902.105 -0.0771295 1.69224 0
M  V30 8661 O 903.311 0.0745945 1.79845 0
M  V30 8662 H 899.686 0.298687 0.690138 0
M  V30 8663 H 901.657 1.91881 2.28526 0
M  V30 8664 C 900.406 0.562369 3.43122 0
M  V30 8665 H 899.729 1.36509 3.75773 0
M  V30 8666 H 901.169 0.433642 4.21777 0
M  V30 8667 C 899.628 -0.727148 3.28959 0
M  V30 8668 O 900.158 -1.78171 3.60025 0
M  V30 8669 N 898.364 -0.695129 2.82164 0
M  V30 8670 H 897.911 0.163346 2.57082 0
M  V30 8671 H 897.869 -1.55822 2.73069 0
M  V30 8672 N 901.641 -1.19671 1.02551 0
M  V30 8673 C 902.881 -1.90971 0.728668 0
M  V30 8674 C 903.245 -1.7762 -0.729057 0
M  V30 8675 O 904.446 -2.43484 -1.13882 0
M  V30 8676 C 902.717 -3.3794 1.16323 0
M  V30 8677 S 904.276 -4.27493 0.989722 0
M  V30 8678 H 901.094 -0.659617 0.265381 0
M  V30 8679 H 903.696 -1.44698 1.31463 0
M  V30 8680 H 902.4 -3.45181 2.21986 0
M  V30 8681 H 901.931 -3.89243 0.570417 0
M  V30 8682 H 903.946 -4.96096 -0.101666 0
M  V30 8683 N 903.119 -0.802921 -1.35613 0
M  V30 8684 C 904.53 -0.443004 -1.81368 0
M  V30 8685 C 904.881 1.03459 -1.66706 0
M  V30 8686 O 904.006 1.80372 -1.19561 0
M  V30 8687 C 904.601 -0.797324 -3.29284 0
M  V30 8688 C 903.16 -0.490055 -3.73196 0
M  V30 8689 C 902.307 -1.02487 -2.57666 0
M  V30 8690 H 905.258 -0.994888 -1.23643 0
M  V30 8691 H 905.279 -0.0934638 -3.80385 0
M  V30 8692 H 904.791 -1.87278 -3.39924 0
M  V30 8693 H 902.892 0.576818 -3.68108 0
M  V30 8694 H 903.005 -1.02012 -4.68114 0
M  V30 8695 H 901.369 -0.44738 -2.5074 0
M  V30 8696 H 902.152 -2.10636 -2.71085 0
M  V30 8697 N 904.597 1.47463 -0.556102 0
M  V30 8698 C 905.822 2.07371 -0.0344729 0
M  V30 8699 C 906.247 1.40621 1.2493 0
M  V30 8700 O 905.605 0.48082 1.74808 0
M  V30 8701 C 905.653 3.60306 0.145563 0
M  V30 8702 O 904.757 3.94299 1.20839 0
M  V30 8703 H 904.098 0.662052 -0.0508274 0
M  V30 8704 H 906.628 1.89498 -0.771469 0
M  V30 8705 H 906.638 4.06408 0.360112 0
M  V30 8706 H 905.313 4.08288 -0.792089 0
M  V30 8707 H 903.89 3.59944 0.97442 0
M  V30 8708 N 906.075 0.2925 1.54862 0
M  V30 8709 C 907.315 -0.32024 2.01876 0
M  V30 8710 C 907.679 -1.5174 1.17639 0
M  V30 8711 O 908.88 -2.20094 1.54312 0
M  V30 8712 C 907.151 -0.67611 3.50947 0
M  V30 8713 S 908.71 -1.27292 4.19931 0
M  V30 8714 H 905.528 -0.0987374 0.704111 0
M  V30 8715 H 908.13 0.41839 1.90971 0
M  V30 8716 H 906.834 0.203797 4.09894 0
M  V30 8717 H 906.365 -1.44575 3.65871 0
M  V30 8718 H 908.38 -2.56102 4.25002 0
M  V30 8719 N 907.553 -1.57587 0.0200696 0
M  V30 8720 C 908.969 -1.56018 -0.336237 0
M  V30 8721 C 909.169 -1.02478 -1.73495 0
M  V30 8722 O 908.225 -0.667487 -2.43518 0
M  V30 8723 C 909.538 -3.00079 -0.193112 0
M  V30 8724 C 911.086 -3.11863 -0.266557 0
M  V30 8725 C 911.561 -4.57747 -0.152326 0
M  V30 8726 N 913.052 -4.62726 -0.209596 0
M  V30 8727 C 913.787 -5.73217 -0.144855 0
M  V30 8728 N 913.283 -6.92794 -0.0295487 0
M  V30 8729 N 915.076 -5.61751 -0.198184 0
M  V30 8730 H 907.227 -1.90722 0.93482 0
M  V30 8731 H 909.49 -0.876909 0.360186 0
M  V30 8732 H 909.196 -3.43167 0.770036 0
M  V30 8733 H 909.07 -3.64593 -0.967029 0
M  V30 8734 H 911.457 -2.68693 -1.22016 0
M  V30 8735 H 911.538 -2.50087 0.53758 0
M  V30 8736 H 911.182 -5.01595 0.797817 0
M  V30 8737 H 911.112 -5.17491 -0.97521 0
M  V30 8738 H 913.603 -3.76713 -0.299229 0
M  V30 8739 H 913.916 -7.72799 0.0134071 0
M  V30 8740 H 912.261 -6.95 0.00510737 0
M  V30 8741 H 915.452 -4.67222 -0.286603 0
M  V30 8742 H 915.625 -6.47839 -0.144266 0
M  V30 8743 N 909.032 0.252966 -1.55557 0
M  V30 8744 C 909.962 1.31691 -1.9282 0
M  V30 8745 C 910.943 1.50516 -0.7924 0
M  V30 8746 O 912.128 1.63225 -1.05219 0
M  V30 8747 C 909.258 2.67281 -2.21762 0
M  V30 8748 C 908.212 2.6316 -3.37536 0
M  V30 8749 C 907.538 4.02488 -3.52005 0
M  V30 8750 C 908.838 2.20675 -4.73392 0
M  V30 8751 H 910.532 1.00751 -2.81939 0
M  V30 8752 H 908.078 0.483219 -1.3565 0
M  V30 8753 H 910.031 3.41842 -2.46419 0
M  V30 8754 H 908.755 2.99845 -1.29463 0
M  V30 8755 H 907.414 1.91057 -3.12878 0
M  V30 8756 H 907.062 4.32307 -2.57137 0
M  V30 8757 H 906.762 4.00621 -4.29857 0
M  V30 8758 H 908.286 4.78758 -3.78977 0
M  V30 8759 H 909.7 2.84965 -4.97461 0
M  V30 8760 H 908.097 2.29931 -5.54303 0
M  V30 8761 H 909.167 1.15831 -4.70862 0
M  V30 8762 N 910.51 1.48831 0.518367 0
M  V30 8763 C 911.926 1.35209 0.847979 0
M  V30 8764 C 912.126 0.371927 1.98038 0
M  V30 8765 O 911.182 -0.202681 2.51685 0
M  V30 8766 C 912.495 2.7552 1.20455 0
M  V30 8767 C 914.043 2.84094 1.31377 0
M  V30 8768 C 914.518 4.25132 1.70372 0
M  V30 8769 N 916.009 4.27861 1.77453 0
M  V30 8770 C 916.744 5.3394 2.09035 0
M  V30 8771 N 916.24 6.50285 2.3896 0
M  V30 8772 N 918.033 5.21343 2.10139 0
M  V30 8773 H 910.184 2.11166 -0.228624 0
M  V30 8774 H 912.447 0.94717 -0.0396599 0
M  V30 8775 H 912.153 3.48861 0.445991 0
M  V30 8776 H 912.027 3.09785 2.15204 0
M  V30 8777 H 914.414 2.11001 2.06307 0
M  V30 8778 H 914.495 2.53433 0.347203 0
M  V30 8779 H 914.139 4.98745 0.959975 0
M  V30 8780 H 914.069 4.53245 2.68098 0
M  V30 8781 H 916.56 3.43945 1.56557 0
M  V30 8782 H 916.873 7.26961 2.62196 0
M  V30 8783 H 915.218 6.5354 2.36454 0
M  V30 8784 H 918.409 4.29462 1.86225 0
M  V30 8785 H 918.582 6.04112 2.34419 0
M  V30 8786 N 911.988 -0.768124 1.37614 0
M  V30 8787 C 912.935 -1.88151 1.33671 0
M  V30 8788 C 913.905 -1.64871 0.201645 0
M  V30 8789 O 915.09 -1.86739 0.391582 0
M  V30 8790 C 912.23 -3.25264 1.15314 0
M  V30 8791 C 911.343 -3.60473 2.38082 0
M  V30 8792 C 910.478 -4.86814 2.12569 0
M  V30 8793 C 909.517 -5.14765 3.31184 0
M  V30 8794 N 908.654 -6.32295 3.052 0
M  V30 8795 H 913.494 -1.90857 2.28862 0
M  V30 8796 H 911.031 -0.933048 1.13722 0
M  V30 8797 H 912.989 -4.04364 1.02691 0
M  V30 8798 H 911.619 -3.21924 0.237689 0
M  V30 8799 H 910.671 -2.7633 2.61431 0
M  V30 8800 H 911.983 -3.77065 3.26532 0
M  V30 8801 H 911.137 -5.73826 1.96999 0
M  V30 8802 H 909.876 -4.72333 1.21462 0
M  V30 8803 H 908.881 -4.26227 3.4729 0
M  V30 8804 H 910.106 -5.31153 4.23147 0
M  V30 8805 H 908.052 -6.19166 2.16726 0
M  V30 8806 H 907.969 -6.4932 3.87195 0
M  V30 8807 H 909.237 -7.22234 2.93254 0
M  V30 8808 N 913.466 -1.22244 -0.994698 0
M  V30 8809 C 914.706 -1.05747 -1.7492 0
M  V30 8810 C 915.07 0.4007 -1.87772 0
M  V30 8811 O 916.271 0.686469 -2.59887 0
M  V30 8812 C 914.542 -1.7471 -3.11787 0
M  V30 8813 S 916.101 -1.73604 -4.02998 0
M  V30 8814 H 912.919 -0.378731 -0.601734 0
M  V30 8815 H 915.521 -1.55155 -1.18942 0
M  V30 8816 H 914.225 -2.79972 -3.00073 0
M  V30 8817 H 913.756 -1.25525 -3.72836 0
M  V30 8818 H 915.771 -0.784445 -4.8996 0
M  V30 8819 N 914.944 1.19125 -1.03184 0
M  V30 8820 C 916.174 1.92558 -0.748663 0
M  V30 8821 C 916.582 1.759 0.696837 0
M  V30 8822 O 915.925 1.08019 1.48585 0
M  V30 8823 C 915.987 3.4461 -1.02391 0
M  V30 8824 C 915.651 3.85041 -2.46155 0
M  V30 8825 C 916.648 3.89554 -3.44302 0
M  V30 8826 C 914.333 4.16594 -2.80633 0
M  V30 8827 C 916.327 4.25055 -4.74981 0
M  V30 8828 C 914.014 4.51767 -4.11521 0
M  V30 8829 C 915.012 4.55972 -5.08506 0
M  V30 8830 O 914.7 4.9033 -6.37049 0
M  V30 8831 H 914.432 0.618397 -0.273059 0
M  V30 8832 H 916.986 1.52122 -1.38015 0
M  V30 8833 H 915.216 3.85244 -0.335284 0
M  V30 8834 H 916.905 3.99283 -0.729927 0
M  V30 8835 H 917.671 3.65324 -3.19003 0
M  V30 8836 H 913.55 4.12503 -2.05821 0
M  V30 8837 H 917.094 4.28252 -5.50678 0
M  V30 8838 H 912.991 4.75455 -4.36592 0
M  V30 8839 H 913.759 5.08266 -6.41566 0
M  V30 8840 N 916.422 0.810101 1.35185 0
M  V30 8841 C 917.332 0.224565 2.33523 0
M  V30 8842 C 918.348 -0.634287 1.62027 0
M  V30 8843 O 919.524 -0.545211 1.9388 0
M  V30 8844 C 916.589 -0.614319 3.41214 0
M  V30 8845 C 915.65 0.265435 4.28479 0
M  V30 8846 C 914.883 -0.533506 5.31027 0
M  V30 8847 O 915.106 -1.7679 5.42311 0
M  V30 8848 O 914.04 0.0774573 6.0185 0
M  V30 8849 H 917.866 1.03815 2.85405 0
M  V30 8850 H 915.451 0.571964 1.38018 0
M  V30 8851 H 917.333 -1.09201 4.07005 0
M  V30 8852 H 916.008 -1.40545 2.91597 0
M  V30 8853 H 914.915 0.790343 3.65656 0
M  V30 8854 H 916.248 1.0206 4.81503 0
M  V30 8855 N 917.9 -1.47166 0.563914 0
M  V30 8856 C 918.863 -2.28571 -0.169624 0
M  V30 8857 C 919.863 -1.37331 -0.836467 0
M  V30 8858 O 921.053 -1.59896 -0.6913 0
M  V30 8859 C 918.185 -3.17201 -1.24886 0
M  V30 8860 H 919.378 -2.94896 0.545539 0
M  V30 8861 H 916.931 -1.52966 0.321121 0
M  V30 8862 H 917.666 -2.55582 -1.99621 0
M  V30 8863 H 917.451 -3.84356 -0.775426 0
M  V30 8864 H 918.941 -3.7852 -1.76388 0
M  V30 8865 N 919.378 -0.300708 -1.54705 0
M  V30 8866 C 920.626 0.308044 -1.99739 0
M  V30 8867 C 920.947 1.54433 -1.19061 0
M  V30 8868 O 920.217 1.93794 -0.286507 0
M  V30 8869 H 918.797 0.116811 -0.73781 0
M  V30 8870 H 921.459 -0.41197 -1.90496 0
M  V30 8871 H 920.555 0.580287 -3.06658 0
M  V30 8872 N 920.856 1.57574 -0.0284266 0
M  V30 8873 C 921.789 2.05684 0.988401 0
M  V30 8874 C 922.767 0.952468 1.31783 0
M  V30 8875 O 923.951 1.22274 1.43462 0
M  V30 8876 C 921.078 2.47832 2.30862 0
M  V30 8877 C 920.124 3.69282 2.13384 0
M  V30 8878 S 920.957 5.15962 1.43331 0
M  V30 8879 C 922.113 5.61404 2.76723 0
M  V30 8880 H 922.346 2.9161 0.578873 0
M  V30 8881 H 919.879 1.53309 0.183244 0
M  V30 8882 H 921.837 2.7278 3.06759 0
M  V30 8883 H 920.498 1.62253 2.68947 0
M  V30 8884 H 919.691 3.96618 3.10983 0
M  V30 8885 H 919.293 3.44482 1.45629 0
M  V30 8886 H 921.585 5.65601 3.72963 0
M  V30 8887 H 922.528 6.60956 2.54053 0
M  V30 8888 H 922.936 4.89051 2.81939 0
M  V30 8889 N 922.334 -0.244713 1.55689 0
M  V30 8890 C 923.562 -0.989944 1.8168 0
M  V30 8891 C 923.977 -1.78863 0.604449 0
M  V30 8892 O 923.334 -1.77437 -0.426907 0
M  V30 8893 C 923.385 -1.92607 3.05916 0
M  V30 8894 O 923.106 -1.1597 4.22472 0
M  V30 8895 C 924.607 -2.78711 3.44724 0
M  V30 8896 H 921.827 -0.2912 0.604519 0
M  V30 8897 H 924.371 -0.266938 2.0275 0
M  V30 8898 H 922.526 -2.60333 2.8689 0
M  V30 8899 H 922.94 -1.79311 4.92898 0
M  V30 8900 H 924.414 -3.40141 4.34751 0
M  V30 8901 H 924.891 -3.49935 2.6541 0
M  V30 8902 H 925.497 -2.16435 3.66109 0
M  V30 8903 N 923.813 -1.49104 -0.510467 0
M  V30 8904 C 924.743 -1.67981 -1.62187 0
M  V30 8905 C 925.724 -0.528529 -1.6168 0
M  V30 8906 O 926.909 -0.763305 -1.7857 0
M  V30 8907 C 924.039 -1.73755 -3.0071 0
M  V30 8908 C 922.993 -2.88579 -3.1608 0
M  V30 8909 C 922.319 -2.79457 -4.5586 0
M  V30 8910 C 923.619 -4.29638 -2.97 0
M  V30 8911 H 925.313 -2.61029 -1.46643 0
M  V30 8912 H 922.859 -1.25615 -0.704042 0
M  V30 8913 H 924.812 -1.85548 -3.78352 0
M  V30 8914 H 923.536 -0.772996 -3.17321 0
M  V30 8915 H 922.195 -2.76372 -2.40861 0
M  V30 8916 H 921.843 -1.80929 -4.69333 0
M  V30 8917 H 921.543 -3.56518 -4.67086 0
M  V30 8918 H 923.067 -2.93245 -5.35574 0
M  V30 8919 H 924.481 -4.42575 -3.64418 0
M  V30 8920 H 922.878 -5.07847 -3.19704 0
M  V30 8921 H 923.948 -4.44741 -1.93219 0
M  V30 8922 N 925.291 0.760815 -1.38019 0
M  V30 8923 C 926.539 1.51673 -1.33566 0
M  V30 8924 C 926.86 1.94852 0.076024 0
M  V30 8925 O 926.13 1.67112 1.02227 0
M  V30 8926 H 924.71 0.562581 -0.491438 0
M  V30 8927 H 927.372 0.904832 -1.72623 0
M  V30 8928 H 926.468 2.41102 -1.98182 0
M  V30 8929 N 926.769 1.22769 0.988202 0
M  V30 8930 C 927.732 1.00325 2.06076 0
M  V30 8931 C 928.732 -0.0320618 1.60768 0
M  V30 8932 O 929.922 0.206912 1.72967 0
M  V30 8933 C 927.054 0.516376 3.36966 0
M  V30 8934 H 928.247 1.95499 2.27421 0
M  V30 8935 H 925.8 1.04704 1.16047 0
M  V30 8936 H 926.535 -0.439498 3.21308 0
M  V30 8937 H 926.32 1.26337 3.71189 0
M  V30 8938 H 927.81 0.37974 4.1587 0
M  V30 8939 N 928.247 -1.18576 1.03814 0
M  V30 8940 C 929.663 -1.4051 0.756909 0
M  V30 8941 C 929.863 -1.9057 -0.654631 0
M  V30 8942 O 928.919 -2.0884 -1.41922 0
M  V30 8943 C 930.232 -2.4081 1.80087 0
M  V30 8944 C 931.78 -2.54541 1.82148 0
M  V30 8945 C 932.255 -3.58102 2.85529 0
M  V30 8946 N 933.746 -3.65607 2.84404 0
M  V30 8947 C 934.481 -4.45458 3.61047 0
M  V30 8948 N 933.977 -5.28937 4.47434 0
M  V30 8949 N 935.77 -4.40196 3.49548 0
M  V30 8950 H 927.921 -0.844075 1.94908 0
M  V30 8951 H 930.184 -0.433287 0.843188 0
M  V30 8952 H 929.89 -2.1107 2.81322 0
M  V30 8953 H 929.764 -3.4012 1.63089 0
M  V30 8954 H 932.151 -2.83598 0.815855 0
M  V30 8955 H 932.232 -1.55352 2.03223 0
M  V30 8956 H 931.876 -3.29786 3.86269 0
M  V30 8957 H 931.806 -4.56963 2.6171 0
M  V30 8958 H 934.297 -3.05994 2.21756 0
M  V30 8959 H 934.61 -5.8701 5.02632 0
M  V30 8960 H 932.955 -5.28366 4.51503 0
M  V30 8961 H 936.146 -3.74026 2.81464 0
M  V30 8962 H 936.319 -5.02186 4.09528 0
M  V30 8963 N 929.725 -0.817259 -1.34754 0
M  V30 8964 C 930.672 -0.233108 -2.2962 0
M  V30 8965 C 931.642 0.638902 -1.53321 0
M  V30 8966 O 932.827 0.581739 -1.81715 0
M  V30 8967 C 929.967 0.603659 -3.39779 0
M  V30 8968 C 929.08 -0.289967 -4.31026 0
M  V30 8969 C 928.215 0.555825 -5.28284 0
M  V30 8970 C 927.254 -0.337539 -6.11169 0
M  V30 8971 N 926.391 0.468847 -7.00533 0
M  V30 8972 H 931.231 -1.04747 -2.78984 0
M  V30 8973 H 928.768 -0.528056 -1.37295 0
M  V30 8974 H 930.726 1.10407 -4.02326 0
M  V30 8975 H 929.356 1.38319 -2.91664 0
M  V30 8976 H 928.408 -0.908552 -3.69391 0
M  V30 8977 H 929.72 -0.977136 -4.89135 0
M  V30 8978 H 928.874 1.12094 -5.96255 0
M  V30 8979 H 927.613 1.27652 -4.70698 0
M  V30 8980 H 926.618 -0.914839 -5.42135 0
M  V30 8981 H 927.843 -1.05626 -6.70835 0
M  V30 8982 H 925.789 1.17332 -6.45422 0
M  V30 8983 H 925.706 -0.160052 -7.55831 0
M  V30 8984 H 926.974 1.01689 -7.72839 0
M  V30 8985 N 931.203 1.46865 -0.571711 0
M  V30 8986 C 932.133 2.3298 0.155795 0
M  V30 8987 C 933.114 1.44678 0.894553 0
M  V30 8988 O 934.299 1.73513 0.872176 0
M  V30 8989 C 931.429 3.26745 1.17708 0
M  V30 8990 C 930.383 4.24401 0.553863 0
M  V30 8991 C 929.709 5.07595 1.68083 0
M  V30 8992 C 931.009 5.19884 -0.501827 0
M  V30 8993 H 932.703 2.94056 -0.563176 0
M  V30 8994 H 930.249 1.41402 -0.27228 0
M  V30 8995 H 932.202 3.85838 1.6943 0
M  V30 8996 H 930.926 2.63753 1.92618 0
M  V30 8997 H 929.585 3.66554 0.057815 0
M  V30 8998 H 929.233 4.40996 2.41933 0
M  V30 8999 H 928.933 5.73722 1.26953 0
M  V30 9000 H 930.457 5.6955 2.20103 0
M  V30 9001 H 931.871 5.73257 -0.0701057 0
M  V30 9002 H 930.268 5.94293 -0.832815 0
M  V30 9003 H 931.338 4.64482 -1.39229 0
M  V30 9004 N 932.681 0.308908 1.54543 0
M  V30 9005 C 933.628 -0.563659 2.23811 0
M  V30 9006 C 934.598 -1.12332 1.22355 0
M  V30 9007 O 935.783 -1.16638 1.50997 0
M  V30 9008 C 932.923 -1.72585 2.98845 0
M  V30 9009 C 932.036 -1.19682 4.1509 0
M  V30 9010 C 931.171 -2.32351 4.77688 0
M  V30 9011 C 930.21 -1.76623 5.86064 0
M  V30 9012 N 929.347 -2.82896 6.42584 0
M  V30 9013 H 934.187 0.0336288 2.97981 0
M  V30 9014 H 931.724 0.0283666 1.47073 0
M  V30 9015 H 933.682 -2.40951 3.40586 0
M  V30 9016 H 932.312 -2.29464 2.27037 0
M  V30 9017 H 931.364 -0.405173 3.78236 0
M  V30 9018 H 932.676 -0.748923 4.93146 0
M  V30 9019 H 931.83 -3.0865 5.22322 0
M  V30 9020 H 930.569 -2.80472 3.98982 0
M  V30 9021 H 929.574 -0.988171 5.40847 0
M  V30 9022 H 930.799 -1.29398 6.66658 0
M  V30 9023 H 928.745 -3.30336 5.66758 0
M  V30 9024 H 928.662 -2.42626 7.16009 0
M  V30 9025 H 929.93 -3.59068 6.91875 0
M  V30 9026 N 934.159 -1.57557 0.0367827 0
M  V30 9027 C 935.106 -2.10679 -0.942499 0
M  V30 9028 C 936.076 -1.01068 -1.31812 0
M  V30 9029 O 937.261 -1.28533 -1.41011 0
M  V30 9030 C 934.401 -2.64467 -2.21701 0
M  V30 9031 C 933.514 -3.88114 -1.89715 0
M  V30 9032 C 932.649 -4.30268 -3.11518 0
M  V30 9033 C 931.688 -5.46652 -2.75387 0
M  V30 9034 N 930.825 -5.83927 -3.89838 0
M  V30 9035 H 935.665 -2.94066 -0.482588 0
M  V30 9036 H 933.202 -1.45344 -0.226597 0
M  V30 9037 H 935.16 -2.93745 -2.96259 0
M  V30 9038 H 933.79 -1.83898 -2.65295 0
M  V30 9039 H 932.842 -3.65516 -1.05366 0
M  V30 9040 H 934.154 -4.72743 -1.5911 0
M  V30 9041 H 933.308 -4.61023 -3.94389 0
M  V30 9042 H 932.047 -3.44421 -3.4529 0
M  V30 9043 H 931.052 -5.15583 -1.90929 0
M  V30 9044 H 932.277 -6.34204 -2.42822 0
M  V30 9045 H 930.223 -5.01035 -4.23438 0
M  V30 9046 H 930.14 -6.63214 -3.62883 0
M  V30 9047 H 931.408 -6.19291 -4.73391 0
M  V30 9048 N 935.637 0.236453 -1.55816 0
M  V30 9049 C 936.567 1.29639 -1.94206 0
M  V30 9050 C 937.548 1.49667 -0.808319 0
M  V30 9051 O 938.733 1.621 -1.06945 0
M  V30 9052 C 935.863 2.64914 -2.24584 0
M  V30 9053 C 934.817 2.59565 -3.40308 0
M  V30 9054 C 934.143 3.98732 -3.56254 0
M  V30 9055 C 935.443 2.15642 -4.75706 0
M  V30 9056 H 937.137 0.977552 -2.82992 0
M  V30 9057 H 934.683 0.468804 -1.36155 0
M  V30 9058 H 936.636 3.39209 -2.50031 0
M  V30 9059 H 935.36 2.98455 -1.32636 0
M  V30 9060 H 934.019 1.87728 -3.14887 0
M  V30 9061 H 933.667 4.29556 -2.61707 0
M  V30 9062 H 933.367 3.96039 -4.34082 0
M  V30 9063 H 934.891 4.74711 -3.84033 0
M  V30 9064 H 936.305 2.79673 -5.00456 0
M  V30 9065 H 934.702 2.24039 -5.56711 0
M  V30 9066 H 935.772 1.10831 -4.72064 0
M  V30 9067 N 937.115 1.49373 0.502552 0
M  V30 9068 C 938.363 1.58467 1.25429 0
M  V30 9069 C 938.684 0.272593 1.93085 0
M  V30 9070 O 937.954 -0.707947 1.82661 0
M  V30 9071 H 936.534 0.583866 0.46595 0
M  V30 9072 H 939.196 1.8599 0.582568 0
M  V30 9073 H 938.292 2.37993 2.01906 0
M  V30 9074 N 938.594 -0.753485 1.38421 0
M  V30 9075 C 939.542 -1.8886 1.35774 0
M  V30 9076 C 940.536 -1.67639 0.243608 0
M  V30 9077 O 941.742 -1.75206 0.412649 0
M  V30 9078 H 938.117 -0.62137 0.42356 0
M  V30 9079 H 940.088 -1.88209 2.3156 0
M  V30 9080 C 938.837 -3.26344 1.19979 0
M  V30 9081 H 938.16 -3.43259 2.04971 0
M  V30 9082 H 939.6 -4.06015 1.22181 0
M  V30 9083 C 938.059 -3.36771 -0.0932867 0
M  V30 9084 O 938.589 -3.8718 -1.07027 0
M  V30 9085 N 936.795 -2.90212 -0.150154 0
M  V30 9086 H 936.342 -2.4938 0.645562 0
M  V30 9087 H 936.3 -2.97569 -1.0149 0
M  V30 9088 N 940.072 -1.23292 -0.981677 0
M  V30 9089 C 941.002 -1.03738 -2.09191 0
M  V30 9090 C 941.983 0.0453041 -1.7004 0
M  V30 9091 O 943.168 -0.119092 -1.93834 0
M  V30 9092 C 940.298 -0.626426 -3.41604 0
M  V30 9093 C 939.252 -1.65631 -3.94652 0
M  V30 9094 C 938.578 -1.10084 -5.23245 0
M  V30 9095 C 939.878 -3.04903 -4.24066 0
M  V30 9096 H 941.572 -1.966 -2.25807 0
M  V30 9097 H 939.118 -0.946656 -1.0851 0
M  V30 9098 H 941.071 -0.476689 -4.18695 0
M  V30 9099 H 939.795 0.337873 -3.24848 0
M  V30 9100 H 938.454 -1.79402 -3.19704 0
M  V30 9101 H 938.102 -0.127562 -5.02838 0
M  V30 9102 H 937.802 -1.78896 -5.59705 0
M  V30 9103 H 939.326 -0.962928 -6.02959 0
M  V30 9104 H 940.74 -2.94441 -4.91912 0
M  V30 9105 H 939.137 -3.70941 -4.71724 0
M  V30 9106 H 940.207 -3.53991 -3.31389 0
M  V30 9107 N 941.55 1.18024 -1.04442 0
M  V30 9108 C 942.497 2.21785 -0.638759 0
M  V30 9109 C 943.467 1.62255 0.355312 0
M  V30 9110 O 944.652 1.89176 0.24844 0
M  V30 9111 C 941.792 3.45098 -0.0118002 0
M  V30 9112 C 940.905 4.1895 -1.05379 0
M  V30 9113 C 940.04 5.2973 -0.394951 0
M  V30 9114 C 939.079 5.95359 -1.42178 0
M  V30 9115 N 938.216 6.97668 -0.787635 0
M  V30 9116 H 943.056 2.55839 -1.52808 0
M  V30 9117 H 940.593 1.25681 -0.764378 0
M  V30 9118 H 942.551 4.15564 0.369075 0
M  V30 9119 H 941.181 3.11652 0.84102 0
M  V30 9120 H 940.233 3.47274 -1.55258 0
M  V30 9121 H 941.545 4.63877 -1.83355 0
M  V30 9122 H 940.699 6.06687 0.0399244 0
M  V30 9123 H 939.438 4.85915 0.416867 0
M  V30 9124 H 938.443 5.17139 -1.86675 0
M  V30 9125 H 939.668 6.41255 -2.23536 0
M  V30 9126 H 937.614 6.56 0.00380893 0
M  V30 9127 H 937.531 7.40867 -1.50505 0
M  V30 9128 H 938.799 7.78586 -0.377282 0
M  V30 9129 N 943.028 0.824394 1.34319 0
M  V30 9130 C 943.958 0.262077 2.32025 0
M  V30 9131 C 944.939 -0.622277 1.58309 0
M  V30 9132 O 946.124 -0.548848 1.86283 0
M  V30 9133 C 943.254 -0.57567 3.42496 0
M  V30 9134 C 942.208 0.21167 4.27476 0
M  V30 9135 C 941.534 -0.748913 5.29429 0
M  V30 9136 C 942.834 1.42068 5.02607 0
M  V30 9137 H 944.528 1.07842 2.79304 0
M  V30 9138 H 942.074 0.520022 1.34282 0
M  V30 9139 H 944.027 -0.979251 4.09864 0
M  V30 9140 H 942.751 -1.42508 2.93869 0
M  V30 9141 H 941.41 0.596636 3.61712 0
M  V30 9142 H 941.058 -1.59432 4.77064 0
M  V30 9143 H 940.758 -0.226313 5.87164 0
M  V30 9144 H 942.282 -1.15032 5.99667 0
M  V30 9145 H 943.696 1.09103 5.62823 0
M  V30 9146 H 942.093 1.87903 5.69923 0
M  V30 9147 H 943.163 2.1981 4.32217 0
M  V30 9148 N 944.506 -1.46559 0.579492 0
M  V30 9149 C 945.438 -2.28383 -0.19337 0
M  V30 9150 C 946.451 -1.38324 -0.858511 0
M  V30 9151 O 947.64 -1.62952 -0.728615 0
M  V30 9152 C 944.74 -3.13262 -1.29306 0
M  V30 9153 C 943.913 -4.31426 -0.720459 0
M  V30 9154 C 942.972 -4.97728 -1.70744 0
M  V30 9155 O 941.998 -5.55423 -1.24476 0
M  V30 9156 N 943.2 -4.94445 -3.04146 0
M  V30 9157 H 945.965 -2.95353 0.508611 0
M  V30 9158 H 943.526 -1.56436 0.417046 0
M  V30 9159 H 945.518 -3.54483 -1.95254 0
M  V30 9160 H 944.088 -2.48388 -1.89795 0
M  V30 9161 H 943.308 -3.94028 0.116398 0
M  V30 9162 H 944.596 -5.07808 -0.31763 0
M  V30 9163 H 943.994 -4.4881 -3.44363 0
M  V30 9164 H 942.551 -5.39616 -3.65592 0
M  V30 9165 N 945.984 -0.3171 -1.54377 0
M  V30 9166 C 946.894 0.560867 -2.27797 0
M  V30 9167 C 947.91 1.13473 -1.31908 0
M  V30 9168 O 949.086 1.15608 -1.64914 0
M  V30 9169 C 946.151 1.70886 -3.0166 0
M  V30 9170 C 945.212 1.16745 -4.13121 0
M  V30 9171 C 944.445 2.26073 -4.83453 0
M  V30 9172 O 944.668 3.46292 -4.53252 0
M  V30 9173 O 943.602 1.91856 -5.70504 0
M  V30 9174 H 947.428 -0.035193 -3.0368 0
M  V30 9175 H 945.013 -0.0830062 -1.49169 0
M  V30 9176 H 946.895 2.37736 -3.47936 0
M  V30 9177 H 945.57 2.29122 -2.28658 0
M  V30 9178 H 944.477 0.464224 -3.71209 0
M  V30 9179 H 945.81 0.630307 -4.88147 0
M  V30 9180 N 947.462 1.57535 -0.0451378 0
M  V30 9181 C 948.372 2.14653 0.946646 0
M  V30 9182 C 949.388 1.10279 1.3459 0
M  V30 9183 O 950.564 1.42417 1.42405 0
M  V30 9184 C 947.629 2.67533 2.20515 0
M  V30 9185 C 946.69 3.86682 1.86481 0
M  V30 9186 C 945.923 4.37031 3.06332 0
M  V30 9187 O 946.146 3.86481 4.1951 0
M  V30 9188 O 945.08 5.28691 2.87697 0
M  V30 9189 H 948.906 2.99706 0.49091 0
M  V30 9190 H 946.491 1.48355 0.17641 0
M  V30 9191 H 948.373 3.01542 2.94365 0
M  V30 9192 H 947.048 1.85554 2.65238 0
M  V30 9193 H 945.955 3.57573 1.09966 0
M  V30 9194 H 947.288 4.69873 1.46562 0
M  V30 9195 N 948.94 -0.228186 1.55939 0
M  V30 9196 C 950.188 -0.951668 1.78291 0
M  V30 9197 C 950.509 -1.85132 0.612474 0
M  V30 9198 O 949.779 -1.92356 -0.370942 0
M  V30 9199 H 948.359 -0.354388 0.657585 0
M  V30 9200 H 951.021 -0.241635 1.93396 0
M  V30 9201 H 950.117 -1.56239 2.70177 0
M  V30 9202 N 950.418 -1.49637 -0.494624 0
M  V30 9203 C 951.328 -1.69522 -1.62172 0
M  V30 9204 C 952.344 -0.577894 -1.64123 0
M  V30 9205 O 953.52 -0.853382 -1.82426 0
M  V30 9206 C 950.585 -1.7633 -2.9851 0
M  V30 9207 C 949.646 -2.99944 -3.07135 0
M  V30 9208 C 948.879 -3.06419 -4.36971 0
M  V30 9209 O 949.102 -2.20312 -5.26136 0
M  V30 9210 O 948.036 -3.9894 -4.507 0
M  V30 9211 H 951.862 -2.65017 -1.48324 0
M  V30 9212 H 949.447 -1.33454 -0.671603 0
M  V30 9213 H 951.329 -1.83125 -3.7953 0
M  V30 9214 H 950.004 -0.840155 -3.12607 0
M  V30 9215 H 948.911 -2.98664 -2.2528 0
M  V30 9216 H 950.244 -3.9176 -2.97968 0
M  V30 9217 N 951.896 0.746133 -1.38819 0
M  V30 9218 C 952.859 1.84167 -1.36437 0
M  V30 9219 C 953.859 1.58626 -0.263499 0
M  V30 9220 O 955.049 1.66233 -0.520801 0
M  V30 9221 C 952.181 3.21769 -1.12596 0
M  V30 9222 H 953.374 1.87684 -2.33912 0
M  V30 9223 H 950.927 0.948625 -1.24221 0
M  V30 9224 H 951.662 3.23917 -0.15758 0
M  V30 9225 H 951.447 3.41702 -1.92307 0
M  V30 9226 H 952.937 4.0184 -1.13643 0
M  V30 9227 N 953.375 1.23811 0.975125 0
M  V30 9228 C 954.6 1.10109 1.75757 0
M  V30 9229 C 955.025 -0.342922 1.84948 0
M  V30 9230 O 954.383 -1.24814 1.31496 0
M  V30 9231 C 954.431 1.73724 3.15994 0
M  V30 9232 O 953.535 1.00297 4.00018 0
M  V30 9233 H 952.876 0.385627 0.540544 0
M  V30 9234 H 955.406 1.63971 1.22372 0
M  V30 9235 H 955.416 1.79178 3.6655 0
M  V30 9236 H 954.091 2.78794 3.0862 0
M  V30 9237 H 952.668 1.02575 3.58515 0
M  V30 9238 N 954.853 -1.17469 1.05066 0
M  V30 9239 C 956.078 -1.92162 0.780298 0
M  V30 9240 C 956.503 -1.76222 -0.657832 0
M  V30 9241 O 955.861 -1.0791 -1.45688 0
M  V30 9242 C 955.909 -3.41292 1.16414 0
M  V30 9243 O 955.013 -4.1134 0.295531 0
M  V30 9244 H 954.354 -0.599127 0.286257 0
M  V30 9245 H 956.884 -1.48903 1.40318 0
M  V30 9246 H 956.894 -3.92029 1.13036 0
M  V30 9247 H 955.569 -3.52214 2.21175 0
M  V30 9248 H 954.146 -3.70857 0.389797 0
M  V30 9249 N 956.331 -0.831506 -1.3388 0
M  V30 9250 C 957.559 -0.436925 -2.02234 0
M  V30 9251 C 957.974 0.959689 -1.6259 0
M  V30 9252 O 957.331 1.62248 -0.835576 0
M  V30 9253 C 957.382 -0.539429 -3.57453 0
M  V30 9254 O 957.103 -1.88101 -3.95664 0
M  V30 9255 C 958.604 -0.140852 -4.43076 0
M  V30 9256 H 955.824 -0.174302 -0.647966 0
M  V30 9257 H 958.368 -1.12204 -1.70969 0
M  V30 9258 H 956.523 0.0976959 -3.87277 0
M  V30 9259 H 956.937 -1.86131 -4.90363 0
M  V30 9260 H 958.411 -0.26364 -5.5137 0
M  V30 9261 H 958.888 0.916505 -4.29531 0
M  V30 9262 H 959.494 -0.752117 -4.18597 0
M  V30 9263 N 957.809 1.4625 -0.587256 0
M  V30 9264 C 959.037 2.06744 -0.08033 0
M  V30 9265 C 959.452 1.43527 1.2266 0
M  V30 9266 O 958.809 0.542168 1.74261 0
M  V30 9267 C 958.86 3.61394 0.0873469 0
M  V30 9268 O 958.581 4.22247 -1.16785 0
M  V30 9269 C 960.082 4.38828 0.628095 0
M  V30 9270 H 957.302 0.668354 -0.0595301 0
M  V30 9271 H 959.846 1.87808 -0.809217 0
M  V30 9272 H 958.001 3.79742 0.766473 0
M  V30 9273 H 958.415 5.15176 -0.984565 0
M  V30 9274 H 959.889 5.47613 0.694583 0
M  V30 9275 H 960.366 4.07188 1.64606 0
M  V30 9276 H 960.972 4.25297 -0.0163115 0
M  V30 9277 N 959.287 0.325282 1.54207 0
M  V30 9278 C 960.512 -0.281418 2.05482 0
M  V30 9279 C 960.937 -1.44869 1.19977 0
M  V30 9280 O 960.295 -1.80088 0.209275 0
M  V30 9281 C 960.343 -0.692029 3.53897 0
M  V30 9282 O 959.447 -1.7942 3.71325 0
M  V30 9283 H 958.788 -0.0504872 0.662078 0
M  V30 9284 H 961.318 0.474191 1.99029 0
M  V30 9285 H 961.328 -0.974219 3.96198 0
M  V30 9286 H 960.003 0.161709 4.15586 0
M  V30 9287 H 958.58 -1.51069 3.40929 0
M  V30 9288 N 960.765 -1.57509 0.0534917 0
M  V30 9289 C 962.176 -1.80374 -0.481867 0
M  V30 9290 C 962.527 -0.965917 -1.70776 0
M  V30 9291 O 961.652 -0.183167 -2.15623 0
M  V30 9292 C 962.247 -3.27146 -0.880978 0
M  V30 9293 C 960.806 -3.50921 -1.3613 0
M  V30 9294 C 959.953 -2.75237 -0.337611 0
M  V30 9295 H 962.904 -1.56222 0.279353 0
M  V30 9296 H 962.925 -3.38193 -1.74373 0
M  V30 9297 H 962.437 -3.88098 0.011441 0
M  V30 9298 H 960.538 -2.95251 -2.27283 0
M  V30 9299 H 960.651 -4.59632 -1.35186 0
M  V30 9300 H 959.015 -2.41444 -0.810991 0
M  V30 9301 H 959.798 -3.38918 0.546763 0
M  V30 9302 N 962.243 0.219913 -1.56058 0
M  V30 9303 C 963.471 0.960915 -1.83232 0
M  V30 9304 C 963.886 1.77878 -0.632828 0
M  V30 9305 O 963.243 1.78093 0.398624 0
M  V30 9306 C 963.294 1.87716 -3.08942 0
M  V30 9307 O 963.015 1.09235 -4.24263 0
M  V30 9308 C 964.516 2.73192 -3.49115 0
M  V30 9309 H 961.736 0.281546 -0.609075 0
M  V30 9310 H 964.28 0.234648 -2.03149 0
M  V30 9311 H 962.435 2.55736 -2.90995 0
M  V30 9312 H 962.849 1.71446 -4.95688 0
M  V30 9313 H 964.323 3.33181 -4.40107 0
M  V30 9314 H 964.8 3.45668 -2.70943 0
M  V30 9315 H 965.406 2.10583 -3.69506 0
M  V30 9316 N 963.721 1.49897 0.486681 0
M  V30 9317 C 964.631 1.70379 1.6127 0
M  V30 9318 C 965.647 0.58659 1.63814 0
M  V30 9319 O 966.823 0.863044 1.81971 0
M  V30 9320 C 963.888 1.77911 2.97571 0
M  V30 9321 C 962.949 3.01569 3.0554 0
M  V30 9322 C 962.182 3.08732 4.35339 0
M  V30 9323 O 962.405 2.23099 5.2496 0
M  V30 9324 O 961.339 4.01325 4.48578 0
M  V30 9325 H 965.165 2.65799 1.46916 0
M  V30 9326 H 962.75 1.33808 0.664516 0
M  V30 9327 H 964.632 1.85135 3.78554 0
M  V30 9328 H 963.307 0.856722 3.12157 0
M  V30 9329 H 962.214 2.99854 2.23693 0
M  V30 9330 H 963.547 3.93335 2.95886 0
M  V30 9331 N 965.199 -0.738761 1.39212 0
M  V30 9332 C 966.109 -1.88324 1.39897 0
M  V30 9333 C 967.125 -1.71494 0.294229 0
M  V30 9334 O 968.301 -1.94162 0.535087 0
M  V30 9335 C 965.366 -3.23871 1.23726 0
M  V30 9336 C 964.427 -3.53121 2.44139 0
M  V30 9337 C 963.66 -4.82202 2.2873 0
M  V30 9338 O 963.883 -5.55649 1.28879 0
M  V30 9339 O 962.817 -5.11265 3.17634 0
M  V30 9340 H 966.643 -1.90701 2.36362 0
M  V30 9341 H 964.228 -0.886067 1.20288 0
M  V30 9342 H 966.11 -4.04882 1.16826 0
M  V30 9343 H 964.785 -3.22274 0.303551 0
M  V30 9344 H 963.692 -2.72212 2.56615 0
M  V30 9345 H 965.025 -3.59495 3.36191 0
M  V30 9346 N 966.677 -1.24326 -0.968545 0
M  V30 9347 C 967.905 -1.10947 -1.74638 0
M  V30 9348 C 968.32 0.338064 -1.85749 0
M  V30 9349 O 967.677 1.23331 -1.3452 0
M  V30 9350 C 967.728 -1.74254 -3.1673 0
M  V30 9351 O 967.449 -3.13347 -3.06178 0
M  V30 9352 C 968.95 -1.66473 -4.10855 0
M  V30 9353 H 966.17 -0.38767 -0.547679 0
M  V30 9354 H 968.714 -1.64415 -1.21605 0
M  V30 9355 H 966.869 -1.2479 -3.66751 0
M  V30 9356 H 967.283 -3.44255 -3.95713 0
M  V30 9357 H 968.757 -2.15452 -5.08217 0
M  V30 9358 H 969.234 -0.625785 -4.34719 0
M  V30 9359 H 969.84 -2.15359 -3.66743 0
M  V30 9360 N 968.156 1.1691 -1.05688 0
M  V30 9361 C 969.384 1.91204 -0.790485 0
M  V30 9362 C 969.799 1.77095 0.654434 0
M  V30 9363 O 969.156 1.11146 1.44751 0
M  V30 9364 C 969.207 3.42108 -1.16808 0
M  V30 9365 O 968.928 3.55788 -2.55629 0
M  V30 9366 C 970.429 4.33466 -0.92855 0
M  V30 9367 H 967.649 0.606508 -0.287035 0
M  V30 9368 H 970.193 1.48225 -1.40888 0
M  V30 9369 H 968.348 3.82814 -0.59434 0
M  V30 9370 H 968.762 4.49321 -2.70575 0
M  V30 9371 H 970.236 5.37836 -1.24245 0
M  V30 9372 H 970.713 4.38989 0.136016 0
M  V30 9373 H 971.319 3.98481 -1.48638 0
M  V30 9374 N 969.634 0.838594 1.33437 0
M  V30 9375 C 970.566 0.229006 2.28053 0
M  V30 9376 C 971.579 -0.590103 1.51729 0
M  V30 9377 O 972.768 -0.417218 1.73556 0
M  V30 9378 C 969.868 -0.696251 3.31671 0
M  V30 9379 C 969.041 0.0834606 4.3732 0
M  V30 9380 C 968.1 -0.765097 5.20608 0
M  V30 9381 O 967.126 -0.2044 5.68833 0
M  V30 9382 N 968.328 -2.08249 5.4186 0
M  V30 9383 H 971.093 1.04196 2.81004 0
M  V30 9384 H 968.654 0.697031 1.46127 0
M  V30 9385 H 970.646 -1.26889 3.84293 0
M  V30 9386 H 969.216 -1.40992 2.78998 0
M  V30 9387 H 968.436 0.837481 3.85201 0
M  V30 9388 H 969.724 0.619613 5.05013 0
M  V30 9389 H 969.122 -2.56156 5.04381 0
M  V30 9390 H 967.679 -2.60362 5.97541 0
M  V30 9391 N 971.112 -1.45937 0.595003 0
M  V30 9392 C 972.059 -2.30427 -0.131165 0
M  V30 9393 C 973.029 -1.41355 -0.872232 0
M  V30 9394 O 974.214 -1.70296 -0.860467 0
M  V30 9395 C 971.354 -3.26045 -1.13087 0
M  V30 9396 C 970.467 -4.30218 -0.391982 0
M  V30 9397 C 969.602 -5.12953 -1.3803 0
M  V30 9398 C 968.641 -6.08865 -0.628505 0
M  V30 9399 N 967.778 -6.84425 -1.56548 0
M  V30 9400 H 972.618 -2.91992 0.595359 0
M  V30 9401 H 970.155 -1.43895 0.305405 0
M  V30 9402 H 972.113 -3.79937 -1.72348 0
M  V30 9403 H 970.743 -2.66261 -1.82496 0
M  V30 9404 H 969.795 -3.79086 0.315895 0
M  V30 9405 H 971.107 -4.98418 0.195173 0
M  V30 9406 H 970.261 -5.71184 -2.04534 0
M  V30 9407 H 969 -4.44743 -2.00138 0
M  V30 9408 H 968.005 -5.49777 0.0502431 0
M  V30 9409 H 969.23 -6.79099 -0.012641 0
M  V30 9410 H 967.176 -6.18913 -2.17444 0
M  V30 9411 H 967.093 -7.48931 -1.03145 0
M  V30 9412 H 968.361 -7.47204 -2.22049 0
M  V30 9413 N 972.59 -0.333456 -1.54032 0
M  V30 9414 C 973.52 0.52051 -2.27625 0
M  V30 9415 C 974.501 1.1111 -1.28797 0
M  V30 9416 O 975.686 1.13438 -1.57625 0
M  V30 9417 C 972.816 1.67663 -3.04149 0
M  V30 9418 C 971.77 1.21487 -4.10396 0
M  V30 9419 C 971.096 2.45872 -4.74817 0
M  V30 9420 C 972.396 0.322603 -5.21303 0
M  V30 9421 H 974.09 -0.0933823 -2.99254 0
M  V30 9422 H 971.636 -0.0463526 -1.43925 0
M  V30 9423 H 973.589 2.28041 -3.54366 0
M  V30 9424 H 972.313 2.31727 -2.30153 0
M  V30 9425 H 970.972 0.633966 -3.61077 0
M  V30 9426 H 970.62 3.0832 -3.97426 0
M  V30 9427 H 970.32 2.15662 -5.46593 0
M  V30 9428 H 971.844 3.06994 -5.27814 0
M  V30 9429 H 973.258 0.832942 -5.67217 0
M  V30 9430 H 971.655 0.112843 -5.99994 0
M  V30 9431 H 972.725 -0.643954 -4.80605 0
M  V30 9432 N 974.068 1.57479 -0.061844 0
M  V30 9433 C 975.296 1.97429 0.618837 0
M  V30 9434 C 975.711 0.939826 1.63746 0
M  V30 9435 O 975.068 -0.0747173 1.82347 0
M  V30 9436 C 975.119 3.3746 1.29628 0
M  V30 9437 O 974.84 4.36941 0.318431 0
M  V30 9438 C 976.341 3.92228 2.06572 0
M  V30 9439 H 973.561 0.649513 0.168444 0
M  V30 9440 H 976.105 2.04078 -0.131303 0
M  V30 9441 H 974.26 3.31928 1.99757 0
M  V30 9442 H 974.674 5.18313 0.803239 0
M  V30 9443 H 976.148 4.92458 2.49377 0
M  V30 9444 H 976.625 3.28231 2.91824 0
M  V30 9445 H 977.231 4.01131 1.4133 0
M  V30 9446 N 975.546 -0.211634 1.56173 0
M  V30 9447 C 976.792 -0.935935 1.79911 0
M  V30 9448 C 977.125 -1.83589 0.633155 0
M  V30 9449 O 976.4 -1.91004 -0.367132 0
M  V30 9450 C 976.683 -1.76638 3.13801 0
M  V30 9451 C 976.536 -0.892259 4.40861 0
M  V30 9452 C 977.855 -2.74224 3.44223 0
M  V30 9453 H 974.974 -0.338822 0.654499 0
M  V30 9454 H 977.616 -0.20422 1.88899 0
M  V30 9455 H 975.766 -2.39021 3.0627 0
M  V30 9456 H 977.438 -0.284407 4.60422 0
M  V30 9457 H 975.681 -0.198145 4.33347 0
M  V30 9458 H 976.352 -1.50793 5.31004 0
M  V30 9459 H 978.828 -2.21975 3.51946 0
M  V30 9460 H 977.704 -3.29424 4.39057 0
M  V30 9461 H 977.965 -3.52455 2.66885 0
M  V30 9462 N 977.024 -1.50153 -0.478725 0
M  V30 9463 C 978.249 -1.64776 -1.2595 0
M  V30 9464 C 978.674 -0.327794 -1.85222 0
M  V30 9465 O 978.032 0.707418 -1.66929 0
M  V30 9466 C 978.08 -2.73551 -2.34952 0
M  V30 9467 O 977.184 -2.34273 -3.39397 0
M  V30 9468 H 976.525 -0.550769 -0.370877 0
M  V30 9469 H 979.055 -1.96482 -0.570605 0
M  V30 9470 H 979.065 -2.96397 -2.8038 0
M  V30 9471 H 977.74 -3.69354 -1.91181 0
M  V30 9472 H 976.317 -2.21844 -2.99733 0
M  V30 9473 N 978.502 0.731368 -1.39602 0
M  V30 9474 C 979.452 1.83662 -1.35101 0
M  V30 9475 C 980.436 1.5923 -0.231241 0
M  V30 9476 O 981.628 1.70671 -0.469072 0
M  V30 9477 C 978.757 3.21629 -1.20041 0
M  V30 9478 C 977.843 3.51878 -2.36733 0
M  V30 9479 N 978.234 3.53041 -3.6221 0
M  V30 9480 C 976.532 3.82259 -2.2977 0
M  V30 9481 C 977.233 3.81188 -4.39398 0
M  V30 9482 N 976.209 3.99145 -3.69031 0
M  V30 9483 H 980.011 1.82871 -2.30077 0
M  V30 9484 H 977.525 0.929777 -1.3315 0
M  V30 9485 H 979.522 4.00754 -1.14899 0
M  V30 9486 H 978.182 3.23656 -0.260184 0
M  V30 9487 H 979.193 3.34266 -3.95584 0
M  V30 9488 H 975.87 3.9187 -1.44029 0
M  V30 9489 H 977.26 3.88525 -5.48177 0
M  V30 9490 N 979.98 1.24838 0.961938 0
M  V30 9491 C 981.229 1.0855 1.69999 0
M  V30 9492 C 981.542 -0.374645 1.91979 0
M  V30 9493 O 982.748 -0.657822 2.6341 0
M  V30 9494 C 981.204 1.89424 3.06017 0
M  V30 9495 C 980.812 3.39885 2.9186 0
M  V30 9496 C 982.556 1.81684 3.83655 0
M  V30 9497 C 980.463 4.13082 4.23223 0
M  V30 9498 H 979.393 0.402603 0.637516 0
M  V30 9499 H 982.044 1.4897 1.07146 0
M  V30 9500 H 980.426 1.41823 3.69733 0
M  V30 9501 H 981.6 3.95108 2.37121 0
M  V30 9502 H 979.915 3.4864 2.27683 0
M  V30 9503 H 982.512 2.3367 4.80939 0
M  V30 9504 H 982.855 0.783247 4.08865 0
M  V30 9505 H 983.388 2.26997 3.26676 0
M  V30 9506 H 980.127 5.16824 4.03204 0
M  V30 9507 H 979.647 3.62644 4.77755 0
M  V30 9508 H 981.326 4.20397 4.91808 0
M  V30 9509 N 981.458 -1.16348 1.06306 0
M  V30 9510 C 982.368 -2.24375 0.685059 0
M  V30 9511 C 983.384 -1.71413 -0.298956 0
M  V30 9512 O 984.56 -2.00854 -0.148239 0
M  V30 9513 C 981.625 -3.46614 0.0774088 0
M  V30 9514 C 980.686 -4.14613 1.11331 0
M  V30 9515 C 979.919 -5.31016 0.534559 0
M  V30 9516 O 980.142 -5.66654 -0.65265 0
M  V30 9517 O 979.076 -5.88256 1.27431 0
M  V30 9518 H 982.902 -2.59018 1.58566 0
M  V30 9519 H 980.487 -1.23865 0.835332 0
M  V30 9520 H 982.369 -4.20599 -0.259716 0
M  V30 9521 H 981.044 -3.13743 -0.796677 0
M  V30 9522 H 979.951 -3.42597 1.50261 0
M  V30 9523 H 981.284 -4.51538 1.95893 0
M  V30 9524 N 982.937 -0.845659 -1.3299 0
M  V30 9525 C 984.185 -0.443774 -1.97168 0
M  V30 9526 C 984.506 1.00192 -1.67292 0
M  V30 9527 O 983.776 1.69891 -0.975397 0
M  V30 9528 H 982.356 -0.161111 -0.729419 0
M  V30 9529 H 985.018 -1.08011 -1.62233 0
M  V30 9530 H 984.114 -0.581414 -3.06637 0
M  V30 9531 N 984.415 1.45619 -0.602734 0
M  V30 9532 C 985.645 2.06348 -0.102105 0
M  V30 9533 C 986.053 1.44884 1.21677 0
M  V30 9534 O 985.396 0.555559 1.75098 0
M  V30 9535 C 985.458 3.59309 0.117026 0
M  V30 9536 C 985.122 4.43081 -1.11931 0
M  V30 9537 C 986.119 4.78364 -2.03627 0
M  V30 9538 C 983.804 4.83908 -1.34677 0
M  V30 9539 C 985.798 5.53325 -3.16403 0
M  V30 9540 C 983.485 5.58624 -2.47754 0
M  V30 9541 C 984.483 5.93249 -3.38445 0
M  V30 9542 O 984.171 6.6645 -4.49555 0
M  V30 9543 H 983.903 0.672988 -0.0637478 0
M  V30 9544 H 986.457 1.87928 -0.828983 0
M  V30 9545 H 984.687 3.76111 0.898742 0
M  V30 9546 H 986.376 4.01897 0.568649 0
M  V30 9547 H 987.142 4.47384 -1.87277 0
M  V30 9548 H 983.021 4.56396 -0.649875 0
M  V30 9549 H 986.565 5.80268 -3.87214 0
M  V30 9550 H 982.462 5.89019 -2.64059 0
M  V30 9551 H 983.23 6.84895 -4.48175 0
M  V30 9552 N 985.893 0.34162 1.53853 0
M  V30 9553 C 986.803 -0.524555 2.2866 0
M  V30 9554 C 987.819 -1.1136 1.33697 0
M  V30 9555 O 988.995 -1.1297 1.66732 0
M  V30 9556 C 986.06 -1.66065 3.04341 0
M  V30 9557 C 985.121 -1.10158 4.14926 0
M  V30 9558 C 984.354 -2.18353 4.86988 0
M  V30 9559 O 984.577 -3.39038 4.58704 0
M  V30 9560 O 983.511 -1.82756 5.73484 0
M  V30 9561 H 987.337 0.0835014 3.03585 0
M  V30 9562 H 984.922 0.106727 1.49018 0
M  V30 9563 H 986.804 -2.3217 3.51674 0
M  V30 9564 H 985.479 -2.25456 2.32275 0
M  V30 9565 H 984.386 -0.405109 3.719 0
M  V30 9566 H 985.719 -0.552567 4.89088 0
M  V30 9567 N 987.371 -1.57444 0.0701946 0
M  V30 9568 C 988.611 -1.95304 -0.60296 0
M  V30 9569 C 988.975 -0.949592 -1.66873 0
M  V30 9570 O 990.176 -1.2158 -2.39733 0
M  V30 9571 C 988.447 -3.37831 -1.16639 0
M  V30 9572 S 990.006 -3.97667 -1.8549 0
M  V30 9573 H 986.824 -0.683026 -0.197476 0
M  V30 9574 H 989.426 -1.94971 0.143669 0
M  V30 9575 H 988.13 -4.08648 -0.378856 0
M  V30 9576 H 987.661 -3.41704 -1.94942 0
M  V30 9577 H 989.676 -3.84441 -3.13719 0
M  V30 9578 N 988.849 0.203349 -1.56283 0
M  V30 9579 C 989.781 1.27592 -1.90402 0
M  V30 9580 C 990.794 1.4213 -0.79391 0
M  V30 9581 O 991.983 1.42703 -1.07229 0
M  V30 9582 C 989.083 2.64919 -2.11356 0
M  V30 9583 C 988.256 2.72095 -3.42466 0
M  V30 9584 C 987.315 3.9056 -3.52631 0
M  V30 9585 O 986.341 3.78048 -4.25521 0
M  V30 9586 N 987.543 5.0566 -2.85111 0
M  V30 9587 H 990.308 0.986423 -2.83001 0
M  V30 9588 H 987.869 0.39331 -1.5705 0
M  V30 9589 H 989.861 3.42581 -2.15453 0
M  V30 9590 H 988.431 2.86391 -1.25295 0
M  V30 9591 H 987.651 1.8077 -3.50308 0
M  V30 9592 H 988.939 2.73874 -4.28801 0
M  V30 9593 H 988.337 5.18723 -2.25705 0
M  V30 9594 H 986.894 5.81299 -2.94847 0
M  V30 9595 N 990.327 1.50405 0.470755 0
M  V30 9596 C 991.738 1.54266 1.05162 0
M  V30 9597 C 992.089 0.346359 1.93119 0
M  V30 9598 O 991.214 -0.540699 2.09536 0
M  V30 9599 C 991.809 2.7956 1.91394 0
M  V30 9600 C 990.368 2.86101 2.44588 0
M  V30 9601 C 989.515 2.48557 1.22941 0
M  V30 9602 H 992.466 1.56665 0.253359 0
M  V30 9603 H 992.487 2.61434 2.76464 0
M  V30 9604 H 991.999 3.66611 1.27351 0
M  V30 9605 H 990.1 2.03403 3.12183 0
M  V30 9606 H 990.213 3.88999 2.79672 0
M  V30 9607 H 988.577 2.01003 1.56429 0
M  V30 9608 H 989.36 3.37916 0.605598 0
M  V30 9609 N 991.805 -0.723954 1.39988 0
M  V30 9610 C 993.054 -1.47922 1.3712 0
M  V30 9611 C 993.367 -1.95582 -0.0263665 0
M  V30 9612 O 994.573 -2.70918 -0.177652 0
M  V30 9613 C 993.029 -2.67342 2.40949 0
M  V30 9614 C 992.637 -2.26586 3.86475 0
M  V30 9615 C 994.381 -3.45116 2.47174 0
M  V30 9616 C 992.288 -3.42794 4.81919 0
M  V30 9617 H 991.218 -0.555522 0.509815 0
M  V30 9618 H 993.869 -0.788692 1.65686 0
M  V30 9619 H 992.251 -3.38524 2.0547 0
M  V30 9620 H 993.425 -1.62878 4.31054 0
M  V30 9621 H 991.74 -1.61876 3.83647 0
M  V30 9622 H 994.337 -4.31573 3.15672 0
M  V30 9623 H 994.68 -3.8835 1.49966 0
M  V30 9624 H 995.213 -2.80971 2.81602 0
M  V30 9625 H 991.952 -3.046 5.8043 0
M  V30 9626 H 991.472 -4.05445 4.42012 0
M  V30 9627 H 993.151 -4.08977 5.01345 0
M  V30 9628 N 993.283 -1.25346 -0.955304 0
M  V30 9629 C 994.53 -1.10055 -1.69983 0
M  V30 9630 C 994.858 0.358586 -1.91166 0
M  V30 9631 O 994.113 1.28071 -1.47974 0
M  V30 9632 C 994.412 -1.7993 -3.08804 0
M  V30 9633 C 994.078 -3.29851 -3.07424 0
M  V30 9634 C 992.74 -3.7075 -3.06754 0
M  V30 9635 C 995.092 -4.25636 -3.00805 0
M  V30 9636 C 992.42 -5.05847 -2.97214 0
M  V30 9637 C 994.772 -5.60756 -2.92806 0
M  V30 9638 C 993.436 -6.00984 -2.90472 0
M  V30 9639 H 992.706 -0.402718 -0.622012 0
M  V30 9640 H 995.353 -1.5561 -1.11614 0
M  V30 9641 H 993.658 -1.26803 -3.70713 0
M  V30 9642 H 995.355 -1.65551 -3.65231 0
M  V30 9643 H 991.945 -2.97308 -3.08716 0
M  V30 9644 H 996.129 -3.9503 -3.00441 0
M  V30 9645 H 991.385 -5.36196 -2.93775 0
M  V30 9646 H 995.559 -6.34671 -2.86645 0
M  V30 9647 H 993.186 -7.05626 -2.82835 0
M  V30 9648 N 994.761 1.15782 -1.06922 0
M  V30 9649 C 995.691 2.22538 -0.707045 0
M  V30 9650 C 996.672 1.67371 0.303471 0
M  V30 9651 O 997.857 1.9339 0.177189 0
M  V30 9652 C 994.987 3.47158 -0.0994269 0
M  V30 9653 C 993.941 4.15257 -1.03661 0
M  V30 9654 C 993.267 5.33902 -0.291974 0
M  V30 9655 C 994.567 4.65516 -2.36837 0
M  V30 9656 H 996.261 2.53089 -1.59958 0
M  V30 9657 H 993.807 1.21649 -0.770552 0
M  V30 9658 H 995.76 4.21073 0.165852 0
M  V30 9659 H 994.484 3.15926 0.828155 0
M  V30 9660 H 993.143 3.43276 -1.28674 0
M  V30 9661 H 992.791 4.98926 0.638928 0
M  V30 9662 H 992.491 5.80407 -0.916613 0
M  V30 9663 H 994.015 6.1059 -0.0343915 0
M  V30 9664 H 995.429 5.30981 -2.16175 0
M  V30 9665 H 993.826 5.22666 -2.94856 0
M  V30 9666 H 994.896 3.81387 -2.99453 0
M  V30 9667 N 996.239 0.8527 1.3254 0
M  V30 9668 C 997.187 0.284659 2.30852 0
M  V30 9669 C 998.181 -0.5909 1.5876 0
M  V30 9670 O 999.387 -0.478922 1.73512 0
M  V30 9671 H 995.762 0.0733452 0.748415 0
M  V30 9672 H 997.733 1.1281 2.76254 0
M  V30 9673 C 996.482 -0.51379 3.43883 0
M  V30 9674 H 995.805 0.150644 3.99516 0
M  V30 9675 H 997.245 -0.876866 4.14834 0
M  V30 9676 C 995.704 -1.69823 2.90967 0
M  V30 9677 O 996.234 -2.79727 2.88298 0
M  V30 9678 N 994.44 -1.52465 2.47392 0
M  V30 9679 H 993.987 -0.630599 2.49762 0
M  V30 9680 H 993.945 -2.31859 2.12341 0
M  V30 9681 N 997.718 -1.45297 0.610449 0
M  V30 9682 C 998.964 -2.02518 0.106917 0
M  V30 9683 C 999.297 -1.47747 -1.26034 0
M  V30 9684 O 998.572 -0.65329 -1.832 0
M  V30 9685 C 998.855 -3.6003 0.0710975 0
M  V30 9686 C 998.708 -4.25128 1.46922 0
M  V30 9687 C 1000.03 -4.35778 -0.61524 0
M  V30 9688 H 997.146 -0.735896 0.040327 0
M  V30 9689 H 999.788 -1.73117 0.782968 0
M  V30 9690 H 997.938 -3.85209 -0.504611 0
M  V30 9691 H 999.61 -4.11125 2.09223 0
M  V30 9692 H 997.853 -3.83418 2.02911 0
M  V30 9693 H 998.524 -5.34046 1.39637 0
M  V30 9694 H 1001 -4.1591 -0.125871 0
M  V30 9695 H 999.876 -5.45506 -0.609419 0
M  V30 9696 H 1000.14 -4.08859 -1.68186 0
M  V30 9697 N 999.196 -0.349774 -1.5367 0
M  V30 9698 C 1000.13 0.496338 -2.28164 0
M  V30 9699 C 1001.11 1.09737 -1.29968 0
M  V30 9700 O 1002.29 1.11759 -1.58819 0
M  V30 9701 C 999.422 1.64428 -3.0591 0
M  V30 9702 C 998.376 1.17127 -4.11661 0
M  V30 9703 C 997.702 2.40822 -4.77398 0
M  V30 9704 C 999.002 0.267293 -5.21616 0
M  V30 9705 H 1000.7 -0.125117 -2.99138 0
M  V30 9706 H 998.242 -0.0616152 -1.43868 0
M  V30 9707 H 1000.19 2.2427 -3.56765 0
M  V30 9708 H 998.919 2.29272 -2.32598 0
M  V30 9709 H 997.578 0.595634 -3.61729 0
M  V30 9710 H 997.226 3.04088 -4.00674 0
M  V30 9711 H 996.926 2.09852 -5.48849 0
M  V30 9712 H 998.45 3.01378 -5.3104 0
M  V30 9713 H 999.864 0.772734 -5.68068 0
M  V30 9714 H 998.261 0.0491991 -6.0008 0
M  V30 9715 H 999.331 -0.694892 -4.79895 0
M  V30 9716 N 1000.67 1.57404 -0.0785433 0
M  V30 9717 C 1001.58 2.16612 0.900902 0
M  V30 9718 C 1002.6 1.13109 1.32221 0
M  V30 9719 O 1003.78 1.45406 1.39352 0
M  V30 9720 C 1000.84 2.7215 2.14791 0
M  V30 9721 C 999.902 3.90551 1.78237 0
M  V30 9722 C 999.135 4.43431 2.96993 0
M  V30 9723 O 999.358 3.95292 4.11218 0
M  V30 9724 O 998.292 5.34674 2.76418 0
M  V30 9725 H 1002.12 3.0068 0.427227 0
M  V30 9726 H 999.703 1.48696 0.144902 0
M  V30 9727 H 1001.58 3.07718 2.87902 0
M  V30 9728 H 1000.26 1.91139 2.61243 0
M  V30 9729 H 999.167 3.59825 1.02357 0
M  V30 9730 H 1000.5 4.72876 1.36562 0
M  V30 9731 N 1002.15 -0.195058 1.56388 0
M  V30 9732 C 1003.11 -1.2254 1.93692 0
M  V30 9733 C 1004.11 -1.38437 0.81804 0
M  V30 9734 O 1005.3 -1.36248 1.08545 0
M  V30 9735 C 1002.44 -2.59476 2.21099 0
M  V30 9736 H 1003.63 -0.906544 2.8587 0
M  V30 9737 H 1001.18 -0.436577 1.50079 0
M  V30 9738 H 1001.92 -2.96417 1.31558 0
M  V30 9739 H 1001.7 -2.4931 3.02634 0
M  V30 9740 H 1003.19 -3.33777 2.50964 0
M  V30 9741 N 1003.63 -1.50653 -0.462772 0
M  V30 9742 C 1004.88 -1.61296 -1.21105 0
M  V30 9743 C 1005.19 -0.322757 -1.92919 0
M  V30 9744 O 1006.4 -0.308211 -2.69745 0
M  V30 9745 C 1004.85 -2.84752 -2.201 0
M  V30 9746 C 1004.46 -4.20681 -1.54051 0
M  V30 9747 C 1006.21 -3.04744 -2.95518 0
M  V30 9748 C 1004.11 -5.35314 -2.51381 0
M  V30 9749 H 1003.04 -0.60069 -0.455728 0
M  V30 9750 H 1005.69 -1.77093 -0.480656 0
M  V30 9751 H 1004.08 -2.62532 -2.96467 0
M  V30 9752 H 1005.25 -4.53187 -0.834168 0
M  V30 9753 H 1003.56 -4.06361 -0.908828 0
M  V30 9754 H 1006.16 -3.87559 -3.68378 0
M  V30 9755 H 1006.5 -2.16802 -3.55391 0
M  V30 9756 H 1007.04 -3.27185 -2.26263 0
M  V30 9757 H 1003.78 -6.25437 -1.96235 0
M  V30 9758 H 1003.3 -5.07216 -3.20144 0
M  V30 9759 H 1004.98 -5.66229 -3.1304 0
M  V30 9760 N 1005.11 0.71652 -1.4037 0
M  V30 9761 C 1006.02 1.86074 -1.42876 0
M  V30 9762 C 1007.03 1.71005 -0.321475 0
M  V30 9763 O 1008.21 1.93286 -0.565909 0
M  V30 9764 C 1005.28 3.21862 -1.28863 0
M  V30 9765 C 1004.34 3.49193 -2.49726 0
M  V30 9766 C 1003.57 4.78502 -2.36372 0
M  V30 9767 O 1003.79 5.53529 -1.37703 0
M  V30 9768 O 1002.73 5.06147 -3.25728 0
M  V30 9769 H 1006.55 1.86916 -2.39366 0
M  V30 9770 H 1004.14 0.866818 -1.21683 0
M  V30 9771 H 1006.02 4.02972 -1.23253 0
M  V30 9772 H 1004.69 3.2175 -0.354783 0
M  V30 9773 H 1003.6 2.68095 -2.60913 0
M  V30 9774 H 1004.93 3.54101 -3.41868 0
M  V30 9775 N 1006.59 1.25851 0.948643 0
M  V30 9776 C 1008 1.09975 1.50872 0
M  V30 9777 C 1008.35 -0.322497 1.93531 0
M  V30 9778 O 1007.47 -1.21316 1.79197 0
M  V30 9779 C 1008.07 1.99021 2.74182 0
M  V30 9780 C 1006.63 1.87313 3.26483 0
M  V30 9781 C 1005.77 1.92815 1.99293 0
M  V30 9782 H 1008.73 1.3905 0.764908 0
M  V30 9783 H 1008.75 1.53372 3.4822 0
M  V30 9784 H 1008.26 3.02527 2.43103 0
M  V30 9785 H 1006.36 0.867136 3.62369 0
M  V30 9786 H 1006.47 2.72446 3.94094 0
M  V30 9787 H 1004.84 1.36774 2.1486 0
M  V30 9788 H 1005.62 2.97936 1.70554 0
M  V30 9789 N 1008.06 -1.15214 1.07534 0
M  V30 9790 C 1009.31 -1.85676 0.79805 0
M  V30 9791 C 1009.63 -1.82837 -0.677919 0
M  V30 9792 O 1008.9 -1.27059 -1.49107 0
M  V30 9793 H 1007.48 -0.687468 0.292227 0
M  V30 9794 H 1010.15 -1.39658 1.35947 0
M  V30 9795 H 1009.24 -2.9076 1.13423 0
M  V30 9796 N 1009.54 -0.859717 -1.32086 0
M  V30 9797 C 1010.79 -0.466271 -1.97367 0
M  V30 9798 C 1011.12 0.976728 -1.6785 0
M  V30 9799 O 1010.4 1.68618 -0.969449 0
M  V30 9800 C 1010.68 -0.711851 -3.52994 0
M  V30 9801 C 1010.53 -2.20364 -3.92122 0
M  V30 9802 C 1011.85 -0.17156 -4.39765 0
M  V30 9803 H 1008.97 -0.170883 -0.716916 0
M  V30 9804 H 1011.61 -1.07907 -1.56384 0
M  V30 9805 H 1009.76 -0.190258 -3.88034 0
M  V30 9806 H 1011.43 -2.7917 -3.67236 0
M  V30 9807 H 1009.68 -2.68019 -3.41099 0
M  V30 9808 H 1010.35 -2.32615 -5.00594 0
M  V30 9809 H 1012.82 -0.617665 -4.1149 0
M  V30 9810 H 1011.7 -0.372921 -5.47632 0
M  V30 9811 H 1011.96 0.925959 -4.32294 0
M  V30 9812 N 1011.02 1.44971 -0.618145 0
M  V30 9813 C 1012.27 2.02458 -0.117656 0
M  V30 9814 C 1012.6 1.48413 1.25248 0
M  V30 9815 O 1011.87 0.662997 1.82851 0
M  V30 9816 C 1012.16 3.59987 -0.0901897 0
M  V30 9817 C 1012.01 4.24343 -1.49175 0
M  V30 9818 C 1013.33 4.36099 0.592121 0
M  V30 9819 H 1010.45 0.735672 -0.0442291 0
M  V30 9820 H 1013.09 1.727 -0.792138 0
M  V30 9821 H 1011.24 3.85471 0.484175 0
M  V30 9822 H 1012.91 4.10009 -2.114 0
M  V30 9823 H 1011.16 3.82337 -2.04941 0
M  V30 9824 H 1011.83 5.33298 -1.42468 0
M  V30 9825 H 1014.3 4.1597 0.103813 0
M  V30 9826 H 1013.18 5.45822 0.580481 0
M  V30 9827 H 1013.44 4.09746 1.66015 0
M  V30 9828 N 1012.5 0.357919 1.53482 0
M  V30 9829 C 1013.74 -0.23433 2.03052 0
M  V30 9830 C 1014.1 -1.46614 1.23969 0
M  V30 9831 O 1015.3 -2.13351 1.63508 0
M  V30 9832 C 1013.57 -0.526653 3.53498 0
M  V30 9833 S 1015.13 -1.09366 4.24952 0
M  V30 9834 H 1011.95 -0.0687848 0.707665 0
M  V30 9835 H 1014.55 0.499011 1.89024 0
M  V30 9836 H 1013.26 0.377463 4.0866 0
M  V30 9837 H 1012.79 -1.28927 3.71674 0
M  V30 9838 H 1014.8 -2.37845 4.35481 0
M  V30 9839 N 1013.98 -1.5736 0.0868897 0
M  V30 9840 C 1014.94 -2.12436 -0.860439 0
M  V30 9841 C 1015.94 -1.05175 -1.21634 0
M  V30 9842 O 1017.13 -1.31098 -1.14713 0
M  V30 9843 C 1014.26 -2.63818 -2.159 0
M  V30 9844 H 1015.45 -2.97453 -0.382346 0
M  V30 9845 H 1013.01 -1.55458 -0.162009 0
M  V30 9846 H 1013.74 -1.82298 -2.68212 0
M  V30 9847 H 1013.53 -3.42234 -1.91359 0
M  V30 9848 H 1015.02 -3.06452 -2.83685 0
M  V30 9849 N 1015.45 0.186762 -1.56489 0
M  V30 9850 C 1016.7 0.904063 -1.80752 0
M  V30 9851 C 1017.02 1.83443 -0.661343 0
M  V30 9852 O 1016.29 1.93272 0.319811 0
M  V30 9853 H 1014.87 0.336828 -0.66675 0
M  V30 9854 H 1017.54 0.190275 -1.93969 0
M  V30 9855 H 1016.63 1.49021 -2.74225 0
M  V30 9856 N 1016.93 1.50896 0.454776 0
M  V30 9857 C 1017.88 1.67333 1.54867 0
M  V30 9858 C 1018.87 0.527576 1.52005 0
M  V30 9859 O 1020.06 0.782726 1.58753 0
M  V30 9860 C 1017.19 1.7858 2.93196 0
M  V30 9861 C 1016.27 2.98884 3.0088 0
M  V30 9862 N 1016.66 4.22326 2.78343 0
M  V30 9863 C 1014.96 2.97779 3.32029 0
M  V30 9864 C 1015.66 5.03439 2.91418 0
M  V30 9865 N 1014.64 4.37725 3.22332 0
M  V30 9866 H 1018.44 2.60453 1.36167 0
M  V30 9867 H 1015.96 1.48304 0.661797 0
M  V30 9868 H 1017.95 1.88463 3.7187 0
M  V30 9869 H 1016.61 0.866296 3.1293 0
M  V30 9870 H 1017.62 4.51557 2.53607 0
M  V30 9871 H 1014.3 2.15393 3.57648 0
M  V30 9872 H 1015.69 6.11648 2.78095 0
M  V30 9873 N 1018.41 -0.709066 1.40748 0
M  V30 9874 C 1019.69 -1.4626 1.29874 0
M  V30 9875 C 1020.07 -2.10949 -0.0799322 0
M  V30 9876 O 1019.42 -2.00651 -1.09323 0
M  V30 9877 C 1019.63 -2.49302 2.44232 0
M  V30 9878 C 1020.97 -3.14945 2.84771 0
M  V30 9879 O 1022 -2.59623 2.43873 0
M  V30 9880 O 1020.86 -4.15111 3.5545 0
M  V30 9881 H 1017.95 -0.650716 0.51039 0
M  V30 9882 H 1020.5 -0.740687 1.52682 0
M  V30 9883 H 1019.27 -2.00063 3.36289 0
M  V30 9884 H 1018.89 -3.29021 2.23229 0
M  V30 9885 N 1019.89 -1.26353 -0.941956 0
M  V30 9886 C 1020.84 -1.07654 -2.06188 0
M  V30 9887 C 1021.83 -0.00369741 -1.694 0
M  V30 9888 O 1023.04 -0.160316 -1.79285 0
M  V30 9889 H 1019.41 -0.331274 -0.675101 0
M  V30 9890 H 1021.38 -2.02566 -2.19111 0
M  V30 9891 C 1020.13 -0.725436 -3.40048 0
M  V30 9892 H 1019.46 -1.54283 -3.68832 0
M  V30 9893 H 1020.9 -0.634383 -4.19227 0
M  V30 9894 C 1019.35 0.569369 -3.32054 0
M  V30 9895 O 1019.88 1.60791 -3.68116 0
M  V30 9896 N 1018.09 0.559714 -2.85159 0
M  V30 9897 H 1017.64 -0.285817 -2.56009 0
M  V30 9898 H 1017.6 1.42617 -2.80193 0
M  V30 9899 N 1021.37 1.14642 -1.08144 0
M  V30 9900 C 1022.32 2.21708 -0.703448 0
M  V30 9901 C 1023.31 1.66907 0.289535 0
M  V30 9902 O 1024.52 1.79354 0.152387 0
M  V30 9903 H 1020.89 0.722247 -0.209437 0
M  V30 9904 H 1022.86 2.50862 -1.61588 0
M  V30 9905 C 1021.61 3.47472 -0.125975 0
M  V30 9906 H 1020.93 3.89967 -0.881216 0
M  V30 9907 H 1022.37 4.2388 0.100737 0
M  V30 9908 C 1020.83 3.17189 1.13546 0
M  V30 9909 O 1021.36 3.34733 2.22073 0
M  V30 9910 N 1019.57 2.71169 1.04479 0
M  V30 9911 H 1019.12 2.57093 0.161566 0
M  V30 9912 H 1019.07 2.51282 1.88957 0
M  V30 9913 N 1022.85 0.866709 1.31628 0
M  V30 9914 C 1023.78 0.277328 2.27516 0
M  V30 9915 C 1024.79 -0.557786 1.52946 0
M  V30 9916 O 1025.98 -0.38031 1.74402 0
M  V30 9917 C 1023.08 -0.625742 3.33073 0
M  V30 9918 C 1022.25 0.176204 4.37045 0
M  V30 9919 C 1021.31 -0.654497 5.22114 0
M  V30 9920 O 1020.34 -0.0836961 5.69138 0
M  V30 9921 N 1021.54 -1.96708 5.46156 0
M  V30 9922 H 1024.3 1.10133 2.78731 0
M  V30 9923 H 1021.87 0.72787 1.44616 0
M  V30 9924 H 1023.86 -1.18709 3.86898 0
M  V30 9925 H 1022.43 -1.35042 2.81926 0
M  V30 9926 H 1021.65 0.918999 3.83338 0
M  V30 9927 H 1022.94 0.726594 5.03585 0
M  V30 9928 H 1022.33 -2.454 5.09701 0
M  V30 9929 H 1020.89 -2.47629 6.02929 0
M  V30 9930 N 1024.32 -1.44642 0.625825 0
M  V30 9931 C 1025.73 -1.85502 0.211175 0
M  V30 9932 C 1026.09 -1.52356 -1.2362 0
M  V30 9933 O 1025.21 -0.959051 -1.93988 0
M  V30 9934 C 1025.81 -3.36702 0.37648 0
M  V30 9935 C 1024.36 -3.76396 0.0163795 0
M  V30 9936 C 1023.51 -2.68517 0.692368 0
M  V30 9937 H 1026.46 -1.35183 0.831333 0
M  V30 9938 H 1026.48 -3.78536 -0.386106 0
M  V30 9939 H 1026 -3.60795 1.42999 0
M  V30 9940 H 1024.1 -3.57919 -1.0356 0
M  V30 9941 H 1024.21 -4.77231 0.422742 0
M  V30 9942 H 1022.57 -2.54377 0.128191 0
M  V30 9943 H 1023.36 -2.95444 1.74837 0
M  V30 9944 N 1025.8 -0.366053 -1.5329 0
M  V30 9945 C 1027.08 0.279902 -1.93587 0
M  V30 9946 C 1027.46 1.66352 -1.29963 0
M  V30 9947 O 1026.81 2.23845 -0.458895 0
M  V30 9948 C 1027.02 0.329634 -3.4744 0
M  V30 9949 C 1028.36 0.569754 -4.2076 0
M  V30 9950 O 1029.39 0.410823 -3.53823 0
M  V30 9951 O 1028.25 0.879262 -5.3938 0
M  V30 9952 H 1025.34 0.16802 -0.809752 0
M  V30 9953 H 1027.89 -0.418871 -1.64449 0
M  V30 9954 H 1026.66 -0.640434 -3.86023 0
M  V30 9955 H 1026.28 1.07428 -3.82812 0
M  V30 9956 N 1027.28 1.57312 -0.0952337 0
M  V30 9957 C 1028.5 1.99119 0.580206 0
M  V30 9958 C 1028.93 0.973955 1.60922 0
M  V30 9959 O 1028.29 -0.0575338 1.81209 0
M  V30 9960 C 1028.34 3.39893 1.20438 0
M  V30 9961 O 1027.44 3.40941 2.32019 0
M  V30 9962 H 1026.78 0.64748 0.147195 0
M  V30 9963 H 1029.31 2.03836 -0.176686 0
M  V30 9964 H 1029.32 3.7759 1.54564 0
M  V30 9965 H 1028 4.13453 0.450514 0
M  V30 9966 H 1026.57 3.1504 1.9951 0
M  V30 9967 N 1028.76 -0.17846 1.56586 0
M  V30 9968 C 1030 -0.896235 1.81587 0
M  V30 9969 C 1030.33 -1.82553 0.671168 0
M  V30 9970 O 1029.59 -1.92688 -0.342046 0
M  V30 9971 C 1029.89 -1.73063 3.12704 0
M  V30 9972 C 1029.55 -0.950877 4.4076 0
M  V30 9973 C 1028.21 -0.735647 4.75544 0
M  V30 9974 C 1030.57 -0.403419 5.19636 0
M  V30 9975 C 1027.89 0.0382562 5.86688 0
M  V30 9976 C 1030.25 0.357359 6.3159 0
M  V30 9977 C 1028.91 0.583455 6.64945 0
M  V30 9978 H 1028.18 -0.327956 0.664474 0
M  V30 9979 H 1030.83 -0.161586 1.90817 0
M  V30 9980 H 1029.13 -2.53446 2.98785 0
M  V30 9981 H 1030.83 -2.28891 3.29257 0
M  V30 9982 H 1027.42 -1.12866 4.13472 0
M  V30 9983 H 1031.6 -0.557059 4.93164 0
M  V30 9984 H 1026.86 0.223237 6.10992 0
M  V30 9985 H 1031.03 0.788861 6.91918 0
M  V30 9986 H 1028.66 1.18502 7.50907 0
M  V30 9987 N 1030.24 -1.51135 -0.446768 0
M  V30 9988 C 1031.2 -1.71187 -1.52406 0
M  V30 9989 C 1032.2 -0.582037 -1.49897 0
M  V30 9990 O 1033.39 -0.849452 -1.52085 0
M  V30 9991 C 1030.52 -1.75962 -2.91976 0
M  V30 9992 H 1031.71 -2.67324 -1.35934 0
M  V30 9993 H 1029.27 -1.40982 -0.674813 0
M  V30 9994 H 1030 -0.816065 -3.13864 0
M  V30 9995 H 1029.79 -2.58065 -2.95203 0
M  V30 9996 H 1031.28 -1.93347 -3.70144 0
M  V30 9997 N 1031.71 0.701592 -1.41122 0
M  V30 9998 C 1032.68 1.79733 -1.42227 0
M  V30 9999 C 1033.68 1.57708 -0.313831 0
M  V30 10000 O 1034.87 1.64492 -0.573423 0
M  V30 10001 C 1032 3.18024 -1.22775 0
M  V30 10002 H 1033.19 1.80148 -2.39764 0
M  V30 10003 H 1030.74 0.908624 -1.27176 0
M  V30 10004 H 1031.48 3.23252 -0.260552 0
M  V30 10005 H 1031.26 3.35411 -2.0308 0
M  V30 10006 H 1032.75 3.98021 -1.2637 0
M  V30 10007 N 1033.19 1.2685 0.935242 0
M  V30 10008 C 1034.12 1.1143 2.05196 0
M  V30 10009 C 1035.1 0.0178362 1.70091 0
M  V30 10010 O 1036.29 0.190951 1.93259 0
M  V30 10011 C 1033.42 0.752779 3.39044 0
M  V30 10012 C 1032.37 1.80164 3.88233 0
M  V30 10013 C 1031.7 1.29428 5.18799 0
M  V30 10014 C 1033 3.20431 4.12457 0
M  V30 10015 H 1034.69 2.04845 2.18355 0
M  V30 10016 H 1032.24 0.986276 1.04922 0
M  V30 10017 H 1034.19 0.631757 4.16637 0
M  V30 10018 H 1032.91 -0.217075 3.25878 0
M  V30 10019 H 1031.57 1.91144 3.12825 0
M  V30 10020 H 1031.22 0.3141 5.02018 0
M  V30 10021 H 1030.92 1.99546 5.5268 0
M  V30 10022 H 1032.45 1.18605 5.9897 0
M  V30 10023 H 1033.86 3.12495 4.80645 0
M  V30 10024 H 1032.26 3.88193 4.57631 0
M  V30 10025 H 1033.33 3.66046 3.18023 0
M  V30 10026 N 1034.67 -1.14067 1.0875 0
M  V30 10027 C 1035.6 -2.21385 0.74236 0
M  V30 10028 C 1036.58 -1.67833 -0.276805 0
M  V30 10029 O 1037.77 -1.93647 -0.1464 0
M  V30 10030 C 1034.9 -3.46956 0.154644 0
M  V30 10031 C 1033.85 -4.13555 1.10255 0
M  V30 10032 C 1033.18 -5.3337 0.376877 0
M  V30 10033 C 1034.48 -4.6169 2.44213 0
M  V30 10034 H 1036.17 -2.50512 1.63964 0
M  V30 10035 H 1033.72 -1.20408 0.789807 0
M  V30 10036 H 1035.67 -4.21284 -0.0988419 0
M  V30 10037 H 1034.39 -3.17203 -0.777789 0
M  V30 10038 H 1033.05 -3.41186 1.34119 0
M  V30 10039 H 1032.7 -4.99879 -0.559472 0
M  V30 10040 H 1032.4 -5.78875 1.00884 0
M  V30 10041 H 1033.92 -6.10458 0.131527 0
M  V30 10042 H 1035.34 -5.27475 2.24595 0
M  V30 10043 H 1033.74 -5.17909 3.03134 0
M  V30 10044 H 1034.81 -3.76574 3.05483 0
M  V30 10045 N 1036.15 -0.873678 -1.31166 0
M  V30 10046 C 1037.37 -0.500242 -2.01277 0
M  V30 10047 C 1037.8 0.900811 -1.65127 0
M  V30 10048 O 1037.16 1.59504 -0.861862 0
M  V30 10049 C 1037.2 -0.668976 -3.5434 0
M  V30 10050 O 1036.31 0.290096 -4.11378 0
M  V30 10051 H 1035.65 -0.198507 -0.633633 0
M  V30 10052 H 1038.18 -1.17811 -1.67277 0
M  V30 10053 H 1038.19 -0.563673 -4.04088 0
M  V30 10054 H 1036.86 -1.69055 -3.79991 0
M  V30 10055 H 1035.44 0.139437 -3.72639 0
M  V30 10056 N 1037.63 1.44308 -0.633487 0
M  V30 10057 C 1038.85 2.06897 -0.144347 0
M  V30 10058 C 1039.28 1.47045 1.173 0
M  V30 10059 O 1038.63 0.572806 1.72013 0
M  V30 10060 C 1038.68 3.60571 -0.0456324 0
M  V30 10061 O 1037.79 4.0015 0.997682 0
M  V30 10062 H 1037.13 0.658427 -0.0858499 0
M  V30 10063 H 1039.66 1.85142 -0.870833 0
M  V30 10064 H 1039.67 4.07745 0.144178 0
M  V30 10065 H 1038.34 4.03515 -1.0074 0
M  V30 10066 H 1036.92 3.64603 0.782252 0
M  V30 10067 N 1039.1 0.374177 1.53094 0
M  V30 10068 C 1040.03 -0.459976 2.28925 0
M  V30 10069 C 1041.02 -1.07656 1.31698 0
M  V30 10070 O 1042.2 -1.09219 1.60577 0
M  V30 10071 C 1039.33 -1.5954 3.08487 0
M  V30 10072 C 1038.28 -1.10563 4.13473 0
M  V30 10073 C 1037.61 -2.33196 4.81169 0
M  V30 10074 C 1038.91 -0.184275 5.21975 0
M  V30 10075 H 1040.6 0.172692 2.98902 0
M  V30 10076 H 1038.15 0.0844956 1.43752 0
M  V30 10077 H 1040.1 -2.18565 3.60288 0
M  V30 10078 H 1038.83 -2.25543 2.36216 0
M  V30 10079 H 1037.49 -0.53801 3.62631 0
M  V30 10080 H 1037.13 -2.97675 4.05461 0
M  V30 10081 H 1036.83 -2.01094 5.52119 0
M  V30 10082 H 1038.36 -2.92892 5.35767 0
M  V30 10083 H 1039.77 -0.682262 5.69226 0
M  V30 10084 H 1038.17 0.0462746 6.00082 0
M  V30 10085 H 1039.24 0.771152 4.78729 0
M  V30 10086 N 1040.58 -1.57259 0.103575 0
M  V30 10087 C 1041.53 -2.15727 -0.869739 0
M  V30 10088 C 1042.52 -1.10236 -1.28625 0
M  V30 10089 O 1043.73 -1.28567 -1.25979 0
M  V30 10090 H 1040.11 -0.690204 -0.298535 0
M  V30 10091 H 1042.08 -2.96317 -0.351984 0
M  V30 10092 C 1040.83 -2.75905 -2.11593 0
M  V30 10093 H 1040.15 -3.56768 -1.80434 0
M  V30 10094 H 1041.59 -3.20373 -2.77736 0
M  V30 10095 C 1040.05 -1.72218 -2.89556 0
M  V30 10096 O 1040.58 -1.16623 -3.84398 0
M  V30 10097 N 1038.78 -1.42514 -2.53255 0
M  V30 10098 H 1038.33 -1.87914 -1.76198 0
M  V30 10099 H 1038.29 -0.733782 -3.05717 0
M  V30 10100 N 1042.06 0.170153 -1.56679 0
M  V30 10101 C 1042.97 1.23057 -1.99735 0
M  V30 10102 C 1043.99 1.48374 -0.908912 0
M  V30 10103 O 1045.16 1.60499 -1.21663 0
M  V30 10104 C 1042.23 2.54944 -2.34956 0
M  V30 10105 C 1041.29 2.3748 -3.57634 0
M  V30 10106 C 1040.52 3.63078 -3.91165 0
M  V30 10107 O 1040.74 4.68304 -3.2565 0
M  V30 10108 O 1039.68 3.57119 -4.8451 0
M  V30 10109 H 1043.5 0.895104 -2.9021 0
M  V30 10110 H 1041.09 0.377109 -1.44562 0
M  V30 10111 H 1042.97 3.32742 -2.58574 0
M  V30 10112 H 1041.65 2.88068 -1.47643 0
M  V30 10113 H 1040.55 1.57709 -3.39232 0
M  V30 10114 H 1041.89 2.0928 -4.45491 0
M  V30 10115 N 1043.54 1.5137 0.438746 0
M  V30 10116 C 1044.47 1.75528 1.53987 0
M  V30 10117 C 1045.45 0.605067 1.58975 0
M  V30 10118 O 1046.63 0.847634 1.74725 0
M  V30 10119 C 1043.76 1.87904 2.92078 0
M  V30 10120 C 1042.72 3.0333 3.01951 0
M  V30 10121 C 1042.04 3.00888 4.42007 0
M  V30 10122 C 1043.34 4.43319 2.76163 0
M  V30 10123 H 1045.04 2.67728 1.34022 0
M  V30 10124 H 1042.58 1.28831 0.643308 0
M  V30 10125 H 1044.54 2.03388 3.69068 0
M  V30 10126 H 1043.26 0.923514 3.13271 0
M  V30 10127 H 1041.92 2.87549 2.274 0
M  V30 10128 H 1041.57 2.03116 4.60166 0
M  V30 10129 H 1041.27 3.78397 4.49544 0
M  V30 10130 H 1042.79 3.18464 5.20973 0
M  V30 10131 H 1044.21 4.59458 3.42887 0
M  V30 10132 H 1042.6 5.22523 2.9511 0
M  V30 10133 H 1043.67 4.53453 1.71779 0
M  V30 10134 N 1045.02 -0.694098 1.41492 0
M  V30 10135 C 1046.26 -1.45127 1.4065 0
M  V30 10136 C 1046.59 -1.94993 0.0170289 0
M  V30 10137 O 1045.86 -1.71799 -0.941372 0
M  V30 10138 H 1044.44 -0.538493 0.51772 0
M  V30 10139 H 1047.1 -0.821441 1.76744 0
M  V30 10140 H 1046.19 -2.31372 2.0946 0
M  V30 10141 N 1046.49 -1.27344 -0.928501 0
M  V30 10142 C 1047.4 -1.11812 -2.06241 0
M  V30 10143 C 1048.42 -0.048347 -1.73933 0
M  V30 10144 O 1049.6 -0.25467 -1.99783 0
M  V30 10145 C 1046.66 -0.766036 -3.38131 0
M  V30 10146 C 1045.72 -1.91659 -3.84142 0
M  V30 10147 C 1044.96 -1.58121 -5.09738 0
M  V30 10148 O 1045.18 -0.488742 -5.68302 0
M  V30 10149 O 1044.11 -2.42013 -5.51102 0
M  V30 10150 H 1047.94 -2.06967 -2.22258 0
M  V30 10151 H 1045.52 -1.06524 -1.04752 0
M  V30 10152 H 1047.41 -0.582982 -4.17348 0
M  V30 10153 H 1046.08 0.155998 -3.23324 0
M  V30 10154 H 1044.99 -2.1547 -3.05816 0
M  V30 10155 H 1046.32 -2.8188 -4.0349 0
M  V30 10156 N 1047.97 1.13488 -1.09353 0
M  V30 10157 C 1049.39 1.36739 -0.823086 0
M  V30 10158 C 1049.59 1.93476 0.562963 0
M  V30 10159 O 1048.64 2.15374 1.31796 0
M  V30 10160 C 1049.96 2.31943 -1.91371 0
M  V30 10161 C 1051.51 2.4556 -1.94085 0
M  V30 10162 C 1051.98 3.44072 -3.02289 0
M  V30 10163 N 1053.47 3.51622 -3.01524 0
M  V30 10164 C 1054.21 4.27724 -3.8189 0
M  V30 10165 N 1053.7 5.06987 -4.72161 0
M  V30 10166 N 1055.5 4.23018 -3.70152 0
M  V30 10167 H 1047.65 0.75012 -1.98713 0
M  V30 10168 H 1049.91 0.392564 -0.862901 0
M  V30 10169 H 1049.62 1.97408 -2.91072 0
M  V30 10170 H 1049.49 3.31952 -1.79131 0
M  V30 10171 H 1051.88 2.79382 -0.950234 0
M  V30 10172 H 1051.96 1.45479 -2.10403 0
M  V30 10173 H 1051.6 3.10981 -4.01564 0
M  V30 10174 H 1051.53 4.43956 -2.83214 0
M  V30 10175 H 1054.02 2.95066 -2.36103 0
M  V30 10176 H 1054.34 5.6236 -5.30067 0
M  V30 10177 H 1052.68 5.06222 -4.76197 0
M  V30 10178 H 1055.87 3.60171 -2.98989 0
M  V30 10179 H 1056.04 4.82075 -4.33022 0
M  V30 10180 N 1049.45 0.880621 1.30701 0
M  V30 10181 C 1050.38 0.301443 2.27209 0
M  V30 10182 C 1051.4 -0.541533 1.53529 0
M  V30 10183 O 1052.59 -0.361791 1.74795 0
M  V30 10184 C 1049.69 -0.59038 3.33718 0
M  V30 10185 C 1048.86 0.222549 4.36833 0
M  V30 10186 C 1047.92 -0.599083 5.22779 0
M  V30 10187 O 1046.94 -0.0233267 5.69195 0
M  V30 10188 N 1048.15 -1.90904 5.48211 0
M  V30 10189 H 1050.91 1.13083 2.77547 0
M  V30 10190 H 1048.47 0.743168 1.43835 0
M  V30 10191 H 1050.46 -1.14599 3.88135 0
M  V30 10192 H 1049.03 -1.32044 2.83343 0
M  V30 10193 H 1048.25 0.959606 3.82342 0
M  V30 10194 H 1049.54 0.779965 5.02786 0
M  V30 10195 H 1048.94 -2.3998 5.12275 0
M  V30 10196 H 1047.5 -2.4122 6.05521 0
M  V30 10197 N 1050.93 -1.4397 0.641131 0
M  V30 10198 C 1051.86 -2.33458 -0.04446 0
M  V30 10199 C 1052.84 -1.48781 -0.824507 0
M  V30 10200 O 1054.03 -1.77477 -0.788397 0
M  V30 10201 C 1051.16 -3.31989 -1.01984 0
M  V30 10202 C 1050.11 -4.2656 -0.350745 0
M  V30 10203 C 1049.44 -5.15036 -1.43673 0
M  V30 10204 C 1050.74 -5.16897 0.749299 0
M  V30 10205 H 1052.43 -2.91034 0.702832 0
M  V30 10206 H 1049.98 -1.39942 0.339435 0
M  V30 10207 H 1051.93 -3.93483 -1.50828 0
M  V30 10208 H 1050.65 -2.72643 -1.79815 0
M  V30 10209 H 1049.31 -3.66413 0.117139 0
M  V30 10210 H 1048.96 -4.52037 -2.20617 0
M  V30 10211 H 1048.66 -5.79125 -0.994358 0
M  V30 10212 H 1050.18 -5.79403 -1.92678 0
M  V30 10213 H 1051.6 -5.7227 0.343534 0
M  V30 10214 H 1049.99 -5.89643 1.11541 0
M  V30 10215 H 1051.06 -4.5731 1.61232 0
M  V30 10216 N 1052.41 -0.382291 -1.52893 0
M  V30 10217 C 1053.65 0.202433 -2.01787 0
M  V30 10218 C 1053.99 1.47044 -1.26853 0
M  V30 10219 O 1053.26 1.91007 -0.366969 0
M  V30 10220 C 1053.54 0.477471 -3.5692 0
M  V30 10221 C 1053.4 -0.805339 -4.42532 0
M  V30 10222 C 1054.72 1.27106 -4.21346 0
M  V30 10223 H 1051.84 0.0720998 -0.733465 0
M  V30 10224 H 1054.48 -0.510478 -1.83014 0
M  V30 10225 H 1052.63 1.08478 -3.73048 0
M  V30 10226 H 1054.3 -1.4424 -4.3817 0
M  V30 10227 H 1052.54 -1.42216 -4.09826 0
M  V30 10228 H 1053.21 -0.567635 -5.49074 0
M  V30 10229 H 1055.69 0.757161 -4.09153 0
M  V30 10230 H 1054.57 1.43225 -5.29885 0
M  V30 10231 H 1054.83 2.28431 -3.78513 0
M  V30 10232 N 1053.89 1.57202 -0.111913 0
M  V30 10233 C 1054.84 2.11487 0.851897 0
M  V30 10234 C 1055.82 1.03392 1.23284 0
M  V30 10235 O 1057.01 1.29638 1.20511 0
M  V30 10236 C 1054.14 2.71219 2.10464 0
M  V30 10237 C 1053.23 3.86384 1.74838 0
M  V30 10238 N 1053.62 4.93727 1.09852 0
M  V30 10239 C 1051.92 3.96435 2.04341 0
M  V30 10240 C 1052.62 5.74184 0.93209 0
M  V30 10241 N 1051.59 5.23771 1.45482 0
M  V30 10242 H 1055.39 2.91859 0.345791 0
M  V30 10243 H 1052.91 1.62146 0.0907816 0
M  V30 10244 H 1054.91 3.08449 2.80472 0
M  V30 10245 H 1053.57 1.92308 2.61625 0
M  V30 10246 H 1054.58 5.12244 0.763334 0
M  V30 10247 H 1051.25 3.28556 2.57599 0
M  V30 10248 H 1052.64 6.7057 0.422542 0
M  V30 10249 N 1055.36 -0.161842 1.56767 0
M  V30 10250 C 1056.61 -0.878224 1.82798 0
M  V30 10251 C 1056.94 -1.81481 0.691242 0
M  V30 10252 O 1056.22 -1.92075 -0.30618 0
M  V30 10253 C 1056.5 -1.66565 3.19262 0
M  V30 10254 C 1056.35 -0.751551 4.43477 0
M  V30 10255 C 1057.67 -2.63134 3.52773 0
M  V30 10256 H 1054.79 -0.317828 0.664947 0
M  V30 10257 H 1057.43 -0.14402 1.89453 0
M  V30 10258 H 1055.58 -2.29157 3.13719 0
M  V30 10259 H 1057.26 -0.137783 4.61094 0
M  V30 10260 H 1055.5 -0.0601785 4.33758 0
M  V30 10261 H 1056.17 -1.33823 5.35533 0
M  V30 10262 H 1058.65 -2.10666 3.5883 0
M  V30 10263 H 1057.52 -3.15289 4.49315 0
M  V30 10264 H 1057.78 -3.43786 2.77963 0
M  V30 10265 N 1056.84 -1.516 -0.430713 0
M  V30 10266 C 1058.09 -1.6484 -1.18134 0
M  V30 10267 C 1058.42 -0.366725 -1.90706 0
M  V30 10268 O 1057.7 0.63398 -1.83878 0
M  V30 10269 C 1057.98 -2.85617 -2.19306 0
M  V30 10270 C 1057.83 -4.23778 -1.50773 0
M  V30 10271 C 1059.15 -3.01909 -3.20217 0
M  V30 10272 H 1056.27 -0.599907 -0.428113 0
M  V30 10273 H 1058.91 -1.84102 -0.46973 0
M  V30 10274 H 1057.06 -2.69325 -2.79993 0
M  V30 10275 H 1058.73 -4.51752 -0.93371 0
M  V30 10276 H 1056.98 -4.26171 -0.809966 0
M  V30 10277 H 1057.65 -5.04291 -2.24487 0
M  V30 10278 H 1060.12 -3.16956 -2.69589 0
M  V30 10279 H 1059 -3.87968 -3.88293 0
M  V30 10280 H 1059.26 -2.1427 -3.86705 0
M  V30 10281 N 1058.32 0.686584 -1.41858 0
M  V30 10282 C 1059.27 1.80038 -1.44413 0
M  V30 10283 C 1060.24 1.63415 -0.297427 0
M  V30 10284 O 1061.42 1.84138 -0.499789 0
M  V30 10285 C 1058.56 3.17988 -1.34082 0
M  V30 10286 C 1057.67 3.45979 -2.58693 0
M  V30 10287 C 1056.81 4.73592 -2.4059 0
M  V30 10288 C 1055.85 4.94581 -3.60633 0
M  V30 10289 N 1054.99 6.13426 -3.41545 0
M  V30 10290 H 1059.83 1.77189 -2.396 0
M  V30 10291 H 1057.36 0.865158 -1.18968 0
M  V30 10292 H 1059.32 3.97689 -1.26092 0
M  V30 10293 H 1057.95 3.1999 -0.424975 0
M  V30 10294 H 1057 2.60617 -2.77097 0
M  V30 10295 H 1058.31 3.57386 -3.47961 0
M  V30 10296 H 1057.47 5.61364 -2.30119 0
M  V30 10297 H 1056.21 4.64448 -1.48794 0
M  V30 10298 H 1055.21 4.05254 -3.71549 0
M  V30 10299 H 1056.44 5.05578 -4.53395 0
M  V30 10300 H 1054.38 6.05477 -2.52456 0
M  V30 10301 H 1054.3 6.25641 -4.24393 0
M  V30 10302 H 1055.57 7.03908 -3.34864 0
M  V30 10303 N 1059.8 1.27835 0.921735 0
M  V30 10304 C 1061.04 1.15702 1.67286 0
M  V30 10305 C 1061.4 -0.293049 1.90155 0
M  V30 10306 O 1060.69 -1.21058 1.48511 0
M  V30 10307 C 1060.89 1.88054 3.03925 0
M  V30 10308 C 1060.71 3.39947 2.94391 0
M  V30 10309 C 1059.48 4.09275 2.96347 0
M  V30 10310 C 1061.68 4.35824 2.7306 0
M  V30 10311 N 1059.66 5.47694 2.77317 0
M  V30 10312 C 1061.04 5.61551 2.62794 0
M  V30 10313 C 1063.09 4.25844 2.57994 0
M  V30 10314 C 1061.79 6.78434 2.38998 0
M  V30 10315 C 1063.82 5.42455 2.35577 0
M  V30 10316 C 1063.18 6.67141 2.26058 0
M  V30 10317 H 1059.28 0.478278 0.618687 0
M  V30 10318 H 1061.86 1.61382 1.08922 0
M  V30 10319 H 1060.04 1.4482 3.60391 0
M  V30 10320 H 1061.77 1.68374 3.68011 0
M  V30 10321 H 1058.52 3.6079 3.06802 0
M  V30 10322 H 1058.95 6.2043 2.70916 0
M  V30 10323 H 1063.59 3.30161 2.64109 0
M  V30 10324 H 1061.31 7.74194 2.31623 0
M  V30 10325 H 1064.89 5.36617 2.24796 0
M  V30 10326 H 1063.77 7.55851 2.08947 0
M  V30 10327 N 1061.28 -1.12907 1.09954 0
M  V30 10328 C 1062.24 -2.16673 0.747364 0
M  V30 10329 C 1063.24 -1.59208 -0.225741 0
M  V30 10330 O 1064.43 -1.742 -0.00322482 0
M  V30 10331 C 1061.56 -3.40735 0.106169 0
M  V30 10332 H 1062.75 -2.49341 1.6664 0
M  V30 10333 H 1060.31 -1.27828 0.899421 0
M  V30 10334 H 1061.04 -3.13661 -0.82384 0
M  V30 10335 H 1060.83 -3.83717 0.806434 0
M  V30 10336 H 1062.32 -4.17414 -0.12464 0
M  V30 10337 N 1062.75 -0.88754 -1.30232 0
M  V30 10338 C 1063.7 -0.354497 -2.28061 0
M  V30 10339 C 1064.67 0.556732 -1.56492 0
M  V30 10340 O 1065.86 0.484597 -1.84543 0
M  V30 10341 C 1063 0.422701 -3.42501 0
M  V30 10342 C 1062.11 -0.518036 -4.28883 0
M  V30 10343 C 1061.24 0.275011 -5.30488 0
M  V30 10344 C 1060.28 -0.661032 -6.0852 0
M  V30 10345 N 1059.42 0.0968509 -7.02033 0
M  V30 10346 H 1064.26 -1.19388 -2.73039 0
M  V30 10347 H 1061.8 -0.600091 -1.34303 0
M  V30 10348 H 1063.75 0.889249 -4.07613 0
M  V30 10349 H 1062.38 1.22664 -2.98586 0
M  V30 10350 H 1061.44 -1.10308 -3.64055 0
M  V30 10351 H 1062.75 -1.23504 -4.83268 0
M  V30 10352 H 1061.9 0.803301 -6.01358 0
M  V30 10353 H 1060.64 1.02522 -4.76802 0
M  V30 10354 H 1059.65 -1.20093 -5.36524 0
M  V30 10355 H 1060.87 -1.41037 -6.64293 0
M  V30 10356 H 1058.82 0.829548 -6.50734 0
M  V30 10357 H 1058.73 -0.560476 -7.5392 0
M  V30 10358 H 1060 0.6058 -7.77142 0
M  V30 10359 N 1064.23 1.43628 -0.648757 0
M  V30 10360 C 1065.2 2.29172 0.0360713 0
M  V30 10361 C 1066.2 1.41974 0.754976 0
M  V30 10362 O 1067.39 1.63654 0.5969 0
M  V30 10363 C 1064.52 3.23942 1.0618 0
M  V30 10364 H 1065.71 2.91214 -0.716544 0
M  V30 10365 H 1063.26 1.50833 -0.409759 0
M  V30 10366 H 1064 2.66786 1.8438 0
M  V30 10367 H 1063.78 3.88223 0.550016 0
M  V30 10368 H 1065.27 3.8816 1.54019 0
M  V30 10369 N 1065.71 0.390394 1.52688 0
M  V30 10370 C 1066.64 -0.43567 2.294 0
M  V30 10371 C 1067.62 -1.06253 1.32832 0
M  V30 10372 O 1068.81 -1.07509 1.61726 0
M  V30 10373 C 1065.94 -1.56259 3.10162 0
M  V30 10374 C 1064.89 -1.06172 4.14622 0
M  V30 10375 C 1064.22 -2.2808 4.83615 0
M  V30 10376 C 1065.52 -0.128902 5.22141 0
M  V30 10377 H 1067.21 0.204384 2.98702 0
M  V30 10378 H 1064.76 0.0997377 1.43654 0
M  V30 10379 H 1066.71 -2.14732 3.62585 0
M  V30 10380 H 1065.43 -2.23025 2.38595 0
M  V30 10381 H 1064.09 -0.499518 3.63181 0
M  V30 10382 H 1063.74 -2.93358 4.08595 0
M  V30 10383 H 1063.44 -1.95227 5.5422 0
M  V30 10384 H 1064.96 -2.87193 5.38844 0
M  V30 10385 H 1066.38 -0.621849 5.69917 0
M  V30 10386 H 1064.78 0.109919 5.99999 0
M  V30 10387 H 1065.85 0.821884 4.77884 0
M  V30 10388 N 1067.19 -1.57141 0.120249 0
M  V30 10389 C 1068.6 -1.82256 -0.404931 0
M  V30 10390 C 1068.95 -1.03748 -1.66526 0
M  V30 10391 O 1068.08 -0.274456 -2.14653 0
M  V30 10392 C 1068.67 -3.30588 -0.741431 0
M  V30 10393 C 1067.23 -3.56379 -1.21124 0
M  V30 10394 C 1066.38 -2.76421 -0.220569 0
M  V30 10395 H 1069.33 -1.54897 0.345361 0
M  V30 10396 H 1069.35 -3.45284 -1.59872 0
M  V30 10397 H 1068.86 -3.87701 0.176036 0
M  V30 10398 H 1066.96 -3.04625 -2.14556 0
M  V30 10399 H 1067.07 -4.64952 -1.1557 0
M  V30 10400 H 1065.44 -2.44666 -0.707857 0
M  V30 10401 H 1066.22 -3.36294 0.690018 0
M  V30 10402 N 1068.67 0.153526 -1.5685 0
M  V30 10403 C 1069.91 0.865519 -1.82629 0
M  V30 10404 C 1070.24 1.81999 -0.700105 0
M  V30 10405 O 1069.51 1.93907 0.278744 0
M  V30 10406 H 1068.09 0.32261 -0.673745 0
M  V30 10407 H 1070.75 0.149088 -1.94329 0
M  V30 10408 H 1069.84 1.43171 -2.77324 0
M  V30 10409 N 1070.14 1.51827 0.422667 0
M  V30 10410 C 1071.39 1.6522 1.17084 0
M  V30 10411 C 1071.72 0.375508 1.90841 0
M  V30 10412 O 1070.97 -0.641029 1.84903 0
M  V30 10413 C 1071.27 2.81572 2.20119 0
M  V30 10414 C 1070.94 4.20303 1.63268 0
M  V30 10415 C 1069.6 4.5804 1.47488 0
M  V30 10416 C 1071.95 5.06812 1.21618 0
M  V30 10417 C 1069.28 5.79979 0.885531 0
M  V30 10418 C 1071.63 6.29343 0.641071 0
M  V30 10419 C 1070.3 6.65841 0.470286 0
M  V30 10420 H 1069.57 0.604581 0.428442 0
M  V30 10421 H 1072.21 1.85896 0.459874 0
M  V30 10422 H 1070.52 2.55175 2.97309 0
M  V30 10423 H 1072.22 2.89132 2.77856 0
M  V30 10424 H 1068.81 3.90557 1.76531 0
M  V30 10425 H 1072.99 4.78251 1.32624 0
M  V30 10426 H 1068.25 6.06892 0.741105 0
M  V30 10427 H 1072.42 6.9571 0.309888 0
M  V30 10428 H 1070.05 7.60199 0.0115038 0
M  V30 10429 N 1071.62 -0.679052 1.4222 0
M  V30 10430 C 1073.04 -0.991665 1.25053 0
M  V30 10431 C 1073.24 -2.00928 0.151665 0
M  V30 10432 O 1072.29 -2.47925 -0.478507 0
M  V30 10433 C 1073.61 -1.50053 2.60585 0
M  V30 10434 C 1075.16 -1.61852 2.67905 0
M  V30 10435 C 1075.63 -2.16135 4.03794 0
M  V30 10436 N 1077.12 -2.23474 4.05726 0
M  V30 10437 C 1077.86 -2.66541 5.07685 0
M  V30 10438 N 1077.35 -3.09092 6.20028 0
M  V30 10439 N 1079.15 -2.66252 4.95042 0
M  V30 10440 H 1071.3 -0.00521851 2.12399 0
M  V30 10441 H 1073.56 -0.0648465 0.94578 0
M  V30 10442 H 1073.27 -0.82731 3.41831 0
M  V30 10443 H 1073.14 -2.47998 2.84213 0
M  V30 10444 H 1075.53 -2.28281 1.87008 0
M  V30 10445 H 1075.61 -0.624074 2.4807 0
M  V30 10446 H 1075.25 -1.50316 4.85147 0
M  V30 10447 H 1075.18 -3.16363 4.20978 0
M  V30 10448 H 1077.67 -1.93467 3.24621 0
M  V30 10449 H 1077.99 -3.40627 6.93681 0
M  V30 10450 H 1076.33 -3.06959 6.23539 0
M  V30 10451 H 1079.52 -2.32369 4.06352 0
M  V30 10452 H 1079.69 -2.99496 5.74636 0
M  V30 10453 N 1073.1 -1.28322 -0.914942 0
M  V30 10454 C 1074.05 -1.12003 -2.03858 0
M  V30 10455 C 1075.04 -0.0396287 -1.69354 0
M  V30 10456 O 1076.25 -0.198309 -1.78904 0
M  V30 10457 H 1072.62 -0.34552 -0.667922 0
M  V30 10458 H 1074.59 -2.07168 -2.14765 0
M  V30 10459 C 1073.34 -0.797402 -3.38433 0
M  V30 10460 H 1072.67 -1.62071 -3.65476 0
M  V30 10461 H 1074.11 -0.723165 -4.17787 0
M  V30 10462 C 1072.57 0.498807 -3.33187 0
M  V30 10463 O 1073.1 1.52946 -3.71444 0
M  V30 10464 N 1071.3 0.499101 -2.86282 0
M  V30 10465 H 1070.85 -0.340056 -2.55346 0
M  V30 10466 H 1070.81 1.36641 -2.83155 0
M  V30 10467 N 1074.58 1.12322 -1.10551 0
M  V30 10468 C 1075.51 2.20176 -0.777486 0
M  V30 10469 C 1076.49 1.68252 0.250069 0
M  V30 10470 O 1077.67 1.93856 0.115574 0
M  V30 10471 C 1074.8 3.46666 -0.209822 0
M  V30 10472 C 1073.76 4.11749 -1.1682 0
M  V30 10473 C 1073.08 5.32703 -0.461684 0
M  V30 10474 C 1074.38 4.57746 -2.51527 0
M  V30 10475 H 1076.08 2.47872 -1.67928 0
M  V30 10476 H 1073.62 1.19136 -0.808863 0
M  V30 10477 H 1075.58 4.21388 0.0318068 0
M  V30 10478 H 1074.3 3.18401 0.727226 0
M  V30 10479 H 1072.96 3.39009 -1.3953 0
M  V30 10480 H 1072.61 5.00706 0.479875 0
M  V30 10481 H 1072.31 5.77197 -1.1008 0
M  V30 10482 H 1073.83 6.10172 -0.228629 0
M  V30 10483 H 1075.25 5.23835 -2.32958 0
M  V30 10484 H 1073.64 5.13021 -3.11335 0
M  V30 10485 H 1074.71 3.71667 -3.11435 0
M  V30 10486 N 1076.06 0.894434 1.2976 0
M  V30 10487 C 1077.01 0.339611 2.25457 0
M  V30 10488 C 1077.99 -0.537326 1.51663 0
M  V30 10489 O 1079.18 -0.380204 1.72868 0
M  V30 10490 C 1076.31 -0.436494 3.40514 0
M  V30 10491 C 1075.4 0.455065 4.21651 0
M  V30 10492 N 1075.79 1.55988 4.81146 0
M  V30 10493 C 1074.09 0.251893 4.45288 0
M  V30 10494 C 1074.79 2.1117 5.42017 0
M  V30 10495 N 1073.76 1.40541 5.25118 0
M  V30 10496 H 1077.57 1.18365 2.69011 0
M  V30 10497 H 1075.08 0.744895 1.44309 0
M  V30 10498 H 1077.08 -0.850678 4.08129 0
M  V30 10499 H 1075.74 -1.27786 2.98498 0
M  V30 10500 H 1076.75 1.94266 4.80084 0
M  V30 10501 H 1073.42 -0.551536 4.13841 0
M  V30 10502 H 1074.81 3.04 5.99194 0
M  V30 10503 N 1077.53 -1.43282 0.656365 0
M  V30 10504 C 1078.78 -2.02075 0.171293 0
M  V30 10505 C 1079.11 -1.51682 -1.21269 0
M  V30 10506 O 1078.39 -0.711243 -1.81029 0
M  V30 10507 C 1078.67 -3.59621 0.185602 0
M  V30 10508 C 1078.52 -4.20239 1.60373 0
M  V30 10509 C 1079.84 -4.37515 -0.476289 0
M  V30 10510 H 1076.96 -0.73424 0.0637185 0
M  V30 10511 H 1079.6 -1.70539 0.837648 0
M  V30 10512 H 1077.75 -3.86619 -0.381804 0
M  V30 10513 H 1079.43 -4.0426 2.22197 0
M  V30 10514 H 1077.67 -3.76769 2.15006 0
M  V30 10515 H 1078.34 -5.29333 1.56557 0
M  V30 10516 H 1080.82 -4.16099 0.00651073 0
M  V30 10517 H 1079.69 -5.47169 -0.435562 0
M  V30 10518 H 1079.95 -4.14003 -1.55093 0
M  V30 10519 N 1079.01 -0.398486 -1.52479 0
M  V30 10520 C 1080.29 0.238776 -1.94137 0
M  V30 10521 C 1080.67 1.63558 -1.33462 0
M  V30 10522 O 1080.02 2.22821 -0.506272 0
M  V30 10523 C 1080.23 0.255863 -3.48061 0
M  V30 10524 C 1081.58 0.480376 -4.21874 0
M  V30 10525 O 1082.6 0.335679 -3.54615 0
M  V30 10526 O 1081.46 0.764654 -5.41124 0
M  V30 10527 H 1078.55 0.150806 -0.813134 0
M  V30 10528 H 1081.1 -0.453659 -1.63524 0
M  V30 10529 H 1079.87 -0.722171 -3.84578 0
M  V30 10530 H 1079.49 0.99284 -3.85004 0
M  V30 10531 N 1080.49 1.57075 -0.12858 0
M  V30 10532 C 1081.77 1.87075 0.571162 0
M  V30 10533 C 1082.15 1.03141 1.84188 0
M  V30 10534 O 1081.5 0.113001 2.2822 0
M  V30 10535 C 1081.71 3.3838 0.854383 0
M  V30 10536 C 1083.05 4.07194 1.20326 0
M  V30 10537 O 1084.08 3.43454 0.944338 0
M  V30 10538 O 1082.94 5.19725 1.68963 0
M  V30 10539 H 1080.03 0.774764 0.289258 0
M  V30 10540 H 1082.58 1.68908 -0.163806 0
M  V30 10541 H 1081.35 3.91273 -0.0456925 0
M  V30 10542 H 1080.97 3.62012 1.64418 0
M  V30 10543 N 1081.97 -0.145205 1.5693 0
M  V30 10544 C 1082.9 -1.20438 1.95006 0
M  V30 10545 C 1083.91 -1.39085 0.846114 0
M  V30 10546 O 1085.1 -1.38625 1.12452 0
M  V30 10547 C 1082.2 -2.56892 2.21043 0
M  V30 10548 C 1081.38 -2.59197 3.52329 0
M  V30 10549 C 1080.44 -3.77204 3.66884 0
M  V30 10550 O 1079.46 -3.61995 4.39259 0
M  V30 10551 N 1080.66 -4.9473 3.03682 0
M  V30 10552 H 1083.43 -0.880709 2.86467 0
M  V30 10553 H 1080.99 -0.334751 1.58401 0
M  V30 10554 H 1082.98 -3.34349 2.2802 0
M  V30 10555 H 1081.55 -2.81544 1.35838 0
M  V30 10556 H 1080.77 -1.67644 3.56776 0
M  V30 10557 H 1082.06 -2.57771 4.3867 0
M  V30 10558 H 1081.46 -5.09989 2.44801 0
M  V30 10559 H 1080.01 -5.69956 3.16218 0
M  V30 10560 N 1083.45 -1.52049 -0.414609 0
M  V30 10561 C 1084.38 -1.69712 -1.52555 0
M  V30 10562 C 1085.36 -0.544681 -1.53206 0
M  V30 10563 O 1086.54 -0.771358 -1.71995 0
M  V30 10564 C 1083.67 -1.73145 -2.91099 0
M  V30 10565 C 1082.72 -2.94624 -3.08382 0
M  V30 10566 S 1083.55 -4.55062 -2.82274 0
M  V30 10567 C 1084.7 -4.61274 -4.23057 0
M  V30 10568 H 1084.94 -2.63675 -1.37342 0
M  V30 10569 H 1082.47 -1.42018 -0.605824 0
M  V30 10570 H 1084.43 -1.75808 -3.70947 0
M  V30 10571 H 1083.09 -0.803198 -3.03657 0
M  V30 10572 H 1082.28 -2.93492 -4.0973 0
M  V30 10573 H 1081.88 -2.8982 -2.36391 0
M  V30 10574 H 1084.18 -4.38313 -5.16612 0
M  V30 10575 H 1085.12 -5.63188 -4.29214 0
M  V30 10576 H 1085.53 -3.90361 -4.07773 0
M  V30 10577 N 1084.93 0.6715 -1.42579 0
M  V30 10578 C 1085.89 1.76676 -1.46008 0
M  V30 10579 C 1086.89 1.57007 -0.347213 0
M  V30 10580 O 1088.08 1.63238 -0.608185 0
M  V30 10581 C 1085.21 3.15348 -1.29494 0
M  V30 10582 H 1086.4 1.75021 -2.43531 0
M  V30 10583 H 1083.96 0.881444 -1.29075 0
M  V30 10584 H 1084.69 3.22626 -0.32906 0
M  V30 10585 H 1084.48 3.31028 -2.10149 0
M  V30 10586 H 1085.97 3.95251 -1.34784 0
M  V30 10587 N 1086.4 1.28806 0.908124 0
M  V30 10588 C 1087.65 1.1646 1.66027 0
M  V30 10589 C 1087.98 -0.285025 1.92097 0
M  V30 10590 O 1087.26 -1.20675 1.52538 0
M  V30 10591 C 1087.54 1.96951 3.01467 0
M  V30 10592 C 1087.39 3.50007 2.82515 0
M  V30 10593 C 1088.71 1.78932 4.02084 0
M  V30 10594 H 1085.83 0.424435 0.602515 0
M  V30 10595 H 1088.47 1.58185 1.0525 0
M  V30 10596 H 1086.62 1.61495 3.53344 0
M  V30 10597 H 1088.3 3.95401 2.37605 0
M  V30 10598 H 1086.54 3.75356 2.17463 0
M  V30 10599 H 1087.21 4.01591 3.7872 0
M  V30 10600 H 1089.69 2.09885 3.59287 0
M  V30 10601 H 1088.56 2.37615 4.94803 0
M  V30 10602 H 1088.82 0.742286 4.35824 0
M  V30 10603 N 1087.88 -1.11734 1.11145 0
M  V30 10604 C 1089.13 -1.82766 0.853194 0
M  V30 10605 C 1089.44 -1.85408 -0.623168 0
M  V30 10606 O 1090.65 -2.52509 -0.997574 0
M  V30 10607 C 1089.11 -3.28215 1.47658 0
M  V30 10608 C 1088.71 -3.33911 2.98676 0
M  V30 10609 C 1090.46 -4.04168 1.29803 0
M  V30 10610 C 1088.36 -4.73739 3.54013 0
M  V30 10611 H 1087.29 -0.684807 0.315523 0
M  V30 10612 H 1089.95 -1.25756 1.33633 0
M  V30 10613 H 1088.33 -3.85138 0.921116 0
M  V30 10614 H 1089.5 -2.86887 3.606 0
M  V30 10615 H 1087.82 -2.71437 3.15771 0
M  V30 10616 H 1090.41 -5.07429 1.68582 0
M  V30 10617 H 1090.76 -4.15606 0.240302 0
M  V30 10618 H 1091.29 -3.53623 1.82196 0
M  V30 10619 H 1088.03 -4.67497 4.59485 0
M  V30 10620 H 1087.55 -5.21186 2.9686 0
M  V30 10621 H 1089.23 -5.42691 3.52271 0
M  V30 10622 N 1089.36 -0.901303 -1.29284 0
M  V30 10623 C 1090.29 -0.337552 -2.26701 0
M  V30 10624 C 1091.3 0.517039 -1.54371 0
M  V30 10625 O 1092.49 0.333937 -1.75349 0
M  V30 10626 C 1089.59 0.537214 -3.34615 0
M  V30 10627 C 1088.77 -0.292017 -4.36424 0
M  V30 10628 C 1087.83 0.515837 -5.23666 0
M  V30 10629 O 1086.85 -0.0672303 -5.6916 0
M  V30 10630 N 1088.05 1.82159 -5.51179 0
M  V30 10631 H 1090.82 -1.17484 -2.75713 0
M  V30 10632 H 1088.38 -0.765957 -1.42635 0
M  V30 10633 H 1090.37 1.0841 -3.8991 0
M  V30 10634 H 1088.94 1.2752 -2.85408 0
M  V30 10635 H 1088.16 -1.02031 -3.80767 0
M  V30 10636 H 1089.45 -0.859855 -5.01482 0
M  V30 10637 H 1088.85 2.318 -5.16028 0
M  V30 10638 H 1087.4 2.31556 -6.09282 0
M  V30 10639 N 1090.84 1.42931 -0.663954 0
M  V30 10640 C 1092.07 2.05729 -0.189532 0
M  V30 10641 C 1092.48 1.49914 1.15423 0
M  V30 10642 O 1091.82 0.629324 1.72584 0
M  V30 10643 C 1091.88 3.59482 -0.0354748 0
M  V30 10644 C 1091.54 4.37935 -1.30622 0
M  V30 10645 C 1092.54 4.69297 -2.23733 0
M  V30 10646 C 1090.23 4.77761 -1.5508 0
M  V30 10647 C 1092.22 5.39407 -3.39586 0
M  V30 10648 C 1089.91 5.47613 -2.71224 0
M  V30 10649 C 1090.91 5.7836 -3.63302 0
M  V30 10650 O 1090.59 6.46783 -4.77417 0
M  V30 10651 H 1090.33 0.669678 -0.0922342 0
M  V30 10652 H 1092.88 1.84243 -0.907943 0
M  V30 10653 H 1091.11 3.79584 0.738412 0
M  V30 10654 H 1092.8 4.03947 0.397679 0
M  V30 10655 H 1093.56 4.39038 -2.06084 0
M  V30 10656 H 1089.44 4.53229 -0.842863 0
M  V30 10657 H 1092.99 5.63323 -4.11476 0
M  V30 10658 H 1088.88 5.77289 -2.88804 0
M  V30 10659 H 1089.65 6.6527 -4.76821 0
M  V30 10660 N 1092.32 0.406567 1.52266 0
M  V30 10661 C 1093.54 -0.172101 2.06685 0
M  V30 10662 C 1093.97 -1.38306 1.27488 0
M  V30 10663 O 1093.32 -1.78726 0.304441 0
M  V30 10664 C 1093.37 -0.503463 3.57068 0
M  V30 10665 O 1092.48 -1.59485 3.80314 0
M  V30 10666 H 1091.82 -0.0153209 0.663823 0
M  V30 10667 H 1094.35 0.579025 1.96236 0
M  V30 10668 H 1094.36 -0.762833 4.00805 0
M  V30 10669 H 1093.03 0.381775 4.14144 0
M  V30 10670 H 1091.61 -1.32784 3.48458 0
M  V30 10671 N 1093.79 -1.57004 0.136909 0
M  V30 10672 C 1095.04 -1.96873 -0.511137 0
M  V30 10673 C 1095.4 -1.02001 -1.63137 0
M  V30 10674 O 1094.69 -0.0532138 -1.91526 0
M  V30 10675 C 1094.88 -3.40903 -1.07331 0
M  V30 10676 C 1094.71 -4.49699 -0.00908112 0
M  V30 10677 C 1093.48 -5.03477 0.42889 0
M  V30 10678 C 1095.68 -5.08372 0.778631 0
M  V30 10679 N 1093.66 -5.95867 1.47702 0
M  V30 10680 C 1095.03 -5.96875 1.67751 0
M  V30 10681 C 1097.09 -4.90975 0.827538 0
M  V30 10682 C 1095.79 -6.69845 2.62108 0
M  V30 10683 C 1097.82 -5.64639 1.75889 0
M  V30 10684 C 1097.18 -6.52842 2.64531 0
M  V30 10685 H 1093.28 -0.766253 -0.156141 0
M  V30 10686 H 1095.86 -1.93347 0.229176 0
M  V30 10687 H 1094.03 -3.45042 -1.78327 0
M  V30 10688 H 1095.76 -3.67855 -1.68715 0
M  V30 10689 H 1092.52 -4.73588 0.03306 0
M  V30 10690 H 1092.94 -6.46767 2.00055 0
M  V30 10691 H 1097.59 -4.22511 0.156318 0
M  V30 10692 H 1095.3 -7.37544 3.30235 0
M  V30 10693 H 1098.89 -5.53177 1.80241 0
M  V30 10694 H 1097.77 -7.08843 3.35426 0
M  V30 10695 N 1095.27 0.136881 -1.57004 0
M  V30 10696 C 1096.21 1.19853 -1.94192 0
M  V30 10697 C 1097.18 1.4104 -0.809103 0
M  V30 10698 O 1098.37 1.55487 -1.06565 0
M  V30 10699 C 1095.49 2.55565 -2.22271 0
M  V30 10700 C 1094.54 2.50913 -3.44884 0
M  V30 10701 S 1095.37 1.96619 -4.98098 0
M  V30 10702 C 1096.53 3.34039 -5.2931 0
M  V30 10703 H 1096.76 0.881316 -2.83937 0
M  V30 10704 H 1094.3 0.342915 -1.50544 0
M  V30 10705 H 1096.25 3.33659 -2.39127 0
M  V30 10706 H 1094.91 2.84472 -1.33172 0
M  V30 10707 H 1094.11 3.50839 -3.6184 0
M  V30 10708 H 1093.71 1.80932 -3.27322 0
M  V30 10709 H 1096 4.30189 -5.23397 0
M  V30 10710 H 1096.94 3.21927 -6.30689 0
M  V30 10711 H 1097.35 3.31642 -4.56808 0
M  V30 10712 N 1096.75 1.52266 0.40654 0
M  V30 10713 C 1098 1.66123 1.15097 0
M  V30 10714 C 1098.32 0.394836 1.90961 0
M  V30 10715 O 1097.59 -0.590349 1.86793 0
M  V30 10716 H 1096.17 0.612317 0.427875 0
M  V30 10717 H 1098.83 1.89318 0.463106 0
M  V30 10718 H 1097.93 2.50351 1.86361 0
M  V30 10719 N 1098.23 -0.663929 1.42933 0
M  V30 10720 C 1099.16 -1.78899 1.50058 0
M  V30 10721 C 1100.14 -1.66329 0.356164 0
M  V30 10722 O 1101.32 -1.85587 0.571944 0
M  V30 10723 C 1098.45 -3.17265 1.41281 0
M  V30 10724 C 1097.41 -3.44584 2.53861 0
M  V30 10725 C 1096.73 -4.82638 2.3014 0
M  V30 10726 C 1098.03 -3.40394 3.96143 0
M  V30 10727 H 1099.73 -1.73194 2.44222 0
M  V30 10728 H 1097.27 -0.83182 1.17545 0
M  V30 10729 H 1099.23 -3.95715 1.44872 0
M  V30 10730 H 1097.95 -3.23675 0.43616 0
M  V30 10731 H 1096.61 -2.685 2.49606 0
M  V30 10732 H 1096.26 -4.85711 1.30743 0
M  V30 10733 H 1095.96 -5.01879 3.056 0
M  V30 10734 H 1097.48 -5.63359 2.35497 0
M  V30 10735 H 1098.9 -4.08796 4.01943 0
M  V30 10736 H 1097.29 -3.7117 4.71543 0
M  V30 10737 H 1098.36 -2.38767 4.22041 0
M  V30 10738 N 1099.71 -1.29285 -0.901281 0
M  V30 10739 C 1100.64 -1.08603 -2.007 0
M  V30 10740 C 1101.62 0.00162233 -1.626 0
M  V30 10741 O 1102.8 -0.148764 -1.87912 0
M  V30 10742 C 1099.93 -0.652972 -3.32346 0
M  V30 10743 C 1098.97 -1.73911 -3.89432 0
M  V30 10744 S 1099.81 -3.33797 -4.18736 0
M  V30 10745 C 1100.96 -2.92355 -5.53425 0
M  V30 10746 H 1101.2 -2.02216 -2.17936 0
M  V30 10747 H 1098.73 -1.13414 -1.04769 0
M  V30 10748 H 1100.69 -0.409825 -4.08449 0
M  V30 10749 H 1099.35 0.263527 -3.12993 0
M  V30 10750 H 1098.54 -1.388 -4.84511 0
M  V30 10751 H 1098.14 -1.93569 -3.20011 0
M  V30 10752 H 1100.44 -2.39301 -6.33831 0
M  V30 10753 H 1101.38 -3.86278 -5.9346 0
M  V30 10754 H 1101.79 -2.30697 -5.15208 0
M  V30 10755 N 1101.18 1.11143 -1.11736 0
M  V30 10756 C 1102.43 1.83219 -0.869413 0
M  V30 10757 C 1102.76 1.84588 0.603402 0
M  V30 10758 O 1102.04 1.30119 1.44566 0
M  V30 10759 C 1102.32 3.30247 -1.43559 0
M  V30 10760 C 1102.17 3.37253 -2.97624 0
M  V30 10761 C 1103.49 4.26412 -1.08907 0
M  V30 10762 H 1100.61 0.665205 -0.317286 0
M  V30 10763 H 1103.25 1.30307 -1.38275 0
M  V30 10764 H 1101.4 3.75437 -0.998978 0
M  V30 10765 H 1103.08 3.00599 -3.49911 0
M  V30 10766 H 1101.32 2.77378 -3.33532 0
M  V30 10767 H 1101.99 4.40752 -3.32328 0
M  V30 10768 H 1104.47 3.89418 -1.46604 0
M  V30 10769 H 1103.34 5.27666 -1.51195 0
M  V30 10770 H 1103.6 4.421 -0.000259009 0
M  V30 10771 N 1102.66 0.908147 1.28804 0
M  V30 10772 C 1103.91 0.538404 1.95211 0
M  V30 10773 C 1104.24 -0.916886 1.71533 0
M  V30 10774 O 1103.49 -1.66643 1.02609 0
M  V30 10775 C 1103.79 0.787327 3.4862 0
M  V30 10776 C 1103.46 2.22129 3.92389 0
M  V30 10777 C 1102.12 2.61336 4.04051 0
M  V30 10778 C 1104.47 3.15471 4.14883 0
M  V30 10779 C 1101.8 3.93048 4.3558 0
M  V30 10780 C 1104.15 4.46741 4.47889 0
M  V30 10781 C 1102.82 4.85809 4.57761 0
M  V30 10782 H 1102.09 0.197016 0.714329 0
M  V30 10783 H 1104.73 1.14841 1.53244 0
M  V30 10784 H 1103.04 0.0944731 3.91686 0
M  V30 10785 H 1104.73 0.480503 3.98111 0
M  V30 10786 H 1101.32 1.90704 3.83836 0
M  V30 10787 H 1105.51 2.86391 4.05332 0
M  V30 10788 H 1100.76 4.23027 4.41428 0
M  V30 10789 H 1104.94 5.19087 4.64243 0
M  V30 10790 H 1102.57 5.87904 4.81947 0
M  V30 10791 N 1104.14 -1.42577 0.671525 0
M  V30 10792 C 1105.1 -2.292 0.000392482 0
M  V30 10793 C 1106.1 -1.43158 -0.732294 0
M  V30 10794 O 1107.29 -1.64583 -0.570789 0
M  V30 10795 C 1104.43 -3.25591 -1.01013 0
M  V30 10796 H 1105.62 -2.90037 0.762783 0
M  V30 10797 H 1103.17 -1.50162 0.433703 0
M  V30 10798 H 1103.91 -2.69685 -1.80112 0
M  V30 10799 H 1103.69 -3.89049 -0.488183 0
M  V30 10800 H 1105.18 -3.90561 -1.47824 0
M  V30 10801 N 1105.62 -0.414636 -1.52048 0
M  V30 10802 C 1106.55 0.452854 -2.23662 0
M  V30 10803 C 1107.53 1.04348 -1.24701 0
M  V30 10804 O 1108.71 1.09029 -1.53769 0
M  V30 10805 C 1105.84 1.62908 -2.96949 0
M  V30 10806 C 1104.89 1.16132 -4.10385 0
M  V30 10807 S 1105.72 0.121936 -5.35361 0
M  V30 10808 C 1106.88 1.30336 -6.12179 0
M  V30 10809 H 1107.11 -0.155202 -2.96895 0
M  V30 10810 H 1104.64 -0.198972 -1.53113 0
M  V30 10811 H 1106.6 2.30351 -3.39777 0
M  V30 10812 H 1105.26 2.20849 -2.23348 0
M  V30 10813 H 1104.45 2.04025 -4.60858 0
M  V30 10814 H 1104.06 0.565452 -3.69701 0
M  V30 10815 H 1106.35 2.22596 -6.39889 0
M  V30 10816 H 1107.29 0.839052 -7.03111 0
M  V30 10817 H 1107.7 1.53165 -5.43324 0
M  V30 10818 N 1107.1 1.56929 -0.145233 0
M  V30 10819 C 1108.34 1.95681 0.50532 0
M  V30 10820 C 1108.67 1.03098 1.65516 0
M  V30 10821 O 1107.94 0.0921961 1.95683 0
M  V30 10822 H 1106.52 0.72252 0.189668 0
M  V30 10823 H 1109.18 1.93651 -0.220318 0
M  V30 10824 H 1108.27 2.99359 0.882631 0
M  V30 10825 N 1108.58 -0.128553 1.57075 0
M  V30 10826 C 1109.82 -0.834322 1.85501 0
M  V30 10827 C 1110.18 -1.77943 0.731725 0
M  V30 10828 O 1109.47 -1.89702 -0.269003 0
M  V30 10829 C 1109.66 -1.63027 3.18052 0
M  V30 10830 C 1109.49 -0.763737 4.43167 0
M  V30 10831 C 1108.26 -0.42224 5.03533 0
M  V30 10832 C 1110.46 -0.0856773 5.14229 0
M  V30 10833 N 1108.44 0.455954 6.12204 0
M  V30 10834 C 1109.81 0.651902 6.16563 0
M  V30 10835 C 1111.87 -0.00826404 4.97899 0
M  V30 10836 C 1110.57 1.45961 7.04335 0
M  V30 10837 C 1112.6 0.786239 5.8615 0
M  V30 10838 C 1111.96 1.51204 6.8798 0
M  V30 10839 H 1108.06 -0.282535 0.729176 0
M  V30 10840 H 1110.64 -0.0985924 1.9445 0
M  V30 10841 H 1108.81 -2.3371 3.10216 0
M  V30 10842 H 1110.55 -2.28063 3.34319 0
M  V30 10843 H 1107.3 -0.76229 4.67425 0
M  V30 10844 H 1107.72 0.886619 6.71169 0
M  V30 10845 H 1112.37 -0.555051 4.19141 0
M  V30 10846 H 1110.08 2.01759 7.82508 0
M  V30 10847 H 1113.67 0.848372 5.75581 0
M  V30 10848 H 1112.55 2.11694 7.55086 0
M  V30 10849 N 1110.05 -1.5248 -0.398459 0
M  V30 10850 C 1111.47 -1.4152 -0.737854 0
M  V30 10851 C 1111.67 -0.528122 -1.94456 0
M  V30 10852 O 1110.73 0.00203799 -2.525 0
M  V30 10853 C 1112.04 -2.8422 -0.9818 0
M  V30 10854 C 1113.59 -2.93635 -1.08386 0
M  V30 10855 C 1114.06 -4.37327 -1.3605 0
M  V30 10856 N 1115.55 -4.40609 -1.42892 0
M  V30 10857 C 1116.29 -5.48863 -1.65944 0
M  V30 10858 N 1115.78 -6.67217 -1.86529 0
M  V30 10859 N 1117.58 -5.36393 -1.68046 0
M  V30 10860 H 1109.73 -2.08681 0.395705 0
M  V30 10861 H 1111.99 -0.941023 0.114801 0
M  V30 10862 H 1111.7 -3.51302 -0.167358 0
M  V30 10863 H 1111.57 -3.25907 -1.89907 0
M  V30 10864 H 1113.96 -2.26728 -1.88888 0
M  V30 10865 H 1114.04 -2.5539 -0.144714 0
M  V30 10866 H 1113.68 -5.04797 -0.56061 0
M  V30 10867 H 1113.61 -4.73116 -2.31233 0
M  V30 10868 H 1116.1 -3.55298 -1.2873 0
M  V30 10869 H 1116.42 -7.45498 -2.03599 0
M  V30 10870 H 1114.76 -6.70263 -1.83773 0
M  V30 10871 H 1117.95 -4.42903 -1.51509 0
M  V30 10872 H 1118.13 -6.2083 -1.85672 0
M  V30 10873 N 1111.53 0.65634 -1.43283 0
M  V30 10874 C 1112.76 1.44906 -1.48382 0
M  V30 10875 C 1113.18 1.87823 -0.101993 0
M  V30 10876 O 1112.54 1.57178 0.903597 0
M  V30 10877 C 1112.59 2.66231 -2.43215 0
M  V30 10878 O 1111.69 3.65176 -1.91625 0
M  V30 10879 H 1111.03 0.434601 -0.502014 0
M  V30 10880 H 1113.56 0.803429 -1.88165 0
M  V30 10881 H 1113.57 3.14083 -2.60414 0
M  V30 10882 H 1112.25 2.34336 -3.43598 0
M  V30 10883 H 1110.82 3.24302 -1.84072 0
M  V30 10884 N 1113.01 1.29761 0.894412 0
M  V30 10885 C 1114.26 1.18039 1.64539 0
M  V30 10886 C 1114.58 -0.26697 1.92659 0
M  V30 10887 O 1113.84 -1.20865 1.53916 0
M  V30 10888 C 1114.14 1.94458 2.99868 0
M  V30 10889 C 1113.8 3.44143 2.91336 0
M  V30 10890 C 1112.47 3.84963 2.88716 0
M  V30 10891 C 1114.82 4.39503 2.80154 0
M  V30 10892 C 1112.15 5.19451 2.72741 0
M  V30 10893 C 1114.5 5.74088 2.65718 0
M  V30 10894 C 1113.16 6.14159 2.61467 0
M  V30 10895 H 1112.43 0.431936 0.60209 0
M  V30 10896 H 1115.08 1.60758 1.04063 0
M  V30 10897 H 1113.38 1.44346 3.64241 0
M  V30 10898 H 1115.08 1.82788 3.56917 0
M  V30 10899 H 1111.67 3.11699 2.9418 0
M  V30 10900 H 1115.86 4.08915 2.81251 0
M  V30 10901 H 1111.11 5.49602 2.67858 0
M  V30 10902 H 1115.29 6.47625 2.56038 0
M  V30 10903 H 1112.91 7.18317 2.48847 0
M  V30 10904 N 1114.49 -1.10549 1.12324 0
M  V30 10905 C 1115.72 -1.8627 0.900618 0
M  V30 10906 C 1116.13 -1.80609 -0.550069 0
M  V30 10907 O 1115.49 -1.19396 -1.38025 0
M  V30 10908 C 1115.54 -3.34716 1.36556 0
M  V30 10909 O 1115.26 -3.40279 2.75938 0
M  V30 10910 C 1116.76 -4.27315 1.17969 0
M  V30 10911 H 1113.98 -0.588741 0.321908 0
M  V30 10912 H 1116.52 -1.39759 1.49291 0
M  V30 10913 H 1114.68 -3.78697 0.81652 0
M  V30 10914 H 1115.09 -4.32781 2.96312 0
M  V30 10915 H 1116.57 -5.29677 1.55391 0
M  V30 10916 H 1117.04 -4.39036 0.120158 0
M  V30 10917 H 1117.65 -3.89137 1.71617 0
M  V30 10918 N 1115.97 -0.914965 -1.28321 0
M  V30 10919 C 1116.91 -0.394477 -2.29231 0
M  V30 10920 C 1117.91 0.514481 -1.61398 0
M  V30 10921 O 1119.11 0.395591 -1.75599 0
M  V30 10922 H 1115.49 -0.108969 -0.744063 0
M  V30 10923 H 1117.46 -1.25862 -2.70557 0
M  V30 10924 C 1116.21 0.349134 -3.45943 0
M  V30 10925 H 1115.53 -0.341087 -3.98342 0
M  V30 10926 H 1116.97 0.677944 -4.18545 0
M  V30 10927 C 1115.43 1.55747 -2.98738 0
M  V30 10928 O 1115.96 2.65654 -3.01315 0
M  V30 10929 N 1114.17 1.40488 -2.54384 0
M  V30 10930 H 1113.71 0.510716 -2.52487 0
M  V30 10931 H 1113.67 2.21464 -2.23161 0
M  V30 10932 N 1117.44 1.42219 -0.679077 0
M  V30 10933 C 1118.69 2.01777 -0.20342 0
M  V30 10934 C 1119.02 1.53592 1.18841 0
M  V30 10935 O 1118.3 0.739954 1.79875 0
M  V30 10936 C 1118.58 3.59281 -0.242791 0
M  V30 10937 C 1118.43 4.17634 -1.67038 0
M  V30 10938 C 1119.75 4.38218 0.406624 0
M  V30 10939 H 1116.87 0.733134 -0.0753916 0
M  V30 10940 H 1119.51 1.69185 -0.864673 0
M  V30 10941 H 1117.66 3.87178 0.320248 0
M  V30 10942 H 1119.34 4.00674 -2.286 0
M  V30 10943 H 1117.58 3.73301 -2.20973 0
M  V30 10944 H 1118.25 5.26776 -1.64958 0
M  V30 10945 H 1120.73 4.16036 -0.0727077 0
M  V30 10946 H 1119.6 5.47793 0.348457 0
M  V30 10947 H 1119.86 4.16418 1.48487 0
M  V30 10948 N 1118.92 0.422693 1.51826 0
M  V30 10949 C 1119.87 -0.41063 2.28947 0
M  V30 10950 C 1120.86 -1.03389 1.34191 0
M  V30 10951 O 1122.07 -0.970533 1.51594 0
M  V30 10952 H 1118.44 -0.151219 0.736639 0
M  V30 10953 H 1120.42 0.260859 2.97258 0
M  V30 10954 C 1119.16 -1.50758 3.13317 0
M  V30 10955 H 1118.49 -1.03734 3.86108 0
M  V30 10956 H 1119.93 -2.0642 3.7036 0
M  V30 10957 C 1118.39 -2.48261 2.27746 0
M  V30 10958 O 1118.92 -3.52462 1.92701 0
M  V30 10959 N 1117.12 -2.18795 1.91251 0
M  V30 10960 H 1116.67 -1.34088 2.1995 0
M  V30 10961 H 1116.63 -2.84276 1.34293 0
M  V30 10962 N 1120.4 -1.5685 0.153553 0
M  V30 10963 C 1121.62 -2.01135 -0.505904 0
M  V30 10964 C 1122.05 -1.03301 -1.57196 0
M  V30 10965 O 1121.41 -0.00976022 -1.81297 0
M  V30 10966 C 1121.46 -3.44129 -1.0774 0
M  V30 10967 O 1120.56 -3.49318 -2.19205 0
M  V30 10968 H 1119.9 -0.652496 -0.123062 0
M  V30 10969 H 1122.43 -2.03039 0.252216 0
M  V30 10970 H 1122.44 -3.83066 -1.40444 0
M  V30 10971 H 1121.12 -4.1484 -0.296754 0
M  V30 10972 H 1119.69 -3.22227 -1.8768 0
M  V30 10973 N 1121.88 0.120221 -1.57141 0
M  V30 10974 C 1123.29 0.473718 -1.52408 0
M  V30 10975 C 1123.49 1.81925 -0.866354 0
M  V30 10976 O 1122.55 2.48491 -0.448173 0
M  V30 10977 C 1123.86 0.459338 -2.97171 0
M  V30 10978 C 1125.41 0.542975 -3.08254 0
M  V30 10979 C 1125.89 0.558996 -4.54576 0
M  V30 10980 N 1127.38 0.620469 -4.59026 0
M  V30 10981 C 1128.11 0.654292 -5.69655 0
M  V30 10982 N 1127.61 0.645835 -6.89783 0
M  V30 10983 N 1129.4 0.697208 -5.57759 0
M  V30 10984 H 1121.55 -0.76142 -1.98283 0
M  V30 10985 H 1123.81 -0.280736 -0.905479 0
M  V30 10986 H 1123.52 -0.461654 -3.48657 0
M  V30 10987 H 1123.39 1.28759 -3.54543 0
M  V30 10988 H 1125.78 1.45439 -2.56772 0
M  V30 10989 H 1125.86 -0.312936 -2.53879 0
M  V30 10990 H 1125.51 -0.348367 -5.06704 0
M  V30 10991 H 1125.44 1.43177 -5.06762 0
M  V30 10992 H 1127.93 0.633218 -3.72557 0
M  V30 10993 H 1128.24 0.674233 -7.69853 0
M  V30 10994 H 1126.59 0.613279 -6.92289 0
M  V30 10995 H 1129.78 0.70117 -4.62819 0
M  V30 10996 H 1129.95 0.7201 -6.43986 0
M  V30 10997 N 1123.36 1.52689 0.390367 0
M  V30 10998 C 1124.29 1.72118 1.49836 0
M  V30 10999 C 1125.27 0.568986 1.5232 0
M  V30 11000 O 1126.45 0.798623 1.70746 0
M  V30 11001 C 1123.58 1.77754 2.88307 0
M  V30 11002 C 1122.62 2.99492 3.03655 0
M  V30 11003 S 1123.46 4.59496 2.74998 0
M  V30 11004 C 1124.61 4.67946 4.15665 0
M  V30 11005 H 1124.85 2.65826 1.3313 0
M  V30 11006 H 1122.38 1.42964 0.583153 0
M  V30 11007 H 1124.34 1.81687 3.68103 0
M  V30 11008 H 1123 0.851406 3.02341 0
M  V30 11009 H 1122.19 2.99973 4.05009 0
M  V30 11010 H 1121.79 2.93544 2.3175 0
M  V30 11011 H 1124.09 4.46476 5.09573 0
M  V30 11012 H 1125.03 5.69945 4.202 0
M  V30 11013 H 1125.44 3.96799 4.01511 0
M  V30 11014 N 1124.83 -0.648732 1.43629 0
M  V30 11015 C 1125.76 -1.77298 1.51947 0
M  V30 11016 C 1126.75 -1.65942 0.373785 0
M  V30 11017 O 1127.93 -1.8497 0.591596 0
M  V30 11018 C 1125.06 -3.15749 1.44638 0
M  V30 11019 C 1124.01 -3.41872 2.57502 0
M  V30 11020 C 1123.34 -4.8017 2.35246 0
M  V30 11021 C 1124.64 -3.36173 3.99731 0
M  V30 11022 H 1126.33 -1.70594 2.46045 0
M  V30 11023 H 1123.88 -0.819306 1.1842 0
M  V30 11024 H 1125.83 -3.94156 1.4906 0
M  V30 11025 H 1124.56 -3.23194 0.470466 0
M  V30 11026 H 1123.22 -2.65838 2.5244 0
M  V30 11027 H 1122.86 -4.84297 1.35887 0
M  V30 11028 H 1122.56 -4.9861 3.10906 0
M  V30 11029 H 1124.09 -5.6083 2.41459 0
M  V30 11030 H 1125.5 -4.0451 4.06257 0
M  V30 11031 H 1123.9 -3.66148 4.75453 0
M  V30 11032 H 1124.97 -2.34277 4.24549 0
M  V30 11033 N 1126.31 -1.30234 -0.887518 0
M  V30 11034 C 1127.54 -1.21652 -1.66986 0
M  V30 11035 C 1127.95 0.223473 -1.87876 0
M  V30 11036 O 1127.29 1.15993 -1.42448 0
M  V30 11037 C 1127.36 -1.87173 -3.06931 0
M  V30 11038 C 1127.02 -3.36496 -3.09224 0
M  V30 11039 C 1128.02 -4.3253 -2.88469 0
M  V30 11040 C 1125.7 -3.77901 -3.30902 0
M  V30 11041 C 1127.7 -5.67942 -2.89344 0
M  V30 11042 C 1125.38 -5.13432 -3.31407 0
M  V30 11043 C 1126.38 -6.08263 -3.10653 0
M  V30 11044 O 1126.07 -7.41318 -3.1097 0
M  V30 11045 H 1125.8 -0.422224 -0.527923 0
M  V30 11046 H 1128.35 -1.72349 -1.11736 0
M  V30 11047 H 1126.58 -1.31002 -3.63834 0
M  V30 11048 H 1128.27 -1.72745 -3.67306 0
M  V30 11049 H 1129.04 -4.01873 -2.7152 0
M  V30 11050 H 1124.92 -3.04534 -3.46093 0
M  V30 11051 H 1128.46 -6.41936 -2.73063 0
M  V30 11052 H 1124.36 -5.4373 -3.47891 0
M  V30 11053 H 1125.13 -7.50275 -3.27153 0
M  V30 11054 N 1127.79 1.09952 -1.12909 0
M  V30 11055 C 1129.04 1.82016 -0.887482 0
M  V30 11056 C 1129.37 1.85445 0.586546 0
M  V30 11057 O 1128.62 1.31446 1.44984 0
M  V30 11058 C 1128.92 3.28252 -1.41369 0
M  V30 11059 C 1128.59 3.44965 -2.90362 0
M  V30 11060 C 1127.25 3.49233 -3.31043 0
M  V30 11061 C 1129.6 3.49947 -3.86247 0
M  V30 11062 C 1126.93 3.56057 -4.66305 0
M  V30 11063 C 1129.28 3.58305 -5.21345 0
M  V30 11064 C 1127.94 3.6084 -5.61561 0
M  V30 11065 H 1127.21 0.666046 -0.324753 0
M  V30 11066 H 1129.86 1.29568 -1.41012 0
M  V30 11067 H 1128.17 3.83301 -0.81163 0
M  V30 11068 H 1129.86 3.82533 -1.20289 0
M  V30 11069 H 1126.45 3.42323 -2.57901 0
M  V30 11070 H 1130.64 3.45895 -3.55908 0
M  V30 11071 H 1125.89 3.56305 -4.96847 0
M  V30 11072 H 1130.07 3.61104 -5.95463 0
M  V30 11073 H 1127.69 3.6588 -6.6636 0
M  V30 11074 N 1129.27 0.921757 1.27833 0
M  V30 11075 C 1130.23 0.420978 2.25301 0
M  V30 11076 C 1131.23 -0.457158 1.54165 0
M  V30 11077 O 1132.42 -0.259079 1.72263 0
M  V30 11078 C 1129.55 -0.395501 3.38598 0
M  V30 11079 H 1130.75 1.28206 2.71115 0
M  V30 11080 H 1128.3 0.701893 1.39654 0
M  V30 11081 H 1129.03 -1.27565 2.98157 0
M  V30 11082 H 1128.82 0.234029 3.91401 0
M  V30 11083 H 1130.31 -0.736444 4.11055 0
M  V30 11084 N 1130.75 -1.41857 0.686609 0
M  V30 11085 C 1132.16 -1.84439 0.289662 0
M  V30 11086 C 1132.51 -1.57462 -1.17047 0
M  V30 11087 O 1131.63 -1.04046 -1.89745 0
M  V30 11088 C 1132.23 -3.34802 0.518948 0
M  V30 11089 C 1130.79 -3.75988 0.176007 0
M  V30 11090 C 1129.93 -2.65339 0.805632 0
M  V30 11091 H 1132.89 -1.31536 0.88792 0
M  V30 11092 H 1132.91 -3.79833 -0.225209 0
M  V30 11093 H 1132.42 -3.54405 1.58173 0
M  V30 11094 H 1130.52 -3.61989 -0.882865 0
M  V30 11095 H 1130.63 -4.75009 0.624772 0
M  V30 11096 H 1129 -2.53605 0.235966 0
M  V30 11097 H 1129.78 -2.87762 1.8721 0
M  V30 11098 N 1132.22 -0.430739 -1.51599 0
M  V30 11099 C 1133.5 0.197543 -1.946 0
M  V30 11100 C 1133.88 1.6069 -1.36901 0
M  V30 11101 O 1133.23 2.21697 -0.553422 0
M  V30 11102 C 1133.44 0.181976 -3.48525 0
M  V30 11103 C 1134.79 0.390783 -4.22798 0
M  V30 11104 O 1135.81 0.260384 -3.55247 0
M  V30 11105 O 1134.67 0.649701 -5.42624 0
M  V30 11106 H 1131.76 0.133524 -0.81615 0
M  V30 11107 H 1134.31 -0.488243 -1.62525 0
M  V30 11108 H 1133.08 -0.803584 -3.8296 0
M  V30 11109 H 1132.71 0.910952 -3.87024 0
M  V30 11110 N 1133.7 1.56767 -0.161869 0
M  V30 11111 C 1134.63 2.20511 0.767918 0
M  V30 11112 C 1135.61 1.15783 1.24612 0
M  V30 11113 O 1136.8 1.44179 1.301 0
M  V30 11114 C 1133.93 2.83844 2.00125 0
M  V30 11115 C 1132.88 3.94528 1.65926 0
M  V30 11116 C 1132.21 4.44866 2.96646 0
M  V30 11117 C 1133.51 5.14583 0.894497 0
M  V30 11118 H 1135.2 2.98464 0.236607 0
M  V30 11119 H 1132.75 1.43561 0.112363 0
M  V30 11120 H 1134.7 3.27109 2.65664 0
M  V30 11121 H 1133.43 2.03246 2.55654 0
M  V30 11122 H 1132.08 3.51904 1.02759 0
M  V30 11123 H 1131.73 3.61071 3.50196 0
M  V30 11124 H 1131.43 5.19531 2.74521 0
M  V30 11125 H 1132.96 4.90812 3.6323 0
M  V30 11126 H 1134.37 5.54601 1.45228 0
M  V30 11127 H 1132.77 5.95105 0.772636 0
M  V30 11128 H 1133.84 4.84773 -0.110986 0
M  V30 11129 N 1135.18 -0.111886 1.57202 0
M  V30 11130 C 1136.43 -0.819623 1.85499 0
M  V30 11131 C 1136.76 -1.7919 0.748629 0
M  V30 11132 O 1136.03 -1.92952 -0.244918 0
M  V30 11133 C 1136.32 -1.56324 3.24399 0
M  V30 11134 C 1136.17 -0.610081 4.45643 0
M  V30 11135 C 1137.49 -2.51777 3.60966 0
M  V30 11136 H 1134.61 -0.296512 0.674722 0
M  V30 11137 H 1137.25 -0.0836741 1.89816 0
M  V30 11138 H 1135.4 -2.1906 3.2085 0
M  V30 11139 H 1137.07 0.00898038 4.61299 0
M  V30 11140 H 1135.32 0.0778488 4.3373 0
M  V30 11141 H 1135.99 -1.16718 5.39519 0
M  V30 11142 H 1138.46 -1.99143 3.65351 0
M  V30 11143 H 1137.34 -3.00835 4.59118 0
M  V30 11144 H 1137.6 -3.34769 2.8876 0
M  V30 11145 N 1136.66 -1.52894 -0.382264 0
M  V30 11146 C 1137.91 -1.68266 -1.12663 0
M  V30 11147 C 1138.23 -0.425974 -1.89778 0
M  V30 11148 O 1137.49 0.59178 -1.86538 0
M  V30 11149 C 1137.79 -2.87309 -2.12576 0
M  V30 11150 C 1137.45 -4.24484 -1.52067 0
M  V30 11151 C 1136.12 -4.6179 -1.35292 0
M  V30 11152 C 1138.47 -5.09858 -1.08138 0
M  V30 11153 C 1135.8 -5.82123 -0.731449 0
M  V30 11154 C 1138.15 -6.30822 -0.473986 0
M  V30 11155 C 1136.81 -6.66854 -0.293585 0
M  V30 11156 H 1136.08 -0.615728 -0.412262 0
M  V30 11157 H 1138.73 -1.8705 -0.410425 0
M  V30 11158 H 1137.03 -2.62968 -2.90439 0
M  V30 11159 H 1138.73 -2.96397 -2.70092 0
M  V30 11160 H 1135.32 -3.951 -1.66114 0
M  V30 11161 H 1139.5 -4.816 -1.19898 0
M  V30 11162 H 1134.76 -6.08643 -0.579938 0
M  V30 11163 H 1138.93 -6.96287 -0.125324 0
M  V30 11164 H 1136.56 -7.59962 0.190054 0
M  V30 11165 N 1138.14 0.641106 -1.43971 0
M  V30 11166 C 1139.09 1.77474 -1.50352 0
M  V30 11167 C 1140.08 1.65173 -0.376052 0
M  V30 11168 O 1141.29 1.71373 -0.550572 0
M  V30 11169 H 1137.66 0.585747 -0.471597 0
M  V30 11170 H 1139.63 1.69213 -2.45784 0
M  V30 11171 C 1138.38 3.15778 -1.45532 0
M  V30 11172 H 1137.7 3.25886 -2.316 0
M  V30 11173 H 1139.14 3.95022 -1.54058 0
M  V30 11174 C 1137.6 3.36447 -0.174624 0
M  V30 11175 O 1138.13 3.9446 0.759215 0
M  V30 11176 N 1136.34 2.90487 -0.0809383 0
M  V30 11177 H 1135.89 2.43461 -0.841691 0
M  V30 11178 H 1135.84 3.04693 0.775231 0
M  V30 11179 N 1139.62 1.30703 0.880598 0
M  V30 11180 C 1140.53 1.19389 2.01949 0
M  V30 11181 C 1141.54 0.112868 1.73634 0
M  V30 11182 O 1142.72 0.328643 1.98701 0
M  V30 11183 C 1139.78 0.891004 3.35055 0
M  V30 11184 C 1138.84 2.05784 3.76764 0
M  V30 11185 C 1138.08 1.76931 5.03519 0
M  V30 11186 O 1138.3 0.699326 5.66097 0
M  V30 11187 O 1137.23 2.623 5.4174 0
M  V30 11188 H 1141.06 2.15073 2.14423 0
M  V30 11189 H 1138.64 1.10339 1.00726 0
M  V30 11190 H 1140.53 0.737476 4.14897 0
M  V30 11191 H 1139.2 -0.0358909 3.2368 0
M  V30 11192 H 1138.11 2.26672 2.97608 0
M  V30 11193 H 1139.44 2.96661 3.9275 0
M  V30 11194 N 1141.09 -1.09351 1.1349 0
M  V30 11195 C 1142.32 -1.85036 0.918989 0
M  V30 11196 C 1142.73 -1.8146 -0.535638 0
M  V30 11197 O 1142.07 -1.20958 -1.38256 0
M  V30 11198 C 1142.14 -3.33992 1.33001 0
M  V30 11199 C 1141.8 -3.61315 2.79822 0
M  V30 11200 C 1142.8 -3.56973 3.77976 0
M  V30 11201 C 1140.48 -3.89636 3.17001 0
M  V30 11202 C 1142.48 -3.80564 5.11321 0
M  V30 11203 C 1140.16 -4.12882 4.50524 0
M  V30 11204 C 1141.16 -4.08338 5.47494 0
M  V30 11205 O 1140.85 -4.30983 6.78608 0
M  V30 11206 H 1140.58 -0.591301 0.327627 0
M  V30 11207 H 1143.14 -1.39078 1.5115 0
M  V30 11208 H 1141.37 -3.8066 0.68077 0
M  V30 11209 H 1143.05 -3.9109 1.08645 0
M  V30 11210 H 1143.82 -3.3512 3.50599 0
M  V30 11211 H 1139.7 -3.92297 2.42124 0
M  V30 11212 H 1143.24 -3.76933 5.86998 0
M  V30 11213 H 1139.14 -4.34216 4.77626 0
M  V30 11214 H 1139.91 -4.4844 6.84722 0
M  V30 11215 N 1142.57 -0.928524 -1.27343 0
M  V30 11216 C 1143.99 -0.62889 -1.46687 0
M  V30 11217 C 1144.19 0.821592 -1.83989 0
M  V30 11218 O 1143.24 1.59941 -1.95385 0
M  V30 11219 C 1144.56 -1.57947 -2.55878 0
M  V30 11220 C 1146.1 -1.58778 -2.69738 0
M  V30 11221 C 1146.58 -2.52535 -3.82087 0
M  V30 11222 N 1148.07 -2.50747 -3.89462 0
M  V30 11223 C 1148.81 -3.19981 -4.75814 0
M  V30 11224 N 1148.3 -3.98598 -5.66649 0
M  V30 11225 N 1150.09 -3.08996 -4.69551 0
M  V30 11226 H 1142.25 -1.86625 -1.01414 0
M  V30 11227 H 1144.51 -0.801293 -0.50659 0
M  V30 11228 H 1144.21 -2.61427 -2.35264 0
M  V30 11229 H 1144.09 -1.3218 -3.53282 0
M  V30 11230 H 1146.48 -0.560292 -2.89732 0
M  V30 11231 H 1146.56 -1.88594 -1.72817 0
M  V30 11232 H 1146.2 -3.55395 -3.62846 0
M  V30 11233 H 1146.13 -2.20015 -4.78436 0
M  V30 11234 H 1148.62 -1.93651 -3.24511 0
M  V30 11235 H 1148.93 -4.4841 -6.29403 0
M  V30 11236 H 1147.28 -4.02701 -5.66442 0
M  V30 11237 H 1150.47 -2.4707 -3.97585 0
M  V30 11238 H 1150.64 -3.63223 -5.36631 0
M  V30 11239 N 1144.05 1.41491 -0.694123 0
M  V30 11240 C 1144.98 2.28189 0.0226347 0
M  V30 11241 C 1145.96 1.42152 0.7894 0
M  V30 11242 O 1147.14 1.71581 0.780519 0
M  V30 11243 C 1144.27 3.22357 1.03942 0
M  V30 11244 C 1143.32 4.24927 0.365994 0
M  V30 11245 S 1144.15 5.28043 -0.890562 0
M  V30 11246 C 1145.31 6.25776 0.124665 0
M  V30 11247 H 1145.54 2.88631 -0.712698 0
M  V30 11248 H 1143.07 1.46607 -0.484344 0
M  V30 11249 H 1145.03 3.77143 1.62091 0
M  V30 11250 H 1143.69 2.61013 1.74732 0
M  V30 11251 H 1142.88 4.9108 1.13388 0
M  V30 11252 H 1142.49 3.73729 -0.142389 0
M  V30 11253 H 1144.78 6.70398 0.978393 0
M  V30 11254 H 1145.72 7.06312 -0.502901 0
M  V30 11255 H 1146.13 5.62466 0.478792 0
M  V30 11256 N 1145.53 0.438773 1.51369 0
M  V30 11257 C 1146.48 -0.389921 2.24641 0
M  V30 11258 C 1147.46 -0.988871 1.26926 0
M  V30 11259 O 1148.65 -0.906774 1.52009 0
M  V30 11260 C 1145.78 -1.48972 3.09293 0
M  V30 11261 C 1144.87 -0.900093 4.14438 0
M  V30 11262 N 1145.26 -0.0397688 5.05784 0
M  V30 11263 C 1143.56 -1.16752 4.30447 0
M  V30 11264 C 1144.26 0.291527 5.80969 0
M  V30 11265 N 1143.23 -0.325219 5.42626 0
M  V30 11266 H 1147.04 0.273335 2.92626 0
M  V30 11267 H 1144.55 0.250934 1.6045 0
M  V30 11268 H 1146.55 -2.09627 3.60364 0
M  V30 11269 H 1145.21 -2.1553 2.42852 0
M  V30 11270 H 1146.22 0.326771 5.16868 0
M  V30 11271 H 1142.9 -1.83049 3.75232 0
M  V30 11272 H 1144.29 0.991699 6.64541 0
M  V30 11273 N 1147.01 -1.56678 0.170181 0
M  V30 11274 C 1147.95 -2.17909 -0.760556 0
M  V30 11275 C 1148.92 -1.11875 -1.22773 0
M  V30 11276 O 1150.11 -1.40021 -1.2961 0
M  V30 11277 C 1147.25 -2.82305 -1.9849 0
M  V30 11278 C 1146.36 -4.02796 -1.5614 0
M  V30 11279 C 1145.5 -4.55121 -2.73932 0
M  V30 11280 C 1144.53 -5.68025 -2.28067 0
M  V30 11281 N 1143.67 -6.14865 -3.38947 0
M  V30 11282 H 1148.51 -2.97098 -0.231629 0
M  V30 11283 H 1146.05 -1.46742 -0.102602 0
M  V30 11284 H 1148.01 -3.17797 -2.70298 0
M  V30 11285 H 1146.64 -2.05721 -2.48755 0
M  V30 11286 H 1145.69 -3.73131 -0.740097 0
M  V30 11287 H 1147 -4.84526 -1.18472 0
M  V30 11288 H 1146.15 -4.92789 -3.53898 0
M  V30 11289 H 1144.89 -3.72445 -3.14858 0
M  V30 11290 H 1143.9 -5.2991 -1.46546 0
M  V30 11291 H 1145.12 -6.52501 -1.88199 0
M  V30 11292 H 1143.07 -5.35119 -3.79452 0
M  V30 11293 H 1142.99 -6.91582 -3.05369 0
M  V30 11294 H 1144.25 -6.57183 -4.19203 0
M  V30 11295 N 1148.48 0.103547 -1.57259 0
M  V30 11296 C 1149.71 0.82624 -1.90232 0
M  V30 11297 C 1150.13 1.71902 -0.763641 0
M  V30 11298 O 1149.49 1.79043 0.285181 0
M  V30 11299 C 1149.54 1.62265 -3.22029 0
M  V30 11300 O 1148.64 2.73091 -3.09023 0
M  V30 11301 H 1147.98 0.227528 -0.6238 0
M  V30 11302 H 1150.51 0.081307 -2.04438 0
M  V30 11303 H 1150.52 2.00865 -3.5513 0
M  V30 11304 H 1149.2 0.967383 -4.04493 0
M  V30 11305 H 1147.78 2.3758 -2.8742 0
M  V30 11306 N 1149.96 1.53094 0.37415 0
M  V30 11307 C 1151.38 1.42676 0.715246 0
M  V30 11308 C 1151.58 0.558992 1.93591 0
M  V30 11309 O 1150.63 0.0381328 2.52471 0
M  V30 11310 C 1151.95 2.85746 0.936459 0
M  V30 11311 C 1153.49 2.95322 1.03701 0
M  V30 11312 C 1153.97 4.39436 1.29075 0
M  V30 11313 N 1155.46 4.42826 1.35864 0
M  V30 11314 C 1156.2 5.51433 1.57191 0
M  V30 11315 N 1155.69 6.701 1.75891 0
M  V30 11316 N 1157.48 5.38998 1.59491 0
M  V30 11317 H 1149.64 2.08025 -0.428854 0
M  V30 11318 H 1151.9 0.939078 -0.129758 0
M  V30 11319 H 1151.6 3.51523 0.111448 0
M  V30 11320 H 1151.48 3.28887 1.84698 0
M  V30 11321 H 1153.87 2.29704 1.85257 0
M  V30 11322 H 1153.95 2.55588 0.104066 0
M  V30 11323 H 1153.59 5.05625 0.480231 0
M  V30 11324 H 1153.52 4.76735 2.23677 0
M  V30 11325 H 1156.01 3.57301 1.23061 0
M  V30 11326 H 1156.32 7.48643 1.91713 0
M  V30 11327 H 1154.67 6.73102 1.73086 0
M  V30 11328 H 1157.86 4.45257 1.44444 0
M  V30 11329 H 1158.03 6.23705 1.75771 0
M  V30 11330 N 1151.44 -0.633461 1.44309 0
M  V30 11331 C 1152.37 -1.7583 1.45462 0
M  V30 11332 C 1153.35 -1.59545 0.313723 0
M  V30 11333 O 1154.53 -1.8146 0.51034 0
M  V30 11334 C 1151.66 -3.13375 1.28506 0
M  V30 11335 C 1150.71 -3.48315 2.46128 0
M  V30 11336 S 1151.54 -3.46058 4.08662 0
M  V30 11337 C 1152.7 -4.86226 3.94125 0
M  V30 11338 H 1152.93 -1.74585 2.4064 0
M  V30 11339 H 1150.46 -0.807868 1.31578 0
M  V30 11340 H 1152.42 -3.92748 1.19411 0
M  V30 11341 H 1151.08 -3.12161 0.348432 0
M  V30 11342 H 1150.27 -4.48397 2.30122 0
M  V30 11343 H 1149.88 -2.76399 2.51951 0
M  V30 11344 H 1152.17 -5.75393 3.57671 0
M  V30 11345 H 1153.11 -5.07287 4.9403 0
M  V30 11346 H 1153.52 -4.60691 3.26227 0
M  V30 11347 N 1152.92 -1.31168 -0.873655 0
M  V30 11348 C 1154.15 -1.23416 -1.65686 0
M  V30 11349 C 1154.56 0.203534 -1.88102 0
M  V30 11350 O 1153.9 1.14476 -1.4367 0
M  V30 11351 C 1153.96 -1.90418 -3.04929 0
M  V30 11352 C 1153.63 -3.39757 -3.05637 0
M  V30 11353 C 1154.62 -4.35565 -2.83865 0
M  V30 11354 C 1152.31 -3.81389 -3.26875 0
M  V30 11355 C 1154.3 -5.70979 -2.83304 0
M  V30 11356 C 1151.99 -5.16918 -3.25943 0
M  V30 11357 C 1152.99 -6.11524 -3.04184 0
M  V30 11358 O 1152.67 -7.44575 -3.0309 0
M  V30 11359 H 1152.41 -0.4278 -0.523415 0
M  V30 11360 H 1154.96 -1.73525 -1.09902 0
M  V30 11361 H 1153.19 -1.34854 -3.62424 0
M  V30 11362 H 1154.88 -1.76631 -3.65453 0
M  V30 11363 H 1155.65 -4.0473 -2.67243 0
M  V30 11364 H 1151.52 -3.08187 -3.42844 0
M  V30 11365 H 1155.07 -6.44796 -2.66239 0
M  V30 11366 H 1150.97 -5.47389 -3.42104 0
M  V30 11367 H 1151.73 -7.53703 -3.19177 0
M  V30 11368 N 1154.4 1.08748 -1.14068 0
M  V30 11369 C 1155.62 1.85353 -0.930532 0
M  V30 11370 C 1156.05 1.80892 0.515717 0
M  V30 11371 O 1155.4 1.19146 1.36652 0
M  V30 11372 C 1155.45 3.30962 -1.43167 0
M  V30 11373 O 1154.56 4.0769 -0.621468 0
M  V30 11374 H 1153.9 0.574485 -0.332962 0
M  V30 11375 H 1156.43 1.37282 -1.51707 0
M  V30 11376 H 1156.44 3.81807 -1.43832 0
M  V30 11377 H 1155.11 3.33524 -2.48464 0
M  V30 11378 H 1153.69 3.66587 -0.683267 0
M  V30 11379 N 1155.87 0.935264 1.26849 0
M  V30 11380 C 1156.81 0.397539 2.25726 0
M  V30 11381 C 1157.82 -0.475928 1.55688 0
M  V30 11382 O 1159.01 -0.287329 1.76172 0
M  V30 11383 C 1156.11 -0.448308 3.35922 0
M  V30 11384 C 1155.28 0.407624 4.35496 0
M  V30 11385 C 1154.34 -0.376815 5.24849 0
M  V30 11386 O 1153.37 0.218109 5.68782 0
M  V30 11387 N 1154.57 -1.67481 5.55815 0
M  V30 11388 H 1157.33 1.24753 2.72501 0
M  V30 11389 H 1154.89 0.803505 1.40554 0
M  V30 11390 H 1156.89 -0.980338 3.92647 0
M  V30 11391 H 1155.46 -1.19908 2.88688 0
M  V30 11392 H 1154.68 1.12091 3.77928 0
M  V30 11393 H 1155.96 0.992512 4.99026 0
M  V30 11394 H 1155.36 -2.18037 5.21993 0
M  V30 11395 H 1153.92 -2.15321 6.15207 0
M  V30 11396 N 1157.35 -1.41121 0.701616 0
M  V30 11397 C 1158.59 -2.02993 0.239383 0
M  V30 11398 C 1158.96 -1.5439 -1.1414 0
M  V30 11399 O 1160.16 -2.08229 -1.69982 0
M  V30 11400 C 1158.43 -3.56128 0.301232 0
M  V30 11401 S 1159.99 -4.38716 -0.0860681 0
M  V30 11402 H 1156.81 -0.704494 0.0959645 0
M  V30 11403 H 1159.41 -1.72461 0.920736 0
M  V30 11404 H 1158.11 -3.88996 1.30805 0
M  V30 11405 H 1157.64 -3.91371 -0.399069 0
M  V30 11406 H 1159.66 -4.78537 -1.31212 0
M  V30 11407 N 1158.83 -0.446794 -1.51134 0
M  V30 11408 C 1160.08 0.116666 -2.02464 0
M  V30 11409 C 1160.41 1.41532 -1.32975 0
M  V30 11410 O 1159.68 1.89278 -0.447651 0
M  V30 11411 C 1159.97 0.325659 -3.58624 0
M  V30 11412 C 1159.82 -0.992307 -4.38718 0
M  V30 11413 C 1161.14 1.09121 -4.26357 0
M  V30 11414 H 1158.26 0.0409262 -0.735863 0
M  V30 11415 H 1160.9 -0.587641 -1.80684 0
M  V30 11416 H 1159.05 0.925585 -3.77313 0
M  V30 11417 H 1160.72 -1.62694 -4.31658 0
M  V30 11418 H 1158.97 -1.5947 -4.03425 0
M  V30 11419 H 1159.64 -0.800005 -5.46172 0
M  V30 11420 H 1162.11 0.582944 -4.11996 0
M  V30 11421 H 1160.99 1.20621 -5.35483 0
M  V30 11422 H 1161.25 2.12171 -3.87861 0
M  V30 11423 N 1160.31 1.56586 -0.178487 0
M  V30 11424 C 1161.72 1.58609 0.17759 0
M  V30 11425 C 1161.92 1.19411 1.62306 0
M  V30 11426 O 1160.98 0.90906 2.35568 0
M  V30 11427 C 1162.29 3.005 -0.109722 0
M  V30 11428 C 1163.84 3.12962 -0.0485036 0
M  V30 11429 C 1164.32 4.56957 -0.308901 0
M  V30 11430 N 1165.81 4.62487 -0.25693 0
M  V30 11431 C 1166.54 5.71767 -0.432488 0
M  V30 11432 N 1166.04 6.89577 -0.667494 0
M  V30 11433 N 1167.83 5.60895 -0.367895 0
M  V30 11434 H 1159.98 1.80351 -1.12193 0
M  V30 11435 H 1162.25 0.83623 -0.446569 0
M  V30 11436 H 1161.95 3.3368 -1.11133 0
M  V30 11437 H 1161.83 3.72472 0.595373 0
M  V30 11438 H 1164.21 2.79604 0.943687 0
M  V30 11439 H 1164.29 2.43411 -0.78642 0
M  V30 11440 H 1163.94 4.91025 -1.29833 0
M  V30 11441 H 1163.87 5.24676 0.449711 0
M  V30 11442 H 1166.36 3.77813 -0.0812308 0
M  V30 11443 H 1166.67 7.68744 -0.79071 0
M  V30 11444 H 1165.02 6.91423 -0.704193 0
M  V30 11445 H 1168.21 4.67735 -0.184837 0
M  V30 11446 H 1168.38 6.46005 -0.508138 0
M  V30 11447 N 1161.79 -0.095206 1.57312 0
M  V30 11448 C 1162.72 -1.14662 1.97301 0
M  V30 11449 C 1163.7 -1.38845 0.846212 0
M  V30 11450 O 1164.88 -1.52607 1.1065 0
M  V30 11451 C 1162.01 -2.49582 2.28968 0
M  V30 11452 C 1161.05 -2.41681 3.51415 0
M  V30 11453 S 1161.89 -1.83343 5.03136 0
M  V30 11454 C 1163.04 -3.19888 5.3798 0
M  V30 11455 H 1163.28 -0.805726 2.86174 0
M  V30 11456 H 1160.81 -0.302881 1.514 0
M  V30 11457 H 1162.77 -3.27202 2.47889 0
M  V30 11458 H 1161.43 -2.80841 1.40667 0
M  V30 11459 H 1160.62 -3.41122 3.71015 0
M  V30 11460 H 1160.22 -1.7219 3.32004 0
M  V30 11461 H 1162.52 -4.16161 5.34618 0
M  V30 11462 H 1163.46 -3.05093 6.39002 0
M  V30 11463 H 1163.87 -3.19414 4.6544 0
M  V30 11464 N 1163.26 -1.53291 -0.366026 0
M  V30 11465 C 1164.68 -1.43053 -0.707669 0
M  V30 11466 C 1164.88 -0.56925 -1.93292 0
M  V30 11467 O 1163.94 -0.0515214 -2.52447 0
M  V30 11468 C 1165.25 -2.86239 -0.921292 0
M  V30 11469 C 1166.8 -2.95868 -1.02133 0
M  V30 11470 C 1167.27 -4.40114 -1.26743 0
M  V30 11471 N 1168.76 -4.43541 -1.33514 0
M  V30 11472 C 1169.5 -5.52259 -1.54264 0
M  V30 11473 N 1168.99 -6.71024 -1.72335 0
M  V30 11474 N 1170.79 -5.39836 -1.5663 0
M  V30 11475 H 1162.94 -2.07795 0.43988 0
M  V30 11476 H 1165.2 -0.938376 0.134736 0
M  V30 11477 H 1164.91 -3.51578 -0.0928042 0
M  V30 11478 H 1164.78 -3.29862 -1.82951 0
M  V30 11479 H 1167.17 -2.30683 -1.84036 0
M  V30 11480 H 1167.25 -2.5564 -0.0905097 0
M  V30 11481 H 1166.89 -5.05872 -0.453409 0
M  V30 11482 H 1166.82 -4.77914 -2.21146 0
M  V30 11483 H 1169.31 -3.57949 -1.21165 0
M  V30 11484 H 1169.63 -7.49649 -1.8774 0
M  V30 11485 H 1167.97 -6.7401 -1.69514 0
M  V30 11486 H 1171.16 -4.46017 -1.4208 0
M  V30 11487 H 1171.34 -6.24629 -1.72461 0
M  V30 11488 N 1164.74 0.6258 -1.44643 0
M  V30 11489 C 1165.69 1.73135 -1.48352 0
M  V30 11490 C 1166.68 1.57076 -0.348716 0
M  V30 11491 O 1167.87 1.66722 -0.594379 0
M  V30 11492 C 1165 3.11838 -1.43568 0
M  V30 11493 C 1164.08 3.33348 -2.62183 0
M  V30 11494 N 1164.47 3.252 -3.87399 0
M  V30 11495 C 1162.77 3.64162 -2.57492 0
M  V30 11496 C 1163.47 3.47544 -4.66463 0
M  V30 11497 N 1162.45 3.70672 -3.97622 0
M  V30 11498 H 1166.25 1.65301 -2.43008 0
M  V30 11499 H 1163.77 0.828449 -1.3968 0
M  V30 11500 H 1165.76 3.91127 -1.44309 0
M  V30 11501 H 1164.42 3.20834 -0.499547 0
M  V30 11502 H 1165.43 3.04001 -4.19289 0
M  V30 11503 H 1162.11 3.80107 -1.727 0
M  V30 11504 H 1163.5 3.46792 -5.75487 0
M  V30 11505 N 1166.22 1.31629 0.866686 0
M  V30 11506 C 1167.15 1.22151 1.99001 0
M  V30 11507 C 1168.13 0.107972 1.69757 0
M  V30 11508 O 1169.32 0.293125 1.91975 0
M  V30 11509 C 1166.45 0.93144 3.34577 0
M  V30 11510 C 1165.4 2.0049 3.78137 0
M  V30 11511 C 1164.73 1.56747 5.11209 0
M  V30 11512 C 1166.03 3.41844 3.94892 0
M  V30 11513 H 1167.72 2.16132 2.0719 0
M  V30 11514 H 1165.27 1.04051 0.995463 0
M  V30 11515 H 1167.22 0.851719 4.12703 0
M  V30 11516 H 1165.94 -0.0440289 3.2657 0
M  V30 11517 H 1164.6 2.07457 3.02253 0
M  V30 11518 H 1164.25 0.579767 4.99648 0
M  V30 11519 H 1163.95 2.28562 5.41326 0
M  V30 11520 H 1165.47 1.50188 5.91841 0
M  V30 11521 H 1166.89 3.37534 4.63405 0
M  V30 11522 H 1165.29 4.11905 4.36411 0
M  V30 11523 H 1166.36 3.82389 2.98172 0
M  V30 11524 N 1167.7 -1.08142 1.14644 0
M  V30 11525 C 1168.92 -1.84857 0.940349 0
M  V30 11526 C 1169.35 -1.81163 -0.506117 0
M  V30 11527 O 1168.71 -1.19869 -1.36019 0
M  V30 11528 C 1168.76 -3.30198 1.4492 0
M  V30 11529 O 1167.86 -4.07355 0.64308 0
M  V30 11530 H 1167.2 -0.572711 0.336003 0
M  V30 11531 H 1169.73 -1.36475 1.52432 0
M  V30 11532 H 1169.74 -3.81039 1.45854 0
M  V30 11533 H 1168.42 -3.32202 2.50229 0
M  V30 11534 H 1166.99 -3.66219 0.702698 0
M  V30 11535 N 1169.18 -0.941978 -1.26351 0
M  V30 11536 C 1170.11 -0.409504 -2.25512 0
M  V30 11537 C 1171.12 0.467665 -1.55938 0
M  V30 11538 O 1172.31 0.277982 -1.76322 0
M  V30 11539 C 1169.41 0.430487 -3.36155 0
M  V30 11540 C 1168.58 -0.430714 -4.35274 0
M  V30 11541 C 1167.64 0.348976 -5.25042 0
M  V30 11542 O 1166.67 -0.24827 -5.68658 0
M  V30 11543 N 1167.87 1.64531 -5.56695 0
M  V30 11544 H 1170.64 -1.26196 -2.71836 0
M  V30 11545 H 1168.2 -0.810947 -1.40126 0
M  V30 11546 H 1170.19 0.959501 -3.93161 0
M  V30 11547 H 1168.76 1.18375 -2.8932 0
M  V30 11548 H 1167.98 -1.14093 -3.77328 0
M  V30 11549 H 1169.27 -1.01896 -4.98492 0
M  V30 11550 H 1168.67 2.15266 -5.23142 0
M  V30 11551 H 1167.22 2.12055 -6.16341 0
M  V30 11552 N 1170.66 1.40747 -0.709091 0
M  V30 11553 C 1171.57 2.3454 -0.0532205 0
M  V30 11554 C 1172.58 1.56956 0.751057 0
M  V30 11555 O 1173.76 1.89375 0.685509 0
M  V30 11556 C 1170.82 3.35809 0.862157 0
M  V30 11557 C 1169.88 4.29273 0.0485632 0
M  V30 11558 C 1169.12 5.25705 0.920345 0
M  V30 11559 O 1169.34 5.27933 2.15969 0
M  V30 11560 O 1168.27 6.00806 0.3628 0
M  V30 11561 H 1172.1 2.92232 -0.826698 0
M  V30 11562 H 1169.68 1.4183 -0.469519 0
M  V30 11563 H 1171.57 3.97931 1.38668 0
M  V30 11564 H 1170.24 2.8054 1.61489 0
M  V30 11565 H 1169.15 3.70456 -0.520873 0
M  V30 11566 H 1170.48 4.87676 -0.665807 0
M  V30 11567 N 1172.13 0.454803 1.50895 0
M  V30 11568 C 1173.38 -0.10577 2.02224 0
M  V30 11569 C 1173.71 -1.41176 1.33789 0
M  V30 11570 O 1172.96 -1.90522 0.447181 0
M  V30 11571 C 1173.26 -0.354159 3.55641 0
M  V30 11572 C 1172.93 0.868136 4.42464 0
M  V30 11573 C 1171.59 1.2033 4.65912 0
M  V30 11574 C 1173.94 1.68272 4.93289 0
M  V30 11575 C 1171.27 2.3534 5.37431 0
M  V30 11576 C 1173.62 2.82396 5.6607 0
M  V30 11577 C 1172.29 3.16346 5.87777 0
M  V30 11578 H 1171.56 -0.0387041 0.739989 0
M  V30 11579 H 1174.2 0.605564 1.81673 0
M  V30 11580 H 1172.51 -1.14757 3.74617 0
M  V30 11581 H 1174.21 -0.8016 3.92906 0
M  V30 11582 H 1170.8 0.596995 4.24422 0
M  V30 11583 H 1174.98 1.43698 4.75042 0
M  V30 11584 H 1170.24 2.61936 5.52449 0
M  V30 11585 H 1174.41 3.45873 6.04438 0
M  V30 11586 H 1172.04 4.05574 6.42973 0
M  V30 11587 N 1173.61 -1.56489 0.186789 0
M  V30 11588 C 1174.86 -1.96952 -0.453261 0
M  V30 11589 C 1175.18 -1.07451 -1.62725 0
M  V30 11590 O 1174.45 -0.144046 -1.9537 0
M  V30 11591 H 1173.03 -0.727295 -0.170445 0
M  V30 11592 H 1175.69 -1.92999 0.271584 0
M  V30 11593 H 1174.79 -3.01594 -0.802951 0
M  V30 11594 N 1175.09 0.086862 -1.5736 0
M  V30 11595 C 1176.34 0.784846 -1.87648 0
M  V30 11596 C 1176.69 1.7594 -0.778647 0
M  V30 11597 O 1175.98 1.90349 0.218612 0
M  V30 11598 C 1176.18 1.54537 -3.22263 0
M  V30 11599 C 1176.01 0.645971 -4.45036 0
M  V30 11600 C 1174.78 0.288589 -5.04475 0
M  V30 11601 C 1176.97 -0.0506915 -5.14275 0
M  V30 11602 N 1174.96 -0.618109 -6.1078 0
M  V30 11603 C 1176.33 -0.815144 -6.14618 0
M  V30 11604 C 1178.38 -0.123748 -4.97746 0
M  V30 11605 C 1177.09 -1.64584 -7.00218 0
M  V30 11606 C 1179.11 -0.94137 -5.8386 0
M  V30 11607 C 1178.47 -1.69392 -6.83729 0
M  V30 11608 H 1174.57 0.263103 -0.736411 0
M  V30 11609 H 1177.16 0.0470027 -1.94643 0
M  V30 11610 H 1175.33 2.25403 -3.16304 0
M  V30 11611 H 1177.06 2.19119 -3.40248 0
M  V30 11612 H 1173.81 0.638093 -4.69282 0
M  V30 11613 H 1174.24 -1.06426 -6.68583 0
M  V30 11614 H 1178.88 0.443728 -4.20465 0
M  V30 11615 H 1176.6 -2.22435 -7.76884 0
M  V30 11616 H 1180.18 -1.00068 -5.7313 0
M  V30 11617 H 1179.06 -2.31639 -7.49208 0
M  V30 11618 N 1176.57 1.53483 0.357892 0
M  V30 11619 C 1177.5 1.83444 1.44466 0
M  V30 11620 C 1178.48 0.688486 1.55544 0
M  V30 11621 O 1179.66 0.93906 1.69986 0
M  V30 11622 C 1176.79 2.03122 2.81707 0
M  V30 11623 C 1175.75 3.1891 2.85448 0
M  V30 11624 C 1175.07 3.23895 4.25436 0
M  V30 11625 C 1176.37 4.57334 2.52275 0
M  V30 11626 H 1178.07 2.74456 1.19642 0
M  V30 11627 H 1175.61 1.3206 0.574112 0
M  V30 11628 H 1177.57 2.22666 3.57768 0
M  V30 11629 H 1176.29 1.08827 3.07935 0
M  V30 11630 H 1174.95 2.99199 2.11838 0
M  V30 11631 H 1174.6 2.27223 4.48753 0
M  V30 11632 H 1174.3 4.01694 4.28854 0
M  V30 11633 H 1175.82 3.45632 5.0336 0
M  V30 11634 H 1177.24 4.76988 3.1805 0
M  V30 11635 H 1175.63 5.37431 2.66998 0
M  V30 11636 H 1176.7 4.61921 1.47501 0
M  V30 11637 N 1178.05 -0.61812 1.44973 0
M  V30 11638 C 1178.98 -1.74299 1.48837 0
M  V30 11639 C 1179.99 -1.58296 0.38028 0
M  V30 11640 O 1181.18 -1.66371 0.646757 0
M  V30 11641 C 1178.28 -3.12179 1.31901 0
M  V30 11642 C 1177.45 -3.54519 2.56193 0
M  V30 11643 C 1176.51 -4.71324 2.33966 0
M  V30 11644 O 1175.54 -4.78975 3.07525 0
M  V30 11645 N 1176.74 -5.63894 1.37854 0
M  V30 11646 H 1179.5 -1.7145 2.45815 0
M  V30 11647 H 1177.07 -0.803087 1.40578 0
M  V30 11648 H 1179.06 -3.88059 1.14858 0
M  V30 11649 H 1177.63 -3.09595 0.43239 0
M  V30 11650 H 1176.85 -2.68711 2.88423 0
M  V30 11651 H 1178.14 -3.79563 3.38835 0
M  V30 11652 H 1177.53 -5.60418 0.771273 0
M  V30 11653 H 1176.09 -6.3935 1.26787 0
M  V30 11654 N 1179.52 -1.32087 -0.859693 0
M  V30 11655 C 1180.77 -1.21716 -1.60836 0
M  V30 11656 C 1181.09 0.220904 -1.94349 0
M  V30 11657 O 1182.29 0.446422 -2.67805 0
M  V30 11658 C 1180.75 -2.13143 -2.89997 0
M  V30 11659 C 1180.36 -3.62003 -2.63928 0
M  V30 11660 C 1182.1 -2.11596 -3.68004 0
M  V30 11661 C 1180.01 -4.45407 -3.89059 0
M  V30 11662 H 1178.94 -0.45199 -0.603507 0
M  V30 11663 H 1181.59 -1.57013 -0.949687 0
M  V30 11664 H 1179.97 -1.70755 -3.57294 0
M  V30 11665 H 1181.14 -4.12701 -2.04974 0
M  V30 11666 H 1179.46 -3.6563 -1.99258 0
M  V30 11667 H 1182.06 -2.71149 -4.6085 0
M  V30 11668 H 1182.4 -1.10568 -4.01348 0
M  V30 11669 H 1182.93 -2.52238 -3.07605 0
M  V30 11670 H 1179.67 -5.4723 -3.60859 0
M  V30 11671 H 1179.19 -3.99462 -4.47427 0
M  V30 11672 H 1180.87 -4.58149 -4.56846 0
M  V30 11673 N 1181 1.07532 -1.15215 0
M  V30 11674 C 1182.23 1.83817 -0.949687 0
M  V30 11675 C 1182.64 1.82004 0.501991 0
M  V30 11676 O 1182 1.23014 1.34811 0
M  V30 11677 C 1182.05 3.30978 -1.45382 0
M  V30 11678 O 1181.77 3.32844 -2.84863 0
M  V30 11679 C 1183.27 4.24037 -1.29257 0
M  V30 11680 H 1180.49 0.58 -0.337404 0
M  V30 11681 H 1183.04 1.35752 -1.52944 0
M  V30 11682 H 1181.19 3.76399 -0.916638 0
M  V30 11683 H 1181.61 4.24773 -3.07682 0
M  V30 11684 H 1183.08 5.25371 -1.69379 0
M  V30 11685 H 1183.56 4.38563 -0.236519 0
M  V30 11686 H 1184.16 3.8445 -1.81874 0
M  V30 11687 N 1182.48 0.948665 1.2585 0
M  V30 11688 C 1183.89 0.641829 1.75321 0
M  V30 11689 C 1184.24 -0.842903 1.77171 0
M  V30 11690 O 1183.37 -1.65967 1.38867 0
M  V30 11691 C 1183.96 1.15835 3.18383 0
M  V30 11692 C 1182.52 0.901784 3.65438 0
M  V30 11693 C 1181.67 1.30489 2.44679 0
M  V30 11694 H 1184.62 1.12614 1.1182 0
M  V30 11695 H 1184.64 0.515639 3.7699 0
M  V30 11696 H 1184.15 2.23897 3.17004 0
M  V30 11697 H 1182.25 -0.164135 3.72238 0
M  V30 11698 H 1182.37 1.53405 4.53876 0
M  V30 11699 H 1180.73 0.723278 2.44215 0
M  V30 11700 H 1181.51 2.3946 2.45996 0
M  V30 11701 N 1183.96 -1.40369 0.716545 0
M  V30 11702 C 1184.89 -2.29186 0.0251905 0
M  V30 11703 C 1185.9 -1.45877 -0.722761 0
M  V30 11704 O 1187.09 -1.69155 -0.569982 0
M  V30 11705 C 1184.19 -3.24161 -0.988589 0
M  V30 11706 C 1183.37 -4.36329 -0.30597 0
M  V30 11707 C 1182.42 -5.11736 -1.22527 0
M  V30 11708 O 1181.45 -5.64758 -0.7097 0
M  V30 11709 N 1182.65 -5.21183 -2.55634 0
M  V30 11710 H 1185.42 -2.8916 0.787808 0
M  V30 11711 H 1182.98 -1.51749 0.564253 0
M  V30 11712 H 1184.97 -3.71479 -1.60578 0
M  V30 11713 H 1183.54 -2.65347 -1.65256 0
M  V30 11714 H 1182.76 -3.91125 0.491432 0
M  V30 11715 H 1184.05 -5.08523 0.167827 0
M  V30 11716 H 1183.45 -4.7959 -3.00017 0
M  V30 11717 H 1182 -5.72005 -3.12495 0
M  V30 11718 N 1185.44 -0.462799 -1.50652 0
M  V30 11719 C 1186.35 0.341191 -2.32106 0
M  V30 11720 C 1187.36 1.00384 -1.42123 0
M  V30 11721 O 1188.54 0.993635 -1.75182 0
M  V30 11722 C 1185.6 1.41356 -3.16575 0
M  V30 11723 C 1184.66 0.768375 -4.22368 0
M  V30 11724 C 1183.9 1.78964 -5.028 0
M  V30 11725 O 1184.12 3.01515 -4.84195 0
M  V30 11726 O 1183.05 1.36606 -5.86193 0
M  V30 11727 H 1186.88 -0.324482 -3.01962 0
M  V30 11728 H 1184.47 -0.224807 -1.47699 0
M  V30 11729 H 1186.35 2.0349 -3.69012 0
M  V30 11730 H 1185.02 2.06285 -2.49456 0
M  V30 11731 H 1183.93 0.108297 -3.73943 0
M  V30 11732 H 1185.26 0.162164 -4.91933 0
M  V30 11733 N 1186.91 1.56388 -0.195085 0
M  V30 11734 C 1188.16 1.9758 0.443686 0
M  V30 11735 C 1188.49 1.08196 1.61629 0
M  V30 11736 O 1187.74 0.121061 1.95325 0
M  V30 11737 C 1188.04 3.44651 0.946051 0
M  V30 11738 C 1187.71 4.50758 -0.11318 0
M  V30 11739 C 1186.37 4.79499 -0.404229 0
M  V30 11740 C 1188.72 5.14534 -0.830899 0
M  V30 11741 C 1186.05 5.69307 -1.41797 0
M  V30 11742 C 1188.4 6.05438 -1.83379 0
M  V30 11743 C 1187.07 6.32535 -2.13204 0
M  V30 11744 H 1186.34 0.722995 0.162356 0
M  V30 11745 H 1188.98 1.8926 -0.292049 0
M  V30 11746 H 1187.29 3.50042 1.76006 0
M  V30 11747 H 1188.99 3.73878 1.44969 0
M  V30 11748 H 1185.58 4.28421 0.123833 0
M  V30 11749 H 1189.76 4.92421 -0.61927 0
M  V30 11750 H 1185.02 5.88575 -1.65496 0
M  V30 11751 H 1189.19 6.53915 -2.39516 0
M  V30 11752 H 1186.82 7.01924 -2.91902 0
M  V30 11753 N 1188.39 -0.0785156 1.57404 0
M  V30 11754 C 1189.32 -1.09446 2.06262 0
M  V30 11755 C 1190.3 -1.40777 0.954772 0
M  V30 11756 O 1191.49 -1.5052 1.22708 0
M  V30 11757 C 1188.62 -2.40979 2.50093 0
M  V30 11758 C 1187.57 -2.24017 3.64692 0
M  V30 11759 C 1186.9 -3.60873 3.94556 0
M  V30 11760 C 1188.2 -1.66696 4.94985 0
M  V30 11761 H 1189.89 -0.687928 2.9139 0
M  V30 11762 H 1187.44 -0.329466 1.4018 0
M  V30 11763 H 1189.39 -3.12337 2.82884 0
M  V30 11764 H 1188.12 -2.83599 1.61985 0
M  V30 11765 H 1186.77 -1.55101 3.32174 0
M  V30 11766 H 1186.42 -4.01051 3.0359 0
M  V30 11767 H 1186.12 -3.50365 4.71718 0
M  V30 11768 H 1187.65 -4.33673 4.29837 0
M  V30 11769 H 1189.06 -2.27913 5.2605 0
M  V30 11770 H 1187.46 -1.66902 5.76423 0
M  V30 11771 H 1188.53 -0.627827 4.80818 0
M  V30 11772 N 1189.87 -1.5367 -0.349747 0
M  V30 11773 C 1191.11 -1.72329 -1.09919 0
M  V30 11774 C 1191.47 -0.473178 -1.86078 0
M  V30 11775 O 1192.68 -0.53669 -2.63388 0
M  V30 11776 C 1190.95 -2.94817 -2.02034 0
M  V30 11777 S 1192.51 -3.34257 -2.84285 0
M  V30 11778 H 1189.32 -0.606225 -0.3715 0
M  V30 11779 H 1191.93 -1.91803 -0.378399 0
M  V30 11780 H 1190.63 -3.83979 -1.44874 0
M  V30 11781 H 1190.16 -2.7779 -2.78561 0
M  V30 11782 H 1192.18 -2.87506 -4.04419 0
M  V30 11783 N 1191.35 0.610423 -1.45298 0
M  V30 11784 C 1192.28 1.73493 -1.48241 0
M  V30 11785 C 1193.26 1.59025 -0.339065 0
M  V30 11786 O 1194.44 1.80625 -0.539144 0
M  V30 11787 C 1191.57 3.11291 -1.33476 0
M  V30 11788 C 1190.62 3.44355 -2.51638 0
M  V30 11789 S 1191.45 3.39512 -4.14116 0
M  V30 11790 C 1192.61 4.79895 -4.01811 0
M  V30 11791 H 1192.84 1.70734 -2.43387 0
M  V30 11792 H 1190.37 0.786833 -1.32847 0
M  V30 11793 H 1192.33 3.90799 -1.25644 0
M  V30 11794 H 1190.99 3.11568 -0.39805 0
M  V30 11795 H 1190.18 4.44679 -2.37226 0
M  V30 11796 H 1189.79 2.72356 -2.56317 0
M  V30 11797 H 1192.08 5.6963 -3.6678 0
M  V30 11798 H 1193.02 4.99363 -5.02038 0
M  V30 11799 H 1193.43 4.55443 -3.33515 0
M  V30 11800 N 1192.83 1.32541 0.852676 0
M  V30 11801 C 1193.77 1.21643 1.96142 0
M  V30 11802 C 1194.74 0.0981496 1.6581 0
M  V30 11803 O 1195.93 0.27404 1.88822 0
M  V30 11804 C 1193.07 0.947483 3.31838 0
M  V30 11805 C 1192.18 2.15074 3.74656 0
M  V30 11806 C 1191.32 1.81711 4.99154 0
M  V30 11807 C 1190.36 2.98346 5.34468 0
M  V30 11808 N 1189.49 2.65062 6.50143 0
M  V30 11809 H 1194.33 2.16479 2.04795 0
M  V30 11810 H 1191.87 1.07664 1.00234 0
M  V30 11811 H 1193.83 0.772038 4.09994 0
M  V30 11812 H 1192.46 0.0359112 3.2278 0
M  V30 11813 H 1191.51 2.43639 2.92137 0
M  V30 11814 H 1192.82 3.02314 3.96747 0
M  V30 11815 H 1191.98 1.60729 5.85022 0
M  V30 11816 H 1190.71 0.916875 4.79004 0
M  V30 11817 H 1189.72 3.19956 4.47111 0
M  V30 11818 H 1190.94 3.89104 5.56574 0
M  V30 11819 H 1188.89 1.77582 6.31507 0
M  V30 11820 H 1188.81 3.45832 6.72262 0
M  V30 11821 H 1190.08 2.47516 7.39159 0
M  V30 11822 N 1194.3 -1.0692 1.15784 0
M  V30 11823 C 1195.27 -2.12407 0.861167 0
M  V30 11824 C 1196.27 -1.6018 -0.141031 0
M  V30 11825 O 1197.46 -1.73972 0.0891192 0
M  V30 11826 C 1194.59 -3.39693 0.286636 0
M  V30 11827 H 1195.78 -2.40157 1.79623 0
M  V30 11828 H 1193.34 -1.22881 0.965916 0
M  V30 11829 H 1194.07 -3.17587 -0.656417 0
M  V30 11830 H 1193.86 -3.78903 1.0087 0
M  V30 11831 H 1195.35 -4.17488 0.0967971 0
M  V30 11832 N 1195.78 -0.955326 -1.25345 0
M  V30 11833 C 1196.71 -0.494145 -2.28211 0
M  V30 11834 C 1197.69 0.459875 -1.63766 0
M  V30 11835 O 1198.88 0.358679 -1.90859 0
M  V30 11836 C 1196.01 0.228228 -3.46549 0
M  V30 11837 C 1194.96 -0.640601 -4.23179 0
M  V30 11838 C 1194.29 0.212553 -5.34277 0
M  V30 11839 C 1195.59 -1.91906 -4.85767 0
M  V30 11840 H 1197.28 -1.35391 -2.67039 0
M  V30 11841 H 1194.83 -0.652462 -1.2837 0
M  V30 11842 H 1196.78 0.561995 -4.17636 0
M  V30 11843 H 1195.51 1.12224 -3.06714 0
M  V30 11844 H 1194.16 -0.957462 -3.53876 0
M  V30 11845 H 1193.81 1.10634 -4.90682 0
M  V30 11846 H 1193.51 -0.365473 -5.86462 0
M  V30 11847 H 1195.04 0.541271 -6.08196 0
M  V30 11848 H 1196.45 -1.65165 -5.48993 0
M  V30 11849 H 1194.85 -2.44279 -5.48131 0
M  V30 11850 H 1195.92 -2.62173 -4.07914 0
M  V30 11851 N 1197.26 1.39987 -0.723979 0
M  V30 11852 C 1198.19 2.3332 -0.0917282 0
M  V30 11853 C 1199.17 1.53335 0.736361 0
M  V30 11854 O 1200.36 1.81771 0.683582 0
M  V30 11855 C 1197.49 3.3737 0.824549 0
M  V30 11856 C 1196.44 4.2788 0.101452 0
M  V30 11857 C 1195.77 5.22536 1.13401 0
M  V30 11858 C 1197.07 5.11649 -1.04939 0
M  V30 11859 H 1198.76 2.86441 -0.871318 0
M  V30 11860 H 1196.31 1.37725 -0.420448 0
M  V30 11861 H 1198.26 4.01607 1.27631 0
M  V30 11862 H 1196.98 2.82663 1.63613 0
M  V30 11863 H 1195.64 3.65107 -0.330569 0
M  V30 11864 H 1195.29 4.64131 1.93886 0
M  V30 11865 H 1194.99 5.83938 0.65502 0
M  V30 11866 H 1196.52 5.89651 1.58569 0
M  V30 11867 H 1197.93 5.69293 -0.6766 0
M  V30 11868 H 1196.33 5.82137 -1.45729 0
M  V30 11869 H 1197.4 4.47132 -1.8762 0
M  V30 11870 N 1198.74 0.470782 1.50404 0
M  V30 11871 C 1199.67 -0.313458 2.31386 0
M  V30 11872 C 1200.65 -0.990623 1.38278 0
M  V30 11873 O 1201.84 -0.987854 1.67198 0
M  V30 11874 C 1198.97 -1.39599 3.18009 0
M  V30 11875 C 1197.92 -0.840443 4.19667 0
M  V30 11876 C 1197.25 -2.02124 4.95025 0
M  V30 11877 C 1198.55 0.148055 5.2209 0
M  V30 11878 H 1200.24 0.362432 2.97198 0
M  V30 11879 H 1197.79 0.175745 1.42924 0
M  V30 11880 H 1199.74 -1.9521 3.73458 0
M  V30 11881 H 1198.46 -2.10064 2.50081 0
M  V30 11882 H 1197.12 -0.306302 3.65318 0
M  V30 11883 H 1196.77 -2.71286 4.23571 0
M  V30 11884 H 1196.47 -1.65574 5.6379 0
M  V30 11885 H 1197.99 -2.58226 5.5331 0
M  V30 11886 H 1199.41 -0.318874 5.72413 0
M  V30 11887 H 1197.8 0.427811 5.98573 0
M  V30 11888 H 1198.87 1.07404 4.72855 0
M  V30 11889 N 1200.22 -1.56282 0.203376 0
M  V30 11890 C 1201.46 -1.97812 -0.433202 0
M  V30 11891 C 1201.79 -1.09052 -1.61053 0
M  V30 11892 O 1201.05 -0.131417 -1.95258 0
M  V30 11893 C 1201.35 -3.45148 -0.927759 0
M  V30 11894 C 1201.01 -4.50692 0.137083 0
M  V30 11895 C 1199.67 -4.79278 0.429652 0
M  V30 11896 C 1202.03 -5.14086 0.858174 0
M  V30 11897 C 1199.35 -5.68547 1.44815 0
M  V30 11898 C 1201.71 -6.04457 1.86588 0
M  V30 11899 C 1200.37 -6.31395 2.16556 0
M  V30 11900 H 1199.64 -0.723846 -0.15852 0
M  V30 11901 H 1202.29 -1.89102 0.302082 0
M  V30 11902 H 1200.59 -3.5097 -1.74147 0
M  V30 11903 H 1202.29 -3.74642 -1.42984 0
M  V30 11904 H 1198.88 -4.28481 -0.101111 0
M  V30 11905 H 1203.06 -4.92086 0.645376 0
M  V30 11906 H 1198.32 -5.87689 1.68615 0
M  V30 11907 H 1202.49 -6.52636 2.4298 0
M  V30 11908 H 1200.12 -7.00366 2.9562 0
M  V30 11909 N 1201.7 0.070167 -1.57444 0
M  V30 11910 C 1202.92 0.785703 -1.91941 0
M  V30 11911 C 1203.35 1.70243 -0.799932 0
M  V30 11912 O 1202.7 1.79608 0.247139 0
M  V30 11913 C 1202.75 1.55398 -3.25398 0
M  V30 11914 O 1201.86 2.66475 -3.14746 0
M  V30 11915 H 1201.2 0.214245 -0.628486 0
M  V30 11916 H 1203.73 0.0379243 -2.04565 0
M  V30 11917 H 1203.74 1.93287 -3.5931 0
M  V30 11918 H 1202.41 0.881366 -4.06454 0
M  V30 11919 H 1200.99 2.3143 -2.92394 0
M  V30 11920 N 1203.17 1.53854 0.341593 0
M  V30 11921 C 1204.42 1.7041 1.07905 0
M  V30 11922 C 1204.74 0.475039 1.89744 0
M  V30 11923 O 1205.94 0.521589 2.66443 0
M  V30 11924 C 1204.4 3.01342 1.96776 0
M  V30 11925 C 1204.01 4.31592 1.20135 0
M  V30 11926 C 1205.75 3.27264 2.70367 0
M  V30 11927 C 1203.66 5.53598 2.08047 0
M  V30 11928 H 1202.59 0.635005 0.406553 0
M  V30 11929 H 1205.24 1.80353 0.338409 0
M  V30 11930 H 1203.62 2.85261 2.74667 0
M  V30 11931 H 1204.79 4.58382 0.471404 0
M  V30 11932 H 1203.11 4.12298 0.583039 0
M  V30 11933 H 1205.71 4.15607 3.36415 0
M  V30 11934 H 1206.05 2.44357 3.37039 0
M  V30 11935 H 1206.58 3.4413 1.99548 0
M  V30 11936 H 1203.32 6.39053 1.45914 0
M  V30 11937 H 1202.84 5.31052 2.78825 0
M  V30 11938 H 1204.52 5.89314 2.67055 0
M  V30 11939 N 1204.65 -0.602709 1.4562 0
M  V30 11940 C 1205.9 -1.35769 1.49163 0
M  V30 11941 C 1206.21 -1.95102 0.139485 0
M  V30 11942 O 1207.42 -2.71449 0.0525919 0
M  V30 11943 C 1205.88 -2.45959 2.62739 0
M  V30 11944 C 1205.48 -1.93017 4.04288 0
M  V30 11945 C 1207.23 -3.22926 2.75534 0
M  V30 11946 C 1205.13 -3.00718 5.09237 0
M  V30 11947 H 1204.06 -0.510317 0.555061 0
M  V30 11948 H 1206.72 -0.645434 1.71774 0
M  V30 11949 H 1205.1 -3.19892 2.3342 0
M  V30 11950 H 1206.27 -1.2576 4.43307 0
M  V30 11951 H 1204.59 -1.2878 3.95986 0
M  V30 11952 H 1207.18 -4.03267 3.51112 0
M  V30 11953 H 1207.53 -3.74243 1.82339 0
M  V30 11954 H 1208.06 -2.56095 3.04402 0
M  V30 11955 H 1204.8 -2.54312 6.04157 0
M  V30 11956 H 1204.32 -3.66526 4.74783 0
M  V30 11957 H 1206 -3.65016 5.34202 0
M  V30 11958 N 1206.13 -1.32992 -0.845635 0
M  V30 11959 C 1207.54 -1.21616 -1.41656 0
M  V30 11960 C 1207.89 0.167687 -1.95482 0
M  V30 11961 O 1207.02 1.06692 -1.8827 0
M  V30 11962 C 1207.61 -2.2018 -2.575 0
M  V30 11963 C 1206.17 -2.12664 -3.10565 0
M  V30 11964 C 1205.32 -2.08042 -1.83341 0
M  V30 11965 H 1208.27 -1.44688 -0.651993 0
M  V30 11966 H 1208.29 -1.80558 -3.34931 0
M  V30 11967 H 1207.8 -3.20888 -2.18294 0
M  V30 11968 H 1205.9 -1.15235 -3.54333 0
M  V30 11969 H 1206.02 -3.02902 -3.71197 0
M  V30 11970 H 1204.38 -1.53416 -2.03312 0
M  V30 11971 H 1205.16 -3.10547 -1.46339 0
M  V30 11972 N 1207.61 1.06304 -1.1635 0
M  V30 11973 C 1208.85 1.79366 -0.94634 0
M  V30 11974 C 1209.19 1.86981 0.524569 0
M  V30 11975 O 1208.46 1.36134 1.38917 0
M  V30 11976 C 1208.74 3.23861 -1.57436 0
M  V30 11977 C 1208.6 3.24327 -3.1166 0
M  V30 11978 C 1209.92 4.21409 -1.26895 0
M  V30 11979 H 1207.04 0.65115 -0.345215 0
M  V30 11980 H 1209.68 1.24325 -1.43678 0
M  V30 11981 H 1207.83 3.70862 -1.15731 0
M  V30 11982 H 1209.5 2.85488 -3.62346 0
M  V30 11983 H 1207.74 2.62983 -3.44997 0
M  V30 11984 H 1208.41 4.2626 -3.50723 0
M  V30 11985 H 1210.89 3.8285 -1.62989 0
M  V30 11986 H 1209.77 5.20778 -1.73439 0
M  V30 11987 H 1210.03 4.41701 -0.187768 0
M  V30 11988 N 1209.09 0.96196 1.24836 0
M  V30 11989 C 1210.36 0.537809 1.88061 0
M  V30 11990 C 1210.74 -0.985023 1.8671 0
M  V30 11991 O 1210.09 -1.85394 1.33572 0
M  V30 11992 C 1210.3 1.12279 3.30446 0
M  V30 11993 C 1211.65 1.20414 4.07168 0
M  V30 11994 O 1212.67 1.07488 3.39595 0
M  V30 11995 O 1211.53 1.4078 5.28056 0
M  V30 11996 H 1208.63 0.178491 0.807509 0
M  V30 11997 H 1211.17 1.05586 1.32852 0
M  V30 11998 H 1209.94 2.16578 3.25898 0
M  V30 11999 H 1209.57 0.58843 3.93222 0
M  V30 12000 N 1210.56 -1.39601 0.731392 0
M  V30 12001 C 1211.81 -2.0019 0.277208 0
M  V30 12002 C 1212.13 -1.5832 -1.13841 0
M  V30 12003 O 1211.4 -0.829793 -1.77458 0
M  V30 12004 H 1209.98 -0.740344 0.0995006 0
M  V30 12005 H 1212.64 -1.70704 0.940547 0
M  V30 12006 H 1211.74 -3.10427 0.322749 0
M  V30 12007 N 1212.04 -0.478751 -1.50152 0
M  V30 12008 C 1212.97 0.301182 -2.31549 0
M  V30 12009 C 1213.95 0.983276 -1.38801 0
M  V30 12010 O 1215.14 0.978973 -1.67719 0
M  V30 12011 C 1212.27 1.3791 -3.18745 0
M  V30 12012 C 1211.22 0.818175 -4.20107 0
M  V30 12013 C 1210.55 1.99496 -4.9609 0
M  V30 12014 C 1211.85 -0.17574 -5.22004 0
M  V30 12015 H 1213.54 -0.378188 -2.97002 0
M  V30 12016 H 1211.09 -0.183323 -1.42828 0
M  V30 12017 H 1213.04 1.93227 -3.74488 0
M  V30 12018 H 1211.77 2.08735 -2.51192 0
M  V30 12019 H 1210.42 0.286924 -3.65475 0
M  V30 12020 H 1210.07 2.69036 -4.25004 0
M  V30 12021 H 1209.77 1.62582 -5.6466 0
M  V30 12022 H 1211.3 2.55288 -5.54671 0
M  V30 12023 H 1212.71 0.288513 -5.72574 0
M  V30 12024 H 1211.11 -0.459549 -5.98338 0
M  V30 12025 H 1212.18 -1.09911 -4.72279 0
M  V30 12026 N 1213.52 1.56172 -0.211661 0
M  V30 12027 C 1214.47 2.19849 0.702515 0
M  V30 12028 C 1215.44 1.15091 1.19763 0
M  V30 12029 O 1216.62 1.43408 1.25852 0
M  V30 12030 C 1213.76 2.87468 1.90935 0
M  V30 12031 C 1212.88 4.06794 1.45406 0
M  V30 12032 C 1212.01 4.62224 2.61769 0
M  V30 12033 C 1211.05 5.73872 2.12926 0
M  V30 12034 N 1210.19 6.23635 3.22526 0
M  V30 12035 H 1215.03 2.97608 0.152777 0
M  V30 12036 H 1212.56 1.46962 0.0636596 0
M  V30 12037 H 1214.52 3.24851 2.61777 0
M  V30 12038 H 1213.15 2.12244 2.43213 0
M  V30 12039 H 1212.2 3.74962 0.640907 0
M  V30 12040 H 1213.52 4.87497 1.05584 0
M  V30 12041 H 1212.67 5.01999 3.40709 0
M  V30 12042 H 1211.41 3.80662 3.04873 0
M  V30 12043 H 1210.41 5.33609 1.32445 0
M  V30 12044 H 1211.64 6.57262 1.70833 0
M  V30 12045 H 1209.58 5.44991 3.65131 0
M  V30 12046 H 1209.5 6.99435 2.86926 0
M  V30 12047 H 1210.77 6.68066 4.01631 0
M  V30 12048 N 1215 -0.0618163 1.57479 0
M  V30 12049 C 1215.95 -1.09105 2.05424 0
M  V30 12050 C 1216.94 -1.3947 0.961479 0
M  V30 12051 O 1218.15 -1.3876 1.14655 0
M  V30 12052 H 1214.52 -0.36923 0.655113 0
M  V30 12053 H 1216.49 -0.66061 2.90996 0
M  V30 12054 C 1215.24 -2.39345 2.52209 0
M  V30 12055 H 1214.56 -2.16832 3.35893 0
M  V30 12056 H 1216 -3.09784 2.89499 0
M  V30 12057 C 1214.46 -3.06011 1.40922 0
M  V30 12058 O 1214.99 -3.94504 0.756921 0
M  V30 12059 N 1213.2 -2.66797 1.15186 0
M  V30 12060 H 1212.75 -1.94923 1.68412 0
M  V30 12061 H 1212.7 -3.11724 0.409324 0
M  V30 12062 N 1216.48 -1.54033 -0.333429 0
M  V30 12063 C 1217.41 -1.79056 -1.43079 0
M  V30 12064 C 1218.42 -0.672176 -1.48276 0
M  V30 12065 O 1219.61 -0.949103 -1.51176 0
M  V30 12066 C 1216.71 -1.88443 -2.81678 0
M  V30 12067 C 1215.88 -3.18493 -2.99802 0
M  V30 12068 C 1214.94 -3.18708 -4.18702 0
M  V30 12069 O 1213.97 -3.92389 -4.12334 0
M  V30 12070 N 1215.17 -2.41792 -5.27747 0
M  V30 12071 H 1217.94 -2.73753 -1.21981 0
M  V30 12072 H 1215.5 -1.53207 -0.523365 0
M  V30 12073 H 1217.49 -1.86027 -3.59411 0
M  V30 12074 H 1216.06 -1.00887 -2.95872 0
M  V30 12075 H 1215.28 -3.33951 -2.09453 0
M  V30 12076 H 1216.57 -4.04376 -3.088 0
M  V30 12077 H 1215.96 -1.81501 -5.35793 0
M  V30 12078 H 1214.52 -2.45163 -6.03936 0
M  V30 12079 N 1217.95 0.594978 -1.45938 0
M  V30 12080 C 1218.9 1.70489 -1.5557 0
M  V30 12081 C 1219.87 1.61193 -0.400751 0
M  V30 12082 O 1221.06 1.80587 -0.615882 0
M  V30 12083 C 1218.2 3.08817 -1.54033 0
M  V30 12084 C 1217.31 3.28827 -2.80173 0
M  V30 12085 C 1216.44 4.57333 -2.70222 0
M  V30 12086 C 1215.48 4.70644 -3.91357 0
M  V30 12087 N 1214.62 5.90463 -3.79865 0
M  V30 12088 H 1219.46 1.61593 -2.50383 0
M  V30 12089 H 1217 0.787747 -1.24229 0
M  V30 12090 H 1218.96 3.88865 -1.51129 0
M  V30 12091 H 1217.59 3.1664 -0.627617 0
M  V30 12092 H 1216.64 2.42467 -2.9311 0
M  V30 12093 H 1217.95 3.34534 -3.69985 0
M  V30 12094 H 1217.1 5.45593 -2.65354 0
M  V30 12095 H 1215.84 4.54045 -1.7803 0
M  V30 12096 H 1214.85 3.80805 -3.9657 0
M  V30 12097 H 1216.07 4.75721 -4.8463 0
M  V30 12098 H 1214.02 5.88196 -2.90451 0
M  V30 12099 H 1213.94 5.97385 -4.63322 0
M  V30 12100 H 1215.2 6.81187 -3.78952 0
M  V30 12101 N 1219.43 1.33438 0.838571 0
M  V30 12102 C 1220.68 1.24912 1.59384 0
M  V30 12103 C 1221.01 -0.185017 1.93618 0
M  V30 12104 O 1220.26 -1.14229 1.58904 0
M  V30 12105 C 1220.56 2.07002 2.9135 0
M  V30 12106 C 1220.23 3.5619 2.76477 0
M  V30 12107 C 1218.89 3.96862 2.72129 0
M  V30 12108 C 1221.24 4.5099 2.61261 0
M  V30 12109 C 1218.57 5.30551 2.50464 0
M  V30 12110 C 1220.92 5.84841 2.4113 0
M  V30 12111 C 1219.59 6.24696 2.35183 0
M  V30 12112 H 1218.86 0.457084 0.583228 0
M  V30 12113 H 1221.5 1.65027 0.971506 0
M  V30 12114 H 1219.81 1.59665 3.57791 0
M  V30 12115 H 1221.5 1.97762 3.48843 0
M  V30 12116 H 1218.09 3.23896 2.80695 0
M  V30 12117 H 1222.28 4.20476 2.63655 0
M  V30 12118 H 1217.53 5.60468 2.44307 0
M  V30 12119 H 1221.71 6.57901 2.2834 0
M  V30 12120 H 1219.34 7.28225 2.18156 0
M  V30 12121 N 1220.91 -1.05686 1.16912 0
M  V30 12122 C 1222.16 -1.78597 0.954425 0
M  V30 12123 C 1222.49 -1.87494 -0.517315 0
M  V30 12124 O 1221.74 -1.36736 -1.40006 0
M  V30 12125 C 1222.04 -3.22779 1.53455 0
M  V30 12126 C 1221.71 -3.3395 3.02965 0
M  V30 12127 C 1220.37 -3.36706 3.43777 0
M  V30 12128 C 1222.72 -3.35371 3.98969 0
M  V30 12129 C 1220.05 -3.38506 4.79198 0
M  V30 12130 C 1222.4 -3.38708 5.34284 0
M  V30 12131 C 1221.06 -3.39749 5.74567 0
M  V30 12132 H 1220.33 -0.653534 0.349249 0
M  V30 12133 H 1222.98 -1.24245 1.45723 0
M  V30 12134 H 1221.29 -3.80025 0.953331 0
M  V30 12135 H 1222.98 -3.77805 1.34404 0
M  V30 12136 H 1219.57 -3.32515 2.70429 0
M  V30 12137 H 1223.76 -3.32447 3.685 0
M  V30 12138 H 1219.01 -3.37619 5.09729 0
M  V30 12139 H 1223.19 -3.38755 6.08455 0
M  V30 12140 H 1220.81 -3.40897 6.7948 0
M  V30 12141 N 1222.39 -0.968567 -1.24324 0
M  V30 12142 C 1223.67 -0.547774 -1.87773 0
M  V30 12143 C 1224.05 0.975107 -1.87229 0
M  V30 12144 O 1223.39 1.84683 -1.34553 0
M  V30 12145 C 1223.6 -1.1403 -3.29846 0
M  V30 12146 C 1224.95 -1.22572 -4.06523 0
M  V30 12147 O 1225.98 -1.09287 -3.3902 0
M  V30 12148 O 1224.83 -1.43579 -5.27302 0
M  V30 12149 H 1221.93 -0.182771 -0.806551 0
M  V30 12150 H 1224.47 -1.06289 -1.3229 0
M  V30 12151 H 1223.25 -2.18303 -3.24745 0
M  V30 12152 H 1222.87 -0.609275 -3.92904 0
M  V30 12153 N 1223.87 1.39211 -0.738786 0
M  V30 12154 C 1224.78 2.34374 -0.102958 0
M  V30 12155 C 1225.79 1.58514 0.717596 0
M  V30 12156 O 1226.97 1.90786 0.645186 0
M  V30 12157 C 1224.03 3.37562 0.790733 0
M  V30 12158 C 1223.09 4.29279 -0.0425028 0
M  V30 12159 C 1222.33 5.27539 0.808628 0
M  V30 12160 O 1222.55 5.32396 2.04722 0
M  V30 12161 O 1221.48 6.0144 0.235279 0
M  V30 12162 H 1225.31 2.90412 -0.888498 0
M  V30 12163 H 1222.9 1.40803 -0.499498 0
M  V30 12164 H 1224.78 4.00783 1.30196 0
M  V30 12165 H 1223.45 2.83903 1.55502 0
M  V30 12166 H 1222.36 3.69268 -0.599335 0
M  V30 12167 H 1223.69 4.86154 -0.7691 0
M  V30 12168 N 1225.34 0.486708 1.49896 0
M  V30 12169 C 1226.27 -0.288898 2.31706 0
M  V30 12170 C 1227.26 -0.975901 1.3932 0
M  V30 12171 O 1228.44 -0.970065 1.68236 0
M  V30 12172 C 1225.57 -1.36218 3.19471 0
M  V30 12173 C 1224.52 -0.795884 4.20535 0
M  V30 12174 C 1223.85 -1.96862 4.97141 0
M  V30 12175 C 1225.15 0.203421 5.21904 0
M  V30 12176 H 1226.84 0.393934 2.96797 0
M  V30 12177 H 1224.39 0.190894 1.42729 0
M  V30 12178 H 1226.34 -1.91238 3.75508 0
M  V30 12179 H 1225.07 -2.074 2.52295 0
M  V30 12180 H 1223.73 -0.267538 3.65622 0
M  V30 12181 H 1223.37 -2.66779 4.26425 0
M  V30 12182 H 1223.07 -1.59585 5.65514 0
M  V30 12183 H 1224.6 -2.52343 5.56017 0
M  V30 12184 H 1226.01 -0.258144 5.72719 0
M  V30 12185 H 1224.41 0.491273 5.98086 0
M  V30 12186 H 1225.48 1.12414 4.7169 0
M  V30 12187 N 1226.82 -1.56058 0.219941 0
M  V30 12188 C 1228.24 -1.59024 -0.135476 0
M  V30 12189 C 1228.44 -1.23672 -1.59083 0
M  V30 12190 O 1227.5 -0.971197 -2.33075 0
M  V30 12191 C 1228.81 -3.00103 0.189356 0
M  V30 12192 C 1230.36 -3.12724 0.131463 0
M  V30 12193 C 1230.83 -4.55977 0.429947 0
M  V30 12194 N 1232.32 -4.61643 0.37946 0
M  V30 12195 C 1233.06 -5.70419 0.58393 0
M  V30 12196 N 1232.55 -6.87565 0.850088 0
M  V30 12197 N 1234.35 -5.59722 0.516477 0
M  V30 12198 H 1226.5 -1.77313 1.16935 0
M  V30 12199 H 1228.76 -0.824096 0.468583 0
M  V30 12200 H 1228.47 -3.30616 1.19941 0
M  V30 12201 H 1228.34 -3.73919 -0.49641 0
M  V30 12202 H 1230.73 -2.82008 -0.869223 0
M  V30 12203 H 1230.81 -2.41241 0.85068 0
M  V30 12204 H 1230.45 -4.8741 1.42806 0
M  V30 12205 H 1230.38 -5.25684 -0.310444 0
M  V30 12206 H 1232.87 -3.77465 0.181373 0
M  V30 12207 H 1233.19 -7.66378 0.994251 0
M  V30 12208 H 1231.53 -6.89313 0.887265 0
M  V30 12209 H 1234.72 -4.6708 0.308784 0
M  V30 12210 H 1234.9 -6.4443 0.679236 0
M  V30 12211 N 1228.3 0.053464 -1.57509 0
M  V30 12212 C 1229.23 1.09391 -2.00272 0
M  V30 12213 C 1230.21 1.36553 -0.882727 0
M  V30 12214 O 1231.4 1.4962 -1.14657 0
M  V30 12215 C 1228.52 2.43424 -2.35505 0
M  V30 12216 C 1227.57 2.32278 -3.577 0
M  V30 12217 S 1228.4 1.69939 -5.0782 0
M  V30 12218 C 1229.56 3.05512 -5.46272 0
M  V30 12219 H 1229.79 0.729569 -2.88209 0
M  V30 12220 H 1227.32 0.262633 -1.5215 0
M  V30 12221 H 1229.28 3.20515 -2.56477 0
M  V30 12222 H 1227.94 2.77013 -1.48064 0
M  V30 12223 H 1227.14 3.31165 -3.79928 0
M  V30 12224 H 1226.74 1.63327 -3.36453 0
M  V30 12225 H 1229.03 4.0184 -5.45464 0
M  V30 12226 H 1229.97 2.88043 -6.46867 0
M  V30 12227 H 1230.38 3.06962 -4.73745 0
M  V30 12228 N 1229.78 1.54207 0.325255 0
M  V30 12229 C 1230.73 1.84197 1.42036 0
M  V30 12230 C 1231.72 0.71375 1.53629 0
M  V30 12231 O 1232.93 0.897385 1.56035 0
M  V30 12232 H 1229.3 0.583848 0.473947 0
M  V30 12233 H 1231.27 2.7578 1.13965 0
M  V30 12234 C 1230.02 2.08459 2.78281 0
M  V30 12235 H 1229.35 2.94734 2.70133 0
M  V30 12236 H 1230.79 2.33398 3.5398 0
M  V30 12237 C 1229.24 0.875615 3.25322 0
M  V30 12238 O 1229.77 0.0840387 4.01612 0
M  V30 12239 N 1227.98 0.687721 2.82345 0
M  V30 12240 H 1227.53 1.33307 2.20425 0
M  V30 12241 H 1227.49 -0.119687 3.14172 0
M  V30 12242 N 1231.26 -0.58723 1.46251 0
M  V30 12243 C 1232.49 -1.36976 1.54665 0
M  V30 12244 C 1232.9 -1.88293 0.185079 0
M  V30 12245 O 1232.24 -1.64028 -0.82707 0
M  V30 12246 C 1232.3 -2.59591 2.48702 0
M  V30 12247 C 1231.96 -2.29773 3.95036 0
M  V30 12248 C 1232.96 -1.88885 4.84374 0
M  V30 12249 C 1230.65 -2.42057 4.40129 0
M  V30 12250 C 1232.64 -1.60669 6.16818 0
M  V30 12251 C 1230.33 -2.13454 5.72609 0
M  V30 12252 C 1231.33 -1.72824 6.60773 0
M  V30 12253 O 1231.01 -1.44569 7.90794 0
M  V30 12254 H 1230.75 -0.424968 0.525717 0
M  V30 12255 H 1233.3 -0.721298 1.92319 0
M  V30 12256 H 1231.53 -3.27226 2.06058 0
M  V30 12257 H 1233.22 -3.21656 2.47573 0
M  V30 12258 H 1233.98 -1.78913 4.50794 0
M  V30 12259 H 1229.86 -2.72644 3.71734 0
M  V30 12260 H 1233.41 -1.28882 6.85591 0
M  V30 12261 H 1229.3 -2.23048 6.05739 0
M  V30 12262 H 1230.07 -1.58452 8.03016 0
M  V30 12263 N 1232.74 -1.33881 -0.831482 0
M  V30 12264 C 1233.98 -1.251 -1.58218 0
M  V30 12265 C 1234.3 0.17963 -1.94773 0
M  V30 12266 O 1235.5 0.389516 -2.68691 0
M  V30 12267 C 1233.96 -2.19246 -2.8541 0
M  V30 12268 C 1233.57 -3.6752 -2.5619 0
M  V30 12269 C 1235.31 -2.19355 -3.63433 0
M  V30 12270 C 1233.22 -4.53559 -3.79523 0
M  V30 12271 H 1232.15 -0.46469 -0.593784 0
M  V30 12272 H 1234.8 -1.58992 -0.916169 0
M  V30 12273 H 1233.18 -1.78295 -3.53591 0
M  V30 12274 H 1234.36 -4.16956 -1.96173 0
M  V30 12275 H 1232.67 -3.69774 -1.91458 0
M  V30 12276 H 1235.27 -2.80863 -4.54995 0
M  V30 12277 H 1235.61 -1.19056 -3.98913 0
M  V30 12278 H 1236.14 -2.58706 -3.02185 0
M  V30 12279 H 1232.88 -5.54762 -3.4917 0
M  V30 12280 H 1232.4 -4.08862 -4.38853 0
M  V30 12281 H 1234.08 -4.67736 -4.47025 0
M  V30 12282 N 1234.21 1.05064 -1.1747 0
M  V30 12283 C 1235.16 2.12841 -0.89259 0
M  V30 12284 C 1236.13 1.65288 0.16402 0
M  V30 12285 O 1237.32 1.90782 0.026537 0
M  V30 12286 C 1234.46 3.42614 -0.41344 0
M  V30 12287 C 1233.57 4.03835 -1.53432 0
M  V30 12288 C 1232.7 5.21531 -1.00891 0
M  V30 12289 C 1231.74 5.74761 -2.10515 0
M  V30 12290 N 1230.88 6.83756 -1.59442 0
M  V30 12291 H 1235.72 2.36312 -1.81551 0
M  V30 12292 H 1233.26 1.15929 -0.905483 0
M  V30 12293 H 1235.21 4.17035 -0.117181 0
M  V30 12294 H 1233.84 3.19323 0.472517 0
M  V30 12295 H 1232.9 3.2684 -1.94627 0
M  V30 12296 H 1234.21 4.3938 -2.36108 0
M  V30 12297 H 1233.36 6.03027 -0.666575 0
M  V30 12298 H 1232.1 4.87464 -0.151608 0
M  V30 12299 H 1231.11 4.91893 -2.45604 0
M  V30 12300 H 1232.33 6.10875 -2.96663 0
M  V30 12301 H 1230.28 6.51584 -0.759849 0
M  V30 12302 H 1230.19 7.18311 -2.35724 0
M  V30 12303 H 1231.46 7.68901 -1.28105 0
M  V30 12304 N 1235.69 0.975146 1.23809 0
M  V30 12305 C 1236.6 0.51917 2.28783 0
M  V30 12306 C 1237.62 -0.423487 1.68768 0
M  V30 12307 O 1238.79 -0.294699 1.99232 0
M  V30 12308 C 1235.86 -0.176229 3.46252 0
M  V30 12309 C 1234.92 0.807177 4.21643 0
M  V30 12310 C 1234.15 0.144869 5.33503 0
M  V30 12311 O 1234.38 -1.06522 5.60365 0
M  V30 12312 O 1233.31 0.84079 5.95999 0
M  V30 12313 H 1237.14 1.39204 2.69919 0
M  V30 12314 H 1234.72 0.74253 1.29641 0
M  V30 12315 H 1236.6 -0.566547 4.17574 0
M  V30 12316 H 1235.28 -1.02394 3.07078 0
M  V30 12317 H 1234.18 1.2481 3.52666 0
M  V30 12318 H 1235.52 1.62354 4.64653 0
M  V30 12319 N 1237.17 -1.38817 0.746158 0
M  V30 12320 C 1238.1 -2.33144 0.128836 0
M  V30 12321 C 1239.08 -1.54487 -0.711873 0
M  V30 12322 O 1240.27 -1.82836 -0.654577 0
M  V30 12323 C 1237.4 -3.38639 -0.770772 0
M  V30 12324 C 1236.35 -4.27987 -0.0333669 0
M  V30 12325 C 1235.68 -5.24274 -1.05073 0
M  V30 12326 C 1236.98 -5.09915 1.13066 0
M  V30 12327 H 1238.67 -2.85019 0.916778 0
M  V30 12328 H 1236.22 -1.37039 0.442306 0
M  V30 12329 H 1238.17 -4.03587 -1.21225 0
M  V30 12330 H 1236.89 -2.8523 -1.59095 0
M  V30 12331 H 1235.55 -3.64534 0.388612 0
M  V30 12332 H 1235.2 -4.67156 -1.86478 0
M  V30 12333 H 1234.9 -5.84906 -0.562037 0
M  V30 12334 H 1236.42 -5.92099 -1.49169 0
M  V30 12335 H 1237.84 -5.68145 0.767084 0
M  V30 12336 H 1236.23 -5.79744 1.54972 0
M  V30 12337 H 1237.3 -4.4409 1.94709 0
M  V30 12338 N 1238.65 -0.49465 -1.49636 0
M  V30 12339 C 1239.92 0.114829 -1.95263 0
M  V30 12340 C 1240.3 1.54739 -1.43593 0
M  V30 12341 O 1239.65 2.1915 -0.646953 0
M  V30 12342 C 1239.86 0.0339912 -3.48983 0
M  V30 12343 C 1241.21 0.211108 -4.24075 0
M  V30 12344 O 1242.23 0.109478 -3.56032 0
M  V30 12345 O 1241.09 0.418971 -5.44892 0
M  V30 12346 H 1238.19 0.0987883 -0.821078 0
M  V30 12347 H 1240.73 -0.556736 -1.60308 0
M  V30 12348 H 1239.51 -0.965287 -3.79207 0
M  V30 12349 H 1239.13 0.745982 -3.90539 0
M  V30 12350 N 1240.13 1.55939 -0.228214 0
M  V30 12351 C 1241.54 1.59094 0.12704 0
M  V30 12352 C 1241.74 1.24514 1.58425 0
M  V30 12353 O 1240.8 0.983544 2.32557 0
M  V30 12354 C 1242.11 2.99999 -0.205268 0
M  V30 12355 C 1243.66 3.1265 -0.148046 0
M  V30 12356 C 1244.13 4.55743 -0.454122 0
M  V30 12357 N 1245.62 4.61435 -0.403937 0
M  V30 12358 C 1246.36 5.70101 -0.614173 0
M  V30 12359 N 1245.86 6.87104 -0.88654 0
M  V30 12360 N 1247.65 5.5944 -0.546153 0
M  V30 12361 H 1239.8 1.7669 -1.17874 0
M  V30 12362 H 1242.06 0.821599 -0.472947 0
M  V30 12363 H 1241.77 3.29976 -1.21692 0
M  V30 12364 H 1241.64 3.74177 0.476573 0
M  V30 12365 H 1244.03 2.82465 0.854255 0
M  V30 12366 H 1244.11 2.40786 -0.863462 0
M  V30 12367 H 1243.75 4.86646 -1.45389 0
M  V30 12368 H 1243.68 5.25841 0.282561 0
M  V30 12369 H 1246.18 3.77363 -0.201388 0
M  V30 12370 H 1246.49 7.65839 -1.03488 0
M  V30 12371 H 1244.83 6.88833 -0.923808 0
M  V30 12372 H 1248.02 4.6691 -0.33355 0
M  V30 12373 H 1248.2 6.44061 -0.713402 0
M  V30 12374 N 1241.6 -0.0451101 1.57535 0
M  V30 12375 C 1242.85 -0.738072 1.87711 0
M  V30 12376 C 1243.17 -1.7737 0.824579 0
M  V30 12377 O 1244.37 -2.51812 1.01503 0
M  V30 12378 C 1242.83 -1.36373 3.33062 0
M  V30 12379 C 1242.44 -0.365283 4.46508 0
M  V30 12380 C 1244.18 -2.0375 3.72406 0
M  V30 12381 C 1242.09 -0.998371 5.82912 0
M  V30 12382 H 1241.02 -0.279413 0.700317 0
M  V30 12383 H 1243.67 0.00802425 1.83498 0
M  V30 12384 H 1242.05 -2.15899 3.31969 0
M  V30 12385 H 1243.22 0.402102 4.59042 0
M  V30 12386 H 1241.54 0.205505 4.15893 0
M  V30 12387 H 1244.14 -2.51939 4.71625 0
M  V30 12388 H 1244.48 -2.84869 3.03571 0
M  V30 12389 H 1245.01 -1.3102 3.75604 0
M  V30 12390 H 1241.75 -0.226935 6.55107 0
M  V30 12391 H 1241.27 -1.73598 5.74129 0
M  V30 12392 H 1242.95 -1.51044 6.29122 0
M  V30 12393 N 1243.08 -1.54377 -0.317073 0
M  V30 12394 C 1244.33 -1.72105 -1.0518 0
M  V30 12395 C 1244.64 -0.505166 -1.88964 0
M  V30 12396 O 1245.85 -0.563912 -2.65579 0
M  V30 12397 C 1244.31 -3.04435 -1.91957 0
M  V30 12398 C 1243.91 -4.33449 -1.13253 0
M  V30 12399 C 1245.66 -3.31524 -2.65127 0
M  V30 12400 C 1243.57 -5.56837 -1.99214 0
M  V30 12401 H 1242.5 -0.641392 -0.396399 0
M  V30 12402 H 1245.15 -1.80868 -0.309673 0
M  V30 12403 H 1243.53 -2.89595 -2.70094 0
M  V30 12404 H 1244.7 -4.59074 -0.39842 0
M  V30 12405 H 1243.02 -4.13173 -0.517372 0
M  V30 12406 H 1245.61 -4.20906 -3.29761 0
M  V30 12407 H 1245.96 -2.49688 -3.33109 0
M  V30 12408 H 1246.49 -3.47261 -1.94048 0
M  V30 12409 H 1243.23 -6.41294 -1.35729 0
M  V30 12410 H 1242.75 -5.35421 -2.70341 0
M  V30 12411 H 1244.43 -5.93488 -2.57646 0
M  V30 12412 N 1244.56 0.579466 -1.4656 0
M  V30 12413 C 1245.52 1.67033 -1.56948 0
M  V30 12414 C 1246.52 1.54481 -0.446361 0
M  V30 12415 O 1247.71 1.5904 -0.710767 0
M  V30 12416 C 1244.85 3.06474 -1.49286 0
M  V30 12417 H 1246.04 1.59179 -2.54169 0
M  V30 12418 H 1243.59 0.797573 -1.34419 0
M  V30 12419 H 1244.33 3.1988 -0.533572 0
M  V30 12420 H 1244.11 3.16993 -2.30776 0
M  V30 12421 H 1245.6 3.85879 -1.59648 0
M  V30 12422 N 1246.04 1.3432 0.824371 0
M  V30 12423 C 1247.28 1.27942 1.59405 0
M  V30 12424 C 1247.64 -0.148961 1.91421 0
M  V30 12425 O 1248.84 -0.336891 2.6668 0
M  V30 12426 C 1247.11 2.14393 2.85955 0
M  V30 12427 S 1248.67 2.25354 3.76512 0
M  V30 12428 H 1245.49 0.454953 0.546387 0
M  V30 12429 H 1248.09 1.69517 0.973873 0
M  V30 12430 H 1246.8 3.17182 2.60429 0
M  V30 12431 H 1246.33 1.7371 3.52971 0
M  V30 12432 H 1248.34 1.42526 4.7529 0
M  V30 12433 N 1247.52 -1.0444 1.18026 0
M  V30 12434 C 1248.46 -2.12365 0.903865 0
M  V30 12435 C 1249.43 -1.65373 -0.155252 0
M  V30 12436 O 1250.62 -1.90793 -0.016419 0
M  V30 12437 C 1247.76 -3.4239 0.431603 0
M  V30 12438 C 1246.87 -4.03016 1.55571 0
M  V30 12439 C 1246.01 -5.20988 1.03655 0
M  V30 12440 C 1245.05 -5.73636 2.1356 0
M  V30 12441 N 1244.18 -6.82901 1.63066 0
M  V30 12442 H 1249.02 -2.35346 1.82802 0
M  V30 12443 H 1246.56 -1.15447 0.911618 0
M  V30 12444 H 1248.52 -4.16967 0.139296 0
M  V30 12445 H 1247.15 -3.19569 -0.455576 0
M  V30 12446 H 1246.2 -3.25803 1.96358 0
M  V30 12447 H 1247.51 -4.38122 2.38434 0
M  V30 12448 H 1246.67 -6.02665 0.698546 0
M  V30 12449 H 1245.4 -4.87377 0.177457 0
M  V30 12450 H 1244.41 -4.90583 2.4821 0
M  V30 12451 H 1245.63 -6.09293 2.99899 0
M  V30 12452 H 1243.58 -6.51172 0.794394 0
M  V30 12453 H 1243.5 -7.1705 2.3953 0
M  V30 12454 H 1244.77 -7.68211 1.32181 0
M  V30 12455 N 1248.99 -0.981699 -1.2329 0
M  V30 12456 C 1250.41 -0.690539 -1.43888 0
M  V30 12457 C 1250.61 0.742816 -1.87309 0
M  V30 12458 O 1249.67 1.5151 -2.01993 0
M  V30 12459 C 1250.98 -1.68657 -2.48948 0
M  V30 12460 C 1252.53 -1.70076 -2.62761 0
M  V30 12461 C 1253 -2.68513 -3.71032 0
M  V30 12462 N 1254.49 -2.67039 -3.78476 0
M  V30 12463 C 1255.23 -3.39874 -4.61815 0
M  V30 12464 N 1254.72 -4.22273 -5.49233 0
M  V30 12465 N 1256.52 -3.28633 -4.56023 0
M  V30 12466 H 1248.67 -1.90758 -0.934077 0
M  V30 12467 H 1250.93 -0.822058 -0.472149 0
M  V30 12468 H 1250.64 -2.7117 -2.23964 0
M  V30 12469 H 1250.51 -1.47045 -3.47358 0
M  V30 12470 H 1252.9 -0.682673 -2.87095 0
M  V30 12471 H 1252.98 -1.95754 -1.64663 0
M  V30 12472 H 1252.62 -3.70464 -3.47446 0
M  V30 12473 H 1252.55 -2.40109 -4.68674 0
M  V30 12474 H 1255.04 -2.07241 -3.16006 0
M  V30 12475 H 1255.36 -4.74702 -6.09818 0
M  V30 12476 H 1253.7 -4.26364 -5.48852 0
M  V30 12477 H 1256.89 -2.6371 -3.86749 0
M  V30 12478 H 1257.07 -3.85656 -5.20743 0
M  V30 12479 N 1250.47 1.3842 -0.753509 0
M  V30 12480 C 1251.42 2.30457 -0.12574 0
M  V30 12481 C 1252.39 1.50173 0.709728 0
M  V30 12482 O 1253.57 1.78804 0.665872 0
M  V30 12483 C 1250.71 3.36593 0.761503 0
M  V30 12484 C 1249.83 4.31909 -0.0885848 0
M  V30 12485 C 1248.96 5.25116 0.801655 0
M  V30 12486 C 1248 6.12078 -0.0520719 0
M  V30 12487 N 1247.14 6.97583 0.795124 0
M  V30 12488 H 1251.98 2.83567 -0.916187 0
M  V30 12489 H 1249.52 1.39609 -0.463436 0
M  V30 12490 H 1251.47 3.96738 1.29054 0
M  V30 12491 H 1250.1 2.84894 1.51774 0
M  V30 12492 H 1249.16 3.73227 -0.735249 0
M  V30 12493 H 1250.47 4.93161 -0.747899 0
M  V30 12494 H 1249.62 5.90377 1.39786 0
M  V30 12495 H 1248.36 4.6423 1.4947 0
M  V30 12496 H 1247.37 5.45813 -0.660946 0
M  V30 12497 H 1248.59 6.75032 -0.742178 0
M  V30 12498 H 1246.54 6.39246 1.47312 0
M  V30 12499 H 1246.45 7.55754 0.192705 0
M  V30 12500 H 1247.72 7.67254 1.3763 0
M  V30 12501 N 1251.95 0.502579 1.49372 0
M  V30 12502 C 1252.9 -0.288693 2.30801 0
M  V30 12503 C 1253.89 -0.961303 1.39482 0
M  V30 12504 O 1255.1 -0.888812 1.56525 0
M  V30 12505 H 1251.47 -0.111958 0.743619 0
M  V30 12506 H 1253.44 0.418062 2.95457 0
M  V30 12507 C 1252.19 -1.33938 3.20867 0
M  V30 12508 H 1251.52 -0.831219 3.91064 0
M  V30 12509 H 1252.96 -1.86498 3.80781 0
M  V30 12510 C 1251.42 -2.35839 2.40586 0
M  V30 12511 O 1251.95 -3.41752 2.11113 0
M  V30 12512 N 1250.15 -2.0835 2.0258 0
M  V30 12513 H 1249.7 -1.2224 2.26749 0
M  V30 12514 H 1249.66 -2.76758 1.49173 0
M  V30 12515 N 1253.43 -1.55816 0.23648 0
M  V30 12516 C 1254.84 -1.84757 -0.268622 0
M  V30 12517 C 1255.19 -1.15815 -1.58371 0
M  V30 12518 O 1254.32 -0.432923 -2.12025 0
M  V30 12519 C 1254.91 -3.35177 -0.494167 0
M  V30 12520 C 1253.47 -3.64382 -0.943551 0
M  V30 12521 C 1252.62 -2.77296 -0.0149191 0
M  V30 12522 H 1255.57 -1.51908 0.459308 0
M  V30 12523 H 1255.59 -3.56192 -1.3382 0
M  V30 12524 H 1255.1 -3.85327 0.463138 0
M  V30 12525 H 1253.2 -3.19701 -1.91369 0
M  V30 12526 H 1253.31 -4.72244 -0.807626 0
M  V30 12527 H 1251.68 -2.49243 -0.524419 0
M  V30 12528 H 1252.46 -3.30249 0.937571 0
M  V30 12529 N 1254.91 0.036755 -1.57557 0
M  V30 12530 C 1256.13 0.741086 -1.93172 0
M  V30 12531 C 1256.55 1.69303 -0.835589 0
M  V30 12532 O 1255.91 1.81523 0.1886 0
M  V30 12533 C 1255.96 1.50477 -3.28693 0
M  V30 12534 O 1255.68 0.591046 -4.34095 0
M  V30 12535 C 1257.18 2.30695 -3.78543 0
M  V30 12536 H 1254.4 0.208731 -0.637709 0
M  V30 12537 H 1256.94 -0.00342776 -2.045 0
M  V30 12538 H 1255.1 2.20123 -3.18786 0
M  V30 12539 H 1255.51 1.12579 -5.12276 0
M  V30 12540 H 1256.99 2.79685 -4.759 0
M  V30 12541 H 1257.46 3.11778 -3.0934 0
M  V30 12542 H 1258.07 1.66138 -3.91508 0
M  V30 12543 N 1256.39 1.54543 0.308881 0
M  V30 12544 C 1257.61 1.77753 1.06857 0
M  V30 12545 C 1258.04 0.531616 1.80431 0
M  V30 12546 O 1257.39 -0.517513 1.73757 0
M  V30 12547 C 1257.44 2.97968 2.03094 0
M  V30 12548 O 1256.55 2.70541 3.11257 0
M  V30 12549 H 1255.89 0.588576 0.307368 0
M  V30 12550 H 1258.42 2.01607 0.348703 0
M  V30 12551 H 1258.43 3.25722 2.45702 0
M  V30 12552 H 1257.1 3.88314 1.48948 0
M  V30 12553 H 1255.68 2.53781 2.7322 0
M  V30 12554 N 1257.86 -0.571685 1.46866 0
M  V30 12555 C 1259.1 -1.34041 1.54313 0
M  V30 12556 C 1259.47 -1.9101 0.194708 0
M  V30 12557 O 1260.67 -2.68414 0.143968 0
M  V30 12558 C 1258.94 -2.4315 2.61941 0
M  V30 12559 S 1260.5 -3.30301 2.88871 0
M  V30 12560 H 1257.32 -0.45652 0.545078 0
M  V30 12561 H 1259.92 -0.656041 1.84164 0
M  V30 12562 H 1258.62 -1.99707 3.58532 0
M  V30 12563 H 1258.15 -3.16345 2.33858 0
M  V30 12564 H 1260.17 -4.42265 2.24981 0
M  V30 12565 N 1259.34 -1.34755 -0.817236 0
M  V30 12566 C 1260.57 -1.30676 -1.61054 0
M  V30 12567 C 1260.99 0.115343 -1.87746 0
M  V30 12568 O 1260.35 1.07887 -1.45705 0
M  V30 12569 C 1260.4 -2.10881 -2.92509 0
M  V30 12570 O 1259.5 -1.48223 -3.84842 0
M  V30 12571 H 1258.84 -0.448531 -0.489608 0
M  V30 12572 H 1261.37 -1.77642 -1.01512 0
M  V30 12573 H 1261.38 -2.22446 -3.42026 0
M  V30 12574 H 1260.06 -3.14274 -2.72406 0
M  V30 12575 H 1258.63 -1.45434 -3.4337 0
M  V30 12576 N 1260.82 1.03812 -1.18578 0
M  V30 12577 C 1262.24 1.29271 -0.936011 0
M  V30 12578 C 1262.44 1.97551 0.396965 0
M  V30 12579 O 1261.49 2.25769 1.13069 0
M  V30 12580 C 1262.8 2.1489 -2.1034 0
M  V30 12581 C 1264.35 2.28228 -2.14198 0
M  V30 12582 C 1264.83 3.17214 -3.30362 0
M  V30 12583 N 1266.32 3.24802 -3.30239 0
M  V30 12584 C 1267.05 3.9382 -4.16765 0
M  V30 12585 N 1266.55 4.65147 -5.1343 0
M  V30 12586 N 1268.34 3.90125 -4.04671 0
M  V30 12587 H 1260.49 0.579011 -2.04356 0
M  V30 12588 H 1262.76 0.318021 -0.893066 0
M  V30 12589 H 1262.46 1.72029 -3.06755 0
M  V30 12590 H 1262.34 3.15576 -2.06619 0
M  V30 12591 H 1264.72 2.70324 -1.18359 0
M  V30 12592 H 1264.8 1.27124 -2.21976 0
M  V30 12593 H 1264.45 2.75829 -4.26475 0
M  V30 12594 H 1264.38 4.18356 -3.19821 0
M  V30 12595 H 1266.87 2.73994 -2.60261 0
M  V30 12596 H 1267.18 5.15414 -5.7582 0
M  V30 12597 H 1265.53 4.64043 -5.17387 0
M  V30 12598 H 1268.72 3.33536 -3.28438 0
M  V30 12599 H 1268.89 4.43641 -4.7232 0
M  V30 12600 N 1262.3 0.988223 1.22768 0
M  V30 12601 C 1263.71 0.69816 1.4352 0
M  V30 12602 C 1263.91 -0.732872 1.877 0
M  V30 12603 O 1262.97 -1.50436 2.02793 0
M  V30 12604 C 1264.28 1.69975 2.4805 0
M  V30 12605 C 1265.83 1.71467 2.61855 0
M  V30 12606 C 1266.31 2.70477 3.69603 0
M  V30 12607 N 1267.8 2.69043 3.77055 0
M  V30 12608 C 1268.53 3.42319 4.60006 0
M  V30 12609 N 1268.03 4.2518 5.46986 0
M  V30 12610 N 1269.82 3.31047 4.54274 0
M  V30 12611 H 1261.97 1.91251 0.923948 0
M  V30 12612 H 1264.23 0.82455 0.467783 0
M  V30 12613 H 1263.94 2.72354 2.22523 0
M  V30 12614 H 1263.81 1.48885 3.46573 0
M  V30 12615 H 1266.2 0.697889 2.86729 0
M  V30 12616 H 1266.28 1.96625 1.63622 0
M  V30 12617 H 1265.93 3.72302 3.45476 0
M  V30 12618 H 1265.86 2.42591 4.67394 0
M  V30 12619 H 1268.35 2.08914 3.14902 0
M  V30 12620 H 1268.66 4.77929 6.07292 0
M  V30 12621 H 1267.01 4.29268 5.46584 0
M  V30 12622 H 1270.2 2.65758 3.85345 0
M  V30 12623 H 1270.37 3.88413 5.1869 0
M  V30 12624 N 1263.78 -1.38018 0.760839 0
M  V30 12625 C 1265.02 -1.99952 0.320241 0
M  V30 12626 C 1265.35 -1.60397 -1.10014 0
M  V30 12627 O 1264.61 -0.836407 -1.76926 0
M  V30 12628 C 1264.9 -3.55168 0.398778 0
M  V30 12629 C 1264.57 -4.14457 1.77585 0
M  V30 12630 C 1263.23 -4.30363 2.15269 0
M  V30 12631 C 1265.58 -4.47089 2.67883 0
M  V30 12632 C 1262.91 -4.762 3.4271 0
M  V30 12633 C 1265.26 -4.94345 3.94722 0
M  V30 12634 C 1263.93 -5.08458 4.32466 0
M  V30 12635 H 1263.2 -0.731675 0.117185 0
M  V30 12636 H 1265.85 -1.64955 0.972736 0
M  V30 12637 H 1264.15 -3.90346 -0.337273 0
M  V30 12638 H 1265.85 -4.00981 0.0393393 0
M  V30 12639 H 1262.44 -4.02496 1.47292 0
M  V30 12640 H 1266.62 -4.34395 2.40031 0
M  V30 12641 H 1261.88 -4.85312 3.71863 0
M  V30 12642 H 1266.05 -5.18563 4.64828 0
M  V30 12643 H 1263.68 -5.43735 5.31278 0
M  V30 12644 N 1265.25 -0.510493 -1.49103 0
M  V30 12645 C 1266.48 0.0271324 -2.06582 0
M  V30 12646 C 1266.89 1.30499 -1.36991 0
M  V30 12647 O 1266.23 1.78229 -0.444976 0
M  V30 12648 C 1266.3 0.341488 -3.57874 0
M  V30 12649 C 1265.96 -0.840037 -4.49213 0
M  V30 12650 C 1266.96 -1.73315 -4.90161 0
M  V30 12651 C 1264.64 -1.04153 -4.91383 0
M  V30 12652 C 1266.64 -2.81182 -5.72028 0
M  V30 12653 C 1264.32 -2.12336 -5.73024 0
M  V30 12654 C 1265.32 -3.00684 -6.13252 0
M  V30 12655 O 1265.01 -4.06999 -6.93258 0
M  V30 12656 H 1264.74 -0.0215383 -0.675657 0
M  V30 12657 H 1267.3 -0.709841 -1.92744 0
M  V30 12658 H 1265.53 1.13218 -3.69755 0
M  V30 12659 H 1267.21 0.818859 -3.97554 0
M  V30 12660 H 1267.98 -1.58934 -4.58219 0
M  V30 12661 H 1263.86 -0.363199 -4.59567 0
M  V30 12662 H 1267.4 -3.50169 -6.03347 0
M  V30 12663 H 1263.3 -2.26708 -6.04379 0
M  V30 12664 H 1264.07 -4.04469 -7.11581 0
M  V30 12665 N 1266.73 1.55688 -0.24474 0
M  V30 12666 C 1267.66 2.18616 0.68844 0
M  V30 12667 C 1268.68 1.16185 1.14039 0
M  V30 12668 O 1269.87 1.43059 1.06754 0
M  V30 12669 C 1266.97 2.77375 1.94721 0
M  V30 12670 C 1266.14 4.05204 1.64706 0
M  V30 12671 C 1265.2 4.48302 2.75521 0
M  V30 12672 O 1264.22 5.14723 2.42999 0
M  V30 12673 N 1265.43 4.15907 4.04971 0
M  V30 12674 H 1268.19 2.99324 0.150018 0
M  V30 12675 H 1265.75 1.61771 -0.0646183 0
M  V30 12676 H 1267.74 3.03165 2.68091 0
M  V30 12677 H 1266.31 2.00837 2.39548 0
M  V30 12678 H 1265.53 3.87026 0.74865 0
M  V30 12679 H 1266.82 4.8855 1.42114 0
M  V30 12680 H 1266.22 3.62579 4.34227 0
M  V30 12681 H 1264.78 4.46538 4.74813 0
M  V30 12682 N 1268.21 -0.0283989 1.57574 0
M  V30 12683 C 1269.14 -1.02828 2.09639 0
M  V30 12684 C 1270.12 -1.37668 0.999076 0
M  V30 12685 O 1271.31 -1.4654 1.27435 0
M  V30 12686 C 1268.44 -2.329 2.57633 0
M  V30 12687 C 1267.39 -2.12301 3.71635 0
M  V30 12688 C 1266.72 -3.48138 4.05837 0
M  V30 12689 C 1268.02 -1.50864 5.00037 0
M  V30 12690 H 1269.71 -0.594876 2.93431 0
M  V30 12691 H 1267.26 -0.284701 1.41158 0
M  V30 12692 H 1269.21 -3.03179 2.92678 0
M  V30 12693 H 1267.93 -2.78302 1.70926 0
M  V30 12694 H 1266.59 -1.44454 3.3694 0
M  V30 12695 H 1266.24 -3.9119 3.16195 0
M  V30 12696 H 1265.94 -3.3518 4.82626 0
M  V30 12697 H 1267.46 -4.19779 4.43417 0
M  V30 12698 H 1268.88 -2.11062 5.33035 0
M  V30 12699 H 1267.27 -1.48479 5.81441 0
M  V30 12700 H 1268.34 -0.474541 4.82572 0
M  V30 12701 N 1269.69 -1.54705 -0.300681 0
M  V30 12702 C 1270.92 -1.77993 -1.0548 0
M  V30 12703 C 1271.33 -0.539574 -1.80926 0
M  V30 12704 O 1270.69 0.490597 -1.75782 0
M  V30 12705 C 1270.74 -2.98774 -2.0351 0
M  V30 12706 O 1270.46 -4.18016 -1.31126 0
M  V30 12707 C 1271.96 -3.34452 -2.90958 0
M  V30 12708 H 1269.18 -0.593628 -0.312805 0
M  V30 12709 H 1271.72 -2.01656 -0.339858 0
M  V30 12710 H 1269.88 -2.77318 -2.70506 0
M  V30 12711 H 1270.29 -4.86113 -1.96963 0
M  V30 12712 H 1271.77 -4.22206 -3.55593 0
M  V30 12713 H 1272.24 -2.52622 -3.59275 0
M  V30 12714 H 1272.85 -3.58069 -2.29493 0
M  V30 12715 N 1271.17 0.563888 -1.47167 0
M  V30 12716 C 1272.11 1.67151 -1.59152 0
M  V30 12717 C 1273.08 1.60307 -0.434852 0
M  V30 12718 O 1274.27 1.7924 -0.654049 0
M  V30 12719 C 1271.41 3.0548 -1.60549 0
M  V30 12720 C 1270.52 3.2281 -2.87085 0
M  V30 12721 C 1269.66 4.51498 -2.79862 0
M  V30 12722 C 1268.7 4.62237 -4.01252 0
M  V30 12723 N 1267.83 5.82273 -3.92305 0
M  V30 12724 H 1272.67 1.56245 -2.53755 0
M  V30 12725 H 1270.21 0.761219 -1.25872 0
M  V30 12726 H 1272.17 3.85572 -1.59343 0
M  V30 12727 H 1270.8 3.15237 -0.69464 0
M  V30 12728 H 1269.85 2.36196 -2.98188 0
M  V30 12729 H 1271.16 3.2661 -3.76997 0
M  V30 12730 H 1270.32 5.39842 -2.76867 0
M  V30 12731 H 1269.05 4.50166 -1.87621 0
M  V30 12732 H 1268.06 3.72307 -4.04558 0
M  V30 12733 H 1269.28 4.65334 -4.94612 0
M  V30 12734 H 1267.23 5.81902 -3.02862 0
M  V30 12735 H 1267.15 5.87422 -4.7589 0
M  V30 12736 H 1268.42 6.72996 -3.93315 0
M  V30 12737 N 1272.64 1.35187 0.810078 0
M  V30 12738 C 1273.57 1.30481 1.93641 0
M  V30 12739 C 1274.56 0.179875 1.69146 0
M  V30 12740 O 1275.74 0.374284 1.90559 0
M  V30 12741 C 1272.87 1.07251 3.30325 0
M  V30 12742 C 1271.82 2.16348 3.69293 0
M  V30 12743 C 1271.15 1.78288 5.04101 0
M  V30 12744 C 1272.45 3.58285 3.80038 0
M  V30 12745 H 1274.14 2.24725 1.97836 0
M  V30 12746 H 1271.69 1.08179 0.950436 0
M  V30 12747 H 1273.64 1.02599 4.08719 0
M  V30 12748 H 1272.37 0.0945203 3.26463 0
M  V30 12749 H 1271.03 2.2009 2.93182 0
M  V30 12750 H 1270.67 0.791163 4.96739 0
M  V30 12751 H 1270.37 2.51315 5.31144 0
M  V30 12752 H 1271.9 1.75155 5.84938 0
M  V30 12753 H 1273.31 3.56884 4.48672 0
M  V30 12754 H 1271.71 4.30044 4.18548 0
M  V30 12755 H 1272.78 3.94691 2.81685 0
M  V30 12756 N 1274.12 -1.03182 1.19127 0
M  V30 12757 C 1275.05 -2.13301 0.94999 0
M  V30 12758 C 1276.03 -1.69707 -0.115577 0
M  V30 12759 O 1277.22 -1.94161 0.0388395 0
M  V30 12760 C 1274.35 -3.43902 0.484637 0
M  V30 12761 C 1273.3 -4.01164 1.4917 0
M  V30 12762 C 1272.63 -5.2735 0.883537 0
M  V30 12763 C 1273.93 -4.36311 2.87107 0
M  V30 12764 H 1275.62 -2.33743 1.87095 0
M  V30 12765 H 1273.17 -1.12332 0.900977 0
M  V30 12766 H 1275.12 -4.20308 0.30315 0
M  V30 12767 H 1273.85 -3.23173 -0.471909 0
M  V30 12768 H 1272.5 -3.26849 1.66028 0
M  V30 12769 H 1272.15 -5.02936 -0.0804712 0
M  V30 12770 H 1271.85 -5.66624 1.55599 0
M  V30 12771 H 1273.38 -6.06425 0.71278 0
M  V30 12772 H 1274.79 -5.03666 2.73848 0
M  V30 12773 H 1273.19 -4.86659 3.51117 0
M  V30 12774 H 1274.26 -3.45743 3.39985 0
M  V30 12775 N 1275.6 -0.99472 -1.22242 0
M  V30 12776 C 1276.88 -0.587481 -1.86569 0
M  V30 12777 C 1277.26 0.935174 -1.89256 0
M  V30 12778 O 1276.61 1.81787 -1.3844 0
M  V30 12779 C 1276.82 -1.21001 -3.27353 0
M  V30 12780 C 1278.16 -1.31167 -4.03832 0
M  V30 12781 O 1279.19 -1.16454 -3.36626 0
M  V30 12782 O 1278.05 -1.54731 -5.24138 0
M  V30 12783 H 1275.14 -0.199838 -0.802492 0
M  V30 12784 H 1277.69 -1.09071 -1.30006 0
M  V30 12785 H 1276.46 -2.25143 -3.20041 0
M  V30 12786 H 1276.08 -0.692479 -3.91523 0
M  V30 12787 N 1277.08 1.37613 -0.768148 0
M  V30 12788 C 1278.3 2.04579 -0.340892 0
M  V30 12789 C 1278.73 1.57556 1.02751 0
M  V30 12790 O 1278.09 0.734151 1.65771 0
M  V30 12791 C 1278.13 3.58495 -0.389099 0
M  V30 12792 O 1277.24 4.07838 0.611741 0
M  V30 12793 H 1276.58 0.647246 -0.148216 0
M  V30 12794 H 1279.11 1.75999 -1.04333 0
M  V30 12795 H 1279.12 4.07263 -0.245116 0
M  V30 12796 H 1277.79 3.92076 -1.38742 0
M  V30 12797 H 1276.37 3.70399 0.431173 0
M  V30 12798 N 1278.56 0.518393 1.4883 0
M  V30 12799 C 1279.8 -0.0199348 2.0279 0
M  V30 12800 C 1280.14 -1.35026 1.39576 0
M  V30 12801 O 1279.41 -1.86927 0.537449 0
M  V30 12802 C 1279.69 -0.154184 3.5977 0
M  V30 12803 C 1279.55 1.2005 4.33484 0
M  V30 12804 C 1280.87 -0.886547 4.31078 0
M  V30 12805 H 1277.98 -0.00577061 0.736977 0
M  V30 12806 H 1280.63 0.673178 1.77675 0
M  V30 12807 H 1278.78 -0.74451 3.81299 0
M  V30 12808 H 1280.45 1.83104 4.23404 0
M  V30 12809 H 1278.69 1.78537 3.95357 0
M  V30 12810 H 1279.36 1.05968 5.41733 0
M  V30 12811 H 1281.84 -0.385711 4.14308 0
M  V30 12812 H 1280.71 -0.949355 5.40628 0
M  V30 12813 H 1280.98 -1.93424 3.97542 0
M  V30 12814 N 1280.03 -1.55556 0.252993 0
M  V30 12815 C 1280.97 -2.18978 -0.676837 0
M  V30 12816 C 1281.98 -1.16788 -1.13421 0
M  V30 12817 O 1283.17 -1.43623 -1.05993 0
M  V30 12818 C 1280.27 -2.78404 -1.93248 0
M  V30 12819 C 1279.44 -4.06072 -1.62555 0
M  V30 12820 C 1278.5 -4.49757 -2.7314 0
M  V30 12821 O 1277.53 -5.16005 -2.40266 0
M  V30 12822 N 1278.73 -4.18049 -4.0276 0
M  V30 12823 H 1281.49 -2.994 -0.134142 0
M  V30 12824 H 1279.05 -1.61734 0.0731965 0
M  V30 12825 H 1281.05 -3.04583 -2.6648 0
M  V30 12826 H 1279.62 -2.02104 -2.3848 0
M  V30 12827 H 1278.84 -3.87417 -0.728115 0
M  V30 12828 H 1280.12 -4.89297 -1.39521 0
M  V30 12829 H 1279.52 -3.64876 -4.32298 0
M  V30 12830 H 1278.08 -4.4905 -4.72438 0
M  V30 12831 N 1281.51 0.0200419 -1.57587 0
M  V30 12832 C 1282.92 0.565484 -1.7793 0
M  V30 12833 C 1283.27 1.75096 -0.885201 0
M  V30 12834 O 1282.4 2.16243 -0.0823831 0
M  V30 12835 C 1282.99 1.03263 -3.2268 0
M  V30 12836 C 1281.55 1.52352 -3.44189 0
M  V30 12837 C 1280.7 0.465637 -2.73363 0
M  V30 12838 H 1283.65 -0.206174 -1.57355 0
M  V30 12839 H 1283.67 1.89959 -3.2969 0
M  V30 12840 H 1283.18 0.169613 -3.87729 0
M  V30 12841 H 1281.29 2.40809 -2.84327 0
M  V30 12842 H 1281.4 1.5648 -4.52825 0
M  V30 12843 H 1279.76 0.922738 -2.37398 0
M  V30 12844 H 1280.55 -0.388068 -3.411 0
M  V30 12845 N 1282.99 1.54862 0.292472 0
M  V30 12846 C 1284.24 1.73756 1.02429 0
M  V30 12847 C 1284.55 0.535164 1.88137 0
M  V30 12848 O 1285.76 0.606092 2.64648 0
M  V30 12849 C 1284.21 3.0745 1.8709 0
M  V30 12850 C 1283.82 4.35195 1.06343 0
M  V30 12851 C 1285.57 3.357 2.59819 0
M  V30 12852 C 1283.47 5.59936 1.9033 0
M  V30 12853 H 1282.4 0.647617 0.386145 0
M  V30 12854 H 1285.05 1.81338 0.28086 0
M  V30 12855 H 1283.44 2.93855 2.65453 0
M  V30 12856 H 1284.61 4.5965 0.325335 0
M  V30 12857 H 1282.93 4.13944 0.451574 0
M  V30 12858 H 1285.52 4.26099 3.23023 0
M  V30 12859 H 1285.87 2.54956 3.29094 0
M  V30 12860 H 1286.4 3.50304 1.88499 0
M  V30 12861 H 1283.14 6.43372 1.25509 0
M  V30 12862 H 1282.66 5.39654 2.61789 0
M  V30 12863 H 1284.34 5.97512 2.48171 0
M  V30 12864 N 1284.47 -0.556076 1.47464 0
M  V30 12865 C 1285.43 -1.64515 1.59586 0
M  V30 12866 C 1286.43 -1.53751 0.470881 0
M  V30 12867 O 1287.62 -1.57889 0.735979 0
M  V30 12868 C 1284.75 -3.0406 1.54143 0
M  V30 12869 H 1285.95 -1.55116 2.56669 0
M  V30 12870 H 1283.5 -0.776087 1.35671 0
M  V30 12871 H 1284.23 -3.18991 0.584395 0
M  V30 12872 H 1284.02 -3.13282 2.3579 0
M  V30 12873 H 1285.51 -3.8329 1.65766 0
M  V30 12874 N 1285.95 -1.35615 -0.802897 0
M  V30 12875 C 1287.36 -1.15733 -1.099 0
M  V30 12876 C 1287.56 0.0277094 -2.01481 0
M  V30 12877 O 1286.62 0.697196 -2.42684 0
M  V30 12878 C 1287.93 -2.46201 -1.72643 0
M  V30 12879 C 1289.48 -2.52442 -1.85046 0
M  V30 12880 C 1289.96 -3.82962 -2.51205 0
M  V30 12881 N 1291.45 -3.84234 -2.58686 0
M  V30 12882 C 1292.18 -4.81956 -3.10654 0
M  V30 12883 N 1291.68 -5.90068 -3.63032 0
M  V30 12884 N 1293.47 -4.69389 -3.09241 0
M  V30 12885 H 1285.62 -2.11511 -0.194177 0
M  V30 12886 H 1287.88 -0.936259 -0.148739 0
M  V30 12887 H 1287.59 -3.33114 -1.12817 0
M  V30 12888 H 1287.46 -2.6102 -2.72302 0
M  V30 12889 H 1289.85 -1.65955 -2.44014 0
M  V30 12890 H 1289.93 -2.41534 -0.842316 0
M  V30 12891 H 1289.58 -4.69848 -1.92885 0
M  V30 12892 H 1289.51 -3.9116 -3.52564 0
M  V30 12893 H 1292 -3.0612 -2.21582 0
M  V30 12894 H 1292.31 -6.60623 -4.00996 0
M  V30 12895 H 1290.66 -5.93755 -3.6122 0
M  V30 12896 H 1293.85 -3.84066 -2.67602 0
M  V30 12897 H 1294.02 -5.4571 -3.49435 0
M  V30 12898 N 1287.43 1.02549 -1.19673 0
M  V30 12899 C 1288.34 2.14373 -0.952972 0
M  V30 12900 C 1289.35 1.73776 0.0881727 0
M  V30 12901 O 1290.53 2.01165 -0.0972471 0
M  V30 12902 C 1287.59 3.43096 -0.498569 0
M  V30 12903 C 1286.65 3.97987 -1.60951 0
M  V30 12904 C 1285.89 5.20567 -1.17669 0
M  V30 12905 O 1286.11 5.70385 -0.0416636 0
M  V30 12906 O 1285.04 5.6838 -1.98059 0
M  V30 12907 H 1288.87 2.378 -1.88904 0
M  V30 12908 H 1286.45 1.12781 -0.979836 0
M  V30 12909 H 1288.34 4.20634 -0.253968 0
M  V30 12910 H 1287.01 3.21105 0.409018 0
M  V30 12911 H 1285.92 3.21768 -1.90829 0
M  V30 12912 H 1287.25 4.24349 -2.49377 0
M  V30 12913 N 1288.9 1.00119 1.21713 0
M  V30 12914 C 1289.83 0.578504 2.2622 0
M  V30 12915 C 1290.81 -0.398777 1.6536 0
M  V30 12916 O 1292 -0.287596 1.92059 0
M  V30 12917 C 1289.13 -0.0994508 3.47158 0
M  V30 12918 C 1288.08 0.79722 4.2051 0
M  V30 12919 C 1287.41 -0.0141125 5.34698 0
M  V30 12920 C 1288.71 2.09802 4.7831 0
M  V30 12921 H 1290.4 1.45208 2.6183 0
M  V30 12922 H 1287.95 0.699656 1.2586 0
M  V30 12923 H 1289.9 -0.406605 4.19434 0
M  V30 12924 H 1288.63 -1.00763 3.10667 0
M  V30 12925 H 1287.29 1.08814 3.50079 0
M  V30 12926 H 1286.93 -0.923468 4.9445 0
M  V30 12927 H 1286.63 0.582883 5.84702 0
M  V30 12928 H 1288.16 -0.31517 6.09786 0
M  V30 12929 H 1289.57 1.85427 5.42485 0
M  V30 12930 H 1287.97 2.64455 5.38687 0
M  V30 12931 H 1289.04 2.77132 3.97902 0
M  V30 12932 N 1290.38 -1.37203 0.775435 0
M  V30 12933 C 1291.33 -2.27584 0.137667 0
M  V30 12934 C 1292.32 -1.46281 -0.670135 0
M  V30 12935 O 1293.51 -1.688 -0.532503 0
M  V30 12936 C 1290.64 -3.3528 -0.73773 0
M  V30 12937 C 1289.72 -4.24028 0.078102 0
M  V30 12938 N 1290.11 -4.93117 1.1256 0
M  V30 12939 C 1288.41 -4.45763 -0.145295 0
M  V30 12940 C 1289.11 -5.58656 1.62107 0
M  V30 12941 N 1288.09 -5.3554 0.932622 0
M  V30 12942 H 1291.89 -2.78475 0.93961 0
M  V30 12943 H 1289.4 -1.50364 0.613544 0
M  V30 12944 H 1291.4 -3.98941 -1.21043 0
M  V30 12945 H 1290.06 -2.85944 -1.53838 0
M  V30 12946 H 1291.07 -4.95465 1.50781 0
M  V30 12947 H 1287.75 -4.07292 -0.917557 0
M  V30 12948 H 1289.14 -6.23866 2.49482 0
M  V30 12949 N 1291.86 -0.526279 -1.48553 0
M  V30 12950 C 1292.79 0.275579 -2.27537 0
M  V30 12951 C 1293.8 0.90782 -1.35139 0
M  V30 12952 O 1294.99 0.786887 -1.6022 0
M  V30 12953 C 1292.09 1.40515 -3.08397 0
M  V30 12954 C 1291.27 0.875523 -4.28548 0
M  V30 12955 C 1290.33 1.88577 -4.91249 0
M  V30 12956 O 1289.35 1.44419 -5.50574 0
M  V30 12957 N 1290.55 3.21774 -4.83158 0
M  V30 12958 H 1293.32 -0.401803 -2.96994 0
M  V30 12959 H 1290.88 -0.360378 -1.57838 0
M  V30 12960 H 1292.87 2.07907 -3.47213 0
M  V30 12961 H 1291.44 1.98626 -2.41384 0
M  V30 12962 H 1290.66 0.025728 -3.94192 0
M  V30 12963 H 1291.95 0.500493 -5.06332 0
M  V30 12964 H 1291.35 3.60319 -4.36104 0
M  V30 12965 H 1289.9 3.84808 -5.26085 0
M  V30 12966 N 1293.34 1.5542 -0.261239 0
M  V30 12967 C 1294.58 1.99284 0.359487 0
M  V30 12968 C 1294.91 1.14954 1.56894 0
M  V30 12969 O 1294.17 0.203796 1.94636 0
M  V30 12970 C 1294.47 3.48354 0.799021 0
M  V30 12971 C 1294.13 4.49872 -0.30426 0
M  V30 12972 C 1292.79 4.77353 -0.607237 0
M  V30 12973 C 1295.15 5.10547 -1.04838 0
M  V30 12974 C 1292.47 5.62781 -1.65816 0
M  V30 12975 C 1294.83 5.97115 -2.08893 0
M  V30 12976 C 1293.49 6.22923 -2.3984 0
M  V30 12977 H 1292.76 0.72923 0.131546 0
M  V30 12978 H 1295.41 1.87851 -0.372058 0
M  V30 12979 H 1293.71 3.57192 1.61001 0
M  V30 12980 H 1295.41 3.7969 1.28981 0
M  V30 12981 H 1292 4.28561 -0.0579863 0
M  V30 12982 H 1296.18 4.89352 -0.827566 0
M  V30 12983 H 1291.44 5.81026 -1.90311 0
M  V30 12984 H 1295.61 6.43168 -2.67035 0
M  V30 12985 H 1293.24 6.88912 -3.2141 0
M  V30 12986 N 1294.82 -0.0116844 1.57596 0
M  V30 12987 C 1296.04 -0.71026 1.94327 0
M  V30 12988 C 1296.46 -1.67952 0.862418 0
M  V30 12989 O 1295.82 -1.818 -0.159698 0
M  V30 12990 C 1295.87 -1.45228 3.31045 0
M  V30 12991 O 1295.59 -0.52191 4.3498 0
M  V30 12992 C 1297.09 -2.24644 3.82165 0
M  V30 12993 H 1294.31 -0.198559 0.640949 0
M  V30 12994 H 1296.85 0.0359615 2.04468 0
M  V30 12995 H 1295.01 -2.15023 3.22248 0
M  V30 12996 H 1295.42 -1.04415 5.14002 0
M  V30 12997 H 1296.9 -2.72078 4.80289 0
M  V30 12998 H 1297.37 -3.06817 3.14261 0
M  V30 12999 H 1297.98 -1.59888 3.94101 0
M  V30 13000 N 1296.29 -1.55015 -0.284256 0
M  V30 13001 C 1297.54 -1.7509 -1.01733 0
M  V30 13002 C 1297.87 -0.545803 -1.86685 0
M  V30 13003 O 1297.12 0.471951 -1.89924 0
M  V30 13004 C 1297.42 -3.00246 -1.93874 0
M  V30 13005 C 1297.09 -4.33295 -1.24764 0
M  V30 13006 C 1295.75 -4.69459 -1.0565 0
M  V30 13007 C 1298.1 -5.15704 -0.754939 0
M  V30 13008 C 1295.43 -5.85596 -0.35976 0
M  V30 13009 C 1297.78 -6.32559 -0.0718473 0
M  V30 13010 C 1296.45 -6.67371 0.131104 0
M  V30 13011 H 1295.72 -0.6407 -0.372269 0
M  V30 13012 H 1298.36 -1.89282 -0.290638 0
M  V30 13013 H 1296.67 -2.80907 -2.73127 0
M  V30 13014 H 1298.37 -3.12974 -2.50696 0
M  V30 13015 H 1294.96 -4.04865 -1.4065 0
M  V30 13016 H 1299.14 -4.8825 -0.89027 0
M  V30 13017 H 1294.4 -6.11099 -0.19169 0
M  V30 13018 H 1298.57 -6.95675 0.317743 0
M  V30 13019 H 1296.2 -7.57215 0.672977 0
M  V30 13020 N 1297.77 0.548248 -1.47757 0
M  V30 13021 C 1299.05 1.3092 -1.45325 0
M  V30 13022 C 1299.43 2.1053 -0.155008 0
M  V30 13023 O 1298.78 2.11558 0.863455 0
M  V30 13024 C 1298.99 2.20614 -2.70426 0
M  V30 13025 C 1300.33 2.81345 -3.18009 0
M  V30 13026 O 1301.36 2.30911 -2.71216 0
M  V30 13027 O 1300.22 3.73036 -3.99383 0
M  V30 13028 H 1297.31 0.58996 -0.579548 0
M  V30 13029 H 1299.86 0.56641 -1.59968 0
M  V30 13030 H 1298.63 1.61449 -3.56441 0
M  V30 13031 H 1298.25 3.02173 -2.58413 0
M  V30 13032 N 1299.25 1.36039 0.795694 0
M  V30 13033 C 1300.18 1.32528 1.92246 0
M  V30 13034 C 1301.16 0.197805 1.68946 0
M  V30 13035 O 1302.35 0.394474 1.90151 0
M  V30 13036 C 1299.48 1.10748 3.29169 0
M  V30 13037 C 1298.43 2.20253 3.66978 0
M  V30 13038 C 1297.76 1.83624 5.02181 0
M  V30 13039 C 1299.06 3.62296 3.76216 0
M  V30 13040 H 1300.75 2.2681 1.95442 0
M  V30 13041 H 1298.3 1.09181 0.938908 0
M  V30 13042 H 1300.25 1.06929 4.07608 0
M  V30 13043 H 1298.97 0.129141 3.26345 0
M  V30 13044 H 1297.63 2.23187 2.90832 0
M  V30 13045 H 1297.28 0.843804 4.95872 0
M  V30 13046 H 1296.98 2.56935 5.28449 0
M  V30 13047 H 1298.5 1.81349 5.83048 0
M  V30 13048 H 1299.92 3.61623 4.44861 0
M  V30 13049 H 1298.31 4.34459 4.13963 0
M  V30 13050 H 1299.38 3.97657 2.77483 0
M  V30 13051 N 1300.73 -1.01913 1.20215 0
M  V30 13052 C 1301.66 -2.12282 0.97256 0
M  V30 13053 C 1302.64 -1.6982 -0.0975709 0
M  V30 13054 O 1303.82 -1.94109 0.0594307 0
M  V30 13055 C 1300.95 -3.43369 0.521085 0
M  V30 13056 C 1299.91 -3.99559 1.53417 0
M  V30 13057 C 1299.23 -5.26383 0.93942 0
M  V30 13058 C 1300.53 -4.33241 2.91718 0
M  V30 13059 H 1302.23 -2.31746 1.89563 0
M  V30 13060 H 1299.77 -1.1137 0.912841 0
M  V30 13061 H 1301.73 -4.19963 0.347713 0
M  V30 13062 H 1300.45 -3.23655 -0.437605 0
M  V30 13063 H 1299.11 -3.25069 1.69486 0
M  V30 13064 H 1298.76 -5.02993 -0.0271236 0
M  V30 13065 H 1298.46 -5.64942 1.616 0
M  V30 13066 H 1299.98 -6.05635 0.777059 0
M  V30 13067 H 1301.4 -5.00734 2.79175 0
M  V30 13068 H 1299.79 -4.82907 3.56259 0
M  V30 13069 H 1300.86 -3.42118 3.43633 0
M  V30 13070 N 1302.21 -1.00763 -1.2118 0
M  V30 13071 C 1303.46 -0.687197 -1.89633 0
M  V30 13072 C 1303.77 0.78566 -1.79128 0
M  V30 13073 O 1304.97 1.21828 -2.42632 0
M  V30 13074 C 1303.43 -1.1787 -3.40051 0
M  V30 13075 C 1303.04 -2.67782 -3.59161 0
M  V30 13076 C 1304.78 -0.933277 -4.14114 0
M  V30 13077 C 1302.69 -3.10459 -5.03358 0
M  V30 13078 H 1301.62 -0.253342 -0.710165 0
M  V30 13079 H 1304.27 -1.21914 -1.37147 0
M  V30 13080 H 1302.65 -0.574791 -3.91806 0
M  V30 13081 H 1303.83 -3.33645 -3.17833 0
M  V30 13082 H 1302.14 -2.90368 -2.98455 0
M  V30 13083 H 1304.74 -1.22766 -5.20416 0
M  V30 13084 H 1305.08 0.130431 -4.16096 0
M  V30 13085 H 1305.61 -1.50011 -3.68431 0
M  V30 13086 H 1302.35 -4.16068 -5.06525 0
M  V30 13087 H 1301.87 -2.4931 -5.45531 0
M  V30 13088 H 1303.55 -3.02589 -5.71882 0
M  V30 13089 N 1303.68 1.3679 -0.7827 0
M  V30 13090 C 1304.63 2.30139 -0.174595 0
M  V30 13091 C 1305.6 1.51645 0.677714 0
M  V30 13092 O 1306.79 1.80176 0.627796 0
M  V30 13093 C 1303.93 3.38133 0.689936 0
M  V30 13094 C 1303.04 4.31624 -0.180179 0
M  V30 13095 C 1302.17 5.26698 0.69009 0
M  V30 13096 C 1301.21 6.1183 -0.181891 0
M  V30 13097 N 1300.35 6.99113 0.646977 0
M  V30 13098 H 1305.19 2.81559 -0.97613 0
M  V30 13099 H 1302.73 1.38595 -0.492944 0
M  V30 13100 H 1304.69 3.99386 1.2061 0
M  V30 13101 H 1303.32 2.88049 1.45696 0
M  V30 13102 H 1302.37 3.71583 -0.81425 0
M  V30 13103 H 1303.68 4.91464 -0.852337 0
M  V30 13104 H 1302.83 5.93209 1.27232 0
M  V30 13105 H 1301.57 4.67297 1.3959 0
M  V30 13106 H 1300.58 5.44288 -0.776572 0
M  V30 13107 H 1301.8 6.73306 -0.885195 0
M  V30 13108 H 1299.75 6.42227 1.3372 0
M  V30 13109 H 1299.67 7.55993 0.0323547 0
M  V30 13110 H 1300.93 7.7 1.21325 0
M  V30 13111 N 1305.16 0.53415 1.48272 0
M  V30 13112 C 1306.39 0.00368464 2.074 0
M  V30 13113 C 1306.81 -1.27003 1.38751 0
M  V30 13114 O 1306.17 -1.75502 0.454817 0
M  V30 13115 C 1306.22 -0.199034 3.6005 0
M  V30 13116 O 1305.32 -1.26679 3.92462 0
M  V30 13117 H 1304.66 0.0409936 0.662733 0
M  V30 13118 H 1307.19 0.743253 1.90622 0
M  V30 13119 H 1307.2 -0.420404 4.05828 0
M  V30 13120 H 1305.88 0.731391 4.09418 0
M  V30 13121 H 1304.46 -1.02775 3.58457 0
M  V30 13122 N 1306.64 -1.55279 0.269478 0
M  V30 13123 C 1307.59 -2.18984 -0.634838 0
M  V30 13124 C 1308.57 -1.15269 -1.12258 0
M  V30 13125 O 1309.77 -1.41103 -1.0686 0
M  V30 13126 C 1306.9 -2.91014 -1.82114 0
M  V30 13127 C 1305.98 -4.02011 -1.35084 0
M  V30 13128 N 1306.37 -5.02273 -0.596299 0
M  V30 13129 C 1304.67 -4.14979 -1.63427 0
M  V30 13130 C 1305.37 -5.80647 -0.349781 0
M  V30 13131 N 1304.35 -5.35749 -0.92057 0
M  V30 13132 H 1308.15 -2.93857 -0.0504516 0
M  V30 13133 H 1305.66 -1.62237 0.0727843 0
M  V30 13134 H 1307.66 -3.35098 -2.48022 0
M  V30 13135 H 1306.32 -2.1765 -2.40953 0
M  V30 13136 H 1307.33 -5.17324 -0.244188 0
M  V30 13137 H 1304.01 -3.52802 -2.23242 0
M  V30 13138 H 1305.4 -6.71419 0.254139 0
M  V30 13139 N 1308.12 0.00332656 -1.576 0
M  V30 13140 C 1309.05 1.02964 -2.03651 0
M  V30 13141 C 1310.03 1.33675 -0.925724 0
M  V30 13142 O 1311.21 1.45896 -1.19359 0
M  V30 13143 C 1308.34 2.35808 -2.4313 0
M  V30 13144 C 1307.39 2.20781 -3.64908 0
M  V30 13145 S 1308.22 1.53697 -5.12969 0
M  V30 13146 C 1309.38 2.87978 -5.55715 0
M  V30 13147 H 1309.61 0.637508 -2.90384 0
M  V30 13148 H 1307.14 0.214095 -1.52908 0
M  V30 13149 H 1309.1 3.12193 -2.66544 0
M  V30 13150 H 1307.76 2.72162 -1.56802 0
M  V30 13151 H 1306.95 3.1891 -3.90272 0
M  V30 13152 H 1306.56 1.5254 -3.41478 0
M  V30 13153 H 1308.85 3.84283 -5.57972 0
M  V30 13154 H 1309.79 2.67318 -6.55703 0
M  V30 13155 H 1310.2 2.91735 -4.83271 0
M  V30 13156 N 1309.6 1.55164 0.276031 0
M  V30 13157 C 1310.84 1.75887 1.00953 0
M  V30 13158 C 1311.18 0.5567 1.8605 0
M  V30 13159 O 1310.45 -0.445799 1.89322 0
M  V30 13160 C 1310.73 3.06228 1.89463 0
M  V30 13161 C 1310.59 4.36795 1.07379 0
M  V30 13162 C 1311.91 3.32589 2.88223 0
M  V30 13163 H 1309.02 0.639929 0.365596 0
M  V30 13164 H 1311.67 1.87893 0.282156 0
M  V30 13165 H 1309.82 2.96124 2.51481 0
M  V30 13166 H 1311.49 4.58853 0.474549 0
M  V30 13167 H 1309.73 4.32157 0.377165 0
M  V30 13168 H 1310.4 5.24315 1.72621 0
M  V30 13169 H 1312.88 3.42467 2.36338 0
M  V30 13170 H 1311.75 4.2506 3.47297 0
M  V30 13171 H 1312.02 2.52083 3.6319 0
M  V30 13172 N 1311.07 -0.540404 1.48045 0
M  V30 13173 C 1312.3 -1.32656 1.59427 0
M  V30 13174 C 1312.72 -1.86419 0.250924 0
M  V30 13175 O 1312.08 -1.63861 -0.775838 0
M  V30 13176 C 1312.13 -2.46062 2.63602 0
M  V30 13177 O 1311.23 -3.48794 2.20038 0
M  V30 13178 H 1310.58 -0.393334 0.534962 0
M  V30 13179 H 1313.11 -0.651363 1.93955 0
M  V30 13180 H 1313.12 -2.92396 2.84549 0
M  V30 13181 H 1311.79 -2.06291 3.61133 0
M  V30 13182 H 1310.37 -3.0865 2.0926 0
M  V30 13183 N 1312.55 -1.36459 -0.788468 0
M  V30 13184 C 1313.8 -1.30935 -1.54867 0
M  V30 13185 C 1314.13 0.110916 -1.93883 0
M  V30 13186 O 1313.41 1.06452 -1.62783 0
M  V30 13187 C 1313.69 -2.23294 -2.8251 0
M  V30 13188 C 1313.54 -3.74022 -2.49856 0
M  V30 13189 C 1314.86 -2.14407 -3.84341 0
M  V30 13190 H 1311.98 -0.476958 -0.561854 0
M  V30 13191 H 1314.62 -1.67018 -0.905805 0
M  V30 13192 H 1312.77 -1.92652 -3.37369 0
M  V30 13193 H 1314.44 -4.15187 -2.01041 0
M  V30 13194 H 1312.69 -3.93411 -1.82785 0
M  V30 13195 H 1313.36 -4.34057 -3.41026 0
M  V30 13196 H 1315.83 -2.41381 -3.38932 0
M  V30 13197 H 1314.71 -2.81199 -4.71401 0
M  V30 13198 H 1314.97 -1.13166 -4.27371 0
M  V30 13199 N 1314.03 1.01274 -1.20754 0
M  V30 13200 C 1315.31 1.7213 -0.929008 0
M  V30 13201 C 1315.69 2.03503 0.561217 0
M  V30 13202 O 1315.04 1.70259 1.52395 0
M  V30 13203 C 1315.25 2.98636 -1.80603 0
M  V30 13204 C 1316.59 3.71823 -2.0502 0
M  V30 13205 O 1317.62 3.08601 -1.77888 0
M  V30 13206 O 1316.48 4.8552 -2.50864 0
M  V30 13207 H 1313.57 0.750361 -0.347689 0
M  V30 13208 H 1316.12 1.07086 -1.31646 0
M  V30 13209 H 1314.89 2.71803 -2.81494 0
M  V30 13210 H 1314.51 3.7142 -1.4189 0
M  V30 13211 N 1315.51 1.01404 1.20644 0
M  V30 13212 C 1316.76 0.701909 1.89946 0
M  V30 13213 C 1317.08 -0.768212 1.78686 0
M  V30 13214 O 1316.34 -1.57348 1.16363 0
M  V30 13215 C 1316.64 1.07995 3.40693 0
M  V30 13216 C 1316.3 2.54585 3.72152 0
M  V30 13217 C 1314.97 2.94639 3.80449 0
M  V30 13218 C 1317.32 3.49497 3.86654 0
M  V30 13219 C 1314.65 4.2855 4.00702 0
M  V30 13220 C 1317 4.83093 4.08416 0
M  V30 13221 C 1315.66 5.22857 4.14942 0
M  V30 13222 H 1314.93 0.256847 0.695062 0
M  V30 13223 H 1317.58 1.27415 1.4296 0
M  V30 13224 H 1315.88 0.426089 3.89476 0
M  V30 13225 H 1317.58 0.816176 3.92606 0
M  V30 13226 H 1314.17 2.22548 3.66292 0
M  V30 13227 H 1318.36 3.19713 3.79602 0
M  V30 13228 H 1313.61 4.58916 4.03988 0
M  V30 13229 H 1317.79 5.56565 4.18579 0
M  V30 13230 H 1315.41 6.26634 4.30388 0
M  V30 13231 N 1316.99 -1.36373 0.789944 0
M  V30 13232 C 1318.4 -1.81783 0.425677 0
M  V30 13233 C 1318.75 -1.65711 -1.05045 0
M  V30 13234 O 1317.87 -1.17835 -1.81505 0
M  V30 13235 C 1318.47 -3.3003 0.765866 0
M  V30 13236 C 1317.03 -3.73647 0.454421 0
M  V30 13237 C 1316.18 -2.58632 1.00023 0
M  V30 13238 H 1319.13 -1.24587 0.983044 0
M  V30 13239 H 1319.15 -3.80457 0.0571624 0
M  V30 13240 H 1318.66 -3.41696 1.84026 0
M  V30 13241 H 1316.76 -3.67541 -0.611918 0
M  V30 13242 H 1316.87 -4.69066 0.975401 0
M  V30 13243 H 1315.24 -2.51156 0.423434 0
M  V30 13244 H 1316.02 -2.73083 2.0804 0
M  V30 13245 N 1318.47 -0.542005 -1.47987 0
M  V30 13246 C 1319.38 0.217677 -2.33588 0
M  V30 13247 C 1320.39 0.927093 -1.47245 0
M  V30 13248 O 1321.57 0.899378 -1.80203 0
M  V30 13249 C 1318.63 1.24376 -3.23622 0
M  V30 13250 C 1317.69 0.543407 -4.25847 0
M  V30 13251 C 1316.93 1.5206 -5.11579 0
M  V30 13252 O 1317.15 2.75425 -4.99497 0
M  V30 13253 O 1316.08 1.05341 -5.9261 0
M  V30 13254 H 1319.91 -0.484089 -2.99817 0
M  V30 13255 H 1317.49 -0.302783 -1.463 0
M  V30 13256 H 1319.38 1.83644 -3.7928 0
M  V30 13257 H 1318.05 1.92772 -2.6004 0
M  V30 13258 H 1316.96 -0.090074 -3.73992 0
M  V30 13259 H 1318.29 -0.0988264 -4.92101 0
M  V30 13260 N 1319.94 1.55134 -0.277709 0
M  V30 13261 C 1320.88 2.18745 0.650058 0
M  V30 13262 C 1321.85 1.14922 1.15029 0
M  V30 13263 O 1323.04 1.43458 1.22278 0
M  V30 13264 C 1320.17 2.81277 1.88683 0
M  V30 13265 C 1319.21 3.98425 1.52185 0
M  V30 13266 S 1320.04 5.32153 0.597782 0
M  V30 13267 C 1321.2 5.98155 1.84287 0
M  V30 13268 H 1321.43 2.97098 0.109571 0
M  V30 13269 H 1318.97 1.54276 -0.0619536 0
M  V30 13270 H 1320.92 3.17934 2.59669 0
M  V30 13271 H 1319.59 2.02813 2.39845 0
M  V30 13272 H 1318.78 4.40877 2.4422 0
M  V30 13273 H 1318.38 3.63203 0.892146 0
M  V30 13274 H 1320.67 6.17546 2.78646 0
M  V30 13275 H 1321.62 6.92857 1.46131 0
M  V30 13276 H 1322.02 5.27541 2.00899 0
M  V30 13277 N 1321.42 0.00503138 1.57599 0
M  V30 13278 C 1322.35 -1.01883 2.04194 0
M  V30 13279 C 1323.33 -1.33183 0.9328 0
M  V30 13280 O 1324.52 -1.45261 1.20131 0
M  V30 13281 C 1321.64 -2.34515 2.44377 0
M  V30 13282 C 1320.69 -2.18843 3.66074 0
M  V30 13283 S 1321.52 -1.50975 5.13777 0
M  V30 13284 C 1322.68 -2.85027 5.57235 0
M  V30 13285 H 1322.91 -0.622099 2.90718 0
M  V30 13286 H 1320.44 -0.205983 1.5302 0
M  V30 13287 H 1322.4 -3.10775 2.68196 0
M  V30 13288 H 1321.06 -2.71327 1.58243 0
M  V30 13289 H 1320.26 -3.16836 3.91958 0
M  V30 13290 H 1319.86 -1.50727 3.42283 0
M  V30 13291 H 1322.15 -3.81318 5.60002 0
M  V30 13292 H 1323.09 -2.63837 6.57112 0
M  V30 13293 H 1323.5 -2.89168 4.84812 0
M  V30 13294 N 1322.9 -1.55308 -0.267798 0
M  V30 13295 C 1323.86 -1.87765 -1.31442 0
M  V30 13296 C 1324.86 -0.752571 -1.42102 0
M  V30 13297 O 1326.05 -1.02072 -1.41163 0
M  V30 13298 C 1323.18 -2.08754 -2.69508 0
M  V30 13299 H 1324.38 -2.8133 -1.03891 0
M  V30 13300 H 1321.93 -1.47879 -0.506111 0
M  V30 13301 H 1322.67 -1.17588 -3.02231 0
M  V30 13302 H 1322.45 -2.90674 -2.63156 0
M  V30 13303 H 1323.94 -2.3512 -3.4512 0
M  V30 13304 N 1324.38 0.532545 -1.4833 0
M  V30 13305 C 1325.29 1.66433 -1.65339 0
M  V30 13306 C 1326.3 1.65541 -0.535939 0
M  V30 13307 O 1327.48 1.84539 -0.806679 0
M  V30 13308 C 1324.54 3.02901 -1.68676 0
M  V30 13309 C 1323.61 3.14669 -2.92031 0
M  V30 13310 C 1322.84 4.44627 -2.95199 0
M  V30 13311 O 1323.06 5.31572 -2.06851 0
M  V30 13312 O 1322 4.60707 -3.87341 0
M  V30 13313 H 1325.82 1.5502 -2.61156 0
M  V30 13314 H 1323.41 0.705348 -1.31701 0
M  V30 13315 H 1325.29 3.84068 -1.73407 0
M  V30 13316 H 1323.96 3.14644 -0.760327 0
M  V30 13317 H 1322.87 2.32807 -2.92834 0
M  V30 13318 H 1324.2 3.07841 -3.8405 0
M  V30 13319 N 1325.86 1.36875 0.78122 0
M  V30 13320 C 1327.1 1.30886 1.53466 0
M  V30 13321 C 1327.42 -0.107218 1.95306 0
M  V30 13322 O 1328.62 -0.289525 2.69952 0
M  V30 13323 C 1327.08 2.29688 2.77076 0
M  V30 13324 C 1326.69 3.76775 2.42373 0
M  V30 13325 C 1328.43 2.32692 3.55042 0
M  V30 13326 C 1326.34 4.67332 3.62428 0
M  V30 13327 H 1325.27 0.486408 0.576128 0
M  V30 13328 H 1327.92 1.62283 0.856529 0
M  V30 13329 H 1326.3 1.91296 3.4673 0
M  V30 13330 H 1327.48 4.2395 1.80563 0
M  V30 13331 H 1325.79 3.76625 1.77602 0
M  V30 13332 H 1328.39 2.97556 4.44257 0
M  V30 13333 H 1328.73 1.33779 3.94219 0
M  V30 13334 H 1329.26 2.69743 2.92375 0
M  V30 13335 H 1326 5.67339 3.2834 0
M  V30 13336 H 1325.52 4.24868 4.23376 0
M  V30 13337 H 1327.2 4.84005 4.29358 0
M  V30 13338 N 1327.33 -1.00632 1.21289 0
M  V30 13339 C 1328.58 -1.73802 1.02351 0
M  V30 13340 C 1328.9 -1.90503 -0.443611 0
M  V30 13341 O 1330.1 -2.60868 -0.752356 0
M  V30 13342 C 1328.56 -3.12647 1.78269 0
M  V30 13343 C 1328.17 -3.03923 3.29142 0
M  V30 13344 C 1329.91 -3.89956 1.67735 0
M  V30 13345 C 1327.82 -4.3784 3.97556 0
M  V30 13346 H 1326.75 -0.651616 0.379358 0
M  V30 13347 H 1329.4 -1.12446 1.45011 0
M  V30 13348 H 1327.78 -3.74605 1.28401 0
M  V30 13349 H 1328.95 -2.51211 3.86303 0
M  V30 13350 H 1327.27 -2.40103 3.40205 0
M  V30 13351 H 1329.87 -4.89051 2.1618 0
M  V30 13352 H 1330.21 -4.11423 0.635338 0
M  V30 13353 H 1330.74 -3.34647 2.15072 0
M  V30 13354 H 1327.48 -4.21573 5.01952 0
M  V30 13355 H 1327 -4.90518 3.45184 0
M  V30 13356 H 1328.68 -5.06644 4.02393 0
M  V30 13357 N 1328.81 -1.02043 -1.20104 0
M  V30 13358 C 1330.04 -0.731142 -1.94085 0
M  V30 13359 C 1330.46 0.702467 -1.74491 0
M  V30 13360 O 1329.82 1.48387 -1.04168 0
M  V30 13361 C 1329.87 -1.07691 -3.44144 0
M  V30 13362 O 1328.97 -0.190751 -4.11959 0
M  V30 13363 H 1328.31 -0.270917 -0.606218 0
M  V30 13364 H 1330.84 -1.36483 -1.52426 0
M  V30 13365 H 1330.85 -1.03023 -3.94779 0
M  V30 13366 H 1329.53 -2.1214 -3.57728 0
M  V30 13367 H 1328.1 -0.29529 -3.71729 0
M  V30 13368 N 1330.29 1.35952 -0.797165 0
M  V30 13369 C 1331.54 1.99327 -0.373695 0
M  V30 13370 C 1331.87 1.63111 1.05396 0
M  V30 13371 O 1331.14 0.889736 1.72956 0
M  V30 13372 C 1331.43 3.5593 -0.54641 0
M  V30 13373 C 1331.28 4.01975 -2.01832 0
M  V30 13374 C 1332.6 4.40087 0.0337694 0
M  V30 13375 H 1329.72 0.724107 -0.137254 0
M  V30 13376 H 1332.36 1.61248 -1.00495 0
M  V30 13377 H 1330.51 3.88499 -0.00903959 0
M  V30 13378 H 1332.18 3.79859 -2.61735 0
M  V30 13379 H 1330.43 3.5323 -2.51815 0
M  V30 13380 H 1331.1 5.109 -2.09009 0
M  V30 13381 H 1333.57 4.13923 -0.425039 0
M  V30 13382 H 1332.45 5.48775 -0.117054 0
M  V30 13383 H 1332.71 4.27504 1.12661 0
M  V30 13384 N 1331.77 0.549846 1.47697 0
M  V30 13385 C 1332.7 -0.239345 2.27947 0
M  V30 13386 C 1333.71 -0.886206 1.36566 0
M  V30 13387 O 1334.9 -0.761298 1.61451 0
M  V30 13388 C 1332 -1.35591 3.10593 0
M  V30 13389 C 1331.18 -0.807234 4.29887 0
M  V30 13390 C 1330.23 -1.80738 4.94187 0
M  V30 13391 O 1329.26 -1.35641 5.52802 0
M  V30 13392 N 1330.46 -3.14046 4.88216 0
M  V30 13393 H 1333.23 0.449001 2.96318 0
M  V30 13394 H 1330.79 0.385443 1.57245 0
M  V30 13395 H 1332.78 -2.02356 3.50477 0
M  V30 13396 H 1331.35 -1.94761 2.44514 0
M  V30 13397 H 1330.57 0.0369877 3.94183 0
M  V30 13398 H 1331.86 -0.419877 5.07065 0
M  V30 13399 H 1331.26 -3.53335 4.41781 0
M  V30 13400 H 1329.81 -3.7639 5.32141 0
M  V30 13401 N 1333.25 -1.54984 0.285932 0
M  V30 13402 C 1334.49 -2.00126 -0.328223 0
M  V30 13403 C 1334.83 -1.17409 -1.54689 0
M  V30 13404 O 1334.1 -0.246806 -1.92928 0
M  V30 13405 C 1334.38 -3.53236 -0.699733 0
M  V30 13406 C 1334.24 -4.46702 0.527029 0
M  V30 13407 C 1335.56 -4.12572 -1.53206 0
M  V30 13408 H 1332.67 -0.727521 -0.117825 0
M  V30 13409 H 1335.32 -1.85848 0.395032 0
M  V30 13410 H 1333.47 -3.65534 -1.31594 0
M  V30 13411 H 1335.14 -4.46332 1.16557 0
M  V30 13412 H 1333.38 -4.17917 1.1631 0
M  V30 13413 H 1334.05 -5.51549 0.223165 0
M  V30 13414 H 1336.53 -4.03618 -1.01154 0
M  V30 13415 H 1335.4 -5.19891 -1.7608 0
M  V30 13416 H 1335.67 -3.63487 -2.51654 0
M  V30 13417 N 1334.72 -0.0133892 -1.57594 0
M  V30 13418 C 1336.14 0.527615 -1.7909 0
M  V30 13419 C 1336.49 1.73179 -0.922142 0
M  V30 13420 O 1335.61 2.1602 -0.128233 0
M  V30 13421 C 1336.21 0.963949 -3.24798 0
M  V30 13422 C 1334.77 1.45017 -3.47343 0
M  V30 13423 C 1333.91 0.407548 -2.74289 0
M  V30 13424 H 1336.86 -0.239505 -1.56882 0
M  V30 13425 H 1336.88 1.82924 -3.33645 0
M  V30 13426 H 1336.4 0.0873315 -3.88002 0
M  V30 13427 H 1334.5 2.34724 -2.89371 0
M  V30 13428 H 1334.61 1.4684 -4.56043 0
M  V30 13429 H 1332.97 0.872174 -2.39301 0
M  V30 13430 H 1333.76 -0.460333 -3.402 0
M  V30 13431 N 1336.2 1.55448 0.259558 0
M  V30 13432 C 1337.15 1.89248 1.32113 0
M  V30 13433 C 1338.12 0.745348 1.48438 0
M  V30 13434 O 1339.3 0.997854 1.62627 0
M  V30 13435 C 1336.44 2.18161 2.67394 0
M  V30 13436 C 1335.56 3.45614 2.59182 0
M  V30 13437 C 1334.69 3.6416 3.86731 0
M  V30 13438 C 1333.73 4.85258 3.73084 0
M  V30 13439 N 1332.87 5.00391 4.92497 0
M  V30 13440 H 1337.71 2.79785 1.02589 0
M  V30 13441 H 1335.25 1.38509 0.495338 0
M  V30 13442 H 1337.2 2.32927 3.46122 0
M  V30 13443 H 1335.83 1.30843 2.95093 0
M  V30 13444 H 1334.89 3.39248 1.72091 0
M  V30 13445 H 1336.2 4.34483 2.45002 0
M  V30 13446 H 1335.35 3.78817 4.73902 0
M  V30 13447 H 1334.09 2.73501 4.03793 0
M  V30 13448 H 1333.1 4.70591 2.84296 0
M  V30 13449 H 1334.32 5.77365 3.57528 0
M  V30 13450 H 1332.27 4.12666 5.09944 0
M  V30 13451 H 1332.18 5.83328 4.809 0
M  V30 13452 H 1333.45 5.19446 5.81202 0
M  V30 13453 N 1337.68 -0.524672 1.4861 0
M  V30 13454 C 1338.93 -1.27671 1.5615 0
M  V30 13455 C 1339.24 -1.94088 0.242709 0
M  V30 13456 O 1340.45 -2.70789 0.196407 0
M  V30 13457 C 1338.9 -2.31686 2.75408 0
M  V30 13458 C 1338.51 -1.71315 4.13951 0
M  V30 13459 C 1340.26 -3.07867 2.92264 0
M  V30 13460 C 1338.16 -2.73302 5.24462 0
M  V30 13461 H 1337.09 -0.480177 0.581332 0
M  V30 13462 H 1339.74 -0.553473 1.74954 0
M  V30 13463 H 1338.13 -3.07069 2.50049 0
M  V30 13464 H 1339.3 -1.02085 4.4935 0
M  V30 13465 H 1337.62 -1.07608 4.02255 0
M  V30 13466 H 1340.21 -3.84088 3.71995 0
M  V30 13467 H 1340.56 -3.64052 2.01921 0
M  V30 13468 H 1341.09 -2.39599 3.17549 0
M  V30 13469 H 1337.83 -2.21929 6.16788 0
M  V30 13470 H 1337.35 -3.40843 4.93544 0
M  V30 13471 H 1339.03 -3.36186 5.528 0
M  V30 13472 N 1339.16 -1.37287 -0.77395 0
M  V30 13473 C 1340.09 -1.35569 -1.90114 0
M  V30 13474 C 1341.07 -0.224658 -1.6861 0
M  V30 13475 O 1342.25 -0.424676 -1.895 0
M  V30 13476 C 1339.38 -1.15971 -3.27365 0
M  V30 13477 C 1338.34 -2.26063 -3.63427 0
M  V30 13478 C 1337.66 -1.9159 -4.99197 0
M  V30 13479 C 1338.96 -3.68236 -3.70405 0
M  V30 13480 H 1340.66 -2.29891 -1.91808 0
M  V30 13481 H 1338.2 -1.10661 -0.92142 0
M  V30 13482 H 1340.16 -1.134 -4.05855 0
M  V30 13483 H 1338.88 -0.181043 -3.26098 0
M  V30 13484 H 1337.54 -2.27786 -2.87244 0
M  V30 13485 H 1337.19 -0.922586 -4.94467 0
M  V30 13486 H 1336.89 -2.65309 -5.24294 0
M  V30 13487 H 1338.41 -1.90602 -5.80089 0
M  V30 13488 H 1339.83 -3.68655 -4.39052 0
M  V30 13489 H 1338.22 -4.4099 -4.06999 0
M  V30 13490 H 1339.29 -4.02021 -2.71122 0
M  V30 13491 N 1340.64 0.999871 -1.21821 0
M  V30 13492 C 1341.86 1.7794 -1.06546 0
M  V30 13493 C 1342.29 1.84219 0.380115 0
M  V30 13494 O 1341.64 1.28955 1.27438 0
M  V30 13495 C 1341.69 3.1943 -1.67322 0
M  V30 13496 O 1340.8 4.01957 -0.922171 0
M  V30 13497 H 1340.14 0.548204 -0.374658 0
M  V30 13498 H 1342.67 1.2565 -1.61472 0
M  V30 13499 H 1342.68 3.70086 -1.71757 0
M  V30 13500 H 1341.35 3.14175 -2.7252 0
M  V30 13501 H 1339.93 3.60509 -0.95331 0
M  V30 13502 N 1342.11 1.02678 1.19562 0
M  V30 13503 C 1343.36 0.72059 1.88817 0
M  V30 13504 C 1343.68 -0.752942 1.79877 0
M  V30 13505 O 1342.95 -1.54233 1.20785 0
M  V30 13506 H 1341.53 0.26355 0.698964 0
M  V30 13507 H 1344.2 1.30056 1.4516 0
M  V30 13508 H 1343.29 1.01303 2.95202 0
M  V30 13509 N 1343.59 -1.35528 0.804364 0
M  V30 13510 C 1344.54 -2.29832 0.211186 0
M  V30 13511 C 1345.51 -1.52704 -0.653503 0
M  V30 13512 O 1346.69 -1.81152 -0.599052 0
M  V30 13513 C 1343.83 -3.39188 -0.636054 0
M  V30 13514 C 1342.95 -4.31283 0.248824 0
M  V30 13515 C 1342.08 -5.2773 -0.60621 0
M  V30 13516 C 1341.12 -6.11463 0.279205 0
M  V30 13517 N 1340.26 -7.00054 -0.535672 0
M  V30 13518 H 1345.1 -2.79971 1.0208 0
M  V30 13519 H 1342.64 -1.37793 0.514931 0
M  V30 13520 H 1344.59 -4.01254 -1.14241 0
M  V30 13521 H 1343.22 -2.90331 -1.41095 0
M  V30 13522 H 1342.28 -3.70241 0.873263 0
M  V30 13523 H 1343.59 -4.90046 0.930417 0
M  V30 13524 H 1342.74 -5.95158 -1.17778 0
M  V30 13525 H 1341.48 -4.69458 -1.32138 0
M  V30 13526 H 1340.49 -5.42984 0.863066 0
M  V30 13527 H 1341.71 -6.71813 0.9922 0
M  V30 13528 H 1339.66 -6.44273 -1.23486 0
M  V30 13529 H 1339.57 -7.55949 0.0879213 0
M  V30 13530 H 1340.84 -7.71833 -1.09059 0
M  V30 13531 N 1345.07 -0.557671 -1.47404 0
M  V30 13532 C 1346.32 -0.0338384 -2.02772 0
M  V30 13533 C 1346.65 1.31278 -1.43107 0
M  V30 13534 O 1345.93 1.85436 -0.58682 0
M  V30 13535 C 1346.21 0.0587427 -3.60052 0
M  V30 13536 C 1346.06 -1.315 -4.30148 0
M  V30 13537 C 1347.38 0.771942 -4.33277 0
M  V30 13538 H 1344.5 -0.0137711 -0.736871 0
M  V30 13539 H 1347.14 -0.720049 -1.75827 0
M  V30 13540 H 1345.29 0.643154 -3.83139 0
M  V30 13541 H 1346.96 -1.94265 -4.184 0
M  V30 13542 H 1345.21 -1.88956 -3.90484 0
M  V30 13543 H 1345.88 -1.20294 -5.38733 0
M  V30 13544 H 1348.35 0.275729 -4.15185 0
M  V30 13545 H 1347.23 0.805683 -5.42955 0
M  V30 13546 H 1347.49 1.82816 -4.0253 0
M  V30 13547 N 1346.55 1.54831 -0.294147 0
M  V30 13548 C 1347.5 2.23263 0.58499 0
M  V30 13549 C 1348.47 1.21278 1.13494 0
M  V30 13550 O 1349.65 1.49878 1.18073 0
M  V30 13551 C 1346.79 2.97185 1.75429 0
M  V30 13552 C 1345.9 4.1393 1.23638 0
M  V30 13553 C 1345.04 4.7545 2.36899 0
M  V30 13554 C 1344.08 5.84352 1.82207 0
M  V30 13555 N 1343.22 6.39855 2.89015 0
M  V30 13556 H 1348.06 2.98 -0.00519329 0
M  V30 13557 H 1345.59 1.47093 -0.0143313 0
M  V30 13558 H 1347.55 3.38271 2.4419 0
M  V30 13559 H 1346.18 2.24837 2.3162 0
M  V30 13560 H 1345.23 3.77832 0.441247 0
M  V30 13561 H 1346.54 4.92409 0.795946 0
M  V30 13562 H 1345.7 5.19353 3.1362 0
M  V30 13563 H 1344.44 3.96288 2.84266 0
M  V30 13564 H 1343.44 5.39879 1.03974 0
M  V30 13565 H 1344.67 6.65393 1.35753 0
M  V30 13566 H 1342.61 5.6358 3.35729 0
M  V30 13567 H 1342.53 7.13661 2.49447 0
M  V30 13568 H 1343.8 6.88417 3.65654 0
M  V30 13569 N 1348.03 0.0217466 1.57585 0
M  V30 13570 C 1349.44 -0.51811 1.79367 0
M  V30 13571 C 1349.79 -1.72688 0.931313 0
M  V30 13572 O 1348.91 -2.15949 0.139687 0
M  V30 13573 C 1349.51 -0.946711 3.25304 0
M  V30 13574 C 1348.07 -1.43173 3.48107 0
M  V30 13575 C 1347.22 -0.392996 2.74501 0
M  V30 13576 H 1350.17 0.247822 1.56753 0
M  V30 13577 H 1350.19 -1.81152 3.34611 0
M  V30 13578 H 1349.7 -0.0667536 3.88043 0
M  V30 13579 H 1347.8 -2.33186 2.90612 0
M  V30 13580 H 1347.91 -1.44419 4.56815 0
M  V30 13581 H 1346.28 -0.859471 2.39761 0
M  V30 13582 H 1347.06 0.478368 3.39951 0
M  V30 13583 N 1349.51 -1.55583 -0.251311 0
M  V30 13584 C 1350.75 -1.76411 -0.977859 0
M  V30 13585 C 1351.07 -0.584857 -1.86651 0
M  V30 13586 O 1352.27 -0.676046 -2.62948 0
M  V30 13587 C 1350.73 -3.12302 -1.78872 0
M  V30 13588 C 1350.34 -4.37862 -0.947674 0
M  V30 13589 C 1352.08 -3.42471 -2.50827 0
M  V30 13590 C 1349.99 -5.64786 -1.75417 0
M  V30 13591 H 1348.92 -0.657628 -0.368839 0
M  V30 13592 H 1351.57 -1.82019 -0.232682 0
M  V30 13593 H 1349.95 -3.0079 -2.57569 0
M  V30 13594 H 1351.13 -4.60351 -0.203352 0
M  V30 13595 H 1349.44 -4.14996 -0.341666 0
M  V30 13596 H 1352.04 -4.34514 -3.11612 0
M  V30 13597 H 1352.38 -2.63592 -3.22219 0
M  V30 13598 H 1352.91 -3.55179 -1.79145 0
M  V30 13599 H 1349.65 -6.46474 -1.08407 0
M  V30 13600 H 1349.17 -5.46405 -2.47389 0
M  V30 13601 H 1350.85 -6.03881 -2.32242 0
M  V30 13602 N 1350.98 0.516783 -1.48886 0
M  V30 13603 C 1352.21 1.2944 -1.61024 0
M  V30 13604 C 1352.62 1.87195 -0.274705 0
M  V30 13605 O 1351.96 1.67787 0.747868 0
M  V30 13606 C 1352.03 2.4743 -2.60804 0
M  V30 13607 C 1351.69 2.10663 -4.05549 0
M  V30 13608 C 1352.69 1.65559 -4.92835 0
M  V30 13609 C 1350.37 2.20782 -4.51177 0
M  V30 13610 C 1352.37 1.31057 -6.23781 0
M  V30 13611 C 1350.05 1.85891 -5.82141 0
M  V30 13612 C 1351.05 1.41101 -6.68266 0
M  V30 13613 O 1350.74 1.06674 -7.96791 0
M  V30 13614 H 1350.47 0.399402 -0.545394 0
M  V30 13615 H 1353.03 0.628719 -1.95541 0
M  V30 13616 H 1351.26 3.17023 -2.21435 0
M  V30 13617 H 1352.94 3.09478 -2.62637 0
M  V30 13618 H 1353.71 1.57201 -4.58817 0
M  V30 13619 H 1349.59 2.54598 -3.84319 0
M  V30 13620 H 1353.13 0.960245 -6.9096 0
M  V30 13621 H 1349.03 1.93894 -6.15691 0
M  V30 13622 H 1349.8 1.19958 -8.09662 0
M  V30 13623 N 1352.46 1.37696 0.766659 0
M  V30 13624 C 1353.71 1.33185 1.52539 0
M  V30 13625 C 1354.04 -0.0821239 1.94327 0
M  V30 13626 O 1353.29 -1.05645 1.64735 0
M  V30 13627 C 1353.59 2.22154 2.79968 0
M  V30 13628 C 1353.26 3.70344 2.57208 0
M  V30 13629 C 1351.92 4.10729 2.50709 0
M  V30 13630 C 1354.27 4.64205 2.36988 0
M  V30 13631 C 1351.6 5.43082 2.21988 0
M  V30 13632 C 1353.95 5.96801 2.0979 0
M  V30 13633 C 1352.61 6.36284 2.01739 0
M  V30 13634 H 1351.88 0.487357 0.558179 0
M  V30 13635 H 1354.53 1.69945 0.882662 0
M  V30 13636 H 1352.84 1.78406 3.48825 0
M  V30 13637 H 1354.53 2.15975 3.37869 0
M  V30 13638 H 1351.12 3.38319 2.63131 0
M  V30 13639 H 1355.31 4.3386 2.40996 0
M  V30 13640 H 1350.56 5.7263 2.14254 0
M  V30 13641 H 1354.74 6.6908 1.93145 0
M  V30 13642 H 1352.36 7.38765 1.79248 0
M  V30 13643 N 1353.94 -0.993397 1.22349 0
M  V30 13644 C 1354.89 -2.06784 0.960445 0
M  V30 13645 C 1355.87 -1.60655 -0.0887385 0
M  V30 13646 O 1357.07 -1.76581 0.121716 0
M  V30 13647 C 1354.19 -3.39034 0.539552 0
M  V30 13648 C 1353.28 -3.91798 1.62344 0
M  V30 13649 N 1353.67 -4.17791 2.85104 0
M  V30 13650 C 1351.97 -4.20197 1.49501 0
M  V30 13651 C 1352.67 -4.6067 3.55187 0
M  V30 13652 N 1351.65 -4.64333 2.82658 0
M  V30 13653 H 1355.45 -2.24821 1.89295 0
M  V30 13654 H 1352.96 -1.17509 1.12095 0
M  V30 13655 H 1354.96 -4.15573 0.332419 0
M  V30 13656 H 1353.62 -3.22397 -0.38606 0
M  V30 13657 H 1354.63 -4.05999 3.21536 0
M  V30 13658 H 1351.31 -4.12634 0.635546 0
M  V30 13659 H 1352.7 -4.89408 4.60358 0
M  V30 13660 N 1355.42 -1.03311 -1.19015 0
M  V30 13661 C 1356.65 -0.751802 -1.92758 0
M  V30 13662 C 1357.06 0.689982 -1.7574 0
M  V30 13663 O 1356.42 1.46961 -1.08207 0
M  V30 13664 C 1356.47 -1.09892 -3.44392 0
M  V30 13665 O 1356.19 -2.48409 -3.60866 0
M  V30 13666 C 1357.69 -0.841029 -4.35249 0
M  V30 13667 H 1354.91 -0.274757 -0.612168 0
M  V30 13668 H 1357.45 -1.37873 -1.51034 0
M  V30 13669 H 1355.61 -0.517092 -3.83933 0
M  V30 13670 H 1356.02 -2.61468 -4.54681 0
M  V30 13671 H 1357.5 -1.13383 -5.4023 0
M  V30 13672 H 1357.97 0.224434 -4.38626 0
M  V30 13673 H 1358.58 -1.40579 -4.01395 0
M  V30 13674 N 1356.9 1.35099 -0.81154 0
M  V30 13675 C 1357.83 2.28468 -0.183012 0
M  V30 13676 C 1358.84 1.50509 0.620553 0
M  V30 13677 O 1360.03 1.7268 0.4521 0
M  V30 13678 C 1357.13 3.30201 0.762933 0
M  V30 13679 C 1356.3 4.374 0.00466561 0
M  V30 13680 C 1355.36 5.18961 0.869832 0
M  V30 13681 O 1354.39 5.68306 0.318964 0
M  V30 13682 N 1355.59 5.37555 2.19123 0
M  V30 13683 H 1358.35 2.83046 -0.985132 0
M  V30 13684 H 1355.92 1.47502 -0.667449 0
M  V30 13685 H 1357.91 3.81659 1.34606 0
M  V30 13686 H 1356.48 2.76101 1.46584 0
M  V30 13687 H 1355.7 3.8681 -0.759702 0
M  V30 13688 H 1356.99 5.06159 -0.517739 0
M  V30 13689 H 1356.38 4.99118 2.66266 0
M  V30 13690 H 1354.94 5.92174 2.72348 0
M  V30 13691 O 1358.41 0.706436 1.4523 0
M  V30 13692 H 1359.1 0.248661 1.92097 0
M  V30 END ATOM
M  V30 BEGIN BOND
M  V30 END BOND
M  V30 END CTAB
M  END
$$$$
