drugbank_target|P37288 Vasopressin V1a receptor (DB00035; DB00067; DB00093; DB00872; DB02638; DB05452; DB06212; DB09059; DB13929; DB14642)
 OpenBabel12092119253D

  0  0  0     0  0            999 V3000
M  V30 BEGIN CTAB
M  V30 COUNTS 6576 6668 0 0 0
M  V30 BEGIN ATOM
M  V30 1 H -0.908 1.98254 -0.117106 0
M  V30 2 N 0 1.576 0 0
M  V30 3 C 0.933 2.03868 1.02534 0
M  V30 4 C 1.911 0.928543 1.3348 0
M  V30 5 O 3.095 1.19667 1.45644 0
M  V30 6 C 0.222 2.43627 2.35294 0
M  V30 7 C -0.732 3.65373 2.2001 0
M  V30 8 S 0.101 5.13292 1.52614 0
M  V30 9 C 1.257 5.56322 2.86805 0
M  V30 10 H 1.49 2.90518 0.631377 0
M  V30 11 H -0.977 1.52953 0.210867 0
M  V30 12 H 0.981 2.67203 3.11629 0
M  V30 13 H -0.358 1.57376 2.7183 0
M  V30 14 H -1.165 3.90944 3.18086 0
M  V30 15 H -1.563 3.418 1.51819 0
M  V30 16 H 0.729 5.58782 3.83104 0
M  V30 17 H 1.672 6.56266 2.65933 0
M  V30 18 H 2.08 4.83886 2.90714 0
M  V30 19 N 1.4781 -0.272755 1.55222 0
M  V30 20 C 2.8941 -0.619959 1.47067 0
M  V30 21 C 3.0941 -1.895 0.684978 0
M  V30 22 O 2.1501 -2.51675 0.203931 0
M  V30 23 C 3.4631 -0.746693 2.91282 0
M  V30 24 C 5.0111 -0.840731 3.01497 0
M  V30 25 C 5.4861 -0.99924 4.46967 0
M  V30 26 N 6.9771 -1.06476 4.50796 0
M  V30 27 C 7.7121 -1.20621 5.6057 0
M  V30 28 N 7.2081 -1.31483 6.80209 0
M  V30 29 N 9.0011 -1.23733 5.48312 0
M  V30 30 H 1.1521 0.564606 2.04758 0
M  V30 31 H 3.4151 0.191177 0.928523 0
M  V30 32 H 3.1211 0.119753 3.51496 0
M  V30 33 H 2.9951 -1.6269 3.40311 0
M  V30 34 H 5.3821 -1.69764 2.41379 0
M  V30 35 H 5.4631 0.0640874 2.5572 0
M  V30 36 H 5.1071 -0.146984 5.07687 0
M  V30 37 H 5.0371 -1.91871 4.90401 0
M  V30 38 H 7.5281 -0.993196 3.64615 0
M  V30 39 H 7.8411 -1.42111 7.59621 0
M  V30 40 H 6.1861 -1.28487 6.8302 0
M  V30 41 H 9.3771 -1.14877 4.53785 0
M  V30 42 H 9.5501 -1.34412 6.33906 0
M  V30 43 N 2.9562 -1.48159 -0.537278 0
M  V30 44 C 3.8862 -1.65029 -1.6519 0
M  V30 45 C 4.8672 -0.499281 -1.62607 0
M  V30 46 O 6.0522 -0.730972 -1.79918 0
M  V30 47 C 3.1822 -1.68303 -3.03795 0
M  V30 48 C 2.1362 -2.8283 -3.21234 0
M  V30 49 C 1.4622 -2.71189 -4.60826 0
M  V30 50 C 2.7622 -4.24211 -3.04701 0
M  V30 51 H 4.4562 -2.58341 -1.51328 0
M  V30 52 H 2.0022 -1.24325 -0.726585 0
M  V30 53 H 3.9552 -1.78693 -3.81637 0
M  V30 54 H 2.6792 -0.715635 -3.18663 0
M  V30 55 H 1.3382 -2.71983 -2.45807 0
M  V30 56 H 0.9862 -1.72435 -4.7252 0
M  V30 57 H 0.6862 -3.48035 -4.7344 0
M  V30 58 H 2.2102 -2.83537 -5.40777 0
M  V30 59 H 3.6242 -4.3593 -3.72341 0
M  V30 60 H 2.0212 -5.01998 -3.28813 0
M  V30 61 H 3.0912 -4.41184 -2.01209 0
M  V30 62 N 4.4343 0.785586 -1.36625 0
M  V30 63 C 5.6593 1.57963 -1.34397 0
M  V30 64 C 6.0843 1.87964 0.071526 0
M  V30 65 O 5.4423 1.48182 1.0446 0
M  V30 66 C 5.4903 2.87511 -2.17646 0
M  V30 67 O 4.5943 3.81281 -1.57158 0
M  V30 68 H 3.9353 0.479014 -0.459828 0
M  V30 69 H 6.4653 0.973411 -1.79961 0
M  V30 70 H 6.4753 3.36745 -2.30362 0
M  V30 71 H 5.1503 2.65002 -3.20541 0
M  V30 72 H 3.7273 3.39885 -1.53403 0
M  V30 73 N 5.9124 1.20967 1.01018 0
M  V30 74 C 6.8754 0.965918 2.07853 0
M  V30 75 C 7.8754 -0.0610545 1.60684 0
M  V30 76 O 9.0654 0.175681 1.73312 0
M  V30 77 C 6.1974 0.455513 3.37843 0
M  V30 78 H 7.3904 1.91365 2.3091 0
M  V30 79 H 4.9434 1.02594 1.17916 0
M  V30 80 H 5.6784 -0.497381 3.20463 0
M  V30 81 H 5.4634 1.19622 3.73407 0
M  V30 82 H 6.9534 0.304667 4.16487 0
M  V30 83 N 7.3905 -1.2043 1.01659 0
M  V30 84 C 8.6385 -1.89423 0.704522 0
M  V30 85 C 8.9595 -1.79231 -0.768197 0
M  V30 86 O 8.2295 -1.1947 -1.55254 0
M  V30 87 H 6.8095 -0.701178 0.257602 0
M  V30 88 H 9.4715 -1.4626 1.28818 0
M  V30 89 H 8.5675 -2.96052 0.987916 0
M  V30 90 N 8.8686 -0.792821 -1.36206 0
M  V30 91 C 10.2796 -0.429513 -1.81692 0
M  V30 92 C 10.6306 1.04695 -1.65932 0
M  V30 93 O 9.7556 1.81256 -1.18218 0
M  V30 94 C 10.3506 -0.772831 -3.29868 0
M  V30 95 C 8.9096 -0.462307 -3.7355 0
M  V30 96 C 8.0566 -1.00569 -2.5842 0
M  V30 97 H 11.0076 -0.985672 -1.24379 0
M  V30 98 H 11.0286 -0.0651928 -3.80444 0
M  V30 99 H 10.5406 -1.84747 -3.41307 0
M  V30 100 H 8.6416 0.604158 -3.67669 0
M  V30 101 H 8.7546 -0.985299 -4.68859 0
M  V30 102 H 7.1186 -0.428734 -2.51066 0
M  V30 103 H 7.9016 -2.08616 -2.72643 0
M  V30 104 N 10.3467 1.47872 -0.545128 0
M  V30 105 C 11.6237 1.9554 0.0485222 0
M  V30 106 C 12.0037 1.4876 1.49779 0
M  V30 107 O 11.3517 0.720925 2.16829 0
M  V30 108 C 11.5617 3.48898 -0.084417 0
M  V30 109 C 12.9097 4.24547 0.0671239 0
M  V30 110 O 13.9337 3.56198 -0.0113649 0
M  V30 111 O 12.7927 5.45999 0.233882 0
M  V30 112 H 9.8867 0.823957 0.0708773 0
M  V30 113 H 12.4327 1.58327 -0.610798 0
M  V30 114 H 11.2047 3.75714 -1.09337 0
M  V30 115 H 10.8277 3.92845 0.613066 0
M  V30 116 N 11.8248 0.280983 1.55075 0
M  V30 117 C 12.7878 -0.590896 2.21452 0
M  V30 118 C 13.7878 -1.07682 1.19421 0
M  V30 119 O 14.9778 -0.97605 1.44288 0
M  V30 120 C 12.1098 -1.81587 2.88511 0
M  V30 121 H 13.3028 -0.0112554 2.99898 0
M  V30 122 H 10.8558 0.0316438 1.56268 0
M  V30 123 H 11.5908 -2.43587 2.14093 0
M  V30 124 H 11.3758 -1.4753 3.63287 0
M  V30 125 H 12.8658 -2.43575 3.39206 0
M  V30 126 N 13.3029 -1.57598 0.00835791 0
M  V30 127 C 14.5509 -1.90551 -0.6734 0
M  V30 128 C 14.8719 -0.883301 -1.73847 0
M  V30 129 O 14.1419 0.0781442 -1.95744 0
M  V30 130 H 12.7219 -0.703312 -0.251717 0
M  V30 131 H 15.3839 -1.94833 0.0512592 0
M  V30 132 H 14.4799 -2.9056 -1.13935 0
M  V30 133 N 14.781 0.264519 -1.55364 0
M  V30 134 C 16.192 0.834936 -1.6699 0
M  V30 135 C 16.543 1.86718 -0.602552 0
M  V30 136 O 15.668 2.14899 0.254425 0
M  V30 137 C 16.263 1.5212 -3.02729 0
M  V30 138 C 14.822 2.03954 -3.16354 0
M  V30 139 C 13.969 0.884498 -2.62815 0
M  V30 140 H 16.92 0.0406869 -1.58648 0
M  V30 141 H 16.941 2.38853 -2.96191 0
M  V30 142 H 16.453 0.769668 -3.80392 0
M  V30 143 H 14.554 2.82041 -2.43482 0
M  V30 144 H 14.667 2.24902 -4.23032 0
M  V30 145 H 13.031 1.2802 -2.20188 0
M  V30 146 H 13.814 0.14634 -3.42988 0
M  V30 147 N 16.2591 1.48442 0.529413 0
M  V30 148 C 17.4841 1.60406 1.31471 0
M  V30 149 C 17.9091 0.264738 1.86228 0
M  V30 150 O 17.2671 -0.763668 1.64432 0
M  V30 151 C 17.3151 2.65419 2.44101 0
M  V30 152 O 16.4191 2.22618 3.47153 0
M  V30 153 H 15.7601 0.537863 0.389357 0
M  V30 154 H 18.2901 1.94432 0.636965 0
M  V30 155 H 18.3001 2.86709 2.90279 0
M  V30 156 H 16.9751 3.62652 2.03608 0
M  V30 157 H 15.5521 2.11543 3.0709 0
M  V30 158 N 17.7372 -0.778329 1.37039 0
M  V30 159 C 18.9852 -1.53361 1.31623 0
M  V30 160 C 19.3062 -1.94739 -0.100831 0
M  V30 161 O 18.5762 -1.65797 -1.04347 0
M  V30 162 H 17.1562 -0.568794 0.484234 0
M  V30 163 H 19.8182 -0.926742 1.71457 0
M  V30 164 H 18.9142 -2.43606 1.95096 0
M  V30 165 N 19.2153 -1.21501 -1.00376 0
M  V30 166 C 20.1633 -0.972442 -2.11297 0
M  V30 167 C 21.1573 0.080731 -1.69208 0
M  V30 168 O 22.3633 -0.0707666 -1.79861 0
M  V30 169 H 18.7383 -0.297218 -0.690772 0
M  V30 170 H 20.7093 -1.91394 -2.28934 0
M  V30 171 C 19.4583 -0.555065 -3.43241 0
M  V30 172 H 18.7813 -1.35709 -3.76062 0
M  V30 173 H 20.2213 -0.424664 -4.21868 0
M  V30 174 C 18.6803 0.734147 -3.28804 0
M  V30 175 O 19.2103 1.78937 -3.59645 0
M  V30 176 N 17.4163 0.701133 -2.82015 0
M  V30 177 H 16.9633 -0.157874 -2.57116 0
M  V30 178 H 16.9213 1.56403 -2.72737 0
M  V30 179 N 20.6934 1.19889 -1.02296 0
M  V30 180 C 21.9184 1.9393 -0.735237 0
M  V30 181 C 22.3434 1.74639 0.698782 0
M  V30 182 O 21.7014 1.04481 1.48167 0
M  V30 183 C 21.7494 3.43916 -1.08417 0
M  V30 184 O 20.8534 4.11917 -0.199446 0
M  V30 185 H 20.1944 0.605645 -0.272196 0
M  V30 186 H 22.7244 1.52137 -1.36804 0
M  V30 187 H 22.7344 3.9456 -1.03856 0
M  V30 188 H 21.4094 3.5728 -2.12894 0
M  V30 189 H 19.9864 3.71666 -0.303136 0
M  V30 190 N 22.1715 0.800033 1.35784 0
M  V30 191 C 23.3965 0.388511 2.03729 0
M  V30 192 C 23.8215 -0.990481 1.5991 0
M  V30 193 O 23.1795 -1.64013 0.772612 0
M  V30 194 C 23.2275 0.4726 3.5749 0
M  V30 195 O 22.3315 -0.51646 4.09153 0
M  V30 196 H 21.6725 0.163271 0.643614 0
M  V30 197 H 24.2025 1.0841 1.73518 0
M  V30 198 H 24.2125 0.34003 4.06581 0
M  V30 199 H 22.8875 1.47848 3.88734 0
M  V30 200 H 21.4645 -0.344673 3.71304 0
M  V30 201 N 23.6496 -1.47581 0.552962 0
M  V30 202 C 25.0606 -1.86324 0.118463 0
M  V30 203 C 25.4116 -1.46006 -1.3106 0
M  V30 204 O 24.5366 -0.861182 -1.98526 0
M  V30 205 C 25.1316 -3.3816 0.20821 0
M  V30 206 C 23.6906 -3.7601 -0.171226 0
M  V30 207 C 22.8376 -2.71634 0.557686 0
M  V30 208 H 25.7886 -1.39159 0.762928 0
M  V30 209 H 25.8096 -3.76141 -0.574278 0
M  V30 210 H 25.3216 -3.67473 1.24841 0
M  V30 211 H 23.4226 -3.52313 -1.21269 0
M  V30 212 H 23.5356 -4.78745 0.184379 0
M  V30 213 H 21.8996 -2.547 0.00125792 0
M  V30 214 H 22.6826 -3.0379 1.59896 0
M  V30 215 N 25.1277 -0.289203 -1.54924 0
M  V30 216 C 26.3737 0.316922 -2.00916 0
M  V30 217 C 26.7287 1.52424 -1.17408 0
M  V30 218 O 26.0217 1.90097 -0.239536 0
M  V30 219 C 26.2157 0.736119 -3.49737 0
M  V30 220 C 26.0447 -0.429036 -4.47649 0
M  V30 221 C 24.8147 -0.917311 -4.96904 0
M  V30 222 C 27.0127 -1.27016 -4.98369 0
M  V30 223 N 24.9947 -2.05046 -5.78644 0
M  V30 224 C 26.3657 -2.25097 -5.77695 0
M  V30 225 C 28.4207 -1.30188 -4.80578 0
M  V30 226 C 27.1237 -3.26114 -6.41126 0
M  V30 227 C 29.1497 -2.30057 -5.44819 0
M  V30 228 C 28.5117 -3.2687 -6.23968 0
M  V30 229 H 24.6107 0.0807535 -0.777819 0
M  V30 230 H 27.1947 -0.416434 -1.90194 0
M  V30 231 H 25.3657 1.43867 -3.60773 0
M  V30 232 H 27.0977 1.32078 -3.82541 0
M  V30 233 H 23.8527 -0.494248 -4.71014 0
M  V30 234 H 24.2767 -2.62108 -6.24202 0
M  V30 235 H 28.9187 -0.567163 -4.18979 0
M  V30 236 H 26.6367 -4.00512 -7.01866 0
M  V30 237 H 30.2227 -2.33271 -5.32988 0
M  V30 238 H 29.1027 -4.02883 -6.72796 0
M  V30 239 N 26.6058 1.57591 -0.0167156 0
M  V30 240 C 27.8518 1.92399 0.659861 0
M  V30 241 C 28.2068 0.892561 1.70444 0
M  V30 242 O 27.4998 -0.0930755 1.91374 0
M  V30 243 C 27.6938 3.3172 1.33029 0
M  V30 244 C 27.5228 4.48319 0.352174 0
M  V30 245 C 26.2928 5.05281 -0.0434883 0
M  V30 246 C 28.4908 5.12831 -0.388474 0
M  V30 247 N 26.4728 6.05399 -1.01807 0
M  V30 248 C 27.8438 6.07934 -1.2172 0
M  V30 249 C 29.8988 4.95858 -0.450513 0
M  V30 250 C 28.6018 6.87891 -2.10235 0
M  V30 251 C 30.6278 5.76413 -1.32295 0
M  V30 252 C 29.9898 6.71123 -2.13948 0
M  V30 253 H 26.0888 0.752106 0.21415 0
M  V30 254 H 28.6728 1.94532 -0.0809846 0
M  V30 255 H 26.8438 3.3043 2.04134 0
M  V30 256 H 28.5758 3.5391 1.9629 0
M  V30 257 H 25.3308 4.7246 0.328384 0
M  V30 258 H 25.7548 6.60145 -1.50123 0
M  V30 259 H 30.3968 4.22472 0.166512 0
M  V30 260 H 28.1148 7.60591 -2.72997 0
M  V30 261 H 31.7008 5.65317 -1.37508 0
M  V30 262 H 30.5808 7.3237 -2.80364 0
M  V30 263 N 28.0839 -0.256276 1.55502 0
M  V30 264 C 29.4949 -0.826068 1.67431 0
M  V30 265 C 29.8459 -1.86396 0.612446 0
M  V30 266 O 28.9709 -2.15031 -0.243025 0
M  V30 267 C 29.5659 -1.50512 3.03532 0
M  V30 268 C 28.1249 -2.02273 3.17431 0
M  V30 269 C 27.2719 -0.870548 2.63281 0
M  V30 270 H 30.2229 -0.0322728 1.58667 0
M  V30 271 H 30.2439 -2.37279 2.97454 0
M  V30 272 H 29.7559 -0.749484 3.80794 0
M  V30 273 H 27.8569 -2.80746 2.44974 0
M  V30 274 H 27.9699 -2.22655 4.24219 0
M  V30 275 H 26.3339 -1.26851 2.20864 0
M  V30 276 H 27.1169 -0.128149 3.43061 0
M  V30 277 N 29.562 -1.4872 -0.521534 0
M  V30 278 C 30.492 -1.66771 -1.63431 0
M  V30 279 C 31.473 -0.516499 -1.62069 0
M  V30 280 O 32.658 -0.750013 -1.79132 0
M  V30 281 C 29.788 -1.71515 -3.01993 0
M  V30 282 C 28.742 -2.86222 -3.18216 0
M  V30 283 C 28.068 -2.76061 -4.57924 0
M  V30 284 C 29.368 -4.27419 -3.00184 0
M  V30 285 H 31.062 -2.59932 -1.48579 0
M  V30 286 H 28.608 -1.25089 -0.713358 0
M  V30 287 H 30.561 -1.82731 -3.7972 0
M  V30 288 H 29.285 -0.749393 -3.17886 0
M  V30 289 H 27.944 -2.74575 -2.42908 0
M  V30 290 H 27.592 -1.77437 -4.70665 0
M  V30 291 H 27.292 -3.53037 -4.69722 0
M  V30 292 H 28.816 -2.89256 -5.37739 0
M  V30 293 H 30.23 -4.39855 -3.67697 0
M  V30 294 H 28.627 -5.05458 -3.2347 0
M  V30 295 H 29.697 -4.43293 -1.96518 0
M  V30 296 N 31.0401 0.771051 -1.3745 0
M  V30 297 C 32.0031 1.86598 -1.33093 0
M  V30 298 C 33.0031 1.59076 -0.234845 0
M  V30 299 O 34.1931 1.67145 -0.490732 0
M  V30 300 C 31.3251 3.23747 -1.06773 0
M  V30 301 H 32.5181 1.91873 -2.30488 0
M  V30 302 H 30.0711 0.970876 -1.2249 0
M  V30 303 H 30.8061 3.24148 -0.099129 0
M  V30 304 H 30.5911 3.45115 -1.86112 0
M  V30 305 H 32.0811 4.03824 -1.06377 0
M  V30 306 N 32.5182 1.22032 0.997298 0
M  V30 307 C 33.7462 1.06841 1.7718 0
M  V30 308 C 34.1612 -0.381325 1.84909 0
M  V30 309 O 33.5182 -1.26437 1.31605 0
M  V30 310 C 33.5692 1.66814 3.20711 0
M  V30 311 O 33.2902 3.06116 3.13408 0
M  V30 312 C 34.7912 1.56838 4.14628 0
M  V30 313 H 32.0112 0.374782 0.556578 0
M  V30 314 H 34.5552 1.61532 1.2541 0
M  V30 315 H 32.7102 1.16196 3.69564 0
M  V30 316 H 33.1242 3.34926 4.0364 0
M  V30 317 H 34.5982 2.03532 5.13107 0
M  V30 318 H 35.0752 0.524155 4.36061 0
M  V30 319 H 35.6812 2.06741 3.7167 0
M  V30 320 N 33.9963 -1.19345 1.0293 0
M  V30 321 C 35.2443 -1.88665 0.724574 0
M  V30 322 C 35.5653 -1.80036 -0.749144 0
M  V30 323 O 34.8353 -1.2111 -1.53978 0
M  V30 324 H 33.4153 -0.698406 0.265025 0
M  V30 325 H 36.0773 -1.44885 1.30362 0
M  V30 326 H 35.1733 -2.94987 1.01926 0
M  V30 327 N 35.4744 -0.807222 -1.35358 0
M  V30 328 C 36.4374 -0.223665 -2.28106 0
M  V30 329 C 37.4374 0.589354 -1.4961 0
M  V30 330 O 38.6274 0.407745 -1.69361 0
M  V30 331 C 35.7594 0.688149 -3.33882 0
M  V30 332 H 36.9524 -1.04169 -2.81227 0
M  V30 333 H 34.5054 -0.577921 -1.45223 0
M  V30 334 H 35.2404 1.52984 -2.85948 0
M  V30 335 H 35.0254 0.10687 -3.91954 0
M  V30 336 H 36.5154 1.09075 -4.03104 0
M  V30 337 N 36.9525 1.47285 -0.560781 0
M  V30 338 C 38.2005 2.02064 -0.0379868 0
M  V30 339 C 38.5215 1.43711 1.31803 0
M  V30 340 O 37.7915 0.61362 1.86042 0
M  V30 341 H 36.3715 0.746918 -0.0110531 0
M  V30 342 H 39.0335 1.80648 -0.731598 0
M  V30 343 H 38.1295 3.12064 0.0474463 0
M  V30 344 N 38.4306 0.297415 1.54768 0
M  V30 345 C 39.3786 -0.596051 2.24833 0
M  V30 346 C 40.3726 -1.13992 1.25308 0
M  V30 347 O 41.5786 -1.09098 1.4317 0
M  V30 348 H 37.9536 -0.210814 0.721846 0
M  V30 349 H 39.9246 0.0174667 2.98395 0
M  V30 350 C 38.6736 -1.75818 2.99972 0
M  V30 351 H 37.9966 -1.3489 3.76357 0
M  V30 352 H 39.4366 -2.35949 3.52284 0
M  V30 353 C 37.8956 -2.66014 2.06732 0
M  V30 354 O 38.4256 -3.67009 1.63302 0
M  V30 355 N 36.6316 -2.33669 1.72763 0
M  V30 356 H 36.1786 -1.51586 2.08277 0
M  V30 357 H 36.1366 -2.94285 1.10652 0
M  V30 358 N 39.9087 -1.5758 0.0250728 0
M  V30 359 C 41.1367 -1.9593 -0.664747 0
M  V30 360 C 41.5517 -0.901352 -1.65895 0
M  V30 361 O 40.9087 0.117255 -1.82123 0
M  V30 362 C 40.9597 -3.34342 -1.37468 0
M  V30 363 O 40.6807 -4.36079 -0.420324 0
M  V30 364 C 42.1817 -3.873 -2.1567 0
M  V30 365 H 39.4017 -0.645405 -0.183557 0
M  V30 366 H 41.9457 -2.04329 0.0836372 0
M  V30 367 H 40.1007 -3.27175 -2.0745 0
M  V30 368 H 40.5147 -5.16297 -0.923991 0
M  V30 369 H 41.9887 -4.86504 -2.60803 0
M  V30 370 H 42.4657 -3.21331 -2.99405 0
M  V30 371 H 43.0717 -3.97723 -1.50654 0
M  V30 372 N 41.3868 0.248026 -1.55636 0
M  V30 373 C 42.6118 0.998028 -1.81808 0
M  V30 374 C 43.0368 1.78207 -0.601979 0
M  V30 375 O 42.3948 1.75653 0.448961 0
M  V30 376 C 42.4428 1.9125 -3.05705 0
M  V30 377 O 41.5468 3.00406 -2.82542 0
M  V30 378 H 40.8878 0.284045 -0.600179 0
M  V30 379 H 43.4178 0.269357 -2.02819 0
M  V30 380 H 43.4278 2.32737 -3.35108 0
M  V30 381 H 42.1028 1.33602 -3.93857 0
M  V30 382 H 40.6798 2.63056 -2.64303 0
M  V30 383 N 42.8649 1.48995 0.513639 0
M  V30 384 C 44.2809 1.35478 0.843682 0
M  V30 385 C 44.4809 0.378213 1.97919 0
M  V30 386 O 43.5369 -0.194689 2.51748 0
M  V30 387 C 44.8499 2.75901 1.1958 0
M  V30 388 C 46.3979 2.84509 1.30474 0
M  V30 389 C 46.8729 4.25671 1.69021 0
M  V30 390 N 48.3639 4.28422 1.76094 0
M  V30 391 C 49.0989 5.34601 2.07338 0
M  V30 392 N 48.5949 6.5104 2.36894 0
M  V30 393 N 50.3879 5.22007 2.08483 0
M  V30 394 H 42.5389 2.11092 -0.235328 0
M  V30 395 H 44.8019 0.947039 -0.0426669 0
M  V30 396 H 44.5079 3.49001 0.434913 0
M  V30 397 H 44.3819 3.10467 2.1422 0
M  V30 398 H 46.7689 2.11655 2.05637 0
M  V30 399 H 46.8499 2.53542 0.339155 0
M  V30 400 H 46.4939 4.99048 0.944135 0
M  V30 401 H 46.4239 4.54094 2.66658 0
M  V30 402 H 48.9149 3.44441 1.55464 0
M  V30 403 H 49.2279 7.2779 2.59887 0
M  V30 404 H 47.5729 6.54287 2.34378 0
M  V30 405 H 50.7639 4.30051 1.84861 0
M  V30 406 H 50.9369 6.04854 2.325 0
M  V30 407 N 44.343 -0.763751 1.37857 0
M  V30 408 C 45.253 -1.90817 1.36478 0
M  V30 409 C 46.269 -1.71997 0.263248 0
M  V30 410 O 47.445 -1.95095 0.499979 0
M  V30 411 C 44.51 -3.2605 1.17864 0
M  V30 412 C 43.571 -3.57467 2.3773 0
M  V30 413 C 42.804 -4.86249 2.19995 0
M  V30 414 O 43.027 -5.57884 1.18836 0
M  V30 415 O 41.961 -5.16911 3.08361 0
M  V30 416 H 45.787 -1.94933 2.32884 0
M  V30 417 H 43.372 -0.907619 1.1867 0
M  V30 418 H 45.254 -4.06924 1.09504 0
M  V30 419 H 43.929 -3.22769 0.245372 0
M  V30 420 H 42.836 -2.76796 2.51664 0
M  V30 421 H 44.169 -3.655 3.29652 0
M  V30 422 N 45.8211 -1.22559 -0.990812 0
M  V30 423 C 46.7841 -0.998863 -2.0629 0
M  V30 424 C 47.7841 0.0354834 -1.60761 0
M  V30 425 O 48.9741 -0.203231 -1.7301 0
M  V30 426 C 46.1061 -0.509203 -3.37076 0
M  V30 427 H 47.2991 -1.95014 -2.27837 0
M  V30 428 H 44.8521 -1.04456 -1.16269 0
M  V30 429 H 45.5871 0.446335 -3.21214 0
M  V30 430 H 45.3721 -1.25547 -3.71457 0
M  V30 431 H 46.8621 -0.370888 -4.1595 0
M  V30 432 N 47.2992 1.18797 -1.03562 0
M  V30 433 C 48.2092 2.25913 -0.632505 0
M  V30 434 C 49.2252 1.70668 0.338882 0
M  V30 435 O 50.4012 2.00453 0.195076 0
M  V30 436 C 47.4662 3.467 0.00350942 0
M  V30 437 C 46.5272 4.17098 -1.01624 0
M  V30 438 C 45.7602 5.32119 -0.410478 0
M  V30 439 O 45.9832 5.64976 0.784725 0
M  V30 440 O 44.9172 5.9107 -1.13667 0
M  V30 441 H 48.7432 2.62648 -1.52478 0
M  V30 442 H 46.3282 1.25781 -0.806195 0
M  V30 443 H 48.2102 4.19878 0.35781 0
M  V30 444 H 46.8852 3.11798 0.869686 0
M  V30 445 H 45.7922 3.4601 -1.42224 0
M  V30 446 H 47.1252 4.55987 -1.85301 0
M  V30 447 N 48.7773 0.814389 1.34928 0
M  V30 448 C 49.7403 0.235759 2.27984 0
M  V30 449 C 50.7403 -0.581412 1.49921 0
M  V30 450 O 51.9303 -0.398758 1.69575 0
M  V30 451 C 49.0623 -0.670433 3.34242 0
M  V30 452 H 50.2553 1.05659 2.80671 0
M  V30 453 H 47.8083 0.585614 1.44915 0
M  V30 454 H 48.5433 -1.51466 2.86755 0
M  V30 455 H 48.3283 -0.0860822 3.92005 0
M  V30 456 H 49.8183 -1.06935 4.03676 0
M  V30 457 N 50.2554 -1.46986 0.568584 0
M  V30 458 C 51.1854 -2.32946 -0.160753 0
M  V30 459 C 52.1664 -1.44487 -0.897631 0
M  V30 460 O 53.3514 -1.73327 -0.875867 0
M  V30 461 C 50.4814 -3.26494 -1.18403 0
M  V30 462 C 49.4354 -4.24282 -0.562895 0
M  V30 463 C 48.7614 -5.07236 -1.69163 0
M  V30 464 C 50.0614 -5.19989 0.490761 0
M  V30 465 H 51.7554 -2.94175 0.556916 0
M  V30 466 H 49.3014 -1.4146 0.26927 0
M  V30 467 H 51.2544 -3.85477 -1.70251 0
M  V30 468 H 49.9784 -2.63343 -1.93179 0
M  V30 469 H 48.6374 -3.66541 -0.0656164 0
M  V30 470 H 48.2854 -4.4048 -2.42871 0
M  V30 471 H 47.9854 -5.7345 -1.28174 0
M  V30 472 H 49.5094 -5.6908 -2.21314 0
M  V30 473 H 50.9234 -5.73271 0.0579047 0
M  V30 474 H 49.3204 -5.94469 0.820165 0
M  V30 475 H 50.3904 -4.64777 1.3824 0
M  V30 476 N 51.7335 -0.305618 -1.54608 0
M  V30 477 C 52.9815 0.301701 -1.99835 0
M  V30 478 C 53.3025 1.54054 -1.19551 0
M  V30 479 O 52.5725 1.93702 -0.292658 0
M  V30 480 H 51.1525 0.114468 -0.738178 0
M  V30 481 H 53.8145 -0.418016 -1.90364 0
M  V30 482 H 52.9105 0.570548 -3.06841 0
M  V30 483 N 53.2116 1.57565 -0.0334293 0
M  V30 484 C 54.1216 2.13943 0.962572 0
M  V30 485 C 55.1376 1.09276 1.35406 0
M  V30 486 O 56.3136 1.41355 1.4346 0
M  V30 487 C 53.3786 2.65887 2.22497 0
M  V30 488 C 52.4396 3.85286 1.8935 0
M  V30 489 C 51.6726 4.34743 3.09571 0
M  V30 490 O 51.8956 3.83352 4.22371 0
M  V30 491 O 50.8296 5.26538 2.91618 0
M  V30 492 H 54.6556 2.99333 0.513169 0
M  V30 493 H 52.2406 1.4822 0.18743 0
M  V30 494 H 54.1226 2.99346 2.96598 0
M  V30 495 H 52.7976 1.83578 2.6661 0
M  V30 496 H 51.7046 3.56746 1.1262 0
M  V30 497 H 53.0376 4.68771 1.5005 0
M  V30 498 N 54.6897 -0.239769 1.55765 0
M  V30 499 C 55.9377 -0.964892 1.77579 0
M  V30 500 C 56.2587 -1.85582 0.598699 0
M  V30 501 O 55.5287 -1.92075 -0.385226 0
M  V30 502 H 54.1087 -0.359265 0.654933 0
M  V30 503 H 56.7707 -0.256001 1.93211 0
M  V30 504 H 55.8667 -1.58243 2.69009 0
M  V30 505 N 56.1678 -1.49265 -0.50573 0
M  V30 506 C 57.1158 -1.66065 -1.62866 0
M  V30 507 C 58.1098 -0.526636 -1.61006 0
M  V30 508 O 59.3158 -0.706126 -1.65571 0
M  V30 509 H 55.6908 -0.52356 -0.539805 0
M  V30 510 H 57.6618 -2.60329 -1.45848 0
M  V30 511 C 56.4108 -1.74008 -3.01026 0
M  V30 512 H 55.7338 -2.6064 -3.03161 0
M  V30 513 H 57.1738 -1.89798 -3.79147 0
M  V30 514 C 55.6328 -0.483868 -3.33407 0
M  V30 515 O 56.1628 0.392548 -3.99777 0
M  V30 516 N 54.3688 -0.348236 -2.88506 0
M  V30 517 H 53.9158 -1.06242 -2.34671 0
M  V30 518 H 53.8738 0.491204 -3.10539 0
M  V30 519 N 57.6459 0.756429 -1.3826 0
M  V30 520 C 58.8939 1.51248 -1.34047 0
M  V30 521 C 59.2149 1.94875 0.0698372 0
M  V30 522 O 58.4849 1.67436 1.01696 0
M  V30 523 H 57.0649 0.561018 -0.493222 0
M  V30 524 H 59.7269 0.899347 -1.7291 0
M  V30 525 H 58.8229 2.40472 -1.98947 0
M  V30 526 N 59.124 1.23083 0.984299 0
M  V30 527 C 60.535 1.05609 1.5396 0
M  V30 528 C 60.886 -0.377793 1.92528 0
M  V30 529 O 60.011 -1.26398 1.75649 0
M  V30 530 C 60.606 1.91087 2.7977 0
M  V30 531 C 59.165 1.77885 3.31713 0
M  V30 532 C 58.312 1.87028 2.04733 0
M  V30 533 H 61.263 1.36802 0.804419 0
M  V30 534 H 61.284 1.43336 3.5247 0
M  V30 535 H 60.796 2.9544 2.51668 0
M  V30 536 H 58.897 0.762995 3.64704 0
M  V30 537 H 59.01 2.61047 4.01735 0
M  V30 538 H 57.374 1.30565 2.18689 0
M  V30 539 H 58.157 2.92929 1.79017 0
M  V30 540 N 60.6021 -1.18246 1.0419 0
M  V30 541 C 62.0131 -1.69914 0.773698 0
M  V30 542 C 62.3641 -1.83085 -0.705297 0
M  V30 543 O 61.4891 -1.51123 -1.5489 0
M  V30 544 C 62.0841 -3.08619 1.39784 0
M  V30 545 C 60.6431 -3.57494 1.17792 0
M  V30 546 C 59.7901 -2.34013 1.48773 0
M  V30 547 H 62.7411 -1.02904 1.20816 0
M  V30 548 H 62.7621 -3.71958 0.801714 0
M  V30 549 H 62.2741 -2.99001 2.47426 0
M  V30 550 H 60.3751 -3.72406 0.120295 0
M  V30 551 H 60.4881 -4.40852 1.87581 0
M  V30 552 H 58.8521 -2.37986 0.907463 0
M  V30 553 H 59.6351 -2.27013 2.57527 0
M  V30 554 N 62.0802 -0.821533 -1.34494 0
M  V30 555 C 63.4962 -0.507117 -1.51329 0
M  V30 556 C 63.6962 0.968964 -1.76673 0
M  V30 557 O 62.7522 1.75348 -1.81685 0
M  V30 558 C 64.0652 -1.36544 -2.67911 0
M  V30 559 C 65.6132 -1.36242 -2.81793 0
M  V30 560 C 66.0882 -2.2052 -4.01416 0
M  V30 561 N 67.5792 -2.18136 -4.08621 0
M  V30 562 C 68.3142 -2.80095 -5.00334 0
M  V30 563 N 67.8102 -3.51039 -5.9728 0
M  V30 564 N 69.6032 -2.69656 -4.93196 0
M  V30 565 H 61.7542 -1.77729 -1.16302 0
M  V30 566 H 64.0172 -0.757291 -0.570276 0
M  V30 567 H 63.7232 -2.41361 -2.55808 0
M  V30 568 H 63.5972 -1.02917 -3.62888 0
M  V30 569 H 65.9842 -0.322041 -2.93338 0
M  V30 570 H 66.0652 -1.73866 -1.87628 0
M  V30 571 H 65.7092 -3.24607 -3.90631 0
M  V30 572 H 65.6392 -1.80247 -4.94791 0
M  V30 573 H 68.1302 -1.6653 -3.39229 0
M  V30 574 H 68.4432 -3.95565 -6.63889 0
M  V30 575 H 66.7882 -3.55145 -5.97409 0
M  V30 576 H 69.9792 -2.13808 -4.16418 0
M  V30 577 H 70.1522 -3.1823 -5.64476 0
M  V30 578 N 63.5583 1.46682 -0.576371 0
M  V30 579 C 64.8353 1.95599 0.00703437 0
M  V30 580 C 65.2153 1.51904 1.46589 0
M  V30 581 O 64.5633 0.766755 2.15251 0
M  V30 582 C 64.7733 3.4864 -0.158404 0
M  V30 583 C 66.1213 4.24594 -0.0229439 0
M  V30 584 O 67.1453 3.56094 -0.0869173 0
M  V30 585 O 66.0043 5.46373 0.118015 0
M  V30 586 H 63.0983 0.825275 0.053384 0
M  V30 587 H 65.6443 1.56996 -0.644244 0
M  V30 588 H 64.4163 3.7331 -1.17282 0
M  V30 589 H 64.0393 3.94057 0.5296 0
M  V30 590 N 65.0364 0.313813 1.54444 0
M  V30 591 C 66.2824 -0.292108 2.00685 0
M  V30 592 C 66.6154 -1.52548 1.20177 0
M  V30 593 O 65.8904 -1.92452 0.281531 0
M  V30 594 C 66.1734 -0.635968 3.5444 0
M  V30 595 C 66.0264 0.607437 4.4568 0
M  V30 596 C 67.3454 -1.45747 4.15266 0
M  V30 597 H 64.4644 -0.104697 0.729526 0
M  V30 598 H 67.1064 0.428457 1.85106 0
M  V30 599 H 65.2564 -1.24986 3.67846 0
M  V30 600 H 66.9284 1.24581 4.44159 0
M  V30 601 H 65.1714 1.23822 4.15753 0
M  V30 602 H 65.8424 0.322515 5.51057 0
M  V30 603 H 68.3184 -0.938645 4.05375 0
M  V30 604 H 67.1944 -1.66683 5.2298 0
M  V30 605 H 67.4554 -2.45063 3.67963 0
M  V30 606 N 66.5145 -1.57545 0.0417849 0
M  V30 607 C 67.9305 -1.56467 -0.314704 0
M  V30 608 C 68.1305 -1.04859 -1.72066 0
M  V30 609 O 67.1865 -0.700983 -2.42575 0
M  V30 610 C 68.4995 -3.00317 -0.15174 0
M  V30 611 C 70.0475 -3.12201 -0.223553 0
M  V30 612 C 70.5225 -4.57913 -0.0892295 0
M  V30 613 N 72.0135 -4.6297 -0.145808 0
M  V30 614 C 72.7485 -5.73362 -0.0658459 0
M  V30 615 N 72.2445 -6.92769 0.0659282 0
M  V30 616 N 74.0375 -5.6197 -0.12075 0
M  V30 617 H 66.1885 -1.89416 0.961014 0
M  V30 618 H 68.4515 -0.871862 0.372237 0
M  V30 619 H 68.1575 -3.42073 0.817254 0
M  V30 620 H 68.0315 -3.65892 -0.916692 0
M  V30 621 H 70.4185 -2.70349 -1.18301 0
M  V30 622 H 70.4995 -2.49323 0.571994 0
M  V30 623 H 70.1435 -5.00448 0.866867 0
M  V30 624 H 70.0735 -5.18786 -0.903802 0
M  V30 625 H 72.5645 -3.7709 -0.247286 0
M  V30 626 H 72.8775 -7.72707 0.119905 0
M  V30 627 H 71.2225 -6.94927 0.100885 0
M  V30 628 H 74.4135 -4.67572 -0.222187 0
M  V30 629 H 74.5865 -6.47977 -0.0549735 0
M  V30 630 N 67.9926 0.231505 -1.5589 0
M  V30 631 C 68.9406 1.30649 -1.92441 0
M  V30 632 C 69.9346 1.49037 -0.805254 0
M  V30 633 O 71.1406 1.50329 -0.990007 0
M  V30 634 H 67.5156 0.437812 -0.611412 0
M  V30 635 H 69.4866 0.970973 -2.82161 0
M  V30 636 C 68.2356 2.65179 -2.24889 0
M  V30 637 H 67.5586 2.51835 -3.10514 0
M  V30 638 H 68.9986 3.39234 -2.54355 0
M  V30 639 C 67.4576 3.19439 -1.07054 0
M  V30 640 O 67.9876 4.00371 -0.326499 0
M  V30 641 N 66.1936 2.77675 -0.85703 0
M  V30 642 H 65.7406 2.11969 -1.46379 0
M  V30 643 H 65.6986 3.14321 -0.0703223 0
M  V30 644 N 69.4707 1.49531 0.497807 0
M  V30 645 C 70.3807 1.69176 1.62532 0
M  V30 646 C 71.3967 0.5744 1.64246 0
M  V30 647 O 72.5727 0.849497 1.82608 0
M  V30 648 C 69.6377 1.75695 2.98885 0
M  V30 649 C 68.6987 2.9929 3.07773 0
M  V30 650 C 67.9317 3.05488 4.37622 0
M  V30 651 O 68.1547 2.19192 5.26603 0
M  V30 652 O 67.0887 3.9798 4.51548 0
M  V30 653 H 70.9147 2.647 1.48887 0
M  V30 654 H 68.4997 1.3331 0.674441 0
M  V30 655 H 70.3817 1.82317 3.79919 0
M  V30 656 H 69.0567 0.8335 3.12785 0
M  V30 657 H 67.9637 2.98183 2.25915 0
M  V30 658 H 69.2967 3.91125 2.98801 0
M  V30 659 N 70.9488 -0.749086 1.3866 0
M  V30 660 C 71.8588 -1.89358 1.38494 0
M  V30 661 C 72.8748 -1.71708 0.281476 0
M  V30 662 O 74.0508 -1.94554 0.520643 0
M  V30 663 C 71.1158 -3.24782 1.21316 0
M  V30 664 C 70.1768 -3.54926 2.41508 0
M  V30 665 C 69.4098 -4.83888 2.2514 0
M  V30 666 O 69.6328 -5.56592 1.24746 0
M  V30 667 O 68.5668 -5.13612 3.13826 0
M  V30 668 H 72.3928 -1.92452 2.34938 0
M  V30 669 H 69.9778 -0.894981 1.19626 0
M  V30 670 H 71.8598 -4.05739 1.13814 0
M  V30 671 H 70.5348 -3.2249 0.279592 0
M  V30 672 H 69.4418 -2.74112 2.54585 0
M  V30 673 H 70.7748 -3.61983 3.3351 0
M  V30 674 N 72.4269 -1.23603 -0.977757 0
M  V30 675 C 73.3569 -1.04401 -2.0886 0
M  V30 676 C 74.3379 0.0399052 -1.70053 0
M  V30 677 O 75.5229 -0.125246 -1.93796 0
M  V30 678 C 72.6529 -0.637269 -3.41403 0
M  V30 679 C 71.6069 -1.66883 -3.94124 0
M  V30 680 C 70.9329 -1.11745 -5.22893 0
M  V30 681 C 72.2329 -3.06247 -4.23096 0
M  V30 682 H 73.9269 -1.97316 -2.25182 0
M  V30 683 H 71.4729 -0.950096 -1.08209 0
M  V30 684 H 73.4259 -0.48998 -4.18542 0
M  V30 685 H 72.1499 0.327557 -3.24953 0
M  V30 686 H 70.8089 -1.80416 -3.19133 0
M  V30 687 H 70.4569 -0.143527 -5.02795 0
M  V30 688 H 70.1569 -1.80672 -5.59134 0
M  V30 689 H 71.6809 -0.982067 -6.02651 0
M  V30 690 H 73.0949 -2.96001 -4.90975 0
M  V30 691 H 71.4919 -3.72436 -4.70544 0
M  V30 692 H 72.5619 -3.55041 -3.30263 0
M  V30 693 N 73.905 1.17692 -1.04816 0
M  V30 694 C 74.868 2.19787 -0.650117 0
M  V30 695 C 75.868 1.58044 0.296427 0
M  V30 696 O 77.058 1.74012 0.0808097 0
M  V30 697 C 74.19 3.40869 0.0456987 0
M  V30 698 H 75.383 2.56516 -1.5537 0
M  V30 699 H 72.936 1.31708 -0.841594 0
M  V30 700 H 73.671 3.09681 0.962726 0
M  V30 701 H 73.456 3.86928 -0.634727 0
M  V30 702 H 74.946 4.16445 0.310432 0
M  V30 703 N 75.3831 0.828654 1.34056 0
M  V30 704 C 76.3301 0.252567 2.29414 0
M  V30 705 C 77.3001 -0.62588 1.53857 0
M  V30 706 O 78.4851 -0.566312 1.82202 0
M  V30 707 C 75.6251 -0.574831 3.40279 0
M  V30 708 C 74.7381 0.326499 4.30764 0
M  V30 709 C 73.8731 -0.511016 5.28736 0
M  V30 710 C 72.9121 0.389342 6.1086 0
M  V30 711 N 72.0491 -0.409439 7.00905 0
M  V30 712 H 76.8891 1.07108 2.78086 0
M  V30 713 H 74.4261 0.539677 1.36843 0
M  V30 714 H 76.3841 -1.06992 4.03248 0
M  V30 715 H 75.0141 -1.35841 2.92826 0
M  V30 716 H 74.0661 0.939837 3.68607 0
M  V30 717 H 75.3781 1.01857 4.88289 0
M  V30 718 H 74.5321 -1.07035 5.97184 0
M  V30 719 H 73.2711 -1.23657 4.71763 0
M  V30 720 H 72.2761 0.960769 5.4134 0
M  V30 721 H 73.5011 1.1131 6.69916 0
M  V30 722 H 71.4471 -1.11856 6.46393 0
M  V30 723 H 71.3641 0.224126 7.55668 0
M  V30 724 H 72.6321 -0.951336 7.73673 0
M  V30 725 N 76.8612 -1.46375 0.584142 0
M  V30 726 C 77.7912 -2.33103 -0.136037 0
M  V30 727 C 78.7722 -1.45431 -0.882255 0
M  V30 728 O 79.9572 -1.74246 -0.857434 0
M  V30 729 C 77.0872 -3.27731 -1.14933 0
M  V30 730 C 76.0412 -4.24855 -0.517862 0
M  V30 731 C 75.3672 -5.09001 -1.63773 0
M  V30 732 C 76.6672 -5.19439 0.545886 0
M  V30 733 H 78.3612 -2.93568 0.588086 0
M  V30 734 H 75.9072 -1.41166 0.284259 0
M  V30 735 H 77.8602 -3.87261 -1.66153 0
M  V30 736 H 76.5842 -2.65377 -1.90375 0
M  V30 737 H 75.2432 -3.6659 -0.0267361 0
M  V30 738 H 74.8912 -4.43031 -2.38185 0
M  V30 739 H 74.5912 -5.74777 -1.22085 0
M  V30 740 H 76.1152 -5.71396 -2.15266 0
M  V30 741 H 77.5292 -5.73177 0.118704 0
M  V30 742 H 75.9262 -5.93566 0.88317 0
M  V30 743 H 76.9962 -4.63285 1.43162 0
M  V30 744 N 78.3393 -0.321999 -1.54275 0
M  V30 745 C 79.2493 0.553631 -2.27974 0
M  V30 746 C 80.2653 1.13054 -1.32268 0
M  V30 747 O 81.4413 1.15084 -1.6528 0
M  V30 748 C 78.5063 1.69927 -3.02201 0
M  V30 749 C 77.5673 1.15433 -4.1349 0
M  V30 750 C 76.8003 2.24537 -4.84168 0
M  V30 751 O 77.0233 3.44852 -4.5435 0
M  V30 752 O 75.9573 1.90044 -5.7111 0
M  V30 753 H 79.7833 -0.0448345 -3.03667 0
M  V30 754 H 77.3683 -0.0877418 -1.49142 0
M  V30 755 H 79.2503 2.3663 -3.48689 0
M  V30 756 H 77.9253 2.28395 -2.29385 0
M  V30 757 H 76.8323 0.452436 -3.71354 0
M  V30 758 H 78.1653 0.614805 -4.88345 0
M  V30 759 N 79.8174 1.5752 -0.0501392 0
M  V30 760 C 81.0664 1.91827 0.623328 0
M  V30 761 C 81.3794 0.930222 1.72065 0
M  V30 762 O 82.5854 1.1653 2.4522 0
M  V30 763 C 81.0414 3.40692 1.16003 0
M  V30 764 C 80.6494 4.479 0.0948811 0
M  V30 765 C 82.3934 3.84034 1.80881 0
M  V30 766 C 80.3004 5.87879 0.644411 0
M  V30 767 H 79.2304 0.715918 0.236596 0
M  V30 768 H 81.8814 1.83115 -0.118861 0
M  V30 769 H 80.2634 3.44405 1.9545 0
M  V30 770 H 81.4374 4.55775 -0.678675 0
M  V30 771 H 79.7524 4.13892 -0.45637 0
M  V30 772 H 82.3494 4.85984 2.22988 0
M  V30 773 H 82.6924 3.20225 2.6601 0
M  V30 774 H 83.2254 3.82833 1.0809 0
M  V30 775 H 79.9644 6.55282 -0.169229 0
M  V30 776 H 79.4844 5.83567 1.38598 0
M  V30 777 H 81.1634 6.37098 1.12763 0
M  V30 778 N 81.2955 -0.223234 1.56011 0
M  V30 779 C 82.2585 -1.26014 1.9145 0
M  V30 780 C 83.2585 -1.3989 0.792937 0
M  V30 781 O 84.4485 -1.38184 1.0607 0
M  V30 782 C 81.5805 -2.63422 2.16383 0
M  V30 783 H 82.7735 -0.95796 2.84189 0
M  V30 784 H 80.3265 -0.463576 1.49267 0
M  V30 785 H 81.0615 -2.98741 1.2619 0
M  V30 786 H 80.8465 -2.54728 2.98088 0
M  V30 787 H 82.3365 -3.38249 2.44903 0
M  V30 788 N 82.7736 -1.49793 -0.48987 0
M  V30 789 C 84.0196 -1.60078 -1.24511 0
M  V30 790 C 84.3526 -0.291608 -1.91998 0
M  V30 791 O 83.6276 0.705647 -1.81248 0
M  V30 792 C 83.9106 -2.76791 -2.30345 0
M  V30 793 C 83.7636 -4.17535 -1.67286 0
M  V30 794 C 85.0826 -2.89111 -3.31817 0
M  V30 795 H 82.2016 -0.582645 -0.451324 0
M  V30 796 H 84.8436 -1.82117 -0.541612 0
M  V30 797 H 82.9936 -2.5813 -2.90346 0
M  V30 798 H 84.6656 -4.4774 -1.11026 0
M  V30 799 H 82.9086 -4.22665 -0.976577 0
M  V30 800 H 83.5796 -4.95094 -2.44103 0
M  V30 801 H 86.0556 -3.06133 -2.81819 0
M  V30 802 H 84.9316 -3.72433 -4.03219 0
M  V30 803 H 85.1926 -1.9893 -3.94815 0
M  V30 804 N 84.2517 0.741722 -1.39055 0
M  V30 805 C 85.1817 1.869 -1.39966 0
M  V30 806 C 86.1627 1.6804 -0.26392 0
M  V30 807 O 87.3477 1.88458 -0.468755 0
M  V30 808 C 84.4777 3.24572 -1.23574 0
M  V30 809 C 83.4317 3.58056 -2.34477 0
M  V30 810 C 82.7577 4.94593 -2.0318 0
M  V30 811 C 84.0577 3.61716 -3.76774 0
M  V30 812 H 85.7517 1.86395 -2.34302 0
M  V30 813 H 83.2977 0.895361 -1.1278 0
M  V30 814 H 85.2507 4.031 -1.22834 0
M  V30 815 H 83.9747 3.25587 -0.257045 0
M  V30 816 H 82.6337 2.81854 -2.34423 0
M  V30 817 H 82.2817 4.92181 -1.03765 0
M  V30 818 H 81.9817 5.17964 -2.77465 0
M  V30 819 H 83.5057 5.75486 -2.04079 0
M  V30 820 H 84.9197 4.30335 -3.78794 0
M  V30 821 H 83.3167 3.96603 -4.50362 0
M  V30 822 H 84.3867 2.61672 -4.08235 0
M  V30 823 N 85.7298 1.2412 0.971189 0
M  V30 824 C 86.6928 1.03156 2.04674 0
M  V30 825 C 87.6928 -0.00990322 1.60797 0
M  V30 826 O 88.8828 0.230729 1.72665 0
M  V30 827 C 86.0148 0.562765 3.36223 0
M  V30 828 H 87.2078 1.98614 2.24705 0
M  V30 829 H 84.7608 1.06293 1.14593 0
M  V30 830 H 85.4958 -0.395176 3.21883 0
M  V30 831 H 85.2808 1.31441 3.69413 0
M  V30 832 H 86.7708 0.437015 4.15307 0
M  V30 833 N 87.2079 -1.17134 1.05439 0
M  V30 834 C 88.4539 -1.87733 0.767077 0
M  V30 835 C 88.7869 -1.8098 -0.704253 0
M  V30 836 O 88.0619 -1.21951 -1.5152 0
M  V30 837 C 88.3449 -3.37659 1.25133 0
M  V30 838 C 88.1979 -3.53149 2.78578 0
M  V30 839 C 89.5169 -4.31768 0.852324 0
M  V30 840 H 86.6359 -0.681687 0.280129 0
M  V30 841 H 89.2779 -1.37732 1.30881 0
M  V30 842 H 87.4279 -3.80373 0.790469 0
M  V30 843 H 89.0999 -3.19434 3.32806 0
M  V30 844 H 87.3429 -2.95345 3.17732 0
M  V30 845 H 88.0139 -4.58403 3.07523 0
M  V30 846 H 90.4899 -3.96909 1.24911 0
M  V30 847 H 89.3659 -5.35199 1.21873 0
M  V30 848 H 89.6269 -4.41429 -0.243485 0
M  V30 849 N 88.686 -0.835752 -1.33615 0
M  V30 850 C 89.914 -0.443344 -2.02094 0
M  V30 851 C 90.329 0.954522 -1.62894 0
M  V30 852 O 89.686 1.61982 -0.840723 0
M  V30 853 C 89.737 -0.550775 -3.5728 0
M  V30 854 O 89.458 -1.89356 -3.95065 0
M  V30 855 C 90.959 -0.154919 -4.43029 0
M  V30 856 H 88.179 -0.176359 -0.647409 0
M  V30 857 H 90.723 -1.12746 -1.70612 0
M  V30 858 H 88.878 0.0853997 -3.87306 0
M  V30 859 H 89.292 -1.87687 -4.89769 0
M  V30 860 H 90.766 -0.281144 -5.51284 0
M  V30 861 H 91.243 0.902863 -4.2982 0
M  V30 862 H 91.849 -0.765404 -4.18356 0
M  V30 863 N 90.1641 1.46063 -0.591896 0
M  V30 864 C 91.4111 2.02338 -0.0809991 0
M  V30 865 C 91.7391 1.46228 1.28249 0
M  V30 866 O 90.9941 0.620818 1.85592 0
M  V30 867 C 91.2931 3.57391 0.0249813 0
M  V30 868 C 90.9591 4.32583 -1.27211 0
M  V30 869 C 89.6211 4.52844 -1.62745 0
M  V30 870 C 91.9731 4.75687 -2.13005 0
M  V30 871 C 89.3011 5.13462 -2.83855 0
M  V30 872 C 91.6531 5.37644 -3.3335 0
M  V30 873 C 90.3171 5.5613 -3.69155 0
M  V30 874 H 89.5871 0.740407 -0.0296397 0
M  V30 875 H 92.2341 1.75321 -0.770374 0
M  V30 876 H 90.5391 3.83597 0.797537 0
M  V30 877 H 92.2361 3.98621 0.436184 0
M  V30 878 H 88.8261 4.17116 -0.985499 0
M  V30 879 H 93.0101 4.59782 -1.86855 0
M  V30 880 H 88.2661 5.25965 -3.11722 0
M  V30 881 H 92.4401 5.7 -4.00092 0
M  V30 882 H 90.0671 6.0287 -4.63089 0
M  V30 883 N 91.6422 0.330177 1.54103 0
M  V30 884 C 92.6052 -0.520144 2.2322 0
M  V30 885 C 93.6052 -1.03828 1.22786 0
M  V30 886 O 94.7952 -0.929652 1.4732 0
M  V30 887 C 91.9272 -1.72317 2.94142 0
M  V30 888 H 93.1202 0.0841605 2.99782 0
M  V30 889 H 90.6732 0.0813433 1.56088 0
M  V30 890 H 91.4082 -2.36653 2.21734 0
M  V30 891 H 91.1932 -1.35898 3.67796 0
M  V30 892 H 92.6832 -2.3266 3.46784 0
M  V30 893 N 93.1203 -1.57491 0.0584922 0
M  V30 894 C 94.3663 -1.93264 -0.614558 0
M  V30 895 C 94.6993 -0.937717 -1.7006 0
M  V30 896 O 93.9743 0.0351652 -1.94468 0
M  V30 897 C 94.2573 -3.3938 -1.20386 0
M  V30 898 C 94.1103 -4.49625 -0.125375 0
M  V30 899 C 95.4293 -3.86039 -2.11334 0
M  V30 900 H 92.5483 -0.702791 -0.221933 0
M  V30 901 H 95.1903 -1.8961 0.12175 0
M  V30 902 H 93.3403 -3.42626 -1.83139 0
M  V30 903 H 95.0123 -4.58506 0.506971 0
M  V30 904 H 93.2553 -4.30354 0.545672 0
M  V30 905 H 93.9263 -5.48967 -0.577861 0
M  V30 906 H 96.4023 -3.84716 -1.58534 0
M  V30 907 H 95.2783 -4.88914 -2.49507 0
M  V30 908 H 95.5393 -3.23215 -3.01636 0
M  V30 909 N 94.5984 0.214957 -1.56127 0
M  V30 910 C 95.5614 1.24997 -1.92116 0
M  V30 911 C 96.5614 1.39467 -0.800344 0
M  V30 912 O 97.7514 1.37619 -1.06802 0
M  V30 913 C 94.8834 2.62271 -2.17777 0
M  V30 914 H 96.0764 0.942875 -2.84693 0
M  V30 915 H 93.6294 0.455654 -1.49511 0
M  V30 916 H 94.3644 2.98068 -1.27773 0
M  V30 917 H 94.1494 2.53143 -2.99434 0
M  V30 918 H 95.6394 3.36946 -2.46693 0
M  V30 919 N 96.0765 1.50051 0.48192 0
M  V30 920 C 97.3225 1.60736 1.2366 0
M  V30 921 C 97.6555 0.301786 1.91841 0
M  V30 922 O 96.9305 -0.696025 1.8162 0
M  V30 923 C 97.2135 2.78009 2.28874 0
M  V30 924 C 97.0665 4.18416 1.65069 0
M  V30 925 C 98.3855 2.90867 3.30279 0
M  V30 926 H 95.5045 0.585031 0.448228 0
M  V30 927 H 98.1465 1.82402 0.531946 0
M  V30 928 H 96.2965 2.59667 2.88973 0
M  V30 929 H 97.9685 4.48322 1.0865 0
M  V30 930 H 96.2115 4.23177 0.954148 0
M  V30 931 H 96.8825 4.96381 2.41474 0
M  V30 932 H 99.3585 3.07623 2.80191 0
M  V30 933 H 98.2345 3.74566 4.01238 0
M  V30 934 H 98.4955 2.01021 3.93755 0
M  V30 935 N 97.5546 -0.734337 1.39446 0
M  V30 936 C 98.4846 -1.86155 1.40955 0
M  V30 937 C 99.4656 -1.67898 0.272827 0
M  V30 938 O 100.651 -1.88207 0.478743 0
M  V30 939 C 97.7806 -3.23912 1.25294 0
M  V30 940 C 96.7346 -3.56808 2.36373 0
M  V30 941 C 96.0606 -4.93508 2.058 0
M  V30 942 C 97.3606 -3.59713 3.78687 0
M  V30 943 H 99.0546 -1.8515 2.35287 0
M  V30 944 H 96.6006 -0.889367 1.13253 0
M  V30 945 H 98.5536 -4.02443 1.2497 0
M  V30 946 H 97.2776 -3.25446 0.274308 0
M  V30 947 H 95.9366 -2.80606 2.35914 0
M  V30 948 H 95.5846 -4.91623 1.06374 0
M  V30 949 H 95.2846 -5.16486 2.80208 0
M  V30 950 H 96.8086 -5.74396 2.07128 0
M  V30 951 H 98.2226 -4.2832 3.81071 0
M  V30 952 H 96.6196 -3.94209 4.52459 0
M  V30 953 H 97.6896 -2.59504 4.09617 0
M  V30 954 N 99.0327 -1.24633 -0.964593 0
M  V30 955 C 100.281 -1.08573 -1.70459 0
M  V30 956 C 100.602 0.375655 -1.91347 0
M  V30 957 O 99.8717 1.26779 -1.49345 0
M  V30 958 H 98.4517 -0.398784 -0.631649 0
M  V30 959 H 101.114 -1.56601 -1.16026 0
M  V30 960 H 100.21 -1.58623 -2.68785 0
M  V30 961 N 100.511 1.16574 -1.06058 0
M  V30 962 C 101.459 2.22941 -0.663343 0
M  V30 963 C 102.453 1.66358 0.319593 0
M  V30 964 O 103.659 1.7905 0.184713 0
M  V30 965 H 100.034 0.725907 -0.196376 0
M  V30 966 H 102.005 2.53736 -1.57037 0
M  V30 967 C 100.754 3.47642 -0.0632808 0
M  V30 968 H 100.077 3.91493 -0.810733 0
M  V30 969 H 101.517 4.2363 0.177177 0
M  V30 970 C 99.9758 3.1509 1.19248 0
M  V30 971 O 100.506 3.30673 2.28075 0
M  V30 972 N 98.7118 2.6924 1.09353 0
M  V30 973 H 98.2588 2.5676 0.207912 0
M  V30 974 H 98.2168 2.47833 1.93458 0
M  V30 975 N 101.989 0.842826 1.3317 0
M  V30 976 C 103.214 0.453129 2.02389 0
M  V30 977 C 103.639 -0.939105 1.6298 0
M  V30 978 O 102.997 -1.61472 0.8244 0
M  V30 979 C 103.045 0.586094 3.55805 0
M  V30 980 O 102.149 -0.386029 4.10589 0
M  V30 981 H 101.49 0.183664 0.638094 0
M  V30 982 H 104.02 1.13875 1.69981 0
M  V30 983 H 104.03 0.469209 4.05293 0
M  V30 984 H 102.705 1.6014 3.83833 0
M  V30 985 H 101.282 -0.226371 3.72212 0
M  V30 986 N 103.467 -1.45747 0.599634 0
M  V30 987 C 104.692 -2.07178 0.0960198 0
M  V30 988 C 105.117 -1.44268 -1.207 0
M  V30 989 O 104.475 -0.532503 -1.73303 0
M  V30 990 C 104.523 -3.60579 -0.0385348 0
M  V30 991 O 103.627 -3.97713 -1.0908 0
M  V30 992 H 102.968 -0.660251 0.0704593 0
M  V30 993 H 105.498 -1.87124 0.827385 0
M  V30 994 H 105.508 -4.07298 -0.239304 0
M  V30 995 H 104.183 -4.05756 0.912947 0
M  V30 996 H 102.76 -3.62678 -0.867135 0
M  V30 997 N 104.945 -0.338344 -1.53925 0
M  V30 998 C 106.191 0.260143 -2.01125 0
M  V30 999 C 106.524 1.50617 -1.22589 0
M  V30 1000 O 105.799 1.91979 -0.312113 0
M  V30 1001 C 106.082 0.579499 -3.55407 0
M  V30 1002 C 105.935 -0.678264 -4.44657 0
M  V30 1003 C 107.254 1.39122 -4.17532 0
M  V30 1004 H 104.373 0.0930772 -0.731099 0
M  V30 1005 H 107.015 -0.457852 -1.84401 0
M  V30 1006 H 105.165 1.19118 -3.69788 0
M  V30 1007 H 106.837 -1.31631 -4.42121 0
M  V30 1008 H 105.08 -1.3042 -4.13731 0
M  V30 1009 H 105.751 -0.410143 -5.50474 0
M  V30 1010 H 108.227 0.874035 -4.06817 0
M  V30 1011 H 107.103 1.58342 -5.25565 0
M  V30 1012 H 107.364 2.39178 -3.71815 0
M  V30 1013 N 106.423 1.57458 -0.0668435 0
M  V30 1014 C 107.353 2.15468 0.899764 0
M  V30 1015 C 108.334 1.08042 1.31381 0
M  V30 1016 O 109.519 1.36054 1.38574 0
M  V30 1017 C 106.649 2.71232 2.16911 0
M  V30 1018 C 105.603 3.83781 1.89463 0
M  V30 1019 C 104.929 4.26127 3.22986 0
M  V30 1020 C 106.229 5.08238 1.20381 0
M  V30 1021 H 107.923 2.96488 0.416529 0
M  V30 1022 H 105.469 1.4262 0.198908 0
M  V30 1023 H 107.422 3.10458 2.84945 0
M  V30 1024 H 106.146 1.87426 2.67468 0
M  V30 1025 H 104.805 3.45051 1.23836 0
M  V30 1026 H 104.453 3.39249 3.71374 0
M  V30 1027 H 104.153 5.01993 3.05413 0
M  V30 1028 H 105.677 4.67966 3.92225 0
M  V30 1029 H 107.091 5.44811 1.78475 0
M  V30 1030 H 105.488 5.89349 1.13083 0
M  V30 1031 H 106.558 4.84558 0.182153 0
M  V30 1032 N 107.901 -0.206675 1.56239 0
M  V30 1033 C 108.831 -1.25909 1.96645 0
M  V30 1034 C 109.812 -1.48097 0.836734 0
M  V30 1035 O 110.997 -1.6003 1.10019 0
M  V30 1036 C 108.127 -2.6058 2.29599 0
M  V30 1037 C 107.081 -2.53024 3.452 0
M  V30 1038 C 106.407 -3.91861 3.63798 0
M  V30 1039 C 107.707 -2.06524 4.79734 0
M  V30 1040 H 109.401 -0.923369 2.84806 0
M  V30 1041 H 106.947 -0.442735 1.37025 0
M  V30 1042 H 108.9 -3.34375 2.56459 0
M  V30 1043 H 107.624 -2.95869 1.38307 0
M  V30 1044 H 106.283 -1.81684 3.18412 0
M  V30 1045 H 105.931 -4.24483 2.69857 0
M  V30 1046 H 105.631 -3.87683 4.4156 0
M  V30 1047 H 107.155 -4.67296 3.93022 0
M  V30 1048 H 108.569 -2.70072 5.05702 0
M  V30 1049 H 106.966 -2.13374 5.60885 0
M  V30 1050 H 108.036 -1.01802 4.74093 0
M  V30 1051 N 109.379 -1.50304 -0.473955 0
M  V30 1052 C 110.342 -1.6841 -1.55469 0
M  V30 1053 C 111.342 -0.554905 -1.50922 0
M  V30 1054 O 112.532 -0.821882 -1.53593 0
M  V30 1055 C 109.664 -1.70667 -2.95102 0
M  V30 1056 H 110.857 -2.64828 -1.40733 0
M  V30 1057 H 108.41 -1.39742 -0.700132 0
M  V30 1058 H 109.145 -0.75932 -3.15285 0
M  V30 1059 H 108.93 -2.52698 -2.9981 0
M  V30 1060 H 110.42 -1.8664 -3.73571 0
M  V30 1061 N 110.857 0.726932 -1.39834 0
M  V30 1062 C 111.787 1.85405 -1.41941 0
M  V30 1063 C 112.768 1.67751 -0.281728 0
M  V30 1064 O 113.953 1.8795 -0.488717 0
M  V30 1065 C 111.083 3.23243 -1.2701 0
M  V30 1066 C 110.037 3.55549 -2.38262 0
M  V30 1067 C 109.363 4.9241 -2.08415 0
M  V30 1068 C 110.663 3.577 -3.80589 0
M  V30 1069 H 112.357 1.83899 -2.36266 0
M  V30 1070 H 109.903 0.883349 -1.13723 0
M  V30 1071 H 111.856 4.01775 -1.27103 0
M  V30 1072 H 110.58 3.25296 -0.291564 0
M  V30 1073 H 109.239 2.79351 -2.37399 0
M  V30 1074 H 108.887 4.91052 -1.0898 0
M  V30 1075 H 108.587 5.14992 -2.82943 0
M  V30 1076 H 110.111 5.73289 -2.10171 0
M  V30 1077 H 111.525 4.26293 -3.83337 0
M  V30 1078 H 109.922 3.91804 -4.54543 0
M  V30 1079 H 110.992 2.57328 -4.10987 0
M  V30 1080 N 112.336 1.25143 0.95797 0
M  V30 1081 C 113.286 1.01924 2.0395 0
M  V30 1082 C 114.27 -0.0427175 1.60843 0
M  V30 1083 O 115.462 0.17221 1.7616 0
M  V30 1084 C 112.591 0.636373 3.3735 0
M  V30 1085 C 111.677 1.73492 3.8699 0
M  V30 1086 N 112.068 2.96945 4.0946 0
M  V30 1087 C 110.366 1.61467 4.15746 0
M  V30 1088 C 111.067 3.68228 4.50315 0
M  V30 1089 N 110.043 2.95833 4.56053 0
M  V30 1090 H 113.845 1.95653 2.19311 0
M  V30 1091 H 111.359 1.15413 1.14253 0
M  V30 1092 H 113.356 0.451233 4.14451 0
M  V30 1093 H 112.016 -0.293621 3.2337 0
M  V30 1094 H 113.027 3.33025 3.96629 0
M  V30 1095 H 109.704 0.753394 4.10646 0
M  V30 1096 H 111.094 4.74178 4.76031 0
M  V30 1097 N 113.814 -1.1601 1.06675 0
M  V30 1098 C 115.23 -1.38622 0.790948 0
M  V30 1099 C 115.43 -1.92109 -0.607965 0
M  V30 1100 O 114.486 -2.12239 -1.36787 0
M  V30 1101 C 115.799 -2.36347 1.85905 0
M  V30 1102 C 117.347 -2.50023 1.88301 0
M  V30 1103 C 117.822 -3.51033 2.94176 0
M  V30 1104 N 119.313 -3.58563 2.93235 0
M  V30 1105 C 120.048 -4.36521 3.71803 0
M  V30 1106 N 119.544 -5.17869 4.602 0
M  V30 1107 N 121.337 -4.31541 3.60178 0
M  V30 1108 H 113.488 -0.796294 1.96908 0
M  V30 1109 H 115.751 -0.412597 0.853503 0
M  V30 1110 H 115.457 -2.04147 2.86386 0
M  V30 1111 H 115.331 -3.36042 1.71334 0
M  V30 1112 H 117.718 -2.81524 0.884769 0
M  V30 1113 H 117.799 -1.5035 2.06951 0
M  V30 1114 H 117.443 -3.20268 3.94196 0
M  V30 1115 H 117.373 -4.50445 2.72776 0
M  V30 1116 H 119.864 -3.00496 2.29152 0
M  V30 1117 H 120.177 -5.74578 5.16797 0
M  V30 1118 H 118.522 -5.17199 4.64253 0
M  V30 1119 H 121.713 -3.67051 2.90502 0
M  V30 1120 H 121.886 -4.9205 4.21653 0
M  V30 1121 N 115.292 -0.849877 -1.32721 0
M  V30 1122 C 116.52 -0.464754 -2.01613 0
M  V30 1123 C 116.935 0.937191 -1.63897 0
M  V30 1124 O 116.292 1.61081 -0.857856 0
M  V30 1125 C 116.343 -0.588638 -3.56675 0
M  V30 1126 O 116.064 -1.93535 -3.93034 0
M  V30 1127 C 117.565 -0.2019 -4.4284 0
M  V30 1128 H 114.785 -0.183215 -0.645502 0
M  V30 1129 H 117.329 -1.1455 -1.69407 0
M  V30 1130 H 115.484 0.0443159 -3.87375 0
M  V30 1131 H 115.898 -1.92871 -4.87751 0
M  V30 1132 H 117.372 -0.339599 -5.50954 0
M  V30 1133 H 117.849 0.857224 -4.30753 0
M  V30 1134 H 118.455 -0.809733 -4.17521 0
M  V30 1135 N 116.77 1.45427 -0.607355 0
M  V30 1136 C 118.181 1.85756 -0.187535 0
M  V30 1137 C 118.532 1.5077 1.25551 0
M  V30 1138 O 117.657 0.93427 1.95193 0
M  V30 1139 C 118.252 3.37154 -0.333572 0
M  V30 1140 C 116.811 3.76387 0.0315542 0
M  V30 1141 C 115.958 2.69377 -0.658117 0
M  V30 1142 H 118.909 1.36231 -0.81405 0
M  V30 1143 H 118.93 3.78014 0.43428 0
M  V30 1144 H 118.442 3.62586 -1.38393 0
M  V30 1145 H 116.543 3.56571 1.0811 0
M  V30 1146 H 116.656 4.77731 -0.361935 0
M  V30 1147 H 115.02 2.5452 -0.0957873 0
M  V30 1148 H 115.803 2.97646 -1.7106 0
M  V30 1149 N 118.248 0.346503 1.53744 0
M  V30 1150 C 119.664 -0.00530975 1.59599 0
M  V30 1151 C 119.864 -1.48465 1.36236 0
M  V30 1152 O 118.92 -2.24376 1.15808 0
M  V30 1153 C 120.233 0.433516 2.97559 0
M  V30 1154 C 121.781 0.386111 3.10609 0
M  V30 1155 C 122.256 0.800451 4.50951 0
M  V30 1156 N 123.747 0.754753 4.5701 0
M  V30 1157 C 124.482 1.04727 5.63755 0
M  V30 1158 N 123.978 1.4081 6.7834 0
M  V30 1159 N 125.771 0.971316 5.53644 0
M  V30 1160 H 117.922 1.31009 1.67184 0
M  V30 1161 H 120.185 0.534242 0.783128 0
M  V30 1162 H 119.891 1.46509 3.19731 0
M  V30 1163 H 119.765 -0.189753 3.76722 0
M  V30 1164 H 122.152 -0.636295 2.88158 0
M  V30 1165 H 122.233 1.04462 2.33498 0
M  V30 1166 H 121.877 1.82088 4.74137 0
M  V30 1167 H 121.807 0.119386 5.26465 0
M  V30 1168 H 124.298 0.488662 3.74727 0
M  V30 1169 H 124.611 1.61607 7.55714 0
M  V30 1170 H 122.956 1.44657 6.79779 0
M  V30 1171 H 126.147 0.688748 4.63005 0
M  V30 1172 H 126.32 1.20263 6.36742 0
M  V30 1173 N 119.726 -1.57421 0.075193 0
M  V30 1174 C 120.673 -2.12915 -0.890843 0
M  V30 1175 C 121.643 -1.04252 -1.29309 0
M  V30 1176 O 122.828 -1.31933 -1.37834 0
M  V30 1177 C 119.968 -2.69795 -2.15186 0
M  V30 1178 C 119.081 -3.92624 -1.80194 0
M  V30 1179 C 118.216 -4.37736 -3.00933 0
M  V30 1180 C 117.255 -5.53205 -2.61974 0
M  V30 1181 N 116.392 -5.9326 -3.75483 0
M  V30 1182 H 121.232 -2.95156 -0.410735 0
M  V30 1183 H 118.769 -1.45854 -0.191086 0
M  V30 1184 H 120.727 -3.00883 -2.89008 0
M  V30 1185 H 119.357 -1.90313 -2.60731 0
M  V30 1186 H 118.409 -3.67977 -0.964218 0
M  V30 1187 H 119.721 -4.76482 -1.47534 0
M  V30 1188 H 118.875 -4.70503 -3.8303 0
M  V30 1189 H 117.614 -3.52739 -3.36789 0
M  V30 1190 H 116.619 -5.20086 -1.783 0
M  V30 1191 H 117.844 -6.39936 -2.27284 0
M  V30 1192 H 115.79 -5.11212 -4.11094 0
M  V30 1193 H 115.707 -6.71865 -3.46602 0
M  V30 1194 H 116.975 -6.30651 -4.58148 0
M  V30 1195 N 121.204 0.198386 -1.56346 0
M  V30 1196 C 122.432 0.935572 -1.84539 0
M  V30 1197 C 122.847 1.76989 -0.657281 0
M  V30 1198 O 122.204 1.78626 0.374043 0
M  V30 1199 C 122.255 1.8344 -3.11499 0
M  V30 1200 O 121.976 1.03377 -4.25728 0
M  V30 1201 C 123.477 2.68355 -3.52846 0
M  V30 1202 H 120.697 0.273126 -0.612897 0
M  V30 1203 H 123.241 0.20663 -2.03453 0
M  V30 1204 H 121.396 2.51701 -2.94492 0
M  V30 1205 H 121.81 1.64599 -4.98003 0
M  V30 1206 H 123.284 3.27085 -4.44657 0
M  V30 1207 H 123.761 3.41901 -2.75681 0
M  V30 1208 H 124.367 2.05471 -3.72373 0
M  V30 1209 N 122.682 1.50554 0.465978 0
M  V30 1210 C 123.907 1.65838 1.24549 0
M  V30 1211 C 124.332 0.343486 1.84937 0
M  V30 1212 O 123.69 -0.69324 1.67523 0
M  V30 1213 C 123.738 2.75533 2.32624 0
M  V30 1214 O 122.842 2.37142 3.37398 0
M  V30 1215 H 122.183 0.553893 0.366194 0
M  V30 1216 H 124.713 1.96959 0.553927 0
M  V30 1217 H 124.723 2.98763 2.77857 0
M  V30 1218 H 123.398 3.70962 1.88043 0
M  V30 1219 H 121.975 2.24377 2.97841 0
M  V30 1220 N 124.16 -0.719506 1.40217 0
M  V30 1221 C 125.576 -1.02707 1.22161 0
M  V30 1222 C 125.776 -2.0128 0.0940557 0
M  V30 1223 O 124.832 -2.46452 -0.549318 0
M  V30 1224 C 126.145 -1.57454 2.56181 0
M  V30 1225 C 127.693 -1.69458 2.63159 0
M  V30 1226 C 128.168 -2.27611 3.97438 0
M  V30 1227 N 129.659 -2.35002 3.99159 0
M  V30 1228 C 130.394 -2.80972 4.99842 0
M  V30 1229 N 129.89 -3.26723 6.10921 0
M  V30 1230 N 131.683 -2.80321 4.87213 0
M  V30 1231 H 123.834 -0.0660492 2.12297 0
M  V30 1232 H 126.097 -0.0919077 0.943534 0
M  V30 1233 H 125.803 -0.924873 3.39321 0
M  V30 1234 H 125.677 -2.56036 2.76993 0
M  V30 1235 H 128.064 -2.33543 1.80393 0
M  V30 1236 H 128.145 -0.694867 2.46181 0
M  V30 1237 H 127.789 -1.6415 4.80643 0
M  V30 1238 H 127.719 -3.2829 4.11744 0
M  V30 1239 H 130.21 -2.02685 3.18947 0
M  V30 1240 H 130.523 -3.60355 6.8364 0
M  V30 1241 H 128.868 -3.24692 6.14492 0
M  V30 1242 H 132.059 -2.43912 3.9953 0
M  V30 1243 H 132.232 -3.15831 5.65822 0
M  V30 1244 N 125.638 -1.25649 -0.95132 0
M  V30 1245 C 126.571 -1.00644 -2.04807 0
M  V30 1246 C 127.549 0.0654271 -1.62468 0
M  V30 1247 O 128.733 -0.074911 -1.88351 0
M  V30 1248 C 125.86 -0.522052 -3.34653 0
M  V30 1249 C 124.906 -1.58495 -3.95957 0
M  V30 1250 S 125.739 -3.17108 -4.31512 0
M  V30 1251 C 126.895 -2.70412 -5.64471 0
M  V30 1252 H 127.128 -1.93508 -2.25703 0
M  V30 1253 H 124.661 -1.09216 -1.09139 0
M  V30 1254 H 126.619 -0.24923 -4.09743 0
M  V30 1255 H 125.28 0.386146 -3.11717 0
M  V30 1256 H 124.473 -1.1968 -4.89584 0
M  V30 1257 H 124.075 -1.80862 -3.2736 0
M  V30 1258 H 126.367 -2.14245 -6.42733 0
M  V30 1259 H 127.31 -3.62693 -6.08161 0
M  V30 1260 H 127.718 -2.10302 -5.23864 0
M  V30 1261 N 127.117 1.15442 -1.07289 0
M  V30 1262 C 128.067 2.18164 -0.662467 0
M  V30 1263 C 129.051 1.57845 0.312074 0
M  V30 1264 O 130.243 1.76552 0.125905 0
M  V30 1265 C 127.372 3.43246 -0.0611295 0
M  V30 1266 C 126.458 4.1062 -1.06077 0
M  V30 1267 N 126.849 4.53491 -2.24008 0
M  V30 1268 C 125.147 4.36949 -0.893964 0
M  V30 1269 C 125.848 5.05731 -2.87422 0
M  V30 1270 N 124.824 4.99236 -2.15091 0
M  V30 1271 H 128.626 2.49038 -1.56068 0
M  V30 1272 H 126.14 1.32003 -0.945988 0
M  V30 1273 H 128.137 4.16145 0.250792 0
M  V30 1274 H 126.797 3.13854 0.832207 0
M  V30 1275 H 127.808 4.46898 -2.6173 0
M  V30 1276 H 124.485 4.17466 -0.0534693 0
M  V30 1277 H 125.875 5.48865 -3.87553 0
M  V30 1278 N 128.595 0.856903 1.32268 0
M  V30 1279 C 129.525 0.31858 2.31316 0
M  V30 1280 C 130.506 -0.583487 1.59779 0
M  V30 1281 O 131.691 -0.503259 1.87566 0
M  V30 1282 C 128.821 -0.491979 3.43798 0
M  V30 1283 C 127.775 0.315849 4.26833 0
M  V30 1284 C 127.101 -0.619586 5.31098 0
M  V30 1285 C 128.401 1.54282 4.98993 0
M  V30 1286 H 130.095 1.14621 2.76591 0
M  V30 1287 H 127.641 0.552613 1.32974 0
M  V30 1288 H 129.594 -0.879012 4.1213 0
M  V30 1289 H 128.318 -1.35299 2.97257 0
M  V30 1290 H 126.977 0.684664 3.6015 0
M  V30 1291 H 126.625 -1.47751 4.8081 0
M  V30 1292 H 126.325 -0.0830621 5.87541 0
M  V30 1293 H 127.849 -1.00375 6.02293 0
M  V30 1294 H 129.263 1.22796 5.59995 0
M  V30 1295 H 127.66 2.01745 5.65172 0
M  V30 1296 H 128.73 2.30285 4.26728 0
M  V30 1297 N 130.073 -1.45103 0.615059 0
M  V30 1298 C 131.32 -2.02183 0.113179 0
M  V30 1299 C 131.648 -1.48249 -1.25906 0
M  V30 1300 O 130.903 -0.650265 -1.84581 0
M  V30 1301 C 131.202 -3.57386 0.0318797 0
M  V30 1302 C 130.868 -4.30505 1.34077 0
M  V30 1303 C 129.53 -4.50197 1.69929 0
M  V30 1304 C 131.882 -4.72238 2.20546 0
M  V30 1305 C 129.21 -5.08881 2.91988 0
M  V30 1306 C 131.562 -5.32272 3.41861 0
M  V30 1307 C 130.226 -5.50187 3.77956 0
M  V30 1308 H 129.496 -0.739842 0.0414151 0
M  V30 1309 H 132.143 -1.74073 0.798168 0
M  V30 1310 H 130.448 -3.84817 -0.736409 0
M  V30 1311 H 132.145 -3.99264 -0.372712 0
M  V30 1312 H 128.735 -4.15496 1.05173 0
M  V30 1313 H 132.919 -4.56751 1.94146 0
M  V30 1314 H 128.175 -5.20939 3.2005 0
M  V30 1315 H 132.349 -5.63563 4.09109 0
M  V30 1316 H 129.976 -5.95427 4.72622 0
M  V30 1317 N 131.551 -0.354651 -1.53558 0
M  V30 1318 C 132.8 0.239504 -2.00273 0
M  V30 1319 C 133.113 1.50759 -1.24623 0
M  V30 1320 O 134.319 2.17968 -1.61871 0
M  V30 1321 C 132.775 0.477341 -3.5672 0
M  V30 1322 C 132.383 -0.775488 -4.41237 0
M  V30 1323 C 134.127 1.02975 -4.11821 0
M  V30 1324 C 132.034 -0.507838 -5.89216 0
M  V30 1325 H 130.964 0.0932743 -0.748208 0
M  V30 1326 H 133.615 -0.471701 -1.77334 0
M  V30 1327 H 131.997 1.24953 -3.7577 0
M  V30 1328 H 133.171 -1.54963 -4.33962 0
M  V30 1329 H 131.486 -1.25033 -3.97185 0
M  V30 1330 H 134.083 1.24513 -5.2 0
M  V30 1331 H 134.426 1.98862 -3.65731 0
M  V30 1332 H 134.959 0.317994 -3.96527 0
M  V30 1333 H 131.698 -1.43674 -6.39561 0
M  V30 1334 H 131.218 0.228011 -5.99366 0
M  V30 1335 H 132.897 -0.129238 -6.46871 0
M  V30 1336 N 133.029 1.57378 -0.0835403 0
M  V30 1337 C 134.445 1.57246 0.273109 0
M  V30 1338 C 134.645 1.09385 1.69225 0
M  V30 1339 O 133.701 0.765051 2.40631 0
M  V30 1340 C 135.014 3.00614 0.0720628 0
M  V30 1341 C 136.562 3.12684 0.1407 0
M  V30 1342 C 137.037 4.57989 -0.0322094 0
M  V30 1343 N 138.528 4.63194 0.0230085 0
M  V30 1344 C 139.263 5.73335 -0.0861941 0
M  V30 1345 N 138.759 6.9235 -0.24958 0
M  V30 1346 N 140.552 5.62093 -0.0282886 0
M  V30 1347 H 132.703 1.86801 -1.0109 0
M  V30 1348 H 134.966 0.861687 -0.395222 0
M  V30 1349 H 134.672 3.39786 -0.907662 0
M  V30 1350 H 134.546 3.68193 0.81936 0
M  V30 1351 H 136.933 2.73391 1.11092 0
M  V30 1352 H 137.014 2.47719 -0.637896 0
M  V30 1353 H 136.658 4.97973 -0.999247 0
M  V30 1354 H 136.588 5.21 0.765937 0
M  V30 1355 H 139.079 3.77613 0.14722 0
M  V30 1356 H 139.392 7.72117 -0.324733 0
M  V30 1357 H 137.737 6.94415 -0.285097 0
M  V30 1358 H 140.928 4.67997 0.0981408 0
M  V30 1359 H 141.101 6.47895 -0.116845 0
M  V30 1360 N 134.507 -0.190092 1.56449 0
M  V30 1361 C 135.457 -1.23977 1.91347 0
M  V30 1362 C 136.441 -1.40747 0.779693 0
M  V30 1363 O 137.633 -1.43033 1.04262 0
M  V30 1364 C 134.762 -2.58347 2.26079 0
M  V30 1365 C 133.848 -2.4535 3.45925 0
M  V30 1366 N 134.239 -2.02039 4.63696 0
M  V30 1367 C 132.537 -2.76229 3.50162 0
M  V30 1368 C 133.238 -2.01053 5.4585 0
M  V30 1369 N 132.214 -2.42747 4.8639 0
M  V30 1370 H 136.016 -0.896318 2.79899 0
M  V30 1371 H 133.53 -0.398496 1.57435 0
M  V30 1372 H 135.527 -3.34173 2.49267 0
M  V30 1373 H 134.187 -2.93512 1.38856 0
M  V30 1374 H 135.198 -1.7267 4.88268 0
M  V30 1375 H 131.875 -3.15556 2.73369 0
M  V30 1376 H 133.265 -1.69426 6.50188 0
M  V30 1377 N 135.985 -1.50799 -0.457987 0
M  V30 1378 C 136.915 -1.73553 -1.5621 0
M  V30 1379 C 137.896 -0.584774 -1.59732 0
M  V30 1380 O 139.081 -0.825314 -1.7579 0
M  V30 1381 C 136.211 -1.84169 -2.94447 0
M  V30 1382 C 135.165 -2.99461 -3.0579 0
M  V30 1383 C 134.491 -2.95235 -4.45803 0
M  V30 1384 C 135.791 -4.39766 -2.81786 0
M  V30 1385 H 137.485 -2.66 -1.37421 0
M  V30 1386 H 135.031 -1.28002 -0.659662 0
M  V30 1387 H 136.984 -1.98672 -3.71628 0
M  V30 1388 H 135.708 -0.883545 -3.14422 0
M  V30 1389 H 134.367 -2.8463 -2.31044 0
M  V30 1390 H 134.015 -1.97239 -4.62715 0
M  V30 1391 H 133.715 -3.72642 -4.54326 0
M  V30 1392 H 135.239 -3.11803 -5.24987 0
M  V30 1393 H 136.653 -4.55054 -3.4871 0
M  V30 1394 H 135.05 -5.18722 -3.0174 0
M  V30 1395 H 136.12 -4.51229 -1.7754 0
M  V30 1396 N 137.463 0.71206 -1.40597 0
M  V30 1397 C 138.688 1.50617 -1.42581 0
M  V30 1398 C 139.113 1.88079 -0.0282102 0
M  V30 1399 O 138.471 1.53511 0.964579 0
M  V30 1400 C 138.519 2.7557 -2.3258 0
M  V30 1401 O 137.623 3.72414 -1.77148 0
M  V30 1402 H 136.964 0.453966 -0.484573 0
M  V30 1403 H 139.494 0.876649 -1.84868 0
M  V30 1404 H 139.504 3.2406 -2.47889 0
M  V30 1405 H 138.179 2.47639 -3.34138 0
M  V30 1406 H 136.756 3.31276 -1.71204 0
M  V30 1407 N 138.941 1.26152 0.944643 0
M  V30 1408 C 139.871 1.09902 2.06019 0
M  V30 1409 C 140.852 0.00519538 1.70099 0
M  V30 1410 O 142.037 0.176583 1.93396 0
M  V30 1411 C 139.167 0.727562 3.39594 0
M  V30 1412 C 138.121 1.77274 3.89561 0
M  V30 1413 C 137.447 1.25569 5.19747 0
M  V30 1414 C 138.747 3.17357 4.14827 0
M  V30 1415 H 140.441 2.03217 2.19871 0
M  V30 1416 H 137.987 0.978452 1.05652 0
M  V30 1417 H 139.94 0.600777 4.17095 0
M  V30 1418 H 138.664 -0.241287 3.25707 0
M  V30 1419 H 137.323 1.88814 3.14237 0
M  V30 1420 H 136.971 0.276783 5.02238 0
M  V30 1421 H 136.671 1.95433 5.54148 0
M  V30 1422 H 138.195 1.1415 5.99835 0
M  V30 1423 H 139.609 3.08914 4.82954 0
M  V30 1424 H 138.006 3.84781 4.60504 0
M  V30 1425 H 139.076 3.63673 3.20734 0
M  V30 1426 N 140.419 -1.14872 1.07899 0
M  V30 1427 C 141.382 -2.17986 0.708161 0
M  V30 1428 C 142.382 -1.58775 -0.25442 0
M  V30 1429 O 143.572 -1.74166 -0.034645 0
M  V30 1430 C 140.704 -3.40871 0.0446929 0
M  V30 1431 H 141.897 -2.52306 1.62116 0
M  V30 1432 H 139.45 -1.2943 0.876218 0
M  V30 1433 H 140.185 -3.12124 -0.880281 0
M  V30 1434 H 139.97 -3.8511 0.737091 0
M  V30 1435 H 141.46 -4.17121 -0.19991 0
M  V30 1436 N 141.898 -0.863906 -1.31812 0
M  V30 1437 C 143.175 -0.39275 -1.91616 0
M  V30 1438 C 143.555 1.12461 -1.7865 0
M  V30 1439 O 142.903 1.95045 -1.19037 0
M  V30 1440 C 143.113 -0.867385 -3.38049 0
M  V30 1441 C 144.461 -0.889966 -4.15168 0
M  V30 1442 O 145.485 -0.812635 -3.46806 0
M  V30 1443 O 144.344 -1.00079 -5.37258 0
M  V30 1444 H 141.438 -0.116358 -0.818773 0
M  V30 1445 H 143.984 -0.951418 -1.40521 0
M  V30 1446 H 142.756 -1.91081 -3.41473 0
M  V30 1447 H 142.379 -0.286687 -3.96565 0
M  V30 1448 N 143.376 1.44774 -0.622745 0
M  V30 1449 C 144.306 2.33382 0.0741861 0
M  V30 1450 C 145.287 1.47719 0.843387 0
M  V30 1451 O 146.472 1.76458 0.810934 0
M  V30 1452 C 143.602 3.30663 1.06204 0
M  V30 1453 C 142.556 4.26079 0.405037 0
M  V30 1454 C 141.882 5.13165 1.5022 0
M  V30 1455 C 143.182 5.1781 -0.683414 0
M  V30 1456 H 144.876 2.91905 -0.665713 0
M  V30 1457 H 142.422 1.40363 -0.321587 0
M  V30 1458 H 144.375 3.9153 1.55827 0
M  V30 1459 H 143.099 2.70331 1.83272 0
M  V30 1460 H 141.758 3.66532 -0.0704683 0
M  V30 1461 H 141.406 4.49191 2.26355 0
M  V30 1462 H 141.106 5.77812 1.06803 0
M  V30 1463 H 142.63 5.76902 2.00041 0
M  V30 1464 H 144.044 5.72661 -0.270631 0
M  V30 1465 H 142.441 5.91015 -1.04023 0
M  V30 1466 H 143.511 4.59326 -1.55395 0
M  V30 1467 N 144.854 0.36279 1.53368 0
M  V30 1468 C 145.817 -0.472679 2.24273 0
M  V30 1469 C 146.817 -1.012 1.24961 0
M  V30 1470 O 148.007 -0.898194 1.49259 0
M  V30 1471 C 145.139 -1.66039 2.97731 0
M  V30 1472 H 146.332 0.14773 2.99536 0
M  V30 1473 H 143.885 0.114434 1.55881 0
M  V30 1474 H 144.62 -2.31896 2.26704 0
M  V30 1475 H 144.405 -1.28066 3.70596 0
M  V30 1476 H 145.895 -2.25252 3.51641 0
M  V30 1477 N 146.332 -1.57332 0.0918853 0
M  V30 1478 C 147.578 -1.94524 -0.573425 0
M  V30 1479 C 147.911 -0.973578 -1.68033 0
M  V30 1480 O 147.186 -0.00609226 -1.94499 0
M  V30 1481 C 147.469 -3.41858 -1.13161 0
M  V30 1482 C 147.322 -4.4979 -0.0299747 0
M  V30 1483 C 148.641 -3.90435 -2.03098 0
M  V30 1484 H 145.76 -0.70734 -0.206975 0
M  V30 1485 H 148.402 -1.89309 0.161942 0
M  V30 1486 H 146.552 -3.46433 -1.7583 0
M  V30 1487 H 148.224 -4.57327 0.604112 0
M  V30 1488 H 146.467 -4.291 0.636833 0
M  V30 1489 H 147.138 -5.50069 -0.461287 0
M  V30 1490 H 149.614 -3.87992 -1.50338 0
M  V30 1491 H 148.49 -4.94097 -2.39081 0
M  V30 1492 H 148.751 -3.29541 -2.94712 0
M  V30 1493 N 147.81 0.181792 -1.56548 0
M  V30 1494 C 148.773 1.20894 -1.94724 0
M  V30 1495 C 149.773 1.37738 -0.829747 0
M  V30 1496 O 150.963 1.35323 -1.09697 0
M  V30 1497 C 148.095 2.57593 -2.23291 0
M  V30 1498 H 149.288 0.882275 -2.86629 0
M  V30 1499 H 146.841 0.423838 -1.50444 0
M  V30 1500 H 147.576 2.95291 -1.34067 0
M  V30 1501 H 147.361 2.46735 -3.04736 0
M  V30 1502 H 148.851 3.31637 -2.53785 0
M  V30 1503 N 149.288 1.51039 0.449983 0
M  V30 1504 C 150.535 1.63081 1.20045 0
M  V30 1505 C 150.863 0.341024 1.91487 0
M  V30 1506 O 150.118 -0.674276 1.83717 0
M  V30 1507 C 150.417 2.77556 2.25161 0
M  V30 1508 C 150.083 4.17289 1.70823 0
M  V30 1509 C 148.745 4.55305 1.55725 0
M  V30 1510 C 151.097 5.04536 1.3074 0
M  V30 1511 C 148.425 5.78287 0.989999 0
M  V30 1512 C 150.777 6.28085 0.754482 0
M  V30 1513 C 149.441 6.64885 0.590308 0
M  V30 1514 H 148.711 0.596755 0.439277 0
M  V30 1515 H 151.358 1.85037 0.49333 0
M  V30 1516 H 149.663 2.49771 3.01863 0
M  V30 1517 H 151.36 2.84073 2.83026 0
M  V30 1518 H 147.95 3.8731 1.83546 0
M  V30 1519 H 152.134 4.75782 1.41229 0
M  V30 1520 H 147.39 6.05456 0.850451 0
M  V30 1521 H 151.564 6.95038 0.435324 0
M  V30 1522 H 149.191 7.60055 0.14862 0
M  V30 1523 N 150.766 -0.704594 1.40972 0
M  V30 1524 C 152.013 -1.46458 1.39844 0
M  V30 1525 C 152.341 -1.94499 0.00447594 0
M  V30 1526 O 151.596 -1.69275 -0.982057 0
M  V30 1527 C 151.895 -2.698 2.34399 0
M  V30 1528 C 151.561 -2.40464 3.81429 0
M  V30 1529 C 150.223 -2.32174 4.21484 0
M  V30 1530 C 152.575 -2.16086 4.74296 0
M  V30 1531 C 149.903 -1.97589 5.52427 0
M  V30 1532 C 152.255 -1.83011 6.05549 0
M  V30 1533 C 150.919 -1.7321 6.44635 0
M  V30 1534 H 150.189 -0.535927 0.511725 0
M  V30 1535 H 152.836 -0.806124 1.73706 0
M  V30 1536 H 151.141 -3.40536 1.93759 0
M  V30 1537 H 152.838 -3.27919 2.30804 0
M  V30 1538 H 149.428 -2.47808 3.49699 0
M  V30 1539 H 153.612 -2.2144 4.4416 0
M  V30 1540 H 148.868 -1.88547 5.81601 0
M  V30 1541 H 153.042 -1.63164 6.77016 0
M  V30 1542 H 150.669 -1.46179 7.46013 0
M  V30 1543 N 152.244 -1.26651 -0.937939 0
M  V30 1544 C 153.176 -1.04283 -2.04102 0
M  V30 1545 C 154.189 -0.00221014 -1.628 0
M  V30 1546 O 155.378 -0.242645 -1.76843 0
M  V30 1547 C 152.478 -0.557846 -3.34277 0
M  V30 1548 C 151.651 -1.66843 -4.04329 0
M  V30 1549 C 150.71 -1.18095 -5.12777 0
M  V30 1550 O 149.736 -1.87865 -5.37304 0
M  V30 1551 N 150.938 -0.0311006 -5.80492 0
M  V30 1552 H 153.703 -1.9927 -2.23856 0
M  V30 1553 H 151.264 -1.1808 -1.10764 0
M  V30 1554 H 153.256 -0.215836 -4.04124 0
M  V30 1555 H 151.826 0.298523 -3.11171 0
M  V30 1556 H 151.046 -2.18123 -3.28353 0
M  V30 1557 H 152.334 -2.41408 -4.47883 0
M  V30 1558 H 151.732 0.551486 -5.63005 0
M  V30 1559 H 150.289 0.251809 -6.51313 0
M  V30 1560 N 153.722 1.14298 -1.08507 0
M  V30 1561 C 154.968 1.85633 -0.816581 0
M  V30 1562 C 155.301 1.82784 0.656021 0
M  V30 1563 O 154.576 1.25926 1.48233 0
M  V30 1564 C 154.859 3.34223 -1.34041 0
M  V30 1565 C 154.712 3.45639 -2.87843 0
M  V30 1566 C 156.031 4.29356 -0.9665 0
M  V30 1567 H 153.15 0.67402 -0.298104 0
M  V30 1568 H 155.792 1.34214 -1.34487 0
M  V30 1569 H 153.942 3.78144 -0.89104 0
M  V30 1570 H 155.614 3.10498 -3.41158 0
M  V30 1571 H 153.857 2.86817 -3.25451 0
M  V30 1572 H 154.528 4.50089 -3.19569 0
M  V30 1573 H 157.004 3.93457 -1.35391 0
M  V30 1574 H 155.88 5.3178 -1.3602 0
M  V30 1575 H 156.141 4.41919 0.126362 0
M  V30 1576 N 155.201 0.870884 1.31352 0
M  V30 1577 C 156.131 0.343096 2.30966 0
M  V30 1578 C 157.112 -0.566507 1.60389 0
M  V30 1579 O 158.297 -0.483336 1.88089 0
M  V30 1580 C 155.427 -0.455487 3.443 0
M  V30 1581 C 154.381 0.361103 4.26474 0
M  V30 1582 C 153.707 -0.563221 5.31725 0
M  V30 1583 C 155.007 1.59566 4.97329 0
M  V30 1584 H 156.701 1.17548 2.75359 0
M  V30 1585 H 154.247 0.566686 1.32381 0
M  V30 1586 H 156.2 -0.83525 4.13039 0
M  V30 1587 H 154.924 -1.32139 2.98675 0
M  V30 1588 H 153.583 0.722825 3.59403 0
M  V30 1589 H 153.231 -1.42643 4.82351 0
M  V30 1590 H 152.931 -0.0207409 5.87596 0
M  V30 1591 H 154.455 -0.939808 6.03324 0
M  V30 1592 H 155.869 1.28728 5.58661 0
M  V30 1593 H 154.266 2.07728 5.63 0
M  V30 1594 H 155.336 2.34798 4.24262 0
M  V30 1595 N 156.679 -1.44442 0.630414 0
M  V30 1596 C 158.09 -1.85434 0.217063 0
M  V30 1597 C 158.441 -1.52748 -1.23136 0
M  V30 1598 O 157.566 -0.965205 -1.93682 0
M  V30 1599 C 158.161 -3.36581 0.387168 0
M  V30 1600 C 156.72 -3.76389 0.0283297 0
M  V30 1601 C 155.867 -2.68296 0.700889 0
M  V30 1602 H 158.818 -1.34919 0.83562 0
M  V30 1603 H 158.839 -3.78657 -0.374086 0
M  V30 1604 H 158.351 -3.60339 1.44144 0
M  V30 1605 H 156.452 -3.58246 -1.02423 0
M  V30 1606 H 156.565 -4.77095 0.437892 0
M  V30 1607 H 154.929 -2.54335 0.136267 0
M  V30 1608 H 155.712 -2.94887 1.75774 0
M  V30 1609 N 158.157 -0.370918 -1.53173 0
M  V30 1610 C 159.089 0.507823 -2.23503 0
M  V30 1611 C 160.102 1.04182 -1.251 0
M  V30 1612 O 161.291 0.947286 -1.5129 0
M  V30 1613 C 158.391 1.71447 -2.92334 0
M  V30 1614 C 157.564 1.31105 -4.17289 0
M  V30 1615 C 156.623 2.38035 -4.69282 0
M  V30 1616 O 155.649 2.00204 -5.32829 0
M  V30 1617 N 156.851 3.69697 -4.47554 0
M  V30 1618 H 159.616 -0.0946382 -2.99551 0
M  V30 1619 H 157.177 -0.196358 -1.60705 0
M  V30 1620 H 159.169 2.42469 -3.24023 0
M  V30 1621 H 157.739 2.22368 -2.19707 0
M  V30 1622 H 156.959 0.430462 -3.91843 0
M  V30 1623 H 158.247 1.0179 -4.98514 0
M  V30 1624 H 157.645 4.03205 -3.9679 0
M  V30 1625 H 156.202 4.36807 -4.8378 0
M  V30 1626 N 159.635 1.57281 -0.100228 0
M  V30 1627 C 160.568 2.09976 0.893612 0
M  V30 1628 C 161.546 1.01155 1.27304 0
M  V30 1629 O 162.73 1.28687 1.37739 0
M  V30 1630 C 159.857 2.58098 2.19324 0
M  V30 1631 C 158.903 3.78626 1.96328 0
M  V30 1632 S 159.736 5.21959 1.19662 0
M  V30 1633 C 160.892 5.73435 2.50844 0
M  V30 1634 H 161.125 2.93946 0.44534 0
M  V30 1635 H 158.658 1.53985 0.113167 0
M  V30 1636 H 160.616 2.8648 2.94005 0
M  V30 1637 H 159.277 1.74344 2.61272 0
M  V30 1638 H 158.47 4.10382 2.92579 0
M  V30 1639 H 158.072 3.50763 1.29775 0
M  V30 1640 H 160.364 5.82015 3.46792 0
M  V30 1641 H 161.307 6.7185 2.23659 0
M  V30 1642 H 161.715 5.01395 2.59352 0
M  V30 1643 N 161.113 -0.173488 1.56642 0
M  V30 1644 C 162.353 -0.896984 1.83667 0
M  V30 1645 C 162.717 -1.79523 0.680842 0
M  V30 1646 O 163.918 -2.55616 0.831488 0
M  V30 1647 C 162.189 -1.67351 3.15798 0
M  V30 1648 S 163.748 -2.44607 3.64298 0
M  V30 1649 H 160.566 -0.300464 0.644393 0
M  V30 1650 H 163.168 -0.158775 1.94854 0
M  V30 1651 H 161.872 -1.00462 3.97914 0
M  V30 1652 H 161.403 -2.45313 3.07546 0
M  V30 1653 H 163.418 -3.69261 3.31452 0
M  V30 1654 N 162.591 -1.51276 -0.441967 0
M  V30 1655 C 163.837 -1.6492 -1.1905 0
M  V30 1656 C 164.192 -0.358731 -1.89026 0
M  V30 1657 O 163.485 0.645193 -1.8041 0
M  V30 1658 C 163.679 -2.78746 -2.23686 0
M  V30 1659 C 163.508 -4.18737 -1.63979 0
M  V30 1660 C 162.278 -4.84739 -1.42674 0
M  V30 1661 C 164.476 -5.01988 -1.11858 0
M  V30 1662 N 162.458 -6.08858 -0.785159 0
M  V30 1663 C 163.829 -6.17071 -0.601989 0
M  V30 1664 C 165.884 -4.87551 -1.0099 0
M  V30 1665 C 164.587 -7.19299 0.0126012 0
M  V30 1666 C 166.613 -5.89983 -0.409206 0
M  V30 1667 C 165.975 -7.04333 0.0968651 0
M  V30 1668 H 162.074 -0.657416 -0.423471 0
M  V30 1669 H 164.658 -1.8849 -0.48782 0
M  V30 1670 H 162.829 -2.56848 -2.91348 0
M  V30 1671 H 164.561 -2.81595 -2.90666 0
M  V30 1672 H 161.316 -4.42528 -1.68719 0
M  V30 1673 H 161.74 -6.75282 -0.481942 0
M  V30 1674 H 166.382 -3.99401 -1.38703 0
M  V30 1675 H 164.1 -8.071 0.401879 0
M  V30 1676 H 167.686 -5.8088 -0.327079 0
M  V30 1677 H 166.566 -7.82238 0.554373 0
M  V30 1678 N 164.069 0.697108 -1.41344 0
M  V30 1679 C 165.346 1.45154 -1.31109 0
M  V30 1680 C 165.726 2.11009 0.0620449 0
M  V30 1681 O 165.074 2.01571 1.07618 0
M  V30 1682 C 165.284 2.47223 -2.46337 0
M  V30 1683 C 166.632 3.1252 -2.87431 0
M  V30 1684 O 167.656 2.57547 -2.46065 0
M  V30 1685 O 166.515 4.12083 -3.58957 0
M  V30 1686 H 163.609 0.646365 -0.515889 0
M  V30 1687 H 166.155 0.727716 -1.53305 0
M  V30 1688 H 164.927 1.97204 -3.37974 0
M  V30 1689 H 164.55 3.27116 -2.2601 0
M  V30 1690 N 165.547 1.27147 0.931209 0
M  V30 1691 C 166.796 1.12664 1.67302 0
M  V30 1692 C 167.109 -0.327718 1.92835 0
M  V30 1693 O 168.315 -0.593392 2.64936 0
M  V30 1694 C 166.771 1.9683 3.01307 0
M  V30 1695 C 166.379 3.46901 2.83485 0
M  V30 1696 C 168.123 1.90985 3.79111 0
M  V30 1697 C 166.03 4.23279 4.13024 0
M  V30 1698 H 164.96 0.41803 0.627509 0
M  V30 1699 H 167.611 1.51539 1.03481 0
M  V30 1700 H 165.993 1.50797 3.66164 0
M  V30 1701 H 167.167 4.00773 2.27415 0
M  V30 1702 H 165.482 3.54088 2.19113 0
M  V30 1703 H 168.079 2.45328 4.75098 0
M  V30 1704 H 168.422 0.882718 4.06834 0
M  V30 1705 H 168.955 2.34895 3.21044 0
M  V30 1706 H 165.694 5.26503 3.90481 0
M  V30 1707 H 165.214 3.74186 4.6877 0
M  V30 1708 H 166.893 4.32265 4.81411 0
M  V30 1709 N 167.025 -1.13721 1.09112 0
M  V30 1710 C 168.253 -1.88773 0.846899 0
M  V30 1711 C 168.668 -1.7896 -0.601572 0
M  V30 1712 O 168.025 -1.15394 -1.41388 0
M  V30 1713 C 168.076 -3.3849 1.26913 0
M  V30 1714 O 167.797 -3.48043 2.66079 0
M  V30 1715 C 169.298 -4.30518 1.05682 0
M  V30 1716 H 166.518 -0.59772 0.304914 0
M  V30 1717 H 169.062 -1.43977 1.45227 0
M  V30 1718 H 167.217 -3.80881 0.707723 0
M  V30 1719 H 167.631 -4.4109 2.83795 0
M  V30 1720 H 169.105 -5.3391 1.40156 0
M  V30 1721 H 169.582 -4.392 -0.00563416 0
M  V30 1722 H 170.188 -3.93893 1.60402 0
M  V30 1723 N 168.503 -0.877838 -1.30888 0
M  V30 1724 C 169.733 -0.506678 -2.00291 0
M  V30 1725 C 170.141 0.907449 -1.66018 0
M  V30 1726 O 169.484 1.60719 -0.88967 0
M  V30 1727 C 169.546 -0.59323 -3.54572 0
M  V30 1728 C 169.21 -1.97038 -4.12341 0
M  V30 1729 C 170.207 -2.93889 -4.28865 0
M  V30 1730 C 167.892 -2.27383 -4.47886 0
M  V30 1731 C 169.886 -4.19224 -4.80136 0
M  V30 1732 C 167.573 -3.52965 -4.98857 0
M  V30 1733 C 168.571 -4.48701 -5.14934 0
M  V30 1734 O 168.259 -5.72056 -5.64808 0
M  V30 1735 H 167.991 -0.1951 -0.647234 0
M  V30 1736 H 170.545 -1.18301 -1.6791 0
M  V30 1737 H 168.775 0.140057 -3.86446 0
M  V30 1738 H 170.464 -0.234372 -4.05223 0
M  V30 1739 H 171.23 -2.71756 -4.01714 0
M  V30 1740 H 167.109 -1.53639 -4.34645 0
M  V30 1741 H 170.653 -4.93956 -4.92599 0
M  V30 1742 H 166.55 -3.74939 -5.25443 0
M  V30 1743 H 167.318 -5.74337 -5.83163 0
M  V30 1744 N 169.982 1.44106 -0.638065 0
M  V30 1745 C 171.398 1.56672 -0.304286 0
M  V30 1746 C 171.598 1.6244 1.19228 0
M  V30 1747 O 170.654 1.57121 1.9766 0
M  V30 1748 C 171.967 2.83503 -1.00231 0
M  V30 1749 C 173.515 2.97226 -0.981116 0
M  V30 1750 C 173.99 4.26868 -1.65974 0
M  V30 1751 N 175.481 4.33698 -1.62666 0
M  V30 1752 C 176.216 5.32745 -2.12063 0
M  V30 1753 N 175.712 6.38157 -2.6968 0
M  V30 1754 N 177.505 5.24299 -2.02651 0
M  V30 1755 H 169.656 1.38605 -1.60942 0
M  V30 1756 H 171.919 0.664661 -0.675965 0
M  V30 1757 H 171.625 2.85251 -2.0573 0
M  V30 1758 H 171.499 3.73251 -0.54439 0
M  V30 1759 H 173.886 2.95027 0.0654188 0
M  V30 1760 H 173.967 2.08808 -1.47759 0
M  V30 1761 H 173.611 4.29826 -2.70576 0
M  V30 1762 H 173.541 5.14156 -1.13804 0
M  V30 1763 H 176.032 3.58138 -1.20606 0
M  V30 1764 H 176.345 7.10029 -3.05087 0
M  V30 1765 H 174.69 6.38823 -2.73734 0
M  V30 1766 H 177.881 4.4086 -1.57353 0
M  V30 1767 H 178.054 6.01334 -2.41457 0
M  V30 1768 N 171.46 0.379036 1.52974 0
M  V30 1769 C 172.707 -0.206421 2.01445 0
M  V30 1770 C 173.035 -1.47668 1.26587 0
M  V30 1771 O 172.29 -1.92514 0.351675 0
M  V30 1772 C 172.589 -0.53096 3.53434 0
M  V30 1773 C 172.255 0.646546 4.46241 0
M  V30 1774 C 170.917 0.969604 4.7133 0
M  V30 1775 C 173.269 1.43479 5.01062 0
M  V30 1776 C 170.597 2.08263 5.48492 0
M  V30 1777 C 172.949 2.53834 5.7944 0
M  V30 1778 C 171.613 2.86659 6.02812 0
M  V30 1779 H 170.883 -0.0755349 0.73714 0
M  V30 1780 H 173.53 0.514271 1.84465 0
M  V30 1781 H 171.835 -1.33285 3.68432 0
M  V30 1782 H 173.532 -0.996417 3.88423 0
M  V30 1783 H 170.122 0.384734 4.2687 0
M  V30 1784 H 174.306 1.19844 4.81613 0
M  V30 1785 H 169.562 2.34078 5.64816 0
M  V30 1786 H 173.736 3.15319 6.20924 0
M  V30 1787 H 171.363 3.73026 6.62387 0
M  V30 1788 N 172.938 -1.57226 0.108567 0
M  V30 1789 C 174.354 -1.5766 -0.248058 0
M  V30 1790 C 174.554 -1.12063 -1.67464 0
M  V30 1791 O 173.61 -0.803236 -2.39383 0
M  V30 1792 C 174.923 -3.0069 -0.0242287 0
M  V30 1793 C 176.471 -3.12868 -0.0909372 0
M  V30 1794 C 176.946 -4.57879 0.105067 0
M  V30 1795 N 178.437 -4.63172 0.0506846 0
M  V30 1796 C 179.172 -5.73126 0.177396 0
M  V30 1797 N 178.668 -6.91866 0.359696 0
M  V30 1798 N 180.461 -5.61977 0.117709 0
M  V30 1799 H 172.612 -1.85169 1.04049 0
M  V30 1800 H 174.875 -0.85529 0.40888 0
M  V30 1801 H 174.581 -3.38299 0.961604 0
M  V30 1802 H 174.455 -3.6945 -0.76068 0
M  V30 1803 H 176.842 -2.75124 -1.06729 0
M  V30 1804 H 176.923 -2.46672 0.677225 0
M  V30 1805 H 176.567 -4.96321 1.07834 0
M  V30 1806 H 176.497 -5.22153 -0.682954 0
M  V30 1807 H 178.988 -3.778 -0.0871266 0
M  V30 1808 H 179.301 -7.71503 0.447529 0
M  V30 1809 H 177.646 -6.93874 0.395536 0
M  V30 1810 H 180.837 -4.68094 -0.0236741 0
M  V30 1811 H 181.01 -6.47627 0.219905 0
M  V30 1812 N 174.416 0.165178 -1.56732 0
M  V30 1813 C 175.664 0.879068 -1.8198 0
M  V30 1814 C 175.985 1.82514 -0.686561 0
M  V30 1815 O 175.255 1.93694 0.293146 0
M  V30 1816 H 173.835 0.327608 -0.671329 0
M  V30 1817 H 176.497 0.163526 -1.94213 0
M  V30 1818 H 175.593 1.45228 -2.76252 0
M  V30 1819 N 175.894 1.51508 0.433938 0
M  V30 1820 C 177.305 1.56784 1.01369 0
M  V30 1821 C 177.656 0.393349 1.92217 0
M  V30 1822 O 176.781 -0.489441 2.10792 0
M  V30 1823 C 177.376 2.84144 1.8452 0
M  V30 1824 C 175.935 2.9198 2.37539 0
M  V30 1825 C 175.082 2.51482 1.16843 0
M  V30 1826 H 178.033 1.57236 0.215081 0
M  V30 1827 H 178.054 2.68098 2.70007 0
M  V30 1828 H 177.566 3.69607 1.18373 0
M  V30 1829 H 175.667 2.10955 3.0713 0
M  V30 1830 H 175.78 3.95704 2.70103 0
M  V30 1831 H 174.144 2.04758 1.51481 0
M  V30 1832 H 174.927 3.39293 0.523015 0
M  V30 1833 N 177.372 -0.689602 1.41712 0
M  V30 1834 C 178.649 -1.44457 1.31877 0
M  V30 1835 C 179.029 -2.11039 -0.0508537 0
M  V30 1836 O 178.377 -2.02138 -1.06547 0
M  V30 1837 C 178.587 -2.45913 2.47645 0
M  V30 1838 C 179.935 -3.10991 2.89084 0
M  V30 1839 O 180.959 -2.56238 2.47428 0
M  V30 1840 O 179.818 -4.10174 3.61137 0
M  V30 1841 H 176.912 -0.64362 0.519309 0
M  V30 1842 H 179.458 -0.719576 1.53689 0
M  V30 1843 H 178.23 -1.95409 3.39015 0
M  V30 1844 H 177.853 -3.25913 2.27742 0
M  V30 1845 N 178.85 -1.27639 -0.924453 0
M  V30 1846 C 180.096 -1.15345 -1.67532 0
M  V30 1847 C 180.451 0.297096 -1.90092 0
M  V30 1848 O 179.744 1.21374 -1.48253 0
M  V30 1849 C 179.938 -1.87407 -3.04325 0
M  V30 1850 C 179.767 -3.3932 -2.95114 0
M  V30 1851 C 178.537 -4.08644 -2.97218 0
M  V30 1852 C 180.735 -4.35242 -2.73987 0
M  V30 1853 N 178.717 -5.47102 -2.78482 0
M  V30 1854 C 180.088 -5.6099 -2.63988 0
M  V30 1855 C 182.143 -4.25294 -2.589 0
M  V30 1856 C 180.846 -6.77924 -2.40442 0
M  V30 1857 C 182.872 -5.41952 -2.36731 0
M  V30 1858 C 182.234 -6.66658 -2.27478 0
M  V30 1859 H 178.333 -0.47696 -0.619704 0
M  V30 1860 H 180.917 -1.6115 -1.09265 0
M  V30 1861 H 179.088 -1.44053 -3.60699 0
M  V30 1862 H 180.82 -1.6759 -3.68369 0
M  V30 1863 H 177.575 -3.60136 -3.07569 0
M  V30 1864 H 177.999 -6.19852 -2.72236 0
M  V30 1865 H 182.641 -3.29598 -2.64811 0
M  V30 1866 H 180.359 -7.73699 -2.3327 0
M  V30 1867 H 183.945 -5.36137 -2.25938 0
M  V30 1868 H 182.825 -7.55405 -2.10555 0
M  V30 1869 N 180.328 1.1314 -1.09713 0
M  V30 1870 C 181.258 2.20748 -0.761102 0
M  V30 1871 C 182.239 1.68061 0.262566 0
M  V30 1872 O 183.424 1.93765 0.129977 0
M  V30 1873 C 180.554 3.46812 -0.184054 0
M  V30 1874 C 179.508 4.12606 -1.13757 0
M  V30 1875 C 178.834 5.33031 -0.422083 0
M  V30 1876 C 180.134 4.59603 -2.48118 0
M  V30 1877 H 181.828 2.49113 -1.66082 0
M  V30 1878 H 179.374 1.19734 -0.799987 0
M  V30 1879 H 181.327 4.21353 0.0631215 0
M  V30 1880 H 180.051 3.17851 0.750868 0
M  V30 1881 H 178.71 3.40036 -1.37007 0
M  V30 1882 H 178.358 5.00335 0.517072 0
M  V30 1883 H 178.058 5.77999 -1.05788 0
M  V30 1884 H 179.582 6.10325 -0.183277 0
M  V30 1885 H 180.996 5.25552 -2.29059 0
M  V30 1886 H 179.393 5.15321 -3.07514 0
M  V30 1887 H 180.463 3.73971 -3.08665 0
M  V30 1888 N 181.806 0.884767 1.30421 0
M  V30 1889 C 183.046 0.509806 1.9794 0
M  V30 1890 C 183.41 -0.923736 1.68319 0
M  V30 1891 O 184.611 -1.40481 2.29169 0
M  V30 1892 C 182.882 0.776732 3.48858 0
M  V30 1893 S 184.441 0.503843 4.35898 0
M  V30 1894 H 181.259 0.189699 0.685227 0
M  V30 1895 H 183.861 1.14399 1.58535 0
M  V30 1896 H 182.565 1.81857 3.67908 0
M  V30 1897 H 182.096 0.1301 3.93185 0
M  V30 1898 H 184.111 -0.657625 4.91823 0
M  V30 1899 N 183.284 -1.43765 0.645699 0
M  V30 1900 C 184.7 -1.56509 0.312591 0
M  V30 1901 C 184.9 -1.6307 -1.18365 0
M  V30 1902 O 183.956 -1.58167 -1.96824 0
M  V30 1903 C 185.269 -2.82968 1.01733 0
M  V30 1904 C 186.817 -2.96701 0.996865 0
M  V30 1905 C 187.292 -4.25982 1.68236 0
M  V30 1906 N 188.783 -4.32829 1.64964 0
M  V30 1907 C 189.518 -5.31613 2.14885 0
M  V30 1908 N 189.014 -6.36718 2.73061 0
M  V30 1909 N 190.807 -5.23217 2.05428 0
M  V30 1910 H 182.958 -1.3775 1.61675 0
M  V30 1911 H 185.221 -0.661067 0.679481 0
M  V30 1912 H 184.927 -2.84156 2.0724 0
M  V30 1913 H 184.801 -3.72957 0.564177 0
M  V30 1914 H 187.188 -2.95058 -0.0497719 0
M  V30 1915 H 187.269 -2.08022 1.48865 0
M  V30 1916 H 186.913 -4.28386 2.72852 0
M  V30 1917 H 186.843 -5.13545 1.16529 0
M  V30 1918 H 189.334 -3.57493 1.22503 0
M  V30 1919 H 189.647 -7.08401 3.08848 0
M  V30 1920 H 187.992 -6.37362 2.77118 0
M  V30 1921 H 191.183 -4.40019 1.59689 0
M  V30 1922 H 191.356 -6.00045 2.44643 0
M  V30 1923 N 184.763 -0.387143 -1.52771 0
M  V30 1924 C 186.009 0.196025 -2.0185 0
M  V30 1925 C 186.342 1.46641 -1.27319 0
M  V30 1926 O 185.617 1.90889 -0.373032 0
M  V30 1927 C 185.9 0.466136 -3.5707 0
M  V30 1928 C 185.753 -0.819385 -4.42274 0
M  V30 1929 C 187.072 1.25768 -4.21747 0
M  V30 1930 H 184.191 0.0697708 -0.73369 0
M  V30 1931 H 186.833 -0.516286 -1.82851 0
M  V30 1932 H 184.983 1.07293 -3.7339 0
M  V30 1933 H 186.655 -1.4563 -4.37709 0
M  V30 1934 H 184.898 -1.43517 -4.09372 0
M  V30 1935 H 185.569 -0.585065 -5.48891 0
M  V30 1936 H 188.045 0.744167 -4.09391 0
M  V30 1937 H 186.921 1.41541 -5.30337 0
M  V30 1938 H 187.182 2.27228 -3.79236 0
M  V30 1939 N 186.241 1.57166 -0.116904 0
M  V30 1940 C 187.487 1.95412 0.542405 0
M  V30 1941 C 187.82 1.00019 1.66463 0
M  V30 1942 O 187.095 0.0370346 1.94465 0
M  V30 1943 C 187.378 3.43615 1.07708 0
M  V30 1944 C 187.231 4.49781 -0.0415868 0
M  V30 1945 C 188.55 3.93616 1.96861 0
M  V30 1946 H 185.669 0.710543 0.195696 0
M  V30 1947 H 188.311 1.89027 -0.192038 0
M  V30 1948 H 186.461 3.49187 1.70296 0
M  V30 1949 H 188.133 4.56308 -0.676793 0
M  V30 1950 H 186.376 4.28033 -0.705019 0
M  V30 1951 H 187.047 5.50733 0.373717 0
M  V30 1952 H 189.523 3.90335 1.44146 0
M  V30 1953 H 188.399 4.97838 2.3119 0
M  V30 1954 H 188.66 3.34188 2.89432 0
M  V30 1955 N 187.719 -0.156864 1.56817 0
M  V30 1956 C 188.666 -1.19394 1.97519 0
M  V30 1957 C 189.636 -1.4322 0.841265 0
M  V30 1958 O 190.821 -1.55719 1.10255 0
M  V30 1959 C 187.961 -2.52483 2.35258 0
M  V30 1960 C 187.074 -2.35914 3.61896 0
M  V30 1961 C 186.209 -3.61969 3.88782 0
M  V30 1962 C 185.248 -3.40395 5.08722 0
M  V30 1963 N 184.385 -4.58556 5.31668 0
M  V30 1964 H 189.225 -0.839845 2.85921 0
M  V30 1965 H 186.762 -0.403264 1.41464 0
M  V30 1966 H 188.72 -3.30071 2.55165 0
M  V30 1967 H 187.35 -2.85859 1.49949 0
M  V30 1968 H 186.402 -1.49429 3.49821 0
M  V30 1969 H 187.714 -2.15926 4.49641 0
M  V30 1970 H 186.868 -4.47989 4.09135 0
M  V30 1971 H 185.607 -3.84951 2.9944 0
M  V30 1972 H 184.612 -2.52763 4.88253 0
M  V30 1973 H 185.837 -3.18822 5.99608 0
M  V30 1974 H 183.783 -4.81729 4.45279 0
M  V30 1975 H 183.7 -4.41535 6.13664 0
M  V30 1976 H 184.968 -5.45817 5.5651 0
M  V30 1977 N 189.197 -1.51736 -0.425897 0
M  V30 1978 C 190.147 -1.70258 -1.51645 0
M  V30 1979 C 191.131 -0.556488 -1.5097 0
M  V30 1980 O 192.323 -0.812879 -1.5723 0
M  V30 1981 C 189.452 -1.84143 -2.89735 0
M  V30 1982 C 188.538 -3.04572 -2.95122 0
M  V30 1983 N 188.929 -4.2756 -2.70233 0
M  V30 1984 C 187.227 -3.04061 -3.26286 0
M  V30 1985 C 187.928 -5.08908 -2.81757 0
M  V30 1986 N 186.904 -4.43797 -3.13919 0
M  V30 1987 H 190.706 -2.63004 -1.31172 0
M  V30 1988 H 188.22 -1.4954 -0.633375 0
M  V30 1989 H 190.217 -1.95525 -3.68206 0
M  V30 1990 H 188.877 -0.925857 -3.1122 0
M  V30 1991 H 189.888 -4.56315 -2.44943 0
M  V30 1992 H 186.565 -2.22179 -3.53473 0
M  V30 1993 H 187.955 -6.16843 -2.66372 0
M  V30 1994 N 190.675 0.682077 -1.42076 0
M  V30 1995 C 191.605 1.80796 -1.47767 0
M  V30 1996 C 192.586 1.6677 -0.334954 0
M  V30 1997 O 193.771 1.863 -0.548264 0
M  V30 1998 C 190.901 3.19038 -1.37229 0
M  V30 1999 C 189.855 3.47789 -2.49453 0
M  V30 2000 C 189.181 4.8553 -2.23975 0
M  V30 2001 C 190.481 3.45411 -3.91776 0
M  V30 2002 H 192.175 1.7629 -2.41997 0
M  V30 2003 H 189.721 0.846721 -1.16476 0
M  V30 2004 H 191.674 3.97528 -1.39821 0
M  V30 2005 H 190.398 3.24204 -0.394907 0
M  V30 2006 H 189.057 2.71657 -2.46166 0
M  V30 2007 H 188.705 4.87337 -1.24547 0
M  V30 2008 H 188.405 5.0573 -2.99184 0
M  V30 2009 H 189.929 5.66312 -2.28304 0
M  V30 2010 H 191.343 4.13882 -3.96705 0
M  V30 2011 H 189.74 3.77145 -4.66778 0
M  V30 2012 H 190.81 2.44122 -4.18966 0
M  V30 2013 N 192.153 1.28127 0.917671 0
M  V30 2014 C 193.085 1.07517 2.02417 0
M  V30 2015 C 194.098 0.0281099 1.62776 0
M  V30 2016 O 195.287 0.270748 1.76435 0
M  V30 2017 C 192.387 0.610957 3.33347 0
M  V30 2018 C 191.56 1.73255 4.01624 0
M  V30 2019 C 190.619 1.26238 5.10833 0
M  V30 2020 O 189.645 1.96389 5.34247 0
M  V30 2021 N 190.847 0.123448 5.80369 0
M  V30 2022 H 193.612 2.02806 2.20658 0
M  V30 2023 H 191.173 1.19827 1.08871 0
M  V30 2024 H 193.165 0.280101 4.0373 0
M  V30 2025 H 191.735 -0.24898 3.11607 0
M  V30 2026 H 190.955 2.23319 3.24842 0
M  V30 2027 H 192.243 2.48503 4.43986 0
M  V30 2028 H 191.641 -0.461847 5.63812 0
M  V30 2029 H 190.198 -0.148158 6.51632 0
M  V30 2030 N 193.631 -1.12557 1.10312 0
M  V30 2031 C 194.877 -1.84311 0.846011 0
M  V30 2032 C 195.21 -1.83805 -0.626859 0
M  V30 2033 O 194.485 -1.28268 -1.46211 0
M  V30 2034 C 194.768 -3.32048 1.39341 0
M  V30 2035 C 194.621 -3.41016 2.93305 0
M  V30 2036 C 195.94 -4.27764 1.03468 0
M  V30 2037 H 193.059 -0.669192 0.30879 0
M  V30 2038 H 195.701 -1.32057 1.36605 0
M  V30 2039 H 193.851 -3.76678 0.951087 0
M  V30 2040 H 195.523 -3.05031 3.46055 0
M  V30 2041 H 193.766 -2.81603 3.29973 0
M  V30 2042 H 194.437 -4.44948 3.26689 0
M  V30 2043 H 196.913 -3.91253 1.41633 0
M  V30 2044 H 195.789 -5.29549 1.44463 0
M  V30 2045 H 196.05 -4.42064 -0.0560404 0
M  V30 2046 N 195.109 -0.891671 -1.2995 0
M  V30 2047 C 196.356 -0.513501 -1.95881 0
M  V30 2048 C 196.684 0.938655 -1.70351 0
M  V30 2049 O 195.939 1.67936 -1.00478 0
M  V30 2050 C 196.238 -0.742868 -3.49594 0
M  V30 2051 C 195.904 -2.17114 -3.95186 0
M  V30 2052 C 194.566 -2.56169 -4.07346 0
M  V30 2053 C 196.918 -3.10162 -4.18866 0
M  V30 2054 C 194.246 -3.87469 -4.4055 0
M  V30 2055 C 196.598 -4.41001 -4.53542 0
M  V30 2056 C 195.262 -4.79941 -4.63911 0
M  V30 2057 H 194.532 -0.187903 -0.71678 0
M  V30 2058 H 197.179 -1.1288 -1.54694 0
M  V30 2059 H 195.484 -0.044586 -3.91775 0
M  V30 2060 H 197.181 -0.429767 -3.9869 0
M  V30 2061 H 193.771 -1.85801 -3.86233 0
M  V30 2062 H 197.955 -2.81206 -4.08946 0
M  V30 2063 H 193.211 -4.17371 -4.46779 0
M  V30 2064 H 197.385 -5.13133 -4.70815 0
M  V30 2065 H 195.012 -5.81719 -4.89395 0
M  V30 2066 N 196.587 1.43421 -0.653314 0
M  V30 2067 C 197.835 2.01414 -0.166415 0
M  V30 2068 C 198.156 1.51803 1.22397 0
M  V30 2069 O 197.426 0.730693 1.81763 0
M  V30 2070 H 196.006 0.744703 -0.0585319 0
M  V30 2071 H 198.668 1.75629 -0.845003 0
M  V30 2072 H 197.764 3.11734 -0.151111 0
M  V30 2073 N 198.065 0.39524 1.52563 0
M  V30 2074 C 198.998 -0.4813 2.23067 0
M  V30 2075 C 199.976 -1.05927 1.23362 0
M  V30 2076 O 201.16 -1.10979 1.52368 0
M  V30 2077 C 198.287 -1.66676 2.9485 0
M  V30 2078 C 197.333 -1.21348 4.08873 0
M  V30 2079 S 198.166 -0.190102 5.35162 0
M  V30 2080 C 199.322 -1.38121 6.1047 0
M  V30 2081 H 199.555 0.117381 2.97068 0
M  V30 2082 H 197.088 0.179458 1.53354 0
M  V30 2083 H 199.046 -2.3466 3.36816 0
M  V30 2084 H 197.707 -2.23676 2.20518 0
M  V30 2085 H 196.9 -2.09877 4.58222 0
M  V30 2086 H 196.502 -0.612486 3.68951 0
M  V30 2087 H 198.794 -2.30726 6.37002 0
M  V30 2088 H 199.737 -0.928521 7.01986 0
M  V30 2089 H 200.145 -1.60071 5.41329 0
M  V30 2090 N 199.544 -1.57102 0.125237 0
M  V30 2091 C 200.791 -1.95407 -0.531248 0
M  V30 2092 C 201.119 -1.0089 -1.66287 0
M  V30 2093 O 200.374 -0.0339431 -1.95671 0
M  V30 2094 C 200.673 -3.40096 -1.09862 0
M  V30 2095 C 200.339 -4.50815 -0.0876989 0
M  V30 2096 C 199.001 -4.80824 0.19026 0
M  V30 2097 C 201.353 -5.17724 0.600902 0
M  V30 2098 C 198.681 -5.75058 1.163 0
M  V30 2099 C 201.033 -6.13005 1.56231 0
M  V30 2100 C 199.697 -6.41403 1.8482 0
M  V30 2101 H 198.967 -0.715046 -0.194397 0
M  V30 2102 H 201.614 -1.90373 0.207463 0
M  V30 2103 H 199.919 -3.41855 -1.91422 0
M  V30 2104 H 201.616 -3.6705 -1.61478 0
M  V30 2105 H 198.206 -4.27444 -0.314528 0
M  V30 2106 H 202.39 -4.94691 0.399333 0
M  V30 2107 H 197.646 -5.95362 1.39117 0
M  V30 2108 H 201.82 -6.63934 2.10153 0
M  V30 2109 H 199.447 -7.14229 2.60349 0
M  V30 2110 N 201.022 0.148545 -1.56898 0
M  V30 2111 C 201.985 1.16736 -1.97244 0
M  V30 2112 C 202.985 1.35947 -0.858777 0
M  V30 2113 O 204.175 1.32966 -1.12542 0
M  V30 2114 C 201.307 2.52798 -2.28705 0
M  V30 2115 H 202.5 0.821279 -2.88435 0
M  V30 2116 H 200.053 0.391831 -1.51309 0
M  V30 2117 H 200.788 2.92381 -1.403 0
M  V30 2118 H 200.573 2.40216 -3.09901 0
M  V30 2119 H 202.063 3.26179 -2.60762 0
M  V30 2120 N 202.5 1.5196 0.417844 0
M  V30 2121 C 203.725 1.69717 1.1921 0
M  V30 2122 C 204.15 0.402148 1.83751 0
M  V30 2123 O 203.508 -0.639593 1.69643 0
M  V30 2124 C 203.556 2.82794 2.2374 0
M  V30 2125 O 202.66 2.47756 3.29683 0
M  V30 2126 H 202.001 0.565263 0.348387 0
M  V30 2127 H 204.531 1.98621 0.490985 0
M  V30 2128 H 204.541 3.07452 2.68212 0
M  V30 2129 H 203.216 3.76756 1.76146 0
M  V30 2130 H 201.793 2.33739 2.90552 0
M  V30 2131 N 203.978 -0.674533 1.42435 0
M  V30 2132 C 204.941 -1.76986 1.45632 0
M  V30 2133 C 205.941 -1.5708 0.343871 0
M  V30 2134 O 207.131 -1.63367 0.604709 0
M  V30 2135 C 204.263 -3.15623 1.28822 0
M  V30 2136 H 205.456 -1.75539 2.43158 0
M  V30 2137 H 203.009 -0.884189 1.28887 0
M  V30 2138 H 203.744 -3.22696 0.322193 0
M  V30 2139 H 203.529 -3.31475 2.09444 0
M  V30 2140 H 205.019 -3.95537 1.33942 0
M  V30 2141 N 205.456 -1.28612 -0.910864 0
M  V30 2142 C 206.686 -1.1862 -1.69153 0
M  V30 2143 C 207.094 0.257324 -1.87442 0
M  V30 2144 O 206.437 1.18543 -1.40332 0
M  V30 2145 C 206.499 -1.81606 -3.10257 0
M  V30 2146 C 206.163 -3.30864 -3.15243 0
M  V30 2147 C 207.16 -4.27256 -2.96223 0
M  V30 2148 C 204.845 -3.71871 -3.37664 0
M  V30 2149 C 206.839 -5.62631 -2.99541 0
M  V30 2150 C 204.526 -5.07371 -3.40614 0
M  V30 2151 C 205.524 -6.02561 -3.21573 0
M  V30 2152 O 205.212 -7.35589 -3.2429 0
M  V30 2153 H 204.944 -0.412633 -0.535453 0
M  V30 2154 H 207.498 -1.70306 -1.14827 0
M  V30 2155 H 205.728 -1.24418 -3.66138 0
M  V30 2156 H 207.417 -1.66092 -3.70362 0
M  V30 2157 H 208.183 -3.9691 -2.78725 0
M  V30 2158 H 204.062 -2.98241 -3.5153 0
M  V30 2159 H 207.606 -6.36907 -2.84597 0
M  V30 2160 H 203.503 -5.37366 -3.57642 0
M  V30 2161 H 204.271 -7.44252 -3.40633 0
M  V30 2162 N 206.934 1.1197 -1.10907 0
M  V30 2163 C 207.867 2.16998 -0.706192 0
M  V30 2164 C 208.845 1.59903 0.294897 0
M  V30 2165 O 210.029 1.87513 0.192636 0
M  V30 2166 C 207.156 3.38673 -0.0427664 0
M  V30 2167 C 206.202 4.14414 -1.00811 0
M  V30 2168 S 207.035 4.72079 -2.52789 0
M  V30 2169 C 208.191 5.97083 -1.87731 0
M  V30 2170 H 208.424 2.50837 -1.59587 0
M  V30 2171 H 205.957 1.23508 -0.926555 0
M  V30 2172 H 207.915 4.09142 0.333668 0
M  V30 2173 H 206.576 3.03105 0.823788 0
M  V30 2174 H 205.769 5.016 -0.491259 0
M  V30 2175 H 205.371 3.49678 -1.3267 0
M  V30 2176 H 207.663 6.66599 -1.21044 0
M  V30 2177 H 208.606 6.53403 -2.72892 0
M  V30 2178 H 209.014 5.4837 -1.33979 0
M  V30 2179 N 208.412 0.89855 1.29475 0
M  V30 2180 C 209.342 0.39201 2.30186 0
M  V30 2181 C 210.323 -0.532359 1.61555 0
M  V30 2182 O 211.508 -0.443331 1.89072 0
M  V30 2183 C 208.638 -0.382353 3.45189 0
M  V30 2184 C 207.592 0.451483 4.25612 0
M  V30 2185 C 206.918 -0.450307 5.328 0
M  V30 2186 C 208.218 1.70079 4.93832 0
M  V30 2187 H 209.912 1.23362 2.72804 0
M  V30 2188 H 207.458 0.594638 1.31149 0
M  V30 2189 H 209.411 -0.747451 4.14718 0
M  V30 2190 H 208.135 -1.25774 3.01411 0
M  V30 2191 H 206.794 0.798897 3.57789 0
M  V30 2192 H 206.442 -1.32379 4.85268 0
M  V30 2193 H 206.142 0.103902 5.87508 0
M  V30 2194 H 207.666 -0.811623 6.05182 0
M  V30 2195 H 209.08 1.40549 5.55805 0
M  V30 2196 H 207.477 2.19623 5.58467 0
M  V30 2197 H 208.547 2.43744 4.19186 0
M  V30 2198 N 209.89 -1.43072 0.660911 0
M  V30 2199 C 211.136 -2.0202 0.177708 0
M  V30 2200 C 211.469 -1.52066 -1.20787 0
M  V30 2201 O 210.744 -0.716987 -1.80802 0
M  V30 2202 C 211.027 -3.59561 0.197019 0
M  V30 2203 C 210.88 -4.19727 1.61706 0
M  V30 2204 C 212.199 -4.37664 -0.462396 0
M  V30 2205 H 209.318 -0.734034 0.0660494 0
M  V30 2206 H 211.96 -1.70272 0.843058 0
M  V30 2207 H 210.11 -3.86739 -0.369527 0
M  V30 2208 H 211.782 -4.03553 2.23479 0
M  V30 2209 H 210.025 -3.76084 2.16201 0
M  V30 2210 H 210.696 -5.28834 1.58237 0
M  V30 2211 H 213.172 -4.16095 0.0197215 0
M  V30 2212 H 212.048 -5.47305 -0.418188 0
M  V30 2213 H 212.309 -4.14493 -1.53778 0
M  V30 2214 N 211.368 -0.403325 -1.52352 0
M  V30 2215 C 212.614 0.174605 -2.02047 0
M  V30 2216 C 212.947 1.45282 -1.28867 0
M  V30 2217 O 212.222 1.90483 -0.393257 0
M  V30 2218 C 212.505 0.428238 -3.57545 0
M  V30 2219 C 212.358 -0.866248 -4.4138 0
M  V30 2220 C 213.677 1.21287 -4.23057 0
M  V30 2221 H 210.796 0.0619851 -0.734389 0
M  V30 2222 H 213.438 -0.53565 -1.82293 0
M  V30 2223 H 211.588 1.03327 -3.74507 0
M  V30 2224 H 213.26 -1.50265 -4.3614 0
M  V30 2225 H 211.503 -1.47851 -4.07827 0
M  V30 2226 H 212.174 -0.643249 -5.48239 0
M  V30 2227 H 214.65 0.700703 -4.10158 0
M  V30 2228 H 213.526 1.35909 -5.31808 0
M  V30 2229 H 213.787 2.23193 -3.81625 0
M  V30 2230 N 212.846 1.57033 -0.133567 0
M  V30 2231 C 213.779 2.11824 0.848872 0
M  V30 2232 C 214.757 1.03833 1.2513 0
M  V30 2233 O 215.941 1.31579 1.34978 0
M  V30 2234 C 213.068 2.62692 2.138 0
M  V30 2235 C 212.114 3.82705 1.88253 0
M  V30 2236 S 212.947 5.2438 1.08563 0
M  V30 2237 C 214.103 5.78627 2.38624 0
M  V30 2238 H 214.336 2.94824 0.38289 0
M  V30 2239 H 211.869 1.5419 0.0804796 0
M  V30 2240 H 213.827 2.92652 2.87863 0
M  V30 2241 H 212.488 1.79847 2.57515 0
M  V30 2242 H 211.681 4.16496 2.83809 0
M  V30 2243 H 211.283 3.53437 1.22305 0
M  V30 2244 H 213.575 5.8924 3.34369 0
M  V30 2245 H 214.518 6.76443 2.09358 0
M  V30 2246 H 214.926 5.06783 2.48658 0
M  V30 2247 N 214.325 -0.140222 1.56975 0
M  V30 2248 C 215.553 -0.866437 1.87884 0
M  V30 2249 C 215.968 -1.74428 0.722517 0
M  V30 2250 O 215.325 -1.79891 -0.30749 0
M  V30 2251 C 215.376 -1.71753 3.18093 0
M  V30 2252 O 215.097 -0.875056 4.29272 0
M  V30 2253 C 216.598 -2.55074 3.62563 0
M  V30 2254 H 213.818 -0.25019 0.622612 0
M  V30 2255 H 216.362 -0.130977 2.0408 0
M  V30 2256 H 214.517 -2.40598 3.03631 0
M  V30 2257 H 214.931 -1.46002 5.03769 0
M  V30 2258 H 216.405 -3.10356 4.5649 0
M  V30 2259 H 216.882 -3.31434 2.88181 0
M  V30 2260 H 217.488 -1.91509 3.79743 0
M  V30 2261 N 215.803 -1.52179 -0.40978 0
M  V30 2262 C 216.766 -1.74853 -1.48186 0
M  V30 2263 C 217.766 -0.618417 -1.48433 0
M  V30 2264 O 218.956 -0.886286 -1.49969 0
M  V30 2265 C 216.088 -1.8303 -2.87598 0
M  V30 2266 H 217.281 -2.70559 -1.29374 0
M  V30 2267 H 214.834 -1.42586 -0.640233 0
M  V30 2268 H 215.569 -0.89236 -3.11781 0
M  V30 2269 H 215.354 -2.65187 -2.88822 0
M  V30 2270 H 216.844 -2.02316 -3.65319 0
M  V30 2271 N 217.281 0.66697 -1.42791 0
M  V30 2272 C 218.558 1.4234 -1.34159 0
M  V30 2273 C 218.938 2.11093 0.0172729 0
M  V30 2274 O 218.286 2.03808 1.03318 0
M  V30 2275 C 218.496 2.41942 -2.51526 0
M  V30 2276 C 219.844 3.06353 -2.93995 0
M  V30 2277 O 220.868 2.52269 -2.51473 0
M  V30 2278 O 219.727 4.04376 -3.67617 0
M  V30 2279 H 216.821 0.635277 -0.529483 0
M  V30 2280 H 219.367 0.695034 -1.54814 0
M  V30 2281 H 218.139 1.89991 -3.42081 0
M  V30 2282 H 217.762 3.22249 -2.32898 0
M  V30 2283 N 218.759 1.29093 0.90403 0
M  V30 2284 C 220.175 1.07011 1.1841 0
M  V30 2285 C 220.375 -0.181358 2.00682 0
M  V30 2286 O 219.431 -0.880331 2.36657 0
M  V30 2287 C 220.744 2.32311 1.90924 0
M  V30 2288 C 222.292 2.37587 2.03768 0
M  V30 2289 C 222.767 3.62679 2.79693 0
M  V30 2290 N 224.258 3.63376 2.87249 0
M  V30 2291 C 224.993 4.56848 3.46522 0
M  V30 2292 N 224.489 5.60648 4.06996 0
M  V30 2293 N 226.282 4.44426 3.44154 0
M  V30 2294 H 218.433 2.09412 0.354993 0
M  V30 2295 H 220.696 0.922181 0.219742 0
M  V30 2296 H 220.402 3.23536 1.37905 0
M  V30 2297 H 220.276 2.39483 2.91424 0
M  V30 2298 H 222.663 1.46853 2.55965 0
M  V30 2299 H 222.744 2.34403 1.02415 0
M  V30 2300 H 222.388 4.53762 2.28173 0
M  V30 2301 H 222.318 3.63119 3.81381 0
M  V30 2302 H 224.809 2.88321 2.44293 0
M  V30 2303 H 225.122 6.28101 4.50232 0
M  V30 2304 H 223.467 5.64463 4.05471 0
M  V30 2305 H 226.658 3.62529 2.96126 0
M  V30 2306 H 226.831 5.17457 3.90054 0
M  V30 2307 N 220.237 -1.11381 1.11499 0
M  V30 2308 C 221.467 -1.86663 0.885464 0
M  V30 2309 C 221.875 -1.80464 -0.568281 0
M  V30 2310 O 221.218 -1.18445 -1.40415 0
M  V30 2311 C 221.28 -3.36337 1.26956 0
M  V30 2312 C 220.944 -3.66304 2.73259 0
M  V30 2313 C 221.941 -3.63733 3.71476 0
M  V30 2314 C 219.626 -3.9529 3.09921 0
M  V30 2315 C 221.62 -3.89725 5.04374 0
M  V30 2316 C 219.307 -4.20941 4.43004 0
M  V30 2317 C 220.305 -4.18147 5.40039 0
M  V30 2318 O 219.993 -4.43153 6.70724 0
M  V30 2319 H 219.725 -0.597114 0.316908 0
M  V30 2320 H 222.279 -1.41782 1.48617 0
M  V30 2321 H 220.509 -3.81826 0.611999 0
M  V30 2322 H 222.198 -3.92986 1.01573 0
M  V30 2323 H 222.964 -3.41389 3.44498 0
M  V30 2324 H 218.843 -3.966 2.35009 0
M  V30 2325 H 222.387 -3.8746 5.80104 0
M  V30 2326 H 218.284 -4.42761 4.69716 0
M  V30 2327 H 219.052 -4.60717 6.76522 0
M  V30 2328 N 221.715 -0.905404 -1.28997 0
M  V30 2329 C 222.964 -0.530191 -1.94607 0
M  V30 2330 C 223.277 0.929185 -1.72121 0
M  V30 2331 O 224.483 1.41218 -2.31883 0
M  V30 2332 C 222.939 -0.897333 -3.48534 0
M  V30 2333 C 222.547 -2.37587 -3.79811 0
M  V30 2334 C 224.291 -0.592304 -4.20347 0
M  V30 2335 C 222.198 -2.68357 -5.27009 0
M  V30 2336 H 221.128 -0.194558 -0.728466 0
M  V30 2337 H 223.779 -1.10318 -1.46636 0
M  V30 2338 H 222.161 -0.253214 -3.9519 0
M  V30 2339 H 223.335 -3.06602 -3.43994 0
M  V30 2340 H 221.65 -2.6505 -3.2115 0
M  V30 2341 H 224.247 -0.798975 -5.28697 0
M  V30 2342 H 224.59 0.469474 -4.13644 0
M  V30 2343 H 225.123 -1.19452 -3.79442 0
M  V30 2344 H 221.862 -3.73355 -5.38782 0
M  V30 2345 H 221.382 -2.03971 -5.64053 0
M  V30 2346 H 223.061 -2.54922 -5.94663 0
M  V30 2347 N 223.193 1.4272 -0.668489 0
M  V30 2348 C 224.156 2.292 0.00448567 0
M  V30 2349 C 225.156 1.43001 0.735339 0
M  V30 2350 O 226.346 1.64461 0.57429 0
M  V30 2351 C 223.478 3.25375 1.01705 0
M  V30 2352 H 224.671 2.90199 -0.756608 0
M  V30 2353 H 222.224 1.50254 -0.430506 0
M  V30 2354 H 222.959 2.69301 1.80686 0
M  V30 2355 H 222.744 3.88944 0.496463 0
M  V30 2356 H 224.234 3.90245 1.48655 0
M  V30 2357 N 224.671 0.411399 1.52136 0
M  V30 2358 C 225.917 -0.163888 2.02137 0
M  V30 2359 C 226.25 -1.44597 1.29636 0
M  V30 2360 O 225.525 -1.90272 0.403353 0
M  V30 2361 C 225.808 -0.40927 3.57767 0
M  V30 2362 C 225.661 0.889643 4.40914 0
M  V30 2363 C 226.98 -1.19042 4.23694 0
M  V30 2364 H 224.099 -0.0580896 0.734707 0
M  V30 2365 H 226.741 0.54531 1.82007 0
M  V30 2366 H 224.891 -1.0134 3.7505 0
M  V30 2367 H 226.563 1.52575 4.35337 0
M  V30 2368 H 224.806 1.50011 4.07037 0
M  V30 2369 H 225.477 0.672314 5.4789 0
M  V30 2370 H 227.953 -0.678942 4.10524 0
M  V30 2371 H 226.829 -1.33086 5.32522 0
M  V30 2372 H 227.09 -2.21166 3.82803 0
M  V30 2373 N 226.149 -1.5696 0.141893 0
M  V30 2374 C 227.389 -1.9785 -0.513304 0
M  V30 2375 C 227.753 -1.02467 -1.62371 0
M  V30 2376 O 228.954 -1.32382 -2.33941 0
M  V30 2377 C 227.225 -3.42797 -1.01118 0
M  V30 2378 S 228.784 -4.05709 -1.67169 0
M  V30 2379 H 225.602 -0.691318 -0.166135 0
M  V30 2380 H 228.204 -1.94114 0.232398 0
M  V30 2381 H 226.908 -4.0995 -0.192179 0
M  V30 2382 H 226.439 -3.50235 -1.79162 0
M  V30 2383 H 228.454 -3.98342 -2.95868 0
M  V30 2384 N 227.627 0.131896 -1.57047 0
M  V30 2385 C 228.577 1.1679 -1.95816 0
M  V30 2386 C 229.561 1.37756 -0.831393 0
M  V30 2387 O 230.753 1.39065 -1.09499 0
M  V30 2388 C 227.882 2.49778 -2.35512 0
M  V30 2389 C 226.968 2.32342 -3.54793 0
M  V30 2390 N 227.359 1.8469 -4.70875 0
M  V30 2391 C 225.657 2.63043 -3.60173 0
M  V30 2392 C 226.358 1.80656 -5.52936 0
M  V30 2393 N 225.334 2.24528 -4.95064 0
M  V30 2394 H 229.136 0.791818 -2.83033 0
M  V30 2395 H 226.65 0.339791 -1.58805 0
M  V30 2396 H 228.647 3.24692 -2.61498 0
M  V30 2397 H 227.307 2.88156 -1.49654 0
M  V30 2398 H 228.318 1.54429 -4.9434 0
M  V30 2399 H 224.995 3.05193 -2.84892 0
M  V30 2400 H 226.385 1.45178 -6.56028 0
M  V30 2401 N 229.106 1.52395 0.401703 0
M  V30 2402 C 230.517 1.58899 0.980202 0
M  V30 2403 C 230.868 0.434032 1.91339 0
M  V30 2404 O 229.993 -0.444619 2.11783 0
M  V30 2405 C 230.588 2.87994 1.78451 0
M  V30 2406 C 229.147 2.96953 2.31292 0
M  V30 2407 C 228.294 2.53903 1.11483 0
M  V30 2408 H 231.245 1.57657 0.18168 0
M  V30 2409 H 231.266 2.73765 2.64259 0
M  V30 2410 H 230.778 3.72035 1.10506 0
M  V30 2411 H 228.879 2.17422 3.02586 0
M  V30 2412 H 228.992 4.01344 2.61649 0
M  V30 2413 H 227.356 2.07925 1.47104 0
M  V30 2414 H 228.139 3.40326 0.450928 0
M  V30 2415 N 230.584 -0.659388 1.43143 0
M  V30 2416 C 231.514 -1.78422 1.50625 0
M  V30 2417 C 232.495 -1.66216 0.361443 0
M  V30 2418 O 233.68 -1.85404 0.577834 0
M  V30 2419 C 230.81 -3.16815 1.42287 0
M  V30 2420 C 229.764 -3.43777 2.54954 0
M  V30 2421 C 229.09 -4.81905 2.31671 0
M  V30 2422 C 230.39 -3.39134 3.97222 0
M  V30 2423 H 232.084 -1.72417 2.44771 0
M  V30 2424 H 229.63 -0.828084 1.17808 0
M  V30 2425 H 231.583 -3.95253 1.46127 0
M  V30 2426 H 230.307 -3.23534 0.446435 0
M  V30 2427 H 228.966 -2.67707 2.50457 0
M  V30 2428 H 228.614 -4.85294 1.32284 0
M  V30 2429 H 228.314 -5.00906 3.07192 0
M  V30 2430 H 229.838 -5.62609 2.37284 0
M  V30 2431 H 231.252 -4.07518 4.03239 0
M  V30 2432 H 229.649 -3.69671 4.72719 0
M  V30 2433 H 230.719 -2.37426 4.22797 0
M  V30 2434 N 232.062 -1.29571 -0.897171 0
M  V30 2435 C 233.009 -1.14916 -2.00158 0
M  V30 2436 C 233.979 -0.0418149 -1.66047 0
M  V30 2437 O 235.164 -0.209793 -1.89643 0
M  V30 2438 C 232.304 -0.834307 -3.34863 0
M  V30 2439 C 231.417 -2.02234 -3.8174 0
M  V30 2440 C 230.552 -1.64664 -5.05034 0
M  V30 2441 C 229.591 -2.80033 -5.44286 0
M  V30 2442 N 228.728 -2.42843 -6.58765 0
M  V30 2443 H 233.568 -2.09403 -2.12025 0
M  V30 2444 H 231.105 -1.042 -1.0383 0
M  V30 2445 H 233.063 -0.632436 -4.12379 0
M  V30 2446 H 231.693 0.0736656 -3.22716 0
M  V30 2447 H 230.745 -2.33583 -3.00238 0
M  V30 2448 H 232.057 -2.88673 -4.06779 0
M  V30 2449 H 231.211 -1.4078 -5.9014 0
M  V30 2450 H 229.95 -0.753766 -4.8184 0
M  V30 2451 H 228.955 -3.04596 -4.57713 0
M  V30 2452 H 230.18 -3.69989 -5.6946 0
M  V30 2453 H 228.126 -1.56046 -6.3717 0
M  V30 2454 H 228.043 -3.22815 -6.83613 0
M  V30 2455 H 229.311 -2.22285 -7.47134 0
M  V30 2456 N 233.54 1.10788 -1.12088 0
M  V30 2457 C 234.768 1.86461 -0.896651 0
M  V30 2458 C 235.183 1.80492 0.553912 0
M  V30 2459 O 234.54 1.19102 1.38278 0
M  V30 2460 C 234.591 3.35006 -1.35843 0
M  V30 2461 O 234.312 3.40866 -2.75213 0
M  V30 2462 C 235.813 4.27565 -1.1706 0
M  V30 2463 H 233.033 0.589425 -0.320654 0
M  V30 2464 H 235.577 1.40076 -1.48993 0
M  V30 2465 H 233.732 3.7887 -0.808458 0
M  V30 2466 H 234.146 4.33411 -2.9539 0
M  V30 2467 H 235.62 5.30007 -1.54263 0
M  V30 2468 H 236.097 4.3906 -0.110814 0
M  V30 2469 H 236.703 3.89501 -1.70789 0
M  V30 2470 N 235.018 0.912232 1.28515 0
M  V30 2471 C 235.948 0.416403 2.29757 0
M  V30 2472 C 236.929 -0.515194 1.6211 0
M  V30 2473 O 238.114 -0.423253 1.89532 0
M  V30 2474 C 235.244 -0.34572 3.45575 0
M  V30 2475 C 234.198 0.496599 4.25109 0
M  V30 2476 C 233.524 -0.393771 5.33248 0
M  V30 2477 C 234.824 1.75307 4.92001 0
M  V30 2478 H 236.518 1.26249 2.7148 0
M  V30 2479 H 234.064 0.608515 1.30511 0
M  V30 2480 H 236.017 -0.703422 4.15488 0
M  V30 2481 H 234.741 -1.2257 3.02728 0
M  V30 2482 H 233.4 0.8368 3.56922 0
M  V30 2483 H 233.048 -1.27225 4.86644 0
M  V30 2484 H 232.748 0.166209 5.87365 0
M  V30 2485 H 234.272 -0.747389 6.06009 0
M  V30 2486 H 235.686 1.46437 5.54283 0
M  V30 2487 H 234.083 2.25534 5.56106 0
M  V30 2488 H 235.153 2.48176 4.16577 0
M  V30 2489 N 236.496 -1.42363 0.676048 0
M  V30 2490 C 237.428 -2.29164 -0.0404605 0
M  V30 2491 C 238.441 -1.43747 -0.764245 0
M  V30 2492 O 239.63 -1.67453 -0.618195 0
M  V30 2493 C 236.73 -3.21196 -1.08103 0
M  V30 2494 C 235.903 -4.35273 -0.430812 0
M  V30 2495 C 234.962 -5.08017 -1.37133 0
M  V30 2496 O 233.988 -5.62494 -0.87116 0
M  V30 2497 N 235.19 -5.13647 -2.70456 0
M  V30 2498 H 237.955 -2.91298 0.704667 0
M  V30 2499 H 235.516 -1.53303 0.520559 0
M  V30 2500 H 237.508 -3.66728 -1.71152 0
M  V30 2501 H 236.078 -2.60505 -1.72788 0
M  V30 2502 H 235.298 -3.92372 0.379209 0
M  V30 2503 H 236.586 -5.08795 0.0221132 0
M  V30 2504 H 235.984 -4.708 -3.1363 0
M  V30 2505 H 234.541 -5.62821 -3.28749 0
M  V30 2506 N 237.974 -0.419461 -1.51915 0
M  V30 2507 C 238.906 0.43646 -2.25006 0
M  V30 2508 C 239.919 1.00149 -1.28351 0
M  V30 2509 O 241.108 0.898674 -1.54227 0
M  V30 2510 C 238.208 1.6206 -2.9764 0
M  V30 2511 C 237.381 1.17763 -4.21249 0
M  V30 2512 C 236.44 2.22985 -4.76617 0
M  V30 2513 O 235.466 1.83151 -5.38929 0
M  V30 2514 N 236.668 3.55271 -4.59089 0
M  V30 2515 H 239.433 -0.18989 -2.99098 0
M  V30 2516 H 236.994 -0.247386 -1.59999 0
M  V30 2517 H 238.986 2.32038 -3.31573 0
M  V30 2518 H 237.556 2.15266 -2.2667 0
M  V30 2519 H 236.776 0.305582 -3.93014 0
M  V30 2520 H 238.064 0.858781 -5.015 0
M  V30 2521 H 237.462 3.90377 -4.09417 0
M  V30 2522 H 236.019 4.21195 -4.97432 0
M  V30 2523 N 239.452 1.56882 -0.150215 0
M  V30 2524 C 240.863 1.82995 0.370076 0
M  V30 2525 C 241.214 1.06907 1.64515 0
M  V30 2526 O 240.339 0.315369 2.1409 0
M  V30 2527 C 240.934 3.31942 0.678208 0
M  V30 2528 C 239.493 3.58625 1.14301 0
M  V30 2529 C 238.64 2.76792 0.167778 0
M  V30 2530 H 241.591 1.54209 -0.374858 0
M  V30 2531 H 241.612 3.48272 1.53254 0
M  V30 2532 H 241.124 3.87294 -0.249991 0
M  V30 2533 H 239.225 3.08664 2.08704 0
M  V30 2534 H 239.338 4.67073 1.06676 0
M  V30 2535 H 237.702 2.45972 0.661037 0
M  V30 2536 H 238.485 3.34916 -0.754069 0
M  V30 2537 N 240.93 -0.123565 1.57115 0
M  V30 2538 C 241.893 -1.13583 1.99076 0
M  V30 2539 C 242.893 -1.34564 0.880296 0
M  V30 2540 O 244.083 -1.31158 1.14644 0
M  V30 2541 C 241.215 -2.49128 2.32698 0
M  V30 2542 H 242.408 -0.775287 2.89706 0
M  V30 2543 H 239.961 -0.36771 1.51913 0
M  V30 2544 H 240.696 -2.90111 1.44934 0
M  V30 2545 H 240.481 -2.35255 3.13684 0
M  V30 2546 H 241.971 -3.2199 2.65918 0
M  V30 2547 N 242.408 -1.52605 -0.393616 0
M  V30 2548 C 243.824 -1.41753 -0.733357 0
M  V30 2549 C 244.024 -0.534293 -1.94287 0
M  V30 2550 O 243.08 -0.0059787 -2.52499 0
M  V30 2551 C 244.393 -2.84531 -0.972772 0
M  V30 2552 C 245.941 -2.93978 -1.07453 0
M  V30 2553 C 246.416 -4.37756 -1.3466 0
M  V30 2554 N 247.907 -4.4106 -1.41492 0
M  V30 2555 C 248.642 -5.49387 -1.642 0
M  V30 2556 N 248.138 -6.67806 -1.8441 0
M  V30 2557 N 249.931 -5.36923 -1.66342 0
M  V30 2558 H 242.082 -2.08555 0.402328 0
M  V30 2559 H 244.345 -0.940654 0.117789 0
M  V30 2560 H 244.051 -3.51353 -0.156204 0
M  V30 2561 H 243.925 -3.26508 -1.88871 0
M  V30 2562 H 246.312 -2.27326 -1.88167 0
M  V30 2563 H 246.393 -2.55435 -0.136605 0
M  V30 2564 H 246.037 -5.04972 -0.544581 0
M  V30 2565 H 245.967 -4.73848 -2.2973 0
M  V30 2566 H 248.458 -3.55705 -1.27601 0
M  V30 2567 H 248.771 -7.46141 -2.01231 0
M  V30 2568 H 247.116 -6.70843 -1.81644 0
M  V30 2569 H 250.307 -4.43381 -1.50102 0
M  V30 2570 H 250.48 -6.21416 -1.837 0
M  V30 2571 N 243.887 0.651787 -1.4349 0
M  V30 2572 C 245.303 0.96762 -1.26922 0
M  V30 2573 C 245.503 2.00602 -0.189982 0
M  V30 2574 O 244.559 2.48793 0.431107 0
M  V30 2575 C 245.872 1.45052 -2.63401 0
M  V30 2576 C 247.42 1.5671 -2.70945 0
M  V30 2577 C 247.895 2.0839 -4.07845 0
M  V30 2578 N 249.386 2.1569 -4.09917 0
M  V30 2579 C 250.121 2.56804 -5.12679 0
M  V30 2580 N 249.617 2.97203 -6.25813 0
M  V30 2581 N 251.41 2.56756 -5.00033 0
M  V30 2582 H 243.561 -0.0353158 -2.12371 0
M  V30 2583 H 245.824 0.0467858 -0.946845 0
M  V30 2584 H 245.53 0.761926 -3.43348 0
M  V30 2585 H 245.404 2.42529 -2.88894 0
M  V30 2586 H 247.791 2.2467 -1.9133 0
M  V30 2587 H 247.872 0.57662 -2.49216 0
M  V30 2588 H 247.516 1.41031 -4.87927 0
M  V30 2589 H 247.446 3.08271 -4.26938 0
M  V30 2590 H 249.937 1.87237 -3.28254 0
M  V30 2591 H 250.25 3.27328 -7.00055 0
M  V30 2592 H 248.595 2.95004 -6.29283 0
M  V30 2593 H 251.786 2.24572 -4.10713 0
M  V30 2594 H 251.959 2.88475 -5.80247 0
M  V30 2595 N 245.365 1.30045 0.890287 0
M  V30 2596 C 246.59 1.21598 1.68014 0
M  V30 2597 C 247.015 -0.218678 1.86825 0
M  V30 2598 O 246.373 -1.15756 1.39536 0
M  V30 2599 C 246.421 1.94434 3.03691 0
M  V30 2600 O 245.525 1.2678 3.92429 0
M  V30 2601 H 244.866 0.420856 0.513592 0
M  V30 2602 H 247.396 1.71775 1.11151 0
M  V30 2603 H 247.406 2.03251 3.5377 0
M  V30 2604 H 246.081 2.98777 2.89318 0
M  V30 2605 H 244.658 1.26282 3.50866 0
M  V30 2606 N 246.843 -1.10192 1.12674 0
M  V30 2607 C 248.259 -1.34235 0.863317 0
M  V30 2608 C 248.459 -1.95062 -0.505277 0
M  V30 2609 O 247.515 -2.19192 -1.25345 0
M  V30 2610 C 248.828 -2.2616 1.98172 0
M  V30 2611 C 250.376 -2.3969 2.0129 0
M  V30 2612 C 250.851 -3.34946 3.1237 0
M  V30 2613 N 252.342 -3.42515 3.11829 0
M  V30 2614 C 253.077 -4.16199 3.94419 0
M  V30 2615 N 252.573 -4.92747 4.87004 0
M  V30 2616 N 254.366 -4.11843 3.82547 0
M  V30 2617 H 246.517 -0.690798 2.00853 0
M  V30 2618 H 248.78 -0.366774 0.874174 0
M  V30 2619 H 248.486 -1.8868 2.96804 0
M  V30 2620 H 248.36 -3.26488 1.88906 0
M  V30 2621 H 250.747 -2.76438 1.03276 0
M  V30 2622 H 250.828 -1.39169 2.14629 0
M  V30 2623 H 250.472 -2.98923 4.10619 0
M  V30 2624 H 250.402 -4.35353 2.96269 0
M  V30 2625 H 252.893 -2.87926 2.44759 0
M  V30 2626 H 253.206 -5.46376 5.46528 0
M  V30 2627 H 251.551 -4.91862 4.91016 0
M  V30 2628 H 254.742 -3.51136 3.0955 0
M  V30 2629 H 254.915 -4.69007 4.47142 0
M  V30 2630 N 248.321 -0.919034 -1.28029 0
M  V30 2631 C 249.251 -0.428581 -2.29533 0
M  V30 2632 C 250.232 0.50659 -1.62381 0
M  V30 2633 O 251.417 0.413195 -1.89753 0
M  V30 2634 C 248.547 0.327388 -3.45753 0
M  V30 2635 C 247.501 -0.519137 -4.2484 0
M  V30 2636 C 246.827 0.365486 -5.33449 0
M  V30 2637 C 248.127 -1.77914 -4.91064 0
M  V30 2638 H 249.821 -1.27687 -2.70807 0
M  V30 2639 H 247.367 -0.615428 -1.30186 0
M  V30 2640 H 249.32 0.681378 -4.15855 0
M  V30 2641 H 248.044 1.20963 -3.03374 0
M  V30 2642 H 246.703 -0.855717 -3.56473 0
M  V30 2643 H 246.351 1.24642 -4.87312 0
M  V30 2644 H 246.051 -0.197356 -5.87268 0
M  V30 2645 H 247.575 0.715241 -6.06396 0
M  V30 2646 H 248.989 -1.49374 -5.53498 0
M  V30 2647 H 247.386 -2.2848 -5.54903 0
M  V30 2648 H 248.456 -2.50382 -4.15255 0
M  V30 2649 N 249.799 1.42003 -0.683588 0
M  V30 2650 C 250.732 2.28166 0.039592 0
M  V30 2651 C 251.71 1.41562 0.799942 0
M  V30 2652 O 252.894 1.70997 0.793248 0
M  V30 2653 C 250.021 3.21575 1.06335 0
M  V30 2654 C 249.067 4.24643 0.397562 0
M  V30 2655 S 249.9 5.2869 -0.851296 0
M  V30 2656 C 251.056 6.25666 0.171166 0
M  V30 2657 H 251.289 2.89153 -0.691229 0
M  V30 2658 H 248.822 1.46962 -0.473435 0
M  V30 2659 H 250.78 3.75928 1.6489 0
M  V30 2660 H 249.441 2.59707 1.76667 0
M  V30 2661 H 248.634 4.90223 1.17035 0
M  V30 2662 H 248.236 3.73824 -0.114611 0
M  V30 2663 H 250.528 6.69653 1.02819 0
M  V30 2664 H 251.471 7.06666 -0.450397 0
M  V30 2665 H 251.879 5.62095 0.520578 0
M  V30 2666 N 251.277 0.427512 1.51691 0
M  V30 2667 C 252.526 -0.143679 2.01188 0
M  V30 2668 C 252.839 -1.44642 1.31674 0
M  V30 2669 O 254.045 -2.09997 1.72086 0
M  V30 2670 C 252.501 -0.306602 3.58592 0
M  V30 2671 C 252.109 0.985125 4.37035 0
M  V30 2672 C 253.853 -0.832091 4.16265 0
M  V30 2673 C 251.76 0.788382 5.86122 0
M  V30 2674 H 250.69 -0.0574701 0.751807 0
M  V30 2675 H 253.341 0.555772 1.74881 0
M  V30 2676 H 251.723 -1.06882 3.81303 0
M  V30 2677 H 252.897 1.75492 4.26074 0
M  V30 2678 H 251.212 1.4384 3.90767 0
M  V30 2679 H 253.809 -0.995617 5.25349 0
M  V30 2680 H 254.152 -1.81186 3.74803 0
M  V30 2681 H 254.685 -0.128444 3.97593 0
M  V30 2682 H 251.424 1.74025 6.31978 0
M  V30 2683 H 250.944 0.0582143 5.99772 0
M  V30 2684 H 252.623 0.437722 6.45518 0
M  V30 2685 N 252.755 -1.56801 0.158532 0
M  V30 2686 C 253.718 -2.16138 -0.762705 0
M  V30 2687 C 254.718 -1.1061 -1.16713 0
M  V30 2688 O 255.908 -1.36191 -1.08617 0
M  V30 2689 C 253.04 -2.73386 -2.03649 0
M  V30 2690 H 254.233 -2.98886 -0.246354 0
M  V30 2691 H 251.786 -1.56035 -0.0909744 0
M  V30 2692 H 252.521 -1.94335 -2.59623 0
M  V30 2693 H 252.306 -3.50601 -1.75559 0
M  V30 2694 H 253.796 -3.19065 -2.6942 0
M  V30 2695 N 254.233 0.115231 -1.57178 0
M  V30 2696 C 255.196 1.12526 -1.99676 0
M  V30 2697 C 256.196 1.34095 -0.88742 0
M  V30 2698 O 257.386 1.30548 -1.15337 0
M  V30 2699 C 254.518 2.4789 -2.34015 0
M  V30 2700 H 255.711 0.759912 -2.90113 0
M  V30 2701 H 253.264 0.359648 -1.52106 0
M  V30 2702 H 253.999 2.89339 -1.4647 0
M  V30 2703 H 253.784 2.33588 -3.14927 0
M  V30 2704 H 255.274 3.20575 -2.67622 0
M  V30 2705 N 255.711 1.52812 0.385517 0
M  V30 2706 C 256.674 1.77188 1.45386 0
M  V30 2707 C 257.674 0.641953 1.4743 0
M  V30 2708 O 258.864 0.910033 1.4854 0
M  V30 2709 C 255.996 1.87582 2.8465 0
M  V30 2710 H 257.189 2.72583 1.25054 0
M  V30 2711 H 254.742 1.43586 0.617467 0
M  V30 2712 H 255.477 0.941849 3.10322 0
M  V30 2713 H 255.262 2.69748 2.84567 0
M  V30 2714 H 256.752 2.08102 3.62054 0
M  V30 2715 N 257.189 -0.644168 1.43834 0
M  V30 2716 C 258.435 -1.40431 1.47141 0
M  V30 2717 C 258.79 -1.92153 0.0975577 0
M  V30 2718 O 258.083 -1.69924 -0.885232 0
M  V30 2719 C 258.277 -2.59615 2.45631 0
M  V30 2720 C 258.106 -2.1956 3.92458 0
M  V30 2721 C 256.876 -2.07456 4.60749 0
M  V30 2722 C 259.074 -1.79281 4.8204 0
M  V30 2723 N 257.056 -1.60827 5.92459 0
M  V30 2724 C 258.427 -1.43801 6.03093 0
M  V30 2725 C 260.482 -1.66545 4.6922 0
M  V30 2726 C 259.185 -0.968599 7.12749 0
M  V30 2727 C 261.211 -1.21008 5.78888 0
M  V30 2728 C 260.573 -0.864711 6.99072 0
M  V30 2729 H 256.672 -0.509182 0.593513 0
M  V30 2730 H 259.256 -0.740351 1.80075 0
M  V30 2731 H 257.427 -3.23658 2.1471 0
M  V30 2732 H 259.159 -3.26357 2.39318 0
M  V30 2733 H 255.914 -2.275 4.1538 0
M  V30 2734 H 256.338 -1.39848 6.62398 0
M  V30 2735 H 260.98 -1.91883 3.7675 0
M  V30 2736 H 258.698 -0.702715 8.05039 0
M  V30 2737 H 262.284 -1.11631 5.7099 0
M  V30 2738 H 261.164 -0.517736 7.82489 0
M  V30 2739 N 258.668 -1.30515 -0.883378 0
M  V30 2740 C 259.914 -1.19607 -1.63774 0
M  V30 2741 C 260.247 0.248314 -1.92606 0
M  V30 2742 O 259.522 1.17742 -1.54813 0
M  V30 2743 C 259.805 -2.02669 -2.97653 0
M  V30 2744 C 259.658 -3.55335 -2.75784 0
M  V30 2745 C 260.977 -1.86573 -3.98596 0
M  V30 2746 H 258.096 -0.435856 -0.594305 0
M  V30 2747 H 260.738 -1.60165 -1.02212 0
M  V30 2748 H 258.888 -1.68208 -3.50197 0
M  V30 2749 H 260.56 -3.99863 -2.30016 0
M  V30 2750 H 258.803 -3.79438 -2.1026 0
M  V30 2751 H 259.474 -4.08745 -3.70988 0
M  V30 2752 H 261.95 -2.16703 -3.55217 0
M  V30 2753 H 260.826 -2.47014 -4.90179 0
M  V30 2754 H 261.087 -0.825321 -4.34328 0
M  V30 2755 N 260.146 1.09593 -1.13257 0
M  V30 2756 C 261.076 2.18214 -0.830946 0
M  V30 2757 C 262.057 1.68812 0.208966 0
M  V30 2758 O 263.242 1.9408 0.0682666 0
M  V30 2759 C 260.372 3.46051 -0.294296 0
M  V30 2760 C 259.326 4.08778 -1.26826 0
M  V30 2761 C 258.652 5.31419 -0.591449 0
M  V30 2762 C 259.952 4.51476 -2.62615 0
M  V30 2763 H 261.646 2.43703 -1.73923 0
M  V30 2764 H 259.192 1.17128 -0.837675 0
M  V30 2765 H 261.145 4.2134 -0.0709606 0
M  V30 2766 H 259.869 3.20079 0.649366 0
M  V30 2767 H 258.528 3.35505 -1.47756 0
M  V30 2768 H 258.176 5.01727 0.357633 0
M  V30 2769 H 257.876 5.74341 -1.24123 0
M  V30 2770 H 259.4 6.09433 -0.377355 0
M  V30 2771 H 260.814 5.17999 -2.45663 0
M  V30 2772 H 259.211 5.05277 -3.23752 0
M  V30 2773 H 260.281 3.63962 -3.20406 0
M  V30 2774 N 261.624 0.925811 1.2754 0
M  V30 2775 C 262.849 0.580924 1.99098 0
M  V30 2776 C 263.274 -0.833555 1.68622 0
M  V30 2777 O 262.632 -1.55903 0.925422 0
M  V30 2778 C 262.68 0.811186 3.51358 0
M  V30 2779 O 261.784 -0.124129 4.12213 0
M  V30 2780 H 261.125 0.223873 0.625122 0
M  V30 2781 H 263.655 1.24455 1.62395 0
M  V30 2782 H 263.665 0.72601 4.01489 0
M  V30 2783 H 262.34 1.84227 3.72872 0
M  V30 2784 H 260.917 0.0108006 3.72898 0
M  V30 2785 N 263.102 -1.41638 0.69111 0
M  V30 2786 C 264.349 -2.01299 0.220193 0
M  V30 2787 C 264.677 -1.54715 -1.17871 0
M  V30 2788 O 263.932 -0.747193 -1.80874 0
M  V30 2789 C 264.231 -3.56714 0.221277 0
M  V30 2790 C 263.897 -4.22792 1.56709 0
M  V30 2791 C 262.559 -4.40557 1.93554 0
M  V30 2792 C 264.911 -4.59883 2.45268 0
M  V30 2793 C 262.239 -4.92688 3.18552 0
M  V30 2794 C 264.591 -5.13403 3.69595 0
M  V30 2795 C 263.255 -5.29379 4.06589 0
M  V30 2796 H 262.525 -0.736606 0.0805743 0
M  V30 2797 H 265.172 -1.69598 0.889319 0
M  V30 2798 H 263.477 -3.8818 -0.531391 0
M  V30 2799 H 265.174 -4.00678 -0.160547 0
M  V30 2800 H 261.764 -4.09336 1.2705 0
M  V30 2801 H 265.948 -4.45817 2.18084 0
M  V30 2802 H 261.204 -5.03242 3.47214 0
M  V30 2803 H 265.378 -5.41084 4.38407 0
M  V30 2804 H 263.005 -5.69537 5.03519 0
M  V30 2805 N 264.58 -0.43555 -1.51462 0
M  V30 2806 C 265.826 0.131709 -2.02372 0
M  V30 2807 C 266.159 1.42516 -1.3192 0
M  V30 2808 O 265.434 1.89606 -0.433573 0
M  V30 2809 C 265.717 0.352301 -3.58373 0
M  V30 2810 C 265.57 -0.959676 -4.39443 0
M  V30 2811 C 266.889 1.12286 -4.25535 0
M  V30 2812 H 264.008 0.0463936 -0.735538 0
M  V30 2813 H 266.65 -0.574197 -1.81116 0
M  V30 2814 H 264.8 0.9536 -3.76615 0
M  V30 2815 H 266.472 -1.59482 -4.32855 0
M  V30 2816 H 264.715 -1.56468 -4.04599 0
M  V30 2817 H 265.386 -0.759394 -5.46752 0
M  V30 2818 H 267.862 0.613545 -4.11552 0
M  V30 2819 H 266.738 1.24598 -5.34571 0
M  V30 2820 H 266.999 2.15048 -3.86273 0
M  V30 2821 N 266.058 1.56714 -0.166846 0
M  V30 2822 C 266.988 2.20754 0.760913 0
M  V30 2823 C 267.969 1.16178 1.24244 0
M  V30 2824 O 269.154 1.44592 1.29641 0
M  V30 2825 C 266.284 2.84478 1.99223 0
M  V30 2826 C 265.238 3.95053 1.64672 0
M  V30 2827 C 264.564 4.45805 2.95232 0
M  V30 2828 C 265.864 5.14865 0.878155 0
M  V30 2829 H 267.558 2.98537 0.22713 0
M  V30 2830 H 265.104 1.43596 0.107805 0
M  V30 2831 H 267.057 3.27951 2.64624 0
M  V30 2832 H 265.781 2.04056 2.55007 0
M  V30 2833 H 264.44 3.52228 1.01641 0
M  V30 2834 H 264.088 3.62181 3.49047 0
M  V30 2835 H 263.788 5.204 2.7287 0
M  V30 2836 H 265.312 4.91962 3.6167 0
M  V30 2837 H 266.726 5.55059 1.43466 0
M  V30 2838 H 265.123 5.95348 0.753738 0
M  V30 2839 H 266.193 4.84735 -0.126377 0
M  V30 2840 N 267.536 -0.106894 1.57237 0
M  V30 2841 C 268.761 -0.830287 1.90055 0
M  V30 2842 C 269.186 -1.72064 0.75998 0
M  V30 2843 O 268.544 -1.78982 -0.288991 0
M  V30 2844 C 268.592 -1.6295 3.21683 0
M  V30 2845 O 267.696 -2.73748 3.08441 0
M  V30 2846 H 267.037 -0.228855 0.623315 0
M  V30 2847 H 269.567 -0.085658 2.04421 0
M  V30 2848 H 269.577 -2.01621 3.54701 0
M  V30 2849 H 268.252 -0.975989 4.04286 0
M  V30 2850 H 266.829 -2.38192 2.86913 0
M  V30 2851 N 269.014 -1.53014 -0.377408 0
M  V30 2852 C 270.242 -1.72515 -1.14219 0
M  V30 2853 C 270.657 -0.448735 -1.8339 0
M  V30 2854 O 270.014 0.577592 -1.73119 0
M  V30 2855 C 270.065 -2.8826 -2.18148 0
M  V30 2856 O 269.786 -4.10962 -1.51795 0
M  V30 2857 C 271.287 -3.19536 -3.07264 0
M  V30 2858 H 268.507 -0.577301 -0.342001 0
M  V30 2859 H 271.051 -1.99712 -0.439935 0
M  V30 2860 H 269.206 -2.63492 -2.83991 0
M  V30 2861 H 269.62 -4.75693 -2.20945 0
M  V30 2862 H 271.094 -4.03959 -3.76193 0
M  V30 2863 H 271.571 -2.34403 -3.71419 0
M  V30 2864 H 272.177 -3.46186 -2.47053 0
M  V30 2865 N 270.492 0.636531 -1.44174 0
M  V30 2866 C 271.903 1.21806 -1.41493 0
M  V30 2867 C 272.254 1.95785 -0.1275 0
M  V30 2868 O 271.379 2.02147 0.772376 0
M  V30 2869 C 271.974 2.21551 -2.56321 0
M  V30 2870 C 270.533 2.75143 -2.56853 0
M  V30 2871 C 269.68 1.50052 -2.33195 0
M  V30 2872 H 272.631 0.427531 -1.52833 0
M  V30 2873 H 272.652 3.0405 -2.28765 0
M  V30 2874 H 272.164 1.67679 -3.50008 0
M  V30 2875 H 270.265 3.33033 -1.67093 0
M  V30 2876 H 270.378 3.2155 -3.55165 0
M  V30 2877 H 268.742 1.77993 -1.82183 0
M  V30 2878 H 269.525 0.980903 -3.28988 0
M  V30 2879 N 271.97 1.30982 0.876444 0
M  V30 2880 C 272.902 1.13902 1.98894 0
M  V30 2881 C 273.915 0.0798815 1.62604 0
M  V30 2882 O 275.104 0.326743 1.75484 0
M  V30 2883 C 272.204 0.716699 3.31235 0
M  V30 2884 C 271.377 1.85945 3.95908 0
M  V30 2885 C 270.436 1.42426 5.06558 0
M  V30 2886 O 269.462 2.13287 5.27729 0
M  V30 2887 N 270.664 0.308025 5.79682 0
M  V30 2888 H 273.429 2.09724 2.14094 0
M  V30 2889 H 270.99 1.2323 1.05004 0
M  V30 2890 H 272.982 0.408403 4.02634 0
M  V30 2891 H 271.552 -0.149719 3.12241 0
M  V30 2892 H 270.772 2.33541 3.17573 0
M  V30 2893 H 272.06 2.62503 4.35855 0
M  V30 2894 H 271.458 -0.282241 5.64995 0
M  V30 2895 H 270.015 0.0592282 6.51773 0
M  V30 2896 N 273.449 -1.08991 1.13837 0
M  V30 2897 C 274.679 -1.84743 0.924859 0
M  V30 2898 C 275.087 -1.81629 -0.529874 0
M  V30 2899 O 274.43 -1.21397 -1.37872 0
M  V30 2900 C 274.492 -3.33568 1.34061 0
M  V30 2901 C 274.156 -3.60425 2.80968 0
M  V30 2902 C 275.153 -3.55771 3.79108 0
M  V30 2903 C 272.838 -3.88627 3.18236 0
M  V30 2904 C 274.832 -3.78939 5.12527 0
M  V30 2905 C 272.519 -4.11449 4.51833 0
M  V30 2906 C 273.517 -4.06598 5.48787 0
M  V30 2907 O 273.205 -4.28826 6.79973 0
M  V30 2908 H 272.937 -0.590258 0.329502 0
M  V30 2909 H 275.491 -1.38598 1.51591 0
M  V30 2910 H 273.721 -3.80442 0.692853 0
M  V30 2911 H 275.41 -3.90743 1.09886 0
M  V30 2912 H 276.176 -3.34005 3.51661 0
M  V30 2913 H 272.055 -3.91526 2.43369 0
M  V30 2914 H 275.599 -3.75068 5.88192 0
M  V30 2915 H 271.496 -4.32698 4.79002 0
M  V30 2916 H 272.264 -4.46264 6.86142 0
M  V30 2917 N 274.927 -0.932562 -1.27047 0
M  V30 2918 C 276.174 -0.575559 -1.94148 0
M  V30 2919 C 276.502 0.883984 -1.73251 0
M  V30 2920 O 275.757 1.64655 -1.0577 0
M  V30 2921 C 276.056 -0.853713 -3.47054 0
M  V30 2922 C 275.722 -2.29577 -3.88079 0
M  V30 2923 C 274.384 -2.68999 -3.9899 0
M  V30 2924 C 276.736 -3.23331 -4.08787 0
M  V30 2925 C 274.064 -4.01289 -4.28 0
M  V30 2926 C 276.416 -4.55207 -4.39282 0
M  V30 2927 C 275.08 -4.94457 -4.48407 0
M  V30 2928 H 274.35 -0.210612 -0.710439 0
M  V30 2929 H 276.997 -1.17744 -1.51025 0
M  V30 2930 H 275.302 -0.169204 -3.91434 0
M  V30 2931 H 276.999 -0.55639 -3.97121 0
M  V30 2932 H 273.589 -1.97994 -3.80127 0
M  V30 2933 H 277.773 -2.94074 -3.99793 0
M  V30 2934 H 273.029 -4.31374 -4.33275 0
M  V30 2935 H 277.203 -5.27852 -4.54252 0
M  V30 2936 H 274.83 -5.96994 -4.7064 0
M  V30 2937 N 276.405 1.4127 -0.698611 0
M  V30 2938 C 277.651 2.01478 -0.231207 0
M  V30 2939 C 277.984 1.55215 1.16713 0
M  V30 2940 O 277.259 0.764672 1.78838 0
M  V30 2941 C 277.542 3.58912 -0.292281 0
M  V30 2942 C 277.395 4.15293 -1.72778 0
M  V30 2943 C 278.714 4.38736 0.346194 0
M  V30 2944 H 275.833 0.732025 -0.0854878 0
M  V30 2945 H 278.475 1.67977 -0.887906 0
M  V30 2946 H 276.625 3.87582 0.26686 0
M  V30 2947 H 278.297 3.97486 -2.341 0
M  V30 2948 H 276.54 3.7022 -2.26096 0
M  V30 2949 H 277.211 5.24452 -1.72202 0
M  V30 2950 H 279.687 4.15897 -0.130035 0
M  V30 2951 H 278.563 5.48221 0.272932 0
M  V30 2952 H 278.824 4.18425 1.42734 0
M  V30 2953 N 277.883 0.443576 1.51229 0
M  V30 2954 C 279.13 -0.120796 2.02139 0
M  V30 2955 C 279.458 -1.42166 1.32736 0
M  V30 2956 O 278.713 -1.90849 0.43301 0
M  V30 2957 C 279.012 -0.380579 3.55368 0
M  V30 2958 C 278.678 0.83523 4.43097 0
M  V30 2959 C 277.34 1.16864 4.66794 0
M  V30 2960 C 279.692 1.64601 4.94526 0
M  V30 2961 C 277.02 2.31339 5.39165 0
M  V30 2962 C 279.372 2.78181 5.68153 0
M  V30 2963 C 278.036 3.11969 5.90112 0
M  V30 2964 H 277.306 -0.0442023 0.73968 0
M  V30 2965 H 279.953 0.592046 1.82118 0
M  V30 2966 H 278.258 -1.17538 3.73754 0
M  V30 2967 H 279.955 -0.830777 3.923 0
M  V30 2968 H 276.545 0.565437 4.24854 0
M  V30 2969 H 280.729 1.40163 4.76097 0
M  V30 2970 H 275.985 2.57823 5.5438 0
M  V30 2971 H 280.159 3.41371 6.06992 0
M  V30 2972 H 277.786 4.00784 6.45969 0
M  V30 2973 N 279.361 -1.56624 0.175154 0
M  V30 2974 C 280.586 -2.01813 -0.478137 0
M  V30 2975 C 281.011 -1.05457 -1.55757 0
M  V30 2976 O 280.369 -0.0347439 -1.81267 0
M  V30 2977 C 280.417 -3.45581 -1.02987 0
M  V30 2978 O 279.521 -3.52305 -2.14371 0
M  V30 2979 H 278.862 -0.65413 -0.114059 0
M  V30 2980 H 281.392 -2.02673 0.280173 0
M  V30 2981 H 281.402 -3.84965 -1.35151 0
M  V30 2982 H 280.077 -4.1521 -0.239556 0
M  V30 2983 H 278.654 -3.24783 -1.83222 0
M  V30 2984 N 280.839 0.0985539 -1.57292 0
M  V30 2985 C 281.772 1.15082 -1.97057 0
M  V30 2986 C 282.75 1.39025 -0.843255 0
M  V30 2987 O 283.934 1.52842 -1.10325 0
M  V30 2988 C 281.061 2.50069 -2.28437 0
M  V30 2989 C 280.107 2.42428 -3.509 0
M  V30 2990 S 280.94 1.84414 -5.02744 0
M  V30 2991 C 282.096 3.21032 -5.37298 0
M  V30 2992 H 282.329 0.811815 -2.86002 0
M  V30 2993 H 279.862 0.306102 -1.51335 0
M  V30 2994 H 281.82 3.27729 -2.47192 0
M  V30 2995 H 280.481 2.8114 -1.40069 0
M  V30 2996 H 279.674 3.41911 -3.70288 0
M  V30 2997 H 279.276 1.72896 -3.31637 0
M  V30 2998 H 281.568 4.17297 -5.33731 0
M  V30 2999 H 282.511 3.06452 -6.38352 0
M  V30 3000 H 282.919 3.20404 -4.64759 0
M  V30 3001 N 282.317 1.53212 0.369288 0
M  V30 3002 C 283.566 1.68436 1.10961 0
M  V30 3003 C 283.879 0.440738 1.9057 0
M  V30 3004 O 285.085 0.473446 2.6734 0
M  V30 3005 C 283.541 2.97744 2.0218 0
M  V30 3006 C 283.149 4.29355 1.279 0
M  V30 3007 C 284.893 3.22334 2.76226 0
M  V30 3008 C 282.8 5.49755 2.17999 0
M  V30 3009 H 281.73 0.627568 0.41794 0
M  V30 3010 H 284.381 1.79713 0.370884 0
M  V30 3011 H 282.763 2.8026 2.79768 0
M  V30 3012 H 283.937 4.57458 0.554007 0
M  V30 3013 H 282.252 4.11179 0.657311 0
M  V30 3014 H 284.849 4.09471 3.43857 0
M  V30 3015 H 285.192 2.38238 3.41392 0
M  V30 3016 H 285.725 3.40475 2.05723 0
M  V30 3017 H 282.464 6.36318 1.57417 0
M  V30 3018 H 281.984 5.25937 2.88359 0
M  V30 3019 H 283.663 5.84401 2.77641 0
M  V30 3020 N 283.795 -0.628877 1.44509 0
M  V30 3021 C 284.705 -1.7694 1.54044 0
M  V30 3022 C 285.721 -1.68705 0.425987 0
M  V30 3023 O 286.897 -1.89442 0.683656 0
M  V30 3024 C 283.962 -3.13332 1.48405 0
M  V30 3025 C 283.023 -3.33181 2.70719 0
M  V30 3026 C 282.256 -4.63067 2.6534 0
M  V30 3027 O 282.479 -5.44017 1.71469 0
M  V30 3028 O 281.413 -4.85167 3.56226 0
M  V30 3029 H 285.239 -1.71848 2.50403 0
M  V30 3030 H 282.824 -0.790378 1.26781 0
M  V30 3031 H 284.706 -3.94634 1.47791 0
M  V30 3032 H 283.381 -3.1896 0.551898 0
M  V30 3033 H 282.288 -2.51549 2.769 0
M  V30 3034 H 283.621 -3.32416 3.62988 0
M  V30 3035 N 285.273 -1.31445 -0.869486 0
M  V30 3036 C 286.519 -1.21337 -1.62496 0
M  V30 3037 C 286.852 0.227872 -1.92858 0
M  V30 3038 O 286.127 1.16094 -1.56053 0
M  V30 3039 C 286.41 -2.05814 -2.95487 0
M  V30 3040 C 286.263 -3.5824 -2.72 0
M  V30 3041 C 287.582 -1.9079 -3.96594 0
M  V30 3042 H 284.701 -0.442135 -0.589649 0
M  V30 3043 H 287.343 -1.6124 -1.00507 0
M  V30 3044 H 285.493 -1.71913 -3.48394 0
M  V30 3045 H 287.165 -4.0228 -2.25762 0
M  V30 3046 H 285.408 -3.81647 -2.06224 0
M  V30 3047 H 286.079 -4.12657 -3.66631 0
M  V30 3048 H 288.555 -2.20459 -3.52898 0
M  V30 3049 H 287.431 -2.52199 -4.87531 0
M  V30 3050 H 287.692 -0.871341 -4.33428 0
M  V30 3051 N 286.751 1.08385 -1.14413 0
M  V30 3052 C 287.699 2.17406 -0.826888 0
M  V30 3053 C 288.693 1.6827 0.195312 0
M  V30 3054 O 289.899 1.79927 0.0513892 0
M  V30 3055 H 286.274 0.70934 -0.249681 0
M  V30 3056 H 288.245 2.41388 -1.75426 0
M  V30 3057 C 286.994 3.46215 -0.320979 0
M  V30 3058 H 286.317 3.84401 -1.0989 0
M  V30 3059 H 287.757 4.23777 -0.137549 0
M  V30 3060 C 286.216 3.23067 0.955472 0
M  V30 3061 O 286.746 3.4668 2.02918 0
M  V30 3062 N 284.952 2.7661 0.890798 0
M  V30 3063 H 284.499 2.57594 0.0168815 0
M  V30 3064 H 284.457 2.61501 1.74542 0
M  V30 3065 N 288.23 0.939286 1.26551 0
M  V30 3066 C 289.178 0.43815 2.28436 0
M  V30 3067 C 290.172 -0.483587 1.62351 0
M  V30 3068 O 291.378 -0.362009 1.76322 0
M  V30 3069 H 287.753 0.123149 0.741848 0
M  V30 3070 H 289.724 1.31002 2.68106 0
M  V30 3071 C 288.473 -0.283052 3.46546 0
M  V30 3072 H 287.796 0.417043 3.97619 0
M  V30 3073 H 289.236 -0.597948 4.19763 0
M  V30 3074 C 287.695 -1.50018 3.01656 0
M  V30 3075 O 288.225 -2.59855 3.0633 0
M  V30 3076 N 286.431 -1.35608 2.57019 0
M  V30 3077 H 285.978 -0.46244 2.53415 0
M  V30 3078 H 285.936 -2.17165 2.27347 0
M  V30 3079 N 289.708 -1.40897 0.706093 0
M  V30 3080 C 290.954 -2.01352 0.241889 0
M  V30 3081 C 291.287 -1.55832 -1.15888 0
M  V30 3082 O 290.562 -0.774145 -1.7843 0
M  V30 3083 C 290.845 -3.58752 0.311311 0
M  V30 3084 C 290.698 -4.1437 1.74978 0
M  V30 3085 C 292.017 -4.38914 -0.322922 0
M  V30 3086 H 289.136 -0.731562 0.0893687 0
M  V30 3087 H 291.778 -1.67504 0.896802 0
M  V30 3088 H 289.928 -3.87718 -0.246302 0
M  V30 3089 H 291.6 -3.96239 2.36205 0
M  V30 3090 H 289.843 -3.69016 2.28057 0
M  V30 3091 H 290.514 -5.23532 1.74981 0
M  V30 3092 H 292.99 -4.15822 0.152089 0
M  V30 3093 H 291.866 -5.48358 -0.243855 0
M  V30 3094 H 292.127 -4.19176 -1.40513 0
M  V30 3095 N 291.186 -0.45159 -1.50991 0
M  V30 3096 C 292.414 0.108334 -2.06616 0
M  V30 3097 C 292.829 1.35224 -1.31757 0
M  V30 3098 O 292.186 1.78475 -0.381174 0
M  V30 3099 C 292.237 0.41619 -3.59096 0
M  V30 3100 O 291.958 -0.778361 -4.3113 0
M  V30 3101 C 293.459 1.02523 -4.31282 0
M  V30 3102 H 290.679 0.00159995 -0.670998 0
M  V30 3103 H 293.223 -0.634771 -1.94399 0
M  V30 3104 H 291.378 1.10921 -3.71181 0
M  V30 3105 H 291.792 -0.511181 -5.22003 0
M  V30 3106 H 293.266 1.19053 -5.39009 0
M  V30 3107 H 293.743 2.01013 -3.905 0
M  V30 3108 H 294.349 0.371173 -4.23677 0
M  V30 3109 N 292.664 1.56529 -0.183458 0
M  V30 3110 C 293.611 2.18546 0.742055 0
M  V30 3111 C 294.581 1.12912 1.2182 0
M  V30 3112 O 295.766 1.41115 1.28418 0
M  V30 3113 C 292.906 2.83977 1.96089 0
M  V30 3114 C 292.019 4.04105 1.52719 0
M  V30 3115 C 291.154 4.57427 2.70063 0
M  V30 3116 C 290.193 5.69938 2.23243 0
M  V30 3117 N 289.33 6.17717 3.33722 0
M  V30 3118 H 294.17 2.97284 0.206432 0
M  V30 3119 H 291.707 1.46823 0.0901571 0
M  V30 3120 H 293.665 3.20077 2.67594 0
M  V30 3121 H 292.295 2.07822 2.47002 0
M  V30 3122 H 291.347 3.73745 0.708436 0
M  V30 3123 H 292.659 4.85513 1.1436 0
M  V30 3124 H 291.813 4.95772 3.49708 0
M  V30 3125 H 290.552 3.75101 3.11689 0
M  V30 3126 H 289.557 5.31133 1.42048 0
M  V30 3127 H 290.782 6.54073 1.82661 0
M  V30 3128 H 288.728 5.38317 3.74902 0
M  V30 3129 H 288.645 6.94146 2.99495 0
M  V30 3130 H 289.913 6.60713 4.13616 0
M  V30 3131 N 294.142 -0.090211 1.57342 0
M  V30 3132 C 295.105 -1.09335 2.01441 0
M  V30 3133 C 296.105 -1.32666 0.908641 0
M  V30 3134 O 297.295 -1.28697 1.174 0
M  V30 3135 C 294.427 -2.44136 2.3793 0
M  V30 3136 H 295.62 -0.713662 2.91285 0
M  V30 3137 H 293.173 -0.335404 1.52659 0
M  V30 3138 H 293.908 -2.86972 1.51055 0
M  V30 3139 H 293.693 -2.28548 3.18603 0
M  V30 3140 H 295.183 -3.16277 2.72688 0
M  V30 3141 N 295.62 -1.53406 -0.361157 0
M  V30 3142 C 297.036 -1.43277 -0.703124 0
M  V30 3143 C 297.236 -0.575384 -1.9311 0
M  V30 3144 O 296.292 -0.0595362 -2.5243 0
M  V30 3145 C 297.605 -2.8653 -0.9122 0
M  V30 3146 C 299.153 -2.96191 -1.01193 0
M  V30 3147 C 299.628 -4.40514 -1.25345 0
M  V30 3148 N 301.119 -4.43962 -1.32105 0
M  V30 3149 C 301.854 -5.52746 -1.5251 0
M  V30 3150 N 301.35 -6.71567 -1.70203 0
M  V30 3151 N 303.143 -5.40331 -1.54916 0
M  V30 3152 H 295.294 -2.07654 0.446475 0
M  V30 3153 H 297.557 -0.937944 0.137715 0
M  V30 3154 H 297.263 -3.51605 -0.0816414 0
M  V30 3155 H 297.137 -3.30441 -1.81903 0
M  V30 3156 H 299.524 -2.31266 -1.83303 0
M  V30 3157 H 299.605 -2.55667 -0.0823929 0
M  V30 3158 H 299.249 -5.06014 -0.437346 0
M  V30 3159 H 299.179 -4.78614 -2.19627 0
M  V30 3160 H 301.67 -3.58332 -1.20028 0
M  V30 3161 H 301.983 -7.50241 -1.85359 0
M  V30 3162 H 300.328 -6.74545 -1.67373 0
M  V30 3163 H 303.519 -4.46465 -1.40663 0
M  V30 3164 H 303.692 -6.25173 -1.70477 0
M  V30 3165 N 297.098 0.621204 -1.44841 0
M  V30 3166 C 298.375 1.38 -1.38619 0
M  V30 3167 C 298.755 2.11041 -0.0498935 0
M  V30 3168 O 298.103 2.06992 0.967816 0
M  V30 3169 C 298.313 2.33817 -2.59096 0
M  V30 3170 C 299.661 2.96844 -3.03593 0
M  V30 3171 O 300.685 2.44141 -2.59371 0
M  V30 3172 O 299.544 3.92476 -3.80296 0
M  V30 3173 H 296.638 0.61811 -0.549426 0
M  V30 3174 H 299.184 0.645429 -1.56947 0
M  V30 3175 H 297.956 1.79012 -3.47952 0
M  V30 3176 H 297.579 3.14676 -2.43032 0
M  V30 3177 N 298.576 1.31904 0.862503 0
M  V30 3178 C 299.816 1.23324 1.63004 0
M  V30 3179 C 300.18 -0.203724 1.90916 0
M  V30 3180 O 301.381 -0.413132 2.65606 0
M  V30 3181 C 299.652 2.06116 2.91978 0
M  V30 3182 S 301.211 2.14478 3.82812 0
M  V30 3183 H 298.029 0.439117 0.559193 0
M  V30 3184 H 300.631 1.66658 1.02202 0
M  V30 3185 H 299.335 3.09593 2.69407 0
M  V30 3186 H 298.866 1.6353 3.57801 0
M  V30 3187 H 300.881 1.28855 4.79177 0
M  V30 3188 N 300.054 -1.07777 1.14986 0
M  V30 3189 C 301.3 -1.80719 0.93339 0
M  V30 3190 C 301.655 -1.8484 -0.534019 0
M  V30 3191 O 300.948 -1.31795 -1.3907 0
M  V30 3192 C 301.142 -3.25495 1.47608 0
M  V30 3193 C 300.971 -3.3548 2.99472 0
M  V30 3194 C 299.741 -3.46293 3.6798 0
M  V30 3195 C 301.939 -3.26596 3.97291 0
M  V30 3196 N 299.921 -3.45136 5.07695 0
M  V30 3197 C 301.292 -3.32506 5.23297 0
M  V30 3198 C 303.347 -3.10376 3.89321 0
M  V30 3199 C 302.05 -3.23866 6.42264 0
M  V30 3200 C 304.076 -3.03069 5.07842 0
M  V30 3201 C 303.438 -3.09587 6.32721 0
M  V30 3202 H 299.537 -0.674814 0.395158 0
M  V30 3203 H 302.121 -1.28681 1.46114 0
M  V30 3204 H 300.292 -3.75963 0.975022 0
M  V30 3205 H 302.024 -3.86535 1.19887 0
M  V30 3206 H 298.779 -3.50456 3.18555 0
M  V30 3207 H 299.203 -3.48097 5.80653 0
M  V30 3208 H 303.845 -3.04194 2.93642 0
M  V30 3209 H 301.563 -3.28807 7.38181 0
M  V30 3210 H 305.149 -2.91629 5.03432 0
M  V30 3211 H 304.029 -3.0397 7.22891 0
M  V30 3212 N 301.532 -0.945985 -1.26051 0
M  V30 3213 C 302.495 -0.463897 -2.24456 0
M  V30 3214 C 303.495 0.427655 -1.55009 0
M  V30 3215 O 304.685 0.226157 -1.72726 0
M  V30 3216 C 301.817 0.330812 -3.39291 0
M  V30 3217 H 303.01 -1.33357 -2.68619 0
M  V30 3218 H 300.563 -0.728416 -1.38289 0
M  V30 3219 H 301.298 1.21852 -3.00537 0
M  V30 3220 H 301.083 -0.308679 -3.90883 0
M  V30 3221 H 302.573 0.657865 -4.12386 0
M  V30 3222 N 303.011 1.40521 -0.713556 0
M  V30 3223 C 304.239 2.05237 -0.261775 0
M  V30 3224 C 304.654 1.53755 1.09567 0
M  V30 3225 O 304.011 0.693268 1.6882 0
M  V30 3226 C 304.062 3.60763 -0.230706 0
M  V30 3227 O 303.783 4.10345 -1.53455 0
M  V30 3228 C 305.284 4.42651 0.239874 0
M  V30 3229 H 302.504 0.660533 -0.118057 0
M  V30 3230 H 305.048 1.79967 -0.971192 0
M  V30 3231 H 303.203 3.8501 0.429661 0
M  V30 3232 H 303.617 5.04526 -1.43366 0
M  V30 3233 H 305.091 5.51599 0.210468 0
M  V30 3234 H 305.568 4.20082 1.28171 0
M  V30 3235 H 306.174 4.23507 -0.390142 0
M  V30 3236 N 304.489 0.459591 1.5075 0
M  V30 3237 C 305.736 -0.0993495 2.02256 0
M  V30 3238 C 306.064 -1.40751 1.34237 0
M  V30 3239 O 305.319 -1.90379 0.453228 0
M  V30 3240 C 305.618 -0.342866 3.55752 0
M  V30 3241 C 305.284 0.88218 4.42186 0
M  V30 3242 C 303.946 1.21808 4.65528 0
M  V30 3243 C 306.298 1.69837 4.92752 0
M  V30 3244 C 303.626 2.37045 5.36681 0
M  V30 3245 C 305.978 2.84192 5.65171 0
M  V30 3246 C 304.642 3.1821 5.8677 0
M  V30 3247 H 303.912 -0.0363545 0.740108 0
M  V30 3248 H 306.559 0.611329 1.8148 0
M  V30 3249 H 304.864 -1.13567 3.7498 0
M  V30 3250 H 306.561 -0.789121 3.93159 0
M  V30 3251 H 303.151 0.610467 4.2423 0
M  V30 3252 H 307.335 1.45205 4.74583 0
M  V30 3253 H 302.591 2.63689 5.51614 0
M  V30 3254 H 306.765 3.4779 6.03337 0
M  V30 3255 H 304.392 4.07613 6.41682 0
M  V30 3256 N 305.967 -1.56429 0.191757 0
M  V30 3257 C 307.216 -1.9666 -0.448088 0
M  V30 3258 C 307.529 -1.08136 -1.62991 0
M  V30 3259 O 308.735 -1.38135 -2.33733 0
M  V30 3260 C 307.191 -3.49753 -0.848585 0
M  V30 3261 C 306.799 -4.46935 0.308764 0
M  V30 3262 C 308.543 -3.9876 -1.4557 0
M  V30 3263 C 306.45 -5.91293 -0.112506 0
M  V30 3264 H 305.38 -0.734312 -0.171179 0
M  V30 3265 H 308.031 -1.81301 0.283242 0
M  V30 3266 H 306.413 -3.60604 -1.63649 0
M  V30 3267 H 307.587 -4.47813 1.08627 0
M  V30 3268 H 305.902 -4.08102 0.827158 0
M  V30 3269 H 308.499 -5.04086 -1.78328 0
M  V30 3270 H 308.842 -3.42875 -2.36099 0
M  V30 3271 H 309.375 -3.9101 -0.731836 0
M  V30 3272 H 306.114 -6.51097 0.758514 0
M  V30 3273 H 305.634 -5.93676 -0.854941 0
M  V30 3274 H 307.313 -6.44663 -0.549448 0
M  V30 3275 N 307.445 0.0818655 -1.57387 0
M  V30 3276 C 308.377 1.12484 -1.997 0
M  V30 3277 C 309.39 1.35564 -0.90146 0
M  V30 3278 O 310.579 1.33982 -1.17945 0
M  V30 3279 C 307.679 2.47778 -2.31213 0
M  V30 3280 C 306.852 2.44793 -3.62485 0
M  V30 3281 C 305.911 3.62117 -3.81782 0
M  V30 3282 O 304.937 3.44005 -4.53486 0
M  V30 3283 N 306.139 4.82094 -3.23367 0
M  V30 3284 H 308.904 0.764585 -2.89783 0
M  V30 3285 H 306.465 0.270664 -1.59621 0
M  V30 3286 H 308.457 3.24891 -2.41304 0
M  V30 3287 H 307.027 2.75843 -1.4707 0
M  V30 3288 H 306.247 1.53134 -3.6324 0
M  V30 3289 H 307.535 2.39889 -4.48699 0
M  V30 3290 H 306.933 4.99713 -2.65148 0
M  V30 3291 H 305.49 5.56753 -3.38923 0
M  V30 3292 N 308.923 1.53595 0.353017 0
M  V30 3293 C 310.334 1.61937 0.929153 0
M  V30 3294 C 310.685 0.494686 1.89861 0
M  V30 3295 O 309.81 -0.377017 2.1309 0
M  V30 3296 C 310.405 2.93526 1.69199 0
M  V30 3297 C 308.964 3.04161 2.21727 0
M  V30 3298 C 308.111 2.57322 1.03348 0
M  V30 3299 H 311.062 1.58155 0.131431 0
M  V30 3300 H 311.083 2.82034 2.55416 0
M  V30 3301 H 310.595 3.75362 0.986144 0
M  V30 3302 H 308.696 2.26938 2.95516 0
M  V30 3303 H 308.809 4.09465 2.48748 0
M  V30 3304 H 307.173 2.12499 1.40414 0
M  V30 3305 H 307.956 3.41588 0.342428 0
M  V30 3306 N 310.401 -0.613514 1.45168 0
M  V30 3307 C 311.647 -1.37279 1.50087 0
M  V30 3308 C 312.002 -1.91902 0.138294 0
M  V30 3309 O 311.295 -1.71764 -0.84899 0
M  V30 3310 C 311.489 -2.54347 2.51083 0
M  V30 3311 C 311.318 -2.11186 3.97027 0
M  V30 3312 C 310.088 -1.97636 4.65046 0
M  V30 3313 C 312.286 -1.69016 4.85735 0
M  V30 3314 N 310.268 -1.48224 5.95737 0
M  V30 3315 C 311.639 -1.30976 6.06008 0
M  V30 3316 C 313.694 -1.56555 4.72647 0
M  V30 3317 C 312.397 -0.817197 7.14643 0
M  V30 3318 C 314.423 -1.08702 5.81324 0
M  V30 3319 C 313.785 -0.716233 7.00749 0
M  V30 3320 H 309.884 -0.496478 0.60418 0
M  V30 3321 H 312.468 -0.701988 1.81605 0
M  V30 3322 H 310.639 -3.19031 2.21527 0
M  V30 3323 H 312.371 -3.21208 2.46187 0
M  V30 3324 H 309.126 -2.18638 4.20112 0
M  V30 3325 H 309.55 -1.25767 6.65216 0
M  V30 3326 H 314.192 -1.83849 3.80736 0
M  V30 3327 H 311.91 -0.531797 8.06348 0
M  V30 3328 H 315.496 -0.994943 5.7323 0
M  V30 3329 H 314.376 -0.351642 7.83411 0
M  V30 3330 N 311.879 -1.3236 -0.855495 0
M  V30 3331 C 313.127 -1.22629 -1.60644 0
M  V30 3332 C 313.448 0.212136 -1.93843 0
M  V30 3333 O 312.718 1.13666 -1.59552 0
M  V30 3334 H 311.298 -0.450882 -0.595579 0
M  V30 3335 H 313.96 -1.65871 -1.02337 0
M  V30 3336 H 313.056 -1.80832 -2.54374 0
M  V30 3337 N 313.357 1.07166 -1.15556 0
M  V30 3338 C 314.582 1.84053 -0.955988 0
M  V30 3339 C 315.007 1.81586 0.490739 0
M  V30 3340 O 314.365 1.21018 1.34997 0
M  V30 3341 C 314.413 3.28957 -1.47714 0
M  V30 3342 O 313.517 4.06795 -0.677593 0
M  V30 3343 H 312.858 0.569842 -0.340847 0
M  V30 3344 H 315.388 1.35178 -1.53584 0
M  V30 3345 H 315.398 3.79788 -1.4908 0
M  V30 3346 H 314.073 3.30068 -2.53037 0
M  V30 3347 H 312.65 3.6561 -0.733721 0
M  V30 3348 N 314.835 0.952656 1.25548 0
M  V30 3349 C 316.251 0.656769 1.4546 0
M  V30 3350 C 316.451 -0.78633 1.85524 0
M  V30 3351 O 315.507 -1.56183 1.98402 0
M  V30 3352 C 316.82 1.62801 2.52817 0
M  V30 3353 C 318.368 1.63897 2.66659 0
M  V30 3354 C 318.843 2.5978 3.77198 0
M  V30 3355 N 320.334 2.58133 3.84606 0
M  V30 3356 C 321.069 3.29003 4.69621 0
M  V30 3357 N 320.565 4.09339 5.58939 0
M  V30 3358 N 322.358 3.179 4.63569 0
M  V30 3359 H 314.509 1.88526 0.978344 0
M  V30 3360 H 316.772 0.810815 0.491206 0
M  V30 3361 H 316.478 2.65869 2.30232 0
M  V30 3362 H 316.352 1.38898 3.50695 0
M  V30 3363 H 318.739 0.615481 2.8861 0
M  V30 3364 H 318.82 1.91858 1.69187 0
M  V30 3365 H 318.464 3.62254 3.55997 0
M  V30 3366 H 318.394 2.29105 4.7415 0
M  V30 3367 H 320.885 1.99809 3.20757 0
M  V30 3368 H 321.198 4.6034 6.20731 0
M  V30 3369 H 319.543 4.13438 5.58654 0
M  V30 3370 H 322.734 2.54612 3.92798 0
M  V30 3371 H 322.907 3.73398 5.29602 0
M  V30 3372 N 316.313 -1.40141 0.720998 0
M  V30 3373 C 317.276 -2.29058 0.0805834 0
M  V30 3374 C 318.276 -1.45632 -0.681758 0
M  V30 3375 O 319.466 -1.6648 -0.512856 0
M  V30 3376 C 316.598 -3.28925 -0.895593 0
M  V30 3377 H 317.791 -2.87191 0.863793 0
M  V30 3378 H 315.344 -1.48553 0.485975 0
M  V30 3379 H 316.079 -2.75822 -1.70566 0
M  V30 3380 H 315.864 -3.90519 -0.351766 0
M  V30 3381 H 317.354 -3.95494 -1.34069 0
M  V30 3382 N 317.792 -0.46758 -1.50504 0
M  V30 3383 C 319.022 0.086288 -2.0642 0
M  V30 3384 C 319.43 1.34369 -1.33197 0
M  V30 3385 O 318.773 1.79431 -0.393747 0
M  V30 3386 C 318.835 0.443846 -3.5675 0
M  V30 3387 C 318.499 -0.711035 -4.51435 0
M  V30 3388 C 319.496 -1.59205 -4.94924 0
M  V30 3389 C 317.181 -0.900363 -4.94165 0
M  V30 3390 C 319.175 -2.64683 -5.79846 0
M  V30 3391 C 316.862 -1.95837 -5.7887 0
M  V30 3392 C 317.86 -2.82997 -6.21612 0
M  V30 3393 O 317.548 -3.86977 -7.0463 0
M  V30 3394 H 317.28 -0.00217814 -0.675996 0
M  V30 3395 H 319.834 -0.654346 -1.94698 0
M  V30 3396 H 318.064 1.23762 -3.6636 0
M  V30 3397 H 319.753 0.932386 -3.95046 0
M  V30 3398 H 320.519 -1.45745 -4.62583 0
M  V30 3399 H 316.398 -0.231427 -4.60419 0
M  V30 3400 H 319.942 -3.32745 -6.13128 0
M  V30 3401 H 315.839 -2.09305 -6.10624 0
M  V30 3402 H 316.607 -3.83923 -7.22873 0
M  V30 3403 N 319.27 1.56325 -0.20005 0
M  V30 3404 C 320.516 1.98012 0.438059 0
M  V30 3405 C 320.849 1.08702 1.60927 0
M  V30 3406 O 320.124 0.140064 1.93995 0
M  V30 3407 C 320.407 3.48841 0.893419 0
M  V30 3408 C 320.26 4.48928 -0.279947 0
M  V30 3409 C 321.579 4.03498 1.75719 0
M  V30 3410 H 318.698 0.719918 0.157757 0
M  V30 3411 H 321.34 1.87743 -0.291968 0
M  V30 3412 H 319.49 3.57723 1.51547 0
M  V30 3413 H 321.162 4.52079 -0.91772 0
M  V30 3414 H 319.405 4.23694 -0.930919 0
M  V30 3415 H 320.076 5.5194 0.0812601 0
M  V30 3416 H 322.552 3.97427 1.23253 0
M  V30 3417 H 321.428 5.09393 2.04476 0
M  V30 3418 H 321.689 3.4906 2.71311 0
M  V30 3419 N 320.748 -0.0735177 1.57428 0
M  V30 3420 C 321.976 -0.785969 1.9139 0
M  V30 3421 C 322.391 -1.71207 0.795847 0
M  V30 3422 O 321.748 -1.81033 -0.230915 0
M  V30 3423 C 321.799 -1.58107 3.25091 0
M  V30 3424 O 321.52 -0.6922 4.32597 0
M  V30 3425 C 323.021 -2.39467 3.73055 0
M  V30 3426 H 320.241 -0.223558 0.632663 0
M  V30 3427 H 322.785 -0.044302 2.04452 0
M  V30 3428 H 320.94 -2.27503 3.13562 0
M  V30 3429 H 321.354 -1.24504 5.09508 0
M  V30 3430 H 322.828 -2.90716 4.69242 0
M  V30 3431 H 323.305 -3.18913 3.01979 0
M  V30 3432 H 323.911 -1.7523 3.87523 0
M  V30 3433 N 322.226 -1.5378 -0.344866 0
M  V30 3434 C 323.472 -1.72158 -1.0832 0
M  V30 3435 C 323.827 -0.478218 -1.86362 0
M  V30 3436 O 323.12 0.529152 -1.84148 0
M  V30 3437 C 323.314 -2.92407 -2.05506 0
M  V30 3438 C 323.143 -4.28318 -1.37017 0
M  V30 3439 C 321.913 -4.92832 -1.11558 0
M  V30 3440 C 324.111 -5.08086 -0.797071 0
M  V30 3441 N 322.093 -6.12619 -0.396358 0
M  V30 3442 C 323.464 -6.1965 -0.208336 0
M  V30 3443 C 325.519 -4.92986 -0.697787 0
M  V30 3444 C 324.222 -7.17763 0.470023 0
M  V30 3445 C 326.248 -5.91391 -0.033171 0
M  V30 3446 C 325.61 -7.02292 0.544599 0
M  V30 3447 H 321.709 -0.683017 -0.380805 0
M  V30 3448 H 324.293 -1.91211 -0.366961 0
M  V30 3449 H 322.464 -2.74857 -2.74423 0
M  V30 3450 H 324.196 -2.9951 -2.72169 0
M  V30 3451 H 320.951 -4.52362 -1.40234 0
M  V30 3452 H 321.375 -6.7698 -0.0515119 0
M  V30 3453 H 326.017 -4.07414 -1.13022 0
M  V30 3454 H 323.735 -8.0291 0.914351 0
M  V30 3455 H 327.321 -5.81784 0.0430009 0
M  V30 3456 H 326.201 -7.77129 1.05073 0
M  V30 3457 N 323.704 0.605807 -1.45491 0
M  V30 3458 C 324.637 1.73022 -1.48791 0
M  V30 3459 C 325.615 1.58917 -0.344112 0
M  V30 3460 O 326.799 1.80453 -0.544876 0
M  V30 3461 C 323.926 3.10865 -1.34463 0
M  V30 3462 C 322.972 3.43554 -2.5273 0
M  V30 3463 S 323.805 3.38196 -4.15191 0
M  V30 3464 C 324.961 4.78616 -4.03333 0
M  V30 3465 H 325.194 1.69961 -2.43928 0
M  V30 3466 H 322.727 0.782611 -1.33096 0
M  V30 3467 H 324.685 3.90398 -1.26884 0
M  V30 3468 H 323.346 3.1144 -0.40794 0
M  V30 3469 H 322.539 4.43924 -2.38637 0
M  V30 3470 H 322.141 2.71541 -2.5718 0
M  V30 3471 H 324.433 5.68463 -3.68587 0
M  V30 3472 H 325.376 4.97767 -5.03621 0
M  V30 3473 H 325.784 4.54381 -3.34959 0
M  V30 3474 N 325.182 1.32811 0.848464 0
M  V30 3475 C 326.41 1.26739 1.63538 0
M  V30 3476 C 326.825 -0.163484 1.88091 0
M  V30 3477 O 326.182 -1.10258 1.45429 0
M  V30 3478 C 326.233 2.03013 2.99112 0
M  V30 3479 O 325.954 3.40518 2.75643 0
M  V30 3480 C 327.455 2.04038 3.93552 0
M  V30 3481 H 324.675 0.437024 0.509167 0
M  V30 3482 H 327.219 1.75033 1.05753 0
M  V30 3483 H 325.374 1.58426 3.53525 0
M  V30 3484 H 325.788 3.79635 3.61908 0
M  V30 3485 H 327.262 2.61877 4.85926 0
M  V30 3486 H 327.739 1.0282 4.26995 0
M  V30 3487 H 328.345 2.486 3.45077 0
M  V30 3488 N 326.66 -1.06551 1.16123 0
M  V30 3489 C 327.908 -1.78947 0.939267 0
M  V30 3490 C 328.229 -1.87532 -0.534476 0
M  V30 3491 O 327.499 -1.38211 -1.38833 0
M  V30 3492 H 326.079 -0.662807 0.344523 0
M  V30 3493 H 328.741 -1.28725 1.46342 0
M  V30 3494 H 327.837 -2.81117 1.35572 0
M  V30 3495 N 328.138 -0.959301 -1.25041 0
M  V30 3496 C 329.386 -0.615393 -1.92503 0
M  V30 3497 C 329.707 0.850969 -1.75452 0
M  V30 3498 O 328.977 1.60658 -1.12098 0
M  V30 3499 H 327.557 -0.224613 -0.712431 0
M  V30 3500 H 330.219 -1.21855 -1.5211 0
M  V30 3501 H 329.315 -0.848738 -3.00338 0
M  V30 3502 N 329.616 1.39756 -0.72842 0
M  V30 3503 C 330.865 1.99879 -0.270407 0
M  V30 3504 C 331.178 1.58449 1.14688 0
M  V30 3505 O 332.384 2.11362 1.70407 0
M  V30 3506 C 330.84 3.57292 -0.43252 0
M  V30 3507 C 330.448 4.07688 -1.85727 0
M  V30 3508 C 332.192 4.24485 -0.0359507 0
M  V30 3509 C 330.099 5.5765 -1.96928 0
M  V30 3510 H 329.029 0.747689 -0.0973472 0
M  V30 3511 H 331.68 1.59837 -0.901355 0
M  V30 3512 H 330.062 3.95097 0.267219 0
M  V30 3513 H 331.236 3.81231 -2.58843 0
M  V30 3514 H 329.551 3.53135 -2.20646 0
M  V30 3515 H 332.148 5.34609 -0.0987484 0
M  V30 3516 H 332.491 4.03915 1.00787 0
M  V30 3517 H 333.024 3.9183 -0.686604 0
M  V30 3518 H 329.763 5.8309 -2.99476 0
M  V30 3519 H 329.283 5.8593 -1.28241 0
M  V30 3520 H 330.962 6.22957 -1.74737 0
M  V30 3521 N 331.094 0.475555 1.50254 0
M  V30 3522 C 332.341 -0.0778919 2.0235 0
M  V30 3523 C 332.669 -1.39319 1.35722 0
M  V30 3524 O 331.924 -1.89888 0.473395 0
M  V30 3525 C 332.223 -0.305114 3.56095 0
M  V30 3526 C 331.889 0.92903 4.41225 0
M  V30 3527 C 330.551 1.26739 4.6421 0
M  V30 3528 C 332.903 1.75054 4.90923 0
M  V30 3529 C 330.231 2.42724 5.34137 0
M  V30 3530 C 332.583 2.9017 5.62125 0
M  V30 3531 C 331.247 3.24416 5.83362 0
M  V30 3532 H 330.517 -0.0285027 0.740452 0
M  V30 3533 H 333.164 0.630543 1.80821 0
M  V30 3534 H 331.469 -1.09584 3.76163 0
M  V30 3535 H 333.166 -0.747377 3.93974 0
M  V30 3536 H 329.756 0.655428 4.23559 0
M  V30 3537 H 333.94 1.50231 4.73016 0
M  V30 3538 H 329.196 2.69525 5.48786 0
M  V30 3539 H 333.37 3.54169 5.99614 0
M  V30 3540 H 330.997 4.14396 6.37323 0
M  V30 3541 N 332.573 -1.56217 0.208337 0
M  V30 3542 C 333.819 -1.98242 -0.427552 0
M  V30 3543 C 334.152 -1.09554 -1.60348 0
M  V30 3544 O 333.427 -0.15035 -1.93918 0
M  V30 3545 C 333.71 -3.4931 -0.874907 0
M  V30 3546 C 333.563 -4.48773 0.303751 0
M  V30 3547 C 334.882 -4.04424 -1.73577 0
M  V30 3548 H 332.001 -0.720744 -0.153936 0
M  V30 3549 H 334.643 -1.87586 0.30192 0
M  V30 3550 H 332.793 -3.58522 -1.49648 0
M  V30 3551 H 334.465 -4.51586 0.941682 0
M  V30 3552 H 332.708 -4.23194 0.953375 0
M  V30 3553 H 333.379 -5.51976 -0.0519883 0
M  V30 3554 H 335.855 -3.98075 -1.21143 0
M  V30 3555 H 334.731 -5.1047 -2.01771 0
M  V30 3556 H 334.992 -3.50494 -2.69456 0
M  V30 3557 N 334.051 0.0651679 -1.57465 0
M  V30 3558 C 335.014 1.06117 -2.03155 0
M  V30 3559 C 336.014 1.31204 -0.929632 0
M  V30 3560 O 337.204 1.26813 -1.19432 0
M  V30 3561 C 334.336 2.4032 -2.41783 0
M  V30 3562 H 335.529 0.667231 -2.92383 0
M  V30 3563 H 333.082 0.311075 -1.53173 0
M  V30 3564 H 333.817 2.84532 -1.55601 0
M  V30 3565 H 333.602 2.23451 -3.22199 0
M  V30 3566 H 335.092 3.11898 -2.77685 0
M  V30 3567 N 335.529 1.53961 0.336706 0
M  V30 3568 C 336.94 1.62914 0.911925 0
M  V30 3569 C 337.291 0.514795 1.89326 0
M  V30 3570 O 336.416 -0.354395 2.13478 0
M  V30 3571 C 337.011 2.95304 1.66076 0
M  V30 3572 C 335.57 3.06496 2.18489 0
M  V30 3573 C 334.717 2.58403 1.00613 0
M  V30 3574 H 337.668 1.58285 0.114649 0
M  V30 3575 H 337.689 2.84727 2.5241 0
M  V30 3576 H 337.201 3.76387 0.946276 0
M  V30 3577 H 335.302 2.3006 2.93092 0
M  V30 3578 H 335.415 4.1208 2.44391 0
M  V30 3579 H 333.779 2.13977 1.38152 0
M  V30 3580 H 334.562 3.41932 0.306179 0
M  V30 3581 N 337.007 -0.598083 1.45811 0
M  V30 3582 C 338.253 -1.35882 1.50545 0
M  V30 3583 C 338.586 -1.93616 0.150445 0
M  V30 3584 O 337.861 -1.75604 -0.83628 0
M  V30 3585 C 338.144 -2.49966 2.59208 0
M  V30 3586 C 337.997 -1.97367 4.04186 0
M  V30 3587 C 339.316 -3.52068 2.64076 0
M  V30 3588 H 336.435 -0.492717 0.548087 0
M  V30 3589 H 339.077 -0.673319 1.77669 0
M  V30 3590 H 337.227 -3.08443 2.3621 0
M  V30 3591 H 338.899 -1.43466 4.38423 0
M  V30 3592 H 337.142 -1.283 4.14393 0
M  V30 3593 H 337.813 -2.79649 4.75921 0
M  V30 3594 H 340.289 -3.03448 2.84708 0
M  V30 3595 H 339.165 -4.2937 3.41954 0
M  V30 3596 H 339.426 -4.08304 1.69531 0
M  V30 3597 N 338.485 -1.33259 -0.841409 0
M  V30 3598 C 339.731 -1.24757 -1.59886 0
M  V30 3599 C 340.064 0.186913 -1.93298 0
M  V30 3600 O 339.339 1.12757 -1.5848 0
M  V30 3601 C 339.622 -2.12036 -2.91055 0
M  V30 3602 C 339.475 -3.63929 -2.6434 0
M  V30 3603 C 340.794 -1.9916 -3.92458 0
M  V30 3604 H 337.913 -0.454542 -0.580138 0
M  V30 3605 H 340.555 -1.63335 -0.970647 0
M  V30 3606 H 338.705 -1.79265 -3.44669 0
M  V30 3607 H 340.377 -4.06978 -2.17178 0
M  V30 3608 H 338.62 -3.85935 -1.98082 0
M  V30 3609 H 339.291 -4.20341 -3.57796 0
M  V30 3610 H 341.767 -2.27895 -3.48143 0
M  V30 3611 H 340.643 -2.62484 -4.82072 0
M  V30 3612 H 340.904 -0.963082 -4.31482 0
M  V30 3613 N 339.963 1.05934 -1.16686 0
M  V30 3614 C 341.212 1.78188 -0.945085 0
M  V30 3615 C 341.525 1.88338 0.528021 0
M  V30 3616 O 342.731 2.57258 0.867799 0
M  V30 3617 C 341.187 3.20277 -1.64167 0
M  V30 3618 C 340.795 3.18281 -3.15279 0
M  V30 3619 C 342.539 3.97039 -1.502 0
M  V30 3620 C 340.446 4.55112 -3.7766 0
M  V30 3621 H 339.376 0.667866 -0.349959 0
M  V30 3622 H 342.027 1.18794 -1.39858 0
M  V30 3623 H 340.409 3.79952 -1.11589 0
M  V30 3624 H 341.583 2.68167 -3.74731 0
M  V30 3625 H 339.898 2.55018 -3.29173 0
M  V30 3626 H 342.495 4.98194 -1.94183 0
M  V30 3627 H 342.838 4.13845 -0.451461 0
M  V30 3628 H 343.371 3.43894 -1.99954 0
M  V30 3629 H 340.11 4.43512 -4.82677 0
M  V30 3630 H 339.63 5.05406 -3.22994 0
M  V30 3631 H 341.309 5.24064 -3.79428 0
M  V30 3632 N 341.441 0.965919 1.2453 0
M  V30 3633 C 342.371 0.513476 2.27784 0
M  V30 3634 C 343.352 -0.445974 1.6415 0
M  V30 3635 O 344.537 -0.342485 1.91156 0
M  V30 3636 C 341.667 -0.198839 3.4673 0
M  V30 3637 C 340.621 0.676456 4.2262 0
M  V30 3638 C 339.947 -0.167248 5.34438 0
M  V30 3639 C 341.247 1.96017 4.84123 0
M  V30 3640 H 342.941 1.3765 2.65881 0
M  V30 3641 H 340.487 0.663321 1.27813 0
M  V30 3642 H 342.44 -0.526567 4.18097 0
M  V30 3643 H 341.164 -1.0962 3.07654 0
M  V30 3644 H 339.823 0.98743 3.53052 0
M  V30 3645 H 339.471 -1.0647 4.91603 0
M  V30 3646 H 339.171 0.415181 5.86131 0
M  V30 3647 H 340.695 -0.489688 6.08633 0
M  V30 3648 H 342.109 1.69814 5.47573 0
M  V30 3649 H 340.506 2.48918 5.4604 0
M  V30 3650 H 341.576 2.65622 4.05676 0
M  V30 3651 N 342.919 -1.39368 0.735821 0
M  V30 3652 C 344.167 -2.00101 0.283562 0
M  V30 3653 C 344.488 -1.5868 -1.13338 0
M  V30 3654 O 343.758 -0.835423 -1.77193 0
M  V30 3655 H 342.338 -0.740024 0.101851 0
M  V30 3656 H 345 -1.70404 0.945962 0
M  V30 3657 H 344.096 -3.10323 0.332604 0
M  V30 3658 N 344.397 -0.483516 -1.5 0
M  V30 3659 C 345.625 0.0644831 -2.06799 0
M  V30 3660 C 346.04 1.32399 -1.34596 0
M  V30 3661 O 345.397 1.77626 -0.418946 0
M  V30 3662 C 345.448 0.339927 -3.59898 0
M  V30 3663 O 345.169 -0.869635 -4.29382 0
M  V30 3664 C 346.67 0.933515 -4.33359 0
M  V30 3665 H 343.89 -0.0126333 -0.670881 0
M  V30 3666 H 346.434 -0.675864 -1.93009 0
M  V30 3667 H 344.589 1.03022 -3.7345 0
M  V30 3668 H 345.003 -0.62179 -5.20801 0
M  V30 3669 H 346.477 1.07593 -5.41413 0
M  V30 3670 H 346.954 1.92685 -3.94676 0
M  V30 3671 H 347.56 0.281221 -4.24369 0
M  V30 3672 N 345.875 1.56104 -0.216619 0
M  V30 3673 C 347.115 2.00074 0.418322 0
M  V30 3674 C 347.479 1.10098 1.57297 0
M  V30 3675 O 348.68 1.43393 2.27359 0
M  V30 3676 C 346.951 3.47231 0.846477 0
M  V30 3677 S 348.51 4.13223 1.47622 0
M  V30 3678 H 345.328 0.698457 0.132962 0
M  V30 3679 H 347.93 1.92784 -0.324748 0
M  V30 3680 H 346.634 4.104 -0.0036319 0
M  V30 3681 H 346.165 3.58384 1.62248 0
M  V30 3682 H 348.18 4.12005 2.76526 0
M  V30 3683 N 347.353 -0.0568162 1.57498 0
M  V30 3684 C 348.583 -0.764515 1.91934 0
M  V30 3685 C 348.991 -1.70877 0.81227 0
M  V30 3686 O 348.334 -1.82351 -0.222213 0
M  V30 3687 C 348.396 -1.5994 3.21962 0
M  V30 3688 C 348.06 -0.822925 4.4953 0
M  V30 3689 C 349.057 -0.135464 5.19723 0
M  V30 3690 C 346.742 -0.785666 4.96117 0
M  V30 3691 C 348.736 0.578861 6.34766 0
M  V30 3692 C 346.423 -0.0675784 6.11063 0
M  V30 3693 C 347.421 0.613471 6.80239 0
M  V30 3694 O 347.109 1.31996 7.92989 0
M  V30 3695 H 346.841 -0.221647 0.63863 0
M  V30 3696 H 349.395 -0.0268218 2.05382 0
M  V30 3697 H 347.625 -2.38026 3.04763 0
M  V30 3698 H 349.314 -2.18715 3.41934 0
M  V30 3699 H 350.08 -0.155458 4.84751 0
M  V30 3700 H 345.959 -1.30524 4.42136 0
M  V30 3701 H 349.503 1.111 6.88696 0
M  V30 3702 H 345.4 -0.0455636 6.45484 0
M  V30 3703 H 346.168 1.23077 8.09194 0
M  V30 3704 N 348.832 -1.54138 -0.328536 0
M  V30 3705 C 350.08 -1.71765 -1.06496 0
M  V30 3706 C 350.401 -0.49149 -1.88704 0
M  V30 3707 O 349.671 0.494539 -1.89555 0
M  V30 3708 H 348.251 -0.633295 -0.396164 0
M  V30 3709 H 350.913 -1.91429 -0.366176 0
M  V30 3710 H 350.009 -2.5951 -1.73381 0
M  V30 3711 N 350.31 0.590341 -1.46126 0
M  V30 3712 C 351.557 1.34882 -1.5104 0
M  V30 3713 C 351.885 1.93849 -0.159021 0
M  V30 3714 O 351.14 1.76544 0.844436 0
M  V30 3715 C 351.439 2.5032 -2.55097 0
M  V30 3716 C 351.105 2.09394 -3.99331 0
M  V30 3717 C 349.767 1.97947 -4.38601 0
M  V30 3718 C 352.119 1.77712 -4.89967 0
M  V30 3719 C 349.447 1.53065 -5.66381 0
M  V30 3720 C 351.799 1.34312 -6.18177 0
M  V30 3721 C 350.463 1.21436 -6.56361 0
M  V30 3722 H 349.733 0.493568 -0.552695 0
M  V30 3723 H 352.38 0.665539 -1.79563 0
M  V30 3724 H 350.685 3.24062 -2.20207 0
M  V30 3725 H 352.382 3.08541 -2.56132 0
M  V30 3726 H 348.972 2.19235 -3.68285 0
M  V30 3727 H 353.156 1.85445 -4.60352 0
M  V30 3728 H 348.412 1.41733 -5.94745 0
M  V30 3729 H 352.586 1.08849 -6.87841 0
M  V30 3730 H 350.213 0.864345 -7.5527 0
M  V30 3731 N 351.788 1.33704 0.83433 0
M  V30 3732 C 353.037 1.24763 1.58484 0
M  V30 3733 C 353.35 -0.183775 1.94735 0
M  V30 3734 O 354.556 -0.395234 2.68608 0
M  V30 3735 C 353.012 2.18638 2.85876 0
M  V30 3736 C 352.62 3.66974 2.56971 0
M  V30 3737 C 354.364 2.18581 3.63899 0
M  V30 3738 C 352.271 4.5275 3.80488 0
M  V30 3739 H 351.201 0.463425 0.594772 0
M  V30 3740 H 353.852 1.58797 0.919551 0
M  V30 3741 H 352.234 1.77542 3.5397 0
M  V30 3742 H 353.408 4.16538 1.9706 0
M  V30 3743 H 351.723 3.69366 1.92244 0
M  V30 3744 H 354.32 2.79894 4.55591 0
M  V30 3745 H 354.663 1.18207 3.99165 0
M  V30 3746 H 355.196 2.58062 3.02735 0
M  V30 3747 H 351.935 5.54017 3.5035 0
M  V30 3748 H 351.455 4.07927 4.39722 0
M  V30 3749 H 353.134 4.66784 4.4802 0
M  V30 3750 N 353.266 -1.05314 1.17247 0
M  V30 3751 C 354.506 -1.79869 0.970898 0
M  V30 3752 C 354.87 -1.85594 -0.491808 0
M  V30 3753 O 356.071 -2.56229 -0.812409 0
M  V30 3754 C 354.342 -3.19937 1.59295 0
M  V30 3755 S 355.901 -4.10986 1.53741 0
M  V30 3756 H 352.719 -0.61949 0.348931 0
M  V30 3757 H 355.321 -1.26368 1.49169 0
M  V30 3758 H 354.025 -3.13372 2.65003 0
M  V30 3759 H 353.556 -3.78515 1.07191 0
M  V30 3760 H 355.571 -4.93203 0.544537 0
M  V30 3761 N 354.744 -0.972509 -1.24016 0
M  V30 3762 C 355.974 -0.653853 -1.9598 0
M  V30 3763 C 356.382 0.781801 -1.72292 0
M  V30 3764 O 355.725 1.53677 -1.00644 0
M  V30 3765 C 355.787 -0.854608 -3.49194 0
M  V30 3766 C 355.451 -2.27082 -3.96589 0
M  V30 3767 C 356.448 -3.24892 -4.05883 0
M  V30 3768 C 354.133 -2.5998 -4.29786 0
M  V30 3769 C 356.127 -4.53684 -4.47716 0
M  V30 3770 C 353.814 -3.88997 -4.71301 0
M  V30 3771 C 354.812 -4.85661 -4.80232 0
M  V30 3772 O 354.5 -6.12376 -5.20818 0
M  V30 3773 H 354.232 -0.242572 -0.630979 0
M  V30 3774 H 356.786 -1.30431 -1.58673 0
M  V30 3775 H 355.016 -0.146985 -3.86421 0
M  V30 3776 H 356.705 -0.534311 -4.02368 0
M  V30 3777 H 357.471 -3.00805 -3.80449 0
M  V30 3778 H 353.35 -1.85457 -4.22051 0
M  V30 3779 H 356.894 -5.29135 -4.54601 0
M  V30 3780 H 352.791 -4.12882 -4.96184 0
M  V30 3781 H 353.559 -6.16013 -5.38953 0
M  V30 3782 N 356.222 1.38976 -0.743202 0
M  V30 3783 C 357.17 2.32394 -0.0978389 0
M  V30 3784 C 358.164 1.53486 0.716824 0
M  V30 3785 O 359.37 1.69092 0.617088 0
M  V30 3786 H 355.745 0.75189 -0.0128402 0
M  V30 3787 H 357.716 2.84441 -0.901981 0
M  V30 3788 C 356.465 3.38629 0.789036 0
M  V30 3789 H 355.788 3.99432 0.171559 0
M  V30 3790 H 357.228 4.06426 1.20807 0
M  V30 3791 C 355.687 2.76347 1.92702 0
M  V30 3792 O 356.217 2.64836 3.02034 0
M  V30 3793 N 354.423 2.34311 1.71891 0
M  V30 3794 H 353.97 2.43873 0.829675 0
M  V30 3795 H 353.928 1.9298 2.48205 0
M  V30 3796 N 357.7 0.491464 1.49741 0
M  V30 3797 C 358.949 -0.0582189 2.01616 0
M  V30 3798 C 359.262 -1.38927 1.3769 0
M  V30 3799 O 360.468 -2.02509 1.80838 0
M  V30 3800 C 358.924 -0.154235 3.59569 0
M  V30 3801 C 358.532 1.1696 4.32463 0
M  V30 3802 C 360.276 -0.65479 4.1942 0
M  V30 3803 C 358.183 1.03627 5.8225 0
M  V30 3804 H 357.113 -0.0255317 0.753568 0
M  V30 3805 H 359.764 0.629445 1.72367 0
M  V30 3806 H 358.146 -0.906138 3.85493 0
M  V30 3807 H 359.32 1.93405 4.18248 0
M  V30 3808 H 357.635 1.60285 3.84315 0
M  V30 3809 H 360.232 -0.771903 5.29099 0
M  V30 3810 H 360.575 -1.65127 3.8215 0
M  V30 3811 H 361.108 0.040304 3.9778 0
M  V30 3812 H 357.847 2.00672 6.24028 0
M  V30 3813 H 357.367 0.312546 5.98985 0
M  V30 3814 H 359.046 0.711114 6.4308 0
M  V30 3815 N 359.178 -1.55987 0.224894 0
M  V30 3816 C 360.424 -1.99433 -0.39973 0
M  V30 3817 C 360.779 -1.11004 -1.57149 0
M  V30 3818 O 360.072 -0.160725 -1.90925 0
M  V30 3819 C 360.266 -3.46394 -0.880106 0
M  V30 3820 C 360.095 -4.4904 0.243565 0
M  V30 3821 C 358.865 -5.00272 0.711056 0
M  V30 3822 C 361.063 -5.03195 1.06299 0
M  V30 3823 N 359.045 -5.86628 1.80944 0
M  V30 3824 C 360.416 -5.86508 2.01017 0
M  V30 3825 C 362.471 -4.8555 1.10205 0
M  V30 3826 C 361.174 -6.54062 2.99324 0
M  V30 3827 C 363.2 -5.53866 2.07332 0
M  V30 3828 C 362.562 -6.3695 3.00789 0
M  V30 3829 H 358.661 -0.773815 -0.112847 0
M  V30 3830 H 361.245 -1.91754 0.337432 0
M  V30 3831 H 359.416 -3.54515 -1.58662 0
M  V30 3832 H 361.148 -3.76752 -1.47783 0
M  V30 3833 H 357.903 -4.72655 0.29906 0
M  V30 3834 H 358.327 -6.34507 2.36073 0
M  V30 3835 H 362.969 -4.20966 0.39343 0
M  V30 3836 H 360.687 -7.17827 3.71147 0
M  V30 3837 H 364.273 -5.42178 2.11032 0
M  V30 3838 H 363.153 -6.8888 3.74718 0
M  V30 3839 N 360.656 0.0484629 -1.57525 0
M  V30 3840 C 361.896 0.748196 -1.90214 0
M  V30 3841 C 362.26 1.73545 -0.821347 0
M  V30 3842 O 363.461 2.48201 -1.03198 0
M  V30 3843 C 361.732 1.41727 -3.28098 0
M  V30 3844 S 363.291 2.14884 -3.82584 0
M  V30 3845 H 360.109 0.248307 -0.666232 0
M  V30 3846 H 362.711 0.00343188 -1.955 0
M  V30 3847 H 361.415 0.685244 -4.04639 0
M  V30 3848 H 360.946 2.20099 -3.26068 0
M  V30 3849 H 362.961 3.41755 -3.59747 0
M  V30 3850 N 362.134 1.5431 0.320358 0
M  V30 3851 C 363.082 1.84647 1.4145 0
M  V30 3852 C 364.076 0.718624 1.53402 0
M  V30 3853 O 365.282 0.902335 1.5575 0
M  V30 3854 H 361.657 0.585349 0.472091 0
M  V30 3855 H 363.628 2.7614 1.13089 0
M  V30 3856 C 362.377 2.09341 2.77617 0
M  V30 3857 H 361.7 2.9559 2.69196 0
M  V30 3858 H 363.14 2.3452 3.53237 0
M  V30 3859 C 361.599 0.885939 3.25043 0
M  V30 3860 O 362.129 0.0967891 4.01583 0
M  V30 3861 N 360.335 0.696682 2.82125 0
M  V30 3862 H 359.882 1.34006 2.2 0
M  V30 3863 H 359.84 -0.109712 3.14209 0
M  V30 3864 N 363.613 -0.582584 1.46437 0
M  V30 3865 C 364.859 -1.34278 1.51978 0
M  V30 3866 C 365.192 -1.93446 0.170973 0
M  V30 3867 O 364.467 -1.76481 -0.817608 0
M  V30 3868 C 364.75 -2.47203 2.61845 0
M  V30 3869 C 364.603 -1.93069 4.06257 0
M  V30 3870 C 365.922 -3.49247 2.67795 0
M  V30 3871 H 363.041 -0.486876 0.553282 0
M  V30 3872 H 365.683 -0.654437 1.78374 0
M  V30 3873 H 363.833 -3.0592 2.39469 0
M  V30 3874 H 365.505 -1.38808 4.3992 0
M  V30 3875 H 363.748 -1.23898 4.1573 0
M  V30 3876 H 364.419 -2.74586 4.7886 0
M  V30 3877 H 366.895 -3.00411 2.8791 0
M  V30 3878 H 365.771 -4.25719 3.46489 0
M  V30 3879 H 366.032 -4.06482 1.73852 0
M  V30 3880 N 365.091 -1.34144 -0.827227 0
M  V30 3881 C 366.507 -1.13732 -1.11969 0
M  V30 3882 C 366.707 0.0640463 -2.01398 0
M  V30 3883 O 365.763 0.740856 -2.41387 0
M  V30 3884 C 367.076 -2.43047 -1.77055 0
M  V30 3885 C 368.624 -2.49063 -1.89569 0
M  V30 3886 C 369.099 -3.78369 -2.58072 0
M  V30 3887 N 370.59 -3.79505 -2.65575 0
M  V30 3888 C 371.325 -4.76274 -3.19297 0
M  V30 3889 N 370.821 -5.83424 -3.73616 0
M  V30 3890 N 372.614 -4.63735 -3.17658 0
M  V30 3891 H 364.765 -2.11126 -0.232296 0
M  V30 3892 H 367.028 -0.933424 -0.165602 0
M  V30 3893 H 366.734 -3.31025 -1.18807 0
M  V30 3894 H 366.608 -2.56066 -2.76966 0
M  V30 3895 H 368.995 -1.61527 -2.46968 0
M  V30 3896 H 369.076 -2.39975 -0.885745 0
M  V30 3897 H 368.72 -4.66293 -2.01329 0
M  V30 3898 H 368.65 -3.84737 -3.59562 0
M  V30 3899 H 371.141 -3.02074 -2.27068 0
M  V30 3900 H 371.454 -6.53282 -4.12846 0
M  V30 3901 H 369.799 -5.87143 -3.71871 0
M  V30 3902 H 372.99 -3.79177 -2.74486 0
M  V30 3903 H 373.163 -5.39318 -3.59221 0
M  V30 3904 N 366.569 1.04691 -1.17803 0
M  V30 3905 C 367.817 1.7743 -0.967617 0
M  V30 3906 C 368.138 1.88359 0.504574 0
M  V30 3907 O 367.408 1.40402 1.36617 0
M  V30 3908 H 365.988 0.657242 -0.355024 0
M  V30 3909 H 368.65 1.2638 -1.48371 0
M  V30 3910 H 367.746 2.78924 -1.40027 0
M  V30 3911 N 368.047 0.979072 1.23499 0
M  V30 3912 C 368.994 0.517904 2.24914 0
M  V30 3913 C 369.964 -0.442525 1.60097 0
M  V30 3914 O 371.149 -0.350365 1.87556 0
M  V30 3915 C 368.289 -0.174813 3.44657 0
M  V30 3916 C 367.402 0.825721 4.24035 0
M  V30 3917 C 366.537 0.107946 5.3109 0
M  V30 3918 C 365.576 1.09778 6.02175 0
M  V30 3919 N 364.713 0.40925 7.00906 0
M  V30 3920 H 369.553 1.38751 2.63727 0
M  V30 3921 H 367.09 0.695303 1.2963 0
M  V30 3922 H 369.048 -0.593233 4.12961 0
M  V30 3923 H 367.678 -1.0083 3.06648 0
M  V30 3924 H 366.73 1.36253 3.55161 0
M  V30 3925 H 368.042 1.58005 4.73113 0
M  V30 3926 H 367.196 -0.367904 6.05583 0
M  V30 3927 H 365.935 -0.678994 4.8295 0
M  V30 3928 H 364.94 1.5844 5.26476 0
M  V30 3929 H 366.165 1.88536 6.52404 0
M  V30 3930 H 364.111 -0.358506 6.5502 0
M  V30 3931 H 364.028 1.10226 7.47921 0
M  V30 3932 H 365.296 -0.0442557 7.79487 0
M  V30 3933 N 369.525 -1.3858 0.750561 0
M  V30 3934 C 370.753 -2.04471 0.316098 0
M  V30 3935 C 371.168 -1.56606 -1.05452 0
M  V30 3936 O 370.525 -0.737784 -1.66922 0
M  V30 3937 C 370.576 -3.60025 0.326275 0
M  V30 3938 O 370.297 -4.06133 1.6428 0
M  V30 3939 C 371.798 -4.43131 -0.122429 0
M  V30 3940 H 369.018 -0.65717 0.135528 0
M  V30 3941 H 371.562 -1.77329 1.01857 0
M  V30 3942 H 369.717 -3.86014 -0.327431 0
M  V30 3943 H 370.131 -5.00547 1.56693 0
M  V30 3944 H 371.605 -5.51963 -0.0641473 0
M  V30 3945 H 372.082 -4.23333 -1.16988 0
M  V30 3946 H 372.688 -4.22323 0.50229 0
M  V30 3947 N 371.003 -0.499398 -1.49478 0
M  V30 3948 C 371.966 0.268838 -2.27618 0
M  V30 3949 C 372.966 0.895383 -1.33565 0
M  V30 3950 O 374.156 0.760164 -1.56739 0
M  V30 3951 C 371.288 1.38559 -3.11471 0
M  V30 3952 H 372.481 -0.416812 -2.96989 0
M  V30 3953 H 370.034 -0.254313 -1.54217 0
M  V30 3954 H 370.769 2.10544 -2.46661 0
M  V30 3955 H 370.554 0.941797 -3.80621 0
M  V30 3956 H 372.044 1.92678 -3.70493 0
M  V30 3957 N 372.481 1.55866 -0.233164 0
M  V30 3958 C 373.706 2.03449 0.402906 0
M  V30 3959 C 374.131 1.11166 1.51736 0
M  V30 3960 O 373.489 0.101996 1.81013 0
M  V30 3961 C 373.537 3.49165 0.9009 0
M  V30 3962 O 372.641 3.60019 2.01147 0
M  V30 3963 H 371.982 0.657913 0.0897025 0
M  V30 3964 H 374.512 2.01493 -0.355201 0
M  V30 3965 H 374.522 3.89716 1.2077 0
M  V30 3966 H 373.197 4.15813 0.0852889 0
M  V30 3967 H 371.774 3.3136 1.71042 0
M  V30 3968 N 373.959 -0.0401083 1.57549 0
M  V30 3969 C 375.375 -0.395556 1.54621 0
M  V30 3970 C 375.575 -1.77281 0.957799 0
M  V30 3971 O 374.631 -2.45888 0.574031 0
M  V30 3972 C 375.944 -0.307535 2.99123 0
M  V30 3973 C 377.492 -0.385425 3.10618 0
M  V30 3974 C 377.967 -0.326973 4.56831 0
M  V30 3975 N 379.458 -0.386102 4.61588 0
M  V30 3976 C 380.193 -0.363591 5.72246 0
M  V30 3977 N 379.689 -0.29402 6.92176 0
M  V30 3978 N 381.482 -0.412503 5.60584 0
M  V30 3979 H 373.633 0.861325 1.94152 0
M  V30 3980 H 375.896 0.326445 0.890021 0
M  V30 3981 H 375.602 0.638461 3.45856 0
M  V30 3982 H 375.476 -1.10552 3.60636 0
M  V30 3983 H 377.863 -1.32185 2.63839 0
M  V30 3984 H 377.944 0.44171 2.51957 0
M  V30 3985 H 377.588 0.605738 5.04275 0
M  V30 3986 H 377.518 -1.17207 5.13391 0
M  V30 3987 H 380.009 -0.442832 3.75296 0
M  V30 3988 H 380.322 -0.28164 7.72287 0
M  V30 3989 H 378.667 -0.260232 6.94513 0
M  V30 3990 H 381.858 -0.464769 4.65787 0
M  V30 3991 H 382.031 -0.391492 6.46816 0
M  V30 3992 N 375.437 -1.54477 -0.31217 0
M  V30 3993 C 376.369 -1.81011 -1.40598 0
M  V30 3994 C 377.382 -0.692546 -1.47335 0
M  V30 3995 O 378.571 -0.969847 -1.49854 0
M  V30 3996 C 375.671 -1.92307 -2.79054 0
M  V30 3997 C 374.844 -3.22594 -2.95384 0
M  V30 3998 C 373.903 -3.24448 -4.1427 0
M  V30 3999 O 372.929 -3.98035 -4.06887 0
M  V30 4000 N 374.131 -2.49042 -5.24365 0
M  V30 4001 H 376.896 -2.75408 -1.18196 0
M  V30 4002 H 374.457 -1.53914 -0.502202 0
M  V30 4003 H 376.449 -1.90962 -3.56813 0
M  V30 4004 H 375.019 -1.04955 -2.94454 0
M  V30 4005 H 374.239 -3.36806 -2.04831 0
M  V30 4006 H 375.527 -4.08593 -3.03198 0
M  V30 4007 H 374.925 -1.88867 -5.33241 0
M  V30 4008 H 373.482 -2.53463 -6.005 0
M  V30 4009 N 376.915 0.57481 -1.46744 0
M  V30 4010 C 378.14 1.36341 -1.56288 0
M  V30 4011 C 378.565 1.86954 -0.207347 0
M  V30 4012 O 377.923 1.62006 0.813871 0
M  V30 4013 C 377.971 2.52147 -2.57787 0
M  V30 4014 O 377.075 3.53834 -2.11838 0
M  V30 4015 H 376.416 0.405713 -0.525636 0
M  V30 4016 H 378.946 0.696453 -1.92382 0
M  V30 4017 H 378.956 2.98958 -2.77648 0
M  V30 4018 H 377.631 2.14663 -3.5622 0
M  V30 4019 H 376.208 3.1345 -2.01999 0
M  V30 4020 N 378.394 1.34581 0.820102 0
M  V30 4021 C 379.341 1.2639 1.93117 0
M  V30 4022 C 380.311 0.138554 1.65521 0
M  V30 4023 O 381.496 0.320004 1.88097 0
M  V30 4024 C 378.636 1.02812 3.29429 0
M  V30 4025 C 377.749 2.24146 3.693 0
M  V30 4026 C 376.884 1.93829 4.94574 0
M  V30 4027 C 375.923 3.1129 5.27034 0
M  V30 4028 N 375.06 2.80838 6.43486 0
M  V30 4029 H 379.9 2.21408 1.99455 0
M  V30 4030 H 377.437 1.10077 0.975784 0
M  V30 4031 H 379.395 0.871788 4.0799 0
M  V30 4032 H 378.025 0.114612 3.22596 0
M  V30 4033 H 377.077 2.50691 2.86109 0
M  V30 4034 H 378.389 3.11899 3.89257 0
M  V30 4035 H 377.543 1.74948 5.80929 0
M  V30 4036 H 376.282 1.03341 4.76626 0
M  V30 4037 H 375.287 3.30764 4.39175 0
M  V30 4038 H 376.512 4.02561 5.4692 0
M  V30 4039 H 374.458 1.92929 6.26988 0
M  V30 4040 H 374.375 3.62123 6.63629 0
M  V30 4041 H 375.643 2.65467 7.32903 0
M  V30 4042 N 379.872 -1.04064 1.18357 0
M  V30 4043 C 381.12 -1.76915 0.977013 0
M  V30 4044 C 381.441 -1.88624 -0.494577 0
M  V30 4045 O 380.711 -1.41125 -1.3587 0
M  V30 4046 H 379.291 -0.65535 0.358504 0
M  V30 4047 H 381.953 -1.25592 1.49039 0
M  V30 4048 H 381.049 -2.78178 1.41504 0
M  V30 4049 N 381.35 -0.985608 -1.22978 0
M  V30 4050 C 382.313 -0.535071 -2.22867 0
M  V30 4051 C 383.313 0.378123 -1.56291 0
M  V30 4052 O 384.503 0.171092 -1.73358 0
M  V30 4053 C 381.635 0.222702 -3.40172 0
M  V30 4054 H 382.828 -1.41835 -2.6424 0
M  V30 4055 H 380.381 -0.772042 -1.35901 0
M  V30 4056 H 381.116 1.12229 -3.04262 0
M  V30 4057 H 380.901 -0.43288 -3.89703 0
M  V30 4058 H 382.391 0.526335 -4.1427 0
M  V30 4059 N 382.828 1.3818 -0.7579 0
M  V30 4060 C 383.738 2.3421 -0.135247 0
M  V30 4061 C 384.754 1.59487 0.695683 0
M  V30 4062 O 385.93 1.91657 0.618832 0
M  V30 4063 C 382.995 3.3862 0.744139 0
M  V30 4064 C 382.056 4.2918 -0.101658 0
M  V30 4065 C 381.289 5.28603 0.735851 0
M  V30 4066 O 381.512 5.35166 1.97366 0
M  V30 4067 O 380.446 6.01707 0.152372 0
M  V30 4068 H 384.272 2.8916 -0.928436 0
M  V30 4069 H 381.857 1.40101 -0.518855 0
M  V30 4070 H 383.739 4.02539 1.2466 0
M  V30 4071 H 382.414 2.86019 1.51575 0
M  V30 4072 H 381.321 3.68407 -0.650167 0
M  V30 4073 H 382.654 4.85048 -0.836024 0
M  V30 4074 N 384.306 0.507319 1.49211 0
M  V30 4075 C 385.238 -0.304532 2.27168 0
M  V30 4076 C 386.251 -0.924956 1.33972 0
M  V30 4077 O 387.44 -0.807227 1.59205 0
M  V30 4078 C 384.54 -1.44431 3.06583 0
M  V30 4079 C 383.713 -0.930026 4.27398 0
M  V30 4080 C 382.772 -1.94817 4.88807 0
M  V30 4081 O 381.798 -1.51418 5.4869 0
M  V30 4082 N 383 -3.279 4.79022 0
M  V30 4083 H 385.765 0.36395 2.97482 0
M  V30 4084 H 383.326 0.340249 1.58284 0
M  V30 4085 H 385.318 -2.12311 3.44537 0
M  V30 4086 H 383.888 -2.01684 2.38835 0
M  V30 4087 H 383.108 -0.0759244 3.94127 0
M  V30 4088 H 384.396 -0.564932 5.05654 0
M  V30 4089 H 383.794 -3.65843 4.3148 0
M  V30 4090 H 382.351 -3.91476 5.21142 0
M  V30 4091 N 385.784 -1.5574 0.241426 0
M  V30 4092 C 386.747 -2.19877 -0.647063 0
M  V30 4093 C 387.747 -1.16642 -1.10686 0
M  V30 4094 O 388.937 -1.41757 -1.01245 0
M  V30 4095 C 386.069 -2.83797 -1.88871 0
M  V30 4096 H 387.262 -2.99772 -0.087574 0
M  V30 4097 H 384.815 -1.56298 -0.00813574 0
M  V30 4098 H 385.55 -2.07824 -2.48957 0
M  V30 4099 H 385.335 -3.59414 -1.56728 0
M  V30 4100 H 386.825 -3.32898 -2.52129 0
M  V30 4101 N 387.262 0.0317525 -1.57568 0
M  V30 4102 C 388.51 0.721676 -1.88776 0
M  V30 4103 C 388.831 1.76039 -0.838772 0
M  V30 4104 O 388.101 1.95482 0.127935 0
M  V30 4105 H 386.681 0.269534 -0.696678 0
M  V30 4106 H 389.343 -0.00165879 -1.949 0
M  V30 4107 H 388.439 1.21293 -2.87566 0
M  V30 4108 N 388.74 1.54641 0.303973 0
M  V30 4109 C 389.986 1.74038 1.04109 0
M  V30 4110 C 390.319 0.523051 1.87024 0
M  V30 4111 O 389.594 -0.479874 1.88487 0
M  V30 4112 C 389.877 3.02761 1.94955 0
M  V30 4113 C 389.73 4.34787 1.1524 0
M  V30 4114 C 391.049 3.27336 2.94175 0
M  V30 4115 H 388.168 0.63323 0.377079 0
M  V30 4116 H 390.81 1.87354 0.316001 0
M  V30 4117 H 388.96 2.9154 2.56782 0
M  V30 4118 H 390.632 4.57922 0.557236 0
M  V30 4119 H 388.875 4.31407 0.455053 0
M  V30 4120 H 389.546 5.21116 1.8205 0
M  V30 4121 H 392.022 3.38148 2.42477 0
M  V30 4122 H 390.898 4.18726 3.54908 0
M  V30 4123 H 391.159 2.45491 3.67677 0
M  V30 4124 N 390.218 -0.567019 1.47046 0
M  V30 4125 C 391.181 -1.65696 1.58359 0
M  V30 4126 C 392.181 -1.54097 0.459441 0
M  V30 4127 O 393.371 -1.58432 0.724225 0
M  V30 4128 C 390.503 -3.05197 1.51879 0
M  V30 4129 H 391.696 -1.57019 2.5551 0
M  V30 4130 H 389.249 -0.786148 1.3509 0
M  V30 4131 H 389.984 -3.19417 0.560673 0
M  V30 4132 H 389.769 -3.15025 2.33455 0
M  V30 4133 H 391.259 -3.84511 1.62913 0
M  V30 4134 N 391.696 -1.35014 -0.812953 0
M  V30 4135 C 392.943 -1.27931 -1.56971 0
M  V30 4136 C 393.271 0.148034 -1.93936 0
M  V30 4137 O 392.526 1.11175 -1.61054 0
M  V30 4138 C 392.825 -2.12524 -2.87347 0
M  V30 4139 C 392.491 -3.61401 -2.6963 0
M  V30 4140 C 391.153 -4.01983 -2.64506 0
M  V30 4141 C 393.505 -4.55894 -2.52607 0
M  V30 4142 C 390.833 -5.35235 -2.40293 0
M  V30 4143 C 393.185 -5.89336 -2.29925 0
M  V30 4144 C 391.849 -6.2907 -2.23219 0
M  V30 4145 H 391.119 -0.468131 -0.574399 0
M  V30 4146 H 393.766 -1.66851 -0.939836 0
M  V30 4147 H 392.071 -1.66463 -3.54679 0
M  V30 4148 H 393.768 -2.04383 -3.45005 0
M  V30 4149 H 390.358 -3.29193 -2.74463 0
M  V30 4150 H 394.542 -4.25431 -2.55583 0
M  V30 4151 H 389.798 -5.65028 -2.33566 0
M  V30 4152 H 393.972 -6.62139 -2.15743 0
M  V30 4153 H 391.599 -7.32256 -2.04219 0
M  V30 4154 N 393.175 1.03435 -1.18907 0
M  V30 4155 C 394.107 2.1165 -0.879595 0
M  V30 4156 C 395.12 1.62316 0.125439 0
M  V30 4157 O 396.309 1.78201 -0.103245 0
M  V30 4158 C 393.409 3.37622 -0.294042 0
M  V30 4159 C 392.582 4.16166 -1.34629 0
M  V30 4160 C 391.641 5.20457 -0.775274 0
M  V30 4161 O 390.667 5.50379 -1.4516 0
M  V30 4162 N 391.869 5.78949 0.424126 0
M  V30 4163 H 394.634 2.38791 -1.81105 0
M  V30 4164 H 392.195 1.19681 -1.09032 0
M  V30 4165 H 394.187 4.04572 0.101679 0
M  V30 4166 H 392.757 3.07873 0.541575 0
M  V30 4167 H 391.977 3.44444 -1.91707 0
M  V30 4168 H 393.265 4.65432 -2.05549 0
M  V30 4169 H 392.663 5.56948 0.991209 0
M  V30 4170 H 391.22 6.47334 0.761691 0
M  V30 4171 N 394.653 0.992116 1.22453 0
M  V30 4172 C 395.6 0.541731 2.24352 0
M  V30 4173 C 396.57 -0.425519 1.60557 0
M  V30 4174 O 397.755 -0.330453 1.87917 0
M  V30 4175 C 394.895 -0.138248 3.44823 0
M  V30 4176 C 394.008 0.870649 4.23136 0
M  V30 4177 C 393.143 0.164269 5.30946 0
M  V30 4178 C 392.182 1.16159 6.00977 0
M  V30 4179 N 391.319 0.483568 7.00433 0
M  V30 4180 H 396.159 1.41541 2.62241 0
M  V30 4181 H 393.696 0.709013 1.28885 0
M  V30 4182 H 395.654 -0.5494 4.13567 0
M  V30 4183 H 394.284 -0.975721 3.077 0
M  V30 4184 H 393.336 1.40013 3.53696 0
M  V30 4185 H 394.648 1.63014 4.7141 0
M  V30 4186 H 393.802 -0.303653 6.0594 0
M  V30 4187 H 392.541 -0.627733 4.83643 0
M  V30 4188 H 391.546 1.64015 5.24766 0
M  V30 4189 H 392.771 1.95445 6.50368 0
M  V30 4190 H 390.717 -0.289012 6.55363 0
M  V30 4191 H 390.634 1.18152 7.4671 0
M  V30 4192 H 391.902 0.0384219 7.79491 0
M  V30 4193 N 396.131 -1.37776 0.765217 0
M  V30 4194 C 397.379 -1.99454 0.325943 0
M  V30 4195 C 397.7 -1.61049 -1.09947 0
M  V30 4196 O 396.97 -0.872821 -1.75381 0
M  V30 4197 H 395.55 -0.737697 0.117525 0
M  V30 4198 H 398.212 -1.68359 0.981895 0
M  V30 4199 H 397.308 -3.09547 0.398353 0
M  V30 4200 N 397.609 -0.515225 -1.4894 0
M  V30 4201 C 398.856 0.024215 -2.02486 0
M  V30 4202 C 399.184 1.35671 -1.39368 0
M  V30 4203 O 398.439 1.88566 -0.523574 0
M  V30 4204 C 398.738 0.210595 -3.56779 0
M  V30 4205 C 398.404 -1.04569 -4.38607 0
M  V30 4206 C 397.066 -1.39002 -4.60686 0
M  V30 4207 C 399.418 -1.88008 -4.86109 0
M  V30 4208 C 396.746 -2.568 -5.27514 0
M  V30 4209 C 399.098 -3.04972 -5.54234 0
M  V30 4210 C 397.762 -3.39768 -5.74555 0
M  V30 4211 H 397.032 0.00886088 -0.740947 0
M  V30 4212 H 399.679 -0.678263 -1.79086 0
M  V30 4213 H 397.984 0.99572 -3.78936 0
M  V30 4214 H 399.681 0.642659 -3.95817 0
M  V30 4215 H 396.271 -0.767497 -4.21672 0
M  V30 4216 H 400.455 -1.62719 -4.68867 0
M  V30 4217 H 395.711 -2.8398 -5.41447 0
M  V30 4218 H 399.885 -3.69943 -5.90013 0
M  V30 4219 H 397.512 -4.31148 -6.26112 0
M  V30 4220 N 399.087 1.5561 -0.249682 0
M  V30 4221 C 400.017 2.24477 0.642826 0
M  V30 4222 C 400.998 1.22601 1.17911 0
M  V30 4223 O 402.183 1.5126 1.21795 0
M  V30 4224 C 399.313 2.94638 1.83863 0
M  V30 4225 C 398.267 4.03227 1.435 0
M  V30 4226 C 397.593 4.60828 2.71186 0
M  V30 4227 C 398.893 5.18796 0.604002 0
M  V30 4228 H 400.587 2.99321 0.0685625 0
M  V30 4229 H 398.133 1.43965 0.0315363 0
M  V30 4230 H 400.086 3.41517 2.46868 0
M  V30 4231 H 398.81 2.17287 2.43832 0
M  V30 4232 H 397.469 3.57121 0.828275 0
M  V30 4233 H 397.117 3.80174 3.29358 0
M  V30 4234 H 396.817 5.34132 2.44901 0
M  V30 4235 H 398.341 5.10442 3.35084 0
M  V30 4236 H 399.755 5.61883 1.13842 0
M  V30 4237 H 398.152 5.98506 0.437097 0
M  V30 4238 H 399.222 4.83384 -0.383147 0
M  V30 4239 N 400.565 -0.0233959 1.57583 0
M  V30 4240 C 401.495 -1.02162 2.09965 0
M  V30 4241 C 402.476 -1.3735 1.00344 0
M  V30 4242 O 403.661 -1.46135 1.27899 0
M  V30 4243 C 400.791 -2.32081 2.58371 0
M  V30 4244 C 399.745 -2.1112 3.72307 0
M  V30 4245 C 399.071 -3.46848 4.06941 0
M  V30 4246 C 400.371 -1.49276 5.00514 0
M  V30 4247 H 402.065 -0.585557 2.93618 0
M  V30 4248 H 399.611 -0.280218 1.41247 0
M  V30 4249 H 401.564 -3.02249 2.93639 0
M  V30 4250 H 400.288 -2.77758 1.71808 0
M  V30 4251 H 398.947 -1.43384 3.37397 0
M  V30 4252 H 398.595 -3.90184 3.17436 0
M  V30 4253 H 398.295 -3.33646 4.83688 0
M  V30 4254 H 399.819 -4.18369 4.44747 0
M  V30 4255 H 401.233 -2.09368 5.33702 0
M  V30 4256 H 399.63 -1.46632 5.8191 0
M  V30 4257 H 400.7 -0.459217 4.82721 0
M  V30 4258 N 402.043 -1.548 -0.295768 0
M  V30 4259 C 403.006 -1.85363 -1.34808 0
M  V30 4260 C 404.006 -0.726817 -1.43436 0
M  V30 4261 O 405.196 -0.995088 -1.42981 0
M  V30 4262 C 402.328 -2.03859 -2.73229 0
M  V30 4263 H 403.521 -2.7941 -1.08949 0
M  V30 4264 H 401.074 -1.46942 -0.532702 0
M  V30 4265 H 401.809 -1.12117 -3.04303 0
M  V30 4266 H 401.594 -2.8588 -2.68356 0
M  V30 4267 H 403.084 -2.28857 -3.49305 0
M  V30 4268 N 403.521 0.559213 -1.47345 0
M  V30 4269 C 404.932 1.14134 -1.47751 0
M  V30 4270 C 405.283 1.94834 -0.231103 0
M  V30 4271 O 404.408 2.05957 0.664137 0
M  V30 4272 C 405.003 2.07653 -2.67705 0
M  V30 4273 C 403.562 2.61141 -2.71076 0
M  V30 4274 C 402.709 1.3748 -2.40821 0
M  V30 4275 H 405.66 0.345917 -1.54884 0
M  V30 4276 H 405.681 2.91497 -2.44561 0
M  V30 4277 H 405.193 1.4889 -3.58404 0
M  V30 4278 H 403.294 3.23707 -1.84511 0
M  V30 4279 H 403.407 3.02272 -3.7171 0
M  V30 4280 H 401.771 1.68086 -1.91362 0
M  V30 4281 H 402.554 0.805135 -3.33725 0
M  V30 4282 N 404.999 1.35443 0.805782 0
M  V30 4283 C 406.239 1.30127 1.57627 0
M  V30 4284 C 406.603 -0.122567 1.91608 0
M  V30 4285 O 407.804 -0.300107 2.67119 0
M  V30 4286 C 406.075 2.18314 2.82973 0
M  V30 4287 S 407.634 2.30521 3.7337 0
M  V30 4288 H 404.452 0.462439 0.540066 0
M  V30 4289 H 407.054 1.70843 0.95042 0
M  V30 4290 H 405.758 3.20741 2.56034 0
M  V30 4291 H 405.289 1.78558 3.50543 0
M  V30 4292 H 407.304 1.49062 4.73281 0
M  V30 4293 N 406.477 -1.02803 1.19454 0
M  V30 4294 C 407.723 -1.76478 0.999171 0
M  V30 4295 C 408.056 -1.88456 -0.468828 0
M  V30 4296 O 407.331 -1.40198 -1.34814 0
M  V30 4297 C 407.614 -3.19044 1.66981 0
M  V30 4298 C 407.467 -3.14932 3.21151 0
M  V30 4299 C 408.786 -4.17456 1.39349 0
M  V30 4300 H 405.905 -0.640614 0.364393 0
M  V30 4301 H 408.547 -1.20005 1.47305 0
M  V30 4302 H 406.697 -3.67263 1.2669 0
M  V30 4303 H 408.369 -2.74605 3.70661 0
M  V30 4304 H 406.612 -2.52625 3.52652 0
M  V30 4305 H 407.283 -4.1566 3.63223 0
M  V30 4306 H 409.759 -3.77842 1.74283 0
M  V30 4307 H 408.635 -5.154 1.88823 0
M  V30 4308 H 408.896 -4.40949 0.318813 0
M  V30 4309 N 407.956 -0.998596 -1.21925 0
M  V30 4310 C 409.181 -0.696015 -1.95372 0
M  V30 4311 C 409.606 0.733826 -1.73195 0
M  V30 4312 O 408.964 1.50242 -1.01474 0
M  V30 4313 C 409.012 -1.01466 -3.4603 0
M  V30 4314 O 408.116 -0.116415 -4.12236 0
M  V30 4315 H 407.457 -0.259938 -0.611006 0
M  V30 4316 H 409.987 -1.33711 -1.54863 0
M  V30 4317 H 409.997 -0.958855 -3.96573 0
M  V30 4318 H 408.672 -2.05653 -3.61497 0
M  V30 4319 H 407.249 -0.228193 -3.72201 0
M  V30 4320 N 409.434 1.37368 -0.772513 0
M  V30 4321 C 410.659 2.0447 -0.347386 0
M  V30 4322 C 411.084 1.57882 1.0225 0
M  V30 4323 O 410.442 0.73941 1.65537 0
M  V30 4324 C 410.49 3.58369 -0.400479 0
M  V30 4325 O 409.594 4.0803 0.598789 0
M  V30 4326 H 408.935 0.646773 -0.15027 0
M  V30 4327 H 411.465 1.75667 -1.04892 0
M  V30 4328 H 411.475 4.07183 -0.258045 0
M  V30 4329 H 410.15 3.91633 -1.39986 0
M  V30 4330 H 408.727 3.70534 0.419411 0
M  V30 4331 N 410.912 0.523116 1.48665 0
M  V30 4332 C 412.158 -0.0134963 2.02796 0
M  V30 4333 C 412.491 -1.34582 1.40004 0
M  V30 4334 O 411.766 -1.86756 0.543381 0
M  V30 4335 C 412.049 -0.14276 3.59817 0
M  V30 4336 C 411.902 1.21425 4.331 0
M  V30 4337 C 413.221 -0.872856 4.31357 0
M  V30 4338 H 410.34 -0.00343074 0.736992 0
M  V30 4339 H 412.982 0.678816 1.7746 0
M  V30 4340 H 411.132 -0.732401 3.81534 0
M  V30 4341 H 412.804 1.84447 4.2282 0
M  V30 4342 H 411.047 1.79791 3.94788 0
M  V30 4343 H 411.718 1.07687 5.41394 0
M  V30 4344 H 414.194 -0.372555 4.14429 0
M  V30 4345 H 413.07 -0.932185 5.40927 0
M  V30 4346 H 413.331 -1.92161 3.98154 0
M  V30 4347 N 412.39 -1.55475 0.257931 0
M  V30 4348 C 413.337 -2.21837 -0.636939 0
M  V30 4349 C 414.307 -1.18596 -1.16294 0
M  V30 4350 O 415.492 -1.47081 -1.21539 0
M  V30 4351 C 412.632 -2.9301 -1.82317 0
M  V30 4352 C 411.745 -4.10931 -1.33265 0
M  V30 4353 C 410.88 -4.69791 -2.47931 0
M  V30 4354 C 409.919 -5.7994 -1.95796 0
M  V30 4355 N 409.056 -6.32935 -3.0387 0
M  V30 4356 H 413.896 -2.9793 -0.0643591 0
M  V30 4357 H 411.433 -1.47086 -0.0200031 0
M  V30 4358 H 413.391 -3.3248 -2.52018 0
M  V30 4359 H 412.021 -2.1937 -2.36805 0
M  V30 4360 H 411.073 -3.76699 -0.52931 0
M  V30 4361 H 412.385 -4.90417 -0.910654 0
M  V30 4362 H 411.539 -5.11892 -3.25656 0
M  V30 4363 H 410.278 -3.89545 -2.93438 0
M  V30 4364 H 409.283 -5.37305 -1.16546 0
M  V30 4365 H 410.508 -6.62043 -1.51246 0
M  V30 4366 H 408.454 -5.55591 -3.48791 0
M  V30 4367 H 408.371 -7.07645 -2.66035 0
M  V30 4368 H 409.639 -6.79695 -3.81621 0
M  V30 4369 N 413.868 0.0150385 -1.57593 0
M  V30 4370 C 415.093 0.718067 -1.94573 0
M  V30 4371 C 415.518 1.6734 -0.859005 0
M  V30 4372 O 414.876 1.80362 0.184147 0
M  V30 4373 C 414.924 1.43918 -3.30636 0
M  V30 4374 O 414.028 2.55299 -3.23876 0
M  V30 4375 H 413.369 0.192125 -0.635597 0
M  V30 4376 H 415.899 -0.0336708 -2.04572 0
M  V30 4377 H 415.909 1.80598 -3.65853 0
M  V30 4378 H 414.584 0.738619 -4.09289 0
M  V30 4379 H 413.161 2.21058 -3.00312 0
M  V30 4380 N 415.346 1.54954 0.287554 0
M  V30 4381 C 416.595 1.74081 1.01877 0
M  V30 4382 C 416.908 0.541135 1.87966 0
M  V30 4383 O 418.114 0.614491 2.64455 0
M  V30 4384 C 416.57 3.08042 1.86113 0
M  V30 4385 C 416.178 4.35531 1.04961 0
M  V30 4386 C 417.922 3.36523 2.58752 0
M  V30 4387 C 415.829 5.60538 1.88551 0
M  V30 4388 H 414.759 0.64884 0.384087 0
M  V30 4389 H 417.41 1.81426 0.275101 0
M  V30 4390 H 415.792 2.94696 2.64519 0
M  V30 4391 H 416.966 4.59751 0.31074 0
M  V30 4392 H 415.281 4.14085 0.43843 0
M  V30 4393 H 417.878 4.27122 3.21668 0
M  V30 4394 H 418.221 2.56 3.28283 0
M  V30 4395 H 418.754 3.50901 1.87386 0
M  V30 4396 H 415.493 6.43767 1.23466 0
M  V30 4397 H 415.013 5.40483 2.60074 0
M  V30 4398 H 416.692 5.98297 2.46273 0
M  V30 4399 N 416.824 -0.551391 1.4764 0
M  V30 4400 C 418.049 -1.33837 1.58437 0
M  V30 4401 C 418.474 -1.866 0.237063 0
M  V30 4402 O 417.832 -1.6328 -0.787994 0
M  V30 4403 C 417.88 -2.48014 2.61766 0
M  V30 4404 O 416.984 -3.50419 2.1744 0
M  V30 4405 H 416.325 -0.397299 0.532024 0
M  V30 4406 H 418.855 -0.665759 1.93465 0
M  V30 4407 H 418.865 -2.94503 2.82369 0
M  V30 4408 H 417.54 -2.08969 3.5959 0
M  V30 4409 H 416.117 -3.10196 2.06961 0
M  V30 4410 N 418.302 -1.35869 -0.798587 0
M  V30 4411 C 419.718 -1.16082 -1.09532 0
M  V30 4412 C 419.918 0.0213124 -2.01489 0
M  V30 4413 O 418.974 0.689488 -2.42904 0
M  V30 4414 C 420.287 -2.46748 -1.7186 0
M  V30 4415 C 421.835 -2.53028 -1.84244 0
M  V30 4416 C 422.31 -3.83758 -2.49988 0
M  V30 4417 N 423.801 -3.85053 -2.57465 0
M  V30 4418 C 424.536 -4.8294 -3.09122 0
M  V30 4419 N 424.032 -5.91217 -3.61157 0
M  V30 4420 N 425.825 -4.70369 -3.0775 0
M  V30 4421 H 417.976 -2.11571 -0.187461 0
M  V30 4422 H 420.239 -0.936726 -0.145765 0
M  V30 4423 H 419.945 -3.33471 -1.11759 0
M  V30 4424 H 419.819 -2.61883 -2.71472 0
M  V30 4425 H 422.206 -1.66729 -2.43486 0
M  V30 4426 H 422.287 -2.418 -0.834643 0
M  V30 4427 H 421.931 -4.70459 -1.91393 0
M  V30 4428 H 421.861 -3.92278 -3.5132 0
M  V30 4429 H 424.352 -3.06822 -2.20609 0
M  V30 4430 H 424.665 -6.61892 -3.98896 0
M  V30 4431 H 423.01 -5.94899 -3.59333 0
M  V30 4432 H 426.201 -3.84914 -2.66381 0
M  V30 4433 H 426.374 -5.46816 -3.47701 0
M  V30 4434 N 419.78 1.02168 -1.19998 0
M  V30 4435 C 420.743 2.08765 -0.94604 0
M  V30 4436 C 421.743 1.60618 0.0763846 0
M  V30 4437 O 422.933 1.73472 -0.159135 0
M  V30 4438 C 420.065 3.38262 -0.423255 0
M  V30 4439 H 421.258 2.32726 -1.89153 0
M  V30 4440 H 418.811 1.1889 -1.01464 0
M  V30 4441 H 419.546 3.19974 0.527938 0
M  V30 4442 H 419.331 3.74532 -1.16053 0
M  V30 4443 H 420.821 4.16759 -0.264911 0
M  V30 4444 N 421.258 1.00505 1.21394 0
M  V30 4445 C 422.205 0.565496 2.23765 0
M  V30 4446 C 423.175 -0.408466 1.60999 0
M  V30 4447 O 424.36 -0.310503 1.88257 0
M  V30 4448 C 421.5 -0.101667 3.4495 0
M  V30 4449 C 420.613 0.915479 4.22188 0
M  V30 4450 C 419.748 0.220574 5.30742 0
M  V30 4451 C 418.787 1.22527 5.99711 0
M  V30 4452 N 417.924 0.557831 6.9988 0
M  V30 4453 H 422.764 1.44314 2.60725 0
M  V30 4454 H 420.301 0.722643 1.28126 0
M  V30 4455 H 422.259 -0.505504 4.14126 0
M  V30 4456 H 420.889 -0.94303 3.08718 0
M  V30 4457 H 419.941 1.43756 3.52191 0
M  V30 4458 H 421.253 1.68005 4.69655 0
M  V30 4459 H 420.407 -0.239368 6.06228 0
M  V30 4460 H 419.146 -0.576401 4.84282 0
M  V30 4461 H 418.151 1.69571 5.22997 0
M  V30 4462 H 419.376 2.02332 6.48258 0
M  V30 4463 H 417.322 -0.219486 6.55633 0
M  V30 4464 H 417.239 1.26065 7.45415 0
M  V30 4465 H 418.507 0.121095 7.79406 0
M  V30 4466 N 422.737 -1.36956 0.779787 0
M  V30 4467 C 423.986 -1.98738 0.344405 0
M  V30 4468 C 424.299 -1.62596 -1.08728 0
M  V30 4469 O 425.505 -2.1754 -1.62445 0
M  V30 4470 C 423.961 -3.5544 0.564829 0
M  V30 4471 C 423.569 -4.00514 2.0073 0
M  V30 4472 C 425.313 -4.24059 0.193471 0
M  V30 4473 C 423.22 -5.49957 2.17489 0
M  V30 4474 H 422.15 -0.743561 0.12503 0
M  V30 4475 H 424.801 -1.56381 0.960057 0
M  V30 4476 H 423.183 -3.95817 -0.120397 0
M  V30 4477 H 424.357 -3.71362 2.72814 0
M  V30 4478 H 422.672 -3.44703 2.336 0
M  V30 4479 H 425.269 -5.33874 0.297097 0
M  V30 4480 H 425.612 -4.07378 -0.857263 0
M  V30 4481 H 426.145 -3.89012 0.831556 0
M  V30 4482 H 422.884 -5.71574 3.2091 0
M  V30 4483 H 422.404 -5.80767 1.49899 0
M  V30 4484 H 424.083 -6.16043 1.97738 0
M  V30 4485 N 424.215 -0.530993 -1.48385 0
M  V30 4486 C 425.631 -0.188919 -1.58478 0
M  V30 4487 C 425.831 1.30786 -1.53288 0
M  V30 4488 O 424.887 2.08619 -1.42248 0
M  V30 4489 C 426.2 -0.792343 -2.90073 0
M  V30 4490 C 427.748 -0.76117 -3.03604 0
M  V30 4491 C 428.223 -1.34319 -4.37861 0
M  V30 4492 N 429.714 -1.3052 -4.44431 0
M  V30 4493 C 430.449 -1.72543 -5.46824 0
M  V30 4494 N 429.945 -2.22299 -6.56167 0
M  V30 4495 N 431.738 -1.63773 -5.37712 0
M  V30 4496 H 423.889 -1.50377 -1.50002 0
M  V30 4497 H 426.152 -0.625559 -0.712306 0
M  V30 4498 H 425.858 -1.84323 -2.99529 0
M  V30 4499 H 425.732 -0.270026 -3.76232 0
M  V30 4500 H 428.119 0.280957 -2.93759 0
M  V30 4501 H 428.2 -1.32097 -2.19053 0
M  V30 4502 H 427.844 -2.38425 -4.4846 0
M  V30 4503 H 427.774 -0.759064 -5.21101 0
M  V30 4504 H 430.265 -0.940973 -3.65997 0
M  V30 4505 H 430.578 -2.52356 -7.30436 0
M  V30 4506 H 428.923 -2.26293 -6.57127 0
M  V30 4507 H 432.114 -1.24698 -4.51185 0
M  V30 4508 H 432.287 -1.96844 -6.17379 0
M  V30 4509 N 425.693 1.55336 -0.266172 0
M  V30 4510 C 426.921 2.03801 0.356756 0
M  V30 4511 C 427.336 1.14485 1.50129 0
M  V30 4512 O 426.693 0.163121 1.8177 0
M  V30 4513 C 426.744 3.51455 0.846281 0
M  V30 4514 O 426.465 4.37371 -0.252663 0
M  V30 4515 C 427.966 4.15767 1.53794 0
M  V30 4516 H 425.186 0.665906 0.0825218 0
M  V30 4517 H 427.73 2.00636 -0.39566 0
M  V30 4518 H 425.885 3.55092 1.54881 0
M  V30 4519 H 426.299 5.24358 0.122173 0
M  V30 4520 H 427.773 5.20714 1.83198 0
M  V30 4521 H 428.25 3.63404 2.46646 0
M  V30 4522 H 428.856 4.16107 0.879488 0
M  V30 4523 N 427.171 -0.0066808 1.57599 0
M  V30 4524 C 428.417 -0.693947 1.90558 0
M  V30 4525 C 428.75 -1.73792 0.866594 0
M  V30 4526 O 428.025 -1.94156 -0.115548 0
M  V30 4527 C 428.308 -1.34317 3.34112 0
M  V30 4528 C 428.161 -0.311189 4.48722 0
M  V30 4529 C 429.48 -2.27116 3.7697 0
M  V30 4530 H 426.599 -0.250803 0.693013 0
M  V30 4531 H 429.241 0.043242 1.89951 0
M  V30 4532 H 427.391 -1.9715 3.3476 0
M  V30 4533 H 429.063 0.316944 4.6021 0
M  V30 4534 H 427.306 0.367253 4.32243 0
M  V30 4535 H 427.977 -0.804366 5.46108 0
M  V30 4536 H 430.453 -1.74306 3.77831 0
M  V30 4537 H 429.329 -2.69511 4.78179 0
M  V30 4538 H 429.59 -3.14743 3.10466 0
M  V30 4539 N 428.649 -1.55105 -0.279332 0
M  V30 4540 C 429.596 -1.8755 -1.34513 0
M  V30 4541 C 430.566 -0.726384 -1.49375 0
M  V30 4542 O 431.751 -0.977063 -1.63884 0
M  V30 4543 C 428.891 -2.14738 -2.70151 0
M  V30 4544 C 428.004 -3.42285 -2.63562 0
M  V30 4545 C 427.139 -3.59206 -3.91337 0
M  V30 4546 C 426.178 -4.80467 -3.79233 0
M  V30 4547 N 425.315 -4.94079 -4.98829 0
M  V30 4548 H 430.155 -2.78456 -1.06143 0
M  V30 4549 H 427.692 -1.37867 -0.512936 0
M  V30 4550 H 429.65 -2.28501 -3.49061 0
M  V30 4551 H 428.28 -1.27075 -2.96735 0
M  V30 4552 H 427.332 -3.37029 -1.76397 0
M  V30 4553 H 428.644 -4.31328 -2.50515 0
M  V30 4554 H 427.798 -3.72751 -4.78687 0
M  V30 4555 H 426.537 -2.68337 -4.07243 0
M  V30 4556 H 425.542 -4.66932 -2.90266 0
M  V30 4557 H 426.767 -5.72765 -3.64852 0
M  V30 4558 H 424.713 -4.06139 -5.15158 0
M  V30 4559 H 424.63 -5.77156 -4.8829 0
M  V30 4560 H 425.898 -5.12003 -5.8777 0
M  V30 4561 N 430.127 0.543554 -1.4793 0
M  V30 4562 C 431.06 1.66556 -1.55995 0
M  V30 4563 C 432.038 1.57315 -0.411205 0
M  V30 4564 O 433.222 1.7798 -0.620922 0
M  V30 4565 C 430.349 3.04883 -1.47527 0
M  V30 4566 C 429.395 3.32526 -2.67074 0
M  V30 4567 S 430.228 3.20282 -4.29162 0
M  V30 4568 C 431.384 4.61079 -4.23269 0
M  V30 4569 H 431.617 1.59462 -2.50917 0
M  V30 4570 H 429.15 0.725456 -1.36296 0
M  V30 4571 H 431.108 3.84665 -1.43328 0
M  V30 4572 H 429.769 3.09429 -0.539665 0
M  V30 4573 H 428.962 4.33403 -2.5725 0
M  V30 4574 H 428.564 2.60389 -2.68466 0
M  V30 4575 H 430.856 5.52318 -3.92365 0
M  V30 4576 H 431.799 4.75959 -5.24279 0
M  V30 4577 H 432.207 4.39766 -3.5393 0
M  V30 4578 N 431.605 1.3629 0.791371 0
M  V30 4579 C 432.833 1.33562 1.58016 0
M  V30 4580 C 433.248 -0.0835616 1.88615 0
M  V30 4581 O 432.605 -1.0399 1.49974 0
M  V30 4582 C 432.656 2.15517 2.90232 0
M  V30 4583 O 432.377 3.51902 2.60953 0
M  V30 4584 C 433.878 2.20546 3.84544 0
M  V30 4585 H 431.098 0.458226 0.490173 0
M  V30 4586 H 433.642 1.79361 0.982345 0
M  V30 4587 H 431.797 1.73278 3.46487 0
M  V30 4588 H 432.211 3.94644 3.4548 0
M  V30 4589 H 433.685 2.82252 4.74382 0
M  V30 4590 H 434.162 1.20838 4.2225 0
M  V30 4591 H 434.768 2.63013 3.34222 0
M  V30 4592 N 433.083 -1.0153 1.20538 0
M  V30 4593 C 434.33 -1.75149 1.01633 0
M  V30 4594 C 434.658 -1.89189 -0.451399 0
M  V30 4595 O 433.913 -1.41551 -1.35136 0
M  V30 4596 C 434.212 -3.17213 1.64654 0
M  V30 4597 C 433.878 -3.23146 3.14464 0
M  V30 4598 C 432.54 -3.24472 3.55347 0
M  V30 4599 C 434.892 -3.21207 4.10458 0
M  V30 4600 C 432.22 -3.21532 4.90748 0
M  V30 4601 C 434.572 -3.19808 5.45807 0
M  V30 4602 C 433.236 -3.19439 5.86102 0
M  V30 4603 H 432.506 -0.640914 0.3719 0
M  V30 4604 H 435.153 -1.19071 1.49981 0
M  V30 4605 H 433.458 -3.76457 1.08571 0
M  V30 4606 H 435.155 -3.72871 1.4754 0
M  V30 4607 H 431.745 -3.2285 2.81897 0
M  V30 4608 H 435.929 -3.19351 3.79906 0
M  V30 4609 H 431.185 -3.19578 5.21229 0
M  V30 4610 H 435.359 -3.1726 6.19935 0
M  V30 4611 H 432.986 -3.16915 6.90991 0
M  V30 4612 N 434.561 -1.01147 -1.20859 0
M  V30 4613 C 435.807 -0.698899 -1.90377 0
M  V30 4614 C 436.14 0.76904 -1.78324 0
M  V30 4615 O 435.415 1.55817 -1.16409 0
M  V30 4616 C 435.698 -1.12878 -3.41951 0
M  V30 4617 C 435.551 -2.65665 -3.62963 0
M  V30 4618 C 436.87 -0.696114 -4.3456 0
M  V30 4619 H 433.989 -0.255372 -0.691342 0
M  V30 4620 H 436.631 -1.25831 -1.42361 0
M  V30 4621 H 434.781 -0.652827 -3.82976 0
M  V30 4622 H 436.453 -3.21074 -3.31224 0
M  V30 4623 H 434.696 -3.06878 -3.06608 0
M  V30 4624 H 435.367 -2.90797 -4.69192 0
M  V30 4625 H 437.843 -1.10521 -4.01154 0
M  V30 4626 H 436.719 -1.025 -5.39245 0
M  V30 4627 H 436.98 0.402465 -4.40264 0
M  V30 4628 N 436.039 1.36541 -0.78704 0
M  V30 4629 C 437.288 1.98552 -0.35494 0
M  V30 4630 C 437.601 1.63171 1.07864 0
M  V30 4631 O 438.807 2.18399 1.61289 0
M  V30 4632 C 437.263 3.55136 -0.583671 0
M  V30 4633 C 436.871 3.99444 -2.02851 0
M  V30 4634 C 438.615 4.2395 -0.215957 0
M  V30 4635 C 436.522 5.48796 -2.20403 0
M  V30 4636 H 435.452 0.742888 -0.128972 0
M  V30 4637 H 438.103 1.5587 -0.968337 0
M  V30 4638 H 436.485 3.95875 0.0994046 0
M  V30 4639 H 437.659 3.6991 -2.74779 0
M  V30 4640 H 435.974 3.43459 -2.35425 0
M  V30 4641 H 438.571 5.33709 -0.325405 0
M  V30 4642 H 438.914 4.07827 0.835646 0
M  V30 4643 H 439.447 3.88565 -0.852175 0
M  V30 4644 H 436.186 5.69864 -3.23937 0
M  V30 4645 H 435.706 5.79964 -1.52977 0
M  V30 4646 H 437.385 6.14986 -2.01002 0
M  V30 4647 N 437.518 0.538854 1.48102 0
M  V30 4648 C 438.764 0.00801365 2.02798 0
M  V30 4649 C 439.097 -1.3309 1.41424 0
M  V30 4650 O 438.372 -1.86169 0.563158 0
M  V30 4651 C 438.655 -0.104589 3.59948 0
M  V30 4652 C 438.508 1.26012 4.31788 0
M  V30 4653 C 439.827 -0.827055 4.32259 0
M  V30 4654 H 436.946 0.00438624 0.736987 0
M  V30 4655 H 439.588 0.6976 1.7673 0
M  V30 4656 H 437.738 -0.691893 3.82289 0
M  V30 4657 H 439.41 1.88922 4.2084 0
M  V30 4658 H 437.653 1.83968 3.92859 0
M  V30 4659 H 438.324 1.13424 5.40221 0
M  V30 4660 H 440.8 -0.328578 4.14801 0
M  V30 4661 H 439.676 -0.87476 5.41885 0
M  V30 4662 H 439.937 -1.87927 4.0017 0
M  V30 4663 N 438.996 -1.55193 0.274407 0
M  V30 4664 C 440.224 -2.03987 -0.345943 0
M  V30 4665 C 440.639 -1.15279 -1.4952 0
M  V30 4666 O 439.996 -0.172759 -1.8168 0
M  V30 4667 C 440.047 -3.51898 -0.827631 0
M  V30 4668 O 439.768 -4.37231 0.275855 0
M  V30 4669 C 441.269 -4.16577 -1.51587 0
M  V30 4670 H 438.489 -0.666335 -0.0789892 0
M  V30 4671 H 441.033 -2.00423 0.406294 0
M  V30 4672 H 439.188 -3.55909 -1.52996 0
M  V30 4673 H 439.602 -5.24415 -0.0943638 0
M  V30 4674 H 441.076 -5.21678 -1.80433 0
M  V30 4675 H 441.553 -3.64707 -2.44716 0
M  V30 4676 H 442.159 -4.16568 -0.857409 0
M  V30 4677 N 440.474 -0.00167713 -1.576 0
M  V30 4678 C 441.437 0.974046 -2.07473 0
M  V30 4679 C 442.437 1.27143 -0.984444 0
M  V30 4680 O 443.627 1.21633 -1.24703 0
M  V30 4681 C 440.759 2.29849 -2.51759 0
M  V30 4682 H 441.952 0.54262 -2.9495 0
M  V30 4683 H 439.505 0.245829 -1.54355 0
M  V30 4684 H 440.24 2.77677 -1.67529 0
M  V30 4685 H 440.025 2.09584 -3.31386 0
M  V30 4686 H 441.515 2.9984 -2.90664 0
M  V30 4687 N 441.952 1.55251 0.271103 0
M  V30 4688 C 443.182 1.79713 1.01916 0
M  V30 4689 C 443.59 0.571613 1.80359 0
M  V30 4690 O 442.933 -0.468853 1.77616 0
M  V30 4691 C 442.995 2.97138 2.02359 0
M  V30 4692 C 442.659 4.34104 1.42837 0
M  V30 4693 C 443.656 5.13019 0.843071 0
M  V30 4694 C 441.341 4.80765 1.455 0
M  V30 4695 C 443.335 6.36729 0.292333 0
M  V30 4696 C 441.022 6.0443 0.900402 0
M  V30 4697 C 442.02 6.8225 0.32007 0
M  V30 4698 O 441.708 8.03582 -0.226031 0
M  V30 4699 H 441.44 0.602431 0.306681 0
M  V30 4700 H 443.994 2.03097 0.306701 0
M  V30 4701 H 442.224 2.6945 2.77369 0
M  V30 4702 H 443.913 3.08907 2.63309 0
M  V30 4703 H 444.679 4.781 0.815178 0
M  V30 4704 H 440.558 4.20202 1.89609 0
M  V30 4705 H 444.102 6.97414 -0.161274 0
M  V30 4706 H 439.999 6.3883 0.925541 0
M  V30 4707 H 440.767 8.18418 -0.115572 0
M  V30 4708 N 443.43 -0.535701 1.48216 0
M  V30 4709 C 444.679 -1.28828 1.55197 0
M  V30 4710 C 444.992 -1.94263 0.228278 0
M  V30 4711 O 446.198 -2.70927 0.176278 0
M  V30 4712 C 444.654 -2.33727 2.73678 0
M  V30 4713 C 444.262 -1.74386 4.12666 0
M  V30 4714 C 446.006 -3.1003 2.89968 0
M  V30 4715 C 443.913 -2.77192 5.22416 0
M  V30 4716 H 442.843 -0.484484 0.577747 0
M  V30 4717 H 445.494 -0.56646 1.74538 0
M  V30 4718 H 443.876 -3.08919 2.4776 0
M  V30 4719 H 445.05 -1.05421 4.48579 0
M  V30 4720 H 443.365 -1.10595 4.01445 0
M  V30 4721 H 445.962 -3.86842 3.6913 0
M  V30 4722 H 446.305 -3.65542 1.9921 0
M  V30 4723 H 446.838 -2.41952 3.15759 0
M  V30 4724 H 443.577 -2.26507 6.15122 0
M  V30 4725 H 443.097 -3.44502 4.90998 0
M  V30 4726 H 444.776 -3.40285 5.50286 0
M  V30 4727 N 444.908 -1.36708 -0.784132 0
M  V30 4728 C 446.154 -1.31426 -1.54451 0
M  V30 4729 C 446.487 0.10476 -1.93917 0
M  V30 4730 O 445.762 1.05934 -1.6312 0
M  V30 4731 C 446.045 -2.24189 -2.818 0
M  V30 4732 C 445.898 -3.74813 -2.48667 0
M  V30 4733 C 447.217 -2.15626 -3.83658 0
M  V30 4734 H 444.336 -0.478739 -0.560337 0
M  V30 4735 H 446.978 -1.67305 -0.900498 0
M  V30 4736 H 445.128 -1.93722 -3.36755 0
M  V30 4737 H 446.8 -4.15823 -1.99722 0
M  V30 4738 H 445.043 -3.93989 -1.81535 0
M  V30 4739 H 445.714 -4.35138 -3.39646 0
M  V30 4740 H 448.19 -2.42456 -3.38163 0
M  V30 4741 H 447.066 -2.82694 -4.70506 0
M  V30 4742 H 447.327 -1.14522 -4.27009 0
M  V30 4743 N 446.386 1.0089 -1.21074 0
M  V30 4744 C 447.626 1.76142 -1.03699 0
M  V30 4745 C 447.99 1.87292 0.422587 0
M  V30 4746 O 449.191 2.59068 0.716752 0
M  V30 4747 C 447.462 3.13805 -1.7106 0
M  V30 4748 S 449.021 4.04996 -1.68889 0
M  V30 4749 H 445.839 0.606113 -0.371683 0
M  V30 4750 H 448.441 1.20744 -1.53756 0
M  V30 4751 H 447.145 3.0332 -2.76451 0
M  V30 4752 H 446.676 3.74276 -1.21166 0
M  V30 4753 H 448.691 4.90842 -0.727211 0
M  V30 4754 N 447.864 1.01787 1.20321 0
M  V30 4755 C 449.11 0.718699 1.90279 0
M  V30 4756 C 449.465 -0.743669 1.77447 0
M  V30 4757 O 448.758 -1.53345 1.14874 0
M  V30 4758 C 448.952 1.09076 3.40349 0
M  V30 4759 C 448.781 2.58775 3.67784 0
M  V30 4760 C 447.551 3.25578 3.86428 0
M  V30 4761 C 449.749 3.56966 3.70243 0
M  V30 4762 N 447.731 4.64495 4.01395 0
M  V30 4763 C 449.102 4.8145 3.90649 0
M  V30 4764 C 451.157 3.5092 3.53213 0
M  V30 4765 C 449.86 6.00619 3.95789 0
M  V30 4766 C 451.886 4.69493 3.59625 0
M  V30 4767 C 451.248 5.92786 3.80505 0
M  V30 4768 H 447.347 0.31468 0.715891 0
M  V30 4769 H 449.931 1.30295 1.44677 0
M  V30 4770 H 448.102 0.534839 3.847 0
M  V30 4771 H 449.834 0.744997 3.97784 0
M  V30 4772 H 446.589 2.76003 3.84862 0
M  V30 4773 H 447.013 5.36624 4.12752 0
M  V30 4774 H 451.655 2.56593 3.36035 0
M  V30 4775 H 449.373 6.95326 4.11762 0
M  V30 4776 H 452.959 4.66432 3.47754 0
M  V30 4777 H 451.839 6.83003 3.85327 0
M  V30 4778 N 449.342 -1.36122 0.79427 0
M  V30 4779 C 450.305 -2.28309 0.201889 0
M  V30 4780 C 451.305 -1.49041 -0.603603 0
M  V30 4781 O 452.495 -1.68964 -0.423888 0
M  V30 4782 C 449.627 -3.3321 -0.719978 0
M  V30 4783 H 450.82 -2.82208 1.01481 0
M  V30 4784 H 448.373 -1.45768 0.564037 0
M  V30 4785 H 449.108 -2.84475 -1.55706 0
M  V30 4786 H 448.893 -3.91835 -0.144266 0
M  V30 4787 H 450.383 -4.02044 -1.12916 0
M  V30 4788 N 450.82 -0.546701 -1.47814 0
M  V30 4789 C 452.231 -0.110564 -1.86372 0
M  V30 4790 C 452.582 1.31678 -1.45449 0
M  V30 4791 O 451.707 1.98889 -0.852758 0
M  V30 4792 C 452.302 -0.193873 -3.38245 0
M  V30 4793 C 450.861 0.187164 -3.75934 0
M  V30 4794 C 450.008 -0.546166 -2.71868 0
M  V30 4795 H 452.959 -0.757022 -1.39481 0
M  V30 4796 H 452.98 0.590218 -3.75895 0
M  V30 4797 H 452.492 -1.23282 -3.67999 0
M  V30 4798 H 450.593 1.22762 -3.51796 0
M  V30 4799 H 450.706 -0.164083 -4.78819 0
M  V30 4800 H 449.07 0.00953904 -2.54698 0
M  V30 4801 H 449.853 -1.58606 -3.04465 0
M  V30 4802 N 452.299 1.55045 -0.282633 0
M  V30 4803 C 453.546 1.9976 0.33199 0
M  V30 4804 C 453.874 1.17105 1.55295 0
M  V30 4805 O 453.129 0.230599 1.94337 0
M  V30 4806 C 453.428 3.49422 0.750938 0
M  V30 4807 C 453.094 4.4941 -0.366228 0
M  V30 4808 C 451.756 4.76471 -0.672964 0
M  V30 4809 C 454.108 5.09054 -1.11864 0
M  V30 4810 C 451.436 5.60442 -1.73556 0
M  V30 4811 C 453.788 5.9418 -2.17102 0
M  V30 4812 C 452.452 6.19558 -2.48402 0
M  V30 4813 H 451.722 0.730974 0.121484 0
M  V30 4814 H 454.369 1.8732 -0.39791 0
M  V30 4815 H 452.674 3.59377 1.56063 0
M  V30 4816 H 454.371 3.81432 1.23736 0
M  V30 4817 H 450.961 4.2844 -0.117041 0
M  V30 4818 H 455.145 4.88165 -0.894925 0
M  V30 4819 H 450.401 5.78349 -1.983 0
M  V30 4820 H 454.575 6.39427 -2.75873 0
M  V30 4821 H 452.202 6.84417 -3.30874 0
M  V30 4822 N 453.777 0.010035 1.57597 0
M  V30 4823 C 455.024 -0.6727 1.91 0
M  V30 4824 C 455.352 -1.73219 0.884614 0
M  V30 4825 O 454.607 -1.95395 -0.109215 0
M  V30 4826 C 454.906 -1.34434 3.31153 0
M  V30 4827 C 454.572 -0.417083 4.48967 0
M  V30 4828 C 453.234 -0.161809 4.80928 0
M  V30 4829 C 455.586 0.220753 5.20732 0
M  V30 4830 C 452.914 0.739426 5.82022 0
M  V30 4831 C 455.266 1.10993 6.22787 0
M  V30 4832 C 453.93 1.37428 6.532 0
M  V30 4833 H 453.2 -0.246158 0.698918 0
M  V30 4834 H 455.847 0.0677145 1.9138 0
M  V30 4835 H 454.152 -2.15905 3.26944 0
M  V30 4836 H 455.849 -1.87883 3.54261 0
M  V30 4837 H 452.439 -0.626217 4.24001 0
M  V30 4838 H 456.623 0.0365643 4.96287 0
M  V30 4839 H 451.879 0.952139 6.03941 0
M  V30 4840 H 456.053 1.61046 6.77523 0
M  V30 4841 H 453.68 2.0743 7.31353 0
M  V30 4842 N 455.255 -1.55392 -0.262866 0
M  V30 4843 C 456.504 -1.75679 -0.990943 0
M  V30 4844 C 456.817 -0.57097 -1.87081 0
M  V30 4845 O 458.023 -0.656486 -2.63444 0
M  V30 4846 C 456.479 -3.10964 -1.81188 0
M  V30 4847 C 456.087 -4.37146 -0.980188 0
M  V30 4848 C 457.831 -3.40597 -2.53365 0
M  V30 4849 C 455.738 -5.63466 -1.7961 0
M  V30 4850 H 454.668 -0.654868 -0.373716 0
M  V30 4851 H 457.319 -1.81841 -0.246203 0
M  V30 4852 H 455.701 -2.98867 -2.59797 0
M  V30 4853 H 456.875 -4.60187 -0.237558 0
M  V30 4854 H 455.19 -4.14731 -0.372497 0
M  V30 4855 H 457.787 -4.32186 -3.14833 0
M  V30 4856 H 458.13 -2.6119 -3.24169 0
M  V30 4857 H 458.663 -3.53838 -1.81779 0
M  V30 4858 H 455.402 -6.4565 -1.13209 0
M  V30 4859 H 454.922 -5.44552 -2.51443 0
M  V30 4860 H 456.601 -6.02139 -2.36723 0
M  V30 4861 N 456.733 0.527833 -1.48498 0
M  V30 4862 C 457.982 1.28003 -1.55878 0
M  V30 4863 C 458.295 1.9414 -0.238577 0
M  V30 4864 O 459.501 2.7083 -0.190643 0
M  V30 4865 C 457.957 2.32272 -2.74914 0
M  V30 4866 C 457.565 1.72196 -4.13585 0
M  V30 4867 C 459.309 3.08488 -2.91608 0
M  V30 4868 C 457.216 2.74417 -5.23879 0
M  V30 4869 H 456.146 0.481413 -0.580308 0
M  V30 4870 H 458.797 0.557195 -1.74836 0
M  V30 4871 H 457.179 3.07601 -2.49395 0
M  V30 4872 H 458.353 1.03041 -4.49132 0
M  V30 4873 H 456.668 1.08464 -4.02025 0
M  V30 4874 H 459.265 3.84879 -3.71177 0
M  V30 4875 H 459.608 3.64481 -2.01145 0
M  V30 4876 H 460.141 2.40274 -3.17038 0
M  V30 4877 H 456.88 2.23242 -6.16314 0
M  V30 4878 H 456.4 3.41893 -4.92818 0
M  V30 4879 H 458.079 3.37362 -5.52083 0
M  V30 4880 N 458.211 1.37122 0.776871 0
M  V30 4881 C 459.143 1.28342 1.89897 0
M  V30 4882 C 460.156 0.200277 1.61563 0
M  V30 4883 O 461.345 0.456012 1.72577 0
M  V30 4884 C 458.445 0.960427 3.25006 0
M  V30 4885 C 457.618 2.148 3.81025 0
M  V30 4886 C 456.677 1.79608 4.94598 0
M  V30 4887 O 455.703 2.51845 5.10454 0
M  V30 4888 N 456.905 0.737171 5.758 0
M  V30 4889 H 459.67 2.25027 1.97947 0
M  V30 4890 H 457.231 1.3068 0.955739 0
M  V30 4891 H 459.223 0.705942 3.98495 0
M  V30 4892 H 457.793 0.0823066 3.12492 0
M  V30 4893 H 457.013 2.56454 2.99374 0
M  V30 4894 H 458.301 2.9411 4.15183 0
M  V30 4895 H 457.699 0.137637 5.65533 0
M  V30 4896 H 456.256 0.542534 6.49538 0
M  V30 4897 N 459.689 -1.00246 1.21608 0
M  V30 4898 C 460.622 -2.08794 0.920892 0
M  V30 4899 C 461.6 -1.62059 -0.132552 0
M  V30 4900 O 462.784 -1.885 -0.0030366 0
M  V30 4901 C 459.911 -3.36525 0.383226 0
M  V30 4902 C 458.957 -4.02172 1.41987 0
M  V30 4903 S 459.79 -4.44256 2.98994 0
M  V30 4904 C 460.946 -5.7517 2.4684 0
M  V30 4905 H 461.179 -2.33511 1.8401 0
M  V30 4906 H 458.712 -1.13562 1.04609 0
M  V30 4907 H 460.67 -4.10423 0.0795871 0
M  V30 4908 H 459.331 -3.09854 -0.514711 0
M  V30 4909 H 458.524 -4.94114 0.993335 0
M  V30 4910 H 458.126 -3.34559 1.67171 0
M  V30 4911 H 460.418 -6.51042 1.87484 0
M  V30 4912 H 461.361 -6.22638 3.37235 0
M  V30 4913 H 461.769 -5.32112 1.88461 0
M  V30 4914 N 461.167 -1.02423 -1.1978 0
M  V30 4915 C 462.413 -0.72878 -1.89896 0
M  V30 4916 C 462.768 0.734248 -1.77839 0
M  V30 4917 O 462.061 1.52733 -1.15685 0
M  V30 4918 C 462.255 -1.1088 -3.39765 0
M  V30 4919 C 462.084 -2.60722 -3.66407 0
M  V30 4920 C 460.854 -3.27623 -3.84696 0
M  V30 4921 C 463.052 -3.58924 -3.68345 0
M  V30 4922 N 461.034 -4.66617 -3.98926 0
M  V30 4923 C 462.405 -4.83514 -3.8809 0
M  V30 4924 C 464.46 -3.52788 -3.51347 0
M  V30 4925 C 463.163 -6.0271 -3.92598 0
M  V30 4926 C 465.189 -4.71394 -3.5713 0
M  V30 4927 C 464.551 -5.94796 -3.77356 0
M  V30 4928 H 460.65 -0.318473 -0.714212 0
M  V30 4929 H 463.234 -1.3106 -1.43984 0
M  V30 4930 H 461.405 -0.555233 -3.84411 0
M  V30 4931 H 463.137 -0.766082 -3.97383 0
M  V30 4932 H 459.892 -2.7804 -3.83393 0
M  V30 4933 H 460.316 -5.38805 -4.099 0
M  V30 4934 H 464.958 -2.58372 -3.3467 0
M  V30 4935 H 462.676 -6.97499 -4.08069 0
M  V30 4936 H 466.262 -4.6827 -3.45275 0
M  V30 4937 H 465.142 -6.85037 -3.81699 0
M  V30 4938 N 462.645 1.35699 -0.801477 0
M  V30 4939 C 463.87 2.03687 -0.390678 0
M  V30 4940 C 464.295 1.60015 0.988778 0
M  V30 4941 O 463.653 0.774357 1.63931 0
M  V30 4942 C 463.701 3.57439 -0.476404 0
M  V30 4943 O 462.805 4.09208 0.512106 0
M  V30 4944 H 462.146 0.64344 -0.163956 0
M  V30 4945 H 464.676 1.73403 -1.08594 0
M  V30 4946 H 464.686 4.06544 -0.344357 0
M  V30 4947 H 463.361 3.88576 -1.48262 0
M  V30 4948 H 461.938 3.7134 0.340721 0
M  V30 4949 N 464.123 0.554532 1.47522 0
M  V30 4950 C 465.369 0.0295227 2.02779 0
M  V30 4951 C 465.702 -1.31582 1.42828 0
M  V30 4952 O 464.977 -1.85561 0.582872 0
M  V30 4953 C 465.26 -0.0664057 3.60039 0
M  V30 4954 C 465.113 1.30585 4.30427 0
M  V30 4955 C 466.432 -0.781162 4.33112 0
M  V30 4956 H 463.551 0.0122027 0.736899 0
M  V30 4957 H 466.193 0.716305 1.7598 0
M  V30 4958 H 464.343 -0.651307 3.83002 0
M  V30 4959 H 466.015 1.93374 4.18813 0
M  V30 4960 H 464.258 1.88125 3.90886 0
M  V30 4961 H 464.929 1.19147 5.38988 0
M  V30 4962 H 467.405 -0.284565 4.15126 0
M  V30 4963 H 466.281 -0.817237 5.42782 0
M  V30 4964 H 466.542 -1.83672 4.0214 0
M  V30 4965 N 465.601 -1.54893 0.290851 0
M  V30 4966 C 466.847 -2.00949 -0.314784 0
M  V30 4967 C 467.202 -1.1757 -1.52299 0
M  V30 4968 O 466.495 -0.241558 -1.90071 0
M  V30 4969 C 466.689 -3.49815 -0.732397 0
M  V30 4970 C 466.518 -4.47603 0.433799 0
M  V30 4971 C 465.288 -4.96806 0.922599 0
M  V30 4972 C 467.486 -4.98233 1.27546 0
M  V30 4973 N 465.468 -5.78426 2.05662 0
M  V30 4974 C 466.839 -5.77455 2.25712 0
M  V30 4975 C 468.894 -4.80439 1.307 0
M  V30 4976 C 467.597 -6.40778 3.26796 0
M  V30 4977 C 469.623 -5.44574 2.30637 0
M  V30 4978 C 468.985 -6.23619 3.27533 0
M  V30 4979 H 465.084 -0.777905 -0.0799257 0
M  V30 4980 H 467.668 -1.9015 0.418458 0
M  V30 4981 H 465.839 -3.60925 -1.43483 0
M  V30 4982 H 467.571 -3.82681 -1.31671 0
M  V30 4983 H 464.326 -4.70961 0.49926 0
M  V30 4984 H 464.75 -6.23923 2.62772 0
M  V30 4985 H 469.392 -4.18918 0.571622 0
M  V30 4986 H 467.11 -7.01439 4.01258 0
M  V30 4987 H 470.696 -5.32739 2.33838 0
M  V30 4988 H 469.576 -6.72367 4.03599 0
M  V30 4989 N 467.08 -0.0183926 -1.57589 0
M  V30 4990 C 468.357 0.700621 -1.82622 0
M  V30 4991 C 468.737 1.90951 -0.90005 0
M  V30 4992 O 468.085 2.28452 0.0469145 0
M  V30 4993 C 468.295 1.08899 -3.31575 0
M  V30 4994 C 469.643 1.48514 -3.9778 0
M  V30 4995 O 470.667 1.18227 -3.36007 0
M  V30 4996 O 469.526 2.04903 -5.06633 0
M  V30 4997 H 466.62 0.342743 -0.752633 0
M  V30 4998 H 469.166 -0.0452548 -1.6964 0
M  V30 4999 H 467.938 0.228113 -3.90635 0
M  V30 5000 H 467.561 1.89338 -3.49624 0
M  V30 5001 N 468.558 1.5553 0.254621 0
M  V30 5002 C 469.969 1.67518 0.824286 0
M  V30 5003 C 470.32 0.614429 1.86331 0
M  V30 5004 O 469.445 -0.240736 2.15057 0
M  V30 5005 C 470.04 3.03692 1.50189 0
M  V30 5006 C 468.599 3.17646 2.01935 0
M  V30 5007 C 467.746 2.63373 0.867746 0
M  V30 5008 H 470.697 1.58671 0.0305843 0
M  V30 5009 H 470.718 2.97706 2.36962 0
M  V30 5010 H 470.23 3.80874 0.745431 0
M  V30 5011 H 468.331 2.45273 2.80485 0
M  V30 5012 H 468.444 4.24455 2.22204 0
M  V30 5013 H 466.808 2.20999 1.26616 0
M  V30 5014 H 467.591 3.43074 0.124498 0
M  V30 5015 N 470.036 -0.519951 1.48776 0
M  V30 5016 C 470.969 -1.64053 1.58625 0
M  V30 5017 C 471.947 -1.5664 0.43618 0
M  V30 5018 O 473.131 -1.76969 0.649159 0
M  V30 5019 C 470.258 -3.02497 1.52359 0
M  V30 5020 C 469.304 -3.28235 2.72331 0
M  V30 5021 S 470.137 -3.13414 4.34203 0
M  V30 5022 C 471.293 -4.54287 4.30551 0
M  V30 5023 H 471.526 -1.5545 2.53422 0
M  V30 5024 H 469.059 -0.703681 1.37433 0
M  V30 5025 H 471.017 -3.82336 1.4943 0
M  V30 5026 H 469.678 -3.08531 0.588824 0
M  V30 5027 H 468.871 -4.29256 2.64113 0
M  V30 5028 H 468.473 -2.56085 2.72574 0
M  V30 5029 H 470.765 -5.46006 4.01103 0
M  V30 5030 H 471.708 -4.67558 5.31785 0
M  V30 5031 H 472.116 -4.34079 3.60881 0
M  V30 5032 N 471.514 -1.37532 -0.769588 0
M  V30 5033 C 472.739 -1.36231 -1.56384 0
M  V30 5034 C 473.164 0.0495849 -1.88035 0
M  V30 5035 O 472.522 1.02723 -1.49391 0
M  V30 5036 C 472.57 -2.20986 -2.84952 0
M  V30 5037 O 471.674 -1.61597 -3.79421 0
M  V30 5038 H 471.015 -0.465387 -0.473615 0
M  V30 5039 H 473.545 -1.81085 -0.952342 0
M  V30 5040 H 473.555 -2.34277 -3.34034 0
M  V30 5041 H 472.23 -3.23612 -2.61243 0
M  V30 5042 H 470.807 -1.57359 -3.38072 0
M  V30 5043 N 472.992 0.995999 -1.22138 0
M  V30 5044 C 474.238 1.73767 -1.04561 0
M  V30 5045 C 474.571 1.89633 0.418698 0
M  V30 5046 O 473.846 1.43723 1.3105 0
M  V30 5047 C 474.129 3.14505 -1.75382 0
M  V30 5048 C 473.982 3.06306 -3.29388 0
M  V30 5049 C 475.301 4.13615 -1.50369 0
M  V30 5050 H 472.42 0.630728 -0.38125 0
M  V30 5051 H 475.062 1.16057 -1.50435 0
M  V30 5052 H 473.212 3.63775 -1.36383 0
M  V30 5053 H 474.884 2.64681 -3.77812 0
M  V30 5054 H 473.127 2.43186 -3.59226 0
M  V30 5055 H 473.798 4.05884 -3.74116 0
M  V30 5056 H 476.274 3.73089 -1.84239 0
M  V30 5057 H 475.15 5.10212 -2.02421 0
M  V30 5058 H 475.411 4.39949 -0.435611 0
M  V30 5059 N 474.47 1.03057 1.19235 0
M  V30 5060 C 475.716 0.738841 1.89506 0
M  V30 5061 C 476.071 -0.724807 1.78225 0
M  V30 5062 O 475.364 -1.52118 1.16494 0
M  V30 5063 C 475.558 1.1268 3.39172 0
M  V30 5064 C 475.387 2.62662 3.65019 0
M  V30 5065 C 474.157 3.29658 3.82954 0
M  V30 5066 C 476.355 3.60873 3.66436 0
M  V30 5067 N 474.337 4.68726 3.96446 0
M  V30 5068 C 475.708 4.85566 3.8552 0
M  V30 5069 C 477.763 3.54647 3.49471 0
M  V30 5070 C 476.466 6.04783 3.89397 0
M  V30 5071 C 478.492 4.73281 3.54625 0
M  V30 5072 C 477.854 5.96789 3.74196 0
M  V30 5073 H 473.953 0.322256 0.712513 0
M  V30 5074 H 476.537 1.31822 1.43287 0
M  V30 5075 H 474.708 0.575612 3.84111 0
M  V30 5076 H 476.44 0.787145 3.96971 0
M  V30 5077 H 473.195 2.8007 3.81913 0
M  V30 5078 H 473.619 5.40971 4.07037 0
M  V30 5079 H 478.261 2.60143 3.33295 0
M  V30 5080 H 475.979 6.99654 4.04364 0
M  V30 5081 H 479.565 4.70094 3.42787 0
M  V30 5082 H 478.445 6.87051 3.78061 0
M  V30 5083 N 475.948 -1.35272 0.808662 0
M  V30 5084 C 477.176 -2.02946 0.402537 0
M  V30 5085 C 477.591 -1.60937 -0.987147 0
M  V30 5086 O 476.948 -0.807917 -1.63643 0
M  V30 5087 C 476.999 -3.58317 0.47868 0
M  V30 5088 O 476.72 -3.98799 1.81358 0
M  V30 5089 C 478.221 -4.43251 0.0656281 0
M  V30 5090 H 475.441 -0.650831 0.163279 0
M  V30 5091 H 477.985 -1.72849 1.09286 0
M  V30 5092 H 476.14 -3.87055 -0.163415 0
M  V30 5093 H 476.554 -4.93451 1.77781 0
M  V30 5094 H 478.028 -5.51738 0.170017 0
M  V30 5095 H 478.505 -4.27913 -0.989278 0
M  V30 5096 H 479.111 -4.19813 0.68096 0
M  V30 5097 N 477.426 -0.562348 -1.47226 0
M  V30 5098 C 478.336 0.185466 -2.33866 0
M  V30 5099 C 479.352 0.906713 -1.48508 0
M  V30 5100 O 480.528 0.874458 -1.81425 0
M  V30 5101 C 477.593 1.19904 -3.25306 0
M  V30 5102 C 476.654 0.484669 -4.26555 0
M  V30 5103 C 475.887 1.44996 -5.13626 0
M  V30 5104 O 476.11 2.68515 -5.03245 0
M  V30 5105 O 475.044 0.971642 -5.94006 0
M  V30 5106 H 478.87 -0.525361 -2.99121 0
M  V30 5107 H 476.455 -0.322916 -1.45868 0
M  V30 5108 H 478.337 1.78399 -3.81774 0
M  V30 5109 H 477.012 1.8917 -2.62672 0
M  V30 5110 H 475.919 -0.141605 -3.73832 0
M  V30 5111 H 477.252 -0.166634 -4.91918 0
M  V30 5112 N 478.904 1.54736 -0.299062 0
M  V30 5113 C 480.129 2.04975 0.316254 0
M  V30 5114 C 480.554 1.17501 1.46885 0
M  V30 5115 O 479.912 0.178678 1.80417 0
M  V30 5116 C 479.96 3.52672 0.751997 0
M  V30 5117 O 479.064 3.68226 1.85697 0
M  V30 5118 H 478.405 0.661126 0.0617175 0
M  V30 5119 H 480.935 1.99805 -0.440341 0
M  V30 5120 H 480.945 3.94488 1.04133 0
M  V30 5121 H 479.62 4.158 -0.0911482 0
M  V30 5122 H 478.197 3.38316 1.56834 0
M  V30 5123 N 480.382 0.0267497 1.57577 0
M  V30 5124 C 481.292 -0.971633 2.13533 0
M  V30 5125 C 482.308 -1.35868 1.08701 0
M  V30 5126 O 483.484 -1.44058 1.40746 0
M  V30 5127 C 480.549 -2.23622 2.64941 0
M  V30 5128 C 479.61 -1.90982 3.8448 0
M  V30 5129 C 478.843 -3.11411 4.33427 0
M  V30 5130 O 479.066 -4.23992 3.81558 0
M  V30 5131 O 478 -2.93848 5.25297 0
M  V30 5132 H 481.826 -0.525853 2.99113 0
M  V30 5133 H 479.411 -0.193712 1.48139 0
M  V30 5134 H 481.293 -2.97864 2.98086 0
M  V30 5135 H 479.968 -2.67386 1.82446 0
M  V30 5136 H 478.875 -1.14132 3.56265 0
M  V30 5137 H 480.208 -1.52036 4.6813 0
M  V30 5138 N 481.861 -1.55662 -0.24637 0
M  V30 5139 C 482.809 -1.91186 -1.3248 0
M  V30 5140 C 483.803 -0.790996 -1.49799 0
M  V30 5141 O 485.009 -0.975617 -1.51267 0
M  V30 5142 H 481.384 -0.607207 -0.443626 0
M  V30 5143 H 483.355 -2.81221 -0.997853 0
M  V30 5144 C 482.104 -2.22349 -2.67313 0
M  V30 5145 H 481.427 -3.08097 -2.54786 0
M  V30 5146 H 482.867 -2.51107 -3.41645 0
M  V30 5147 C 481.326 -1.04001 -3.20446 0
M  V30 5148 O 481.856 -0.28828 -4.00664 0
M  V30 5149 N 480.062 -0.830494 -2.7848 0
M  V30 5150 H 479.609 -1.4435 -2.13356 0
M  V30 5151 H 479.567 -0.0403258 -3.14374 0
M  V30 5152 N 483.339 0.512053 -1.4905 0
M  V30 5153 C 484.75 1.09376 -1.51307 0
M  V30 5154 C 485.101 1.94 -0.292971 0
M  V30 5155 O 484.226 2.07965 0.598277 0
M  V30 5156 C 484.821 1.99031 -2.74176 0
M  V30 5157 C 483.38 2.52385 -2.79247 0
M  V30 5158 C 482.527 1.29749 -2.45073 0
M  V30 5159 H 485.478 0.296467 -1.55906 0
M  V30 5160 H 485.499 2.83569 -2.53711 0
M  V30 5161 H 485.011 1.37412 -3.62959 0
M  V30 5162 H 483.112 3.17673 -1.94716 0
M  V30 5163 H 483.225 2.90293 -3.81139 0
M  V30 5164 H 481.589 1.61912 -1.96612 0
M  V30 5165 H 482.372 0.698555 -3.36118 0
M  V30 5166 N 484.817 1.37938 0.762283 0
M  V30 5167 C 486.045 1.36883 1.55147 0
M  V30 5168 C 486.46 -0.0435348 1.8875 0
M  V30 5169 O 485.817 -1.00786 1.52146 0
M  V30 5170 C 485.868 2.21624 2.85596 0
M  V30 5171 O 485.589 3.57358 2.5343 0
M  V30 5172 C 487.09 2.28653 3.7978 0
M  V30 5173 H 484.31 0.468521 0.480343 0
M  V30 5174 H 486.854 1.81404 0.944079 0
M  V30 5175 H 485.009 1.80588 3.42734 0
M  V30 5176 H 485.423 4.01883 3.37032 0
M  V30 5177 H 486.897 2.9225 4.68288 0
M  V30 5178 H 487.374 1.29767 4.19592 0
M  V30 5179 H 487.98 2.70043 3.28568 0
M  V30 5180 N 486.295 -0.989507 1.22664 0
M  V30 5181 C 487.544 -1.72375 1.04737 0
M  V30 5182 C 487.857 -1.91096 -0.417316 0
M  V30 5183 O 489.063 -2.6188 -0.716334 0
M  V30 5184 C 487.519 -3.10161 1.82561 0
M  V30 5185 C 487.127 -2.99358 3.333 0
M  V30 5186 C 488.871 -3.87607 1.73093 0
M  V30 5187 C 486.778 -4.32319 4.03552 0
M  V30 5188 H 485.708 -0.646326 0.388302 0
M  V30 5189 H 488.359 -1.10437 1.46546 0
M  V30 5190 H 486.741 -3.728 1.33552 0
M  V30 5191 H 487.915 -2.45863 3.89728 0
M  V30 5192 H 486.23 -2.35392 3.43481 0
M  V30 5193 H 488.827 -4.86025 2.22899 0
M  V30 5194 H 489.17 -4.10509 0.691976 0
M  V30 5195 H 489.703 -3.31652 2.19663 0
M  V30 5196 H 486.442 -4.14616 5.07714 0
M  V30 5197 H 485.962 -4.85714 3.51911 0
M  V30 5198 H 487.641 -5.01051 4.09337 0
M  V30 5199 N 487.773 -1.03688 -1.18687 0
M  V30 5200 C 489.001 -0.757918 -1.92518 0
M  V30 5201 C 489.416 0.684398 -1.75959 0
M  V30 5202 O 488.773 1.46617 -1.08673 0
M  V30 5203 C 488.824 -1.10985 -3.44042 0
M  V30 5204 O 488.545 -2.49554 -3.60076 0
M  V30 5205 C 490.046 -0.854844 -4.3498 0
M  V30 5206 H 487.266 -0.276699 -0.611293 0
M  V30 5207 H 489.81 -1.38352 -1.50595 0
M  V30 5208 H 487.965 -0.529279 -3.83767 0
M  V30 5209 H 488.379 -2.6291 -4.53849 0
M  V30 5210 H 489.853 -1.15098 -5.39867 0
M  V30 5211 H 490.33 0.210507 -4.38695 0
M  V30 5212 H 490.936 -1.41853 -4.00946 0
M  V30 5213 N 489.251 1.34841 -0.815825 0
M  V30 5214 C 490.5 1.97755 -0.396976 0
M  V30 5215 C 490.813 1.65422 1.04379 0
M  V30 5216 O 492.019 2.21771 1.5662 0
M  V30 5217 C 490.475 3.53818 -0.658869 0
M  V30 5218 C 490.083 3.95051 -2.11278 0
M  V30 5219 C 491.827 4.23397 -0.305834 0
M  V30 5220 C 489.734 5.43997 -2.31994 0
M  V30 5221 H 488.664 0.739985 -0.1447 0
M  V30 5222 H 491.315 1.53781 -1.00118 0
M  V30 5223 H 489.697 3.95997 0.0154112 0
M  V30 5224 H 490.871 3.63998 -2.82564 0
M  V30 5225 H 489.186 3.38388 -2.42657 0
M  V30 5226 H 491.783 5.32899 -0.43854 0
M  V30 5227 H 492.126 4.09508 0.748952 0
M  V30 5228 H 492.659 3.8667 -0.934403 0
M  V30 5229 H 489.398 5.62865 -3.35952 0
M  V30 5230 H 488.918 5.76589 -1.65244 0
M  V30 5231 H 490.597 6.10584 -2.14001 0
M  V30 5232 N 490.729 0.570148 1.46925 0
M  V30 5233 C 491.957 0.0561966 2.06824 0
M  V30 5234 C 492.372 -1.24326 1.42086 0
M  V30 5235 O 491.729 -1.74882 0.521794 0
M  V30 5236 C 491.78 -0.129517 3.61268 0
M  V30 5237 O 491.501 1.1185 4.23581 0
M  V30 5238 C 493.002 -0.679266 4.38065 0
M  V30 5239 H 490.222 0.0517261 0.669003 0
M  V30 5240 H 492.766 0.787243 1.8874 0
M  V30 5241 H 490.921 -0.810739 3.78822 0
M  V30 5242 H 491.335 0.924375 5.1629 0
M  V30 5243 H 492.809 -0.758445 5.46765 0
M  V30 5244 H 493.286 -1.69346 4.05239 0
M  V30 5245 H 493.892 -0.0333237 4.25287 0
M  V30 5246 N 492.207 -1.54576 0.307264 0
M  V30 5247 C 493.17 -2.22423 -0.553224 0
M  V30 5248 C 494.17 -1.21231 -1.05639 0
M  V30 5249 O 495.36 -1.45923 -0.951419 0
M  V30 5250 C 492.492 -2.91552 -1.76664 0
M  V30 5251 H 493.685 -2.99874 0.0396484 0
M  V30 5252 H 491.238 -1.56192 0.0581629 0
M  V30 5253 H 491.973 -2.18196 -2.39918 0
M  V30 5254 H 491.758 -3.65738 -1.41343 0
M  V30 5255 H 493.248 -3.43292 -2.37783 0
M  V30 5256 N 493.685 -0.035106 -1.57561 0
M  V30 5257 C 494.615 0.942993 -2.13612 0
M  V30 5258 C 495.596 1.33531 -1.05373 0
M  V30 5259 O 496.781 1.41287 -1.33235 0
M  V30 5260 C 493.911 2.22332 -2.66807 0
M  V30 5261 C 492.865 1.97156 -3.79886 0
M  V30 5262 C 492.191 3.31506 -4.19533 0
M  V30 5263 C 493.491 1.30596 -5.05709 0
M  V30 5264 H 495.185 0.476179 -2.95589 0
M  V30 5265 H 492.731 0.227602 -1.4219 0
M  V30 5266 H 494.684 2.91142 -3.04654 0
M  V30 5267 H 493.408 2.7119 -1.81999 0
M  V30 5268 H 492.067 1.30763 -3.42486 0
M  V30 5269 H 491.715 3.78134 -3.31698 0
M  V30 5270 H 491.415 3.15465 -4.95738 0
M  V30 5271 H 492.939 4.01574 -4.59968 0
M  V30 5272 H 494.353 1.89416 -5.41105 0
M  V30 5273 H 492.75 1.24934 -5.86951 0
M  V30 5274 H 493.82 0.279742 -4.84092 0
M  V30 5275 N 495.163 1.55791 0.238111 0
M  V30 5276 C 496.093 1.94068 1.29846 0
M  V30 5277 C 497.074 0.806726 1.49753 0
M  V30 5278 O 498.259 1.06772 1.62214 0
M  V30 5279 C 495.389 2.24302 2.65153 0
M  V30 5280 C 494.343 3.40032 2.59927 0
M  V30 5281 C 493.669 3.55829 3.99111 0
M  V30 5282 C 494.969 4.75476 2.16148 0
M  V30 5283 H 496.663 2.82887 0.980563 0
M  V30 5284 H 494.209 1.36105 0.470253 0
M  V30 5285 H 496.162 2.4967 3.39475 0
M  V30 5286 H 494.886 1.32318 2.98596 0
M  V30 5287 H 493.545 3.14687 1.88063 0
M  V30 5288 H 493.193 2.6125 4.29834 0
M  V30 5289 H 492.893 4.3366 3.96501 0
M  V30 5290 H 494.417 3.83528 4.7512 0
M  V30 5291 H 495.831 5.00158 2.80205 0
M  V30 5292 H 494.228 5.56472 2.24631 0
M  V30 5293 H 495.298 4.71946 1.11333 0
M  V30 5294 N 496.642 -0.504142 1.49319 0
M  V30 5295 C 497.89 -1.25598 1.58334 0
M  V30 5296 C 498.211 -1.93114 0.270538 0
M  V30 5297 O 497.481 -1.82585 -0.709891 0
M  V30 5298 H 496.061 -0.466571 0.58337 0
M  V30 5299 H 498.723 -0.584547 1.85928 0
M  V30 5300 H 497.819 -2.02159 2.37778 0
M  V30 5301 N 498.12 -1.38341 -0.754957 0
M  V30 5302 C 499.345 -1.37882 -1.5493 0
M  V30 5303 C 499.77 0.0296385 -1.88077 0
M  V30 5304 O 499.128 1.01133 -1.50472 0
M  V30 5305 C 499.176 -2.23996 -2.82592 0
M  V30 5306 O 498.28 -1.65612 -3.77686 0
M  V30 5307 H 497.621 -0.470384 -0.468652 0
M  V30 5308 H 500.151 -1.82084 -0.933082 0
M  V30 5309 H 500.161 -2.37806 -3.3153 0
M  V30 5310 H 498.836 -3.26365 -2.57796 0
M  V30 5311 H 497.413 -1.60936 -3.36384 0
M  V30 5312 N 499.598 0.982988 -1.23187 0
M  V30 5313 C 500.528 2.09301 -1.03515 0
M  V30 5314 C 501.509 1.70035 0.0471136 0
M  V30 5315 O 502.694 1.93847 -0.117029 0
M  V30 5316 C 499.824 3.4167 -0.622791 0
M  V30 5317 C 498.778 3.94828 -1.65211 0
M  V30 5318 C 498.104 5.23362 -1.09527 0
M  V30 5319 C 499.404 4.2439 -3.04451 0
M  V30 5320 H 501.098 2.26016 -1.96359 0
M  V30 5321 H 498.644 1.08611 -0.945501 0
M  V30 5322 H 500.597 4.18746 -0.472233 0
M  V30 5323 H 499.321 3.24811 0.341329 0
M  V30 5324 H 497.98 3.19895 -1.79061 0
M  V30 5325 H 497.628 5.02852 -0.122211 0
M  V30 5326 H 497.328 5.59895 -1.783 0
M  V30 5327 H 498.852 6.03062 -0.956511 0
M  V30 5328 H 500.266 4.92225 -2.93917 0
M  V30 5329 H 498.663 4.72118 -3.70438 0
M  V30 5330 H 499.733 3.31765 -3.53638 0
M  V30 5331 N 501.076 1.04316 1.18135 0
M  V30 5332 C 502.024 0.630175 2.23901 0
M  V30 5333 C 503.018 -0.344254 1.65865 0
M  V30 5334 O 504.224 -0.211273 1.78756 0
M  V30 5335 H 500.599 0.185578 0.728742 0
M  V30 5336 H 502.57 1.53253 2.56039 0
M  V30 5337 C 501.319 0.011666 3.47698 0
M  V30 5338 H 500.642 0.752526 3.92654 0
M  V30 5339 H 502.082 -0.240046 4.2332 0
M  V30 5340 C 500.541 -1.23913 3.13285 0
M  V30 5341 O 501.071 -2.32959 3.27251 0
M  V30 5342 N 499.277 -1.13338 2.67587 0
M  V30 5343 H 498.824 -0.246006 2.56423 0
M  V30 5344 H 498.782 -1.97116 2.44934 0
M  V30 5345 N 502.554 -1.34406 0.822964 0
M  V30 5346 C 503.779 -2.0304 0.423034 0
M  V30 5347 C 504.204 -1.61568 -0.963196 0
M  V30 5348 O 503.562 -0.800339 -1.62678 0
M  V30 5349 C 503.61 -3.56636 0.53321 0
M  V30 5350 O 502.714 -4.09971 -0.446939 0
M  V30 5351 H 502.055 -0.64075 0.174171 0
M  V30 5352 H 504.585 -1.71653 1.11339 0
M  V30 5353 H 504.595 -4.05945 0.408991 0
M  V30 5354 H 503.27 -3.86168 1.54425 0
M  V30 5355 H 501.847 -3.71835 -0.281601 0
M  V30 5356 N 504.032 -0.577932 -1.46621 0
M  V30 5357 C 505.272 -0.0643097 -2.04299 0
M  V30 5358 C 505.636 1.26967 -1.44026 0
M  V30 5359 O 506.837 1.87224 -1.92875 0
M  V30 5360 C 505.108 0.00547588 -3.574 0
M  V30 5361 S 506.667 0.462216 -4.36359 0
M  V30 5362 H 503.485 -0.0351573 -0.71013 0
M  V30 5363 H 506.087 -0.76935 -1.79725 0
M  V30 5364 H 504.791 -0.969423 -3.98786 0
M  V30 5365 H 504.322 0.733435 -3.86503 0
M  V30 5366 H 506.337 1.71791 -4.65513 0
M  V30 5367 N 505.51 1.54411 -0.315457 0
M  V30 5368 C 506.75 2.02329 0.290236 0
M  V30 5369 C 507.114 1.19878 1.49977 0
M  V30 5370 O 508.315 1.57562 2.17779 0
M  V30 5371 C 506.586 3.51912 0.623937 0
M  V30 5372 S 508.145 4.21775 1.21044 0
M  V30 5373 H 504.963 0.705499 0.0882739 0
M  V30 5374 H 507.565 1.90328 -0.446694 0
M  V30 5375 H 506.269 4.09546 -0.264624 0
M  V30 5376 H 505.8 3.67977 1.39128 0
M  V30 5377 H 507.815 4.28757 2.49764 0
M  V30 5378 N 506.988 0.0434614 1.5754 0
M  V30 5379 C 507.936 -0.951465 2.1225 0
M  V30 5380 C 508.93 -1.3274 1.05245 0
M  V30 5381 O 510.136 -1.30795 1.23663 0
M  V30 5382 H 506.511 -0.324667 0.678303 0
M  V30 5383 H 508.482 -0.464855 2.94757 0
M  V30 5384 C 507.231 -2.21972 2.67626 0
M  V30 5385 H 506.554 -1.93923 3.4962 0
M  V30 5386 H 507.994 -2.89765 3.09536 0
M  V30 5387 C 506.453 -2.95919 1.61038 0
M  V30 5388 O 506.983 -3.8857 1.01862 0
M  V30 5389 N 505.189 -2.58511 1.32741 0
M  V30 5390 H 504.736 -1.83244 1.81051 0
M  V30 5391 H 504.694 -3.08296 0.616531 0
M  V30 5392 N 508.466 -1.55915 -0.229846 0
M  V30 5393 C 509.877 -1.68809 -0.797531 0
M  V30 5394 C 510.228 -0.643995 -1.8533 0
M  V30 5395 O 509.353 0.206492 -2.15413 0
M  V30 5396 C 509.948 -3.06043 -1.45338 0
M  V30 5397 C 508.507 -3.20819 -1.96856 0
M  V30 5398 C 507.654 -2.6472 -0.825736 0
M  V30 5399 H 510.605 -1.58699 -0.00533733 0
M  V30 5400 H 510.626 -3.01438 -2.32196 0
M  V30 5401 H 510.138 -3.82012 -0.684743 0
M  V30 5402 H 508.239 -2.49704 -2.76548 0
M  V30 5403 H 508.352 -4.27937 -2.15423 0
M  V30 5404 H 506.716 -2.22985 -1.23084 0
M  V30 5405 H 507.499 -3.43229 -0.0699019 0
M  V30 5406 N 509.944 0.496216 -1.49584 0
M  V30 5407 C 511.19 1.24918 -1.60521 0
M  V30 5408 C 511.545 1.90197 -0.290352 0
M  V30 5409 O 510.838 1.77967 0.709813 0
M  V30 5410 C 511.032 2.3359 -2.705 0
M  V30 5411 C 510.861 1.78969 -4.12553 0
M  V30 5412 C 509.631 1.60057 -4.79281 0
M  V30 5413 C 511.829 1.29883 -4.97629 0
M  V30 5414 N 509.811 1.00415 -6.05632 0
M  V30 5415 C 511.182 0.824057 -6.14499 0
M  V30 5416 C 513.237 1.18501 -4.83593 0
M  V30 5417 C 511.94 0.246721 -7.18877 0
M  V30 5418 C 513.966 0.621634 -5.88124 0
M  V30 5419 C 513.328 0.157116 -7.04225 0
M  V30 5420 H 509.427 0.446896 -0.641722 0
M  V30 5421 H 512.011 0.555456 -1.86609 0
M  V30 5422 H 510.182 3.00418 -2.46178 0
M  V30 5423 H 511.914 3.00628 -2.70933 0
M  V30 5424 H 508.669 1.84562 -4.36158 0
M  V30 5425 H 509.093 0.725074 -6.73106 0
M  V30 5426 H 513.735 1.53012 -3.94141 0
M  V30 5427 H 511.453 -0.110651 -8.08024 0
M  V30 5428 H 515.039 0.536279 -5.79323 0
M  V30 5429 H 513.919 -0.272009 -7.83728 0
M  V30 5430 N 511.423 1.38739 0.74761 0
M  V30 5431 C 512.672 1.3459 1.50228 0
M  V30 5432 C 512.985 -0.0595592 1.95509 0
M  V30 5433 O 514.191 -0.22361 2.70578 0
M  V30 5434 C 512.647 2.36377 2.71393 0
M  V30 5435 C 512.255 3.82573 2.33113 0
M  V30 5436 C 513.999 2.41281 3.49262 0
M  V30 5437 C 511.906 4.76032 3.50924 0
M  V30 5438 H 510.836 0.500312 0.564096 0
M  V30 5439 H 513.487 1.64324 0.8167 0
M  V30 5440 H 511.869 1.99694 3.41962 0
M  V30 5441 H 513.043 4.28227 1.70171 0
M  V30 5442 H 511.358 3.80844 1.68365 0
M  V30 5443 H 513.955 3.08301 4.36869 0
M  V30 5444 H 514.298 1.43353 3.9084 0
M  V30 5445 H 514.831 2.76793 2.85711 0
M  V30 5446 H 511.57 5.75177 3.14408 0
M  V30 5447 H 511.09 4.35066 4.12889 0
M  V30 5448 H 512.769 4.94331 4.17427 0
M  V30 5449 N 512.901 -0.976442 1.23707 0
M  V30 5450 C 514.131 -1.75087 1.09673 0
M  V30 5451 C 514.539 -1.85852 -0.354344 0
M  V30 5452 O 513.882 -1.33985 -1.25673 0
M  V30 5453 C 513.944 -3.19272 1.65245 0
M  V30 5454 C 513.608 -3.32004 3.14042 0
M  V30 5455 C 514.605 -3.18017 4.11292 0
M  V30 5456 C 512.29 -3.56525 3.53829 0
M  V30 5457 C 514.284 -3.28363 5.46312 0
M  V30 5458 C 511.971 -3.6651 4.88993 0
M  V30 5459 C 512.969 -3.52439 5.85043 0
M  V30 5460 O 512.657 -3.62063 7.1775 0
M  V30 5461 H 512.389 -0.556164 0.384262 0
M  V30 5462 H 514.943 -1.23518 1.64111 0
M  V30 5463 H 513.173 -3.72107 1.05231 0
M  V30 5464 H 514.862 -3.7849 1.46629 0
M  V30 5465 H 515.628 -2.98966 3.81896 0
M  V30 5466 H 511.507 -3.66547 2.79579 0
M  V30 5467 H 515.051 -3.17297 6.21263 0
M  V30 5468 H 510.948 -3.85072 5.18063 0
M  V30 5469 H 511.716 -3.78833 7.25553 0
M  V30 5470 N 514.379 -1.04941 -1.1758 0
M  V30 5471 C 515.312 -0.592518 -2.20373 0
M  V30 5472 C 516.29 0.377561 -1.58156 0
M  V30 5473 O 517.474 0.28978 -1.86259 0
M  V30 5474 C 514.601 0.133215 -3.38438 0
M  V30 5475 C 513.647 -0.791484 -4.19092 0
M  V30 5476 S 514.48 -2.27925 -4.84572 0
M  V30 5477 C 515.636 -1.56462 -6.06028 0
M  V30 5478 H 515.869 -1.46342 -2.58788 0
M  V30 5479 H 513.402 -0.861148 -1.28155 0
M  V30 5480 H 515.36 0.545746 -4.06856 0
M  V30 5481 H 514.021 0.980124 -2.98416 0
M  V30 5482 H 513.214 -0.230039 -5.03475 0
M  V30 5483 H 512.816 -1.14326 -3.56098 0
M  V30 5484 H 515.108 -0.862539 -6.71987 0
M  V30 5485 H 516.051 -2.38583 -6.66696 0
M  V30 5486 H 516.459 -1.05313 -5.5459 0
M  V30 5487 N 515.857 1.33968 -0.830081 0
M  V30 5488 C 517.104 1.98063 -0.421566 0
M  V30 5489 C 517.432 1.65787 1.0171 0
M  V30 5490 O 516.687 0.925348 1.72441 0
M  V30 5491 C 516.986 3.52679 -0.57898 0
M  V30 5492 C 516.652 4.04884 -1.98443 0
M  V30 5493 C 515.314 4.18852 -2.36888 0
M  V30 5494 C 517.666 4.32879 -2.90285 0
M  V30 5495 C 514.994 4.58145 -3.66497 0
M  V30 5496 C 517.346 4.7362 -4.19364 0
M  V30 5497 C 516.01 4.85794 -4.57778 0
M  V30 5498 H 515.28 0.724765 -0.154262 0
M  V30 5499 H 517.927 1.59792 -1.05541 0
M  V30 5500 H 516.232 3.91556 0.138219 0
M  V30 5501 H 517.929 4.00261 -0.243317 0
M  V30 5502 H 514.519 3.9448 -1.67581 0
M  V30 5503 H 518.703 4.21619 -2.61823 0
M  V30 5504 H 513.959 4.65762 -3.96075 0
M  V30 5505 H 518.133 4.9424 -4.90612 0
M  V30 5506 H 515.76 5.15998 -5.58256 0
M  V30 5507 N 517.335 0.585699 1.46312 0
M  V30 5508 C 518.582 0.0724211 2.0237 0
M  V30 5509 C 518.91 -1.28868 1.45683 0
M  V30 5510 O 518.165 -1.85853 0.612945 0
M  V30 5511 C 518.464 -0.0401312 3.57377 0
M  V30 5512 C 518.13 1.25376 4.33119 0
M  V30 5513 C 516.792 1.60824 4.5353 0
M  V30 5514 C 519.144 2.10987 4.76586 0
M  V30 5515 C 516.472 2.81676 5.14661 0
M  V30 5516 C 518.824 3.31068 5.39052 0
M  V30 5517 C 517.488 3.66794 5.5769 0
M  V30 5518 H 516.758 0.0265007 0.740526 0
M  V30 5519 H 519.405 0.762935 1.75646 0
M  V30 5520 H 517.71 -0.813791 3.83255 0
M  V30 5521 H 519.407 -0.453078 3.98432 0
M  V30 5522 H 515.997 0.967808 4.1753 0
M  V30 5523 H 520.181 1.84904 4.60569 0
M  V30 5524 H 515.437 3.0949 5.27282 0
M  V30 5525 H 519.611 3.97672 5.71691 0
M  V30 5526 H 517.238 4.60529 6.04828 0
M  V30 5527 N 518.813 -1.54241 0.323641 0
M  V30 5528 C 520.038 -2.05452 -0.283605 0
M  V30 5529 C 520.463 -1.19823 -1.44997 0
M  V30 5530 O 519.821 -0.207358 -1.8011 0
M  V30 5531 C 519.869 -3.53823 -0.695795 0
M  V30 5532 O 518.973 -3.71134 -1.79815 0
M  V30 5533 H 518.314 -0.662024 -0.0511917 0
M  V30 5534 H 520.844 -1.99079 0.472073 0
M  V30 5535 H 520.854 -3.96094 -0.978434 0
M  V30 5536 H 519.529 -4.15602 0.157287 0
M  V30 5537 H 518.106 -3.40768 -1.51431 0
M  V30 5538 N 520.291 -0.0518155 -1.57515 0
M  V30 5539 C 521.539 0.620595 -1.92336 0
M  V30 5540 C 521.86 1.71345 -0.930907 0
M  V30 5541 O 521.13 1.95885 0.0241341 0
M  V30 5542 H 519.71 0.232226 -0.709986 0
M  V30 5543 H 522.372 -0.104969 -1.94617 0
M  V30 5544 H 521.468 1.05879 -2.93592 0
M  V30 5545 N 521.769 1.56035 0.221574 0
M  V30 5546 C 522.719 1.8881 1.27807 0
M  V30 5547 C 523.703 0.751177 1.42289 0
M  V30 5548 O 524.895 1.01359 1.45104 0
M  V30 5549 C 522.024 2.20828 2.6285 0
M  V30 5550 C 521.11 3.40912 2.52269 0
M  V30 5551 N 521.501 4.59531 2.1134 0
M  V30 5552 C 519.799 3.44526 2.83228 0
M  V30 5553 C 520.5 5.41689 2.1201 0
M  V30 5554 N 519.476 4.814 2.52497 0
M  V30 5555 H 523.278 2.78036 0.952529 0
M  V30 5556 H 520.792 1.566 0.430134 0
M  V30 5557 H 522.789 2.42483 3.39127 0
M  V30 5558 H 521.449 1.32914 2.9625 0
M  V30 5559 H 522.46 4.8469 1.82472 0
M  V30 5560 H 519.137 2.66956 3.21 0
M  V30 5561 H 520.527 6.46643 1.82491 0
M  V30 5562 N 523.247 -0.488276 1.49845 0
M  V30 5563 C 524.177 -1.59675 1.70371 0
M  V30 5564 C 525.158 -1.60878 0.552473 0
M  V30 5565 O 526.343 -1.77417 0.78973 0
M  V30 5566 C 523.473 -2.98098 1.782 0
M  V30 5567 C 522.427 -3.11761 2.93239 0
M  V30 5568 C 521.753 -4.51661 2.86193 0
M  V30 5569 C 523.053 -2.90589 4.33999 0
M  V30 5570 H 524.747 -1.42752 2.63177 0
M  V30 5571 H 522.293 -0.685317 1.26647 0
M  V30 5572 H 524.246 -3.75555 1.91144 0
M  V30 5573 H 522.97 -3.16138 0.820018 0
M  V30 5574 H 521.629 -2.36732 2.79917 0
M  V30 5575 H 521.277 -4.66595 1.87877 0
M  V30 5576 H 520.977 -4.61742 3.63412 0
M  V30 5577 H 522.501 -5.31162 3.01163 0
M  V30 5578 H 523.915 -3.57807 4.47936 0
M  V30 5579 H 522.312 -3.1213 5.12538 0
M  V30 5580 H 523.382 -1.86595 4.4756 0
M  V30 5581 N 524.725 -1.39134 -0.740242 0
M  V30 5582 C 525.655 -1.40165 -1.86751 0
M  V30 5583 C 526.636 -0.265708 -1.68012 0
M  V30 5584 O 527.821 -0.47076 -1.88408 0
M  V30 5585 C 524.951 -1.2392 -3.2444 0
M  V30 5586 C 523.905 -2.34858 -3.57807 0
M  V30 5587 C 523.231 -2.03707 -4.94376 0
M  V30 5588 C 524.531 -3.77159 -3.61315 0
M  V30 5589 H 526.225 -2.345 -1.86145 0
M  V30 5590 H 523.771 -1.12875 -0.89416 0
M  V30 5591 H 525.724 -1.23263 -4.02969 0
M  V30 5592 H 524.448 -0.26051 -3.25559 0
M  V30 5593 H 523.107 -2.34723 -2.81604 0
M  V30 5594 H 522.755 -1.04289 -4.9207 0
M  V30 5595 H 522.455 -2.78016 -5.17669 0
M  V30 5596 H 523.979 -2.04691 -5.75268 0
M  V30 5597 H 525.393 -3.79252 -4.29931 0
M  V30 5598 H 523.79 -4.50784 -3.96124 0
M  V30 5599 H 524.86 -4.08513 -2.61238 0
M  V30 5600 N 526.204 0.969867 -1.24223 0
M  V30 5601 C 527.136 2.0669 -0.99055 0
M  V30 5602 C 528.149 1.62753 0.0392222 0
M  V30 5603 O 529.338 1.77403 -0.197561 0
M  V30 5604 C 526.438 3.35589 -0.472594 0
M  V30 5605 C 525.611 4.08444 -1.56499 0
M  V30 5606 C 524.67 5.15616 -1.05007 0
M  V30 5607 O 523.696 5.41911 -1.7413 0
M  V30 5608 N 524.898 5.80383 0.116641 0
M  V30 5609 H 527.663 2.28855 -1.93508 0
M  V30 5610 H 525.224 1.13733 -1.15223 0
M  V30 5611 H 527.216 4.04542 -0.112919 0
M  V30 5612 H 525.786 3.10311 0.377617 0
M  V30 5613 H 525.006 3.33798 -2.09696 0
M  V30 5614 H 526.294 4.53882 -2.29932 0
M  V30 5615 H 525.692 5.6142 0.694589 0
M  V30 5616 H 524.249 6.50462 0.417483 0
M  V30 5617 N 527.682 1.05563 1.17022 0
M  V30 5618 C 528.959 0.68165 1.83338 0
M  V30 5619 C 529.339 -0.837665 1.93769 0
M  V30 5620 O 528.687 -1.74507 1.47511 0
M  V30 5621 C 528.897 1.375 3.20772 0
M  V30 5622 C 530.245 1.51545 3.96635 0
M  V30 5623 O 531.269 1.33431 3.30264 0
M  V30 5624 O 530.128 1.812 5.15586 0
M  V30 5625 H 527.222 0.240412 0.791285 0
M  V30 5626 H 529.768 1.15545 1.24288 0
M  V30 5627 H 528.54 2.41135 3.08171 0
M  V30 5628 H 528.163 0.890798 3.87493 0
M  V30 5629 N 529.16 -1.33526 0.837174 0
M  V30 5630 C 530.4 -1.99649 0.438115 0
M  V30 5631 C 530.764 -1.64879 -0.983816 0
M  V30 5632 O 531.965 -2.23956 -1.48651 0
M  V30 5633 C 530.236 -3.51431 0.650461 0
M  V30 5634 S 531.795 -4.37431 0.346371 0
M  V30 5635 H 528.613 -0.69162 0.164872 0
M  V30 5636 H 531.215 -1.62556 1.08609 0
M  V30 5637 H 529.919 -3.74225 1.68475 0
M  V30 5638 H 529.45 -3.93398 -0.0117309 0
M  V30 5639 H 531.465 -4.89132 -0.834504 0
M  V30 5640 N 530.638 -0.59345 -1.46 0
M  V30 5641 C 531.884 -0.0832754 -2.02629 0
M  V30 5642 C 532.217 1.27749 -1.46266 0
M  V30 5643 O 531.492 1.8395 -0.631866 0
M  V30 5644 C 531.775 -0.0290756 -3.60088 0
M  V30 5645 C 531.628 -1.41951 -4.26814 0
M  V30 5646 C 532.947 0.666055 -4.35031 0
M  V30 5647 H 530.066 -0.031736 -0.736316 0
M  V30 5648 H 532.708 -0.762711 -1.74019 0
M  V30 5649 H 530.858 0.549532 -3.84594 0
M  V30 5650 H 532.53 -2.04411 -4.13538 0
M  V30 5651 H 530.773 -1.98422 -3.8576 0
M  V30 5652 H 531.444 -1.33395 -5.3564 0
M  V30 5653 H 533.92 0.174401 -4.15734 0
M  V30 5654 H 532.796 0.673041 -5.44758 0
M  V30 5655 H 533.057 1.72946 -4.06869 0
M  V30 5656 N 532.116 1.54067 -0.331816 0
M  V30 5657 C 533.048 2.22139 0.564538 0
M  V30 5658 C 534.061 1.22408 1.07332 0
M  V30 5659 O 535.25 1.4883 0.985481 0
M  V30 5660 C 532.35 2.87876 1.78831 0
M  V30 5661 C 531.523 4.13817 1.41682 0
M  V30 5662 C 530.582 4.63072 2.49901 0
M  V30 5663 O 529.608 5.27562 2.13699 0
M  V30 5664 N 530.81 4.38001 3.80967 0
M  V30 5665 H 533.575 2.99694 -0.0183736 0
M  V30 5666 H 531.136 1.61153 -0.155396 0
M  V30 5667 H 533.128 3.17747 2.50637 0
M  V30 5668 H 531.698 2.13977 2.27887 0
M  V30 5669 H 530.918 3.9062 0.530044 0
M  V30 5670 H 532.206 4.95762 1.14443 0
M  V30 5671 H 531.604 3.864 4.13173 0
M  V30 5672 H 530.161 4.72507 4.48977 0
M  V30 5673 N 533.594 0.0601682 1.57485 0
M  V30 5674 C 534.819 -0.624416 1.97777 0
M  V30 5675 C 535.244 -1.63051 0.937867 0
M  V30 5676 O 534.602 -1.81036 -0.0978845 0
M  V30 5677 C 534.65 -1.27979 3.37126 0
M  V30 5678 O 533.754 -2.39556 3.35688 0
M  V30 5679 H 533.095 -0.161581 0.64404 0
M  V30 5680 H 535.625 0.131237 2.04179 0
M  V30 5681 H 535.635 -1.62937 3.74053 0
M  V30 5682 H 534.31 -0.542501 4.12347 0
M  V30 5683 H 532.887 -2.06478 3.10517 0
M  V30 5684 N 535.072 -1.5615 -0.213296 0
M  V30 5685 C 536.319 -1.79546 -0.936462 0
M  V30 5686 C 536.647 -0.630337 -1.84003 0
M  V30 5687 O 535.902 0.384883 -1.91878 0
M  V30 5688 C 536.201 -3.08772 -1.79985 0
M  V30 5689 C 535.867 -4.38532 -1.04882 0
M  V30 5690 C 534.529 -4.73787 -0.841393 0
M  V30 5691 C 536.881 -5.18609 -0.51907 0
M  V30 5692 C 534.209 -5.86627 -0.0924403 0
M  V30 5693 C 536.561 -6.32229 0.216581 0
M  V30 5694 C 535.225 -6.6608 0.435191 0
M  V30 5695 H 534.495 -0.657004 -0.342676 0
M  V30 5696 H 537.142 -1.9041 -0.204051 0
M  V30 5697 H 535.447 -2.93065 -2.60038 0
M  V30 5698 H 537.144 -3.24077 -2.36168 0
M  V30 5699 H 533.734 -4.10855 -1.22048 0
M  V30 5700 H 537.918 -4.91801 -0.666775 0
M  V30 5701 H 533.174 -6.11338 0.087081 0
M  V30 5702 H 537.348 -6.93503 0.634538 0
M  V30 5703 H 534.975 -7.5336 1.01746 0
M  V30 5704 N 536.55 0.480323 -1.50102 0
M  V30 5705 C 537.961 1.06142 -1.53593 0
M  V30 5706 C 538.312 1.93335 -0.334055 0
M  V30 5707 O 537.437 2.09188 0.55403 0
M  V30 5708 C 538.032 1.9317 -2.78336 0
M  V30 5709 C 536.591 2.46405 -2.84538 0
M  V30 5710 C 535.738 1.24521 -2.4777 0
M  V30 5711 H 538.689 0.26333 -1.565 0
M  V30 5712 H 538.71 2.78123 -2.59669 0
M  V30 5713 H 538.222 1.29683 -3.65792 0
M  V30 5714 H 536.323 3.13472 -2.01411 0
M  V30 5715 H 536.436 2.82143 -3.87211 0
M  V30 5716 H 534.8 1.57706 -2.00003 0
M  V30 5717 H 535.583 0.627102 -3.37524 0
M  V30 5718 N 538.028 1.39524 0.732853 0
M  V30 5719 C 539.268 1.383 1.50508 0
M  V30 5720 C 539.632 -0.0208271 1.91989 0
M  V30 5721 O 540.833 -0.158091 2.68335 0
M  V30 5722 C 539.104 2.33007 2.71003 0
M  V30 5723 S 540.663 2.49989 3.60626 0
M  V30 5724 H 537.481 0.490417 0.514794 0
M  V30 5725 H 540.083 1.75641 0.858524 0
M  V30 5726 H 538.787 3.33862 2.38672 0
M  V30 5727 H 538.318 1.96889 3.40585 0
M  V30 5728 H 540.333 1.7394 4.64714 0
M  V30 5729 N 539.506 -0.963266 1.24736 0
M  V30 5730 C 540.746 -1.72172 1.10165 0
M  V30 5731 C 541.11 -1.88731 -0.352784 0
M  V30 5732 O 542.311 -2.61549 -0.620107 0
M  V30 5733 C 540.582 -3.0724 1.82589 0
M  V30 5734 S 542.141 -3.98449 1.83803 0
M  V30 5735 H 538.959 -0.591901 0.393922 0
M  V30 5736 H 541.561 -1.14955 1.58132 0
M  V30 5737 H 540.265 -2.92851 2.87518 0
M  V30 5738 H 539.796 -3.69521 1.34973 0
M  V30 5739 H 541.811 -4.87805 0.908883 0
M  V30 5740 N 540.985 -1.06182 -1.16461 0
M  V30 5741 C 541.917 -0.629584 -2.20383 0
M  V30 5742 C 542.93 0.311834 -1.59786 0
M  V30 5743 O 544.119 0.103 -1.78203 0
M  V30 5744 C 541.219 0.0973695 -3.3876 0
M  V30 5745 C 540.392 -0.857252 -4.28917 0
M  V30 5746 C 539.451 -0.169749 -5.25926 0
M  V30 5747 O 538.477 -0.807044 -5.6345 0
M  V30 5748 N 539.679 1.08911 -5.70192 0
M  V30 5749 H 542.444 -1.52352 -2.58087 0
M  V30 5750 H 540.005 -0.944993 -1.31459 0
M  V30 5751 H 541.997 0.567676 -4.00699 0
M  V30 5752 H 540.567 0.893093 -2.99571 0
M  V30 5753 H 539.787 -1.50696 -3.64259 0
M  V30 5754 H 541.075 -1.50489 -4.86035 0
M  V30 5755 H 540.473 1.62703 -5.41797 0
M  V30 5756 H 539.03 1.50331 -6.34227 0
M  V30 5757 N 542.463 1.3308 -0.844243 0
M  V30 5758 C 543.411 2.31028 -0.269954 0
M  V30 5759 C 544.405 1.58381 0.600997 0
M  V30 5760 O 545.611 1.73203 0.48996 0
M  V30 5761 H 541.986 0.748866 -0.0685782 0
M  V30 5762 H 543.957 2.76967 -1.11049 0
M  V30 5763 C 542.706 3.43549 0.535676 0
M  V30 5764 H 542.029 3.99604 -0.125202 0
M  V30 5765 H 543.469 4.14267 0.903262 0
M  V30 5766 C 541.928 2.8988 1.71672 0
M  V30 5767 O 542.458 2.86511 2.81557 0
M  V30 5768 N 540.664 2.46416 1.54037 0
M  V30 5769 H 540.211 2.49356 0.64649 0
M  V30 5770 H 540.169 2.1086 2.33207 0
M  V30 5771 N 543.941 0.601185 1.45683 0
M  V30 5772 C 544.874 -0.17013 2.27565 0
M  V30 5773 C 545.852 -0.879661 1.36751 0
M  V30 5774 O 547.036 -0.889827 1.66176 0
M  V30 5775 C 544.163 -1.24568 3.14961 0
M  V30 5776 C 543.209 -0.639978 4.21671 0
M  V30 5777 S 544.042 0.547275 5.32696 0
M  V30 5778 C 545.198 -0.529019 6.2366 0
M  V30 5779 H 545.431 0.524583 2.92635 0
M  V30 5780 H 542.964 0.388537 1.49431 0
M  V30 5781 H 544.922 -1.86138 3.65873 0
M  V30 5782 H 543.583 -1.91243 2.49169 0
M  V30 5783 H 542.776 -1.44903 4.8272 0
M  V30 5784 H 542.378 -0.0995558 3.73867 0
M  V30 5785 H 544.67 -1.40981 6.62669 0
M  V30 5786 H 545.613 0.0451599 7.08086 0
M  V30 5787 H 546.021 -0.84147 5.58193 0
M  V30 5788 N 545.419 -1.53889 0.339982 0
M  V30 5789 C 546.366 -2.24902 -0.518452 0
M  V30 5790 C 547.336 -1.24593 -1.09844 0
M  V30 5791 O 548.521 -1.53317 -1.13572 0
M  V30 5792 C 545.661 -3.02262 -1.66529 0
M  V30 5793 C 544.774 -4.17418 -1.11295 0
M  V30 5794 C 543.909 -4.82273 -2.2268 0
M  V30 5795 C 542.948 -5.89503 -1.6478 0
M  V30 5796 N 542.085 -6.48153 -2.69893 0
M  V30 5797 H 546.925 -2.97853 0.0936579 0
M  V30 5798 H 544.462 -1.46986 0.0579924 0
M  V30 5799 H 546.42 -3.45371 -2.3404 0
M  V30 5800 H 545.05 -2.31614 -2.24844 0
M  V30 5801 H 544.102 -3.78976 -0.328886 0
M  V30 5802 H 545.414 -4.94554 -0.649414 0
M  V30 5803 H 544.568 -5.28435 -2.98063 0
M  V30 5804 H 543.307 -4.04552 -2.72376 0
M  V30 5805 H 542.312 -5.42728 -0.879004 0
M  V30 5806 H 543.537 -6.6913 -1.1594 0
M  V30 5807 H 541.483 -5.73298 -3.1885 0
M  V30 5808 H 541.4 -7.20752 -2.28151 0
M  V30 5809 H 542.668 -6.98968 -3.45056 0
M  V30 5810 N 546.897 -0.0685191 -1.57451 0
M  V30 5811 C 547.807 0.914677 -2.16034 0
M  V30 5812 C 548.823 1.32938 -1.12265 0
M  V30 5813 O 549.999 1.40275 -1.44516 0
M  V30 5814 C 547.064 2.16519 -2.70777 0
M  V30 5815 C 546.125 1.80721 -3.89408 0
M  V30 5816 C 545.358 2.9981 -4.41531 0
M  V30 5817 O 545.581 4.13727 -3.92666 0
M  V30 5818 O 544.515 2.79817 -5.32903 0
M  V30 5819 H 548.341 0.446364 -3.00402 0
M  V30 5820 H 545.926 0.154367 -1.486 0
M  V30 5821 H 547.808 2.89856 -3.05878 0
M  V30 5822 H 546.483 2.62454 -1.89471 0
M  V30 5823 H 545.39 1.04646 -3.59166 0
M  V30 5824 H 546.723 1.39571 -4.71997 0
M  V30 5825 N 548.375 1.56261 0.205012 0
M  V30 5826 C 549.322 1.93754 1.25411 0
M  V30 5827 C 550.292 0.796826 1.45739 0
M  V30 5828 O 551.477 1.05414 1.59036 0
M  V30 5829 C 548.617 2.27383 2.59598 0
M  V30 5830 C 547.73 3.5447 2.46931 0
M  V30 5831 C 546.865 3.77468 3.73753 0
M  V30 5832 C 545.904 4.98014 3.55877 0
M  V30 5833 N 545.041 5.17316 4.74688 0
M  V30 5834 H 549.881 2.83203 0.92737 0
M  V30 5835 H 547.418 1.40158 0.446574 0
M  V30 5836 H 549.376 2.44895 3.37761 0
M  V30 5837 H 548.006 1.41088 2.90335 0
M  V30 5838 H 547.058 3.45061 1.60116 0
M  V30 5839 H 548.37 4.42789 2.29651 0
M  V30 5840 H 547.524 3.95165 4.60358 0
M  V30 5841 H 546.263 2.87461 3.93976 0
M  V30 5842 H 545.268 4.80249 2.67657 0
M  V30 5843 H 546.493 5.8952 3.37109 0
M  V30 5844 H 544.439 4.30255 4.95194 0
M  V30 5845 H 544.356 5.99796 4.60197 0
M  V30 5846 H 545.624 5.39463 5.62672 0
M  V30 5847 N 549.853 -0.472356 1.50355 0
M  V30 5848 C 551.1 -1.22453 1.61281 0
M  V30 5849 C 551.428 -1.91972 0.31256 0
M  V30 5850 O 550.683 -1.82696 -0.701475 0
M  V30 5851 C 550.982 -2.29257 2.74182 0
M  V30 5852 C 550.648 -1.76999 4.14708 0
M  V30 5853 C 549.31 -1.62467 4.52944 0
M  V30 5854 C 551.662 -1.38215 5.0254 0
M  V30 5855 C 548.99 -1.07574 5.76754 0
M  V30 5856 C 551.342 -0.847638 6.26895 0
M  V30 5857 C 550.006 -0.688946 6.63935 0
M  V30 5858 H 549.276 -0.448087 0.590168 0
M  V30 5859 H 551.923 -0.520744 1.84284 0
M  V30 5860 H 550.228 -3.05538 2.45263 0
M  V30 5861 H 551.925 -2.87212 2.7984 0
M  V30 5862 H 548.515 -1.89276 3.84542 0
M  V30 5863 H 552.699 -1.48276 4.73633 0
M  V30 5864 H 547.955 -0.940237 6.04127 0
M  V30 5865 H 552.129 -0.538455 6.94315 0
M  V30 5866 H 549.756 -0.261435 7.5975 0
M  V30 5867 N 551.331 -1.39911 -0.725443 0
M  V30 5868 C 552.279 -1.39552 -1.86086 0
M  V30 5869 C 553.273 -0.277334 -1.67114 0
M  V30 5870 O 554.479 -0.447865 -1.74339 0
M  V30 5871 H 550.854 -0.435993 -0.612711 0
M  V30 5872 H 552.825 -2.35305 -1.83505 0
M  V30 5873 C 551.574 -1.26529 -3.2386 0
M  V30 5874 H 550.897 -2.11845 -3.3906 0
M  V30 5875 H 552.337 -1.30336 -4.03471 0
M  V30 5876 C 550.796 0.0254168 -3.3689 0
M  V30 5877 O 551.326 0.992048 -3.89257 0
M  V30 5878 N 549.532 0.0916528 -2.90455 0
M  V30 5879 H 549.079 -0.695675 -2.48028 0
M  V30 5880 H 549.037 0.954745 -2.99553 0
M  V30 5881 N 552.809 0.956637 -1.25245 0
M  V30 5882 C 553.756 2.053 -1.05454 0
M  V30 5883 C 554.726 1.66062 0.0356889 0
M  V30 5884 O 555.911 1.90415 -0.121099 0
M  V30 5885 C 553.051 3.38391 -0.677191 0
M  V30 5886 C 552.164 3.90758 -1.84206 0
M  V30 5887 C 551.299 5.12165 -1.40926 0
M  V30 5888 C 550.338 5.56757 -2.54338 0
M  V30 5889 N 549.475 6.69376 -2.11848 0
M  V30 5890 H 554.315 2.21562 -1.99284 0
M  V30 5891 H 551.852 1.08578 -0.992434 0
M  V30 5892 H 553.81 4.1488 -0.43938 0
M  V30 5893 H 552.44 3.22021 0.224127 0
M  V30 5894 H 551.492 3.10808 -2.19323 0
M  V30 5895 H 552.804 4.19802 -2.69383 0
M  V30 5896 H 551.958 5.96065 -1.13098 0
M  V30 5897 H 550.697 4.84832 -0.528175 0
M  V30 5898 H 549.702 4.71423 -2.82913 0
M  V30 5899 H 550.927 5.861 -3.43022 0
M  V30 5900 H 548.873 6.43756 -1.26153 0
M  V30 5901 H 548.79 6.97927 -2.90574 0
M  V30 5902 H 550.058 7.5669 -1.87191 0
M  V30 5903 N 554.287 1.06798 1.15896 0
M  V30 5904 C 555.197 0.694564 2.24083 0
M  V30 5905 C 556.213 -0.291687 1.71538 0
M  V30 5906 O 557.389 -0.139723 2.00915 0
M  V30 5907 C 554.454 0.0921014 3.46578 0
M  V30 5908 C 553.515 1.13087 4.14137 0
M  V30 5909 C 552.748 0.557064 5.30785 0
M  V30 5910 O 552.971 -0.628623 5.66925 0
M  V30 5911 O 551.905 1.29924 5.8771 0
M  V30 5912 H 555.731 1.59663 2.58344 0
M  V30 5913 H 553.316 0.840575 1.2351 0
M  V30 5914 H 555.198 -0.241884 4.20705 0
M  V30 5915 H 553.873 -0.78337 3.14078 0
M  V30 5916 H 552.78 1.51712 3.41957 0
M  V30 5917 H 554.113 1.97805 4.50704 0
M  V30 5918 N 555.766 -1.3263 0.851289 0
M  V30 5919 C 557.043 -1.91982 0.374448 0
M  V30 5920 C 557.423 -1.77568 -1.14161 0
M  V30 5921 O 556.771 -1.1717 -1.96172 0
M  V30 5922 C 556.981 -3.38862 0.835088 0
M  V30 5923 C 558.329 -4.15999 0.850309 0
M  V30 5924 O 559.353 -3.47566 0.779505 0
M  V30 5925 O 558.212 -5.38189 0.949481 0
M  V30 5926 H 555.306 -0.819846 0.10854 0
M  V30 5927 H 557.852 -1.41422 0.937966 0
M  V30 5928 H 556.624 -3.43281 1.87814 0
M  V30 5929 H 556.247 -3.96821 0.248833 0
M  V30 5930 N 557.244 -0.608902 -1.45362 0
M  V30 5931 C 558.472 -0.111013 -2.06602 0
M  V30 5932 C 558.887 1.20516 -1.45332 0
M  V30 5933 O 558.244 1.73437 -0.567978 0
M  V30 5934 C 558.295 0.033688 -3.61484 0
M  V30 5935 O 558.016 -1.23041 -4.20467 0
M  V30 5936 C 559.517 0.562882 -4.39712 0
M  V30 5937 H 556.737 -0.0694453 -0.667397 0
M  V30 5938 H 559.281 -0.837008 -1.86586 0
M  V30 5939 H 557.436 0.710016 -3.80838 0
M  V30 5940 H 557.85 -1.06094 -5.13658 0
M  V30 5941 H 559.324 0.613213 -5.48583 0
M  V30 5942 H 559.801 1.58543 -4.09586 0
M  V30 5943 H 560.407 -0.0794454 -4.25226 0
M  V30 5944 N 558.722 1.53707 -0.348139 0
M  V30 5945 C 559.999 1.93247 0.302475 0
M  V30 5946 C 560.379 1.28012 1.67857 0
M  V30 5947 O 559.727 0.43274 2.24365 0
M  V30 5948 C 559.937 3.47031 0.370159 0
M  V30 5949 C 561.285 4.20066 0.61882 0
M  V30 5950 O 562.309 3.53319 0.452087 0
M  V30 5951 O 561.168 5.38318 0.94215 0
M  V30 5952 H 558.262 0.807736 0.177458 0
M  V30 5953 H 560.808 1.64927 -0.399651 0
M  V30 5954 H 559.58 3.86745 -0.59534 0
M  V30 5955 H 559.203 3.81532 1.11888 0
M  V30 5956 N 560.2 0.0768682 1.57412 0
M  V30 5957 C 561.425 -0.603404 1.98428 0
M  V30 5958 C 561.85 -1.62047 0.955108 0
M  V30 5959 O 561.208 -1.81129 -0.0786778 0
M  V30 5960 C 561.256 -1.24396 3.38464 0
M  V30 5961 O 560.36 -2.35982 3.3821 0
M  V30 5962 H 559.701 -0.154741 0.645718 0
M  V30 5963 H 562.231 0.152885 2.04028 0
M  V30 5964 H 562.241 -1.5896 3.7576 0
M  V30 5965 H 560.916 -0.498735 4.12899 0
M  V30 5966 H 559.493 -2.03173 3.1269 0
M  V30 5967 N 561.678 -1.56367 -0.196722 0
M  V30 5968 C 562.611 -1.89475 -1.2718 0
M  V30 5969 C 563.589 -0.754667 -1.44026 0
M  V30 5970 O 564.773 -1.00551 -1.59442 0
M  V30 5971 C 561.9 -2.12352 -2.63864 0
M  V30 5972 C 560.946 -3.35053 -2.63897 0
M  V30 5973 S 561.779 -4.90228 -2.15492 0
M  V30 5974 C 562.935 -5.16171 -3.54004 0
M  V30 5975 H 563.168 -2.80365 -0.989075 0
M  V30 5976 H 560.701 -1.49125 -0.40014 0
M  V30 5977 H 562.659 -2.26214 -3.42545 0
M  V30 5978 H 561.32 -1.22214 -2.89349 0
M  V30 5979 H 560.513 -3.48182 -3.64397 0
M  V30 5980 H 560.115 -3.20176 -1.93296 0
M  V30 5981 H 562.407 -5.06591 -4.49857 0
M  V30 5982 H 563.35 -6.17938 -3.45771 0
M  V30 5983 H 563.758 -4.43814 -3.48841 0
M  V30 5984 N 563.156 0.464375 -1.50603 0
M  V30 5985 C 564.381 1.24372 -1.65971 0
M  V30 5986 C 564.806 1.84901 -0.345453 0
M  V30 5987 O 564.164 1.67596 0.691457 0
M  V30 5988 C 564.212 2.32331 -2.7578 0
M  V30 5989 O 563.316 3.37146 -2.375 0
M  V30 5990 H 562.657 0.365604 -0.554283 0
M  V30 5991 H 565.187 0.55183 -1.97018 0
M  V30 5992 H 565.197 2.77539 -2.99059 0
M  V30 5993 H 563.872 1.87648 -3.71162 0
M  V30 5994 H 562.449 2.97602 -2.24694 0
M  V30 5995 N 564.634 1.40294 0.718013 0
M  V30 5996 C 566.05 1.2227 1.02577 0
M  V30 5997 C 566.25 0.0961976 2.0127 0
M  V30 5998 O 565.306 -0.546695 2.46511 0
M  V30 5999 C 566.619 2.56348 1.57182 0
M  V30 6000 C 568.167 2.6334 1.69178 0
M  V30 6001 C 568.642 3.9768 2.27188 0
M  V30 6002 N 570.133 3.99409 2.34578 0
M  V30 6003 C 570.868 5.00141 2.8044 0
M  V30 6004 N 570.364 6.11268 3.26073 0
M  V30 6005 N 572.157 4.87511 2.79802 0
M  V30 6006 H 564.308 2.12304 0.0637899 0
M  V30 6007 H 566.571 0.943632 0.0909036 0
M  V30 6008 H 566.277 3.3942 0.921262 0
M  V30 6009 H 566.151 2.77266 2.55741 0
M  V30 6010 H 568.538 1.80641 2.33351 0
M  V30 6011 H 568.619 2.46255 0.692247 0
M  V30 6012 H 568.263 4.80817 1.63638 0
M  V30 6013 H 568.193 4.12093 3.27852 0
M  V30 6014 H 570.684 3.19162 2.02346 0
M  V30 6015 H 570.997 6.84023 3.59628 0
M  V30 6016 H 569.342 6.14837 3.24038 0
M  V30 6017 H 572.533 3.9979 2.43487 0
M  V30 6018 H 572.706 5.66158 3.15228 0
M  V30 6019 N 566.112 -0.949982 1.2575 0
M  V30 6020 C 567.528 -1.22191 1.02672 0
M  V30 6021 C 567.728 -1.99898 -0.253588 0
M  V30 6022 O 566.784 -2.33329 -0.965076 0
M  V30 6023 C 568.097 -1.99175 2.25277 0
M  V30 6024 C 569.645 -2.12201 2.30087 0
M  V30 6025 C 570.12 -2.92586 3.5236 0
M  V30 6026 N 571.611 -3.00163 3.52784 0
M  V30 6027 C 572.346 -3.62766 4.44059 0
M  V30 6028 N 571.842 -4.26943 5.45611 0
M  V30 6029 N 573.635 -3.59953 4.3173 0
M  V30 6030 H 565.786 -0.430258 2.07996 0
M  V30 6031 H 568.049 -0.252844 0.91366 0
M  V30 6032 H 567.755 -1.49479 3.18354 0
M  V30 6033 H 567.629 -2.99868 2.28821 0
M  V30 6034 H 570.016 -2.61093 1.3753 0
M  V30 6035 H 570.097 -1.10799 2.30559 0
M  V30 6036 H 569.741 -2.44383 4.45241 0
M  V30 6037 H 569.671 -3.94224 3.49134 0
M  V30 6038 H 572.162 -2.54529 2.79327 0
M  V30 6039 H 572.475 -4.72583 6.11461 0
M  V30 6040 H 570.82 -4.25557 5.49478 0
M  V30 6041 H 574.011 -3.09003 3.51617 0
M  V30 6042 H 574.184 -4.08455 5.03059 0
M  V30 6043 N 567.59 -1.07411 -1.15328 0
M  V30 6044 C 568.522 -0.652924 -2.19703 0
M  V30 6045 C 569.535 0.294869 -1.60107 0
M  V30 6046 O 570.724 0.0840932 -1.78302 0
M  V30 6047 C 567.824 0.061434 -3.38844 0
M  V30 6048 C 566.997 -0.902696 -4.27984 0
M  V30 6049 C 566.056 -0.225521 -5.25717 0
M  V30 6050 O 565.082 -0.86676 -5.62562 0
M  V30 6051 N 566.284 1.02858 -5.71315 0
M  V30 6052 H 569.049 -1.55081 -2.56457 0
M  V30 6053 H 566.61 -0.958883 -1.30449 0
M  V30 6054 H 568.602 0.525145 -4.01278 0
M  V30 6055 H 567.172 0.861269 -3.00501 0
M  V30 6056 H 566.392 -1.54551 -3.6264 0
M  V30 6057 H 567.68 -1.55636 -4.84412 0
M  V30 6058 H 567.078 1.56948 -5.43492 0
M  V30 6059 H 565.635 1.43596 -6.35786 0
M  V30 6060 N 569.068 1.32177 -0.85831 0
M  V30 6061 C 570.296 2.01313 -0.477582 0
M  V30 6062 C 570.711 1.6449 0.926736 0
M  V30 6063 O 570.068 0.868096 1.60531 0
M  V30 6064 C 570.119 3.56293 -0.611337 0
M  V30 6065 O 569.84 3.91794 -1.96034 0
M  V30 6066 C 571.341 4.42702 -0.230093 0
M  V30 6067 H 568.561 0.644323 -0.187322 0
M  V30 6068 H 571.105 1.68674 -1.15626 0
M  V30 6069 H 569.26 3.87395 0.0196494 0
M  V30 6070 H 569.674 4.86513 -1.95973 0
M  V30 6071 H 571.148 5.50727 -0.374674 0
M  V30 6072 H 571.625 4.3129 0.829779 0
M  V30 6073 H 572.231 4.16997 -0.836302 0
M  V30 6074 N 570.547 0.616602 1.45037 0
M  V30 6075 C 571.794 0.115331 2.02171 0
M  V30 6076 C 572.122 -1.25748 1.48383 0
M  V30 6077 O 571.377 -1.84511 0.652229 0
M  V30 6078 C 571.676 0.0356829 3.57382 0
M  V30 6079 C 571.342 1.34535 4.30362 0
M  V30 6080 C 570.004 1.70408 4.50016 0
M  V30 6081 C 572.356 2.21049 4.72003 0
M  V30 6082 C 569.684 2.92529 5.0857 0
M  V30 6083 C 572.036 3.42427 5.31908 0
M  V30 6084 C 570.7 3.78541 5.49784 0
M  V30 6085 H 569.97 0.0422024 0.739797 0
M  V30 6086 H 572.617 0.80002 1.73988 0
M  V30 6087 H 570.922 -0.732314 3.84895 0
M  V30 6088 H 572.619 -0.368463 3.99304 0
M  V30 6089 H 569.209 1.05615 4.15383 0
M  V30 6090 H 573.393 1.94632 4.56544 0
M  V30 6091 H 568.649 3.20605 5.20598 0
M  V30 6092 H 572.823 4.09709 5.63127 0
M  V30 6093 H 570.45 4.73255 5.94923 0
M  V30 6094 N 572.025 -1.5352 0.356285 0
M  V30 6095 C 573.255 -2.05236 -0.236983 0
M  V30 6096 C 573.663 -1.23016 -1.43749 0
M  V30 6097 O 573.006 -0.2615 -1.81829 0
M  V30 6098 C 573.068 -3.52549 -0.7035 0
M  V30 6099 C 572.732 -4.55425 0.379059 0
M  V30 6100 C 573.729 -5.0524 1.22592 0
M  V30 6101 C 571.414 -4.99425 0.536638 0
M  V30 6102 C 573.408 -5.97647 2.21578 0
M  V30 6103 C 571.095 -5.9164 1.52988 0
M  V30 6104 C 572.093 -6.4064 2.3679 0
M  V30 6105 O 571.781 -7.31039 3.34421 0
M  V30 6106 H 571.513 -0.674346 -0.047254 0
M  V30 6107 H 574.067 -1.98962 0.510238 0
M  V30 6108 H 572.297 -3.56331 -1.50217 0
M  V30 6109 H 573.986 -3.87171 -1.21873 0
M  V30 6110 H 574.752 -4.72002 1.11532 0
M  V30 6111 H 570.631 -4.60879 -0.105834 0
M  V30 6112 H 574.175 -6.35816 2.87025 0
M  V30 6113 H 570.072 -6.24293 1.64099 0
M  V30 6114 H 570.84 -7.49009 3.30041 0
M  V30 6115 N 573.503 -0.0852151 -1.57369 0
M  V30 6116 C 574.728 0.592872 -1.98746 0
M  V30 6117 C 575.153 1.61538 -0.963689 0
M  V30 6118 O 574.511 1.81168 0.069071 0
M  V30 6119 C 574.559 1.22599 -3.39119 0
M  V30 6120 O 573.663 2.34185 -3.39457 0
M  V30 6121 H 573.004 0.151314 -0.646529 0
M  V30 6122 H 575.534 -0.163703 -2.03944 0
M  V30 6123 H 575.544 1.56965 -3.76598 0
M  V30 6124 H 574.219 0.476831 -4.13158 0
M  V30 6125 H 572.796 2.01512 -3.13763 0
M  V30 6126 N 574.981 1.5647 0.188427 0
M  V30 6127 C 575.929 1.95971 1.25293 0
M  V30 6128 C 576.923 0.846047 1.4676 0
M  V30 6129 O 578.129 1.03109 1.47542 0
M  V30 6130 H 574.504 0.623253 0.420784 0
M  V30 6131 H 576.475 2.84731 0.892792 0
M  V30 6132 C 575.224 2.32116 2.58877 0
M  V30 6133 H 574.547 3.17341 2.43176 0
M  V30 6134 H 575.987 2.63613 3.3209 0
M  V30 6135 C 574.446 1.15823 3.16365 0
M  V30 6136 O 574.976 0.436785 3.99318 0
M  V30 6137 N 573.182 0.933278 2.75206 0
M  V30 6138 H 572.729 1.52169 2.07852 0
M  V30 6139 H 572.687 0.156976 3.14008 0
M  V30 6140 N 576.459 -0.456382 1.50847 0
M  V30 6141 C 577.407 -1.57318 1.71329 0
M  V30 6142 C 578.401 -1.59187 0.579287 0
M  V30 6143 O 579.607 -1.6316 0.76018 0
M  V30 6144 H 575.982 -0.5223 0.541024 0
M  V30 6145 H 577.953 -1.3721 2.64983 0
M  V30 6146 C 576.702 -2.95142 1.83811 0
M  V30 6147 H 576.025 -2.94428 2.70467 0
M  V30 6148 H 577.465 -3.72702 2.02161 0
M  V30 6149 C 575.924 -3.31636 0.593224 0
M  V30 6150 O 576.454 -4.00852 -0.260898 0
M  V30 6151 N 574.66 -2.87205 0.442902 0
M  V30 6152 H 574.207 -2.31051 1.13901 0
M  V30 6153 H 574.165 -3.11986 -0.38884 0
M  V30 6154 N 577.937 -1.40673 -0.710563 0
M  V30 6155 C 579.353 -1.22813 -1.01928 0
M  V30 6156 C 579.553 -0.10687 -2.01216 0
M  V30 6157 O 578.609 0.533614 -2.46797 0
M  V30 6158 C 579.922 -2.57178 -1.5582 0
M  V30 6159 C 581.47 -2.64233 -1.67779 0
M  V30 6160 C 581.945 -3.98879 -2.25076 0
M  V30 6161 N 583.436 -4.00647 -2.32456 0
M  V30 6162 C 584.171 -5.01621 -2.77784 0
M  V30 6163 N 583.667 -6.12989 -3.22826 0
M  V30 6164 N 585.46 -4.88988 -2.77213 0
M  V30 6165 H 577.611 -2.12335 -0.05253 0
M  V30 6166 H 579.874 -0.9441 -0.085898 0
M  V30 6167 H 579.58 -3.39903 -0.903249 0
M  V30 6168 H 579.454 -2.78618 -2.54267 0
M  V30 6169 H 581.841 -1.81876 -2.3239 0
M  V30 6170 H 581.922 -2.46619 -0.679178 0
M  V30 6171 H 581.566 -4.81678 -1.61086 0
M  V30 6172 H 581.496 -4.13826 -3.25661 0
M  V30 6173 H 583.987 -3.20231 -2.0065 0
M  V30 6174 H 584.3 -6.85921 -3.55995 0
M  V30 6175 H 582.645 -6.16547 -3.20773 0
M  V30 6176 H 585.836 -4.01075 -2.41363 0
M  V30 6177 H 586.009 -5.67822 -3.12221 0
M  V30 6178 N 579.415 0.9433 -1.26252 0
M  V30 6179 C 580.64 1.72898 -1.14547 0
M  V30 6180 C 581.065 1.85761 0.295743 0
M  V30 6181 O 580.423 1.3463 1.21427 0
M  V30 6182 C 580.471 3.11471 -1.8171 0
M  V30 6183 O 579.575 3.97336 -1.10445 0
M  V30 6184 H 578.916 0.530555 -0.399259 0
M  V30 6185 H 581.446 1.18159 -1.67032 0
M  V30 6186 H 581.456 3.61872 -1.88449 0
M  V30 6187 H 580.131 3.01425 -2.86558 0
M  V30 6188 H 578.708 3.55788 -1.11666 0
M  V30 6189 N 580.893 1.08022 1.14757 0
M  V30 6190 C 582.304 0.829144 1.67279 0
M  V30 6191 C 582.655 -0.644721 1.85305 0
M  V30 6192 O 581.78 -1.49838 1.56133 0
M  V30 6193 C 582.375 1.49855 3.03857 0
M  V30 6194 C 580.934 1.29482 3.53428 0
M  V30 6195 C 580.081 1.56386 2.28995 0
M  V30 6196 H 583.032 1.24134 0.988762 0
M  V30 6197 H 583.053 0.923572 3.69121 0
M  V30 6198 H 582.565 2.57123 2.90705 0
M  V30 6199 H 580.666 0.242669 3.71809 0
M  V30 6200 H 580.779 2.01974 4.34446 0
M  V30 6201 H 579.143 0.985217 2.34874 0
M  V30 6202 H 579.926 2.64851 2.18423 0
M  V30 6203 N 582.371 -1.3172 0.865308 0
M  V30 6204 C 583.599 -2.01057 0.488251 0
M  V30 6205 C 584.014 -1.64979 -0.918 0
M  V30 6206 O 583.371 -0.876597 -1.60069 0
M  V30 6207 C 583.422 -3.55964 0.630224 0
M  V30 6208 O 583.143 -3.90749 1.98109 0
M  V30 6209 C 584.644 -4.42574 0.253567 0
M  V30 6210 H 581.864 -0.64332 0.190736 0
M  V30 6211 H 584.408 -1.68058 1.16519 0
M  V30 6212 H 582.563 -3.874 0.000895422 0
M  V30 6213 H 582.977 -4.85467 1.9855 0
M  V30 6214 H 584.451 -5.50521 0.403875 0
M  V30 6215 H 584.928 -4.31724 -0.806895 0
M  V30 6216 H 585.534 -4.16547 0.858404 0
M  V30 6217 N 583.85 -0.624285 -1.44708 0
M  V30 6218 C 584.798 0.0969952 -2.32398 0
M  V30 6219 C 585.792 0.842762 -1.46949 0
M  V30 6220 O 586.998 0.756436 -1.63334 0
M  V30 6221 H 583.373 0.0501306 -0.750327 0
M  V30 6222 H 585.344 -0.660767 -2.90992 0
M  V30 6223 C 584.093 1.06967 -3.30837 0
M  V30 6224 H 583.416 0.505242 -3.96595 0
M  V30 6225 H 584.856 1.54397 -3.94889 0
M  V30 6226 C 583.315 2.15153 -2.5925 0
M  V30 6227 O 583.845 3.23139 -2.3863 0
M  V30 6228 N 582.051 1.90898 -2.19103 0
M  V30 6229 H 581.598 1.03086 -2.36074 0
M  V30 6230 H 581.556 2.63485 -1.71531 0
M  V30 6231 N 585.328 1.53329 -0.364422 0
M  V30 6232 C 586.553 2.06132 0.229033 0
M  V30 6233 C 586.978 1.23625 1.41769 0
M  V30 6234 O 586.336 0.255038 1.79497 0
M  V30 6235 C 586.384 3.55544 0.60174 0
M  V30 6236 O 585.488 3.75771 1.69912 0
M  V30 6237 H 584.829 0.663148 0.0336213 0
M  V30 6238 H 587.359 1.97758 -0.524689 0
M  V30 6239 H 587.369 3.98549 0.873073 0
M  V30 6240 H 586.044 4.15039 -0.267421 0
M  V30 6241 H 584.621 3.44663 1.42343 0
M  V30 6242 N 586.806 0.0935595 1.57322 0
M  V30 6243 C 588.034 -0.578934 1.98635 0
M  V30 6244 C 588.449 -1.61819 0.972626 0
M  V30 6245 O 587.806 -1.82461 -0.0379638 0
M  V30 6246 C 587.857 -1.22802 3.40003 0
M  V30 6247 O 587.578 -0.230334 4.37494 0
M  V30 6248 C 589.079 -1.98627 3.96311 0
M  V30 6249 H 586.299 -0.155324 0.652775 0
M  V30 6250 H 588.843 0.172393 2.03772 0
M  V30 6251 H 586.998 -1.93029 3.35885 0
M  V30 6252 H 587.412 -0.698649 5.19826 0
M  V30 6253 H 588.886 -2.39405 4.97382 0
M  V30 6254 H 589.363 -2.85151 3.34044 0
M  V30 6255 H 589.969 -1.3322 4.03897 0
M  V30 6256 N 588.284 -1.56567 -0.180126 0
M  V30 6257 C 589.532 -1.81133 -0.896392 0
M  V30 6258 C 589.853 -0.669114 -1.83161 0
M  V30 6259 O 589.123 0.311616 -1.93406 0
M  V30 6260 H 587.703 -0.668172 -0.333999 0
M  V30 6261 H 590.365 -1.94048 -0.182051 0
M  V30 6262 H 589.461 -2.74854 -1.47857 0
M  V30 6263 N 589.762 0.448376 -1.51087 0
M  V30 6264 C 590.695 1.56298 -1.66272 0
M  V30 6265 C 591.673 1.54381 -0.510419 0
M  V30 6266 O 592.857 1.73671 -0.732854 0
M  V30 6267 C 589.984 2.94883 -1.66618 0
M  V30 6268 C 589.03 3.14868 -2.87681 0
M  V30 6269 S 589.863 2.9234 -4.48662 0
M  V30 6270 C 591.019 4.33227 -4.51735 0
M  V30 6271 H 591.252 1.43182 -2.6055 0
M  V30 6272 H 588.785 0.637309 -1.40633 0
M  V30 6273 H 590.743 3.74771 -1.67502 0
M  V30 6274 H 589.404 3.05371 -0.735358 0
M  V30 6275 H 588.597 4.16166 -2.84292 0
M  V30 6276 H 588.199 2.42788 -2.84482 0
M  V30 6277 H 590.491 5.26247 -4.26697 0
M  V30 6278 H 591.434 4.41653 -5.53487 0
M  V30 6279 H 591.842 4.16367 -3.81181 0
M  V30 6280 N 591.24 1.41047 0.703093 0
M  V30 6281 C 592.486 1.41209 1.46396 0
M  V30 6282 C 592.841 0.0180188 1.92392 0
M  V30 6283 O 592.134 -0.954739 1.66118 0
M  V30 6284 C 592.328 2.34686 2.6955 0
M  V30 6285 C 592.157 3.83044 2.35601 0
M  V30 6286 C 590.927 4.51777 2.26331 0
M  V30 6287 C 593.125 4.74215 1.9906 0
M  V30 6288 N 591.107 5.85302 1.85188 0
M  V30 6289 C 592.478 5.96631 1.68616 0
M  V30 6290 C 594.533 4.61932 1.85805 0
M  V30 6291 C 593.236 7.08134 1.26249 0
M  V30 6292 C 595.262 5.73389 1.44842 0
M  V30 6293 C 594.624 6.94899 1.15304 0
M  V30 6294 H 590.723 0.571951 0.533288 0
M  V30 6295 H 593.307 1.76859 0.814179 0
M  V30 6296 H 591.478 2.01143 3.32259 0
M  V30 6297 H 593.21 2.25618 3.35974 0
M  V30 6298 H 589.965 4.05618 2.44482 0
M  V30 6299 H 590.389 6.56049 1.67119 0
M  V30 6300 H 595.031 3.68494 2.07298 0
M  V30 6301 H 592.749 8.01445 1.035 0
M  V30 6302 H 596.335 5.65886 1.35146 0
M  V30 6303 H 595.215 7.79679 0.840854 0
M  V30 6304 N 592.718 -0.936591 1.26751 0
M  V30 6305 C 593.665 -2.03597 1.08706 0
M  V30 6306 C 594.635 -1.66097 -0.00926542 0
M  V30 6307 O 595.82 -1.90199 0.151377 0
M  V30 6308 C 592.96 -3.3727 0.73094 0
M  V30 6309 C 592.073 -3.87778 1.90399 0
M  V30 6310 C 591.208 -5.09859 1.49056 0
M  V30 6311 C 590.247 -5.5264 2.63164 0
M  V30 6312 N 589.384 -6.65921 2.22471 0
M  V30 6313 H 594.224 -2.18364 2.02784 0
M  V30 6314 H 591.761 -1.06985 1.00958 0
M  V30 6315 H 593.719 -4.14128 0.505328 0
M  V30 6316 H 592.349 -3.22337 -0.172868 0
M  V30 6317 H 591.401 -3.07279 2.2424 0
M  V30 6318 H 592.713 -4.15464 2.76028 0
M  V30 6319 H 591.867 -5.9419 1.22567 0
M  V30 6320 H 590.606 -4.8393 0.60524 0
M  V30 6321 H 589.611 -4.66863 2.90377 0
M  V30 6322 H 590.836 -5.80568 3.52303 0
M  V30 6323 H 588.782 -6.41667 1.36379 0
M  V30 6324 H 588.699 -6.93216 3.01641 0
M  V30 6325 H 589.967 -7.53616 1.99205 0
M  V30 6326 N 594.196 -1.08629 -1.14182 0
M  V30 6327 C 595.473 -0.73002 -1.81466 0
M  V30 6328 C 595.853 0.785996 -1.95922 0
M  V30 6329 O 595.201 1.70535 -1.52086 0
M  V30 6330 C 595.411 -1.45957 -3.17014 0
M  V30 6331 C 596.759 -1.62008 -3.92477 0
M  V30 6332 O 597.783 -1.42141 -3.26611 0
M  V30 6333 O 596.642 -1.94806 -5.106 0
M  V30 6334 H 593.736 -0.261307 -0.784632 0
M  V30 6335 H 596.282 -1.188 -1.2118 0
M  V30 6336 H 595.054 -2.49221 -3.01669 0
M  V30 6337 H 594.677 -0.993222 -3.84995 0
M  V30 6338 N 595.674 1.31259 -0.872281 0
M  V30 6339 C 596.899 2.0133 -0.498099 0
M  V30 6340 C 597.324 1.65031 0.902568 0
M  V30 6341 O 596.682 0.860164 1.59596 0
M  V30 6342 C 596.73 3.54411 -0.665205 0
M  V30 6343 O 595.834 4.11347 0.294473 0
M  V30 6344 H 595.175 0.633844 -0.197832 0
M  V30 6345 H 597.705 1.67402 -1.17633 0
M  V30 6346 H 597.715 4.04147 -0.559373 0
M  V30 6347 H 596.39 3.80171 -1.68651 0
M  V30 6348 H 594.967 3.72624 0.143403 0
M  V30 6349 N 597.152 0.631951 1.44375 0
M  V30 6350 C 598.563 0.219036 1.85411 0
M  V30 6351 C 598.914 -1.22974 1.52879 0
M  V30 6352 O 598.039 -1.93579 0.967266 0
M  V30 6353 C 598.634 0.39075 3.36539 0
M  V30 6354 C 597.193 0.0323351 3.76386 0
M  V30 6355 C 596.34 0.703744 2.68221 0
M  V30 6356 H 599.291 0.837056 1.3483 0
M  V30 6357 H 599.312 -0.370056 3.78696 0
M  V30 6358 H 598.824 1.44527 3.60185 0
M  V30 6359 H 596.925 -1.02042 3.58355 0
M  V30 6360 H 597.038 0.442969 4.77048 0
M  V30 6361 H 595.402 0.138974 2.54321 0
M  V30 6362 H 596.185 1.76088 2.947 0
M  V30 6363 N 598.631 -1.53133 0.372548 0
M  V30 6364 C 599.578 -2.25951 -0.470631 0
M  V30 6365 C 600.548 -1.26895 -1.07176 0
M  V30 6366 O 601.733 -1.55691 -1.10294 0
M  V30 6367 C 598.873 -3.05726 -1.6008 0
M  V30 6368 C 597.986 -4.19684 -1.02416 0
M  V30 6369 C 597.121 -4.86888 -2.124 0
M  V30 6370 C 596.16 -5.92866 -1.52238 0
M  V30 6371 N 595.297 -6.53732 -2.56084 0
M  V30 6372 H 600.137 -2.97587 0.156816 0
M  V30 6373 H 597.674 -1.4683 0.0891571 0
M  V30 6374 H 599.632 -3.50258 -2.26661 0
M  V30 6375 H 598.262 -2.36331 -2.1988 0
M  V30 6376 H 597.314 -3.79588 -0.248426 0
M  V30 6377 H 598.626 -4.95821 -0.544366 0
M  V30 6378 H 597.78 -5.34638 -2.86787 0
M  V30 6379 H 596.519 -4.10239 -2.63734 0
M  V30 6380 H 595.524 -5.4447 -0.763685 0
M  V30 6381 H 596.749 -6.71439 -1.0172 0
M  V30 6382 H 594.695 -5.79932 -3.06618 0
M  V30 6383 H 594.612 -7.25429 -2.12811 0
M  V30 6384 H 595.88 -7.0613 -3.30152 0
M  V30 6385 N 600.109 -0.101901 -1.5727 0
M  V30 6386 C 601.334 0.571759 -1.99363 0
M  V30 6387 C 601.759 1.60507 -0.980768 0
M  V30 6388 O 601.117 1.81231 0.0498517 0
M  V30 6389 C 601.165 1.18996 -3.404 0
M  V30 6390 O 600.269 2.30572 -3.41922 0
M  V30 6391 H 599.61 0.144449 -0.648098 0
M  V30 6392 H 602.14 -0.185325 -2.03759 0
M  V30 6393 H 602.15 1.52962 -3.78241 0
M  V30 6394 H 600.825 0.432984 -4.1364 0
M  V30 6395 H 599.402 1.98173 -3.15883 0
M  V30 6396 N 601.587 1.56661 0.17182 0
M  V30 6397 C 602.812 1.86459 0.908165 0
M  V30 6398 C 603.237 0.688181 1.75059 0
M  V30 6399 O 602.595 -0.362753 1.77634 0
M  V30 6400 C 602.643 3.14669 1.76112 0
M  V30 6401 O 601.747 2.96858 2.86268 0
M  V30 6402 H 601.088 0.613318 0.254434 0
M  V30 6403 H 603.618 2.03892 0.170113 0
M  V30 6404 H 603.628 3.46061 2.16115 0
M  V30 6405 H 602.303 3.99905 1.14233 0
M  V30 6406 H 600.88 2.76819 2.49852 0
M  V30 6407 N 603.065 -0.440357 1.51323 0
M  V30 6408 C 604.012 -1.53429 1.72419 0
M  V30 6409 C 604.982 -1.56165 0.565826 0
M  V30 6410 O 606.167 -1.73222 0.799917 0
M  V30 6411 C 603.307 -2.91169 1.85242 0
M  V30 6412 C 602.42 -2.97985 3.12777 0
M  V30 6413 C 601.555 -4.26829 3.16212 0
M  V30 6414 C 600.594 -4.27501 4.38074 0
M  V30 6415 N 599.731 -5.47866 4.39076 0
M  V30 6416 H 604.571 -1.34743 2.65797 0
M  V30 6417 H 602.108 -0.654608 1.31732 0
M  V30 6418 H 604.066 -3.71087 1.90658 0
M  V30 6419 H 602.696 -3.0842 0.952744 0
M  V30 6420 H 601.748 -2.10749 3.16685 0
M  V30 6421 H 603.06 -2.94342 4.02696 0
M  V30 6422 H 602.214 -5.15118 3.20527 0
M  V30 6423 H 600.953 -4.33124 2.24176 0
M  V30 6424 H 599.958 -3.37606 4.33938 0
M  V30 6425 H 601.183 -4.22873 5.31371 0
M  V30 6426 H 599.129 -5.54887 3.49909 0
M  V30 6427 H 599.046 -5.46091 5.22801 0
M  V30 6428 H 600.314 -6.38195 4.4758 0
M  V30 6429 N 604.543 -1.41418 -0.695603 0
M  V30 6430 C 605.768 -1.44329 -1.48942 0
M  V30 6431 C 606.193 -0.0501579 -1.88033 0
M  V30 6432 O 605.551 0.946598 -1.54626 0
M  V30 6433 C 605.599 -2.3578 -2.72837 0
M  V30 6434 O 604.703 -1.81482 -3.70322 0
M  V30 6435 H 604.044 -0.489838 -0.44828 0
M  V30 6436 H 606.574 -1.85878 -0.855014 0
M  V30 6437 H 606.584 -2.51654 -3.21145 0
M  V30 6438 H 605.259 -3.37005 -2.43722 0
M  V30 6439 H 603.836 -1.75058 -3.29255 0
M  V30 6440 N 606.021 0.929856 -1.27246 0
M  V30 6441 C 607.27 1.67182 -1.12842 0
M  V30 6442 C 607.583 1.9287 0.325666 0
M  V30 6443 O 608.789 2.64999 0.590572 0
M  V30 6444 C 607.245 3.01097 -1.97151 0
M  V30 6445 C 606.853 2.83115 -3.47203 0
M  V30 6446 C 608.597 3.78907 -1.91389 0
M  V30 6447 C 606.504 4.12573 -4.23719 0
M  V30 6448 H 605.434 0.627064 -0.418697 0
M  V30 6449 H 608.085 1.0332 -1.51649 0
M  V30 6450 H 606.467 3.66004 -1.51186 0
M  V30 6451 H 607.641 2.26989 -4.01015 0
M  V30 6452 H 605.956 2.18736 -3.54321 0
M  V30 6453 H 608.553 4.74837 -2.45834 0
M  V30 6454 H 608.896 4.0674 -0.887047 0
M  V30 6455 H 609.429 3.20794 -2.35237 0
M  V30 6456 H 606.168 3.8992 -5.26918 0
M  V30 6457 H 605.688 4.68371 -3.74685 0
M  V30 6458 H 607.367 4.8095 -4.32777 0
M  V30 6459 N 607.499 1.09233 1.13605 0
M  V30 6460 C 608.446 0.729921 2.18954 0
M  V30 6461 C 609.416 -0.287916 1.63586 0
M  V30 6462 O 610.601 -0.170003 1.90041 0
M  V30 6463 C 607.741 0.154489 3.44754 0
M  V30 6464 C 606.854 1.22613 4.14234 0
M  V30 6465 C 605.989 0.613657 5.27644 0
M  V30 6466 C 605.028 1.66674 5.8897 0
M  V30 6467 N 604.165 1.07545 6.93814 0
M  V30 6468 H 609.005 1.63257 2.49302 0
M  V30 6469 H 606.542 0.815693 1.22413 0
M  V30 6470 H 608.5 -0.196923 4.16735 0
M  V30 6471 H 607.13 -0.711433 3.14863 0
M  V30 6472 H 606.182 1.69485 3.40557 0
M  V30 6473 H 607.494 2.0238 4.55899 0
M  V30 6474 H 606.648 0.210976 6.06333 0
M  V30 6475 H 605.387 -0.215584 4.87223 0
M  V30 6476 H 604.392 2.07899 5.08978 0
M  V30 6477 H 605.617 2.49861 6.31464 0
M  V30 6478 H 603.563 0.267451 6.55455 0
M  V30 6479 H 603.48 1.81011 7.3401 0
M  V30 6480 H 604.748 0.698906 7.7636 0
M  V30 6481 N 608.977 -1.30795 0.87923 0
M  V30 6482 C 610.224 -1.96362 0.494786 0
M  V30 6483 C 610.552 -1.69448 -0.954868 0
M  V30 6484 O 609.807 -0.988711 -1.68888 0
M  V30 6485 C 610.106 -3.50287 0.709476 0
M  V30 6486 C 609.772 -3.9724 2.13333 0
M  V30 6487 C 608.434 -4.09772 2.52271 0
M  V30 6488 C 610.786 -4.21807 3.06151 0
M  V30 6489 C 608.114 -4.44227 3.83248 0
M  V30 6490 C 610.466 -4.5773 4.36654 0
M  V30 6491 C 609.13 -4.68469 4.75492 0
M  V30 6492 H 608.4 -0.71854 0.181055 0
M  V30 6493 H 611.047 -1.55764 1.11399 0
M  V30 6494 H 609.352 -3.91799 0.0072 0
M  V30 6495 H 611.049 -3.99082 0.391703 0
M  V30 6496 H 607.639 -3.87988 1.82107 0
M  V30 6497 H 611.823 -4.11611 2.77291 0
M  V30 6498 H 607.079 -4.50741 4.13089 0
M  V30 6499 H 611.253 -4.7569 5.08617 0
M  V30 6500 H 608.88 -4.94923 5.77022 0
M  V30 6501 N 610.455 -0.639598 -1.44038 0
M  V30 6502 C 611.704 -0.144885 -2.01179 0
M  V30 6503 C 612.017 1.24372 -1.50967 0
M  V30 6504 O 613.223 1.83291 -2.00292 0
M  V30 6505 C 611.679 -0.208244 -3.59297 0
M  V30 6506 C 611.287 -1.59869 -4.18504 0
M  V30 6507 C 613.031 0.229568 -4.23879 0
M  V30 6508 C 610.938 -1.61671 -5.68873 0
M  V30 6509 H 609.868 -0.0504005 -0.752314 0
M  V30 6510 H 612.519 -0.799639 -1.65161 0
M  V30 6511 H 610.901 0.513767 -3.92653 0
M  V30 6512 H 612.075 -2.34496 -3.96671 0
M  V30 6513 H 610.39 -1.98131 -3.66242 0
M  V30 6514 H 612.987 0.235758 -5.3418 0
M  V30 6515 H 613.33 1.25848 -3.96822 0
M  V30 6516 H 613.863 -0.440233 -3.95357 0
M  V30 6517 H 610.602 -2.62427 -6.00677 0
M  V30 6518 H 610.122 -0.913489 -5.92803 0
M  V30 6519 H 611.801 -1.35439 -6.32665 0
M  V30 6520 N 611.933 1.52934 -0.380664 0
M  V30 6521 C 613.344 1.86457 0.0952684 0
M  V30 6522 C 613.695 1.3007 1.46889 0
M  V30 6523 O 612.82 0.628636 2.07068 0
M  V30 6524 C 613.415 3.38323 0.179648 0
M  V30 6525 C 611.974 3.71589 0.599858 0
M  V30 6526 C 611.121 2.76228 -0.243572 0
M  V30 6527 H 614.072 1.46966 -0.59888 0
M  V30 6528 H 614.093 3.67113 1.00042 0
M  V30 6529 H 613.605 3.79333 -0.820228 0
M  V30 6530 H 611.706 3.36144 1.60742 0
M  V30 6531 H 611.819 4.77715 0.364003 0
M  V30 6532 H 610.183 2.53045 0.289855 0
M  V30 6533 H 610.966 3.20074 -1.24127 0
M  V30 6534 N 613.412 0.11024 1.57214 0
M  V30 6535 C 614.658 -0.550684 1.9518 0
M  V30 6536 C 614.991 -1.66885 0.993122 0
M  V30 6537 O 614.266 -1.94479 0.0287907 0
M  V30 6538 C 614.549 -1.09163 3.43155 0
M  V30 6539 C 614.402 0.0225198 4.49794 0
M  V30 6540 C 615.721 -1.98527 3.92778 0
M  V30 6541 H 612.84 -0.198706 0.709708 0
M  V30 6542 H 615.482 0.184024 1.89107 0
M  V30 6543 H 613.632 -1.71775 3.48462 0
M  V30 6544 H 615.304 0.657443 4.56591 0
M  V30 6545 H 613.547 0.686868 4.28328 0
M  V30 6546 H 614.218 -0.39706 5.5057 0
M  V30 6547 H 616.694 -1.458 3.8972 0
M  V30 6548 H 615.57 -2.33298 4.96853 0
M  V30 6549 H 615.831 -2.90846 3.32958 0
M  V30 6550 N 614.89 -1.56749 -0.16351 0
M  V30 6551 C 616.115 -1.86938 -0.898264 0
M  V30 6552 C 616.54 -0.697456 -1.74692 0
M  V30 6553 O 615.898 0.353327 -1.77824 0
M  V30 6554 C 615.946 -3.15599 -1.74441 0
M  V30 6555 O 615.05 -2.98371 -2.8469 0
M  V30 6556 H 614.391 -0.614659 -0.251178 0
M  V30 6557 H 616.921 -2.03979 -0.159298 0
M  V30 6558 H 616.931 -3.47202 -2.14277 0
M  V30 6559 H 615.606 -4.00505 -1.1211 0
M  V30 6560 H 614.183 -2.7814 -2.4838 0
M  V30 6561 N 616.368 0.432326 -1.51554 0
M  V30 6562 C 617.596 1.20364 -1.68286 0
M  V30 6563 C 618.011 1.84888 -0.38233 0
M  V30 6564 O 617.368 1.70924 0.639627 0
M  V30 6565 C 617.419 2.28398 -2.80208 0
M  V30 6566 O 617.14 1.66512 -4.05223 0
M  V30 6567 C 618.641 3.18584 -3.08251 0
M  V30 6568 H 615.861 0.36259 -0.564596 0
M  V30 6569 H 618.405 0.511647 -1.97996 0
M  V30 6570 H 616.56 2.93305 -2.53083 0
M  V30 6571 H 616.974 2.37951 -4.67418 0
M  V30 6572 H 618.448 3.90511 -3.90135 0
M  V30 6573 H 618.925 3.79628 -2.2086 0
M  V30 6574 H 619.531 2.59372 -3.37055 0
M  V30 6575 O 617.885 1.50798 0.578109 0
M  V30 6576 H 618.576 1.4938 1.2331 0
M  V30 END ATOM
M  V30 BEGIN BOND
M  V30 END BOND
M  V30 END CTAB
M  END
$$$$
