446556
  -OEChem-11181912433D

 52 54  0     1  0  0  0  0  0999 V2000
   -1.5836   -0.1672   -1.6859 O   0  0  0  0  0  0  0  0  0  0  0  0
    2.1059    1.4266    2.4459 O   0  0  0  0  0  0  0  0  0  0  0  0
    6.3921    1.3525   -0.2059 O   0  0  0  0  0  0  0  0  0  0  0  0
    4.6802    2.0735   -1.5097 O   0  0  0  0  0  0  0  0  0  0  0  0
    3.9938   -3.6576   -1.5173 O   0  0  0  0  0  0  0  0  0  0  0  0
    4.5677   -3.5148    0.6731 O   0  0  0  0  0  0  0  0  0  0  0  0
   -5.3645   -0.9814    0.7640 N   0  0  0  0  0  0  0  0  0  0  0  0
    2.8258    1.2440    0.2487 N   0  0  0  0  0  0  0  0  0  0  0  0
   -3.6361   -2.6620    0.7599 N   0  0  0  0  0  0  0  0  0  0  0  0
   -1.6850   -2.1716   -0.5410 N   0  0  0  0  0  0  0  0  0  0  0  0
   -1.9013   -4.1829    0.6672 N   0  0  0  0  0  0  0  0  0  0  0  0
   -4.1110    1.7517   -1.3836 C   0  0  0  0  0  0  0  0  0  0  0  0
   -4.3677    0.5121   -0.5749 C   0  0  0  0  0  0  0  0  0  0  0  0
   -3.4082    2.8689   -0.5857 C   0  0  0  0  0  0  0  0  0  0  0  0
   -3.5093   -0.6020   -0.4257 C   0  0  0  0  0  0  0  0  0  0  0  0
   -2.0388    2.5135   -0.1146 C   0  0  0  0  0  0  0  0  0  0  0  0
   -4.1584   -1.4835    0.3973 C   0  0  0  0  0  0  0  0  0  0  0  0
   -5.5060    0.2528    0.1696 C   0  0  0  0  0  0  0  0  0  0  0  0
    4.1841    0.8655    0.5460 C   0  0  1  0  0  0  0  0  0  0  0  0
    4.3582   -0.6513    0.6892 C   0  0  0  0  0  0  0  0  0  0  0  0
   -1.8651    1.9099    1.1310 C   0  0  0  0  0  0  0  0  0  0  0  0
   -0.9318    2.7855   -0.9184 C   0  0  0  0  0  0  0  0  0  0  0  0
    0.5228    1.8502    0.7687 C   0  0  0  0  0  0  0  0  0  0  0  0
   -2.1909   -0.9324   -0.9460 C   0  0  0  0  0  0  0  0  0  0  0  0
    4.0508   -1.4806   -0.5642 C   0  0  0  0  0  0  0  0  0  0  0  0
   -0.5843    1.5783    1.5726 C   0  0  0  0  0  0  0  0  0  0  0  0
    0.3491    2.4539   -0.4766 C   0  0  0  0  0  0  0  0  0  0  0  0
    1.8868    1.4966    1.2394 C   0  0  0  0  0  0  0  0  0  0  0  0
   -2.3757   -2.9633    0.2554 C   0  0  0  0  0  0  0  0  0  0  0  0
    5.0747    1.4861   -0.5106 C   0  0  0  0  0  0  0  0  0  0  0  0
    4.2257   -2.9710   -0.3677 C   0  0  0  0  0  0  0  0  0  0  0  0
   -3.5244    1.4993   -2.2751 H   0  0  0  0  0  0  0  0  0  0  0  0
   -5.0703    2.1386   -1.7508 H   0  0  0  0  0  0  0  0  0  0  0  0
   -3.3551    3.7680   -1.2136 H   0  0  0  0  0  0  0  0  0  0  0  0
   -4.0286    3.1543    0.2746 H   0  0  0  0  0  0  0  0  0  0  0  0
   -6.4032    0.8340    0.3312 H   0  0  0  0  0  0  0  0  0  0  0  0
    4.4536    1.3394    1.4987 H   0  0  0  0  0  0  0  0  0  0  0  0
    3.7176   -1.0064    1.5075 H   0  0  0  0  0  0  0  0  0  0  0  0
    5.3891   -0.8648    1.0006 H   0  0  0  0  0  0  0  0  0  0  0  0
   -6.0430   -1.4277    1.3663 H   0  0  0  0  0  0  0  0  0  0  0  0
   -2.7168    1.6979    1.7720 H   0  0  0  0  0  0  0  0  0  0  0  0
   -1.0541    3.2591   -1.8888 H   0  0  0  0  0  0  0  0  0  0  0  0
    2.5510    1.2416   -0.7280 H   0  0  0  0  0  0  0  0  0  0  0  0
   -4.1162   -3.3161    1.3698 H   0  0  0  0  0  0  0  0  0  0  0  0
    3.0139   -1.3096   -0.8743 H   0  0  0  0  0  0  0  0  0  0  0  0
    4.7168   -1.1740   -1.3783 H   0  0  0  0  0  0  0  0  0  0  0  0
   -0.4700    1.1052    2.5443 H   0  0  0  0  0  0  0  0  0  0  0  0
    1.1854    2.7104   -1.1200 H   0  0  0  0  0  0  0  0  0  0  0  0
   -2.4430   -4.7820    1.2805 H   0  0  0  0  0  0  0  0  0  0  0  0
   -0.9924   -4.5201    0.3692 H   0  0  0  0  0  0  0  0  0  0  0  0
    6.9676    1.7688   -0.8824 H   0  0  0  0  0  0  0  0  0  0  0  0
    4.1235   -4.6227   -1.3988 H   0  0  0  0  0  0  0  0  0  0  0  0
  1 24  2  0  0  0  0
  2 28  2  0  0  0  0
  3 30  1  0  0  0  0
  3 51  1  0  0  0  0
  4 30  2  0  0  0  0
  5 31  1  0  0  0  0
  5 52  1  0  0  0  0
  6 31  2  0  0  0  0
  7 17  1  0  0  0  0
  7 18  1  0  0  0  0
  7 40  1  0  0  0  0
  8 19  1  0  0  0  0
  8 28  1  0  0  0  0
  8 43  1  0  0  0  0
  9 17  1  0  0  0  0
  9 29  1  0  0  0  0
  9 44  1  0  0  0  0
 10 24  1  0  0  0  0
 10 29  2  0  0  0  0
 11 29  1  0  0  0  0
 11 49  1  0  0  0  0
 11 50  1  0  0  0  0
 12 13  1  0  0  0  0
 12 14  1  0  0  0  0
 12 32  1  0  0  0  0
 12 33  1  0  0  0  0
 13 15  1  0  0  0  0
 13 18  2  0  0  0  0
 14 16  1  0  0  0  0
 14 34  1  0  0  0  0
 14 35  1  0  0  0  0
 15 17  2  0  0  0  0
 15 24  1  0  0  0  0
 16 21  2  0  0  0  0
 16 22  1  0  0  0  0
 18 36  1  0  0  0  0
 19 20  1  0  0  0  0
 19 30  1  0  0  0  0
 19 37  1  0  0  0  0
 20 25  1  0  0  0  0
 20 38  1  0  0  0  0
 20 39  1  0  0  0  0
 21 26  1  0  0  0  0
 21 41  1  0  0  0  0
 22 27  2  0  0  0  0
 22 42  1  0  0  0  0
 23 26  2  0  0  0  0
 23 27  1  0  0  0  0
 23 28  1  0  0  0  0
 25 31  1  0  0  0  0
 25 45  1  0  0  0  0
 25 46  1  0  0  0  0
 26 47  1  0  0  0  0
 27 48  1  0  0  0  0
M  END
> <DATABASE_ID>
DB00642

> <DATABASE_NAME>
drugbank

> <ORIGINAL_SOURCE>
PUBCHEM

> <ORIGINAL_SOURCE_URL>
https://pubchem.ncbi.nlm.nih.gov/rest/pug/compound/inchikey/WBXPDJSOTKVWSJ-ZDUSSCGKSA-N/SDF?record_type=3d

> <SMILES>
NC1=NC(=O)C2=C(NC=C2CCC2=CC=C(C=C2)C(=O)N[C@@H](CCC(O)=O)C(O)=O)N1

> <INCHI_IDENTIFIER>
InChI=1S/C20H21N5O6/c21-20-24-16-15(18(29)25-20)12(9-22-16)6-3-10-1-4-11(5-2-10)17(28)23-13(19(30)31)7-8-14(26)27/h1-2,4-5,9,13H,3,6-8H2,(H,23,28)(H,26,27)(H,30,31)(H4,21,22,24,25,29)/t13-/m0/s1

> <INCHI_KEY>
WBXPDJSOTKVWSJ-ZDUSSCGKSA-N

> <FORMULA>
C20H21N5O6

> <MOLECULAR_WEIGHT>
427.4106

> <EXACT_MASS>
427.149183429

> <JCHEM_ACCEPTOR_COUNT>
9

> <JCHEM_ATOM_COUNT>
52

> <JCHEM_AVERAGE_POLARIZABILITY>
43.24491768278534

> <JCHEM_BIOAVAILABILITY>
1

> <JCHEM_DONOR_COUNT>
6

> <JCHEM_FORMAL_CHARGE>
0

> <JCHEM_GHOSE_FILTER>
1

> <JCHEM_IUPAC>
(2S)-2-{[4-(2-{2-amino-4-oxo-1H,4H,7H-pyrrolo[2,3-d]pyrimidin-5-yl}ethyl)phenyl]formamido}pentanedioic acid

> <ALOGPS_LOGP>
0.11

> <JCHEM_LOGP>
1.203979897783046

> <ALOGPS_LOGS>
-3.97

> <JCHEM_MDDR_LIKE_RULE>
1

> <JCHEM_NUMBER_OF_RINGS>
3

> <JCHEM_PHYSIOLOGICAL_CHARGE>
-2

> <JCHEM_PKA>
4.145697811400078

> <JCHEM_PKA_STRONGEST_ACIDIC>
3.3880980228882485

> <JCHEM_PKA_STRONGEST_BASIC>
2.430782132857763

> <JCHEM_POLAR_SURFACE_AREA>
186.96999999999997

> <JCHEM_REFRACTIVITY>
109.44959999999995

> <JCHEM_ROTATABLE_BOND_COUNT>
9

> <JCHEM_RULE_OF_FIVE>
0

> <ALOGPS_SOLUBILITY>
4.55e-02 g/l

> <JCHEM_TRADITIONAL_IUPAC>
demeclocycline hydrochloride

> <JCHEM_VEBER_RULE>
0

> <DRUGBANK_ID>
DB00642

> <SECONDARY_ACCESSION_NUMBERS>
APRD00573; EXPT02075

> <DRUG_GROUPS>
approved; investigational

> <GENERIC_NAME>
Pemetrexed

> <SYNONYMS>
Pemetrexed

> <PRODUCTS>
Act Pemetrexed; Alimta; Ciambra; Pemetrexed; Pemetrexed Accord; Pemetrexed Disodium for Injection; Pemetrexed Disodium for Injection USP; Pemetrexed Hospira; Pemetrexed Krka; Pemetrexed Krka Page 1/1; Pemetrexed Lilly; Pemetrexed Medac; Pemetrexed Sandoz; Pemetrexed for Injection; Taro-pemetrexed

> <SALTS>
Pemetrexed disodium; Pemetrexed disodium hemipentahydrate; Pemetrexed disodium heptahydrate; Pemetrexed monohydrate

$$$$