82146
  -OEChem-10051719123D

 54 56  0     0  0  0  0  0  0999 V2000
    6.1672   -1.9222   -1.0330 O   0  0  0  0  0  0  0  0  0  0  0  0
    6.6076    0.2152   -1.6689 O   0  0  0  0  0  0  0  0  0  0  0  0
   -3.1314   -1.8872    0.3159 C   0  0  0  0  0  0  0  0  0  0  0  0
   -4.2164    0.6104   -1.0813 C   0  0  0  0  0  0  0  0  0  0  0  0
   -4.6109   -1.6924   -0.0837 C   0  0  0  0  0  0  0  0  0  0  0  0
   -4.7569   -0.8175   -1.3173 C   0  0  0  0  0  0  0  0  0  0  0  0
   -2.3563   -0.5638    0.2792 C   0  0  0  0  0  0  0  0  0  0  0  0
   -2.8550    0.5901   -0.3746 C   0  0  0  0  0  0  0  0  0  0  0  0
   -3.1403   -2.5110    1.7320 C   0  0  0  0  0  0  0  0  0  0  0  0
   -2.4536   -2.8848   -0.6495 C   0  0  0  0  0  0  0  0  0  0  0  0
   -4.1336    1.2814   -2.4732 C   0  0  0  0  0  0  0  0  0  0  0  0
   -5.2123    1.4127   -0.2146 C   0  0  0  0  0  0  0  0  0  0  0  0
   -1.0814   -0.4971    0.8849 C   0  0  0  0  0  0  0  0  0  0  0  0
   -2.0820    1.7723   -0.3381 C   0  0  0  0  0  0  0  0  0  0  0  0
   -0.3308    0.6770    0.8887 C   0  0  0  0  0  0  0  0  0  0  0  0
   -0.8356    1.8159    0.2836 C   0  0  0  0  0  0  0  0  0  0  0  0
    0.9765    0.6739    1.5319 C   0  0  0  0  0  0  0  0  0  0  0  0
   -0.0765    3.1034    0.2793 C   0  0  0  0  0  0  0  0  0  0  0  0
    2.2654    0.3400    0.8395 C   0  0  0  0  0  0  0  0  0  0  0  0
    1.0669    0.9909    2.8514 C   0  0  0  0  0  0  0  0  0  0  0  0
    2.9708    1.3584    0.2487 C   0  0  0  0  0  0  0  0  0  0  0  0
    2.6792   -0.9684    0.8298 C   0  0  0  0  0  0  0  0  0  0  0  0
    4.1688    1.0477   -0.3948 C   0  0  0  0  0  0  0  0  0  0  0  0
    3.8773   -1.2792    0.1865 C   0  0  0  0  0  0  0  0  0  0  0  0
    4.6221   -0.2711   -0.4259 C   0  0  0  0  0  0  0  0  0  0  0  0
    5.8712   -0.5949   -1.0965 C   0  0  0  0  0  0  0  0  0  0  0  0
   -5.1740   -1.2456    0.7454 H   0  0  0  0  0  0  0  0  0  0  0  0
   -5.0826   -2.6653   -0.2735 H   0  0  0  0  0  0  0  0  0  0  0  0
   -4.2339   -1.2887   -2.1590 H   0  0  0  0  0  0  0  0  0  0  0  0
   -5.8147   -0.7781   -1.6084 H   0  0  0  0  0  0  0  0  0  0  0  0
   -3.5123   -1.7974    2.4767 H   0  0  0  0  0  0  0  0  0  0  0  0
   -3.7862   -3.3965    1.7655 H   0  0  0  0  0  0  0  0  0  0  0  0
   -2.1457   -2.8363    2.0544 H   0  0  0  0  0  0  0  0  0  0  0  0
   -3.0150   -3.8245   -0.7052 H   0  0  0  0  0  0  0  0  0  0  0  0
   -2.3716   -2.4820   -1.6649 H   0  0  0  0  0  0  0  0  0  0  0  0
   -1.4367   -3.1333   -0.3232 H   0  0  0  0  0  0  0  0  0  0  0  0
   -5.0866    1.1916   -3.0083 H   0  0  0  0  0  0  0  0  0  0  0  0
   -3.9088    2.3513   -2.4116 H   0  0  0  0  0  0  0  0  0  0  0  0
   -3.3576    0.8154   -3.0920 H   0  0  0  0  0  0  0  0  0  0  0  0
   -6.2179    1.3960   -0.6500 H   0  0  0  0  0  0  0  0  0  0  0  0
   -5.2810    1.0167    0.8044 H   0  0  0  0  0  0  0  0  0  0  0  0
   -4.9140    2.4642   -0.1274 H   0  0  0  0  0  0  0  0  0  0  0  0
   -0.6635   -1.3845    1.3564 H   0  0  0  0  0  0  0  0  0  0  0  0
   -2.4627    2.6803   -0.8003 H   0  0  0  0  0  0  0  0  0  0  0  0
    0.4507    3.2870    1.2196 H   0  0  0  0  0  0  0  0  0  0  0  0
    0.6308    3.1214   -0.5549 H   0  0  0  0  0  0  0  0  0  0  0  0
   -0.7557    3.9547    0.1508 H   0  0  0  0  0  0  0  0  0  0  0  0
    0.1859    1.2461    3.4333 H   0  0  0  0  0  0  0  0  0  0  0  0
    2.0192    1.0021    3.3733 H   0  0  0  0  0  0  0  0  0  0  0  0
    2.6473    2.3922    0.2824 H   0  0  0  0  0  0  0  0  0  0  0  0
    2.1056   -1.7592    1.3041 H   0  0  0  0  0  0  0  0  0  0  0  0
    4.7370    1.8483   -0.8613 H   0  0  0  0  0  0  0  0  0  0  0  0
    4.1931   -2.3187    0.1863 H   0  0  0  0  0  0  0  0  0  0  0  0
    7.0113   -2.1299   -1.4876 H   0  0  0  0  0  0  0  0  0  0  0  0
  1 26  1  0  0  0  0
  1 54  1  0  0  0  0
  2 26  2  0  0  0  0
  3  5  1  0  0  0  0
  3  7  1  0  0  0  0
  3  9  1  0  0  0  0
  3 10  1  0  0  0  0
  4  6  1  0  0  0  0
  4  8  1  0  0  0  0
  4 11  1  0  0  0  0
  4 12  1  0  0  0  0
  5  6  1  0  0  0  0
  5 27  1  0  0  0  0
  5 28  1  0  0  0  0
  6 29  1  0  0  0  0
  6 30  1  0  0  0  0
  7  8  2  0  0  0  0
  7 13  1  0  0  0  0
  8 14  1  0  0  0  0
  9 31  1  0  0  0  0
  9 32  1  0  0  0  0
  9 33  1  0  0  0  0
 10 34  1  0  0  0  0
 10 35  1  0  0  0  0
 10 36  1  0  0  0  0
 11 37  1  0  0  0  0
 11 38  1  0  0  0  0
 11 39  1  0  0  0  0
 12 40  1  0  0  0  0
 12 41  1  0  0  0  0
 12 42  1  0  0  0  0
 13 15  2  0  0  0  0
 13 43  1  0  0  0  0
 14 16  2  0  0  0  0
 14 44  1  0  0  0  0
 15 16  1  0  0  0  0
 15 17  1  0  0  0  0
 16 18  1  0  0  0  0
 17 19  1  0  0  0  0
 17 20  2  0  0  0  0
 18 45  1  0  0  0  0
 18 46  1  0  0  0  0
 18 47  1  0  0  0  0
 19 21  2  0  0  0  0
 19 22  1  0  0  0  0
 20 48  1  0  0  0  0
 20 49  1  0  0  0  0
 21 23  1  0  0  0  0
 21 50  1  0  0  0  0
 22 24  2  0  0  0  0
 22 51  1  0  0  0  0
 23 25  2  0  0  0  0
 23 52  1  0  0  0  0
 24 25  1  0  0  0  0
 24 53  1  0  0  0  0
 25 26  1  0  0  0  0
M  END
> <DATABASE_ID>
DB00307

> <DATABASE_NAME>
drugbank

> <ORIGINAL_SOURCE>
PUBCHEM

> <ORIGINAL_SOURCE_URL>
https://pubchem.ncbi.nlm.nih.gov/rest/pug/compound/inchikey/NAVMQTYZDKMPEU-UHFFFAOYSA-N/SDF?record_type=3d

> <SMILES>
CC1=CC2=C(C=C1C(=C)C1=CC=C(C=C1)C(O)=O)C(C)(C)CCC2(C)C

> <INCHI_IDENTIFIER>
InChI=1S/C24H28O2/c1-15-13-20-21(24(5,6)12-11-23(20,3)4)14-19(15)16(2)17-7-9-18(10-8-17)22(25)26/h7-10,13-14H,2,11-12H2,1,3-6H3,(H,25,26)

> <INCHI_KEY>
NAVMQTYZDKMPEU-UHFFFAOYSA-N

> <FORMULA>
C24H28O2

> <MOLECULAR_WEIGHT>
348.4779

> <EXACT_MASS>
348.20893014

> <JCHEM_ACCEPTOR_COUNT>
2

> <JCHEM_AVERAGE_POLARIZABILITY>
40.89246091735121

> <JCHEM_BIOAVAILABILITY>
1

> <JCHEM_DONOR_COUNT>
1

> <JCHEM_FORMAL_CHARGE>
0

> <JCHEM_GHOSE_FILTER>
0

> <JCHEM_IUPAC>
4-[1-(3,5,5,8,8-pentamethyl-5,6,7,8-tetrahydronaphthalen-2-yl)ethenyl]benzoic acid

> <ALOGPS_LOGP>
6.86

> <JCHEM_LOGP>
6.940537397666667

> <ALOGPS_LOGS>
-6.37

> <JCHEM_MDDR_LIKE_RULE>
0

> <JCHEM_NUMBER_OF_RINGS>
3

> <JCHEM_PHYSIOLOGICAL_CHARGE>
-1

> <JCHEM_PKA_STRONGEST_ACIDIC>
4.070792459533179

> <JCHEM_POLAR_SURFACE_AREA>
37.3

> <JCHEM_REFRACTIVITY>
117.124

> <JCHEM_ROTATABLE_BOND_COUNT>
3

> <JCHEM_RULE_OF_FIVE>
0

> <ALOGPS_SOLUBILITY>
1.49e-04 g/l

> <JCHEM_TRADITIONAL_IUPAC>
bexarotene

> <JCHEM_VEBER_RULE>
1

> <DRUGBANK_ID>
DB00307

> <SECONDARY_ACCESSION_NUMBERS>
APRD00114

> <DRUG_GROUPS>
approved; investigational

> <GENERIC_NAME>
Bexarotene

> <SYNONYMS>
4-[1-(3,5,5,8,8-pentamethyltetralin-2-yl)ethenyl]benzoic acid; 4-[1-(5,6,7,8,-Tetrahydro-3,5,5,8,8-pentamethyl-2-naphtalenyl)ethenyl]benzoic acid; Bexaroten; BexarotÃ¨ne; Bexarotene; Bexaroteno; Bexarotenum; p-(1-(5,6,7,8-Tetrahydro-3,5,5,8,8-pentamethyl-2-naphthyl)vinyl)benzoic acid

> <PRODUCTS>
Bexarotene; Targretin

$$$$