88536661
  -OEChem-10051719253D

 64 65  0     0  0  0  0  0  0999 V2000
  -11.2133    2.0727    1.3417 Cl  0  0  0  0  0  0  0  0  0  0  0  0
   11.0356   -2.2263   -1.6632 Cl  0  0  0  0  0  0  0  0  0  0  0  0
   -3.2409   -1.4459    0.8065 N   0  0  0  0  0  0  0  0  0  0  0  0
    3.2543    1.5877   -0.6475 N   0  0  0  0  0  0  0  0  0  0  0  0
   -5.4232   -1.4668    0.2829 N   0  0  0  0  0  0  0  0  0  0  0  0
    5.4555    1.5079   -0.2167 N   0  0  0  0  0  0  0  0  0  0  0  0
   -4.3948   -3.5439    0.7669 N   0  0  0  0  0  0  0  0  0  0  0  0
    4.4961    3.6350   -0.6189 N   0  0  0  0  0  0  0  0  0  0  0  0
   -6.7572   -0.6010   -1.4979 N   0  0  0  0  0  0  0  0  0  0  0  0
    6.8235    0.5151    1.4693 N   0  0  0  0  0  0  0  0  0  0  0  0
   -4.8809   -1.7722   -2.0235 N   0  0  0  0  0  0  0  0  0  0  0  0
    4.9965    1.7015    2.1196 N   0  0  0  0  0  0  0  0  0  0  0  0
   -0.5852   -0.3695    0.0324 C   0  0  0  0  0  0  0  0  0  0  0  0
    0.5948    0.5909    0.1987 C   0  0  0  0  0  0  0  0  0  0  0  0
   -0.8712   -1.1281    1.3317 C   0  0  0  0  0  0  0  0  0  0  0  0
    0.8548    1.3784   -1.0888 C   0  0  0  0  0  0  0  0  0  0  0  0
   -2.0055   -2.1360    1.1813 C   0  0  0  0  0  0  0  0  0  0  0  0
    2.0350    2.3353   -0.9596 C   0  0  0  0  0  0  0  0  0  0  0  0
   -4.2949   -2.1750    0.6437 C   0  0  0  0  0  0  0  0  0  0  0  0
    4.3410    2.2708   -0.5007 C   0  0  0  0  0  0  0  0  0  0  0  0
   -5.6629   -1.2874   -0.9907 C   0  0  0  0  0  0  0  0  0  0  0  0
    5.7402    1.2673    1.0372 C   0  0  0  0  0  0  0  0  0  0  0  0
   -7.8194    0.0360   -0.8213 C   0  0  0  0  0  0  0  0  0  0  0  0
    7.8273   -0.1385    0.7229 C   0  0  0  0  0  0  0  0  0  0  0  0
   -7.6058    0.6024    0.4354 C   0  0  0  0  0  0  0  0  0  0  0  0
   -9.0828    0.0993   -1.4091 C   0  0  0  0  0  0  0  0  0  0  0  0
    8.2338    0.3827   -0.5055 C   0  0  0  0  0  0  0  0  0  0  0  0
    8.4129   -1.3057    1.2133 C   0  0  0  0  0  0  0  0  0  0  0  0
   -8.6552    1.2324    1.1041 C   0  0  0  0  0  0  0  0  0  0  0  0
  -10.1325    0.7292   -0.7405 C   0  0  0  0  0  0  0  0  0  0  0  0
    9.2260   -0.2628   -1.2431 C   0  0  0  0  0  0  0  0  0  0  0  0
    9.4052   -1.9513    0.4757 C   0  0  0  0  0  0  0  0  0  0  0  0
   -9.9185    1.2958    0.5161 C   0  0  0  0  0  0  0  0  0  0  0  0
    9.8117   -1.4298   -0.7525 C   0  0  0  0  0  0  0  0  0  0  0  0
   -1.4718    0.1984   -0.2736 H   0  0  0  0  0  0  0  0  0  0  0  0
   -0.3656   -1.0843   -0.7700 H   0  0  0  0  0  0  0  0  0  0  0  0
    1.4855    0.0167    0.4795 H   0  0  0  0  0  0  0  0  0  0  0  0
    0.3890    1.2902    1.0181 H   0  0  0  0  0  0  0  0  0  0  0  0
    0.0328   -1.6582    1.6546 H   0  0  0  0  0  0  0  0  0  0  0  0
   -1.1238   -0.4099    2.1216 H   0  0  0  0  0  0  0  0  0  0  0  0
    1.0472    0.6757   -1.9092 H   0  0  0  0  0  0  0  0  0  0  0  0
   -0.0409    1.9508   -1.3579 H   0  0  0  0  0  0  0  0  0  0  0  0
   -2.1362   -2.6563    2.1378 H   0  0  0  0  0  0  0  0  0  0  0  0
   -1.7304   -2.8740    0.4179 H   0  0  0  0  0  0  0  0  0  0  0  0
    2.1509    2.8728   -1.9084 H   0  0  0  0  0  0  0  0  0  0  0  0
    1.8191    3.0650   -0.1696 H   0  0  0  0  0  0  0  0  0  0  0  0
   -5.2784   -4.0150    0.6048 H   0  0  0  0  0  0  0  0  0  0  0  0
   -3.6042   -4.1258    1.0194 H   0  0  0  0  0  0  0  0  0  0  0  0
    3.7225    4.2531   -0.8353 H   0  0  0  0  0  0  0  0  0  0  0  0
    5.4056    4.0654   -0.4904 H   0  0  0  0  0  0  0  0  0  0  0  0
   -6.9157   -0.6814   -2.4991 H   0  0  0  0  0  0  0  0  0  0  0  0
    6.8332    0.2624    2.4543 H   0  0  0  0  0  0  0  0  0  0  0  0
   -6.6296    0.6052    0.9094 H   0  0  0  0  0  0  0  0  0  0  0  0
   -9.2628   -0.3391   -2.3874 H   0  0  0  0  0  0  0  0  0  0  0  0
    7.8280    1.3072   -0.9035 H   0  0  0  0  0  0  0  0  0  0  0  0
    8.1045   -1.7229    2.1685 H   0  0  0  0  0  0  0  0  0  0  0  0
   -8.4726    1.6764    2.0793 H   0  0  0  0  0  0  0  0  0  0  0  0
  -11.1117    0.7708   -1.2105 H   0  0  0  0  0  0  0  0  0  0  0  0
    9.5386    0.1588   -2.1950 H   0  0  0  0  0  0  0  0  0  0  0  0
    9.8526   -2.8601    0.8701 H   0  0  0  0  0  0  0  0  0  0  0  0
   -4.0377   -2.3086   -1.8516 H   0  0  0  0  0  0  0  0  0  0  0  0
   -5.1198   -1.5940   -2.9930 H   0  0  0  0  0  0  0  0  0  0  0  0
    4.1574    2.2591    2.0047 H   0  0  0  0  0  0  0  0  0  0  0  0
    5.2742    1.4837    3.0705 H   0  0  0  0  0  0  0  0  0  0  0  0
  1 33  1  0  0  0  0
  2 34  1  0  0  0  0
  3 17  1  0  0  0  0
  3 19  2  0  0  0  0
  4 18  1  0  0  0  0
  4 20  2  0  0  0  0
  5 19  1  0  0  0  0
  5 21  2  0  0  0  0
  6 20  1  0  0  0  0
  6 22  2  0  0  0  0
  7 19  1  0  0  0  0
  7 47  1  0  0  0  0
  7 48  1  0  0  0  0
  8 20  1  0  0  0  0
  8 49  1  0  0  0  0
  8 50  1  0  0  0  0
  9 21  1  0  0  0  0
  9 23  1  0  0  0  0
  9 51  1  0  0  0  0
 10 22  1  0  0  0  0
 10 24  1  0  0  0  0
 10 52  1  0  0  0  0
 11 21  1  0  0  0  0
 11 61  1  0  0  0  0
 11 62  1  0  0  0  0
 12 22  1  0  0  0  0
 12 63  1  0  0  0  0
 12 64  1  0  0  0  0
 13 14  1  0  0  0  0
 13 15  1  0  0  0  0
 13 35  1  0  0  0  0
 13 36  1  0  0  0  0
 14 16  1  0  0  0  0
 14 37  1  0  0  0  0
 14 38  1  0  0  0  0
 15 17  1  0  0  0  0
 15 39  1  0  0  0  0
 15 40  1  0  0  0  0
 16 18  1  0  0  0  0
 16 41  1  0  0  0  0
 16 42  1  0  0  0  0
 17 43  1  0  0  0  0
 17 44  1  0  0  0  0
 18 45  1  0  0  0  0
 18 46  1  0  0  0  0
 23 25  2  0  0  0  0
 23 26  1  0  0  0  0
 24 27  2  0  0  0  0
 24 28  1  0  0  0  0
 25 29  1  0  0  0  0
 25 53  1  0  0  0  0
 26 30  2  0  0  0  0
 26 54  1  0  0  0  0
 27 31  1  0  0  0  0
 27 55  1  0  0  0  0
 28 32  2  0  0  0  0
 28 56  1  0  0  0  0
 29 33  2  0  0  0  0
 29 57  1  0  0  0  0
 30 33  1  0  0  0  0
 30 58  1  0  0  0  0
 31 34  2  0  0  0  0
 31 59  1  0  0  0  0
 32 34  1  0  0  0  0
 32 60  1  0  0  0  0
M  END
> <DATABASE_ID>
DB00878

> <DATABASE_NAME>
drugbank

> <ORIGINAL_SOURCE>
PUBCHEM

> <ORIGINAL_SOURCE_URL>
https://pubchem.ncbi.nlm.nih.gov/rest/pug/compound/inchikey/GHXZTYHSJHQHIJ-UHFFFAOYSA-N/SDF?record_type=3d

> <SMILES>
ClC1=CC=C(NC(=N)NC(=N)NCCCCCCNC(=N)NC(=N)NC2=CC=C(Cl)C=C2)C=C1

> <INCHI_IDENTIFIER>
InChI=1S/C22H30Cl2N10/c23-15-5-9-17(10-6-15)31-21(27)33-19(25)29-13-3-1-2-4-14-30-20(26)34-22(28)32-18-11-7-16(24)8-12-18/h5-12H,1-4,13-14H2,(H5,25,27,29,31,33)(H5,26,28,30,32,34)

> <INCHI_KEY>
GHXZTYHSJHQHIJ-UHFFFAOYSA-N

> <FORMULA>
C22H30Cl2N10

> <MOLECULAR_WEIGHT>
505.447

> <EXACT_MASS>
504.203196424

> <JCHEM_ACCEPTOR_COUNT>
10

> <JCHEM_AVERAGE_POLARIZABILITY>
54.59983398247406

> <JCHEM_BIOAVAILABILITY>
0

> <JCHEM_DONOR_COUNT>
10

> <JCHEM_FORMAL_CHARGE>
0

> <JCHEM_GHOSE_FILTER>
0

> <JCHEM_IUPAC>
N-(4-chlorophenyl)-1-3-(6-{N-[3-(4-chlorophenyl)carbamimidamidomethanimidoyl]amino}hexyl)carbamimidamidomethanimidamide

> <ALOGPS_LOGP>
2.71

> <JCHEM_LOGP>
4.510369177333333

> <ALOGPS_LOGS>
-4.29

> <JCHEM_MDDR_LIKE_RULE>
0

> <JCHEM_NUMBER_OF_RINGS>
2

> <JCHEM_PHYSIOLOGICAL_CHARGE>
4

> <JCHEM_PKA_STRONGEST_BASIC>
10.516535500120664

> <JCHEM_POLAR_SURFACE_AREA>
167.58

> <JCHEM_REFRACTIVITY>
181.71459999999993

> <JCHEM_ROTATABLE_BOND_COUNT>
9

> <JCHEM_RULE_OF_FIVE>
0

> <ALOGPS_SOLUBILITY>
2.61e-02 g/l

> <JCHEM_TRADITIONAL_IUPAC>
chlorhexidine

> <JCHEM_VEBER_RULE>
0

> <DRUGBANK_ID>
DB00878

> <SECONDARY_ACCESSION_NUMBERS>
APRD00545

> <DRUG_GROUPS>
approved; vet_approved

> <GENERIC_NAME>
Chlorhexidine

> <SYNONYMS>
1,1'-Hexamethylene bis(5-(p-chlorophenyl)biguanide); Chlorhexidin; Chlorhexidine; Chlorhexidinum; Cloresidina; Clorhexidina; N,N'-Bis(4-chlorophenyl)-3,12-diimino-2,4,11,13-tetraazatetradecanediimidamide

> <PRODUCTS>
(Fruli) Quick-Dry Disposable Hand Sanitizer; (Qiqing) Chlorhexidine Gluconate Alcohol Disinfectant; 3M Avagard; 3M SoluPrep; 3m Soluprep Sponge; Acclean Chlorhexidine Gluconate 0.12% Oral Rinse; Akilgeld Hand Sanitizer; Akilspray Hand Sanitizer; Alcohol Antibacterial Wipes; Alcohol Disinfectant Wipes; Anti-bac Hand; Antibacterial Protective Hand; Antimicrobial Foam Handwash; Antimicrobial Skin Cleanser; Antiseptic Body Cleanser; Antiseptic Cleanser Solution; Antiseptic Cleansing Wipes; Antiseptic First Aid Spray; Antiseptic Foam Handwash; Antiseptic Lotion Soap 2%; Antiseptic Skin Cleanser; Antiseptic Skin Cleanser Exidine-2 CHG; Aplicare Antiseptic Chlorhexidine Gluconate; Aplicare Chlorhexidine Gluconate 2% Solution; Apo-chlorhexidine Oral Rinse; Avagard Chg; Avidene Surgical Scrub; B-good Hand and Skin Disinfecting Agent; BD E-Z Scrub; BD E-Z Scrub 107; Bacti-stat Chg; Bactigras; Bactoshield; Bactoshield CHG; Bactoshield CHG Chlorhexidine Gluconate Solution; Bactoshield Chg 2%; Bactoshield Chg 4%; Baxedin; Baxedin 2% - 70%; Baxedin Liq 20%; Baxedin Pre-OP; Bei Ling Tong Bao Er Zheng Yuan Antibacterial Creams; Betasept; Bioprep; Bioprep Liq; Burn O Sol Spray; CLIP Liquid Sanitizer; Calgon Vestal 2% Chg Antimicrob.skin Cleans.; Calgon Vestal 4% Chg Antimicrob.skin Cleans.; Cardinal Health; Cardinal Health Antiseptic Skin Cleanser; Chlora-cleanze; ChloraPrep One-Step; Chloraprep; Chloraprep Liq 0.5%; Chlorhexidine; Chlorhexidine 0.5% Liq; Chlorhexidine 2% Antiseptic Hand Wash; Chlorhexidine 4% Antiseptic Hand Wash; Chlorhexidine Alcohol Free; Chlorhexidine Gluconante; Chlorhexidine Gluconate; Chlorhexidine Gluconate 0.12% Oral Rinse; Chlorhexidine Gluconate 0.12% Oral Rinse, USP; Chlorhexidine Gluconate Applicator; Chlorhexidine Gluconate Solution 0.05%; Chlorhexidine Gluconate Solution 0.75% Antiseptic; Chlorhexidine Gluconate Solution USP 20%; Chlorhexidine Liq 0.05%; Chlorhexidine Solution; Chlorhexidine and Isopropyl Alcohol Prep Pads; Chlorhexidine and Isopropyl Alcohol Swabsticks; Chlorhexidine gluconate; Chlorhexidine-cetrimide Soltn Conc; Chlorhexseptic-liq 0.5mg/ml; Cida-stat Foam; Cida-stat Liq; DASH Chlorhexidine Gluconate 0.12% Oral Rinse; DEQGEL Advanced Hand Sanitizer; Denti-Care Denti-Rinse Chlorhexidine Gluconate Oral Rinse; Denticare Chlorhexidine Gluconate Oral Rinse 0.12%; DermacinRx Clorhexacin; DermacinRx Surgical ComboPak; DermacinRx Surgical PharmaPak; Dermawerx Surgical Plus Pak; Dermawerx Surgical PrePak; Dermsafe Chlorhexidine Gluconate Hand Sanitizer Lotion; Dermsafe Pc; Dexidin 0.5 Solution; Dexidin 2 Detergent; Dexidin 2 Solution; Dexidin 20; Dexidin Liq 4%; Disinfectant Fabric Wash; Disinfectant Spray(Speedy effect type); Disinfectant Wet Tissues; Dr. Zheng s acteriostatic gel; Dyna-Hex 2; Dyna-Hex 75; Dyna-hex 2; Dyna-hex 4; E-Z Scrub 107; E-Z Scrub 747 4%; E-Z Scrub Antimicrobial Foam Solution Containing 4% Chg; Endure 400 Scrub-Stat 4; Endure 420 Cida-Stat; Eyewash Station Additive Concentrate; Ezy-TM; First Aid Antiseptic Skin Cleanser; Flamazine C; Foam Care Chg Surgical Hand Scrub; Foam Safe; Foaming Hand Wash; Freeman Packing Alcohol Wipe; Gelato Chlorohexidine; Germi Stat Gel 2%; Germi Stat Gel 4%; Germi-stat 0.5% Antiseptic Prep Gel; Germi-stat 2% Foaming Liquid; Germi-stat Prep Gel; Gum Paroex; Hand Sanitizer; Hand Sanitizer Biokaab; Hand Sanitizer Gel Biokaab; Hand Wipes; Hand wipes; HandSoap; Hands-free skin sanitizer; Henry Schein Antimicrobial Skin Cleanser; Hexicinide; Hexifoam-skin Disinfectant Aer 1%; Hexirex Antiseptic Skin Cleanser; Hibiclens; Hibiclens Antiseptic/antimicrobial Skin Cleanser; Hibidil; Hibistat; Hibistat Germicidal Hand Rinse; Hibitane Skin Cleanser; Hibitane Skin Cleanser 2%; Hibitane Skin Cleanser 4%; Hibitane Skin Cleanser Liq 4%; Hygenipak 2% Chg Skin Cleanser; Hygienipak 2% Chg Foaming Skin Cleanser; Hygienipak 4% Chg Foaming Skin Cleanser; Hygienipak 4% Chg Skin Cleanser; ICEKING Skin Expert Refreshing Body Roller; Ic-gel; Instillagel; JIANLIANG Antibacterial Sprays 10mL; Jisberry Hand Sanitizer; KIMVENT ORAL CARE Q4 Kit WITH CHG; Kimvent Oral Care Q2 Kit with CHG; KleerSight; LARA MED Antibacterial Wet Wipes; Laura Line Antibacterial Cream Soap 2%; Laura Line Chlorhexidine Antiseptic Soap; Liquivida Hydration; Liszt Hand sanitizer without washing; Loris - I.V.; Loris 2% Chg Body Cleanser/nettoyant Pour Le Corps; Loris 2% Chg Solution; Loris 2% Chg Wipe/serviette; Loris I.V. Pro - Prefilled Applicator With Solution; Loris I.V. Pro - Sponge; Loris I.V. Pro - Swabstick; Major Oral Rinse; Medifresh Hand Skin Antiseptic Disinfectant Wet Wipes; Microban Medical; NUPRO Chlorhexidine Gluconate; NuSurgePak Surgical Prep/CarePak; Oral Cleansing and Suctioning System, q2; Oral Cleansing and Suctioning System, q4; Oris Chx; Oro Clear; Oro-clense; Oronine H Ointment 1%; Ostar Antimicrobial Hand Soap 2% - Liquid; Paroex; Paroex Chlorhexidine Gluconate; Perichlor; Perichlor Without Alcohol; Peridex; Peridex Oral Rinse; Peridex Oral Rinse 0.12%; PerioChip; Periogard; Periogard (Chlorhexidine Gluconate); Periogard Alcohol Free; Perioselect Antimicrobial Sol 0.12%; PhysiciansCare Eyewash Station Additive Concentrate; Pre and Post Sx Pouch; Pre-Scrub II Surgical Hand Scrub; Pre-moistened Towelette; Prevantics Maxi Swabstick; Prevantics Swab; Prevantics Swabstick; Prevantics swabstick; Prevora Stage 1; Pro-dentx Chlorhexidene Oral Rinse; Protective Hand; Provon Antimicrobial Foam Handwash; Provon Antiseptic Lotion Soap With 2% Chg; Purell Antimicrobial Foam; Purmist; Q2 Oral Care Kit with CHG; QCare Rx Oral Cleansing and Suctioning System; QCare Rx Oral Cleansing and Suctioning System, Q2; QCare Rx Oral Cleansing and Suctioning System, Q4; QCare Rx Petite Oral Cleansing and Suctioning System; Quick-Drying Hand Sanitizer; Quick-drying rinse-free hand skin disinfectant; ReadyPrep CHG; Rougier Clean Derm; Rougier Vap-chlorhexidine Gluconate 2% W/V; Rouhex G 20%; Rouhex G 4%; Rouhex G Liq 2%; Rugby Antiseptic Skin Cleanser; SAITENM Health Wet wipes; SANIDEP Advanced Sanitizer with Organic Extracts; SHIERJIE DISINFECTING SOFT WIPES Antibacterial; Salvesept Crm; Sanital Antibacterial Hand Soap; Savlodil; Savlon Hospital Concentrate; Scrub; Scrub Care; Scrub Care Exidine -4 CHG; Scrub Care Exidine-2 CHG; Scrub Care Surgical Scrub Brush/nail Cleaner With Exidine 4; Scrub Stat 4 Foam Liq; Scrub, Scrub-Stat; Scrub, Scrub-Stat, Foam Safe, Micro-Guard; Scrub-Stat; Scrub-stat IV 4%; Seaqua X; Selpak Antibacterial Wet Wipes; Septi-san; Serdaen; Skin Antisepsis, Oral Cleansing and Nasal Antisepsis System; Skin antisepsis, oral cleansing, nasal antisepsis; Skinvisible Chlorhexidine Formula Hand Sanitizer Lotion; Sky Oral Rinse; Smart San CHG; Smart Sense Antiseptic Skin Cleanser; Soft Care 2% Chg Antimicrobial Skin Cleanser; Soft Care Antiseptic Hand Soap; Solunet C Brosse 4%; Soluprep; Soluprep AQ; Soluprep AQ Applicator; Soluprep AQ Sponge; Soluprep AQ Swab; Soluprep AQ Wipe; Soluprep Antiseptic Skin Cleanser Preoperative Kit; Soluprep Antiseptic Skin Cleanser Sponge; Soluprep Applicator; Soluprep Ld Sponge; Soluprep Qd Solution; Soluprep Qd Swab; Soluprep Qd Wipe; Soluprep Swab; Soluprep Wipe; Spectro Gram 2 Skin Cleanser; Spectro Tar Antiseptic Shampoo; Spray On Plastic Bandage Aerosol; Spray On Plastic Bandage Non-aerosol; Stanhexidine 2% With Isopropyl Alcohol 4%; Stanhexidine 20%; Stanhexidine 4% With Isopropyl Alcohol 4%; Stanhexidine Aqueous 2% With 4% Isopropyl Alcohol; Stanhexidine Red Tincture 0.5%; Stat Touch 2 Antimicrobial Skin Cleanser; Steri-clean; Steri-stat Liq 2.0%; Steri-stat Liq 20%; Steri-stat Liq 4.0%; Steri-stat Tincture (tinted) Antis Prep Gel; Sterigel Plus; Sterixin 0.05%; Sunberry Rinse free Hand Sanitizer; Surgical Continuum System; Surgical and healthcare personnel hand antiseptic with moisturizers; Tai Yu Ling Antibacterial Sprays 10mL; Ultrastat; WhyteDerm SurgiPak; X-pur Chlorhexidine; Yu Ding Antibacterial Sprays 10mL

> <INTERNATIONAL_BRANDS>
Cida-Stat; Corsodyl; DentiSept; Dyna-Hex; Exidine; Hexadol; Hibiscrub; Hibitane; Microderm; Periogard Oral Rinse; Pharmaseal Scrub Care; Prevacare R; Rotersept; Sterilon; Tubulicid

> <SALTS>
Chlorhexidine acetate; Chlorhexidine gluconate; Chlorhexidine hydrochloride

$$$$