447261
  -OEChem-10051720003D

 56 58  0     1  0  0  0  0  0999 V2000
   -3.7626   -0.2151   -0.7027 P   0  0  1  0  0  0  0  0  0  0  0  0
   -0.8529    1.6120    0.7893 O   0  0  0  0  0  0  0  0  0  0  0  0
   -0.8824    4.5088    1.7409 O   0  0  0  0  0  0  0  0  0  0  0  0
    1.0853    4.4951   -0.1335 O   0  0  0  0  0  0  0  0  0  0  0  0
   -3.7475    1.2311    0.0234 O   0  0  0  0  0  0  0  0  0  0  0  0
   -2.3206   -0.8427   -0.3252 O   0  0  0  0  0  0  0  0  0  0  0  0
    0.0839   -3.2185   -1.0779 O   0  0  0  0  0  0  0  0  0  0  0  0
    1.7821   -2.1040    1.7195 O   0  0  0  0  0  0  0  0  0  0  0  0
   -4.7778   -1.0904    0.2037 O   0  0  0  0  0  0  0  0  0  0  0  0
   -4.0791   -0.2077   -2.1700 O   0  0  0  0  0  0  0  0  0  0  0  0
   -2.6325   -2.9350   -1.1926 O   0  0  0  0  0  0  0  0  0  0  0  0
    1.2120    1.3228   -0.3434 N   0  0  0  0  0  0  0  0  0  0  0  0
    1.8197    0.0327   -2.0569 N   0  0  0  0  0  0  0  0  0  0  0  0
    3.1184    0.9912    1.1249 N   0  0  0  0  0  0  0  0  0  0  0  0
    4.7545   -0.5190    0.1256 N   0  0  0  0  0  0  0  0  0  0  0  0
    4.4436   -1.5036   -2.0332 N   0  0  0  0  0  0  0  0  0  0  0  0
   -1.2168    3.9432    0.4735 C   0  0  1  0  0  0  0  0  0  0  0  0
    0.0523    3.5379   -0.2498 C   0  0  2  0  0  0  0  0  0  0  0  0
   -1.9048    2.6007    0.7001 C   0  0  1  0  0  0  0  0  0  0  0  0
    0.4017    2.2375    0.4577 C   0  0  1  0  0  0  0  0  0  0  0  0
   -2.8348    2.2105   -0.4402 C   0  0  0  0  0  0  0  0  0  0  0  0
    2.4230    0.7900   -0.0045 C   0  0  0  0  0  0  0  0  0  0  0  0
   -0.4445   -3.0336    1.2935 C   0  0  0  0  0  0  0  0  0  0  0  0
    0.8917    0.8380   -1.5839 C   0  0  0  0  0  0  0  0  0  0  0  0
   -0.5256   -2.3657   -0.1101 C   0  0  2  0  0  0  0  0  0  0  0  0
    2.7829   -0.0063   -1.0800 C   0  0  0  0  0  0  0  0  0  0  0  0
    1.0371   -3.3139    1.6584 C   0  0  0  0  0  0  0  0  0  0  0  0
   -1.0509   -2.1136    2.3719 C   0  0  0  0  0  0  0  0  0  0  0  0
   -1.1905   -4.3834    1.3163 C   0  0  0  0  0  0  0  0  0  0  0  0
   -1.9382   -2.1163   -0.6052 C   0  0  0  0  0  0  0  0  0  0  0  0
    3.9990   -0.6756   -0.9880 C   0  0  0  0  0  0  0  0  0  0  0  0
    4.2744    0.2927    1.0985 C   0  0  0  0  0  0  0  0  0  0  0  0
   -1.8112    4.6808   -0.0732 H   0  0  0  0  0  0  0  0  0  0  0  0
   -0.1619    3.3811   -1.3130 H   0  0  0  0  0  0  0  0  0  0  0  0
   -2.4436    2.5768    1.6543 H   0  0  0  0  0  0  0  0  0  0  0  0
    0.9435    2.4243    1.3925 H   0  0  0  0  0  0  0  0  0  0  0  0
   -2.2810    1.8370   -1.3077 H   0  0  0  0  0  0  0  0  0  0  0  0
   -3.4355    3.0679   -0.7590 H   0  0  0  0  0  0  0  0  0  0  0  0
   -1.7168    4.7167    2.1949 H   0  0  0  0  0  0  0  0  0  0  0  0
    0.7479    5.3328   -0.4937 H   0  0  0  0  0  0  0  0  0  0  0  0
   -0.0273    1.0949   -2.0922 H   0  0  0  0  0  0  0  0  0  0  0  0
    0.0269   -1.4244   -0.1254 H   0  0  0  0  0  0  0  0  0  0  0  0
    1.5120   -3.9731    0.9237 H   0  0  0  0  0  0  0  0  0  0  0  0
    1.1081   -3.7998    2.6385 H   0  0  0  0  0  0  0  0  0  0  0  0
   -0.5923   -1.1187    2.3533 H   0  0  0  0  0  0  0  0  0  0  0  0
   -2.1289   -1.9841    2.2260 H   0  0  0  0  0  0  0  0  0  0  0  0
   -0.9061   -2.5302    3.3752 H   0  0  0  0  0  0  0  0  0  0  0  0
   -0.7633   -5.1041    0.6117 H   0  0  0  0  0  0  0  0  0  0  0  0
   -2.2536   -4.2656    1.0838 H   0  0  0  0  0  0  0  0  0  0  0  0
   -1.1322   -4.8398    2.3119 H   0  0  0  0  0  0  0  0  0  0  0  0
   -0.4532   -4.0228   -1.1687 H   0  0  0  0  0  0  0  0  0  0  0  0
    4.9043    0.3939    1.9758 H   0  0  0  0  0  0  0  0  0  0  0  0
    2.6962   -2.3427    1.9492 H   0  0  0  0  0  0  0  0  0  0  0  0
   -5.0116   -1.9975   -0.0875 H   0  0  0  0  0  0  0  0  0  0  0  0
    5.3307   -1.9797   -1.9426 H   0  0  0  0  0  0  0  0  0  0  0  0
    3.8814   -1.6225   -2.8650 H   0  0  0  0  0  0  0  0  0  0  0  0
  1  5  1  0  0  0  0
  1  6  1  0  0  0  0
  1  9  1  0  0  0  0
  1 10  2  0  0  0  0
  2 19  1  0  0  0  0
  2 20  1  0  0  0  0
  3 17  1  0  0  0  0
  3 39  1  0  0  0  0
  4 18  1  0  0  0  0
  4 40  1  0  0  0  0
  5 21  1  0  0  0  0
  6 30  1  0  0  0  0
  7 25  1  0  0  0  0
  7 51  1  0  0  0  0
  8 27  1  0  0  0  0
  8 53  1  0  0  0  0
  9 54  1  0  0  0  0
 11 30  2  0  0  0  0
 12 20  1  0  0  0  0
 12 22  1  0  0  0  0
 12 24  1  0  0  0  0
 13 24  2  0  0  0  0
 13 26  1  0  0  0  0
 14 22  2  0  0  0  0
 14 32  1  0  0  0  0
 15 31  1  0  0  0  0
 15 32  2  0  0  0  0
 16 31  1  0  0  0  0
 16 55  1  0  0  0  0
 16 56  1  0  0  0  0
 17 18  1  0  0  0  0
 17 19  1  0  0  0  0
 17 33  1  0  0  0  0
 18 20  1  0  0  0  0
 18 34  1  0  0  0  0
 19 21  1  0  0  0  0
 19 35  1  0  0  0  0
 20 36  1  0  0  0  0
 21 37  1  0  0  0  0
 21 38  1  0  0  0  0
 22 26  1  0  0  0  0
 23 25  1  0  0  0  0
 23 27  1  0  0  0  0
 23 28  1  0  0  0  0
 23 29  1  0  0  0  0
 24 41  1  0  0  0  0
 25 30  1  0  0  0  0
 25 42  1  0  0  0  0
 26 31  2  0  0  0  0
 27 43  1  0  0  0  0
 27 44  1  0  0  0  0
 28 45  1  0  0  0  0
 28 46  1  0  0  0  0
 28 47  1  0  0  0  0
 29 48  1  0  0  0  0
 29 49  1  0  0  0  0
 29 50  1  0  0  0  0
 32 52  1  0  0  0  0
M  END
> <DATABASE_ID>
DB02694

> <DATABASE_NAME>
drugbank

> <ORIGINAL_SOURCE>
PUBCHEM

> <ORIGINAL_SOURCE_URL>
https://pubchem.ncbi.nlm.nih.gov/rest/pug/compound/inchikey/GDPVENOGSVMRJL-FSRKKXLISA-N/SDF?record_type=3d

> <SMILES>
[H][C@](O)(C(=O)OP(O)(=O)OC[C@@]1([H])O[C@@]([H])(N2C=NC3=C(N)N=CN=C23)[C@]([H])(O)[C@]1([H])O)C(C)(C)CO

> <INCHI_IDENTIFIER>
InChI=1S/C16H24N5O10P/c1-16(2,4-22)11(25)15(26)31-32(27,28)29-3-7-9(23)10(24)14(30-7)21-6-20-8-12(17)18-5-19-13(8)21/h5-7,9-11,14,22-25H,3-4H2,1-2H3,(H,27,28)(H2,17,18,19)/t7-,9-,10-,11+,14-/m1/s1

> <INCHI_KEY>
GDPVENOGSVMRJL-FSRKKXLISA-N

> <FORMULA>
C16H24N5O10P

> <MOLECULAR_WEIGHT>
477.363

> <EXACT_MASS>
477.126078525

> <JCHEM_ACCEPTOR_COUNT>
12

> <JCHEM_AVERAGE_POLARIZABILITY>
42.7391438620038

> <JCHEM_BIOAVAILABILITY>
0

> <JCHEM_DONOR_COUNT>
6

> <JCHEM_FORMAL_CHARGE>
0

> <JCHEM_GHOSE_FILTER>
0

> <JCHEM_IUPAC>
{[(2R,3S,4R,5R)-5-(6-amino-9H-purin-9-yl)-3,4-dihydroxyoxolan-2-yl]methoxy}({[(2R)-2,4-dihydroxy-3,3-dimethylbutanoyl]oxy})phosphinic acid

> <ALOGPS_LOGP>
-1.84

> <JCHEM_LOGP>
-5.409568833052661

> <ALOGPS_LOGS>
-2.21

> <JCHEM_MDDR_LIKE_RULE>
1

> <JCHEM_NUMBER_OF_RINGS>
3

> <JCHEM_PHYSIOLOGICAL_CHARGE>
-1

> <JCHEM_PKA>
12.014042348694405

> <JCHEM_PKA_STRONGEST_ACIDIC>
0.764929257551902

> <JCHEM_PKA_STRONGEST_BASIC>
4.988306434857138

> <JCHEM_POLAR_SURFACE_AREA>
232.59999999999994

> <JCHEM_REFRACTIVITY>
104.58449999999999

> <JCHEM_ROTATABLE_BOND_COUNT>
9

> <JCHEM_RULE_OF_FIVE>
0

> <ALOGPS_SOLUBILITY>
2.93e+00 g/l

> <JCHEM_TRADITIONAL_IUPAC>
[(2R,3S,4R,5R)-5-(6-aminopurin-9-yl)-3,4-dihydroxyoxolan-2-yl]methoxy[(2R)-2,4-dihydroxy-3,3-dimethylbutanoyl]oxyphosphinic acid

> <JCHEM_VEBER_RULE>
0

> <DRUGBANK_ID>
DB02694

> <SECONDARY_ACCESSION_NUMBERS>
EXPT02493

> <DRUG_GROUPS>
experimental

> <GENERIC_NAME>
Pantoyl Adenylate

$$$$