445128
  -OEChem-10051720063D

 47 46  0     0  0  0  0  0  0999 V2000
    8.1284    1.3769    0.5636 O   0  0  0  0  0  0  0  0  0  0  0  0
    2.1839   -0.4792   -0.3873 C   0  0  0  0  0  0  0  0  0  0  0  0
    1.3625   -1.7727   -0.4210 C   0  0  0  0  0  0  0  0  0  0  0  0
    3.6802   -0.7169   -0.1693 C   0  0  0  0  0  0  0  0  0  0  0  0
   -0.1542   -1.5934   -0.5490 C   0  0  0  0  0  0  0  0  0  0  0  0
    4.4914    0.5797   -0.0767 C   0  0  0  0  0  0  0  0  0  0  0  0
   -0.9260   -2.9167   -0.5158 C   0  0  0  0  0  0  0  0  0  0  0  0
    5.9759    0.3439    0.2206 C   0  0  0  0  0  0  0  0  0  0  0  0
   -2.4433   -2.7370   -0.6373 C   0  0  0  0  0  0  0  0  0  0  0  0
    6.7644    1.6476    0.2750 C   0  0  0  0  0  0  0  0  0  0  0  0
   -3.0409   -1.9674    0.5065 C   0  0  0  0  0  0  0  0  0  0  0  0
   -3.6819   -0.7983    0.3594 C   0  0  0  0  0  0  0  0  0  0  0  0
   -4.2490   -0.0637    1.4673 C   0  0  0  0  0  0  0  0  0  0  0  0
   -5.0918    1.7829   -0.0044 C   0  0  0  0  0  0  0  0  0  0  0  0
   -3.9622    2.7704   -0.2993 C   0  0  0  0  0  0  0  0  0  0  0  0
   -4.8900    1.1055    1.3206 C   0  0  0  0  0  0  0  0  0  0  0  0
   -4.1475    3.4384   -1.6529 C   0  0  0  0  0  0  0  0  0  0  0  0
    2.0340    0.0670   -1.3265 H   0  0  0  0  0  0  0  0  0  0  0  0
    1.8020    0.1623    0.4165 H   0  0  0  0  0  0  0  0  0  0  0  0
    1.7170   -2.3939   -1.2532 H   0  0  0  0  0  0  0  0  0  0  0  0
    1.5679   -2.3391    0.4965 H   0  0  0  0  0  0  0  0  0  0  0  0
    4.0731   -1.3323   -0.9879 H   0  0  0  0  0  0  0  0  0  0  0  0
    3.8202   -1.2917    0.7546 H   0  0  0  0  0  0  0  0  0  0  0  0
   -0.4921   -0.9445    0.2673 H   0  0  0  0  0  0  0  0  0  0  0  0
   -0.3747   -1.0665   -1.4855 H   0  0  0  0  0  0  0  0  0  0  0  0
    4.0664    1.2156    0.7098 H   0  0  0  0  0  0  0  0  0  0  0  0
    4.3923    1.1316   -1.0196 H   0  0  0  0  0  0  0  0  0  0  0  0
   -0.5818   -3.5539   -1.3396 H   0  0  0  0  0  0  0  0  0  0  0  0
   -0.6936   -3.4510    0.4141 H   0  0  0  0  0  0  0  0  0  0  0  0
    6.4132   -0.3116   -0.5428 H   0  0  0  0  0  0  0  0  0  0  0  0
    6.0859   -0.1904    1.1724 H   0  0  0  0  0  0  0  0  0  0  0  0
   -2.9143   -3.7270   -0.6641 H   0  0  0  0  0  0  0  0  0  0  0  0
   -2.6745   -2.2571   -1.5962 H   0  0  0  0  0  0  0  0  0  0  0  0
    6.3727    2.3169    1.0478 H   0  0  0  0  0  0  0  0  0  0  0  0
    6.7187    2.1696   -0.6858 H   0  0  0  0  0  0  0  0  0  0  0  0
   -2.9416   -2.4122    1.4942 H   0  0  0  0  0  0  0  0  0  0  0  0
   -3.7503   -0.3881   -0.6421 H   0  0  0  0  0  0  0  0  0  0  0  0
    8.1623    0.9280    1.4255 H   0  0  0  0  0  0  0  0  0  0  0  0
   -6.0427    2.3298    0.0455 H   0  0  0  0  0  0  0  0  0  0  0  0
   -5.2223    1.0740   -0.8281 H   0  0  0  0  0  0  0  0  0  0  0  0
   -4.1427   -0.4819    2.4646 H   0  0  0  0  0  0  0  0  0  0  0  0
   -3.9234    3.5411    0.4802 H   0  0  0  0  0  0  0  0  0  0  0  0
   -2.9939    2.2555   -0.2903 H   0  0  0  0  0  0  0  0  0  0  0  0
   -5.2756    1.6077    2.2040 H   0  0  0  0  0  0  0  0  0  0  0  0
   -5.0914    3.9916   -1.6913 H   0  0  0  0  0  0  0  0  0  0  0  0
   -4.1497    2.6976   -2.4588 H   0  0  0  0  0  0  0  0  0  0  0  0
   -3.3322    4.1437   -1.8423 H   0  0  0  0  0  0  0  0  0  0  0  0
  1 10  1  0  0  0  0
  1 38  1  0  0  0  0
  2  3  1  0  0  0  0
  2  4  1  0  0  0  0
  2 18  1  0  0  0  0
  2 19  1  0  0  0  0
  3  5  1  0  0  0  0
  3 20  1  0  0  0  0
  3 21  1  0  0  0  0
  4  6  1  0  0  0  0
  4 22  1  0  0  0  0
  4 23  1  0  0  0  0
  5  7  1  0  0  0  0
  5 24  1  0  0  0  0
  5 25  1  0  0  0  0
  6  8  1  0  0  0  0
  6 26  1  0  0  0  0
  6 27  1  0  0  0  0
  7  9  1  0  0  0  0
  7 28  1  0  0  0  0
  7 29  1  0  0  0  0
  8 10  1  0  0  0  0
  8 30  1  0  0  0  0
  8 31  1  0  0  0  0
  9 11  1  0  0  0  0
  9 32  1  0  0  0  0
  9 33  1  0  0  0  0
 10 34  1  0  0  0  0
 10 35  1  0  0  0  0
 11 12  2  0  0  0  0
 11 36  1  0  0  0  0
 12 13  1  0  0  0  0
 12 37  1  0  0  0  0
 13 16  2  0  0  0  0
 13 41  1  0  0  0  0
 14 15  1  0  0  0  0
 14 16  1  0  0  0  0
 14 39  1  0  0  0  0
 14 40  1  0  0  0  0
 15 17  1  0  0  0  0
 15 42  1  0  0  0  0
 15 43  1  0  0  0  0
 16 44  1  0  0  0  0
 17 45  1  0  0  0  0
 17 46  1  0  0  0  0
 17 47  1  0  0  0  0
M  END
> <DATABASE_ID>
DB02982

> <DATABASE_NAME>
drugbank

> <ORIGINAL_SOURCE>
PUBCHEM

> <ORIGINAL_SOURCE_URL>
https://pubchem.ncbi.nlm.nih.gov/rest/pug/compound/inchikey/CIVIWCVVOFNUST-SCFJQAPRSA-N/SDF?record_type=3d

> <SMILES>
[H]\C(CCC)=C(/[H])\C(\[H])=C(/[H])CCCCCCCCCO

> <INCHI_IDENTIFIER>
InChI=1S/C16H30O/c1-2-3-4-5-6-7-8-9-10-11-12-13-14-15-16-17/h4-7,17H,2-3,8-16H2,1H3/b5-4-,7-6+

> <INCHI_KEY>
CIVIWCVVOFNUST-SCFJQAPRSA-N

> <FORMULA>
C16H30O

> <MOLECULAR_WEIGHT>
238.4088

> <EXACT_MASS>
238.229665582

> <JCHEM_ACCEPTOR_COUNT>
1

> <JCHEM_AVERAGE_POLARIZABILITY>
32.544067482426485

> <JCHEM_BIOAVAILABILITY>
0

> <JCHEM_DONOR_COUNT>
1

> <JCHEM_FORMAL_CHARGE>
0

> <JCHEM_GHOSE_FILTER>
1

> <JCHEM_IUPAC>
(10E,12Z)-hexadeca-10,12-dien-1-ol

> <ALOGPS_LOGP>
6.38

> <JCHEM_LOGP>
5.416302612666667

> <ALOGPS_LOGS>
-6.05

> <JCHEM_MDDR_LIKE_RULE>
0

> <JCHEM_NUMBER_OF_RINGS>
0

> <JCHEM_PHYSIOLOGICAL_CHARGE>
0

> <JCHEM_PKA_STRONGEST_ACIDIC>
16.84394282199214

> <JCHEM_PKA_STRONGEST_BASIC>
-1.9922594096606376

> <JCHEM_POLAR_SURFACE_AREA>
20.23

> <JCHEM_REFRACTIVITY>
79.58009999999999

> <JCHEM_ROTATABLE_BOND_COUNT>
12

> <JCHEM_RULE_OF_FIVE>
0

> <ALOGPS_SOLUBILITY>
2.10e-04 g/l

> <JCHEM_TRADITIONAL_IUPAC>
bombykol

> <JCHEM_VEBER_RULE>
0

> <DRUGBANK_ID>
DB02982

> <SECONDARY_ACCESSION_NUMBERS>
EXPT00738

> <DRUG_GROUPS>
experimental

> <GENERIC_NAME>
Bombykol

$$$$