3572
  -OEChem-02112023313D

 53 52  0     0  0  0  0  0  0999 V2000
    8.7704    0.2963   -0.0948 S   0  0  0  0  0  0  0  0  0  0  0  0
    9.9407   -0.6854   -0.5308 F   0  0  0  0  0  0  0  0  0  0  0  0
    8.7106    1.3069   -1.1337 O   0  0  0  0  0  0  0  0  0  0  0  0
    9.0530    0.6404    1.2858 O   0  0  0  0  0  0  0  0  0  0  0  0
   -1.6351    0.2397    0.2171 C   0  0  0  0  0  0  0  0  0  0  0  0
   -0.3654   -0.6109    0.1051 C   0  0  0  0  0  0  0  0  0  0  0  0
   -2.9569   -0.5059    0.0076 C   0  0  0  0  0  0  0  0  0  0  0  0
    0.9234    0.2045    0.2356 C   0  0  0  0  0  0  0  0  0  0  0  0
   -4.1923    0.3806    0.1858 C   0  0  0  0  0  0  0  0  0  0  0  0
    2.1922   -0.6387    0.0655 C   0  0  0  0  0  0  0  0  0  0  0  0
   -5.4796   -0.4158   -0.0441 C   0  0  0  0  0  0  0  0  0  0  0  0
    3.4807    0.1733    0.2219 C   0  0  0  0  0  0  0  0  0  0  0  0
   -6.7527    0.4251    0.0996 C   0  0  0  0  0  0  0  0  0  0  0  0
    4.7494   -0.6559   -0.0068 C   0  0  0  0  0  0  0  0  0  0  0  0
   -8.0383   -0.3795   -0.1098 C   0  0  0  0  0  0  0  0  0  0  0  0
    6.0354    0.1723    0.0733 C   0  0  0  0  0  0  0  0  0  0  0  0
   -9.3081    0.4750   -0.0370 C   0  0  0  0  0  0  0  0  0  0  0  0
    7.2903   -0.6618   -0.1493 C   0  0  0  0  0  0  0  0  0  0  0  0
  -10.5930   -0.3196   -0.2744 C   0  0  0  0  0  0  0  0  0  0  0  0
  -11.8249    0.5593   -0.1167 C   0  0  0  0  0  0  0  0  0  0  0  0
   -1.5786    1.0557   -0.5148 H   0  0  0  0  0  0  0  0  0  0  0  0
   -1.6499    0.7138    1.2068 H   0  0  0  0  0  0  0  0  0  0  0  0
   -0.3676   -1.1250   -0.8639 H   0  0  0  0  0  0  0  0  0  0  0  0
   -0.3844   -1.3898    0.8769 H   0  0  0  0  0  0  0  0  0  0  0  0
   -2.9624   -0.9421   -0.9989 H   0  0  0  0  0  0  0  0  0  0  0  0
   -3.0078   -1.3426    0.7153 H   0  0  0  0  0  0  0  0  0  0  0  0
    0.9229    1.0042   -0.5152 H   0  0  0  0  0  0  0  0  0  0  0  0
    0.9420    0.6919    1.2181 H   0  0  0  0  0  0  0  0  0  0  0  0
   -4.1477    1.2187   -0.5197 H   0  0  0  0  0  0  0  0  0  0  0  0
   -4.1984    0.8065    1.1962 H   0  0  0  0  0  0  0  0  0  0  0  0
    2.1882   -1.4516    0.8019 H   0  0  0  0  0  0  0  0  0  0  0  0
    2.1788   -1.1083   -0.9258 H   0  0  0  0  0  0  0  0  0  0  0  0
   -5.5200   -1.2492    0.6683 H   0  0  0  0  0  0  0  0  0  0  0  0
   -5.4570   -0.8584   -1.0477 H   0  0  0  0  0  0  0  0  0  0  0  0
    3.5128    0.6145    1.2256 H   0  0  0  0  0  0  0  0  0  0  0  0
    3.4659    1.0072   -0.4908 H   0  0  0  0  0  0  0  0  0  0  0  0
   -6.7734    0.8823    1.0965 H   0  0  0  0  0  0  0  0  0  0  0  0
   -6.7197    1.2476   -0.6255 H   0  0  0  0  0  0  0  0  0  0  0  0
    4.6937   -1.1343   -0.9924 H   0  0  0  0  0  0  0  0  0  0  0  0
    4.7900   -1.4623    0.7357 H   0  0  0  0  0  0  0  0  0  0  0  0
   -7.9973   -0.8731   -1.0887 H   0  0  0  0  0  0  0  0  0  0  0  0
   -8.0932   -1.1747    0.6437 H   0  0  0  0  0  0  0  0  0  0  0  0
    6.0924    0.6617    1.0534 H   0  0  0  0  0  0  0  0  0  0  0  0
    5.9914    0.9767   -0.6712 H   0  0  0  0  0  0  0  0  0  0  0  0
   -9.2420    1.2816   -0.7777 H   0  0  0  0  0  0  0  0  0  0  0  0
   -9.3549    0.9547    0.9487 H   0  0  0  0  0  0  0  0  0  0  0  0
    7.2606   -1.1349   -1.1361 H   0  0  0  0  0  0  0  0  0  0  0  0
    7.3817   -1.4448    0.6098 H   0  0  0  0  0  0  0  0  0  0  0  0
  -10.5806   -0.7529   -1.2809 H   0  0  0  0  0  0  0  0  0  0  0  0
  -10.6517   -1.1512    0.4372 H   0  0  0  0  0  0  0  0  0  0  0  0
  -11.8815    0.9786    0.8930 H   0  0  0  0  0  0  0  0  0  0  0  0
  -12.7326   -0.0262   -0.2927 H   0  0  0  0  0  0  0  0  0  0  0  0
  -11.8101    1.3871   -0.8327 H   0  0  0  0  0  0  0  0  0  0  0  0
  1  2  1  0  0  0  0
  1  3  2  0  0  0  0
  1  4  2  0  0  0  0
  1 18  1  0  0  0  0
  5  6  1  0  0  0  0
  5  7  1  0  0  0  0
  5 21  1  0  0  0  0
  5 22  1  0  0  0  0
  6  8  1  0  0  0  0
  6 23  1  0  0  0  0
  6 24  1  0  0  0  0
  7  9  1  0  0  0  0
  7 25  1  0  0  0  0
  7 26  1  0  0  0  0
  8 10  1  0  0  0  0
  8 27  1  0  0  0  0
  8 28  1  0  0  0  0
  9 11  1  0  0  0  0
  9 29  1  0  0  0  0
  9 30  1  0  0  0  0
 10 12  1  0  0  0  0
 10 31  1  0  0  0  0
 10 32  1  0  0  0  0
 11 13  1  0  0  0  0
 11 33  1  0  0  0  0
 11 34  1  0  0  0  0
 12 14  1  0  0  0  0
 12 35  1  0  0  0  0
 12 36  1  0  0  0  0
 13 15  1  0  0  0  0
 13 37  1  0  0  0  0
 13 38  1  0  0  0  0
 14 16  1  0  0  0  0
 14 39  1  0  0  0  0
 14 40  1  0  0  0  0
 15 17  1  0  0  0  0
 15 41  1  0  0  0  0
 15 42  1  0  0  0  0
 16 18  1  0  0  0  0
 16 43  1  0  0  0  0
 16 44  1  0  0  0  0
 17 19  1  0  0  0  0
 17 45  1  0  0  0  0
 17 46  1  0  0  0  0
 18 47  1  0  0  0  0
 18 48  1  0  0  0  0
 19 20  1  0  0  0  0
 19 49  1  0  0  0  0
 19 50  1  0  0  0  0
 20 51  1  0  0  0  0
 20 52  1  0  0  0  0
 20 53  1  0  0  0  0
M  END
> <DATABASE_ID>
DB02035

> <DATABASE_NAME>
drugbank

> <ORIGINAL_SOURCE>
PUBCHEM

> <ORIGINAL_SOURCE_URL>
https://pubchem.ncbi.nlm.nih.gov/rest/pug/compound/inchikey/QIVFMUVBIHIZAM-UHFFFAOYSA-N/SDF?record_type=3d

> <SMILES>
CCCCCCCCCCCCCCCCS(F)(=O)=O

> <INCHI_IDENTIFIER>
InChI=1S/C16H33FO2S/c1-2-3-4-5-6-7-8-9-10-11-12-13-14-15-16-20(17,18)19/h2-16H2,1H3

> <INCHI_KEY>
QIVFMUVBIHIZAM-UHFFFAOYSA-N

> <FORMULA>
C16H33FO2S

> <MOLECULAR_WEIGHT>
308.495

> <EXACT_MASS>
308.218529195

> <JCHEM_ACCEPTOR_COUNT>
2

> <JCHEM_ATOM_COUNT>
53

> <JCHEM_AVERAGE_NEUTRAL_MICROSPECIES_CHARGE>
0.0

> <JCHEM_AVERAGE_POLARIZABILITY>
38.220350194114424

> <JCHEM_BIOAVAILABILITY>
0

> <JCHEM_DONOR_COUNT>
0

> <JCHEM_FORMAL_CHARGE>
0

> <JCHEM_GHOSE_FILTER>
0

> <JCHEM_IUPAC>
hexadecane-1-sulfonyl fluoride

> <ALOGPS_LOGP>
7.07

> <JCHEM_LOGP>
6.328345707333333

> <ALOGPS_LOGS>
-5.99

> <JCHEM_MDDR_LIKE_RULE>
0

> <JCHEM_NEUTRAL_CHARGE>
0

> <JCHEM_NUMBER_OF_RINGS>
0

> <JCHEM_PHYSIOLOGICAL_CHARGE>
0

> <JCHEM_POLAR_SURFACE_AREA>
34.14

> <JCHEM_REFRACTIVITY>
84.67759999999998

> <JCHEM_ROTATABLE_BOND_COUNT>
15

> <JCHEM_RULE_OF_FIVE>
0

> <ALOGPS_SOLUBILITY>
3.16e-04 g/l

> <JCHEM_TRADITIONAL_IUPAC>
Î±-D-glucose 6-phosphate

> <JCHEM_VEBER_RULE>
0

> <DRUGBANK_ID>
DB02035

> <SECONDARY_ACCESSION_NUMBERS>
EXPT01783

> <DRUG_GROUPS>
experimental

> <GENERIC_NAME>
Hexadecanesulfonyl fluoride

> <SYNONYMS>
1-Hexadecanesulfonyl fluoride; Hexadecane-1-sulfonyl fluoride

$$$$