448088
  -OEChem-12191915253D

 52 53  0     1  0  0  0  0  0999 V2000
   -4.7546   -2.6003   -0.0517 P   0  0  0  0  0  0  0  0  0  0  0  0
   -1.5734    0.2662    0.4721 O   0  0  0  0  0  0  0  0  0  0  0  0
   -1.9361    3.7988   -0.0438 O   0  0  0  0  0  0  0  0  0  0  0  0
   -2.1748    2.5617    2.3815 O   0  0  0  0  0  0  0  0  0  0  0  0
   -3.6590   -1.6027    0.6014 O   0  0  0  0  0  0  0  0  0  0  0  0
    0.5311    2.2471    1.1651 O   0  0  0  0  0  0  0  0  0  0  0  0
    0.5736    1.0836   -3.2875 O   0  0  0  0  0  0  0  0  0  0  0  0
   -6.1133   -2.2088    0.7329 O   0  0  0  0  0  0  0  0  0  0  0  0
   -4.9917   -1.9936   -1.5318 O   0  0  0  0  0  0  0  0  0  0  0  0
   -4.3929   -4.0561   -0.0054 O   0  0  0  0  0  0  0  0  0  0  0  0
    4.2597   -3.1274    0.4689 O   0  0  0  0  0  0  0  0  0  0  0  0
    5.6296    0.3515    1.8064 O   0  0  0  0  0  0  0  0  0  0  0  0
    6.1627   -1.0843    0.1351 O   0  0  0  0  0  0  0  0  0  0  0  0
    1.9922   -3.6076   -0.7694 O   0  0  0  0  0  0  0  0  0  0  0  0
   -1.1067    1.0996   -1.6735 N   0  0  0  0  0  0  0  0  0  0  0  0
    0.9271    1.7976   -1.0878 N   0  0  0  0  0  0  0  0  0  0  0  0
    3.6089   -1.9692   -0.1189 N   0  0  2  0  0  0  0  0  0  0  0  0
   -1.2608    1.4371   -0.2812 C   0  0  1  0  0  0  0  0  0  0  0  0
   -2.3658    2.4538   -0.0371 C   0  0  1  0  0  0  0  0  0  0  0  0
   -2.9341    2.0236    1.3017 C   0  0  1  0  0  0  0  0  0  0  0  0
   -2.7582    0.5094    1.2609 C   0  0  1  0  0  0  0  0  0  0  0  0
    0.1608    1.8896    0.0546 C   0  0  0  0  0  0  0  0  0  0  0  0
   -3.9248   -0.2112    0.5978 C   0  0  0  0  0  0  0  0  0  0  0  0
    0.1894    1.3080   -2.1471 C   0  0  0  0  0  0  0  0  0  0  0  0
    2.3336    2.1421   -1.1467 C   0  0  0  0  0  0  0  0  0  0  0  0
    3.2427    0.9497   -0.8590 C   0  0  0  0  0  0  0  0  0  0  0  0
    2.9868    0.3426    0.5298 C   0  0  0  0  0  0  0  0  0  0  0  0
    3.8353   -0.8974    0.8498 C   0  0  2  0  0  0  0  0  0  0  0  0
    5.3200   -0.5805    0.8665 C   0  0  0  0  0  0  0  0  0  0  0  0
    2.1926   -2.3231   -0.1836 C   0  0  0  0  0  0  0  0  0  0  0  0
   -3.1436    2.3510   -0.8038 H   0  0  0  0  0  0  0  0  0  0  0  0
   -3.9704    2.3463    1.4416 H   0  0  0  0  0  0  0  0  0  0  0  0
   -2.5701    0.0827    2.2523 H   0  0  0  0  0  0  0  0  0  0  0  0
   -1.8507    0.7100   -2.2439 H   0  0  0  0  0  0  0  0  0  0  0  0
   -4.8504   -0.0133    1.1472 H   0  0  0  0  0  0  0  0  0  0  0  0
   -4.0471    0.1155   -0.4395 H   0  0  0  0  0  0  0  0  0  0  0  0
    2.5305    2.9410   -0.4230 H   0  0  0  0  0  0  0  0  0  0  0  0
    2.5530    2.5261   -2.1492 H   0  0  0  0  0  0  0  0  0  0  0  0
   -1.3711    3.9395    0.7349 H   0  0  0  0  0  0  0  0  0  0  0  0
   -2.5545    2.2134    3.2061 H   0  0  0  0  0  0  0  0  0  0  0  0
    3.0873    0.1938   -1.6371 H   0  0  0  0  0  0  0  0  0  0  0  0
    4.2858    1.2775   -0.9360 H   0  0  0  0  0  0  0  0  0  0  0  0
    3.1934    1.1167    1.2808 H   0  0  0  0  0  0  0  0  0  0  0  0
    1.9323    0.0858    0.6589 H   0  0  0  0  0  0  0  0  0  0  0  0
    3.5780   -1.2440    1.8613 H   0  0  0  0  0  0  0  0  0  0  0  0
    1.6420   -1.6077   -0.8021 H   0  0  0  0  0  0  0  0  0  0  0  0
    1.7348   -2.3574    0.8125 H   0  0  0  0  0  0  0  0  0  0  0  0
   -6.9209   -2.7438    0.5794 H   0  0  0  0  0  0  0  0  0  0  0  0
   -5.5752   -2.4768   -2.1549 H   0  0  0  0  0  0  0  0  0  0  0  0
    4.8771   -3.3471   -0.2495 H   0  0  0  0  0  0  0  0  0  0  0  0
    6.5887    0.5569    1.8150 H   0  0  0  0  0  0  0  0  0  0  0  0
    1.0330   -3.7670   -0.7860 H   0  0  0  0  0  0  0  0  0  0  0  0
  1  5  1  0  0  0  0
  1  8  1  0  0  0  0
  1  9  1  0  0  0  0
  1 10  2  0  0  0  0
  2 18  1  0  0  0  0
  2 21  1  0  0  0  0
  3 19  1  0  0  0  0
  3 39  1  0  0  0  0
  4 20  1  0  0  0  0
  4 40  1  0  0  0  0
  5 23  1  0  0  0  0
  6 22  2  0  0  0  0
  7 24  2  0  0  0  0
  8 48  1  0  0  0  0
  9 49  1  0  0  0  0
 11 17  1  0  0  0  0
 11 50  1  0  0  0  0
 12 29  1  0  0  0  0
 12 51  1  0  0  0  0
 13 29  2  0  0  0  0
 14 30  1  0  0  0  0
 14 52  1  0  0  0  0
 15 18  1  0  0  0  0
 15 24  1  0  0  0  0
 15 34  1  0  0  0  0
 16 22  1  0  0  0  0
 16 24  1  0  0  0  0
 16 25  1  0  0  0  0
 17 28  1  0  0  0  0
 17 30  1  0  0  0  0
 18 19  1  0  0  0  0
 18 22  1  0  0  0  0
 19 20  1  0  0  0  0
 19 31  1  0  0  0  0
 20 21  1  0  0  0  0
 20 32  1  0  0  0  0
 21 23  1  0  0  0  0
 21 33  1  0  0  0  0
 23 35  1  0  0  0  0
 23 36  1  0  0  0  0
 25 26  1  0  0  0  0
 25 37  1  0  0  0  0
 25 38  1  0  0  0  0
 26 27  1  0  0  0  0
 26 41  1  0  0  0  0
 26 42  1  0  0  0  0
 27 28  1  0  0  0  0
 27 43  1  0  0  0  0
 27 44  1  0  0  0  0
 28 29  1  0  0  0  0
 28 45  1  0  0  0  0
 30 46  1  0  0  0  0
 30 47  1  0  0  0  0
M  END
> <DATABASE_ID>
DB02666

> <DATABASE_NAME>
drugbank

> <ORIGINAL_SOURCE>
PUBCHEM

> <ORIGINAL_SOURCE_URL>
https://pubchem.ncbi.nlm.nih.gov/rest/pug/compound/inchikey/MAXSFYCTFIBEAR-OJMIUMIFSA-N/SDF?record_type=3d

> <SMILES>
[H]N1C(=O)N(CCC[C@@H](N(O)CO)C(O)=O)C(=O)[C@]11O[C@H](COP(O)(O)=O)[C@@H](O)[C@H]1O

> <INCHI_IDENTIFIER>
InChI=1S/C13H22N3O13P/c17-5-16(24)6(10(20)21)2-1-3-15-11(22)13(14-12(15)23)9(19)8(18)7(29-13)4-28-30(25,26)27/h6-9,17-19,24H,1-5H2,(H,14,23)(H,20,21)(H2,25,26,27)/t6-,7-,8-,9-,13+/m1/s1

> <INCHI_KEY>
MAXSFYCTFIBEAR-OJMIUMIFSA-N

> <FORMULA>
C13H22N3O13P

> <MOLECULAR_WEIGHT>
459.2998

> <EXACT_MASS>
459.089024317

> <JCHEM_ACCEPTOR_COUNT>
13

> <JCHEM_ATOM_COUNT>
52

> <JCHEM_AVERAGE_NEUTRAL_MICROSPECIES_CHARGE>
0.9235734499337599

> <JCHEM_AVERAGE_POLARIZABILITY>
39.004709108971106

> <JCHEM_BIOAVAILABILITY>
0

> <JCHEM_DONOR_COUNT>
8

> <JCHEM_FORMAL_CHARGE>
0

> <JCHEM_GHOSE_FILTER>
0

> <JCHEM_IUPAC>
(2R)-5-[(5S,7R,8S,9R)-8,9-dihydroxy-2,4-dioxo-7-[(phosphonooxy)methyl]-6-oxa-1,3-diazaspiro[4.4]nonan-3-yl]-2-[N-hydroxy-N-(hydroxymethyl)amino]pentanoic acid

> <ALOGPS_LOGP>
-2.24

> <JCHEM_LOGP>
-3.6540424720000004

> <ALOGPS_LOGS>
-1.66

> <JCHEM_MDDR_LIKE_RULE>
0

> <JCHEM_NEUTRAL_CHARGE>
-3

> <JCHEM_NUMBER_OF_RINGS>
2

> <JCHEM_PHYSIOLOGICAL_CHARGE>
-3

> <JCHEM_PKA>
3.4206843334293344

> <JCHEM_PKA_STRONGEST_ACIDIC>
1.2205103852690353

> <JCHEM_PKA_STRONGEST_BASIC>
-2.795885195562658

> <JCHEM_POLAR_SURFACE_AREA>
246.85999999999999

> <JCHEM_REFRACTIVITY>
89.7038

> <JCHEM_ROTATABLE_BOND_COUNT>
10

> <JCHEM_RULE_OF_FIVE>
0

> <ALOGPS_SOLUBILITY>
1.00e+01 g/l

> <JCHEM_TRADITIONAL_IUPAC>
(2R)-5-[(5S,7R,8S,9R)-8,9-dihydroxy-2,4-dioxo-7-[(phosphonooxy)methyl]-6-oxa-1,3-diazaspiro[4.4]nonan-3-yl]-2-[N-hydroxy-N-(hydroxymethyl)amino]pentanoic acid

> <JCHEM_VEBER_RULE>
0

> <DRUGBANK_ID>
DB02666

> <SECONDARY_ACCESSION_NUMBERS>
EXPT02810

> <DRUG_GROUPS>
experimental

> <GENERIC_NAME>
(C8-R)-hydantocidin 5'-phosphate

$$$$