445575
  -OEChem-10051720163D

 57 60  0     1  0  0  0  0  0999 V2000
   -0.5518   -2.8252    1.7977 O   0  0  0  0  0  0  0  0  0  0  0  0
    7.4920    1.7872   -0.5626 O   0  0  0  0  0  0  0  0  0  0  0  0
    7.1285    0.2307   -2.1786 O   0  0  0  0  0  0  0  0  0  0  0  0
   -4.1500   -0.9501   -1.3893 C   0  0  0  0  0  0  0  0  0  0  0  0
   -4.8047    1.7581   -0.1228 C   0  0  0  0  0  0  0  0  0  0  0  0
   -5.0668    0.1105   -2.0385 C   0  0  0  0  0  0  0  0  0  0  0  0
   -5.7885    0.9518   -0.9995 C   0  0  0  0  0  0  0  0  0  0  0  0
   -3.3186   -0.3553   -0.2456 C   0  0  0  0  0  0  0  0  0  0  0  0
   -3.6266    0.8947    0.3463 C   0  0  0  0  0  0  0  0  0  0  0  0
   -5.0029   -2.1103   -0.8299 C   0  0  0  0  0  0  0  0  0  0  0  0
   -3.2561   -1.5072   -2.5230 C   0  0  0  0  0  0  0  0  0  0  0  0
   -4.2513    2.9585   -0.9223 C   0  0  0  0  0  0  0  0  0  0  0  0
   -5.6284    2.3054    1.0674 C   0  0  0  0  0  0  0  0  0  0  0  0
   -2.2273   -1.0925    0.2663 C   0  0  0  0  0  0  0  0  0  0  0  0
   -2.7916    1.3747    1.3803 C   0  0  0  0  0  0  0  0  0  0  0  0
   -1.4314   -0.6039    1.3006 C   0  0  0  0  0  0  0  0  0  0  0  0
   -1.7092    0.6353    1.8529 C   0  0  0  0  0  0  0  0  0  0  0  0
   -0.2844   -1.4104    1.8077 C   0  0  2  0  0  0  0  0  0  0  0  0
    1.0250   -1.1471    1.0723 C   0  0  0  0  0  0  0  0  0  0  0  0
    1.8799   -0.1838    1.5647 C   0  0  0  0  0  0  0  0  0  0  0  0
    1.3094   -1.8781   -0.0575 C   0  0  0  0  0  0  0  0  0  0  0  0
    3.0899    0.0718    0.8991 C   0  0  0  0  0  0  0  0  0  0  0  0
    3.4082   -0.6659   -0.2660 C   0  0  0  0  0  0  0  0  0  0  0  0
    2.5070   -1.6373   -0.7313 C   0  0  0  0  0  0  0  0  0  0  0  0
    3.9909    1.0433    1.3644 C   0  0  0  0  0  0  0  0  0  0  0  0
    4.6182   -0.4102   -0.9316 C   0  0  0  0  0  0  0  0  0  0  0  0
    5.5018    0.5588   -0.4552 C   0  0  0  0  0  0  0  0  0  0  0  0
    5.1886    1.2840    0.6906 C   0  0  0  0  0  0  0  0  0  0  0  0
    6.7503    0.8125   -1.1566 C   0  0  0  0  0  0  0  0  0  0  0  0
   -5.8074   -0.3757   -2.6868 H   0  0  0  0  0  0  0  0  0  0  0  0
   -4.4832    0.7683   -2.6948 H   0  0  0  0  0  0  0  0  0  0  0  0
   -6.4867    1.6303   -1.5064 H   0  0  0  0  0  0  0  0  0  0  0  0
   -6.4098    0.2989   -0.3734 H   0  0  0  0  0  0  0  0  0  0  0  0
   -4.3754   -2.9331   -0.4673 H   0  0  0  0  0  0  0  0  0  0  0  0
   -5.6268   -1.7919    0.0124 H   0  0  0  0  0  0  0  0  0  0  0  0
   -5.6641   -2.5222   -1.6008 H   0  0  0  0  0  0  0  0  0  0  0  0
   -2.5503   -0.7479   -2.8800 H   0  0  0  0  0  0  0  0  0  0  0  0
   -2.6725   -2.3789   -2.2090 H   0  0  0  0  0  0  0  0  0  0  0  0
   -3.8631   -1.8279   -3.3782 H   0  0  0  0  0  0  0  0  0  0  0  0
   -3.6416    3.6159   -0.2913 H   0  0  0  0  0  0  0  0  0  0  0  0
   -3.6154    2.6388   -1.7551 H   0  0  0  0  0  0  0  0  0  0  0  0
   -5.0640    3.5673   -1.3348 H   0  0  0  0  0  0  0  0  0  0  0  0
   -5.0637    3.0198    1.6755 H   0  0  0  0  0  0  0  0  0  0  0  0
   -6.5238    2.8314    0.7149 H   0  0  0  0  0  0  0  0  0  0  0  0
   -5.9557    1.4944    1.7287 H   0  0  0  0  0  0  0  0  0  0  0  0
   -1.9989   -2.0683   -0.1553 H   0  0  0  0  0  0  0  0  0  0  0  0
   -2.9722    2.3465    1.8327 H   0  0  0  0  0  0  0  0  0  0  0  0
   -1.0972    1.0421    2.6533 H   0  0  0  0  0  0  0  0  0  0  0  0
   -0.1330   -1.1819    2.8712 H   0  0  0  0  0  0  0  0  0  0  0  0
   -1.4495   -2.9625    2.1461 H   0  0  0  0  0  0  0  0  0  0  0  0
    1.6231    0.3767    2.4608 H   0  0  0  0  0  0  0  0  0  0  0  0
    0.6302   -2.6298   -0.4475 H   0  0  0  0  0  0  0  0  0  0  0  0
    2.7300   -2.2149   -1.6261 H   0  0  0  0  0  0  0  0  0  0  0  0
    3.7662    1.6221    2.2580 H   0  0  0  0  0  0  0  0  0  0  0  0
    4.8647   -0.9765   -1.8283 H   0  0  0  0  0  0  0  0  0  0  0  0
    5.8471    2.0472    1.0959 H   0  0  0  0  0  0  0  0  0  0  0  0
    8.3314    1.9510   -1.0433 H   0  0  0  0  0  0  0  0  0  0  0  0
  1 18  1  0  0  0  0
  1 50  1  0  0  0  0
  2 29  1  0  0  0  0
  2 57  1  0  0  0  0
  3 29  2  0  0  0  0
  4  6  1  0  0  0  0
  4  8  1  0  0  0  0
  4 10  1  0  0  0  0
  4 11  1  0  0  0  0
  5  7  1  0  0  0  0
  5  9  1  0  0  0  0
  5 12  1  0  0  0  0
  5 13  1  0  0  0  0
  6  7  1  0  0  0  0
  6 30  1  0  0  0  0
  6 31  1  0  0  0  0
  7 32  1  0  0  0  0
  7 33  1  0  0  0  0
  8  9  2  0  0  0  0
  8 14  1  0  0  0  0
  9 15  1  0  0  0  0
 10 34  1  0  0  0  0
 10 35  1  0  0  0  0
 10 36  1  0  0  0  0
 11 37  1  0  0  0  0
 11 38  1  0  0  0  0
 11 39  1  0  0  0  0
 12 40  1  0  0  0  0
 12 41  1  0  0  0  0
 12 42  1  0  0  0  0
 13 43  1  0  0  0  0
 13 44  1  0  0  0  0
 13 45  1  0  0  0  0
 14 16  2  0  0  0  0
 14 46  1  0  0  0  0
 15 17  2  0  0  0  0
 15 47  1  0  0  0  0
 16 17  1  0  0  0  0
 16 18  1  0  0  0  0
 17 48  1  0  0  0  0
 18 19  1  0  0  0  0
 18 49  1  0  0  0  0
 19 20  2  0  0  0  0
 19 21  1  0  0  0  0
 20 22  1  0  0  0  0
 20 51  1  0  0  0  0
 21 24  2  0  0  0  0
 21 52  1  0  0  0  0
 22 23  2  0  0  0  0
 22 25  1  0  0  0  0
 23 24  1  0  0  0  0
 23 26  1  0  0  0  0
 24 53  1  0  0  0  0
 25 28  2  0  0  0  0
 25 54  1  0  0  0  0
 26 27  2  0  0  0  0
 26 55  1  0  0  0  0
 27 28  1  0  0  0  0
 27 29  1  0  0  0  0
 28 56  1  0  0  0  0
M  END
> <DATABASE_ID>
DB03466

> <DATABASE_NAME>
drugbank

> <ORIGINAL_SOURCE>
PUBCHEM

> <ORIGINAL_SOURCE_URL>
https://pubchem.ncbi.nlm.nih.gov/rest/pug/compound/inchikey/AYAJZQYENGWICE-QHCPKHFHSA-N/SDF?record_type=3d

> <SMILES>
CC1(C)CCC(C)(C)C2=C1C=CC(=C2)[C@@H](O)C1=CC2=C(C=C1)C=C(C=C2)C(O)=O

> <INCHI_IDENTIFIER>
InChI=1S/C26H28O3/c1-25(2)11-12-26(3,4)22-15-19(9-10-21(22)25)23(27)18-7-5-17-14-20(24(28)29)8-6-16(17)13-18/h5-10,13-15,23,27H,11-12H2,1-4H3,(H,28,29)/t23-/m0/s1

> <INCHI_KEY>
AYAJZQYENGWICE-QHCPKHFHSA-N

> <FORMULA>
C26H28O3

> <MOLECULAR_WEIGHT>
388.4987

> <EXACT_MASS>
388.203844762

> <JCHEM_ACCEPTOR_COUNT>
3

> <JCHEM_AVERAGE_POLARIZABILITY>
44.41887618485013

> <JCHEM_BIOAVAILABILITY>
1

> <JCHEM_DONOR_COUNT>
2

> <JCHEM_FORMAL_CHARGE>
0

> <JCHEM_GHOSE_FILTER>
0

> <JCHEM_IUPAC>
6-[(S)-hydroxy(5,5,8,8-tetramethyl-5,6,7,8-tetrahydronaphthalen-2-yl)methyl]naphthalene-2-carboxylic acid

> <ALOGPS_LOGP>
6.25

> <JCHEM_LOGP>
6.263582539333333

> <ALOGPS_LOGS>
-6.42

> <JCHEM_MDDR_LIKE_RULE>
0

> <JCHEM_NUMBER_OF_RINGS>
4

> <JCHEM_PHYSIOLOGICAL_CHARGE>
-1

> <JCHEM_PKA>
13.73647413718643

> <JCHEM_PKA_STRONGEST_ACIDIC>
3.989294210186149

> <JCHEM_PKA_STRONGEST_BASIC>
-3.3558973866573965

> <JCHEM_POLAR_SURFACE_AREA>
57.53

> <JCHEM_REFRACTIVITY>
116.39269999999998

> <JCHEM_ROTATABLE_BOND_COUNT>
3

> <JCHEM_RULE_OF_FIVE>
0

> <ALOGPS_SOLUBILITY>
1.49e-04 g/l

> <JCHEM_TRADITIONAL_IUPAC>
6-[(S)-hydroxy(5,5,8,8-tetramethyl-6,7-dihydronaphthalen-2-yl)methyl]naphthalene-2-carboxylic acid

> <JCHEM_VEBER_RULE>
0

> <DRUGBANK_ID>
DB03466

> <SECONDARY_ACCESSION_NUMBERS>
EXPT00057

> <DRUG_GROUPS>
experimental

> <GENERIC_NAME>
BMS184394

$$$$