7682
  -OEChem-02252017573D

 18 18  0     0  0  0  0  0  0999 V2000
   -1.6163   -0.0017    1.6576 S   0  0  0  0  0  0  0  0  0  0  0  0
   -1.2380    0.0003   -0.9279 N   0  0  0  0  0  0  0  0  0  0  0  0
   -3.5349    0.0004   -0.1653 N   0  0  0  0  0  0  0  0  0  0  0  0
    0.0963    0.0002   -0.5093 C   0  0  0  0  0  0  0  0  0  0  0  0
    0.7616   -1.2078   -0.3005 C   0  0  0  0  0  0  0  0  0  0  0  0
    0.7613    1.2082   -0.2991 C   0  0  0  0  0  0  0  0  0  0  0  0
    2.0921   -1.2079    0.1184 C   0  0  0  0  0  0  0  0  0  0  0  0
    2.0917    1.2080    0.1197 C   0  0  0  0  0  0  0  0  0  0  0  0
    2.7572    0.0000    0.3284 C   0  0  0  0  0  0  0  0  0  0  0  0
   -2.1711    0.0003   -0.0220 C   0  0  0  0  0  0  0  0  0  0  0  0
    0.2537   -2.1549   -0.4640 H   0  0  0  0  0  0  0  0  0  0  0  0
    0.2531    2.1553   -0.4615 H   0  0  0  0  0  0  0  0  0  0  0  0
    2.6104   -2.1484    0.2804 H   0  0  0  0  0  0  0  0  0  0  0  0
    2.6098    2.1485    0.2828 H   0  0  0  0  0  0  0  0  0  0  0  0
    3.7933    0.0000    0.6544 H   0  0  0  0  0  0  0  0  0  0  0  0
   -3.9640    0.0003   -1.0844 H   0  0  0  0  0  0  0  0  0  0  0  0
   -4.1559   -0.0008    0.6361 H   0  0  0  0  0  0  0  0  0  0  0  0
   -2.8236   -0.0014    2.2399 H   0  0  0  0  0  0  0  0  0  0  0  0
  1 10  1  0  0  0  0
  1 18  1  0  0  0  0
  2  4  1  0  0  0  0
  2 10  2  0  0  0  0
  3 10  1  0  0  0  0
  3 16  1  0  0  0  0
  3 17  1  0  0  0  0
  4  5  2  0  0  0  0
  4  6  1  0  0  0  0
  5  7  1  0  0  0  0
  5 11  1  0  0  0  0
  6  8  2  0  0  0  0
  6 12  1  0  0  0  0
  7  9  2  0  0  0  0
  7 13  1  0  0  0  0
  8  9  1  0  0  0  0
  8 14  1  0  0  0  0
  9 15  1  0  0  0  0
M  END
> <DATABASE_ID>
DB03694

> <DATABASE_NAME>
drugbank

> <ORIGINAL_SOURCE>
PUBCHEM

> <ORIGINAL_SOURCE_URL>
https://pubchem.ncbi.nlm.nih.gov/rest/pug/compound/inchikey/FULZLIGZKMKICU-UHFFFAOYSA-N/SDF?record_type=3d

> <SMILES>
NC(=S)NC1=CC=CC=C1

> <INCHI_IDENTIFIER>
InChI=1S/C7H8N2S/c8-7(10)9-6-4-2-1-3-5-6/h1-5H,(H3,8,9,10)

> <INCHI_KEY>
FULZLIGZKMKICU-UHFFFAOYSA-N

> <FORMULA>
C7H8N2S

> <MOLECULAR_WEIGHT>
152.217

> <EXACT_MASS>
152.040818956

> <JCHEM_ACCEPTOR_COUNT>
0

> <JCHEM_ATOM_COUNT>
18

> <JCHEM_AVERAGE_NEUTRAL_MICROSPECIES_CHARGE>
-1.2727947050129583e-07

> <JCHEM_AVERAGE_POLARIZABILITY>
16.031770525437317

> <JCHEM_BIOAVAILABILITY>
1

> <JCHEM_DONOR_COUNT>
2

> <JCHEM_FORMAL_CHARGE>
0

> <JCHEM_GHOSE_FILTER>
0

> <JCHEM_IUPAC>
phenylthiourea

> <ALOGPS_LOGP>
0.57

> <JCHEM_LOGP>
1.7672802339999998

> <ALOGPS_LOGS>
-2.23

> <JCHEM_MDDR_LIKE_RULE>
0

> <JCHEM_NEUTRAL_CHARGE>
0

> <JCHEM_NUMBER_OF_RINGS>
1

> <JCHEM_PHYSIOLOGICAL_CHARGE>
0

> <JCHEM_PKA>
18.24708013412829

> <JCHEM_PKA_STRONGEST_ACIDIC>
13.895260902506019

> <JCHEM_POLAR_SURFACE_AREA>
38.05

> <JCHEM_REFRACTIVITY>
47.5886

> <JCHEM_ROTATABLE_BOND_COUNT>
1

> <JCHEM_RULE_OF_FIVE>
1

> <ALOGPS_SOLUBILITY>
9.04e-01 g/l

> <JCHEM_TRADITIONAL_IUPAC>
mesoxalic acid

> <JCHEM_VEBER_RULE>
1

> <DRUGBANK_ID>
DB03694

> <SECONDARY_ACCESSION_NUMBERS>
EXPT03208

> <DRUG_GROUPS>
experimental

> <GENERIC_NAME>
N-phenylthiourea

> <SYNONYMS>
1-phenyl-2-thiourea; monophenyl thiourea; phenyl-2-thiourea; phenylthiocarbamide; phenylthiourea; Î±-phenylthiourea

$$$$