5353370
  -OEChem-02252018163D

 55 54  0     0  0  0  0  0  0999 V2000
    5.8034   -2.0307    0.6001 O   0  0  0  0  0  0  0  0  0  0  0  0
    6.2644    0.0222   -0.3245 N   0  0  0  0  0  0  0  0  0  0  0  0
   -2.3254    2.7794   -0.0584 C   0  0  0  0  0  0  0  0  0  0  0  0
   -2.9694    1.4578    0.3757 C   0  0  0  0  0  0  0  0  0  0  0  0
   -0.8247   -2.4375   -0.3026 C   0  0  0  0  0  0  0  0  0  0  0  0
    0.6233   -2.6512    0.1493 C   0  0  0  0  0  0  0  0  0  0  0  0
   -0.8369    2.8738    0.2871 C   0  0  0  0  0  0  0  0  0  0  0  0
   -4.4394    1.3306   -0.0380 C   0  0  0  0  0  0  0  0  0  0  0  0
   -1.7460   -3.6151    0.0337 C   0  0  0  0  0  0  0  0  0  0  0  0
    1.5583   -1.5074   -0.2515 C   0  0  0  0  0  0  0  0  0  0  0  0
   -0.1790    4.1642   -0.2131 C   0  0  0  0  0  0  0  0  0  0  0  0
   -5.0511   -0.0249    0.3350 C   0  0  0  0  0  0  0  0  0  0  0  0
   -3.1947   -3.3858   -0.4113 C   0  0  0  0  0  0  0  0  0  0  0  0
    3.0044   -1.8050    0.1598 C   0  0  0  0  0  0  0  0  0  0  0  0
    1.2894    4.2977    0.1928 C   0  0  0  0  0  0  0  0  0  0  0  0
   -4.3905   -1.1808   -0.3595 C   0  0  0  0  0  0  0  0  0  0  0  0
   -3.8445   -2.2238    0.2833 C   0  0  0  0  0  0  0  0  0  0  0  0
    3.9680   -0.6967   -0.2619 C   0  0  0  0  0  0  0  0  0  0  0  0
    1.8715    5.6273   -0.2631 C   0  0  0  0  0  0  0  0  0  0  0  0
    5.4191   -0.9940    0.0670 C   0  0  0  0  0  0  0  0  0  0  0  0
   -2.8611    3.6133    0.4114 H   0  0  0  0  0  0  0  0  0  0  0  0
   -2.4470    2.8956   -1.1425 H   0  0  0  0  0  0  0  0  0  0  0  0
   -2.8878    1.3553    1.4647 H   0  0  0  0  0  0  0  0  0  0  0  0
   -2.3892    0.6390   -0.0643 H   0  0  0  0  0  0  0  0  0  0  0  0
   -1.1975   -1.5221    0.1703 H   0  0  0  0  0  0  0  0  0  0  0  0
   -0.8436   -2.2665   -1.3860 H   0  0  0  0  0  0  0  0  0  0  0  0
    0.6465   -2.7759    1.2389 H   0  0  0  0  0  0  0  0  0  0  0  0
    0.9947   -3.5879   -0.2848 H   0  0  0  0  0  0  0  0  0  0  0  0
   -0.7185    2.8045    1.3754 H   0  0  0  0  0  0  0  0  0  0  0  0
   -0.3083    2.0146   -0.1440 H   0  0  0  0  0  0  0  0  0  0  0  0
   -4.5293    1.4865   -1.1205 H   0  0  0  0  0  0  0  0  0  0  0  0
   -5.0198    2.1260    0.4450 H   0  0  0  0  0  0  0  0  0  0  0  0
   -1.7176   -3.8038    1.1143 H   0  0  0  0  0  0  0  0  0  0  0  0
   -1.3673   -4.5208   -0.4555 H   0  0  0  0  0  0  0  0  0  0  0  0
    1.5101   -1.3589   -1.3368 H   0  0  0  0  0  0  0  0  0  0  0  0
    1.2232   -0.5751    0.2187 H   0  0  0  0  0  0  0  0  0  0  0  0
   -0.2597    4.2092   -1.3063 H   0  0  0  0  0  0  0  0  0  0  0  0
   -0.7393    5.0217    0.1804 H   0  0  0  0  0  0  0  0  0  0  0  0
   -6.1111   -0.0196    0.0537 H   0  0  0  0  0  0  0  0  0  0  0  0
   -5.0163   -0.1504    1.4241 H   0  0  0  0  0  0  0  0  0  0  0  0
   -3.7773   -4.2869   -0.1850 H   0  0  0  0  0  0  0  0  0  0  0  0
   -3.2243   -3.2582   -1.5003 H   0  0  0  0  0  0  0  0  0  0  0  0
    3.3233   -2.7535   -0.2905 H   0  0  0  0  0  0  0  0  0  0  0  0
    3.0586   -1.9418    1.2470 H   0  0  0  0  0  0  0  0  0  0  0  0
    1.3821    4.2201    1.2823 H   0  0  0  0  0  0  0  0  0  0  0  0
    1.8702    3.4763   -0.2422 H   0  0  0  0  0  0  0  0  0  0  0  0
   -4.3752   -1.1555   -1.4463 H   0  0  0  0  0  0  0  0  0  0  0  0
   -3.8729   -2.2561    1.3696 H   0  0  0  0  0  0  0  0  0  0  0  0
    3.8956   -0.5364   -1.3446 H   0  0  0  0  0  0  0  0  0  0  0  0
    3.6905    0.2420    0.2325 H   0  0  0  0  0  0  0  0  0  0  0  0
    1.8181    5.7258   -1.3520 H   0  0  0  0  0  0  0  0  0  0  0  0
    1.3312    6.4671    0.1855 H   0  0  0  0  0  0  0  0  0  0  0  0
    2.9223    5.7021    0.0339 H   0  0  0  0  0  0  0  0  0  0  0  0
    7.2655   -0.0444   -0.1735 H   0  0  0  0  0  0  0  0  0  0  0  0
    5.9252    0.8686   -0.7706 H   0  0  0  0  0  0  0  0  0  0  0  0
  1 20  2  0  0  0  0
  2 20  1  0  0  0  0
  2 54  1  0  0  0  0
  2 55  1  0  0  0  0
  3  4  1  0  0  0  0
  3  7  1  0  0  0  0
  3 21  1  0  0  0  0
  3 22  1  0  0  0  0
  4  8  1  0  0  0  0
  4 23  1  0  0  0  0
  4 24  1  0  0  0  0
  5  6  1  0  0  0  0
  5  9  1  0  0  0  0
  5 25  1  0  0  0  0
  5 26  1  0  0  0  0
  6 10  1  0  0  0  0
  6 27  1  0  0  0  0
  6 28  1  0  0  0  0
  7 11  1  0  0  0  0
  7 29  1  0  0  0  0
  7 30  1  0  0  0  0
  8 12  1  0  0  0  0
  8 31  1  0  0  0  0
  8 32  1  0  0  0  0
  9 13  1  0  0  0  0
  9 33  1  0  0  0  0
  9 34  1  0  0  0  0
 10 14  1  0  0  0  0
 10 35  1  0  0  0  0
 10 36  1  0  0  0  0
 11 15  1  0  0  0  0
 11 37  1  0  0  0  0
 11 38  1  0  0  0  0
 12 16  1  0  0  0  0
 12 39  1  0  0  0  0
 12 40  1  0  0  0  0
 13 17  1  0  0  0  0
 13 41  1  0  0  0  0
 13 42  1  0  0  0  0
 14 18  1  0  0  0  0
 14 43  1  0  0  0  0
 14 44  1  0  0  0  0
 15 19  1  0  0  0  0
 15 45  1  0  0  0  0
 15 46  1  0  0  0  0
 16 17  2  0  0  0  0
 16 47  1  0  0  0  0
 17 48  1  0  0  0  0
 18 20  1  0  0  0  0
 18 49  1  0  0  0  0
 18 50  1  0  0  0  0
 19 51  1  0  0  0  0
 19 52  1  0  0  0  0
 19 53  1  0  0  0  0
M  END
> <DATABASE_ID>
DB03784

> <DATABASE_NAME>
drugbank

> <ORIGINAL_SOURCE>
PUBCHEM

> <ORIGINAL_SOURCE_URL>
https://pubchem.ncbi.nlm.nih.gov/rest/pug/compound/inchikey/FATBGEAMYMYZAF-MDZDMXLPSA-N/SDF?record_type=3d

> <SMILES>
CCCCCCCC\C=C\CCCCCCCC(N)=O

> <INCHI_IDENTIFIER>
InChI=1S/C18H35NO/c1-2-3-4-5-6-7-8-9-10-11-12-13-14-15-16-17-18(19)20/h9-10H,2-8,11-17H2,1H3,(H2,19,20)/b10-9+

> <INCHI_KEY>
FATBGEAMYMYZAF-MDZDMXLPSA-N

> <FORMULA>
C18H35NO

> <MOLECULAR_WEIGHT>
281.4766

> <EXACT_MASS>
281.271864747

> <JCHEM_ACCEPTOR_COUNT>
1

> <JCHEM_ATOM_COUNT>
55

> <JCHEM_AVERAGE_NEUTRAL_MICROSPECIES_CHARGE>
4.033792635343598e-09

> <JCHEM_AVERAGE_POLARIZABILITY>
38.00328787453058

> <JCHEM_BIOAVAILABILITY>
0

> <JCHEM_DONOR_COUNT>
1

> <JCHEM_FORMAL_CHARGE>
0

> <JCHEM_GHOSE_FILTER>
0

> <JCHEM_IUPAC>
(9E)-octadec-9-enamide

> <ALOGPS_LOGP>
7.19

> <JCHEM_LOGP>
5.976855837333334

> <ALOGPS_LOGS>
-6.59

> <JCHEM_MDDR_LIKE_RULE>
0

> <JCHEM_NEUTRAL_CHARGE>
0

> <JCHEM_NUMBER_OF_RINGS>
0

> <JCHEM_PHYSIOLOGICAL_CHARGE>
0

> <JCHEM_PKA_STRONGEST_ACIDIC>
16.92046613371745

> <JCHEM_PKA_STRONGEST_BASIC>
-1.381544995248822

> <JCHEM_POLAR_SURFACE_AREA>
43.09

> <JCHEM_REFRACTIVITY>
89.22439999999999

> <JCHEM_ROTATABLE_BOND_COUNT>
15

> <JCHEM_RULE_OF_FIVE>
0

> <ALOGPS_SOLUBILITY>
7.31e-05 g/l

> <JCHEM_TRADITIONAL_IUPAC>
mesoxalic acid

> <JCHEM_VEBER_RULE>
0

> <DRUGBANK_ID>
DB03784

> <SECONDARY_ACCESSION_NUMBERS>
EXPT01336

> <DRUG_GROUPS>
experimental

> <GENERIC_NAME>
Elaidamide

$$$$