656750
  -OEChem-10051720073D

 49 49  0     1  0  0  0  0  0999 V2000
   -4.8465   -1.4152   -1.0279 O   0  0  0  0  0  0  0  0  0  0  0  0
    9.2155    1.2257   -0.5864 O   0  0  0  0  0  0  0  0  0  0  0  0
    8.3949   -0.6569    0.3871 O   0  0  0  0  0  0  0  0  0  0  0  0
   -1.8333   -1.0569    0.8517 C   0  0  2  0  0  0  0  0  0  0  0  0
   -3.2808   -0.5687    0.6325 C   0  0  1  0  0  0  0  0  0  0  0  0
   -0.7305   -0.1277    0.3685 C   0  0  0  0  0  0  0  0  0  0  0  0
    0.6790   -0.6918    0.5681 C   0  0  0  0  0  0  0  0  0  0  0  0
   -1.7856   -2.3594    0.1014 C   0  0  0  0  0  0  0  0  0  0  0  0
   -3.4708    0.8841    0.2313 C   0  0  0  0  0  0  0  0  0  0  0  0
   -3.7857   -1.5176   -0.4300 C   0  0  0  0  0  0  0  0  0  0  0  0
    1.7833    0.2635    0.1076 C   0  0  0  0  0  0  0  0  0  0  0  0
   -2.8570   -2.6343   -0.6431 C   0  0  0  0  0  0  0  0  0  0  0  0
    3.1966   -0.2974    0.3060 C   0  0  0  0  0  0  0  0  0  0  0  0
    4.2998    0.6478   -0.1772 C   0  0  0  0  0  0  0  0  0  0  0  0
   -4.8611    1.3601    0.5355 C   0  0  0  0  0  0  0  0  0  0  0  0
    5.7142    0.0885    0.0238 C   0  0  0  0  0  0  0  0  0  0  0  0
   -5.6984    1.8571   -0.3868 C   0  0  0  0  0  0  0  0  0  0  0  0
    6.8460    1.0114   -0.4190 C   0  0  0  0  0  0  0  0  0  0  0  0
   -7.0843    2.3424   -0.0798 C   0  0  0  0  0  0  0  0  0  0  0  0
    8.2096    0.4234   -0.1578 C   0  0  0  0  0  0  0  0  0  0  0  0
   -8.1048    1.2220   -0.2054 C   0  0  0  0  0  0  0  0  0  0  0  0
   -1.6866   -1.2559    1.9212 H   0  0  0  0  0  0  0  0  0  0  0  0
   -3.8509   -0.7942    1.5456 H   0  0  0  0  0  0  0  0  0  0  0  0
   -0.7832    0.8197    0.9173 H   0  0  0  0  0  0  0  0  0  0  0  0
   -0.8679    0.1117   -0.6941 H   0  0  0  0  0  0  0  0  0  0  0  0
    0.7982   -1.6282    0.0126 H   0  0  0  0  0  0  0  0  0  0  0  0
    0.8278   -0.9283    1.6289 H   0  0  0  0  0  0  0  0  0  0  0  0
   -0.9463   -3.0400    0.1619 H   0  0  0  0  0  0  0  0  0  0  0  0
   -2.8074    1.5310    0.8153 H   0  0  0  0  0  0  0  0  0  0  0  0
   -3.2259    1.0364   -0.8271 H   0  0  0  0  0  0  0  0  0  0  0  0
    1.6363    0.4970   -0.9541 H   0  0  0  0  0  0  0  0  0  0  0  0
    1.6936    1.2097    0.6553 H   0  0  0  0  0  0  0  0  0  0  0  0
   -3.0372   -3.4941   -1.2634 H   0  0  0  0  0  0  0  0  0  0  0  0
    3.2827   -1.2513   -0.2286 H   0  0  0  0  0  0  0  0  0  0  0  0
    3.3492   -0.5160    1.3700 H   0  0  0  0  0  0  0  0  0  0  0  0
    4.2144    1.6024    0.3561 H   0  0  0  0  0  0  0  0  0  0  0  0
    4.1499    0.8650   -1.2418 H   0  0  0  0  0  0  0  0  0  0  0  0
   -5.1833    1.3135    1.5732 H   0  0  0  0  0  0  0  0  0  0  0  0
    5.8457   -0.1529    1.0868 H   0  0  0  0  0  0  0  0  0  0  0  0
    5.7975   -0.8644   -0.5150 H   0  0  0  0  0  0  0  0  0  0  0  0
    6.7783    1.9618    0.1217 H   0  0  0  0  0  0  0  0  0  0  0  0
    6.7582    1.2081   -1.4931 H   0  0  0  0  0  0  0  0  0  0  0  0
   -5.3838    1.9043   -1.4262 H   0  0  0  0  0  0  0  0  0  0  0  0
   -7.1263    2.7600    0.9333 H   0  0  0  0  0  0  0  0  0  0  0  0
   -7.3373    3.1591   -0.7652 H   0  0  0  0  0  0  0  0  0  0  0  0
   -8.1078    0.8008   -1.2166 H   0  0  0  0  0  0  0  0  0  0  0  0
   -7.8954    0.4114    0.5009 H   0  0  0  0  0  0  0  0  0  0  0  0
   -9.1097    1.6016    0.0054 H   0  0  0  0  0  0  0  0  0  0  0  0
   10.0973    0.8344   -0.4083 H   0  0  0  0  0  0  0  0  0  0  0  0
  1 10  2  0  0  0  0
  2 20  1  0  0  0  0
  2 49  1  0  0  0  0
  3 20  2  0  0  0  0
  4  5  1  0  0  0  0
  4  6  1  0  0  0  0
  4  8  1  0  0  0  0
  4 22  1  0  0  0  0
  5  9  1  0  0  0  0
  5 10  1  0  0  0  0
  5 23  1  0  0  0  0
  6  7  1  0  0  0  0
  6 24  1  0  0  0  0
  6 25  1  0  0  0  0
  7 11  1  0  0  0  0
  7 26  1  0  0  0  0
  7 27  1  0  0  0  0
  8 12  2  0  0  0  0
  8 28  1  0  0  0  0
  9 15  1  0  0  0  0
  9 29  1  0  0  0  0
  9 30  1  0  0  0  0
 10 12  1  0  0  0  0
 11 13  1  0  0  0  0
 11 31  1  0  0  0  0
 11 32  1  0  0  0  0
 12 33  1  0  0  0  0
 13 14  1  0  0  0  0
 13 34  1  0  0  0  0
 13 35  1  0  0  0  0
 14 16  1  0  0  0  0
 14 36  1  0  0  0  0
 14 37  1  0  0  0  0
 15 17  2  0  0  0  0
 15 38  1  0  0  0  0
 16 18  1  0  0  0  0
 16 39  1  0  0  0  0
 16 40  1  0  0  0  0
 17 19  1  0  0  0  0
 17 43  1  0  0  0  0
 18 20  1  0  0  0  0
 18 41  1  0  0  0  0
 18 42  1  0  0  0  0
 19 21  1  0  0  0  0
 19 44  1  0  0  0  0
 19 45  1  0  0  0  0
 21 46  1  0  0  0  0
 21 47  1  0  0  0  0
 21 48  1  0  0  0  0
M  END
> <DATABASE_ID>
DB03007

> <DATABASE_NAME>
drugbank

> <ORIGINAL_SOURCE>
PUBCHEM

> <ORIGINAL_SOURCE_URL>
https://pubchem.ncbi.nlm.nih.gov/rest/pug/compound/inchikey/PMTMAFAPLCGXGK-HZPDHXFCSA-N/SDF?record_type=3d

> <SMILES>
[H][C@@]1(CCCCCCCC(O)=O)C=CC(=O)[C@]1([H])CC=CCC

> <INCHI_IDENTIFIER>
InChI=1S/C18H28O3/c1-2-3-7-11-16-15(13-14-17(16)19)10-8-5-4-6-9-12-18(20)21/h3,7,13-16H,2,4-6,8-12H2,1H3,(H,20,21)/t15-,16-/m1/s1

> <INCHI_KEY>
PMTMAFAPLCGXGK-HZPDHXFCSA-N

> <FORMULA>
C18H28O3

> <MOLECULAR_WEIGHT>
292.4131

> <EXACT_MASS>
292.203844762

> <JCHEM_ACCEPTOR_COUNT>
3

> <JCHEM_AVERAGE_POLARIZABILITY>
35.4995453809329

> <JCHEM_BIOAVAILABILITY>
0

> <JCHEM_DONOR_COUNT>
1

> <JCHEM_FORMAL_CHARGE>
0

> <JCHEM_GHOSE_FILTER>
1

> <JCHEM_IUPAC>
8-[(1R,5R)-4-oxo-5-(pent-2-en-1-yl)cyclopent-2-en-1-yl]octanoic acid

> <ALOGPS_LOGP>
5.09

> <JCHEM_LOGP>
5.079546357333333

> <ALOGPS_LOGS>
-4.96

> <JCHEM_MDDR_LIKE_RULE>
0

> <JCHEM_NUMBER_OF_RINGS>
1

> <JCHEM_PHYSIOLOGICAL_CHARGE>
-1

> <JCHEM_PKA>
18.017647713652938

> <JCHEM_PKA_STRONGEST_ACIDIC>
4.784583565856928

> <JCHEM_PKA_STRONGEST_BASIC>
-4.934463579077429

> <JCHEM_POLAR_SURFACE_AREA>
54.370000000000005

> <JCHEM_REFRACTIVITY>
87.25579999999997

> <JCHEM_ROTATABLE_BOND_COUNT>
11

> <JCHEM_RULE_OF_FIVE>
0

> <ALOGPS_SOLUBILITY>
3.22e-03 g/l

> <JCHEM_TRADITIONAL_IUPAC>
8-[(1R,5R)-4-oxo-5-(pent-2-en-1-yl)cyclopent-2-en-1-yl]octanoic acid

> <JCHEM_VEBER_RULE>
0

> <DRUGBANK_ID>
DB03007

> <SECONDARY_ACCESSION_NUMBERS>
EXPT02441

> <DRUG_GROUPS>
experimental

> <GENERIC_NAME>
9r,13r-Opda

$$$$