447657
  -OEChem-12211921543D

 65 69  0     1  0  0  0  0  0999 V2000
   -2.8409    0.3469    2.5872 P   0  0  2  0  0  0  0  0  0  0  0  0
   -0.4094   -1.5628    0.0161 O   0  0  0  0  0  0  0  0  0  0  0  0
   -1.2308    3.1113   -1.2351 O   0  0  0  0  0  0  0  0  0  0  0  0
   -2.9967    1.1312    1.1773 O   0  0  0  0  0  0  0  0  0  0  0  0
   -2.0186   -1.0002    2.2238 O   0  0  0  0  0  0  0  0  0  0  0  0
   -1.1357   -4.6573    1.6911 O   0  0  0  0  0  0  0  0  0  0  0  0
    0.8144   -4.5200   -0.2090 O   0  0  0  0  0  0  0  0  0  0  0  0
   -2.5452    3.8142    1.3664 O   0  0  0  0  0  0  0  0  0  0  0  0
    1.4923    3.7759   -1.1288 O   0  0  0  0  0  0  0  0  0  0  0  0
   -4.3301   -0.2062    2.8981 O   0  0  0  0  0  0  0  0  0  0  0  0
   -2.2453    1.1616    3.6994 O   0  0  0  0  0  0  0  0  0  0  0  0
   -4.0993    0.2432   -1.8346 O   0  0  0  0  0  0  0  0  0  0  0  0
    5.0857    1.7152    1.8924 O   0  0  0  0  0  0  0  0  0  0  0  0
    1.8162   -1.1912    0.7534 N   0  0  0  0  0  0  0  0  0  0  0  0
   -1.9029    0.9513   -1.8243 N   0  0  0  0  0  0  0  0  0  0  0  0
    3.4268   -0.6264   -0.9794 N   0  0  0  0  0  0  0  0  0  0  0  0
    2.6817    0.0812    2.3871 N   0  0  0  0  0  0  0  0  0  0  0  0
   -2.6520   -0.9412   -3.1206 N   0  0  0  0  0  0  0  0  0  0  0  0
    5.1257    0.9222   -0.2850 N   0  0  0  0  0  0  0  0  0  0  0  0
    5.0594    0.0447   -2.4716 N   0  0  0  0  0  0  0  0  0  0  0  0
   -1.1636   -2.1518   -4.4349 N   0  0  0  0  0  0  0  0  0  0  0  0
   -1.8576    1.6572    0.5278 C   0  0  2  0  0  0  0  0  0  0  0  0
   -1.3392   -2.5349    0.5214 C   0  0  1  0  0  0  0  0  0  0  0  0
   -0.5326   -3.3997    1.4746 C   0  0  2  0  0  0  0  0  0  0  0  0
    0.8102   -3.4859    0.7738 C   0  0  2  0  0  0  0  0  0  0  0  0
    0.9176   -2.1283    0.0771 C   0  0  1  0  0  0  0  0  0  0  0  0
   -1.4150    2.9772    1.1228 C   0  0  1  0  0  0  0  0  0  0  0  0
   -2.1325    2.0389   -0.9165 C   0  0  1  0  0  0  0  0  0  0  0  0
   -0.6150    3.5895   -0.0190 C   0  0  1  0  0  0  0  0  0  0  0  0
   -2.5089   -1.8309    1.1854 C   0  0  0  0  0  0  0  0  0  0  0  0
    0.8465    3.1620   -0.0273 C   0  0  0  0  0  0  0  0  0  0  0  0
    2.9014   -0.5615    0.2467 C   0  0  0  0  0  0  0  0  0  0  0  0
    1.7221   -0.7679    2.0603 C   0  0  0  0  0  0  0  0  0  0  0  0
   -0.6184    0.7433   -2.3029 C   0  0  0  0  0  0  0  0  0  0  0  0
    3.4212    0.2093    1.2451 C   0  0  0  0  0  0  0  0  0  0  0  0
   -2.9468    0.0875   -2.2423 C   0  0  0  0  0  0  0  0  0  0  0  0
   -0.3143   -0.2407   -3.1470 C   0  0  0  0  0  0  0  0  0  0  0  0
    4.6026    1.0153    1.0107 C   0  0  0  0  0  0  0  0  0  0  0  0
    4.5624    0.1512   -1.1972 C   0  0  0  0  0  0  0  0  0  0  0  0
   -1.4353   -1.1233   -3.5627 C   0  0  0  0  0  0  0  0  0  0  0  0
   -1.0354    0.9364    0.5924 H   0  0  0  0  0  0  0  0  0  0  0  0
   -1.7123   -3.1267   -0.3239 H   0  0  0  0  0  0  0  0  0  0  0  0
   -0.4088   -2.9087    2.4450 H   0  0  0  0  0  0  0  0  0  0  0  0
    1.6270   -3.7048    1.4689 H   0  0  0  0  0  0  0  0  0  0  0  0
    1.2685   -2.2345   -0.9543 H   0  0  0  0  0  0  0  0  0  0  0  0
   -0.8594    2.8753    2.0589 H   0  0  0  0  0  0  0  0  0  0  0  0
   -3.1580    2.4063   -1.0417 H   0  0  0  0  0  0  0  0  0  0  0  0
   -0.6838    4.6830   -0.0414 H   0  0  0  0  0  0  0  0  0  0  0  0
   -3.0430   -1.2318    0.4435 H   0  0  0  0  0  0  0  0  0  0  0  0
   -3.2090   -2.5542    1.6149 H   0  0  0  0  0  0  0  0  0  0  0  0
    0.9704    2.0800   -0.1097 H   0  0  0  0  0  0  0  0  0  0  0  0
    1.3431    3.4949    0.8900 H   0  0  0  0  0  0  0  0  0  0  0  0
   -0.5119   -5.1948    2.2083 H   0  0  0  0  0  0  0  0  0  0  0  0
    1.6826   -4.5005   -0.6469 H   0  0  0  0  0  0  0  0  0  0  0  0
   -2.2113    4.6606    1.7098 H   0  0  0  0  0  0  0  0  0  0  0  0
    0.9380   -1.0981    2.7260 H   0  0  0  0  0  0  0  0  0  0  0  0
    0.1716    1.4034   -1.9813 H   0  0  0  0  0  0  0  0  0  0  0  0
    3.0450   -1.1953   -1.7277 H   0  0  0  0  0  0  0  0  0  0  0  0
    2.4227    3.4936   -1.1089 H   0  0  0  0  0  0  0  0  0  0  0  0
   -4.5135   -0.6055    3.7750 H   0  0  0  0  0  0  0  0  0  0  0  0
    0.6862   -0.4102   -3.5220 H   0  0  0  0  0  0  0  0  0  0  0  0
    4.6176   -0.5501   -3.1640 H   0  0  0  0  0  0  0  0  0  0  0  0
    5.8842    0.5606   -2.7579 H   0  0  0  0  0  0  0  0  0  0  0  0
   -0.2298   -2.3194   -4.7946 H   0  0  0  0  0  0  0  0  0  0  0  0
   -1.8980   -2.7791   -4.7449 H   0  0  0  0  0  0  0  0  0  0  0  0
  1  4  1  0  0  0  0
  1  5  1  0  0  0  0
  1 10  1  0  0  0  0
  1 11  2  0  0  0  0
  2 23  1  0  0  0  0
  2 26  1  0  0  0  0
  3 28  1  0  0  0  0
  3 29  1  0  0  0  0
  4 22  1  0  0  0  0
  5 30  1  0  0  0  0
  6 24  1  0  0  0  0
  6 53  1  0  0  0  0
  7 25  1  0  0  0  0
  7 54  1  0  0  0  0
  8 27  1  0  0  0  0
  8 55  1  0  0  0  0
  9 31  1  0  0  0  0
  9 59  1  0  0  0  0
 10 60  1  0  0  0  0
 12 36  2  0  0  0  0
 13 38  2  0  0  0  0
 14 26  1  0  0  0  0
 14 32  1  0  0  0  0
 14 33  1  0  0  0  0
 15 28  1  0  0  0  0
 15 34  1  0  0  0  0
 15 36  1  0  0  0  0
 16 32  1  0  0  0  0
 16 39  1  0  0  0  0
 16 58  1  0  0  0  0
 17 33  2  0  0  0  0
 17 35  1  0  0  0  0
 18 36  1  0  0  0  0
 18 40  2  0  0  0  0
 19 38  1  0  0  0  0
 19 39  2  0  0  0  0
 20 39  1  0  0  0  0
 20 62  1  0  0  0  0
 20 63  1  0  0  0  0
 21 40  1  0  0  0  0
 21 64  1  0  0  0  0
 21 65  1  0  0  0  0
 22 27  1  0  0  0  0
 22 28  1  0  0  0  0
 22 41  1  0  0  0  0
 23 24  1  0  0  0  0
 23 30  1  0  0  0  0
 23 42  1  0  0  0  0
 24 25  1  0  0  0  0
 24 43  1  0  0  0  0
 25 26  1  0  0  0  0
 25 44  1  0  0  0  0
 26 45  1  0  0  0  0
 27 29  1  0  0  0  0
 27 46  1  0  0  0  0
 28 47  1  0  0  0  0
 29 31  1  0  0  0  0
 29 48  1  0  0  0  0
 30 49  1  0  0  0  0
 30 50  1  0  0  0  0
 31 51  1  0  0  0  0
 31 52  1  0  0  0  0
 32 35  2  0  0  0  0
 33 56  1  0  0  0  0
 34 37  2  0  0  0  0
 34 57  1  0  0  0  0
 35 38  1  0  0  0  0
 37 40  1  0  0  0  0
 37 61  1  0  0  0  0
M  END
> <DATABASE_ID>
DB03638

> <DATABASE_NAME>
drugbank

> <ORIGINAL_SOURCE>
PUBCHEM

> <ORIGINAL_SOURCE_URL>
https://pubchem.ncbi.nlm.nih.gov/rest/pug/compound/inchikey/QZDUXDLOEVJGDG-VMIOUTBZSA-N/SDF?record_type=3d

> <SMILES>
[H]N([H])C1=NC(=O)N(C=C1)[C@@H]1O[C@H](CO)[C@@H](O)[C@H]1OP(O)(=O)OC[C@H]1O[C@H]([C@H](O)[C@@H]1O)N1C=NC2=C1N([H])C(=NC2=O)N([H])[H]

> <INCHI_IDENTIFIER>
InChI=1S/C19H25N8O12P/c20-8-1-2-26(19(33)23-8)17-13(11(30)6(3-28)37-17)39-40(34,35)36-4-7-10(29)12(31)16(38-7)27-5-22-9-14(27)24-18(21)25-15(9)32/h1-2,5-7,10-13,16-17,28-31H,3-4H2,(H,34,35)(H2,20,23,33)(H3,21,24,25,32)/t6-,7-,10-,11-,12-,13-,16-,17-/m1/s1

> <INCHI_KEY>
QZDUXDLOEVJGDG-VMIOUTBZSA-N

> <FORMULA>
C19H25N8O12P

> <MOLECULAR_WEIGHT>
588.422

> <EXACT_MASS>
588.132954816

> <JCHEM_ACCEPTOR_COUNT>
16

> <JCHEM_ATOM_COUNT>
65

> <JCHEM_AVERAGE_NEUTRAL_MICROSPECIES_CHARGE>
-1.0930476030462637

> <JCHEM_AVERAGE_POLARIZABILITY>
51.68046535206128

> <JCHEM_BIOAVAILABILITY>
0

> <JCHEM_DONOR_COUNT>
8

> <JCHEM_FORMAL_CHARGE>
0

> <JCHEM_GHOSE_FILTER>
0

> <JCHEM_IUPAC>
{[(2R,3R,4R,5R)-2-(4-amino-2-oxo-1,2-dihydropyrimidin-1-yl)-4-hydroxy-5-(hydroxymethyl)oxolan-3-yl]oxy}({[(2R,3S,4R,5R)-5-(2-amino-6-oxo-6,9-dihydro-3H-purin-9-yl)-3,4-dihydroxyoxolan-2-yl]methoxy})phosphinic acid

> <ALOGPS_LOGP>
-1.84

> <JCHEM_LOGP>
-4.424749434185595

> <ALOGPS_LOGS>
-2.19

> <JCHEM_MDDR_LIKE_RULE>
1

> <JCHEM_NEUTRAL_CHARGE>
-1

> <JCHEM_NUMBER_OF_RINGS>
5

> <JCHEM_PHYSIOLOGICAL_CHARGE>
-1

> <JCHEM_PKA>
7.993982377562549

> <JCHEM_PKA_STRONGEST_ACIDIC>
1.7227281274314308

> <JCHEM_PKA_STRONGEST_BASIC>
4.149423009126603

> <JCHEM_POLAR_SURFACE_AREA>
299.13

> <JCHEM_REFRACTIVITY>
125.82639999999998

> <JCHEM_ROTATABLE_BOND_COUNT>
8

> <JCHEM_RULE_OF_FIVE>
0

> <ALOGPS_SOLUBILITY>
3.76e+00 g/l

> <JCHEM_TRADITIONAL_IUPAC>
(2R,5S,8S,11S,15S)-8-benzyl-2,7-dimethyl-5-[3-({[(methylcarbamoyl)amino]methanimidoyl}amino)propyl]-3,6,9,13,17-pentaoxo-1,4,7,10,14-pentaazacycloheptadecane-11,15-dicarboxylic acid

> <JCHEM_VEBER_RULE>
0

> <DRUGBANK_ID>
DB03638

> <SECONDARY_ACCESSION_NUMBERS>
EXPT00898

> <DRUG_GROUPS>
experimental

> <GENERIC_NAME>
Cytidyl-2'-5'-phospho-guanosine

$$$$