44308490
  -OEChem-10051720283D

 66 69  0     1  0  0  0  0  0999 V2000
   -1.5298   -1.9947    0.4950 O   0  0  0  0  0  0  0  0  0  0  0  0
   -6.2051   -0.5994   -1.2934 O   0  0  0  0  0  0  0  0  0  0  0  0
   -1.3342   -1.9798    2.7886 O   0  0  0  0  0  0  0  0  0  0  0  0
    2.7270   -0.6319   -1.3933 O   0  0  0  0  0  0  0  0  0  0  0  0
    3.5096   -0.4852    3.3390 O   0  0  0  0  0  0  0  0  0  0  0  0
   -6.1901    5.4505    0.5589 O   0  0  0  0  0  0  0  0  0  0  0  0
    5.4705   -0.8021    1.1350 O   0  0  0  0  0  0  0  0  0  0  0  0
    3.6641    2.4270    1.6425 O   0  0  0  0  0  0  0  0  0  0  0  0
    7.2445   -0.0059   -2.4190 O   0  0  0  0  0  0  0  0  0  0  0  0
    5.5245   -1.2505   -1.6069 O   0  0  0  0  0  0  0  0  0  0  0  0
   -2.3661   -3.1597   -2.2956 N   0  0  0  0  0  0  0  0  0  0  0  0
   -4.1190   -0.5025   -0.2871 N   0  0  0  0  0  0  0  0  0  0  0  0
   -3.7417   -1.8774   -0.5564 C   0  0  2  0  0  0  0  0  0  0  0  0
   -2.8849   -2.4178    0.5992 C   0  0  1  0  0  0  0  0  0  0  0  0
   -2.9704   -3.9426    0.7294 C   0  0  0  0  0  0  0  0  0  0  0  0
   -3.1062   -1.9499   -1.9523 C   0  0  0  0  0  0  0  0  0  0  0  0
   -2.4122   -4.7649   -0.4320 C   0  0  0  0  0  0  0  0  0  0  0  0
   -2.9510   -4.4028   -1.8150 C   0  0  0  0  0  0  0  0  0  0  0  0
   -5.3355    0.0200   -0.6863 C   0  0  0  0  0  0  0  0  0  0  0  0
   -0.8702   -1.8133    1.6712 C   0  0  0  0  0  0  0  0  0  0  0  0
   -5.5594    1.4515   -0.3580 C   0  0  0  0  0  0  0  0  0  0  0  0
    0.5268   -1.3740    1.4266 C   0  0  0  0  0  0  0  0  0  0  0  0
    1.3798   -1.1302    2.5031 C   0  0  0  0  0  0  0  0  0  0  0  0
    0.9862   -1.2050    0.1206 C   0  0  0  0  0  0  0  0  0  0  0  0
   -6.4178    2.2201   -1.1441 C   0  0  0  0  0  0  0  0  0  0  0  0
   -4.9126    2.0269    0.7358 C   0  0  0  0  0  0  0  0  0  0  0  0
    2.2985   -0.7921   -0.1093 C   0  0  0  0  0  0  0  0  0  0  0  0
    2.6922   -0.7173    2.2732 C   0  0  0  0  0  0  0  0  0  0  0  0
    3.1515   -0.5483    0.9670 C   0  0  0  0  0  0  0  0  0  0  0  0
   -6.6294    3.5641   -0.8365 C   0  0  0  0  0  0  0  0  0  0  0  0
   -5.1242    3.3708    1.0434 C   0  0  0  0  0  0  0  0  0  0  0  0
   -5.9827    4.1395    0.2573 C   0  0  0  0  0  0  0  0  0  0  0  0
    4.5239   -0.1168    0.7270 C   0  0  0  0  0  0  0  0  0  0  0  0
    4.8466    1.1424   -0.0052 C   0  0  0  0  0  0  0  0  0  0  0  0
    5.5943    1.1030   -1.1821 C   0  0  0  0  0  0  0  0  0  0  0  0
    4.3962    2.3645    0.4942 C   0  0  0  0  0  0  0  0  0  0  0  0
    5.8916    2.2855   -1.8595 C   0  0  0  0  0  0  0  0  0  0  0  0
    4.6934    3.5470   -0.1832 C   0  0  0  0  0  0  0  0  0  0  0  0
    5.4411    3.5075   -1.3601 C   0  0  0  0  0  0  0  0  0  0  0  0
    6.0803   -0.1564   -1.7316 C   0  0  0  0  0  0  0  0  0  0  0  0
   -4.6772   -2.4523   -0.5756 H   0  0  0  0  0  0  0  0  0  0  0  0
   -3.3229   -2.0088    1.5218 H   0  0  0  0  0  0  0  0  0  0  0  0
   -4.0199   -4.2255    0.8824 H   0  0  0  0  0  0  0  0  0  0  0  0
   -2.4358   -4.2559    1.6351 H   0  0  0  0  0  0  0  0  0  0  0  0
   -3.8937   -1.8078   -2.7038 H   0  0  0  0  0  0  0  0  0  0  0  0
   -2.4250   -1.1003   -2.0944 H   0  0  0  0  0  0  0  0  0  0  0  0
   -1.3160   -4.7018   -0.4275 H   0  0  0  0  0  0  0  0  0  0  0  0
   -2.6467   -5.8197   -0.2386 H   0  0  0  0  0  0  0  0  0  0  0  0
   -2.6404   -5.1925   -2.5092 H   0  0  0  0  0  0  0  0  0  0  0  0
   -4.0466   -4.3912   -1.8405 H   0  0  0  0  0  0  0  0  0  0  0  0
   -1.4043   -3.0776   -1.9673 H   0  0  0  0  0  0  0  0  0  0  0  0
   -3.4042    0.0988    0.1092 H   0  0  0  0  0  0  0  0  0  0  0  0
    1.0347   -1.2582    3.5262 H   0  0  0  0  0  0  0  0  0  0  0  0
    0.3444   -1.3871   -0.7374 H   0  0  0  0  0  0  0  0  0  0  0  0
   -6.9276    1.7915   -2.0029 H   0  0  0  0  0  0  0  0  0  0  0  0
   -4.2611    1.4567    1.3915 H   0  0  0  0  0  0  0  0  0  0  0  0
   -7.3000    4.1525   -1.4572 H   0  0  0  0  0  0  0  0  0  0  0  0
   -4.6233    3.8121    1.9008 H   0  0  0  0  0  0  0  0  0  0  0  0
    1.9995   -0.8440   -2.0027 H   0  0  0  0  0  0  0  0  0  0  0  0
    4.3856   -0.1924    3.0406 H   0  0  0  0  0  0  0  0  0  0  0  0
    6.4598    2.2884   -2.7860 H   0  0  0  0  0  0  0  0  0  0  0  0
    4.3485    4.5061    0.1937 H   0  0  0  0  0  0  0  0  0  0  0  0
   -6.8114    5.8279   -0.0874 H   0  0  0  0  0  0  0  0  0  0  0  0
    5.6696    4.4282   -1.8892 H   0  0  0  0  0  0  0  0  0  0  0  0
    3.4418    3.3554    1.8281 H   0  0  0  0  0  0  0  0  0  0  0  0
    7.5645   -0.8575   -2.7859 H   0  0  0  0  0  0  0  0  0  0  0  0
  1 14  1  0  0  0  0
  1 20  1  0  0  0  0
  2 19  2  0  0  0  0
  3 20  2  0  0  0  0
  4 27  1  0  0  0  0
  4 59  1  0  0  0  0
  5 28  1  0  0  0  0
  5 60  1  0  0  0  0
  6 32  1  0  0  0  0
  6 63  1  0  0  0  0
  7 33  2  0  0  0  0
  8 36  1  0  0  0  0
  8 65  1  0  0  0  0
  9 40  1  0  0  0  0
  9 66  1  0  0  0  0
 10 40  2  0  0  0  0
 11 16  1  0  0  0  0
 11 18  1  0  0  0  0
 11 51  1  0  0  0  0
 12 13  1  0  0  0  0
 12 19  1  0  0  0  0
 12 52  1  0  0  0  0
 13 14  1  0  0  0  0
 13 16  1  0  0  0  0
 13 41  1  0  0  0  0
 14 15  1  0  0  0  0
 14 42  1  0  0  0  0
 15 17  1  0  0  0  0
 15 43  1  0  0  0  0
 15 44  1  0  0  0  0
 16 45  1  0  0  0  0
 16 46  1  0  0  0  0
 17 18  1  0  0  0  0
 17 47  1  0  0  0  0
 17 48  1  0  0  0  0
 18 49  1  0  0  0  0
 18 50  1  0  0  0  0
 19 21  1  0  0  0  0
 20 22  1  0  0  0  0
 21 25  2  0  0  0  0
 21 26  1  0  0  0  0
 22 23  2  0  0  0  0
 22 24  1  0  0  0  0
 23 28  1  0  0  0  0
 23 53  1  0  0  0  0
 24 27  2  0  0  0  0
 24 54  1  0  0  0  0
 25 30  1  0  0  0  0
 25 55  1  0  0  0  0
 26 31  2  0  0  0  0
 26 56  1  0  0  0  0
 27 29  1  0  0  0  0
 28 29  2  0  0  0  0
 29 33  1  0  0  0  0
 30 32  2  0  0  0  0
 30 57  1  0  0  0  0
 31 32  1  0  0  0  0
 31 58  1  0  0  0  0
 33 34  1  0  0  0  0
 34 35  2  0  0  0  0
 34 36  1  0  0  0  0
 35 37  1  0  0  0  0
 35 40  1  0  0  0  0
 36 38  2  0  0  0  0
 37 39  2  0  0  0  0
 37 61  1  0  0  0  0
 38 39  1  0  0  0  0
 38 62  1  0  0  0  0
 39 64  1  0  0  0  0
M  END
> <DATABASE_ID>
DB04098

> <DATABASE_NAME>
drugbank

> <ORIGINAL_SOURCE>
PUBCHEM

> <ORIGINAL_SOURCE_URL>
https://pubchem.ncbi.nlm.nih.gov/rest/pug/compound/inchikey/XYUFCXJZFZPEJD-PGRDOPGGSA-N/SDF?record_type=3d

> <SMILES>
OC(=O)C1=CC=CC(O)=C1C(=O)C1=C(O)C=C(C=C1O)C(=O)O[C@@H]1CCCNC[C@@H]1NC(=O)C1=CC=C(O)C=C1

> <INCHI_IDENTIFIER>
InChI=1S/C28H26N2O10/c31-16-8-6-14(7-9-16)26(36)30-18-13-29-10-2-5-22(18)40-28(39)15-11-20(33)24(21(34)12-15)25(35)23-17(27(37)38)3-1-4-19(23)32/h1,3-4,6-9,11-12,18,22,29,31-34H,2,5,10,13H2,(H,30,36)(H,37,38)/t18-,22+/m0/s1

> <INCHI_KEY>
XYUFCXJZFZPEJD-PGRDOPGGSA-N

> <FORMULA>
C28H26N2O10

> <MOLECULAR_WEIGHT>
550.5134

> <EXACT_MASS>
550.158745062

> <JCHEM_ACCEPTOR_COUNT>
10

> <JCHEM_AVERAGE_POLARIZABILITY>
54.45874079930983

> <JCHEM_BIOAVAILABILITY>
0

> <JCHEM_DONOR_COUNT>
7

> <JCHEM_FORMAL_CHARGE>
0

> <JCHEM_GHOSE_FILTER>
0

> <JCHEM_IUPAC>
2-[2,6-dihydroxy-4-({[(3S,4R)-3-(4-hydroxybenzamido)azepan-4-yl]oxy}carbonyl)benzoyl]-3-hydroxybenzoic acid

> <ALOGPS_LOGP>
1.84

> <JCHEM_LOGP>
2.3908398926862056

> <ALOGPS_LOGS>
-4.55

> <JCHEM_MDDR_LIKE_RULE>
1

> <JCHEM_NUMBER_OF_RINGS>
4

> <JCHEM_PHYSIOLOGICAL_CHARGE>
0

> <JCHEM_PKA>
7.475229340166567

> <JCHEM_PKA_STRONGEST_ACIDIC>
2.975795398073315

> <JCHEM_PKA_STRONGEST_BASIC>
9.739433871462127

> <JCHEM_POLAR_SURFACE_AREA>
202.71999999999997

> <JCHEM_REFRACTIVITY>
141.50849999999997

> <JCHEM_ROTATABLE_BOND_COUNT>
8

> <JCHEM_RULE_OF_FIVE>
0

> <ALOGPS_SOLUBILITY>
1.57e-02 g/l

> <JCHEM_TRADITIONAL_IUPAC>
balanol

> <JCHEM_VEBER_RULE>
0

> <DRUGBANK_ID>
DB04098

> <SECONDARY_ACCESSION_NUMBERS>
EXPT00617

> <DRUG_GROUPS>
experimental

> <GENERIC_NAME>
Balanol

$$$$