9808998
  -OEChem-10051720443D

 72 78  0     1  0  0  0  0  0999 V2000
   -3.8444    0.9777   -0.8273 O   0  0  0  0  0  0  0  0  0  0  0  0
   -3.3853   -1.5602    1.6718 O   0  0  0  0  0  0  0  0  0  0  0  0
   -5.5372    1.3028    1.5699 O   0  0  0  0  0  0  0  0  0  0  0  0
   -5.5966   -1.7931   -0.3475 O   0  0  0  0  0  0  0  0  0  0  0  0
   -5.2386    2.2166   -2.7923 O   0  0  0  0  0  0  0  0  0  0  0  0
    3.4633    2.4560    0.6004 O   0  0  0  0  0  0  0  0  0  0  0  0
    4.2270   -2.1159    0.3739 O   0  0  0  0  0  0  0  0  0  0  0  0
   -2.8286    5.4209    0.2845 O   0  0  0  0  0  0  0  0  0  0  0  0
   -0.7637   -6.9188   -0.3239 O   0  0  0  0  0  0  0  0  0  0  0  0
    7.6992    2.2913    1.0163 O   0  0  0  0  0  0  0  0  0  0  0  0
    6.2288    1.4166   -2.8468 O   0  0  0  0  0  0  0  0  0  0  0  0
   -1.7087    0.6730    0.0773 N   0  0  0  0  0  0  0  0  0  0  0  0
   -1.2501   -2.0676   -0.0582 N   0  0  0  0  0  0  0  0  0  0  0  0
    4.2259    0.2328    0.5205 N   0  0  0  0  0  0  0  0  0  0  0  0
    5.5772    0.4439    0.6417 N   0  0  0  0  0  0  0  0  0  0  0  0
   -3.0437    0.0760   -0.0655 C   0  0  1  0  0  0  0  0  0  0  0  0
   -3.6949   -0.2167    1.2990 C   0  0  1  0  0  0  0  0  0  0  0  0
   -0.4520    0.1784    0.1460 C   0  0  0  0  0  0  0  0  0  0  0  0
   -5.2209   -0.0513    1.2533 C   0  0  2  0  0  0  0  0  0  0  0  0
   -5.7831   -0.3920   -0.1300 C   0  0  1  0  0  0  0  0  0  0  0  0
    0.7042    1.0162    0.2901 C   0  0  0  0  0  0  0  0  0  0  0  0
   -5.0799    0.3909   -1.2597 C   0  0  1  0  0  0  0  0  0  0  0  0
   -1.4602    2.0333    0.1821 C   0  0  0  0  0  0  0  0  0  0  0  0
   -0.2213   -1.2007    0.0779 C   0  0  0  0  0  0  0  0  0  0  0  0
   -0.0511    2.2775    0.3090 C   0  0  0  0  0  0  0  0  0  0  0  0
    2.0235    0.5779    0.3673 C   0  0  0  0  0  0  0  0  0  0  0  0
    1.1465   -1.6273    0.1595 C   0  0  0  0  0  0  0  0  0  0  0  0
    2.2529   -0.7939    0.2996 C   0  0  0  0  0  0  0  0  0  0  0  0
    0.8421   -3.0612    0.0452 C   0  0  0  0  0  0  0  0  0  0  0  0
   -5.9458    1.5379   -1.7703 C   0  0  0  0  0  0  0  0  0  0  0  0
   -0.5716   -3.2769   -0.0805 C   0  0  0  0  0  0  0  0  0  0  0  0
    3.3048    1.2546    0.5117 C   0  0  0  0  0  0  0  0  0  0  0  0
   -2.3938    3.0809    0.1733 C   0  0  0  0  0  0  0  0  0  0  0  0
    3.6864   -1.0281    0.3988 C   0  0  0  0  0  0  0  0  0  0  0  0
    0.3621    3.6267    0.4258 C   0  0  0  0  0  0  0  0  0  0  0  0
   -1.9335    4.3928    0.2916 C   0  0  0  0  0  0  0  0  0  0  0  0
   -0.5772    4.6636    0.4159 C   0  0  0  0  0  0  0  0  0  0  0  0
    1.6729   -4.2076    0.0388 C   0  0  0  0  0  0  0  0  0  0  0  0
   -1.1143   -4.5650   -0.2046 C   0  0  0  0  0  0  0  0  0  0  0  0
    6.0540    1.2916   -0.4430 C   0  0  0  0  0  0  0  0  0  0  0  0
    1.1215   -5.4874   -0.0856 C   0  0  0  0  0  0  0  0  0  0  0  0
   -0.2510   -5.6613   -0.2053 C   0  0  0  0  0  0  0  0  0  0  0  0
    7.5349    1.6186   -0.2269 C   0  0  0  0  0  0  0  0  0  0  0  0
    5.8203    0.5768   -1.7740 C   0  0  0  0  0  0  0  0  0  0  0  0
   -2.9697   -0.7570   -0.7559 H   0  0  0  0  0  0  0  0  0  0  0  0
   -3.2767    0.4378    2.0737 H   0  0  0  0  0  0  0  0  0  0  0  0
   -5.6861   -0.6878    2.0154 H   0  0  0  0  0  0  0  0  0  0  0  0
   -6.8638   -0.2127   -0.1673 H   0  0  0  0  0  0  0  0  0  0  0  0
   -4.8442   -0.2702   -2.1038 H   0  0  0  0  0  0  0  0  0  0  0  0
   -6.8913    1.1681   -2.1788 H   0  0  0  0  0  0  0  0  0  0  0  0
   -6.1527    2.2604   -0.9743 H   0  0  0  0  0  0  0  0  0  0  0  0
   -2.2403   -2.0063    0.0554 H   0  0  0  0  0  0  0  0  0  0  0  0
   -3.4649    2.9256    0.1322 H   0  0  0  0  0  0  0  0  0  0  0  0
    1.4132    3.8780    0.5246 H   0  0  0  0  0  0  0  0  0  0  0  0
   -3.7475   -1.7090    2.5617 H   0  0  0  0  0  0  0  0  0  0  0  0
   -6.5054    1.3902    1.5471 H   0  0  0  0  0  0  0  0  0  0  0  0
   -6.0742   -2.2656    0.3555 H   0  0  0  0  0  0  0  0  0  0  0  0
   -0.2249    5.6884    0.5075 H   0  0  0  0  0  0  0  0  0  0  0  0
    2.7501   -4.1123    0.1301 H   0  0  0  0  0  0  0  0  0  0  0  0
   -2.1877   -4.7053   -0.2980 H   0  0  0  0  0  0  0  0  0  0  0  0
    5.7383    0.9032    1.5378 H   0  0  0  0  0  0  0  0  0  0  0  0
    5.5457    2.2620   -0.4585 H   0  0  0  0  0  0  0  0  0  0  0  0
   -5.8067    2.9430   -3.1006 H   0  0  0  0  0  0  0  0  0  0  0  0
    1.7889   -6.3459   -0.0866 H   0  0  0  0  0  0  0  0  0  0  0  0
   -2.3465    6.2608    0.3749 H   0  0  0  0  0  0  0  0  0  0  0  0
    7.9112    2.2752   -1.0182 H   0  0  0  0  0  0  0  0  0  0  0  0
    8.1454    0.7086   -0.2116 H   0  0  0  0  0  0  0  0  0  0  0  0
    6.3948   -0.3550   -1.8308 H   0  0  0  0  0  0  0  0  0  0  0  0
    4.7653    0.3441   -1.9475 H   0  0  0  0  0  0  0  0  0  0  0  0
   -0.0336   -7.5611   -0.3064 H   0  0  0  0  0  0  0  0  0  0  0  0
    8.6479    2.4810    1.1144 H   0  0  0  0  0  0  0  0  0  0  0  0
    6.0769    0.9226   -3.6706 H   0  0  0  0  0  0  0  0  0  0  0  0
  1 16  1  0  0  0  0
  1 22  1  0  0  0  0
  2 17  1  0  0  0  0
  2 55  1  0  0  0  0
  3 19  1  0  0  0  0
  3 56  1  0  0  0  0
  4 20  1  0  0  0  0
  4 57  1  0  0  0  0
  5 30  1  0  0  0  0
  5 63  1  0  0  0  0
  6 32  2  0  0  0  0
  7 34  2  0  0  0  0
  8 36  1  0  0  0  0
  8 65  1  0  0  0  0
  9 42  1  0  0  0  0
  9 70  1  0  0  0  0
 10 43  1  0  0  0  0
 10 71  1  0  0  0  0
 11 44  1  0  0  0  0
 11 72  1  0  0  0  0
 12 16  1  0  0  0  0
 12 18  1  0  0  0  0
 12 23  1  0  0  0  0
 13 24  1  0  0  0  0
 13 31  1  0  0  0  0
 13 52  1  0  0  0  0
 14 15  1  0  0  0  0
 14 32  1  0  0  0  0
 14 34  1  0  0  0  0
 15 40  1  0  0  0  0
 15 61  1  0  0  0  0
 16 17  1  0  0  0  0
 16 45  1  0  0  0  0
 17 19  1  0  0  0  0
 17 46  1  0  0  0  0
 18 21  1  0  0  0  0
 18 24  2  0  0  0  0
 19 20  1  0  0  0  0
 19 47  1  0  0  0  0
 20 22  1  0  0  0  0
 20 48  1  0  0  0  0
 21 25  1  0  0  0  0
 21 26  2  0  0  0  0
 22 30  1  0  0  0  0
 22 49  1  0  0  0  0
 23 25  2  0  0  0  0
 23 33  1  0  0  0  0
 24 27  1  0  0  0  0
 25 35  1  0  0  0  0
 26 28  1  0  0  0  0
 26 32  1  0  0  0  0
 27 28  2  0  0  0  0
 27 29  1  0  0  0  0
 28 34  1  0  0  0  0
 29 31  2  0  0  0  0
 29 38  1  0  0  0  0
 30 50  1  0  0  0  0
 30 51  1  0  0  0  0
 31 39  1  0  0  0  0
 33 36  2  0  0  0  0
 33 53  1  0  0  0  0
 35 37  2  0  0  0  0
 35 54  1  0  0  0  0
 36 37  1  0  0  0  0
 37 58  1  0  0  0  0
 38 41  2  0  0  0  0
 38 59  1  0  0  0  0
 39 42  2  0  0  0  0
 39 60  1  0  0  0  0
 40 43  1  0  0  0  0
 40 44  1  0  0  0  0
 40 62  1  0  0  0  0
 41 42  1  0  0  0  0
 41 64  1  0  0  0  0
 43 66  1  0  0  0  0
 43 67  1  0  0  0  0
 44 68  1  0  0  0  0
 44 69  1  0  0  0  0
M  END
> <DATABASE_ID>
DB04882

> <DATABASE_NAME>
drugbank

> <ORIGINAL_SOURCE>
PUBCHEM

> <ORIGINAL_SOURCE_URL>
https://pubchem.ncbi.nlm.nih.gov/rest/pug/compound/inchikey/QMVPQBFHUJZJCS-NTKFZFFISA-N/SDF?record_type=3d

> <SMILES>
OCC(CO)NN1C(=O)C2=C3C(NC4=C3C=CC(O)=C4)=C3N([C@@H]4O[C@H](CO)[C@@H](O)[C@H](O)[C@H]4O)C4=C(C=CC(O)=C4)C3=C2C1=O

> <INCHI_IDENTIFIER>
InChI=1S/C29H28N4O11/c34-7-10(8-35)31-33-27(42)20-18-13-3-1-11(37)5-15(13)30-22(18)23-19(21(20)28(33)43)14-4-2-12(38)6-16(14)32(23)29-26(41)25(40)24(39)17(9-36)44-29/h1-6,10,17,24-26,29-31,34-41H,7-9H2/t17-,24-,25+,26-,29-/m1/s1

> <INCHI_KEY>
QMVPQBFHUJZJCS-NTKFZFFISA-N

> <FORMULA>
C29H28N4O11

> <MOLECULAR_WEIGHT>
608.56

> <EXACT_MASS>
608.175457738

> <JCHEM_ACCEPTOR_COUNT>
12

> <JCHEM_ATOM_COUNT>
72

> <JCHEM_AVERAGE_POLARIZABILITY>
61.926598747868425

> <JCHEM_BIOAVAILABILITY>
0

> <JCHEM_DONOR_COUNT>
10

> <JCHEM_FORMAL_CHARGE>
0

> <JCHEM_GHOSE_FILTER>
0

> <JCHEM_IUPAC>
13-[(1,3-dihydroxypropan-2-yl)amino]-6,20-dihydroxy-3-[(2R,3R,4S,5S,6R)-3,4,5-trihydroxy-6-(hydroxymethyl)oxan-2-yl]-3,13,23-triazahexacyclo[14.7.0.0²,¹⁰.0⁴,⁹.0¹¹,¹⁵.0¹⁷,²²]tricosa-1,4(9),5,7,10,15,17(22),18,20-nonaene-12,14-dione

> <ALOGPS_LOGP>
-0.11

> <JCHEM_LOGP>
-1.2619505233333337

> <ALOGPS_LOGS>
-2.59

> <JCHEM_MDDR_LIKE_RULE>
1

> <JCHEM_NUMBER_OF_RINGS>
7

> <JCHEM_PHYSIOLOGICAL_CHARGE>
0

> <JCHEM_PKA>
9.42577471606581

> <JCHEM_PKA_STRONGEST_ACIDIC>
8.816473224848831

> <JCHEM_PKA_STRONGEST_BASIC>
2.440102275992942

> <JCHEM_POLAR_SURFACE_AREA>
241.19999999999996

> <JCHEM_REFRACTIVITY>
161.73020000000002

> <JCHEM_ROTATABLE_BOND_COUNT>
6

> <JCHEM_RULE_OF_FIVE>
0

> <ALOGPS_SOLUBILITY>
1.58e+00 g/l

> <JCHEM_TRADITIONAL_IUPAC>
13-[(1,3-dihydroxypropan-2-yl)amino]-6,20-dihydroxy-3-[(2R,3R,4S,5S,6R)-3,4,5-trihydroxy-6-(hydroxymethyl)oxan-2-yl]-3,13,23-triazahexacyclo[14.7.0.0²,¹⁰.0⁴,⁹.0¹¹,¹⁵.0¹⁷,²²]tricosa-1,4(9),5,7,10,15,17(22),18,20-nonaene-12,14-dione

> <JCHEM_VEBER_RULE>
0

> <DRUGBANK_ID>
DB04882

> <DRUG_GROUPS>
investigational

> <GENERIC_NAME>
Edotecarin

> <SYNONYMS>
E'dotecarine; Edotecarin; Edotecarina; Edotecarinum

$$$$