446584
  -OEChem-10051720293D

 44 45  0     1  0  0  0  0  0999 V2000
    2.1442   -2.6398   -0.7629 F   0  0  0  0  0  0  0  0  0  0  0  0
   -0.0281   -0.8116   -0.7988 O   0  0  0  0  0  0  0  0  0  0  0  0
    1.3823    0.7382    0.2355 O   0  0  0  0  0  0  0  0  0  0  0  0
   -3.3785   -0.7631    0.6796 O   0  0  0  0  0  0  0  0  0  0  0  0
   -0.8166    1.9608   -1.0186 O   0  0  0  0  0  0  0  0  0  0  0  0
    4.7480   -1.4479   -0.7955 O   0  0  0  0  0  0  0  0  0  0  0  0
   -3.7210    2.1750   -1.4652 O   0  0  0  0  0  0  0  0  0  0  0  0
    3.9528    1.2036   -0.9192 O   0  0  0  0  0  0  0  0  0  0  0  0
   -5.1947    0.6807    0.4330 O   0  0  0  0  0  0  0  0  0  0  0  0
   -2.7032   -3.3639    1.2593 O   0  0  0  0  0  0  0  0  0  0  0  0
    1.4172    2.8674    1.9659 O   0  0  0  0  0  0  0  0  0  0  0  0
   -1.1605   -0.2419   -0.1475 C   0  0  1  0  0  0  0  0  0  0  0  0
   -1.7397    0.8707   -1.0216 C   0  0  1  0  0  0  0  0  0  0  0  0
   -2.2029   -1.3342    0.1027 C   0  0  1  0  0  0  0  0  0  0  0  0
    1.1564   -0.6477   -0.0210 C   0  0  2  0  0  0  0  0  0  0  0  0
    2.3396   -1.2897   -0.7419 C   0  0  1  0  0  0  0  0  0  0  0  0
    3.6452   -1.0142   -0.0062 C   0  0  2  0  0  0  0  0  0  0  0  0
   -3.0911    1.3466   -0.4882 C   0  0  2  0  0  0  0  0  0  0  0  0
    3.7980    0.4748    0.3004 C   0  0  2  0  0  0  0  0  0  0  0  0
    2.5495    0.9834    1.0304 C   0  0  1  0  0  0  0  0  0  0  0  0
   -4.0178    0.1679   -0.1906 C   0  0  1  0  0  0  0  0  0  0  0  0
   -1.6867   -2.3969    1.0677 C   0  0  0  0  0  0  0  0  0  0  0  0
    2.6077    2.4820    1.3024 C   0  0  0  0  0  0  0  0  0  0  0  0
   -0.8927    0.2001    0.8239 H   0  0  0  0  0  0  0  0  0  0  0  0
   -1.8284    0.5413   -2.0641 H   0  0  0  0  0  0  0  0  0  0  0  0
   -2.4807   -1.8331   -0.8358 H   0  0  0  0  0  0  0  0  0  0  0  0
    1.0037   -1.1665    0.9348 H   0  0  0  0  0  0  0  0  0  0  0  0
    2.3928   -0.9663   -1.7871 H   0  0  0  0  0  0  0  0  0  0  0  0
    3.6691   -1.5891    0.9274 H   0  0  0  0  0  0  0  0  0  0  0  0
   -2.9408    1.9665    0.4039 H   0  0  0  0  0  0  0  0  0  0  0  0
    4.7031    0.6489    0.8920 H   0  0  0  0  0  0  0  0  0  0  0  0
    2.4225    0.4541    1.9839 H   0  0  0  0  0  0  0  0  0  0  0  0
   -4.3406   -0.3425   -1.1054 H   0  0  0  0  0  0  0  0  0  0  0  0
   -1.4434   -1.9685    2.0456 H   0  0  0  0  0  0  0  0  0  0  0  0
   -0.8031   -2.9073    0.6746 H   0  0  0  0  0  0  0  0  0  0  0  0
    2.6526    3.0577    0.3729 H   0  0  0  0  0  0  0  0  0  0  0  0
    3.4672    2.7486    1.9249 H   0  0  0  0  0  0  0  0  0  0  0  0
    0.0263    1.6308   -1.3742 H   0  0  0  0  0  0  0  0  0  0  0  0
    4.6106   -2.3897   -0.9952 H   0  0  0  0  0  0  0  0  0  0  0  0
   -3.8561    1.6438   -2.2685 H   0  0  0  0  0  0  0  0  0  0  0  0
    3.1061    1.1840   -1.3962 H   0  0  0  0  0  0  0  0  0  0  0  0
   -4.9382    1.4014    1.0321 H   0  0  0  0  0  0  0  0  0  0  0  0
   -3.4857   -2.9031    1.6075 H   0  0  0  0  0  0  0  0  0  0  0  0
    1.3797    2.3853    2.8096 H   0  0  0  0  0  0  0  0  0  0  0  0
  1 16  1  0  0  0  0
  2 12  1  0  0  0  0
  2 15  1  0  0  0  0
  3 15  1  0  0  0  0
  3 20  1  0  0  0  0
  4 14  1  0  0  0  0
  4 21  1  0  0  0  0
  5 13  1  0  0  0  0
  5 38  1  0  0  0  0
  6 17  1  0  0  0  0
  6 39  1  0  0  0  0
  7 18  1  0  0  0  0
  7 40  1  0  0  0  0
  8 19  1  0  0  0  0
  8 41  1  0  0  0  0
  9 21  1  0  0  0  0
  9 42  1  0  0  0  0
 10 22  1  0  0  0  0
 10 43  1  0  0  0  0
 11 23  1  0  0  0  0
 11 44  1  0  0  0  0
 12 13  1  0  0  0  0
 12 14  1  0  0  0  0
 12 24  1  0  0  0  0
 13 18  1  0  0  0  0
 13 25  1  0  0  0  0
 14 22  1  0  0  0  0
 14 26  1  0  0  0  0
 15 16  1  0  0  0  0
 15 27  1  0  0  0  0
 16 17  1  0  0  0  0
 16 28  1  0  0  0  0
 17 19  1  0  0  0  0
 17 29  1  0  0  0  0
 18 21  1  0  0  0  0
 18 30  1  0  0  0  0
 19 20  1  0  0  0  0
 19 31  1  0  0  0  0
 20 23  1  0  0  0  0
 20 32  1  0  0  0  0
 21 33  1  0  0  0  0
 22 34  1  0  0  0  0
 22 35  1  0  0  0  0
 23 36  1  0  0  0  0
 23 37  1  0  0  0  0
M  END
> <DATABASE_ID>
DB04155

> <DATABASE_NAME>
drugbank

> <ORIGINAL_SOURCE>
PUBCHEM

> <ORIGINAL_SOURCE_URL>
https://pubchem.ncbi.nlm.nih.gov/rest/pug/compound/inchikey/KWMZPXRIEZDXAQ-QRZGKKJRSA-N/SDF?record_type=3d

> <SMILES>
[H][C@@]1(O)O[C@]([H])(CO)[C@@]([H])(O[C@]2([H])O[C@]([H])(CO)[C@]([H])(O)[C@]([H])(O)[C@@]2([H])F)[C@]([H])(O)[C@@]1([H])O

> <INCHI_IDENTIFIER>
InChI=1S/C12H21FO10/c13-5-7(17)6(16)3(1-14)22-12(5)23-10-4(2-15)21-11(20)9(19)8(10)18/h3-12,14-20H,1-2H2/t3-,4-,5-,6+,7-,8-,9-,10-,11-,12+/m1/s1

> <INCHI_KEY>
KWMZPXRIEZDXAQ-QRZGKKJRSA-N

> <FORMULA>
C12H21FO10

> <MOLECULAR_WEIGHT>
344.2875

> <EXACT_MASS>
344.111875097

> <JCHEM_ACCEPTOR_COUNT>
10

> <JCHEM_AVERAGE_POLARIZABILITY>
30.799520260852034

> <JCHEM_BIOAVAILABILITY>
1

> <JCHEM_DONOR_COUNT>
7

> <JCHEM_FORMAL_CHARGE>
0

> <JCHEM_GHOSE_FILTER>
0

> <JCHEM_IUPAC>
(2R,3R,4R,5S,6R)-5-{[(2S,3R,4S,5R,6R)-3-fluoro-4,5-dihydroxy-6-(hydroxymethyl)oxan-2-yl]oxy}-6-(hydroxymethyl)oxane-2,3,4-triol

> <ALOGPS_LOGP>
-2.09

> <JCHEM_LOGP>
-3.812283089666667

> <ALOGPS_LOGS>
-0.07

> <JCHEM_MDDR_LIKE_RULE>
0

> <JCHEM_NUMBER_OF_RINGS>
2

> <JCHEM_PHYSIOLOGICAL_CHARGE>
0

> <JCHEM_PKA>
12.394366147826297

> <JCHEM_PKA_STRONGEST_ACIDIC>
11.280013494268928

> <JCHEM_PKA_STRONGEST_BASIC>
-2.9810957088284855

> <JCHEM_POLAR_SURFACE_AREA>
169.29999999999998

> <JCHEM_REFRACTIVITY>
66.6446

> <JCHEM_ROTATABLE_BOND_COUNT>
4

> <JCHEM_RULE_OF_FIVE>
0

> <ALOGPS_SOLUBILITY>
2.90e+02 g/l

> <JCHEM_TRADITIONAL_IUPAC>
(2R,3R,4R,5S,6R)-5-{[(2S,3R,4S,5R,6R)-3-fluoro-4,5-dihydroxy-6-(hydroxymethyl)oxan-2-yl]oxy}-6-(hydroxymethyl)oxane-2,3,4-triol

> <JCHEM_VEBER_RULE>
0

> <DRUGBANK_ID>
DB04155

> <SECONDARY_ACCESSION_NUMBERS>
EXPT00118

> <DRUG_GROUPS>
experimental

> <GENERIC_NAME>
2-Fluoro-2-Deoxy-Beta-D-Galactopyranosyl-Beta-D-Glucopyranose

$$$$