9833332
  -OEChem-12151718243D

 66 68  0     1  0  0  0  0  0999 V2000
    3.0625    0.3664    3.0478 I   0  0  0  0  0  0  0  0  0  0  0  0
    2.9286    2.6346   -2.6160 I   0  0  0  0  0  0  0  0  0  0  0  0
   -3.3966   -2.3938    0.6187 O   0  0  0  0  0  0  0  0  0  0  0  0
    4.0486    1.7040    0.2722 O   0  0  0  0  0  0  0  0  0  0  0  0
   -6.3227    0.9140    0.6003 O   0  0  0  0  0  0  0  0  0  0  0  0
   -2.2180    1.6138   -0.2327 O   0  0  0  0  0  0  0  0  0  0  0  0
   -5.2574   -0.2218   -1.1003 O   0  0  0  0  0  0  0  0  0  0  0  0
    7.3017    0.1334   -0.4408 N   0  0  0  0  0  0  0  0  0  0  0  0
    6.3625    1.1640   -0.0240 C   0  0  0  0  0  0  0  0  0  0  0  0
   -1.9917   -0.7118    0.1090 C   0  0  0  0  0  0  0  0  0  0  0  0
   -3.2228   -1.0464    0.6236 C   0  0  0  0  0  0  0  0  0  0  0  0
   -1.3577   -1.9338   -0.2387 C   0  0  0  0  0  0  0  0  0  0  0  0
    8.5996    0.7217   -0.7806 C   0  0  0  0  0  0  0  0  0  0  0  0
    7.4635   -0.8755    0.6090 C   0  0  0  0  0  0  0  0  0  0  0  0
    4.9303    0.6725   -0.1617 C   0  0  0  0  0  0  0  0  0  0  0  0
   -2.2622   -2.9370    0.0939 C   0  0  0  0  0  0  0  0  0  0  0  0
   -4.3428   -0.2570    1.1586 C   0  0  0  0  0  0  0  0  0  0  0  0
   -1.4899    0.6248   -0.0292 C   0  0  0  0  0  0  0  0  0  0  0  0
   -7.3279    1.3490   -0.3211 C   0  0  2  0  0  0  0  0  0  0  0  0
   -0.0244    0.9111    0.0511 C   0  0  0  0  0  0  0  0  0  0  0  0
   -0.1214   -2.3024   -0.7975 C   0  0  0  0  0  0  0  0  0  0  0  0
   -7.8588    2.7136    0.1230 C   0  0  0  0  0  0  0  0  0  0  0  0
    9.2326    1.3903    0.4279 C   0  0  0  0  0  0  0  0  0  0  0  0
    8.3888   -1.9931    0.1586 C   0  0  0  0  0  0  0  0  0  0  0  0
   -5.3383    0.1268    0.0696 C   0  0  0  0  0  0  0  0  0  0  0  0
   -2.0229   -4.2975   -0.0906 C   0  0  0  0  0  0  0  0  0  0  0  0
    2.7099    1.4436    0.1998 C   0  0  0  0  0  0  0  0  0  0  0  0
    0.6854    0.5956    1.2096 C   0  0  0  0  0  0  0  0  0  0  0  0
    0.6328    1.4928   -1.0331 C   0  0  0  0  0  0  0  0  0  0  0  0
    0.1481   -3.6636   -0.9949 C   0  0  0  0  0  0  0  0  0  0  0  0
   -8.4411    0.3108   -0.3608 C   0  0  0  0  0  0  0  0  0  0  0  0
    2.0526    0.8620    1.2839 C   0  0  0  0  0  0  0  0  0  0  0  0
    2.0000    1.7591   -0.9587 C   0  0  0  0  0  0  0  0  0  0  0  0
   -0.7872   -4.6415   -0.6468 C   0  0  0  0  0  0  0  0  0  0  0  0
   -6.7637    3.7711    0.1711 C   0  0  0  0  0  0  0  0  0  0  0  0
    6.4541    2.0589   -0.6546 H   0  0  0  0  0  0  0  0  0  0  0  0
    6.5286    1.5066    1.0058 H   0  0  0  0  0  0  0  0  0  0  0  0
    9.2829   -0.0129   -1.2196 H   0  0  0  0  0  0  0  0  0  0  0  0
    8.4609    1.4694   -1.5724 H   0  0  0  0  0  0  0  0  0  0  0  0
    7.7886   -0.4694    1.5734 H   0  0  0  0  0  0  0  0  0  0  0  0
    6.4970   -1.3534    0.8041 H   0  0  0  0  0  0  0  0  0  0  0  0
    4.7534   -0.2250    0.4374 H   0  0  0  0  0  0  0  0  0  0  0  0
    4.7253    0.4115   -1.2066 H   0  0  0  0  0  0  0  0  0  0  0  0
   -3.9723    0.6608    1.6276 H   0  0  0  0  0  0  0  0  0  0  0  0
   -4.8812   -0.8354    1.9179 H   0  0  0  0  0  0  0  0  0  0  0  0
   -6.9078    1.4666   -1.3285 H   0  0  0  0  0  0  0  0  0  0  0  0
    0.6226   -1.5693   -1.0897 H   0  0  0  0  0  0  0  0  0  0  0  0
   -8.2966    2.6332    1.1256 H   0  0  0  0  0  0  0  0  0  0  0  0
   -8.6515    3.0459   -0.5572 H   0  0  0  0  0  0  0  0  0  0  0  0
   10.1554    1.8879    0.1053 H   0  0  0  0  0  0  0  0  0  0  0  0
    9.5324    0.6842    1.2072 H   0  0  0  0  0  0  0  0  0  0  0  0
    8.6105    2.1714    0.8735 H   0  0  0  0  0  0  0  0  0  0  0  0
    8.3071   -2.8378    0.8519 H   0  0  0  0  0  0  0  0  0  0  0  0
    9.4409   -1.6928    0.1542 H   0  0  0  0  0  0  0  0  0  0  0  0
    8.1216   -2.3640   -0.8371 H   0  0  0  0  0  0  0  0  0  0  0  0
   -2.7534   -5.0499    0.1816 H   0  0  0  0  0  0  0  0  0  0  0  0
    0.1630    0.1467    2.0517 H   0  0  0  0  0  0  0  0  0  0  0  0
    0.0687    1.7315   -1.9322 H   0  0  0  0  0  0  0  0  0  0  0  0
    1.0994   -3.9620   -1.4282 H   0  0  0  0  0  0  0  0  0  0  0  0
   -8.8656    0.1544    0.6370 H   0  0  0  0  0  0  0  0  0  0  0  0
   -9.2441    0.6151   -1.0393 H   0  0  0  0  0  0  0  0  0  0  0  0
   -8.0575   -0.6593   -0.6940 H   0  0  0  0  0  0  0  0  0  0  0  0
   -0.5506   -5.6897   -0.8121 H   0  0  0  0  0  0  0  0  0  0  0  0
   -6.2886    3.8870   -0.8083 H   0  0  0  0  0  0  0  0  0  0  0  0
   -7.1871    4.7385    0.4594 H   0  0  0  0  0  0  0  0  0  0  0  0
   -5.9900    3.5131    0.9010 H   0  0  0  0  0  0  0  0  0  0  0  0
  1 32  1  0  0  0  0
  2 33  1  0  0  0  0
  3 11  1  0  0  0  0
  3 16  1  0  0  0  0
  4 15  1  0  0  0  0
  4 27  1  0  0  0  0
  5 19  1  0  0  0  0
  5 25  1  0  0  0  0
  6 18  2  0  0  0  0
  7 25  2  0  0  0  0
  8  9  1  0  0  0  0
  8 13  1  0  0  0  0
  8 14  1  0  0  0  0
  9 15  1  0  0  0  0
  9 36  1  0  0  0  0
  9 37  1  0  0  0  0
 10 11  2  0  0  0  0
 10 12  1  0  0  0  0
 10 18  1  0  0  0  0
 11 17  1  0  0  0  0
 12 16  1  0  0  0  0
 12 21  2  0  0  0  0
 13 23  1  0  0  0  0
 13 38  1  0  0  0  0
 13 39  1  0  0  0  0
 14 24  1  0  0  0  0
 14 40  1  0  0  0  0
 14 41  1  0  0  0  0
 15 42  1  0  0  0  0
 15 43  1  0  0  0  0
 16 26  2  0  0  0  0
 17 25  1  0  0  0  0
 17 44  1  0  0  0  0
 17 45  1  0  0  0  0
 18 20  1  0  0  0  0
 19 22  1  0  0  0  0
 19 31  1  0  0  0  0
 19 46  1  0  0  0  0
 20 28  2  0  0  0  0
 20 29  1  0  0  0  0
 21 30  1  0  0  0  0
 21 47  1  0  0  0  0
 22 35  1  0  0  0  0
 22 48  1  0  0  0  0
 22 49  1  0  0  0  0
 23 50  1  0  0  0  0
 23 51  1  0  0  0  0
 23 52  1  0  0  0  0
 24 53  1  0  0  0  0
 24 54  1  0  0  0  0
 24 55  1  0  0  0  0
 26 34  1  0  0  0  0
 26 56  1  0  0  0  0
 27 32  2  0  0  0  0
 27 33  1  0  0  0  0
 28 32  1  0  0  0  0
 28 57  1  0  0  0  0
 29 33  2  0  0  0  0
 29 58  1  0  0  0  0
 30 34  2  0  0  0  0
 30 59  1  0  0  0  0
 31 60  1  0  0  0  0
 31 61  1  0  0  0  0
 31 62  1  0  0  0  0
 34 63  1  0  0  0  0
 35 64  1  0  0  0  0
 35 65  1  0  0  0  0
 35 66  1  0  0  0  0
M  END
> <DATABASE_ID>
DB05519

> <DATABASE_NAME>
drugbank

> <ORIGINAL_SOURCE>
PUBCHEM

> <ORIGINAL_SOURCE_URL>
https://pubchem.ncbi.nlm.nih.gov/rest/pug/compound/inchikey/ZXOSVKYCXLTVGS-KRWDZBQOSA-N/SDF?record_type=3d

> <SMILES>
CC[C@H](C)OC(=O)CC1=C(C(=O)C2=CC(I)=C(OCCN(CC)CC)C(I)=C2)C2=C(O1)C=CC=C2

> <INCHI_IDENTIFIER>
InChI=1S/C27H31I2NO5/c1-5-17(4)34-24(31)16-23-25(19-10-8-9-11-22(19)35-23)26(32)18-14-20(28)27(21(29)15-18)33-13-12-30(6-2)7-3/h8-11,14-15,17H,5-7,12-13,16H2,1-4H3/t17-/m0/s1

> <INCHI_KEY>
ZXOSVKYCXLTVGS-KRWDZBQOSA-N

> <FORMULA>
C27H31I2NO5

> <MOLECULAR_WEIGHT>
703.356

> <EXACT_MASS>
703.02916

> <JCHEM_ACCEPTOR_COUNT>
4

> <JCHEM_ATOM_COUNT>
66

> <JCHEM_AVERAGE_POLARIZABILITY>
61.485522073996094

> <JCHEM_BIOAVAILABILITY>
0

> <JCHEM_DONOR_COUNT>
0

> <JCHEM_FORMAL_CHARGE>
0

> <JCHEM_GHOSE_FILTER>
0

> <JCHEM_IUPAC>
(2S)-butan-2-yl 2-(3-{4-[2-(diethylamino)ethoxy]-3,5-diiodobenzoyl}-1-benzofuran-2-yl)acetate

> <ALOGPS_LOGP>
7.15

> <JCHEM_LOGP>
7.02374922

> <ALOGPS_LOGS>
-5.10

> <JCHEM_MDDR_LIKE_RULE>
1

> <JCHEM_NUMBER_OF_RINGS>
3

> <JCHEM_PHYSIOLOGICAL_CHARGE>
1

> <JCHEM_PKA_STRONGEST_ACIDIC>
18.079717124392214

> <JCHEM_PKA_STRONGEST_BASIC>
8.466572567690067

> <JCHEM_POLAR_SURFACE_AREA>
68.98

> <JCHEM_REFRACTIVITY>
155.82470000000004

> <JCHEM_ROTATABLE_BOND_COUNT>
13

> <JCHEM_RULE_OF_FIVE>
0

> <ALOGPS_SOLUBILITY>
5.53e-03 g/l

> <JCHEM_TRADITIONAL_IUPAC>
budiodarone

> <JCHEM_VEBER_RULE>
0

> <DRUGBANK_ID>
DB05519

> <DRUG_GROUPS>
investigational

> <GENERIC_NAME>
Budiodarone

> <SALTS>
Budiodarone tartrate

$$$$