11567682
  -OEChem-10061700033D

 54 57  0     1  0  0  0  0  0999 V2000
    9.3009    0.9139   -0.2197 F   0  0  0  0  0  0  0  0  0  0  0  0
    7.7778    1.9663   -1.3498 F   0  0  0  0  0  0  0  0  0  0  0  0
    7.8673    2.1822    0.8122 F   0  0  0  0  0  0  0  0  0  0  0  0
    0.5754    0.1419    0.0521 N   0  0  1  0  0  0  0  0  0  0  0  0
    1.3457    0.7349    1.1492 C   0  0  0  0  0  0  0  0  0  0  0  0
    2.8359    0.7751    0.7776 C   0  0  0  0  0  0  0  0  0  0  0  0
    0.9779   -1.2556   -0.1693 C   0  0  0  0  0  0  0  0  0  0  0  0
   -0.8606    0.2322    0.3073 C   0  0  0  0  0  0  0  0  0  0  0  0
    3.3438   -0.5395    0.2300 C   0  0  0  0  0  0  0  0  0  0  0  0
    2.4681   -1.4668   -0.2010 C   0  0  0  0  0  0  0  0  0  0  0  0
   -1.6630   -0.2659   -0.8952 C   0  0  0  0  0  0  0  0  0  0  0  0
    4.8088   -0.7619    0.1804 C   0  0  0  0  0  0  0  0  0  0  0  0
   -3.1475   -0.1570   -0.6534 C   0  0  0  0  0  0  0  0  0  0  0  0
    5.6779    0.3199    0.0205 C   0  0  0  0  0  0  0  0  0  0  0  0
    5.3254   -2.0546    0.2942 C   0  0  0  0  0  0  0  0  0  0  0  0
   -3.8238   -1.2225   -0.0787 C   0  0  0  0  0  0  0  0  0  0  0  0
   -3.8119    1.0067   -1.0099 C   0  0  0  0  0  0  0  0  0  0  0  0
    7.0560    0.1101   -0.0253 C   0  0  0  0  0  0  0  0  0  0  0  0
   -5.8775    0.0430   -0.2091 C   0  0  0  0  0  0  0  0  0  0  0  0
    6.7037   -2.2645    0.2484 C   0  0  0  0  0  0  0  0  0  0  0  0
   -5.1970   -1.1219    0.1447 C   0  0  0  0  0  0  0  0  0  0  0  0
   -5.1850    1.1074   -0.7865 C   0  0  0  0  0  0  0  0  0  0  0  0
    7.5689   -1.1820    0.0888 C   0  0  0  0  0  0  0  0  0  0  0  0
    7.9815    1.2672   -0.1941 C   0  0  0  0  0  0  0  0  0  0  0  0
   -7.3018    0.1478    0.0235 C   0  0  0  0  0  0  0  0  0  0  0  0
   -8.2012   -0.2596   -0.9618 C   0  0  0  0  0  0  0  0  0  0  0  0
   -7.7753    0.6560    1.2330 C   0  0  0  0  0  0  0  0  0  0  0  0
   -9.5743   -0.1588   -0.7375 C   0  0  0  0  0  0  0  0  0  0  0  0
   -9.1484    0.7567    1.4574 C   0  0  0  0  0  0  0  0  0  0  0  0
  -10.0478    0.3493    0.4721 C   0  0  0  0  0  0  0  0  0  0  0  0
    1.2031    0.1701    2.0805 H   0  0  0  0  0  0  0  0  0  0  0  0
    1.0154    1.7635    1.3395 H   0  0  0  0  0  0  0  0  0  0  0  0
    3.3991    1.0572    1.6759 H   0  0  0  0  0  0  0  0  0  0  0  0
    2.9917    1.5605    0.0266 H   0  0  0  0  0  0  0  0  0  0  0  0
    0.6144   -1.5909   -1.1466 H   0  0  0  0  0  0  0  0  0  0  0  0
    0.5588   -1.9215    0.5961 H   0  0  0  0  0  0  0  0  0  0  0  0
   -1.1367   -0.3282    1.2108 H   0  0  0  0  0  0  0  0  0  0  0  0
   -1.1303    1.2800    0.4945 H   0  0  0  0  0  0  0  0  0  0  0  0
    2.7937   -2.4200   -0.6071 H   0  0  0  0  0  0  0  0  0  0  0  0
   -1.4508   -1.3154   -1.1287 H   0  0  0  0  0  0  0  0  0  0  0  0
   -1.3952    0.3027   -1.7958 H   0  0  0  0  0  0  0  0  0  0  0  0
    5.3035    1.3353   -0.0814 H   0  0  0  0  0  0  0  0  0  0  0  0
    4.6876   -2.9215    0.4441 H   0  0  0  0  0  0  0  0  0  0  0  0
   -3.3024   -2.1330    0.2028 H   0  0  0  0  0  0  0  0  0  0  0  0
   -3.2809    1.8415   -1.4583 H   0  0  0  0  0  0  0  0  0  0  0  0
    7.1037   -3.2698    0.3428 H   0  0  0  0  0  0  0  0  0  0  0  0
   -5.7215   -1.9607    0.5964 H   0  0  0  0  0  0  0  0  0  0  0  0
   -5.7001    2.0229   -1.0676 H   0  0  0  0  0  0  0  0  0  0  0  0
    8.6393   -1.3655    0.0571 H   0  0  0  0  0  0  0  0  0  0  0  0
   -7.8490   -0.6580   -1.9105 H   0  0  0  0  0  0  0  0  0  0  0  0
   -7.0880    0.9781    2.0118 H   0  0  0  0  0  0  0  0  0  0  0  0
  -10.2747   -0.4759   -1.5046 H   0  0  0  0  0  0  0  0  0  0  0  0
   -9.5173    1.1522    2.3992 H   0  0  0  0  0  0  0  0  0  0  0  0
  -11.1168    0.4278    0.6468 H   0  0  0  0  0  0  0  0  0  0  0  0
  1 24  1  0  0  0  0
  2 24  1  0  0  0  0
  3 24  1  0  0  0  0
  4  5  1  0  0  0  0
  4  7  1  0  0  0  0
  4  8  1  0  0  0  0
  5  6  1  0  0  0  0
  5 31  1  0  0  0  0
  5 32  1  0  0  0  0
  6  9  1  0  0  0  0
  6 33  1  0  0  0  0
  6 34  1  0  0  0  0
  7 10  1  0  0  0  0
  7 35  1  0  0  0  0
  7 36  1  0  0  0  0
  8 11  1  0  0  0  0
  8 37  1  0  0  0  0
  8 38  1  0  0  0  0
  9 10  2  0  0  0  0
  9 12  1  0  0  0  0
 10 39  1  0  0  0  0
 11 13  1  0  0  0  0
 11 40  1  0  0  0  0
 11 41  1  0  0  0  0
 12 14  2  0  0  0  0
 12 15  1  0  0  0  0
 13 16  2  0  0  0  0
 13 17  1  0  0  0  0
 14 18  1  0  0  0  0
 14 42  1  0  0  0  0
 15 20  2  0  0  0  0
 15 43  1  0  0  0  0
 16 21  1  0  0  0  0
 16 44  1  0  0  0  0
 17 22  2  0  0  0  0
 17 45  1  0  0  0  0
 18 23  2  0  0  0  0
 18 24  1  0  0  0  0
 19 21  2  0  0  0  0
 19 22  1  0  0  0  0
 19 25  1  0  0  0  0
 20 23  1  0  0  0  0
 20 46  1  0  0  0  0
 21 47  1  0  0  0  0
 22 48  1  0  0  0  0
 23 49  1  0  0  0  0
 25 26  2  0  0  0  0
 25 27  1  0  0  0  0
 26 28  1  0  0  0  0
 26 50  1  0  0  0  0
 27 29  2  0  0  0  0
 27 51  1  0  0  0  0
 28 30  2  0  0  0  0
 28 52  1  0  0  0  0
 29 30  1  0  0  0  0
 29 53  1  0  0  0  0
 30 54  1  0  0  0  0
M  END
> <DATABASE_ID>
DB05454

> <DATABASE_NAME>
drugbank

> <ORIGINAL_SOURCE>
PUBCHEM

> <ORIGINAL_SOURCE_URL>
https://pubchem.ncbi.nlm.nih.gov/rest/pug/compound/inchikey/CNEWKIDCGDXBDE-UHFFFAOYSA-N/SDF?record_type=3d

> <SMILES>
FC(F)(F)C1=CC(=CC=C1)C1=CCN(CCC2=CC=C(C=C2)C2=CC=CC=C2)CC1

> <INCHI_IDENTIFIER>
InChI=1S/C26H24F3N/c27-26(28,29)25-8-4-7-24(19-25)23-14-17-30(18-15-23)16-13-20-9-11-22(12-10-20)21-5-2-1-3-6-21/h1-12,14,19H,13,15-18H2

> <INCHI_KEY>
CNEWKIDCGDXBDE-UHFFFAOYSA-N

> <FORMULA>
C26H24F3N

> <MOLECULAR_WEIGHT>
407.48

> <EXACT_MASS>
407.186084266

> <JCHEM_ACCEPTOR_COUNT>
1

> <JCHEM_ATOM_COUNT>
54

> <JCHEM_AVERAGE_POLARIZABILITY>
44.72032955407898

> <JCHEM_BIOAVAILABILITY>
1

> <JCHEM_DONOR_COUNT>
0

> <JCHEM_FORMAL_CHARGE>
0

> <JCHEM_GHOSE_FILTER>
0

> <JCHEM_IUPAC>
1-(2-{[1,1'-biphenyl]-4-yl}ethyl)-4-[3-(trifluoromethyl)phenyl]-1,2,3,6-tetrahydropyridine

> <ALOGPS_LOGP>
6.49

> <JCHEM_LOGP>
6.8886281443333335

> <ALOGPS_LOGS>
-6.41

> <JCHEM_MDDR_LIKE_RULE>
1

> <JCHEM_NUMBER_OF_RINGS>
4

> <JCHEM_PHYSIOLOGICAL_CHARGE>
1

> <JCHEM_PKA_STRONGEST_BASIC>
8.917965269954758

> <JCHEM_POLAR_SURFACE_AREA>
3.24

> <JCHEM_REFRACTIVITY>
117.94720000000002

> <JCHEM_ROTATABLE_BOND_COUNT>
6

> <JCHEM_RULE_OF_FIVE>
0

> <ALOGPS_SOLUBILITY>
1.58e-04 g/l

> <JCHEM_TRADITIONAL_IUPAC>
paliroden

> <JCHEM_VEBER_RULE>
1

> <DRUGBANK_ID>
DB05454

> <DRUG_GROUPS>
investigational

> <GENERIC_NAME>
Paliroden

> <SYNONYMS>
1-(2-(Biphenyl-4-yl)ethyl)-4-(3-(trifluoromethyl)phenyl)-1,2,3,6-tetrahydropyridine; Paliroden; Palirodenum

$$$$