6433099
  -OEChem-10051720473D

 66 70  0     0  0  0  0  0  0999 V2000
   -3.0392    2.0753    0.6201 O   0  0  0  0  0  0  0  0  0  0  0  0
    6.4582    3.7622   -1.3086 O   0  0  0  0  0  0  0  0  0  0  0  0
    0.2265   -5.7628    0.1321 O   0  0  0  0  0  0  0  0  0  0  0  0
   -6.2217    0.7353   -0.6695 N   0  0  0  0  0  0  0  0  0  0  0  0
    2.9633    0.0445    0.6646 N   0  0  0  0  0  0  0  0  0  0  0  0
   -6.9173    0.5024    0.6040 C   0  0  0  0  0  0  0  0  0  0  0  0
   -7.1503    1.2171   -1.7017 C   0  0  0  0  0  0  0  0  0  0  0  0
   -8.0384   -0.5249    0.4405 C   0  0  0  0  0  0  0  0  0  0  0  0
   -8.2791    0.2129   -1.9408 C   0  0  0  0  0  0  0  0  0  0  0  0
   -9.0206   -0.1057   -0.6475 C   0  0  0  0  0  0  0  0  0  0  0  0
   -5.1234    1.6837   -0.4864 C   0  0  0  0  0  0  0  0  0  0  0  0
   -4.0935    1.1311    0.4859 C   0  0  0  0  0  0  0  0  0  0  0  0
    3.0880   -0.9709   -0.2304 C   0  0  0  0  0  0  0  0  0  0  0  0
    3.7749    1.0959    0.3414 C   0  0  0  0  0  0  0  0  0  0  0  0
    4.0100   -0.5761   -1.1723 C   0  0  0  0  0  0  0  0  0  0  0  0
    4.4533    0.7304   -0.8233 C   0  0  0  0  0  0  0  0  0  0  0  0
    2.0754    0.0252    1.8319 C   0  0  0  0  0  0  0  0  0  0  0  0
    0.7236    0.5669    1.5114 C   0  0  0  0  0  0  0  0  0  0  0  0
    2.3475   -2.2112   -0.1370 C   0  0  0  0  0  0  0  0  0  0  0  0
    3.9679    2.3303    0.9718 C   0  0  0  0  0  0  0  0  0  0  0  0
    5.3694    1.6397   -1.3884 C   0  0  0  0  0  0  0  0  0  0  0  0
    4.4636   -1.3624   -2.3402 C   0  0  0  0  0  0  0  0  0  0  0  0
   -1.7970    1.5768    0.9143 C   0  0  0  0  0  0  0  0  0  0  0  0
    0.6008    1.7409    0.7686 C   0  0  0  0  0  0  0  0  0  0  0  0
   -0.4182   -0.1007    1.9549 C   0  0  0  0  0  0  0  0  0  0  0  0
    5.5726    2.8781   -0.7686 C   0  0  0  0  0  0  0  0  0  0  0  0
    4.8815    3.2159    0.3934 C   0  0  0  0  0  0  0  0  0  0  0  0
   -0.6637    2.2477    0.4692 C   0  0  0  0  0  0  0  0  0  0  0  0
   -1.6829    0.4060    1.6554 C   0  0  0  0  0  0  0  0  0  0  0  0
    2.8797   -3.2830    0.5743 C   0  0  0  0  0  0  0  0  0  0  0  0
    1.1070   -2.3253   -0.7588 C   0  0  0  0  0  0  0  0  0  0  0  0
    2.1661   -4.4782    0.6647 C   0  0  0  0  0  0  0  0  0  0  0  0
    0.3933   -3.5204   -0.6685 C   0  0  0  0  0  0  0  0  0  0  0  0
    0.9228   -4.5969    0.0434 C   0  0  0  0  0  0  0  0  0  0  0  0
   -7.3275    1.4380    1.0060 H   0  0  0  0  0  0  0  0  0  0  0  0
   -6.2546    0.0776    1.3623 H   0  0  0  0  0  0  0  0  0  0  0  0
   -6.6140    1.3576   -2.6480 H   0  0  0  0  0  0  0  0  0  0  0  0
   -7.5764    2.1894   -1.4208 H   0  0  0  0  0  0  0  0  0  0  0  0
   -8.5713   -0.6471    1.3904 H   0  0  0  0  0  0  0  0  0  0  0  0
   -7.6084   -1.5023    0.1869 H   0  0  0  0  0  0  0  0  0  0  0  0
   -8.9813    0.6143   -2.6802 H   0  0  0  0  0  0  0  0  0  0  0  0
   -7.8649   -0.7120   -2.3619 H   0  0  0  0  0  0  0  0  0  0  0  0
   -9.7536   -0.9013   -0.8199 H   0  0  0  0  0  0  0  0  0  0  0  0
   -9.5770    0.7799   -0.3168 H   0  0  0  0  0  0  0  0  0  0  0  0
   -5.4821    2.6609   -0.1362 H   0  0  0  0  0  0  0  0  0  0  0  0
   -4.6219    1.8717   -1.4450 H   0  0  0  0  0  0  0  0  0  0  0  0
   -4.5032    0.9913    1.4893 H   0  0  0  0  0  0  0  0  0  0  0  0
   -3.7322    0.1708    0.0941 H   0  0  0  0  0  0  0  0  0  0  0  0
    2.0305   -1.0036    2.2046 H   0  0  0  0  0  0  0  0  0  0  0  0
    2.5416    0.6150    2.6290 H   0  0  0  0  0  0  0  0  0  0  0  0
    3.4434    2.6058    1.8804 H   0  0  0  0  0  0  0  0  0  0  0  0
    5.9158    1.3881   -2.2932 H   0  0  0  0  0  0  0  0  0  0  0  0
    5.1552   -2.1496   -2.0227 H   0  0  0  0  0  0  0  0  0  0  0  0
    3.6169   -1.8344   -2.8497 H   0  0  0  0  0  0  0  0  0  0  0  0
    4.9781   -0.7391   -3.0778 H   0  0  0  0  0  0  0  0  0  0  0  0
    1.4449    2.3075    0.4038 H   0  0  0  0  0  0  0  0  0  0  0  0
   -0.3364   -1.0132    2.5397 H   0  0  0  0  0  0  0  0  0  0  0  0
    5.0464    4.1797    0.8698 H   0  0  0  0  0  0  0  0  0  0  0  0
   -0.7559    3.1633   -0.1082 H   0  0  0  0  0  0  0  0  0  0  0  0
   -2.5440   -0.1290    2.0434 H   0  0  0  0  0  0  0  0  0  0  0  0
    3.8472   -3.2053    1.0643 H   0  0  0  0  0  0  0  0  0  0  0  0
    0.6811   -1.4951   -1.3172 H   0  0  0  0  0  0  0  0  0  0  0  0
    2.5895   -5.3092    1.2224 H   0  0  0  0  0  0  0  0  0  0  0  0
   -0.5750   -3.6065   -1.1541 H   0  0  0  0  0  0  0  0  0  0  0  0
    6.4785    4.5645   -0.7591 H   0  0  0  0  0  0  0  0  0  0  0  0
    0.7405   -6.3973    0.6606 H   0  0  0  0  0  0  0  0  0  0  0  0
  1 12  1  0  0  0  0
  1 23  1  0  0  0  0
  2 26  1  0  0  0  0
  2 65  1  0  0  0  0
  3 34  1  0  0  0  0
  3 66  1  0  0  0  0
  4  6  1  0  0  0  0
  4  7  1  0  0  0  0
  4 11  1  0  0  0  0
  5 13  1  0  0  0  0
  5 14  1  0  0  0  0
  5 17  1  0  0  0  0
  6  8  1  0  0  0  0
  6 35  1  0  0  0  0
  6 36  1  0  0  0  0
  7  9  1  0  0  0  0
  7 37  1  0  0  0  0
  7 38  1  0  0  0  0
  8 10  1  0  0  0  0
  8 39  1  0  0  0  0
  8 40  1  0  0  0  0
  9 10  1  0  0  0  0
  9 41  1  0  0  0  0
  9 42  1  0  0  0  0
 10 43  1  0  0  0  0
 10 44  1  0  0  0  0
 11 12  1  0  0  0  0
 11 45  1  0  0  0  0
 11 46  1  0  0  0  0
 12 47  1  0  0  0  0
 12 48  1  0  0  0  0
 13 15  2  0  0  0  0
 13 19  1  0  0  0  0
 14 16  2  0  0  0  0
 14 20  1  0  0  0  0
 15 16  1  0  0  0  0
 15 22  1  0  0  0  0
 16 21  1  0  0  0  0
 17 18  1  0  0  0  0
 17 49  1  0  0  0  0
 17 50  1  0  0  0  0
 18 24  2  0  0  0  0
 18 25  1  0  0  0  0
 19 30  2  0  0  0  0
 19 31  1  0  0  0  0
 20 27  2  0  0  0  0
 20 51  1  0  0  0  0
 21 26  2  0  0  0  0
 21 52  1  0  0  0  0
 22 53  1  0  0  0  0
 22 54  1  0  0  0  0
 22 55  1  0  0  0  0
 23 28  2  0  0  0  0
 23 29  1  0  0  0  0
 24 28  1  0  0  0  0
 24 56  1  0  0  0  0
 25 29  2  0  0  0  0
 25 57  1  0  0  0  0
 26 27  1  0  0  0  0
 27 58  1  0  0  0  0
 28 59  1  0  0  0  0
 29 60  1  0  0  0  0
 30 32  1  0  0  0  0
 30 61  1  0  0  0  0
 31 33  2  0  0  0  0
 31 62  1  0  0  0  0
 32 34  2  0  0  0  0
 32 63  1  0  0  0  0
 33 34  1  0  0  0  0
 33 64  1  0  0  0  0
M  END
> <DATABASE_ID>
DB05414

> <DATABASE_NAME>
drugbank

> <ORIGINAL_SOURCE>
PUBCHEM

> <ORIGINAL_SOURCE_URL>
https://pubchem.ncbi.nlm.nih.gov/rest/pug/compound/inchikey/JICOGKJOQXTAIP-UHFFFAOYSA-N/SDF?record_type=3d

> <SMILES>
CC1=C(N(CC2=CC=C(OCCN3CCCCC3)C=C2)C2=C1C=C(O)C=C2)C1=CC=C(O)C=C1

> <INCHI_IDENTIFIER>
InChI=1S/C29H32N2O3/c1-21-27-19-25(33)11-14-28(27)31(29(21)23-7-9-24(32)10-8-23)20-22-5-12-26(13-6-22)34-18-17-30-15-3-2-4-16-30/h5-14,19,32-33H,2-4,15-18,20H2,1H3

> <INCHI_KEY>
JICOGKJOQXTAIP-UHFFFAOYSA-N

> <FORMULA>
C29H32N2O3

> <MOLECULAR_WEIGHT>
456.576

> <EXACT_MASS>
456.2412929

> <JCHEM_ACCEPTOR_COUNT>
4

> <JCHEM_AVERAGE_POLARIZABILITY>
52.180927138643064

> <JCHEM_BIOAVAILABILITY>
1

> <JCHEM_DONOR_COUNT>
2

> <JCHEM_FORMAL_CHARGE>
0

> <JCHEM_GHOSE_FILTER>
0

> <JCHEM_IUPAC>
2-(4-hydroxyphenyl)-3-methyl-1-({4-[2-(piperidin-1-yl)ethoxy]phenyl}methyl)-1H-indol-5-ol

> <ALOGPS_LOGP>
5.75

> <JCHEM_LOGP>
5.817052892762747

> <ALOGPS_LOGS>
-5.69

> <JCHEM_MDDR_LIKE_RULE>
1

> <JCHEM_NUMBER_OF_RINGS>
5

> <JCHEM_PHYSIOLOGICAL_CHARGE>
1

> <JCHEM_PKA>
10.173211873217303

> <JCHEM_PKA_STRONGEST_ACIDIC>
9.511108482815752

> <JCHEM_PKA_STRONGEST_BASIC>
8.77357864376236

> <JCHEM_POLAR_SURFACE_AREA>
57.86

> <JCHEM_REFRACTIVITY>
137.29479999999998

> <JCHEM_ROTATABLE_BOND_COUNT>
7

> <JCHEM_RULE_OF_FIVE>
0

> <ALOGPS_SOLUBILITY>
9.33e-04 g/l

> <JCHEM_TRADITIONAL_IUPAC>
pipendoxifene

> <JCHEM_VEBER_RULE>
0

> <DRUGBANK_ID>
DB05414

> <DRUG_GROUPS>
investigational

> <GENERIC_NAME>
Pipendoxifene

$$$$