636427
  -OEChem-12101721143D

 60 60  0     1  0  0  0  0  0999 V2000
   -2.3841   -2.0797   -2.7177 I   0  0  0  0  0  0  0  0  0  0  0  0
   -5.0257   -1.0713    1.1561 O   0  0  0  0  0  0  0  0  0  0  0  0
   -4.8753    0.3058   -0.6489 O   0  0  0  0  0  0  0  0  0  0  0  0
    0.1556    1.4803   -1.3462 C   0  0  0  0  0  0  0  0  0  0  0  0
    1.1620    2.3987   -2.0505 C   0  0  0  0  0  0  0  0  0  0  0  0
   -0.9559    2.2455   -0.6236 C   0  0  0  0  0  0  0  0  0  0  0  0
    1.8985    3.3992   -1.1524 C   0  0  0  0  0  0  0  0  0  0  0  0
   -1.9121    1.3469    0.1703 C   0  0  0  0  0  0  0  0  0  0  0  0
    2.7953    2.7788   -0.0767 C   0  0  0  0  0  0  0  0  0  0  0  0
   -3.0985    2.0472    0.8647 C   0  0  1  0  0  0  0  0  0  0  0  0
    3.9372    1.9440   -0.6609 C   0  0  0  0  0  0  0  0  0  0  0  0
    4.8877    1.3949    0.4084 C   0  0  0  0  0  0  0  0  0  0  0  0
    4.2432    0.4824    1.4577 C   0  0  0  0  0  0  0  0  0  0  0  0
    3.6389   -0.7897    0.8581 C   0  0  0  0  0  0  0  0  0  0  0  0
   -4.0622    1.0472    1.5258 C   0  0  0  0  0  0  0  0  0  0  0  0
    3.0069   -1.6734    1.9384 C   0  0  0  0  0  0  0  0  0  0  0  0
   -2.5472    3.0339    1.9049 C   0  0  0  0  0  0  0  0  0  0  0  0
    2.4188   -2.9731    1.3779 C   0  0  0  0  0  0  0  0  0  0  0  0
   -4.6756    0.0843    0.5362 C   0  0  0  0  0  0  0  0  0  0  0  0
    1.2831   -2.7623    0.4091 C   0  0  0  0  0  0  0  0  0  0  0  0
   -0.0299   -2.7027    0.8763 C   0  0  0  0  0  0  0  0  0  0  0  0
    1.5450   -2.6265   -0.9541 C   0  0  0  0  0  0  0  0  0  0  0  0
   -1.0809   -2.5074   -0.0197 C   0  0  0  0  0  0  0  0  0  0  0  0
    0.4941   -2.4313   -1.8503 C   0  0  0  0  0  0  0  0  0  0  0  0
   -0.8189   -2.3717   -1.3830 C   0  0  0  0  0  0  0  0  0  0  0  0
    0.6819    0.8330   -0.6358 H   0  0  0  0  0  0  0  0  0  0  0  0
   -0.2951    0.8206   -2.0964 H   0  0  0  0  0  0  0  0  0  0  0  0
    0.6235    2.9705   -2.8175 H   0  0  0  0  0  0  0  0  0  0  0  0
    1.8837    1.7809   -2.5962 H   0  0  0  0  0  0  0  0  0  0  0  0
   -1.5284    2.8290   -1.3545 H   0  0  0  0  0  0  0  0  0  0  0  0
   -0.5038    2.9567    0.0725 H   0  0  0  0  0  0  0  0  0  0  0  0
    2.5207    4.0348   -1.7959 H   0  0  0  0  0  0  0  0  0  0  0  0
    1.1842    4.0790   -0.6758 H   0  0  0  0  0  0  0  0  0  0  0  0
   -2.2976    0.5961   -0.5265 H   0  0  0  0  0  0  0  0  0  0  0  0
   -1.3324    0.7914    0.9196 H   0  0  0  0  0  0  0  0  0  0  0  0
    2.1790    2.1738    0.5960 H   0  0  0  0  0  0  0  0  0  0  0  0
    3.2190    3.5891    0.5294 H   0  0  0  0  0  0  0  0  0  0  0  0
   -3.6538    2.6192    0.1100 H   0  0  0  0  0  0  0  0  0  0  0  0
    4.5205    2.5680   -1.3494 H   0  0  0  0  0  0  0  0  0  0  0  0
    3.5445    1.1144   -1.2566 H   0  0  0  0  0  0  0  0  0  0  0  0
    5.6966    0.8480   -0.0917 H   0  0  0  0  0  0  0  0  0  0  0  0
    5.3608    2.2380    0.9273 H   0  0  0  0  0  0  0  0  0  0  0  0
    5.0166    0.1984    2.1828 H   0  0  0  0  0  0  0  0  0  0  0  0
    3.4827    1.0313    2.0238 H   0  0  0  0  0  0  0  0  0  0  0  0
    2.8742   -0.5023    0.1320 H   0  0  0  0  0  0  0  0  0  0  0  0
    4.4135   -1.3510    0.3225 H   0  0  0  0  0  0  0  0  0  0  0  0
   -3.5169    0.4710    2.2834 H   0  0  0  0  0  0  0  0  0  0  0  0
   -4.8820    1.5766    2.0238 H   0  0  0  0  0  0  0  0  0  0  0  0
    2.2237   -1.1086    2.4595 H   0  0  0  0  0  0  0  0  0  0  0  0
    3.7673   -1.9293    2.6863 H   0  0  0  0  0  0  0  0  0  0  0  0
   -1.8829    2.5343    2.6180 H   0  0  0  0  0  0  0  0  0  0  0  0
   -1.9968    3.8528    1.4324 H   0  0  0  0  0  0  0  0  0  0  0  0
   -3.3672    3.4880    2.4721 H   0  0  0  0  0  0  0  0  0  0  0  0
    3.2098   -3.5587    0.8916 H   0  0  0  0  0  0  0  0  0  0  0  0
    2.0678   -3.5944    2.2120 H   0  0  0  0  0  0  0  0  0  0  0  0
   -0.2464   -2.8037    1.9365 H   0  0  0  0  0  0  0  0  0  0  0  0
    2.5626   -2.6748   -1.3326 H   0  0  0  0  0  0  0  0  0  0  0  0
   -5.4428   -1.7071    0.5362 H   0  0  0  0  0  0  0  0  0  0  0  0
   -2.0963   -2.4609    0.3657 H   0  0  0  0  0  0  0  0  0  0  0  0
    0.7205   -2.3272   -2.9084 H   0  0  0  0  0  0  0  0  0  0  0  0
  1 25  1  0  0  0  0
  2 19  1  0  0  0  0
  2 58  1  0  0  0  0
  3 19  2  0  0  0  0
  4  5  1  0  0  0  0
  4  6  1  0  0  0  0
  4 26  1  0  0  0  0
  4 27  1  0  0  0  0
  5  7  1  0  0  0  0
  5 28  1  0  0  0  0
  5 29  1  0  0  0  0
  6  8  1  0  0  0  0
  6 30  1  0  0  0  0
  6 31  1  0  0  0  0
  7  9  1  0  0  0  0
  7 32  1  0  0  0  0
  7 33  1  0  0  0  0
  8 10  1  0  0  0  0
  8 34  1  0  0  0  0
  8 35  1  0  0  0  0
  9 11  1  0  0  0  0
  9 36  1  0  0  0  0
  9 37  1  0  0  0  0
 10 15  1  0  0  0  0
 10 17  1  0  0  0  0
 10 38  1  0  0  0  0
 11 12  1  0  0  0  0
 11 39  1  0  0  0  0
 11 40  1  0  0  0  0
 12 13  1  0  0  0  0
 12 41  1  0  0  0  0
 12 42  1  0  0  0  0
 13 14  1  0  0  0  0
 13 43  1  0  0  0  0
 13 44  1  0  0  0  0
 14 16  1  0  0  0  0
 14 45  1  0  0  0  0
 14 46  1  0  0  0  0
 15 19  1  0  0  0  0
 15 47  1  0  0  0  0
 15 48  1  0  0  0  0
 16 18  1  0  0  0  0
 16 49  1  0  0  0  0
 16 50  1  0  0  0  0
 17 51  1  0  0  0  0
 17 52  1  0  0  0  0
 17 53  1  0  0  0  0
 18 20  1  0  0  0  0
 18 54  1  0  0  0  0
 18 55  1  0  0  0  0
 20 21  2  0  0  0  0
 20 22  1  0  0  0  0
 21 23  1  0  0  0  0
 21 56  1  0  0  0  0
 22 24  2  0  0  0  0
 22 57  1  0  0  0  0
 23 25  2  0  0  0  0
 23 59  1  0  0  0  0
 24 25  1  0  0  0  0
 24 60  1  0  0  0  0
M  ISO  1   1 123
M  END
> <DATABASE_ID>
DB05683

> <DATABASE_NAME>
drugbank

> <ORIGINAL_SOURCE>
PUBCHEM

> <ORIGINAL_SOURCE_URL>
https://pubchem.ncbi.nlm.nih.gov/rest/pug/compound/inchikey/NPCIWINHUDIWAV-NSYCNWAXSA-N/SDF?record_type=3d

> <SMILES>
CC(CCCCCCCCCCCCC1=CC=C([123I])C=C1)CC(O)=O

> <INCHI_IDENTIFIER>
InChI=1S/C22H35IO2/c1-19(18-22(24)25)12-10-8-6-4-2-3-5-7-9-11-13-20-14-16-21(23)17-15-20/h14-17,19H,2-13,18H2,1H3,(H,24,25)/i23-4

> <INCHI_KEY>
NPCIWINHUDIWAV-NSYCNWAXSA-N

> <FORMULA>
C22H35IO2

> <MOLECULAR_WEIGHT>
454.426

> <EXACT_MASS>
454.169303311

> <JCHEM_ACCEPTOR_COUNT>
2

> <JCHEM_ATOM_COUNT>
60

> <JCHEM_AVERAGE_POLARIZABILITY>
48.7614675949497

> <JCHEM_BIOAVAILABILITY>
0

> <JCHEM_DONOR_COUNT>
1

> <JCHEM_FORMAL_CHARGE>
0

> <JCHEM_GHOSE_FILTER>
0

> <JCHEM_IUPAC>
15-[4-(¹²³I)iodophenyl]-3-methylpentadecanoic acid

> <ALOGPS_LOGP>
7.30

> <JCHEM_LOGP>
8.606350325000001

> <ALOGPS_LOGS>
-7.83

> <JCHEM_MDDR_LIKE_RULE>
0

> <JCHEM_NUMBER_OF_RINGS>
1

> <JCHEM_PHYSIOLOGICAL_CHARGE>
-1

> <JCHEM_PKA_STRONGEST_ACIDIC>
4.998375207124867

> <JCHEM_POLAR_SURFACE_AREA>
37.3

> <JCHEM_REFRACTIVITY>
115.08969999999998

> <JCHEM_ROTATABLE_BOND_COUNT>
15

> <JCHEM_RULE_OF_FIVE>
0

> <ALOGPS_SOLUBILITY>
6.82e-06 g/l

> <JCHEM_TRADITIONAL_IUPAC>
I-123 bmipp

> <JCHEM_VEBER_RULE>
0

> <DRUGBANK_ID>
DB05683

> <DRUG_GROUPS>
investigational

> <GENERIC_NAME>
Iodofiltic acid I-123

> <SYNONYMS>
I-123 BMIPP; Iodofiltic acid (123I); Iodofiltic acid I 123

$$$$