9825701
  -OEChem-01162020153D

 52 56  0     1  0  0  0  0  0999 V2000
   -4.9737    0.2515   -1.5329 S   0  0  0  0  0  0  0  0  0  0  0  0
   -1.3524   -0.8553    2.3723 S   0  0  0  0  0  0  0  0  0  0  0  0
    1.0146    2.9242    0.0978 O   0  0  0  0  0  0  0  0  0  0  0  0
    4.8183    0.3152    0.1636 O   0  0  0  0  0  0  0  0  0  0  0  0
   -5.4168   -2.1454    1.4592 O   0  0  0  0  0  0  0  0  0  0  0  0
   -7.3429   -0.4904   -2.3981 O   0  0  0  0  0  0  0  0  0  0  0  0
   -6.5366   -1.4479   -0.4401 N   0  0  0  0  0  0  0  0  0  0  0  0
    3.0238    0.5690   -1.1895 N   0  0  0  0  0  0  0  0  0  0  0  0
   -4.0139    0.4792    1.0436 C   0  0  0  0  0  0  0  0  0  0  0  0
   -2.6644    1.0869    0.8246 C   0  0  0  0  0  0  0  0  0  0  0  0
   -4.3598   -0.5546   -0.0224 C   0  0  1  0  0  0  0  0  0  0  0  0
   -1.4868    0.5464    1.3772 C   0  0  0  0  0  0  0  0  0  0  0  0
   -0.2379    1.1349    1.1550 C   0  0  0  0  0  0  0  0  0  0  0  0
   -0.1803    2.3005    0.3532 C   0  0  0  0  0  0  0  0  0  0  0  0
   -2.5747    2.2371    0.0383 C   0  0  0  0  0  0  0  0  0  0  0  0
   -1.3467    2.8394   -0.1962 C   0  0  0  0  0  0  0  0  0  0  0  0
   -5.4716   -1.4707    0.4367 C   0  0  0  0  0  0  0  0  0  0  0  0
    0.8053    0.4057    1.8185 C   0  0  0  0  0  0  0  0  0  0  0  0
    1.4024    3.0270   -1.2664 C   0  0  0  0  0  0  0  0  0  0  0  0
    2.9247    3.0331   -1.3705 C   0  0  0  0  0  0  0  0  0  0  0  0
    3.5493    1.7706   -0.8488 C   0  0  0  0  0  0  0  0  0  0  0  0
    0.3383   -0.6873    2.5090 C   0  0  0  0  0  0  0  0  0  0  0  0
   -6.4885   -0.6260   -1.5353 C   0  0  0  0  0  0  0  0  0  0  0  0
    4.6253    1.6483   -0.0386 C   0  0  0  0  0  0  0  0  0  0  0  0
    3.8199   -0.2640   -0.5580 C   0  0  0  0  0  0  0  0  0  0  0  0
    5.5603    2.5660    0.6212 C   0  0  0  0  0  0  0  0  0  0  0  0
    3.7901   -1.6998   -0.5182 C   0  0  0  0  0  0  0  0  0  0  0  0
    4.7428   -2.4029    0.2249 C   0  0  0  0  0  0  0  0  0  0  0  0
    2.8080   -2.4029   -1.2219 C   0  0  0  0  0  0  0  0  0  0  0  0
    4.7136   -3.7969    0.2640 C   0  0  0  0  0  0  0  0  0  0  0  0
    2.7788   -3.7969   -1.1828 C   0  0  0  0  0  0  0  0  0  0  0  0
    3.7315   -4.4940   -0.4398 C   0  0  0  0  0  0  0  0  0  0  0  0
   -4.7804    1.2651    1.1040 H   0  0  0  0  0  0  0  0  0  0  0  0
   -4.0431    0.0191    2.0392 H   0  0  0  0  0  0  0  0  0  0  0  0
   -3.5033   -1.1854   -0.2859 H   0  0  0  0  0  0  0  0  0  0  0  0
   -3.4657    2.6911   -0.3879 H   0  0  0  0  0  0  0  0  0  0  0  0
   -1.3082    3.7412   -0.8015 H   0  0  0  0  0  0  0  0  0  0  0  0
    1.8528    0.6779    1.7935 H   0  0  0  0  0  0  0  0  0  0  0  0
    3.3163    3.8864   -0.8033 H   0  0  0  0  0  0  0  0  0  0  0  0
    3.2215    3.1666   -2.4170 H   0  0  0  0  0  0  0  0  0  0  0  0
    1.0105    3.9667   -1.6722 H   0  0  0  0  0  0  0  0  0  0  0  0
    0.9886    2.1996   -1.8582 H   0  0  0  0  0  0  0  0  0  0  0  0
    0.9146   -1.3945    3.0884 H   0  0  0  0  0  0  0  0  0  0  0  0
   -7.3528   -2.0259   -0.2679 H   0  0  0  0  0  0  0  0  0  0  0  0
    5.0935    3.0177    1.5017 H   0  0  0  0  0  0  0  0  0  0  0  0
    6.4674    2.0464    0.9458 H   0  0  0  0  0  0  0  0  0  0  0  0
    5.8603    3.3699   -0.0581 H   0  0  0  0  0  0  0  0  0  0  0  0
    5.5237   -1.8969    0.7872 H   0  0  0  0  0  0  0  0  0  0  0  0
    2.0540   -1.8814   -1.8069 H   0  0  0  0  0  0  0  0  0  0  0  0
    5.4551   -4.3401    0.8425 H   0  0  0  0  0  0  0  0  0  0  0  0
    2.0139   -4.3398   -1.7304 H   0  0  0  0  0  0  0  0  0  0  0  0
    3.7087   -5.5794   -0.4092 H   0  0  0  0  0  0  0  0  0  0  0  0
  1 11  1  0  0  0  0
  1 23  1  0  0  0  0
  2 12  1  0  0  0  0
  2 22  1  0  0  0  0
  3 14  1  0  0  0  0
  3 19  1  0  0  0  0
  4 24  1  0  0  0  0
  4 25  1  0  0  0  0
  5 17  2  0  0  0  0
  6 23  2  0  0  0  0
  7 17  1  0  0  0  0
  7 23  1  0  0  0  0
  7 44  1  0  0  0  0
  8 21  1  0  0  0  0
  8 25  2  0  0  0  0
  9 10  1  0  0  0  0
  9 11  1  0  0  0  0
  9 33  1  0  0  0  0
  9 34  1  0  0  0  0
 10 12  2  0  0  0  0
 10 15  1  0  0  0  0
 11 17  1  0  0  0  0
 11 35  1  0  0  0  0
 12 13  1  0  0  0  0
 13 14  2  0  0  0  0
 13 18  1  0  0  0  0
 14 16  1  0  0  0  0
 15 16  2  0  0  0  0
 15 36  1  0  0  0  0
 16 37  1  0  0  0  0
 18 22  2  0  0  0  0
 18 38  1  0  0  0  0
 19 20  1  0  0  0  0
 19 41  1  0  0  0  0
 19 42  1  0  0  0  0
 20 21  1  0  0  0  0
 20 39  1  0  0  0  0
 20 40  1  0  0  0  0
 21 24  2  0  0  0  0
 22 43  1  0  0  0  0
 24 26  1  0  0  0  0
 25 27  1  0  0  0  0
 26 45  1  0  0  0  0
 26 46  1  0  0  0  0
 26 47  1  0  0  0  0
 27 28  2  0  0  0  0
 27 29  1  0  0  0  0
 28 30  1  0  0  0  0
 28 48  1  0  0  0  0
 29 31  2  0  0  0  0
 29 49  1  0  0  0  0
 30 32  2  0  0  0  0
 30 50  1  0  0  0  0
 31 32  1  0  0  0  0
 31 51  1  0  0  0  0
 32 52  1  0  0  0  0
M  END
> <DATABASE_ID>
DB06519

> <DATABASE_NAME>
drugbank

> <ORIGINAL_SOURCE>
PUBCHEM

> <ORIGINAL_SOURCE_URL>
https://pubchem.ncbi.nlm.nih.gov/rest/pug/compound/inchikey/HAAXAFNSRADSMK-UHFFFAOYSA-N/SDF?record_type=3d

> <SMILES>
CC1=C(CCOC2=C3C=CSC3=C(CC3SC(=O)NC3=O)C=C2)N=C(O1)C1=CC=CC=C1

> <INCHI_IDENTIFIER>
InChI=1S/C24H20N2O4S2/c1-14-18(25-23(30-14)15-5-3-2-4-6-15)9-11-29-19-8-7-16(21-17(19)10-12-31-21)13-20-22(27)26-24(28)32-20/h2-8,10,12,20H,9,11,13H2,1H3,(H,26,27,28)

> <INCHI_KEY>
HAAXAFNSRADSMK-UHFFFAOYSA-N

> <FORMULA>
C24H20N2O4S2

> <MOLECULAR_WEIGHT>
464.55

> <EXACT_MASS>
464.08644948

> <JCHEM_ACCEPTOR_COUNT>
4

> <JCHEM_ATOM_COUNT>
52

> <JCHEM_AVERAGE_NEUTRAL_MICROSPECIES_CHARGE>
0.8955187356913121

> <JCHEM_AVERAGE_POLARIZABILITY>
48.36362422812289

> <JCHEM_BIOAVAILABILITY>
1

> <JCHEM_DONOR_COUNT>
1

> <JCHEM_FORMAL_CHARGE>
0

> <JCHEM_GHOSE_FILTER>
0

> <JCHEM_IUPAC>
5-({4-[2-(5-methyl-2-phenyl-1,3-oxazol-4-yl)ethoxy]-1-benzothiophen-7-yl}methyl)-1,3-thiazolidine-2,4-dione

> <ALOGPS_LOGP>
5.06

> <JCHEM_LOGP>
4.874860592

> <ALOGPS_LOGS>
-4.81

> <JCHEM_MDDR_LIKE_RULE>
1

> <JCHEM_NEUTRAL_CHARGE>
-1

> <JCHEM_NUMBER_OF_RINGS>
5

> <JCHEM_PHYSIOLOGICAL_CHARGE>
-1

> <JCHEM_PKA>
16.34131383110469

> <JCHEM_PKA_STRONGEST_ACIDIC>
6.613577611093224

> <JCHEM_PKA_STRONGEST_BASIC>
0.9330627456119646

> <JCHEM_POLAR_SURFACE_AREA>
81.43

> <JCHEM_REFRACTIVITY>
134.20630000000003

> <JCHEM_ROTATABLE_BOND_COUNT>
7

> <JCHEM_RULE_OF_FIVE>
1

> <ALOGPS_SOLUBILITY>
7.22e-03 g/l

> <JCHEM_TRADITIONAL_IUPAC>
edaglitazone

> <JCHEM_VEBER_RULE>
0

> <DRUGBANK_ID>
DB06519

> <DRUG_GROUPS>
investigational

> <GENERIC_NAME>
Edaglitazone

> <SYNONYMS>
Edaglitazone

> <SALTS>
Edaglitazone sodium

$$$$