11635763
  -OEChem-01032017463D

 78 85  0     1  0  0  0  0  0999 V2000
    0.3377    4.2668    0.8317 F   0  0  0  0  0  0  0  0  0  0  0  0
    2.2634   -0.0412    0.4891 O   0  0  0  0  0  0  0  0  0  0  0  0
   -3.6256    1.1718    0.3613 O   0  0  0  0  0  0  0  0  0  0  0  0
   -4.0947   -2.7706   -0.5722 O   0  0  0  0  0  0  0  0  0  0  0  0
   -8.2277    0.9844   -1.4621 N   0  0  1  0  0  0  0  0  0  0  0  0
    2.5568    2.6481    0.7655 N   0  0  3  0  0  0  0  0  0  0  0  0
   -0.3057   -1.2419    0.2640 N   0  0  0  0  0  0  0  0  0  0  0  0
   -5.0440   -1.0821    0.7249 N   0  0  0  0  0  0  0  0  0  0  0  0
    5.0011    1.6460   -1.0991 N   0  0  0  0  0  0  0  0  0  0  0  0
    7.7011    2.3136   -1.4608 N   0  0  0  0  0  0  0  0  0  0  0  0
   -7.3284    0.4631   -0.4234 C   0  0  1  0  0  0  0  0  0  0  0  0
   -7.9531    1.0022    0.8653 C   0  0  0  0  0  0  0  0  0  0  0  0
    4.6059    3.6997    0.1840 C   0  0  1  0  0  0  0  0  0  0  0  0
   -8.7361    2.2415    0.4456 C   0  0  0  0  0  0  0  0  0  0  0  0
   -8.5180    2.3609   -1.0534 C   0  0  0  0  0  0  0  0  0  0  0  0
    3.1071    3.6330   -0.1666 C   0  0  0  0  0  0  0  0  0  0  0  0
    4.6062    3.3634    1.6784 C   0  0  0  0  0  0  0  0  0  0  0  0
    3.5025    2.3163    1.8272 C   0  0  0  0  0  0  0  0  0  0  0  0
   -7.2338   -1.0573   -0.4127 C   0  0  0  0  0  0  0  0  0  0  0  0
    1.2952    2.1019    0.6588 C   0  0  0  0  0  0  0  0  0  0  0  0
   -6.3981   -1.5873    0.7463 C   0  0  0  0  0  0  0  0  0  0  0  0
   -7.6531    0.9350   -2.8011 C   0  0  0  0  0  0  0  0  0  0  0  0
    5.5294    2.7795   -0.5966 C   0  0  0  0  0  0  0  0  0  0  0  0
    1.1222    0.7233    0.5163 C   0  0  0  0  0  0  0  0  0  0  0  0
   -0.1571    0.1681    0.4082 C   0  0  0  0  0  0  0  0  0  0  0  0
    0.1838    2.9420    0.6947 C   0  0  0  0  0  0  0  0  0  0  0  0
   -1.2679    1.0276    0.4458 C   0  0  0  0  0  0  0  0  0  0  0  0
   -1.1002    2.4092    0.5885 C   0  0  0  0  0  0  0  0  0  0  0  0
    0.8763   -2.0460    0.2344 C   0  0  0  0  0  0  0  0  0  0  0  0
   -2.7308   -1.0143    0.1858 C   0  0  0  0  0  0  0  0  0  0  0  0
   -2.6307    0.4589    0.3328 C   0  0  0  0  0  0  0  0  0  0  0  0
   -1.6003   -1.7353    0.1625 C   0  0  0  0  0  0  0  0  0  0  0  0
    2.1239   -1.4063    0.3494 C   0  0  0  0  0  0  0  0  0  0  0  0
    6.8556    3.1074   -0.7741 C   0  0  0  0  0  0  0  0  0  0  0  0
   -4.0081   -1.7208    0.0651 C   0  0  0  0  0  0  0  0  0  0  0  0
    0.8812   -3.4456    0.0970 C   0  0  0  0  0  0  0  0  0  0  0  0
    3.3234   -2.1275    0.3289 C   0  0  0  0  0  0  0  0  0  0  0  0
    2.0791   -4.1895    0.0743 C   0  0  0  0  0  0  0  0  0  0  0  0
    3.3157   -3.5202    0.1919 C   0  0  0  0  0  0  0  0  0  0  0  0
    5.8466    0.8522   -1.7859 C   0  0  0  0  0  0  0  0  0  0  0  0
    7.1728    1.1800   -1.9634 C   0  0  0  0  0  0  0  0  0  0  0  0
    2.0714   -5.5880   -0.0635 C   0  0  0  0  0  0  0  0  0  0  0  0
    4.5089   -4.2614    0.1694 C   0  0  0  0  0  0  0  0  0  0  0  0
    3.2643   -6.3117   -0.0843 C   0  0  0  0  0  0  0  0  0  0  0  0
    4.4818   -5.6490    0.0320 C   0  0  0  0  0  0  0  0  0  0  0  0
   -6.3305    0.9071   -0.5422 H   0  0  0  0  0  0  0  0  0  0  0  0
   -8.6407    0.2846    1.3290 H   0  0  0  0  0  0  0  0  0  0  0  0
   -7.1846    1.2555    1.6039 H   0  0  0  0  0  0  0  0  0  0  0  0
    4.9563    4.7271    0.0215 H   0  0  0  0  0  0  0  0  0  0  0  0
   -8.3949    3.1367    0.9751 H   0  0  0  0  0  0  0  0  0  0  0  0
   -9.7997    2.1019    0.6726 H   0  0  0  0  0  0  0  0  0  0  0  0
   -7.6702    3.0298   -1.2510 H   0  0  0  0  0  0  0  0  0  0  0  0
   -9.4026    2.7624   -1.5576 H   0  0  0  0  0  0  0  0  0  0  0  0
    2.6418    4.6082    0.0177 H   0  0  0  0  0  0  0  0  0  0  0  0
    2.9310    3.3540   -1.2112 H   0  0  0  0  0  0  0  0  0  0  0  0
    5.5674    3.0075    2.0625 H   0  0  0  0  0  0  0  0  0  0  0  0
    4.3285    4.2585    2.2500 H   0  0  0  0  0  0  0  0  0  0  0  0
    3.9220    1.3149    1.6901 H   0  0  0  0  0  0  0  0  0  0  0  0
    3.0408    2.3733    2.8186 H   0  0  0  0  0  0  0  0  0  0  0  0
   -8.2363   -1.5003   -0.3542 H   0  0  0  0  0  0  0  0  0  0  0  0
   -6.7920   -1.4068   -1.3539 H   0  0  0  0  0  0  0  0  0  0  0  0
   -6.8325   -1.3190    1.7142 H   0  0  0  0  0  0  0  0  0  0  0  0
   -6.3649   -2.6816    0.6970 H   0  0  0  0  0  0  0  0  0  0  0  0
   -7.4936   -0.0995   -3.1213 H   0  0  0  0  0  0  0  0  0  0  0  0
   -6.6973    1.4672   -2.8661 H   0  0  0  0  0  0  0  0  0  0  0  0
   -8.3423    1.3819   -3.5264 H   0  0  0  0  0  0  0  0  0  0  0  0
   -4.8672   -0.2266    1.2423 H   0  0  0  0  0  0  0  0  0  0  0  0
   -1.9526    3.0819    0.6188 H   0  0  0  0  0  0  0  0  0  0  0  0
   -1.6641   -2.8108    0.0638 H   0  0  0  0  0  0  0  0  0  0  0  0
    7.2898    4.0152   -0.3721 H   0  0  0  0  0  0  0  0  0  0  0  0
   -0.0490   -3.9997    0.0030 H   0  0  0  0  0  0  0  0  0  0  0  0
    4.2673   -1.5923    0.4207 H   0  0  0  0  0  0  0  0  0  0  0  0
    5.4226   -0.0593   -2.1886 H   0  0  0  0  0  0  0  0  0  0  0  0
    7.8515    0.5413   -2.5148 H   0  0  0  0  0  0  0  0  0  0  0  0
    1.1315   -6.1285   -0.1561 H   0  0  0  0  0  0  0  0  0  0  0  0
    5.4717   -3.7623    0.2588 H   0  0  0  0  0  0  0  0  0  0  0  0
    3.2415   -7.3922   -0.1915 H   0  0  0  0  0  0  0  0  0  0  0  0
    5.4109   -6.2112    0.0159 H   0  0  0  0  0  0  0  0  0  0  0  0
  1 26  1  0  0  0  0
  2 24  1  0  0  0  0
  2 33  1  0  0  0  0
  3 31  2  0  0  0  0
  4 35  2  0  0  0  0
  5 11  1  0  0  0  0
  5 15  1  0  0  0  0
  5 22  1  0  0  0  0
  6 16  1  0  0  0  0
  6 18  1  0  0  0  0
  6 20  1  0  0  0  0
  7 25  1  0  0  0  0
  7 29  1  0  0  0  0
  7 32  1  0  0  0  0
  8 21  1  0  0  0  0
  8 35  1  0  0  0  0
  8 67  1  0  0  0  0
  9 23  2  0  0  0  0
  9 40  1  0  0  0  0
 10 34  2  0  0  0  0
 10 41  1  0  0  0  0
 11 12  1  0  0  0  0
 11 19  1  0  0  0  0
 11 46  1  0  0  0  0
 12 14  1  0  0  0  0
 12 47  1  0  0  0  0
 12 48  1  0  0  0  0
 13 16  1  0  0  0  0
 13 17  1  0  0  0  0
 13 23  1  0  0  0  0
 13 49  1  0  0  0  0
 14 15  1  0  0  0  0
 14 50  1  0  0  0  0
 14 51  1  0  0  0  0
 15 52  1  0  0  0  0
 15 53  1  0  0  0  0
 16 54  1  0  0  0  0
 16 55  1  0  0  0  0
 17 18  1  0  0  0  0
 17 56  1  0  0  0  0
 17 57  1  0  0  0  0
 18 58  1  0  0  0  0
 18 59  1  0  0  0  0
 19 21  1  0  0  0  0
 19 60  1  0  0  0  0
 19 61  1  0  0  0  0
 20 24  1  0  0  0  0
 20 26  2  0  0  0  0
 21 62  1  0  0  0  0
 21 63  1  0  0  0  0
 22 64  1  0  0  0  0
 22 65  1  0  0  0  0
 22 66  1  0  0  0  0
 23 34  1  0  0  0  0
 24 25  2  0  0  0  0
 25 27  1  0  0  0  0
 26 28  1  0  0  0  0
 27 28  2  0  0  0  0
 27 31  1  0  0  0  0
 28 68  1  0  0  0  0
 29 33  1  0  0  0  0
 29 36  2  0  0  0  0
 30 31  1  0  0  0  0
 30 32  2  0  0  0  0
 30 35  1  0  0  0  0
 32 69  1  0  0  0  0
 33 37  2  0  0  0  0
 34 70  1  0  0  0  0
 36 38  1  0  0  0  0
 36 71  1  0  0  0  0
 37 39  1  0  0  0  0
 37 72  1  0  0  0  0
 38 39  1  0  0  0  0
 38 42  2  0  0  0  0
 39 43  2  0  0  0  0
 40 41  2  0  0  0  0
 40 73  1  0  0  0  0
 41 74  1  0  0  0  0
 42 44  1  0  0  0  0
 42 75  1  0  0  0  0
 43 45  1  0  0  0  0
 43 76  1  0  0  0  0
 44 45  2  0  0  0  0
 44 77  1  0  0  0  0
 45 78  1  0  0  0  0
M  END
> <DATABASE_ID>
DB06638

> <DATABASE_NAME>
drugbank

> <ORIGINAL_SOURCE>
PUBCHEM

> <ORIGINAL_SOURCE_URL>
https://pubchem.ncbi.nlm.nih.gov/rest/pug/compound/inchikey/WOQIDNWTQOYDLF-CGAIIQECSA-N/SDF?record_type=3d

> <SMILES>
CN1CCC[C@H]1CCNC(=O)C1=CN2C3=C(OC4=C2C(=CC(F)=C4N2CCC(C2)C2=CN=CC=N2)C1=O)C=C1C=CC=CC1=C3

> <INCHI_IDENTIFIER>
InChI=1S/C35H33FN6O3/c1-40-13-4-7-24(40)8-10-39-35(44)26-20-42-29-15-21-5-2-3-6-22(21)16-30(29)45-34-31(42)25(33(26)43)17-27(36)32(34)41-14-9-23(19-41)28-18-37-11-12-38-28/h2-3,5-6,11-12,15-18,20,23-24H,4,7-10,13-14,19H2,1H3,(H,39,44)/t23?,24-/m0/s1

> <INCHI_KEY>
WOQIDNWTQOYDLF-CGAIIQECSA-N

> <FORMULA>
C35H33FN6O3

> <MOLECULAR_WEIGHT>
604.686

> <EXACT_MASS>
604.25981711

> <JCHEM_ACCEPTOR_COUNT>
7

> <JCHEM_ATOM_COUNT>
78

> <JCHEM_AVERAGE_NEUTRAL_MICROSPECIES_CHARGE>
0.9948362883789413

> <JCHEM_AVERAGE_POLARIZABILITY>
66.20010836956476

> <JCHEM_BIOAVAILABILITY>
1

> <JCHEM_DONOR_COUNT>
1

> <JCHEM_FORMAL_CHARGE>
0

> <JCHEM_GHOSE_FILTER>
0

> <JCHEM_IUPAC>
15-fluoro-N-{2-[(2S)-1-methylpyrrolidin-2-yl]ethyl}-18-oxo-14-[3-(pyrazin-2-yl)pyrrolidin-1-yl]-12-oxa-1-azapentacyclo[11.7.1.0^{2,11}.0^{4,9}.0^{17,21}]henicosa-2(11),3,5,7,9,13(21),14,16,19-nonaene-19-carboxamide

> <JCHEM_LOGP>
3.4832292083333343

> <JCHEM_MDDR_LIKE_RULE>
1

> <JCHEM_NEUTRAL_CHARGE>
1

> <JCHEM_NUMBER_OF_RINGS>
8

> <JCHEM_PHYSIOLOGICAL_CHARGE>
1

> <JCHEM_PKA_STRONGEST_ACIDIC>
14.82357324377756

> <JCHEM_PKA_STRONGEST_BASIC>
9.284112777964204

> <JCHEM_POLAR_SURFACE_AREA>
90.9

> <JCHEM_REFRACTIVITY>
169.69359999999995

> <JCHEM_ROTATABLE_BOND_COUNT>
6

> <JCHEM_RULE_OF_FIVE>
0

> <JCHEM_TRADITIONAL_IUPAC>
(2S)-2-({4-[(2E)-N-({2-amino-4-oxo-1H-pyrido[3,2-d]pyrimidin-6-yl}methyl)-3-{5-carbamoyl-3-[(2R,3R,4S,5R)-3,4-dihydroxy-5-[(phosphonooxy)methyl]oxolan-2-yl]imidazol-4-yl}prop-2-enamido]phenyl}formamido)pentanedioic acid

> <JCHEM_VEBER_RULE>
0

> <DRUGBANK_ID>
DB06638

> <DRUG_GROUPS>
investigational

> <GENERIC_NAME>
Quarfloxin

> <SYNONYMS>
Itarnafloxin; Itarnafloxina; Itarnafloxine; Itarnafloxinum; Quarfloxin

$$$$