3013050
  -OEChem-10061700053D

 87 93  0     1  0  0  0  0  0999 V2000
   -9.2420    1.4133    1.9804 F   0  0  0  0  0  0  0  0  0  0  0  0
  -10.5758    3.1977   -2.1941 F   0  0  0  0  0  0  0  0  0  0  0  0
   -6.4208   -1.0420   -0.0557 O   0  0  0  0  0  0  0  0  0  0  0  0
   -7.0919   -2.3721    1.7457 O   0  0  0  0  0  0  0  0  0  0  0  0
   -4.2491   -2.7589   -0.4976 O   0  0  0  0  0  0  0  0  0  0  0  0
    9.5444    2.4035    0.7713 O   0  0  0  0  0  0  0  0  0  0  0  0
    3.9929   -0.9937   -0.2723 N   0  0  0  0  0  0  0  0  0  0  0  0
    1.1803   -1.5991   -0.3499 N   0  0  0  0  0  0  0  0  0  0  0  0
   11.4717    1.2212    0.1874 N   0  0  0  0  0  0  0  0  0  0  0  0
    9.4722    0.1898   -0.1240 N   0  0  0  0  0  0  0  0  0  0  0  0
   -5.4822    1.4878    0.9557 N   0  0  0  0  0  0  0  0  0  0  0  0
   -5.8882    2.7360    0.6780 N   0  0  0  0  0  0  0  0  0  0  0  0
   -3.8070    2.3189   -0.1749 N   0  0  0  0  0  0  0  0  0  0  0  0
   -7.2552   -0.2463    0.8102 C   0  0  1  0  0  0  0  0  0  0  0  0
   -8.0234   -1.3014    1.6035 C   0  0  0  0  0  0  0  0  0  0  0  0
   -6.3298    0.5776    1.7158 C   0  0  0  0  0  0  0  0  0  0  0  0
   -6.3743   -2.3551    0.5119 C   0  0  2  0  0  0  0  0  0  0  0  0
   -8.1510    0.6803    0.0038 C   0  0  0  0  0  0  0  0  0  0  0  0
    3.0699   -0.4132    0.7029 C   0  0  0  0  0  0  0  0  0  0  0  0
    3.4429   -1.8915   -1.2879 C   0  0  0  0  0  0  0  0  0  0  0  0
    1.8569   -1.3227    0.9173 C   0  0  0  0  0  0  0  0  0  0  0  0
    1.9765   -1.5586   -1.5762 C   0  0  0  0  0  0  0  0  0  0  0  0
   11.8149   -0.0984   -0.2795 C   0  0  0  0  0  0  0  0  0  0  0  0
   10.4791   -0.7271   -0.6340 C   0  0  0  0  0  0  0  0  0  0  0  0
   -4.9365   -2.7735    0.7432 C   0  0  0  0  0  0  0  0  0  0  0  0
    5.3534   -0.7001   -0.2353 C   0  0  0  0  0  0  0  0  0  0  0  0
   12.4864    2.1849    0.5564 C   0  0  0  0  0  0  0  0  0  0  0  0
   -0.1807   -1.8910   -0.3875 C   0  0  0  0  0  0  0  0  0  0  0  0
   10.0804    1.3928    0.3347 C   0  0  0  0  0  0  0  0  0  0  0  0
    8.0792   -0.1112   -0.1615 C   0  0  0  0  0  0  0  0  0  0  0  0
   -9.1054    1.4673    0.6483 C   0  0  0  0  0  0  0  0  0  0  0  0
   -8.0156    0.7436   -1.3830 C   0  0  0  0  0  0  0  0  0  0  0  0
    6.2823   -1.6404   -0.6808 C   0  0  0  0  0  0  0  0  0  0  0  0
    5.7874    0.5346    0.2472 C   0  0  0  0  0  0  0  0  0  0  0  0
    7.6453   -1.3460   -0.6441 C   0  0  0  0  0  0  0  0  0  0  0  0
    7.1504    0.8291    0.2841 C   0  0  0  0  0  0  0  0  0  0  0  0
   13.4009    1.6129    1.6325 C   0  0  0  0  0  0  0  0  0  0  0  0
   13.2797    2.6145   -0.6708 C   0  0  0  0  0  0  0  0  0  0  0  0
   -0.9370   -1.5471   -1.5079 C   0  0  0  0  0  0  0  0  0  0  0  0
   -0.7879   -2.5256    0.6961 C   0  0  0  0  0  0  0  0  0  0  0  0
   -2.9080   -2.4729   -0.4611 C   0  0  0  0  0  0  0  0  0  0  0  0
   -9.9245    2.3178   -0.0942 C   0  0  0  0  0  0  0  0  0  0  0  0
   -8.8349    1.5940   -2.1254 C   0  0  0  0  0  0  0  0  0  0  0  0
   -4.2445    1.2477    0.4453 C   0  0  0  0  0  0  0  0  0  0  0  0
   -2.3007   -1.8382   -1.5447 C   0  0  0  0  0  0  0  0  0  0  0  0
   -2.1516   -2.8165    0.6592 C   0  0  0  0  0  0  0  0  0  0  0  0
   -9.7893    2.3810   -1.4811 C   0  0  0  0  0  0  0  0  0  0  0  0
   -4.8396    3.1966   -0.0073 C   0  0  0  0  0  0  0  0  0  0  0  0
   -8.8913   -1.6837    1.0522 H   0  0  0  0  0  0  0  0  0  0  0  0
   -8.3601   -0.9606    2.5872 H   0  0  0  0  0  0  0  0  0  0  0  0
   -5.6432   -0.0684    2.2762 H   0  0  0  0  0  0  0  0  0  0  0  0
   -6.8750    1.1809    2.4506 H   0  0  0  0  0  0  0  0  0  0  0  0
   -6.8616   -3.0346   -0.1973 H   0  0  0  0  0  0  0  0  0  0  0  0
    2.7395    0.5709    0.3479 H   0  0  0  0  0  0  0  0  0  0  0  0
    3.5598   -0.2758    1.6747 H   0  0  0  0  0  0  0  0  0  0  0  0
    3.5282   -2.9283   -0.9394 H   0  0  0  0  0  0  0  0  0  0  0  0
    3.9964   -1.8044   -2.2311 H   0  0  0  0  0  0  0  0  0  0  0  0
    1.1828   -0.8194    1.6215 H   0  0  0  0  0  0  0  0  0  0  0  0
    2.1763   -2.2690    1.3715 H   0  0  0  0  0  0  0  0  0  0  0  0
    1.6070   -2.2865   -2.3092 H   0  0  0  0  0  0  0  0  0  0  0  0
    1.9022   -0.5596   -2.0237 H   0  0  0  0  0  0  0  0  0  0  0  0
   12.4816   -0.0543   -1.1445 H   0  0  0  0  0  0  0  0  0  0  0  0
   12.2994   -0.6555    0.5283 H   0  0  0  0  0  0  0  0  0  0  0  0
   10.3846   -1.7141   -0.1697 H   0  0  0  0  0  0  0  0  0  0  0  0
   10.3630   -0.8127   -1.7201 H   0  0  0  0  0  0  0  0  0  0  0  0
   -4.9018   -3.7792    1.1781 H   0  0  0  0  0  0  0  0  0  0  0  0
   -4.4942   -2.0708    1.4614 H   0  0  0  0  0  0  0  0  0  0  0  0
   11.9817    3.0680    0.9652 H   0  0  0  0  0  0  0  0  0  0  0  0
   -7.2812    0.1500   -1.9191 H   0  0  0  0  0  0  0  0  0  0  0  0
    5.9779   -2.6163   -1.0489 H   0  0  0  0  0  0  0  0  0  0  0  0
    5.0883    1.2940    0.5871 H   0  0  0  0  0  0  0  0  0  0  0  0
    8.3333   -2.1055   -1.0020 H   0  0  0  0  0  0  0  0  0  0  0  0
    7.4170    1.8046    0.6668 H   0  0  0  0  0  0  0  0  0  0  0  0
   14.0005    0.7745    1.2621 H   0  0  0  0  0  0  0  0  0  0  0  0
   12.8212    1.2576    2.4915 H   0  0  0  0  0  0  0  0  0  0  0  0
   14.0962    2.3798    1.9908 H   0  0  0  0  0  0  0  0  0  0  0  0
   13.8640    1.7906   -1.0938 H   0  0  0  0  0  0  0  0  0  0  0  0
   12.6130    2.9878   -1.4559 H   0  0  0  0  0  0  0  0  0  0  0  0
   13.9794    3.4172   -0.4140 H   0  0  0  0  0  0  0  0  0  0  0  0
   -0.4984   -1.0379   -2.3616 H   0  0  0  0  0  0  0  0  0  0  0  0
   -0.2227   -2.8252    1.5744 H   0  0  0  0  0  0  0  0  0  0  0  0
  -10.6673    2.9307    0.4074 H   0  0  0  0  0  0  0  0  0  0  0  0
   -8.7292    1.6449   -3.2050 H   0  0  0  0  0  0  0  0  0  0  0  0
   -3.7210    0.3100    0.5568 H   0  0  0  0  0  0  0  0  0  0  0  0
   -2.8866   -1.5642   -2.4178 H   0  0  0  0  0  0  0  0  0  0  0  0
   -2.5792   -3.3392    1.5097 H   0  0  0  0  0  0  0  0  0  0  0  0
   -4.8280    4.2033   -0.3974 H   0  0  0  0  0  0  0  0  0  0  0  0
  1 31  1  0  0  0  0
  2 47  1  0  0  0  0
  3 14  1  0  0  0  0
  3 17  1  0  0  0  0
  4 15  1  0  0  0  0
  4 17  1  0  0  0  0
  5 25  1  0  0  0  0
  5 41  1  0  0  0  0
  6 29  2  0  0  0  0
  7 19  1  0  0  0  0
  7 20  1  0  0  0  0
  7 26  1  0  0  0  0
  8 21  1  0  0  0  0
  8 22  1  0  0  0  0
  8 28  1  0  0  0  0
  9 23  1  0  0  0  0
  9 27  1  0  0  0  0
  9 29  1  0  0  0  0
 10 24  1  0  0  0  0
 10 29  1  0  0  0  0
 10 30  1  0  0  0  0
 11 12  1  0  0  0  0
 11 16  1  0  0  0  0
 11 44  1  0  0  0  0
 12 48  2  0  0  0  0
 13 44  2  0  0  0  0
 13 48  1  0  0  0  0
 14 15  1  0  0  0  0
 14 16  1  0  0  0  0
 14 18  1  0  0  0  0
 15 49  1  0  0  0  0
 15 50  1  0  0  0  0
 16 51  1  0  0  0  0
 16 52  1  0  0  0  0
 17 25  1  0  0  0  0
 17 53  1  0  0  0  0
 18 31  2  0  0  0  0
 18 32  1  0  0  0  0
 19 21  1  0  0  0  0
 19 54  1  0  0  0  0
 19 55  1  0  0  0  0
 20 22  1  0  0  0  0
 20 56  1  0  0  0  0
 20 57  1  0  0  0  0
 21 58  1  0  0  0  0
 21 59  1  0  0  0  0
 22 60  1  0  0  0  0
 22 61  1  0  0  0  0
 23 24  1  0  0  0  0
 23 62  1  0  0  0  0
 23 63  1  0  0  0  0
 24 64  1  0  0  0  0
 24 65  1  0  0  0  0
 25 66  1  0  0  0  0
 25 67  1  0  0  0  0
 26 33  2  0  0  0  0
 26 34  1  0  0  0  0
 27 37  1  0  0  0  0
 27 38  1  0  0  0  0
 27 68  1  0  0  0  0
 28 39  2  0  0  0  0
 28 40  1  0  0  0  0
 30 35  2  0  0  0  0
 30 36  1  0  0  0  0
 31 42  1  0  0  0  0
 32 43  2  0  0  0  0
 32 69  1  0  0  0  0
 33 35  1  0  0  0  0
 33 70  1  0  0  0  0
 34 36  2  0  0  0  0
 34 71  1  0  0  0  0
 35 72  1  0  0  0  0
 36 73  1  0  0  0  0
 37 74  1  0  0  0  0
 37 75  1  0  0  0  0
 37 76  1  0  0  0  0
 38 77  1  0  0  0  0
 38 78  1  0  0  0  0
 38 79  1  0  0  0  0
 39 45  1  0  0  0  0
 39 80  1  0  0  0  0
 40 46  2  0  0  0  0
 40 81  1  0  0  0  0
 41 45  2  0  0  0  0
 41 46  1  0  0  0  0
 42 47  2  0  0  0  0
 42 82  1  0  0  0  0
 43 47  1  0  0  0  0
 43 83  1  0  0  0  0
 44 84  1  0  0  0  0
 45 85  1  0  0  0  0
 46 86  1  0  0  0  0
 48 87  1  0  0  0  0
M  END
> <DATABASE_ID>
DB06295

> <DATABASE_NAME>
drugbank

> <ORIGINAL_SOURCE>
PUBCHEM

> <ORIGINAL_SOURCE_URL>
https://pubchem.ncbi.nlm.nih.gov/rest/pug/compound/inchikey/AEKNYBWUEYNWMJ-QWOOXDRHSA-N/SDF?record_type=3d

> <SMILES>
CC(C)N1CCN(C1=O)C1=CC=C(C=C1)N1CCN(CC1)C1=CC=C(OC[C@H]2OC[C@@](CN3C=NC=N3)(O2)C2=CC=C(F)C=C2F)C=C1

> <INCHI_IDENTIFIER>
InChI=1S/C35H39F2N7O4/c1-25(2)43-17-18-44(34(43)45)29-6-4-27(5-7-29)40-13-15-41(16-14-40)28-8-10-30(11-9-28)46-20-33-47-22-35(48-33,21-42-24-38-23-39-42)31-12-3-26(36)19-32(31)37/h3-12,19,23-25,33H,13-18,20-22H2,1-2H3/t33-,35+/m0/s1

> <INCHI_KEY>
AEKNYBWUEYNWMJ-QWOOXDRHSA-N

> <FORMULA>
C35H39F2N7O4

> <MOLECULAR_WEIGHT>
659.739

> <EXACT_MASS>
659.30315909

> <JCHEM_ACCEPTOR_COUNT>
8

> <JCHEM_ATOM_COUNT>
87

> <JCHEM_AVERAGE_POLARIZABILITY>
69.62065619196716

> <JCHEM_BIOAVAILABILITY>
0

> <JCHEM_DONOR_COUNT>
0

> <JCHEM_FORMAL_CHARGE>
0

> <JCHEM_GHOSE_FILTER>
0

> <JCHEM_IUPAC>
1-{4-[4-(4-{[(2S,4R)-4-(2,4-difluorophenyl)-4-[(1H-1,2,4-triazol-1-yl)methyl]-1,3-dioxolan-2-yl]methoxy}phenyl)piperazin-1-yl]phenyl}-3-(propan-2-yl)imidazolidin-2-one

> <ALOGPS_LOGP>
4.53

> <JCHEM_LOGP>
5.076175439333333

> <ALOGPS_LOGS>
-4.49

> <JCHEM_MDDR_LIKE_RULE>
1

> <JCHEM_NUMBER_OF_RINGS>
7

> <JCHEM_PHYSIOLOGICAL_CHARGE>
0

> <JCHEM_PKA_STRONGEST_BASIC>
3.9387898984607

> <JCHEM_POLAR_SURFACE_AREA>
88.43000000000002

> <JCHEM_REFRACTIVITY>
188.7730999999999

> <JCHEM_ROTATABLE_BOND_COUNT>
10

> <JCHEM_RULE_OF_FIVE>
0

> <ALOGPS_SOLUBILITY>
2.14e-02 g/l

> <JCHEM_TRADITIONAL_IUPAC>
pramiconazole

> <JCHEM_VEBER_RULE>
0

> <DRUGBANK_ID>
DB06295

> <DRUG_GROUPS>
investigational

> <GENERIC_NAME>
Pramiconazole

$$$$