5328940
  -OEChem-10051721303D

 65 68  0     0  0  0  0  0  0999 V2000
   -3.4272   -2.3178    2.9379 Cl  0  0  0  0  0  0  0  0  0  0  0  0
   -6.4494   -3.9339   -1.1946 Cl  0  0  0  0  0  0  0  0  0  0  0  0
    3.1741    2.1538    0.0733 O   0  0  0  0  0  0  0  0  0  0  0  0
    2.2602   -0.2777    1.0724 O   0  0  0  0  0  0  0  0  0  0  0  0
   -5.5008   -1.3906   -2.4856 O   0  0  0  0  0  0  0  0  0  0  0  0
    5.8664   -0.0243   -0.2385 N   0  0  0  0  0  0  0  0  0  0  0  0
    6.9437   -2.7069   -0.2030 N   0  0  0  0  0  0  0  0  0  0  0  0
   -2.8012    0.0769    1.1756 N   0  0  0  0  0  0  0  0  0  0  0  0
   -1.3104    3.7073   -0.3234 N   0  0  0  0  0  0  0  0  0  0  0  0
   -5.7400    2.0607    0.5366 N   0  0  0  0  0  0  0  0  0  0  0  0
    6.1009   -0.7349    1.0245 C   0  0  0  0  0  0  0  0  0  0  0  0
    6.8117   -0.4795   -1.2653 C   0  0  0  0  0  0  0  0  0  0  0  0
    5.9989   -2.2508    0.8240 C   0  0  0  0  0  0  0  0  0  0  0  0
    6.7112   -1.9955   -1.4659 C   0  0  0  0  0  0  0  0  0  0  0  0
    5.9646    1.4213   -0.0469 C   0  0  0  0  0  0  0  0  0  0  0  0
    5.2262    2.1546   -1.1619 C   0  0  0  0  0  0  0  0  0  0  0  0
    6.8436   -4.1523   -0.3952 C   0  0  0  0  0  0  0  0  0  0  0  0
    3.7454    1.8001   -1.1787 C   0  0  0  0  0  0  0  0  0  0  0  0
    1.8327    1.9190    0.2296 C   0  0  0  0  0  0  0  0  0  0  0  0
    1.3812    0.7037    0.7291 C   0  0  0  0  0  0  0  0  0  0  0  0
   -0.9064    1.4899    0.5296 C   0  0  0  0  0  0  0  0  0  0  0  0
    0.9169    2.9150   -0.1184 C   0  0  0  0  0  0  0  0  0  0  0  0
   -0.4553    2.7262    0.0216 C   0  0  0  0  0  0  0  0  0  0  0  0
    0.0144    0.4878    0.8795 C   0  0  0  0  0  0  0  0  0  0  0  0
   -2.2876    1.2993    0.6707 C   0  0  0  0  0  0  0  0  0  0  0  0
   -3.1713    2.3084    0.3161 C   0  0  0  0  0  0  0  0  0  0  0  0
   -2.6359    3.4832   -0.1719 C   0  0  0  0  0  0  0  0  0  0  0  0
   -3.6648   -0.8837    0.6286 C   0  0  0  0  0  0  0  0  0  0  0  0
   -4.1656   -0.6788   -0.6571 C   0  0  0  0  0  0  0  0  0  0  0  0
    1.7106   -1.4937    1.5769 C   0  0  0  0  0  0  0  0  0  0  0  0
   -4.0248   -2.0259    1.3435 C   0  0  0  0  0  0  0  0  0  0  0  0
   -5.0265   -1.6163   -1.2276 C   0  0  0  0  0  0  0  0  0  0  0  0
   -4.5890    2.1718    0.4377 C   0  0  0  0  0  0  0  0  0  0  0  0
   -4.8856   -2.9635    0.7729 C   0  0  0  0  0  0  0  0  0  0  0  0
   -5.3865   -2.7586   -0.5127 C   0  0  0  0  0  0  0  0  0  0  0  0
   -5.0743   -0.1941   -3.1332 C   0  0  0  0  0  0  0  0  0  0  0  0
    5.3470   -0.4384    1.7640 H   0  0  0  0  0  0  0  0  0  0  0  0
    7.0855   -0.4803    1.4395 H   0  0  0  0  0  0  0  0  0  0  0  0
    7.8432   -0.2151   -0.9949 H   0  0  0  0  0  0  0  0  0  0  0  0
    6.5980   -0.0075   -2.2301 H   0  0  0  0  0  0  0  0  0  0  0  0
    4.9682   -2.5185    0.5541 H   0  0  0  0  0  0  0  0  0  0  0  0
    6.2240   -2.7409    1.7790 H   0  0  0  0  0  0  0  0  0  0  0  0
    7.4644   -2.2966   -2.2041 H   0  0  0  0  0  0  0  0  0  0  0  0
    5.7263   -2.2478   -1.8821 H   0  0  0  0  0  0  0  0  0  0  0  0
    5.5181    1.7129    0.9126 H   0  0  0  0  0  0  0  0  0  0  0  0
    7.0102    1.7527   -0.0042 H   0  0  0  0  0  0  0  0  0  0  0  0
    5.6694    1.9614   -2.1439 H   0  0  0  0  0  0  0  0  0  0  0  0
    5.3294    3.2314   -0.9767 H   0  0  0  0  0  0  0  0  0  0  0  0
    7.0625   -4.6803    0.5395 H   0  0  0  0  0  0  0  0  0  0  0  0
    7.5814   -4.4944   -1.1294 H   0  0  0  0  0  0  0  0  0  0  0  0
    5.8484   -4.4573   -0.7386 H   0  0  0  0  0  0  0  0  0  0  0  0
    3.2531    2.3701   -1.9762 H   0  0  0  0  0  0  0  0  0  0  0  0
    3.5904    0.7342   -1.3823 H   0  0  0  0  0  0  0  0  0  0  0  0
    1.2892    3.8617   -0.5076 H   0  0  0  0  0  0  0  0  0  0  0  0
   -0.3721   -0.4510    1.2578 H   0  0  0  0  0  0  0  0  0  0  0  0
   -2.3546   -0.2216    2.0381 H   0  0  0  0  0  0  0  0  0  0  0  0
   -3.2661    4.3163   -0.4699 H   0  0  0  0  0  0  0  0  0  0  0  0
   -3.8192    0.1829   -1.2109 H   0  0  0  0  0  0  0  0  0  0  0  0
    2.5525   -2.1572    1.8012 H   0  0  0  0  0  0  0  0  0  0  0  0
    1.0984   -2.0031    0.8249 H   0  0  0  0  0  0  0  0  0  0  0  0
    1.1738   -1.3354    2.5185 H   0  0  0  0  0  0  0  0  0  0  0  0
   -5.1668   -3.8548    1.3300 H   0  0  0  0  0  0  0  0  0  0  0  0
   -5.4106    0.7011   -2.5988 H   0  0  0  0  0  0  0  0  0  0  0  0
   -3.9946   -0.1958   -3.3186 H   0  0  0  0  0  0  0  0  0  0  0  0
   -5.5596   -0.1724   -4.1148 H   0  0  0  0  0  0  0  0  0  0  0  0
  1 31  1  0  0  0  0
  2 35  1  0  0  0  0
  3 18  1  0  0  0  0
  3 19  1  0  0  0  0
  4 20  1  0  0  0  0
  4 30  1  0  0  0  0
  5 32  1  0  0  0  0
  5 36  1  0  0  0  0
  6 11  1  0  0  0  0
  6 12  1  0  0  0  0
  6 15  1  0  0  0  0
  7 13  1  0  0  0  0
  7 14  1  0  0  0  0
  7 17  1  0  0  0  0
  8 25  1  0  0  0  0
  8 28  1  0  0  0  0
  8 56  1  0  0  0  0
  9 23  1  0  0  0  0
  9 27  2  0  0  0  0
 10 33  3  0  0  0  0
 11 13  1  0  0  0  0
 11 37  1  0  0  0  0
 11 38  1  0  0  0  0
 12 14  1  0  0  0  0
 12 39  1  0  0  0  0
 12 40  1  0  0  0  0
 13 41  1  0  0  0  0
 13 42  1  0  0  0  0
 14 43  1  0  0  0  0
 14 44  1  0  0  0  0
 15 16  1  0  0  0  0
 15 45  1  0  0  0  0
 15 46  1  0  0  0  0
 16 18  1  0  0  0  0
 16 47  1  0  0  0  0
 16 48  1  0  0  0  0
 17 49  1  0  0  0  0
 17 50  1  0  0  0  0
 17 51  1  0  0  0  0
 18 52  1  0  0  0  0
 18 53  1  0  0  0  0
 19 20  2  0  0  0  0
 19 22  1  0  0  0  0
 20 24  1  0  0  0  0
 21 23  1  0  0  0  0
 21 24  2  0  0  0  0
 21 25  1  0  0  0  0
 22 23  2  0  0  0  0
 22 54  1  0  0  0  0
 24 55  1  0  0  0  0
 25 26  2  0  0  0  0
 26 27  1  0  0  0  0
 26 33  1  0  0  0  0
 27 57  1  0  0  0  0
 28 29  2  0  0  0  0
 28 31  1  0  0  0  0
 29 32  1  0  0  0  0
 29 58  1  0  0  0  0
 30 59  1  0  0  0  0
 30 60  1  0  0  0  0
 30 61  1  0  0  0  0
 31 34  2  0  0  0  0
 32 35  2  0  0  0  0
 34 35  1  0  0  0  0
 34 62  1  0  0  0  0
 36 63  1  0  0  0  0
 36 64  1  0  0  0  0
 36 65  1  0  0  0  0
M  END
> <DATABASE_ID>
DB06616

> <DATABASE_NAME>
drugbank

> <ORIGINAL_SOURCE>
PUBCHEM

> <ORIGINAL_SOURCE_URL>
https://pubchem.ncbi.nlm.nih.gov/rest/pug/compound/inchikey/UBPYILGKFZZVDX-UHFFFAOYSA-N/SDF?record_type=3d

> <SMILES>
COC1=CC(NC2=C(C=NC3=CC(OCCCN4CCN(C)CC4)=C(OC)C=C23)C#N)=C(Cl)C=C1Cl

> <INCHI_IDENTIFIER>
InChI=1S/C26H29Cl2N5O3/c1-32-6-8-33(9-7-32)5-4-10-36-25-13-21-18(11-24(25)35-3)26(17(15-29)16-30-21)31-22-14-23(34-2)20(28)12-19(22)27/h11-14,16H,4-10H2,1-3H3,(H,30,31)

> <INCHI_KEY>
UBPYILGKFZZVDX-UHFFFAOYSA-N

> <FORMULA>
C26H29Cl2N5O3

> <MOLECULAR_WEIGHT>
530.446

> <EXACT_MASS>
529.164745233

> <JCHEM_ACCEPTOR_COUNT>
8

> <JCHEM_AVERAGE_POLARIZABILITY>
56.142286965511715

> <JCHEM_BIOAVAILABILITY>
1

> <JCHEM_DONOR_COUNT>
1

> <JCHEM_FORMAL_CHARGE>
0

> <JCHEM_GHOSE_FILTER>
0

> <JCHEM_IUPAC>
4-[(2,4-dichloro-5-methoxyphenyl)amino]-6-methoxy-7-[3-(4-methylpiperazin-1-yl)propoxy]quinoline-3-carbonitrile

> <ALOGPS_LOGP>
4.87

> <JCHEM_LOGP>
4.087721830999999

> <ALOGPS_LOGS>
-4.75

> <JCHEM_MDDR_LIKE_RULE>
1

> <JCHEM_NUMBER_OF_RINGS>
4

> <JCHEM_PHYSIOLOGICAL_CHARGE>
1

> <JCHEM_PKA_STRONGEST_ACIDIC>
15.477387614447181

> <JCHEM_PKA_STRONGEST_BASIC>
8.428822002983459

> <JCHEM_POLAR_SURFACE_AREA>
82.88000000000002

> <JCHEM_REFRACTIVITY>
142.12089999999995

> <JCHEM_ROTATABLE_BOND_COUNT>
9

> <JCHEM_RULE_OF_FIVE>
0

> <ALOGPS_SOLUBILITY>
9.50e-03 g/l

> <JCHEM_TRADITIONAL_IUPAC>
bosutinib

> <JCHEM_VEBER_RULE>
0

> <DRUGBANK_ID>
DB06616

> <DRUG_GROUPS>
approved

> <GENERIC_NAME>
Bosutinib

> <SYNONYMS>
4-((2,4-dichloro-5-methoxyphenyl)amino)-6-methoxy-7-(3-(4-methyl-1-piperazinyl)propoxy)-3-quinolinecarbonitrile; Bosutinib

> <PRODUCTS>
Bosulif

> <SALTS>
Bosutinib monohydrate

$$$$