5280489
  -OEChem-10061700073D

 96 97  0     0  0  0  0  0  0999 V2000
  -12.8901   -0.8145   -0.5076 C   0  0  0  0  0  0  0  0  0  0  0  0
   12.8997    0.4410    0.6411 C   0  0  0  0  0  0  0  0  0  0  0  0
  -14.2559   -0.0801   -0.4187 C   0  0  0  0  0  0  0  0  0  0  0  0
   13.9687   -0.5754    1.1283 C   0  0  0  0  0  0  0  0  0  0  0  0
  -14.1325    1.4021   -0.7232 C   0  0  0  0  0  0  0  0  0  0  0  0
   14.2584   -1.6458    0.0914 C   0  0  0  0  0  0  0  0  0  0  0  0
  -11.7656   -0.0110    0.1873 C   0  0  0  0  0  0  0  0  0  0  0  0
   11.7051   -0.2704   -0.0369 C   0  0  0  0  0  0  0  0  0  0  0  0
  -13.1937    2.0628    0.2749 C   0  0  0  0  0  0  0  0  0  0  0  0
   12.9914   -2.4292   -0.2171 C   0  0  0  0  0  0  0  0  0  0  0  0
  -11.9254    1.2838    0.5600 C   0  0  0  0  0  0  0  0  0  0  0  0
   11.7507   -1.5779   -0.3966 C   0  0  0  0  0  0  0  0  0  0  0  0
  -12.5294   -1.0270   -1.9959 C   0  0  0  0  0  0  0  0  0  0  0  0
  -13.1074   -2.1999    0.1487 C   0  0  0  0  0  0  0  0  0  0  0  0
   13.5556    1.4186   -0.3613 C   0  0  0  0  0  0  0  0  0  0  0  0
   12.4673    1.2391    1.8955 C   0  0  0  0  0  0  0  0  0  0  0  0
  -10.5162   -0.7258    0.3915 C   0  0  0  0  0  0  0  0  0  0  0  0
   10.5386    0.5604   -0.2876 C   0  0  0  0  0  0  0  0  0  0  0  0
  -10.9033    2.1251    1.2890 C   0  0  0  0  0  0  0  0  0  0  0  0
   10.6162   -2.3640   -1.0125 C   0  0  0  0  0  0  0  0  0  0  0  0
   -9.3101   -0.1674    0.2000 C   0  0  0  0  0  0  0  0  0  0  0  0
    9.2794    0.1212   -0.1333 C   0  0  0  0  0  0  0  0  0  0  0  0
   -8.0143   -0.8203    0.3882 C   0  0  0  0  0  0  0  0  0  0  0  0
    8.0576    0.8903   -0.3702 C   0  0  0  0  0  0  0  0  0  0  0  0
   -8.0214   -2.2597    0.8498 C   0  0  0  0  0  0  0  0  0  0  0  0
    8.2067    2.3079   -0.8682 C   0  0  0  0  0  0  0  0  0  0  0  0
   -6.8238   -0.2163    0.1826 C   0  0  0  0  0  0  0  0  0  0  0  0
    6.8152    0.3903   -0.1964 C   0  0  0  0  0  0  0  0  0  0  0  0
   -5.4906   -0.7696    0.3389 C   0  0  0  0  0  0  0  0  0  0  0  0
    5.5378    1.0456   -0.3959 C   0  0  0  0  0  0  0  0  0  0  0  0
   -4.3789   -0.0528    0.0989 C   0  0  0  0  0  0  0  0  0  0  0  0
    4.3476    0.4561   -0.1936 C   0  0  0  0  0  0  0  0  0  0  0  0
   -2.9988   -0.5222    0.2249 C   0  0  0  0  0  0  0  0  0  0  0  0
    3.0244    1.0661   -0.3595 C   0  0  0  0  0  0  0  0  0  0  0  0
   -2.7772   -1.9381    0.6986 C   0  0  0  0  0  0  0  0  0  0  0  0
    2.9783    2.4996   -0.8248 C   0  0  0  0  0  0  0  0  0  0  0  0
   -1.9244    0.2540   -0.0330 C   0  0  0  0  0  0  0  0  0  0  0  0
    1.9379    0.3050   -0.1059 C   0  0  0  0  0  0  0  0  0  0  0  0
   -0.5200   -0.0913    0.0540 C   0  0  0  0  0  0  0  0  0  0  0  0
    0.5427    0.6895   -0.2053 C   0  0  0  0  0  0  0  0  0  0  0  0
  -14.9809   -0.5336   -1.1065 H   0  0  0  0  0  0  0  0  0  0  0  0
  -14.6780   -0.1942    0.5896 H   0  0  0  0  0  0  0  0  0  0  0  0
   14.9007   -0.0578    1.3881 H   0  0  0  0  0  0  0  0  0  0  0  0
   13.6261   -1.0679    2.0491 H   0  0  0  0  0  0  0  0  0  0  0  0
  -15.1180    1.8792   -0.6708 H   0  0  0  0  0  0  0  0  0  0  0  0
  -13.7657    1.5561   -1.7445 H   0  0  0  0  0  0  0  0  0  0  0  0
   15.0309   -2.3289    0.4631 H   0  0  0  0  0  0  0  0  0  0  0  0
   14.6555   -1.1947   -0.8253 H   0  0  0  0  0  0  0  0  0  0  0  0
  -12.9377    3.0589   -0.1072 H   0  0  0  0  0  0  0  0  0  0  0  0
  -13.7245    2.2123    1.2241 H   0  0  0  0  0  0  0  0  0  0  0  0
   13.1799   -3.0184   -1.1229 H   0  0  0  0  0  0  0  0  0  0  0  0
   12.7999   -3.1441    0.5935 H   0  0  0  0  0  0  0  0  0  0  0  0
  -13.3418   -1.5315   -2.5315 H   0  0  0  0  0  0  0  0  0  0  0  0
  -11.6340   -1.6498   -2.1064 H   0  0  0  0  0  0  0  0  0  0  0  0
  -12.3301   -0.0788   -2.5070 H   0  0  0  0  0  0  0  0  0  0  0  0
  -12.2784   -2.8883   -0.0477 H   0  0  0  0  0  0  0  0  0  0  0  0
  -14.0093   -2.6823   -0.2474 H   0  0  0  0  0  0  0  0  0  0  0  0
  -13.2289   -2.1122    1.2346 H   0  0  0  0  0  0  0  0  0  0  0  0
   12.8973    2.2601   -0.6035 H   0  0  0  0  0  0  0  0  0  0  0  0
   13.8132    0.9231   -1.3038 H   0  0  0  0  0  0  0  0  0  0  0  0
   14.4766    1.8465    0.0515 H   0  0  0  0  0  0  0  0  0  0  0  0
   13.3367    1.6674    2.4081 H   0  0  0  0  0  0  0  0  0  0  0  0
   11.9395    0.5977    2.6110 H   0  0  0  0  0  0  0  0  0  0  0  0
   11.8023    2.0723    1.6424 H   0  0  0  0  0  0  0  0  0  0  0  0
  -10.5940   -1.7437    0.7546 H   0  0  0  0  0  0  0  0  0  0  0  0
   10.7350    1.5667   -0.6416 H   0  0  0  0  0  0  0  0  0  0  0  0
  -11.4085    2.7969    1.9939 H   0  0  0  0  0  0  0  0  0  0  0  0
  -10.3430    2.7487    0.5854 H   0  0  0  0  0  0  0  0  0  0  0  0
  -10.2131    1.5415    1.9032 H   0  0  0  0  0  0  0  0  0  0  0  0
   10.0172   -2.8518   -0.2374 H   0  0  0  0  0  0  0  0  0  0  0  0
   11.0083   -3.1587   -1.6589 H   0  0  0  0  0  0  0  0  0  0  0  0
    9.9808   -1.7688   -1.6729 H   0  0  0  0  0  0  0  0  0  0  0  0
   -9.2338    0.8426   -0.1967 H   0  0  0  0  0  0  0  0  0  0  0  0
    9.0889   -0.8649    0.2815 H   0  0  0  0  0  0  0  0  0  0  0  0
   -7.0523   -2.7392    0.9778 H   0  0  0  0  0  0  0  0  0  0  0  0
   -8.5673   -2.8803    0.1289 H   0  0  0  0  0  0  0  0  0  0  0  0
   -8.5251   -2.3381    1.8208 H   0  0  0  0  0  0  0  0  0  0  0  0
    8.7409    2.9103   -0.1238 H   0  0  0  0  0  0  0  0  0  0  0  0
    7.2876    2.8471   -1.0927 H   0  0  0  0  0  0  0  0  0  0  0  0
    8.7877    2.3189   -1.7983 H   0  0  0  0  0  0  0  0  0  0  0  0
   -6.8440    0.8237   -0.1458 H   0  0  0  0  0  0  0  0  0  0  0  0
    6.7362   -0.6420    0.1473 H   0  0  0  0  0  0  0  0  0  0  0  0
   -5.3867   -1.7974    0.6561 H   0  0  0  0  0  0  0  0  0  0  0  0
    5.5437    2.0792   -0.7140 H   0  0  0  0  0  0  0  0  0  0  0  0
   -4.4832    0.9825   -0.2248 H   0  0  0  0  0  0  0  0  0  0  0  0
    4.3471   -0.5839    0.1336 H   0  0  0  0  0  0  0  0  0  0  0  0
   -3.2750   -2.0922    1.6638 H   0  0  0  0  0  0  0  0  0  0  0  0
   -3.2048   -2.6440   -0.0234 H   0  0  0  0  0  0  0  0  0  0  0  0
   -1.7457   -2.2497    0.8542 H   0  0  0  0  0  0  0  0  0  0  0  0
    3.4831    3.1529   -0.1041 H   0  0  0  0  0  0  0  0  0  0  0  0
    1.9677    2.8941   -0.9455 H   0  0  0  0  0  0  0  0  0  0  0  0
    3.4696    2.6034   -1.7990 H   0  0  0  0  0  0  0  0  0  0  0  0
   -2.1061    1.2785   -0.3592 H   0  0  0  0  0  0  0  0  0  0  0  0
    2.0859   -0.7259    0.2177 H   0  0  0  0  0  0  0  0  0  0  0  0
   -0.2764   -1.1040    0.3568 H   0  0  0  0  0  0  0  0  0  0  0  0
    0.3341    1.7091   -0.5157 H   0  0  0  0  0  0  0  0  0  0  0  0
  1  3  1  0  0  0  0
  1  7  1  0  0  0  0
  1 13  1  0  0  0  0
  1 14  1  0  0  0  0
  2  4  1  0  0  0  0
  2  8  1  0  0  0  0
  2 15  1  0  0  0  0
  2 16  1  0  0  0  0
  3  5  1  0  0  0  0
  3 41  1  0  0  0  0
  3 42  1  0  0  0  0
  4  6  1  0  0  0  0
  4 43  1  0  0  0  0
  4 44  1  0  0  0  0
  5  9  1  0  0  0  0
  5 45  1  0  0  0  0
  5 46  1  0  0  0  0
  6 10  1  0  0  0  0
  6 47  1  0  0  0  0
  6 48  1  0  0  0  0
  7 11  2  0  0  0  0
  7 17  1  0  0  0  0
  8 12  2  0  0  0  0
  8 18  1  0  0  0  0
  9 11  1  0  0  0  0
  9 49  1  0  0  0  0
  9 50  1  0  0  0  0
 10 12  1  0  0  0  0
 10 51  1  0  0  0  0
 10 52  1  0  0  0  0
 11 19  1  0  0  0  0
 12 20  1  0  0  0  0
 13 53  1  0  0  0  0
 13 54  1  0  0  0  0
 13 55  1  0  0  0  0
 14 56  1  0  0  0  0
 14 57  1  0  0  0  0
 14 58  1  0  0  0  0
 15 59  1  0  0  0  0
 15 60  1  0  0  0  0
 15 61  1  0  0  0  0
 16 62  1  0  0  0  0
 16 63  1  0  0  0  0
 16 64  1  0  0  0  0
 17 21  2  0  0  0  0
 17 65  1  0  0  0  0
 18 22  2  0  0  0  0
 18 66  1  0  0  0  0
 19 67  1  0  0  0  0
 19 68  1  0  0  0  0
 19 69  1  0  0  0  0
 20 70  1  0  0  0  0
 20 71  1  0  0  0  0
 20 72  1  0  0  0  0
 21 23  1  0  0  0  0
 21 73  1  0  0  0  0
 22 24  1  0  0  0  0
 22 74  1  0  0  0  0
 23 25  1  0  0  0  0
 23 27  2  0  0  0  0
 24 26  1  0  0  0  0
 24 28  2  0  0  0  0
 25 75  1  0  0  0  0
 25 76  1  0  0  0  0
 25 77  1  0  0  0  0
 26 78  1  0  0  0  0
 26 79  1  0  0  0  0
 26 80  1  0  0  0  0
 27 29  1  0  0  0  0
 27 81  1  0  0  0  0
 28 30  1  0  0  0  0
 28 82  1  0  0  0  0
 29 31  2  0  0  0  0
 29 83  1  0  0  0  0
 30 32  2  0  0  0  0
 30 84  1  0  0  0  0
 31 33  1  0  0  0  0
 31 85  1  0  0  0  0
 32 34  1  0  0  0  0
 32 86  1  0  0  0  0
 33 35  1  0  0  0  0
 33 37  2  0  0  0  0
 34 36  1  0  0  0  0
 34 38  2  0  0  0  0
 35 87  1  0  0  0  0
 35 88  1  0  0  0  0
 35 89  1  0  0  0  0
 36 90  1  0  0  0  0
 36 91  1  0  0  0  0
 36 92  1  0  0  0  0
 37 39  1  0  0  0  0
 37 93  1  0  0  0  0
 38 40  1  0  0  0  0
 38 94  1  0  0  0  0
 39 40  2  0  0  0  0
 39 95  1  0  0  0  0
 40 96  1  0  0  0  0
M  END
> <DATABASE_ID>
DB06755

> <DATABASE_NAME>
drugbank

> <ORIGINAL_SOURCE>
PUBCHEM

> <ORIGINAL_SOURCE_URL>
https://pubchem.ncbi.nlm.nih.gov/rest/pug/compound/inchikey/OENHQHLEOONYIE-JLTXGRSLSA-N/SDF?record_type=3d

> <SMILES>
C\C(\C=C\C=C(/C)\C=C\C1=C(C)CCCC1(C)C)=C/C=C/C=C(\C)/C=C/C=C(\C)/C=C/C1=C(C)CCCC1(C)C

> <INCHI_IDENTIFIER>
InChI=1S/C40H56/c1-31(19-13-21-33(3)25-27-37-35(5)23-15-29-39(37,7)8)17-11-12-18-32(2)20-14-22-34(4)26-28-38-36(6)24-16-30-40(38,9)10/h11-14,17-22,25-28H,15-16,23-24,29-30H2,1-10H3/b12-11+,19-13+,20-14+,27-25+,28-26+,31-17+,32-18+,33-21+,34-22+

> <INCHI_KEY>
OENHQHLEOONYIE-JLTXGRSLSA-N

> <FORMULA>
C40H56

> <MOLECULAR_WEIGHT>
536.888

> <EXACT_MASS>
536.438201803

> <JCHEM_ACCEPTOR_COUNT>
0

> <JCHEM_ATOM_COUNT>
96

> <JCHEM_AVERAGE_POLARIZABILITY>
71.84136004580817

> <JCHEM_BIOAVAILABILITY>
0

> <JCHEM_DONOR_COUNT>
0

> <JCHEM_FORMAL_CHARGE>
0

> <JCHEM_GHOSE_FILTER>
0

> <JCHEM_IUPAC>
1,3,3-trimethyl-2-[(1E,3E,5E,7E,9E,11E,13E,15E,17E)-3,7,12,16-tetramethyl-18-(2,6,6-trimethylcyclohex-1-en-1-yl)octadeca-1,3,5,7,9,11,13,15,17-nonaen-1-yl]cyclohex-1-ene

> <ALOGPS_LOGP>
9.72

> <JCHEM_LOGP>
11.124081100000001

> <ALOGPS_LOGS>
-6.14

> <JCHEM_MDDR_LIKE_RULE>
0

> <JCHEM_NUMBER_OF_RINGS>
2

> <JCHEM_PHYSIOLOGICAL_CHARGE>
0

> <JCHEM_POLAR_SURFACE_AREA>
0.0

> <JCHEM_REFRACTIVITY>
191.61180000000013

> <JCHEM_ROTATABLE_BOND_COUNT>
10

> <JCHEM_RULE_OF_FIVE>
0

> <ALOGPS_SOLUBILITY>
3.91e-04 g/l

> <JCHEM_TRADITIONAL_IUPAC>
β-carotene

> <JCHEM_VEBER_RULE>
1

> <DRUGBANK_ID>
DB06755

> <DRUG_GROUPS>
approved; nutraceutical

> <GENERIC_NAME>
Beta carotene

> <SYNONYMS>
all-trans-β-carotene; Beta carotene; beta-carotene; Betacarotene; β-Karotin

> <PRODUCTS>
24 Multivitamins + Minerals; A.B.C. Formula #1; A/o-26 - Caplet; Absorbene; Aces Formula/formule A A S; Acti-carotene + Zn Caplet; Acti-retinol & Zn Caplet; Active FE; Adrien Gagnon Formule A-C-E + Selenium; Adult Formula 50+; Alkadrenergy Tablets; Am Caps; Avon Vitadvance Multi-kids Complete; B-plus - Tab; B.E.T. Complex; Bal-Care DHA; Bal-Care DHA Essential; Balance Ace - Cap; Beta A 10000 Cap; Beta C & E With Selenium; Beta C and E Tab; Beta Carotene; Beta Carotene - Capsule 25000 Iu; Beta Carotene - Tab 25000iu; Beta Carotene 10 000 - Tab 10000I.U.; Beta Carotene 10 000 Iu; Beta Carotene 10,000 Iu; Beta Carotene 10000 I.U. - Capsule; Beta Carotene 10000 I.U. Cap; Beta Carotene 10000 I.U. Tablets; Beta Carotene 10000 U.I.; Beta Carotene 10000I.U. Dietary Supplement; Beta Carotene 10000unit Tab; Beta Carotene 25,000 I.U. Tab; Beta Carotene 25,000iu Caplet; Beta Carotene 25000 Caplet; Beta Carotene 25000 I.U.; Beta Carotene 25000 I.U. Tablets; Beta Carotene 25000 U.I.; Beta Carotene 25000I.U. Dietary Supplement; Beta Carotene 30,000 Iu; Beta Carotene Cap 10000unit; Beta Carotene Cap 25000I.U.; Beta Carotene Cap 25000unit; Beta Carotene Cap 30000unit; Beta Carotene Caplet 25000iu; Beta Carotene Capsules U.S.P. 10000 I.U.; Beta Carotene Capsules U.S.P. 25000I.U.; Beta Carotene Extra Forte Cap 25000; Beta Carotene Extra Forte-cap; Beta Carotene Gelule Cap 10000unit; Beta Carotene Plus; Beta Carotene Provitamin A With D; Beta Carotene Supplement; Beta Carotene Tab 10000unit; Beta Carotene Tab 25000 Unit; Beta Carotene Tab 25000unit; Beta Carotene Tab 30000units; Beta Carotene Tablets 10000 Iu; Beta Carotene Tablets 25000I.U.; Beta Green Enriching Formula; Beta Marine Caplet; Beta-CE Cap; Beta-carotene 10,000 Iu With Vitamins C & E; Beta-carotene 10000 U.I. - Capsule; Beta-carotene 10000I.U. With Borage Oil Cap; Beta-carotene 25000 Plus Zinc Caplet; Beta-carotene Cap 25000unit; Beta-carotene Capsules; Beta-carotene Capsules 10000unit; Beta-retinol + Zinc Caplet; Betacarotene 10000 Iu; Betacarotene 25000 Iu; Betacept Special Formula Vitamins Cap; Betafant Tab; Betatene 20 Lp 20; Bio Bronze Cap 924unit; Body Rox; Bodysmarts With Vitamins A, C and E; C-plus - Tab; Caro Caps 5.9mg; Carotene Capsules 10,000 Iu; Cavan Alpha; Cavan Folate DHA; Cavan Folate OB; Cavan-EC SOD DHA; Cell-wise; Cell-wise Natural Source; Cellular Formula; Central-vite 18 Essential; Century Complete; Chewable Adult Multivitamins With Minerals; Chewable Beta-carotene 5000 I.U.(3mg) Tab; Children's Chew Multi & Min Tab; Children's Chewable Multivitamin and Multimineral; Children's Chewable Multivitamins and Minerals; Children's Chewable Tab; Children's Chewable Vit and Min Tab; Chlorotene-beta Carotene Tab 12500unit; Choice OB DHA; Coen.q10w.vit.c and E Beta-car.se Cu Zn Mn; Complete Multivitamins and Minerals Tablets Timed Release; Complete Natal DHA; CompleteNate Chewable; Corvita; Corvite; Daily Balance Tab; Daily Energy Brand Vitamin & Mineral Drink Mix; Defense Caplets; Derma-force; Doctor's Choice Brand for Men; Dr. Chen's Men's Formula; Duet DHA; Duet DHA 400; Duet DHA 400 ec; Duet DHA Balanced; DuetDHA Balanced; DuetDHA Complete; E & I Formulae; E.S.T. Complex; EC + Complex; Earthpals Children's Chewables Multi-vitamin & Mineral Tablets; Eden With Vitamins A, C, and E; Edge OB; Emuol V; Enrich Core Pack - Children Vitamin and Mineral Supplement; Envirocomplex; Escavite D; Essential Vitamins and Minerals; Evc - Liq; Evc Liquid Vitamins A,c,b6 With Beta Caro&zn; Extra 11; Extra Once A Day; Extra P.N. Vitamin-mineral Drink Mix; Fem - Protect; Fem Time Tab; Floriva; Folet DHA; Folika-MG; For-2; Formula 14 Dietary Supplement; Formula Cp Cap; Formula Cw; Formula Cw-caplet; Formula Gly; Formula Im-vitamins and Minerals Tab; Formula O; Formula O.C.; Fusion Activator Formula Tab; G.A.S. Complex; Geri-plus Cap; Germacil; Gnc Natural Source Beta-carotene 6mg Softcap; Grand Master Formula Tab; Great Day/am Formula Tab; Guardyn Tab; Hi Potency Multi Tab; High Potency Multivitamins & Minerals Caplets; I-care Multivitamin and Multimineral Tablets; IV-8 Formula; Icaps; Icaps Time Release; Imm Formula Cap; Innersource Tab; Iron Polysaccharides Folic Acid DHA; Isotonix Atx Vitamin Mineral Formula; Isotonix Multitech Vitamin Mineral Supplemen; Itabs Plus; Kama Caze Syrup; Kamu Jay Multi Complex Tab; Kanga-kid Multi-vitamin & Mineral; L.I.P. Complex; Longevit-E - Capsule; Luna Vitamin and Mineral Bar for Women; Maintain Multiple Vitamin & Minerals; Master Key Multi Vitamin Multi Mineral Formula 2; Materna; Materna - Tab; Materna-tab; Maximum Once A Day; Maxine Vitamin and Mineral Supplement; Mega Balance; Mega Capsules; Mega Plex III - Pck; Mega Plex IV - Pck; Mega-vim 75 With Beta-carotene - Tablets; Men's; Men's 50+; Men's Biomultiple Vitamin and Mineral Supplement; Milltrium Senior Vitamin and Mineral Supplement; Moms Choice Rx; Multi - N.T.O.x Formula - Tab; Multi Nt-OX; Multi Plex I - Tab; Multi Plex II - Tab; Multi Vitamin - Mineral; Multi Vitamines - Liq; Multi-Nate 30; Multi-actin; Multi-kid; Multi-phyto Capsules; Multi-vitamin Dietary Supplement; Multinate DHA; Multinate DHA Extra; Multipack II; Multiple Vitamins - Tablet; Multivitamin & Minerals (iron Free); Multivitamin & Multimineral; Multivitamines Et Mineraux Reguliers / Regular Multivitamins and Minerals; Multivitamins and Minerals - Complete; Multivitamins and Minerals Tablets; Multivitamins and Minerals With Betacarotene Tablets; Multivitamins and Minerals for Men; Multivitamins and Minerals for Women; Multivitamins and Minerals for Young Men; Multivitamins and Minerals for Young Women; Multivitamins and Multiminerals Formula Regular Tablet; Multra Plex; Munit-E Tablet; NEONATAL Complete; NataChew; Natal-V RX Multi-vitamin/Multi-mineral; Natavite; Natural Source Beta Carotene Cap 25000iu; Natural Source Betacarotene 25000 Iu; Natural Source Spectrum With Beta Carotene; Neonatal DHA; Nutra Boost; Nutria; Nutrilite Double X; Nutrol V Capsule; OB Complete Prenatal; Ocuvite Tab; Ocuvite Vitamin and Mineral Supplement; Onccor; Oncovite; One A Day Advance Adults; One A Day Advance Adults 50+; One A Day Advance Fem; One Daily Vitamin and Mineral Dietary Supplement; One Per Day Vitamin and Mineral Dietary Supplement; One Tablet Daily Mens Formula; One-A-day Advance Fem - Tablets; One-A-day Advance Men's; Only One - Tablet; Optivite Vitamin and Mineral Supplement Tablet; Original Bioscal Forte Multi-vitamin Supplement Capsules; P.N. Vitamin-mineral Drink; P.N.P. Vitamin Drink; P.R.O. Complex; PM Caps; PNV Ferrous Fumarate Docusate Folic Acid; PNV Prenatal Plus Multivitamin; PNV Tabs 29-1; PNV-First; PR Natal 400; PR Natal 400 ec; PR Natal 430; PR Natal 430 ec; Paramettes Beta Carotene Cap 25000iu; Paramettes Beta Carotene With Vitamins C & E; Perfect Harvest; Pnv-OB-dha; Pour Ma Santé; PreGen DHA; PreGenna; PreNatal 19; PrePLUS; PreTAB; Pregvit; Pregvit Folic 4; Pregvit Folic 5; Premium Prenatal; Premium Prenatal - Tablets; Prenatabs FA; Prenatal Formula Tab; Prenatal Plus; Prenatal Plus Iron; Prenatal Plus Multivitamin Plus DHA MiniCaps; Prenatal Supplement - Tab; Prenatal Vi-min; Prenatal Vitamin and Mineral Supplement; Prenatal Vitamin and Mineral Supplement -tab; Prenatal Vitamin and Mineral Supplement Tab; Prenatal Vitamins Plus Low Iron; Prenatal Vitamins and Minerals Tablets; Prenatal and Post Partum Supplement; Prenate Elite; Prenate Star; Pro-ace; Prost-10 Vitamin and Mineral Supplement; Q.T. #4 Vitamin and Mineral Dietary Supplement; RE Nata OB; Renate; Renate DHA; Revit Multi-vitamins and Minerals; Revitalize Multi-vitamin and Mineral Complex; Right Choice A.M. Multi Formula - Caplet; Se-Natal 19; Se-Natal 19 Chewable; Select OB; Select-OB Plus DHA Prenatal Supplement Plus DHA; Senior Multi One; SetonET; SetonET-EC; Sincera - Tablets; Somavit Brand Vitamins and Minerals Complex; Spectrum 2 Cap; Spectrum Performa Multivitamins and Minerals Tablets; Super 7 Vitamin and Mineral Supplement; Super Charged Energy; Super Kids Chewable Multivitamin Multimineral (chewable Tablets); Super Multi; Super Vita-vim With Beta-carotene - Tab; Super-A Vitamins With Selenium Dietary Supplement; Super-cell; Supplement De Multivitamines Infusion Arome Fruits Rouges; Swiss One Multivitamin and Mineral Caplet; Swiss Total One; TL-Folate; Thrivite 19; Thrivite Rx; Trinatal GT; Trinatal Rx 1; Trinatal Ultra; Triveen-Duo DHA; Ultra Hr; Usana Megavitamin Tablets - Tab; V-V Dietary Supplement; Vc II; Vege Swiss One Multivitamin W Chel Mins Tab; Vena-Bal DHA; Vinate AZ; Virt Nate; Virt Vite GT; Virt-Advance; Virt-Bal DHA Plus; Virt-Nate; Virt-PN; Virt-Pn; Vita Balance 2000; Vita Day Tab; Vita Plex Tab; Vita Vim With Beta Carotene-caplet; Vita-vim With Beta-carotene - Tab; VitaPhil Aide; Vitafol Fe Plus; Vitafol Ultra; Vitalife - Capsule; Vitamin A C E W.niacinam.beta Car.and Min.; Vitamin E + 3 (extra Strength); Vitamin E + 3 Extra Strength With Zinc; Vitamins A, C & E Cap.; Vitamins C Plus E W.beta Carotene and Se; Vitaphil 90 DHA; Vitaphil DHA; Viva Kids - Tab; Vol-Nate; Vol-Plus; Vol-Tab Rx; Vtb Vitamin and Mineral Supplement; Vyo Cylate - Pwr; Vyqua; Webber E Plus 3 Cap; Webber Natural Source Beta Carotene Cap; WesTab Plus; Women's Biomultiple Vitamin and Mineral Supplement; Women's Change Formula; Women's Formula; Zatean-Pn; Zinc With B-carotene Tab; healthy mamaBE WELL ROUNDED BE WELL ROUNDED

$$$$