1548953
  -OEChem-10311715103D

 57 59  0     0  0  0  0  0  0999 V2000
   -4.6496   -1.7075   -0.6056 Cl  0  0  0  0  0  0  0  0  0  0  0  0
    2.6902    1.4255    1.0414 O   0  0  0  0  0  0  0  0  0  0  0  0
    5.9978    0.4807   -0.2824 N   0  0  0  0  0  0  0  0  0  0  0  0
    4.9855    0.8397    0.7101 C   0  0  0  0  0  0  0  0  0  0  0  0
    6.1559    1.5544   -1.2627 C   0  0  0  0  0  0  0  0  0  0  0  0
    7.2742    0.1927    0.3705 C   0  0  0  0  0  0  0  0  0  0  0  0
    3.6451    1.0978    0.0407 C   0  0  0  0  0  0  0  0  0  0  0  0
    7.1600    1.1733   -2.3372 C   0  0  0  0  0  0  0  0  0  0  0  0
    7.1287   -0.9214    1.3932 C   0  0  0  0  0  0  0  0  0  0  0  0
   -1.2636    0.4407    0.2508 C   0  0  0  0  0  0  0  0  0  0  0  0
    1.3848    1.1005    0.7799 C   0  0  0  0  0  0  0  0  0  0  0  0
   -2.6489    0.0953   -0.0271 C   0  0  0  0  0  0  0  0  0  0  0  0
   -0.7995    0.4613    1.5659 C   0  0  0  0  0  0  0  0  0  0  0  0
   -0.3991    0.7512   -0.7990 C   0  0  0  0  0  0  0  0  0  0  0  0
    0.5292    0.7924    1.8314 C   0  0  0  0  0  0  0  0  0  0  0  0
    0.9297    1.0822   -0.5335 C   0  0  0  0  0  0  0  0  0  0  0  0
   -3.7132    1.1478   -0.0787 C   0  0  0  0  0  0  0  0  0  0  0  0
   -3.0185   -1.2055   -0.2519 C   0  0  0  0  0  0  0  0  0  0  0  0
   -2.0649   -2.3275   -0.2193 C   0  0  0  0  0  0  0  0  0  0  0  0
   -3.9771    1.7528   -1.2836 C   0  0  0  0  0  0  0  0  0  0  0  0
   -4.3793    1.4624    1.0810 C   0  0  0  0  0  0  0  0  0  0  0  0
   -4.9681    2.7333   -1.3318 C   0  0  0  0  0  0  0  0  0  0  0  0
   -5.3703    2.4428    1.0327 C   0  0  0  0  0  0  0  0  0  0  0  0
   -1.8354   -2.9891    0.9768 C   0  0  0  0  0  0  0  0  0  0  0  0
   -1.4148   -2.7006   -1.3849 C   0  0  0  0  0  0  0  0  0  0  0  0
   -5.6647    3.0781   -0.1737 C   0  0  0  0  0  0  0  0  0  0  0  0
   -0.9321   -4.0515    1.0079 C   0  0  0  0  0  0  0  0  0  0  0  0
   -0.5116   -3.7632   -1.3537 C   0  0  0  0  0  0  0  0  0  0  0  0
   -0.2703   -4.4385   -0.1572 C   0  0  0  0  0  0  0  0  0  0  0  0
    5.2829    1.7173    1.3000 H   0  0  0  0  0  0  0  0  0  0  0  0
    4.8113    0.0304    1.4276 H   0  0  0  0  0  0  0  0  0  0  0  0
    5.2284    1.7299   -1.8139 H   0  0  0  0  0  0  0  0  0  0  0  0
    6.4510    2.5017   -0.7943 H   0  0  0  0  0  0  0  0  0  0  0  0
    8.0069   -0.1689   -0.3583 H   0  0  0  0  0  0  0  0  0  0  0  0
    7.6982    1.0822    0.8535 H   0  0  0  0  0  0  0  0  0  0  0  0
    3.3583    0.1960   -0.5170 H   0  0  0  0  0  0  0  0  0  0  0  0
    3.6756    1.9587   -0.6318 H   0  0  0  0  0  0  0  0  0  0  0  0
    8.1930    1.2165   -1.9788 H   0  0  0  0  0  0  0  0  0  0  0  0
    6.9643    0.1738   -2.7407 H   0  0  0  0  0  0  0  0  0  0  0  0
    7.0913    1.8805   -3.1718 H   0  0  0  0  0  0  0  0  0  0  0  0
    6.6419   -0.5851    2.3139 H   0  0  0  0  0  0  0  0  0  0  0  0
    6.5784   -1.7778    0.9885 H   0  0  0  0  0  0  0  0  0  0  0  0
    8.1222   -1.2825    1.6835 H   0  0  0  0  0  0  0  0  0  0  0  0
   -1.4595    0.2213    2.3961 H   0  0  0  0  0  0  0  0  0  0  0  0
   -0.7461    0.7452   -1.8296 H   0  0  0  0  0  0  0  0  0  0  0  0
    0.8870    0.8067    2.8570 H   0  0  0  0  0  0  0  0  0  0  0  0
    1.5609    1.3444   -1.3769 H   0  0  0  0  0  0  0  0  0  0  0  0
   -3.4410    1.4902   -2.1907 H   0  0  0  0  0  0  0  0  0  0  0  0
   -4.1579    0.9724    2.0245 H   0  0  0  0  0  0  0  0  0  0  0  0
   -5.1976    3.2278   -2.2712 H   0  0  0  0  0  0  0  0  0  0  0  0
   -5.9130    2.7112    1.9343 H   0  0  0  0  0  0  0  0  0  0  0  0
   -2.3447   -2.6977    1.8916 H   0  0  0  0  0  0  0  0  0  0  0  0
   -1.5940   -2.1830   -2.3236 H   0  0  0  0  0  0  0  0  0  0  0  0
   -6.4365    3.8414   -0.2113 H   0  0  0  0  0  0  0  0  0  0  0  0
   -0.7439   -4.5772    1.9394 H   0  0  0  0  0  0  0  0  0  0  0  0
    0.0040   -4.0645   -2.2609 H   0  0  0  0  0  0  0  0  0  0  0  0
    0.4332   -5.2656   -0.1330 H   0  0  0  0  0  0  0  0  0  0  0  0
  1 18  1  0  0  0  0
  2  7  1  0  0  0  0
  2 11  1  0  0  0  0
  3  4  1  0  0  0  0
  3  5  1  0  0  0  0
  3  6  1  0  0  0  0
  4  7  1  0  0  0  0
  4 30  1  0  0  0  0
  4 31  1  0  0  0  0
  5  8  1  0  0  0  0
  5 32  1  0  0  0  0
  5 33  1  0  0  0  0
  6  9  1  0  0  0  0
  6 34  1  0  0  0  0
  6 35  1  0  0  0  0
  7 36  1  0  0  0  0
  7 37  1  0  0  0  0
  8 38  1  0  0  0  0
  8 39  1  0  0  0  0
  8 40  1  0  0  0  0
  9 41  1  0  0  0  0
  9 42  1  0  0  0  0
  9 43  1  0  0  0  0
 10 12  1  0  0  0  0
 10 13  2  0  0  0  0
 10 14  1  0  0  0  0
 11 15  2  0  0  0  0
 11 16  1  0  0  0  0
 12 17  1  0  0  0  0
 12 18  2  0  0  0  0
 13 15  1  0  0  0  0
 13 44  1  0  0  0  0
 14 16  2  0  0  0  0
 14 45  1  0  0  0  0
 15 46  1  0  0  0  0
 16 47  1  0  0  0  0
 17 20  2  0  0  0  0
 17 21  1  0  0  0  0
 18 19  1  0  0  0  0
 19 24  2  0  0  0  0
 19 25  1  0  0  0  0
 20 22  1  0  0  0  0
 20 48  1  0  0  0  0
 21 23  2  0  0  0  0
 21 49  1  0  0  0  0
 22 26  2  0  0  0  0
 22 50  1  0  0  0  0
 23 26  1  0  0  0  0
 23 51  1  0  0  0  0
 24 27  1  0  0  0  0
 24 52  1  0  0  0  0
 25 28  2  0  0  0  0
 25 53  1  0  0  0  0
 26 54  1  0  0  0  0
 27 29  2  0  0  0  0
 27 55  1  0  0  0  0
 28 29  1  0  0  0  0
 28 56  1  0  0  0  0
 29 57  1  0  0  0  0
M  END
> <DATABASE_ID>
DB06735

> <DATABASE_NAME>
drugbank

> <ORIGINAL_SOURCE>
PUBCHEM

> <ORIGINAL_SOURCE_URL>
https://pubchem.ncbi.nlm.nih.gov/rest/pug/compound/inchikey/GKIRPKYJQBWNGO-OCEACIFDSA-N/SDF?record_type=3d

> <SMILES>
CCN(CC)CCOC1=CC=C(C=C1)C(=C(\Cl)C1=CC=CC=C1)\C1=CC=CC=C1

> <INCHI_IDENTIFIER>
InChI=1S/C26H28ClNO/c1-3-28(4-2)19-20-29-24-17-15-22(16-18-24)25(21-11-7-5-8-12-21)26(27)23-13-9-6-10-14-23/h5-18H,3-4,19-20H2,1-2H3/b26-25+

> <INCHI_KEY>
GKIRPKYJQBWNGO-OCEACIFDSA-N

> <FORMULA>
C26H28ClNO

> <MOLECULAR_WEIGHT>
405.97

> <EXACT_MASS>
405.1859422

> <JCHEM_ACCEPTOR_COUNT>
2

> <JCHEM_ATOM_COUNT>
57

> <JCHEM_AVERAGE_POLARIZABILITY>
46.9332106585645

> <JCHEM_BIOAVAILABILITY>
1

> <JCHEM_DONOR_COUNT>
0

> <JCHEM_FORMAL_CHARGE>
0

> <JCHEM_GHOSE_FILTER>
0

> <JCHEM_IUPAC>
(2-{4-[(E)-2-chloro-1,2-diphenylethenyl]phenoxy}ethyl)diethylamine

> <ALOGPS_LOGP>
6.08

> <JCHEM_LOGP>
6.474937693999999

> <ALOGPS_LOGS>
-5.99

> <JCHEM_MDDR_LIKE_RULE>
1

> <JCHEM_NUMBER_OF_RINGS>
3

> <JCHEM_PHYSIOLOGICAL_CHARGE>
1

> <JCHEM_PKA_STRONGEST_BASIC>
9.306697064734209

> <JCHEM_POLAR_SURFACE_AREA>
12.47

> <JCHEM_REFRACTIVITY>
133.76120000000003

> <JCHEM_ROTATABLE_BOND_COUNT>
9

> <JCHEM_RULE_OF_FIVE>
0

> <ALOGPS_SOLUBILITY>
4.14e-04 g/l

> <JCHEM_TRADITIONAL_IUPAC>
clomifene

> <JCHEM_VEBER_RULE>
1

> <DRUGBANK_ID>
DB06735

> <DRUG_GROUPS>
investigational

> <GENERIC_NAME>
Enclomiphene

> <SYNONYMS>
Enclomifene; Enclomifeno; Enclomifenum; Enclomiphene; trans-Clomifene; trans-Clomiphene

> <SALTS>
Enclomiphene citrate

$$$$