9852981
  -OEChem-10051721293D

 64 68  0     1  0  0  0  0  0999 V2000
   -0.3284    1.9670    2.4381 S   0  0  0  0  0  0  0  0  0  0  0  0
    3.6136    3.3909    1.1051 S   0  0  0  0  0  0  0  0  0  0  0  0
    5.4684    1.2803   -0.0774 S   0  0  0  0  0  0  0  0  0  0  0  0
   -2.1903   -4.0696   -0.9088 S   0  0  0  0  0  0  0  0  0  0  0  0
    0.5926   -1.6992   -3.0939 P   0  0  0  0  0  0  0  0  0  0  0  0
   -1.3460    2.8606   -2.0097 O   0  0  0  0  0  0  0  0  0  0  0  0
    2.0544    2.4088   -1.9924 O   0  5  0  0  0  0  0  0  0  0  0  0
    1.9142    4.6725   -1.6929 O   0  0  0  0  0  0  0  0  0  0  0  0
   -4.0045    1.1775   -1.3697 O   0  0  0  0  0  0  0  0  0  0  0  0
   -5.5248    0.1600    1.1414 O   0  0  0  0  0  0  0  0  0  0  0  0
    1.2556   -0.8520   -1.8710 O   0  0  0  0  0  0  0  0  0  0  0  0
    1.9376   -2.3636   -3.7269 O   0  0  0  0  0  0  0  0  0  0  0  0
   -0.0719   -0.7685   -4.0777 O   0  0  0  0  0  0  0  0  0  0  0  0
   -0.2251    3.1097    0.0479 N   0  0  0  0  0  0  0  0  0  0  0  0
   -2.6493    1.2991    0.5431 N   0  0  0  0  0  0  0  0  0  0  0  0
   -4.8463   -1.0015    0.7468 N   0  0  0  0  0  0  0  0  0  0  0  0
    3.2957    0.7207    1.2069 N   0  0  0  0  0  0  0  0  0  0  0  0
   -1.9113   -1.5836   -1.3119 N   0  0  0  0  0  0  0  0  0  0  0  0
   -3.3307   -3.0907   -0.1727 N   0  0  0  0  0  0  0  0  0  0  0  0
    2.1248   -4.1383    1.7481 N   0  3  0  0  0  0  0  0  0  0  0  0
   -0.2631   -2.9281   -2.3829 N   0  0  0  0  0  0  0  0  0  0  0  0
   -1.0081    3.1622    1.2673 C   0  0  1  0  0  0  0  0  0  0  0  0
   -2.1995    2.6839    0.4077 C   0  0  1  0  0  0  0  0  0  0  0  0
   -1.2526    2.9143   -0.8059 C   0  0  0  0  0  0  0  0  0  0  0  0
    1.1271    3.2445   -0.0046 C   0  0  0  0  0  0  0  0  0  0  0  0
    1.3023    2.7889    2.4931 C   0  0  0  0  0  0  0  0  0  0  0  0
    1.8736    3.1418    1.1214 C   0  0  0  0  0  0  0  0  0  0  0  0
    1.7677    3.4658   -1.3783 C   0  0  0  0  0  0  0  0  0  0  0  0
   -3.5049    0.6987   -0.3644 C   0  0  0  0  0  0  0  0  0  0  0  0
   -3.8280   -0.7305   -0.0127 C   0  0  0  0  0  0  0  0  0  0  0  0
    4.0504    1.7120    0.7873 C   0  0  0  0  0  0  0  0  0  0  0  0
   -3.0073   -1.8412   -0.5061 C   0  0  0  0  0  0  0  0  0  0  0  0
    3.8727   -0.4735    0.8211 C   0  0  0  0  0  0  0  0  0  0  0  0
    5.0538   -0.3725    0.1163 C   0  0  0  0  0  0  0  0  0  0  0  0
    3.2706   -1.7359    1.1403 C   0  0  0  0  0  0  0  0  0  0  0  0
   -1.3622   -2.7405   -1.6107 C   0  0  0  0  0  0  0  0  0  0  0  0
    1.8881   -1.8374    1.2636 C   0  0  0  0  0  0  0  0  0  0  0  0
    4.0680   -2.8610    1.3272 C   0  0  0  0  0  0  0  0  0  0  0  0
   -6.6160   -0.2247    1.9631 C   0  0  0  0  0  0  0  0  0  0  0  0
    1.3335   -3.0711    1.5734 C   0  0  0  0  0  0  0  0  0  0  0  0
    3.4582   -4.0687    1.6354 C   0  0  0  0  0  0  0  0  0  0  0  0
    1.5121   -5.4230    2.0740 C   0  0  0  0  0  0  0  0  0  0  0  0
   -7.3644    1.0158    2.4018 C   0  0  0  0  0  0  0  0  0  0  0  0
   -1.1230    4.1806    1.6572 H   0  0  0  0  0  0  0  0  0  0  0  0
   -3.0469    3.3796    0.4243 H   0  0  0  0  0  0  0  0  0  0  0  0
   -2.3316    0.7428    1.3334 H   0  0  0  0  0  0  0  0  0  0  0  0
    1.2072    3.7042    3.0888 H   0  0  0  0  0  0  0  0  0  0  0  0
    1.9665    2.1123    3.0404 H   0  0  0  0  0  0  0  0  0  0  0  0
    5.6839   -1.1452   -0.3018 H   0  0  0  0  0  0  0  0  0  0  0  0
    1.2338   -0.9824    1.1218 H   0  0  0  0  0  0  0  0  0  0  0  0
    5.1511   -2.8308    1.2602 H   0  0  0  0  0  0  0  0  0  0  0  0
   -6.2430   -0.7637    2.8413 H   0  0  0  0  0  0  0  0  0  0  0  0
   -7.2866   -0.8833    1.3995 H   0  0  0  0  0  0  0  0  0  0  0  0
    0.2656   -3.2137    1.6874 H   0  0  0  0  0  0  0  0  0  0  0  0
    4.0238   -4.9776    1.8020 H   0  0  0  0  0  0  0  0  0  0  0  0
    0.0294   -3.8944   -2.5135 H   0  0  0  0  0  0  0  0  0  0  0  0
    2.1277   -6.2349    1.6770 H   0  0  0  0  0  0  0  0  0  0  0  0
    0.5187   -5.4807    1.6202 H   0  0  0  0  0  0  0  0  0  0  0  0
    1.4422   -5.4899    3.1628 H   0  0  0  0  0  0  0  0  0  0  0  0
   -8.2141    0.7552    3.0388 H   0  0  0  0  0  0  0  0  0  0  0  0
   -7.7315    1.5721    1.5329 H   0  0  0  0  0  0  0  0  0  0  0  0
   -6.7020    1.6903    2.9545 H   0  0  0  0  0  0  0  0  0  0  0  0
    1.7650   -0.0408   -2.0827 H   0  0  0  0  0  0  0  0  0  0  0  0
    2.5533   -1.7880   -4.2287 H   0  0  0  0  0  0  0  0  0  0  0  0
  1 22  1  0  0  0  0
  1 26  1  0  0  0  0
  2 27  1  0  0  0  0
  2 31  1  0  0  0  0
  3 31  1  0  0  0  0
  3 34  1  0  0  0  0
  4 19  1  0  0  0  0
  4 36  1  0  0  0  0
  5 11  1  0  0  0  0
  5 12  1  0  0  0  0
  5 13  2  0  0  0  0
  5 21  1  0  0  0  0
  6 24  2  0  0  0  0
  7 28  1  0  0  0  0
  8 28  2  0  0  0  0
  9 29  2  0  0  0  0
 10 16  1  0  0  0  0
 10 39  1  0  0  0  0
 11 63  1  0  0  0  0
 12 64  1  0  0  0  0
 14 22  1  0  0  0  0
 14 24  1  0  0  0  0
 14 25  1  0  0  0  0
 15 23  1  0  0  0  0
 15 29  1  0  0  0  0
 15 46  1  0  0  0  0
 16 30  2  0  0  0  0
 17 31  2  0  0  0  0
 17 33  1  0  0  0  0
 18 32  1  0  0  0  0
 18 36  2  0  0  0  0
 19 32  2  0  0  0  0
 20 40  2  0  0  0  0
 20 41  1  0  0  0  0
 20 42  1  0  0  0  0
 21 36  1  0  0  0  0
 21 56  1  0  0  0  0
 22 23  1  0  0  0  0
 22 44  1  0  0  0  0
 23 24  1  0  0  0  0
 23 45  1  0  0  0  0
 25 27  2  0  0  0  0
 25 28  1  0  0  0  0
 26 27  1  0  0  0  0
 26 47  1  0  0  0  0
 26 48  1  0  0  0  0
 29 30  1  0  0  0  0
 30 32  1  0  0  0  0
 33 34  2  0  0  0  0
 33 35  1  0  0  0  0
 34 49  1  0  0  0  0
 35 37  2  0  0  0  0
 35 38  1  0  0  0  0
 37 40  1  0  0  0  0
 37 50  1  0  0  0  0
 38 41  2  0  0  0  0
 38 51  1  0  0  0  0
 39 43  1  0  0  0  0
 39 52  1  0  0  0  0
 39 53  1  0  0  0  0
 40 54  1  0  0  0  0
 41 55  1  0  0  0  0
 42 57  1  0  0  0  0
 42 58  1  0  0  0  0
 42 59  1  0  0  0  0
 43 60  1  0  0  0  0
 43 61  1  0  0  0  0
 43 62  1  0  0  0  0
M  CHG  2   7  -1  20   1
M  END
> <DATABASE_ID>
DB06590

> <DATABASE_NAME>
drugbank

> <ORIGINAL_SOURCE>
PUBCHEM

> <ORIGINAL_SOURCE_URL>
https://pubchem.ncbi.nlm.nih.gov/rest/pug/compound/inchikey/ZCCUWMICIWSJIX-NQJJCJBVSA-N/SDF?record_type=3d

> <SMILES>
[H][C@]12SCC(SC3=NC(=CS3)C3=CC=[N+](C)C=C3)=C(N1C(=O)[C@H]2NC(=O)C(=N/OCC)\C1=NSC(NP(O)(O)=O)=N1)C([O-])=O

> <INCHI_IDENTIFIER>
InChI=1S/C22H21N8O8PS4/c1-3-38-26-13(16-25-21(43-28-16)27-39(35,36)37)17(31)24-14-18(32)30-15(20(33)34)12(9-40-19(14)30)42-22-23-11(8-41-22)10-4-6-29(2)7-5-10/h4-8,14,19H,3,9H2,1-2H3,(H4-,24,25,27,28,31,33,34,35,36,37)/b26-13-/t14-,19-/m1/s1

> <INCHI_KEY>
ZCCUWMICIWSJIX-NQJJCJBVSA-N

> <FORMULA>
C22H21N8O8PS4

> <MOLECULAR_WEIGHT>
684.67

> <EXACT_MASS>
684.010281362

> <JCHEM_ACCEPTOR_COUNT>
13

> <JCHEM_ATOM_COUNT>
64

> <JCHEM_AVERAGE_POLARIZABILITY>
63.89905812073626

> <JCHEM_BIOAVAILABILITY>
0

> <JCHEM_DONOR_COUNT>
4

> <JCHEM_FORMAL_CHARGE>
0

> <JCHEM_GHOSE_FILTER>
0

> <JCHEM_IUPAC>
4-(2-{[(6R,7R)-2-carboxylato-7-[(2Z)-2-(ethoxyimino)-2-[5-(phosphonoamino)-1,2,4-thiadiazol-3-yl]acetamido]-8-oxo-5-thia-1-azabicyclo[4.2.0]oct-2-en-3-yl]sulfanyl}-1,3-thiazol-4-yl)-1-methylpyridin-1-ium

> <ALOGPS_LOGP>
-0.79

> <JCHEM_LOGP>
-3.7164005042955233

> <ALOGPS_LOGS>
-4.48

> <JCHEM_MDDR_LIKE_RULE>
1

> <JCHEM_NUMBER_OF_RINGS>
5

> <JCHEM_PHYSIOLOGICAL_CHARGE>
-1

> <JCHEM_PKA>
2.8535693876028914

> <JCHEM_PKA_STRONGEST_ACIDIC>
1.8008863314816121

> <JCHEM_PKA_STRONGEST_BASIC>
0.389556139760198

> <JCHEM_POLAR_SURFACE_AREA>
223.23999999999995

> <JCHEM_REFRACTIVITY>
171.62909999999994

> <JCHEM_ROTATABLE_BOND_COUNT>
11

> <JCHEM_RULE_OF_FIVE>
0

> <ALOGPS_SOLUBILITY>
2.45e-02 g/l

> <JCHEM_TRADITIONAL_IUPAC>
4-(2-{[(6R,7R)-2-carboxylato-7-[(2Z)-2-(ethoxyimino)-2-[5-(phosphonoamino)-1,2,4-thiadiazol-3-yl]acetamido]-8-oxo-5-thia-1-azabicyclo[4.2.0]oct-2-en-3-yl]sulfanyl}-1,3-thiazol-4-yl)-1-methylpyridin-1-ium

> <JCHEM_VEBER_RULE>
0

> <DRUGBANK_ID>
DB06590

> <DRUG_GROUPS>
approved; investigational

> <GENERIC_NAME>
Ceftaroline fosamil

> <SYNONYMS>
(6R,7R)-7-[(2Z)-2-ethoxyimino-2-[5-(phosphonoamino)-1,2,4-thiadiazol-3-yl]acetyl]amino]-3-[4-(1-methylpyridin-1-ium-4-yl)-1,3-thiazol-2-yl]sulfanyl]-8-oxo-5-thia-1-azabicyclo[4.2.0]oct-2-ene-2-carboxylate; Ceftarolina fosamilo; Ceftaroline; Ceftaroline fosamil; Ceftarolinum fosamilum

> <PRODUCTS>
Teflaro; Zinforo

> <SALTS>
Ceftaroline fosamil acetate; Ceftaroline fosamil acetate monohydrate

$$$$