9547900
  -OEChem-10051720553D

 57 60  0     0  0  0  0  0  0999 V2000
   -5.1863   -1.4436   -1.8234 F   0  0  0  0  0  0  0  0  0  0  0  0
   -4.2858   -3.3357   -1.2446 F   0  0  0  0  0  0  0  0  0  0  0  0
   -5.8258   -2.4366    0.0091 F   0  0  0  0  0  0  0  0  0  0  0  0
   -0.9511    3.3587    0.0766 O   0  0  0  0  0  0  0  0  0  0  0  0
   -2.2554   -1.0551    1.5893 O   0  0  0  0  0  0  0  0  0  0  0  0
    1.9665    2.9116   -1.7102 O   0  0  0  0  0  0  0  0  0  0  0  0
    2.7112   -5.2469   -0.3058 O   0  0  0  0  0  0  0  0  0  0  0  0
    2.0358   -3.5078    0.9969 O   0  0  0  0  0  0  0  0  0  0  0  0
    4.0555   -1.8838   -0.0680 N   0  0  0  0  0  0  0  0  0  0  0  0
   -3.1677   -1.9851    1.1057 N   0  0  0  0  0  0  0  0  0  0  0  0
   -1.4889    1.1900    0.9508 C   0  0  0  0  0  0  0  0  0  0  0  0
   -0.5138    1.3495    2.0665 C   0  0  0  0  0  0  0  0  0  0  0  0
   -2.2655    0.0463    0.7896 C   0  0  0  0  0  0  0  0  0  0  0  0
   -1.6746    2.1972   -0.0019 C   0  0  0  0  0  0  0  0  0  0  0  0
   -3.1811   -0.1371   -0.2318 C   0  0  0  0  0  0  0  0  0  0  0  0
   -1.1499    1.9887    3.3092 C   0  0  0  0  0  0  0  0  0  0  0  0
    3.4325   -0.7908   -0.6271 C   0  0  0  0  0  0  0  0  0  0  0  0
    3.8298    0.3287    0.1070 C   0  0  0  0  0  0  0  0  0  0  0  0
   -2.5906    2.0480   -1.0485 C   0  0  0  0  0  0  0  0  0  0  0  0
   -3.3569    0.8811   -1.1803 C   0  0  0  0  0  0  0  0  0  0  0  0
    0.6430    4.7886   -1.0249 C   0  0  0  0  0  0  0  0  0  0  0  0
   -0.6620    4.0180   -1.1488 C   0  0  0  0  0  0  0  0  0  0  0  0
   -3.7069   -1.4188    0.0219 C   0  0  0  0  0  0  0  0  0  0  0  0
    1.8099    3.8798   -0.6753 C   0  0  0  0  0  0  0  0  0  0  0  0
    2.4531    1.6913   -1.3478 C   0  0  0  0  0  0  0  0  0  0  0  0
    3.3297    1.5935   -0.2610 C   0  0  0  0  0  0  0  0  0  0  0  0
    4.7117   -0.1307    1.1248 C   0  0  0  0  0  0  0  0  0  0  0  0
    4.8307   -1.4950    0.9912 C   0  0  0  0  0  0  0  0  0  0  0  0
    2.5566   -0.7083   -1.7154 C   0  0  0  0  0  0  0  0  0  0  0  0
   -0.1584    2.1165    4.4547 C   0  0  0  0  0  0  0  0  0  0  0  0
    3.9226   -3.2511   -0.5230 C   0  0  0  0  0  0  0  0  0  0  0  0
    2.0738    0.5567   -2.0624 C   0  0  0  0  0  0  0  0  0  0  0  0
   -4.7304   -2.1463   -0.7472 C   0  0  0  0  0  0  0  0  0  0  0  0
    2.7892   -3.9717    0.1542 C   0  0  0  0  0  0  0  0  0  0  0  0
   -0.1081    0.3652    2.3347 H   0  0  0  0  0  0  0  0  0  0  0  0
    0.3517    1.9382    1.7414 H   0  0  0  0  0  0  0  0  0  0  0  0
   -2.0054    1.3885    3.6428 H   0  0  0  0  0  0  0  0  0  0  0  0
   -1.5398    2.9831    3.0600 H   0  0  0  0  0  0  0  0  0  0  0  0
   -2.7714    2.8342   -1.7767 H   0  0  0  0  0  0  0  0  0  0  0  0
   -4.0680    0.7863   -1.9945 H   0  0  0  0  0  0  0  0  0  0  0  0
    0.5477    5.5508   -0.2429 H   0  0  0  0  0  0  0  0  0  0  0  0
    0.8408    5.2998   -1.9742 H   0  0  0  0  0  0  0  0  0  0  0  0
   -0.5657    3.3146   -1.9860 H   0  0  0  0  0  0  0  0  0  0  0  0
   -1.4714    4.7229   -1.3720 H   0  0  0  0  0  0  0  0  0  0  0  0
    2.7273    4.4761   -0.6099 H   0  0  0  0  0  0  0  0  0  0  0  0
    1.6164    3.4226    0.3024 H   0  0  0  0  0  0  0  0  0  0  0  0
    3.6671    2.4615    0.2961 H   0  0  0  0  0  0  0  0  0  0  0  0
    5.2061    0.4708    1.8752 H   0  0  0  0  0  0  0  0  0  0  0  0
    5.4008   -2.2142    1.5640 H   0  0  0  0  0  0  0  0  0  0  0  0
    2.2508   -1.5851   -2.2757 H   0  0  0  0  0  0  0  0  0  0  0  0
    0.2214    1.1348    4.7550 H   0  0  0  0  0  0  0  0  0  0  0  0
    0.6931    2.7414    4.1669 H   0  0  0  0  0  0  0  0  0  0  0  0
   -0.6393    2.5758    5.3238 H   0  0  0  0  0  0  0  0  0  0  0  0
    3.7716   -3.2475   -1.6063 H   0  0  0  0  0  0  0  0  0  0  0  0
    4.8621   -3.7678   -0.2984 H   0  0  0  0  0  0  0  0  0  0  0  0
    1.3897    0.6492   -2.9028 H   0  0  0  0  0  0  0  0  0  0  0  0
    1.9802   -5.7445    0.1188 H   0  0  0  0  0  0  0  0  0  0  0  0
  1 33  1  0  0  0  0
  2 33  1  0  0  0  0
  3 33  1  0  0  0  0
  4 14  1  0  0  0  0
  4 22  1  0  0  0  0
  5 10  1  0  0  0  0
  5 13  1  0  0  0  0
  6 24  1  0  0  0  0
  6 25  1  0  0  0  0
  7 34  1  0  0  0  0
  7 57  1  0  0  0  0
  8 34  2  0  0  0  0
  9 17  1  0  0  0  0
  9 28  1  0  0  0  0
  9 31  1  0  0  0  0
 10 23  2  0  0  0  0
 11 12  1  0  0  0  0
 11 13  1  0  0  0  0
 11 14  2  0  0  0  0
 12 16  1  0  0  0  0
 12 35  1  0  0  0  0
 12 36  1  0  0  0  0
 13 15  2  0  0  0  0
 14 19  1  0  0  0  0
 15 20  1  0  0  0  0
 15 23  1  0  0  0  0
 16 30  1  0  0  0  0
 16 37  1  0  0  0  0
 16 38  1  0  0  0  0
 17 18  2  0  0  0  0
 17 29  1  0  0  0  0
 18 26  1  0  0  0  0
 18 27  1  0  0  0  0
 19 20  2  0  0  0  0
 19 39  1  0  0  0  0
 20 40  1  0  0  0  0
 21 22  1  0  0  0  0
 21 24  1  0  0  0  0
 21 41  1  0  0  0  0
 21 42  1  0  0  0  0
 22 43  1  0  0  0  0
 22 44  1  0  0  0  0
 23 33  1  0  0  0  0
 24 45  1  0  0  0  0
 24 46  1  0  0  0  0
 25 26  2  0  0  0  0
 25 32  1  0  0  0  0
 26 47  1  0  0  0  0
 27 28  2  0  0  0  0
 27 48  1  0  0  0  0
 28 49  1  0  0  0  0
 29 32  2  0  0  0  0
 29 50  1  0  0  0  0
 30 51  1  0  0  0  0
 30 52  1  0  0  0  0
 30 53  1  0  0  0  0
 31 34  1  0  0  0  0
 31 54  1  0  0  0  0
 31 55  1  0  0  0  0
 32 56  1  0  0  0  0
M  END
> <DATABASE_ID>
DB07053

> <DATABASE_NAME>
drugbank

> <ORIGINAL_SOURCE>
PUBCHEM

> <ORIGINAL_SOURCE_URL>
https://pubchem.ncbi.nlm.nih.gov/rest/pug/compound/inchikey/TWVYNPULGKGJOS-UHFFFAOYSA-N/SDF?record_type=3d

> <SMILES>
CCCC1=C2ON=C(C2=CC=C1OCCCOC1=CC2=C(C=C1)N(CC(O)=O)C=C2)C(F)(F)F

> <INCHI_IDENTIFIER>
InChI=1S/C24H23F3N2O5/c1-2-4-17-20(8-6-18-22(17)34-28-23(18)24(25,26)27)33-12-3-11-32-16-5-7-19-15(13-16)9-10-29(19)14-21(30)31/h5-10,13H,2-4,11-12,14H2,1H3,(H,30,31)

> <INCHI_KEY>
TWVYNPULGKGJOS-UHFFFAOYSA-N

> <FORMULA>
C24H23F3N2O5

> <MOLECULAR_WEIGHT>
476.445

> <EXACT_MASS>
476.155906471

> <JCHEM_ACCEPTOR_COUNT>
5

> <JCHEM_AVERAGE_POLARIZABILITY>
46.02180993312008

> <JCHEM_BIOAVAILABILITY>
0

> <JCHEM_DONOR_COUNT>
1

> <JCHEM_FORMAL_CHARGE>
0

> <JCHEM_GHOSE_FILTER>
1

> <JCHEM_IUPAC>
2-[5-(3-{[7-propyl-3-(trifluoromethyl)-1,2-benzoxazol-6-yl]oxy}propoxy)-1H-indol-1-yl]acetic acid

> <ALOGPS_LOGP>
5.30

> <JCHEM_LOGP>
5.369686070000001

> <ALOGPS_LOGS>
-4.59

> <JCHEM_MDDR_LIKE_RULE>
1

> <JCHEM_NUMBER_OF_RINGS>
4

> <JCHEM_PHYSIOLOGICAL_CHARGE>
-1

> <JCHEM_PKA_STRONGEST_ACIDIC>
3.9562715039415197

> <JCHEM_PKA_STRONGEST_BASIC>
-2.6854331153906297

> <JCHEM_POLAR_SURFACE_AREA>
86.72

> <JCHEM_REFRACTIVITY>
117.62119999999999

> <JCHEM_ROTATABLE_BOND_COUNT>
11

> <JCHEM_RULE_OF_FIVE>
0

> <ALOGPS_SOLUBILITY>
1.22e-02 g/l

> <JCHEM_TRADITIONAL_IUPAC>
[5-(3-{[7-propyl-3-(trifluoromethyl)-1,2-benzoxazol-6-yl]oxy}propoxy)indol-1-yl]acetic acid

> <JCHEM_VEBER_RULE>
0

> <DRUGBANK_ID>
DB07053

> <DRUG_GROUPS>
experimental

> <GENERIC_NAME>
2-{5-[3-(7-PROPYL-3-TRIFLUOROMETHYLBENZO[D]ISOXAZOL-6-YLOXY)PROPOXY]INDOL-1-YL}ETHANOIC ACID

$$$$