2805
  -OEChem-10051722003D

 47 49  0     1  0  0  0  0  0999 V2000
    6.5751   -2.0396   -0.5599 Cl  0  0  0  0  0  0  0  0  0  0  0  0
    0.0498   -0.9256    0.0985 O   0  0  0  0  0  0  0  0  0  0  0  0
   -3.6255   -1.1510    0.2681 N   0  0  0  0  0  0  0  0  0  0  0  0
   -4.5788   -2.1443   -0.2457 C   0  0  0  0  0  0  0  0  0  0  0  0
   -3.9699    0.2024   -0.1899 C   0  0  0  0  0  0  0  0  0  0  0  0
   -6.0049   -1.8263    0.2068 C   0  0  0  0  0  0  0  0  0  0  0  0
   -5.3760    0.5972    0.2642 C   0  0  0  0  0  0  0  0  0  0  0  0
   -6.4148   -0.4162   -0.2026 C   0  0  0  0  0  0  0  0  0  0  0  0
   -2.2617   -1.4951   -0.1334 C   0  0  0  0  0  0  0  0  0  0  0  0
   -1.2592   -0.5446    0.5012 C   0  0  0  0  0  0  0  0  0  0  0  0
    1.0374   -0.0723    0.6606 C   0  0  1  0  0  0  0  0  0  0  0  0
    2.4363   -0.5705    0.3532 C   0  0  0  0  0  0  0  0  0  0  0  0
    0.8088    1.3578    0.2174 C   0  0  0  0  0  0  0  0  0  0  0  0
    3.4554   -0.3099    1.2502 C   0  0  0  0  0  0  0  0  0  0  0  0
    2.6578   -1.2720   -0.8175 C   0  0  0  0  0  0  0  0  0  0  0  0
    1.1863    2.3921    1.0552 C   0  0  0  0  0  0  0  0  0  0  0  0
    0.2273    1.5972   -1.0149 C   0  0  0  0  0  0  0  0  0  0  0  0
    4.7424   -0.7671    0.9663 C   0  0  0  0  0  0  0  0  0  0  0  0
    3.9448   -1.7293   -1.1011 C   0  0  0  0  0  0  0  0  0  0  0  0
    0.9754    3.7093    0.6473 C   0  0  0  0  0  0  0  0  0  0  0  0
    0.0165    2.9144   -1.4229 C   0  0  0  0  0  0  0  0  0  0  0  0
    4.9870   -1.4768   -0.2093 C   0  0  0  0  0  0  0  0  0  0  0  0
    0.3905    3.9703   -0.5918 C   0  0  0  0  0  0  0  0  0  0  0  0
   -4.3168   -3.1407    0.1307 H   0  0  0  0  0  0  0  0  0  0  0  0
   -4.5425   -2.1901   -1.3422 H   0  0  0  0  0  0  0  0  0  0  0  0
   -3.8970    0.2799   -1.2826 H   0  0  0  0  0  0  0  0  0  0  0  0
   -3.3224    0.9687    0.2416 H   0  0  0  0  0  0  0  0  0  0  0  0
   -6.0749   -1.9252    1.2976 H   0  0  0  0  0  0  0  0  0  0  0  0
   -6.7013   -2.5537   -0.2253 H   0  0  0  0  0  0  0  0  0  0  0  0
   -5.6277    1.5893   -0.1277 H   0  0  0  0  0  0  0  0  0  0  0  0
   -5.4032    0.6695    1.3591 H   0  0  0  0  0  0  0  0  0  0  0  0
   -7.3956   -0.1717    0.2196 H   0  0  0  0  0  0  0  0  0  0  0  0
   -6.5111   -0.3654   -1.2941 H   0  0  0  0  0  0  0  0  0  0  0  0
   -2.1449   -1.4850   -1.2255 H   0  0  0  0  0  0  0  0  0  0  0  0
   -2.0171   -2.5159    0.1882 H   0  0  0  0  0  0  0  0  0  0  0  0
   -1.3307   -0.6240    1.5940 H   0  0  0  0  0  0  0  0  0  0  0  0
   -1.4745    0.4822    0.2308 H   0  0  0  0  0  0  0  0  0  0  0  0
    0.9061   -0.1308    1.7514 H   0  0  0  0  0  0  0  0  0  0  0  0
    3.2769    0.2374    2.1708 H   0  0  0  0  0  0  0  0  0  0  0  0
    1.8636   -1.4706   -1.5306 H   0  0  0  0  0  0  0  0  0  0  0  0
    1.6373    2.2018    2.0244 H   0  0  0  0  0  0  0  0  0  0  0  0
   -0.0448    0.7971   -1.6972 H   0  0  0  0  0  0  0  0  0  0  0  0
    5.5447   -0.5637    1.6709 H   0  0  0  0  0  0  0  0  0  0  0  0
    4.1214   -2.2788   -2.0223 H   0  0  0  0  0  0  0  0  0  0  0  0
    1.2657    4.5315    1.2948 H   0  0  0  0  0  0  0  0  0  0  0  0
   -0.4325    3.1181   -2.3907 H   0  0  0  0  0  0  0  0  0  0  0  0
    0.2277    4.9958   -0.9101 H   0  0  0  0  0  0  0  0  0  0  0  0
  1 22  1  0  0  0  0
  2 10  1  0  0  0  0
  2 11  1  0  0  0  0
  3  4  1  0  0  0  0
  3  5  1  0  0  0  0
  3  9  1  0  0  0  0
  4  6  1  0  0  0  0
  4 24  1  0  0  0  0
  4 25  1  0  0  0  0
  5  7  1  0  0  0  0
  5 26  1  0  0  0  0
  5 27  1  0  0  0  0
  6  8  1  0  0  0  0
  6 28  1  0  0  0  0
  6 29  1  0  0  0  0
  7  8  1  0  0  0  0
  7 30  1  0  0  0  0
  7 31  1  0  0  0  0
  8 32  1  0  0  0  0
  8 33  1  0  0  0  0
  9 10  1  0  0  0  0
  9 34  1  0  0  0  0
  9 35  1  0  0  0  0
 10 36  1  0  0  0  0
 10 37  1  0  0  0  0
 11 12  1  0  0  0  0
 11 13  1  0  0  0  0
 11 38  1  0  0  0  0
 12 14  2  0  0  0  0
 12 15  1  0  0  0  0
 13 16  2  0  0  0  0
 13 17  1  0  0  0  0
 14 18  1  0  0  0  0
 14 39  1  0  0  0  0
 15 19  2  0  0  0  0
 15 40  1  0  0  0  0
 16 20  1  0  0  0  0
 16 41  1  0  0  0  0
 17 21  2  0  0  0  0
 17 42  1  0  0  0  0
 18 22  2  0  0  0  0
 18 43  1  0  0  0  0
 19 22  1  0  0  0  0
 19 44  1  0  0  0  0
 20 23  2  0  0  0  0
 20 45  1  0  0  0  0
 21 23  1  0  0  0  0
 21 46  1  0  0  0  0
 23 47  1  0  0  0  0
M  END
> <DATABASE_ID>
DB09002

> <DATABASE_NAME>
drugbank

> <ORIGINAL_SOURCE>
PUBCHEM

> <ORIGINAL_SOURCE_URL>
https://pubchem.ncbi.nlm.nih.gov/rest/pug/compound/inchikey/FLNXBVJLPJNOSI-UHFFFAOYSA-N/SDF?record_type=3d

> <SMILES>
ClC1=CC=C(C=C1)C(OCCN1CCCCC1)C1=CC=CC=C1

> <INCHI_IDENTIFIER>
InChI=1S/C20H24ClNO/c21-19-11-9-18(10-12-19)20(17-7-3-1-4-8-17)23-16-15-22-13-5-2-6-14-22/h1,3-4,7-12,20H,2,5-6,13-16H2

> <INCHI_KEY>
FLNXBVJLPJNOSI-UHFFFAOYSA-N

> <FORMULA>
C20H24ClNO

> <MOLECULAR_WEIGHT>
329.864

> <EXACT_MASS>
329.154642102

> <JCHEM_ACCEPTOR_COUNT>
2

> <JCHEM_AVERAGE_POLARIZABILITY>
37.23020359887859

> <JCHEM_BIOAVAILABILITY>
1

> <JCHEM_DONOR_COUNT>
0

> <JCHEM_FORMAL_CHARGE>
0

> <JCHEM_GHOSE_FILTER>
1

> <JCHEM_IUPAC>
1-{2-[(4-chlorophenyl)(phenyl)methoxy]ethyl}piperidine

> <ALOGPS_LOGP>
5.08

> <JCHEM_LOGP>
5.1063180699999995

> <ALOGPS_LOGS>
-5.63

> <JCHEM_MDDR_LIKE_RULE>
1

> <JCHEM_NUMBER_OF_RINGS>
3

> <JCHEM_PHYSIOLOGICAL_CHARGE>
1

> <JCHEM_PKA_STRONGEST_BASIC>
8.819677962712234

> <JCHEM_POLAR_SURFACE_AREA>
12.47

> <JCHEM_REFRACTIVITY>
96.87379999999999

> <JCHEM_ROTATABLE_BOND_COUNT>
6

> <JCHEM_RULE_OF_FIVE>
0

> <ALOGPS_SOLUBILITY>
7.65e-04 g/l

> <JCHEM_TRADITIONAL_IUPAC>
cloperastine

> <JCHEM_VEBER_RULE>
1

> <DRUGBANK_ID>
DB09002

> <DRUG_GROUPS>
experimental

> <GENERIC_NAME>
Cloperastine

> <SYNONYMS>
Cloperastina; Cloperastine

> <PRODUCTS>
Facol Classic One

> <SALTS>
Cloperastine hydrochloride

$$$$