3741
  -OEChem-10051722033D

 57 57  0     1  0  0  0  0  0999 V2000
   -2.9336   -1.6489   -1.0025 I   0  0  0  0  0  0  0  0  0  0  0  0
    2.9561   -1.5564    0.5964 I   0  0  0  0  0  0  0  0  0  0  0  0
   -0.1518    3.6753    0.0917 I   0  0  0  0  0  0  0  0  0  0  0  0
    5.7540    0.9654   -1.1509 O   0  0  0  0  0  0  0  0  0  0  0  0
   -5.8746    0.4888    0.9967 O   0  0  0  0  0  0  0  0  0  0  0  0
    1.9188   -4.8191   -2.6269 O   0  0  0  0  0  0  0  0  0  0  0  0
    2.5347    1.8744    1.8104 O   0  0  0  0  0  0  0  0  0  0  0  0
   -2.7251    1.9135   -1.8334 O   0  0  0  0  0  0  0  0  0  0  0  0
   -0.2365   -4.6689    0.8902 O   0  0  0  0  0  0  0  0  0  0  0  0
    7.9367    1.6139    0.4477 O   0  0  0  0  0  0  0  0  0  0  0  0
   -8.0973    1.1725   -0.5305 O   0  0  0  0  0  0  0  0  0  0  0  0
   -0.9725   -3.7030    3.1582 O   0  0  0  0  0  0  0  0  0  0  0  0
    0.0435   -2.6335   -0.2623 N   0  0  0  0  0  0  0  0  0  0  0  0
    3.1529    1.9990   -0.4210 N   0  0  0  0  0  0  0  0  0  0  0  0
   -3.3501    1.7578    0.3950 N   0  0  0  0  0  0  0  0  0  0  0  0
    0.0004   -1.2339   -0.1844 C   0  0  0  0  0  0  0  0  0  0  0  0
    1.1019    0.8725    0.2478 C   0  0  0  0  0  0  0  0  0  0  0  0
   -1.2298    0.8359   -0.3839 C   0  0  0  0  0  0  0  0  0  0  0  0
   -1.1869   -0.5561   -0.4614 C   0  0  0  0  0  0  0  0  0  0  0  0
    1.1448   -0.5195    0.1701 C   0  0  0  0  0  0  0  0  0  0  0  0
    0.4012   -3.3087   -1.5435 C   0  0  0  0  0  0  0  0  0  0  0  0
   -0.0854    1.5502   -0.0292 C   0  0  0  0  0  0  0  0  0  0  0  0
    4.3873    2.7212   -0.2128 C   0  0  0  0  0  0  0  0  0  0  0  0
   -4.6214    2.4178    0.2624 C   0  0  0  0  0  0  0  0  0  0  0  0
    2.3031    1.6220    0.6197 C   0  0  0  0  0  0  0  0  0  0  0  0
   -2.4940    1.5574   -0.6808 C   0  0  0  0  0  0  0  0  0  0  0  0
    5.5870    1.7993   -0.0036 C   0  0  2  0  0  0  0  0  0  0  0  0
   -5.7625    1.4520   -0.0516 C   0  0  2  0  0  0  0  0  0  0  0  0
   -0.2553   -3.4345    0.8878 C   0  0  0  0  0  0  0  0  0  0  0  0
    1.6404   -4.1718   -1.3921 C   0  0  0  0  0  0  0  0  0  0  0  0
    6.8892    2.5559    0.2382 C   0  0  0  0  0  0  0  0  0  0  0  0
   -7.1095    2.1487   -0.2147 C   0  0  0  0  0  0  0  0  0  0  0  0
   -0.6654   -2.7392    2.1733 C   0  0  0  0  0  0  0  0  0  0  0  0
   -0.4466   -3.9402   -1.8347 H   0  0  0  0  0  0  0  0  0  0  0  0
    0.5374   -2.5622   -2.3349 H   0  0  0  0  0  0  0  0  0  0  0  0
    4.5343    3.3330   -1.1098 H   0  0  0  0  0  0  0  0  0  0  0  0
    4.2672    3.3913    0.6453 H   0  0  0  0  0  0  0  0  0  0  0  0
   -4.8052    2.9173    1.2202 H   0  0  0  0  0  0  0  0  0  0  0  0
   -4.5478    3.1853   -0.5159 H   0  0  0  0  0  0  0  0  0  0  0  0
    5.4057    1.1265    0.8430 H   0  0  0  0  0  0  0  0  0  0  0  0
   -5.5423    0.8884   -0.9660 H   0  0  0  0  0  0  0  0  0  0  0  0
    2.9043    1.7475   -1.3736 H   0  0  0  0  0  0  0  0  0  0  0  0
   -3.0798    1.4173    1.3134 H   0  0  0  0  0  0  0  0  0  0  0  0
    2.5292   -3.5924   -1.1778 H   0  0  0  0  0  0  0  0  0  0  0  0
    1.5393   -4.9474   -0.6311 H   0  0  0  0  0  0  0  0  0  0  0  0
    6.8134    3.1998    1.1197 H   0  0  0  0  0  0  0  0  0  0  0  0
    7.1561    3.1608   -0.6345 H   0  0  0  0  0  0  0  0  0  0  0  0
   -7.4111    2.6369    0.7178 H   0  0  0  0  0  0  0  0  0  0  0  0
   -7.0760    2.8887   -1.0201 H   0  0  0  0  0  0  0  0  0  0  0  0
    0.1569   -2.1207    2.5403 H   0  0  0  0  0  0  0  0  0  0  0  0
   -1.5522   -2.1242    2.0096 H   0  0  0  0  0  0  0  0  0  0  0  0
    4.9209    0.4810   -1.2818 H   0  0  0  0  0  0  0  0  0  0  0  0
   -5.0127    0.0454    1.0774 H   0  0  0  0  0  0  0  0  0  0  0  0
    2.7148   -5.3618   -2.4944 H   0  0  0  0  0  0  0  0  0  0  0  0
    8.7513    2.1234    0.5978 H   0  0  0  0  0  0  0  0  0  0  0  0
   -8.9422    1.6440   -0.6274 H   0  0  0  0  0  0  0  0  0  0  0  0
   -1.2117   -3.2211    3.9682 H   0  0  0  0  0  0  0  0  0  0  0  0
  1 19  1  0  0  0  0
  2 20  1  0  0  0  0
  3 22  1  0  0  0  0
  4 27  1  0  0  0  0
  4 52  1  0  0  0  0
  5 28  1  0  0  0  0
  5 53  1  0  0  0  0
  6 30  1  0  0  0  0
  6 54  1  0  0  0  0
  7 25  2  0  0  0  0
  8 26  2  0  0  0  0
  9 29  2  0  0  0  0
 10 31  1  0  0  0  0
 10 55  1  0  0  0  0
 11 32  1  0  0  0  0
 11 56  1  0  0  0  0
 12 33  1  0  0  0  0
 12 57  1  0  0  0  0
 13 16  1  0  0  0  0
 13 21  1  0  0  0  0
 13 29  1  0  0  0  0
 14 23  1  0  0  0  0
 14 25  1  0  0  0  0
 14 42  1  0  0  0  0
 15 24  1  0  0  0  0
 15 26  1  0  0  0  0
 15 43  1  0  0  0  0
 16 19  2  0  0  0  0
 16 20  1  0  0  0  0
 17 20  2  0  0  0  0
 17 22  1  0  0  0  0
 17 25  1  0  0  0  0
 18 19  1  0  0  0  0
 18 22  2  0  0  0  0
 18 26  1  0  0  0  0
 21 30  1  0  0  0  0
 21 34  1  0  0  0  0
 21 35  1  0  0  0  0
 23 27  1  0  0  0  0
 23 36  1  0  0  0  0
 23 37  1  0  0  0  0
 24 28  1  0  0  0  0
 24 38  1  0  0  0  0
 24 39  1  0  0  0  0
 27 31  1  0  0  0  0
 27 40  1  0  0  0  0
 28 32  1  0  0  0  0
 28 41  1  0  0  0  0
 29 33  1  0  0  0  0
 30 44  1  0  0  0  0
 30 45  1  0  0  0  0
 31 46  1  0  0  0  0
 31 47  1  0  0  0  0
 32 48  1  0  0  0  0
 32 49  1  0  0  0  0
 33 50  1  0  0  0  0
 33 51  1  0  0  0  0
M  END
> <DATABASE_ID>
DB09134

> <DATABASE_NAME>
drugbank

> <ORIGINAL_SOURCE>
PUBCHEM

> <ORIGINAL_SOURCE_URL>
https://pubchem.ncbi.nlm.nih.gov/rest/pug/compound/inchikey/AMDBBAQNWSUWGN-UHFFFAOYSA-N/SDF?record_type=3d

> <SMILES>
OCCN(C(=O)CO)C1=C(I)C(C(=O)NCC(O)CO)=C(I)C(C(=O)NCC(O)CO)=C1I

> <INCHI_IDENTIFIER>
InChI=1S/C18H24I3N3O9/c19-13-11(17(32)22-3-8(29)5-26)14(20)16(24(1-2-25)10(31)7-28)15(21)12(13)18(33)23-4-9(30)6-27/h8-9,25-30H,1-7H2,(H,22,32)(H,23,33)

> <INCHI_KEY>
AMDBBAQNWSUWGN-UHFFFAOYSA-N

> <FORMULA>
C18H24I3N3O9

> <MOLECULAR_WEIGHT>
807.115

> <EXACT_MASS>
806.86466

> <JCHEM_ACCEPTOR_COUNT>
9

> <JCHEM_ATOM_COUNT>
57

> <JCHEM_AVERAGE_POLARIZABILITY>
58.310495294120315

> <JCHEM_BIOAVAILABILITY>
0

> <JCHEM_DONOR_COUNT>
8

> <JCHEM_FORMAL_CHARGE>
0

> <JCHEM_GHOSE_FILTER>
0

> <JCHEM_IUPAC>
N1,N3-bis(2,3-dihydroxypropyl)-5-[2-hydroxy-N-(2-hydroxyethyl)acetamido]-2,4,6-triiodobenzene-1,3-dicarboxamide

> <ALOGPS_LOGP>
-2.98

> <JCHEM_LOGP>
-2.1377355589999993

> <ALOGPS_LOGS>
-2.89

> <JCHEM_MDDR_LIKE_RULE>
0

> <JCHEM_NUMBER_OF_RINGS>
1

> <JCHEM_PHYSIOLOGICAL_CHARGE>
0

> <JCHEM_PKA>
12.60745938995682

> <JCHEM_PKA_STRONGEST_ACIDIC>
11.72407999261487

> <JCHEM_PKA_STRONGEST_BASIC>
-2.5540463302144607

> <JCHEM_POLAR_SURFACE_AREA>
199.89

> <JCHEM_REFRACTIVITY>
144.57870000000005

> <JCHEM_ROTATABLE_BOND_COUNT>
12

> <JCHEM_RULE_OF_FIVE>
0

> <ALOGPS_SOLUBILITY>
1.04e+00 g/l

> <JCHEM_TRADITIONAL_IUPAC>
ioversol

> <JCHEM_VEBER_RULE>
0

> <DRUGBANK_ID>
DB09134

> <DRUG_GROUPS>
approved

> <GENERIC_NAME>
Ioversol

> <SYNONYMS>
Ioversol; N,N'-Bis (2,3-dihydroxypropyl)-5-[N-(2-hydroxyethyl) -glycolamido] -2,4,6-triiodoisophthalamide; Optiray

> <PRODUCTS>
Optiray 160; Optiray 160 (ultraject); Optiray 240; Optiray 240 (ultraject); Optiray 240 Inj 240mg/ml; Optiray 300; Optiray 300 (ultraject); Optiray 320; Optiray 320 (ultraject); Optiray 350; Optiray 350 (ultraject)

$$$$