146382
  -OEChem-10051722173D

 72 76  0     1  0  0  0  0  0999 V2000
   -3.0764    2.9091   -0.5391 S   0  0  0  0  0  0  0  0  0  0  0  0
    3.1074    2.9104    0.5376 S   0  0  0  0  0  0  0  0  0  0  0  0
   -2.0214    0.1470   -0.0729 O   0  0  0  0  0  0  0  0  0  0  0  0
    2.0242    0.1588    0.0735 O   0  0  0  0  0  0  0  0  0  0  0  0
   -3.2453    4.3822    0.1409 O   0  0  0  0  0  0  0  0  0  0  0  0
    3.2908    4.3812   -0.1433 O   0  0  0  0  0  0  0  0  0  0  0  0
   -3.6074    2.9552   -1.8895 O   0  0  0  0  0  0  0  0  0  0  0  0
   -1.7360    2.4218   -0.2675 O   0  0  0  0  0  0  0  0  0  0  0  0
    3.6392    2.9519    1.8879 O   0  0  0  0  0  0  0  0  0  0  0  0
    1.7620    2.4364    0.2668 O   0  0  0  0  0  0  0  0  0  0  0  0
   -4.4409    0.6326    0.0160 C   0  0  2  0  0  0  0  0  0  0  0  0
    4.4485    0.6197   -0.0165 C   0  0  2  0  0  0  0  0  0  0  0  0
   -5.3664   -0.2894    0.8704 C   0  0  0  0  0  0  0  0  0  0  0  0
    5.3643   -0.3120   -0.8706 C   0  0  0  0  0  0  0  0  0  0  0  0
   -5.1556   -1.5163   -0.0653 C   0  0  1  0  0  0  0  0  0  0  0  0
    5.1415   -1.5362    0.0659 C   0  0  1  0  0  0  0  0  0  0  0  0
   -5.0353    0.5086   -1.4112 C   0  0  0  0  0  0  0  0  0  0  0  0
    5.0421    0.4907    1.4106 C   0  0  0  0  0  0  0  0  0  0  0  0
   -5.5395   -0.9587   -1.4571 C   0  0  0  0  0  0  0  0  0  0  0  0
    5.5315   -0.9816    1.4572 C   0  0  0  0  0  0  0  0  0  0  0  0
   -3.1781   -0.2284   -0.0371 C   0  0  0  0  0  0  0  0  0  0  0  0
    3.1771   -0.2284    0.0374 C   0  0  0  0  0  0  0  0  0  0  0  0
   -3.6462   -1.6512   -0.0759 C   0  0  0  0  0  0  0  0  0  0  0  0
    3.6309   -1.6558    0.0769 C   0  0  0  0  0  0  0  0  0  0  0  0
   -4.2159    2.0462    0.4954 C   0  0  0  0  0  0  0  0  0  0  0  0
    4.2377    2.0352   -0.4967 C   0  0  0  0  0  0  0  0  0  0  0  0
   -6.8341    0.1744    0.9604 C   0  0  0  0  0  0  0  0  0  0  0  0
   -4.8911   -0.5138    2.3238 C   0  0  0  0  0  0  0  0  0  0  0  0
    4.8810   -0.5436   -2.3163 C   0  0  0  0  0  0  0  0  0  0  0  0
    6.8369    0.1461   -0.9728 C   0  0  0  0  0  0  0  0  0  0  0  0
   -2.8668   -2.7302   -0.0745 C   0  0  0  0  0  0  0  0  0  0  0  0
    2.8299   -2.7413    0.0765 C   0  0  0  0  0  0  0  0  0  0  0  0
   -1.3908   -2.7339   -0.0345 C   0  0  0  0  0  0  0  0  0  0  0  0
    1.3759   -2.7396    0.0379 C   0  0  0  0  0  0  0  0  0  0  0  0
   -0.6842   -2.7361   -1.2244 C   0  0  0  0  0  0  0  0  0  0  0  0
    0.7102   -2.7391   -1.1880 C   0  0  0  0  0  0  0  0  0  0  0  0
   -0.7473   -2.7345    1.1907 C   0  0  0  0  0  0  0  0  0  0  0  0
    0.6471   -2.7373    1.2273 C   0  0  0  0  0  0  0  0  0  0  0  0
   -5.6902   -2.4239    0.2228 H   0  0  0  0  0  0  0  0  0  0  0  0
    5.6666   -2.4494   -0.2218 H   0  0  0  0  0  0  0  0  0  0  0  0
   -4.2901    0.6431   -2.2024 H   0  0  0  0  0  0  0  0  0  0  0  0
   -5.8598    1.2072   -1.5878 H   0  0  0  0  0  0  0  0  0  0  0  0
    4.2988    0.6334    2.2021 H   0  0  0  0  0  0  0  0  0  0  0  0
    5.8742    1.1807    1.5859 H   0  0  0  0  0  0  0  0  0  0  0  0
   -6.6230   -0.9882   -1.6139 H   0  0  0  0  0  0  0  0  0  0  0  0
   -5.0746   -1.5173   -2.2778 H   0  0  0  0  0  0  0  0  0  0  0  0
    6.6151   -1.0207    1.6118 H   0  0  0  0  0  0  0  0  0  0  0  0
    5.0624   -1.5352    2.2788 H   0  0  0  0  0  0  0  0  0  0  0  0
   -3.7996    2.0654    1.5078 H   0  0  0  0  0  0  0  0  0  0  0  0
   -5.1547    2.6091    0.4903 H   0  0  0  0  0  0  0  0  0  0  0  0
    3.8215    2.0579   -1.5091 H   0  0  0  0  0  0  0  0  0  0  0  0
    5.1822    2.5888   -0.4921 H   0  0  0  0  0  0  0  0  0  0  0  0
   -7.4530   -0.6068    1.4166 H   0  0  0  0  0  0  0  0  0  0  0  0
   -7.2879    0.4194   -0.0024 H   0  0  0  0  0  0  0  0  0  0  0  0
   -6.9185    1.0724    1.5829 H   0  0  0  0  0  0  0  0  0  0  0  0
   -3.8348   -0.7845    2.4108 H   0  0  0  0  0  0  0  0  0  0  0  0
   -5.4696   -1.3174    2.7937 H   0  0  0  0  0  0  0  0  0  0  0  0
   -5.0327    0.3929    2.9229 H   0  0  0  0  0  0  0  0  0  0  0  0
    5.4511   -1.3549   -2.7836 H   0  0  0  0  0  0  0  0  0  0  0  0
    3.8222   -0.8059   -2.4001 H   0  0  0  0  0  0  0  0  0  0  0  0
    5.0273    0.3572   -2.9234 H   0  0  0  0  0  0  0  0  0  0  0  0
    7.2957    0.3879   -0.0115 H   0  0  0  0  0  0  0  0  0  0  0  0
    7.4484   -0.6389   -1.4320 H   0  0  0  0  0  0  0  0  0  0  0  0
    6.9207    1.0435   -1.5962 H   0  0  0  0  0  0  0  0  0  0  0  0
   -3.3231   -3.7170   -0.0878 H   0  0  0  0  0  0  0  0  0  0  0  0
    3.2886   -3.7271    0.0906 H   0  0  0  0  0  0  0  0  0  0  0  0
   -4.1008    4.8378   -0.0407 H   0  0  0  0  0  0  0  0  0  0  0  0
    4.1508    4.8283    0.0377 H   0  0  0  0  0  0  0  0  0  0  0  0
   -1.1921   -2.7349   -2.1850 H   0  0  0  0  0  0  0  0  0  0  0  0
    1.2644   -2.7397   -2.1236 H   0  0  0  0  0  0  0  0  0  0  0  0
   -1.3049   -2.7318    2.1234 H   0  0  0  0  0  0  0  0  0  0  0  0
    1.1515   -2.7367    2.1906 H   0  0  0  0  0  0  0  0  0  0  0  0
  1  5  1  0  0  0  0
  1  7  2  0  0  0  0
  1  8  2  0  0  0  0
  1 25  1  0  0  0  0
  2  6  1  0  0  0  0
  2  9  2  0  0  0  0
  2 10  2  0  0  0  0
  2 26  1  0  0  0  0
  3 21  2  0  0  0  0
  4 22  2  0  0  0  0
  5 67  1  0  0  0  0
  6 68  1  0  0  0  0
 11 13  1  0  0  0  0
 11 17  1  0  0  0  0
 11 21  1  0  0  0  0
 11 25  1  0  0  0  0
 12 14  1  0  0  0  0
 12 18  1  0  0  0  0
 12 22  1  0  0  0  0
 12 26  1  0  0  0  0
 13 15  1  0  0  0  0
 13 27  1  0  0  0  0
 13 28  1  0  0  0  0
 14 16  1  0  0  0  0
 14 29  1  0  0  0  0
 14 30  1  0  0  0  0
 15 19  1  0  0  0  0
 15 23  1  0  0  0  0
 15 39  1  0  0  0  0
 16 20  1  0  0  0  0
 16 24  1  0  0  0  0
 16 40  1  0  0  0  0
 17 19  1  0  0  0  0
 17 41  1  0  0  0  0
 17 42  1  0  0  0  0
 18 20  1  0  0  0  0
 18 43  1  0  0  0  0
 18 44  1  0  0  0  0
 19 45  1  0  0  0  0
 19 46  1  0  0  0  0
 20 47  1  0  0  0  0
 20 48  1  0  0  0  0
 21 23  1  0  0  0  0
 22 24  1  0  0  0  0
 23 31  2  0  0  0  0
 24 32  2  0  0  0  0
 25 49  1  0  0  0  0
 25 50  1  0  0  0  0
 26 51  1  0  0  0  0
 26 52  1  0  0  0  0
 27 53  1  0  0  0  0
 27 54  1  0  0  0  0
 27 55  1  0  0  0  0
 28 56  1  0  0  0  0
 28 57  1  0  0  0  0
 28 58  1  0  0  0  0
 29 59  1  0  0  0  0
 29 60  1  0  0  0  0
 29 61  1  0  0  0  0
 30 62  1  0  0  0  0
 30 63  1  0  0  0  0
 30 64  1  0  0  0  0
 31 33  1  0  0  0  0
 31 65  1  0  0  0  0
 32 34  1  0  0  0  0
 32 66  1  0  0  0  0
 33 35  2  0  0  0  0
 33 37  1  0  0  0  0
 34 36  2  0  0  0  0
 34 38  1  0  0  0  0
 35 36  1  0  0  0  0
 35 69  1  0  0  0  0
 36 70  1  0  0  0  0
 37 38  2  0  0  0  0
 37 71  1  0  0  0  0
 38 72  1  0  0  0  0
M  END
> <DATABASE_ID>
DB09534

> <DATABASE_NAME>
drugbank

> <ORIGINAL_SOURCE>
PUBCHEM

> <ORIGINAL_SOURCE_URL>
https://pubchem.ncbi.nlm.nih.gov/rest/pug/compound/inchikey/HEAHZSUCFKFERC-UHFFFAOYSA-N/SDF?record_type=3d

> <SMILES>
CC1(C)C2CCC1(CS(O)(=O)=O)C(=O)C2=CC1=CC=C(C=C2C3CCC(CS(O)(=O)=O)(C2=O)C3(C)C)C=C1

> <INCHI_IDENTIFIER>
InChI=1S/C28H34O8S2/c1-25(2)21-9-11-27(25,15-37(31,32)33)23(29)19(21)13-17-5-7-18(8-6-17)14-20-22-10-12-28(24(20)30,26(22,3)4)16-38(34,35)36/h5-8,13-14,21-22H,9-12,15-16H2,1-4H3,(H,31,32,33)(H,34,35,36)

> <INCHI_KEY>
HEAHZSUCFKFERC-UHFFFAOYSA-N

> <FORMULA>
C28H34O8S2

> <MOLECULAR_WEIGHT>
562.69

> <EXACT_MASS>
562.169510403

> <JCHEM_ACCEPTOR_COUNT>
8

> <JCHEM_ATOM_COUNT>
72

> <JCHEM_AVERAGE_POLARIZABILITY>
59.63980284079506

> <JCHEM_BIOAVAILABILITY>
1

> <JCHEM_DONOR_COUNT>
2

> <JCHEM_FORMAL_CHARGE>
0

> <JCHEM_GHOSE_FILTER>
0

> <JCHEM_IUPAC>
{3-[(4-{[7,7-dimethyl-3-oxo-4-(sulfomethyl)bicyclo[2.2.1]heptan-2-ylidene]methyl}phenyl)methylidene]-7,7-dimethyl-2-oxobicyclo[2.2.1]heptan-1-yl}methanesulfonic acid

> <ALOGPS_LOGP>
0.37

> <JCHEM_LOGP>
4.100861718666666

> <ALOGPS_LOGS>
-4.99

> <JCHEM_MDDR_LIKE_RULE>
1

> <JCHEM_NUMBER_OF_RINGS>
5

> <JCHEM_PHYSIOLOGICAL_CHARGE>
-2

> <JCHEM_PKA>
-0.4443537858220932

> <JCHEM_PKA_STRONGEST_ACIDIC>
-1.0463970592479317

> <JCHEM_PKA_STRONGEST_BASIC>
-5.013169511012951

> <JCHEM_POLAR_SURFACE_AREA>
142.88

> <JCHEM_REFRACTIVITY>
143.55619999999993

> <JCHEM_ROTATABLE_BOND_COUNT>
6

> <JCHEM_RULE_OF_FIVE>
0

> <ALOGPS_SOLUBILITY>
5.71e-03 g/l

> <JCHEM_TRADITIONAL_IUPAC>
{3-[(4-{[7,7-dimethyl-3-oxo-4-(sulfomethyl)bicyclo[2.2.1]heptan-2-ylidene]methyl}phenyl)methylidene]-7,7-dimethyl-2-oxobicyclo[2.2.1]heptan-1-yl}methanesulfonic acid

> <JCHEM_VEBER_RULE>
0

> <DRUGBANK_ID>
DB09534

> <DRUG_GROUPS>
approved

> <GENERIC_NAME>
Ecamsule

> <SYNONYMS>
Ecamsule; Terephthalylidene dicamphor sulfonic acid

> <PRODUCTS>
45 SPF High Protection Uva Uvb Cream; Anthelios - Lait SPF 45; Anthelios Dermo-kids; Anthelios L - Ecran Intolerances Solaires SPF 60; Anthelios L-lait Ecran Intol.solaire SPF 60; Anthelios Lotion Corps Ultra-fluide; Anthelios Mist; Anthelios S - Ecran Solaire SPF 30; Anthelios SPF 45; Anthelios Spray SPF 30; Anthelios Spray SPF 45; Anthelios Ultra-fluid Lotion; Anthelios XL Cream SPF 60; Anthelios XL Melt-IN Cream; Anthelios-creme Solaire SPF 10; Anthelios-ecran Invisible SPF 20; Anthelios-lait Ecran Invisible SPF 20; Antherpos; Antherpos-ceralip Solaire SPF 50; Aqualia Thermal Uv; Autobronzant Creme Fps 15; Autobronzant SPF 7; Autobronzant Vapo Fps 15; Baume Levres Anti-dessechement Transparent SPF 30; Biokids SPF 35; Biotherm - Lait Ecran Total SPF 25; Blue Therapy Moisturizing Cream Dry Skin SPF 15; Blue Therapy Moisturizing Cream Normal/combination Skin SPF 15; Complete Lightweight Lotion SPF 15; Complete Lightweight Lotion SPF 45; Creme Ecran Total Intolerances Solaires SPF 40; Creme Ecran Total Intolerances Solaires SPF 45; Creme Ecran Total SPF 25; Creme Fondante SPF 15; Creme Protectrice Spf15; Creme Solaire Haute Protection SPF 15; Creme Visage Fps 30; Creme Visage Fps 45; Ecran Solaire SPF 15 - Crm; Ecran Total Anti-intolerance SPF 30-crm; Ecran Total Solaire Fps 25; Eye Contour Multi-protection Sun Care SPF 30; Face Multi-protection Sun Cream SPF 15; Face Multi-protection Sun Cream SPF 30; Face Multi-protection Sun Cream SPF 50; Face and Body Lotion SPF 50; Fps 15 Lait Solaire; Fps 30 Lait Solaire; Fps 30 Soin Complet; Fps 45 Soin Complet; Fps 50 Lait Solaire; Fps 60 Soin Complet; Future White SPF 40; Garnier Ombrelle SPF 15 Complete; Garnier Ombrelle SPF 30 Complete Lightweight; Garnier Ombrelle SPF 30 Face Ultra Light; Garnier Ombrelle SPF 30 Kids Water Resistant; Garnier Ombrelle SPF 30 Sport Water Resistant; Garnier Ombrelle SPF 45 Complete Lightweight; Garnier Ombrelle SPF 45 Face Ultra Light; Garnier Ombrelle SPF 45 Kids Hypoallergenic; Garnier Ombrelle SPF 45 Sport; Garnier Ombrelle SPF 50 Kids Water Resistant; Garnier Ombrelle SPF 60 Complete Lightweight; Garnier Ombrelle SPF 60 Face Ultra Light; Gel Creme Protecteur SPF 15; Gelee Fraiche Bronz.hydratante SPF 8; Gelee Fraiche Hydratante SPF 10; Gelee Fraiche Hydratante SPF 15; Gelee Fraicheur Bronzage Eclat SPF 8; Gelée Fraîche Bronzante Hydratante Fps 8; Hydraphase Uv; Kiehls Activated Sun Protector Sunscreen SPF 30 For Face and Body For All Skin Types; Kiehls Activated Sun Protector Sunscreen SPF 50 For Face and Body For All Skin Types; Kiehls Activated Sun Protector Ultra Light Sunscreen SPF 50 for Body Sweat and Water Resistant; Kiehls Dermatologist Solutions Ultra Light Daily UV Defense Sunscreen SPF 50 High Protection Anti-Pollution Lightweight Formula for All Skin Types; Kiehls Ultra Light Daily UV Defense CC SPF 50 Anti Pollution; Kiehls Ultra Light Daily UV Defense Tone Up Cream SPF 50 Anti Pollution Instantly Brightens and Hydrates; LOreal Paris Ombrelle SPF 30 Complete Water Resistant; La Roche Posay Laboratoire Dermatologique Anthelios SX Daily Moisturizing Sunscreen Broad Spectrum SPF 15; Lait Bronzant Hydro-nutritif SPF 8; Lait Ecran Extreme SPF 60; Lait Ecran SPF 35 Enfants; Lait Ecran Total Intolerances Solaires SPF 30; Lait Ecran Total SPF 25; Lait Ecran Total Special Enfants SPF 25; Lait Protecteur Fps 60; Lait Protecteur Hydro-satinant Spf15; Lait Protecteur SPF 15; Lait Protecteur SPF 15 Peaux Cl/sens./enf.; Lait Protecteur SPF 8; Lait Solaire Corps Protection Solaire Fps 15; Lait Solaire Ecran Total SPF 25; Lait Solaire Haute Protection SPF 15; Lait Écran Total SPF 25; Lancome Creme Ecran Total SPF 25; Lancome Lait Ecran Total Hydro-satin.spf25; Lotion Vapo Fps 15; Lotion Vapo SPF 30; Lumiactiv; Multi Recharge SPF 15; Ombrelle - Cold Weather Defence SPF 25; Ombrelle - Lotion Enfants SPF 30; Ombrelle - Lotion Extreme SPF 30; Ombrelle - Lotion Spf30; Ombrelle Baume Pour Les Levres SPF 30; Ombrelle Cream SPF 60; Ombrelle Creme Ecran SPF 60; Ombrelle Creme Spf45 Kids; Ombrelle Kids SPF 60; Ombrelle L'oreal Suncare Research Kids (SPF 30); Ombrelle L'oreal Suncare Research Kids (SPF 45); Ombrelle Sport Lotion SPF 30; Ombrelle Sport Lotion SPF 45; Ombrelle Sport Spray Spf15; Ombrelle-lotion SPF 15; Ombrelle-lotion SPF 30; Ombrelle-lotion SPF 45; Ombrelle-lotion Spf15; Protective Gel-cream Body SPF 20; Rosaliac Uv; SPF 30 Anthelios XL Lotion; SPF 30 Lotion Très Douce; SPF 30 Ultra Light Advanced Weightless Body Lotion; SPF 50 Invisible Mist; SPF 50+ Kids Lotion; SPF 50+ Ultra Light Advanced Weightless Body Lotion; SPF 60 Anthelios XL Lightweight Lotion; SPF 60 Anthelios XL Lotion; Sheer Lotion SPF 45 Bare Skin Feel; Sheer Lotion SPF 60 Bare Skin Feel; Skin Vivo Uniformity SPF 15; Soin Solaire Autobronzant SPF 8 - Crm; Soin Solaire SPF 8-crm; Soin Solaire Visage Creme Multi-protection Fps 30; Sun Protection Cream SPF 30; Sun Protection Cream SPF 45; Sunfitness Creme Fondante SPF 30; Sunfitness Gelee Fraicheur SPF 15; Sunfitness Lait Fondant SPF 15; Sunfitness Lait Fondant SPF 30; Sunscreen Cream Spf60; Thermal Fix Uv SPF 20; Thermal S Uv SPF 20; Ultra-fluid Body Milk Sun Protection SPF 15; Ultra-fluid Body Milk Sun Protection SPF 30; Ultra-fluid Protection SPF 20; Ultra-fluid Sun Protection SPF 30; Ultra-light Lotion SPF 50; Urban Defense; Vichy Creme Ecran Total Intol.soc. SPF 30; Vichy Lait Ecran Total Intoler.sol. SPF 30; Vichy Lait Ecran Total Special Enf.SPF 25; Vichy Lait Hydratant Bronzage Progresif Spf8; Vichy Lait Protecteur SPF 15; Vichy-creme Ecran Total SPF 25; Vichy-creme Haute Protection SPF 15; Vichy-lait Ecran Total SPF 25; Écran Solaire Spécial Rides SPF 15; Écran Total Anti-intolérances Solaires Fps 30; Écran Total Solaire SPF 25

$$$$