24988201
  -OEChem-10051722383D

 52 55  0     0  0  0  0  0  0999 V2000
    4.0213   -3.2378   -0.6018 Cl  0  0  0  0  0  0  0  0  0  0  0  0
    1.8075    2.6503    0.1141 O   0  0  0  0  0  0  0  0  0  0  0  0
    6.4288   -1.4805   -0.2639 O   0  0  0  0  0  0  0  0  0  0  0  0
   -4.6577   -4.0493   -0.5754 O   0  0  0  0  0  0  0  0  0  0  0  0
   -6.5875   -3.5114    0.4970 O   0  0  0  0  0  0  0  0  0  0  0  0
   -4.3365   -0.0328    0.7672 N   0  0  0  0  0  0  0  0  0  0  0  0
    0.4112    0.9237   -0.1798 N   0  0  0  0  0  0  0  0  0  0  0  0
    0.5140    3.1872    0.1351 N   0  0  0  0  0  0  0  0  0  0  0  0
    5.2877    0.5123   -0.0378 N   0  0  0  0  0  0  0  0  0  0  0  0
   -3.8400    1.1593    0.2898 C   0  0  0  0  0  0  0  0  0  0  0  0
   -5.7379   -0.3738    0.8851 C   0  0  0  0  0  0  0  0  0  0  0  0
   -2.4471    1.0756    0.3442 C   0  0  0  0  0  0  0  0  0  0  0  0
   -6.3886   -0.8075   -0.4354 C   0  0  0  0  0  0  0  0  0  0  0  0
   -3.3084   -0.8648    1.1206 C   0  0  0  0  0  0  0  0  0  0  0  0
   -1.6839    2.1769   -0.0922 C   0  0  0  0  0  0  0  0  0  0  0  0
   -2.1261   -0.2069    0.8705 C   0  0  0  0  0  0  0  0  0  0  0  0
   -4.5105    2.2936   -0.1809 C   0  0  0  0  0  0  0  0  0  0  0  0
   -5.6888   -1.9721   -1.1338 C   0  0  0  0  0  0  0  0  0  0  0  0
   -2.3411    3.3181   -0.5659 C   0  0  0  0  0  0  0  0  0  0  0  0
   -3.7329    3.3734   -0.6089 C   0  0  0  0  0  0  0  0  0  0  0  0
   -0.2531    2.1077   -0.0439 C   0  0  0  0  0  0  0  0  0  0  0  0
   -5.7138   -3.2390   -0.3158 C   0  0  0  0  0  0  0  0  0  0  0  0
    1.6567    1.3132   -0.0760 C   0  0  0  0  0  0  0  0  0  0  0  0
    2.8721    0.5528   -0.1305 C   0  0  0  0  0  0  0  0  0  0  0  0
    7.4898   -0.9173    0.4979 C   0  0  0  0  0  0  0  0  0  0  0  0
    2.8490   -0.8246   -0.3196 C   0  0  0  0  0  0  0  0  0  0  0  0
    5.2254   -0.8254   -0.2231 C   0  0  0  0  0  0  0  0  0  0  0  0
    4.1064    1.1683    0.0039 C   0  0  0  0  0  0  0  0  0  0  0  0
    4.0437   -1.5343   -0.3680 C   0  0  0  0  0  0  0  0  0  0  0  0
    8.4043   -2.0318    0.9829 C   0  0  0  0  0  0  0  0  0  0  0  0
    8.2358    0.0968   -0.3557 C   0  0  0  0  0  0  0  0  0  0  0  0
   -6.2598    0.4997    1.2927 H   0  0  0  0  0  0  0  0  0  0  0  0
   -5.8268   -1.1644    1.6391 H   0  0  0  0  0  0  0  0  0  0  0  0
   -7.4358   -1.0674   -0.2374 H   0  0  0  0  0  0  0  0  0  0  0  0
   -6.4056    0.0431   -1.1275 H   0  0  0  0  0  0  0  0  0  0  0  0
   -3.4951   -1.8517    1.5224 H   0  0  0  0  0  0  0  0  0  0  0  0
   -1.1478   -0.6237    1.0638 H   0  0  0  0  0  0  0  0  0  0  0  0
   -5.5932    2.3467   -0.2178 H   0  0  0  0  0  0  0  0  0  0  0  0
   -4.6520   -1.7103   -1.3690 H   0  0  0  0  0  0  0  0  0  0  0  0
   -6.1950   -2.1880   -2.0814 H   0  0  0  0  0  0  0  0  0  0  0  0
   -1.7803    4.1822   -0.9160 H   0  0  0  0  0  0  0  0  0  0  0  0
   -4.2230    4.2692   -0.9819 H   0  0  0  0  0  0  0  0  0  0  0  0
    7.0997   -0.4209    1.3972 H   0  0  0  0  0  0  0  0  0  0  0  0
    1.9026   -1.3502   -0.4298 H   0  0  0  0  0  0  0  0  0  0  0  0
    4.2129    2.2385    0.1545 H   0  0  0  0  0  0  0  0  0  0  0  0
    8.8202   -2.5915    0.1380 H   0  0  0  0  0  0  0  0  0  0  0  0
    9.2299   -1.6389    1.5840 H   0  0  0  0  0  0  0  0  0  0  0  0
    7.8413   -2.7503    1.5885 H   0  0  0  0  0  0  0  0  0  0  0  0
    8.6049   -0.3719   -1.2752 H   0  0  0  0  0  0  0  0  0  0  0  0
    9.0934    0.5078    0.1871 H   0  0  0  0  0  0  0  0  0  0  0  0
    7.6090    0.9355   -0.6684 H   0  0  0  0  0  0  0  0  0  0  0  0
   -4.6832   -4.8682   -0.0359 H   0  0  0  0  0  0  0  0  0  0  0  0
  1 29  1  0  0  0  0
  2  8  1  0  0  0  0
  2 23  1  0  0  0  0
  3 25  1  0  0  0  0
  3 27  1  0  0  0  0
  4 22  1  0  0  0  0
  4 52  1  0  0  0  0
  5 22  2  0  0  0  0
  6 10  1  0  0  0  0
  6 11  1  0  0  0  0
  6 14  1  0  0  0  0
  7 21  1  0  0  0  0
  7 23  2  0  0  0  0
  8 21  2  0  0  0  0
  9 27  1  0  0  0  0
  9 28  2  0  0  0  0
 10 12  1  0  0  0  0
 10 17  2  0  0  0  0
 11 13  1  0  0  0  0
 11 32  1  0  0  0  0
 11 33  1  0  0  0  0
 12 15  2  0  0  0  0
 12 16  1  0  0  0  0
 13 18  1  0  0  0  0
 13 34  1  0  0  0  0
 13 35  1  0  0  0  0
 14 16  2  0  0  0  0
 14 36  1  0  0  0  0
 15 19  1  0  0  0  0
 15 21  1  0  0  0  0
 16 37  1  0  0  0  0
 17 20  1  0  0  0  0
 17 38  1  0  0  0  0
 18 22  1  0  0  0  0
 18 39  1  0  0  0  0
 18 40  1  0  0  0  0
 19 20  2  0  0  0  0
 19 41  1  0  0  0  0
 20 42  1  0  0  0  0
 23 24  1  0  0  0  0
 24 26  2  0  0  0  0
 24 28  1  0  0  0  0
 25 30  1  0  0  0  0
 25 31  1  0  0  0  0
 25 43  1  0  0  0  0
 26 29  1  0  0  0  0
 26 44  1  0  0  0  0
 27 29  2  0  0  0  0
 28 45  1  0  0  0  0
 30 46  1  0  0  0  0
 30 47  1  0  0  0  0
 30 48  1  0  0  0  0
 31 49  1  0  0  0  0
 31 50  1  0  0  0  0
 31 51  1  0  0  0  0
M  END
> <DATABASE_ID>
DB11987

> <DATABASE_NAME>
drugbank

> <ORIGINAL_SOURCE>
PUBCHEM

> <ORIGINAL_SOURCE_URL>
https://pubchem.ncbi.nlm.nih.gov/rest/pug/compound/inchikey/NFIGDBFIDKDNIG-UHFFFAOYSA-N/SDF?record_type=3d

> <SMILES>
CC(C)OC1=C(Cl)C=C(C=N1)C1=NC(=NO1)C1=C2C=CN(CCCC(O)=O)C2=CC=C1

> <INCHI_IDENTIFIER>
InChI=1S/C22H21ClN4O4/c1-13(2)30-22-17(23)11-14(12-24-22)21-25-20(26-31-21)16-5-3-6-18-15(16)8-10-27(18)9-4-7-19(28)29/h3,5-6,8,10-13H,4,7,9H2,1-2H3,(H,28,29)

> <INCHI_KEY>
NFIGDBFIDKDNIG-UHFFFAOYSA-N

> <FORMULA>
C22H21ClN4O4

> <MOLECULAR_WEIGHT>
440.88

> <EXACT_MASS>
440.1251329

> <JCHEM_ACCEPTOR_COUNT>
6

> <JCHEM_ATOM_COUNT>
52

> <JCHEM_AVERAGE_POLARIZABILITY>
46.39376769780689

> <JCHEM_BIOAVAILABILITY>
1

> <JCHEM_DONOR_COUNT>
1

> <JCHEM_FORMAL_CHARGE>
0

> <JCHEM_GHOSE_FILTER>
0

> <JCHEM_IUPAC>
4-(4-{5-[5-chloro-6-(propan-2-yloxy)pyridin-3-yl]-1,2,4-oxadiazol-3-yl}-1H-indol-1-yl)butanoic acid

> <ALOGPS_LOGP>
4.15

> <JCHEM_LOGP>
5.067871891333333

> <ALOGPS_LOGS>
-4.02

> <JCHEM_MDDR_LIKE_RULE>
1

> <JCHEM_NUMBER_OF_RINGS>
4

> <JCHEM_PHYSIOLOGICAL_CHARGE>
-1

> <JCHEM_PKA_STRONGEST_ACIDIC>
4.616091131127135

> <JCHEM_PKA_STRONGEST_BASIC>
-0.3509228939875285

> <JCHEM_POLAR_SURFACE_AREA>
103.27

> <JCHEM_REFRACTIVITY>
137.30100000000002

> <JCHEM_ROTATABLE_BOND_COUNT>
8

> <JCHEM_RULE_OF_FIVE>
0

> <ALOGPS_SOLUBILITY>
4.24e-02 g/l

> <JCHEM_TRADITIONAL_IUPAC>
4-{4-[5-(5-chloro-6-isopropoxypyridin-3-yl)-1,2,4-oxadiazol-3-yl]indol-1-yl}butanoic acid

> <JCHEM_VEBER_RULE>
0

> <DRUGBANK_ID>
DB11987

> <DRUG_GROUPS>
investigational

> <GENERIC_NAME>
GSK-2018682

$$$$