53477157
  -OEChem-10051722343D

 52 55  0     0  0  0  0  0  0999 V2000
   -0.2181    3.5455   -0.0173 Cl  0  0  0  0  0  0  0  0  0  0  0  0
   10.5218   -1.3825    1.3200 Cl  0  0  0  0  0  0  0  0  0  0  0  0
   -8.3132   -0.9046    0.6955 S   0  0  0  0  0  0  0  0  0  0  0  0
   -3.9453    1.5138    1.6659 F   0  0  0  0  0  0  0  0  0  0  0  0
    1.3656    1.4548   -1.3513 O   0  0  0  0  0  0  0  0  0  0  0  0
   -2.0732   -1.7583   -1.3858 O   0  0  0  0  0  0  0  0  0  0  0  0
   -8.8908    0.1893    1.4646 O   0  0  0  0  0  0  0  0  0  0  0  0
   -8.9486   -1.3312   -0.5432 O   0  0  0  0  0  0  0  0  0  0  0  0
    5.0828    0.0062   -0.1152 N   0  0  0  0  0  0  0  0  0  0  0  0
    6.9254   -1.4055   -0.3820 N   0  0  0  0  0  0  0  0  0  0  0  0
    6.9970    0.4565    1.1459 N   0  0  0  0  0  0  0  0  0  0  0  0
   -2.5944    0.3826   -0.5169 N   0  0  0  0  0  0  0  0  0  0  0  0
    2.3271    0.6253   -0.7108 C   0  0  0  0  0  0  0  0  0  0  0  0
    3.2463   -0.0014   -1.7543 C   0  0  0  0  0  0  0  0  0  0  0  0
    3.1420    1.4752    0.2581 C   0  0  0  0  0  0  0  0  0  0  0  0
    4.3676   -0.8084   -1.1047 C   0  0  0  0  0  0  0  0  0  0  0  0
    4.2589    0.6646    0.9092 C   0  0  0  0  0  0  0  0  0  0  0  0
    6.3969   -0.3300    0.2324 C   0  0  0  0  0  0  0  0  0  0  0  0
    0.0785    1.0349   -1.0976 C   0  0  0  0  0  0  0  0  0  0  0  0
   -0.7935    1.9734   -0.4425 C   0  0  0  0  0  0  0  0  0  0  0  0
   -0.3665   -0.1798   -1.4381 C   0  0  0  0  0  0  0  0  0  0  0  0
   -2.0626    1.6309   -0.1839 C   0  0  0  0  0  0  0  0  0  0  0  0
   -1.7685   -0.5938   -1.1267 C   0  0  0  0  0  0  0  0  0  0  0  0
   -3.9797    0.0713   -0.2211 C   0  0  0  0  0  0  0  0  0  0  0  0
    8.1921   -1.7008   -0.0232 C   0  0  0  0  0  0  0  0  0  0  0  0
    8.2614    0.1041    1.4578 C   0  0  0  0  0  0  0  0  0  0  0  0
   -6.6452   -0.5293    0.3426 C   0  0  0  0  0  0  0  0  0  0  0  0
    8.9164   -0.9748    0.9001 C   0  0  0  0  0  0  0  0  0  0  0  0
   -4.6104    0.6596    0.8752 C   0  0  0  0  0  0  0  0  0  0  0  0
   -4.6818   -0.8171   -1.0358 C   0  0  0  0  0  0  0  0  0  0  0  0
   -5.9432    0.3593    1.1569 C   0  0  0  0  0  0  0  0  0  0  0  0
   -6.0145   -1.1176   -0.7539 C   0  0  0  0  0  0  0  0  0  0  0  0
   -8.2302   -2.3120    1.7800 C   0  0  0  0  0  0  0  0  0  0  0  0
    1.8649   -0.1824   -0.1234 H   0  0  0  0  0  0  0  0  0  0  0  0
    2.4876    1.8966    1.0305 H   0  0  0  0  0  0  0  0  0  0  0  0
    3.5673    2.3353   -0.2763 H   0  0  0  0  0  0  0  0  0  0  0  0
    2.6708   -0.6406   -2.4338 H   0  0  0  0  0  0  0  0  0  0  0  0
    3.6750    0.7904   -2.3832 H   0  0  0  0  0  0  0  0  0  0  0  0
    3.9607   -1.7041   -0.6195 H   0  0  0  0  0  0  0  0  0  0  0  0
    5.0351   -1.1391   -1.9096 H   0  0  0  0  0  0  0  0  0  0  0  0
    4.8382    1.3585    1.5289 H   0  0  0  0  0  0  0  0  0  0  0  0
    3.8364   -0.0951    1.5785 H   0  0  0  0  0  0  0  0  0  0  0  0
    0.2605   -0.9076   -1.9408 H   0  0  0  0  0  0  0  0  0  0  0  0
   -2.7294    2.3750    0.2326 H   0  0  0  0  0  0  0  0  0  0  0  0
    8.6137   -2.5679   -0.5221 H   0  0  0  0  0  0  0  0  0  0  0  0
    8.7409    0.7419    2.1939 H   0  0  0  0  0  0  0  0  0  0  0  0
   -4.2556   -1.2537   -1.9328 H   0  0  0  0  0  0  0  0  0  0  0  0
   -6.4126    0.8240    2.0193 H   0  0  0  0  0  0  0  0  0  0  0  0
   -6.5440   -1.8074   -1.4051 H   0  0  0  0  0  0  0  0  0  0  0  0
   -7.6837   -2.0332    2.6829 H   0  0  0  0  0  0  0  0  0  0  0  0
   -7.7300   -3.1315    1.2604 H   0  0  0  0  0  0  0  0  0  0  0  0
   -9.2511   -2.6024    2.0371 H   0  0  0  0  0  0  0  0  0  0  0  0
  1 20  1  0  0  0  0
  2 28  1  0  0  0  0
  3  7  2  0  0  0  0
  3  8  2  0  0  0  0
  3 27  1  0  0  0  0
  3 33  1  0  0  0  0
  4 29  1  0  0  0  0
  5 13  1  0  0  0  0
  5 19  1  0  0  0  0
  6 23  2  0  0  0  0
  9 16  1  0  0  0  0
  9 17  1  0  0  0  0
  9 18  1  0  0  0  0
 10 18  2  0  0  0  0
 10 25  1  0  0  0  0
 11 18  1  0  0  0  0
 11 26  2  0  0  0  0
 12 22  1  0  0  0  0
 12 23  1  0  0  0  0
 12 24  1  0  0  0  0
 13 14  1  0  0  0  0
 13 15  1  0  0  0  0
 13 34  1  0  0  0  0
 14 16  1  0  0  0  0
 14 37  1  0  0  0  0
 14 38  1  0  0  0  0
 15 17  1  0  0  0  0
 15 35  1  0  0  0  0
 15 36  1  0  0  0  0
 16 39  1  0  0  0  0
 16 40  1  0  0  0  0
 17 41  1  0  0  0  0
 17 42  1  0  0  0  0
 19 20  1  0  0  0  0
 19 21  2  0  0  0  0
 20 22  2  0  0  0  0
 21 23  1  0  0  0  0
 21 43  1  0  0  0  0
 22 44  1  0  0  0  0
 24 29  2  0  0  0  0
 24 30  1  0  0  0  0
 25 28  2  0  0  0  0
 25 45  1  0  0  0  0
 26 28  1  0  0  0  0
 26 46  1  0  0  0  0
 27 31  2  0  0  0  0
 27 32  1  0  0  0  0
 29 31  1  0  0  0  0
 30 32  2  0  0  0  0
 30 47  1  0  0  0  0
 31 48  1  0  0  0  0
 32 49  1  0  0  0  0
 33 50  1  0  0  0  0
 33 51  1  0  0  0  0
 33 52  1  0  0  0  0
M  END
> <DATABASE_ID>
DB11773

> <DATABASE_NAME>
drugbank

> <ORIGINAL_SOURCE>
PUBCHEM

> <ORIGINAL_SOURCE_URL>
https://pubchem.ncbi.nlm.nih.gov/rest/pug/compound/inchikey/OGIAVRWXUPYGGC-UHFFFAOYSA-N/SDF?record_type=3d

> <SMILES>
CS(=O)(=O)C1=CC=C(N2C=C(Cl)C(OC3CCN(CC3)C3=NC=C(Cl)C=N3)=CC2=O)C(F)=C1

> <INCHI_IDENTIFIER>
InChI=1S/C21H19Cl2FN4O4S/c1-33(30,31)15-2-3-18(17(24)8-15)28-12-16(23)19(9-20(28)29)32-14-4-6-27(7-5-14)21-25-10-13(22)11-26-21/h2-3,8-12,14H,4-7H2,1H3

> <INCHI_KEY>
OGIAVRWXUPYGGC-UHFFFAOYSA-N

> <FORMULA>
C21H19Cl2FN4O4S

> <MOLECULAR_WEIGHT>
513.37

> <EXACT_MASS>
512.0488098

> <JCHEM_ACCEPTOR_COUNT>
7

> <JCHEM_ATOM_COUNT>
52

> <JCHEM_AVERAGE_POLARIZABILITY>
49.34940104347746

> <JCHEM_BIOAVAILABILITY>
1

> <JCHEM_DONOR_COUNT>
0

> <JCHEM_FORMAL_CHARGE>
0

> <JCHEM_GHOSE_FILTER>
0

> <JCHEM_IUPAC>
5-chloro-4-{[1-(5-chloropyrimidin-2-yl)piperidin-4-yl]oxy}-1-(2-fluoro-4-methanesulfonylphenyl)-1,2-dihydropyridin-2-one

> <ALOGPS_LOGP>
3.39

> <JCHEM_LOGP>
2.381163824666667

> <ALOGPS_LOGS>
-4.44

> <JCHEM_MDDR_LIKE_RULE>
0

> <JCHEM_NUMBER_OF_RINGS>
4

> <JCHEM_PHYSIOLOGICAL_CHARGE>
0

> <JCHEM_PKA_STRONGEST_ACIDIC>
19.67689454313011

> <JCHEM_PKA_STRONGEST_BASIC>
2.0041767586694545

> <JCHEM_POLAR_SURFACE_AREA>
92.7

> <JCHEM_REFRACTIVITY>
125.66399999999994

> <JCHEM_ROTATABLE_BOND_COUNT>
5

> <JCHEM_RULE_OF_FIVE>
0

> <ALOGPS_SOLUBILITY>
1.85e-02 g/l

> <JCHEM_TRADITIONAL_IUPAC>
5-chloro-4-{[1-(5-chloropyrimidin-2-yl)piperidin-4-yl]oxy}-1-(2-fluoro-4-methanesulfonylphenyl)pyridin-2-one

> <JCHEM_VEBER_RULE>
0

> <DRUGBANK_ID>
DB11773

> <DRUG_GROUPS>
investigational

> <GENERIC_NAME>
BMS-903452

$$$$