8310
  -OEChem-10051722143D

 33 34  0     0  0  0  0  0  0999 V2000
    4.2125    2.0404    0.5321 Br  0  0  0  0  0  0  0  0  0  0  0  0
   -1.2770   -2.2296   -0.0630 S   0  0  0  0  0  0  0  0  0  0  0  0
   -2.2794   -2.9868   -0.8034 O   0  0  0  0  0  0  0  0  0  0  0  0
   -0.8430   -2.7238    1.2380 O   0  0  0  0  0  0  0  0  0  0  0  0
    0.0936   -2.0150   -1.0848 N   0  0  0  0  0  0  0  0  0  0  0  0
    1.1851    0.0380   -1.4856 N   0  0  0  0  0  0  0  0  0  0  0  0
    1.7859   -1.3271    0.4072 N   0  0  0  0  0  0  0  0  0  0  0  0
   -3.3161    3.3177    0.5912 N   0  0  0  0  0  0  0  0  0  0  0  0
   -1.8755   -0.6007    0.1291 C   0  0  0  0  0  0  0  0  0  0  0  0
    1.0806   -1.0431   -0.6981 C   0  0  0  0  0  0  0  0  0  0  0  0
   -2.8170   -0.0935   -0.7667 C   0  0  0  0  0  0  0  0  0  0  0  0
   -1.4123    0.1936    1.1781 C   0  0  0  0  0  0  0  0  0  0  0  0
    2.1204    0.9280   -1.0935 C   0  0  0  0  0  0  0  0  0  0  0  0
    2.7027   -0.3954    0.7411 C   0  0  0  0  0  0  0  0  0  0  0  0
   -3.2951    1.2079   -0.6135 C   0  0  0  0  0  0  0  0  0  0  0  0
   -1.8906    1.4950    1.3312 C   0  0  0  0  0  0  0  0  0  0  0  0
   -2.8320    2.0020    0.4354 C   0  0  0  0  0  0  0  0  0  0  0  0
    2.9164    0.7626    0.0214 C   0  0  0  0  0  0  0  0  0  0  0  0
    2.2461    2.1342   -1.9662 C   0  0  0  0  0  0  0  0  0  0  0  0
    3.4948   -0.7043    1.9699 C   0  0  0  0  0  0  0  0  0  0  0  0
   -0.1150   -1.9939   -2.0915 H   0  0  0  0  0  0  0  0  0  0  0  0
   -3.1863   -0.6910   -1.5953 H   0  0  0  0  0  0  0  0  0  0  0  0
   -0.6787   -0.1795    1.8872 H   0  0  0  0  0  0  0  0  0  0  0  0
   -4.0273    1.5923   -1.3189 H   0  0  0  0  0  0  0  0  0  0  0  0
   -1.5213    2.1043    2.1522 H   0  0  0  0  0  0  0  0  0  0  0  0
    3.2486    2.1993   -2.4006 H   0  0  0  0  0  0  0  0  0  0  0  0
    1.5345    2.0873   -2.7983 H   0  0  0  0  0  0  0  0  0  0  0  0
    2.0260    3.0472   -1.4039 H   0  0  0  0  0  0  0  0  0  0  0  0
    3.1842   -1.6626    2.4013 H   0  0  0  0  0  0  0  0  0  0  0  0
    4.5613   -0.7844    1.7372 H   0  0  0  0  0  0  0  0  0  0  0  0
    3.3394    0.0610    2.7368 H   0  0  0  0  0  0  0  0  0  0  0  0
   -3.9974    3.6866   -0.0589 H   0  0  0  0  0  0  0  0  0  0  0  0
   -2.9792    3.8944    1.3505 H   0  0  0  0  0  0  0  0  0  0  0  0
  1 18  1  0  0  0  0
  2  3  2  0  0  0  0
  2  4  2  0  0  0  0
  2  5  1  0  0  0  0
  2  9  1  0  0  0  0
  5 10  1  0  0  0  0
  5 21  1  0  0  0  0
  6 10  1  0  0  0  0
  6 13  2  0  0  0  0
  7 10  2  0  0  0  0
  7 14  1  0  0  0  0
  8 17  1  0  0  0  0
  8 32  1  0  0  0  0
  8 33  1  0  0  0  0
  9 11  2  0  0  0  0
  9 12  1  0  0  0  0
 11 15  1  0  0  0  0
 11 22  1  0  0  0  0
 12 16  2  0  0  0  0
 12 23  1  0  0  0  0
 13 18  1  0  0  0  0
 13 19  1  0  0  0  0
 14 18  2  0  0  0  0
 14 20  1  0  0  0  0
 15 17  2  0  0  0  0
 15 24  1  0  0  0  0
 16 17  1  0  0  0  0
 16 25  1  0  0  0  0
 19 26  1  0  0  0  0
 19 27  1  0  0  0  0
 19 28  1  0  0  0  0
 20 29  1  0  0  0  0
 20 30  1  0  0  0  0
 20 31  1  0  0  0  0
M  END
> <DATABASE_ID>
DB11547

> <DATABASE_NAME>
drugbank

> <ORIGINAL_SOURCE>
PUBCHEM

> <ORIGINAL_SOURCE_URL>
https://pubchem.ncbi.nlm.nih.gov/rest/pug/compound/inchikey/KWXCNODTHBHSIQ-UHFFFAOYSA-N/SDF?record_type=3d

> <SMILES>
CC1=NC(NS(=O)(=O)C2=CC=C(N)C=C2)=NC(C)=C1Br

> <INCHI_IDENTIFIER>
InChI=1S/C12H13BrN4O2S/c1-7-11(13)8(2)16-12(15-7)17-20(18,19)10-5-3-9(14)4-6-10/h3-6H,14H2,1-2H3,(H,15,16,17)

> <INCHI_KEY>
KWXCNODTHBHSIQ-UHFFFAOYSA-N

> <FORMULA>
C12H13BrN4O2S

> <MOLECULAR_WEIGHT>
357.23

> <EXACT_MASS>
355.99426

> <JCHEM_ACCEPTOR_COUNT>
5

> <JCHEM_ATOM_COUNT>
33

> <JCHEM_AVERAGE_POLARIZABILITY>
31.255751154866566

> <JCHEM_BIOAVAILABILITY>
1

> <JCHEM_DONOR_COUNT>
2

> <JCHEM_FORMAL_CHARGE>
0

> <JCHEM_GHOSE_FILTER>
1

> <JCHEM_IUPAC>
4-amino-N-(5-bromo-4,6-dimethylpyrimidin-2-yl)benzene-1-sulfonamide

> <ALOGPS_LOGP>
1.71

> <JCHEM_LOGP>
1.418753771333333

> <ALOGPS_LOGS>
-3.53

> <JCHEM_MDDR_LIKE_RULE>
0

> <JCHEM_NUMBER_OF_RINGS>
2

> <JCHEM_PHYSIOLOGICAL_CHARGE>
-1

> <JCHEM_PKA_STRONGEST_ACIDIC>
6.989270584903777

> <JCHEM_PKA_STRONGEST_BASIC>
1.9704131063207693

> <JCHEM_POLAR_SURFACE_AREA>
97.97

> <JCHEM_REFRACTIVITY>
81.00669999999998

> <JCHEM_ROTATABLE_BOND_COUNT>
2

> <JCHEM_RULE_OF_FIVE>
1

> <ALOGPS_SOLUBILITY>
1.06e-01 g/l

> <JCHEM_TRADITIONAL_IUPAC>
sulfabromomethazine

> <JCHEM_VEBER_RULE>
0

> <DRUGBANK_ID>
DB11547

> <DRUG_GROUPS>
vet_approved

> <GENERIC_NAME>
Sulfabromomethazine

> <SYNONYMS>
5-bromosulfamethazine; Bromosulfamethazine

> <SALTS>
Sulfabromomethazine sodium

$$$$