6445539
  -OEChem-10051722323D

 54 56  0     1  0  0  0  0  0999 V2000
    0.7375    3.2045    0.5562 O   0  0  0  0  0  0  0  0  0  0  0  0
   -1.6420   -2.7635   -0.9775 N   0  0  1  0  0  0  0  0  0  0  0  0
   -0.6508    1.4451   -0.1585 N   0  0  0  0  0  0  0  0  0  0  0  0
   -2.8863   -2.5844   -0.2032 C   0  0  1  0  0  0  0  0  0  0  0  0
   -3.0204   -3.5684    0.9735 C   0  0  0  0  0  0  0  0  0  0  0  0
   -1.7790   -3.6004    1.8597 C   0  0  0  0  0  0  0  0  0  0  0  0
   -0.4427   -2.8094   -0.1281 C   0  0  0  0  0  0  0  0  0  0  0  0
   -0.5242   -3.8141    1.0225 C   0  0  0  0  0  0  0  0  0  0  0  0
   -3.0109   -1.1278    0.2657 C   0  0  0  0  0  0  0  0  0  0  0  0
   -2.9218   -0.1677   -0.9141 C   0  0  0  0  0  0  0  0  0  0  0  0
   -1.7165   -3.9240   -1.8656 C   0  0  0  0  0  0  0  0  0  0  0  0
   -3.0531    1.2643   -0.4622 C   0  0  0  0  0  0  0  0  0  0  0  0
   -1.9313    2.0016   -0.1080 C   0  0  0  0  0  0  0  0  0  0  0  0
   -4.3221    1.8259   -0.4091 C   0  0  0  0  0  0  0  0  0  0  0  0
   -2.0810    3.3251    0.3068 C   0  0  0  0  0  0  0  0  0  0  0  0
   -4.4716    3.1493    0.0059 C   0  0  0  0  0  0  0  0  0  0  0  0
   -3.3512    3.8988    0.3639 C   0  0  0  0  0  0  0  0  0  0  0  0
    0.5677    2.0560    0.1642 C   0  0  0  0  0  0  0  0  0  0  0  0
    1.7187    1.1204   -0.0226 C   0  0  0  0  0  0  0  0  0  0  0  0
    2.9698    1.5357    0.2259 C   0  0  0  0  0  0  0  0  0  0  0  0
    4.1745    0.7022    0.0664 C   0  0  0  0  0  0  0  0  0  0  0  0
    4.0470   -0.6772    0.0448 C   0  0  0  0  0  0  0  0  0  0  0  0
    5.4113    1.3142   -0.0586 C   0  0  0  0  0  0  0  0  0  0  0  0
    5.1873   -1.4663   -0.1058 C   0  0  0  0  0  0  0  0  0  0  0  0
    6.5515    0.5250   -0.2094 C   0  0  0  0  0  0  0  0  0  0  0  0
    6.4395   -0.8652   -0.2329 C   0  0  0  0  0  0  0  0  0  0  0  0
   -3.7430   -2.7581   -0.8699 H   0  0  0  0  0  0  0  0  0  0  0  0
   -3.2005   -4.5780    0.5832 H   0  0  0  0  0  0  0  0  0  0  0  0
   -3.8969   -3.3151    1.5818 H   0  0  0  0  0  0  0  0  0  0  0  0
   -1.8722   -4.4016    2.6015 H   0  0  0  0  0  0  0  0  0  0  0  0
   -1.6935   -2.6619    2.4196 H   0  0  0  0  0  0  0  0  0  0  0  0
   -0.2641   -1.8108    0.2880 H   0  0  0  0  0  0  0  0  0  0  0  0
    0.4444   -3.0214   -0.7382 H   0  0  0  0  0  0  0  0  0  0  0  0
    0.3623   -3.7147    1.6594 H   0  0  0  0  0  0  0  0  0  0  0  0
   -0.5145   -4.8377    0.6294 H   0  0  0  0  0  0  0  0  0  0  0  0
   -3.9747   -0.9966    0.7758 H   0  0  0  0  0  0  0  0  0  0  0  0
   -2.2425   -0.8814    1.0080 H   0  0  0  0  0  0  0  0  0  0  0  0
   -2.0196   -0.3021   -1.5188 H   0  0  0  0  0  0  0  0  0  0  0  0
   -3.7404   -0.3883   -1.6142 H   0  0  0  0  0  0  0  0  0  0  0  0
   -1.8331   -4.8709   -1.3291 H   0  0  0  0  0  0  0  0  0  0  0  0
   -2.5574   -3.8203   -2.5606 H   0  0  0  0  0  0  0  0  0  0  0  0
   -0.8146   -3.9913   -2.4843 H   0  0  0  0  0  0  0  0  0  0  0  0
   -5.2034    1.2524   -0.6826 H   0  0  0  0  0  0  0  0  0  0  0  0
   -1.2693    3.9745    0.6007 H   0  0  0  0  0  0  0  0  0  0  0  0
   -5.4606    3.5959    0.0510 H   0  0  0  0  0  0  0  0  0  0  0  0
   -0.5964    0.4741   -0.4473 H   0  0  0  0  0  0  0  0  0  0  0  0
   -3.4693    4.9291    0.6870 H   0  0  0  0  0  0  0  0  0  0  0  0
    1.4914    0.1249   -0.3857 H   0  0  0  0  0  0  0  0  0  0  0  0
    3.1523    2.5540    0.5616 H   0  0  0  0  0  0  0  0  0  0  0  0
    3.0972   -1.1892    0.1626 H   0  0  0  0  0  0  0  0  0  0  0  0
    5.5148    2.3958   -0.0435 H   0  0  0  0  0  0  0  0  0  0  0  0
    5.1015   -2.5490   -0.1190 H   0  0  0  0  0  0  0  0  0  0  0  0
    7.5266    0.9928   -0.3084 H   0  0  0  0  0  0  0  0  0  0  0  0
    7.3275   -1.4796   -0.3490 H   0  0  0  0  0  0  0  0  0  0  0  0
  1 18  2  0  0  0  0
  2  4  1  0  0  0  0
  2  7  1  0  0  0  0
  2 11  1  0  0  0  0
  3 13  1  0  0  0  0
  3 18  1  0  0  0  0
  3 46  1  0  0  0  0
  4  5  1  0  0  0  0
  4  9  1  0  0  0  0
  4 27  1  0  0  0  0
  5  6  1  0  0  0  0
  5 28  1  0  0  0  0
  5 29  1  0  0  0  0
  6  8  1  0  0  0  0
  6 30  1  0  0  0  0
  6 31  1  0  0  0  0
  7  8  1  0  0  0  0
  7 32  1  0  0  0  0
  7 33  1  0  0  0  0
  8 34  1  0  0  0  0
  8 35  1  0  0  0  0
  9 10  1  0  0  0  0
  9 36  1  0  0  0  0
  9 37  1  0  0  0  0
 10 12  1  0  0  0  0
 10 38  1  0  0  0  0
 10 39  1  0  0  0  0
 11 40  1  0  0  0  0
 11 41  1  0  0  0  0
 11 42  1  0  0  0  0
 12 13  1  0  0  0  0
 12 14  2  0  0  0  0
 13 15  2  0  0  0  0
 14 16  1  0  0  0  0
 14 43  1  0  0  0  0
 15 17  1  0  0  0  0
 15 44  1  0  0  0  0
 16 17  2  0  0  0  0
 16 45  1  0  0  0  0
 17 47  1  0  0  0  0
 18 19  1  0  0  0  0
 19 20  2  0  0  0  0
 19 48  1  0  0  0  0
 20 21  1  0  0  0  0
 20 49  1  0  0  0  0
 21 22  2  0  0  0  0
 21 23  1  0  0  0  0
 22 24  1  0  0  0  0
 22 50  1  0  0  0  0
 23 25  2  0  0  0  0
 23 51  1  0  0  0  0
 24 26  2  0  0  0  0
 24 52  1  0  0  0  0
 25 26  1  0  0  0  0
 25 53  1  0  0  0  0
 26 54  1  0  0  0  0
M  END
> <DATABASE_ID>
DB11686

> <DATABASE_NAME>
drugbank

> <ORIGINAL_SOURCE>
PUBCHEM

> <ORIGINAL_SOURCE_URL>
https://pubchem.ncbi.nlm.nih.gov/rest/pug/compound/inchikey/UXIPFQUBOVWAQW-UEBLJOKOSA-N/SDF?record_type=3d

> <SMILES>
CN1CCCC[C@H]1CCC1=CC=CC=C1NC(=O)\C=C\C1=CC=CC=C1

> <INCHI_IDENTIFIER>
InChI=1S/C23H28N2O/c1-25-18-8-7-12-21(25)16-15-20-11-5-6-13-22(20)24-23(26)17-14-19-9-3-2-4-10-19/h2-6,9-11,13-14,17,21H,7-8,12,15-16,18H2,1H3,(H,24,26)/b17-14+/t21-/m0/s1

> <INCHI_KEY>
UXIPFQUBOVWAQW-UEBLJOKOSA-N

> <FORMULA>
C23H28N2O

> <MOLECULAR_WEIGHT>
348.49

> <EXACT_MASS>
348.22016353

> <JCHEM_ACCEPTOR_COUNT>
2

> <JCHEM_ATOM_COUNT>
54

> <JCHEM_AVERAGE_POLARIZABILITY>
41.318900649875076

> <JCHEM_BIOAVAILABILITY>
1

> <JCHEM_DONOR_COUNT>
1

> <JCHEM_FORMAL_CHARGE>
0

> <JCHEM_GHOSE_FILTER>
1

> <JCHEM_IUPAC>
(2E)-N-(2-{2-[(2S)-1-methylpiperidin-2-yl]ethyl}phenyl)-3-phenylprop-2-enamide

> <ALOGPS_LOGP>
4.63

> <JCHEM_LOGP>
5.1551479963333335

> <ALOGPS_LOGS>
-5.57

> <JCHEM_MDDR_LIKE_RULE>
1

> <JCHEM_NUMBER_OF_RINGS>
3

> <JCHEM_PHYSIOLOGICAL_CHARGE>
1

> <JCHEM_PKA_STRONGEST_ACIDIC>
14.655108940284489

> <JCHEM_PKA_STRONGEST_BASIC>
9.48507827079652

> <JCHEM_POLAR_SURFACE_AREA>
32.34

> <JCHEM_REFRACTIVITY>
111.0481

> <JCHEM_ROTATABLE_BOND_COUNT>
6

> <JCHEM_RULE_OF_FIVE>
0

> <ALOGPS_SOLUBILITY>
9.39e-04 g/l

> <JCHEM_TRADITIONAL_IUPAC>
(2E)-N-(2-{2-[(2S)-1-methylpiperidin-2-yl]ethyl}phenyl)-3-phenylprop-2-enamide

> <JCHEM_VEBER_RULE>
1

> <DRUGBANK_ID>
DB11686

> <DRUG_GROUPS>
investigational

> <GENERIC_NAME>
Iferanserin

$$$$