9848888
  -OEChem-10051722173D

 72 74  0     1  0  0  0  0  0999 V2000
    3.7461   -0.3756   -0.6658 Si  0  0  0  0  0  0  0  0  0  0  0  0
    4.1033   -0.4692    2.4779 Si  0  0  0  0  0  0  0  0  0  0  0  0
    2.1163   -2.8137   -1.8566 Si  0  0  0  0  0  0  0  0  0  0  0  0
    3.4110   -0.6031    0.9591 O   0  0  0  0  0  0  0  0  0  0  0  0
    2.6445   -1.2498   -1.5752 O   0  0  0  0  0  0  0  0  0  0  0  0
   -0.2355    0.1179    0.3371 O   0  0  0  0  0  0  0  0  0  0  0  0
   -3.0099    0.4075    0.1749 N   0  0  0  0  0  0  0  0  0  0  0  0
   -4.3337    0.5637    0.0950 N   0  0  0  0  0  0  0  0  0  0  0  0
   -2.5052   -0.8132    0.3712 N   0  0  0  0  0  0  0  0  0  0  0  0
    3.6429    1.4565   -1.0844 C   0  0  0  0  0  0  0  0  0  0  0  0
    2.2311    2.0623   -1.2673 C   0  0  1  0  0  0  0  0  0  0  0  0
    1.5472    2.3237    0.0962 C   0  0  0  0  0  0  0  0  0  0  0  0
    5.4942   -0.9457   -1.0666 C   0  0  0  0  0  0  0  0  0  0  0  0
    2.3461    3.3646   -2.0743 C   0  0  0  0  0  0  0  0  0  0  0  0
    0.0460    2.4647    0.0098 C   0  0  0  0  0  0  0  0  0  0  0  0
    2.8660   -0.9867    3.7974 C   0  0  0  0  0  0  0  0  0  0  0  0
    5.6231   -1.5664    2.6344 C   0  0  0  0  0  0  0  0  0  0  0  0
    4.6193    1.3080    2.8154 C   0  0  0  0  0  0  0  0  0  0  0  0
    0.7409   -2.8076   -3.1403 C   0  0  0  0  0  0  0  0  0  0  0  0
    1.4458   -3.5799   -0.2748 C   0  0  0  0  0  0  0  0  0  0  0  0
    3.5123   -3.9009   -2.4952 C   0  0  0  0  0  0  0  0  0  0  0  0
   -0.7849    1.3513    0.1348 C   0  0  0  0  0  0  0  0  0  0  0  0
   -0.5075    3.7282   -0.1973 C   0  0  0  0  0  0  0  0  0  0  0  0
   -2.1692    1.5013    0.0528 C   0  0  0  0  0  0  0  0  0  0  0  0
   -1.8919    3.8784   -0.2794 C   0  0  0  0  0  0  0  0  0  0  0  0
   -2.7227    2.7649   -0.1543 C   0  0  0  0  0  0  0  0  0  0  0  0
   -2.4834    5.2295   -0.5014 C   0  0  0  0  0  0  0  0  0  0  0  0
   -4.7780   -0.6936    0.2554 C   0  0  0  0  0  0  0  0  0  0  0  0
   -3.6122   -1.5715    0.4316 C   0  0  0  0  0  0  0  0  0  0  0  0
   -6.0963   -1.1858    0.2686 C   0  0  0  0  0  0  0  0  0  0  0  0
   -3.7411   -2.9596    0.6247 C   0  0  0  0  0  0  0  0  0  0  0  0
   -6.1955   -2.5759    0.4632 C   0  0  0  0  0  0  0  0  0  0  0  0
   -5.0690   -3.4242    0.6335 C   0  0  0  0  0  0  0  0  0  0  0  0
    4.2026    2.0323   -0.3376 H   0  0  0  0  0  0  0  0  0  0  0  0
    4.1930    1.5679   -2.0275 H   0  0  0  0  0  0  0  0  0  0  0  0
    1.6187    1.3676   -1.8577 H   0  0  0  0  0  0  0  0  0  0  0  0
    1.9643    3.2377    0.5428 H   0  0  0  0  0  0  0  0  0  0  0  0
    1.7903    1.5509    0.8314 H   0  0  0  0  0  0  0  0  0  0  0  0
    5.6443   -1.9839   -0.7573 H   0  0  0  0  0  0  0  0  0  0  0  0
    5.6819   -0.8764   -2.1421 H   0  0  0  0  0  0  0  0  0  0  0  0
    6.2309   -0.3232   -0.5503 H   0  0  0  0  0  0  0  0  0  0  0  0
    2.9107    4.1254   -1.5250 H   0  0  0  0  0  0  0  0  0  0  0  0
    2.8586    3.1870   -3.0262 H   0  0  0  0  0  0  0  0  0  0  0  0
    1.3615    3.7740   -2.3165 H   0  0  0  0  0  0  0  0  0  0  0  0
    1.9746   -0.3540    3.7552 H   0  0  0  0  0  0  0  0  0  0  0  0
    2.5579   -2.0255    3.6471 H   0  0  0  0  0  0  0  0  0  0  0  0
    3.3056   -0.8978    4.7951 H   0  0  0  0  0  0  0  0  0  0  0  0
    6.4058   -1.2475    1.9403 H   0  0  0  0  0  0  0  0  0  0  0  0
    6.0273   -1.5191    3.6499 H   0  0  0  0  0  0  0  0  0  0  0  0
    5.3690   -2.6072    2.4132 H   0  0  0  0  0  0  0  0  0  0  0  0
    5.3745    1.6340    2.0944 H   0  0  0  0  0  0  0  0  0  0  0  0
    3.7585    1.9789    2.7395 H   0  0  0  0  0  0  0  0  0  0  0  0
    5.0411    1.4016    3.8204 H   0  0  0  0  0  0  0  0  0  0  0  0
    1.0993   -2.3873   -4.0846 H   0  0  0  0  0  0  0  0  0  0  0  0
    0.3840   -3.8244   -3.3284 H   0  0  0  0  0  0  0  0  0  0  0  0
   -0.1034   -2.2043   -2.7934 H   0  0  0  0  0  0  0  0  0  0  0  0
    2.2280   -3.6382    0.4877 H   0  0  0  0  0  0  0  0  0  0  0  0
    0.6221   -2.9794    0.1227 H   0  0  0  0  0  0  0  0  0  0  0  0
    1.0743   -4.5912   -0.4643 H   0  0  0  0  0  0  0  0  0  0  0  0
    4.3041   -3.9937   -1.7465 H   0  0  0  0  0  0  0  0  0  0  0  0
    3.1422   -4.9038   -2.7276 H   0  0  0  0  0  0  0  0  0  0  0  0
    3.9456   -3.4744   -3.4046 H   0  0  0  0  0  0  0  0  0  0  0  0
    0.1374    4.5987   -0.2904 H   0  0  0  0  0  0  0  0  0  0  0  0
   -3.7968    2.9189   -0.2257 H   0  0  0  0  0  0  0  0  0  0  0  0
   -2.6790    5.3830   -1.5673 H   0  0  0  0  0  0  0  0  0  0  0  0
   -3.4231    5.3414    0.0501 H   0  0  0  0  0  0  0  0  0  0  0  0
   -1.8118    6.0214   -0.1530 H   0  0  0  0  0  0  0  0  0  0  0  0
    0.6748    0.0920    0.0046 H   0  0  0  0  0  0  0  0  0  0  0  0
   -6.9680   -0.5569    0.1408 H   0  0  0  0  0  0  0  0  0  0  0  0
   -2.8958   -3.6232    0.7560 H   0  0  0  0  0  0  0  0  0  0  0  0
   -7.1869   -3.0267    0.4847 H   0  0  0  0  0  0  0  0  0  0  0  0
   -5.2444   -4.4894    0.7782 H   0  0  0  0  0  0  0  0  0  0  0  0
  1  4  1  0  0  0  0
  1  5  1  0  0  0  0
  1 10  1  0  0  0  0
  1 13  1  0  0  0  0
  2  4  1  0  0  0  0
  2 16  1  0  0  0  0
  2 17  1  0  0  0  0
  2 18  1  0  0  0  0
  3  5  1  0  0  0  0
  3 19  1  0  0  0  0
  3 20  1  0  0  0  0
  3 21  1  0  0  0  0
  6 22  1  0  0  0  0
  6 68  1  0  0  0  0
  7  8  1  0  0  0  0
  7  9  1  0  0  0  0
  7 24  1  0  0  0  0
  8 28  2  0  0  0  0
  9 29  2  0  0  0  0
 10 11  1  0  0  0  0
 10 34  1  0  0  0  0
 10 35  1  0  0  0  0
 11 12  1  0  0  0  0
 11 14  1  0  0  0  0
 11 36  1  0  0  0  0
 12 15  1  0  0  0  0
 12 37  1  0  0  0  0
 12 38  1  0  0  0  0
 13 39  1  0  0  0  0
 13 40  1  0  0  0  0
 13 41  1  0  0  0  0
 14 42  1  0  0  0  0
 14 43  1  0  0  0  0
 14 44  1  0  0  0  0
 15 22  2  0  0  0  0
 15 23  1  0  0  0  0
 16 45  1  0  0  0  0
 16 46  1  0  0  0  0
 16 47  1  0  0  0  0
 17 48  1  0  0  0  0
 17 49  1  0  0  0  0
 17 50  1  0  0  0  0
 18 51  1  0  0  0  0
 18 52  1  0  0  0  0
 18 53  1  0  0  0  0
 19 54  1  0  0  0  0
 19 55  1  0  0  0  0
 19 56  1  0  0  0  0
 20 57  1  0  0  0  0
 20 58  1  0  0  0  0
 20 59  1  0  0  0  0
 21 60  1  0  0  0  0
 21 61  1  0  0  0  0
 21 62  1  0  0  0  0
 22 24  1  0  0  0  0
 23 25  2  0  0  0  0
 23 63  1  0  0  0  0
 24 26  2  0  0  0  0
 25 26  1  0  0  0  0
 25 27  1  0  0  0  0
 26 64  1  0  0  0  0
 27 65  1  0  0  0  0
 27 66  1  0  0  0  0
 27 67  1  0  0  0  0
 28 29  1  0  0  0  0
 28 30  1  0  0  0  0
 29 31  1  0  0  0  0
 30 32  2  0  0  0  0
 30 69  1  0  0  0  0
 31 33  2  0  0  0  0
 31 70  1  0  0  0  0
 32 33  1  0  0  0  0
 32 71  1  0  0  0  0
 33 72  1  0  0  0  0
M  END
> <DATABASE_ID>
DB11585

> <DATABASE_NAME>
drugbank

> <ORIGINAL_SOURCE>
PUBCHEM

> <ORIGINAL_SOURCE_URL>
https://pubchem.ncbi.nlm.nih.gov/rest/pug/compound/inchikey/HUVYTMDMDZRHBN-UHFFFAOYSA-N/SDF?record_type=3d

> <SMILES>
CC(CC1=C(O)C(=CC(C)=C1)N1N=C2C=CC=CC2=N1)C[Si](C)(O[Si](C)(C)C)O[Si](C)(C)C

> <INCHI_IDENTIFIER>
InChI=1S/C24H39N3O3Si3/c1-18-14-20(15-19(2)17-33(9,29-31(3,4)5)30-32(6,7)8)24(28)23(16-18)27-25-21-12-10-11-13-22(21)26-27/h10-14,16,19,28H,15,17H2,1-9H3

> <INCHI_KEY>
HUVYTMDMDZRHBN-UHFFFAOYSA-N

> <FORMULA>
C24H39N3O3Si3

> <MOLECULAR_WEIGHT>
501.849

> <EXACT_MASS>
501.229921733

> <JCHEM_ACCEPTOR_COUNT>
5

> <JCHEM_ATOM_COUNT>
72

> <JCHEM_AVERAGE_POLARIZABILITY>
54.24305256456972

> <JCHEM_BIOAVAILABILITY>
0

> <JCHEM_DONOR_COUNT>
1

> <JCHEM_FORMAL_CHARGE>
0

> <JCHEM_GHOSE_FILTER>
0

> <JCHEM_IUPAC>
2-(2H-1,2,3-benzotriazol-2-yl)-4-methyl-6-[2-methyl-3-(2,2,4,6,6-pentamethyl-3,5-dioxa-2,4,6-trisilaheptan-4-yl)propyl]phenol

> <ALOGPS_LOGP>
6.50

> <JCHEM_LOGP>
7.251000000000001

> <ALOGPS_LOGS>
-5.85

> <JCHEM_MDDR_LIKE_RULE>
1

> <JCHEM_NUMBER_OF_RINGS>
3

> <JCHEM_PHYSIOLOGICAL_CHARGE>
0

> <JCHEM_PKA_STRONGEST_ACIDIC>
9.955166134224987

> <JCHEM_PKA_STRONGEST_BASIC>
-0.38297198879949523

> <JCHEM_POLAR_SURFACE_AREA>
69.4

> <JCHEM_REFRACTIVITY>
137.96749999999997

> <JCHEM_ROTATABLE_BOND_COUNT>
9

> <JCHEM_RULE_OF_FIVE>
0

> <ALOGPS_SOLUBILITY>
7.03e-04 g/l

> <JCHEM_TRADITIONAL_IUPAC>
drometrizole trisiloxane

> <JCHEM_VEBER_RULE>
0

> <DRUGBANK_ID>
DB11585

> <DRUG_GROUPS>
approved

> <GENERIC_NAME>
Drometrizole trisiloxane

> <SYNONYMS>
Silatrizole

> <PRODUCTS>
45 SPF High Protection Uva Uvb Cream; 60 SPF Stick Protection Ciblee Uva Uvb Anthelios XL; Anthelios Dermo-kids; Anthelios SPF 45; Anthelios Spray SPF 45; Anthelios XL Cream SPF 60; Anthelios XL Melt-IN Cream; Anthelios XL Stick; Antherpos; Anti-brillance Lotion Toucher Sec; Anti-shine Anthelios XL Dry Touch Gel-cream; Aqualia Thermal Uv; Blue Therapy Multi-defender Dry Skin; Brume Solaire; Complete + Care & Protect (80 Minutes) Water / Sweat Resistant Lotion SPF 30; Complete + Care & Protect (80 Minutes) Water / Sweat Resistant Lotion SPF 50+; Complete Advanced (80 Minutes) Water / Sweat Resistant Lotion SPF 15; Complete Advanced (80 Minutes) Water / Sweat Resistant Lotion SPF 30; Complete Advanced (80 Minutes) Water / Sweat Resistant Lotion SPF 50+; Complete Advanced [80 Minutes] Water/sweat Resistant Lotion SPF 60; Complete Lightweight Lotion SPF 15; Complete Lightweight Lotion SPF 45; Complete Sensitive Advanced (80 Minutes) Water / Sweat Resistant SPF 50+; Complete Sensitive Advanced [80 Minutes] Water/sweat Resistant Lotion SPF 60; Complete* Dry Touch; Complete* Dry Touch Sunscreen/écran Solaire; Complete+ Care & Protect [80 Minutes] Water/sweat Resistant Lotion SPF 60; Creme Visage Fps 30; Creme Visage Fps 45; Eye Contour Multi-protection Sun Care SPF 30; Face Anti-shine Cream; Face Multi-protection Sun Cream SPF 15; Face Multi-protection Sun Cream SPF 30; Face Multi-protection Sun Cream SPF 50; Face and Body Lotion SPF 50; Fps 15 Lait Solaire; Fps 30 Lait Solaire; Fps 30 Soin Complet; Fps 45 Soin Complet; Fps 50 Lait Solaire; Fps 60 Soin Complet; Garnier Ombrelle Complete Sensitive Advanced Lightweight hypoallergenic SPF 45 Mexoryl Technology; Garnier Ombrelle Face Anti-Shine SPF 60 Mexoryl Technology; Garnier Ombrelle Kids Wet N Protect Hypoallergenic SPF 45 Mexoryl Technology; Garnier Ombrelle SPF 30 Complete Lightweight; Garnier Ombrelle SPF 30 Complete UVA UVB Sensitive Advanced Sunscreen for Sensitive Skin Hypoallergenic Non comedogenic Quick Absorption Water/sweat resistant 80 minutes; Garnier Ombrelle SPF 30 Face Ultra Light; Garnier Ombrelle SPF 30 Sport Endurance Water Resistant; Garnier Ombrelle SPF 30 UVA UVB Kids Wet N Protect Sunscreen Protection Even on Wet Skin Hypoallergenic Water/sweat resistant 80 minutes Quick Absorption; Garnier Ombrelle SPF 45 Complete Lightweight; Garnier Ombrelle SPF 45 Face Ultra Light; Garnier Ombrelle SPF 50 Kids Water Resistant; Garnier Ombrelle SPF 60 Complete Lightweight; Garnier Ombrelle SPF 60 Complete UVA UVB Sensitive Advanced Sunscreen for Sensitive Skin Hypoallergenic Non comedogenic Quick Absorption Water/sweat resistant 80 minutes; Garnier Ombrelle SPF 60 Face Ultra Light; Garnier Ombrelle SPF 60 UVA UVB Kids Wet N Protect Sunscreen Protection Even on Wet Skin Hypoallergenic Water/sweat resistant 80 minutes Quick Absorption; Ideal Soleil SPF 50+; Idéal Soleil SPF 60; Idéal Soleil Spf30; Kids (80 Minutes) Water Resistant Lotion SPF 30; Kiehls Activated Sun Protector Sunscreen SPF 30 For Face and Body For All Skin Types; Kiehls Activated Sun Protector Sunscreen SPF 50 For Face and Body For All Skin Types; Kiehls Dermatologist Solutions Ultra Light Daily UV Defense Sunscreen SPF 50 High Protection Anti-Pollution Lightweight Formula for All Skin Types; Kiehls Ultra Light Daily UV Defense Aqua Gel SPF 50 Anti-Pollution; Kiehls Ultra Light Daily UV Defense CC SPF 50 Anti Pollution; Lait Protecteur Fps 60; Lait Solaire Corps Lotion Protectrice Corps Fps 30; Lait Solaire Corps Lotion Protectrice Corps Fps 50 Plus; Lait Solaire Corps Protection Solaire Fps 15; Lip Protection Stick; Ombrelle Cream SPF 60; Ombrelle Kids Lotion Wet'n Protect; Ombrelle Kids SPF 60; Ombrelle Sport Spray Spf15; Ombrelle Stick SPF 60; Rosaliac Uv; Rosaliac Uv Legere; Rosaliac Uv Riche; SPF 30 Anthelios XL Lotion; SPF 30 Clear Protect Continuous Spray; SPF 30 Hydrating Mist; SPF 30 Ideal Soleil Lip Protection Stick; SPF 30 Invisible Mist; SPF 30 Kids Wet'n Protect; SPF 30 Sport Clear Continuous Spray; SPF 30 Sport Endurance; SPF 45 Clear; SPF 45 Clear Protect Continuous Spray; SPF 45 Sport Clear Continuous Spray; SPF 50+ Kids (80 Minutes) Water Resistant; SPF 50+ Kids Lotion; SPF 60 Anthelios XL Lightweight Lotion; SPF 60 Anthelios XL Lotion; SPF 60 Clear; SPF 60 Clear Protect Continuous Spray; SPF 60 Kids Wet'n Protect; SPF 60 Sport Clear Continuous Spray; SPF 60 Sport Endurance; SPF 60 Ultra Light Advanced Lotion; Sheer Lotion SPF 45 Bare Skin Feel; Sheer Lotion SPF 60 Bare Skin Feel; Soin Solaire Visage CRème Protectrice Visage Fps 30; Soin Solaire Visage CRème Protectrice Visage Fps 50 Plus; Soin Solaire Visage Creme Multi-protection Fps 30; Spray Solaire Transparent; Sun Protection Cream SPF 30; Sun Protection Cream SPF 45; Sun Radiance SPF 15 Crystal Gloss; Sunscreen Cream Spf60; Ultra Fluide Corps; Ultra Fluide Visage; Ultra Protection Sunscreen Stick SPF 60; Ultra-fluid Body Milk Sun Protection SPF 15; Ultra-fluid Body Milk Sun Protection SPF 30; Ultra-fluid Sun Protection SPF 30

$$$$