7427
  -OEChem-10051722443D

 45 46  0     1  0  0  0  0  0999 V2000
    0.0000    0.0000    0.4587 O   0  0  0  0  0  0  0  0  0  0  0  0
    1.6357   -0.0523   -1.2565 O   0  0  0  0  0  0  0  0  0  0  0  0
   -1.6357    0.0523   -1.2565 O   0  0  0  0  0  0  0  0  0  0  0  0
    0.9568   -2.4452    1.4490 O   0  0  0  0  0  0  0  0  0  0  0  0
   -0.9568    2.4452    1.4490 O   0  0  0  0  0  0  0  0  0  0  0  0
    3.7799   -1.8878    1.7575 O   0  0  0  0  0  0  0  0  0  0  0  0
   -3.7798    1.8878    1.7575 O   0  0  0  0  0  0  0  0  0  0  0  0
    4.4455    0.7947    0.9743 O   0  0  0  0  0  0  0  0  0  0  0  0
   -4.4455   -0.7946    0.9743 O   0  0  0  0  0  0  0  0  0  0  0  0
    2.3351    2.3158   -2.4208 O   0  0  0  0  0  0  0  0  0  0  0  0
   -2.3352   -2.3158   -2.4207 O   0  0  0  0  0  0  0  0  0  0  0  0
    0.8461   -0.8196   -0.3455 C   0  0  1  0  0  0  0  0  0  0  0  0
   -0.8461    0.8196   -0.3455 C   0  0  1  0  0  0  0  0  0  0  0  0
    1.7369   -1.7413    0.4891 C   0  0  1  0  0  0  0  0  0  0  0  0
   -1.7369    1.7413    0.4891 C   0  0  1  0  0  0  0  0  0  0  0  0
    2.8395   -0.9637    1.2050 C   0  0  2  0  0  0  0  0  0  0  0  0
   -2.8396    0.9637    1.2050 C   0  0  2  0  0  0  0  0  0  0  0  0
    3.5809   -0.0542    0.2232 C   0  0  1  0  0  0  0  0  0  0  0  0
   -3.5808    0.0542    0.2231 C   0  0  1  0  0  0  0  0  0  0  0  0
    2.5989    0.7846   -0.6060 C   0  0  1  0  0  0  0  0  0  0  0  0
   -2.5989   -0.7846   -0.6059 C   0  0  1  0  0  0  0  0  0  0  0  0
    3.3065    1.5817   -1.6985 C   0  0  0  0  0  0  0  0  0  0  0  0
   -3.3065   -1.5817   -1.6985 C   0  0  0  0  0  0  0  0  0  0  0  0
    0.2085   -1.4760   -0.9485 H   0  0  0  0  0  0  0  0  0  0  0  0
   -0.2087    1.4761   -0.9483 H   0  0  0  0  0  0  0  0  0  0  0  0
    2.2028   -2.4901   -0.1634 H   0  0  0  0  0  0  0  0  0  0  0  0
   -2.2028    2.4902   -0.1634 H   0  0  0  0  0  0  0  0  0  0  0  0
    2.4291   -0.3915    2.0461 H   0  0  0  0  0  0  0  0  0  0  0  0
   -2.4291    0.3914    2.0461 H   0  0  0  0  0  0  0  0  0  0  0  0
    4.2070   -0.6632   -0.4416 H   0  0  0  0  0  0  0  0  0  0  0  0
   -4.2070    0.6633   -0.4416 H   0  0  0  0  0  0  0  0  0  0  0  0
    2.0701    1.4994    0.0383 H   0  0  0  0  0  0  0  0  0  0  0  0
   -2.0702   -1.4995    0.0384 H   0  0  0  0  0  0  0  0  0  0  0  0
    3.8216    0.9226   -2.4052 H   0  0  0  0  0  0  0  0  0  0  0  0
    4.0321    2.2842   -1.2788 H   0  0  0  0  0  0  0  0  0  0  0  0
   -3.8116   -0.9128   -2.4033 H   0  0  0  0  0  0  0  0  0  0  0  0
   -4.0359   -2.2791   -1.2756 H   0  0  0  0  0  0  0  0  0  0  0  0
    0.4957   -1.7866    1.9964 H   0  0  0  0  0  0  0  0  0  0  0  0
   -0.4957    1.7866    1.9964 H   0  0  0  0  0  0  0  0  0  0  0  0
    4.3946   -1.3841    2.3171 H   0  0  0  0  0  0  0  0  0  0  0  0
   -4.3945    1.3841    2.3170 H   0  0  0  0  0  0  0  0  0  0  0  0
    5.1421    0.2392    1.3624 H   0  0  0  0  0  0  0  0  0  0  0  0
   -5.1422   -0.2391    1.3623 H   0  0  0  0  0  0  0  0  0  0  0  0
    1.6976    1.6795   -2.7873 H   0  0  0  0  0  0  0  0  0  0  0  0
   -2.8058   -2.8124   -3.1118 H   0  0  0  0  0  0  0  0  0  0  0  0
  1 12  1  0  0  0  0
  1 13  1  0  0  0  0
  2 12  1  0  0  0  0
  2 20  1  0  0  0  0
  3 13  1  0  0  0  0
  3 21  1  0  0  0  0
  4 14  1  0  0  0  0
  4 38  1  0  0  0  0
  5 15  1  0  0  0  0
  5 39  1  0  0  0  0
  6 16  1  0  0  0  0
  6 40  1  0  0  0  0
  7 17  1  0  0  0  0
  7 41  1  0  0  0  0
  8 18  1  0  0  0  0
  8 42  1  0  0  0  0
  9 19  1  0  0  0  0
  9 43  1  0  0  0  0
 10 22  1  0  0  0  0
 10 44  1  0  0  0  0
 11 23  1  0  0  0  0
 11 45  1  0  0  0  0
 12 14  1  0  0  0  0
 12 24  1  0  0  0  0
 13 15  1  0  0  0  0
 13 25  1  0  0  0  0
 14 16  1  0  0  0  0
 14 26  1  0  0  0  0
 15 17  1  0  0  0  0
 15 27  1  0  0  0  0
 16 18  1  0  0  0  0
 16 28  1  0  0  0  0
 17 19  1  0  0  0  0
 17 29  1  0  0  0  0
 18 20  1  0  0  0  0
 18 30  1  0  0  0  0
 19 21  1  0  0  0  0
 19 31  1  0  0  0  0
 20 22  1  0  0  0  0
 20 32  1  0  0  0  0
 21 23  1  0  0  0  0
 21 33  1  0  0  0  0
 22 34  1  0  0  0  0
 22 35  1  0  0  0  0
 23 36  1  0  0  0  0
 23 37  1  0  0  0  0
M  END
> <DATABASE_ID>
DB12310

> <DATABASE_NAME>
drugbank

> <ORIGINAL_SOURCE>
PUBCHEM

> <ORIGINAL_SOURCE_URL>
https://pubchem.ncbi.nlm.nih.gov/rest/pug/compound/inchikey/HDTRYLNUVZCQOY-LIZSDCNHSA-N/SDF?record_type=3d

> <SMILES>
OC[C@H]1O[C@H](O[C@H]2O[C@H](CO)[C@@H](O)[C@H](O)[C@H]2O)[C@H](O)[C@@H](O)[C@@H]1O

> <INCHI_IDENTIFIER>
InChI=1S/C12H22O11/c13-1-3-5(15)7(17)9(19)11(21-3)23-12-10(20)8(18)6(16)4(2-14)22-12/h3-20H,1-2H2/t3-,4-,5-,6-,7+,8+,9-,10-,11-,12-/m1/s1

> <INCHI_KEY>
HDTRYLNUVZCQOY-LIZSDCNHSA-N

> <FORMULA>
C12H22O11

> <MOLECULAR_WEIGHT>
342.2965

> <EXACT_MASS>
342.116211546

> <JCHEM_ACCEPTOR_COUNT>
11

> <JCHEM_AVERAGE_POLARIZABILITY>
31.2047337584684

> <JCHEM_BIOAVAILABILITY>
0

> <JCHEM_DONOR_COUNT>
8

> <JCHEM_FORMAL_CHARGE>
0

> <JCHEM_GHOSE_FILTER>
0

> <JCHEM_IUPAC>
(2R,3S,4S,5R,6R)-2-(hydroxymethyl)-6-{[(2R,3R,4S,5S,6R)-3,4,5-trihydroxy-6-(hydroxymethyl)oxan-2-yl]oxy}oxane-3,4,5-triol

> <ALOGPS_LOGP>
-2.98

> <JCHEM_LOGP>
-4.703374863666666

> <ALOGPS_LOGS>
0.24

> <JCHEM_MDDR_LIKE_RULE>
0

> <JCHEM_NUMBER_OF_RINGS>
2

> <JCHEM_PHYSIOLOGICAL_CHARGE>
0

> <JCHEM_PKA>
12.427499300678097

> <JCHEM_PKA_STRONGEST_ACIDIC>
11.9058964768732

> <JCHEM_PKA_STRONGEST_BASIC>
-2.981084769765199

> <JCHEM_POLAR_SURFACE_AREA>
189.52999999999997

> <JCHEM_REFRACTIVITY>
68.3367

> <JCHEM_ROTATABLE_BOND_COUNT>
4

> <JCHEM_RULE_OF_FIVE>
0

> <ALOGPS_SOLUBILITY>
5.92e+02 g/l

> <JCHEM_TRADITIONAL_IUPAC>
Î±,Î±'-trehalose

> <JCHEM_VEBER_RULE>
0

> <DRUGBANK_ID>
DB12310

> <DRUG_GROUPS>
investigational

> <GENERIC_NAME>
Trehalose

> <SYNONYMS>
Cabaletta

$$$$