66558664
  -OEChem-01292011213D

 86 90  0     1  0  0  0  0  0999 V2000
    0.6915    6.6443    1.4214 O   0  0  0  0  0  0  0  0  0  0  0  0
   -9.7807   -1.2361   -0.5358 O   0  0  0  0  0  0  0  0  0  0  0  0
    2.8484   -1.5406   -2.3376 O   0  0  0  0  0  0  0  0  0  0  0  0
    4.3804   -2.8897    2.3543 O   0  0  0  0  0  0  0  0  0  0  0  0
    0.7260    3.1307   -0.8154 N   0  0  3  0  0  0  0  0  0  0  0  0
   -7.1499   -1.8353    0.3703 N   0  0  0  0  0  0  0  0  0  0  0  0
    2.7075   -2.3907   -0.1828 N   0  0  0  0  0  0  0  0  0  0  0  0
    6.4445   -1.9870    1.9247 N   0  0  0  0  0  0  0  0  0  0  0  0
    0.5731    3.9786    0.3458 C   0  0  0  0  0  0  0  0  0  0  0  0
    1.8961    4.6746    0.6666 C   0  0  0  0  0  0  0  0  0  0  0  0
   -0.5227    5.0133    0.0914 C   0  0  0  0  0  0  0  0  0  0  0  0
   -0.5799    6.0235    1.2307 C   0  0  0  0  0  0  0  0  0  0  0  0
    1.7042    5.7022    1.7751 C   0  0  0  0  0  0  0  0  0  0  0  0
    0.5033    1.7392   -0.7174 C   0  0  0  0  0  0  0  0  0  0  0  0
    1.1174    3.7220   -2.0782 C   0  0  0  0  0  0  0  0  0  0  0  0
    1.5187    0.8299   -1.0131 C   0  0  0  0  0  0  0  0  0  0  0  0
   -0.7515    1.2783   -0.3191 C   0  0  0  0  0  0  0  0  0  0  0  0
    0.0648    3.4435   -3.1340 C   0  0  0  0  0  0  0  0  0  0  0  0
   -0.9909   -0.0922   -0.2165 C   0  0  0  0  0  0  0  0  0  0  0  0
    1.2794   -0.5405   -0.9107 C   0  0  0  0  0  0  0  0  0  0  0  0
    0.0245   -1.0015   -0.5123 C   0  0  0  0  0  0  0  0  0  0  0  0
    2.8655    1.3253   -1.4399 C   0  0  0  0  0  0  0  0  0  0  0  0
   -2.2924   -0.5702    0.1965 C   0  0  0  0  0  0  0  0  0  0  0  0
   -6.1433   -1.9850    1.4192 C   0  0  0  0  0  0  0  0  0  0  0  0
   -7.6491   -0.4541    0.3193 C   0  0  0  0  0  0  0  0  0  0  0  0
   -8.2666   -2.7667    0.5820 C   0  0  0  0  0  0  0  0  0  0  0  0
   -4.8018   -1.4922    0.9934 C   0  0  0  0  0  0  0  0  0  0  0  0
    2.3406   -1.5332   -1.2193 C   0  0  0  0  0  0  0  0  0  0  0  0
   -3.0770    0.1982    1.0565 C   0  0  0  0  0  0  0  0  0  0  0  0
   -2.7626   -1.7997   -0.2649 C   0  0  0  0  0  0  0  0  0  0  0  0
   -8.7067   -0.3253   -0.7732 C   0  0  0  0  0  0  0  0  0  0  0  0
   -9.3088   -2.5838   -0.5175 C   0  0  0  0  0  0  0  0  0  0  0  0
   -4.3317   -0.2627    1.4550 C   0  0  0  0  0  0  0  0  0  0  0  0
   -4.0172   -2.2608    0.1334 C   0  0  0  0  0  0  0  0  0  0  0  0
    3.7286   -3.3819   -0.3180 C   0  0  0  0  0  0  0  0  0  0  0  0
    5.0498   -2.7796    0.0630 C   0  0  0  0  0  0  0  0  0  0  0  0
    6.0397   -2.4154   -0.7807 C   0  0  0  0  0  0  0  0  0  0  0  0
    5.2470   -2.5636    1.5446 C   0  0  0  0  0  0  0  0  0  0  0  0
    7.2609   -1.8144   -0.2671 C   0  0  0  0  0  0  0  0  0  0  0  0
    7.4345   -1.6166    1.0468 C   0  0  0  0  0  0  0  0  0  0  0  0
    6.0229   -2.5800   -2.2752 C   0  0  0  0  0  0  0  0  0  0  0  0
    8.6638   -1.0048    1.6384 C   0  0  0  0  0  0  0  0  0  0  0  0
    0.2876    3.3866    1.2268 H   0  0  0  0  0  0  0  0  0  0  0  0
    2.6517    3.9390    0.9662 H   0  0  0  0  0  0  0  0  0  0  0  0
    2.2953    5.1986   -0.2086 H   0  0  0  0  0  0  0  0  0  0  0  0
   -0.3430    5.5724   -0.8329 H   0  0  0  0  0  0  0  0  0  0  0  0
   -1.4968    4.5237   -0.0217 H   0  0  0  0  0  0  0  0  0  0  0  0
    1.4391    5.2208    2.7238 H   0  0  0  0  0  0  0  0  0  0  0  0
   -1.3040    6.8102    0.9961 H   0  0  0  0  0  0  0  0  0  0  0  0
   -0.8986    5.5503    2.1670 H   0  0  0  0  0  0  0  0  0  0  0  0
    2.6347    6.2562    1.9354 H   0  0  0  0  0  0  0  0  0  0  0  0
    1.2163    4.8104   -2.0090 H   0  0  0  0  0  0  0  0  0  0  0  0
    2.0922    3.3973   -2.4409 H   0  0  0  0  0  0  0  0  0  0  0  0
   -1.5356    2.0077   -0.1330 H   0  0  0  0  0  0  0  0  0  0  0  0
    0.0043    2.3783   -3.3798 H   0  0  0  0  0  0  0  0  0  0  0  0
   -0.9274    3.7731   -2.8073 H   0  0  0  0  0  0  0  0  0  0  0  0
    0.3086    3.9782   -4.0580 H   0  0  0  0  0  0  0  0  0  0  0  0
   -0.1236   -2.0744   -0.4170 H   0  0  0  0  0  0  0  0  0  0  0  0
    2.9206    1.4118   -2.5291 H   0  0  0  0  0  0  0  0  0  0  0  0
    3.1400    2.2691   -0.9597 H   0  0  0  0  0  0  0  0  0  0  0  0
    3.6607    0.6415   -1.1213 H   0  0  0  0  0  0  0  0  0  0  0  0
   -6.0182   -3.0477    1.6728 H   0  0  0  0  0  0  0  0  0  0  0  0
   -6.4622   -1.5117    2.3582 H   0  0  0  0  0  0  0  0  0  0  0  0
   -6.8413    0.2501    0.0945 H   0  0  0  0  0  0  0  0  0  0  0  0
   -8.0900   -0.1706    1.2841 H   0  0  0  0  0  0  0  0  0  0  0  0
   -8.7305   -2.5867    1.5606 H   0  0  0  0  0  0  0  0  0  0  0  0
   -7.9103   -3.8030    0.5590 H   0  0  0  0  0  0  0  0  0  0  0  0
   -2.7403    1.1465    1.4665 H   0  0  0  0  0  0  0  0  0  0  0  0
   -2.2019   -2.4179   -0.9606 H   0  0  0  0  0  0  0  0  0  0  0  0
  -10.1684   -3.2346   -0.3282 H   0  0  0  0  0  0  0  0  0  0  0  0
   -8.9064   -2.8443   -1.5041 H   0  0  0  0  0  0  0  0  0  0  0  0
   -8.2844   -0.5086   -1.7688 H   0  0  0  0  0  0  0  0  0  0  0  0
   -9.1230    0.6871   -0.7716 H   0  0  0  0  0  0  0  0  0  0  0  0
   -4.9302    0.3431    2.1304 H   0  0  0  0  0  0  0  0  0  0  0  0
   -4.3756   -3.2171   -0.2386 H   0  0  0  0  0  0  0  0  0  0  0  0
    2.2502   -2.2970    0.7199 H   0  0  0  0  0  0  0  0  0  0  0  0
    3.4780   -4.2187    0.3434 H   0  0  0  0  0  0  0  0  0  0  0  0
    3.7141   -3.7810   -1.3346 H   0  0  0  0  0  0  0  0  0  0  0  0
    8.0314   -1.5281   -0.9766 H   0  0  0  0  0  0  0  0  0  0  0  0
    6.6073   -1.8261    2.9148 H   0  0  0  0  0  0  0  0  0  0  0  0
    6.8846   -3.1728   -2.6031 H   0  0  0  0  0  0  0  0  0  0  0  0
    6.0743   -1.6008   -2.7646 H   0  0  0  0  0  0  0  0  0  0  0  0
    5.1326   -3.0834   -2.6553 H   0  0  0  0  0  0  0  0  0  0  0  0
    9.1431   -1.7034    2.3323 H   0  0  0  0  0  0  0  0  0  0  0  0
    9.3987   -0.7406    0.8707 H   0  0  0  0  0  0  0  0  0  0  0  0
    8.4109   -0.0910    2.1863 H   0  0  0  0  0  0  0  0  0  0  0  0
  1 12  1  0  0  0  0
  1 13  1  0  0  0  0
  2 31  1  0  0  0  0
  2 32  1  0  0  0  0
  3 28  2  0  0  0  0
  4 38  2  0  0  0  0
  5  9  1  0  0  0  0
  5 14  1  0  0  0  0
  5 15  1  0  0  0  0
  6 24  1  0  0  0  0
  6 25  1  0  0  0  0
  6 26  1  0  0  0  0
  7 28  1  0  0  0  0
  7 35  1  0  0  0  0
  7 76  1  0  0  0  0
  8 38  1  0  0  0  0
  8 40  1  0  0  0  0
  8 80  1  0  0  0  0
  9 10  1  0  0  0  0
  9 11  1  0  0  0  0
  9 43  1  0  0  0  0
 10 13  1  0  0  0  0
 10 44  1  0  0  0  0
 10 45  1  0  0  0  0
 11 12  1  0  0  0  0
 11 46  1  0  0  0  0
 11 47  1  0  0  0  0
 12 49  1  0  0  0  0
 12 50  1  0  0  0  0
 13 48  1  0  0  0  0
 13 51  1  0  0  0  0
 14 16  1  0  0  0  0
 14 17  2  0  0  0  0
 15 18  1  0  0  0  0
 15 52  1  0  0  0  0
 15 53  1  0  0  0  0
 16 20  2  0  0  0  0
 16 22  1  0  0  0  0
 17 19  1  0  0  0  0
 17 54  1  0  0  0  0
 18 55  1  0  0  0  0
 18 56  1  0  0  0  0
 18 57  1  0  0  0  0
 19 21  2  0  0  0  0
 19 23  1  0  0  0  0
 20 21  1  0  0  0  0
 20 28  1  0  0  0  0
 21 58  1  0  0  0  0
 22 59  1  0  0  0  0
 22 60  1  0  0  0  0
 22 61  1  0  0  0  0
 23 29  2  0  0  0  0
 23 30  1  0  0  0  0
 24 27  1  0  0  0  0
 24 62  1  0  0  0  0
 24 63  1  0  0  0  0
 25 31  1  0  0  0  0
 25 64  1  0  0  0  0
 25 65  1  0  0  0  0
 26 32  1  0  0  0  0
 26 66  1  0  0  0  0
 26 67  1  0  0  0  0
 27 33  2  0  0  0  0
 27 34  1  0  0  0  0
 29 33  1  0  0  0  0
 29 68  1  0  0  0  0
 30 34  2  0  0  0  0
 30 69  1  0  0  0  0
 31 72  1  0  0  0  0
 31 73  1  0  0  0  0
 32 70  1  0  0  0  0
 32 71  1  0  0  0  0
 33 74  1  0  0  0  0
 34 75  1  0  0  0  0
 35 36  1  0  0  0  0
 35 77  1  0  0  0  0
 35 78  1  0  0  0  0
 36 37  2  0  0  0  0
 36 38  1  0  0  0  0
 37 39  1  0  0  0  0
 37 41  1  0  0  0  0
 39 40  2  0  0  0  0
 39 79  1  0  0  0  0
 40 42  1  0  0  0  0
 41 81  1  0  0  0  0
 41 82  1  0  0  0  0
 41 83  1  0  0  0  0
 42 84  1  0  0  0  0
 42 85  1  0  0  0  0
 42 86  1  0  0  0  0
M  END
> <DATABASE_ID>
DB12887

> <DATABASE_NAME>
drugbank

> <ORIGINAL_SOURCE>
PUBCHEM

> <ORIGINAL_SOURCE_URL>
https://pubchem.ncbi.nlm.nih.gov/rest/pug/compound/inchikey/NSQSAUGJQHDYNO-UHFFFAOYSA-N/SDF?record_type=3d

> <SMILES>
CCN(C1CCOCC1)C1=C(C)C(=CC(=C1)C1=CC=C(CN2CCOCC2)C=C1)C(=O)NCC1=C(C)C=C(C)NC1=O

> <INCHI_IDENTIFIER>
InChI=1S/C34H44N4O4/c1-5-38(29-10-14-41-15-11-29)32-20-28(27-8-6-26(7-9-27)22-37-12-16-42-17-13-37)19-30(25(32)4)33(39)35-21-31-23(2)18-24(3)36-34(31)40/h6-9,18-20,29H,5,10-17,21-22H2,1-4H3,(H,35,39)(H,36,40)

> <INCHI_KEY>
NSQSAUGJQHDYNO-UHFFFAOYSA-N

> <FORMULA>
C34H44N4O4

> <MOLECULAR_WEIGHT>
572.75

> <EXACT_MASS>
572.336255913

> <JCHEM_ACCEPTOR_COUNT>
6

> <JCHEM_ATOM_COUNT>
86

> <JCHEM_AVERAGE_NEUTRAL_MICROSPECIES_CHARGE>
0.6157338703546013

> <JCHEM_AVERAGE_POLARIZABILITY>
66.03812623625146

> <JCHEM_BIOAVAILABILITY>
1

> <JCHEM_DONOR_COUNT>
2

> <JCHEM_FORMAL_CHARGE>
0

> <JCHEM_GHOSE_FILTER>
0

> <JCHEM_IUPAC>
N-[(4,6-dimethyl-2-oxo-1,2-dihydropyridin-3-yl)methyl]-5-[ethyl(oxan-4-yl)amino]-4-methyl-4'-[(morpholin-4-yl)methyl]-[1,1'-biphenyl]-3-carboxamide

> <ALOGPS_LOGP>
4.44

> <JCHEM_LOGP>
3.452795436666668

> <ALOGPS_LOGS>
-4.79

> <JCHEM_MDDR_LIKE_RULE>
1

> <JCHEM_NEUTRAL_CHARGE>
1

> <JCHEM_NUMBER_OF_RINGS>
5

> <JCHEM_PHYSIOLOGICAL_CHARGE>
1

> <JCHEM_PKA>
15.519816689695437

> <JCHEM_PKA_STRONGEST_ACIDIC>
11.635869637443882

> <JCHEM_PKA_STRONGEST_BASIC>
7.193293165552336

> <JCHEM_POLAR_SURFACE_AREA>
83.14000000000001

> <JCHEM_REFRACTIVITY>
171.49730000000002

> <JCHEM_ROTATABLE_BOND_COUNT>
9

> <JCHEM_RULE_OF_FIVE>
0

> <ALOGPS_SOLUBILITY>
9.32e-03 g/l

> <JCHEM_TRADITIONAL_IUPAC>
fidaxomicin

> <JCHEM_VEBER_RULE>
0

> <DRUGBANK_ID>
DB12887

> <DRUG_GROUPS>
approved; investigational

> <GENERIC_NAME>
Tazemetostat

> <SYNONYMS>
Tazémétostat; Tazemetostat; Tazemetostatum

> <PRODUCTS>
Tazverik

> <INTERNATIONAL_BRANDS>
Tazverik

> <SALTS>
Tazemetostat hydrobromide

$$$$