157355
  -OEChem-02142013023D

 47 47  0     1  0  0  0  0  0999 V2000
    1.3472   -0.6631   -0.2910 O   0  0  0  0  0  0  0  0  0  0  0  0
   -0.4526    0.4851    0.6531 O   0  0  0  0  0  0  0  0  0  0  0  0
    1.1664    2.8103    0.8560 O   0  0  0  0  0  0  0  0  0  0  0  0
    3.9914    2.2224    1.0541 O   0  0  0  0  0  0  0  0  0  0  0  0
    3.8633   -0.5547    1.0567 O   0  0  0  0  0  0  0  0  0  0  0  0
   -3.1399    0.1333    1.5628 O   0  0  0  0  0  0  0  0  0  0  0  0
   -2.6084    2.3648    0.5011 O   0  0  0  0  0  0  0  0  0  0  0  0
    2.0107   -2.6736   -2.0396 O   0  0  0  0  0  0  0  0  0  0  0  0
   -3.1559   -2.6559    1.4945 O   0  0  0  0  0  0  0  0  0  0  0  0
   -3.6541    2.9877   -1.9820 O   0  0  0  0  0  0  0  0  0  0  0  0
   -1.0860   -4.0353    0.2548 O   0  0  0  0  0  0  0  0  0  0  0  0
    1.7120    1.4930    0.7863 C   0  0  2  0  0  0  0  0  0  0  0  0
    3.1042    1.5579    0.1588 C   0  0  2  0  0  0  0  0  0  0  0  0
    0.7771    0.6241   -0.0579 C   0  0  1  0  0  0  0  0  0  0  0  0
    3.6289    0.1575   -0.1598 C   0  0  2  0  0  0  0  0  0  0  0  0
    2.5947   -0.6063   -0.9941 C   0  0  1  0  0  0  0  0  0  0  0  0
   -1.5538    0.3268   -0.2408 C   0  0  1  0  0  0  0  0  0  0  0  0
   -2.6152   -0.5604    0.4313 C   0  0  1  0  0  0  0  0  0  0  0  0
   -2.0833    1.7123   -0.6620 C   0  0  1  0  0  0  0  0  0  0  0  0
    3.0233   -2.0413   -1.2773 C   0  0  0  0  0  0  0  0  0  0  0  0
   -2.0832   -1.9399    0.8688 C   0  0  2  0  0  0  0  0  0  0  0  0
   -3.2099    1.6641   -1.6932 C   0  0  0  0  0  0  0  0  0  0  0  0
   -1.5768   -2.8088   -0.2805 C   0  0  0  0  0  0  0  0  0  0  0  0
    1.7617    1.1164    1.8152 H   0  0  0  0  0  0  0  0  0  0  0  0
    3.0717    2.1541   -0.7620 H   0  0  0  0  0  0  0  0  0  0  0  0
    0.6058    1.1215   -1.0223 H   0  0  0  0  0  0  0  0  0  0  0  0
    4.5905    0.2230   -0.6797 H   0  0  0  0  0  0  0  0  0  0  0  0
    2.4183   -0.0964   -1.9504 H   0  0  0  0  0  0  0  0  0  0  0  0
   -1.2199   -0.1900   -1.1499 H   0  0  0  0  0  0  0  0  0  0  0  0
   -3.4618   -0.7211   -0.2446 H   0  0  0  0  0  0  0  0  0  0  0  0
   -1.2764    2.3554   -1.0288 H   0  0  0  0  0  0  0  0  0  0  0  0
    3.9574   -2.0697   -1.8460 H   0  0  0  0  0  0  0  0  0  0  0  0
    3.1522   -2.6223   -0.3585 H   0  0  0  0  0  0  0  0  0  0  0  0
   -1.3124   -1.8251    1.6397 H   0  0  0  0  0  0  0  0  0  0  0  0
    1.7010    3.3179    1.4893 H   0  0  0  0  0  0  0  0  0  0  0  0
    3.6970    3.1454    1.1319 H   0  0  0  0  0  0  0  0  0  0  0  0
    3.0037   -0.7571    1.4628 H   0  0  0  0  0  0  0  0  0  0  0  0
   -2.8825    1.1907   -2.6237 H   0  0  0  0  0  0  0  0  0  0  0  0
   -4.0838    1.1288   -1.3127 H   0  0  0  0  0  0  0  0  0  0  0  0
   -0.7726   -2.3349   -0.8426 H   0  0  0  0  0  0  0  0  0  0  0  0
   -2.3894   -3.0587   -0.9698 H   0  0  0  0  0  0  0  0  0  0  0  0
   -2.4063    0.2788    2.1846 H   0  0  0  0  0  0  0  0  0  0  0  0
   -1.8892    2.4136    1.1541 H   0  0  0  0  0  0  0  0  0  0  0  0
    1.2110   -2.7057   -1.4898 H   0  0  0  0  0  0  0  0  0  0  0  0
   -2.8033   -3.5152    1.7831 H   0  0  0  0  0  0  0  0  0  0  0  0
   -2.8949    3.4777   -2.3411 H   0  0  0  0  0  0  0  0  0  0  0  0
   -0.3401   -3.8200    0.8404 H   0  0  0  0  0  0  0  0  0  0  0  0
  1 14  1  0  0  0  0
  1 16  1  0  0  0  0
  2 14  1  0  0  0  0
  2 17  1  0  0  0  0
  3 12  1  0  0  0  0
  3 35  1  0  0  0  0
  4 13  1  0  0  0  0
  4 36  1  0  0  0  0
  5 15  1  0  0  0  0
  5 37  1  0  0  0  0
  6 18  1  0  0  0  0
  6 42  1  0  0  0  0
  7 19  1  0  0  0  0
  7 43  1  0  0  0  0
  8 20  1  0  0  0  0
  8 44  1  0  0  0  0
  9 21  1  0  0  0  0
  9 45  1  0  0  0  0
 10 22  1  0  0  0  0
 10 46  1  0  0  0  0
 11 23  1  0  0  0  0
 11 47  1  0  0  0  0
 12 13  1  0  0  0  0
 12 14  1  0  0  0  0
 12 24  1  0  0  0  0
 13 15  1  0  0  0  0
 13 25  1  0  0  0  0
 14 26  1  0  0  0  0
 15 16  1  0  0  0  0
 15 27  1  0  0  0  0
 16 20  1  0  0  0  0
 16 28  1  0  0  0  0
 17 18  1  0  0  0  0
 17 19  1  0  0  0  0
 17 29  1  0  0  0  0
 18 21  1  0  0  0  0
 18 30  1  0  0  0  0
 19 22  1  0  0  0  0
 19 31  1  0  0  0  0
 20 32  1  0  0  0  0
 20 33  1  0  0  0  0
 21 23  1  0  0  0  0
 21 34  1  0  0  0  0
 22 38  1  0  0  0  0
 22 39  1  0  0  0  0
 23 40  1  0  0  0  0
 23 41  1  0  0  0  0
M  END
> <DATABASE_ID>
DB12942

> <DATABASE_NAME>
drugbank

> <ORIGINAL_SOURCE>
PUBCHEM

> <ORIGINAL_SOURCE_URL>
https://pubchem.ncbi.nlm.nih.gov/rest/pug/compound/inchikey/VQHSOMBJVWLPSR-JVCRWLNRSA-N/SDF?record_type=3d

> <SMILES>
OC[C@H](O)[C@@H](O)[C@H](O[C@@H]1O[C@H](CO)[C@H](O)[C@H](O)[C@H]1O)[C@H](O)CO

> <INCHI_IDENTIFIER>
InChI=1S/C12H24O11/c13-1-4(16)7(18)11(5(17)2-14)23-12-10(21)9(20)8(19)6(3-15)22-12/h4-21H,1-3H2/t4-,5+,6+,7+,8-,9-,10+,11+,12-/m0/s1

> <INCHI_KEY>
VQHSOMBJVWLPSR-JVCRWLNRSA-N

> <FORMULA>
C12H24O11

> <MOLECULAR_WEIGHT>
344.3124

> <EXACT_MASS>
344.13186161

> <JCHEM_ACCEPTOR_COUNT>
11

> <JCHEM_ATOM_COUNT>
47

> <JCHEM_AVERAGE_NEUTRAL_MICROSPECIES_CHARGE>
0.005175338634870545

> <JCHEM_AVERAGE_POLARIZABILITY>
31.980754155713647

> <JCHEM_BIOAVAILABILITY>
0

> <JCHEM_DONOR_COUNT>
9

> <JCHEM_FORMAL_CHARGE>
0

> <JCHEM_GHOSE_FILTER>
0

> <JCHEM_IUPAC>
(2S,3R,4R,5R)-4-{[(2S,3R,4S,5R,6R)-3,4,5-trihydroxy-6-(hydroxymethyl)oxan-2-yl]oxy}hexane-1,2,3,5,6-pentol

> <ALOGPS_LOGP>
-3.18

> <JCHEM_LOGP>
-5.500854494333333

> <ALOGPS_LOGS>
0.04

> <JCHEM_MDDR_LIKE_RULE>
0

> <JCHEM_NEUTRAL_CHARGE>
0

> <JCHEM_NUMBER_OF_RINGS>
1

> <JCHEM_PHYSIOLOGICAL_CHARGE>
0

> <JCHEM_PKA>
12.710069436426757

> <JCHEM_PKA_STRONGEST_ACIDIC>
12.099718922094596

> <JCHEM_PKA_STRONGEST_BASIC>
-2.974505917782067

> <JCHEM_POLAR_SURFACE_AREA>
200.52999999999997

> <JCHEM_REFRACTIVITY>
70.8169

> <JCHEM_ROTATABLE_BOND_COUNT>
8

> <JCHEM_RULE_OF_FIVE>
0

> <ALOGPS_SOLUBILITY>
3.77e+02 g/l

> <JCHEM_TRADITIONAL_IUPAC>
lactitol

> <JCHEM_VEBER_RULE>
0

> <DRUGBANK_ID>
DB12942

> <DRUG_GROUPS>
approved; investigational

> <GENERIC_NAME>
Lactitol

> <SYNONYMS>
Lactitol; Lactitolum

> <PRODUCTS>
Pizensy

> <INTERNATIONAL_BRANDS>
Importal

> <SALTS>
Lactitol monohydrate

$$$$