151897
  -OEChem-10051722453D

 83 88  0     1  0  0  0  0  0999 V2000
    0.4190    0.4405   -0.2852 O   0  0  0  0  0  0  0  0  0  0  0  0
    2.5611    1.4225   -0.0156 O   0  0  0  0  0  0  0  0  0  0  0  0
    4.9099   -0.2366   -0.3601 O   0  0  0  0  0  0  0  0  0  0  0  0
    6.3782   -1.9712   -1.0405 O   0  0  0  0  0  0  0  0  0  0  0  0
   -1.0025    4.8981   -1.2397 O   0  0  0  0  0  0  0  0  0  0  0  0
    3.4816   -2.5955   -0.5556 O   0  0  0  0  0  0  0  0  0  0  0  0
    8.9992   -2.1507    0.1510 O   0  0  0  0  0  0  0  0  0  0  0  0
   -1.2872   -1.1717    0.8874 O   0  0  0  0  0  0  0  0  0  0  0  0
   -5.2022    2.0683   -1.2632 O   0  0  0  0  0  0  0  0  0  0  0  0
   -2.5246    4.1822    1.5432 O   0  0  0  0  0  0  0  0  0  0  0  0
   -0.4383    5.2523    2.8551 O   0  0  0  0  0  0  0  0  0  0  0  0
   -3.0005   -2.9922    1.0525 O   0  0  0  0  0  0  0  0  0  0  0  0
   -6.8072    0.1459   -0.9979 O   0  0  0  0  0  0  0  0  0  0  0  0
    8.7929    0.3568    1.5066 N   0  0  0  0  0  0  0  0  0  0  0  0
   -0.5247    1.4254    0.1347 C   0  0  1  0  0  0  0  0  0  0  0  0
   -1.3517    3.7392   -0.4870 C   0  0  2  0  0  0  0  0  0  0  0  0
    3.7857   -0.2994   -1.2396 C   0  0  1  0  0  0  0  0  0  0  0  0
   -0.2296    2.7187   -0.6278 C   0  0  0  0  0  0  0  0  0  0  0  0
    2.8089   -1.3519   -0.7126 C   0  0  2  0  0  0  0  0  0  0  0  0
    1.6055    0.4936    0.5020 C   0  0  2  0  0  0  0  0  0  0  0  0
    2.2046   -0.9065    0.6187 C   0  0  0  0  0  0  0  0  0  0  0  0
    3.0868    1.0659   -1.3020 C   0  0  2  0  0  0  0  0  0  0  0  0
   -2.6734    3.1702   -1.0072 C   0  0  0  0  0  0  0  0  0  0  0  0
   -1.9342    0.9154   -0.0691 C   0  0  0  0  0  0  0  0  0  0  0  0
   -2.9471    1.7491   -0.5764 C   0  0  0  0  0  0  0  0  0  0  0  0
    6.1175   -0.5661   -1.0406 C   0  0  2  0  0  0  0  0  0  0  0  0
    7.2830    0.2110   -0.4257 C   0  0  0  0  0  0  0  0  0  0  0  0
    7.6166   -0.3258    0.9710 C   0  0  1  0  0  0  0  0  0  0  0  0
    7.8335   -1.8446    0.9182 C   0  0  1  0  0  0  0  0  0  0  0  0
    6.6198   -2.5193    0.2623 C   0  0  2  0  0  0  0  0  0  0  0  0
   -2.2609   -0.3959    0.3206 C   0  0  0  0  0  0  0  0  0  0  0  0
   -1.4633    4.2445    0.9242 C   0  0  0  0  0  0  0  0  0  0  0  0
   -4.2490    1.2434   -0.7321 C   0  0  0  0  0  0  0  0  0  0  0  0
    4.0209    2.1903   -1.7347 C   0  0  0  0  0  0  0  0  0  0  0  0
   -3.5634   -0.8877    0.1719 C   0  0  0  0  0  0  0  0  0  0  0  0
   -4.5565   -0.0692   -0.3591 C   0  0  0  0  0  0  0  0  0  0  0  0
    6.8135   -4.0223    0.0913 C   0  0  0  0  0  0  0  0  0  0  0  0
   -0.2041    4.8281    1.5290 C   0  0  0  0  0  0  0  0  0  0  0  0
   -3.8731   -2.2730    0.5819 C   0  0  0  0  0  0  0  0  0  0  0  0
   -5.9347   -0.5735   -0.5276 C   0  0  0  0  0  0  0  0  0  0  0  0
   -5.2509   -2.7788    0.4160 C   0  0  0  0  0  0  0  0  0  0  0  0
   -6.2459   -1.9588   -0.1201 C   0  0  0  0  0  0  0  0  0  0  0  0
   -5.5580   -4.0899    0.7993 C   0  0  0  0  0  0  0  0  0  0  0  0
   -7.5480   -2.4494   -0.2728 C   0  0  0  0  0  0  0  0  0  0  0  0
   -6.8570   -4.5749    0.6452 C   0  0  0  0  0  0  0  0  0  0  0  0
   -7.8499   -3.7565    0.1105 C   0  0  0  0  0  0  0  0  0  0  0  0
   -0.4440    1.6244    1.2124 H   0  0  0  0  0  0  0  0  0  0  0  0
    4.0849   -0.5988   -2.2527 H   0  0  0  0  0  0  0  0  0  0  0  0
   -0.0968    2.4870   -1.6958 H   0  0  0  0  0  0  0  0  0  0  0  0
    0.7414    3.1368   -0.3439 H   0  0  0  0  0  0  0  0  0  0  0  0
    2.0081   -1.5017   -1.4471 H   0  0  0  0  0  0  0  0  0  0  0  0
    1.3776    0.8133    1.5258 H   0  0  0  0  0  0  0  0  0  0  0  0
    1.4532   -1.6361    0.9401 H   0  0  0  0  0  0  0  0  0  0  0  0
    2.9908   -0.9109    1.3846 H   0  0  0  0  0  0  0  0  0  0  0  0
    2.2558    1.0218   -2.0174 H   0  0  0  0  0  0  0  0  0  0  0  0
   -3.5010    3.8283   -0.7120 H   0  0  0  0  0  0  0  0  0  0  0  0
   -2.6582    3.1855   -2.1061 H   0  0  0  0  0  0  0  0  0  0  0  0
    6.0672   -0.2462   -2.0888 H   0  0  0  0  0  0  0  0  0  0  0  0
    7.0349    1.2775   -0.3652 H   0  0  0  0  0  0  0  0  0  0  0  0
    8.1602    0.1074   -1.0777 H   0  0  0  0  0  0  0  0  0  0  0  0
    6.7746   -0.1183    1.6431 H   0  0  0  0  0  0  0  0  0  0  0  0
    7.9831   -2.2496    1.9264 H   0  0  0  0  0  0  0  0  0  0  0  0
    5.7325   -2.3570    0.8862 H   0  0  0  0  0  0  0  0  0  0  0  0
    4.4852    1.9722   -2.7010 H   0  0  0  0  0  0  0  0  0  0  0  0
    3.4638    3.1299   -1.8209 H   0  0  0  0  0  0  0  0  0  0  0  0
    4.8067    2.3657   -0.9927 H   0  0  0  0  0  0  0  0  0  0  0  0
   -1.7719    5.4931   -1.2548 H   0  0  0  0  0  0  0  0  0  0  0  0
    2.8370   -3.2364   -0.2105 H   0  0  0  0  0  0  0  0  0  0  0  0
    7.0248   -4.5070    1.0491 H   0  0  0  0  0  0  0  0  0  0  0  0
    7.6270   -4.2461   -0.6072 H   0  0  0  0  0  0  0  0  0  0  0  0
    5.9098   -4.4729   -0.3337 H   0  0  0  0  0  0  0  0  0  0  0  0
    0.1173    5.6960    0.9484 H   0  0  0  0  0  0  0  0  0  0  0  0
    0.5964    4.0873    1.5615 H   0  0  0  0  0  0  0  0  0  0  0  0
    9.5805    0.2457    0.8691 H   0  0  0  0  0  0  0  0  0  0  0  0
    8.6129    1.3595    1.5503 H   0  0  0  0  0  0  0  0  0  0  0  0
    9.7665   -1.8045    0.6370 H   0  0  0  0  0  0  0  0  0  0  0  0
   -0.6067   -0.6097    1.2883 H   0  0  0  0  0  0  0  0  0  0  0  0
   -6.0899    1.7030   -1.1359 H   0  0  0  0  0  0  0  0  0  0  0  0
   -4.8017   -4.7479    1.2187 H   0  0  0  0  0  0  0  0  0  0  0  0
   -8.3399   -1.8312   -0.6871 H   0  0  0  0  0  0  0  0  0  0  0  0
   -0.6409    4.4618    3.3842 H   0  0  0  0  0  0  0  0  0  0  0  0
   -7.0946   -5.5922    0.9427 H   0  0  0  0  0  0  0  0  0  0  0  0
   -8.8605   -4.1366   -0.0083 H   0  0  0  0  0  0  0  0  0  0  0  0
  1 15  1  0  0  0  0
  1 20  1  0  0  0  0
  2 20  1  0  0  0  0
  2 22  1  0  0  0  0
  3 17  1  0  0  0  0
  3 26  1  0  0  0  0
  4 26  1  0  0  0  0
  4 30  1  0  0  0  0
  5 16  1  0  0  0  0
  5 67  1  0  0  0  0
  6 19  1  0  0  0  0
  6 68  1  0  0  0  0
  7 29  1  0  0  0  0
  7 76  1  0  0  0  0
  8 31  1  0  0  0  0
  8 77  1  0  0  0  0
  9 33  1  0  0  0  0
  9 78  1  0  0  0  0
 10 32  2  0  0  0  0
 11 38  1  0  0  0  0
 11 81  1  0  0  0  0
 12 39  2  0  0  0  0
 13 40  2  0  0  0  0
 14 28  1  0  0  0  0
 14 74  1  0  0  0  0
 14 75  1  0  0  0  0
 15 18  1  0  0  0  0
 15 24  1  0  0  0  0
 15 47  1  0  0  0  0
 16 18  1  0  0  0  0
 16 23  1  0  0  0  0
 16 32  1  0  0  0  0
 17 19  1  0  0  0  0
 17 22  1  0  0  0  0
 17 48  1  0  0  0  0
 18 49  1  0  0  0  0
 18 50  1  0  0  0  0
 19 21  1  0  0  0  0
 19 51  1  0  0  0  0
 20 21  1  0  0  0  0
 20 52  1  0  0  0  0
 21 53  1  0  0  0  0
 21 54  1  0  0  0  0
 22 34  1  0  0  0  0
 22 55  1  0  0  0  0
 23 25  1  0  0  0  0
 23 56  1  0  0  0  0
 23 57  1  0  0  0  0
 24 25  2  0  0  0  0
 24 31  1  0  0  0  0
 25 33  1  0  0  0  0
 26 27  1  0  0  0  0
 26 58  1  0  0  0  0
 27 28  1  0  0  0  0
 27 59  1  0  0  0  0
 27 60  1  0  0  0  0
 28 29  1  0  0  0  0
 28 61  1  0  0  0  0
 29 30  1  0  0  0  0
 29 62  1  0  0  0  0
 30 37  1  0  0  0  0
 30 63  1  0  0  0  0
 31 35  2  0  0  0  0
 32 38  1  0  0  0  0
 33 36  2  0  0  0  0
 34 64  1  0  0  0  0
 34 65  1  0  0  0  0
 34 66  1  0  0  0  0
 35 36  1  0  0  0  0
 35 39  1  0  0  0  0
 36 40  1  0  0  0  0
 37 69  1  0  0  0  0
 37 70  1  0  0  0  0
 37 71  1  0  0  0  0
 38 72  1  0  0  0  0
 38 73  1  0  0  0  0
 39 41  1  0  0  0  0
 40 42  1  0  0  0  0
 41 42  1  0  0  0  0
 41 43  2  0  0  0  0
 42 44  2  0  0  0  0
 43 45  1  0  0  0  0
 43 79  1  0  0  0  0
 44 46  1  0  0  0  0
 44 80  1  0  0  0  0
 45 46  2  0  0  0  0
 45 82  1  0  0  0  0
 46 83  1  0  0  0  0
M  END
> <DATABASE_ID>
DB12410

> <DATABASE_NAME>
drugbank

> <ORIGINAL_SOURCE>
PUBCHEM

> <ORIGINAL_SOURCE_URL>
https://pubchem.ncbi.nlm.nih.gov/rest/pug/compound/inchikey/VQHRZZISQVWPLK-UIRGBLDSSA-N/SDF?record_type=3d

> <SMILES>
[H][C@]1(N)C[C@]([H])(O[C@]2([H])[C@]([H])(C)O[C@]([H])(C[C@]2([H])O)O[C@@]2([H])C[C@@](O)(CC3=C(O)C4=C(C(O)=C23)C(=O)C2=CC=CC=C2C4=O)C(=O)CO)O[C@@]([H])(C)[C@@]1([H])O

> <INCHI_IDENTIFIER>
InChI=1S/C32H37NO13/c1-12-26(37)17(33)7-21(43-12)46-31-13(2)44-22(8-18(31)35)45-19-10-32(42,20(36)11-34)9-16-23(19)30(41)25-24(29(16)40)27(38)14-5-3-4-6-15(14)28(25)39/h3-6,12-13,17-19,21-22,26,31,34-35,37,40-42H,7-11,33H2,1-2H3/t12-,13-,17-,18-,19-,21-,22-,26+,31+,32-/m0/s1

> <INCHI_KEY>
VQHRZZISQVWPLK-UIRGBLDSSA-N

> <FORMULA>
C32H37NO13

> <MOLECULAR_WEIGHT>
643.6351

> <EXACT_MASS>
643.226490275

> <JCHEM_ACCEPTOR_COUNT>
14

> <JCHEM_AVERAGE_POLARIZABILITY>
65.70719536139775

> <JCHEM_BIOAVAILABILITY>
0

> <JCHEM_DONOR_COUNT>
7

> <JCHEM_FORMAL_CHARGE>
0

> <JCHEM_GHOSE_FILTER>
0

> <JCHEM_IUPAC>
(7S,9S)-7-{[(2R,4S,5S,6S)-5-{[(2S,4S,5S,6S)-4-amino-5-hydroxy-6-methyloxan-2-yl]oxy}-4-hydroxy-6-methyloxan-2-yl]oxy}-6,9,11-trihydroxy-9-(2-hydroxyacetyl)-5,7,8,9,10,12-hexahydrotetracene-5,12-dione

> <ALOGPS_LOGP>
1.14

> <JCHEM_LOGP>
1.0387433153148433

> <ALOGPS_LOGS>
-2.71

> <JCHEM_MDDR_LIKE_RULE>
1

> <JCHEM_NUMBER_OF_RINGS>
6

> <JCHEM_PHYSIOLOGICAL_CHARGE>
1

> <JCHEM_PKA>
9.779848481814806

> <JCHEM_PKA_STRONGEST_ACIDIC>
9.104927148742522

> <JCHEM_PKA_STRONGEST_BASIC>
11.052519339695754

> <JCHEM_POLAR_SURFACE_AREA>
235.52999999999994

> <JCHEM_REFRACTIVITY>
157.48940000000005

> <JCHEM_ROTATABLE_BOND_COUNT>
6

> <JCHEM_RULE_OF_FIVE>
0

> <ALOGPS_SOLUBILITY>
1.25e+00 g/l

> <JCHEM_TRADITIONAL_IUPAC>
(7S,9S)-7-{[(2R,4S,5S,6S)-5-{[(2S,4S,5S,6S)-4-amino-5-hydroxy-6-methyloxan-2-yl]oxy}-4-hydroxy-6-methyloxan-2-yl]oxy}-6,9,11-trihydroxy-9-(2-hydroxyacetyl)-8,10-dihydro-7H-tetracene-5,12-dione

> <JCHEM_VEBER_RULE>
0

> <DRUGBANK_ID>
DB12410

> <DRUG_GROUPS>
investigational

> <GENERIC_NAME>
Sabarubicin

$$$$