44467821
  -OEChem-10051722503D

 84 89  0     0  0  0  0  0  0999 V2000
   -4.1506   -1.1379    0.2543 S   0  0  0  0  0  0  0  0  0  0  0  0
    6.5349   -0.1821    0.7516 O   0  0  0  0  0  0  0  0  0  0  0  0
    4.8914    2.0196    1.1989 O   0  0  0  0  0  0  0  0  0  0  0  0
  -10.8973   -2.4367    1.4904 O   0  0  0  0  0  0  0  0  0  0  0  0
   -8.0518    1.3324   -0.3959 O   0  0  0  0  0  0  0  0  0  0  0  0
   11.3510   -0.4684    0.2906 N   0  0  0  0  0  0  0  0  0  0  0  0
   14.1304    0.2472    0.6393 N   0  0  0  0  0  0  0  0  0  0  0  0
    0.4970    0.8933   -1.0807 N   0  0  0  0  0  0  0  0  0  0  0  0
    3.0340   -2.3213   -1.6797 N   0  0  0  0  0  0  0  0  0  0  0  0
    0.9003   -1.2429   -1.9804 N   0  0  0  0  0  0  0  0  0  0  0  0
   -5.0695    1.1130   -0.6065 N   0  0  0  0  0  0  0  0  0  0  0  0
   -6.6801   -0.4694    0.2278 N   0  0  0  0  0  0  0  0  0  0  0  0
   -8.9923   -0.6032    0.5194 N   0  0  0  0  0  0  0  0  0  0  0  0
   12.4072   -1.1037   -0.5068 C   0  0  0  0  0  0  0  0  0  0  0  0
   11.7456    0.8934    0.6709 C   0  0  0  0  0  0  0  0  0  0  0  0
   13.7359   -1.1142    0.2568 C   0  0  0  0  0  0  0  0  0  0  0  0
   13.0736    0.8826    1.4358 C   0  0  0  0  0  0  0  0  0  0  0  0
   10.0849   -0.4574   -0.4395 C   0  0  0  0  0  0  0  0  0  0  0  0
    8.9166   -0.3049    0.5290 C   0  0  0  0  0  0  0  0  0  0  0  0
   15.3956    0.2348    1.3709 C   0  0  0  0  0  0  0  0  0  0  0  0
    7.5806   -0.3120   -0.2016 C   0  0  0  0  0  0  0  0  0  0  0  0
    5.2540   -0.1522    0.2641 C   0  0  0  0  0  0  0  0  0  0  0  0
    4.4368    0.9498    0.4903 C   0  0  0  0  0  0  0  0  0  0  0  0
    4.7730   -1.2437   -0.4651 C   0  0  0  0  0  0  0  0  0  0  0  0
    2.6636   -0.1438   -0.7457 C   0  0  0  0  0  0  0  0  0  0  0  0
    3.4794   -1.2627   -0.9807 C   0  0  0  0  0  0  0  0  0  0  0  0
    3.1399    0.9576   -0.0134 C   0  0  0  0  0  0  0  0  0  0  0  0
    1.3780   -0.1995   -1.2765 C   0  0  0  0  0  0  0  0  0  0  0  0
   -0.9002    0.9761   -0.9735 C   0  0  0  0  0  0  0  0  0  0  0  0
    1.7689   -2.2541   -2.1415 C   0  0  0  0  0  0  0  0  0  0  0  0
   -1.6139   -0.1018   -0.4432 C   0  0  0  0  0  0  0  0  0  0  0  0
   -3.0105    0.0073   -0.3474 C   0  0  0  0  0  0  0  0  0  0  0  0
    4.6871    1.9968    2.6108 C   0  0  0  0  0  0  0  0  0  0  0  0
   -1.5559    2.1273   -1.3956 C   0  0  0  0  0  0  0  0  0  0  0  0
   -3.6919    1.1546   -0.7648 C   0  0  0  0  0  0  0  0  0  0  0  0
   -2.9466    2.2292   -1.2972 C   0  0  0  0  0  0  0  0  0  0  0  0
   -5.4173   -0.0393   -0.0830 C   0  0  0  0  0  0  0  0  0  0  0  0
  -10.3743   -0.3002    0.5314 C   0  0  0  0  0  0  0  0  0  0  0  0
  -12.1670    1.2491    0.0596 C   0  0  0  0  0  0  0  0  0  0  0  0
   -7.9345    0.2037    0.0704 C   0  0  0  0  0  0  0  0  0  0  0  0
  -10.8078    0.9358    0.0523 C   0  0  0  0  0  0  0  0  0  0  0  0
  -11.3001   -1.2233    1.0178 C   0  0  0  0  0  0  0  0  0  0  0  0
  -13.0928    0.3259    0.5459 C   0  0  0  0  0  0  0  0  0  0  0  0
  -12.6595   -0.9102    1.0249 C   0  0  0  0  0  0  0  0  0  0  0  0
  -12.6318    2.5707   -0.4518 C   0  0  0  0  0  0  0  0  0  0  0  0
  -11.9140   -3.3154    1.9673 C   0  0  0  0  0  0  0  0  0  0  0  0
   12.5355   -0.5869   -1.4677 H   0  0  0  0  0  0  0  0  0  0  0  0
   12.1341   -2.1427   -0.7280 H   0  0  0  0  0  0  0  0  0  0  0  0
   10.9967    1.3512    1.3256 H   0  0  0  0  0  0  0  0  0  0  0  0
   11.8397    1.5367   -0.2147 H   0  0  0  0  0  0  0  0  0  0  0  0
   13.6477   -1.7595    1.1416 H   0  0  0  0  0  0  0  0  0  0  0  0
   14.5030   -1.5536   -0.3922 H   0  0  0  0  0  0  0  0  0  0  0  0
   13.3517    1.9200    1.6587 H   0  0  0  0  0  0  0  0  0  0  0  0
   12.9424    0.3659    2.3964 H   0  0  0  0  0  0  0  0  0  0  0  0
   10.0659    0.3244   -1.2098 H   0  0  0  0  0  0  0  0  0  0  0  0
    9.9493   -1.4138   -0.9620 H   0  0  0  0  0  0  0  0  0  0  0  0
    8.9264   -1.1148    1.2703 H   0  0  0  0  0  0  0  0  0  0  0  0
    8.9833    0.6257    1.1040 H   0  0  0  0  0  0  0  0  0  0  0  0
   15.7086    1.2562    1.6144 H   0  0  0  0  0  0  0  0  0  0  0  0
   16.1913   -0.1993    0.7553 H   0  0  0  0  0  0  0  0  0  0  0  0
   15.3303   -0.3374    2.3034 H   0  0  0  0  0  0  0  0  0  0  0  0
    7.4823   -1.2504   -0.7587 H   0  0  0  0  0  0  0  0  0  0  0  0
    7.5344    0.5241   -0.9102 H   0  0  0  0  0  0  0  0  0  0  0  0
    5.4096   -2.1124   -0.6229 H   0  0  0  0  0  0  0  0  0  0  0  0
    2.5188    1.8276    0.1832 H   0  0  0  0  0  0  0  0  0  0  0  0
    0.9414    1.7919   -1.2484 H   0  0  0  0  0  0  0  0  0  0  0  0
    1.4161   -3.1102   -2.7036 H   0  0  0  0  0  0  0  0  0  0  0  0
   -1.1152   -1.0020   -0.0960 H   0  0  0  0  0  0  0  0  0  0  0  0
    5.1081    2.9136    3.0326 H   0  0  0  0  0  0  0  0  0  0  0  0
    5.1968    1.1385    3.0598 H   0  0  0  0  0  0  0  0  0  0  0  0
    3.6179    1.9631    2.8428 H   0  0  0  0  0  0  0  0  0  0  0  0
   -0.9970    2.9639   -1.8087 H   0  0  0  0  0  0  0  0  0  0  0  0
   -3.4488    3.1332   -1.6300 H   0  0  0  0  0  0  0  0  0  0  0  0
   -6.7185   -1.4032    0.6274 H   0  0  0  0  0  0  0  0  0  0  0  0
  -10.1504    1.6996   -0.3367 H   0  0  0  0  0  0  0  0  0  0  0  0
   -8.7455   -1.5204    0.8829 H   0  0  0  0  0  0  0  0  0  0  0  0
  -14.1546    0.5581    0.5585 H   0  0  0  0  0  0  0  0  0  0  0  0
  -13.4362   -1.5748    1.3868 H   0  0  0  0  0  0  0  0  0  0  0  0
  -12.3938    3.3583    0.2701 H   0  0  0  0  0  0  0  0  0  0  0  0
  -12.1502    2.8057   -1.4071 H   0  0  0  0  0  0  0  0  0  0  0  0
  -13.7133    2.5806   -0.6244 H   0  0  0  0  0  0  0  0  0  0  0  0
  -11.4158   -4.2307    2.3037 H   0  0  0  0  0  0  0  0  0  0  0  0
  -12.6045   -3.6065    1.1683 H   0  0  0  0  0  0  0  0  0  0  0  0
  -12.4327   -2.8993    2.8377 H   0  0  0  0  0  0  0  0  0  0  0  0
  1 32  1  0  0  0  0
  1 37  1  0  0  0  0
  2 21  1  0  0  0  0
  2 22  1  0  0  0  0
  3 23  1  0  0  0  0
  3 33  1  0  0  0  0
  4 42  1  0  0  0  0
  4 46  1  0  0  0  0
  5 40  2  0  0  0  0
  6 14  1  0  0  0  0
  6 15  1  0  0  0  0
  6 18  1  0  0  0  0
  7 16  1  0  0  0  0
  7 17  1  0  0  0  0
  7 20  1  0  0  0  0
  8 28  1  0  0  0  0
  8 29  1  0  0  0  0
  8 66  1  0  0  0  0
  9 26  1  0  0  0  0
  9 30  2  0  0  0  0
 10 28  2  0  0  0  0
 10 30  1  0  0  0  0
 11 35  1  0  0  0  0
 11 37  2  0  0  0  0
 12 37  1  0  0  0  0
 12 40  1  0  0  0  0
 12 74  1  0  0  0  0
 13 38  1  0  0  0  0
 13 40  1  0  0  0  0
 13 76  1  0  0  0  0
 14 16  1  0  0  0  0
 14 47  1  0  0  0  0
 14 48  1  0  0  0  0
 15 17  1  0  0  0  0
 15 49  1  0  0  0  0
 15 50  1  0  0  0  0
 16 51  1  0  0  0  0
 16 52  1  0  0  0  0
 17 53  1  0  0  0  0
 17 54  1  0  0  0  0
 18 19  1  0  0  0  0
 18 55  1  0  0  0  0
 18 56  1  0  0  0  0
 19 21  1  0  0  0  0
 19 57  1  0  0  0  0
 19 58  1  0  0  0  0
 20 59  1  0  0  0  0
 20 60  1  0  0  0  0
 20 61  1  0  0  0  0
 21 62  1  0  0  0  0
 21 63  1  0  0  0  0
 22 23  2  0  0  0  0
 22 24  1  0  0  0  0
 23 27  1  0  0  0  0
 24 26  2  0  0  0  0
 24 64  1  0  0  0  0
 25 26  1  0  0  0  0
 25 27  2  0  0  0  0
 25 28  1  0  0  0  0
 27 65  1  0  0  0  0
 29 31  2  0  0  0  0
 29 34  1  0  0  0  0
 30 67  1  0  0  0  0
 31 32  1  0  0  0  0
 31 68  1  0  0  0  0
 32 35  2  0  0  0  0
 33 69  1  0  0  0  0
 33 70  1  0  0  0  0
 33 71  1  0  0  0  0
 34 36  2  0  0  0  0
 34 72  1  0  0  0  0
 35 36  1  0  0  0  0
 36 73  1  0  0  0  0
 38 41  1  0  0  0  0
 38 42  2  0  0  0  0
 39 41  2  0  0  0  0
 39 43  1  0  0  0  0
 39 45  1  0  0  0  0
 41 75  1  0  0  0  0
 42 44  1  0  0  0  0
 43 44  2  0  0  0  0
 43 77  1  0  0  0  0
 44 78  1  0  0  0  0
 45 79  1  0  0  0  0
 45 80  1  0  0  0  0
 45 81  1  0  0  0  0
 46 82  1  0  0  0  0
 46 83  1  0  0  0  0
 46 84  1  0  0  0  0
M  END
> <DATABASE_ID>
DB12669

> <DATABASE_NAME>
drugbank

> <ORIGINAL_SOURCE>
PUBCHEM

> <ORIGINAL_SOURCE_URL>
https://pubchem.ncbi.nlm.nih.gov/rest/pug/compound/inchikey/MAFACRSJGNJHCF-UHFFFAOYSA-N/SDF?record_type=3d

> <SMILES>
COC1=CC=C(C)C=C1NC(=O)NC1=NC2=CC=C(NC3=NC=NC4=CC(OCCCN5CCN(C)CC5)=C(OC)C=C34)C=C2S1

> <INCHI_IDENTIFIER>
InChI=1S/C33H38N8O4S/c1-21-6-9-27(43-3)26(16-21)37-32(42)39-33-38-24-8-7-22(17-30(24)46-33)36-31-23-18-28(44-4)29(19-25(23)34-20-35-31)45-15-5-10-41-13-11-40(2)12-14-41/h6-9,16-20H,5,10-15H2,1-4H3,(H,34,35,36)(H2,37,38,39,42)

> <INCHI_KEY>
MAFACRSJGNJHCF-UHFFFAOYSA-N

> <FORMULA>
C33H38N8O4S

> <MOLECULAR_WEIGHT>
642.78

> <EXACT_MASS>
642.27367291

> <JCHEM_ACCEPTOR_COUNT>
10

> <JCHEM_ATOM_COUNT>
84

> <JCHEM_AVERAGE_POLARIZABILITY>
72.55475546092507

> <JCHEM_BIOAVAILABILITY>
0

> <JCHEM_DONOR_COUNT>
3

> <JCHEM_FORMAL_CHARGE>
0

> <JCHEM_GHOSE_FILTER>
0

> <JCHEM_IUPAC>
1-(2-methoxy-5-methylphenyl)-3-[6-({6-methoxy-7-[3-(4-methylpiperazin-1-yl)propoxy]quinazolin-4-yl}amino)-1,3-benzothiazol-2-yl]urea

> <ALOGPS_LOGP>
4.42

> <JCHEM_LOGP>
5.395462575666666

> <ALOGPS_LOGS>
-5.50

> <JCHEM_MDDR_LIKE_RULE>
1

> <JCHEM_NUMBER_OF_RINGS>
6

> <JCHEM_PHYSIOLOGICAL_CHARGE>
1

> <JCHEM_PKA>
15.34350477381454

> <JCHEM_PKA_STRONGEST_ACIDIC>
9.999251529401311

> <JCHEM_PKA_STRONGEST_BASIC>
8.018023177421071

> <JCHEM_POLAR_SURFACE_AREA>
126.0

> <JCHEM_REFRACTIVITY>
181.50439999999995

> <JCHEM_ROTATABLE_BOND_COUNT>
11

> <JCHEM_RULE_OF_FIVE>
0

> <ALOGPS_SOLUBILITY>
2.04e-03 g/l

> <JCHEM_TRADITIONAL_IUPAC>
1-(2-methoxy-5-methylphenyl)-3-[6-({6-methoxy-7-[3-(4-methylpiperazin-1-yl)propoxy]quinazolin-4-yl}amino)-1,3-benzothiazol-2-yl]urea

> <JCHEM_VEBER_RULE>
0

> <DRUGBANK_ID>
DB12669

> <DRUG_GROUPS>
investigational

> <GENERIC_NAME>
4SC-203

$$$$