11236126
  -OEChem-10051722453D

 53 54  0     1  0  0  0  0  0999 V2000
   -0.6846    2.6856    1.2360 S   0  0  0  0  0  0  0  0  0  0  0  0
   -1.0961   -5.2763   -0.0158 F   0  0  0  0  0  0  0  0  0  0  0  0
   -2.2707   -4.7394    1.7266 F   0  0  0  0  0  0  0  0  0  0  0  0
   -3.2667   -5.3801   -0.0973 F   0  0  0  0  0  0  0  0  0  0  0  0
   -3.3262    3.9769   -0.0306 O   0  0  0  0  0  0  0  0  0  0  0  0
   -2.4767    0.7186   -1.4412 O   0  0  0  0  0  0  0  0  0  0  0  0
    4.8356    0.6177    0.5519 O   0  0  0  0  0  0  0  0  0  0  0  0
    6.8336   -0.5044   -2.2074 O   0  0  0  0  0  0  0  0  0  0  0  0
    6.6652   -1.2993   -0.0797 O   0  0  0  0  0  0  0  0  0  0  0  0
   -2.5957    3.0312   -0.8127 C   0  0  1  0  0  0  0  0  0  0  0  0
   -1.1057    3.1402   -0.4765 C   0  0  0  0  0  0  0  0  0  0  0  0
   -3.1933    1.6390   -0.6227 C   0  0  0  0  0  0  0  0  0  0  0  0
    0.9772    2.0570    1.0318 C   0  0  0  0  0  0  0  0  0  0  0  0
   -4.7039    3.9702   -0.3692 C   0  0  0  0  0  0  0  0  0  0  0  0
   -2.4179   -0.5768   -1.0027 C   0  0  0  0  0  0  0  0  0  0  0  0
    2.5642    0.2529    1.2255 C   0  0  0  0  0  0  0  0  0  0  0  0
    1.2678    0.7425    1.3850 C   0  0  0  0  0  0  0  0  0  0  0  0
    1.9714    2.8861    0.5207 C   0  0  0  0  0  0  0  0  0  0  0  0
    3.5640    1.0800    0.7136 C   0  0  0  0  0  0  0  0  0  0  0  0
    3.2676    2.3964    0.3611 C   0  0  0  0  0  0  0  0  0  0  0  0
   -5.4271    4.9875    0.4873 C   0  0  0  0  0  0  0  0  0  0  0  0
   -1.3147   -1.3624   -1.3201 C   0  0  0  0  0  0  0  0  0  0  0  0
   -3.4610   -1.0964   -0.2433 C   0  0  0  0  0  0  0  0  0  0  0  0
   -2.2967   -3.2093   -0.1115 C   0  0  0  0  0  0  0  0  0  0  0  0
    2.8641   -1.1591    1.6074 C   0  0  0  0  0  0  0  0  0  0  0  0
   -1.2540   -2.6824   -0.8733 C   0  0  0  0  0  0  0  0  0  0  0  0
   -3.4003   -2.4164    0.2035 C   0  0  0  0  0  0  0  0  0  0  0  0
   -2.2318   -4.6203    0.3664 C   0  0  0  0  0  0  0  0  0  0  0  0
    5.3679    0.6353   -0.7710 C   0  0  0  0  0  0  0  0  0  0  0  0
    6.3448   -0.4948   -0.9417 C   0  0  0  0  0  0  0  0  0  0  0  0
   -2.6924    3.3138   -1.8703 H   0  0  0  0  0  0  0  0  0  0  0  0
   -0.7740    4.1743   -0.6211 H   0  0  0  0  0  0  0  0  0  0  0  0
   -0.5363    2.5094   -1.1682 H   0  0  0  0  0  0  0  0  0  0  0  0
   -3.1803    1.3741    0.4420 H   0  0  0  0  0  0  0  0  0  0  0  0
   -4.2255    1.5856   -0.9766 H   0  0  0  0  0  0  0  0  0  0  0  0
   -4.8392    4.2065   -1.4301 H   0  0  0  0  0  0  0  0  0  0  0  0
   -5.1830    3.0176   -0.1348 H   0  0  0  0  0  0  0  0  0  0  0  0
    0.4881    0.0964    1.7825 H   0  0  0  0  0  0  0  0  0  0  0  0
    1.7625    3.9168    0.2455 H   0  0  0  0  0  0  0  0  0  0  0  0
    4.0380    3.0551   -0.0304 H   0  0  0  0  0  0  0  0  0  0  0  0
   -5.0142    5.9889    0.3256 H   0  0  0  0  0  0  0  0  0  0  0  0
   -5.2994    4.7594    1.5508 H   0  0  0  0  0  0  0  0  0  0  0  0
   -6.4960    5.0068    0.2562 H   0  0  0  0  0  0  0  0  0  0  0  0
   -0.4995   -0.9547   -1.9113 H   0  0  0  0  0  0  0  0  0  0  0  0
   -4.3515   -0.5247   -0.0007 H   0  0  0  0  0  0  0  0  0  0  0  0
    3.2203   -1.7202    0.7371 H   0  0  0  0  0  0  0  0  0  0  0  0
    3.6291   -1.1870    2.3904 H   0  0  0  0  0  0  0  0  0  0  0  0
    1.9788   -1.6764    1.9927 H   0  0  0  0  0  0  0  0  0  0  0  0
   -0.3856   -3.2836   -1.1279 H   0  0  0  0  0  0  0  0  0  0  0  0
   -4.2203   -2.8207    0.7911 H   0  0  0  0  0  0  0  0  0  0  0  0
    4.5703    0.5098   -1.5133 H   0  0  0  0  0  0  0  0  0  0  0  0
    5.8945    1.5823   -0.9271 H   0  0  0  0  0  0  0  0  0  0  0  0
    7.4745   -1.2338   -2.3468 H   0  0  0  0  0  0  0  0  0  0  0  0
  1 11  1  0  0  0  0
  1 13  1  0  0  0  0
  2 28  1  0  0  0  0
  3 28  1  0  0  0  0
  4 28  1  0  0  0  0
  5 10  1  0  0  0  0
  5 14  1  0  0  0  0
  6 12  1  0  0  0  0
  6 15  1  0  0  0  0
  7 19  1  0  0  0  0
  7 29  1  0  0  0  0
  8 30  1  0  0  0  0
  8 53  1  0  0  0  0
  9 30  2  0  0  0  0
 10 11  1  0  0  0  0
 10 12  1  0  0  0  0
 10 31  1  0  0  0  0
 11 32  1  0  0  0  0
 11 33  1  0  0  0  0
 12 34  1  0  0  0  0
 12 35  1  0  0  0  0
 13 17  2  0  0  0  0
 13 18  1  0  0  0  0
 14 21  1  0  0  0  0
 14 36  1  0  0  0  0
 14 37  1  0  0  0  0
 15 22  2  0  0  0  0
 15 23  1  0  0  0  0
 16 17  1  0  0  0  0
 16 19  2  0  0  0  0
 16 25  1  0  0  0  0
 17 38  1  0  0  0  0
 18 20  2  0  0  0  0
 18 39  1  0  0  0  0
 19 20  1  0  0  0  0
 20 40  1  0  0  0  0
 21 41  1  0  0  0  0
 21 42  1  0  0  0  0
 21 43  1  0  0  0  0
 22 26  1  0  0  0  0
 22 44  1  0  0  0  0
 23 27  2  0  0  0  0
 23 45  1  0  0  0  0
 24 26  2  0  0  0  0
 24 27  1  0  0  0  0
 24 28  1  0  0  0  0
 25 46  1  0  0  0  0
 25 47  1  0  0  0  0
 25 48  1  0  0  0  0
 26 49  1  0  0  0  0
 27 50  1  0  0  0  0
 29 30  1  0  0  0  0
 29 51  1  0  0  0  0
 29 52  1  0  0  0  0
M  END
> <DATABASE_ID>
DB12390

> <DATABASE_NAME>
drugbank

> <ORIGINAL_SOURCE>
PUBCHEM

> <ORIGINAL_SOURCE_URL>
https://pubchem.ncbi.nlm.nih.gov/rest/pug/compound/inchikey/JWHYSEDOYMYMNM-QGZVFWFLSA-N/SDF?record_type=3d

> <SMILES>
CCO[C@H](COC1=CC=C(C=C1)C(F)(F)F)CSC1=CC=C(OCC(O)=O)C(C)=C1

> <INCHI_IDENTIFIER>
InChI=1S/C21H23F3O5S/c1-3-27-17(11-28-16-6-4-15(5-7-16)21(22,23)24)13-30-18-8-9-19(14(2)10-18)29-12-20(25)26/h4-10,17H,3,11-13H2,1-2H3,(H,25,26)/t17-/m1/s1

> <INCHI_KEY>
JWHYSEDOYMYMNM-QGZVFWFLSA-N

> <FORMULA>
C21H23F3O5S

> <MOLECULAR_WEIGHT>
444.47

> <EXACT_MASS>
444.121829504

> <JCHEM_ACCEPTOR_COUNT>
5

> <JCHEM_ATOM_COUNT>
53

> <JCHEM_AVERAGE_POLARIZABILITY>
44.041584739581346

> <JCHEM_BIOAVAILABILITY>
0

> <JCHEM_DONOR_COUNT>
1

> <JCHEM_FORMAL_CHARGE>
0

> <JCHEM_GHOSE_FILTER>
1

> <JCHEM_IUPAC>
2-(4-{[(2R)-2-ethoxy-3-[4-(trifluoromethyl)phenoxy]propyl]sulfanyl}-2-methylphenoxy)acetic acid

> <ALOGPS_LOGP>
4.48

> <JCHEM_LOGP>
5.067008567000001

> <ALOGPS_LOGS>
-5.64

> <JCHEM_MDDR_LIKE_RULE>
0

> <JCHEM_NUMBER_OF_RINGS>
2

> <JCHEM_PHYSIOLOGICAL_CHARGE>
-1

> <JCHEM_PKA_STRONGEST_ACIDIC>
3.578373484547552

> <JCHEM_PKA_STRONGEST_BASIC>
-4.020266079251167

> <JCHEM_POLAR_SURFACE_AREA>
64.99000000000001

> <JCHEM_REFRACTIVITY>
108.59729999999998

> <JCHEM_ROTATABLE_BOND_COUNT>
12

> <JCHEM_RULE_OF_FIVE>
0

> <ALOGPS_SOLUBILITY>
1.02e-03 g/l

> <JCHEM_TRADITIONAL_IUPAC>
4-{[(2R)-2-ethoxy-3-[4-(trifluoromethyl)phenoxy]propyl]sulfanyl}-2-methylphenoxyacetic acid

> <JCHEM_VEBER_RULE>
0

> <DRUGBANK_ID>
DB12390

> <DRUG_GROUPS>
investigational

> <GENERIC_NAME>
MBX-8025

$$$$