44129648
  -OEChem-10051722443D

 58 61  0     1  0  0  0  0  0999 V2000
   -3.9126    3.0281    0.6089 F   0  0  0  0  0  0  0  0  0  0  0  0
   -1.7529    2.3428   -0.9753 O   0  0  0  0  0  0  0  0  0  0  0  0
   -6.3220   -1.2831    1.5757 O   0  0  0  0  0  0  0  0  0  0  0  0
    3.9724    0.5481    1.0863 N   0  0  1  0  0  0  0  0  0  0  0  0
   -5.0986   -2.9028    0.5087 N   0  0  0  0  0  0  0  0  0  0  0  0
    4.1551   -0.4927    0.0550 C   0  0  1  0  0  0  0  0  0  0  0  0
    5.1158   -1.5123    0.6942 C   0  0  0  0  0  0  0  0  0  0  0  0
    5.4652   -0.9299    2.0563 C   0  0  0  0  0  0  0  0  0  0  0  0
    5.1943    0.5518    1.8909 C   0  0  0  0  0  0  0  0  0  0  0  0
    2.8460   -1.1165   -0.3810 C   0  0  0  0  0  0  0  0  0  0  0  0
    3.6781    1.8625    0.5302 C   0  0  0  0  0  0  0  0  0  0  0  0
    2.4714   -1.0844   -1.7242 C   0  0  0  0  0  0  0  0  0  0  0  0
    2.0144   -1.7231    0.5605 C   0  0  0  0  0  0  0  0  0  0  0  0
    2.2326    1.9908    0.1291 C   0  0  0  0  0  0  0  0  0  0  0  0
    1.2655   -1.6588   -2.1260 C   0  0  0  0  0  0  0  0  0  0  0  0
    0.8084   -2.2973    0.1589 C   0  0  0  0  0  0  0  0  0  0  0  0
    0.4339   -2.2652   -1.1844 C   0  0  0  0  0  0  0  0  0  0  0  0
    1.8987    2.2919   -1.1913 C   0  0  0  0  0  0  0  0  0  0  0  0
    1.2270    1.8081    1.0784 C   0  0  0  0  0  0  0  0  0  0  0  0
    0.8646   -1.6239   -3.5621 C   0  0  0  0  0  0  0  0  0  0  0  0
   -0.0807   -2.9468    1.1648 C   0  0  0  0  0  0  0  0  0  0  0  0
    0.5594    2.4105   -1.5624 C   0  0  0  0  0  0  0  0  0  0  0  0
   -0.1123    1.9268    0.7075 C   0  0  0  0  0  0  0  0  0  0  0  0
   -0.4461    2.2280   -0.6129 C   0  0  0  0  0  0  0  0  0  0  0  0
   -2.6349    1.3776   -0.5189 C   0  0  0  0  0  0  0  0  0  0  0  0
   -3.7188    1.7437    0.2792 C   0  0  0  0  0  0  0  0  0  0  0  0
   -2.4393    0.0389   -0.8584 C   0  0  0  0  0  0  0  0  0  0  0  0
   -4.6072    0.7710    0.7377 C   0  0  0  0  0  0  0  0  0  0  0  0
   -3.3277   -0.9338   -0.3998 C   0  0  0  0  0  0  0  0  0  0  0  0
   -4.4115   -0.5679    0.3984 C   0  0  0  0  0  0  0  0  0  0  0  0
   -5.3381   -1.5820    0.8762 C   0  0  0  0  0  0  0  0  0  0  0  0
    4.6724   -0.0744   -0.8204 H   0  0  0  0  0  0  0  0  0  0  0  0
    6.0274   -1.5826    0.0874 H   0  0  0  0  0  0  0  0  0  0  0  0
    4.7118   -2.5252    0.7935 H   0  0  0  0  0  0  0  0  0  0  0  0
    4.8074   -1.3559    2.8240 H   0  0  0  0  0  0  0  0  0  0  0  0
    6.5006   -1.1376    2.3419 H   0  0  0  0  0  0  0  0  0  0  0  0
    5.0502    1.0445    2.8574 H   0  0  0  0  0  0  0  0  0  0  0  0
    6.0273    1.0345    1.3642 H   0  0  0  0  0  0  0  0  0  0  0  0
    4.3505    2.1124   -0.3010 H   0  0  0  0  0  0  0  0  0  0  0  0
    3.8513    2.6366    1.2911 H   0  0  0  0  0  0  0  0  0  0  0  0
    3.1184   -0.6147   -2.4612 H   0  0  0  0  0  0  0  0  0  0  0  0
    2.2979   -1.7505    1.6099 H   0  0  0  0  0  0  0  0  0  0  0  0
   -0.5042   -2.7162   -1.4992 H   0  0  0  0  0  0  0  0  0  0  0  0
    2.6714    2.4351   -1.9419 H   0  0  0  0  0  0  0  0  0  0  0  0
    1.4718    1.5815    2.1128 H   0  0  0  0  0  0  0  0  0  0  0  0
    1.2818   -2.4871   -4.0900 H   0  0  0  0  0  0  0  0  0  0  0  0
   -0.2253   -1.6402   -3.6703 H   0  0  0  0  0  0  0  0  0  0  0  0
    1.2199   -0.7082   -4.0469 H   0  0  0  0  0  0  0  0  0  0  0  0
   -0.6756   -2.1885    1.6839 H   0  0  0  0  0  0  0  0  0  0  0  0
   -0.7651   -3.6609    0.6944 H   0  0  0  0  0  0  0  0  0  0  0  0
    0.5071   -3.5027    1.9029 H   0  0  0  0  0  0  0  0  0  0  0  0
    0.3053    2.6431   -2.5929 H   0  0  0  0  0  0  0  0  0  0  0  0
   -0.8731    1.7974    1.4723 H   0  0  0  0  0  0  0  0  0  0  0  0
   -1.6133   -0.2517   -1.4993 H   0  0  0  0  0  0  0  0  0  0  0  0
   -5.4437    1.0813    1.3581 H   0  0  0  0  0  0  0  0  0  0  0  0
   -3.1177   -1.9512   -0.7069 H   0  0  0  0  0  0  0  0  0  0  0  0
   -4.3273   -3.2321   -0.0571 H   0  0  0  0  0  0  0  0  0  0  0  0
   -5.7348   -3.6287    0.8235 H   0  0  0  0  0  0  0  0  0  0  0  0
  1 26  1  0  0  0  0
  2 24  1  0  0  0  0
  2 25  1  0  0  0  0
  3 31  2  0  0  0  0
  4  6  1  0  0  0  0
  4  9  1  0  0  0  0
  4 11  1  0  0  0  0
  5 31  1  0  0  0  0
  5 57  1  0  0  0  0
  5 58  1  0  0  0  0
  6  7  1  0  0  0  0
  6 10  1  0  0  0  0
  6 32  1  0  0  0  0
  7  8  1  0  0  0  0
  7 33  1  0  0  0  0
  7 34  1  0  0  0  0
  8  9  1  0  0  0  0
  8 35  1  0  0  0  0
  8 36  1  0  0  0  0
  9 37  1  0  0  0  0
  9 38  1  0  0  0  0
 10 12  2  0  0  0  0
 10 13  1  0  0  0  0
 11 14  1  0  0  0  0
 11 39  1  0  0  0  0
 11 40  1  0  0  0  0
 12 15  1  0  0  0  0
 12 41  1  0  0  0  0
 13 16  2  0  0  0  0
 13 42  1  0  0  0  0
 14 18  2  0  0  0  0
 14 19  1  0  0  0  0
 15 17  2  0  0  0  0
 15 20  1  0  0  0  0
 16 17  1  0  0  0  0
 16 21  1  0  0  0  0
 17 43  1  0  0  0  0
 18 22  1  0  0  0  0
 18 44  1  0  0  0  0
 19 23  2  0  0  0  0
 19 45  1  0  0  0  0
 20 46  1  0  0  0  0
 20 47  1  0  0  0  0
 20 48  1  0  0  0  0
 21 49  1  0  0  0  0
 21 50  1  0  0  0  0
 21 51  1  0  0  0  0
 22 24  2  0  0  0  0
 22 52  1  0  0  0  0
 23 24  1  0  0  0  0
 23 53  1  0  0  0  0
 25 26  2  0  0  0  0
 25 27  1  0  0  0  0
 26 28  1  0  0  0  0
 27 29  2  0  0  0  0
 27 54  1  0  0  0  0
 28 30  2  0  0  0  0
 28 55  1  0  0  0  0
 29 30  1  0  0  0  0
 29 56  1  0  0  0  0
 30 31  1  0  0  0  0
M  END
> <DATABASE_ID>
DB12341

> <DATABASE_NAME>
drugbank

> <ORIGINAL_SOURCE>
PUBCHEM

> <ORIGINAL_SOURCE_URL>
https://pubchem.ncbi.nlm.nih.gov/rest/pug/compound/inchikey/ZHPMYDSXGRRERG-DEOSSOPVSA-N/SDF?record_type=3d

> <SMILES>
CC1=CC(=CC(C)=C1)[C@@H]1CCCN1CC1=CC=C(OC2=CC=C(C=C2F)C(N)=O)C=C1

> <INCHI_IDENTIFIER>
InChI=1S/C26H27FN2O2/c1-17-12-18(2)14-21(13-17)24-4-3-11-29(24)16-19-5-8-22(9-6-19)31-25-10-7-20(26(28)30)15-23(25)27/h5-10,12-15,24H,3-4,11,16H2,1-2H3,(H2,28,30)/t24-/m0/s1

> <INCHI_KEY>
ZHPMYDSXGRRERG-DEOSSOPVSA-N

> <FORMULA>
C26H27FN2O2

> <MOLECULAR_WEIGHT>
418.512

> <EXACT_MASS>
418.20565628

> <JCHEM_ACCEPTOR_COUNT>
2

> <JCHEM_ATOM_COUNT>
58

> <JCHEM_AVERAGE_POLARIZABILITY>
45.147828830129924

> <JCHEM_BIOAVAILABILITY>
1

> <JCHEM_DONOR_COUNT>
1

> <JCHEM_FORMAL_CHARGE>
0

> <JCHEM_GHOSE_FILTER>
0

> <JCHEM_IUPAC>
4-(4-{[(2S)-2-(3,5-dimethylphenyl)pyrrolidin-1-yl]methyl}phenoxy)-3-fluorobenzamide

> <ALOGPS_LOGP>
5.00

> <JCHEM_LOGP>
5.625152429333333

> <ALOGPS_LOGS>
-5.79

> <JCHEM_MDDR_LIKE_RULE>
1

> <JCHEM_NUMBER_OF_RINGS>
4

> <JCHEM_PHYSIOLOGICAL_CHARGE>
1

> <JCHEM_PKA_STRONGEST_ACIDIC>
13.87001931502498

> <JCHEM_PKA_STRONGEST_BASIC>
8.971148255164787

> <JCHEM_POLAR_SURFACE_AREA>
55.56

> <JCHEM_REFRACTIVITY>
122.0425

> <JCHEM_ROTATABLE_BOND_COUNT>
6

> <JCHEM_RULE_OF_FIVE>
0

> <ALOGPS_SOLUBILITY>
6.73e-04 g/l

> <JCHEM_TRADITIONAL_IUPAC>
4-(4-{[(2S)-2-(3,5-dimethylphenyl)pyrrolidin-1-yl]methyl}phenoxy)-3-fluorobenzamide

> <JCHEM_VEBER_RULE>
0

> <DRUGBANK_ID>
DB12341

> <DRUG_GROUPS>
investigational

> <GENERIC_NAME>
LY-2456302

$$$$