10295295
  -OEChem-10051722443D

 61 64  0     0  0  0  0  0  0999 V2000
    7.6889    0.1445   -0.9803 O   0  0  0  0  0  0  0  0  0  0  0  0
    8.0585   -1.6173    0.4075 O   0  0  0  0  0  0  0  0  0  0  0  0
   -0.4874    3.1069    0.2784 N   0  0  0  0  0  0  0  0  0  0  0  0
    0.5539    3.1301   -0.5536 N   0  0  0  0  0  0  0  0  0  0  0  0
   -5.0275   -0.2498    0.6232 C   0  0  0  0  0  0  0  0  0  0  0  0
   -3.6259   -2.4884   -0.9232 C   0  0  0  0  0  0  0  0  0  0  0  0
   -5.6608   -1.6283    0.3310 C   0  0  0  0  0  0  0  0  0  0  0  0
   -5.1478   -2.2266   -0.9679 C   0  0  0  0  0  0  0  0  0  0  0  0
   -3.5114   -0.2629    0.3897 C   0  0  0  0  0  0  0  0  0  0  0  0
   -2.8636   -1.2950   -0.3333 C   0  0  0  0  0  0  0  0  0  0  0  0
   -5.6599    0.8232   -0.2907 C   0  0  0  0  0  0  0  0  0  0  0  0
   -5.3823    0.0914    2.0902 C   0  0  0  0  0  0  0  0  0  0  0  0
   -3.3329   -3.7374   -0.0626 C   0  0  0  0  0  0  0  0  0  0  0  0
   -3.1916   -2.7880   -2.3779 C   0  0  0  0  0  0  0  0  0  0  0  0
   -2.7315    0.8094    0.8783 C   0  0  0  0  0  0  0  0  0  0  0  0
   -1.4595   -1.2360   -0.4799 C   0  0  0  0  0  0  0  0  0  0  0  0
   -1.3498    0.8523    0.7026 C   0  0  0  0  0  0  0  0  0  0  0  0
   -0.7118   -0.1761    0.0295 C   0  0  0  0  0  0  0  0  0  0  0  0
   -0.5927    2.0176    1.2530 C   0  0  0  0  0  0  0  0  0  0  0  0
    0.7323   -0.1773   -0.1637 C   0  0  0  0  0  0  0  0  0  0  0  0
    1.6278   -0.7572    0.6678 C   0  0  0  0  0  0  0  0  0  0  0  0
   -1.3677    4.1216    0.1340 C   0  0  0  0  0  0  0  0  0  0  0  0
    3.0870   -0.7754    0.4627 C   0  0  0  0  0  0  0  0  0  0  0  0
   -0.8643    4.8894   -0.8875 C   0  0  0  0  0  0  0  0  0  0  0  0
    0.3192    4.2312   -1.2723 C   0  0  0  0  0  0  0  0  0  0  0  0
    3.6649    0.1553   -0.3856 C   0  0  0  0  0  0  0  0  0  0  0  0
    3.8531   -1.7222    1.1230 C   0  0  0  0  0  0  0  0  0  0  0  0
    5.0461    0.1386   -0.5788 C   0  0  0  0  0  0  0  0  0  0  0  0
    5.2345   -1.7390    0.9298 C   0  0  0  0  0  0  0  0  0  0  0  0
    5.8310   -0.8087    0.0788 C   0  0  0  0  0  0  0  0  0  0  0  0
    7.2713   -0.8262   -0.1221 C   0  0  0  0  0  0  0  0  0  0  0  0
   -6.7537   -1.5393    0.2803 H   0  0  0  0  0  0  0  0  0  0  0  0
   -5.4569   -2.3237    1.1550 H   0  0  0  0  0  0  0  0  0  0  0  0
   -5.6864   -3.1610   -1.1722 H   0  0  0  0  0  0  0  0  0  0  0  0
   -5.3945   -1.5533   -1.7986 H   0  0  0  0  0  0  0  0  0  0  0  0
   -5.3155    1.8303   -0.0274 H   0  0  0  0  0  0  0  0  0  0  0  0
   -5.4052    0.6664   -1.3446 H   0  0  0  0  0  0  0  0  0  0  0  0
   -6.7525    0.8213   -0.2053 H   0  0  0  0  0  0  0  0  0  0  0  0
   -5.1151    1.1186    2.3594 H   0  0  0  0  0  0  0  0  0  0  0  0
   -6.4602   -0.0087    2.2656 H   0  0  0  0  0  0  0  0  0  0  0  0
   -4.8663   -0.5783    2.7884 H   0  0  0  0  0  0  0  0  0  0  0  0
   -2.2738   -4.0176   -0.1069 H   0  0  0  0  0  0  0  0  0  0  0  0
   -3.5740   -3.5739    0.9935 H   0  0  0  0  0  0  0  0  0  0  0  0
   -3.9116   -4.6011   -0.4094 H   0  0  0  0  0  0  0  0  0  0  0  0
   -2.1572   -3.1411   -2.4438 H   0  0  0  0  0  0  0  0  0  0  0  0
   -3.8192   -3.5709   -2.8203 H   0  0  0  0  0  0  0  0  0  0  0  0
   -3.2771   -1.8950   -3.0084 H   0  0  0  0  0  0  0  0  0  0  0  0
   -3.2137    1.6326    1.4006 H   0  0  0  0  0  0  0  0  0  0  0  0
   -0.9376   -2.0387   -0.9975 H   0  0  0  0  0  0  0  0  0  0  0  0
   -1.0966    2.4291    2.1373 H   0  0  0  0  0  0  0  0  0  0  0  0
    0.4203    1.7654    1.5850 H   0  0  0  0  0  0  0  0  0  0  0  0
    1.0430    0.3050   -1.0859 H   0  0  0  0  0  0  0  0  0  0  0  0
    1.2673   -1.2631    1.5613 H   0  0  0  0  0  0  0  0  0  0  0  0
   -2.2554    4.2238    0.7430 H   0  0  0  0  0  0  0  0  0  0  0  0
   -1.2927    5.7936   -1.2939 H   0  0  0  0  0  0  0  0  0  0  0  0
    1.0203    4.5079   -2.0466 H   0  0  0  0  0  0  0  0  0  0  0  0
    3.0957    0.9233   -0.8995 H   0  0  0  0  0  0  0  0  0  0  0  0
    3.4026   -2.4541    1.7881 H   0  0  0  0  0  0  0  0  0  0  0  0
    5.4703    0.8840   -1.2457 H   0  0  0  0  0  0  0  0  0  0  0  0
    5.8282   -2.4852    1.4513 H   0  0  0  0  0  0  0  0  0  0  0  0
    8.6611    0.1238   -1.1095 H   0  0  0  0  0  0  0  0  0  0  0  0
  1 31  1  0  0  0  0
  1 61  1  0  0  0  0
  2 31  2  0  0  0  0
  3  4  1  0  0  0  0
  3 19  1  0  0  0  0
  3 22  1  0  0  0  0
  4 25  2  0  0  0  0
  5  7  1  0  0  0  0
  5  9  1  0  0  0  0
  5 11  1  0  0  0  0
  5 12  1  0  0  0  0
  6  8  1  0  0  0  0
  6 10  1  0  0  0  0
  6 13  1  0  0  0  0
  6 14  1  0  0  0  0
  7  8  1  0  0  0  0
  7 32  1  0  0  0  0
  7 33  1  0  0  0  0
  8 34  1  0  0  0  0
  8 35  1  0  0  0  0
  9 10  2  0  0  0  0
  9 15  1  0  0  0  0
 10 16  1  0  0  0  0
 11 36  1  0  0  0  0
 11 37  1  0  0  0  0
 11 38  1  0  0  0  0
 12 39  1  0  0  0  0
 12 40  1  0  0  0  0
 12 41  1  0  0  0  0
 13 42  1  0  0  0  0
 13 43  1  0  0  0  0
 13 44  1  0  0  0  0
 14 45  1  0  0  0  0
 14 46  1  0  0  0  0
 14 47  1  0  0  0  0
 15 17  2  0  0  0  0
 15 48  1  0  0  0  0
 16 18  2  0  0  0  0
 16 49  1  0  0  0  0
 17 18  1  0  0  0  0
 17 19  1  0  0  0  0
 18 20  1  0  0  0  0
 19 50  1  0  0  0  0
 19 51  1  0  0  0  0
 20 21  2  0  0  0  0
 20 52  1  0  0  0  0
 21 23  1  0  0  0  0
 21 53  1  0  0  0  0
 22 24  2  0  0  0  0
 22 54  1  0  0  0  0
 23 26  2  0  0  0  0
 23 27  1  0  0  0  0
 24 25  1  0  0  0  0
 24 55  1  0  0  0  0
 25 56  1  0  0  0  0
 26 28  1  0  0  0  0
 26 57  1  0  0  0  0
 27 29  2  0  0  0  0
 27 58  1  0  0  0  0
 28 30  2  0  0  0  0
 28 59  1  0  0  0  0
 29 30  1  0  0  0  0
 29 60  1  0  0  0  0
 30 31  1  0  0  0  0
M  END
> <DATABASE_ID>
DB12320

> <DATABASE_NAME>
drugbank

> <ORIGINAL_SOURCE>
PUBCHEM

> <ORIGINAL_SOURCE_URL>
https://pubchem.ncbi.nlm.nih.gov/rest/pug/compound/inchikey/YTFHCXIPDIHOIA-DHZHZOJOSA-N/SDF?record_type=3d

> <SMILES>
CC1(C)CCC(C)(C)C2=C1C=C(CN1C=CC=N1)C(\C=C\C1=CC=C(C=C1)C(O)=O)=C2

> <INCHI_IDENTIFIER>
InChI=1S/C27H30N2O2/c1-26(2)12-13-27(3,4)24-17-22(18-29-15-5-14-28-29)21(16-23(24)26)11-8-19-6-9-20(10-7-19)25(30)31/h5-11,14-17H,12-13,18H2,1-4H3,(H,30,31)/b11-8+

> <INCHI_KEY>
YTFHCXIPDIHOIA-DHZHZOJOSA-N

> <FORMULA>
C27H30N2O2

> <MOLECULAR_WEIGHT>
414.549

> <EXACT_MASS>
414.230728214

> <JCHEM_ACCEPTOR_COUNT>
3

> <JCHEM_ATOM_COUNT>
61

> <JCHEM_AVERAGE_POLARIZABILITY>
47.962854043363365

> <JCHEM_BIOAVAILABILITY>
1

> <JCHEM_DONOR_COUNT>
1

> <JCHEM_FORMAL_CHARGE>
0

> <JCHEM_GHOSE_FILTER>
0

> <JCHEM_IUPAC>
4-[(E)-2-{5,5,8,8-tetramethyl-3-[(1H-pyrazol-1-yl)methyl]-5,6,7,8-tetrahydronaphthalen-2-yl}ethenyl]benzoic acid

> <ALOGPS_LOGP>
6.94

> <JCHEM_LOGP>
6.609550251163208

> <ALOGPS_LOGS>
-6.08

> <JCHEM_MDDR_LIKE_RULE>
0

> <JCHEM_NUMBER_OF_RINGS>
4

> <JCHEM_PHYSIOLOGICAL_CHARGE>
-1

> <JCHEM_PKA_STRONGEST_ACIDIC>
4.131745616870861

> <JCHEM_PKA_STRONGEST_BASIC>
2.4437661432578546

> <JCHEM_POLAR_SURFACE_AREA>
55.12

> <JCHEM_REFRACTIVITY>
137.8146

> <JCHEM_ROTATABLE_BOND_COUNT>
5

> <JCHEM_RULE_OF_FIVE>
0

> <ALOGPS_SOLUBILITY>
3.44e-04 g/l

> <JCHEM_TRADITIONAL_IUPAC>
palovarotene

> <JCHEM_VEBER_RULE>
0

> <DRUGBANK_ID>
DB12320

> <DRUG_GROUPS>
investigational

> <GENERIC_NAME>
Palovarotene

$$$$