11465618
  -OEChem-10051722423D

 52 55  0     1  0  0  0  0  0999 V2000
   -0.5034   -5.3224   -0.0646 Cl  0  0  0  0  0  0  0  0  0  0  0  0
    1.7386    0.0761   -0.2999 N   0  0  2  0  0  0  0  0  0  0  0  0
    4.5910    0.4205    0.0657 N   0  0  2  0  0  0  0  0  0  0  0  0
    0.5379   -0.2303   -1.0757 C   0  0  2  0  0  0  0  0  0  0  0  0
    3.7102    1.6117   -0.0406 C   0  0  0  0  0  0  0  0  0  0  0  0
    2.4518    1.2246   -0.8727 C   0  0  0  0  0  0  0  0  0  0  0  0
   -0.5024    0.9062   -0.9791 C   0  0  0  0  0  0  0  0  0  0  0  0
   -1.3975    0.5923    0.2463 C   0  0  2  0  0  0  0  0  0  0  0  0
    2.6322   -1.0835   -0.2492 C   0  0  0  0  0  0  0  0  0  0  0  0
   -0.2455   -1.3737   -0.4928 C   0  0  0  0  0  0  0  0  0  0  0  0
    3.8860   -0.7681    0.5682 C   0  0  0  0  0  0  0  0  0  0  0  0
   -1.3404   -0.9154    0.2562 C   0  0  0  0  0  0  0  0  0  0  0  0
    3.2719    2.1823    1.3285 C   0  0  0  0  0  0  0  0  0  0  0  0
    4.4292    2.7368   -0.8199 C   0  0  0  0  0  0  0  0  0  0  0  0
   -2.7734    1.2083    0.1512 C   0  0  0  0  0  0  0  0  0  0  0  0
    0.0316   -2.7282   -0.5987 C   0  0  0  0  0  0  0  0  0  0  0  0
    5.8240    0.6228    0.8270 C   0  0  0  0  0  0  0  0  0  0  0  0
   -2.1590   -1.8082    0.9327 C   0  0  0  0  0  0  0  0  0  0  0  0
   -0.8035   -3.6310    0.0618 C   0  0  0  0  0  0  0  0  0  0  0  0
   -1.8889   -3.1740    0.8243 C   0  0  0  0  0  0  0  0  0  0  0  0
   -3.0017    2.4869    0.6596 C   0  0  0  0  0  0  0  0  0  0  0  0
   -3.8156    0.4982   -0.4447 C   0  0  0  0  0  0  0  0  0  0  0  0
   -4.2724    3.0556    0.5722 C   0  0  0  0  0  0  0  0  0  0  0  0
   -5.0862    1.0669   -0.5323 C   0  0  0  0  0  0  0  0  0  0  0  0
   -5.3146    2.3456   -0.0237 C   0  0  0  0  0  0  0  0  0  0  0  0
    0.7736   -0.4284   -2.1297 H   0  0  0  0  0  0  0  0  0  0  0  0
    1.8200    2.1153   -0.9214 H   0  0  0  0  0  0  0  0  0  0  0  0
    2.7487    1.0007   -1.9081 H   0  0  0  0  0  0  0  0  0  0  0  0
   -1.1148    0.8722   -1.8944 H   0  0  0  0  0  0  0  0  0  0  0  0
   -0.1254    1.9297   -0.9366 H   0  0  0  0  0  0  0  0  0  0  0  0
   -0.9023    0.9382    1.1642 H   0  0  0  0  0  0  0  0  0  0  0  0
    2.9168   -1.4176   -1.2559 H   0  0  0  0  0  0  0  0  0  0  0  0
    2.1799   -1.9245    0.2798 H   0  0  0  0  0  0  0  0  0  0  0  0
    3.6196   -0.6484    1.6265 H   0  0  0  0  0  0  0  0  0  0  0  0
    4.5504   -1.6398    0.5080 H   0  0  0  0  0  0  0  0  0  0  0  0
    4.1248    2.5566    1.9047 H   0  0  0  0  0  0  0  0  0  0  0  0
    2.5851    3.0265    1.1931 H   0  0  0  0  0  0  0  0  0  0  0  0
    2.7512    1.4420    1.9440 H   0  0  0  0  0  0  0  0  0  0  0  0
    3.7405    3.5597   -1.0462 H   0  0  0  0  0  0  0  0  0  0  0  0
    5.2605    3.1680   -0.2525 H   0  0  0  0  0  0  0  0  0  0  0  0
    4.8251    2.3699   -1.7742 H   0  0  0  0  0  0  0  0  0  0  0  0
    0.8614   -3.0815   -1.2032 H   0  0  0  0  0  0  0  0  0  0  0  0
    5.6368    0.8271    1.8864 H   0  0  0  0  0  0  0  0  0  0  0  0
    6.4296    1.4348    0.4147 H   0  0  0  0  0  0  0  0  0  0  0  0
    6.4544   -0.2725    0.7689 H   0  0  0  0  0  0  0  0  0  0  0  0
   -2.9855   -1.4685    1.5478 H   0  0  0  0  0  0  0  0  0  0  0  0
   -2.5309   -3.8799    1.3463 H   0  0  0  0  0  0  0  0  0  0  0  0
   -2.1969    3.0502    1.1242 H   0  0  0  0  0  0  0  0  0  0  0  0
   -3.6729   -0.4802   -0.8925 H   0  0  0  0  0  0  0  0  0  0  0  0
   -4.4500    4.0517    0.9671 H   0  0  0  0  0  0  0  0  0  0  0  0
   -5.8958    0.5187   -1.0053 H   0  0  0  0  0  0  0  0  0  0  0  0
   -6.3033    2.7894   -0.0942 H   0  0  0  0  0  0  0  0  0  0  0  0
  1 19  1  0  0  0  0
  2  4  1  0  0  0  0
  2  6  1  0  0  0  0
  2  9  1  0  0  0  0
  3  5  1  0  0  0  0
  3 11  1  0  0  0  0
  3 17  1  0  0  0  0
  4  7  1  0  0  0  0
  4 10  1  0  0  0  0
  4 26  1  0  0  0  0
  5  6  1  0  0  0  0
  5 13  1  0  0  0  0
  5 14  1  0  0  0  0
  6 27  1  0  0  0  0
  6 28  1  0  0  0  0
  7  8  1  0  0  0  0
  7 29  1  0  0  0  0
  7 30  1  0  0  0  0
  8 12  1  0  0  0  0
  8 15  1  0  0  0  0
  8 31  1  0  0  0  0
  9 11  1  0  0  0  0
  9 32  1  0  0  0  0
  9 33  1  0  0  0  0
 10 12  2  0  0  0  0
 10 16  1  0  0  0  0
 11 34  1  0  0  0  0
 11 35  1  0  0  0  0
 12 18  1  0  0  0  0
 13 36  1  0  0  0  0
 13 37  1  0  0  0  0
 13 38  1  0  0  0  0
 14 39  1  0  0  0  0
 14 40  1  0  0  0  0
 14 41  1  0  0  0  0
 15 21  2  0  0  0  0
 15 22  1  0  0  0  0
 16 19  2  0  0  0  0
 16 42  1  0  0  0  0
 17 43  1  0  0  0  0
 17 44  1  0  0  0  0
 17 45  1  0  0  0  0
 18 20  2  0  0  0  0
 18 46  1  0  0  0  0
 19 20  1  0  0  0  0
 20 47  1  0  0  0  0
 21 23  1  0  0  0  0
 21 48  1  0  0  0  0
 22 24  2  0  0  0  0
 22 49  1  0  0  0  0
 23 25  2  0  0  0  0
 23 50  1  0  0  0  0
 24 25  1  0  0  0  0
 24 51  1  0  0  0  0
 25 52  1  0  0  0  0
M  END
> <DATABASE_ID>
DB12188

> <DATABASE_NAME>
drugbank

> <ORIGINAL_SOURCE>
PUBCHEM

> <ORIGINAL_SOURCE_URL>
https://pubchem.ncbi.nlm.nih.gov/rest/pug/compound/inchikey/BYPMJBXPNZMNQD-PZJWPPBQSA-N/SDF?record_type=3d

> <SMILES>
CN1CCN(CC1(C)C)[C@@H]1C[C@H](C2=C1C=C(Cl)C=C2)C1=CC=CC=C1

> <INCHI_IDENTIFIER>
InChI=1S/C22H27ClN2/c1-22(2)15-25(12-11-24(22)3)21-14-19(16-7-5-4-6-8-16)18-10-9-17(23)13-20(18)21/h4-10,13,19,21H,11-12,14-15H2,1-3H3/t19-,21+/m0/s1

> <INCHI_KEY>
BYPMJBXPNZMNQD-PZJWPPBQSA-N

> <FORMULA>
C22H27ClN2

> <MOLECULAR_WEIGHT>
354.92

> <EXACT_MASS>
354.1862766

> <JCHEM_ACCEPTOR_COUNT>
2

> <JCHEM_ATOM_COUNT>
52

> <JCHEM_AVERAGE_POLARIZABILITY>
41.05913319895144

> <JCHEM_BIOAVAILABILITY>
1

> <JCHEM_DONOR_COUNT>
0

> <JCHEM_FORMAL_CHARGE>
0

> <JCHEM_GHOSE_FILTER>
1

> <JCHEM_IUPAC>
4-[(1R,3S)-6-chloro-3-phenyl-2,3-dihydro-1H-inden-1-yl]-1,2,2-trimethylpiperazine

> <ALOGPS_LOGP>
5.10

> <JCHEM_LOGP>
5.028005841666667

> <ALOGPS_LOGS>
-4.84

> <JCHEM_MDDR_LIKE_RULE>
0

> <JCHEM_NUMBER_OF_RINGS>
4

> <JCHEM_PHYSIOLOGICAL_CHARGE>
1

> <JCHEM_PKA_STRONGEST_BASIC>
8.335098548135187

> <JCHEM_POLAR_SURFACE_AREA>
6.48

> <JCHEM_REFRACTIVITY>
106.73700000000002

> <JCHEM_ROTATABLE_BOND_COUNT>
2

> <JCHEM_RULE_OF_FIVE>
0

> <ALOGPS_SOLUBILITY>
5.12e-03 g/l

> <JCHEM_TRADITIONAL_IUPAC>
4-[(1R,3S)-6-chloro-3-phenyl-2,3-dihydro-1H-inden-1-yl]-1,2,2-trimethylpiperazine

> <JCHEM_VEBER_RULE>
1

> <DRUGBANK_ID>
DB12188

> <DRUG_GROUPS>
investigational

> <GENERIC_NAME>
Zicronapine

$$$$