77050711
  -OEChem-10051722583D

 53 56  0     1  0  0  0  0  0999 V2000
   -2.9903   -2.5446    1.9077 F   0  0  0  0  0  0  0  0  0  0  0  0
   -2.8581   -0.6038    2.8461 F   0  0  0  0  0  0  0  0  0  0  0  0
   -4.6512    1.3859    2.3496 F   0  0  0  0  0  0  0  0  0  0  0  0
   -2.8690    4.8229   -0.3707 F   0  0  0  0  0  0  0  0  0  0  0  0
    9.5620    1.7419    0.0828 F   0  0  0  0  0  0  0  0  0  0  0  0
    9.4922    0.1827   -1.4467 F   0  0  0  0  0  0  0  0  0  0  0  0
    9.0910   -0.3141    0.6386 F   0  0  0  0  0  0  0  0  0  0  0  0
   -4.9749   -0.8318    1.3152 O   0  0  0  0  0  0  0  0  0  0  0  0
    6.7988   -0.3113   -0.9206 O   0  0  0  0  0  0  0  0  0  0  0  0
   -4.9197   -1.2120   -1.6103 N   0  0  0  0  0  0  0  0  0  0  0  0
   -0.5445   -0.0133    1.5827 N   0  0  0  0  0  0  0  0  0  0  0  0
   -4.6768   -0.5450   -2.7472 N   0  0  0  0  0  0  0  0  0  0  0  0
   -6.8538   -0.9896   -2.5656 N   0  0  0  0  0  0  0  0  0  0  0  0
   -5.8632   -0.4122   -3.3275 N   0  0  0  0  0  0  0  0  0  0  0  0
   -3.7089   -0.6839    0.6367 C   0  0  1  0  0  0  0  0  0  0  0  0
   -2.6318   -1.2388    1.6421 C   0  0  0  0  0  0  0  0  0  0  0  0
   -3.8036   -1.5683   -0.6460 C   0  0  0  0  0  0  0  0  0  0  0  0
   -3.4828    0.8067    0.3659 C   0  0  0  0  0  0  0  0  0  0  0  0
   -1.2011   -1.1410    1.2293 C   0  0  0  0  0  0  0  0  0  0  0  0
   -3.9772    1.7622    1.2538 C   0  0  0  0  0  0  0  0  0  0  0  0
   -2.7815    1.2080   -0.7711 C   0  0  0  0  0  0  0  0  0  0  0  0
   -0.6255   -2.1843    0.5220 C   0  0  0  0  0  0  0  0  0  0  0  0
   -3.7700    3.1189    1.0049 C   0  0  0  0  0  0  0  0  0  0  0  0
   -2.5744    2.5647   -1.0202 C   0  0  0  0  0  0  0  0  0  0  0  0
    1.4187   -0.9170    0.4992 C   0  0  0  0  0  0  0  0  0  0  0  0
    0.7098   -2.0624    0.1538 C   0  0  0  0  0  0  0  0  0  0  0  0
   -6.2480   -1.4783   -1.5080 C   0  0  0  0  0  0  0  0  0  0  0  0
   -3.0687    3.5201   -0.1321 C   0  0  0  0  0  0  0  0  0  0  0  0
    0.7516    0.0696    1.2074 C   0  0  0  0  0  0  0  0  0  0  0  0
    2.8087   -0.7607    0.1307 C   0  0  0  0  0  0  0  0  0  0  0  0
    3.6286   -1.8827    0.0084 C   0  0  0  0  0  0  0  0  0  0  0  0
    3.3297    0.5124   -0.1009 C   0  0  0  0  0  0  0  0  0  0  0  0
    4.9693   -1.7315   -0.3452 C   0  0  0  0  0  0  0  0  0  0  0  0
    4.6705    0.6635   -0.4544 C   0  0  0  0  0  0  0  0  0  0  0  0
    5.4903   -0.4584   -0.5766 C   0  0  0  0  0  0  0  0  0  0  0  0
    7.4431    0.8976   -0.5209 C   0  0  0  0  0  0  0  0  0  0  0  0
    8.9107    0.6279   -0.3129 C   0  0  0  0  0  0  0  0  0  0  0  0
   -4.0347   -2.6075   -0.3778 H   0  0  0  0  0  0  0  0  0  0  0  0
   -2.8899   -1.5770   -1.2482 H   0  0  0  0  0  0  0  0  0  0  0  0
   -5.0752   -1.7689    1.5559 H   0  0  0  0  0  0  0  0  0  0  0  0
   -2.3506    0.4983   -1.4685 H   0  0  0  0  0  0  0  0  0  0  0  0
   -1.1858   -3.0725    0.2508 H   0  0  0  0  0  0  0  0  0  0  0  0
   -4.1544    3.8627    1.6964 H   0  0  0  0  0  0  0  0  0  0  0  0
   -2.0215    2.8776   -1.9010 H   0  0  0  0  0  0  0  0  0  0  0  0
    1.1502   -2.8700   -0.4240 H   0  0  0  0  0  0  0  0  0  0  0  0
   -6.7015   -2.0088   -0.6840 H   0  0  0  0  0  0  0  0  0  0  0  0
    1.2318    0.9836    1.5423 H   0  0  0  0  0  0  0  0  0  0  0  0
    3.2724   -2.8900    0.2062 H   0  0  0  0  0  0  0  0  0  0  0  0
    2.7192    1.4099   -0.0491 H   0  0  0  0  0  0  0  0  0  0  0  0
    5.6053   -2.6082   -0.4327 H   0  0  0  0  0  0  0  0  0  0  0  0
    5.0284    1.6684   -0.6583 H   0  0  0  0  0  0  0  0  0  0  0  0
    7.0416    1.2792    0.4261 H   0  0  0  0  0  0  0  0  0  0  0  0
    7.3120    1.6519   -1.3042 H   0  0  0  0  0  0  0  0  0  0  0  0
  1 16  1  0  0  0  0
  2 16  1  0  0  0  0
  3 20  1  0  0  0  0
  4 28  1  0  0  0  0
  5 37  1  0  0  0  0
  6 37  1  0  0  0  0
  7 37  1  0  0  0  0
  8 15  1  0  0  0  0
  8 40  1  0  0  0  0
  9 35  1  0  0  0  0
  9 36  1  0  0  0  0
 10 12  1  0  0  0  0
 10 17  1  0  0  0  0
 10 27  1  0  0  0  0
 11 19  2  0  0  0  0
 11 29  1  0  0  0  0
 12 14  2  0  0  0  0
 13 14  1  0  0  0  0
 13 27  2  0  0  0  0
 15 16  1  0  0  0  0
 15 17  1  0  0  0  0
 15 18  1  0  0  0  0
 16 19  1  0  0  0  0
 17 38  1  0  0  0  0
 17 39  1  0  0  0  0
 18 20  2  0  0  0  0
 18 21  1  0  0  0  0
 19 22  1  0  0  0  0
 20 23  1  0  0  0  0
 21 24  2  0  0  0  0
 21 41  1  0  0  0  0
 22 26  2  0  0  0  0
 22 42  1  0  0  0  0
 23 28  2  0  0  0  0
 23 43  1  0  0  0  0
 24 28  1  0  0  0  0
 24 44  1  0  0  0  0
 25 26  1  0  0  0  0
 25 29  2  0  0  0  0
 25 30  1  0  0  0  0
 26 45  1  0  0  0  0
 27 46  1  0  0  0  0
 29 47  1  0  0  0  0
 30 31  2  0  0  0  0
 30 32  1  0  0  0  0
 31 33  1  0  0  0  0
 31 48  1  0  0  0  0
 32 34  2  0  0  0  0
 32 49  1  0  0  0  0
 33 35  2  0  0  0  0
 33 50  1  0  0  0  0
 34 35  1  0  0  0  0
 34 51  1  0  0  0  0
 36 37  1  0  0  0  0
 36 52  1  0  0  0  0
 36 53  1  0  0  0  0
M  END
> <DATABASE_ID>
DB13055

> <DATABASE_NAME>
drugbank

> <ORIGINAL_SOURCE>
PUBCHEM

> <ORIGINAL_SOURCE_URL>
https://pubchem.ncbi.nlm.nih.gov/rest/pug/compound/inchikey/IDUYJRXRDSPPRC-NRFANRHFSA-N/SDF?record_type=3d

> <SMILES>
O[C@@](CN1C=NN=N1)(C1=CC=C(F)C=C1F)C(F)(F)C1=CC=C(C=N1)C1=CC=C(OCC(F)(F)F)C=C1

> <INCHI_IDENTIFIER>
InChI=1S/C23H16F7N5O2/c24-16-4-7-18(19(25)9-16)21(36,11-35-13-32-33-34-35)23(29,30)20-8-3-15(10-31-20)14-1-5-17(6-2-14)37-12-22(26,27)28/h1-10,13,36H,11-12H2/t21-/m0/s1

> <INCHI_KEY>
IDUYJRXRDSPPRC-NRFANRHFSA-N

> <FORMULA>
C23H16F7N5O2

> <MOLECULAR_WEIGHT>
527.403

> <EXACT_MASS>
527.119221916

> <JCHEM_ACCEPTOR_COUNT>
6

> <JCHEM_ATOM_COUNT>
53

> <JCHEM_AVERAGE_POLARIZABILITY>
44.38499239617552

> <JCHEM_BIOAVAILABILITY>
1

> <JCHEM_DONOR_COUNT>
1

> <JCHEM_FORMAL_CHARGE>
0

> <JCHEM_GHOSE_FILTER>
0

> <JCHEM_IUPAC>
(2R)-2-(2,4-difluorophenyl)-1,1-difluoro-3-(1H-1,2,3,4-tetrazol-1-yl)-1-{5-[4-(2,2,2-trifluoroethoxy)phenyl]pyridin-2-yl}propan-2-ol

> <ALOGPS_LOGP>
3.93

> <JCHEM_LOGP>
4.693966530666667

> <ALOGPS_LOGS>
-5.06

> <JCHEM_MDDR_LIKE_RULE>
1

> <JCHEM_NUMBER_OF_RINGS>
4

> <JCHEM_PHYSIOLOGICAL_CHARGE>
0

> <JCHEM_PKA>
19.858775281594408

> <JCHEM_PKA_STRONGEST_ACIDIC>
10.665021048953808

> <JCHEM_PKA_STRONGEST_BASIC>
2.013231043994915

> <JCHEM_POLAR_SURFACE_AREA>
85.95

> <JCHEM_REFRACTIVITY>
128.2333

> <JCHEM_ROTATABLE_BOND_COUNT>
9

> <JCHEM_RULE_OF_FIVE>
0

> <ALOGPS_SOLUBILITY>
4.58e-03 g/l

> <JCHEM_TRADITIONAL_IUPAC>
(2R)-2-(2,4-difluorophenyl)-1,1-difluoro-3-(1,2,3,4-tetrazol-1-yl)-1-{5-[4-(2,2,2-trifluoroethoxy)phenyl]pyridin-2-yl}propan-2-ol

> <JCHEM_VEBER_RULE>
0

> <DRUGBANK_ID>
DB13055

> <DRUG_GROUPS>
investigational

> <GENERIC_NAME>
Oteseconazole

$$$$