3503
  -OEChem-10051722573D

 68 71  0     0  0  0  0  0  0999 V2000
    0.9035   -1.5663    1.1639 O   0  0  0  0  0  0  0  0  0  0  0  0
   -0.9035    1.5663    1.1640 O   0  0  0  0  0  0  0  0  0  0  0  0
    7.0581    0.0530    0.3465 O   0  0  0  0  0  0  0  0  0  0  0  0
   -7.0581   -0.0531    0.3465 O   0  0  0  0  0  0  0  0  0  0  0  0
    5.9342   -1.7876    2.0268 O   0  0  0  0  0  0  0  0  0  0  0  0
   -5.9342    1.7876    2.0268 O   0  0  0  0  0  0  0  0  0  0  0  0
    3.1100   -3.4313    1.8324 O   0  0  0  0  0  0  0  0  0  0  0  0
   -3.1099    3.4312    1.8324 O   0  0  0  0  0  0  0  0  0  0  0  0
    0.7205    0.0940   -0.5045 C   0  0  0  0  0  0  0  0  0  0  0  0
   -0.7206   -0.0941   -0.5046 C   0  0  0  0  0  0  0  0  0  0  0  0
    3.5046    0.4635   -0.5134 C   0  0  0  0  0  0  0  0  0  0  0  0
   -3.5046   -0.4636   -0.5134 C   0  0  0  0  0  0  0  0  0  0  0  0
    2.9203   -0.4888    0.3553 C   0  0  0  0  0  0  0  0  0  0  0  0
   -2.9203    0.4888    0.3552 C   0  0  0  0  0  0  0  0  0  0  0  0
    4.8983    0.6362   -0.5055 C   0  0  0  0  0  0  0  0  0  0  0  0
   -4.8984   -0.6362   -0.5056 C   0  0  0  0  0  0  0  0  0  0  0  0
    1.2951    1.0306   -1.3588 C   0  0  0  0  0  0  0  0  0  0  0  0
   -1.2951   -1.0306   -1.3588 C   0  0  0  0  0  0  0  0  0  0  0  0
    5.5648    1.6313   -1.4087 C   0  0  0  0  0  0  0  0  0  0  0  0
   -5.5647   -1.6312   -1.4088 C   0  0  0  0  0  0  0  0  0  0  0  0
    1.5266   -0.6614    0.3475 C   0  0  0  0  0  0  0  0  0  0  0  0
   -1.5267    0.6614    0.3475 C   0  0  0  0  0  0  0  0  0  0  0  0
    2.6779    1.2152   -1.3643 C   0  0  0  0  0  0  0  0  0  0  0  0
   -2.6780   -1.2151   -1.3643 C   0  0  0  0  0  0  0  0  0  0  0  0
    3.7470   -1.2404    1.2063 C   0  0  0  0  0  0  0  0  0  0  0  0
   -3.7470    1.2404    1.2062 C   0  0  0  0  0  0  0  0  0  0  0  0
    5.7044   -0.1192    0.3465 C   0  0  0  0  0  0  0  0  0  0  0  0
   -5.7045    0.1192    0.3465 C   0  0  0  0  0  0  0  0  0  0  0  0
    5.1298   -1.0558    1.2007 C   0  0  0  0  0  0  0  0  0  0  0  0
   -5.1298    1.0557    1.2008 C   0  0  0  0  0  0  0  0  0  0  0  0
    0.4652    1.8600   -2.2866 C   0  0  0  0  0  0  0  0  0  0  0  0
   -0.4652   -1.8599   -2.2866 C   0  0  0  0  0  0  0  0  0  0  0  0
    6.5267    0.9600   -2.4022 C   0  0  0  0  0  0  0  0  0  0  0  0
    6.2972    2.7299   -0.6219 C   0  0  0  0  0  0  0  0  0  0  0  0
   -6.5267   -0.9599   -2.4022 C   0  0  0  0  0  0  0  0  0  0  0  0
   -6.2972   -2.7300   -0.6219 C   0  0  0  0  0  0  0  0  0  0  0  0
    3.2443   -2.2490    2.1401 C   0  0  0  0  0  0  0  0  0  0  0  0
   -3.2442    2.2489    2.1402 C   0  0  0  0  0  0  0  0  0  0  0  0
    4.8685    2.1764   -2.0409 H   0  0  0  0  0  0  0  0  0  0  0  0
   -4.8685   -2.1763   -2.0410 H   0  0  0  0  0  0  0  0  0  0  0  0
    3.0504    1.9604   -2.0542 H   0  0  0  0  0  0  0  0  0  0  0  0
   -3.0504   -1.9604   -2.0543 H   0  0  0  0  0  0  0  0  0  0  0  0
    7.4275    0.5509   -1.9376 H   0  0  0  0  0  0  0  0  0  0  0  0
    6.8640    1.6905   -3.1471 H   0  0  0  0  0  0  0  0  0  0  0  0
    6.0262    0.1481   -2.9420 H   0  0  0  0  0  0  0  0  0  0  0  0
    5.6306    3.1919    0.1153 H   0  0  0  0  0  0  0  0  0  0  0  0
    6.6295    3.5205   -1.3050 H   0  0  0  0  0  0  0  0  0  0  0  0
    7.1882    2.3775   -0.0961 H   0  0  0  0  0  0  0  0  0  0  0  0
   -6.8639   -1.6904   -3.1472 H   0  0  0  0  0  0  0  0  0  0  0  0
   -7.4276   -0.5510   -1.9376 H   0  0  0  0  0  0  0  0  0  0  0  0
   -6.0263   -0.1480   -2.9419 H   0  0  0  0  0  0  0  0  0  0  0  0
   -5.6307   -3.1919    0.1153 H   0  0  0  0  0  0  0  0  0  0  0  0
   -7.1883   -2.3775   -0.0962 H   0  0  0  0  0  0  0  0  0  0  0  0
   -6.6295   -3.5206   -1.3050 H   0  0  0  0  0  0  0  0  0  0  0  0
   -0.2425    2.4792   -1.7257 H   0  0  0  0  0  0  0  0  0  0  0  0
    1.0783    2.5450   -2.8829 H   0  0  0  0  0  0  0  0  0  0  0  0
   -0.0822    1.2310   -2.9952 H   0  0  0  0  0  0  0  0  0  0  0  0
    0.2423   -2.4794   -1.7258 H   0  0  0  0  0  0  0  0  0  0  0  0
   -1.0784   -2.5448   -2.8831 H   0  0  0  0  0  0  0  0  0  0  0  0
    0.0825   -1.2309   -2.9950 H   0  0  0  0  0  0  0  0  0  0  0  0
   -0.0591   -1.5760    1.0592 H   0  0  0  0  0  0  0  0  0  0  0  0
    0.0591    1.5761    1.0590 H   0  0  0  0  0  0  0  0  0  0  0  0
    2.9939   -1.8797    3.1494 H   0  0  0  0  0  0  0  0  0  0  0  0
   -2.9967    1.8801    3.1502 H   0  0  0  0  0  0  0  0  0  0  0  0
    7.4464   -0.5554    0.9989 H   0  0  0  0  0  0  0  0  0  0  0  0
   -7.4889    0.7625    0.6503 H   0  0  0  0  0  0  0  0  0  0  0  0
    5.4247   -2.4184    2.5584 H   0  0  0  0  0  0  0  0  0  0  0  0
   -6.7520    1.2945    2.2035 H   0  0  0  0  0  0  0  0  0  0  0  0
  1 21  1  0  0  0  0
  1 61  1  0  0  0  0
  2 22  1  0  0  0  0
  2 62  1  0  0  0  0
  3 27  1  0  0  0  0
  3 65  1  0  0  0  0
  4 28  1  0  0  0  0
  4 66  1  0  0  0  0
  5 29  1  0  0  0  0
  5 67  1  0  0  0  0
  6 30  1  0  0  0  0
  6 68  1  0  0  0  0
  7 37  2  0  0  0  0
  8 38  2  0  0  0  0
  9 10  1  0  0  0  0
  9 17  1  0  0  0  0
  9 21  2  0  0  0  0
 10 18  1  0  0  0  0
 10 22  2  0  0  0  0
 11 13  2  0  0  0  0
 11 15  1  0  0  0  0
 11 23  1  0  0  0  0
 12 14  2  0  0  0  0
 12 16  1  0  0  0  0
 12 24  1  0  0  0  0
 13 21  1  0  0  0  0
 13 25  1  0  0  0  0
 14 22  1  0  0  0  0
 14 26  1  0  0  0  0
 15 19  1  0  0  0  0
 15 27  2  0  0  0  0
 16 20  1  0  0  0  0
 16 28  2  0  0  0  0
 17 23  2  0  0  0  0
 17 31  1  0  0  0  0
 18 24  2  0  0  0  0
 18 32  1  0  0  0  0
 19 33  1  0  0  0  0
 19 34  1  0  0  0  0
 19 39  1  0  0  0  0
 20 35  1  0  0  0  0
 20 36  1  0  0  0  0
 20 40  1  0  0  0  0
 23 41  1  0  0  0  0
 24 42  1  0  0  0  0
 25 29  2  0  0  0  0
 25 37  1  0  0  0  0
 26 30  2  0  0  0  0
 26 38  1  0  0  0  0
 27 29  1  0  0  0  0
 28 30  1  0  0  0  0
 31 55  1  0  0  0  0
 31 56  1  0  0  0  0
 31 57  1  0  0  0  0
 32 58  1  0  0  0  0
 32 59  1  0  0  0  0
 32 60  1  0  0  0  0
 33 43  1  0  0  0  0
 33 44  1  0  0  0  0
 33 45  1  0  0  0  0
 34 46  1  0  0  0  0
 34 47  1  0  0  0  0
 34 48  1  0  0  0  0
 35 49  1  0  0  0  0
 35 50  1  0  0  0  0
 35 51  1  0  0  0  0
 36 52  1  0  0  0  0
 36 53  1  0  0  0  0
 36 54  1  0  0  0  0
 37 63  1  0  0  0  0
 38 64  1  0  0  0  0
M  END
> <DATABASE_ID>
DB13044

> <DATABASE_NAME>
drugbank

> <ORIGINAL_SOURCE>
PUBCHEM

> <ORIGINAL_SOURCE_URL>
https://pubchem.ncbi.nlm.nih.gov/rest/pug/compound/inchikey/QBKSWRVVCFFDOT-UHFFFAOYSA-N/SDF?record_type=3d

> <SMILES>
CC(C)C1=C2C=C(C)C(=C(O)C2=C(C=O)C(O)=C1O)C1=C(O)C2=C(C=O)C(O)=C(O)C(C(C)C)=C2C=C1C

> <INCHI_IDENTIFIER>
InChI=1S/C30H30O8/c1-11(2)19-15-7-13(5)21(27(35)23(15)17(9-31)25(33)29(19)37)22-14(6)8-16-20(12(3)4)30(38)26(34)18(10-32)24(16)28(22)36/h7-12,33-38H,1-6H3

> <INCHI_KEY>
QBKSWRVVCFFDOT-UHFFFAOYSA-N

> <FORMULA>
C30H30O8

> <MOLECULAR_WEIGHT>
518.5544

> <EXACT_MASS>
518.194067936

> <JCHEM_ACCEPTOR_COUNT>
8

> <JCHEM_ATOM_COUNT>
68

> <JCHEM_AVERAGE_POLARIZABILITY>
55.94711360292843

> <JCHEM_BIOAVAILABILITY>
0

> <JCHEM_DONOR_COUNT>
6

> <JCHEM_FORMAL_CHARGE>
0

> <JCHEM_GHOSE_FILTER>
0

> <JCHEM_IUPAC>
7-[8-formyl-1,6,7-trihydroxy-3-methyl-5-(propan-2-yl)naphthalen-2-yl]-2,3,8-trihydroxy-6-methyl-4-(propan-2-yl)naphthalene-1-carbaldehyde

> <ALOGPS_LOGP>
4.49

> <JCHEM_LOGP>
8.019898530666666

> <ALOGPS_LOGS>
-5.13

> <JCHEM_MDDR_LIKE_RULE>
0

> <JCHEM_NUMBER_OF_RINGS>
4

> <JCHEM_PHYSIOLOGICAL_CHARGE>
0

> <JCHEM_PKA>
8.29047318129364

> <JCHEM_PKA_STRONGEST_ACIDIC>
7.799881811289805

> <JCHEM_PKA_STRONGEST_BASIC>
-6.149501497054318

> <JCHEM_POLAR_SURFACE_AREA>
155.52

> <JCHEM_REFRACTIVITY>
147.612

> <JCHEM_ROTATABLE_BOND_COUNT>
4

> <JCHEM_RULE_OF_FIVE>
0

> <ALOGPS_SOLUBILITY>
3.85e-03 g/l

> <JCHEM_TRADITIONAL_IUPAC>
(-)-gossypol

> <JCHEM_VEBER_RULE>
0

> <DRUGBANK_ID>
DB13044

> <DRUG_GROUPS>
investigational

> <GENERIC_NAME>
Gossypol

$$$$