3001386
  -OEChem-10061700263D

 60 61  0     0  0  0  0  0  0999 V2000
   -1.3393    3.8219   -0.3348 S   0  0  0  0  0  0  0  0  0  0  0  0
    6.0061    0.3749    0.2268 O   0  0  0  0  0  0  0  0  0  0  0  0
   -4.9375   -1.7648    0.2100 O   0  0  0  0  0  0  0  0  0  0  0  0
    1.1908    3.1082   -0.0877 N   0  0  0  0  0  0  0  0  0  0  0  0
   -0.3190    1.3005    0.0356 N   0  0  0  0  0  0  0  0  0  0  0  0
    7.2277   -3.1637   -0.3444 C   0  0  0  0  0  0  0  0  0  0  0  0
   -8.6466   -1.2528   -0.3837 C   0  0  0  0  0  0  0  0  0  0  0  0
    7.1935   -1.6268   -0.3372 C   0  0  0  0  0  0  0  0  0  0  0  0
   -7.2571   -1.9104   -0.3824 C   0  0  0  0  0  0  0  0  0  0  0  0
    5.9349   -1.0439    0.2943 C   0  0  0  0  0  0  0  0  0  0  0  0
   -6.1792   -1.0658    0.2863 C   0  0  0  0  0  0  0  0  0  0  0  0
    6.1143   -3.7671   -1.2017 C   0  0  0  0  0  0  0  0  0  0  0  0
    7.1216   -3.6926    1.0878 C   0  0  0  0  0  0  0  0  0  0  0  0
   -8.6791    0.0385   -1.2021 C   0  0  0  0  0  0  0  0  0  0  0  0
   -9.0867   -0.9650    1.0537 C   0  0  0  0  0  0  0  0  0  0  0  0
    4.8162    1.0496    0.1480 C   0  0  0  0  0  0  0  0  0  0  0  0
   -3.8045   -1.0120    0.1662 C   0  0  0  0  0  0  0  0  0  0  0  0
    4.7584    2.2678   -0.5196 C   0  0  0  0  0  0  0  0  0  0  0  0
   -2.6775   -1.4863   -0.5050 C   0  0  0  0  0  0  0  0  0  0  0  0
    3.6787    0.5100    0.7378 C   0  0  0  0  0  0  0  0  0  0  0  0
   -3.7699    0.2331    0.7938 C   0  0  0  0  0  0  0  0  0  0  0  0
    2.4021    2.4203   -0.0091 C   0  0  0  0  0  0  0  0  0  0  0  0
   -1.4996    0.5173    0.0798 C   0  0  0  0  0  0  0  0  0  0  0  0
    3.5474    2.9554   -0.5983 C   0  0  0  0  0  0  0  0  0  0  0  0
   -1.5157   -0.7154   -0.5485 C   0  0  0  0  0  0  0  0  0  0  0  0
    2.4676    1.1975    0.6590 C   0  0  0  0  0  0  0  0  0  0  0  0
   -2.6082    1.0041    0.7503 C   0  0  0  0  0  0  0  0  0  0  0  0
   -0.1393    2.6674   -0.0748 C   0  0  0  0  0  0  0  0  0  0  0  0
    8.1928   -3.4760   -0.7621 H   0  0  0  0  0  0  0  0  0  0  0  0
   -9.3536   -1.9628   -0.8306 H   0  0  0  0  0  0  0  0  0  0  0  0
    7.2903   -1.2509   -1.3641 H   0  0  0  0  0  0  0  0  0  0  0  0
    8.0721   -1.2400    0.1955 H   0  0  0  0  0  0  0  0  0  0  0  0
   -7.3097   -2.8851    0.1203 H   0  0  0  0  0  0  0  0  0  0  0  0
   -6.9536   -2.1338   -1.4134 H   0  0  0  0  0  0  0  0  0  0  0  0
    5.0642   -1.4190   -0.2551 H   0  0  0  0  0  0  0  0  0  0  0  0
    5.8577   -1.3285    1.3483 H   0  0  0  0  0  0  0  0  0  0  0  0
   -6.4078   -0.9018    1.3440 H   0  0  0  0  0  0  0  0  0  0  0  0
   -6.1162   -0.1030   -0.2330 H   0  0  0  0  0  0  0  0  0  0  0  0
    5.1209   -3.5950   -0.7760 H   0  0  0  0  0  0  0  0  0  0  0  0
    6.2481   -4.8510   -1.2885 H   0  0  0  0  0  0  0  0  0  0  0  0
    6.1321   -3.3481   -2.2132 H   0  0  0  0  0  0  0  0  0  0  0  0
    7.3194   -4.7703    1.1047 H   0  0  0  0  0  0  0  0  0  0  0  0
    6.1257   -3.5432    1.5171 H   0  0  0  0  0  0  0  0  0  0  0  0
    7.8579   -3.2133    1.7414 H   0  0  0  0  0  0  0  0  0  0  0  0
   -8.0843    0.8359   -0.7461 H   0  0  0  0  0  0  0  0  0  0  0  0
   -9.7073    0.4072   -1.2877 H   0  0  0  0  0  0  0  0  0  0  0  0
   -8.3027   -0.1341   -2.2157 H   0  0  0  0  0  0  0  0  0  0  0  0
  -10.1391   -0.6595    1.0692 H   0  0  0  0  0  0  0  0  0  0  0  0
   -8.5115   -0.1554    1.5139 H   0  0  0  0  0  0  0  0  0  0  0  0
   -8.9947   -1.8578    1.6811 H   0  0  0  0  0  0  0  0  0  0  0  0
    5.6481    2.6877   -0.9800 H   0  0  0  0  0  0  0  0  0  0  0  0
   -2.6988   -2.4555   -0.9958 H   0  0  0  0  0  0  0  0  0  0  0  0
    3.7000   -0.4116    1.3116 H   0  0  0  0  0  0  0  0  0  0  0  0
   -4.6102    0.6192    1.3633 H   0  0  0  0  0  0  0  0  0  0  0  0
    3.5105    3.9069   -1.1228 H   0  0  0  0  0  0  0  0  0  0  0  0
   -0.6442   -1.0944   -1.0747 H   0  0  0  0  0  0  0  0  0  0  0  0
    1.6479    0.7874    1.2388 H   0  0  0  0  0  0  0  0  0  0  0  0
   -2.5978    1.9288    1.3159 H   0  0  0  0  0  0  0  0  0  0  0  0
    1.2854    4.0866   -0.3532 H   0  0  0  0  0  0  0  0  0  0  0  0
    0.4591    0.7571   -0.3226 H   0  0  0  0  0  0  0  0  0  0  0  0
  1 28  2  0  0  0  0
  2 10  1  0  0  0  0
  2 16  1  0  0  0  0
  3 11  1  0  0  0  0
  3 17  1  0  0  0  0
  4 22  1  0  0  0  0
  4 28  1  0  0  0  0
  4 59  1  0  0  0  0
  5 23  1  0  0  0  0
  5 28  1  0  0  0  0
  5 60  1  0  0  0  0
  6  8  1  0  0  0  0
  6 12  1  0  0  0  0
  6 13  1  0  0  0  0
  6 29  1  0  0  0  0
  7  9  1  0  0  0  0
  7 14  1  0  0  0  0
  7 15  1  0  0  0  0
  7 30  1  0  0  0  0
  8 10  1  0  0  0  0
  8 31  1  0  0  0  0
  8 32  1  0  0  0  0
  9 11  1  0  0  0  0
  9 33  1  0  0  0  0
  9 34  1  0  0  0  0
 10 35  1  0  0  0  0
 10 36  1  0  0  0  0
 11 37  1  0  0  0  0
 11 38  1  0  0  0  0
 12 39  1  0  0  0  0
 12 40  1  0  0  0  0
 12 41  1  0  0  0  0
 13 42  1  0  0  0  0
 13 43  1  0  0  0  0
 13 44  1  0  0  0  0
 14 45  1  0  0  0  0
 14 46  1  0  0  0  0
 14 47  1  0  0  0  0
 15 48  1  0  0  0  0
 15 49  1  0  0  0  0
 15 50  1  0  0  0  0
 16 18  2  0  0  0  0
 16 20  1  0  0  0  0
 17 19  2  0  0  0  0
 17 21  1  0  0  0  0
 18 24  1  0  0  0  0
 18 51  1  0  0  0  0
 19 25  1  0  0  0  0
 19 52  1  0  0  0  0
 20 26  2  0  0  0  0
 20 53  1  0  0  0  0
 21 27  2  0  0  0  0
 21 54  1  0  0  0  0
 22 24  2  0  0  0  0
 22 26  1  0  0  0  0
 23 25  2  0  0  0  0
 23 27  1  0  0  0  0
 24 55  1  0  0  0  0
 25 56  1  0  0  0  0
 26 57  1  0  0  0  0
 27 58  1  0  0  0  0
M  END
> <DATABASE_ID>
DB13608

> <DATABASE_NAME>
drugbank

> <ORIGINAL_SOURCE>
PUBCHEM

> <ORIGINAL_SOURCE_URL>
https://pubchem.ncbi.nlm.nih.gov/rest/pug/compound/inchikey/BWBONKHPVHMQHE-UHFFFAOYSA-N/SDF?record_type=3d

> <SMILES>
CC(C)CCOC1=CC=C(NC(=S)NC2=CC=C(OCCC(C)C)C=C2)C=C1

> <INCHI_IDENTIFIER>
InChI=1S/C23H32N2O2S/c1-17(2)13-15-26-21-9-5-19(6-10-21)24-23(28)25-20-7-11-22(12-8-20)27-16-14-18(3)4/h5-12,17-18H,13-16H2,1-4H3,(H2,24,25,28)

> <INCHI_KEY>
BWBONKHPVHMQHE-UHFFFAOYSA-N

> <FORMULA>
C23H32N2O2S

> <MOLECULAR_WEIGHT>
400.58

> <EXACT_MASS>
400.218449452

> <JCHEM_ACCEPTOR_COUNT>
2

> <JCHEM_ATOM_COUNT>
60

> <JCHEM_AVERAGE_POLARIZABILITY>
47.33625812770277

> <JCHEM_BIOAVAILABILITY>
1

> <JCHEM_DONOR_COUNT>
2

> <JCHEM_FORMAL_CHARGE>
0

> <JCHEM_GHOSE_FILTER>
0

> <JCHEM_IUPAC>
1,3-bis[4-(3-methylbutoxy)phenyl]thiourea

> <ALOGPS_LOGP>
5.70

> <JCHEM_LOGP>
6.915018435999999

> <ALOGPS_LOGS>
-6.13

> <JCHEM_MDDR_LIKE_RULE>
0

> <JCHEM_NUMBER_OF_RINGS>
2

> <JCHEM_PHYSIOLOGICAL_CHARGE>
0

> <JCHEM_PKA>
17.042643107214786

> <JCHEM_PKA_STRONGEST_ACIDIC>
12.622433007072562

> <JCHEM_PKA_STRONGEST_BASIC>
-4.534479521890145

> <JCHEM_POLAR_SURFACE_AREA>
42.519999999999996

> <JCHEM_REFRACTIVITY>
123.8145

> <JCHEM_ROTATABLE_BOND_COUNT>
10

> <JCHEM_RULE_OF_FIVE>
0

> <ALOGPS_SOLUBILITY>
2.98e-04 g/l

> <JCHEM_TRADITIONAL_IUPAC>
isoxyl

> <JCHEM_VEBER_RULE>
0

> <DRUGBANK_ID>
DB13608

> <DRUG_GROUPS>
experimental

> <GENERIC_NAME>
Tiocarlide

$$$$