21788
  -OEChem-10061700273D

 58 60  0     0  0  0  0  0  0999 V2000
    0.1906    0.3996   -0.1714 O   0  0  0  0  0  0  0  0  0  0  0  0
   -0.6859    1.2068    1.8077 O   0  0  0  0  0  0  0  0  0  0  0  0
    3.8809    0.2238   -0.2183 N   0  0  0  0  0  0  0  0  0  0  0  0
   -2.1455    0.5736   -0.0122 C   0  0  0  0  0  0  0  0  0  0  0  0
   -2.2493   -0.9193   -0.3185 C   0  0  0  0  0  0  0  0  0  0  0  0
   -3.2851    0.9945    0.9338 C   0  0  0  0  0  0  0  0  0  0  0  0
   -2.1847    1.3811   -1.3226 C   0  0  0  0  0  0  0  0  0  0  0  0
   -3.5580   -1.2314   -1.0567 C   0  0  0  0  0  0  0  0  0  0  0  0
   -2.1382   -1.7458    0.9699 C   0  0  0  0  0  0  0  0  0  0  0  0
   -3.3542    2.5071    1.1482 C   0  0  0  0  0  0  0  0  0  0  0  0
   -2.2619    2.8906   -1.0904 C   0  0  0  0  0  0  0  0  0  0  0  0
   -3.7101   -2.7266   -1.3272 C   0  0  0  0  0  0  0  0  0  0  0  0
   -2.2925   -3.2402    0.6959 C   0  0  0  0  0  0  0  0  0  0  0  0
   -3.4222    3.2618   -0.1743 C   0  0  0  0  0  0  0  0  0  0  0  0
   -3.5902   -3.5454   -0.0456 C   0  0  0  0  0  0  0  0  0  0  0  0
   -0.8145    0.7733    0.6708 C   0  0  0  0  0  0  0  0  0  0  0  0
    1.5152    0.5387    0.3522 C   0  0  0  0  0  0  0  0  0  0  0  0
    2.5087    0.0825   -0.7044 C   0  0  0  0  0  0  0  0  0  0  0  0
    4.2201   -0.8797    0.6911 C   0  0  0  0  0  0  0  0  0  0  0  0
    4.8213    0.2912   -1.3457 C   0  0  0  0  0  0  0  0  0  0  0  0
    5.6359   -0.7209    1.2473 C   0  0  0  0  0  0  0  0  0  0  0  0
    6.2569    0.4886   -0.8559 C   0  0  0  0  0  0  0  0  0  0  0  0
    6.6626   -0.6042    0.1264 C   0  0  0  0  0  0  0  0  0  0  0  0
   -1.4287   -1.2290   -0.9818 H   0  0  0  0  0  0  0  0  0  0  0  0
   -4.2675    0.7056    0.5534 H   0  0  0  0  0  0  0  0  0  0  0  0
   -3.1875    0.5447    1.9278 H   0  0  0  0  0  0  0  0  0  0  0  0
   -3.0720    1.1421   -1.9150 H   0  0  0  0  0  0  0  0  0  0  0  0
   -1.3222    1.1622   -1.9634 H   0  0  0  0  0  0  0  0  0  0  0  0
   -3.6045   -0.7439   -2.0336 H   0  0  0  0  0  0  0  0  0  0  0  0
   -4.4445   -0.9273   -0.4956 H   0  0  0  0  0  0  0  0  0  0  0  0
   -2.9160   -1.4785    1.6920 H   0  0  0  0  0  0  0  0  0  0  0  0
   -1.1726   -1.5955    1.4646 H   0  0  0  0  0  0  0  0  0  0  0  0
   -2.4949    2.8630    1.7262 H   0  0  0  0  0  0  0  0  0  0  0  0
   -4.2423    2.7466    1.7455 H   0  0  0  0  0  0  0  0  0  0  0  0
   -2.3760    3.4042   -2.0521 H   0  0  0  0  0  0  0  0  0  0  0  0
   -1.3208    3.2466   -0.6538 H   0  0  0  0  0  0  0  0  0  0  0  0
   -4.6802   -2.9212   -1.7988 H   0  0  0  0  0  0  0  0  0  0  0  0
   -2.9399   -3.0493   -2.0389 H   0  0  0  0  0  0  0  0  0  0  0  0
   -1.4404   -3.5916    0.1008 H   0  0  0  0  0  0  0  0  0  0  0  0
   -2.2702   -3.7937    1.6416 H   0  0  0  0  0  0  0  0  0  0  0  0
   -3.4119    4.3409    0.0157 H   0  0  0  0  0  0  0  0  0  0  0  0
   -4.3711    3.0357   -0.6761 H   0  0  0  0  0  0  0  0  0  0  0  0
   -4.4439   -3.3275    0.6079 H   0  0  0  0  0  0  0  0  0  0  0  0
   -3.6357   -4.6137   -0.2850 H   0  0  0  0  0  0  0  0  0  0  0  0
    1.6901    1.5907    0.6089 H   0  0  0  0  0  0  0  0  0  0  0  0
    1.5865   -0.0678    1.2608 H   0  0  0  0  0  0  0  0  0  0  0  0
    2.3460    0.7158   -1.5875 H   0  0  0  0  0  0  0  0  0  0  0  0
    2.2861   -0.9401   -1.0369 H   0  0  0  0  0  0  0  0  0  0  0  0
    4.1369   -1.8476    0.1790 H   0  0  0  0  0  0  0  0  0  0  0  0
    3.5387   -0.9080    1.5476 H   0  0  0  0  0  0  0  0  0  0  0  0
    4.5676    1.1390   -1.9938 H   0  0  0  0  0  0  0  0  0  0  0  0
    4.7614   -0.6181   -1.9582 H   0  0  0  0  0  0  0  0  0  0  0  0
    5.6836    0.1736    1.8814 H   0  0  0  0  0  0  0  0  0  0  0  0
    5.8819   -1.5777    1.8847 H   0  0  0  0  0  0  0  0  0  0  0  0
    6.9428    0.4904   -1.7106 H   0  0  0  0  0  0  0  0  0  0  0  0
    6.3481    1.4686   -0.3704 H   0  0  0  0  0  0  0  0  0  0  0  0
    6.7378   -1.5623   -0.4024 H   0  0  0  0  0  0  0  0  0  0  0  0
    7.6521   -0.3873    0.5433 H   0  0  0  0  0  0  0  0  0  0  0  0
  1 16  1  0  0  0  0
  1 17  1  0  0  0  0
  2 16  2  0  0  0  0
  3 18  1  0  0  0  0
  3 19  1  0  0  0  0
  3 20  1  0  0  0  0
  4  5  1  0  0  0  0
  4  6  1  0  0  0  0
  4  7  1  0  0  0  0
  4 16  1  0  0  0  0
  5  8  1  0  0  0  0
  5  9  1  0  0  0  0
  5 24  1  0  0  0  0
  6 10  1  0  0  0  0
  6 25  1  0  0  0  0
  6 26  1  0  0  0  0
  7 11  1  0  0  0  0
  7 27  1  0  0  0  0
  7 28  1  0  0  0  0
  8 12  1  0  0  0  0
  8 29  1  0  0  0  0
  8 30  1  0  0  0  0
  9 13  1  0  0  0  0
  9 31  1  0  0  0  0
  9 32  1  0  0  0  0
 10 14  1  0  0  0  0
 10 33  1  0  0  0  0
 10 34  1  0  0  0  0
 11 14  1  0  0  0  0
 11 35  1  0  0  0  0
 11 36  1  0  0  0  0
 12 15  1  0  0  0  0
 12 37  1  0  0  0  0
 12 38  1  0  0  0  0
 13 15  1  0  0  0  0
 13 39  1  0  0  0  0
 13 40  1  0  0  0  0
 14 41  1  0  0  0  0
 14 42  1  0  0  0  0
 15 43  1  0  0  0  0
 15 44  1  0  0  0  0
 17 18  1  0  0  0  0
 17 45  1  0  0  0  0
 17 46  1  0  0  0  0
 18 47  1  0  0  0  0
 18 48  1  0  0  0  0
 19 21  1  0  0  0  0
 19 49  1  0  0  0  0
 19 50  1  0  0  0  0
 20 22  1  0  0  0  0
 20 51  1  0  0  0  0
 20 52  1  0  0  0  0
 21 23  1  0  0  0  0
 21 53  1  0  0  0  0
 21 54  1  0  0  0  0
 22 23  1  0  0  0  0
 22 55  1  0  0  0  0
 22 56  1  0  0  0  0
 23 57  1  0  0  0  0
 23 58  1  0  0  0  0
M  END
> <DATABASE_ID>
DB13678

> <DATABASE_NAME>
drugbank

> <ORIGINAL_SOURCE>
PUBCHEM

> <ORIGINAL_SOURCE_URL>
https://pubchem.ncbi.nlm.nih.gov/rest/pug/compound/inchikey/MNSQDVCVWNXBFQ-UHFFFAOYSA-N/SDF?record_type=3d

> <SMILES>
O=C(OCCN1CCCCC1)C1(CCCCC1)C1CCCCC1

> <INCHI_IDENTIFIER>
InChI=1S/C20H35NO2/c22-19(23-17-16-21-14-8-3-9-15-21)20(12-6-2-7-13-20)18-10-4-1-5-11-18/h18H,1-17H2

> <INCHI_KEY>
MNSQDVCVWNXBFQ-UHFFFAOYSA-N

> <FORMULA>
C20H35NO2

> <MOLECULAR_WEIGHT>
321.505

> <EXACT_MASS>
321.266779371

> <JCHEM_ACCEPTOR_COUNT>
2

> <JCHEM_ATOM_COUNT>
58

> <JCHEM_AVERAGE_POLARIZABILITY>
39.18521333822486

> <JCHEM_BIOAVAILABILITY>
1

> <JCHEM_DONOR_COUNT>
0

> <JCHEM_FORMAL_CHARGE>
0

> <JCHEM_GHOSE_FILTER>
1

> <JCHEM_IUPAC>
2-(piperidin-1-yl)ethyl [1,1'-bi(cyclohexane)]-1-carboxylate

> <ALOGPS_LOGP>
5.17

> <JCHEM_LOGP>
5.062643369000001

> <ALOGPS_LOGS>
-5.27

> <JCHEM_MDDR_LIKE_RULE>
1

> <JCHEM_NUMBER_OF_RINGS>
3

> <JCHEM_PHYSIOLOGICAL_CHARGE>
1

> <JCHEM_PKA_STRONGEST_BASIC>
8.177465966356634

> <JCHEM_POLAR_SURFACE_AREA>
29.54

> <JCHEM_REFRACTIVITY>
94.42749999999998

> <JCHEM_ROTATABLE_BOND_COUNT>
6

> <JCHEM_RULE_OF_FIVE>
0

> <ALOGPS_SOLUBILITY>
1.72e-03 g/l

> <JCHEM_TRADITIONAL_IUPAC>
dihexyverine

> <JCHEM_VEBER_RULE>
1

> <DRUGBANK_ID>
DB13678

> <DRUG_GROUPS>
experimental

> <GENERIC_NAME>
Dihexyverine

$$$$