6314185
  -OEChem-10061700203D

 57 57  0     0  0  0  0  0  0999 V2000
    7.5059    1.0958   -1.1506 O   0  0  0  0  0  0  0  0  0  0  0  0
   -7.8167   -0.6558   -0.2059 O   0  0  0  0  0  0  0  0  0  0  0  0
   -7.8468    1.6322   -0.6083 N   0  0  0  0  0  0  0  0  0  0  0  0
    4.4782    0.5933    0.8556 C   0  0  0  0  0  0  0  0  0  0  0  0
    3.8809   -0.4316    0.1350 C   0  0  0  0  0  0  0  0  0  0  0  0
    5.7000    1.1126    0.4277 C   0  0  0  0  0  0  0  0  0  0  0  0
    4.4813   -0.9476   -1.0051 C   0  0  0  0  0  0  0  0  0  0  0  0
    6.3125    0.6017   -0.7166 C   0  0  0  0  0  0  0  0  0  0  0  0
    5.7032   -0.4284   -1.4330 C   0  0  0  0  0  0  0  0  0  0  0  0
    3.8313    1.1511    2.0864 C   0  0  0  0  0  0  0  0  0  0  0  0
    2.5897   -0.9823    0.5845 C   0  0  0  0  0  0  0  0  0  0  0  0
    6.3618    2.2175    1.1884 C   0  0  0  0  0  0  0  0  0  0  0  0
    3.8610   -2.0517   -1.8003 C   0  0  0  0  0  0  0  0  0  0  0  0
    1.3886   -0.5040    0.2161 C   0  0  0  0  0  0  0  0  0  0  0  0
    0.0780   -1.0113    0.6406 C   0  0  0  0  0  0  0  0  0  0  0  0
    8.6863    0.4742   -0.6465 C   0  0  0  0  0  0  0  0  0  0  0  0
    0.0665   -2.1888    1.5837 C   0  0  0  0  0  0  0  0  0  0  0  0
   -1.0282   -0.4000    0.1642 C   0  0  0  0  0  0  0  0  0  0  0  0
   -2.4143   -0.7261    0.4442 C   0  0  0  0  0  0  0  0  0  0  0  0
   -4.8700   -0.2919    0.1218 C   0  0  0  0  0  0  0  0  0  0  0  0
   -3.4403   -0.0422   -0.0916 C   0  0  0  0  0  0  0  0  0  0  0  0
   -5.7531    0.5088   -0.5085 C   0  0  0  0  0  0  0  0  0  0  0  0
   -5.2471   -1.4088    1.0610 C   0  0  0  0  0  0  0  0  0  0  0  0
   -9.2821    1.7970   -0.5929 C   0  0  0  0  0  0  0  0  0  0  0  0
   -7.2374    0.4047   -0.4108 C   0  0  0  0  0  0  0  0  0  0  0  0
   -9.9889    0.4815   -0.3392 C   0  0  0  0  0  0  0  0  0  0  0  0
    6.1887   -0.8181   -2.3246 H   0  0  0  0  0  0  0  0  0  0  0  0
    3.1580    0.4410    2.5762 H   0  0  0  0  0  0  0  0  0  0  0  0
    4.5691    1.4033    2.8552 H   0  0  0  0  0  0  0  0  0  0  0  0
    3.2593    2.0502    1.8347 H   0  0  0  0  0  0  0  0  0  0  0  0
    2.6829   -1.8306    1.2570 H   0  0  0  0  0  0  0  0  0  0  0  0
    5.6438    3.0004    1.4554 H   0  0  0  0  0  0  0  0  0  0  0  0
    7.1396    2.7234    0.6074 H   0  0  0  0  0  0  0  0  0  0  0  0
    6.8268    1.8251    2.0986 H   0  0  0  0  0  0  0  0  0  0  0  0
    2.9220   -1.7179   -2.2539 H   0  0  0  0  0  0  0  0  0  0  0  0
    3.6710   -2.9261   -1.1688 H   0  0  0  0  0  0  0  0  0  0  0  0
    4.5150   -2.3839   -2.6142 H   0  0  0  0  0  0  0  0  0  0  0  0
    1.3720    0.3486   -0.4628 H   0  0  0  0  0  0  0  0  0  0  0  0
    9.5520    1.0110   -1.0438 H   0  0  0  0  0  0  0  0  0  0  0  0
    8.7173    0.5213    0.4466 H   0  0  0  0  0  0  0  0  0  0  0  0
    8.7388   -0.5677   -0.9778 H   0  0  0  0  0  0  0  0  0  0  0  0
   -0.8986    0.4445   -0.5141 H   0  0  0  0  0  0  0  0  0  0  0  0
    0.5857   -1.9381    2.5156 H   0  0  0  0  0  0  0  0  0  0  0  0
   -0.9348   -2.5202    1.8655 H   0  0  0  0  0  0  0  0  0  0  0  0
    0.5636   -3.0512    1.1255 H   0  0  0  0  0  0  0  0  0  0  0  0
   -2.6089   -1.5614    1.1052 H   0  0  0  0  0  0  0  0  0  0  0  0
   -3.2070    0.7884   -0.7583 H   0  0  0  0  0  0  0  0  0  0  0  0
   -5.3935    1.3156   -1.1454 H   0  0  0  0  0  0  0  0  0  0  0  0
   -9.5230    2.5264    0.1864 H   0  0  0  0  0  0  0  0  0  0  0  0
   -9.5769    2.2188   -1.5587 H   0  0  0  0  0  0  0  0  0  0  0  0
   -6.3003   -1.4142    1.3459 H   0  0  0  0  0  0  0  0  0  0  0  0
   -5.0162   -2.3805    0.6115 H   0  0  0  0  0  0  0  0  0  0  0  0
   -4.7000   -1.3214    2.0069 H   0  0  0  0  0  0  0  0  0  0  0  0
   -7.2821    2.4605   -0.7732 H   0  0  0  0  0  0  0  0  0  0  0  0
  -11.0694    0.6756   -0.3399 H   0  0  0  0  0  0  0  0  0  0  0  0
   -9.7777    0.0638    0.6507 H   0  0  0  0  0  0  0  0  0  0  0  0
   -9.8333   -0.2513   -1.1378 H   0  0  0  0  0  0  0  0  0  0  0  0
  1  8  1  0  0  0  0
  1 16  1  0  0  0  0
  2 25  2  0  0  0  0
  3 24  1  0  0  0  0
  3 25  1  0  0  0  0
  3 54  1  0  0  0  0
  4  5  2  0  0  0  0
  4  6  1  0  0  0  0
  4 10  1  0  0  0  0
  5  7  1  0  0  0  0
  5 11  1  0  0  0  0
  6  8  2  0  0  0  0
  6 12  1  0  0  0  0
  7  9  2  0  0  0  0
  7 13  1  0  0  0  0
  8  9  1  0  0  0  0
  9 27  1  0  0  0  0
 10 28  1  0  0  0  0
 10 29  1  0  0  0  0
 10 30  1  0  0  0  0
 11 14  2  0  0  0  0
 11 31  1  0  0  0  0
 12 32  1  0  0  0  0
 12 33  1  0  0  0  0
 12 34  1  0  0  0  0
 13 35  1  0  0  0  0
 13 36  1  0  0  0  0
 13 37  1  0  0  0  0
 14 15  1  0  0  0  0
 14 38  1  0  0  0  0
 15 17  1  0  0  0  0
 15 18  2  0  0  0  0
 16 39  1  0  0  0  0
 16 40  1  0  0  0  0
 16 41  1  0  0  0  0
 17 43  1  0  0  0  0
 17 44  1  0  0  0  0
 17 45  1  0  0  0  0
 18 19  1  0  0  0  0
 18 42  1  0  0  0  0
 19 21  2  0  0  0  0
 19 46  1  0  0  0  0
 20 21  1  0  0  0  0
 20 22  2  0  0  0  0
 20 23  1  0  0  0  0
 21 47  1  0  0  0  0
 22 25  1  0  0  0  0
 22 48  1  0  0  0  0
 23 51  1  0  0  0  0
 23 52  1  0  0  0  0
 23 53  1  0  0  0  0
 24 26  1  0  0  0  0
 24 49  1  0  0  0  0
 24 50  1  0  0  0  0
 26 55  1  0  0  0  0
 26 56  1  0  0  0  0
 26 57  1  0  0  0  0
M  END
> <DATABASE_ID>
DB13368

> <DATABASE_NAME>
drugbank

> <ORIGINAL_SOURCE>
PUBCHEM

> <ORIGINAL_SOURCE_URL>
https://pubchem.ncbi.nlm.nih.gov/rest/pug/compound/inchikey/IYIYMCASGKQOCZ-DJRRULDNSA-N/SDF?record_type=3d

> <SMILES>
CCNC(=O)\C=C(/C)\C=C\C=C(/C)\C=C\C1=C(C)C=C(OC)C(C)=C1C

> <INCHI_IDENTIFIER>
InChI=1S/C23H31NO2/c1-8-24-23(25)14-17(3)11-9-10-16(2)12-13-21-18(4)15-22(26-7)20(6)19(21)5/h9-15H,8H2,1-7H3,(H,24,25)/b11-9+,13-12+,16-10+,17-14+

> <INCHI_KEY>
IYIYMCASGKQOCZ-DJRRULDNSA-N

> <FORMULA>
C23H31NO2

> <MOLECULAR_WEIGHT>
353.506

> <EXACT_MASS>
353.235479242

> <JCHEM_ACCEPTOR_COUNT>
2

> <JCHEM_ATOM_COUNT>
57

> <JCHEM_AVERAGE_POLARIZABILITY>
43.67744901900046

> <JCHEM_BIOAVAILABILITY>
1

> <JCHEM_DONOR_COUNT>
1

> <JCHEM_FORMAL_CHARGE>
0

> <JCHEM_GHOSE_FILTER>
1

> <JCHEM_IUPAC>
(2E,4E,6E,8E)-N-ethyl-9-(4-methoxy-2,3,6-trimethylphenyl)-3,7-dimethylnona-2,4,6,8-tetraenamide

> <ALOGPS_LOGP>
5.78

> <JCHEM_LOGP>
5.360590132333334

> <ALOGPS_LOGS>
-5.66

> <JCHEM_MDDR_LIKE_RULE>
0

> <JCHEM_NUMBER_OF_RINGS>
1

> <JCHEM_PHYSIOLOGICAL_CHARGE>
0

> <JCHEM_PKA_STRONGEST_ACIDIC>
16.32726056085261

> <JCHEM_PKA_STRONGEST_BASIC>
-0.2247022579621457

> <JCHEM_POLAR_SURFACE_AREA>
38.33

> <JCHEM_REFRACTIVITY>
115.63399999999997

> <JCHEM_ROTATABLE_BOND_COUNT>
7

> <JCHEM_RULE_OF_FIVE>
0

> <ALOGPS_SOLUBILITY>
7.67e-04 g/l

> <JCHEM_TRADITIONAL_IUPAC>
motretinide

> <JCHEM_VEBER_RULE>
1

> <DRUGBANK_ID>
DB13368

> <DRUG_GROUPS>
experimental

> <GENERIC_NAME>
Motretinide

$$$$