66237
  -OEChem-10051722573D

 57 58  0     0  0  0  0  0  0999 V2000
    4.4210   -1.0471   -1.5812 O   0  0  0  0  0  0  0  0  0  0  0  0
   -4.4029   -0.9455    1.6443 O   0  0  0  0  0  0  0  0  0  0  0  0
    0.0113    2.1293   -0.0606 C   0  0  0  0  0  0  0  0  0  0  0  0
    1.1763    1.2871   -0.4573 C   0  0  0  0  0  0  0  0  0  0  0  0
   -1.2126    1.2734    0.4071 C   0  0  0  0  0  0  0  0  0  0  0  0
    3.4647   -1.2835    1.0999 C   0  0  0  0  0  0  0  0  0  0  0  0
   -3.4471   -1.3407   -1.0183 C   0  0  0  0  0  0  0  0  0  0  0  0
    2.8332   -0.3360    0.0667 C   0  0  0  0  0  0  0  0  0  0  0  0
   -2.8325   -0.3641   -0.0709 C   0  0  0  0  0  0  0  0  0  0  0  0
   -0.5671    3.0659   -1.1875 C   0  0  0  0  0  0  0  0  0  0  0  0
    0.4783    3.1347    1.0502 C   0  0  0  0  0  0  0  0  0  0  0  0
    1.7616    0.4237    0.4688 C   0  0  0  0  0  0  0  0  0  0  0  0
   -1.7415    0.3980   -0.4886 C   0  0  0  0  0  0  0  0  0  0  0  0
    1.6808    1.3636   -1.7554 C   0  0  0  0  0  0  0  0  0  0  0  0
   -1.6591    1.4671    1.6763 C   0  0  0  0  0  0  0  0  0  0  0  0
    3.3561   -0.2870   -1.2015 C   0  0  0  0  0  0  0  0  0  0  0  0
   -3.3369   -0.2107    1.2206 C   0  0  0  0  0  0  0  0  0  0  0  0
    2.7104   -1.1657    2.4420 C   0  0  0  0  0  0  0  0  0  0  0  0
    4.9461   -0.9049    1.3152 C   0  0  0  0  0  0  0  0  0  0  0  0
    3.4299   -2.7722    0.6862 C   0  0  0  0  0  0  0  0  0  0  0  0
   -2.7110   -1.3325   -2.3933 C   0  0  0  0  0  0  0  0  0  0  0  0
   -4.9463   -1.0025   -1.2837 C   0  0  0  0  0  0  0  0  0  0  0  0
   -3.4329   -2.8318   -0.5459 C   0  0  0  0  0  0  0  0  0  0  0  0
    2.7705    0.5764   -2.1276 C   0  0  0  0  0  0  0  0  0  0  0  0
   -2.7501    0.7049    2.0942 C   0  0  0  0  0  0  0  0  0  0  0  0
   -1.4294    3.6371   -0.8199 H   0  0  0  0  0  0  0  0  0  0  0  0
    0.1819    3.7944   -1.5216 H   0  0  0  0  0  0  0  0  0  0  0  0
   -0.9063    2.5122   -2.0705 H   0  0  0  0  0  0  0  0  0  0  0  0
   -0.3116    3.8421    1.3311 H   0  0  0  0  0  0  0  0  0  0  0  0
    0.8372    2.6364    1.9583 H   0  0  0  0  0  0  0  0  0  0  0  0
    1.3191    3.7379    0.6819 H   0  0  0  0  0  0  0  0  0  0  0  0
    1.3234    0.4028    1.4561 H   0  0  0  0  0  0  0  0  0  0  0  0
   -1.2976    0.3204   -1.4706 H   0  0  0  0  0  0  0  0  0  0  0  0
    1.2646    2.0179   -2.5132 H   0  0  0  0  0  0  0  0  0  0  0  0
   -1.2458    2.1559    2.3994 H   0  0  0  0  0  0  0  0  0  0  0  0
    3.1664   -1.8328    3.1859 H   0  0  0  0  0  0  0  0  0  0  0  0
    2.7749   -0.1614    2.8783 H   0  0  0  0  0  0  0  0  0  0  0  0
    1.6619   -1.4798    2.3695 H   0  0  0  0  0  0  0  0  0  0  0  0
    5.0509    0.1633    1.5403 H   0  0  0  0  0  0  0  0  0  0  0  0
    5.3653   -1.4573    2.1652 H   0  0  0  0  0  0  0  0  0  0  0  0
    5.5891   -1.1271    0.4595 H   0  0  0  0  0  0  0  0  0  0  0  0
    3.8074   -3.4151    1.4903 H   0  0  0  0  0  0  0  0  0  0  0  0
    2.4039   -3.0876    0.4625 H   0  0  0  0  0  0  0  0  0  0  0  0
    4.0346   -2.9869   -0.1994 H   0  0  0  0  0  0  0  0  0  0  0  0
   -1.6627   -1.6423   -2.3057 H   0  0  0  0  0  0  0  0  0  0  0  0
   -2.7686   -0.3559   -2.8890 H   0  0  0  0  0  0  0  0  0  0  0  0
   -3.1824   -2.0450   -3.0827 H   0  0  0  0  0  0  0  0  0  0  0  0
   -5.0583    0.0426   -1.5965 H   0  0  0  0  0  0  0  0  0  0  0  0
   -5.3520   -1.6299   -2.0866 H   0  0  0  0  0  0  0  0  0  0  0  0
   -5.5869   -1.1576   -0.4113 H   0  0  0  0  0  0  0  0  0  0  0  0
   -4.0283   -2.9917    0.3576 H   0  0  0  0  0  0  0  0  0  0  0  0
   -2.4083   -3.1510   -0.3221 H   0  0  0  0  0  0  0  0  0  0  0  0
   -3.8323   -3.4994   -1.3182 H   0  0  0  0  0  0  0  0  0  0  0  0
    3.1540    0.6459   -3.1421 H   0  0  0  0  0  0  0  0  0  0  0  0
   -3.1330    0.8335    3.1032 H   0  0  0  0  0  0  0  0  0  0  0  0
    4.6288   -0.8600   -2.5126 H   0  0  0  0  0  0  0  0  0  0  0  0
   -4.6105   -0.7035    2.5631 H   0  0  0  0  0  0  0  0  0  0  0  0
  1 16  1  0  0  0  0
  1 56  1  0  0  0  0
  2 17  1  0  0  0  0
  2 57  1  0  0  0  0
  3  4  1  0  0  0  0
  3  5  1  0  0  0  0
  3 10  1  0  0  0  0
  3 11  1  0  0  0  0
  4 12  2  0  0  0  0
  4 14  1  0  0  0  0
  5 13  2  0  0  0  0
  5 15  1  0  0  0  0
  6  8  1  0  0  0  0
  6 18  1  0  0  0  0
  6 19  1  0  0  0  0
  6 20  1  0  0  0  0
  7  9  1  0  0  0  0
  7 21  1  0  0  0  0
  7 22  1  0  0  0  0
  7 23  1  0  0  0  0
  8 12  1  0  0  0  0
  8 16  2  0  0  0  0
  9 13  1  0  0  0  0
  9 17  2  0  0  0  0
 10 26  1  0  0  0  0
 10 27  1  0  0  0  0
 10 28  1  0  0  0  0
 11 29  1  0  0  0  0
 11 30  1  0  0  0  0
 11 31  1  0  0  0  0
 12 32  1  0  0  0  0
 13 33  1  0  0  0  0
 14 24  2  0  0  0  0
 14 34  1  0  0  0  0
 15 25  2  0  0  0  0
 15 35  1  0  0  0  0
 16 24  1  0  0  0  0
 17 25  1  0  0  0  0
 18 36  1  0  0  0  0
 18 37  1  0  0  0  0
 18 38  1  0  0  0  0
 19 39  1  0  0  0  0
 19 40  1  0  0  0  0
 19 41  1  0  0  0  0
 20 42  1  0  0  0  0
 20 43  1  0  0  0  0
 20 44  1  0  0  0  0
 21 45  1  0  0  0  0
 21 46  1  0  0  0  0
 21 47  1  0  0  0  0
 22 48  1  0  0  0  0
 22 49  1  0  0  0  0
 22 50  1  0  0  0  0
 23 51  1  0  0  0  0
 23 52  1  0  0  0  0
 23 53  1  0  0  0  0
 24 54  1  0  0  0  0
 25 55  1  0  0  0  0
M  END
> <DATABASE_ID>
DB13008

> <DATABASE_NAME>
drugbank

> <ORIGINAL_SOURCE>
PUBCHEM

> <ORIGINAL_SOURCE_URL>
https://pubchem.ncbi.nlm.nih.gov/rest/pug/compound/inchikey/ZDRSNHRWLQQICP-UHFFFAOYSA-N/SDF?record_type=3d

> <SMILES>
CC(C)(C)C1=CC(=CC=C1O)C(C)(C)C1=CC=C(O)C(=C1)C(C)(C)C

> <INCHI_IDENTIFIER>
InChI=1S/C23H32O2/c1-21(2,3)17-13-15(9-11-19(17)24)23(7,8)16-10-12-20(25)18(14-16)22(4,5)6/h9-14,24-25H,1-8H3

> <INCHI_KEY>
ZDRSNHRWLQQICP-UHFFFAOYSA-N

> <FORMULA>
C23H32O2

> <MOLECULAR_WEIGHT>
340.507

> <EXACT_MASS>
340.24023027

> <JCHEM_ACCEPTOR_COUNT>
2

> <JCHEM_ATOM_COUNT>
57

> <JCHEM_AVERAGE_POLARIZABILITY>
40.48044691631881

> <JCHEM_BIOAVAILABILITY>
1

> <JCHEM_DONOR_COUNT>
2

> <JCHEM_FORMAL_CHARGE>
0

> <JCHEM_GHOSE_FILTER>
0

> <JCHEM_IUPAC>
2-tert-butyl-4-[2-(3-tert-butyl-4-hydroxyphenyl)propan-2-yl]phenol

> <ALOGPS_LOGP>
6.55

> <JCHEM_LOGP>
7.135087957333333

> <ALOGPS_LOGS>
-5.70

> <JCHEM_MDDR_LIKE_RULE>
0

> <JCHEM_NUMBER_OF_RINGS>
2

> <JCHEM_PHYSIOLOGICAL_CHARGE>
0

> <JCHEM_PKA>
11.010272469611298

> <JCHEM_PKA_STRONGEST_ACIDIC>
10.402091781025016

> <JCHEM_PKA_STRONGEST_BASIC>
-5.02201443858477

> <JCHEM_POLAR_SURFACE_AREA>
40.46

> <JCHEM_REFRACTIVITY>
116.6069

> <JCHEM_ROTATABLE_BOND_COUNT>
4

> <JCHEM_RULE_OF_FIVE>
0

> <ALOGPS_SOLUBILITY>
6.72e-04 g/l

> <JCHEM_TRADITIONAL_IUPAC>
2-tert-butyl-4-[2-(3-tert-butyl-4-hydroxyphenyl)propan-2-yl]phenol

> <JCHEM_VEBER_RULE>
0

> <DRUGBANK_ID>
DB13008

> <DRUG_GROUPS>
investigational

> <GENERIC_NAME>
2,2-bis(4-hydroxy-3-tert-butylphenyl)propane

> <SYNONYMS>
TBD

$$$$