2543
  -OEChem-02011917223D

 49 51  0     0  0  0  0  0  0999 V2000
   -0.4682   -1.9432   -0.4990 O   0  0  0  0  0  0  0  0  0  0  0  0
   -0.5365    2.8526    0.3238 O   0  0  0  0  0  0  0  0  0  0  0  0
   -1.7631   -2.1528    0.1112 C   0  0  0  0  0  0  0  0  0  0  0  0
   -2.6892   -0.9409    0.0392 C   0  0  0  0  0  0  0  0  0  0  0  0
   -2.1184    0.3450   -0.0694 C   0  0  0  0  0  0  0  0  0  0  0  0
   -0.6526    0.4517   -0.1311 C   0  0  0  0  0  0  0  0  0  0  0  0
    0.1032   -0.7089   -0.3486 C   0  0  0  0  0  0  0  0  0  0  0  0
   -2.3281   -3.3646   -0.6536 C   0  0  0  0  0  0  0  0  0  0  0  0
   -1.5359   -2.5544    1.5790 C   0  0  0  0  0  0  0  0  0  0  0  0
    2.1673    0.5463   -0.3376 C   0  0  0  0  0  0  0  0  0  0  0  0
    3.6528    0.5958   -0.4512 C   0  0  0  0  0  0  0  0  0  0  0  0
    1.4964   -0.6643   -0.4697 C   0  0  0  0  0  0  0  0  0  0  0  0
   -4.0867   -1.0738    0.1373 C   0  0  0  0  0  0  0  0  0  0  0  0
    0.0504    1.6614    0.0086 C   0  0  0  0  0  0  0  0  0  0  0  0
   -2.9784    1.4578   -0.1226 C   0  0  0  0  0  0  0  0  0  0  0  0
    4.4003    0.3959    0.8803 C   0  0  0  0  0  0  0  0  0  0  0  0
    1.4448    1.7082   -0.0924 C   0  0  0  0  0  0  0  0  0  0  0  0
   -4.3639    1.3080   -0.0455 C   0  0  0  0  0  0  0  0  0  0  0  0
    5.9200    0.5192    0.7324 C   0  0  0  0  0  0  0  0  0  0  0  0
   -4.9176    0.0430    0.0906 C   0  0  0  0  0  0  0  0  0  0  0  0
    6.4707   -0.5399   -0.2234 C   0  0  0  0  0  0  0  0  0  0  0  0
   -5.2505    2.5056   -0.1133 C   0  0  0  0  0  0  0  0  0  0  0  0
    7.9835   -0.4477   -0.3447 C   0  0  0  0  0  0  0  0  0  0  0  0
   -3.2411   -3.7656   -0.2025 H   0  0  0  0  0  0  0  0  0  0  0  0
   -2.5463   -3.0999   -1.6953 H   0  0  0  0  0  0  0  0  0  0  0  0
   -1.5931   -4.1783   -0.6890 H   0  0  0  0  0  0  0  0  0  0  0  0
   -1.0875   -1.7349    2.1530 H   0  0  0  0  0  0  0  0  0  0  0  0
   -2.4718   -2.8354    2.0742 H   0  0  0  0  0  0  0  0  0  0  0  0
   -0.8398   -3.3983    1.6490 H   0  0  0  0  0  0  0  0  0  0  0  0
    3.9558   -0.1663   -1.1784 H   0  0  0  0  0  0  0  0  0  0  0  0
    3.9521    1.5545   -0.8953 H   0  0  0  0  0  0  0  0  0  0  0  0
    2.0506   -1.5815   -0.6551 H   0  0  0  0  0  0  0  0  0  0  0  0
   -4.5486   -2.0492    0.2600 H   0  0  0  0  0  0  0  0  0  0  0  0
   -2.6142    2.4666   -0.2746 H   0  0  0  0  0  0  0  0  0  0  0  0
    4.1485   -0.5853    1.3023 H   0  0  0  0  0  0  0  0  0  0  0  0
    4.0578    1.1436    1.6067 H   0  0  0  0  0  0  0  0  0  0  0  0
    1.9752    2.6504    0.0296 H   0  0  0  0  0  0  0  0  0  0  0  0
    6.1763    1.5215    0.3693 H   0  0  0  0  0  0  0  0  0  0  0  0
    6.3833    0.4047    1.7195 H   0  0  0  0  0  0  0  0  0  0  0  0
   -5.9936   -0.0915    0.1600 H   0  0  0  0  0  0  0  0  0  0  0  0
    6.0553   -0.4168   -1.2280 H   0  0  0  0  0  0  0  0  0  0  0  0
    6.1961   -1.5415    0.1269 H   0  0  0  0  0  0  0  0  0  0  0  0
   -6.2364    2.3007    0.3178 H   0  0  0  0  0  0  0  0  0  0  0  0
   -4.8211    3.3404    0.4510 H   0  0  0  0  0  0  0  0  0  0  0  0
   -5.3859    2.8144   -1.1547 H   0  0  0  0  0  0  0  0  0  0  0  0
    0.1321    3.5562    0.3777 H   0  0  0  0  0  0  0  0  0  0  0  0
    8.4646   -0.6017    0.6264 H   0  0  0  0  0  0  0  0  0  0  0  0
    8.3565   -1.2126   -1.0331 H   0  0  0  0  0  0  0  0  0  0  0  0
    8.2877    0.5317   -0.7276 H   0  0  0  0  0  0  0  0  0  0  0  0
  1  3  1  0  0  0  0
  1  7  1  0  0  0  0
  2 14  1  0  0  0  0
  2 46  1  0  0  0  0
  3  4  1  0  0  0  0
  3  8  1  0  0  0  0
  3  9  1  0  0  0  0
  4  5  2  0  0  0  0
  4 13  1  0  0  0  0
  5  6  1  0  0  0  0
  5 15  1  0  0  0  0
  6  7  1  0  0  0  0
  6 14  2  0  0  0  0
  7 12  2  0  0  0  0
  8 24  1  0  0  0  0
  8 25  1  0  0  0  0
  8 26  1  0  0  0  0
  9 27  1  0  0  0  0
  9 28  1  0  0  0  0
  9 29  1  0  0  0  0
 10 11  1  0  0  0  0
 10 12  1  0  0  0  0
 10 17  2  0  0  0  0
 11 16  1  0  0  0  0
 11 30  1  0  0  0  0
 11 31  1  0  0  0  0
 12 32  1  0  0  0  0
 13 20  2  0  0  0  0
 13 33  1  0  0  0  0
 14 17  1  0  0  0  0
 15 18  2  0  0  0  0
 15 34  1  0  0  0  0
 16 19  1  0  0  0  0
 16 35  1  0  0  0  0
 16 36  1  0  0  0  0
 17 37  1  0  0  0  0
 18 20  1  0  0  0  0
 18 22  1  0  0  0  0
 19 21  1  0  0  0  0
 19 38  1  0  0  0  0
 19 39  1  0  0  0  0
 20 40  1  0  0  0  0
 21 23  1  0  0  0  0
 21 41  1  0  0  0  0
 21 42  1  0  0  0  0
 22 43  1  0  0  0  0
 22 44  1  0  0  0  0
 22 45  1  0  0  0  0
 23 47  1  0  0  0  0
 23 48  1  0  0  0  0
 23 49  1  0  0  0  0
M  END
> <DATABASE_ID>
DB14737

> <DATABASE_NAME>
drugbank

> <ORIGINAL_SOURCE>
PUBCHEM

> <ORIGINAL_SOURCE_URL>
https://pubchem.ncbi.nlm.nih.gov/rest/pug/compound/inchikey/VBGLYOIFKLUMQG-UHFFFAOYSA-N/SDF?record_type=3d

> <SMILES>
CCCCCC1=CC2=C(C(O)=C1)C1=C(C=CC(C)=C1)C(C)(C)O2

> <INCHI_IDENTIFIER>
InChI=1S/C21H26O2/c1-5-6-7-8-15-12-18(22)20-16-11-14(2)9-10-17(16)21(3,4)23-19(20)13-15/h9-13,22H,5-8H2,1-4H3

> <INCHI_KEY>
VBGLYOIFKLUMQG-UHFFFAOYSA-N

> <FORMULA>
C21H26O2

> <MOLECULAR_WEIGHT>
310.437

> <EXACT_MASS>
310.193280077

> <JCHEM_ACCEPTOR_COUNT>
2

> <JCHEM_ATOM_COUNT>
49

> <JCHEM_AVERAGE_POLARIZABILITY>
37.75883681910807

> <JCHEM_BIOAVAILABILITY>
1

> <JCHEM_DONOR_COUNT>
1

> <JCHEM_FORMAL_CHARGE>
0

> <JCHEM_GHOSE_FILTER>
0

> <JCHEM_IUPAC>
6,6,9-trimethyl-3-pentyl-6H-benzo[c]chromen-1-ol

> <ALOGPS_LOGP>
6.58

> <JCHEM_LOGP>
6.412731023666666

> <ALOGPS_LOGS>
-5.96

> <JCHEM_MDDR_LIKE_RULE>
0

> <JCHEM_NUMBER_OF_RINGS>
3

> <JCHEM_PHYSIOLOGICAL_CHARGE>
0

> <JCHEM_PKA_STRONGEST_ACIDIC>
9.318134306693421

> <JCHEM_PKA_STRONGEST_BASIC>
-4.922121880517445

> <JCHEM_POLAR_SURFACE_AREA>
29.46

> <JCHEM_REFRACTIVITY>
95.7363

> <JCHEM_ROTATABLE_BOND_COUNT>
4

> <JCHEM_RULE_OF_FIVE>
0

> <ALOGPS_SOLUBILITY>
3.39e-04 g/l

> <JCHEM_TRADITIONAL_IUPAC>
cannabigerol

> <JCHEM_VEBER_RULE>
1

> <DRUGBANK_ID>
DB14737

> <DRUG_GROUPS>
experimental; investigational

> <GENERIC_NAME>
Cannabinol

> <SYNONYMS>
6,6,9-Trimethyl-3-pentyl-6H-dibenzo(b,d)pyran-1-ol; Cannabinol; Cannabinolo; Cannabinolum; CBN

$$$$