77461017
  -OEChem-05201910273D

 42 44  0     0  0  0  0  0  0999 V2000
   -0.3727   -5.0932   -1.2611 Cl  0  0  0  0  0  0  0  0  0  0  0  0
   -4.0417    3.8404   -0.1130 F   0  0  0  0  0  0  0  0  0  0  0  0
   -5.2377    2.2166   -0.9257 F   0  0  0  0  0  0  0  0  0  0  0  0
   -4.9533    2.3825    1.2179 F   0  0  0  0  0  0  0  0  0  0  0  0
    5.9656   -0.7489   -1.1250 O   0  0  0  0  0  0  0  0  0  0  0  0
    0.5078    2.0126   -0.5764 N   0  0  0  0  0  0  0  0  0  0  0  0
   -0.8532    0.0875   -0.2432 N   0  0  0  0  0  0  0  0  0  0  0  0
   -3.2319    0.3372    0.0518 N   0  0  0  0  0  0  0  0  0  0  0  0
    7.6980   -0.8480    0.3821 N   0  0  0  0  0  0  0  0  0  0  0  0
    1.8040    1.6296   -0.1950 C   0  0  0  0  0  0  0  0  0  0  0  0
    4.3789    0.8683    0.5621 C   0  0  0  0  0  0  0  0  0  0  0  0
   -0.7643    1.4288   -0.3596 C   0  0  0  0  0  0  0  0  0  0  0  0
    2.8984    2.4154   -0.5567 C   0  0  0  0  0  0  0  0  0  0  0  0
    1.9972    0.4633    0.5453 C   0  0  0  0  0  0  0  0  0  0  0  0
    4.1858    2.0348   -0.1780 C   0  0  0  0  0  0  0  0  0  0  0  0
    3.2846    0.0825    0.9238 C   0  0  0  0  0  0  0  0  0  0  0  0
    5.7553    0.4615    0.9675 C   0  0  0  0  0  0  0  0  0  0  0  0
   -2.0985   -0.3841   -0.0419 C   0  0  0  0  0  0  0  0  0  0  0  0
   -1.8488    2.2785   -0.2828 C   0  0  0  0  0  0  0  0  0  0  0  0
   -2.2318   -1.8187    0.0891 C   0  0  0  0  0  0  0  0  0  0  0  0
   -3.0700    1.6708   -0.0738 C   0  0  0  0  0  0  0  0  0  0  0  0
   -1.3418   -2.6652   -0.5720 C   0  0  0  0  0  0  0  0  0  0  0  0
   -3.2495   -2.3553    0.8779 C   0  0  0  0  0  0  0  0  0  0  0  0
   -4.3010    2.5077    0.0245 C   0  0  0  0  0  0  0  0  0  0  0  0
    6.4540   -0.4325   -0.0440 C   0  0  0  0  0  0  0  0  0  0  0  0
   -1.4693   -4.0485   -0.4441 C   0  0  0  0  0  0  0  0  0  0  0  0
   -3.3772   -3.7385    1.0056 C   0  0  0  0  0  0  0  0  0  0  0  0
   -2.4869   -4.5851    0.3447 C   0  0  0  0  0  0  0  0  0  0  0  0
    0.4701    2.8780   -1.1078 H   0  0  0  0  0  0  0  0  0  0  0  0
    2.7626    3.3265   -1.1339 H   0  0  0  0  0  0  0  0  0  0  0  0
    1.1853   -0.1714    0.8783 H   0  0  0  0  0  0  0  0  0  0  0  0
    5.0304    2.6545   -0.4675 H   0  0  0  0  0  0  0  0  0  0  0  0
    3.4222   -0.8263    1.5040 H   0  0  0  0  0  0  0  0  0  0  0  0
    5.7220   -0.0638    1.9307 H   0  0  0  0  0  0  0  0  0  0  0  0
    6.3787    1.3507    1.1275 H   0  0  0  0  0  0  0  0  0  0  0  0
   -1.7424    3.3523   -0.3798 H   0  0  0  0  0  0  0  0  0  0  0  0
   -0.5481   -2.2633   -1.1987 H   0  0  0  0  0  0  0  0  0  0  0  0
   -3.9526   -1.7221    1.4136 H   0  0  0  0  0  0  0  0  0  0  0  0
   -4.1681   -4.1566    1.6215 H   0  0  0  0  0  0  0  0  0  0  0  0
   -2.5983   -5.6608    0.4538 H   0  0  0  0  0  0  0  0  0  0  0  0
    8.0834   -0.5726    1.2797 H   0  0  0  0  0  0  0  0  0  0  0  0
    8.2741   -1.4497   -0.1972 H   0  0  0  0  0  0  0  0  0  0  0  0
  1 26  1  0  0  0  0
  2 24  1  0  0  0  0
  3 24  1  0  0  0  0
  4 24  1  0  0  0  0
  5 25  2  0  0  0  0
  6 10  1  0  0  0  0
  6 12  1  0  0  0  0
  6 29  1  0  0  0  0
  7 12  2  0  0  0  0
  7 18  1  0  0  0  0
  8 18  2  0  0  0  0
  8 21  1  0  0  0  0
  9 25  1  0  0  0  0
  9 41  1  0  0  0  0
  9 42  1  0  0  0  0
 10 13  2  0  0  0  0
 10 14  1  0  0  0  0
 11 15  2  0  0  0  0
 11 16  1  0  0  0  0
 11 17  1  0  0  0  0
 12 19  1  0  0  0  0
 13 15  1  0  0  0  0
 13 30  1  0  0  0  0
 14 16  2  0  0  0  0
 14 31  1  0  0  0  0
 15 32  1  0  0  0  0
 16 33  1  0  0  0  0
 17 25  1  0  0  0  0
 17 34  1  0  0  0  0
 17 35  1  0  0  0  0
 18 20  1  0  0  0  0
 19 21  2  0  0  0  0
 19 36  1  0  0  0  0
 20 22  2  0  0  0  0
 20 23  1  0  0  0  0
 21 24  1  0  0  0  0
 22 26  1  0  0  0  0
 22 37  1  0  0  0  0
 23 27  2  0  0  0  0
 23 38  1  0  0  0  0
 26 28  2  0  0  0  0
 27 28  1  0  0  0  0
 27 39  1  0  0  0  0
 28 40  1  0  0  0  0
M  END
> <DATABASE_ID>
DB14790

> <DATABASE_NAME>
drugbank

> <ORIGINAL_SOURCE>
PUBCHEM

> <ORIGINAL_SOURCE_URL>
https://pubchem.ncbi.nlm.nih.gov/rest/pug/compound/inchikey/KRRGWHSEDYQKDQ-UHFFFAOYSA-N/SDF?record_type=3d

> <SMILES>
NC(=O)CC1=CC=C(NC2=NC(=NC(=C2)C(F)(F)F)C2=CC=CC(Cl)=C2)C=C1

> <INCHI_IDENTIFIER>
InChI=1S/C19H14ClF3N4O/c20-13-3-1-2-12(9-13)18-26-15(19(21,22)23)10-17(27-18)25-14-6-4-11(5-7-14)8-16(24)28/h1-7,9-10H,8H2,(H2,24,28)(H,25,26,27)

> <INCHI_KEY>
KRRGWHSEDYQKDQ-UHFFFAOYSA-N

> <FORMULA>
C19H14ClF3N4O

> <MOLECULAR_WEIGHT>
406.79

> <EXACT_MASS>
406.0808233

> <JCHEM_ACCEPTOR_COUNT>
4

> <JCHEM_ATOM_COUNT>
42

> <JCHEM_AVERAGE_POLARIZABILITY>
37.84325040518129

> <JCHEM_BIOAVAILABILITY>
1

> <JCHEM_DONOR_COUNT>
2

> <JCHEM_FORMAL_CHARGE>
0

> <JCHEM_GHOSE_FILTER>
1

> <JCHEM_IUPAC>
2-(4-{[2-(3-chlorophenyl)-6-(trifluoromethyl)pyrimidin-4-yl]amino}phenyl)acetamide

> <ALOGPS_LOGP>
4.36

> <JCHEM_LOGP>
5.007647543666667

> <ALOGPS_LOGS>
-5.21

> <JCHEM_MDDR_LIKE_RULE>
1

> <JCHEM_NUMBER_OF_RINGS>
3

> <JCHEM_PHYSIOLOGICAL_CHARGE>
0

> <JCHEM_PKA>
16.157548618033513

> <JCHEM_PKA_STRONGEST_ACIDIC>
15.420027366774352

> <JCHEM_PKA_STRONGEST_BASIC>
2.728598026909367

> <JCHEM_POLAR_SURFACE_AREA>
80.9

> <JCHEM_REFRACTIVITY>
110.46940000000002

> <JCHEM_ROTATABLE_BOND_COUNT>
6

> <JCHEM_RULE_OF_FIVE>
0

> <ALOGPS_SOLUBILITY>
2.49e-03 g/l

> <JCHEM_TRADITIONAL_IUPAC>
(2R)-14-fluoro-2-methyl-6,9,10,19-tetraazapentacyclo[14.2.1.0^{2,6}.0^{8,18}.0^{12,17}]nonadeca-1(18),8,12(17),13,15-pentaen-11-one

> <JCHEM_VEBER_RULE>
0

> <DRUGBANK_ID>
DB14790

> <DRUG_GROUPS>
investigational

> <GENERIC_NAME>
BPN-14770

$$$$