121304016
  -OEChem-10252015073D

 77 80  0     1  0  0  0  0  0999 V2000
    0.7186    0.1097   -0.7666 P   0  0  1  0  0  0  0  0  0  0  0  0
   -2.8379    2.0149   -0.7980 O   0  0  0  0  0  0  0  0  0  0  0  0
   -4.6028    3.1073    2.1472 O   0  0  0  0  0  0  0  0  0  0  0  0
   -3.3301    4.7557    0.3676 O   0  0  0  0  0  0  0  0  0  0  0  0
   -0.0764    1.5219   -0.9343 O   0  0  0  0  0  0  0  0  0  0  0  0
   -0.3889   -0.7774    0.0186 O   0  0  0  0  0  0  0  0  0  0  0  0
    1.0570   -0.4658   -2.1188 O   0  0  0  0  0  0  0  0  0  0  0  0
    5.5671    0.7854    0.0445 O   0  0  0  0  0  0  0  0  0  0  0  0
    4.2564   -0.3904    1.5313 O   0  0  0  0  0  0  0  0  0  0  0  0
   -3.9014   -0.5985   -0.5828 N   0  0  0  0  0  0  0  0  0  0  0  0
   -3.3401   -0.3913   -1.7985 N   0  0  0  0  0  0  0  0  0  0  0  0
    1.9784    0.3737    0.2767 N   0  0  0  0  0  0  0  0  0  0  0  0
   -6.0695    2.9373   -1.0400 N   0  0  0  0  0  0  0  0  0  0  0  0
   -3.4518   -2.7805   -2.0953 N   0  0  0  0  0  0  0  0  0  0  0  0
   -4.3078   -4.2694   -0.5126 N   0  0  0  0  0  0  0  0  0  0  0  0
   -3.9598    1.8429    0.1059 C   0  0  2  0  0  0  0  0  0  0  0  0
   -3.5295    2.5821    1.3896 C   0  0  1  0  0  0  0  0  0  0  0  0
   -2.5850    3.6571    0.8879 C   0  0  1  0  0  0  0  0  0  0  0  0
   -1.8790    2.9446   -0.2531 C   0  0  1  0  0  0  0  0  0  0  0  0
   -4.2179    0.3575    0.3466 C   0  0  0  0  0  0  0  0  0  0  0  0
   -0.6555    2.1555    0.1944 C   0  0  0  0  0  0  0  0  0  0  0  0
   -5.1418    2.4560   -0.5361 C   0  0  0  0  0  0  0  0  0  0  0  0
   -4.7681   -0.2807    1.4377 C   0  0  0  0  0  0  0  0  0  0  0  0
   -4.2422   -1.8355   -0.0999 C   0  0  0  0  0  0  0  0  0  0  0  0
   -4.7842   -1.6702    1.1562 C   0  0  0  0  0  0  0  0  0  0  0  0
   -3.9947   -2.9954   -0.9227 C   0  0  0  0  0  0  0  0  0  0  0  0
    3.2285    0.9063   -0.2619 C   0  0  2  0  0  0  0  0  0  0  0  0
   -3.1498   -1.4865   -2.4787 C   0  0  0  0  0  0  0  0  0  0  0  0
    7.9923    0.9026    0.0299 C   0  0  0  0  0  0  0  0  0  0  0  0
    6.7374    0.3342    0.7124 C   0  0  0  0  0  0  0  0  0  0  0  0
    8.0198    0.6129   -1.4875 C   0  0  0  0  0  0  0  0  0  0  0  0
    9.2469    0.4225    0.7855 C   0  0  0  0  0  0  0  0  0  0  0  0
    4.3740    0.3454    0.5599 C   0  0  0  0  0  0  0  0  0  0  0  0
    3.2118    2.4272   -0.1933 C   0  0  0  0  0  0  0  0  0  0  0  0
   -0.1809   -2.0233    0.5458 C   0  0  0  0  0  0  0  0  0  0  0  0
    8.0925   -0.8605   -1.8640 C   0  0  0  0  0  0  0  0  0  0  0  0
   10.5473    1.0069    0.2529 C   0  0  0  0  0  0  0  0  0  0  0  0
    0.7452   -2.8841   -0.0430 C   0  0  0  0  0  0  0  0  0  0  0  0
   -0.8951   -2.4321    1.6719 C   0  0  0  0  0  0  0  0  0  0  0  0
    0.9573   -4.1539    0.4943 C   0  0  0  0  0  0  0  0  0  0  0  0
   -0.6833   -3.7016    2.2094 C   0  0  0  0  0  0  0  0  0  0  0  0
    0.2429   -4.5626    1.6206 C   0  0  0  0  0  0  0  0  0  0  0  0
   -2.9642    1.9036    2.0422 H   0  0  0  0  0  0  0  0  0  0  0  0
   -1.9191    4.0437    1.6648 H   0  0  0  0  0  0  0  0  0  0  0  0
   -1.6048    3.6259   -1.0662 H   0  0  0  0  0  0  0  0  0  0  0  0
   -0.9271    1.4059    0.9431 H   0  0  0  0  0  0  0  0  0  0  0  0
    0.0909    2.8247    0.6336 H   0  0  0  0  0  0  0  0  0  0  0  0
   -4.2202    3.6255    2.8757 H   0  0  0  0  0  0  0  0  0  0  0  0
   -5.1236    0.1960    2.3406 H   0  0  0  0  0  0  0  0  0  0  0  0
   -2.6918    5.3952    0.0082 H   0  0  0  0  0  0  0  0  0  0  0  0
   -5.1510   -2.4561    1.8015 H   0  0  0  0  0  0  0  0  0  0  0  0
    1.7708    0.7949    1.1813 H   0  0  0  0  0  0  0  0  0  0  0  0
    3.3723    0.5621   -1.2919 H   0  0  0  0  0  0  0  0  0  0  0  0
    7.9399    1.9966    0.1238 H   0  0  0  0  0  0  0  0  0  0  0  0
   -2.6946   -1.3865   -3.4777 H   0  0  0  0  0  0  0  0  0  0  0  0
    6.7045    0.6747    1.7549 H   0  0  0  0  0  0  0  0  0  0  0  0
    6.7610   -0.7620    0.7101 H   0  0  0  0  0  0  0  0  0  0  0  0
    8.8686    1.1346   -1.9447 H   0  0  0  0  0  0  0  0  0  0  0  0
    7.1273    1.0459   -1.9560 H   0  0  0  0  0  0  0  0  0  0  0  0
    9.1542    0.7095    1.8408 H   0  0  0  0  0  0  0  0  0  0  0  0
    9.3103   -0.6717    0.7694 H   0  0  0  0  0  0  0  0  0  0  0  0
   -4.7270   -4.4563    0.3921 H   0  0  0  0  0  0  0  0  0  0  0  0
   -4.1231   -5.0683   -1.1097 H   0  0  0  0  0  0  0  0  0  0  0  0
    2.3796    2.8423   -0.7710 H   0  0  0  0  0  0  0  0  0  0  0  0
    4.1351    2.8501   -0.6042 H   0  0  0  0  0  0  0  0  0  0  0  0
    3.1247    2.7840    0.8396 H   0  0  0  0  0  0  0  0  0  0  0  0
    7.2246   -1.4136   -1.4938 H   0  0  0  0  0  0  0  0  0  0  0  0
    8.9988   -1.3317   -1.4733 H   0  0  0  0  0  0  0  0  0  0  0  0
    8.1096   -0.9648   -2.9539 H   0  0  0  0  0  0  0  0  0  0  0  0
   10.7761    0.6329   -0.7491 H   0  0  0  0  0  0  0  0  0  0  0  0
   11.3795    0.7252    0.9063 H   0  0  0  0  0  0  0  0  0  0  0  0
   10.5016    2.0998    0.2157 H   0  0  0  0  0  0  0  0  0  0  0  0
    1.3138   -2.6045   -0.9221 H   0  0  0  0  0  0  0  0  0  0  0  0
   -1.6149   -1.7641    2.1367 H   0  0  0  0  0  0  0  0  0  0  0  0
    1.6773   -4.8251    0.0353 H   0  0  0  0  0  0  0  0  0  0  0  0
   -1.2394   -4.0195    3.0864 H   0  0  0  0  0  0  0  0  0  0  0  0
    0.4075   -5.5513    2.0388 H   0  0  0  0  0  0  0  0  0  0  0  0
  1  5  1  0  0  0  0
  1  6  1  0  0  0  0
  1  7  2  0  0  0  0
  1 12  1  0  0  0  0
  2 16  1  0  0  0  0
  2 19  1  0  0  0  0
  3 17  1  0  0  0  0
  3 48  1  0  0  0  0
  4 18  1  0  0  0  0
  4 50  1  0  0  0  0
  5 21  1  0  0  0  0
  6 35  1  0  0  0  0
  8 30  1  0  0  0  0
  8 33  1  0  0  0  0
  9 33  2  0  0  0  0
 10 11  1  0  0  0  0
 10 20  1  0  0  0  0
 10 24  1  0  0  0  0
 11 28  2  0  0  0  0
 12 27  1  0  0  0  0
 12 52  1  0  0  0  0
 13 22  3  0  0  0  0
 14 26  2  0  0  0  0
 14 28  1  0  0  0  0
 15 26  1  0  0  0  0
 15 62  1  0  0  0  0
 15 63  1  0  0  0  0
 16 17  1  0  0  0  0
 16 20  1  0  0  0  0
 16 22  1  0  0  0  0
 17 18  1  0  0  0  0
 17 43  1  0  0  0  0
 18 19  1  0  0  0  0
 18 44  1  0  0  0  0
 19 21  1  0  0  0  0
 19 45  1  0  0  0  0
 20 23  2  0  0  0  0
 21 46  1  0  0  0  0
 21 47  1  0  0  0  0
 23 25  1  0  0  0  0
 23 49  1  0  0  0  0
 24 25  2  0  0  0  0
 24 26  1  0  0  0  0
 25 51  1  0  0  0  0
 27 33  1  0  0  0  0
 27 34  1  0  0  0  0
 27 53  1  0  0  0  0
 28 55  1  0  0  0  0
 29 30  1  0  0  0  0
 29 31  1  0  0  0  0
 29 32  1  0  0  0  0
 29 54  1  0  0  0  0
 30 56  1  0  0  0  0
 30 57  1  0  0  0  0
 31 36  1  0  0  0  0
 31 58  1  0  0  0  0
 31 59  1  0  0  0  0
 32 37  1  0  0  0  0
 32 60  1  0  0  0  0
 32 61  1  0  0  0  0
 34 64  1  0  0  0  0
 34 65  1  0  0  0  0
 34 66  1  0  0  0  0
 35 38  2  0  0  0  0
 35 39  1  0  0  0  0
 36 67  1  0  0  0  0
 36 68  1  0  0  0  0
 36 69  1  0  0  0  0
 37 70  1  0  0  0  0
 37 71  1  0  0  0  0
 37 72  1  0  0  0  0
 38 40  1  0  0  0  0
 38 73  1  0  0  0  0
 39 41  2  0  0  0  0
 39 74  1  0  0  0  0
 40 42  2  0  0  0  0
 40 75  1  0  0  0  0
 41 42  1  0  0  0  0
 41 76  1  0  0  0  0
 42 77  1  0  0  0  0
M  END
> <DATABASE_ID>
DB14761

> <DATABASE_NAME>
drugbank

> <ORIGINAL_SOURCE>
PUBCHEM

> <ORIGINAL_SOURCE_URL>
https://pubchem.ncbi.nlm.nih.gov/rest/pug/compound/inchikey/RWWYLEGWBNMMLJ-YSOARWBDSA-N/SDF?record_type=3d

> <SMILES>
CCC(CC)COC(=O)[C@H](C)N[P@](=O)(OC[C@H]1O[C@](C#N)([C@H](O)[C@@H]1O)C1=CC=C2N1N=CN=C2N)OC1=CC=CC=C1

> <INCHI_IDENTIFIER>
InChI=1S/C27H35N6O8P/c1-4-18(5-2)13-38-26(36)17(3)32-42(37,41-19-9-7-6-8-10-19)39-14-21-23(34)24(35)27(15-28,40-21)22-12-11-20-25(29)30-16-31-33(20)22/h6-12,16-18,21,23-24,34-35H,4-5,13-14H2,1-3H3,(H,32,37)(H2,29,30,31)/t17-,21+,23+,24+,27-,42-/m0/s1

> <INCHI_KEY>
RWWYLEGWBNMMLJ-YSOARWBDSA-N

> <FORMULA>
C27H35N6O8P

> <MOLECULAR_WEIGHT>
602.585

> <EXACT_MASS>
602.225399109

> <JCHEM_ACCEPTOR_COUNT>
9

> <JCHEM_ATOM_COUNT>
77

> <JCHEM_AVERAGE_NEUTRAL_MICROSPECIES_CHARGE>
0.7965833328220823

> <JCHEM_AVERAGE_POLARIZABILITY>
59.88312412190663

> <JCHEM_BIOAVAILABILITY>
0

> <JCHEM_DONOR_COUNT>
4

> <JCHEM_FORMAL_CHARGE>
0

> <JCHEM_GHOSE_FILTER>
0

> <JCHEM_IUPAC>
2-ethylbutyl (2S)-2-{[(S)-{[(2R,3S,4R,5R)-5-{4-aminopyrrolo[2,1-f][1,2,4]triazin-7-yl}-5-cyano-3,4-dihydroxyoxolan-2-yl]methoxy}(phenoxy)phosphoryl]amino}propanoate

> <JCHEM_LOGP>
2.007206492000001

> <JCHEM_MDDR_LIKE_RULE>
1

> <JCHEM_NEUTRAL_CHARGE>
0

> <JCHEM_NUMBER_OF_RINGS>
4

> <JCHEM_PHYSIOLOGICAL_CHARGE>
0

> <JCHEM_PKA>
12.140645473906023

> <JCHEM_PKA_STRONGEST_ACIDIC>
10.234209703292144

> <JCHEM_PKA_STRONGEST_BASIC>
0.6479240250511147

> <JCHEM_POLAR_SURFACE_AREA>
203.54999999999995

> <JCHEM_REFRACTIVITY>
161.8087

> <JCHEM_ROTATABLE_BOND_COUNT>
14

> <JCHEM_RULE_OF_FIVE>
0

> <JCHEM_TRADITIONAL_IUPAC>
remdesivir

> <JCHEM_VEBER_RULE>
0

> <DRUGBANK_ID>
DB14761

> <DRUG_GROUPS>
approved; investigational

> <GENERIC_NAME>
Remdesivir

> <SYNONYMS>
RemdÃ©sivir; Remdesivir; Remdesivirum

> <PRODUCTS>
Veklury

$$$$