58438464
  -OEChem-05201910313D

 69 75  0     1  0  0  0  0  0999 V2000
   -9.9021    2.2521   -0.4391 S   0  0  0  0  0  0  0  0  0  0  0  0
   -5.1076   -0.2551   -1.4385 O   0  0  0  0  0  0  0  0  0  0  0  0
    1.5277   -1.5424    0.4562 N   0  0  0  0  0  0  0  0  0  0  0  0
   -3.0299   -0.0789   -0.4142 N   0  0  0  0  0  0  0  0  0  0  0  0
   -7.1734    1.7787    0.0516 N   0  0  0  0  0  0  0  0  0  0  0  0
    7.8322    1.7327   -1.2725 N   0  0  0  0  0  0  0  0  0  0  0  0
   -8.6915    0.2147    0.5402 N   0  0  0  0  0  0  0  0  0  0  0  0
    9.8887    2.4438   -0.2367 N   0  0  0  0  0  0  0  0  0  0  0  0
   -0.5285   -1.4507   -0.0389 C   0  0  0  0  0  0  0  0  0  0  0  0
    0.7487   -0.6478   -0.4224 C   0  0  0  0  0  0  0  0  0  0  0  0
    0.4809   -2.5747    0.3239 C   0  0  0  0  0  0  0  0  0  0  0  0
   -1.4623   -1.8061   -1.2012 C   0  0  0  0  0  0  0  0  0  0  0  0
   -1.3247   -0.9114    1.1615 C   0  0  0  0  0  0  0  0  0  0  0  0
    2.7112   -1.9852   -0.2634 C   0  0  2  0  0  0  0  0  0  0  0  0
   -2.1813    0.2791    0.7302 C   0  0  0  0  0  0  0  0  0  0  0  0
   -2.3029   -0.5891   -1.5796 C   0  0  0  0  0  0  0  0  0  0  0  0
    3.3353   -3.2272    0.4065 C   0  0  0  0  0  0  0  0  0  0  0  0
    3.8711   -1.0307   -0.2189 C   0  0  0  0  0  0  0  0  0  0  0  0
    4.8276   -3.2052    0.0449 C   0  0  0  0  0  0  0  0  0  0  0  0
    5.0740   -1.7315   -0.0490 C   0  0  0  0  0  0  0  0  0  0  0  0
   -4.4170    0.0534   -0.4638 C   0  0  0  0  0  0  0  0  0  0  0  0
    3.8720    0.3462   -0.3817 C   0  0  0  0  0  0  0  0  0  0  0  0
    6.2924   -1.0730   -0.0300 C   0  0  0  0  0  0  0  0  0  0  0  0
    5.0955    1.0197   -0.3498 C   0  0  0  0  0  0  0  0  0  0  0  0
   -5.0871    0.6082    0.7677 C   0  0  0  0  0  0  0  0  0  0  0  0
    6.2966    0.3155   -0.1743 C   0  0  0  0  0  0  0  0  0  0  0  0
   -6.5721    0.6539    0.5852 C   0  0  0  0  0  0  0  0  0  0  0  0
    7.5518    1.0361   -0.1516 C   0  0  0  0  0  0  0  0  0  0  0  0
   -7.4959   -0.3306    0.8959 C   0  0  0  0  0  0  0  0  0  0  0  0
    8.3786    0.9951    0.9525 C   0  0  0  0  0  0  0  0  0  0  0  0
   -8.4375    1.4583    0.0489 C   0  0  0  0  0  0  0  0  0  0  0  0
    9.5453    1.7252    0.8523 C   0  0  0  0  0  0  0  0  0  0  0  0
  -10.0132   -0.1630    0.5558 C   0  0  0  0  0  0  0  0  0  0  0  0
    8.9994    2.4039   -1.2474 C   0  0  0  0  0  0  0  0  0  0  0  0
  -10.8120    0.8045    0.0669 C   0  0  0  0  0  0  0  0  0  0  0  0
   10.5020    1.7438    1.9970 C   0  0  0  0  0  0  0  0  0  0  0  0
  -12.2921    0.7379   -0.0642 C   0  0  0  0  0  0  0  0  0  0  0  0
    0.2662   -3.1201    1.2492 H   0  0  0  0  0  0  0  0  0  0  0  0
    0.6197   -3.3144   -0.4767 H   0  0  0  0  0  0  0  0  0  0  0  0
    0.9839   -0.6749   -1.4949 H   0  0  0  0  0  0  0  0  0  0  0  0
    0.7417    0.4008   -0.1076 H   0  0  0  0  0  0  0  0  0  0  0  0
   -2.1230   -2.6301   -0.9032 H   0  0  0  0  0  0  0  0  0  0  0  0
   -0.6603   -0.6068    1.9786 H   0  0  0  0  0  0  0  0  0  0  0  0
   -1.9752   -1.7038    1.5533 H   0  0  0  0  0  0  0  0  0  0  0  0
   -0.8957   -2.1472   -2.0755 H   0  0  0  0  0  0  0  0  0  0  0  0
    2.5165   -2.2276   -1.3195 H   0  0  0  0  0  0  0  0  0  0  0  0
   -1.5487    1.1141    0.4072 H   0  0  0  0  0  0  0  0  0  0  0  0
   -2.7651    0.6314    1.5819 H   0  0  0  0  0  0  0  0  0  0  0  0
   -2.9946   -0.8542   -2.3852 H   0  0  0  0  0  0  0  0  0  0  0  0
   -1.6663    0.2246   -1.9464 H   0  0  0  0  0  0  0  0  0  0  0  0
    2.8583   -4.1642    0.0998 H   0  0  0  0  0  0  0  0  0  0  0  0
    3.2425   -3.1621    1.5011 H   0  0  0  0  0  0  0  0  0  0  0  0
    5.4333   -3.6833    0.8197 H   0  0  0  0  0  0  0  0  0  0  0  0
    5.0095   -3.6813   -0.9240 H   0  0  0  0  0  0  0  0  0  0  0  0
    2.9617    0.9106   -0.5400 H   0  0  0  0  0  0  0  0  0  0  0  0
    7.2131   -1.6370    0.0883 H   0  0  0  0  0  0  0  0  0  0  0  0
    5.0988    2.1013   -0.4686 H   0  0  0  0  0  0  0  0  0  0  0  0
   -4.7146    1.6205    0.9583 H   0  0  0  0  0  0  0  0  0  0  0  0
   -4.8530   -0.0277    1.6286 H   0  0  0  0  0  0  0  0  0  0  0  0
   -7.4005   -1.3209    1.3191 H   0  0  0  0  0  0  0  0  0  0  0  0
    8.1331    0.4332    1.8462 H   0  0  0  0  0  0  0  0  0  0  0  0
  -10.3104   -1.1321    0.9279 H   0  0  0  0  0  0  0  0  0  0  0  0
    9.2497    2.9723   -2.1347 H   0  0  0  0  0  0  0  0  0  0  0  0
   10.0209    2.1584    2.8886 H   0  0  0  0  0  0  0  0  0  0  0  0
   11.3775    2.3605    1.7683 H   0  0  0  0  0  0  0  0  0  0  0  0
   10.8518    0.7303    2.2176 H   0  0  0  0  0  0  0  0  0  0  0  0
  -12.7674    1.5316    0.5212 H   0  0  0  0  0  0  0  0  0  0  0  0
  -12.6836   -0.2205    0.2931 H   0  0  0  0  0  0  0  0  0  0  0  0
  -12.5921    0.8514   -1.1110 H   0  0  0  0  0  0  0  0  0  0  0  0
  1 31  1  0  0  0  0
  1 35  1  0  0  0  0
  2 21  2  0  0  0  0
  3 10  1  0  0  0  0
  3 11  1  0  0  0  0
  3 14  1  0  0  0  0
  4 15  1  0  0  0  0
  4 16  1  0  0  0  0
  4 21  1  0  0  0  0
  5 27  1  0  0  0  0
  5 31  2  0  0  0  0
  6 28  2  0  0  0  0
  6 34  1  0  0  0  0
  7 29  1  0  0  0  0
  7 31  1  0  0  0  0
  7 33  1  0  0  0  0
  8 32  1  0  0  0  0
  8 34  2  0  0  0  0
  9 10  1  0  0  0  0
  9 11  1  0  0  0  0
  9 12  1  0  0  0  0
  9 13  1  0  0  0  0
 10 40  1  0  0  0  0
 10 41  1  0  0  0  0
 11 38  1  0  0  0  0
 11 39  1  0  0  0  0
 12 16  1  0  0  0  0
 12 42  1  0  0  0  0
 12 45  1  0  0  0  0
 13 15  1  0  0  0  0
 13 43  1  0  0  0  0
 13 44  1  0  0  0  0
 14 17  1  0  0  0  0
 14 18  1  0  0  0  0
 14 46  1  0  0  0  0
 15 47  1  0  0  0  0
 15 48  1  0  0  0  0
 16 49  1  0  0  0  0
 16 50  1  0  0  0  0
 17 19  1  0  0  0  0
 17 51  1  0  0  0  0
 17 52  1  0  0  0  0
 18 20  2  0  0  0  0
 18 22  1  0  0  0  0
 19 20  1  0  0  0  0
 19 53  1  0  0  0  0
 19 54  1  0  0  0  0
 20 23  1  0  0  0  0
 21 25  1  0  0  0  0
 22 24  2  0  0  0  0
 22 55  1  0  0  0  0
 23 26  2  0  0  0  0
 23 56  1  0  0  0  0
 24 26  1  0  0  0  0
 24 57  1  0  0  0  0
 25 27  1  0  0  0  0
 25 58  1  0  0  0  0
 25 59  1  0  0  0  0
 26 28  1  0  0  0  0
 27 29  2  0  0  0  0
 28 30  1  0  0  0  0
 29 60  1  0  0  0  0
 30 32  2  0  0  0  0
 30 61  1  0  0  0  0
 32 36  1  0  0  0  0
 33 35  2  0  0  0  0
 33 62  1  0  0  0  0
 34 63  1  0  0  0  0
 35 37  1  0  0  0  0
 36 64  1  0  0  0  0
 36 65  1  0  0  0  0
 36 66  1  0  0  0  0
 37 67  1  0  0  0  0
 37 68  1  0  0  0  0
 37 69  1  0  0  0  0
M  END
> <DATABASE_ID>
DB14870

> <DATABASE_NAME>
drugbank

> <ORIGINAL_SOURCE>
PUBCHEM

> <ORIGINAL_SOURCE_URL>
https://pubchem.ncbi.nlm.nih.gov/rest/pug/compound/inchikey/ZIUDADZJCKGWKR-AREMUKBSSA-N/SDF?record_type=3d

> <SMILES>
CC1=CN2C=C(CC(=O)N3CCC4(CN(C4)[C@@H]4CCC5=C4C=CC(=C5)C4=CC(C)=NC=N4)CC3)N=C2S1

> <INCHI_IDENTIFIER>
InChI=1S/C29H32N6OS/c1-19-11-25(31-18-30-19)22-3-5-24-21(12-22)4-6-26(24)35-16-29(17-35)7-9-33(10-8-29)27(36)13-23-15-34-14-20(2)37-28(34)32-23/h3,5,11-12,14-15,18,26H,4,6-10,13,16-17H2,1-2H3/t26-/m1/s1

> <INCHI_KEY>
ZIUDADZJCKGWKR-AREMUKBSSA-N

> <FORMULA>
C29H32N6OS

> <MOLECULAR_WEIGHT>
512.68

> <EXACT_MASS>
512.235830848

> <JCHEM_ACCEPTOR_COUNT>
5

> <JCHEM_ATOM_COUNT>
69

> <JCHEM_AVERAGE_POLARIZABILITY>
58.838402848392555

> <JCHEM_BIOAVAILABILITY>
1

> <JCHEM_DONOR_COUNT>
0

> <JCHEM_FORMAL_CHARGE>
0

> <JCHEM_GHOSE_FILTER>
0

> <JCHEM_IUPAC>
2-{2-methylimidazo[2,1-b][1,3]thiazol-6-yl}-1-{2-[(1R)-5-(6-methylpyrimidin-4-yl)-2,3-dihydro-1H-inden-1-yl]-2,7-diazaspiro[3.5]nonan-7-yl}ethan-1-one

> <ALOGPS_LOGP>
3.69

> <JCHEM_LOGP>
3.7159661773333346

> <ALOGPS_LOGS>
-4.67

> <JCHEM_MDDR_LIKE_RULE>
0

> <JCHEM_NUMBER_OF_RINGS>
7

> <JCHEM_PHYSIOLOGICAL_CHARGE>
1

> <JCHEM_PKA_STRONGEST_BASIC>
8.671411244357824

> <JCHEM_POLAR_SURFACE_AREA>
66.63

> <JCHEM_REFRACTIVITY>
157.5139

> <JCHEM_ROTATABLE_BOND_COUNT>
4

> <JCHEM_RULE_OF_FIVE>
0

> <ALOGPS_SOLUBILITY>
1.10e-02 g/l

> <JCHEM_TRADITIONAL_IUPAC>
(2R)-14-fluoro-2-methyl-6,9,10,19-tetraazapentacyclo[14.2.1.0^{2,6}.0^{8,18}.0^{12,17}]nonadeca-1(18),8,12(17),13,15-pentaen-11-one

> <JCHEM_VEBER_RULE>
0

> <DRUGBANK_ID>
DB14870

> <DRUG_GROUPS>
investigational

> <GENERIC_NAME>
PF-5190457

$$$$