3949
  -OEChem-06141816043D

 64 67  0     0  0  0  0  0  0999 V2000
   -4.0877   -5.3268   -0.9908 F   0  0  0  0  0  0  0  0  0  0  0  0
   -7.1291    3.4433   -0.2688 F   0  0  0  0  0  0  0  0  0  0  0  0
    4.3739    1.0115   -2.0655 O   0  0  0  0  0  0  0  0  0  0  0  0
    6.5132   -0.4930   -1.1944 O   0  0  0  0  0  0  0  0  0  0  0  0
    6.7280   -1.1637    1.4832 O   0  0  0  0  0  0  0  0  0  0  0  0
   -1.6042    0.3891    0.0819 N   0  0  0  0  0  0  0  0  0  0  0  0
    1.0855    1.4302    0.2827 N   0  0  0  0  0  0  0  0  0  0  0  0
   -1.3531    1.7806    0.4769 C   0  0  0  0  0  0  0  0  0  0  0  0
   -0.4832   -0.4682    0.4864 C   0  0  0  0  0  0  0  0  0  0  0  0
   -0.0358    2.2880   -0.1197 C   0  0  0  0  0  0  0  0  0  0  0  0
    0.8339    0.0385   -0.1114 C   0  0  0  0  0  0  0  0  0  0  0  0
   -2.8597   -0.0941    0.6529 C   0  0  0  0  0  0  0  0  0  0  0  0
    2.3404    1.9131   -0.2903 C   0  0  0  0  0  0  0  0  0  0  0  0
   -3.1917   -1.5110    0.2085 C   0  0  0  0  0  0  0  0  0  0  0  0
   -4.0159    0.8631    0.4040 C   0  0  0  0  0  0  0  0  0  0  0  0
    3.5175    1.0925    0.1653 C   0  0  0  0  0  0  0  0  0  0  0  0
   -3.9150   -2.3243    1.0567 C   0  0  0  0  0  0  0  0  0  0  0  0
   -4.7731    0.7111   -0.7397 C   0  0  0  0  0  0  0  0  0  0  0  0
   -2.7598   -1.9398   -1.0301 C   0  0  0  0  0  0  0  0  0  0  0  0
   -4.2722    1.8549    1.3286 C   0  0  0  0  0  0  0  0  0  0  0  0
    4.4791    0.6788   -0.7471 C   0  0  0  0  0  0  0  0  0  0  0  0
    3.6196    0.7585    1.5095 C   0  0  0  0  0  0  0  0  0  0  0  0
   -4.2197   -3.6230    0.6487 C   0  0  0  0  0  0  0  0  0  0  0  0
   -5.8326    1.5890   -0.9686 C   0  0  0  0  0  0  0  0  0  0  0  0
   -3.0647   -3.2383   -1.4381 C   0  0  0  0  0  0  0  0  0  0  0  0
   -5.3319    2.7327    1.0998 C   0  0  0  0  0  0  0  0  0  0  0  0
    5.5621   -0.0825   -0.3076 C   0  0  0  0  0  0  0  0  0  0  0  0
    4.7025   -0.0028    1.9489 C   0  0  0  0  0  0  0  0  0  0  0  0
   -3.7946   -4.0800   -0.5988 C   0  0  0  0  0  0  0  0  0  0  0  0
   -6.1120    2.5998   -0.0488 C   0  0  0  0  0  0  0  0  0  0  0  0
    5.6738   -0.4233    1.0404 C   0  0  0  0  0  0  0  0  0  0  0  0
    4.9859    2.2321   -2.4750 C   0  0  0  0  0  0  0  0  0  0  0  0
    7.8492   -0.0548   -0.9588 C   0  0  0  0  0  0  0  0  0  0  0  0
    6.5715   -2.5813    1.4791 C   0  0  0  0  0  0  0  0  0  0  0  0
   -2.1115    2.4609    0.0777 H   0  0  0  0  0  0  0  0  0  0  0  0
   -1.3204    1.8893    1.5692 H   0  0  0  0  0  0  0  0  0  0  0  0
   -0.3919   -0.4909    1.5818 H   0  0  0  0  0  0  0  0  0  0  0  0
   -0.5882   -1.5075    0.1641 H   0  0  0  0  0  0  0  0  0  0  0  0
   -0.1204    2.3343   -1.2142 H   0  0  0  0  0  0  0  0  0  0  0  0
    0.1342    3.3109    0.2380 H   0  0  0  0  0  0  0  0  0  0  0  0
    1.6182   -0.6386    0.2430 H   0  0  0  0  0  0  0  0  0  0  0  0
    0.7978   -0.0566   -1.2057 H   0  0  0  0  0  0  0  0  0  0  0  0
   -2.7270   -0.1503    1.7460 H   0  0  0  0  0  0  0  0  0  0  0  0
    2.5240    2.9473    0.0297 H   0  0  0  0  0  0  0  0  0  0  0  0
    2.2597    1.9307   -1.3838 H   0  0  0  0  0  0  0  0  0  0  0  0
   -4.2517   -1.9769    2.0289 H   0  0  0  0  0  0  0  0  0  0  0  0
   -4.5779   -0.0427   -1.4927 H   0  0  0  0  0  0  0  0  0  0  0  0
   -2.2153   -1.3035   -1.7210 H   0  0  0  0  0  0  0  0  0  0  0  0
   -3.6832    1.9623    2.2343 H   0  0  0  0  0  0  0  0  0  0  0  0
    2.8837    1.0875    2.2379 H   0  0  0  0  0  0  0  0  0  0  0  0
   -4.7884   -4.2783    1.3017 H   0  0  0  0  0  0  0  0  0  0  0  0
   -6.4372    1.4897   -1.8653 H   0  0  0  0  0  0  0  0  0  0  0  0
   -2.7396   -3.5926   -2.4119 H   0  0  0  0  0  0  0  0  0  0  0  0
   -5.5515    3.5180    1.8171 H   0  0  0  0  0  0  0  0  0  0  0  0
    4.7856   -0.2608    3.0012 H   0  0  0  0  0  0  0  0  0  0  0  0
    4.5896    3.0794   -1.9066 H   0  0  0  0  0  0  0  0  0  0  0  0
    6.0720    2.1763   -2.3527 H   0  0  0  0  0  0  0  0  0  0  0  0
    4.7625    2.3881   -3.5340 H   0  0  0  0  0  0  0  0  0  0  0  0
    8.4105   -0.8299   -0.4296 H   0  0  0  0  0  0  0  0  0  0  0  0
    7.8846    0.8889   -0.4031 H   0  0  0  0  0  0  0  0  0  0  0  0
    8.3269    0.1045   -1.9300 H   0  0  0  0  0  0  0  0  0  0  0  0
    7.4996   -3.0293    1.8444 H   0  0  0  0  0  0  0  0  0  0  0  0
    5.7539   -2.8782    2.1435 H   0  0  0  0  0  0  0  0  0  0  0  0
    6.3827   -2.9460    0.4645 H   0  0  0  0  0  0  0  0  0  0  0  0
  1 29  1  0  0  0  0
  2 30  1  0  0  0  0
  3 21  1  0  0  0  0
  3 32  1  0  0  0  0
  4 27  1  0  0  0  0
  4 33  1  0  0  0  0
  5 31  1  0  0  0  0
  5 34  1  0  0  0  0
  6  8  1  0  0  0  0
  6  9  1  0  0  0  0
  6 12  1  0  0  0  0
  7 10  1  0  0  0  0
  7 11  1  0  0  0  0
  7 13  1  0  0  0  0
  8 10  1  0  0  0  0
  8 35  1  0  0  0  0
  8 36  1  0  0  0  0
  9 11  1  0  0  0  0
  9 37  1  0  0  0  0
  9 38  1  0  0  0  0
 10 39  1  0  0  0  0
 10 40  1  0  0  0  0
 11 41  1  0  0  0  0
 11 42  1  0  0  0  0
 12 14  1  0  0  0  0
 12 15  1  0  0  0  0
 12 43  1  0  0  0  0
 13 16  1  0  0  0  0
 13 44  1  0  0  0  0
 13 45  1  0  0  0  0
 14 17  2  0  0  0  0
 14 19  1  0  0  0  0
 15 18  2  0  0  0  0
 15 20  1  0  0  0  0
 16 21  2  0  0  0  0
 16 22  1  0  0  0  0
 17 23  1  0  0  0  0
 17 46  1  0  0  0  0
 18 24  1  0  0  0  0
 18 47  1  0  0  0  0
 19 25  2  0  0  0  0
 19 48  1  0  0  0  0
 20 26  2  0  0  0  0
 20 49  1  0  0  0  0
 21 27  1  0  0  0  0
 22 28  2  0  0  0  0
 22 50  1  0  0  0  0
 23 29  2  0  0  0  0
 23 51  1  0  0  0  0
 24 30  2  0  0  0  0
 24 52  1  0  0  0  0
 25 29  1  0  0  0  0
 25 53  1  0  0  0  0
 26 30  1  0  0  0  0
 26 54  1  0  0  0  0
 27 31  2  0  0  0  0
 28 31  1  0  0  0  0
 28 55  1  0  0  0  0
 32 56  1  0  0  0  0
 32 57  1  0  0  0  0
 32 58  1  0  0  0  0
 33 59  1  0  0  0  0
 33 60  1  0  0  0  0
 33 61  1  0  0  0  0
 34 62  1  0  0  0  0
 34 63  1  0  0  0  0
 34 64  1  0  0  0  0
M  END
> <DATABASE_ID>
DB14065

> <DATABASE_NAME>
drugbank

> <ORIGINAL_SOURCE>
PUBCHEM

> <ORIGINAL_SOURCE_URL>
https://pubchem.ncbi.nlm.nih.gov/rest/pug/compound/inchikey/JQSAYKKFZOSZGJ-UHFFFAOYSA-N/SDF?record_type=3d

> <SMILES>
COC1=CC=C(CN2CCN(CC2)C(C2=CC=C(F)C=C2)C2=CC=C(F)C=C2)C(OC)=C1OC

> <INCHI_IDENTIFIER>
InChI=1S/C27H30F2N2O3/c1-32-24-13-8-21(26(33-2)27(24)34-3)18-30-14-16-31(17-15-30)25(19-4-9-22(28)10-5-19)20-6-11-23(29)12-7-20/h4-13,25H,14-18H2,1-3H3

> <INCHI_KEY>
JQSAYKKFZOSZGJ-UHFFFAOYSA-N

> <FORMULA>
C27H30F2N2O3

> <MOLECULAR_WEIGHT>
468.545

> <EXACT_MASS>
468.22244916

> <JCHEM_ACCEPTOR_COUNT>
5

> <JCHEM_ATOM_COUNT>
64

> <JCHEM_AVERAGE_POLARIZABILITY>
49.18712355052203

> <JCHEM_BIOAVAILABILITY>
1

> <JCHEM_DONOR_COUNT>
0

> <JCHEM_FORMAL_CHARGE>
0

> <JCHEM_GHOSE_FILTER>
1

> <JCHEM_IUPAC>
1-[bis(4-fluorophenyl)methyl]-4-[(2,3,4-trimethoxyphenyl)methyl]piperazine

> <ALOGPS_LOGP>
4.47

> <JCHEM_LOGP>
5.082865542333333

> <ALOGPS_LOGS>
-4.84

> <JCHEM_MDDR_LIKE_RULE>
1

> <JCHEM_NUMBER_OF_RINGS>
4

> <JCHEM_PHYSIOLOGICAL_CHARGE>
1

> <JCHEM_PKA_STRONGEST_BASIC>
6.731303961373706

> <JCHEM_POLAR_SURFACE_AREA>
34.17

> <JCHEM_REFRACTIVITY>
129.36860000000004

> <JCHEM_ROTATABLE_BOND_COUNT>
8

> <JCHEM_RULE_OF_FIVE>
0

> <ALOGPS_SOLUBILITY>
6.73e-03 g/l

> <JCHEM_TRADITIONAL_IUPAC>
lomerizine

> <JCHEM_VEBER_RULE>
1

> <DRUGBANK_ID>
DB14065

> <DRUG_GROUPS>
experimental

> <GENERIC_NAME>
Lomerizine

> <SYNONYMS>
Lomerazine

> <SALTS>
Lomerizine dihydrochloride

$$$$