91844684
  -OEChem-05201910403D

 45 48  0     0  0  0  0  0  0999 V2000
    5.5677   -1.8002   -2.1593 F   0  0  0  0  0  0  0  0  0  0  0  0
    6.6814   -1.9977   -0.3087 F   0  0  0  0  0  0  0  0  0  0  0  0
    5.0928   -3.4075   -0.7742 F   0  0  0  0  0  0  0  0  0  0  0  0
   -6.2324   -2.6151   -0.5042 O   0  0  0  0  0  0  0  0  0  0  0  0
   -2.4879   -1.6298    1.0756 O   0  0  0  0  0  0  0  0  0  0  0  0
    0.3572    1.5149    1.0689 N   0  0  0  0  0  0  0  0  0  0  0  0
   -0.5759    0.5500    1.0132 N   0  0  0  0  0  0  0  0  0  0  0  0
   -2.6831    0.4059   -0.0911 N   0  0  0  0  0  0  0  0  0  0  0  0
    0.0445    2.6399    0.3546 C   0  0  0  0  0  0  0  0  0  0  0  0
    1.5541    1.2901    1.8461 C   0  0  0  0  0  0  0  0  0  0  0  0
   -1.1981    2.3798   -0.2124 C   0  0  0  0  0  0  0  0  0  0  0  0
   -1.5205    1.0797    0.2326 C   0  0  0  0  0  0  0  0  0  0  0  0
    2.5630    0.4112    1.1495 C   0  0  0  0  0  0  0  0  0  0  0  0
    0.7335    3.8392    0.1621 C   0  0  0  0  0  0  0  0  0  0  0  0
   -1.8043    3.3568   -1.0196 C   0  0  0  0  0  0  0  0  0  0  0  0
    3.6799    0.9801    0.5378 C   0  0  0  0  0  0  0  0  0  0  0  0
    2.3781   -0.9711    1.1166 C   0  0  0  0  0  0  0  0  0  0  0  0
    0.1172    4.8022   -0.6436 C   0  0  0  0  0  0  0  0  0  0  0  0
   -1.1300    4.5670   -1.2257 C   0  0  0  0  0  0  0  0  0  0  0  0
    4.4274   -1.2150   -0.1395 C   0  0  0  0  0  0  0  0  0  0  0  0
    4.6122    0.1671   -0.1067 C   0  0  0  0  0  0  0  0  0  0  0  0
    3.3103   -1.7842    0.4722 C   0  0  0  0  0  0  0  0  0  0  0  0
   -3.1001   -0.8729    0.3297 C   0  0  0  0  0  0  0  0  0  0  0  0
   -4.4269   -1.3181   -0.1712 C   0  0  0  0  0  0  0  0  0  0  0  0
   -5.0247   -2.5241    0.1123 C   0  0  0  0  0  0  0  0  0  0  0  0
    5.4223   -2.0843   -0.8313 C   0  0  0  0  0  0  0  0  0  0  0  0
   -5.3250   -0.6233   -1.0161 C   0  0  0  0  0  0  0  0  0  0  0  0
   -4.6251   -3.6860    0.9212 C   0  0  0  0  0  0  0  0  0  0  0  0
   -6.4076   -1.4544   -1.1887 C   0  0  0  0  0  0  0  0  0  0  0  0
    1.2499    0.8303    2.7954 H   0  0  0  0  0  0  0  0  0  0  0  0
    1.9934    2.2576    2.1126 H   0  0  0  0  0  0  0  0  0  0  0  0
    1.7034    4.0282    0.6079 H   0  0  0  0  0  0  0  0  0  0  0  0
   -2.7737    3.1887   -1.4789 H   0  0  0  0  0  0  0  0  0  0  0  0
   -3.3032    0.9288   -0.7025 H   0  0  0  0  0  0  0  0  0  0  0  0
    3.8347    2.0556    0.5545 H   0  0  0  0  0  0  0  0  0  0  0  0
    1.5157   -1.4291    1.5934 H   0  0  0  0  0  0  0  0  0  0  0  0
    0.6194    5.7501   -0.8201 H   0  0  0  0  0  0  0  0  0  0  0  0
   -1.5851    5.3333   -1.8478 H   0  0  0  0  0  0  0  0  0  0  0  0
    5.4788    0.6197   -0.5813 H   0  0  0  0  0  0  0  0  0  0  0  0
    3.1482   -2.8584    0.4585 H   0  0  0  0  0  0  0  0  0  0  0  0
   -5.2190    0.3580   -1.4555 H   0  0  0  0  0  0  0  0  0  0  0  0
   -3.6895   -4.1137    0.5478 H   0  0  0  0  0  0  0  0  0  0  0  0
   -5.3855   -4.4732    0.8933 H   0  0  0  0  0  0  0  0  0  0  0  0
   -4.4825   -3.3978    1.9673 H   0  0  0  0  0  0  0  0  0  0  0  0
   -7.3336   -1.3715   -1.7387 H   0  0  0  0  0  0  0  0  0  0  0  0
  1 26  1  0  0  0  0
  2 26  1  0  0  0  0
  3 26  1  0  0  0  0
  4 25  1  0  0  0  0
  4 29  1  0  0  0  0
  5 23  2  0  0  0  0
  6  7  1  0  0  0  0
  6  9  1  0  0  0  0
  6 10  1  0  0  0  0
  7 12  2  0  0  0  0
  8 12  1  0  0  0  0
  8 23  1  0  0  0  0
  8 34  1  0  0  0  0
  9 11  1  0  0  0  0
  9 14  2  0  0  0  0
 10 13  1  0  0  0  0
 10 30  1  0  0  0  0
 10 31  1  0  0  0  0
 11 12  1  0  0  0  0
 11 15  2  0  0  0  0
 13 16  2  0  0  0  0
 13 17  1  0  0  0  0
 14 18  1  0  0  0  0
 14 32  1  0  0  0  0
 15 19  1  0  0  0  0
 15 33  1  0  0  0  0
 16 21  1  0  0  0  0
 16 35  1  0  0  0  0
 17 22  2  0  0  0  0
 17 36  1  0  0  0  0
 18 19  2  0  0  0  0
 18 37  1  0  0  0  0
 19 38  1  0  0  0  0
 20 21  2  0  0  0  0
 20 22  1  0  0  0  0
 20 26  1  0  0  0  0
 21 39  1  0  0  0  0
 22 40  1  0  0  0  0
 23 24  1  0  0  0  0
 24 25  2  0  0  0  0
 24 27  1  0  0  0  0
 25 28  1  0  0  0  0
 27 29  2  0  0  0  0
 27 41  1  0  0  0  0
 28 42  1  0  0  0  0
 28 43  1  0  0  0  0
 28 44  1  0  0  0  0
 29 45  1  0  0  0  0
M  END
> <DATABASE_ID>
DB14995

> <DATABASE_NAME>
drugbank

> <ORIGINAL_SOURCE>
PUBCHEM

> <ORIGINAL_SOURCE_URL>
https://pubchem.ncbi.nlm.nih.gov/rest/pug/compound/inchikey/XLLRLAABUFOJPC-UHFFFAOYSA-N/SDF?record_type=3d

> <SMILES>
CC1=C(C=CO1)C(=O)NC1=NN(CC2=CC=C(C=C2)C(F)(F)F)C2=CC=CC=C12

> <INCHI_IDENTIFIER>
InChI=1S/C21H16F3N3O2/c1-13-16(10-11-29-13)20(28)25-19-17-4-2-3-5-18(17)27(26-19)12-14-6-8-15(9-7-14)21(22,23)24/h2-11H,12H2,1H3,(H,25,26,28)

> <INCHI_KEY>
XLLRLAABUFOJPC-UHFFFAOYSA-N

> <FORMULA>
C21H16F3N3O2

> <MOLECULAR_WEIGHT>
399.373

> <EXACT_MASS>
399.119461256

> <JCHEM_ACCEPTOR_COUNT>
2

> <JCHEM_ATOM_COUNT>
45

> <JCHEM_AVERAGE_POLARIZABILITY>
37.98262899469586

> <JCHEM_BIOAVAILABILITY>
1

> <JCHEM_DONOR_COUNT>
1

> <JCHEM_FORMAL_CHARGE>
0

> <JCHEM_GHOSE_FILTER>
1

> <JCHEM_IUPAC>
2-methyl-N-(1-{[4-(trifluoromethyl)phenyl]methyl}-1H-indazol-3-yl)furan-3-carboxamide

> <ALOGPS_LOGP>
4.63

> <JCHEM_LOGP>
5.048454531999999

> <ALOGPS_LOGS>
-4.34

> <JCHEM_MDDR_LIKE_RULE>
0

> <JCHEM_NUMBER_OF_RINGS>
4

> <JCHEM_PHYSIOLOGICAL_CHARGE>
0

> <JCHEM_PKA_STRONGEST_ACIDIC>
13.24414660515855

> <JCHEM_PKA_STRONGEST_BASIC>
0.10756008937659756

> <JCHEM_POLAR_SURFACE_AREA>
60.06

> <JCHEM_REFRACTIVITY>
115.38550000000005

> <JCHEM_ROTATABLE_BOND_COUNT>
5

> <JCHEM_RULE_OF_FIVE>
0

> <ALOGPS_SOLUBILITY>
1.82e-02 g/l

> <JCHEM_TRADITIONAL_IUPAC>
(2R)-14-fluoro-2-methyl-6,9,10,19-tetraazapentacyclo[14.2.1.0^{2,6}.0^{8,18}.0^{12,17}]nonadeca-1(18),8,12(17),13,15-pentaen-11-one

> <JCHEM_VEBER_RULE>
0

> <DRUGBANK_ID>
DB14995

> <DRUG_GROUPS>
investigational

> <GENERIC_NAME>
NP-G2-044

$$$$