70754
  -OEChem-04032011003D

 19 19  0     0  0  0  0  0  0999 V2000
    2.7626   -1.4147   -0.0001 Cl  0  0  0  0  0  0  0  0  0  0  0  0
    2.2819    1.5525   -0.0003 O   0  0  0  0  0  0  0  0  0  0  0  0
   -1.2543    0.6464    0.0003 C   0  0  0  0  0  0  0  0  0  0  0  0
   -1.1764   -0.7464    0.0004 C   0  0  0  0  0  0  0  0  0  0  0  0
   -0.0873    1.4103    0.0001 C   0  0  0  0  0  0  0  0  0  0  0  0
    0.0687   -1.3753    0.0003 C   0  0  0  0  0  0  0  0  0  0  0  0
    1.1577    0.7814    0.0000 C   0  0  0  0  0  0  0  0  0  0  0  0
   -2.5760    1.3417   -0.0001 C   0  0  0  0  0  0  0  0  0  0  0  0
   -2.4125   -1.5846   -0.0006 C   0  0  0  0  0  0  0  0  0  0  0  0
    1.2358   -0.6114    0.0001 C   0  0  0  0  0  0  0  0  0  0  0  0
   -0.1459    2.4962    0.0000 H   0  0  0  0  0  0  0  0  0  0  0  0
    0.1311   -2.4613    0.0002 H   0  0  0  0  0  0  0  0  0  0  0  0
   -3.1508    1.0780    0.8935 H   0  0  0  0  0  0  0  0  0  0  0  0
   -2.4620    2.4315   -0.0002 H   0  0  0  0  0  0  0  0  0  0  0  0
   -3.1505    1.0777   -0.8940 H   0  0  0  0  0  0  0  0  0  0  0  0
   -2.1778   -2.6547    0.0008 H   0  0  0  0  0  0  0  0  0  0  0  0
   -3.0143   -1.3855    0.8921 H   0  0  0  0  0  0  0  0  0  0  0  0
   -3.0117   -1.3872   -0.8954 H   0  0  0  0  0  0  0  0  0  0  0  0
    2.0263    2.4909   -0.0004 H   0  0  0  0  0  0  0  0  0  0  0  0
  1 10  1  0  0  0  0
  2  7  1  0  0  0  0
  2 19  1  0  0  0  0
  3  4  1  0  0  0  0
  3  5  2  0  0  0  0
  3  8  1  0  0  0  0
  4  6  2  0  0  0  0
  4  9  1  0  0  0  0
  5  7  1  0  0  0  0
  5 11  1  0  0  0  0
  6 10  1  0  0  0  0
  6 12  1  0  0  0  0
  7 10  2  0  0  0  0
  8 13  1  0  0  0  0
  8 14  1  0  0  0  0
  8 15  1  0  0  0  0
  9 16  1  0  0  0  0
  9 17  1  0  0  0  0
  9 18  1  0  0  0  0
M  END
> <DATABASE_ID>
DB15658

> <DATABASE_NAME>
drugbank

> <ORIGINAL_SOURCE>
PUBCHEM

> <ORIGINAL_SOURCE_URL>
https://pubchem.ncbi.nlm.nih.gov/rest/pug/compound/inchikey/PSOJLBXHRBFLLQ-UHFFFAOYSA-N/SDF?record_type=3d

> <SMILES>
CC1=CC(O)=C(Cl)C=C1C

> <INCHI_IDENTIFIER>
InChI=1S/C8H9ClO/c1-5-3-7(9)8(10)4-6(5)2/h3-4,10H,1-2H3

> <INCHI_KEY>
PSOJLBXHRBFLLQ-UHFFFAOYSA-N

> <FORMULA>
C8H9ClO

> <MOLECULAR_WEIGHT>
156.61

> <EXACT_MASS>
156.0341926

> <JCHEM_ACCEPTOR_COUNT>
1

> <JCHEM_ATOM_COUNT>
19

> <JCHEM_AVERAGE_NEUTRAL_MICROSPECIES_CHARGE>
-3.8822132564884525e-09

> <JCHEM_AVERAGE_POLARIZABILITY>
16.133165187191956

> <JCHEM_BIOAVAILABILITY>
1

> <JCHEM_DONOR_COUNT>
1

> <JCHEM_FORMAL_CHARGE>
0

> <JCHEM_GHOSE_FILTER>
0

> <JCHEM_IUPAC>
2-chloro-4,5-dimethylphenol

> <ALOGPS_LOGP>
3.19

> <JCHEM_LOGP>
3.3005679493333333

> <ALOGPS_LOGS>
-2.38

> <JCHEM_MDDR_LIKE_RULE>
0

> <JCHEM_NEUTRAL_CHARGE>
0

> <JCHEM_NUMBER_OF_RINGS>
1

> <JCHEM_PHYSIOLOGICAL_CHARGE>
0

> <JCHEM_PKA_STRONGEST_ACIDIC>
8.41092061008174

> <JCHEM_PKA_STRONGEST_BASIC>
-6.684551636208903

> <JCHEM_POLAR_SURFACE_AREA>
20.23

> <JCHEM_REFRACTIVITY>
42.9261

> <JCHEM_ROTATABLE_BOND_COUNT>
0

> <JCHEM_RULE_OF_FIVE>
1

> <ALOGPS_SOLUBILITY>
6.46e-01 g/l

> <JCHEM_TRADITIONAL_IUPAC>
2-chloro-4,5-dimethylphenol

> <JCHEM_VEBER_RULE>
1

> <DRUGBANK_ID>
DB15658

> <DRUG_GROUPS>
experimental

> <GENERIC_NAME>
2-chloro-4,5-dimethylphenol

> <SYNONYMS>
2-Chloro-4,5-dimethylphenol; 2-Chloro-4,5-xylenol; 3,4-Dimethyl-6-chlorophenol; 6-Chloro-3,4-xylenol; Banol phenol

> <PRODUCTS>
Antibacterial Hand Sanitizer

$$$$