122460381
  -OEChem-05201910523D

 72 76  0     1  0  0  0  0  0999 V2000
   -5.3934    1.0179   -1.2228 F   0  0  0  0  0  0  0  0  0  0  0  0
    2.9647   -0.4956    1.9886 O   0  0  0  0  0  0  0  0  0  0  0  0
    1.2960   -1.3366   -2.0227 O   0  0  0  0  0  0  0  0  0  0  0  0
    1.4288    4.4658    0.2953 N   0  0  0  0  0  0  0  0  0  0  0  0
    4.8381   -0.6037    0.6198 N   0  0  0  0  0  0  0  0  0  0  0  0
    1.3980   -0.1503   -0.0312 N   0  0  0  0  0  0  0  0  0  0  0  0
    7.2468   -1.9744   -0.1067 N   0  0  0  0  0  0  0  0  0  0  0  0
   -4.4963   -2.6198    0.2392 N   0  0  0  0  0  0  0  0  0  0  0  0
   -4.9274   -2.7155    1.5073 N   0  0  0  0  0  0  0  0  0  0  0  0
   -6.1917   -3.1214    1.4645 N   0  0  0  0  0  0  0  0  0  0  0  0
   -0.0378    4.4353    0.2959 C   0  0  1  0  0  0  0  0  0  0  0  0
   -0.7741    3.3363    1.0361 C   0  0  1  0  0  0  0  0  0  0  0  0
   -0.8067    4.7600    1.5426 C   0  0  0  0  0  0  0  0  0  0  0  0
   -2.0119    2.7151    0.4308 C   0  0  0  0  0  0  0  0  0  0  0  0
    1.9811    4.0927   -1.0016 C   0  0  0  0  0  0  0  0  0  0  0  0
    1.9564    2.5742   -1.1716 C   0  0  0  0  0  0  0  0  0  0  0  0
   -2.2484    2.8239   -0.9395 C   0  0  0  0  0  0  0  0  0  0  0  0
   -2.9178    2.0326    1.2428 C   0  0  0  0  0  0  0  0  0  0  0  0
    2.7904    1.8833   -0.0876 C   0  0  0  0  0  0  0  0  0  0  0  0
    2.7231    0.3675   -0.2054 C   0  0  1  0  0  0  0  0  0  0  0  0
   -3.3905    2.2501   -1.4980 C   0  0  0  0  0  0  0  0  0  0  0  0
   -4.0599    1.4588    0.6845 C   0  0  0  0  0  0  0  0  0  0  0  0
   -4.2962    1.5676   -0.6860 C   0  0  0  0  0  0  0  0  0  0  0  0
    3.5122   -0.2804    0.9043 C   0  0  0  0  0  0  0  0  0  0  0  0
    5.6684   -1.2390    1.6417 C   0  0  0  0  0  0  0  0  0  0  0  0
    5.5541   -0.2429   -0.6074 C   0  0  0  0  0  0  0  0  0  0  0  0
    6.4660   -2.4066    1.0616 C   0  0  0  0  0  0  0  0  0  0  0  0
    6.3598   -1.4274   -1.1441 C   0  0  0  0  0  0  0  0  0  0  0  0
    8.0340   -3.0863   -0.6381 C   0  0  0  0  0  0  0  0  0  0  0  0
    0.7804   -0.9741   -0.9686 C   0  0  0  0  0  0  0  0  0  0  0  0
   -0.6054   -1.4056   -0.6521 C   0  0  0  0  0  0  0  0  0  0  0  0
   -1.4901   -1.7233   -1.6828 C   0  0  0  0  0  0  0  0  0  0  0  0
   -1.0217   -1.4939    0.6762 C   0  0  0  0  0  0  0  0  0  0  0  0
   -2.7910   -2.1290   -1.3850 C   0  0  0  0  0  0  0  0  0  0  0  0
   -2.3225   -1.8995    0.9740 C   0  0  0  0  0  0  0  0  0  0  0  0
   -3.2072   -2.2171   -0.0567 C   0  0  0  0  0  0  0  0  0  0  0  0
   -5.4694   -2.9616   -0.6487 C   0  0  0  0  0  0  0  0  0  0  0  0
   -6.5389   -3.2768    0.1513 C   0  0  0  0  0  0  0  0  0  0  0  0
   -0.4759    4.8982   -0.5841 H   0  0  0  0  0  0  0  0  0  0  0  0
   -0.1525    2.6497    1.6088 H   0  0  0  0  0  0  0  0  0  0  0  0
   -1.7245    5.3271    1.4371 H   0  0  0  0  0  0  0  0  0  0  0  0
   -0.2560    4.9810    2.4496 H   0  0  0  0  0  0  0  0  0  0  0  0
    1.7352    5.4142    0.5139 H   0  0  0  0  0  0  0  0  0  0  0  0
    3.0212    4.4367   -1.0501 H   0  0  0  0  0  0  0  0  0  0  0  0
    1.4518    4.5839   -1.8265 H   0  0  0  0  0  0  0  0  0  0  0  0
    2.3677    2.3230   -2.1570 H   0  0  0  0  0  0  0  0  0  0  0  0
    0.9232    2.2111   -1.1631 H   0  0  0  0  0  0  0  0  0  0  0  0
   -1.5548    3.3247   -1.6071 H   0  0  0  0  0  0  0  0  0  0  0  0
   -2.7417    1.9411    2.3113 H   0  0  0  0  0  0  0  0  0  0  0  0
    3.8328    2.2176   -0.1601 H   0  0  0  0  0  0  0  0  0  0  0  0
    2.4413    2.1777    0.9101 H   0  0  0  0  0  0  0  0  0  0  0  0
    3.0562    0.0457   -1.1902 H   0  0  0  0  0  0  0  0  0  0  0  0
   -3.5722    2.3289   -2.5658 H   0  0  0  0  0  0  0  0  0  0  0  0
   -4.7647    0.9259    1.3159 H   0  0  0  0  0  0  0  0  0  0  0  0
    5.0528   -1.5909    2.4759 H   0  0  0  0  0  0  0  0  0  0  0  0
    6.2352    0.5744   -0.3360 H   0  0  0  0  0  0  0  0  0  0  0  0
    6.3432   -0.4690    2.0356 H   0  0  0  0  0  0  0  0  0  0  0  0
    4.9202    0.1481   -1.3998 H   0  0  0  0  0  0  0  0  0  0  0  0
    6.9546   -1.0817   -1.9981 H   0  0  0  0  0  0  0  0  0  0  0  0
    5.7797   -3.2191    0.7878 H   0  0  0  0  0  0  0  0  0  0  0  0
    5.6716   -2.2004   -1.5114 H   0  0  0  0  0  0  0  0  0  0  0  0
    7.1364   -2.7889    1.8406 H   0  0  0  0  0  0  0  0  0  0  0  0
    0.8996    0.1398    0.8036 H   0  0  0  0  0  0  0  0  0  0  0  0
    8.6483   -2.7533   -1.4822 H   0  0  0  0  0  0  0  0  0  0  0  0
    7.4039   -3.9168   -0.9765 H   0  0  0  0  0  0  0  0  0  0  0  0
    8.7254   -3.4656    0.1225 H   0  0  0  0  0  0  0  0  0  0  0  0
   -1.1855   -1.6554   -2.7239 H   0  0  0  0  0  0  0  0  0  0  0  0
   -0.3566   -1.2860    1.5090 H   0  0  0  0  0  0  0  0  0  0  0  0
   -3.4353   -2.3610   -2.2264 H   0  0  0  0  0  0  0  0  0  0  0  0
   -2.6056   -1.9605    2.0217 H   0  0  0  0  0  0  0  0  0  0  0  0
   -5.3698   -2.9655   -1.7242 H   0  0  0  0  0  0  0  0  0  0  0  0
   -7.5246   -3.6021   -0.1446 H   0  0  0  0  0  0  0  0  0  0  0  0
  1 23  1  0  0  0  0
  2 24  2  0  0  0  0
  3 30  2  0  0  0  0
  4 11  1  0  0  0  0
  4 15  1  0  0  0  0
  4 43  1  0  0  0  0
  5 24  1  0  0  0  0
  5 25  1  0  0  0  0
  5 26  1  0  0  0  0
  6 20  1  0  0  0  0
  6 30  1  0  0  0  0
  6 63  1  0  0  0  0
  7 27  1  0  0  0  0
  7 28  1  0  0  0  0
  7 29  1  0  0  0  0
  8  9  1  0  0  0  0
  8 36  1  0  0  0  0
  8 37  1  0  0  0  0
  9 10  2  0  0  0  0
 10 38  1  0  0  0  0
 11 12  1  0  0  0  0
 11 13  1  0  0  0  0
 11 39  1  0  0  0  0
 12 13  1  0  0  0  0
 12 14  1  0  0  0  0
 12 40  1  0  0  0  0
 13 41  1  0  0  0  0
 13 42  1  0  0  0  0
 14 17  2  0  0  0  0
 14 18  1  0  0  0  0
 15 16  1  0  0  0  0
 15 44  1  0  0  0  0
 15 45  1  0  0  0  0
 16 19  1  0  0  0  0
 16 46  1  0  0  0  0
 16 47  1  0  0  0  0
 17 21  1  0  0  0  0
 17 48  1  0  0  0  0
 18 22  2  0  0  0  0
 18 49  1  0  0  0  0
 19 20  1  0  0  0  0
 19 50  1  0  0  0  0
 19 51  1  0  0  0  0
 20 24  1  0  0  0  0
 20 52  1  0  0  0  0
 21 23  2  0  0  0  0
 21 53  1  0  0  0  0
 22 23  1  0  0  0  0
 22 54  1  0  0  0  0
 25 27  1  0  0  0  0
 25 55  1  0  0  0  0
 25 57  1  0  0  0  0
 26 28  1  0  0  0  0
 26 56  1  0  0  0  0
 26 58  1  0  0  0  0
 27 60  1  0  0  0  0
 27 62  1  0  0  0  0
 28 59  1  0  0  0  0
 28 61  1  0  0  0  0
 29 64  1  0  0  0  0
 29 65  1  0  0  0  0
 29 66  1  0  0  0  0
 30 31  1  0  0  0  0
 31 32  2  0  0  0  0
 31 33  1  0  0  0  0
 32 34  1  0  0  0  0
 32 67  1  0  0  0  0
 33 35  2  0  0  0  0
 33 68  1  0  0  0  0
 34 36  2  0  0  0  0
 34 69  1  0  0  0  0
 35 36  1  0  0  0  0
 35 70  1  0  0  0  0
 37 38  2  0  0  0  0
 37 71  1  0  0  0  0
 38 72  1  0  0  0  0
M  END
> <DATABASE_ID>
DB15126

> <DATABASE_NAME>
drugbank

> <ORIGINAL_SOURCE>
PUBCHEM

> <ORIGINAL_SOURCE_URL>
https://pubchem.ncbi.nlm.nih.gov/rest/pug/compound/inchikey/KQKBMHGOHXOHTD-KKUQBAQOSA-N/SDF?record_type=3d

> <SMILES>
CN1CCN(CC1)C(=O)[C@H](CCCN[C@@H]1C[C@H]1C1=CC=C(F)C=C1)NC(=O)C1=CC=C(C=C1)N1C=CN=N1

> <INCHI_IDENTIFIER>
InChI=1S/C28H34FN7O2/c1-34-15-17-35(18-16-34)28(38)25(3-2-12-30-26-19-24(26)20-4-8-22(29)9-5-20)32-27(37)21-6-10-23(11-7-21)36-14-13-31-33-36/h4-11,13-14,24-26,30H,2-3,12,15-19H2,1H3,(H,32,37)/t24-,25-,26+/m0/s1

> <INCHI_KEY>
KQKBMHGOHXOHTD-KKUQBAQOSA-N

> <FORMULA>
C28H34FN7O2

> <MOLECULAR_WEIGHT>
519.625

> <EXACT_MASS>
519.275801526

> <JCHEM_ACCEPTOR_COUNT>
6

> <JCHEM_ATOM_COUNT>
72

> <JCHEM_AVERAGE_POLARIZABILITY>
56.504450118229705

> <JCHEM_BIOAVAILABILITY>
1

> <JCHEM_DONOR_COUNT>
2

> <JCHEM_FORMAL_CHARGE>
0

> <JCHEM_GHOSE_FILTER>
0

> <JCHEM_IUPAC>
N-[(2S)-5-{[(1R,2S)-2-(4-fluorophenyl)cyclopropyl]amino}-1-(4-methylpiperazin-1-yl)-1-oxopentan-2-yl]-4-(1H-1,2,3-triazol-1-yl)benzamide

> <ALOGPS_LOGP>
1.61

> <JCHEM_LOGP>
2.249935800666666

> <ALOGPS_LOGS>
-4.14

> <JCHEM_MDDR_LIKE_RULE>
1

> <JCHEM_NUMBER_OF_RINGS>
5

> <JCHEM_PHYSIOLOGICAL_CHARGE>
2

> <JCHEM_PKA>
18.257221028722988

> <JCHEM_PKA_STRONGEST_ACIDIC>
15.219097235787782

> <JCHEM_PKA_STRONGEST_BASIC>
9.34222554186219

> <JCHEM_POLAR_SURFACE_AREA>
95.39000000000001

> <JCHEM_REFRACTIVITY>
144.47599999999997

> <JCHEM_ROTATABLE_BOND_COUNT>
10

> <JCHEM_RULE_OF_FIVE>
0

> <ALOGPS_SOLUBILITY>
3.76e-02 g/l

> <JCHEM_TRADITIONAL_IUPAC>
(2R)-14-fluoro-2-methyl-6,9,10,19-tetraazapentacyclo[14.2.1.0^{2,6}.0^{8,18}.0^{12,17}]nonadeca-1(18),8,12(17),13,15-pentaen-11-one

> <JCHEM_VEBER_RULE>
0

> <DRUGBANK_ID>
DB15126

> <DRUG_GROUPS>
investigational

> <GENERIC_NAME>
IMG-7289

$$$$