66524
  -OEChem-04132015383D

 24 25  0     0  0  0  0  0  0999 V2000
   -0.0139    2.9791   -0.0002 O   0  0  0  0  0  0  0  0  0  0  0  0
   -1.4575   -2.4027   -0.0009 N   0  0  0  0  0  0  0  0  0  0  0  0
    0.3111   -0.7004    0.0002 C   0  0  0  0  0  0  0  0  0  0  0  0
    0.6807    0.6658    0.0000 C   0  0  0  0  0  0  0  0  0  0  0  0
   -1.0507   -1.0435    0.0002 C   0  0  0  0  0  0  0  0  0  0  0  0
   -2.0340   -0.0539    0.0000 C   0  0  0  0  0  0  0  0  0  0  0  0
   -0.3226    1.6486   -0.0001 C   0  0  0  0  0  0  0  0  0  0  0  0
   -1.6707    1.2895   -0.0001 C   0  0  0  0  0  0  0  0  0  0  0  0
    1.3143   -1.6833    0.0002 C   0  0  0  0  0  0  0  0  0  0  0  0
    2.0425    1.0088    0.0000 C   0  0  0  0  0  0  0  0  0  0  0  0
   -3.4876   -0.4028    0.0006 C   0  0  0  0  0  0  0  0  0  0  0  0
    2.6625   -1.3243    0.0002 C   0  0  0  0  0  0  0  0  0  0  0  0
    3.0259    0.0191    0.0000 C   0  0  0  0  0  0  0  0  0  0  0  0
   -2.4297    2.0683   -0.0001 H   0  0  0  0  0  0  0  0  0  0  0  0
    1.0984   -2.7469    0.0001 H   0  0  0  0  0  0  0  0  0  0  0  0
    2.3850    2.0394   -0.0164 H   0  0  0  0  0  0  0  0  0  0  0  0
   -3.7462   -0.9780    0.8959 H   0  0  0  0  0  0  0  0  0  0  0  0
   -4.1202    0.4920    0.0008 H   0  0  0  0  0  0  0  0  0  0  0  0
   -3.7469   -0.9781   -0.8944 H   0  0  0  0  0  0  0  0  0  0  0  0
    3.4292   -2.0937   -0.0008 H   0  0  0  0  0  0  0  0  0  0  0  0
    4.0758    0.2972   -0.0037 H   0  0  0  0  0  0  0  0  0  0  0  0
   -2.4395   -2.6417    0.0002 H   0  0  0  0  0  0  0  0  0  0  0  0
   -0.7918   -3.1600    0.0021 H   0  0  0  0  0  0  0  0  0  0  0  0
    0.8445    3.1273    0.4256 H   0  0  0  0  0  0  0  0  0  0  0  0
  1  7  1  0  0  0  0
  1 24  1  0  0  0  0
  2  5  1  0  0  0  0
  2 22  1  0  0  0  0
  2 23  1  0  0  0  0
  3  4  1  0  0  0  0
  3  5  1  0  0  0  0
  3  9  2  0  0  0  0
  4  7  1  0  0  0  0
  4 10  2  0  0  0  0
  5  6  2  0  0  0  0
  6  8  1  0  0  0  0
  6 11  1  0  0  0  0
  7  8  2  0  0  0  0
  8 14  1  0  0  0  0
  9 12  1  0  0  0  0
  9 15  1  0  0  0  0
 10 13  1  0  0  0  0
 10 16  1  0  0  0  0
 11 17  1  0  0  0  0
 11 18  1  0  0  0  0
 11 19  1  0  0  0  0
 12 13  2  0  0  0  0
 12 20  1  0  0  0  0
 13 21  1  0  0  0  0
M  END
> <DATABASE_ID>
DB15664

> <DATABASE_NAME>
drugbank

> <ORIGINAL_SOURCE>
PUBCHEM

> <ORIGINAL_SOURCE_URL>
https://pubchem.ncbi.nlm.nih.gov/rest/pug/compound/inchikey/YJRCNAAPGQBVFS-UHFFFAOYSA-N/SDF?record_type=3d

> <SMILES>
CC1=CC(O)=C2C=CC=CC2=C1N

> <INCHI_IDENTIFIER>
InChI=1S/C11H11NO/c1-7-6-10(13)8-4-2-3-5-9(8)11(7)12/h2-6,13H,12H2,1H3

> <INCHI_KEY>
YJRCNAAPGQBVFS-UHFFFAOYSA-N

> <FORMULA>
C11H11NO

> <MOLECULAR_WEIGHT>
173.215

> <EXACT_MASS>
173.084063978

> <JCHEM_ACCEPTOR_COUNT>
2

> <JCHEM_ATOM_COUNT>
24

> <JCHEM_AVERAGE_NEUTRAL_MICROSPECIES_CHARGE>
0.9999895800781112

> <JCHEM_AVERAGE_POLARIZABILITY>
18.956232088586177

> <JCHEM_BIOAVAILABILITY>
1

> <JCHEM_DONOR_COUNT>
2

> <JCHEM_FORMAL_CHARGE>
0

> <JCHEM_GHOSE_FILTER>
1

> <JCHEM_IUPAC>
4-amino-3-methylnaphthalen-1-ol

> <ALOGPS_LOGP>
2.03

> <JCHEM_LOGP>
2.343652686333333

> <ALOGPS_LOGS>
-2.50

> <JCHEM_MDDR_LIKE_RULE>
0

> <JCHEM_NEUTRAL_CHARGE>
0

> <JCHEM_NUMBER_OF_RINGS>
2

> <JCHEM_PHYSIOLOGICAL_CHARGE>
0

> <JCHEM_PKA_STRONGEST_ACIDIC>
10.121522063592542

> <JCHEM_PKA_STRONGEST_BASIC>
4.981935292066389

> <JCHEM_POLAR_SURFACE_AREA>
46.25

> <JCHEM_REFRACTIVITY>
54.23070000000001

> <JCHEM_ROTATABLE_BOND_COUNT>
0

> <JCHEM_RULE_OF_FIVE>
1

> <ALOGPS_SOLUBILITY>
5.44e-01 g/l

> <JCHEM_TRADITIONAL_IUPAC>
vitamin k7

> <JCHEM_VEBER_RULE>
0

> <DRUGBANK_ID>
DB15664

> <DRUG_GROUPS>
experimental

> <GENERIC_NAME>
Vitamin K7

> <SYNONYMS>
1-amino-2-methyl-4-naphthol; 1-hydroxy-3-methyl-4-aminonaphthalene; 2-methyl-4-hydroxy-1-naphthylamine; 3-methyl-4-amino-1-naphthol; 4-amino-3-methyl-1-naphthol; 4-Amino-3-methylnaphthol

> <PRODUCTS>
Folinex

$$$$