118374999
  -OEChem-05201911273D

 59 64  0     1  0  0  0  0  0999 V2000
    1.5274    0.8049   -3.8618 Cl  0  0  0  0  0  0  0  0  0  0  0  0
   -5.0221    1.3724   -2.0977 Cl  0  0  0  0  0  0  0  0  0  0  0  0
   -4.9648    1.1259    3.3793 Cl  0  0  0  0  0  0  0  0  0  0  0  0
   -6.2398   -1.9576    0.5102 O   0  0  0  0  0  0  0  0  0  0  0  0
   -2.2917   -0.4598   -0.7617 O   0  0  0  0  0  0  0  0  0  0  0  0
   10.1832    0.2709    1.0952 O   0  0  0  0  0  0  0  0  0  0  0  0
    9.4816   -1.7360    1.8994 O   0  0  0  0  0  0  0  0  0  0  0  0
   -6.4157   -0.5806    0.5740 N   0  0  0  0  0  0  0  0  0  0  0  0
    3.2915    0.0989   -1.4335 C   0  0  2  0  0  0  0  0  0  0  0  0
    4.0433    0.9853   -0.4570 C   0  0  2  0  0  0  0  0  0  0  0  0
    3.8588    1.4114   -1.8898 C   0  0  0  0  0  0  0  0  0  0  0  0
    1.8111   -0.0392   -1.2848 C   0  0  0  0  0  0  0  0  0  0  0  0
    5.3851    0.5584    0.0090 C   0  0  0  0  0  0  0  0  0  0  0  0
   -4.3389   -3.6348    0.4152 C   0  0  0  0  0  0  0  0  0  0  0  0
   -3.9595   -4.2369   -0.9174 C   0  0  0  0  0  0  0  0  0  0  0  0
   -5.1505   -4.7621   -0.1787 C   0  0  0  0  0  0  0  0  0  0  0  0
   -4.9120   -2.2389    0.4837 C   0  0  0  0  0  0  0  0  0  0  0  0
    0.9403    0.2590   -2.3328 C   0  0  0  0  0  0  0  0  0  0  0  0
    1.3053   -0.4793   -0.0614 C   0  0  0  0  0  0  0  0  0  0  0  0
    5.5471   -0.6827    0.6249 C   0  0  0  0  0  0  0  0  0  0  0  0
    6.4848    1.3981   -0.1679 C   0  0  0  0  0  0  0  0  0  0  0  0
   -4.1928   -1.0740    0.5287 C   0  0  0  0  0  0  0  0  0  0  0  0
   -0.4363    0.1174   -2.1576 C   0  0  0  0  0  0  0  0  0  0  0  0
   -0.0712   -0.6206    0.1139 C   0  0  0  0  0  0  0  0  0  0  0  0
   -0.9421   -0.3223   -0.9343 C   0  0  0  0  0  0  0  0  0  0  0  0
    6.8089   -1.0841    1.0636 C   0  0  0  0  0  0  0  0  0  0  0  0
    7.7466    0.9968    0.2711 C   0  0  0  0  0  0  0  0  0  0  0  0
   -2.7281   -0.9136    0.5203 C   0  0  0  0  0  0  0  0  0  0  0  0
   -5.1794   -0.0743    0.5840 C   0  0  0  0  0  0  0  0  0  0  0  0
    7.9086   -0.2443    0.8870 C   0  0  0  0  0  0  0  0  0  0  0  0
   -4.9781    1.3541    0.6456 C   0  0  0  0  0  0  0  0  0  0  0  0
    9.2239   -0.6626    1.3441 C   0  0  0  0  0  0  0  0  0  0  0  0
   -4.8937    2.0982   -0.5312 C   0  0  0  0  0  0  0  0  0  0  0  0
   -4.8680    1.9899    1.8823 C   0  0  0  0  0  0  0  0  0  0  0  0
   -4.6994    3.4782   -0.4714 C   0  0  0  0  0  0  0  0  0  0  0  0
   -4.6737    3.3700    1.9421 C   0  0  0  0  0  0  0  0  0  0  0  0
   -4.5896    4.1141    0.7652 C   0  0  0  0  0  0  0  0  0  0  0  0
    3.8064   -0.7841   -1.8067 H   0  0  0  0  0  0  0  0  0  0  0  0
    3.4533    1.5422    0.2683 H   0  0  0  0  0  0  0  0  0  0  0  0
    4.7029    1.3767   -2.5698 H   0  0  0  0  0  0  0  0  0  0  0  0
    3.2203    2.2746   -2.0420 H   0  0  0  0  0  0  0  0  0  0  0  0
   -3.7149   -3.9043    1.2625 H   0  0  0  0  0  0  0  0  0  0  0  0
   -6.1297   -4.5463   -0.5886 H   0  0  0  0  0  0  0  0  0  0  0  0
   -3.0720   -4.8570   -0.9533 H   0  0  0  0  0  0  0  0  0  0  0  0
   -4.1384   -3.6612   -1.8176 H   0  0  0  0  0  0  0  0  0  0  0  0
   -5.0674   -5.7387    0.2831 H   0  0  0  0  0  0  0  0  0  0  0  0
    1.9712   -0.7193    0.7635 H   0  0  0  0  0  0  0  0  0  0  0  0
    4.6985   -1.3454    0.7731 H   0  0  0  0  0  0  0  0  0  0  0  0
    6.3721    2.3698   -0.6417 H   0  0  0  0  0  0  0  0  0  0  0  0
   -1.1243    0.3477   -2.9678 H   0  0  0  0  0  0  0  0  0  0  0  0
   -0.3888   -0.9603    1.0933 H   0  0  0  0  0  0  0  0  0  0  0  0
    6.9141   -2.0545    1.5417 H   0  0  0  0  0  0  0  0  0  0  0  0
    8.5750    1.6819    0.1143 H   0  0  0  0  0  0  0  0  0  0  0  0
   -2.4529   -0.1831    1.2923 H   0  0  0  0  0  0  0  0  0  0  0  0
   -2.2686   -1.8812    0.7568 H   0  0  0  0  0  0  0  0  0  0  0  0
   -4.6312    4.0738   -1.3783 H   0  0  0  0  0  0  0  0  0  0  0  0
   -4.5858    3.8822    2.8970 H   0  0  0  0  0  0  0  0  0  0  0  0
   11.0662   -0.0212    1.4072 H   0  0  0  0  0  0  0  0  0  0  0  0
   -4.4384    5.1886    0.8117 H   0  0  0  0  0  0  0  0  0  0  0  0
  1 18  1  0  0  0  0
  2 33  1  0  0  0  0
  3 34  1  0  0  0  0
  4  8  1  0  0  0  0
  4 17  1  0  0  0  0
  5 25  1  0  0  0  0
  5 28  1  0  0  0  0
  6 32  1  0  0  0  0
  6 58  1  0  0  0  0
  7 32  2  0  0  0  0
  8 29  2  0  0  0  0
  9 10  1  0  0  0  0
  9 11  1  0  0  0  0
  9 12  1  0  0  0  0
  9 38  1  0  0  0  0
 10 11  1  0  0  0  0
 10 13  1  0  0  0  0
 10 39  1  0  0  0  0
 11 40  1  0  0  0  0
 11 41  1  0  0  0  0
 12 18  2  0  0  0  0
 12 19  1  0  0  0  0
 13 20  2  0  0  0  0
 13 21  1  0  0  0  0
 14 15  1  0  0  0  0
 14 16  1  0  0  0  0
 14 17  1  0  0  0  0
 14 42  1  0  0  0  0
 15 16  1  0  0  0  0
 15 44  1  0  0  0  0
 15 45  1  0  0  0  0
 16 43  1  0  0  0  0
 16 46  1  0  0  0  0
 17 22  2  0  0  0  0
 18 23  1  0  0  0  0
 19 24  2  0  0  0  0
 19 47  1  0  0  0  0
 20 26  1  0  0  0  0
 20 48  1  0  0  0  0
 21 27  2  0  0  0  0
 21 49  1  0  0  0  0
 22 28  1  0  0  0  0
 22 29  1  0  0  0  0
 23 25  2  0  0  0  0
 23 50  1  0  0  0  0
 24 25  1  0  0  0  0
 24 51  1  0  0  0  0
 26 30  2  0  0  0  0
 26 52  1  0  0  0  0
 27 30  1  0  0  0  0
 27 53  1  0  0  0  0
 28 54  1  0  0  0  0
 28 55  1  0  0  0  0
 29 31  1  0  0  0  0
 30 32  1  0  0  0  0
 31 33  2  0  0  0  0
 31 34  1  0  0  0  0
 33 35  1  0  0  0  0
 34 36  2  0  0  0  0
 35 37  2  0  0  0  0
 35 56  1  0  0  0  0
 36 37  1  0  0  0  0
 36 57  1  0  0  0  0
 37 59  1  0  0  0  0
M  END
> <DATABASE_ID>
DB15416

> <DATABASE_NAME>
drugbank

> <ORIGINAL_SOURCE>
PUBCHEM

> <ORIGINAL_SOURCE_URL>
https://pubchem.ncbi.nlm.nih.gov/rest/pug/compound/inchikey/XBUXXJUEBFDQHD-NHCUHLMSSA-N/SDF?record_type=3d

> <SMILES>
OC(=O)C1=CC=C(C=C1)[C@H]1C[C@@H]1C1=C(Cl)C=C(OCC2=C(ON=C2C2=C(Cl)C=CC=C2Cl)C2CC2)C=C1

> <INCHI_IDENTIFIER>
InChI=1S/C29H22Cl3NO4/c30-23-2-1-3-24(31)26(23)27-22(28(37-33-27)16-6-7-16)14-36-18-10-11-19(25(32)12-18)21-13-20(21)15-4-8-17(9-5-15)29(34)35/h1-5,8-12,16,20-21H,6-7,13-14H2,(H,34,35)/t20-,21-/m1/s1

> <INCHI_KEY>
XBUXXJUEBFDQHD-NHCUHLMSSA-N

> <FORMULA>
C29H22Cl3NO4

> <MOLECULAR_WEIGHT>
554.85

> <EXACT_MASS>
553.0614413

> <JCHEM_ACCEPTOR_COUNT>
4

> <JCHEM_ATOM_COUNT>
59

> <JCHEM_AVERAGE_POLARIZABILITY>
55.84744945539931

> <JCHEM_BIOAVAILABILITY>
0

> <JCHEM_DONOR_COUNT>
1

> <JCHEM_FORMAL_CHARGE>
0

> <JCHEM_GHOSE_FILTER>
0

> <JCHEM_IUPAC>
4-[(1S,2S)-2-(2-chloro-4-{[5-cyclopropyl-3-(2,6-dichlorophenyl)-1,2-oxazol-4-yl]methoxy}phenyl)cyclopropyl]benzoic acid

> <ALOGPS_LOGP>
7.32

> <JCHEM_LOGP>
8.232822650666668

> <ALOGPS_LOGS>
-5.35

> <JCHEM_MDDR_LIKE_RULE>
1

> <JCHEM_NUMBER_OF_RINGS>
6

> <JCHEM_PHYSIOLOGICAL_CHARGE>
-1

> <JCHEM_PKA_STRONGEST_ACIDIC>
4.20870426682532

> <JCHEM_PKA_STRONGEST_BASIC>
-0.36406783521702174

> <JCHEM_POLAR_SURFACE_AREA>
72.56

> <JCHEM_REFRACTIVITY>
144.38589999999996

> <JCHEM_ROTATABLE_BOND_COUNT>
7

> <JCHEM_RULE_OF_FIVE>
0

> <ALOGPS_SOLUBILITY>
2.51e-03 g/l

> <JCHEM_TRADITIONAL_IUPAC>
(2R)-14-fluoro-2-methyl-6,9,10,19-tetraazapentacyclo[14.2.1.0^{2,6}.0^{8,18}.0^{12,17}]nonadeca-1(18),8,12(17),13,15-pentaen-11-one

> <JCHEM_VEBER_RULE>
0

> <DRUGBANK_ID>
DB15416

> <DRUG_GROUPS>
investigational

> <GENERIC_NAME>
PX-102

$$$$