77050638
  -OEChem-05201911003D

 59 61  0     1  0  0  0  0  0999 V2000
    7.8714   -0.5264    0.0657 O   0  0  0  0  0  0  0  0  0  0  0  0
    6.1520    0.9323    1.7543 N   0  0  0  0  0  0  0  0  0  0  0  0
    5.6441    0.0448    0.7112 C   0  0  1  0  0  0  0  0  0  0  0  0
    3.6397   -0.8901   -0.3167 C   0  0  2  0  0  0  0  0  0  0  0  0
    4.2449   -0.4904    1.0448 C   0  0  0  0  0  0  0  0  0  0  0  0
    5.3884    0.8075   -0.5928 C   0  0  0  0  0  0  0  0  0  0  0  0
    4.4195   -0.0800   -1.3749 C   0  0  0  0  0  0  0  0  0  0  0  0
    2.1400   -0.7012   -0.3647 C   0  0  0  0  0  0  0  0  0  0  0  0
    6.6595   -1.0910    0.5217 C   0  0  0  0  0  0  0  0  0  0  0  0
   -2.6541    1.1205    0.0837 C   0  0  1  0  0  0  0  0  0  0  0  0
    0.2011    0.7580   -0.2254 C   0  0  0  0  0  0  0  0  0  0  0  0
   -2.1404   -0.1953   -0.5198 C   0  0  0  0  0  0  0  0  0  0  0  0
   -1.8096    2.2900   -0.4306 C   0  0  0  0  0  0  0  0  0  0  0  0
   -0.6414   -0.3481   -0.4377 C   0  0  0  0  0  0  0  0  0  0  0  0
   -0.3559    2.1380    0.0149 C   0  0  0  0  0  0  0  0  0  0  0  0
    1.5904    0.5666   -0.1781 C   0  0  0  0  0  0  0  0  0  0  0  0
   -4.1306    1.3251   -0.2483 C   0  0  0  0  0  0  0  0  0  0  0  0
    1.3076   -1.7923   -0.5955 C   0  0  0  0  0  0  0  0  0  0  0  0
   -0.0751   -1.6170   -0.6350 C   0  0  0  0  0  0  0  0  0  0  0  0
   -5.0323    0.2197    0.2984 C   0  0  0  0  0  0  0  0  0  0  0  0
   -6.5152    0.4343   -0.0127 C   0  0  0  0  0  0  0  0  0  0  0  0
   -7.3678   -0.7122    0.5359 C   0  0  0  0  0  0  0  0  0  0  0  0
   -8.8450   -0.5196    0.1935 C   0  0  0  0  0  0  0  0  0  0  0  0
   -9.6910   -1.6732    0.7081 C   0  0  0  0  0  0  0  0  0  0  0  0
    3.8641   -1.9520   -0.4878 H   0  0  0  0  0  0  0  0  0  0  0  0
    3.6495    0.2873    1.5397 H   0  0  0  0  0  0  0  0  0  0  0  0
    4.2746   -1.3428    1.7340 H   0  0  0  0  0  0  0  0  0  0  0  0
    6.2924    1.0293   -1.1687 H   0  0  0  0  0  0  0  0  0  0  0  0
    4.8944    1.7671   -0.3886 H   0  0  0  0  0  0  0  0  0  0  0  0
    3.7834    0.5151   -2.0385 H   0  0  0  0  0  0  0  0  0  0  0  0
    4.9863   -0.7687   -2.0137 H   0  0  0  0  0  0  0  0  0  0  0  0
   -2.5462    1.0743    1.1766 H   0  0  0  0  0  0  0  0  0  0  0  0
    6.3255   -1.8281   -0.2153 H   0  0  0  0  0  0  0  0  0  0  0  0
    6.8460   -1.6183    1.4646 H   0  0  0  0  0  0  0  0  0  0  0  0
   -2.4287   -0.2660   -1.5765 H   0  0  0  0  0  0  0  0  0  0  0  0
   -2.5937   -1.0411    0.0101 H   0  0  0  0  0  0  0  0  0  0  0  0
   -2.2015    3.2443   -0.0593 H   0  0  0  0  0  0  0  0  0  0  0  0
   -1.8579    2.3300   -1.5269 H   0  0  0  0  0  0  0  0  0  0  0  0
   -0.2822    2.3519    1.0886 H   0  0  0  0  0  0  0  0  0  0  0  0
    0.2521    2.8825   -0.5130 H   0  0  0  0  0  0  0  0  0  0  0  0
    2.2360    1.4240   -0.0005 H   0  0  0  0  0  0  0  0  0  0  0  0
    5.5079    1.7094    1.8973 H   0  0  0  0  0  0  0  0  0  0  0  0
    7.0331    1.3480    1.4536 H   0  0  0  0  0  0  0  0  0  0  0  0
   -4.2633    1.3950   -1.3356 H   0  0  0  0  0  0  0  0  0  0  0  0
   -4.4623    2.2856    0.1663 H   0  0  0  0  0  0  0  0  0  0  0  0
    1.7187   -2.7866   -0.7473 H   0  0  0  0  0  0  0  0  0  0  0  0
   -0.7127   -2.4780   -0.8207 H   0  0  0  0  0  0  0  0  0  0  0  0
   -4.7410   -0.7467   -0.1271 H   0  0  0  0  0  0  0  0  0  0  0  0
   -4.8968    0.1455    1.3845 H   0  0  0  0  0  0  0  0  0  0  0  0
    8.5052   -1.2554   -0.0448 H   0  0  0  0  0  0  0  0  0  0  0  0
   -6.8483    1.3839    0.4229 H   0  0  0  0  0  0  0  0  0  0  0  0
   -6.6528    0.5096   -1.0981 H   0  0  0  0  0  0  0  0  0  0  0  0
   -7.2463   -0.7739    1.6242 H   0  0  0  0  0  0  0  0  0  0  0  0
   -7.0168   -1.6634    0.1172 H   0  0  0  0  0  0  0  0  0  0  0  0
   -9.2089    0.4178    0.6299 H   0  0  0  0  0  0  0  0  0  0  0  0
   -8.9689   -0.4415   -0.8929 H   0  0  0  0  0  0  0  0  0  0  0  0
   -9.3735   -2.6217    0.2633 H   0  0  0  0  0  0  0  0  0  0  0  0
   -9.6141   -1.7610    1.7965 H   0  0  0  0  0  0  0  0  0  0  0  0
  -10.7436   -1.5143    0.4536 H   0  0  0  0  0  0  0  0  0  0  0  0
  1  9  1  0  0  0  0
  1 50  1  0  0  0  0
  2  3  1  0  0  0  0
  2 42  1  0  0  0  0
  2 43  1  0  0  0  0
  3  5  1  0  0  0  0
  3  6  1  0  0  0  0
  3  9  1  0  0  0  0
  4  5  1  0  0  0  0
  4  7  1  0  0  0  0
  4  8  1  0  0  0  0
  4 25  1  0  0  0  0
  5 26  1  0  0  0  0
  5 27  1  0  0  0  0
  6  7  1  0  0  0  0
  6 28  1  0  0  0  0
  6 29  1  0  0  0  0
  7 30  1  0  0  0  0
  7 31  1  0  0  0  0
  8 16  2  0  0  0  0
  8 18  1  0  0  0  0
  9 33  1  0  0  0  0
  9 34  1  0  0  0  0
 10 12  1  0  0  0  0
 10 13  1  0  0  0  0
 10 17  1  0  0  0  0
 10 32  1  0  0  0  0
 11 14  2  0  0  0  0
 11 15  1  0  0  0  0
 11 16  1  0  0  0  0
 12 14  1  0  0  0  0
 12 35  1  0  0  0  0
 12 36  1  0  0  0  0
 13 15  1  0  0  0  0
 13 37  1  0  0  0  0
 13 38  1  0  0  0  0
 14 19  1  0  0  0  0
 15 39  1  0  0  0  0
 15 40  1  0  0  0  0
 16 41  1  0  0  0  0
 17 20  1  0  0  0  0
 17 44  1  0  0  0  0
 17 45  1  0  0  0  0
 18 19  2  0  0  0  0
 18 46  1  0  0  0  0
 19 47  1  0  0  0  0
 20 21  1  0  0  0  0
 20 48  1  0  0  0  0
 20 49  1  0  0  0  0
 21 22  1  0  0  0  0
 21 51  1  0  0  0  0
 21 52  1  0  0  0  0
 22 23  1  0  0  0  0
 22 53  1  0  0  0  0
 22 54  1  0  0  0  0
 23 24  1  0  0  0  0
 23 55  1  0  0  0  0
 23 56  1  0  0  0  0
 24 57  1  0  0  0  0
 24 58  1  0  0  0  0
 24 59  1  0  0  0  0
M  END
> <DATABASE_ID>
DB15214

> <DATABASE_NAME>
drugbank

> <ORIGINAL_SOURCE>
PUBCHEM

> <ORIGINAL_SOURCE_URL>
https://pubchem.ncbi.nlm.nih.gov/rest/pug/compound/inchikey/BPMMYKAHRIEVDH-VOQZNFBZSA-N/SDF?record_type=3d

> <SMILES>
CCCCCC[C@@H]1CCC2=C(C1)C=CC(=C2)[C@H]1CC[C@](N)(CO)C1

> <INCHI_IDENTIFIER>
InChI=1S/C22H35NO/c1-2-3-4-5-6-17-7-8-19-14-20(10-9-18(19)13-17)21-11-12-22(23,15-21)16-24/h9-10,14,17,21,24H,2-8,11-13,15-16,23H2,1H3/t17-,21+,22-/m1/s1

> <INCHI_KEY>
BPMMYKAHRIEVDH-VOQZNFBZSA-N

> <FORMULA>
C22H35NO

> <MOLECULAR_WEIGHT>
329.528

> <EXACT_MASS>
329.271864751

> <JCHEM_ACCEPTOR_COUNT>
2

> <JCHEM_ATOM_COUNT>
59

> <JCHEM_AVERAGE_POLARIZABILITY>
42.67179980487887

> <JCHEM_BIOAVAILABILITY>
1

> <JCHEM_DONOR_COUNT>
2

> <JCHEM_FORMAL_CHARGE>
0

> <JCHEM_GHOSE_FILTER>
1

> <JCHEM_IUPAC>
[(1R,3S)-1-amino-3-[(6R)-6-hexyl-5,6,7,8-tetrahydronaphthalen-2-yl]cyclopentyl]methanol

> <ALOGPS_LOGP>
5.76

> <JCHEM_LOGP>
5.345849399333333

> <ALOGPS_LOGS>
-6.49

> <JCHEM_MDDR_LIKE_RULE>
1

> <JCHEM_NUMBER_OF_RINGS>
3

> <JCHEM_PHYSIOLOGICAL_CHARGE>
1

> <JCHEM_PKA_STRONGEST_ACIDIC>
14.783801336097474

> <JCHEM_PKA_STRONGEST_BASIC>
9.96152097271946

> <JCHEM_POLAR_SURFACE_AREA>
46.25

> <JCHEM_REFRACTIVITY>
102.19329999999997

> <JCHEM_ROTATABLE_BOND_COUNT>
7

> <JCHEM_RULE_OF_FIVE>
0

> <ALOGPS_SOLUBILITY>
1.08e-04 g/l

> <JCHEM_TRADITIONAL_IUPAC>
(2R)-14-fluoro-2-methyl-6,9,10,19-tetraazapentacyclo[14.2.1.0^{2,6}.0^{8,18}.0^{12,17}]nonadeca-1(18),8,12(17),13,15-pentaen-11-one

> <JCHEM_VEBER_RULE>
0

> <DRUGBANK_ID>
DB15214

> <DRUG_GROUPS>
investigational

> <GENERIC_NAME>
BMS-986104

$$$$