9844338
  -OEChem-03082010573D

 54 57  0     1  0  0  0  0  0999 V2000
   -3.6172   -0.1149   -0.1573 O   0  0  0  0  0  0  0  0  0  0  0  0
   -3.9232    1.0534    2.3464 O   0  0  0  0  0  0  0  0  0  0  0  0
    3.5978    1.9066    0.8778 O   0  0  0  0  0  0  0  0  0  0  0  0
    0.7395   -1.3814   -0.6992 O   0  0  0  0  0  0  0  0  0  0  0  0
    3.0056    2.3491   -2.3504 O   0  0  0  0  0  0  0  0  0  0  0  0
    1.8883    0.5651   -0.0307 N   0  0  0  0  0  0  0  0  0  0  0  0
    1.9581    1.1519   -4.0091 N   0  0  0  0  0  0  0  0  0  0  0  0
   -3.3682   -1.4821   -0.4592 C   0  0  0  0  0  0  0  0  0  0  0  0
   -4.3986   -2.3711    0.2205 C   0  0  0  0  0  0  0  0  0  0  0  0
   -3.6250   -1.7283   -1.9379 C   0  0  0  0  0  0  0  0  0  0  0  0
   -5.6431   -2.2380   -0.6537 C   0  0  0  0  0  0  0  0  0  0  0  0
   -5.1438   -1.8553   -2.0473 C   0  0  0  0  0  0  0  0  0  0  0  0
    0.9488    1.5853   -0.4516 C   0  0  2  0  0  0  0  0  0  0  0  0
   -2.5974    0.5903    0.4070 C   0  0  0  0  0  0  0  0  0  0  0  0
   -0.3608    1.4407    0.2968 C   0  0  0  0  0  0  0  0  0  0  0  0
   -1.3920    0.7236   -0.2822 C   0  0  0  0  0  0  0  0  0  0  0  0
    0.7383    1.5573   -1.9729 C   0  0  0  0  0  0  0  0  0  0  0  0
   -2.7511    1.1766    1.6633 C   0  0  0  0  0  0  0  0  0  0  0  0
   -0.4937    2.0292    1.5413 C   0  0  0  0  0  0  0  0  0  0  0  0
    3.0928    0.8394    0.5822 C   0  0  0  0  0  0  0  0  0  0  0  0
    1.6763   -0.7870   -0.1991 C   0  0  0  0  0  0  0  0  0  0  0  0
    3.7094   -0.4612    0.8410 C   0  0  0  0  0  0  0  0  0  0  0  0
    2.8529   -1.4447    0.3686 C   0  0  0  0  0  0  0  0  0  0  0  0
   -1.6992    1.8962    2.2303 C   0  0  0  0  0  0  0  0  0  0  0  0
    2.0234    1.7402   -2.7636 C   0  0  0  0  0  0  0  0  0  0  0  0
    4.9157   -0.7678    1.4362 C   0  0  0  0  0  0  0  0  0  0  0  0
    3.1577   -2.7867    0.4664 C   0  0  0  0  0  0  0  0  0  0  0  0
    5.2455   -2.1216    1.5468 C   0  0  0  0  0  0  0  0  0  0  0  0
    4.3751   -3.1214    1.0664 C   0  0  0  0  0  0  0  0  0  0  0  0
   -4.9120    2.0567    2.1231 C   0  0  0  0  0  0  0  0  0  0  0  0
   -2.3550   -1.7896   -0.1724 H   0  0  0  0  0  0  0  0  0  0  0  0
   -4.0598   -3.4138    0.2181 H   0  0  0  0  0  0  0  0  0  0  0  0
   -4.6061   -2.0718    1.2524 H   0  0  0  0  0  0  0  0  0  0  0  0
   -3.1589   -2.6711   -2.2483 H   0  0  0  0  0  0  0  0  0  0  0  0
   -3.2485   -0.9267   -2.5805 H   0  0  0  0  0  0  0  0  0  0  0  0
   -6.2227   -3.1664   -0.6679 H   0  0  0  0  0  0  0  0  0  0  0  0
   -6.2977   -1.4488   -0.2656 H   0  0  0  0  0  0  0  0  0  0  0  0
   -5.5876   -0.9006   -2.3521 H   0  0  0  0  0  0  0  0  0  0  0  0
   -5.4246   -2.6009   -2.7982 H   0  0  0  0  0  0  0  0  0  0  0  0
    1.3762    2.5662   -0.2017 H   0  0  0  0  0  0  0  0  0  0  0  0
   -1.3191    0.2524   -1.2535 H   0  0  0  0  0  0  0  0  0  0  0  0
    0.0510    2.3550   -2.2821 H   0  0  0  0  0  0  0  0  0  0  0  0
    0.3146    0.6066   -2.3124 H   0  0  0  0  0  0  0  0  0  0  0  0
    0.3207    2.5891    1.9915 H   0  0  0  0  0  0  0  0  0  0  0  0
   -1.8113    2.3544    3.2092 H   0  0  0  0  0  0  0  0  0  0  0  0
    5.5852    0.0004    1.8050 H   0  0  0  0  0  0  0  0  0  0  0  0
    2.4890   -3.5553    0.0969 H   0  0  0  0  0  0  0  0  0  0  0  0
    6.1860   -2.4102    2.0089 H   0  0  0  0  0  0  0  0  0  0  0  0
    4.6569   -4.1665    1.1652 H   0  0  0  0  0  0  0  0  0  0  0  0
    2.7465    1.1972   -4.6463 H   0  0  0  0  0  0  0  0  0  0  0  0
    1.1331    0.6643   -4.3434 H   0  0  0  0  0  0  0  0  0  0  0  0
   -5.7866    1.8175    2.7341 H   0  0  0  0  0  0  0  0  0  0  0  0
   -4.5349    3.0401    2.4211 H   0  0  0  0  0  0  0  0  0  0  0  0
   -5.2139    2.0724    1.0712 H   0  0  0  0  0  0  0  0  0  0  0  0
  1  8  1  0  0  0  0
  1 14  1  0  0  0  0
  2 18  1  0  0  0  0
  2 30  1  0  0  0  0
  3 20  2  0  0  0  0
  4 21  2  0  0  0  0
  5 25  2  0  0  0  0
  6 13  1  0  0  0  0
  6 20  1  0  0  0  0
  6 21  1  0  0  0  0
  7 25  1  0  0  0  0
  7 50  1  0  0  0  0
  7 51  1  0  0  0  0
  8  9  1  0  0  0  0
  8 10  1  0  0  0  0
  8 31  1  0  0  0  0
  9 11  1  0  0  0  0
  9 32  1  0  0  0  0
  9 33  1  0  0  0  0
 10 12  1  0  0  0  0
 10 34  1  0  0  0  0
 10 35  1  0  0  0  0
 11 12  1  0  0  0  0
 11 36  1  0  0  0  0
 11 37  1  0  0  0  0
 12 38  1  0  0  0  0
 12 39  1  0  0  0  0
 13 15  1  0  0  0  0
 13 17  1  0  0  0  0
 13 40  1  0  0  0  0
 14 16  1  0  0  0  0
 14 18  2  0  0  0  0
 15 16  2  0  0  0  0
 15 19  1  0  0  0  0
 16 41  1  0  0  0  0
 17 25  1  0  0  0  0
 17 42  1  0  0  0  0
 17 43  1  0  0  0  0
 18 24  1  0  0  0  0
 19 24  2  0  0  0  0
 19 44  1  0  0  0  0
 20 22  1  0  0  0  0
 21 23  1  0  0  0  0
 22 23  1  0  0  0  0
 22 26  2  0  0  0  0
 23 27  2  0  0  0  0
 24 45  1  0  0  0  0
 26 28  1  0  0  0  0
 26 46  1  0  0  0  0
 27 29  1  0  0  0  0
 27 47  1  0  0  0  0
 28 29  2  0  0  0  0
 28 48  1  0  0  0  0
 29 49  1  0  0  0  0
 30 52  1  0  0  0  0
 30 53  1  0  0  0  0
 30 54  1  0  0  0  0
M  END
> <DATABASE_ID>
DB15640

> <DATABASE_NAME>
drugbank

> <ORIGINAL_SOURCE>
PUBCHEM

> <ORIGINAL_SOURCE_URL>
https://pubchem.ncbi.nlm.nih.gov/rest/pug/compound/inchikey/DDYUBCCTNHWSQM-UHFFFAOYSA-N/SDF?record_type=3d

> <SMILES>
COC1=CC=C(C=C1OC1CCCC1)C(CC(N)=O)N1C(=O)C2=C(C=CC=C2)C1=O

> <INCHI_IDENTIFIER>
InChI=1S/C23H24N2O5/c1-29-19-11-10-14(12-20(19)30-15-6-2-3-7-15)18(13-21(24)26)25-22(27)16-8-4-5-9-17(16)23(25)28/h4-5,8-12,15,18H,2-3,6-7,13H2,1H3,(H2,24,26)

> <INCHI_KEY>
DDYUBCCTNHWSQM-UHFFFAOYSA-N

> <FORMULA>
C23H24N2O5

> <MOLECULAR_WEIGHT>
408.454

> <EXACT_MASS>
408.168521881

> <JCHEM_ACCEPTOR_COUNT>
5

> <JCHEM_ATOM_COUNT>
54

> <JCHEM_AVERAGE_NEUTRAL_MICROSPECIES_CHARGE>
-2.7212866871561458e-09

> <JCHEM_AVERAGE_POLARIZABILITY>
42.703087367041746

> <JCHEM_BIOAVAILABILITY>
1

> <JCHEM_DONOR_COUNT>
1

> <JCHEM_FORMAL_CHARGE>
0

> <JCHEM_GHOSE_FILTER>
1

> <JCHEM_IUPAC>
3-[3-(cyclopentyloxy)-4-methoxyphenyl]-3-(1,3-dioxo-2,3-dihydro-1H-isoindol-2-yl)propanamide

> <ALOGPS_LOGP>
2.38

> <JCHEM_LOGP>
2.648752057666667

> <ALOGPS_LOGS>
-4.59

> <JCHEM_MDDR_LIKE_RULE>
1

> <JCHEM_NEUTRAL_CHARGE>
0

> <JCHEM_NUMBER_OF_RINGS>
4

> <JCHEM_PHYSIOLOGICAL_CHARGE>
0

> <JCHEM_PKA_STRONGEST_ACIDIC>
15.493268504576205

> <JCHEM_PKA_STRONGEST_BASIC>
-2.3098323296279903

> <JCHEM_POLAR_SURFACE_AREA>
98.93

> <JCHEM_REFRACTIVITY>
110.44009999999997

> <JCHEM_ROTATABLE_BOND_COUNT>
7

> <JCHEM_RULE_OF_FIVE>
1

> <ALOGPS_SOLUBILITY>
1.06e-02 g/l

> <JCHEM_TRADITIONAL_IUPAC>
6-[(1R)-1-[8-fluoro-6-(1-methylpyrazol-4-yl)-[1,2,4]triazolo[4,3-a]pyridin-3-yl]ethyl]-3-(2-methoxyethoxy)-1,6-naphthyridin-5-one

> <JCHEM_VEBER_RULE>
0

> <DRUGBANK_ID>
DB15640

> <DRUG_GROUPS>
investigational

> <GENERIC_NAME>
CDC-801

$$$$