63952
  -OEChem-08242009553D

 51 53  0     1  0  0  0  0  0999 V2000
   -0.0497   -1.3686   -0.8474 O   0  0  0  0  0  0  0  0  0  0  0  0
    5.7718   -2.3231    1.1553 O   0  0  0  0  0  0  0  0  0  0  0  0
   -6.8952   -1.6309   -0.7098 O   0  0  0  0  0  0  0  0  0  0  0  0
    6.7615    1.9949   -1.0473 O   0  0  0  0  0  0  0  0  0  0  0  0
   -1.2176    1.0525    0.1892 N   0  0  0  0  0  0  0  0  0  0  0  0
    5.7073    0.1443   -0.1719 N   0  0  0  0  0  0  0  0  0  0  0  0
   -1.8530    1.8171    1.2516 C   0  0  1  0  0  0  0  0  0  0  0  0
    0.7769   -0.2517   -0.4985 C   0  0  1  0  0  0  0  0  0  0  0  0
    0.0949    0.5692    0.6119 C   0  0  0  0  0  0  0  0  0  0  0  0
   -3.1987    2.3729    0.7514 C   0  0  0  0  0  0  0  0  0  0  0  0
    2.1208   -0.7563   -0.0801 C   0  0  0  0  0  0  0  0  0  0  0  0
    3.2965   -0.0441   -0.3335 C   0  0  0  0  0  0  0  0  0  0  0  0
   -2.0116    0.9074    2.4701 C   0  0  0  0  0  0  0  0  0  0  0  0
   -4.1879    1.3013    0.3604 C   0  0  0  0  0  0  0  0  0  0  0  0
    4.5240   -0.5723    0.0832 C   0  0  0  0  0  0  0  0  0  0  0  0
    2.1777   -1.9836    0.5839 C   0  0  0  0  0  0  0  0  0  0  0  0
    4.5829   -1.7989    0.7471 C   0  0  0  0  0  0  0  0  0  0  0  0
    3.2788    1.2426   -1.0253 C   0  0  0  0  0  0  0  0  0  0  0  0
    3.4054   -2.5032    0.9964 C   0  0  0  0  0  0  0  0  0  0  0  0
   -4.2053    0.8374   -0.9448 C   0  0  0  0  0  0  0  0  0  0  0  0
   -5.0598    0.8019    1.3146 C   0  0  0  0  0  0  0  0  0  0  0  0
    4.4164    1.9071   -1.2579 C   0  0  0  0  0  0  0  0  0  0  0  0
    5.7316    1.3626   -0.8225 C   0  0  0  0  0  0  0  0  0  0  0  0
   -5.1193   -0.1524   -1.3061 C   0  0  0  0  0  0  0  0  0  0  0  0
   -5.9738   -0.1881    0.9535 C   0  0  0  0  0  0  0  0  0  0  0  0
   -6.0034   -0.6654   -0.3569 C   0  0  0  0  0  0  0  0  0  0  0  0
   -6.8713   -2.0724   -2.0665 C   0  0  0  0  0  0  0  0  0  0  0  0
   -1.2277    2.6765    1.5261 H   0  0  0  0  0  0  0  0  0  0  0  0
    0.8401    0.3300   -1.4223 H   0  0  0  0  0  0  0  0  0  0  0  0
    0.7377    1.4104    0.8996 H   0  0  0  0  0  0  0  0  0  0  0  0
    0.0040   -0.1006    1.4730 H   0  0  0  0  0  0  0  0  0  0  0  0
   -3.0331    3.0447   -0.1023 H   0  0  0  0  0  0  0  0  0  0  0  0
   -3.6430    3.0073    1.5303 H   0  0  0  0  0  0  0  0  0  0  0  0
   -1.1138    1.6333   -0.6425 H   0  0  0  0  0  0  0  0  0  0  0  0
   -1.0704    0.7882    3.0177 H   0  0  0  0  0  0  0  0  0  0  0  0
   -2.3894   -0.0892    2.2147 H   0  0  0  0  0  0  0  0  0  0  0  0
   -2.7096    1.3532    3.1884 H   0  0  0  0  0  0  0  0  0  0  0  0
    1.2802   -2.5530    0.8110 H   0  0  0  0  0  0  0  0  0  0  0  0
    2.3504    1.6976   -1.3433 H   0  0  0  0  0  0  0  0  0  0  0  0
    3.4290   -3.4582    1.5149 H   0  0  0  0  0  0  0  0  0  0  0  0
   -0.9313   -1.0205   -1.0656 H   0  0  0  0  0  0  0  0  0  0  0  0
   -3.5255    1.2335   -1.6939 H   0  0  0  0  0  0  0  0  0  0  0  0
   -5.0520    1.1700    2.3362 H   0  0  0  0  0  0  0  0  0  0  0  0
    6.5851   -0.2605    0.1411 H   0  0  0  0  0  0  0  0  0  0  0  0
    4.4124    2.8670   -1.7623 H   0  0  0  0  0  0  0  0  0  0  0  0
   -5.0890   -0.4765   -2.3408 H   0  0  0  0  0  0  0  0  0  0  0  0
   -6.6612   -0.5824    1.6968 H   0  0  0  0  0  0  0  0  0  0  0  0
    5.6091   -3.1757    1.5942 H   0  0  0  0  0  0  0  0  0  0  0  0
   -5.9158   -2.5445   -2.3193 H   0  0  0  0  0  0  0  0  0  0  0  0
   -7.1303   -1.2632   -2.7576 H   0  0  0  0  0  0  0  0  0  0  0  0
   -7.6445   -2.8408   -2.1699 H   0  0  0  0  0  0  0  0  0  0  0  0
  1  8  1  0  0  0  0
  1 41  1  0  0  0  0
  2 17  1  0  0  0  0
  2 48  1  0  0  0  0
  3 26  1  0  0  0  0
  3 27  1  0  0  0  0
  4 23  2  0  0  0  0
  5  7  1  0  0  0  0
  5  9  1  0  0  0  0
  5 34  1  0  0  0  0
  6 15  1  0  0  0  0
  6 23  1  0  0  0  0
  6 44  1  0  0  0  0
  7 10  1  0  0  0  0
  7 13  1  0  0  0  0
  7 28  1  0  0  0  0
  8  9  1  0  0  0  0
  8 11  1  0  0  0  0
  8 29  1  0  0  0  0
  9 30  1  0  0  0  0
  9 31  1  0  0  0  0
 10 14  1  0  0  0  0
 10 32  1  0  0  0  0
 10 33  1  0  0  0  0
 11 12  2  0  0  0  0
 11 16  1  0  0  0  0
 12 15  1  0  0  0  0
 12 18  1  0  0  0  0
 13 35  1  0  0  0  0
 13 36  1  0  0  0  0
 13 37  1  0  0  0  0
 14 20  2  0  0  0  0
 14 21  1  0  0  0  0
 15 17  2  0  0  0  0
 16 19  2  0  0  0  0
 16 38  1  0  0  0  0
 17 19  1  0  0  0  0
 18 22  2  0  0  0  0
 18 39  1  0  0  0  0
 19 40  1  0  0  0  0
 20 24  1  0  0  0  0
 20 42  1  0  0  0  0
 21 25  2  0  0  0  0
 21 43  1  0  0  0  0
 22 23  1  0  0  0  0
 22 45  1  0  0  0  0
 24 26  2  0  0  0  0
 24 46  1  0  0  0  0
 25 26  1  0  0  0  0
 25 47  1  0  0  0  0
 27 49  1  0  0  0  0
 27 50  1  0  0  0  0
 27 51  1  0  0  0  0
M  END
> <DATABASE_ID>
DB15784

> <DATABASE_NAME>
drugbank

> <ORIGINAL_SOURCE>
PUBCHEM

> <ORIGINAL_SOURCE_URL>
https://pubchem.ncbi.nlm.nih.gov/rest/pug/compound/inchikey/IHOXNOQMRZISPV-YJYMSZOUSA-N/SDF?record_type=3d

> <SMILES>
COC1=CC=C(C[C@@H](C)NC[C@H](O)C2=CC=C(O)C3=C2C=CC(=O)N3)C=C1

> <INCHI_IDENTIFIER>
InChI=1S/C21H24N2O4/c1-13(11-14-3-5-15(27-2)6-4-14)22-12-19(25)16-7-9-18(24)21-17(16)8-10-20(26)23-21/h3-10,13,19,22,24-25H,11-12H2,1-2H3,(H,23,26)/t13-,19+/m1/s1

> <INCHI_KEY>
IHOXNOQMRZISPV-YJYMSZOUSA-N

> <FORMULA>
C21H24N2O4

> <MOLECULAR_WEIGHT>
368.433

> <EXACT_MASS>
368.173607261

> <JCHEM_ACCEPTOR_COUNT>
5

> <JCHEM_ATOM_COUNT>
51

> <JCHEM_AVERAGE_NEUTRAL_MICROSPECIES_CHARGE>
0.968642177985526

> <JCHEM_AVERAGE_POLARIZABILITY>
39.76954344849691

> <JCHEM_BIOAVAILABILITY>
1

> <JCHEM_DONOR_COUNT>
4

> <JCHEM_FORMAL_CHARGE>
0

> <JCHEM_GHOSE_FILTER>
1

> <JCHEM_IUPAC>
8-hydroxy-5-[(1R)-1-hydroxy-2-{[(2R)-1-(4-methoxyphenyl)propan-2-yl]amino}ethyl]-1,2-dihydroquinolin-2-one

> <ALOGPS_LOGP>
1.95

> <JCHEM_LOGP>
1.486591701569461

> <ALOGPS_LOGS>
-4.29

> <JCHEM_MDDR_LIKE_RULE>
1

> <JCHEM_NEUTRAL_CHARGE>
1

> <JCHEM_NUMBER_OF_RINGS>
3

> <JCHEM_PHYSIOLOGICAL_CHARGE>
1

> <JCHEM_PKA>
14.057719556345182

> <JCHEM_PKA_STRONGEST_ACIDIC>
8.515090885467732

> <JCHEM_PKA_STRONGEST_BASIC>
9.76369321501001

> <JCHEM_POLAR_SURFACE_AREA>
90.82000000000001

> <JCHEM_REFRACTIVITY>
106.72020000000003

> <JCHEM_ROTATABLE_BOND_COUNT>
7

> <JCHEM_RULE_OF_FIVE>
1

> <ALOGPS_SOLUBILITY>
1.88e-02 g/l

> <JCHEM_TRADITIONAL_IUPAC>
unii-71TH42O2CQ

> <JCHEM_VEBER_RULE>
0

> <DRUGBANK_ID>
DB15784

> <DRUG_GROUPS>
experimental

> <GENERIC_NAME>
Carmoterol

> <SYNONYMS>
Carmoterol; Quinoterol

$$$$