11215055
  -OEChem-05201911193D

 77 81  0     1  0  0  0  0  0999 V2000
    2.0900    2.3972   -1.2231 O   0  0  0  0  0  0  0  0  0  0  0  0
   -1.4771    2.8086   -2.5470 O   0  0  0  0  0  0  0  0  0  0  0  0
   -2.9890    3.5332   -1.0191 O   0  0  0  0  0  0  0  0  0  0  0  0
    1.0471   -0.7879    1.6761 O   0  0  0  0  0  0  0  0  0  0  0  0
    1.2720   -2.1274   -1.7469 O   0  0  0  0  0  0  0  0  0  0  0  0
    0.2343   -4.0776   -1.2298 O   0  0  0  0  0  0  0  0  0  0  0  0
    1.9999    1.6027    0.9636 N   0  0  0  0  0  0  0  0  0  0  0  0
    2.6509   -1.9733    0.4754 N   0  0  0  0  0  0  0  0  0  0  0  0
    0.6997    3.5342    0.3614 C   0  0  0  0  0  0  0  0  0  0  0  0
    1.3397    4.3763    1.4832 C   0  0  0  0  0  0  0  0  0  0  0  0
    0.4532    4.5120   -0.7989 C   0  0  0  0  0  0  0  0  0  0  0  0
   -0.5917    2.8535    0.8097 C   0  0  0  0  0  0  0  0  0  0  0  0
    1.4543    5.7969    0.9329 C   0  0  0  0  0  0  0  0  0  0  0  0
    1.4672    5.6252   -0.5751 C   0  0  0  0  0  0  0  0  0  0  0  0
   -1.2236    2.0058   -0.3063 C   0  0  1  0  0  0  0  0  0  0  0  0
    1.6738    2.4669   -0.0696 C   0  0  0  0  0  0  0  0  0  0  0  0
   -2.1263    0.8894    0.2520 C   0  0  0  0  0  0  0  0  0  0  0  0
    2.8950    0.4819    0.8055 C   0  0  1  0  0  0  0  0  0  0  0  0
   -2.0049    2.8600   -1.2960 C   0  0  0  0  0  0  0  0  0  0  0  0
   -2.6323   -0.1094   -0.7967 C   0  0  0  0  0  0  0  0  0  0  0  0
    4.1010    0.6171    1.7270 C   0  0  0  0  0  0  0  0  0  0  0  0
    2.1107   -0.8076    1.0503 C   0  0  0  0  0  0  0  0  0  0  0  0
    4.8918   -0.6724    1.8945 C   0  0  0  0  0  0  0  0  0  0  0  0
   -3.4521   -1.2063   -0.1633 C   0  0  0  0  0  0  0  0  0  0  0  0
    5.0737   -1.4194    0.5979 C   0  0  0  0  0  0  0  0  0  0  0  0
    3.9926   -2.0776   -0.0309 C   0  0  0  0  0  0  0  0  0  0  0  0
   -4.8422   -1.0952    0.0036 C   0  0  0  0  0  0  0  0  0  0  0  0
   -2.7737   -2.3508    0.2570 C   0  0  0  0  0  0  0  0  0  0  0  0
    1.7905   -3.1500    0.3553 C   0  0  0  0  0  0  0  0  0  0  0  0
    6.3660   -1.5300    0.0572 C   0  0  0  0  0  0  0  0  0  0  0  0
    4.2577   -2.8812   -1.1542 C   0  0  0  0  0  0  0  0  0  0  0  0
   -5.5540   -2.1601    0.6052 C   0  0  0  0  0  0  0  0  0  0  0  0
   -3.4739   -3.3981    0.8483 C   0  0  0  0  0  0  0  0  0  0  0  0
   -5.5412    0.0493   -0.4133 C   0  0  0  0  0  0  0  0  0  0  0  0
    6.5998   -2.3026   -1.0777 C   0  0  0  0  0  0  0  0  0  0  0  0
   -4.8552   -3.3049    1.0220 C   0  0  0  0  0  0  0  0  0  0  0  0
    5.5481   -2.9848   -1.6771 C   0  0  0  0  0  0  0  0  0  0  0  0
    1.0173   -3.1820   -0.9380 C   0  0  0  0  0  0  0  0  0  0  0  0
   -6.9441   -2.0493    0.7722 C   0  0  0  0  0  0  0  0  0  0  0  0
   -6.9224    0.1425   -0.2394 C   0  0  0  0  0  0  0  0  0  0  0  0
   -7.6226   -0.9048    0.3523 C   0  0  0  0  0  0  0  0  0  0  0  0
    0.7455    4.3776    2.4040 H   0  0  0  0  0  0  0  0  0  0  0  0
    2.3444    4.0294    1.7531 H   0  0  0  0  0  0  0  0  0  0  0  0
    0.5643    4.0971   -1.8036 H   0  0  0  0  0  0  0  0  0  0  0  0
   -0.5435    4.9642   -0.7274 H   0  0  0  0  0  0  0  0  0  0  0  0
   -0.4130    2.2258    1.6908 H   0  0  0  0  0  0  0  0  0  0  0  0
   -1.3101    3.6154    1.1421 H   0  0  0  0  0  0  0  0  0  0  0  0
    0.5775    6.3822    1.2353 H   0  0  0  0  0  0  0  0  0  0  0  0
    2.3455    6.3136    1.3008 H   0  0  0  0  0  0  0  0  0  0  0  0
    1.1962    6.5461   -1.0994 H   0  0  0  0  0  0  0  0  0  0  0  0
    2.4617    5.3149   -0.9162 H   0  0  0  0  0  0  0  0  0  0  0  0
   -0.4416    1.4858   -0.8717 H   0  0  0  0  0  0  0  0  0  0  0  0
   -2.9826    1.3435    0.7680 H   0  0  0  0  0  0  0  0  0  0  0  0
   -1.5676    0.3375    1.0196 H   0  0  0  0  0  0  0  0  0  0  0  0
    1.5975    1.7417    1.8852 H   0  0  0  0  0  0  0  0  0  0  0  0
    3.2321    0.4762   -0.2381 H   0  0  0  0  0  0  0  0  0  0  0  0
   -3.1758    0.3857   -1.6073 H   0  0  0  0  0  0  0  0  0  0  0  0
   -1.7651   -0.5614   -1.2986 H   0  0  0  0  0  0  0  0  0  0  0  0
    4.7569    1.4021    1.3273 H   0  0  0  0  0  0  0  0  0  0  0  0
    3.7919    0.9637    2.7218 H   0  0  0  0  0  0  0  0  0  0  0  0
    5.8630   -0.4377    2.3481 H   0  0  0  0  0  0  0  0  0  0  0  0
    4.3932   -1.3352    2.6140 H   0  0  0  0  0  0  0  0  0  0  0  0
   -1.9793    3.3669   -3.1782 H   0  0  0  0  0  0  0  0  0  0  0  0
   -1.6976   -2.4359    0.1380 H   0  0  0  0  0  0  0  0  0  0  0  0
    2.3899   -4.0619    0.4487 H   0  0  0  0  0  0  0  0  0  0  0  0
    1.0570   -3.1418    1.1689 H   0  0  0  0  0  0  0  0  0  0  0  0
    7.2055   -1.0272    0.5315 H   0  0  0  0  0  0  0  0  0  0  0  0
    3.4820   -3.4378   -1.6684 H   0  0  0  0  0  0  0  0  0  0  0  0
   -2.9448   -4.2878    1.1770 H   0  0  0  0  0  0  0  0  0  0  0  0
   -5.0490    0.9039   -0.8670 H   0  0  0  0  0  0  0  0  0  0  0  0
    7.6038   -2.3841   -1.4831 H   0  0  0  0  0  0  0  0  0  0  0  0
   -5.3819   -4.1355    1.4872 H   0  0  0  0  0  0  0  0  0  0  0  0
    5.7296   -3.6000   -2.5538 H   0  0  0  0  0  0  0  0  0  0  0  0
   -7.5116   -2.8555    1.2323 H   0  0  0  0  0  0  0  0  0  0  0  0
   -7.4512    1.0344   -0.5628 H   0  0  0  0  0  0  0  0  0  0  0  0
   -8.6976   -0.8311    0.4881 H   0  0  0  0  0  0  0  0  0  0  0  0
    0.7565   -2.1707   -2.5802 H   0  0  0  0  0  0  0  0  0  0  0  0
  1 16  2  0  0  0  0
  2 19  1  0  0  0  0
  2 63  1  0  0  0  0
  3 19  2  0  0  0  0
  4 22  2  0  0  0  0
  5 38  1  0  0  0  0
  5 77  1  0  0  0  0
  6 38  2  0  0  0  0
  7 16  1  0  0  0  0
  7 18  1  0  0  0  0
  7 55  1  0  0  0  0
  8 22  1  0  0  0  0
  8 26  1  0  0  0  0
  8 29  1  0  0  0  0
  9 10  1  0  0  0  0
  9 11  1  0  0  0  0
  9 12  1  0  0  0  0
  9 16  1  0  0  0  0
 10 13  1  0  0  0  0
 10 42  1  0  0  0  0
 10 43  1  0  0  0  0
 11 14  1  0  0  0  0
 11 44  1  0  0  0  0
 11 45  1  0  0  0  0
 12 15  1  0  0  0  0
 12 46  1  0  0  0  0
 12 47  1  0  0  0  0
 13 14  1  0  0  0  0
 13 48  1  0  0  0  0
 13 49  1  0  0  0  0
 14 50  1  0  0  0  0
 14 51  1  0  0  0  0
 15 17  1  0  0  0  0
 15 19  1  0  0  0  0
 15 52  1  0  0  0  0
 17 20  1  0  0  0  0
 17 53  1  0  0  0  0
 17 54  1  0  0  0  0
 18 21  1  0  0  0  0
 18 22  1  0  0  0  0
 18 56  1  0  0  0  0
 20 24  1  0  0  0  0
 20 57  1  0  0  0  0
 20 58  1  0  0  0  0
 21 23  1  0  0  0  0
 21 59  1  0  0  0  0
 21 60  1  0  0  0  0
 23 25  1  0  0  0  0
 23 61  1  0  0  0  0
 23 62  1  0  0  0  0
 24 27  1  0  0  0  0
 24 28  2  0  0  0  0
 25 26  1  0  0  0  0
 25 30  2  0  0  0  0
 26 31  2  0  0  0  0
 27 32  1  0  0  0  0
 27 34  2  0  0  0  0
 28 33  1  0  0  0  0
 28 64  1  0  0  0  0
 29 38  1  0  0  0  0
 29 65  1  0  0  0  0
 29 66  1  0  0  0  0
 30 35  1  0  0  0  0
 30 67  1  0  0  0  0
 31 37  1  0  0  0  0
 31 68  1  0  0  0  0
 32 36  1  0  0  0  0
 32 39  2  0  0  0  0
 33 36  2  0  0  0  0
 33 69  1  0  0  0  0
 34 40  1  0  0  0  0
 34 70  1  0  0  0  0
 35 37  2  0  0  0  0
 35 71  1  0  0  0  0
 36 72  1  0  0  0  0
 37 73  1  0  0  0  0
 39 41  1  0  0  0  0
 39 74  1  0  0  0  0
 40 41  2  0  0  0  0
 40 75  1  0  0  0  0
 41 76  1  0  0  0  0
M  END
> <DATABASE_ID>
DB15356

> <DATABASE_NAME>
drugbank

> <ORIGINAL_SOURCE>
PUBCHEM

> <ORIGINAL_SOURCE_URL>
https://pubchem.ncbi.nlm.nih.gov/rest/pug/compound/inchikey/LOFDNSDPZTVIIO-VPUSJEBWSA-N/SDF?record_type=3d

> <SMILES>
OC(=O)CN1C2=CC=CC=C2CC[C@H](NC(=O)C2(C[C@@H](CCC3=CC=CC4=CC=CC=C34)C(O)=O)CCCC2)C1=O

> <INCHI_IDENTIFIER>
InChI=1S/C33H36N2O6/c36-29(37)21-35-28-13-4-2-9-24(28)16-17-27(30(35)38)34-32(41)33(18-5-6-19-33)20-25(31(39)40)15-14-23-11-7-10-22-8-1-3-12-26(22)23/h1-4,7-13,25,27H,5-6,14-21H2,(H,34,41)(H,36,37)(H,39,40)/t25-,27+/m1/s1

> <INCHI_KEY>
LOFDNSDPZTVIIO-VPUSJEBWSA-N

> <FORMULA>
C33H36N2O6

> <MOLECULAR_WEIGHT>
556.659

> <EXACT_MASS>
556.257336887

> <JCHEM_ACCEPTOR_COUNT>
6

> <JCHEM_ATOM_COUNT>
77

> <JCHEM_AVERAGE_POLARIZABILITY>
60.12804393034446

> <JCHEM_BIOAVAILABILITY>
0

> <JCHEM_DONOR_COUNT>
3

> <JCHEM_FORMAL_CHARGE>
0

> <JCHEM_GHOSE_FILTER>
0

> <JCHEM_IUPAC>
(2R)-2-[(1-{[(3S)-1-(carboxymethyl)-2-oxo-2,3,4,5-tetrahydro-1H-1-benzazepin-3-yl]carbamoyl}cyclopentyl)methyl]-4-(naphthalen-1-yl)butanoic acid

> <ALOGPS_LOGP>
3.23

> <JCHEM_LOGP>
5.4933835370000015

> <ALOGPS_LOGS>
-5.69

> <JCHEM_MDDR_LIKE_RULE>
1

> <JCHEM_NUMBER_OF_RINGS>
5

> <JCHEM_PHYSIOLOGICAL_CHARGE>
-2

> <JCHEM_PKA>
4.543256156540719

> <JCHEM_PKA_STRONGEST_ACIDIC>
3.771067619507888

> <JCHEM_PKA_STRONGEST_BASIC>
-0.054845151706555954

> <JCHEM_POLAR_SURFACE_AREA>
124.00999999999999

> <JCHEM_REFRACTIVITY>
152.87220000000005

> <JCHEM_ROTATABLE_BOND_COUNT>
10

> <JCHEM_RULE_OF_FIVE>
0

> <ALOGPS_SOLUBILITY>
1.14e-03 g/l

> <JCHEM_TRADITIONAL_IUPAC>
(2R)-14-fluoro-2-methyl-6,9,10,19-tetraazapentacyclo[14.2.1.0^{2,6}.0^{8,18}.0^{12,17}]nonadeca-1(18),8,12(17),13,15-pentaen-11-one

> <JCHEM_VEBER_RULE>
0

> <DRUGBANK_ID>
DB15356

> <DRUG_GROUPS>
investigational

> <GENERIC_NAME>
SLV-334

$$$$