118892432
  -OEChem-04202011453D

 53 56  0     0  0  0  0  0  0999 V2000
   -2.2733   -6.0552   -1.5495 Cl  0  0  0  0  0  0  0  0  0  0  0  0
   -5.5731    2.8289   -0.1591 S   0  0  0  0  0  0  0  0  0  0  0  0
    7.0018   -0.3184    0.6433 F   0  0  0  0  0  0  0  0  0  0  0  0
    5.1181   -1.4037    0.8127 F   0  0  0  0  0  0  0  0  0  0  0  0
    5.5685   -0.2666   -0.9989 F   0  0  0  0  0  0  0  0  0  0  0  0
    2.6846    0.3348    2.7113 O   0  0  0  0  0  0  0  0  0  0  0  0
   -4.6583    3.6310   -0.9545 O   0  0  0  0  0  0  0  0  0  0  0  0
   -6.4680    1.8782   -0.7982 O   0  0  0  0  0  0  0  0  0  0  0  0
   -1.9132   -0.7702    0.9144 N   0  0  0  0  0  0  0  0  0  0  0  0
    1.3826    0.9404    0.8197 N   0  0  0  0  0  0  0  0  0  0  0  0
    3.6443    1.0319    0.6530 N   0  0  0  0  0  0  0  0  0  0  0  0
    1.4851    2.1121   -2.7131 N   0  0  0  0  0  0  0  0  0  0  0  0
   -0.5708   -0.5194    0.8171 C   0  0  0  0  0  0  0  0  0  0  0  0
    0.0465    0.7522    1.3234 C   0  0  0  0  0  0  0  0  0  0  0  0
   -2.8853    0.1294    1.5008 C   0  0  0  0  0  0  0  0  0  0  0  0
   -2.2066   -2.0017    0.3735 C   0  0  0  0  0  0  0  0  0  0  0  0
   -3.6857    0.9387    0.4720 C   0  0  0  0  0  0  0  0  0  0  0  0
   -1.0045   -2.5476   -0.0817 C   0  0  0  0  0  0  0  0  0  0  0  0
    0.0189   -1.6013    0.2049 C   0  0  0  0  0  0  0  0  0  0  0  0
    1.7133    1.3729   -0.4702 C   0  0  0  0  0  0  0  0  0  0  0  0
   -4.6371    1.9714    1.0649 C   0  0  0  0  0  0  0  0  0  0  0  0
    3.0974    1.4304   -0.5767 C   0  0  0  0  0  0  0  0  0  0  0  0
    2.5841    0.7168    1.5532 C   0  0  0  0  0  0  0  0  0  0  0  0
   -3.4315   -2.6675    0.2534 C   0  0  0  0  0  0  0  0  0  0  0  0
    5.0503    0.9539    0.9569 C   0  0  0  0  0  0  0  0  0  0  0  0
   -1.0235   -3.8200   -0.6864 C   0  0  0  0  0  0  0  0  0  0  0  0
    0.9322    1.7158   -1.5429 C   0  0  0  0  0  0  0  0  0  0  0  0
    3.7112    1.8262   -1.7423 C   0  0  0  0  0  0  0  0  0  0  0  0
   -3.4258   -3.9286   -0.3495 C   0  0  0  0  0  0  0  0  0  0  0  0
   -2.2414   -4.4979   -0.8129 C   0  0  0  0  0  0  0  0  0  0  0  0
    5.6843   -0.2704    0.3461 C   0  0  0  0  0  0  0  0  0  0  0  0
   -6.5740    3.9473    0.7956 C   0  0  0  0  0  0  0  0  0  0  0  0
    2.8491    2.1561   -2.7803 C   0  0  0  0  0  0  0  0  0  0  0  0
   -0.5472    1.6273    1.0367 H   0  0  0  0  0  0  0  0  0  0  0  0
    0.0895    0.7135    2.4180 H   0  0  0  0  0  0  0  0  0  0  0  0
   -3.5647   -0.4756    2.1133 H   0  0  0  0  0  0  0  0  0  0  0  0
   -2.3750    0.8001    2.1993 H   0  0  0  0  0  0  0  0  0  0  0  0
   -4.2532    0.2504   -0.1666 H   0  0  0  0  0  0  0  0  0  0  0  0
   -2.9844    1.4489   -0.2016 H   0  0  0  0  0  0  0  0  0  0  0  0
    1.0717   -1.7163   -0.0157 H   0  0  0  0  0  0  0  0  0  0  0  0
   -5.3508    1.4844    1.7372 H   0  0  0  0  0  0  0  0  0  0  0  0
   -4.0761    2.7202    1.6333 H   0  0  0  0  0  0  0  0  0  0  0  0
   -4.3592   -2.2336    0.6110 H   0  0  0  0  0  0  0  0  0  0  0  0
    5.5417    1.8655    0.6005 H   0  0  0  0  0  0  0  0  0  0  0  0
    5.1718    0.9179    2.0448 H   0  0  0  0  0  0  0  0  0  0  0  0
   -0.0989   -4.2630   -1.0473 H   0  0  0  0  0  0  0  0  0  0  0  0
   -0.1498    1.6907   -1.5181 H   0  0  0  0  0  0  0  0  0  0  0  0
    4.7840    1.8950   -1.8581 H   0  0  0  0  0  0  0  0  0  0  0  0
   -4.3692   -4.4610   -0.4508 H   0  0  0  0  0  0  0  0  0  0  0  0
   -7.1925    4.5243    0.1050 H   0  0  0  0  0  0  0  0  0  0  0  0
   -7.2066    3.3663    1.4690 H   0  0  0  0  0  0  0  0  0  0  0  0
   -5.9180    4.6143    1.3577 H   0  0  0  0  0  0  0  0  0  0  0  0
    3.2423    2.4831   -3.7384 H   0  0  0  0  0  0  0  0  0  0  0  0
  1 30  1  0  0  0  0
  2  7  2  0  0  0  0
  2  8  2  0  0  0  0
  2 21  1  0  0  0  0
  2 32  1  0  0  0  0
  3 31  1  0  0  0  0
  4 31  1  0  0  0  0
  5 31  1  0  0  0  0
  6 23  2  0  0  0  0
  9 13  1  0  0  0  0
  9 15  1  0  0  0  0
  9 16  1  0  0  0  0
 10 14  1  0  0  0  0
 10 20  1  0  0  0  0
 10 23  1  0  0  0  0
 11 22  1  0  0  0  0
 11 23  1  0  0  0  0
 11 25  1  0  0  0  0
 12 27  2  0  0  0  0
 12 33  1  0  0  0  0
 13 14  1  0  0  0  0
 13 19  2  0  0  0  0
 14 34  1  0  0  0  0
 14 35  1  0  0  0  0
 15 17  1  0  0  0  0
 15 36  1  0  0  0  0
 15 37  1  0  0  0  0
 16 18  2  0  0  0  0
 16 24  1  0  0  0  0
 17 21  1  0  0  0  0
 17 38  1  0  0  0  0
 17 39  1  0  0  0  0
 18 19  1  0  0  0  0
 18 26  1  0  0  0  0
 19 40  1  0  0  0  0
 20 22  2  0  0  0  0
 20 27  1  0  0  0  0
 21 41  1  0  0  0  0
 21 42  1  0  0  0  0
 22 28  1  0  0  0  0
 24 29  2  0  0  0  0
 24 43  1  0  0  0  0
 25 31  1  0  0  0  0
 25 44  1  0  0  0  0
 25 45  1  0  0  0  0
 26 30  2  0  0  0  0
 26 46  1  0  0  0  0
 27 47  1  0  0  0  0
 28 33  2  0  0  0  0
 28 48  1  0  0  0  0
 29 30  1  0  0  0  0
 29 49  1  0  0  0  0
 32 50  1  0  0  0  0
 32 51  1  0  0  0  0
 32 52  1  0  0  0  0
 33 53  1  0  0  0  0
M  END
> <DATABASE_ID>
DB15672

> <DATABASE_NAME>
drugbank

> <ORIGINAL_SOURCE>
PUBCHEM

> <ORIGINAL_SOURCE_URL>
https://pubchem.ncbi.nlm.nih.gov/rest/pug/compound/inchikey/GTQTUABHRCWVLL-UHFFFAOYSA-N/SDF?record_type=3d

> <SMILES>
CS(=O)(=O)CCCN1C(CN2C(=O)N(CC(F)(F)F)C3=C2C=NC=C3)=CC2=C1C=CC(Cl)=C2

> <INCHI_IDENTIFIER>
InChI=1S/C21H20ClF3N4O3S/c1-33(31,32)8-2-7-27-16(10-14-9-15(22)3-4-17(14)27)12-28-19-11-26-6-5-18(19)29(20(28)30)13-21(23,24)25/h3-6,9-11H,2,7-8,12-13H2,1H3

> <INCHI_KEY>
GTQTUABHRCWVLL-UHFFFAOYSA-N

> <FORMULA>
C21H20ClF3N4O3S

> <MOLECULAR_WEIGHT>
500.92

> <EXACT_MASS>
500.0896739

> <JCHEM_ACCEPTOR_COUNT>
4

> <JCHEM_ATOM_COUNT>
53

> <JCHEM_AVERAGE_NEUTRAL_MICROSPECIES_CHARGE>
0.0005384189613955758

> <JCHEM_AVERAGE_POLARIZABILITY>
46.71401252741351

> <JCHEM_BIOAVAILABILITY>
1

> <JCHEM_DONOR_COUNT>
0

> <JCHEM_FORMAL_CHARGE>
0

> <JCHEM_GHOSE_FILTER>
0

> <JCHEM_IUPAC>
3-{[5-chloro-1-(3-methanesulfonylpropyl)-1H-indol-2-yl]methyl}-1-(2,2,2-trifluoroethyl)-1H,2H,3H-imidazo[4,5-c]pyridin-2-one

> <ALOGPS_LOGP>
3.16

> <JCHEM_LOGP>
2.2834412049999995

> <ALOGPS_LOGS>
-5.08

> <JCHEM_MDDR_LIKE_RULE>
1

> <JCHEM_NEUTRAL_CHARGE>
0

> <JCHEM_NUMBER_OF_RINGS>
4

> <JCHEM_PHYSIOLOGICAL_CHARGE>
0

> <JCHEM_PKA_STRONGEST_ACIDIC>
17.850980038195296

> <JCHEM_PKA_STRONGEST_BASIC>
3.7313542527667254

> <JCHEM_POLAR_SURFACE_AREA>
75.51

> <JCHEM_REFRACTIVITY>
118.14429999999999

> <JCHEM_ROTATABLE_BOND_COUNT>
8

> <JCHEM_RULE_OF_FIVE>
0

> <ALOGPS_SOLUBILITY>
4.15e-03 g/l

> <JCHEM_TRADITIONAL_IUPAC>
(argentiooxy)silver

> <JCHEM_VEBER_RULE>
0

> <DRUGBANK_ID>
DB15672

> <DRUG_GROUPS>
investigational

> <GENERIC_NAME>
Rilematovir

> <SYNONYMS>
Rilematovir

$$$$