17457
  -OEChem-11252016243D

 45 47  0     0  0  0  0  0  0999 V2000
    8.4386    0.9542   -0.1898 Cl  0  0  0  0  0  0  0  0  0  0  0  0
    2.7826   -1.5957   -0.2763 S   0  0  0  0  0  0  0  0  0  0  0  0
   -3.1483    1.0543    0.8098 O   0  0  0  0  0  0  0  0  0  0  0  0
   -6.3306   -0.3457   -0.4083 N   0  0  0  0  0  0  0  0  0  0  0  0
    3.2581    0.8878    0.2318 N   0  0  0  0  0  0  0  0  0  0  0  0
   -5.3709    0.6682    0.0022 C   0  0  0  0  0  0  0  0  0  0  0  0
   -7.5773    0.2747   -0.8635 C   0  0  0  0  0  0  0  0  0  0  0  0
   -6.6015   -1.2777    0.6890 C   0  0  0  0  0  0  0  0  0  0  0  0
   -4.0623    0.0254    0.4333 C   0  0  0  0  0  0  0  0  0  0  0  0
   -7.3224    1.2468   -2.0029 C   0  0  0  0  0  0  0  0  0  0  0  0
   -7.5495   -2.3811    0.2508 C   0  0  0  0  0  0  0  0  0  0  0  0
   -1.8224    0.7972    0.6408 C   0  0  0  0  0  0  0  0  0  0  0  0
    0.8940    0.2705    0.2949 C   0  0  0  0  0  0  0  0  0  0  0  0
    2.3004   -0.0022    0.1161 C   0  0  0  0  0  0  0  0  0  0  0  0
   -0.9380    1.8418    0.3721 C   0  0  0  0  0  0  0  0  0  0  0  0
   -1.3478   -0.5109    0.7365 C   0  0  0  0  0  0  0  0  0  0  0  0
    0.4208    1.5784    0.1989 C   0  0  0  0  0  0  0  0  0  0  0  0
    0.0109   -0.7745    0.5636 C   0  0  0  0  0  0  0  0  0  0  0  0
    4.4846    0.2841   -0.0049 C   0  0  0  0  0  0  0  0  0  0  0  0
    4.4280   -1.0810   -0.3014 C   0  0  0  0  0  0  0  0  0  0  0  0
    5.7454    0.9185    0.0287 C   0  0  0  0  0  0  0  0  0  0  0  0
    5.5854   -1.8314   -0.5645 C   0  0  0  0  0  0  0  0  0  0  0  0
    6.9017    0.1776   -0.2323 C   0  0  0  0  0  0  0  0  0  0  0  0
    6.8205   -1.1793   -0.5248 C   0  0  0  0  0  0  0  0  0  0  0  0
   -5.7597    1.2990    0.8130 H   0  0  0  0  0  0  0  0  0  0  0  0
   -5.1143    1.3473   -0.8184 H   0  0  0  0  0  0  0  0  0  0  0  0
   -8.2590   -0.4811   -1.2668 H   0  0  0  0  0  0  0  0  0  0  0  0
   -8.0987    0.7920   -0.0483 H   0  0  0  0  0  0  0  0  0  0  0  0
   -5.6955   -1.8082    0.9930 H   0  0  0  0  0  0  0  0  0  0  0  0
   -7.0032   -0.7678    1.5734 H   0  0  0  0  0  0  0  0  0  0  0  0
   -3.6762   -0.5730   -0.4030 H   0  0  0  0  0  0  0  0  0  0  0  0
   -4.1784   -0.6027    1.3201 H   0  0  0  0  0  0  0  0  0  0  0  0
   -6.8800    2.1875   -1.6605 H   0  0  0  0  0  0  0  0  0  0  0  0
   -6.6818    0.8097   -2.7766 H   0  0  0  0  0  0  0  0  0  0  0  0
   -8.2741    1.5085   -2.4795 H   0  0  0  0  0  0  0  0  0  0  0  0
   -8.5839   -2.0346    0.1646 H   0  0  0  0  0  0  0  0  0  0  0  0
   -7.2422   -2.8271   -0.7014 H   0  0  0  0  0  0  0  0  0  0  0  0
   -7.5521   -3.1818    0.9994 H   0  0  0  0  0  0  0  0  0  0  0  0
   -1.3023    2.8626    0.2954 H   0  0  0  0  0  0  0  0  0  0  0  0
   -1.9966   -1.3479    0.9773 H   0  0  0  0  0  0  0  0  0  0  0  0
    1.0898    2.4088   -0.0129 H   0  0  0  0  0  0  0  0  0  0  0  0
    0.3194   -1.8086    0.6836 H   0  0  0  0  0  0  0  0  0  0  0  0
    5.8046    1.9794    0.2579 H   0  0  0  0  0  0  0  0  0  0  0  0
    5.5294   -2.8911   -0.7936 H   0  0  0  0  0  0  0  0  0  0  0  0
    7.7206   -1.7555   -0.7277 H   0  0  0  0  0  0  0  0  0  0  0  0
  1 23  1  0  0  0  0
  2 14  1  0  0  0  0
  2 20  1  0  0  0  0
  3  9  1  0  0  0  0
  3 12  1  0  0  0  0
  4  6  1  0  0  0  0
  4  7  1  0  0  0  0
  4  8  1  0  0  0  0
  5 14  2  0  0  0  0
  5 19  1  0  0  0  0
  6  9  1  0  0  0  0
  6 25  1  0  0  0  0
  6 26  1  0  0  0  0
  7 10  1  0  0  0  0
  7 27  1  0  0  0  0
  7 28  1  0  0  0  0
  8 11  1  0  0  0  0
  8 29  1  0  0  0  0
  8 30  1  0  0  0  0
  9 31  1  0  0  0  0
  9 32  1  0  0  0  0
 10 33  1  0  0  0  0
 10 34  1  0  0  0  0
 10 35  1  0  0  0  0
 11 36  1  0  0  0  0
 11 37  1  0  0  0  0
 11 38  1  0  0  0  0
 12 15  2  0  0  0  0
 12 16  1  0  0  0  0
 13 14  1  0  0  0  0
 13 17  2  0  0  0  0
 13 18  1  0  0  0  0
 15 17  1  0  0  0  0
 15 39  1  0  0  0  0
 16 18  2  0  0  0  0
 16 40  1  0  0  0  0
 17 41  1  0  0  0  0
 18 42  1  0  0  0  0
 19 20  2  0  0  0  0
 19 21  1  0  0  0  0
 20 22  1  0  0  0  0
 21 23  2  0  0  0  0
 21 43  1  0  0  0  0
 22 24  2  0  0  0  0
 22 44  1  0  0  0  0
 23 24  1  0  0  0  0
 24 45  1  0  0  0  0
M  END
> <DATABASE_ID>
DB15942

> <DATABASE_NAME>
drugbank

> <ORIGINAL_SOURCE>
PUBCHEM

> <ORIGINAL_SOURCE_URL>
https://pubchem.ncbi.nlm.nih.gov/rest/pug/compound/inchikey/TXOKWXJQVFUUDD-UHFFFAOYSA-N/SDF?record_type=3d

> <SMILES>
CCN(CC)CCOC1=CC=C(C=C1)C1=NC2=CC(Cl)=CC=C2S1

> <INCHI_IDENTIFIER>
InChI=1S/C19H21ClN2OS/c1-3-22(4-2)11-12-23-16-8-5-14(6-9-16)19-21-17-13-15(20)7-10-18(17)24-19/h5-10,13H,3-4,11-12H2,1-2H3

> <INCHI_KEY>
TXOKWXJQVFUUDD-UHFFFAOYSA-N

> <FORMULA>
C19H21ClN2OS

> <MOLECULAR_WEIGHT>
360.9

> <EXACT_MASS>
360.1063122

> <JCHEM_ACCEPTOR_COUNT>
3

> <JCHEM_ATOM_COUNT>
45

> <JCHEM_AVERAGE_NEUTRAL_MICROSPECIES_CHARGE>
0.9947933684791487

> <JCHEM_AVERAGE_POLARIZABILITY>
40.77962292381231

> <JCHEM_BIOAVAILABILITY>
1

> <JCHEM_DONOR_COUNT>
0

> <JCHEM_FORMAL_CHARGE>
0

> <JCHEM_GHOSE_FILTER>
1

> <JCHEM_IUPAC>
{2-[4-(5-chloro-1,3-benzothiazol-2-yl)phenoxy]ethyl}diethylamine

> <ALOGPS_LOGP>
5.55

> <JCHEM_LOGP>
5.316875856999999

> <ALOGPS_LOGS>
-5.20

> <JCHEM_MDDR_LIKE_RULE>
1

> <JCHEM_NEUTRAL_CHARGE>
1

> <JCHEM_NUMBER_OF_RINGS>
3

> <JCHEM_PHYSIOLOGICAL_CHARGE>
1

> <JCHEM_PKA_STRONGEST_BASIC>
9.28055722770959

> <JCHEM_POLAR_SURFACE_AREA>
25.36

> <JCHEM_REFRACTIVITY>
111.0146

> <JCHEM_ROTATABLE_BOND_COUNT>
7

> <JCHEM_RULE_OF_FIVE>
0

> <ALOGPS_SOLUBILITY>
2.28e-03 g/l

> <JCHEM_TRADITIONAL_IUPAC>
fimasartan potassium

> <JCHEM_VEBER_RULE>
1

> <DRUGBANK_ID>
DB15942

> <DRUG_GROUPS>
experimental

> <GENERIC_NAME>
Haletazole

> <SYNONYMS>
Haletazole; Halethazole

> <SALTS>
Haletazole tartrate

$$$$