9866696
  -OEChem-08301911393D

 52 55  0     1  0  0  0  0  0999 V2000
   -1.9344    0.8837    0.8232 O   0  0  0  0  0  0  0  0  0  0  0  0
    0.9950    2.0165   -1.0873 O   0  0  0  0  0  0  0  0  0  0  0  0
   -1.1648    2.3365   -2.9460 O   0  0  0  0  0  0  0  0  0  0  0  0
   -3.6275    3.0449   -1.6214 O   0  0  0  0  0  0  0  0  0  0  0  0
   -4.3174    1.1533    2.1500 O   0  0  0  0  0  0  0  0  0  0  0  0
    2.8348   -1.4086   -1.5421 O   0  0  0  0  0  0  0  0  0  0  0  0
    1.4248   -3.5706   -1.6703 O   0  0  0  0  0  0  0  0  0  0  0  0
    4.8502    0.0137   -0.7695 O   0  0  0  0  0  0  0  0  0  0  0  0
   -3.7445   -3.3260    0.0048 O   0  0  0  0  0  0  0  0  0  0  0  0
   -0.5874    1.3177    0.6185 C   0  0  1  0  0  0  0  0  0  0  0  0
    0.3233    0.2843    1.2739 C   0  0  1  0  0  0  0  0  0  0  0  0
   -0.3054    1.4714   -0.8800 C   0  0  1  0  0  0  0  0  0  0  0  0
   -1.3234    2.4103   -1.5277 C   0  0  2  0  0  0  0  0  0  0  0  0
   -2.7552    2.0159   -1.1622 C   0  0  1  0  0  0  0  0  0  0  0  0
   -2.8966    1.8309    0.3522 C   0  0  1  0  0  0  0  0  0  0  0  0
    0.0439   -1.0885    0.6967 C   0  0  0  0  0  0  0  0  0  0  0  0
    1.7696    0.7185    1.1497 C   0  0  0  0  0  0  0  0  0  0  0  0
    0.9127   -1.6928   -0.2202 C   0  0  0  0  0  0  0  0  0  0  0  0
   -4.2745    1.3055    0.7427 C   0  0  0  0  0  0  0  0  0  0  0  0
    2.6427    0.1185    0.2339 C   0  0  0  0  0  0  0  0  0  0  0  0
    2.1833   -1.0280   -0.5779 C   0  0  0  0  0  0  0  0  0  0  0  0
   -1.1345   -1.7659    1.0516 C   0  0  0  0  0  0  0  0  0  0  0  0
    2.2487    1.7769    1.9394 C   0  0  0  0  0  0  0  0  0  0  0  0
    0.6051   -2.9376   -0.7835 C   0  0  0  0  0  0  0  0  0  0  0  0
    3.9599    0.5745    0.0974 C   0  0  0  0  0  0  0  0  0  0  0  0
   -1.4391   -3.0093    0.4965 C   0  0  0  0  0  0  0  0  0  0  0  0
   -0.5718   -3.5921   -0.4233 C   0  0  0  0  0  0  0  0  0  0  0  0
    3.5626    2.2282    1.8091 C   0  0  0  0  0  0  0  0  0  0  0  0
    4.4158    1.6297    0.8861 C   0  0  0  0  0  0  0  0  0  0  0  0
   -2.6960   -3.7113    0.8855 C   0  0  0  0  0  0  0  0  0  0  0  0
   -0.4505    2.2851    1.1219 H   0  0  0  0  0  0  0  0  0  0  0  0
    0.0920    0.2169    2.3471 H   0  0  0  0  0  0  0  0  0  0  0  0
   -0.3555    0.5103   -1.4037 H   0  0  0  0  0  0  0  0  0  0  0  0
   -1.1312    3.4536   -1.2466 H   0  0  0  0  0  0  0  0  0  0  0  0
   -3.0264    1.0903   -1.6857 H   0  0  0  0  0  0  0  0  0  0  0  0
   -2.7361    2.7822    0.8773 H   0  0  0  0  0  0  0  0  0  0  0  0
   -4.4708    0.3256    0.2947 H   0  0  0  0  0  0  0  0  0  0  0  0
   -5.0686    1.9957    0.4442 H   0  0  0  0  0  0  0  0  0  0  0  0
   -1.8112   -1.3388    1.7883 H   0  0  0  0  0  0  0  0  0  0  0  0
    1.1942    1.9562   -2.0365 H   0  0  0  0  0  0  0  0  0  0  0  0
    1.5941    2.2623    2.6594 H   0  0  0  0  0  0  0  0  0  0  0  0
   -0.3007    2.7225   -3.1669 H   0  0  0  0  0  0  0  0  0  0  0  0
   -3.4939    3.1344   -2.5805 H   0  0  0  0  0  0  0  0  0  0  0  0
   -0.8061   -4.5602   -0.8599 H   0  0  0  0  0  0  0  0  0  0  0  0
    3.9177    3.0489    2.4254 H   0  0  0  0  0  0  0  0  0  0  0  0
    5.4361    1.9941    0.7980 H   0  0  0  0  0  0  0  0  0  0  0  0
   -3.6054    0.5403    2.4012 H   0  0  0  0  0  0  0  0  0  0  0  0
   -2.5720   -4.7986    0.8336 H   0  0  0  0  0  0  0  0  0  0  0  0
   -2.9862   -3.4606    1.9119 H   0  0  0  0  0  0  0  0  0  0  0  0
    2.2537   -3.0801   -1.7789 H   0  0  0  0  0  0  0  0  0  0  0  0
    5.7039    0.4746   -0.7036 H   0  0  0  0  0  0  0  0  0  0  0  0
   -4.5443   -3.8002    0.2894 H   0  0  0  0  0  0  0  0  0  0  0  0
  1 10  1  0  0  0  0
  1 15  1  0  0  0  0
  2 12  1  0  0  0  0
  2 40  1  0  0  0  0
  3 13  1  0  0  0  0
  3 42  1  0  0  0  0
  4 14  1  0  0  0  0
  4 43  1  0  0  0  0
  5 19  1  0  0  0  0
  5 47  1  0  0  0  0
  6 21  2  0  0  0  0
  7 24  1  0  0  0  0
  7 50  1  0  0  0  0
  8 25  1  0  0  0  0
  8 51  1  0  0  0  0
  9 30  1  0  0  0  0
  9 52  1  0  0  0  0
 10 11  1  0  0  0  0
 10 12  1  0  0  0  0
 10 31  1  0  0  0  0
 11 16  1  0  0  0  0
 11 17  1  0  0  0  0
 11 32  1  0  0  0  0
 12 13  1  0  0  0  0
 12 33  1  0  0  0  0
 13 14  1  0  0  0  0
 13 34  1  0  0  0  0
 14 15  1  0  0  0  0
 14 35  1  0  0  0  0
 15 19  1  0  0  0  0
 15 36  1  0  0  0  0
 16 18  2  0  0  0  0
 16 22  1  0  0  0  0
 17 20  2  0  0  0  0
 17 23  1  0  0  0  0
 18 21  1  0  0  0  0
 18 24  1  0  0  0  0
 19 37  1  0  0  0  0
 19 38  1  0  0  0  0
 20 21  1  0  0  0  0
 20 25  1  0  0  0  0
 22 26  2  0  0  0  0
 22 39  1  0  0  0  0
 23 28  2  0  0  0  0
 23 41  1  0  0  0  0
 24 27  2  0  0  0  0
 25 29  2  0  0  0  0
 26 27  1  0  0  0  0
 26 30  1  0  0  0  0
 27 44  1  0  0  0  0
 28 29  1  0  0  0  0
 28 45  1  0  0  0  0
 29 46  1  0  0  0  0
 30 48  1  0  0  0  0
 30 49  1  0  0  0  0
M  END
> <DATABASE_ID>
DB15477

> <DATABASE_NAME>
drugbank

> <ORIGINAL_SOURCE>
PUBCHEM

> <ORIGINAL_SOURCE_URL>
https://pubchem.ncbi.nlm.nih.gov/rest/pug/compound/inchikey/AFHJQYHRLPMKHU-CGISPIQUSA-N/SDF?record_type=3d

> <SMILES>
OC[C@H]1O[C@H]([C@H](O)[C@@H](O)[C@@H]1O)C1C2=CC=CC(O)=C2C(=O)C2=C1C=C(CO)C=C2O

> <INCHI_IDENTIFIER>
InChI=1S/C21H22O9/c22-6-8-4-10-14(21-20(29)19(28)17(26)13(7-23)30-21)9-2-1-3-11(24)15(9)18(27)16(10)12(25)5-8/h1-5,13-14,17,19-26,28-29H,6-7H2/t13-,14?,17-,19+,20-,21+/m1/s1

> <INCHI_KEY>
AFHJQYHRLPMKHU-CGISPIQUSA-N

> <FORMULA>
C21H22O9

> <MOLECULAR_WEIGHT>
418.398

> <EXACT_MASS>
418.126382288

> <JCHEM_ACCEPTOR_COUNT>
9

> <JCHEM_ATOM_COUNT>
52

> <JCHEM_AVERAGE_POLARIZABILITY>
40.96575978933893

> <JCHEM_BIOAVAILABILITY>
1

> <JCHEM_DONOR_COUNT>
7

> <JCHEM_FORMAL_CHARGE>
0

> <JCHEM_GHOSE_FILTER>
1

> <JCHEM_IUPAC>
1,8-dihydroxy-3-(hydroxymethyl)-10-[(2S,3R,4R,5S,6R)-3,4,5-trihydroxy-6-(hydroxymethyl)oxan-2-yl]-9,10-dihydroanthracen-9-one

> <ALOGPS_LOGP>
-0.49

> <JCHEM_LOGP>
0.41498972566666675

> <ALOGPS_LOGS>
-2.20

> <JCHEM_MDDR_LIKE_RULE>
0

> <JCHEM_NUMBER_OF_RINGS>
4

> <JCHEM_PHYSIOLOGICAL_CHARGE>
0

> <JCHEM_PKA>
8.967668310441187

> <JCHEM_PKA_STRONGEST_ACIDIC>
8.3058630409523

> <JCHEM_PKA_STRONGEST_BASIC>
-2.8760950931312097

> <JCHEM_POLAR_SURFACE_AREA>
167.91

> <JCHEM_REFRACTIVITY>
103.79309999999998

> <JCHEM_ROTATABLE_BOND_COUNT>
3

> <JCHEM_RULE_OF_FIVE>
0

> <ALOGPS_SOLUBILITY>
2.63e+00 g/l

> <JCHEM_TRADITIONAL_IUPAC>
sodium taurocholate

> <JCHEM_VEBER_RULE>
0

> <DRUGBANK_ID>
DB15477

> <DRUG_GROUPS>
approved; experimental

> <GENERIC_NAME>
Alloin

> <SYNONYMS>
Aloin; Aloin, Cape; Aloin, curaco

> <PRODUCTS>
Aid-lax Tab; Alsiline; Bicholate Lilas Tab; Bilex Tab; Carters Little Pills Tab; Lax-BO Tab; Laxatif Tab; Laxative Tab; Laxavite Tab; Robol Tab; Triolax Tab

$$$$