121301508
  -OEChem-12152013173D

 55 58  0     1  0  0  0  0  0999 V2000
    5.9410   -4.6829    1.4165 Cl  0  0  0  0  0  0  0  0  0  0  0  0
   -8.8243    0.3211    0.0578 Cl  0  0  0  0  0  0  0  0  0  0  0  0
    4.8002    3.9373    1.2159 F   0  0  0  0  0  0  0  0  0  0  0  0
    6.0372    2.1396    1.1558 F   0  0  0  0  0  0  0  0  0  0  0  0
    6.1624    3.5991   -0.4564 F   0  0  0  0  0  0  0  0  0  0  0  0
    4.8334    1.3146   -1.2339 O   0  0  0  0  0  0  0  0  0  0  0  0
    0.8895    2.6473   -0.7159 O   0  0  0  0  0  0  0  0  0  0  0  0
   -5.1551   -2.6872   -0.9151 O   0  0  0  0  0  0  0  0  0  0  0  0
    2.2333    0.8181   -0.1311 N   0  0  0  0  0  0  0  0  0  0  0  0
    0.4485    0.4344   -1.3760 N   0  0  0  0  0  0  0  0  0  0  0  0
    1.0583   -0.7745   -1.1836 N   0  0  0  0  0  0  0  0  0  0  0  0
   -3.7263    0.1404   -0.3200 N   0  0  0  0  0  0  0  0  0  0  0  0
   -2.2426   -1.2138   -1.1801 N   0  0  0  0  0  0  0  0  0  0  0  0
   -2.8447    0.9742   -0.8925 N   0  0  0  0  0  0  0  0  0  0  0  0
    3.2914    1.5050    0.5917 C   0  0  0  0  0  0  0  0  0  0  0  0
    2.0932   -0.5033   -0.4401 C   0  0  0  0  0  0  0  0  0  0  0  0
    4.2213    2.2566   -0.3552 C   0  0  1  0  0  0  0  0  0  0  0  0
    1.1600    1.4545   -0.7315 C   0  0  0  0  0  0  0  0  0  0  0  0
   -0.7523    0.5527   -2.1600 C   0  0  0  0  0  0  0  0  0  0  0  0
   -1.9667    0.1056   -1.3986 C   0  0  0  0  0  0  0  0  0  0  0  0
    3.0364   -1.5293    0.0152 C   0  0  0  0  0  0  0  0  0  0  0  0
   -3.3614   -1.1580   -0.4956 C   0  0  0  0  0  0  0  0  0  0  0  0
    5.3112    2.9914    0.3994 C   0  0  0  0  0  0  0  0  0  0  0  0
   -4.1370   -2.3008    0.0235 C   0  0  2  0  0  0  0  0  0  0  0  0
   -4.8463    0.6275    0.3469 C   0  0  0  0  0  0  0  0  0  0  0  0
    3.7430   -2.2902   -0.9161 C   0  0  0  0  0  0  0  0  0  0  0  0
    3.2283   -1.7435    1.3802 C   0  0  0  0  0  0  0  0  0  0  0  0
   -3.2705   -3.5345    0.3276 C   0  0  0  0  0  0  0  0  0  0  0  0
    4.6411   -3.2654   -0.4828 C   0  0  0  0  0  0  0  0  0  0  0  0
    4.1263   -2.7187    1.8137 C   0  0  0  0  0  0  0  0  0  0  0  0
   -6.1249    0.2728   -0.0834 C   0  0  0  0  0  0  0  0  0  0  0  0
   -4.6893    1.4695    1.4478 C   0  0  0  0  0  0  0  0  0  0  0  0
    4.8327   -3.4796    0.8822 C   0  0  0  0  0  0  0  0  0  0  0  0
   -7.2465    0.7603    0.5871 C   0  0  0  0  0  0  0  0  0  0  0  0
   -5.8111    1.9570    2.1184 C   0  0  0  0  0  0  0  0  0  0  0  0
   -7.0897    1.6026    1.6879 C   0  0  0  0  0  0  0  0  0  0  0  0
    3.8645    0.7859    1.1796 H   0  0  0  0  0  0  0  0  0  0  0  0
    2.8148    2.2141    1.2780 H   0  0  0  0  0  0  0  0  0  0  0  0
    3.6652    2.9717   -0.9710 H   0  0  0  0  0  0  0  0  0  0  0  0
   -0.6366   -0.0537   -3.0650 H   0  0  0  0  0  0  0  0  0  0  0  0
   -0.8689    1.5977   -2.4684 H   0  0  0  0  0  0  0  0  0  0  0  0
   -4.6443   -2.0286    0.9563 H   0  0  0  0  0  0  0  0  0  0  0  0
    3.6048   -2.1304   -1.9824 H   0  0  0  0  0  0  0  0  0  0  0  0
    2.6762   -1.1669    2.1181 H   0  0  0  0  0  0  0  0  0  0  0  0
    4.1255    0.8972   -1.7535 H   0  0  0  0  0  0  0  0  0  0  0  0
   -2.8071   -3.9231   -0.5864 H   0  0  0  0  0  0  0  0  0  0  0  0
   -3.8864   -4.3424    0.7371 H   0  0  0  0  0  0  0  0  0  0  0  0
   -2.4789   -3.2971    1.0456 H   0  0  0  0  0  0  0  0  0  0  0  0
    5.1852   -3.8503   -1.2199 H   0  0  0  0  0  0  0  0  0  0  0  0
    4.2638   -2.8764    2.8803 H   0  0  0  0  0  0  0  0  0  0  0  0
   -6.2586   -0.3591   -0.9578 H   0  0  0  0  0  0  0  0  0  0  0  0
   -3.7001    1.7526    1.7996 H   0  0  0  0  0  0  0  0  0  0  0  0
   -5.6624   -3.4124   -0.5121 H   0  0  0  0  0  0  0  0  0  0  0  0
   -5.6890    2.6117    2.9762 H   0  0  0  0  0  0  0  0  0  0  0  0
   -7.9546    1.9897    2.2205 H   0  0  0  0  0  0  0  0  0  0  0  0
  1 33  1  0  0  0  0
  2 34  1  0  0  0  0
  3 23  1  0  0  0  0
  4 23  1  0  0  0  0
  5 23  1  0  0  0  0
  6 17  1  0  0  0  0
  6 45  1  0  0  0  0
  7 18  2  0  0  0  0
  8 24  1  0  0  0  0
  8 53  1  0  0  0  0
  9 15  1  0  0  0  0
  9 16  1  0  0  0  0
  9 18  1  0  0  0  0
 10 11  1  0  0  0  0
 10 18  1  0  0  0  0
 10 19  1  0  0  0  0
 11 16  2  0  0  0  0
 12 14  1  0  0  0  0
 12 22  1  0  0  0  0
 12 25  1  0  0  0  0
 13 20  1  0  0  0  0
 13 22  2  0  0  0  0
 14 20  2  0  0  0  0
 15 17  1  0  0  0  0
 15 37  1  0  0  0  0
 15 38  1  0  0  0  0
 16 21  1  0  0  0  0
 17 23  1  0  0  0  0
 17 39  1  0  0  0  0
 19 20  1  0  0  0  0
 19 40  1  0  0  0  0
 19 41  1  0  0  0  0
 21 26  2  0  0  0  0
 21 27  1  0  0  0  0
 22 24  1  0  0  0  0
 24 28  1  0  0  0  0
 24 42  1  0  0  0  0
 25 31  2  0  0  0  0
 25 32  1  0  0  0  0
 26 29  1  0  0  0  0
 26 43  1  0  0  0  0
 27 30  2  0  0  0  0
 27 44  1  0  0  0  0
 28 46  1  0  0  0  0
 28 47  1  0  0  0  0
 28 48  1  0  0  0  0
 29 33  2  0  0  0  0
 29 49  1  0  0  0  0
 30 33  1  0  0  0  0
 30 50  1  0  0  0  0
 31 34  1  0  0  0  0
 31 51  1  0  0  0  0
 32 35  2  0  0  0  0
 32 52  1  0  0  0  0
 34 36  2  0  0  0  0
 35 36  1  0  0  0  0
 35 54  1  0  0  0  0
 36 55  1  0  0  0  0
M  END
> <DATABASE_ID>
DB16279

> <DATABASE_NAME>
drugbank

> <ORIGINAL_SOURCE>
PUBCHEM

> <ORIGINAL_SOURCE_URL>
https://pubchem.ncbi.nlm.nih.gov/rest/pug/compound/inchikey/AZXOTZCWQDJCLY-SJCJKPOMSA-N/SDF?record_type=3d

> <SMILES>
C[C@H](O)C1=NC(CN2N=C(N(C[C@H](O)C(F)(F)F)C2=O)C2=CC=C(Cl)C=C2)=NN1C1=CC(Cl)=CC=C1

> <INCHI_IDENTIFIER>
InChI=1S/C22H19Cl2F3N6O3/c1-12(34)19-28-18(29-33(19)16-4-2-3-15(24)9-16)11-32-21(36)31(10-17(35)22(25,26)27)20(30-32)13-5-7-14(23)8-6-13/h2-9,12,17,34-35H,10-11H2,1H3/t12-,17-/m0/s1

> <INCHI_KEY>
AZXOTZCWQDJCLY-SJCJKPOMSA-N

> <FORMULA>
C22H19Cl2F3N6O3

> <MOLECULAR_WEIGHT>
543.33

> <EXACT_MASS>
542.0847784

> <JCHEM_ACCEPTOR_COUNT>
6

> <JCHEM_ATOM_COUNT>
55

> <JCHEM_AVERAGE_NEUTRAL_MICROSPECIES_CHARGE>
-9.678731574264453e-05

> <JCHEM_AVERAGE_POLARIZABILITY>
49.504331750269245

> <JCHEM_BIOAVAILABILITY>
0

> <JCHEM_DONOR_COUNT>
2

> <JCHEM_FORMAL_CHARGE>
0

> <JCHEM_GHOSE_FILTER>
0

> <JCHEM_IUPAC>
3-(4-chlorophenyl)-1-{[1-(3-chlorophenyl)-5-[(1S)-1-hydroxyethyl]-1H-1,2,4-triazol-3-yl]methyl}-4-[(2S)-3,3,3-trifluoro-2-hydroxypropyl]-4,5-dihydro-1H-1,2,4-triazol-5-one

> <ALOGPS_LOGP>
4.00

> <JCHEM_LOGP>
5.259869929000001

> <ALOGPS_LOGS>
-4.97

> <JCHEM_MDDR_LIKE_RULE>
1

> <JCHEM_NEUTRAL_CHARGE>
0

> <JCHEM_NUMBER_OF_RINGS>
4

> <JCHEM_PHYSIOLOGICAL_CHARGE>
0

> <JCHEM_PKA>
13.606778502184447

> <JCHEM_PKA_STRONGEST_ACIDIC>
11.012974744310105

> <JCHEM_PKA_STRONGEST_BASIC>
0.7063313593771591

> <JCHEM_POLAR_SURFACE_AREA>
107.08000000000001

> <JCHEM_REFRACTIVITY>
126.9476

> <JCHEM_ROTATABLE_BOND_COUNT>
8

> <JCHEM_RULE_OF_FIVE>
0

> <ALOGPS_SOLUBILITY>
5.88e-03 g/l

> <JCHEM_TRADITIONAL_IUPAC>
5-({4-[2-(3-methoxyphenyl)-2-oxoethoxy]phenyl}methyl)-1,3-thiazolidine-2,4-dione

> <JCHEM_VEBER_RULE>
0

> <DRUGBANK_ID>
DB16279

> <DRUG_GROUPS>
investigational

> <GENERIC_NAME>
Pecavaptan

$$$$