189891
  -OEChem-12102016233D

 27 26  0     1  0  0  0  0  0999 V2000
   -2.0179    0.0467   -1.0424 P   0  0  0  0  0  0  0  0  0  0  0  0
   -0.2438    1.4982    1.1300 P   0  0  0  0  0  0  0  0  0  0  0  0
   -1.6883   -0.5036   -2.5247 O   0  0  0  0  0  0  0  0  0  0  0  0
   -2.6106    1.5280   -1.2932 O   0  0  0  0  0  0  0  0  0  0  0  0
   -1.0352    2.7955    0.5742 O   0  0  0  0  0  0  0  0  0  0  0  0
    1.2907    2.0045    1.1375 O   0  0  0  0  0  0  0  0  0  0  0  0
   -2.8904   -0.8512   -0.2156 O   0  0  0  0  0  0  0  0  0  0  0  0
   -0.7597    0.9666    2.4324 O   0  0  0  0  0  0  0  0  0  0  0  0
   -1.0810   -2.6871    0.4847 O   0  0  0  0  0  0  0  0  0  0  0  0
    0.2279   -1.8636    2.1484 O   0  0  0  0  0  0  0  0  0  0  0  0
    3.8158    0.4950   -0.4663 O   0  0  0  0  0  0  0  0  0  0  0  0
    2.3405   -0.0134   -2.1222 O   0  0  0  0  0  0  0  0  0  0  0  0
   -0.3350    0.3339   -0.2971 C   0  0  0  0  0  0  0  0  0  0  0  0
    0.4594   -0.9883   -0.1187 C   0  0  1  0  0  0  0  0  0  0  0  0
    1.9629   -0.8193    0.1478 C   0  0  0  0  0  0  0  0  0  0  0  0
   -0.1194   -1.8648    0.9765 C   0  0  0  0  0  0  0  0  0  0  0  0
    2.6840   -0.0771   -0.9513 C   0  0  0  0  0  0  0  0  0  0  0  0
    0.1497    0.9075   -1.0970 H   0  0  0  0  0  0  0  0  0  0  0  0
    0.3700   -1.5573   -1.0547 H   0  0  0  0  0  0  0  0  0  0  0  0
    2.1276   -0.3088    1.1022 H   0  0  0  0  0  0  0  0  0  0  0  0
    2.4385   -1.8048    0.2329 H   0  0  0  0  0  0  0  0  0  0  0  0
   -2.4291   -0.7829   -3.1037 H   0  0  0  0  0  0  0  0  0  0  0  0
   -3.5214    1.6224   -1.6447 H   0  0  0  0  0  0  0  0  0  0  0  0
   -1.1636    3.5638    1.1704 H   0  0  0  0  0  0  0  0  0  0  0  0
    1.5814    2.6301    1.8346 H   0  0  0  0  0  0  0  0  0  0  0  0
   -1.4593   -3.2651    1.1812 H   0  0  0  0  0  0  0  0  0  0  0  0
    4.3131    0.9711   -1.1651 H   0  0  0  0  0  0  0  0  0  0  0  0
  1  3  1  0  0  0  0
  1  4  1  0  0  0  0
  1  7  2  0  0  0  0
  1 13  1  0  0  0  0
  2  5  1  0  0  0  0
  2  6  1  0  0  0  0
  2  8  2  0  0  0  0
  2 13  1  0  0  0  0
  3 22  1  0  0  0  0
  4 23  1  0  0  0  0
  5 24  1  0  0  0  0
  6 25  1  0  0  0  0
  9 16  1  0  0  0  0
  9 26  1  0  0  0  0
 10 16  2  0  0  0  0
 11 17  1  0  0  0  0
 11 27  1  0  0  0  0
 12 17  2  0  0  0  0
 13 14  1  0  0  0  0
 13 18  1  0  0  0  0
 14 15  1  0  0  0  0
 14 16  1  0  0  0  0
 14 19  1  0  0  0  0
 15 17  1  0  0  0  0
 15 20  1  0  0  0  0
 15 21  1  0  0  0  0
M  END
> <DATABASE_ID>
DB16004

> <DATABASE_NAME>
drugbank

> <ORIGINAL_SOURCE>
PUBCHEM

> <ORIGINAL_SOURCE_URL>
https://pubchem.ncbi.nlm.nih.gov/rest/pug/compound/inchikey/LDTZSTJLVYBEKB-UHFFFAOYSA-N/SDF?record_type=3d

> <SMILES>
OC(=O)CC(C(P(O)(O)=O)P(O)(O)=O)C(O)=O

> <INCHI_IDENTIFIER>
InChI=1S/C5H10O10P2/c6-3(7)1-2(4(8)9)5(16(10,11)12)17(13,14)15/h2,5H,1H2,(H,6,7)(H,8,9)(H2,10,11,12)(H2,13,14,15)

> <INCHI_KEY>
LDTZSTJLVYBEKB-UHFFFAOYSA-N

> <FORMULA>
C5H10O10P2

> <MOLECULAR_WEIGHT>
292.073

> <EXACT_MASS>
291.974920518

> <JCHEM_ACCEPTOR_COUNT>
10

> <JCHEM_ATOM_COUNT>
27

> <JCHEM_AVERAGE_NEUTRAL_MICROSPECIES_CHARGE>
-4.27911696894774

> <JCHEM_AVERAGE_POLARIZABILITY>
20.3520177141066

> <JCHEM_BIOAVAILABILITY>
1

> <JCHEM_DONOR_COUNT>
6

> <JCHEM_FORMAL_CHARGE>
0

> <JCHEM_GHOSE_FILTER>
0

> <JCHEM_IUPAC>
2-(diphosphonomethyl)butanedioic acid

> <ALOGPS_LOGP>
-1.28

> <JCHEM_LOGP>
-2.816869290333333

> <ALOGPS_LOGS>
-1.25

> <JCHEM_MDDR_LIKE_RULE>
0

> <JCHEM_NEUTRAL_CHARGE>
-4

> <JCHEM_NUMBER_OF_RINGS>
0

> <JCHEM_PHYSIOLOGICAL_CHARGE>
-5

> <JCHEM_PKA>
1.9503918676917626

> <JCHEM_PKA_STRONGEST_ACIDIC>
1.1980522763012404

> <JCHEM_POLAR_SURFACE_AREA>
189.65999999999997

> <JCHEM_REFRACTIVITY>
49.4619

> <JCHEM_ROTATABLE_BOND_COUNT>
6

> <JCHEM_RULE_OF_FIVE>
0

> <ALOGPS_SOLUBILITY>
1.64e+01 g/l

> <JCHEM_TRADITIONAL_IUPAC>
L-arginine; L-aspartic acid

> <JCHEM_VEBER_RULE>
0

> <DRUGBANK_ID>
DB16004

> <DRUG_GROUPS>
experimental

> <GENERIC_NAME>
Butedronic acid

> <SALTS>
Butedronate tetrasodium

$$$$