25125529
  -OEChem-12152013033D

 48 50  0     0  0  0  0  0  0999 V2000
   -5.0843   -1.9491    0.9199 O   0  0  0  0  0  0  0  0  0  0  0  0
    7.3363    0.2843   -0.6275 O   0  0  0  0  0  0  0  0  0  0  0  0
    6.5356   -1.2665    0.8263 O   0  0  0  0  0  0  0  0  0  0  0  0
    2.5822    0.1660    0.3902 N   0  0  0  0  0  0  0  0  0  0  0  0
    2.0962    1.0506    1.2775 N   0  0  0  0  0  0  0  0  0  0  0  0
   -2.9731    0.7333   -0.4176 C   0  0  0  0  0  0  0  0  0  0  0  0
   -3.2583    2.1964   -0.5437 C   0  0  0  0  0  0  0  0  0  0  0  0
   -4.0705    0.0565    0.1276 C   0  0  0  0  0  0  0  0  0  0  0  0
   -4.7914    2.2095   -0.4484 C   0  0  0  0  0  0  0  0  0  0  0  0
   -5.1914    1.0043    0.4161 C   0  0  0  0  0  0  0  0  0  0  0  0
   -1.8014    0.0628   -0.7254 C   0  0  0  0  0  0  0  0  0  0  0  0
   -0.6216    0.7753   -1.2890 C   0  0  0  0  0  0  0  0  0  0  0  0
   -4.0187   -1.3045    0.3765 C   0  0  0  0  0  0  0  0  0  0  0  0
    0.6244    0.6813   -0.4298 C   0  0  0  0  0  0  0  0  0  0  0  0
   -1.7446   -1.3126   -0.4896 C   0  0  0  0  0  0  0  0  0  0  0  0
   -2.8452   -1.9912    0.0575 C   0  0  0  0  0  0  0  0  0  0  0  0
    1.7394   -0.0897   -0.6513 C   0  0  0  0  0  0  0  0  0  0  0  0
    0.9000    1.3617    0.7713 C   0  0  0  0  0  0  0  0  0  0  0  0
   -2.7397   -3.4619    0.3001 C   0  0  0  0  0  0  0  0  0  0  0  0
    3.8902   -0.4067    0.6096 C   0  0  0  0  0  0  0  0  0  0  0  0
    2.0736   -1.0291   -1.7386 C   0  0  0  0  0  0  0  0  0  0  0  0
    0.0422    2.3281    1.4796 C   0  0  0  0  0  0  0  0  0  0  0  0
    4.9773    0.2334   -0.2497 C   0  0  0  0  0  0  0  0  0  0  0  0
    6.3426   -0.3323    0.0585 C   0  0  0  0  0  0  0  0  0  0  0  0
   -2.8097    2.7462    0.2891 H   0  0  0  0  0  0  0  0  0  0  0  0
   -2.9333    2.6203   -1.4975 H   0  0  0  0  0  0  0  0  0  0  0  0
   -5.1772    3.1540   -0.0521 H   0  0  0  0  0  0  0  0  0  0  0  0
   -5.2148    2.0850   -1.4551 H   0  0  0  0  0  0  0  0  0  0  0  0
   -6.1681    0.6175    0.1123 H   0  0  0  0  0  0  0  0  0  0  0  0
   -5.2017    1.2657    1.4791 H   0  0  0  0  0  0  0  0  0  0  0  0
   -0.4192    0.3766   -2.2910 H   0  0  0  0  0  0  0  0  0  0  0  0
   -0.8250    1.8403   -1.4479 H   0  0  0  0  0  0  0  0  0  0  0  0
   -0.8413   -1.8672   -0.7328 H   0  0  0  0  0  0  0  0  0  0  0  0
   -2.8390   -3.6778    1.3689 H   0  0  0  0  0  0  0  0  0  0  0  0
   -3.5230   -3.9952   -0.2487 H   0  0  0  0  0  0  0  0  0  0  0  0
   -1.7763   -3.8642   -0.0306 H   0  0  0  0  0  0  0  0  0  0  0  0
    3.8239   -1.4853    0.4277 H   0  0  0  0  0  0  0  0  0  0  0  0
    4.1287   -0.2900    1.6746 H   0  0  0  0  0  0  0  0  0  0  0  0
    2.8032   -0.5860   -2.4231 H   0  0  0  0  0  0  0  0  0  0  0  0
    2.4812   -1.9683   -1.3528 H   0  0  0  0  0  0  0  0  0  0  0  0
    1.1897   -1.2902   -2.3285 H   0  0  0  0  0  0  0  0  0  0  0  0
   -0.8363    1.8266    1.8978 H   0  0  0  0  0  0  0  0  0  0  0  0
    0.5733    2.8142    2.3050 H   0  0  0  0  0  0  0  0  0  0  0  0
   -0.2991    3.1148    0.7993 H   0  0  0  0  0  0  0  0  0  0  0  0
   -5.7914   -1.3123    1.1142 H   0  0  0  0  0  0  0  0  0  0  0  0
    4.7778    0.0711   -1.3135 H   0  0  0  0  0  0  0  0  0  0  0  0
    5.0065    1.3133   -0.0639 H   0  0  0  0  0  0  0  0  0  0  0  0
    8.2150   -0.1026   -0.4266 H   0  0  0  0  0  0  0  0  0  0  0  0
  1 13  1  0  0  0  0
  1 45  1  0  0  0  0
  2 24  1  0  0  0  0
  2 48  1  0  0  0  0
  3 24  2  0  0  0  0
  4  5  1  0  0  0  0
  4 17  1  0  0  0  0
  4 20  1  0  0  0  0
  5 18  2  0  0  0  0
  6  7  1  0  0  0  0
  6  8  1  0  0  0  0
  6 11  2  0  0  0  0
  7  9  1  0  0  0  0
  7 25  1  0  0  0  0
  7 26  1  0  0  0  0
  8 10  1  0  0  0  0
  8 13  2  0  0  0  0
  9 10  1  0  0  0  0
  9 27  1  0  0  0  0
  9 28  1  0  0  0  0
 10 29  1  0  0  0  0
 10 30  1  0  0  0  0
 11 12  1  0  0  0  0
 11 15  1  0  0  0  0
 12 14  1  0  0  0  0
 12 31  1  0  0  0  0
 12 32  1  0  0  0  0
 13 16  1  0  0  0  0
 14 17  2  0  0  0  0
 14 18  1  0  0  0  0
 15 16  2  0  0  0  0
 15 33  1  0  0  0  0
 16 19  1  0  0  0  0
 17 21  1  0  0  0  0
 18 22  1  0  0  0  0
 19 34  1  0  0  0  0
 19 35  1  0  0  0  0
 19 36  1  0  0  0  0
 20 23  1  0  0  0  0
 20 37  1  0  0  0  0
 20 38  1  0  0  0  0
 21 39  1  0  0  0  0
 21 40  1  0  0  0  0
 21 41  1  0  0  0  0
 22 42  1  0  0  0  0
 22 43  1  0  0  0  0
 22 44  1  0  0  0  0
 23 24  1  0  0  0  0
 23 46  1  0  0  0  0
 23 47  1  0  0  0  0
M  END
> <DATABASE_ID>
DB16046

> <DATABASE_NAME>
drugbank

> <ORIGINAL_SOURCE>
PUBCHEM

> <ORIGINAL_SOURCE_URL>
https://pubchem.ncbi.nlm.nih.gov/rest/pug/compound/inchikey/OFUOCIUIWKDKPA-UHFFFAOYSA-N/SDF?record_type=3d

> <SMILES>
CC1=NN(CCC(O)=O)C(C)=C1CC1=CC(C)=C(O)C2=C1CCC2

> <INCHI_IDENTIFIER>
InChI=1S/C19H24N2O3/c1-11-9-14(15-5-4-6-16(15)19(11)24)10-17-12(2)20-21(13(17)3)8-7-18(22)23/h9,24H,4-8,10H2,1-3H3,(H,22,23)

> <INCHI_KEY>
OFUOCIUIWKDKPA-UHFFFAOYSA-N

> <FORMULA>
C19H24N2O3

> <MOLECULAR_WEIGHT>
328.412

> <EXACT_MASS>
328.178692641

> <JCHEM_ACCEPTOR_COUNT>
4

> <JCHEM_ATOM_COUNT>
48

> <JCHEM_AVERAGE_NEUTRAL_MICROSPECIES_CHARGE>
-0.9984950935871277

> <JCHEM_AVERAGE_POLARIZABILITY>
36.89508096026182

> <JCHEM_BIOAVAILABILITY>
1

> <JCHEM_DONOR_COUNT>
2

> <JCHEM_FORMAL_CHARGE>
0

> <JCHEM_GHOSE_FILTER>
1

> <JCHEM_IUPAC>
3-{4-[(7-hydroxy-6-methyl-2,3-dihydro-1H-inden-4-yl)methyl]-3,5-dimethyl-1H-pyrazol-1-yl}propanoic acid

> <ALOGPS_LOGP>
3.03

> <JCHEM_LOGP>
3.2750625624039147

> <ALOGPS_LOGS>
-4.09

> <JCHEM_MDDR_LIKE_RULE>
0

> <JCHEM_NEUTRAL_CHARGE>
-1

> <JCHEM_NUMBER_OF_RINGS>
3

> <JCHEM_PHYSIOLOGICAL_CHARGE>
-1

> <JCHEM_PKA>
10.775335880792127

> <JCHEM_PKA_STRONGEST_ACIDIC>
4.379018523458687

> <JCHEM_PKA_STRONGEST_BASIC>
3.491286663998398

> <JCHEM_POLAR_SURFACE_AREA>
75.35

> <JCHEM_REFRACTIVITY>
105.12709999999998

> <JCHEM_ROTATABLE_BOND_COUNT>
5

> <JCHEM_RULE_OF_FIVE>
1

> <ALOGPS_SOLUBILITY>
2.66e-02 g/l

> <JCHEM_TRADITIONAL_IUPAC>
2-methoxy-4-[(1E)-3-[4-(nitrooxy)butoxy]-3-oxoprop-1-en-1-yl]phenyl (4R)-4-[(1R,3aS,3bR,4S,5aS,7R,9aS,9bS,11aR)-4,7-dihydroxy-9a,11a-dimethyl-tetradecahydro-1H-cyclopenta[a]phenanthren-1-yl]pentanoate

> <JCHEM_VEBER_RULE>
0

> <DRUGBANK_ID>
DB16046

> <DRUG_GROUPS>
investigational

> <GENERIC_NAME>
TRC150094

$$$$