124220601
  -OEChem-12152013153D

 55 59  0     1  0  0  0  0  0999 V2000
    6.4580    3.0629   -0.1667 O   0  0  0  0  0  0  0  0  0  0  0  0
    1.3395   -4.1186   -0.1312 O   0  0  0  0  0  0  0  0  0  0  0  0
   -3.1208    0.2307    0.4923 N   0  0  1  0  0  0  0  0  0  0  0  0
    2.7473   -0.8187    0.1029 N   0  0  0  0  0  0  0  0  0  0  0  0
    0.3255   -2.0429   -0.1123 N   0  0  0  0  0  0  0  0  0  0  0  0
    4.8540   -1.5225    0.2141 N   0  0  0  0  0  0  0  0  0  0  0  0
   -5.8372    1.6141    0.9707 N   0  0  0  0  0  0  0  0  0  0  0  0
   -6.3182   -0.5316   -0.0151 N   0  0  0  0  0  0  0  0  0  0  0  0
   -0.8954    0.0846   -0.1038 C   0  0  1  0  0  0  0  0  0  0  0  0
   -1.7100   -0.2096   -1.3755 C   0  0  1  0  0  0  0  0  0  0  0  0
   -1.8580   -0.2885    1.0187 C   0  0  0  0  0  0  0  0  0  0  0  0
   -3.1748   -0.1874   -0.9120 C   0  0  0  0  0  0  0  0  0  0  0  0
    0.4001   -0.6549   -0.0486 C   0  0  0  0  0  0  0  0  0  0  0  0
   -1.4262    0.7946   -2.4870 C   0  0  0  0  0  0  0  0  0  0  0  0
   -4.2739   -0.2203    1.2562 C   0  0  0  0  0  0  0  0  0  0  0  0
    4.5242    0.9747    0.2979 C   0  0  0  0  0  0  0  0  0  0  0  0
    1.5973   -0.0470    0.0581 C   0  0  0  0  0  0  0  0  0  0  0  0
    4.0664   -0.4680    0.2061 C   0  0  0  0  0  0  0  0  0  0  0  0
    5.7925    1.1332    1.1515 C   0  0  0  0  0  0  0  0  0  0  0  0
    4.7408    1.6090   -1.0854 C   0  0  0  0  0  0  0  0  0  0  0  0
    2.6989   -2.1947    0.0413 C   0  0  0  0  0  0  0  0  0  0  0  0
    1.4388   -2.8953   -0.0730 C   0  0  0  0  0  0  0  0  0  0  0  0
   -5.5628    0.3238    0.6999 C   0  0  0  0  0  0  0  0  0  0  0  0
    6.2495    2.5878    1.1630 C   0  0  0  0  0  0  0  0  0  0  0  0
    5.2611    3.0351   -0.9436 C   0  0  0  0  0  0  0  0  0  0  0  0
    4.0103   -2.6023    0.1121 C   0  0  0  0  0  0  0  0  0  0  0  0
   -6.9995    2.0688    0.4580 C   0  0  0  0  0  0  0  0  0  0  0  0
   -7.4656   -0.0112   -0.4977 C   0  0  0  0  0  0  0  0  0  0  0  0
   -7.8619    1.2944   -0.2910 C   0  0  0  0  0  0  0  0  0  0  0  0
   -0.7048    1.1668   -0.0409 H   0  0  0  0  0  0  0  0  0  0  0  0
   -1.4974   -1.2089   -1.7758 H   0  0  0  0  0  0  0  0  0  0  0  0
   -1.9115   -1.3702    1.1931 H   0  0  0  0  0  0  0  0  0  0  0  0
   -1.5834    0.2014    1.9593 H   0  0  0  0  0  0  0  0  0  0  0  0
   -3.7880    0.4957   -1.5096 H   0  0  0  0  0  0  0  0  0  0  0  0
   -3.5865   -1.2000   -1.0172 H   0  0  0  0  0  0  0  0  0  0  0  0
   -1.6629    1.8170   -2.1734 H   0  0  0  0  0  0  0  0  0  0  0  0
   -2.0281    0.5677   -3.3732 H   0  0  0  0  0  0  0  0  0  0  0  0
   -0.3714    0.7640   -2.7790 H   0  0  0  0  0  0  0  0  0  0  0  0
   -4.1856    0.1235    2.2946 H   0  0  0  0  0  0  0  0  0  0  0  0
   -4.3279   -1.3165    1.2930 H   0  0  0  0  0  0  0  0  0  0  0  0
    3.7423    1.5498    0.8123 H   0  0  0  0  0  0  0  0  0  0  0  0
    1.6967    1.0302    0.1054 H   0  0  0  0  0  0  0  0  0  0  0  0
   -0.5920   -2.4709   -0.1918 H   0  0  0  0  0  0  0  0  0  0  0  0
    6.5956    0.5145    0.7302 H   0  0  0  0  0  0  0  0  0  0  0  0
    5.6165    0.7849    2.1759 H   0  0  0  0  0  0  0  0  0  0  0  0
    3.8114    1.6054   -1.6662 H   0  0  0  0  0  0  0  0  0  0  0  0
    5.4743    1.0123   -1.6434 H   0  0  0  0  0  0  0  0  0  0  0  0
    7.1992    2.6744    1.7005 H   0  0  0  0  0  0  0  0  0  0  0  0
    5.5219    3.2313    1.6714 H   0  0  0  0  0  0  0  0  0  0  0  0
    4.5113    3.6894   -0.4835 H   0  0  0  0  0  0  0  0  0  0  0  0
    5.4954    3.4447   -1.9313 H   0  0  0  0  0  0  0  0  0  0  0  0
    4.3933   -3.6124    0.0951 H   0  0  0  0  0  0  0  0  0  0  0  0
   -7.2260    3.1076    0.6729 H   0  0  0  0  0  0  0  0  0  0  0  0
   -8.0783   -0.6955   -1.0748 H   0  0  0  0  0  0  0  0  0  0  0  0
   -8.7881    1.6854   -0.6902 H   0  0  0  0  0  0  0  0  0  0  0  0
  1 24  1  0  0  0  0
  1 25  1  0  0  0  0
  2 22  2  0  0  0  0
  3 11  1  0  0  0  0
  3 12  1  0  0  0  0
  3 15  1  0  0  0  0
  4 17  1  0  0  0  0
  4 18  1  0  0  0  0
  4 21  1  0  0  0  0
  5 13  1  0  0  0  0
  5 22  1  0  0  0  0
  5 43  1  0  0  0  0
  6 18  2  0  0  0  0
  6 26  1  0  0  0  0
  7 23  2  0  0  0  0
  7 27  1  0  0  0  0
  8 23  1  0  0  0  0
  8 28  2  0  0  0  0
  9 10  1  0  0  0  0
  9 11  1  0  0  0  0
  9 13  1  0  0  0  0
  9 30  1  0  0  0  0
 10 12  1  0  0  0  0
 10 14  1  0  0  0  0
 10 31  1  0  0  0  0
 11 32  1  0  0  0  0
 11 33  1  0  0  0  0
 12 34  1  0  0  0  0
 12 35  1  0  0  0  0
 13 17  2  0  0  0  0
 14 36  1  0  0  0  0
 14 37  1  0  0  0  0
 14 38  1  0  0  0  0
 15 23  1  0  0  0  0
 15 39  1  0  0  0  0
 15 40  1  0  0  0  0
 16 18  1  0  0  0  0
 16 19  1  0  0  0  0
 16 20  1  0  0  0  0
 16 41  1  0  0  0  0
 17 42  1  0  0  0  0
 19 25  1  0  0  0  0
 19 44  1  0  0  0  0
 19 45  1  0  0  0  0
 20 24  1  0  0  0  0
 20 46  1  0  0  0  0
 20 47  1  0  0  0  0
 21 22  1  0  0  0  0
 21 26  2  0  0  0  0
 24 50  1  0  0  0  0
 24 51  1  0  0  0  0
 25 48  1  0  0  0  0
 25 49  1  0  0  0  0
 26 52  1  0  0  0  0
 27 29  2  0  0  0  0
 27 53  1  0  0  0  0
 28 29  1  0  0  0  0
 28 54  1  0  0  0  0
 29 55  1  0  0  0  0
M  END
> <DATABASE_ID>
DB16193

> <DATABASE_NAME>
drugbank

> <ORIGINAL_SOURCE>
PUBCHEM

> <ORIGINAL_SOURCE_URL>
https://pubchem.ncbi.nlm.nih.gov/rest/pug/compound/inchikey/GWGNPYYVGANHRJ-GDBMZVCRSA-N/SDF?record_type=3d

> <SMILES>
C[C@@H]1CN(CC2=NC=CC=N2)C[C@H]1C1=CN2C(=NC=C2C(=O)N1)C1CCOCC1

> <INCHI_IDENTIFIER>
InChI=1S/C21H26N6O2/c1-14-10-26(13-19-22-5-2-6-23-19)11-16(14)17-12-27-18(21(28)25-17)9-24-20(27)15-3-7-29-8-4-15/h2,5-6,9,12,14-16H,3-4,7-8,10-11,13H2,1H3,(H,25,28)/t14-,16-/m1/s1

> <INCHI_KEY>
GWGNPYYVGANHRJ-GDBMZVCRSA-N

> <FORMULA>
C21H26N6O2

> <MOLECULAR_WEIGHT>
394.479

> <EXACT_MASS>
394.211724101

> <JCHEM_ACCEPTOR_COUNT>
6

> <JCHEM_ATOM_COUNT>
55

> <JCHEM_AVERAGE_NEUTRAL_MICROSPECIES_CHARGE>
0.5433289973682651

> <JCHEM_AVERAGE_POLARIZABILITY>
42.66986167536613

> <JCHEM_BIOAVAILABILITY>
1

> <JCHEM_DONOR_COUNT>
1

> <JCHEM_FORMAL_CHARGE>
0

> <JCHEM_GHOSE_FILTER>
1

> <JCHEM_IUPAC>
6-[(3S,4S)-4-methyl-1-[(pyrimidin-2-yl)methyl]pyrrolidin-3-yl]-3-(oxan-4-yl)-7H,8H-imidazo[1,5-a]pyrazin-8-one

> <ALOGPS_LOGP>
1.13

> <JCHEM_LOGP>
0.4488103243333333

> <ALOGPS_LOGS>
-2.75

> <JCHEM_MDDR_LIKE_RULE>
0

> <JCHEM_NEUTRAL_CHARGE>
1

> <JCHEM_NUMBER_OF_RINGS>
5

> <JCHEM_PHYSIOLOGICAL_CHARGE>
0

> <JCHEM_PKA_STRONGEST_ACIDIC>
11.685902662276849

> <JCHEM_PKA_STRONGEST_BASIC>
7.075470724013522

> <JCHEM_POLAR_SURFACE_AREA>
85.17000000000002

> <JCHEM_REFRACTIVITY>
110.26109999999997

> <JCHEM_ROTATABLE_BOND_COUNT>
4

> <JCHEM_RULE_OF_FIVE>
1

> <ALOGPS_SOLUBILITY>
6.97e-01 g/l

> <JCHEM_TRADITIONAL_IUPAC>
2-methoxy-4-[(1E)-3-[4-(nitrooxy)butoxy]-3-oxoprop-1-en-1-yl]phenyl (4R)-4-[(1R,3aS,3bR,4S,5aS,7R,9aS,9bS,11aR)-4,7-dihydroxy-9a,11a-dimethyl-tetradecahydro-1H-cyclopenta[a]phenanthren-1-yl]pentanoate

> <JCHEM_VEBER_RULE>
0

> <DRUGBANK_ID>
DB16193

> <DRUG_GROUPS>
investigational

> <GENERIC_NAME>
IMR-687

> <SYNONYMS>
Tovinontrine

$$$$