90052320
  -OEChem-12152013033D

 77 78  0     1  0  0  0  0  0999 V2000
    5.5427    2.1364    1.4315 O   0  0  0  0  0  0  0  0  0  0  0  0
    8.1384   -1.3744    0.9128 O   0  0  0  0  0  0  0  0  0  0  0  0
    6.4766   -0.3522    2.1750 N   0  0  0  0  0  0  0  0  0  0  0  0
    3.4175    1.2356    1.1926 N   0  0  0  0  0  0  0  0  0  0  0  0
    5.7298   -3.6554   -2.7038 N   0  0  0  0  0  0  0  0  0  0  0  0
   -1.9022    3.2860   -1.1484 N   0  0  0  0  0  0  0  0  0  0  0  0
   -3.8279    2.0245   -0.5998 N   0  0  0  0  0  0  0  0  0  0  0  0
   -5.7275    0.7593   -0.0556 N   0  0  0  0  0  0  0  0  0  0  0  0
   -3.6813   -0.3622   -0.2997 N   0  0  0  0  0  0  0  0  0  0  0  0
   -9.9227   -4.3524    1.4703 N   0  0  0  0  0  0  0  0  0  0  0  0
    5.0726   -0.0268    2.4181 C   0  0  2  0  0  0  0  0  0  0  0  0
    4.7365    1.2286    1.6242 C   0  0  0  0  0  0  0  0  0  0  0  0
    2.8442    2.3374    0.4553 C   0  0  0  0  0  0  0  0  0  0  0  0
    4.8010    0.1785    3.9003 C   0  0  0  0  0  0  0  0  0  0  0  0
    3.0043    2.1793   -1.0562 C   0  0  0  0  0  0  0  0  0  0  0  0
    7.4293    0.2438    3.1027 C   0  0  0  0  0  0  0  0  0  0  0  0
    6.9469   -1.1403    1.1209 C   0  0  0  0  0  0  0  0  0  0  0  0
    2.3137    0.9412   -1.6355 C   0  0  0  0  0  0  0  0  0  0  0  0
    5.9127   -1.6879    0.1960 C   0  0  0  0  0  0  0  0  0  0  0  0
    5.1415   -3.4673   -1.3818 C   0  0  0  0  0  0  0  0  0  0  0  0
    6.1217   -2.8578   -0.4248 C   0  0  0  0  0  0  0  0  0  0  0  0
   -2.6387    4.5073   -1.1731 C   0  0  0  0  0  0  0  0  0  0  0  0
    0.8705    0.9289   -1.3601 C   0  0  0  0  0  0  0  0  0  0  0  0
   -1.7392    5.6724   -1.5723 C   0  0  0  0  0  0  0  0  0  0  0  0
   -2.5038    2.0356   -0.8595 C   0  0  0  0  0  0  0  0  0  0  0  0
   -1.7125    0.9052   -0.8579 C   0  0  0  0  0  0  0  0  0  0  0  0
   -0.3089    0.9172   -1.1330 C   0  0  0  0  0  0  0  0  0  0  0  0
   -0.5986    5.9012   -0.5902 C   0  0  0  0  0  0  0  0  0  0  0  0
    5.0075   -4.6895   -3.4461 C   0  0  0  0  0  0  0  0  0  0  0  0
    5.7274   -2.3973   -3.4516 C   0  0  0  0  0  0  0  0  0  0  0  0
   -2.3618   -0.2776   -0.5685 C   0  0  0  0  0  0  0  0  0  0  0  0
   -4.3440    0.8097   -0.3318 C   0  0  0  0  0  0  0  0  0  0  0  0
   -6.5979   -0.3008    0.2595 C   0  0  0  0  0  0  0  0  0  0  0  0
   -7.7123   -0.0711    1.0665 C   0  0  0  0  0  0  0  0  0  0  0  0
   -6.3456   -1.5811   -0.2334 C   0  0  0  0  0  0  0  0  0  0  0  0
   -8.5744   -1.1217    1.3804 C   0  0  0  0  0  0  0  0  0  0  0  0
   -7.2078   -2.6317    0.0806 C   0  0  0  0  0  0  0  0  0  0  0  0
   -8.3223   -2.4020    0.8874 C   0  0  0  0  0  0  0  0  0  0  0  0
   -9.2054   -3.4783    1.2092 C   0  0  0  0  0  0  0  0  0  0  0  0
    4.4485   -0.8593    2.0780 H   0  0  0  0  0  0  0  0  0  0  0  0
    1.7909    2.4126    0.7431 H   0  0  0  0  0  0  0  0  0  0  0  0
    3.3335    3.2653    0.7728 H   0  0  0  0  0  0  0  0  0  0  0  0
    5.2672    1.0842    4.3028 H   0  0  0  0  0  0  0  0  0  0  0  0
    3.7234    0.2981    4.0655 H   0  0  0  0  0  0  0  0  0  0  0  0
    5.1247   -0.6828    4.4945 H   0  0  0  0  0  0  0  0  0  0  0  0
    2.6019    3.0774   -1.5418 H   0  0  0  0  0  0  0  0  0  0  0  0
    4.0709    2.1326   -1.3087 H   0  0  0  0  0  0  0  0  0  0  0  0
    2.8169    0.4436    1.4015 H   0  0  0  0  0  0  0  0  0  0  0  0
    7.2510    1.3176    3.2040 H   0  0  0  0  0  0  0  0  0  0  0  0
    8.4554    0.1140    2.7458 H   0  0  0  0  0  0  0  0  0  0  0  0
    7.3598   -0.2529    4.0745 H   0  0  0  0  0  0  0  0  0  0  0  0
    2.4769    0.9198   -2.7194 H   0  0  0  0  0  0  0  0  0  0  0  0
    2.7742    0.0316   -1.2329 H   0  0  0  0  0  0  0  0  0  0  0  0
    5.0123   -1.1190    0.0013 H   0  0  0  0  0  0  0  0  0  0  0  0
    4.8767   -4.4418   -0.9491 H   0  0  0  0  0  0  0  0  0  0  0  0
    4.2049   -2.8961   -1.4316 H   0  0  0  0  0  0  0  0  0  0  0  0
    7.0312   -3.4230   -0.2333 H   0  0  0  0  0  0  0  0  0  0  0  0
   -3.0793    4.7075   -0.1890 H   0  0  0  0  0  0  0  0  0  0  0  0
   -3.4604    4.4398   -1.8962 H   0  0  0  0  0  0  0  0  0  0  0  0
   -2.3446    6.5844   -1.6318 H   0  0  0  0  0  0  0  0  0  0  0  0
   -1.3209    5.4994   -2.5713 H   0  0  0  0  0  0  0  0  0  0  0  0
   -1.0449    3.2484   -1.6905 H   0  0  0  0  0  0  0  0  0  0  0  0
    0.0883    5.0495   -0.5619 H   0  0  0  0  0  0  0  0  0  0  0  0
   -0.9809    6.0696    0.4217 H   0  0  0  0  0  0  0  0  0  0  0  0
   -0.0216    6.7836   -0.8847 H   0  0  0  0  0  0  0  0  0  0  0  0
    5.0623   -5.6509   -2.9231 H   0  0  0  0  0  0  0  0  0  0  0  0
    3.9516   -4.4329   -3.5902 H   0  0  0  0  0  0  0  0  0  0  0  0
    5.4623   -4.8452   -4.4308 H   0  0  0  0  0  0  0  0  0  0  0  0
    4.7145   -2.0076   -3.6071 H   0  0  0  0  0  0  0  0  0  0  0  0
    6.3181   -1.6292   -2.9409 H   0  0  0  0  0  0  0  0  0  0  0  0
    6.1924   -2.5373   -4.4342 H   0  0  0  0  0  0  0  0  0  0  0  0
   -1.8347   -1.2268   -0.5406 H   0  0  0  0  0  0  0  0  0  0  0  0
   -6.1387    1.6833    0.0374 H   0  0  0  0  0  0  0  0  0  0  0  0
   -7.9193    0.9217    1.4578 H   0  0  0  0  0  0  0  0  0  0  0  0
   -5.5170   -1.7966   -0.8996 H   0  0  0  0  0  0  0  0  0  0  0  0
   -9.4387   -0.9271    2.0108 H   0  0  0  0  0  0  0  0  0  0  0  0
   -7.0036   -3.6224   -0.3188 H   0  0  0  0  0  0  0  0  0  0  0  0
  1 12  2  0  0  0  0
  2 17  2  0  0  0  0
  3 11  1  0  0  0  0
  3 16  1  0  0  0  0
  3 17  1  0  0  0  0
  4 12  1  0  0  0  0
  4 13  1  0  0  0  0
  4 48  1  0  0  0  0
  5 20  1  0  0  0  0
  5 29  1  0  0  0  0
  5 30  1  0  0  0  0
  6 22  1  0  0  0  0
  6 25  1  0  0  0  0
  6 62  1  0  0  0  0
  7 25  2  0  0  0  0
  7 32  1  0  0  0  0
  8 32  1  0  0  0  0
  8 33  1  0  0  0  0
  8 73  1  0  0  0  0
  9 31  1  0  0  0  0
  9 32  2  0  0  0  0
 10 39  3  0  0  0  0
 11 12  1  0  0  0  0
 11 14  1  0  0  0  0
 11 40  1  0  0  0  0
 13 15  1  0  0  0  0
 13 41  1  0  0  0  0
 13 42  1  0  0  0  0
 14 43  1  0  0  0  0
 14 44  1  0  0  0  0
 14 45  1  0  0  0  0
 15 18  1  0  0  0  0
 15 46  1  0  0  0  0
 15 47  1  0  0  0  0
 16 49  1  0  0  0  0
 16 50  1  0  0  0  0
 16 51  1  0  0  0  0
 17 19  1  0  0  0  0
 18 23  1  0  0  0  0
 18 52  1  0  0  0  0
 18 53  1  0  0  0  0
 19 21  2  0  0  0  0
 19 54  1  0  0  0  0
 20 21  1  0  0  0  0
 20 55  1  0  0  0  0
 20 56  1  0  0  0  0
 21 57  1  0  0  0  0
 22 24  1  0  0  0  0
 22 58  1  0  0  0  0
 22 59  1  0  0  0  0
 23 27  3  0  0  0  0
 24 28  1  0  0  0  0
 24 60  1  0  0  0  0
 24 61  1  0  0  0  0
 25 26  1  0  0  0  0
 26 27  1  0  0  0  0
 26 31  2  0  0  0  0
 28 63  1  0  0  0  0
 28 64  1  0  0  0  0
 28 65  1  0  0  0  0
 29 66  1  0  0  0  0
 29 67  1  0  0  0  0
 29 68  1  0  0  0  0
 30 69  1  0  0  0  0
 30 70  1  0  0  0  0
 30 71  1  0  0  0  0
 31 72  1  0  0  0  0
 33 34  2  0  0  0  0
 33 35  1  0  0  0  0
 34 36  1  0  0  0  0
 34 74  1  0  0  0  0
 35 37  2  0  0  0  0
 35 75  1  0  0  0  0
 36 38  2  0  0  0  0
 36 76  1  0  0  0  0
 37 38  1  0  0  0  0
 37 77  1  0  0  0  0
 38 39  1  0  0  0  0
M  END
> <DATABASE_ID>
DB16050

> <DATABASE_NAME>
drugbank

> <ORIGINAL_SOURCE>
PUBCHEM

> <ORIGINAL_SOURCE_URL>
https://pubchem.ncbi.nlm.nih.gov/rest/pug/compound/inchikey/HJFSVYUFOXAVAA-YUAYGMJFSA-N/SDF?record_type=3d

> <SMILES>
CCCNC1=NC(NC2=CC=C(C=C2)C#N)=NC=C1C#CCCCNC(=O)[C@H](C)N(C)C(=O)\C=C\CN(C)C

> <INCHI_IDENTIFIER>
InChI=1S/C29H38N8O2/c1-6-17-31-27-24(21-33-29(35-27)34-25-15-13-23(20-30)14-16-25)11-8-7-9-18-32-28(39)22(2)37(5)26(38)12-10-19-36(3)4/h10,12-16,21-22H,6-7,9,17-19H2,1-5H3,(H,32,39)(H2,31,33,34,35)/b12-10+/t22-/m0/s1

> <INCHI_KEY>
HJFSVYUFOXAVAA-YUAYGMJFSA-N

> <FORMULA>
C29H38N8O2

> <MOLECULAR_WEIGHT>
530.677

> <EXACT_MASS>
530.311772496

> <JCHEM_ACCEPTOR_COUNT>
8

> <JCHEM_ATOM_COUNT>
77

> <JCHEM_AVERAGE_NEUTRAL_MICROSPECIES_CHARGE>
1.0080260941421055

> <JCHEM_AVERAGE_POLARIZABILITY>
61.08116591389575

> <JCHEM_BIOAVAILABILITY>
0

> <JCHEM_DONOR_COUNT>
3

> <JCHEM_FORMAL_CHARGE>
0

> <JCHEM_GHOSE_FILTER>
0

> <JCHEM_IUPAC>
(2E)-N-[(1S)-1-[(5-{2-[(4-cyanophenyl)amino]-4-(propylamino)pyrimidin-5-yl}pent-4-yn-1-yl)carbamoyl]ethyl]-4-(dimethylamino)-N-methylbut-2-enamide

> <ALOGPS_LOGP>
3.81

> <JCHEM_LOGP>
3.3808588000000004

> <ALOGPS_LOGS>
-4.08

> <JCHEM_MDDR_LIKE_RULE>
0

> <JCHEM_NEUTRAL_CHARGE>
1

> <JCHEM_NUMBER_OF_RINGS>
2

> <JCHEM_PHYSIOLOGICAL_CHARGE>
1

> <JCHEM_PKA>
15.031590568526827

> <JCHEM_PKA_STRONGEST_ACIDIC>
11.900040949636379

> <JCHEM_PKA_STRONGEST_BASIC>
8.80617028211283

> <JCHEM_POLAR_SURFACE_AREA>
126.27999999999999

> <JCHEM_REFRACTIVITY>
155.57789999999994

> <JCHEM_ROTATABLE_BOND_COUNT>
15

> <JCHEM_RULE_OF_FIVE>
0

> <ALOGPS_SOLUBILITY>
4.39e-02 g/l

> <JCHEM_TRADITIONAL_IUPAC>
5-({4-[2-(3-methoxyphenyl)-2-oxoethoxy]phenyl}methyl)-1,3-thiazolidine-2,4-dione

> <JCHEM_VEBER_RULE>
0

> <DRUGBANK_ID>
DB16050

> <DRUG_GROUPS>
investigational

> <GENERIC_NAME>
FF-10101-01

$$$$