58111426
  -OEChem-12152013133D

 46 50  0     1  0  0  0  0  0999 V2000
    2.9287   -3.8458    0.4321 S   0  0  0  0  0  0  0  0  0  0  0  0
   -0.1660    4.1816   -2.1749 F   0  0  0  0  0  0  0  0  0  0  0  0
    3.9012    0.8089   -0.8119 O   0  0  0  0  0  0  0  0  0  0  0  0
    3.3420   -1.3719   -0.1808 N   0  0  0  0  0  0  0  0  0  0  0  0
   -1.3966   -0.8242    0.5406 N   0  0  0  0  0  0  0  0  0  0  0  0
    1.2309   -1.8060    0.8528 N   0  0  0  0  0  0  0  0  0  0  0  0
   -3.5537   -2.2909   -1.0736 N   0  0  0  0  0  0  0  0  0  0  0  0
   -3.1772    0.6645    1.0824 N   0  0  0  0  0  0  0  0  0  0  0  0
   -5.6764   -1.6217   -1.1951 N   0  0  0  0  0  0  0  0  0  0  0  0
   -5.4384    0.3348    0.2282 N   0  0  0  0  0  0  0  0  0  0  0  0
   -0.4089   -0.1117    1.3080 C   0  0  2  0  0  0  0  0  0  0  0  0
    0.9497   -0.4590    0.7493 C   0  0  0  0  0  0  0  0  0  0  0  0
    1.7921    0.4530    0.2091 C   0  0  0  0  0  0  0  0  0  0  0  0
    3.1266   -0.0074   -0.3185 C   0  0  0  0  0  0  0  0  0  0  0  0
    2.3756   -2.1816    0.3973 C   0  0  0  0  0  0  0  0  0  0  0  0
   -0.5161   -0.4876    2.7731 C   0  0  0  0  0  0  0  0  0  0  0  0
    1.4506    1.8680    0.1208 C   0  0  0  0  0  0  0  0  0  0  0  0
    4.4811   -2.0679   -0.5778 C   0  0  0  0  0  0  0  0  0  0  0  0
   -2.7262   -0.4374    0.4420 C   0  0  0  0  0  0  0  0  0  0  0  0
    4.4195   -3.3846   -0.3236 C   0  0  0  0  0  0  0  0  0  0  0  0
   -3.6304   -1.1609   -0.3103 C   0  0  0  0  0  0  0  0  0  0  0  0
    0.7929    2.3577   -1.0076 C   0  0  0  0  0  0  0  0  0  0  0  0
    1.7815    2.7317    1.1651 C   0  0  0  0  0  0  0  0  0  0  0  0
    5.6479   -1.4000   -1.2220 C   0  0  0  0  0  0  0  0  0  0  0  0
   -4.9578   -0.7643   -0.4016 C   0  0  0  0  0  0  0  0  0  0  0  0
    0.4659    3.7112   -1.0919 C   0  0  0  0  0  0  0  0  0  0  0  0
    1.4548    4.0851    1.0807 C   0  0  0  0  0  0  0  0  0  0  0  0
    0.7969    4.5749   -0.0476 C   0  0  0  0  0  0  0  0  0  0  0  0
   -4.8035   -2.5270   -1.5825 C   0  0  0  0  0  0  0  0  0  0  0  0
   -4.4867    0.9784    0.9379 C   0  0  0  0  0  0  0  0  0  0  0  0
   -0.6011    0.9627    1.2316 H   0  0  0  0  0  0  0  0  0  0  0  0
   -1.1312   -1.6941    0.0906 H   0  0  0  0  0  0  0  0  0  0  0  0
   -1.4735   -0.1620    3.1950 H   0  0  0  0  0  0  0  0  0  0  0  0
    0.2778   -0.0136    3.3615 H   0  0  0  0  0  0  0  0  0  0  0  0
   -0.4537   -1.5707    2.9316 H   0  0  0  0  0  0  0  0  0  0  0  0
    5.1950   -4.1026   -0.5519 H   0  0  0  0  0  0  0  0  0  0  0  0
    0.5276    1.6973   -1.8296 H   0  0  0  0  0  0  0  0  0  0  0  0
    2.2940    2.3651    2.0514 H   0  0  0  0  0  0  0  0  0  0  0  0
    5.3536   -0.9229   -2.1621 H   0  0  0  0  0  0  0  0  0  0  0  0
    6.4408   -2.1186   -1.4575 H   0  0  0  0  0  0  0  0  0  0  0  0
    6.0813   -0.6462   -0.5570 H   0  0  0  0  0  0  0  0  0  0  0  0
   -2.7284   -2.8526   -1.2357 H   0  0  0  0  0  0  0  0  0  0  0  0
    1.7123    4.7577    1.8937 H   0  0  0  0  0  0  0  0  0  0  0  0
    0.5421    5.6285   -0.1133 H   0  0  0  0  0  0  0  0  0  0  0  0
   -5.0075   -3.3716   -2.2251 H   0  0  0  0  0  0  0  0  0  0  0  0
   -4.8146    1.8682    1.4646 H   0  0  0  0  0  0  0  0  0  0  0  0
  1 15  1  0  0  0  0
  1 20  1  0  0  0  0
  2 26  1  0  0  0  0
  3 14  2  0  0  0  0
  4 14  1  0  0  0  0
  4 15  1  0  0  0  0
  4 18  1  0  0  0  0
  5 11  1  0  0  0  0
  5 19  1  0  0  0  0
  5 32  1  0  0  0  0
  6 12  1  0  0  0  0
  6 15  2  0  0  0  0
  7 21  1  0  0  0  0
  7 29  1  0  0  0  0
  7 42  1  0  0  0  0
  8 19  2  0  0  0  0
  8 30  1  0  0  0  0
  9 25  1  0  0  0  0
  9 29  2  0  0  0  0
 10 25  1  0  0  0  0
 10 30  2  0  0  0  0
 11 12  1  0  0  0  0
 11 16  1  0  0  0  0
 11 31  1  0  0  0  0
 12 13  2  0  0  0  0
 13 14  1  0  0  0  0
 13 17  1  0  0  0  0
 16 33  1  0  0  0  0
 16 34  1  0  0  0  0
 16 35  1  0  0  0  0
 17 22  2  0  0  0  0
 17 23  1  0  0  0  0
 18 20  2  0  0  0  0
 18 24  1  0  0  0  0
 19 21  1  0  0  0  0
 20 36  1  0  0  0  0
 21 25  2  0  0  0  0
 22 26  1  0  0  0  0
 22 37  1  0  0  0  0
 23 27  2  0  0  0  0
 23 38  1  0  0  0  0
 24 39  1  0  0  0  0
 24 40  1  0  0  0  0
 24 41  1  0  0  0  0
 26 28  2  0  0  0  0
 27 28  1  0  0  0  0
 27 43  1  0  0  0  0
 28 44  1  0  0  0  0
 29 45  1  0  0  0  0
 30 46  1  0  0  0  0
M  END
> <DATABASE_ID>
DB16137

> <DATABASE_NAME>
drugbank

> <ORIGINAL_SOURCE>
PUBCHEM

> <ORIGINAL_SOURCE_URL>
https://pubchem.ncbi.nlm.nih.gov/rest/pug/compound/inchikey/RSIWALKZYXPAGW-NSHDSACASA-N/SDF?record_type=3d

> <SMILES>
C[C@H](NC1=C2N=CNC2=NC=N1)C1=C(C(=O)N2C(C)=CSC2=N1)C1=CC=CC(F)=C1

> <INCHI_IDENTIFIER>
InChI=1S/C20H16FN7OS/c1-10-7-30-20-27-15(11(2)26-18-16-17(23-8-22-16)24-9-25-18)14(19(29)28(10)20)12-4-3-5-13(21)6-12/h3-9,11H,1-2H3,(H2,22,23,24,25,26)/t11-/m0/s1

> <INCHI_KEY>
RSIWALKZYXPAGW-NSHDSACASA-N

> <FORMULA>
C20H16FN7OS

> <MOLECULAR_WEIGHT>
421.45

> <EXACT_MASS>
421.1121075

> <JCHEM_ACCEPTOR_COUNT>
6

> <JCHEM_ATOM_COUNT>
46

> <JCHEM_AVERAGE_NEUTRAL_MICROSPECIES_CHARGE>
-0.0003457838525625575

> <JCHEM_AVERAGE_POLARIZABILITY>
41.33493741366985

> <JCHEM_BIOAVAILABILITY>
1

> <JCHEM_DONOR_COUNT>
2

> <JCHEM_FORMAL_CHARGE>
0

> <JCHEM_GHOSE_FILTER>
1

> <JCHEM_IUPAC>
6-(3-fluorophenyl)-3-methyl-7-[(1S)-1-[(9H-purin-6-yl)amino]ethyl]-5H-[1,3]thiazolo[3,2-a]pyrimidin-5-one

> <ALOGPS_LOGP>
2.64

> <JCHEM_LOGP>
2.7610824126666667

> <ALOGPS_LOGS>
-4.13

> <JCHEM_MDDR_LIKE_RULE>
0

> <JCHEM_NEUTRAL_CHARGE>
0

> <JCHEM_NUMBER_OF_RINGS>
5

> <JCHEM_PHYSIOLOGICAL_CHARGE>
0

> <JCHEM_PKA>
18.223673327497988

> <JCHEM_PKA_STRONGEST_ACIDIC>
9.753502321682284

> <JCHEM_PKA_STRONGEST_BASIC>
3.2039105580962244

> <JCHEM_POLAR_SURFACE_AREA>
99.16

> <JCHEM_REFRACTIVITY>
115.91590000000001

> <JCHEM_ROTATABLE_BOND_COUNT>
4

> <JCHEM_RULE_OF_FIVE>
1

> <ALOGPS_SOLUBILITY>
3.10e-02 g/l

> <JCHEM_TRADITIONAL_IUPAC>
5-({4-[2-(3-methoxyphenyl)-2-oxoethoxy]phenyl}methyl)-1,3-thiazolidine-2,4-dione

> <JCHEM_VEBER_RULE>
0

> <DRUGBANK_ID>
DB16137

> <DRUG_GROUPS>
investigational

> <GENERIC_NAME>
Dezapelisib

$$$$