10322579
  -OEChem-12152013163D

 61 64  0     1  0  0  0  0  0999 V2000
    0.4791   -3.5180   -1.9660 S   0  0  0  0  0  0  0  0  0  0  0  0
   -6.0323    1.1893    0.8781 O   0  0  0  0  0  0  0  0  0  0  0  0
   -1.3824    0.0265   -1.3616 O   0  0  0  0  0  0  0  0  0  0  0  0
   -0.8625   -3.4306   -1.4171 O   0  0  0  0  0  0  0  0  0  0  0  0
    0.7643   -3.0383   -3.3068 O   0  0  0  0  0  0  0  0  0  0  0  0
    3.9074    2.8967   -0.3563 O   0  0  0  0  0  0  0  0  0  0  0  0
    5.7248    1.6381    1.3290 O   0  0  0  0  0  0  0  0  0  0  0  0
    0.1102   -1.0139    0.1372 N   0  0  0  0  0  0  0  0  0  0  0  0
   -3.9350    0.6361   -0.0395 N   0  0  0  0  0  0  0  0  0  0  0  0
   -5.6532    1.7165   -1.3703 C   0  0  0  0  0  0  0  0  0  0  0  0
   -4.8067    2.7754   -2.0141 C   0  0  0  0  0  0  0  0  0  0  0  0
   -6.1449    3.1327   -1.4365 C   0  0  0  0  0  0  0  0  0  0  0  0
   -5.2344    1.1524   -0.0486 C   0  0  0  0  0  0  0  0  0  0  0  0
    1.2731   -1.2224   -0.6981 C   0  0  2  0  0  0  0  0  0  0  0  0
    0.0946   -1.4299    1.5347 C   0  0  0  0  0  0  0  0  0  0  0  0
   -1.9598   -0.4279    0.9030 C   0  0  0  0  0  0  0  0  0  0  0  0
   -1.2726   -1.0195    1.9639 C   0  0  0  0  0  0  0  0  0  0  0  0
   -3.2518    0.0460    1.0222 C   0  0  0  0  0  0  0  0  0  0  0  0
    1.5854   -2.7129   -0.8467 C   0  0  0  0  0  0  0  0  0  0  0  0
   -1.0798   -0.4213   -0.2708 C   0  0  0  0  0  0  0  0  0  0  0  0
    2.4619   -0.4550   -0.1584 C   0  0  0  0  0  0  0  0  0  0  0  0
   -1.8781   -1.1538    3.1990 C   0  0  0  0  0  0  0  0  0  0  0  0
   -3.8671   -0.0874    2.2678 C   0  0  0  0  0  0  0  0  0  0  0  0
   -3.1867   -0.6820    3.3467 C   0  0  0  0  0  0  0  0  0  0  0  0
    2.6448    0.8833   -0.5066 C   0  0  0  0  0  0  0  0  0  0  0  0
    3.3739   -1.0865    0.6873 C   0  0  0  0  0  0  0  0  0  0  0  0
    0.9840   -5.2206   -1.8850 C   0  0  0  0  0  0  0  0  0  0  0  0
    3.7395    1.5902   -0.0091 C   0  0  0  0  0  0  0  0  0  0  0  0
    4.4689   -0.3796    1.1846 C   0  0  0  0  0  0  0  0  0  0  0  0
    4.6517    0.9587    0.8365 C   0  0  0  0  0  0  0  0  0  0  0  0
    3.4158    3.2960   -1.6342 C   0  0  0  0  0  0  0  0  0  0  0  0
    6.6091    0.9194    2.1865 C   0  0  0  0  0  0  0  0  0  0  0  0
    4.2589    4.4424   -2.1507 C   0  0  0  0  0  0  0  0  0  0  0  0
   -6.1440    1.0050   -2.0268 H   0  0  0  0  0  0  0  0  0  0  0  0
   -3.9281    3.1396   -1.4956 H   0  0  0  0  0  0  0  0  0  0  0  0
   -4.7115    2.7566   -3.0929 H   0  0  0  0  0  0  0  0  0  0  0  0
   -6.9486    3.3562   -2.1274 H   0  0  0  0  0  0  0  0  0  0  0  0
   -6.1577    3.7245   -0.5294 H   0  0  0  0  0  0  0  0  0  0  0  0
    1.0483   -0.8200   -1.6947 H   0  0  0  0  0  0  0  0  0  0  0  0
    0.2157   -2.5120    1.6164 H   0  0  0  0  0  0  0  0  0  0  0  0
    0.8572   -0.8903    2.1015 H   0  0  0  0  0  0  0  0  0  0  0  0
   -3.4181    0.6890   -0.9141 H   0  0  0  0  0  0  0  0  0  0  0  0
    1.5417   -3.2675    0.0946 H   0  0  0  0  0  0  0  0  0  0  0  0
    2.5803   -2.8621   -1.2852 H   0  0  0  0  0  0  0  0  0  0  0  0
   -1.3587   -1.6112    4.0339 H   0  0  0  0  0  0  0  0  0  0  0  0
   -4.8740    0.2451    2.4823 H   0  0  0  0  0  0  0  0  0  0  0  0
   -3.6852   -0.7758    4.3082 H   0  0  0  0  0  0  0  0  0  0  0  0
    1.8999    1.3556   -1.1409 H   0  0  0  0  0  0  0  0  0  0  0  0
    3.2570   -2.1196    0.9988 H   0  0  0  0  0  0  0  0  0  0  0  0
    0.3473   -5.7965   -2.5597 H   0  0  0  0  0  0  0  0  0  0  0  0
    2.0264   -5.2943   -2.1999 H   0  0  0  0  0  0  0  0  0  0  0  0
    0.8616   -5.5763   -0.8605 H   0  0  0  0  0  0  0  0  0  0  0  0
    5.1334   -0.9326    1.8394 H   0  0  0  0  0  0  0  0  0  0  0  0
    3.4815    2.4845   -2.3698 H   0  0  0  0  0  0  0  0  0  0  0  0
    2.3737    3.6195   -1.5348 H   0  0  0  0  0  0  0  0  0  0  0  0
    7.4039    1.6118    2.4831 H   0  0  0  0  0  0  0  0  0  0  0  0
    7.0918    0.0872    1.6627 H   0  0  0  0  0  0  0  0  0  0  0  0
    6.1077    0.5989    3.1061 H   0  0  0  0  0  0  0  0  0  0  0  0
    3.9024    4.7819   -3.1273 H   0  0  0  0  0  0  0  0  0  0  0  0
    5.3072    4.1394   -2.2427 H   0  0  0  0  0  0  0  0  0  0  0  0
    4.2320    5.2857   -1.4526 H   0  0  0  0  0  0  0  0  0  0  0  0
  1  4  2  0  0  0  0
  1  5  2  0  0  0  0
  1 19  1  0  0  0  0
  1 27  1  0  0  0  0
  2 13  2  0  0  0  0
  3 20  2  0  0  0  0
  6 28  1  0  0  0  0
  6 31  1  0  0  0  0
  7 30  1  0  0  0  0
  7 32  1  0  0  0  0
  8 14  1  0  0  0  0
  8 15  1  0  0  0  0
  8 20  1  0  0  0  0
  9 13  1  0  0  0  0
  9 18  1  0  0  0  0
  9 42  1  0  0  0  0
 10 11  1  0  0  0  0
 10 12  1  0  0  0  0
 10 13  1  0  0  0  0
 10 34  1  0  0  0  0
 11 12  1  0  0  0  0
 11 35  1  0  0  0  0
 11 36  1  0  0  0  0
 12 37  1  0  0  0  0
 12 38  1  0  0  0  0
 14 19  1  0  0  0  0
 14 21  1  0  0  0  0
 14 39  1  0  0  0  0
 15 17  1  0  0  0  0
 15 40  1  0  0  0  0
 15 41  1  0  0  0  0
 16 17  2  0  0  0  0
 16 18  1  0  0  0  0
 16 20  1  0  0  0  0
 17 22  1  0  0  0  0
 18 23  2  0  0  0  0
 19 43  1  0  0  0  0
 19 44  1  0  0  0  0
 21 25  2  0  0  0  0
 21 26  1  0  0  0  0
 22 24  2  0  0  0  0
 22 45  1  0  0  0  0
 23 24  1  0  0  0  0
 23 46  1  0  0  0  0
 24 47  1  0  0  0  0
 25 28  1  0  0  0  0
 25 48  1  0  0  0  0
 26 29  2  0  0  0  0
 26 49  1  0  0  0  0
 27 50  1  0  0  0  0
 27 51  1  0  0  0  0
 27 52  1  0  0  0  0
 28 30  2  0  0  0  0
 29 30  1  0  0  0  0
 29 53  1  0  0  0  0
 31 33  1  0  0  0  0
 31 54  1  0  0  0  0
 31 55  1  0  0  0  0
 32 56  1  0  0  0  0
 32 57  1  0  0  0  0
 32 58  1  0  0  0  0
 33 59  1  0  0  0  0
 33 60  1  0  0  0  0
 33 61  1  0  0  0  0
M  END
> <DATABASE_ID>
DB16242

> <DATABASE_NAME>
drugbank

> <ORIGINAL_SOURCE>
PUBCHEM

> <ORIGINAL_SOURCE_URL>
https://pubchem.ncbi.nlm.nih.gov/rest/pug/compound/inchikey/QDZOBXFRIVOQBR-LJQANCHMSA-N/SDF?record_type=3d

> <SMILES>
CCOC1=C(OC)C=CC(=C1)[C@@H](CS(C)(=O)=O)N1CC2=CC=CC(NC(=O)C3CC3)=C2C1=O

> <INCHI_IDENTIFIER>
InChI=1S/C24H28N2O6S/c1-4-32-21-12-16(10-11-20(21)31-2)19(14-33(3,29)30)26-13-17-6-5-7-18(22(17)24(26)28)25-23(27)15-8-9-15/h5-7,10-12,15,19H,4,8-9,13-14H2,1-3H3,(H,25,27)/t19-/m1/s1

> <INCHI_KEY>
QDZOBXFRIVOQBR-LJQANCHMSA-N

> <FORMULA>
C24H28N2O6S

> <MOLECULAR_WEIGHT>
472.56

> <EXACT_MASS>
472.166807804

> <JCHEM_ACCEPTOR_COUNT>
6

> <JCHEM_ATOM_COUNT>
61

> <JCHEM_AVERAGE_NEUTRAL_MICROSPECIES_CHARGE>
-1.5087801345256094e-06

> <JCHEM_AVERAGE_POLARIZABILITY>
49.52069060816997

> <JCHEM_BIOAVAILABILITY>
1

> <JCHEM_DONOR_COUNT>
1

> <JCHEM_FORMAL_CHARGE>
0

> <JCHEM_GHOSE_FILTER>
1

> <JCHEM_IUPAC>
N-{2-[(1S)-1-(3-ethoxy-4-methoxyphenyl)-2-methanesulfonylethyl]-3-oxo-2,3-dihydro-1H-isoindol-4-yl}cyclopropanecarboxamide

> <ALOGPS_LOGP>
2.24

> <JCHEM_LOGP>
2.1953702746666663

> <ALOGPS_LOGS>
-4.15

> <JCHEM_MDDR_LIKE_RULE>
1

> <JCHEM_NEUTRAL_CHARGE>
0

> <JCHEM_NUMBER_OF_RINGS>
4

> <JCHEM_PHYSIOLOGICAL_CHARGE>
0

> <JCHEM_PKA>
14.142578260947003

> <JCHEM_PKA_STRONGEST_ACIDIC>
12.844608421683146

> <JCHEM_PKA_STRONGEST_BASIC>
-1.9271700940053387

> <JCHEM_POLAR_SURFACE_AREA>
102.00999999999999

> <JCHEM_REFRACTIVITY>
125.77179999999996

> <JCHEM_ROTATABLE_BOND_COUNT>
9

> <JCHEM_RULE_OF_FIVE>
1

> <ALOGPS_SOLUBILITY>
3.31e-02 g/l

> <JCHEM_TRADITIONAL_IUPAC>
5-({4-[2-(3-methoxyphenyl)-2-oxoethoxy]phenyl}methyl)-1,3-thiazolidine-2,4-dione

> <JCHEM_VEBER_RULE>
0

> <DRUGBANK_ID>
DB16242

> <DRUG_GROUPS>
investigational

> <GENERIC_NAME>
CC-11050

$$$$