86269973
  -OEChem-12152013183D

 51 54  0     0  0  0  0  0  0999 V2000
    7.2647   -0.4736    1.2512 F   0  0  0  0  0  0  0  0  0  0  0  0
    5.9697    1.2660    1.0314 F   0  0  0  0  0  0  0  0  0  0  0  0
    5.3830   -0.3794    2.3359 F   0  0  0  0  0  0  0  0  0  0  0  0
    4.7888   -2.8902   -0.9514 F   0  0  0  0  0  0  0  0  0  0  0  0
    4.6592   -2.7008    1.2147 F   0  0  0  0  0  0  0  0  0  0  0  0
    6.6072   -2.6970    0.2359 F   0  0  0  0  0  0  0  0  0  0  0  0
    3.5994    3.8388   -0.6014 F   0  0  0  0  0  0  0  0  0  0  0  0
   -6.7406   -0.8172   -0.6263 F   0  0  0  0  0  0  0  0  0  0  0  0
    5.9419   -0.4108   -1.2201 O   0  0  0  0  0  0  0  0  0  0  0  0
   -4.6837   -3.4944   -0.9961 O   0  0  0  0  0  0  0  0  0  0  0  0
    3.6557    1.1100   -0.3021 N   0  0  0  0  0  0  0  0  0  0  0  0
   -3.0927    0.5718   -0.9068 N   0  0  0  0  0  0  0  0  0  0  0  0
   -2.2093    1.5844   -0.9295 N   0  0  0  0  0  0  0  0  0  0  0  0
    1.3150    1.0168   -0.5194 N   0  0  0  0  0  0  0  0  0  0  0  0
    0.0731    3.0532   -0.8622 N   0  0  0  0  0  0  0  0  0  0  0  0
   -4.3481   -2.1824   -1.3073 N   0  0  0  0  0  0  0  0  0  0  0  0
    5.2576   -0.7507   -0.0121 C   0  0  0  0  0  0  0  0  0  0  0  0
    3.7846   -0.3201   -0.1340 C   0  0  0  0  0  0  0  0  0  0  0  0
    5.9758   -0.0797    1.1579 C   0  0  0  0  0  0  0  0  0  0  0  0
    5.3295   -2.2710    0.1217 C   0  0  0  0  0  0  0  0  0  0  0  0
   -2.5225   -0.6528   -0.7171 C   0  0  0  0  0  0  0  0  0  0  0  0
   -4.4986    0.8582   -1.0741 C   0  0  0  0  0  0  0  0  0  0  0  0
    2.4444    1.7544   -0.4893 C   0  0  0  0  0  0  0  0  0  0  0  0
   -1.0380    0.9691   -0.7466 C   0  0  0  0  0  0  0  0  0  0  0  0
   -1.1723   -0.4254   -0.6085 C   0  0  0  0  0  0  0  0  0  0  0  0
    0.1819    1.7200   -0.7066 C   0  0  0  0  0  0  0  0  0  0  0  0
   -5.2702    0.8422    0.2222 C   0  0  0  0  0  0  0  0  0  0  0  0
   -3.2116   -1.9498   -0.6446 C   0  0  0  0  0  0  0  0  0  0  0  0
    2.4683    3.1263   -0.6363 C   0  0  0  0  0  0  0  0  0  0  0  0
   -6.3651   -0.0084    0.3744 C   0  0  0  0  0  0  0  0  0  0  0  0
   -4.8869    1.6799    1.2695 C   0  0  0  0  0  0  0  0  0  0  0  0
    1.2405    3.7283   -0.8216 C   0  0  0  0  0  0  0  0  0  0  0  0
   -2.7864   -3.0672    0.0944 C   0  0  0  0  0  0  0  0  0  0  0  0
   -7.0766   -0.0215    1.5740 C   0  0  0  0  0  0  0  0  0  0  0  0
   -5.5985    1.6669    2.4692 C   0  0  0  0  0  0  0  0  0  0  0  0
   -6.6933    0.8163    2.6215 C   0  0  0  0  0  0  0  0  0  0  0  0
   -3.7462   -4.0106   -0.1607 C   0  0  0  0  0  0  0  0  0  0  0  0
    3.2278   -0.6358    0.7566 H   0  0  0  0  0  0  0  0  0  0  0  0
    3.3373   -0.8140   -1.0060 H   0  0  0  0  0  0  0  0  0  0  0  0
    4.4943    1.6361   -0.5264 H   0  0  0  0  0  0  0  0  0  0  0  0
   -4.9092    0.1799   -1.8268 H   0  0  0  0  0  0  0  0  0  0  0  0
   -4.5857    1.8612   -1.5135 H   0  0  0  0  0  0  0  0  0  0  0  0
    6.8674   -0.6960   -1.1282 H   0  0  0  0  0  0  0  0  0  0  0  0
   -0.3989   -1.1654   -0.4533 H   0  0  0  0  0  0  0  0  0  0  0  0
   -4.0429    2.3562    1.1671 H   0  0  0  0  0  0  0  0  0  0  0  0
    1.1594    4.8027   -0.9460 H   0  0  0  0  0  0  0  0  0  0  0  0
   -1.9156   -3.1819    0.7233 H   0  0  0  0  0  0  0  0  0  0  0  0
   -7.9288   -0.6841    1.6923 H   0  0  0  0  0  0  0  0  0  0  0  0
   -5.3014    2.3206    3.2841 H   0  0  0  0  0  0  0  0  0  0  0  0
   -7.2476    0.8064    3.5554 H   0  0  0  0  0  0  0  0  0  0  0  0
   -3.9034   -5.0322    0.1517 H   0  0  0  0  0  0  0  0  0  0  0  0
  1 20  1  0  0  0  0
  2 19  1  0  0  0  0
  3 19  1  0  0  0  0
  4 19  1  0  0  0  0
  5 20  1  0  0  0  0
  6 20  1  0  0  0  0
  7 29  1  0  0  0  0
  8 30  1  0  0  0  0
  9 17  1  0  0  0  0
  9 43  1  0  0  0  0
 10 16  1  0  0  0  0
 10 37  1  0  0  0  0
 11 18  1  0  0  0  0
 11 23  1  0  0  0  0
 11 40  1  0  0  0  0
 12 13  1  0  0  0  0
 12 21  1  0  0  0  0
 12 22  1  0  0  0  0
 13 24  2  0  0  0  0
 14 23  2  0  0  0  0
 14 26  1  0  0  0  0
 15 26  2  0  0  0  0
 15 32  1  0  0  0  0
 16 28  2  0  0  0  0
 17 18  1  0  0  0  0
 17 19  1  0  0  0  0
 17 20  1  0  0  0  0
 18 38  1  0  0  0  0
 18 39  1  0  0  0  0
 21 25  2  0  0  0  0
 21 28  1  0  0  0  0
 22 27  1  0  0  0  0
 22 41  1  0  0  0  0
 22 42  1  0  0  0  0
 23 29  1  0  0  0  0
 24 25  1  0  0  0  0
 24 26  1  0  0  0  0
 25 44  1  0  0  0  0
 27 30  1  0  0  0  0
 27 31  2  0  0  0  0
 28 33  1  0  0  0  0
 29 32  2  0  0  0  0
 30 34  2  0  0  0  0
 31 35  1  0  0  0  0
 31 45  1  0  0  0  0
 32 46  1  0  0  0  0
 33 37  2  0  0  0  0
 33 47  1  0  0  0  0
 34 36  1  0  0  0  0
 34 48  1  0  0  0  0
 35 36  2  0  0  0  0
 35 49  1  0  0  0  0
 36 50  1  0  0  0  0
 37 51  1  0  0  0  0
M  END
> <DATABASE_ID>
DB16300

> <DATABASE_NAME>
drugbank

> <ORIGINAL_SOURCE>
PUBCHEM

> <ORIGINAL_SOURCE_URL>
https://pubchem.ncbi.nlm.nih.gov/rest/pug/compound/inchikey/CYSJNTQNMDWAJV-UHFFFAOYSA-N/SDF?record_type=3d

> <SMILES>
OC(CNC1=NC(=NC=C1F)C1=NN(CC2=C(F)C=CC=C2)C(=C1)C1=NOC=C1)(C(F)(F)F)C(F)(F)F

> <INCHI_IDENTIFIER>
InChI=1S/C21H14F8N6O2/c22-12-4-2-1-3-11(12)9-35-16(14-5-6-37-34-14)7-15(33-35)18-30-8-13(23)17(32-18)31-10-19(36,20(24,25)26)21(27,28)29/h1-8,36H,9-10H2,(H,30,31,32)

> <INCHI_KEY>
CYSJNTQNMDWAJV-UHFFFAOYSA-N

> <FORMULA>
C21H14F8N6O2

> <MOLECULAR_WEIGHT>
534.37

> <EXACT_MASS>
534.105049019

> <JCHEM_ACCEPTOR_COUNT>
6

> <JCHEM_ATOM_COUNT>
51

> <JCHEM_AVERAGE_NEUTRAL_MICROSPECIES_CHARGE>
-0.187738517192024

> <JCHEM_AVERAGE_POLARIZABILITY>
43.09937206765435

> <JCHEM_BIOAVAILABILITY>
1

> <JCHEM_DONOR_COUNT>
2

> <JCHEM_FORMAL_CHARGE>
0

> <JCHEM_GHOSE_FILTER>
0

> <JCHEM_IUPAC>
1,1,1-trifluoro-3-[(5-fluoro-2-{1-[(2-fluorophenyl)methyl]-5-(1,2-oxazol-3-yl)-1H-pyrazol-3-yl}pyrimidin-4-yl)amino]-2-(trifluoromethyl)propan-2-ol

> <ALOGPS_LOGP>
4.54

> <JCHEM_LOGP>
4.781917317333333

> <ALOGPS_LOGS>
-4.26

> <JCHEM_MDDR_LIKE_RULE>
1

> <JCHEM_NEUTRAL_CHARGE>
0

> <JCHEM_NUMBER_OF_RINGS>
4

> <JCHEM_PHYSIOLOGICAL_CHARGE>
0

> <JCHEM_PKA>
15.392187159017508

> <JCHEM_PKA_STRONGEST_ACIDIC>
7.636140681963657

> <JCHEM_PKA_STRONGEST_BASIC>
0.8217895684976937

> <JCHEM_POLAR_SURFACE_AREA>
101.89000000000001

> <JCHEM_REFRACTIVITY>
135.0535

> <JCHEM_ROTATABLE_BOND_COUNT>
9

> <JCHEM_RULE_OF_FIVE>
0

> <ALOGPS_SOLUBILITY>
2.92e-02 g/l

> <JCHEM_TRADITIONAL_IUPAC>
5-({4-[2-(3-methoxyphenyl)-2-oxoethoxy]phenyl}methyl)-1,3-thiazolidine-2,4-dione

> <JCHEM_VEBER_RULE>
0

> <DRUGBANK_ID>
DB16300

> <DRUG_GROUPS>
investigational

> <GENERIC_NAME>
Praliciguat

$$$$