118169620
  -OEChem-12152013143D

 81 85  0     1  0  0  0  0  0999 V2000
    6.3097    5.2158    0.3199 F   0  0  0  0  0  0  0  0  0  0  0  0
   -7.9111    2.0732    2.0702 O   0  0  0  0  0  0  0  0  0  0  0  0
   -0.3557    0.1975   -1.1649 O   0  0  0  0  0  0  0  0  0  0  0  0
    6.2789   -2.8135    1.0897 O   0  0  0  0  0  0  0  0  0  0  0  0
   -2.8278   -0.6684   -1.0165 N   0  0  2  0  0  0  0  0  0  0  0  0
   -5.7562    1.2349    0.4297 N   0  0  2  0  0  0  0  0  0  0  0  0
   -4.9734   -1.4290   -2.8089 N   0  0  0  0  0  0  0  0  0  0  0  0
    0.3799   -1.3010    0.4650 N   0  0  0  0  0  0  0  0  0  0  0  0
    3.7763   -2.2265    1.1868 N   0  0  0  0  0  0  0  0  0  0  0  0
   -4.2335   -0.3364   -0.6984 C   0  0  1  0  0  0  0  0  0  0  0  0
   -4.3634    0.9811    0.0778 C   0  0  0  0  0  0  0  0  0  0  0  0
   -5.0566   -0.2169   -1.9972 C   0  0  0  0  0  0  0  0  0  0  0  0
   -2.7587   -1.8866   -1.8427 C   0  0  0  0  0  0  0  0  0  0  0  0
   -3.5790   -1.7372   -3.1315 C   0  0  1  0  0  0  0  0  0  0  0  0
    1.4799   -2.8005    2.0565 C   0  0  0  0  0  0  0  0  0  0  0  0
   -2.0042   -0.8452    0.1820 C   0  0  0  0  0  0  0  0  0  0  0  0
    0.1155   -2.2502    1.5694 C   0  0  0  0  0  0  0  0  0  0  0  0
   -6.0761    2.6672    0.5736 C   0  0  1  0  0  0  0  0  0  0  0  0
    2.4393   -2.0720    1.1404 C   0  0  0  0  0  0  0  0  0  0  0  0
    1.7694   -1.2366    0.2578 C   0  0  0  0  0  0  0  0  0  0  0  0
   -0.5781   -0.5918   -0.2464 C   0  0  0  0  0  0  0  0  0  0  0  0
   -6.1635    0.4515    1.6011 C   0  0  0  0  0  0  0  0  0  0  0  0
   -3.5292   -3.0229   -3.9550 C   0  0  0  0  0  0  0  0  0  0  0  0
    1.5745   -4.3146    1.8523 C   0  0  0  0  0  0  0  0  0  0  0  0
    1.7378   -2.4342    3.5201 C   0  0  0  0  0  0  0  0  0  0  0  0
   -7.5741    2.7995    0.8870 C   0  0  0  0  0  0  0  0  0  0  0  0
   -7.6416    0.6818    1.9007 C   0  0  0  0  0  0  0  0  0  0  0  0
   -5.2423    3.4191    1.6225 C   0  0  0  0  0  0  0  0  0  0  0  0
    2.5035   -0.4971   -0.6517 C   0  0  0  0  0  0  0  0  0  0  0  0
    3.8912   -0.6282   -0.6366 C   0  0  0  0  0  0  0  0  0  0  0  0
    4.4711   -1.4925    0.2878 C   0  0  0  0  0  0  0  0  0  0  0  0
    4.7158    0.1534   -1.6022 C   0  0  0  0  0  0  0  0  0  0  0  0
    5.9556   -1.6563    0.3305 C   0  0  0  0  0  0  0  0  0  0  0  0
    5.1440    1.5127   -1.0863 C   0  0  0  0  0  0  0  0  0  0  0  0
    4.2441    2.5784   -1.0991 C   0  0  0  0  0  0  0  0  0  0  0  0
    6.4375    1.6981   -0.5984 C   0  0  0  0  0  0  0  0  0  0  0  0
    4.6377    3.8294   -0.6244 C   0  0  0  0  0  0  0  0  0  0  0  0
    6.8313    2.9491   -0.1237 C   0  0  0  0  0  0  0  0  0  0  0  0
    5.9313    4.0148   -0.1367 C   0  0  0  0  0  0  0  0  0  0  0  0
   -4.6434   -1.1626   -0.1024 H   0  0  0  0  0  0  0  0  0  0  0  0
   -3.7598    1.0141    0.9879 H   0  0  0  0  0  0  0  0  0  0  0  0
   -3.9828    1.7858   -0.5670 H   0  0  0  0  0  0  0  0  0  0  0  0
   -6.1162   -0.0508   -1.7741 H   0  0  0  0  0  0  0  0  0  0  0  0
   -4.7254    0.6435   -2.5936 H   0  0  0  0  0  0  0  0  0  0  0  0
   -1.7190   -2.0933   -2.1258 H   0  0  0  0  0  0  0  0  0  0  0  0
   -3.1131   -2.7585   -1.2744 H   0  0  0  0  0  0  0  0  0  0  0  0
   -3.1614   -0.9274   -3.7443 H   0  0  0  0  0  0  0  0  0  0  0  0
   -2.1811   -0.1075    0.9667 H   0  0  0  0  0  0  0  0  0  0  0  0
   -2.1744   -1.8294    0.6231 H   0  0  0  0  0  0  0  0  0  0  0  0
   -0.5275   -3.0519    1.1882 H   0  0  0  0  0  0  0  0  0  0  0  0
   -0.4341   -1.7195    2.3558 H   0  0  0  0  0  0  0  0  0  0  0  0
   -5.3785   -2.2068   -2.2872 H   0  0  0  0  0  0  0  0  0  0  0  0
   -5.9070    3.1565   -0.3945 H   0  0  0  0  0  0  0  0  0  0  0  0
   -5.5675    0.7292    2.4790 H   0  0  0  0  0  0  0  0  0  0  0  0
   -6.0216   -0.6213    1.4378 H   0  0  0  0  0  0  0  0  0  0  0  0
   -3.9345   -3.8760   -3.3993 H   0  0  0  0  0  0  0  0  0  0  0  0
   -2.4971   -3.2630   -4.2325 H   0  0  0  0  0  0  0  0  0  0  0  0
   -4.1060   -2.9175   -4.8807 H   0  0  0  0  0  0  0  0  0  0  0  0
    1.4120   -4.5903    0.8036 H   0  0  0  0  0  0  0  0  0  0  0  0
    2.5622   -4.6946    2.1384 H   0  0  0  0  0  0  0  0  0  0  0  0
    0.8261   -4.8391    2.4567 H   0  0  0  0  0  0  0  0  0  0  0  0
    1.6925   -1.3501    3.6772 H   0  0  0  0  0  0  0  0  0  0  0  0
    2.7295   -2.7686    3.8463 H   0  0  0  0  0  0  0  0  0  0  0  0
    0.9945   -2.8994    4.1771 H   0  0  0  0  0  0  0  0  0  0  0  0
   -7.8423    3.8486    1.0525 H   0  0  0  0  0  0  0  0  0  0  0  0
   -8.1885    2.4374    0.0528 H   0  0  0  0  0  0  0  0  0  0  0  0
   -8.2802    0.2809    1.1039 H   0  0  0  0  0  0  0  0  0  0  0  0
   -7.9170    0.1737    2.8305 H   0  0  0  0  0  0  0  0  0  0  0  0
   -5.3758    3.0140    2.6304 H   0  0  0  0  0  0  0  0  0  0  0  0
   -5.5356    4.4746    1.6526 H   0  0  0  0  0  0  0  0  0  0  0  0
   -4.1747    3.3898    1.3826 H   0  0  0  0  0  0  0  0  0  0  0  0
    2.0300    0.1670   -1.3645 H   0  0  0  0  0  0  0  0  0  0  0  0
    4.1367    0.3112   -2.5243 H   0  0  0  0  0  0  0  0  0  0  0  0
    5.5848   -0.4077   -1.9622 H   0  0  0  0  0  0  0  0  0  0  0  0
    6.3847   -1.8100   -0.6618 H   0  0  0  0  0  0  0  0  0  0  0  0
    6.4162   -0.7971    0.8232 H   0  0  0  0  0  0  0  0  0  0  0  0
    7.2489   -2.8785    1.1137 H   0  0  0  0  0  0  0  0  0  0  0  0
    3.2348    2.4515   -1.4809 H   0  0  0  0  0  0  0  0  0  0  0  0
    7.1581    0.8858   -0.5995 H   0  0  0  0  0  0  0  0  0  0  0  0
    3.9377    4.6596   -0.6352 H   0  0  0  0  0  0  0  0  0  0  0  0
    7.8397    3.0950    0.2521 H   0  0  0  0  0  0  0  0  0  0  0  0
  1 39  1  0  0  0  0
  2 26  1  0  0  0  0
  2 27  1  0  0  0  0
  3 21  2  0  0  0  0
  4 33  1  0  0  0  0
  4 77  1  0  0  0  0
  5 10  1  0  0  0  0
  5 13  1  0  0  0  0
  5 16  1  0  0  0  0
  6 11  1  0  0  0  0
  6 18  1  0  0  0  0
  6 22  1  0  0  0  0
  7 12  1  0  0  0  0
  7 14  1  0  0  0  0
  7 52  1  0  0  0  0
  8 17  1  0  0  0  0
  8 20  1  0  0  0  0
  8 21  1  0  0  0  0
  9 19  1  0  0  0  0
  9 31  2  0  0  0  0
 10 11  1  0  0  0  0
 10 12  1  0  0  0  0
 10 40  1  0  0  0  0
 11 41  1  0  0  0  0
 11 42  1  0  0  0  0
 12 43  1  0  0  0  0
 12 44  1  0  0  0  0
 13 14  1  0  0  0  0
 13 45  1  0  0  0  0
 13 46  1  0  0  0  0
 14 23  1  0  0  0  0
 14 47  1  0  0  0  0
 15 17  1  0  0  0  0
 15 19  1  0  0  0  0
 15 24  1  0  0  0  0
 15 25  1  0  0  0  0
 16 21  1  0  0  0  0
 16 48  1  0  0  0  0
 16 49  1  0  0  0  0
 17 50  1  0  0  0  0
 17 51  1  0  0  0  0
 18 26  1  0  0  0  0
 18 28  1  0  0  0  0
 18 53  1  0  0  0  0
 19 20  2  0  0  0  0
 20 29  1  0  0  0  0
 22 27  1  0  0  0  0
 22 54  1  0  0  0  0
 22 55  1  0  0  0  0
 23 56  1  0  0  0  0
 23 57  1  0  0  0  0
 23 58  1  0  0  0  0
 24 60  1  0  0  0  0
 24 61  1  0  0  0  0
 24 64  1  0  0  0  0
 25 59  1  0  0  0  0
 25 62  1  0  0  0  0
 25 63  1  0  0  0  0
 26 65  1  0  0  0  0
 26 66  1  0  0  0  0
 27 67  1  0  0  0  0
 27 68  1  0  0  0  0
 28 69  1  0  0  0  0
 28 70  1  0  0  0  0
 28 71  1  0  0  0  0
 29 30  2  0  0  0  0
 29 72  1  0  0  0  0
 30 31  1  0  0  0  0
 30 32  1  0  0  0  0
 31 33  1  0  0  0  0
 32 34  1  0  0  0  0
 32 73  1  0  0  0  0
 32 74  1  0  0  0  0
 33 75  1  0  0  0  0
 33 76  1  0  0  0  0
 34 35  2  0  0  0  0
 34 36  1  0  0  0  0
 35 37  1  0  0  0  0
 35 78  1  0  0  0  0
 36 38  2  0  0  0  0
 36 79  1  0  0  0  0
 37 39  2  0  0  0  0
 37 80  1  0  0  0  0
 38 39  1  0  0  0  0
 38 81  1  0  0  0  0
M  END
> <DATABASE_ID>
DB16160

> <DATABASE_NAME>
drugbank

> <ORIGINAL_SOURCE>
PUBCHEM

> <ORIGINAL_SOURCE_URL>
https://pubchem.ncbi.nlm.nih.gov/rest/pug/compound/inchikey/YCXOHEXZVKOGEV-DNRQZRRGSA-N/SDF?record_type=3d

> <SMILES>
C[C@@H]1CN(CC(=O)N2CC(C)(C)C3=C2C=C(CC2=CC=C(F)C=C2)C(CO)=N3)[C@@H](CN2CCOC[C@H]2C)CN1

> <INCHI_IDENTIFIER>
InChI=1S/C30H42FN5O3/c1-20-14-35(25(13-32-20)15-34-9-10-39-18-21(34)2)16-28(38)36-19-30(3,4)29-27(36)12-23(26(17-37)33-29)11-22-5-7-24(31)8-6-22/h5-8,12,20-21,25,32,37H,9-11,13-19H2,1-4H3/t20-,21-,25-/m1/s1

> <INCHI_KEY>
YCXOHEXZVKOGEV-DNRQZRRGSA-N

> <FORMULA>
C30H42FN5O3

> <MOLECULAR_WEIGHT>
539.696

> <EXACT_MASS>
539.327168395

> <JCHEM_ACCEPTOR_COUNT>
7

> <JCHEM_ATOM_COUNT>
81

> <JCHEM_AVERAGE_NEUTRAL_MICROSPECIES_CHARGE>
0.9693497704216671

> <JCHEM_AVERAGE_POLARIZABILITY>
59.53421345445369

> <JCHEM_BIOAVAILABILITY>
1

> <JCHEM_DONOR_COUNT>
2

> <JCHEM_FORMAL_CHARGE>
0

> <JCHEM_GHOSE_FILTER>
0

> <JCHEM_IUPAC>
1-{6-[(4-fluorophenyl)methyl]-5-(hydroxymethyl)-3,3-dimethyl-1H,2H,3H-pyrrolo[3,2-b]pyridin-1-yl}-2-[(2R,5R)-5-methyl-2-{[(3R)-3-methylmorpholin-4-yl]methyl}piperazin-1-yl]ethan-1-one

> <ALOGPS_LOGP>
2.37

> <JCHEM_LOGP>
2.6233117396666668

> <ALOGPS_LOGS>
-3.69

> <JCHEM_MDDR_LIKE_RULE>
1

> <JCHEM_NEUTRAL_CHARGE>
1

> <JCHEM_NUMBER_OF_RINGS>
5

> <JCHEM_PHYSIOLOGICAL_CHARGE>
1

> <JCHEM_PKA>
17.49476751291493

> <JCHEM_PKA_STRONGEST_ACIDIC>
14.18169591620951

> <JCHEM_PKA_STRONGEST_BASIC>
8.373556866481655

> <JCHEM_POLAR_SURFACE_AREA>
81.17

> <JCHEM_REFRACTIVITY>
149.72039999999998

> <JCHEM_ROTATABLE_BOND_COUNT>
7

> <JCHEM_RULE_OF_FIVE>
0

> <ALOGPS_SOLUBILITY>
1.09e-01 g/l

> <JCHEM_TRADITIONAL_IUPAC>
5-({4-[2-(3-methoxyphenyl)-2-oxoethoxy]phenyl}methyl)-1,3-thiazolidine-2,4-dione

> <JCHEM_VEBER_RULE>
0

> <DRUGBANK_ID>
DB16160

> <DRUG_GROUPS>
investigational

> <GENERIC_NAME>
ASTX660

$$$$