137356
  -OEChem-12152013173D

 52 55  0     1  0  0  0  0  0999 V2000
   -0.9769    0.5739    0.6954 O   0  0  0  0  0  0  0  0  0  0  0  0
    1.6092    0.6894    1.7512 O   0  0  0  0  0  0  0  0  0  0  0  0
   -3.8294    0.2549   -1.3451 N   0  0  0  0  0  0  0  0  0  0  0  0
   -3.3482    0.6031    1.1846 C   0  0  0  0  0  0  0  0  0  0  0  0
   -2.2103    1.1758    0.3205 C   0  0  2  0  0  0  0  0  0  0  0  0
   -3.5155   -0.8901    0.8528 C   0  0  0  0  0  0  0  0  0  0  0  0
   -4.6428    1.3162    0.7689 C   0  0  0  0  0  0  0  0  0  0  0  0
   -2.5100    0.9034   -1.1645 C   0  0  0  0  0  0  0  0  0  0  0  0
    2.5931    1.0342   -0.3754 C   0  0  0  0  0  0  0  0  0  0  0  0
   -3.8131   -1.0488   -0.6467 C   0  0  0  0  0  0  0  0  0  0  0  0
   -4.8739    1.1088   -0.7372 C   0  0  0  0  0  0  0  0  0  0  0  0
    1.4204    0.4070    0.3579 C   0  0  2  0  0  0  0  0  0  0  0  0
    2.7141    2.5370   -0.1423 C   0  0  0  0  0  0  0  0  0  0  0  0
    3.9468    0.5206    0.1044 C   0  0  0  0  0  0  0  0  0  0  0  0
    0.1052    1.0838   -0.0710 C   0  0  0  0  0  0  0  0  0  0  0  0
    4.1465    2.8624   -0.5546 C   0  0  0  0  0  0  0  0  0  0  0  0
    4.9373    1.5615   -0.4072 C   0  0  0  0  0  0  0  0  0  0  0  0
    1.3960   -1.1018    0.1168 C   0  0  0  0  0  0  0  0  0  0  0  0
    1.2749   -1.5627   -1.1750 C   0  0  0  0  0  0  0  0  0  0  0  0
    1.4965   -1.9459    1.2001 C   0  0  0  0  0  0  0  0  0  0  0  0
    1.2528   -2.9399   -1.3953 C   0  0  0  0  0  0  0  0  0  0  0  0
    1.4746   -3.3231    0.9798 C   0  0  0  0  0  0  0  0  0  0  0  0
    1.3526   -3.8200   -0.3180 C   0  0  0  0  0  0  0  0  0  0  0  0
   -3.1404    0.7310    2.2521 H   0  0  0  0  0  0  0  0  0  0  0  0
   -2.1425    2.2573    0.4991 H   0  0  0  0  0  0  0  0  0  0  0  0
   -4.3368   -1.3151    1.4423 H   0  0  0  0  0  0  0  0  0  0  0  0
   -2.6083   -1.4460    1.1165 H   0  0  0  0  0  0  0  0  0  0  0  0
   -4.5748    2.3871    0.9936 H   0  0  0  0  0  0  0  0  0  0  0  0
   -5.4918    0.9174    1.3368 H   0  0  0  0  0  0  0  0  0  0  0  0
   -2.4923    1.8461   -1.7258 H   0  0  0  0  0  0  0  0  0  0  0  0
   -1.7816    0.2462   -1.6490 H   0  0  0  0  0  0  0  0  0  0  0  0
    2.5195    0.8701   -1.4595 H   0  0  0  0  0  0  0  0  0  0  0  0
   -4.7768   -1.5546   -0.7855 H   0  0  0  0  0  0  0  0  0  0  0  0
   -3.0674   -1.7087   -1.1077 H   0  0  0  0  0  0  0  0  0  0  0  0
   -4.9011    2.0792   -1.2488 H   0  0  0  0  0  0  0  0  0  0  0  0
   -5.8615    0.6613   -0.9050 H   0  0  0  0  0  0  0  0  0  0  0  0
    2.5830    2.8163    0.9086 H   0  0  0  0  0  0  0  0  0  0  0  0
    2.0014    3.1178   -0.7360 H   0  0  0  0  0  0  0  0  0  0  0  0
    4.1862   -0.4749   -0.2827 H   0  0  0  0  0  0  0  0  0  0  0  0
    4.0094    0.4771    1.1981 H   0  0  0  0  0  0  0  0  0  0  0  0
    0.1475    2.1608    0.1296 H   0  0  0  0  0  0  0  0  0  0  0  0
   -0.0293    0.9574   -1.1474 H   0  0  0  0  0  0  0  0  0  0  0  0
    4.5656    3.6647    0.0614 H   0  0  0  0  0  0  0  0  0  0  0  0
    4.1780    3.1994   -1.5972 H   0  0  0  0  0  0  0  0  0  0  0  0
    5.3383    1.2596   -1.3817 H   0  0  0  0  0  0  0  0  0  0  0  0
    5.7858    1.6752    0.2752 H   0  0  0  0  0  0  0  0  0  0  0  0
    1.2315    1.5605    1.9568 H   0  0  0  0  0  0  0  0  0  0  0  0
    1.1879   -0.8964   -2.0268 H   0  0  0  0  0  0  0  0  0  0  0  0
    1.5902   -1.5963    2.2225 H   0  0  0  0  0  0  0  0  0  0  0  0
    1.1557   -3.3269   -2.4055 H   0  0  0  0  0  0  0  0  0  0  0  0
    1.5516   -4.0091    1.8184 H   0  0  0  0  0  0  0  0  0  0  0  0
    1.3347   -4.8923   -0.4893 H   0  0  0  0  0  0  0  0  0  0  0  0
  1  5  1  0  0  0  0
  1 15  1  0  0  0  0
  2 12  1  0  0  0  0
  2 47  1  0  0  0  0
  3  8  1  0  0  0  0
  3 10  1  0  0  0  0
  3 11  1  0  0  0  0
  4  5  1  0  0  0  0
  4  6  1  0  0  0  0
  4  7  1  0  0  0  0
  4 24  1  0  0  0  0
  5  8  1  0  0  0  0
  5 25  1  0  0  0  0
  6 10  1  0  0  0  0
  6 26  1  0  0  0  0
  6 27  1  0  0  0  0
  7 11  1  0  0  0  0
  7 28  1  0  0  0  0
  7 29  1  0  0  0  0
  8 30  1  0  0  0  0
  8 31  1  0  0  0  0
  9 12  1  0  0  0  0
  9 13  1  0  0  0  0
  9 14  1  0  0  0  0
  9 32  1  0  0  0  0
 10 33  1  0  0  0  0
 10 34  1  0  0  0  0
 11 35  1  0  0  0  0
 11 36  1  0  0  0  0
 12 15  1  0  0  0  0
 12 18  1  0  0  0  0
 13 16  1  0  0  0  0
 13 37  1  0  0  0  0
 13 38  1  0  0  0  0
 14 17  1  0  0  0  0
 14 39  1  0  0  0  0
 14 40  1  0  0  0  0
 15 41  1  0  0  0  0
 15 42  1  0  0  0  0
 16 17  1  0  0  0  0
 16 43  1  0  0  0  0
 16 44  1  0  0  0  0
 17 45  1  0  0  0  0
 17 46  1  0  0  0  0
 18 19  2  0  0  0  0
 18 20  1  0  0  0  0
 19 21  1  0  0  0  0
 19 48  1  0  0  0  0
 20 22  2  0  0  0  0
 20 49  1  0  0  0  0
 21 23  2  0  0  0  0
 21 50  1  0  0  0  0
 22 23  1  0  0  0  0
 22 51  1  0  0  0  0
 23 52  1  0  0  0  0
M  END
> <DATABASE_ID>
DB16287

> <DATABASE_NAME>
drugbank

> <ORIGINAL_SOURCE>
PUBCHEM

> <ORIGINAL_SOURCE_URL>
https://pubchem.ncbi.nlm.nih.gov/rest/pug/compound/inchikey/GTKRIWMDLNOSLI-UHFFFAOYSA-N/SDF?record_type=3d

> <SMILES>
OC(COC1CN2CCC1CC2)(C1CCCC1)C1=CC=CC=C1

> <INCHI_IDENTIFIER>
InChI=1S/C20H29NO2/c22-20(18-8-4-5-9-18,17-6-2-1-3-7-17)15-23-19-14-21-12-10-16(19)11-13-21/h1-3,6-7,16,18-19,22H,4-5,8-15H2

> <INCHI_KEY>
GTKRIWMDLNOSLI-UHFFFAOYSA-N

> <FORMULA>
C20H29NO2

> <MOLECULAR_WEIGHT>
315.457

> <EXACT_MASS>
315.219829178

> <JCHEM_ACCEPTOR_COUNT>
3

> <JCHEM_ATOM_COUNT>
52

> <JCHEM_AVERAGE_NEUTRAL_MICROSPECIES_CHARGE>
0.9603306641853891

> <JCHEM_AVERAGE_POLARIZABILITY>
36.23543013732555

> <JCHEM_BIOAVAILABILITY>
1

> <JCHEM_DONOR_COUNT>
1

> <JCHEM_FORMAL_CHARGE>
0

> <JCHEM_GHOSE_FILTER>
1

> <JCHEM_IUPAC>
2-{1-azabicyclo[2.2.2]octan-3-yloxy}-1-cyclopentyl-1-phenylethan-1-ol

> <ALOGPS_LOGP>
3.36

> <JCHEM_LOGP>
3.1878199296666665

> <ALOGPS_LOGS>
-3.84

> <JCHEM_MDDR_LIKE_RULE>
0

> <JCHEM_NEUTRAL_CHARGE>
1

> <JCHEM_NUMBER_OF_RINGS>
4

> <JCHEM_PHYSIOLOGICAL_CHARGE>
1

> <JCHEM_PKA_STRONGEST_ACIDIC>
13.127185024145845

> <JCHEM_PKA_STRONGEST_BASIC>
8.383974373272123

> <JCHEM_POLAR_SURFACE_AREA>
32.7

> <JCHEM_REFRACTIVITY>
92.59150000000001

> <JCHEM_ROTATABLE_BOND_COUNT>
5

> <JCHEM_RULE_OF_FIVE>
1

> <ALOGPS_SOLUBILITY>
4.60e-02 g/l

> <JCHEM_TRADITIONAL_IUPAC>
5-({4-[2-(3-methoxyphenyl)-2-oxoethoxy]phenyl}methyl)-1,3-thiazolidine-2,4-dione

> <JCHEM_VEBER_RULE>
1

> <DRUGBANK_ID>
DB16287

> <DRUG_GROUPS>
investigational

> <GENERIC_NAME>
Penequinine, Penehyclidine

> <SYNONYMS>
Penehyclidine; Penequine; Penequinine; Penethequinine

$$$$