46203710
  -OEChem-12152013033D

 45 48  0     0  0  0  0  0  0999 V2000
   -2.4860   -0.4414   -1.3046 S   0  0  0  0  0  0  0  0  0  0  0  0
   -3.0116   -1.7649   -1.7316 O   0  0  0  0  0  0  0  0  0  0  0  0
   -2.6766    0.6765   -2.2585 O   0  0  0  0  0  0  0  0  0  0  0  0
    3.5546    0.2792    0.1732 N   0  0  0  0  0  0  0  0  0  0  0  0
   -0.8880   -0.5178   -0.8527 N   0  0  0  0  0  0  0  0  0  0  0  0
    5.9316   -0.8321    1.2975 N   0  0  0  0  0  0  0  0  0  0  0  0
    1.0322   -1.3728   -0.1303 N   0  0  0  0  0  0  0  0  0  0  0  0
    3.9083   -1.1194   -0.0924 C   0  0  0  0  0  0  0  0  0  0  0  0
    4.1372    0.8637    1.3886 C   0  0  0  0  0  0  0  0  0  0  0  0
    2.3296    0.7831   -0.2785 C   0  0  0  0  0  0  0  0  0  0  0  0
    5.4196   -1.3201    0.0181 C   0  0  0  0  0  0  0  0  0  0  0  0
    5.6401    0.5931    1.4450 C   0  0  0  0  0  0  0  0  0  0  0  0
    1.1920   -0.0328   -0.3986 C   0  0  0  0  0  0  0  0  0  0  0  0
    0.0010    0.5264   -0.8535 C   0  0  0  0  0  0  0  0  0  0  0  0
   -0.2252   -1.6299   -0.4133 C   0  0  0  0  0  0  0  0  0  0  0  0
    2.2210    2.1362   -0.6231 C   0  0  0  0  0  0  0  0  0  0  0  0
   -0.1305    1.8709   -1.2023 C   0  0  0  0  0  0  0  0  0  0  0  0
    1.0118    2.6684   -1.0765 C   0  0  0  0  0  0  0  0  0  0  0  0
   -3.5362   -0.0444    0.1035 C   0  0  0  0  0  0  0  0  0  0  0  0
   -0.8823   -2.9475   -0.2842 C   0  0  0  0  0  0  0  0  0  0  0  0
   -3.8188    1.2869    0.4091 C   0  0  0  0  0  0  0  0  0  0  0  0
   -4.0639   -1.0677    0.8906 C   0  0  0  0  0  0  0  0  0  0  0  0
   -4.6291    1.5949    1.5020 C   0  0  0  0  0  0  0  0  0  0  0  0
   -4.8743   -0.7600    1.9834 C   0  0  0  0  0  0  0  0  0  0  0  0
   -5.1568    0.5714    2.2892 C   0  0  0  0  0  0  0  0  0  0  0  0
    3.5988   -1.4152   -1.1024 H   0  0  0  0  0  0  0  0  0  0  0  0
    3.4079   -1.7759    0.6303 H   0  0  0  0  0  0  0  0  0  0  0  0
    3.6422    0.4310    2.2677 H   0  0  0  0  0  0  0  0  0  0  0  0
    3.9837    1.9479    1.4333 H   0  0  0  0  0  0  0  0  0  0  0  0
    5.6491   -2.3871   -0.0761 H   0  0  0  0  0  0  0  0  0  0  0  0
    5.9301   -0.8083   -0.8075 H   0  0  0  0  0  0  0  0  0  0  0  0
    6.1568    1.1632    0.6626 H   0  0  0  0  0  0  0  0  0  0  0  0
    6.0325    0.9404    2.4070 H   0  0  0  0  0  0  0  0  0  0  0  0
    6.9407   -0.9742    1.3321 H   0  0  0  0  0  0  0  0  0  0  0  0
    3.0837    2.7955   -0.5565 H   0  0  0  0  0  0  0  0  0  0  0  0
   -1.0591    2.3117   -1.5403 H   0  0  0  0  0  0  0  0  0  0  0  0
    0.9564    3.7228   -1.3363 H   0  0  0  0  0  0  0  0  0  0  0  0
   -0.1885   -3.6590    0.1782 H   0  0  0  0  0  0  0  0  0  0  0  0
   -1.7613   -2.9073    0.3608 H   0  0  0  0  0  0  0  0  0  0  0  0
   -1.1481   -3.3603   -1.2612 H   0  0  0  0  0  0  0  0  0  0  0  0
   -3.4124    2.0988   -0.1869 H   0  0  0  0  0  0  0  0  0  0  0  0
   -3.8662   -2.1119    0.6722 H   0  0  0  0  0  0  0  0  0  0  0  0
   -4.8478    2.6315    1.7411 H   0  0  0  0  0  0  0  0  0  0  0  0
   -5.2864   -1.5567    2.5957 H   0  0  0  0  0  0  0  0  0  0  0  0
   -5.7876    0.8111    3.1401 H   0  0  0  0  0  0  0  0  0  0  0  0
  1  2  2  0  0  0  0
  1  3  2  0  0  0  0
  1  5  1  0  0  0  0
  1 19  1  0  0  0  0
  4  8  1  0  0  0  0
  4  9  1  0  0  0  0
  4 10  1  0  0  0  0
  5 14  1  0  0  0  0
  5 15  1  0  0  0  0
  6 11  1  0  0  0  0
  6 12  1  0  0  0  0
  6 34  1  0  0  0  0
  7 13  1  0  0  0  0
  7 15  2  0  0  0  0
  8 12  1  0  0  0  0
  8 28  1  0  0  0  0
  8 29  1  0  0  0  0
  9 11  1  0  0  0  0
  9 26  1  0  0  0  0
  9 27  1  0  0  0  0
 10 13  1  0  0  0  0
 10 16  2  0  0  0  0
 11 30  1  0  0  0  0
 11 31  1  0  0  0  0
 12 32  1  0  0  0  0
 12 33  1  0  0  0  0
 13 14  2  0  0  0  0
 14 17  1  0  0  0  0
 15 20  1  0  0  0  0
 16 18  1  0  0  0  0
 16 35  1  0  0  0  0
 17 18  2  0  0  0  0
 17 36  1  0  0  0  0
 18 37  1  0  0  0  0
 19 21  2  0  0  0  0
 19 22  1  0  0  0  0
 20 38  1  0  0  0  0
 20 39  1  0  0  0  0
 20 40  1  0  0  0  0
 21 23  1  0  0  0  0
 21 41  1  0  0  0  0
 22 24  2  0  0  0  0
 22 42  1  0  0  0  0
 23 25  2  0  0  0  0
 23 43  1  0  0  0  0
 24 25  1  0  0  0  0
 24 44  1  0  0  0  0
 25 45  1  0  0  0  0
M  END
> <DATABASE_ID>
DB16044

> <DATABASE_NAME>
drugbank

> <ORIGINAL_SOURCE>
PUBCHEM

> <ORIGINAL_SOURCE_URL>
https://pubchem.ncbi.nlm.nih.gov/rest/pug/compound/inchikey/MAYQIFVKVAUMPD-UHFFFAOYSA-N/SDF?record_type=3d

> <SMILES>
CC1=NC2=C(C=CC=C2N1S(=O)(=O)C1=CC=CC=C1)N1CCNCC1

> <INCHI_IDENTIFIER>
InChI=1S/C18H20N4O2S/c1-14-20-18-16(21-12-10-19-11-13-21)8-5-9-17(18)22(14)25(23,24)15-6-3-2-4-7-15/h2-9,19H,10-13H2,1H3

> <INCHI_KEY>
MAYQIFVKVAUMPD-UHFFFAOYSA-N

> <FORMULA>
C18H20N4O2S

> <MOLECULAR_WEIGHT>
356.44

> <EXACT_MASS>
356.130697074

> <JCHEM_ACCEPTOR_COUNT>
5

> <JCHEM_ATOM_COUNT>
45

> <JCHEM_AVERAGE_NEUTRAL_MICROSPECIES_CHARGE>
0.9846308953492524

> <JCHEM_AVERAGE_POLARIZABILITY>
37.63956425312794

> <JCHEM_BIOAVAILABILITY>
1

> <JCHEM_DONOR_COUNT>
1

> <JCHEM_FORMAL_CHARGE>
0

> <JCHEM_GHOSE_FILTER>
1

> <JCHEM_IUPAC>
1-(benzenesulfonyl)-2-methyl-4-(piperazin-1-yl)-1H-1,3-benzodiazole

> <ALOGPS_LOGP>
1.73

> <JCHEM_LOGP>
1.8840582529999996

> <ALOGPS_LOGS>
-3.00

> <JCHEM_MDDR_LIKE_RULE>
0

> <JCHEM_NEUTRAL_CHARGE>
1

> <JCHEM_NUMBER_OF_RINGS>
4

> <JCHEM_PHYSIOLOGICAL_CHARGE>
1

> <JCHEM_PKA_STRONGEST_BASIC>
8.799549806988374

> <JCHEM_POLAR_SURFACE_AREA>
67.23

> <JCHEM_REFRACTIVITY>
97.6135

> <JCHEM_ROTATABLE_BOND_COUNT>
2

> <JCHEM_RULE_OF_FIVE>
1

> <ALOGPS_SOLUBILITY>
3.53e-01 g/l

> <JCHEM_TRADITIONAL_IUPAC>
5-({4-[2-(3-methoxyphenyl)-2-oxoethoxy]phenyl}methyl)-1,3-thiazolidine-2,4-dione

> <JCHEM_VEBER_RULE>
0

> <DRUGBANK_ID>
DB16044

> <DRUG_GROUPS>
investigational

> <GENERIC_NAME>
PF-05212377

$$$$