46220503
  -OEChem-12152013153D

 44 46  0     1  0  0  0  0  0999 V2000
    2.6290   -0.5915   -1.5991 S   0  0  0  0  0  0  0  0  0  0  0  0
    5.2760   -0.1503    2.7571 F   0  0  0  0  0  0  0  0  0  0  0  0
    3.0881   -1.9711   -1.5157 O   0  0  0  0  0  0  0  0  0  0  0  0
    2.7847    0.1482   -2.8449 O   0  0  0  0  0  0  0  0  0  0  0  0
   -4.8424    2.5073   -0.6674 O   0  0  0  0  0  0  0  0  0  0  0  0
   -4.8982    0.8574    0.9737 N   0  0  0  0  0  0  0  0  0  0  0  0
   -6.8250    1.9788    0.3624 N   0  0  0  0  0  0  0  0  0  0  0  0
   -3.2424   -0.6111   -0.0513 C   0  0  2  0  0  0  0  0  0  0  0  0
   -3.7324   -1.9677    0.4817 C   0  0  0  0  0  0  0  0  0  0  0  0
   -1.7737   -0.6411   -0.4322 C   0  0  0  0  0  0  0  0  0  0  0  0
   -2.7706   -2.5464    1.5124 C   0  0  0  0  0  0  0  0  0  0  0  0
   -1.4015   -2.7925    0.8856 C   0  0  0  0  0  0  0  0  0  0  0  0
   -0.9067   -1.6442    0.0423 C   0  0  0  0  0  0  0  0  0  0  0  0
   -3.5118    0.5112    0.9591 C   0  0  0  0  0  0  0  0  0  0  0  0
   -1.2597    0.3706   -1.2618 C   0  0  0  0  0  0  0  0  0  0  0  0
    0.4471   -1.6188   -0.3298 C   0  0  0  0  0  0  0  0  0  0  0  0
    0.9422   -0.6057   -1.1495 C   0  0  0  0  0  0  0  0  0  0  0  0
    0.0888    0.3885   -1.6161 C   0  0  0  0  0  0  0  0  0  0  0  0
    3.5241    0.3497   -0.3924 C   0  0  0  0  0  0  0  0  0  0  0  0
   -5.4649    1.8363    0.1539 C   0  0  0  0  0  0  0  0  0  0  0  0
    4.0582   -0.2831    0.7302 C   0  0  0  0  0  0  0  0  0  0  0  0
    3.6948    1.7233   -0.5660 C   0  0  0  0  0  0  0  0  0  0  0  0
    4.7628    0.4574    1.6791 C   0  0  0  0  0  0  0  0  0  0  0  0
    4.3998    2.4638    0.3830 C   0  0  0  0  0  0  0  0  0  0  0  0
    4.9336    1.8310    1.5057 C   0  0  0  0  0  0  0  0  0  0  0  0
   -3.8114   -0.4103   -0.9705 H   0  0  0  0  0  0  0  0  0  0  0  0
   -3.8180   -2.6738   -0.3554 H   0  0  0  0  0  0  0  0  0  0  0  0
   -4.7359   -1.8802    0.9134 H   0  0  0  0  0  0  0  0  0  0  0  0
   -3.1659   -3.4911    1.9033 H   0  0  0  0  0  0  0  0  0  0  0  0
   -2.6728   -1.8714    2.3699 H   0  0  0  0  0  0  0  0  0  0  0  0
   -0.6823   -3.0060    1.6854 H   0  0  0  0  0  0  0  0  0  0  0  0
   -1.4548   -3.6819    0.2448 H   0  0  0  0  0  0  0  0  0  0  0  0
   -2.9469    1.4163    0.7072 H   0  0  0  0  0  0  0  0  0  0  0  0
   -3.2240    0.2352    1.9780 H   0  0  0  0  0  0  0  0  0  0  0  0
   -1.9130    1.1555   -1.6359 H   0  0  0  0  0  0  0  0  0  0  0  0
    1.1058   -2.4031    0.0363 H   0  0  0  0  0  0  0  0  0  0  0  0
    0.4514    1.1900   -2.2534 H   0  0  0  0  0  0  0  0  0  0  0  0
   -5.5094    0.3614    1.6152 H   0  0  0  0  0  0  0  0  0  0  0  0
    3.9316   -1.3504    0.8876 H   0  0  0  0  0  0  0  0  0  0  0  0
    3.2807    2.2392   -1.4275 H   0  0  0  0  0  0  0  0  0  0  0  0
    4.5313    3.5336    0.2491 H   0  0  0  0  0  0  0  0  0  0  0  0
   -7.3693    2.6541   -0.1638 H   0  0  0  0  0  0  0  0  0  0  0  0
   -7.3209    1.4153    1.0446 H   0  0  0  0  0  0  0  0  0  0  0  0
    5.4820    2.4074    2.2449 H   0  0  0  0  0  0  0  0  0  0  0  0
  1  3  2  0  0  0  0
  1  4  2  0  0  0  0
  1 17  1  0  0  0  0
  1 19  1  0  0  0  0
  2 23  1  0  0  0  0
  5 20  2  0  0  0  0
  6 14  1  0  0  0  0
  6 20  1  0  0  0  0
  6 38  1  0  0  0  0
  7 20  1  0  0  0  0
  7 42  1  0  0  0  0
  7 43  1  0  0  0  0
  8  9  1  0  0  0  0
  8 10  1  0  0  0  0
  8 14  1  0  0  0  0
  8 26  1  0  0  0  0
  9 11  1  0  0  0  0
  9 27  1  0  0  0  0
  9 28  1  0  0  0  0
 10 13  2  0  0  0  0
 10 15  1  0  0  0  0
 11 12  1  0  0  0  0
 11 29  1  0  0  0  0
 11 30  1  0  0  0  0
 12 13  1  0  0  0  0
 12 31  1  0  0  0  0
 12 32  1  0  0  0  0
 13 16  1  0  0  0  0
 14 33  1  0  0  0  0
 14 34  1  0  0  0  0
 15 18  2  0  0  0  0
 15 35  1  0  0  0  0
 16 17  2  0  0  0  0
 16 36  1  0  0  0  0
 17 18  1  0  0  0  0
 18 37  1  0  0  0  0
 19 21  1  0  0  0  0
 19 22  2  0  0  0  0
 21 23  2  0  0  0  0
 21 39  1  0  0  0  0
 22 24  1  0  0  0  0
 22 40  1  0  0  0  0
 23 25  1  0  0  0  0
 24 25  2  0  0  0  0
 24 41  1  0  0  0  0
 25 44  1  0  0  0  0
M  END
> <DATABASE_ID>
DB16214

> <DATABASE_NAME>
drugbank

> <ORIGINAL_SOURCE>
PUBCHEM

> <ORIGINAL_SOURCE_URL>
https://pubchem.ncbi.nlm.nih.gov/rest/pug/compound/inchikey/MTTHRRVVGMPYQG-ZDUSSCGKSA-N/SDF?record_type=3d

> <SMILES>
NC(=O)NC[C@@H]1CCCC2=CC(=CC=C12)S(=O)(=O)C1=CC(F)=CC=C1

> <INCHI_IDENTIFIER>
InChI=1S/C18H19FN2O3S/c19-14-5-2-6-15(10-14)25(23,24)16-7-8-17-12(9-16)3-1-4-13(17)11-21-18(20)22/h2,5-10,13H,1,3-4,11H2,(H3,20,21,22)/t13-/m0/s1

> <INCHI_KEY>
MTTHRRVVGMPYQG-ZDUSSCGKSA-N

> <FORMULA>
C18H19FN2O3S

> <MOLECULAR_WEIGHT>
362.42

> <EXACT_MASS>
362.110041817

> <JCHEM_ACCEPTOR_COUNT>
3

> <JCHEM_ATOM_COUNT>
44

> <JCHEM_AVERAGE_NEUTRAL_MICROSPECIES_CHARGE>
-5.631086422137309e-08

> <JCHEM_AVERAGE_POLARIZABILITY>
36.689672515654

> <JCHEM_BIOAVAILABILITY>
1

> <JCHEM_DONOR_COUNT>
2

> <JCHEM_FORMAL_CHARGE>
0

> <JCHEM_GHOSE_FILTER>
1

> <JCHEM_IUPAC>
{[(1R)-6-(3-fluorobenzenesulfonyl)-1,2,3,4-tetrahydronaphthalen-1-yl]methyl}urea

> <ALOGPS_LOGP>
2.57

> <JCHEM_LOGP>
2.8297500846666663

> <ALOGPS_LOGS>
-4.69

> <JCHEM_MDDR_LIKE_RULE>
0

> <JCHEM_NEUTRAL_CHARGE>
0

> <JCHEM_NUMBER_OF_RINGS>
3

> <JCHEM_PHYSIOLOGICAL_CHARGE>
0

> <JCHEM_PKA_STRONGEST_ACIDIC>
14.235934414469778

> <JCHEM_PKA_STRONGEST_BASIC>
-1.7509618558194626

> <JCHEM_POLAR_SURFACE_AREA>
89.25999999999999

> <JCHEM_REFRACTIVITY>
93.4671

> <JCHEM_ROTATABLE_BOND_COUNT>
4

> <JCHEM_RULE_OF_FIVE>
1

> <ALOGPS_SOLUBILITY>
7.44e-03 g/l

> <JCHEM_TRADITIONAL_IUPAC>
5-({4-[2-(3-methoxyphenyl)-2-oxoethoxy]phenyl}methyl)-1,3-thiazolidine-2,4-dione

> <JCHEM_VEBER_RULE>
0

> <DRUGBANK_ID>
DB16214

> <DRUG_GROUPS>
investigational

> <GENERIC_NAME>
Landipirdine

$$$$