219023
  -OEChem-12152013133D

 45 49  0     1  0  0  0  0  0999 V2000
   -7.4575   -0.0115   -0.2209 F   0  0  0  0  0  0  0  0  0  0  0  0
   -6.3937    2.5039   -0.3027 F   0  0  0  0  0  0  0  0  0  0  0  0
    3.0984    2.3743   -0.9880 O   0  0  0  0  0  0  0  0  0  0  0  0
    5.0963   -0.8592   -0.9166 O   0  0  0  0  0  0  0  0  0  0  0  0
    2.3098   -3.2506    0.3218 O   0  0  0  0  0  0  0  0  0  0  0  0
    5.9570    0.8933   -2.0490 O   0  0  0  0  0  0  0  0  0  0  0  0
    0.6297   -1.6866    0.1878 N   0  0  0  0  0  0  0  0  0  0  0  0
   -2.0021    0.7515   -0.0377 N   0  0  0  0  0  0  0  0  0  0  0  0
    3.4472    1.5861    0.1633 C   0  0  1  0  0  0  0  0  0  0  0  0
    2.5400    0.3466    0.1709 C   0  0  0  0  0  0  0  0  0  0  0  0
    0.2237   -0.3704    0.1089 C   0  0  0  0  0  0  0  0  0  0  0  0
    2.9629   -0.9417    0.2262 C   0  0  0  0  0  0  0  0  0  0  0  0
    4.9686    1.3493    0.0882 C   0  0  0  0  0  0  0  0  0  0  0  0
    3.1852    2.4469    1.4174 C   0  0  0  0  0  0  0  0  0  0  0  0
   -0.5313   -2.6014    0.1883 C   0  0  0  0  0  0  0  0  0  0  0  0
    1.1040    0.6306    0.0953 C   0  0  0  0  0  0  0  0  0  0  0  0
   -1.2307   -0.3411    0.0476 C   0  0  0  0  0  0  0  0  0  0  0  0
    1.9517   -2.0765    0.2504 C   0  0  0  0  0  0  0  0  0  0  0  0
   -1.6802   -1.6527    0.0947 C   0  0  0  0  0  0  0  0  0  0  0  0
    4.4079   -1.3550    0.2491 C   0  0  0  0  0  0  0  0  0  0  0  0
    5.3861    0.4571   -1.0535 C   0  0  0  0  0  0  0  0  0  0  0  0
    3.4950    1.6702    2.6752 C   0  0  0  0  0  0  0  0  0  0  0  0
   -3.0346   -1.8833    0.0516 C   0  0  0  0  0  0  0  0  0  0  0  0
   -3.8940   -0.7756   -0.0383 C   0  0  0  0  0  0  0  0  0  0  0  0
   -3.3322    0.5321   -0.0807 C   0  0  0  0  0  0  0  0  0  0  0  0
   -5.2866   -0.9455   -0.0863 C   0  0  0  0  0  0  0  0  0  0  0  0
   -4.2027    1.6133   -0.1699 C   0  0  0  0  0  0  0  0  0  0  0  0
   -6.1299    0.1586   -0.1756 C   0  0  0  0  0  0  0  0  0  0  0  0
   -5.5879    1.4373   -0.2175 C   0  0  0  0  0  0  0  0  0  0  0  0
    5.4237    0.9568    0.9996 H   0  0  0  0  0  0  0  0  0  0  0  0
    5.4766    2.3097   -0.0828 H   0  0  0  0  0  0  0  0  0  0  0  0
    2.1499    2.8071    1.4450 H   0  0  0  0  0  0  0  0  0  0  0  0
    3.7953    3.3594    1.3866 H   0  0  0  0  0  0  0  0  0  0  0  0
   -0.5296   -3.1748    1.1201 H   0  0  0  0  0  0  0  0  0  0  0  0
   -0.4587   -3.2664   -0.6773 H   0  0  0  0  0  0  0  0  0  0  0  0
    0.7661    1.6585    0.0202 H   0  0  0  0  0  0  0  0  0  0  0  0
    4.9108   -1.0534    1.1737 H   0  0  0  0  0  0  0  0  0  0  0  0
    4.5215   -2.4422    0.2051 H   0  0  0  0  0  0  0  0  0  0  0  0
    2.9287    0.7385    2.7580 H   0  0  0  0  0  0  0  0  0  0  0  0
    4.5574    1.4476    2.7962 H   0  0  0  0  0  0  0  0  0  0  0  0
    3.2159    2.2786    3.5437 H   0  0  0  0  0  0  0  0  0  0  0  0
   -3.4204   -2.8976    0.0865 H   0  0  0  0  0  0  0  0  0  0  0  0
    3.5803    3.2175   -0.9376 H   0  0  0  0  0  0  0  0  0  0  0  0
   -5.7254   -1.9404   -0.0545 H   0  0  0  0  0  0  0  0  0  0  0  0
   -3.8062    2.6264   -0.2042 H   0  0  0  0  0  0  0  0  0  0  0  0
  1 28  1  0  0  0  0
  2 29  1  0  0  0  0
  3  9  1  0  0  0  0
  3 43  1  0  0  0  0
  4 20  1  0  0  0  0
  4 21  1  0  0  0  0
  5 18  2  0  0  0  0
  6 21  2  0  0  0  0
  7 11  1  0  0  0  0
  7 15  1  0  0  0  0
  7 18  1  0  0  0  0
  8 17  1  0  0  0  0
  8 25  2  0  0  0  0
  9 10  1  0  0  0  0
  9 13  1  0  0  0  0
  9 14  1  0  0  0  0
 10 12  2  0  0  0  0
 10 16  1  0  0  0  0
 11 16  2  0  0  0  0
 11 17  1  0  0  0  0
 12 18  1  0  0  0  0
 12 20  1  0  0  0  0
 13 21  1  0  0  0  0
 13 30  1  0  0  0  0
 13 31  1  0  0  0  0
 14 22  1  0  0  0  0
 14 32  1  0  0  0  0
 14 33  1  0  0  0  0
 15 19  1  0  0  0  0
 15 34  1  0  0  0  0
 15 35  1  0  0  0  0
 16 36  1  0  0  0  0
 17 19  2  0  0  0  0
 19 23  1  0  0  0  0
 20 37  1  0  0  0  0
 20 38  1  0  0  0  0
 22 39  1  0  0  0  0
 22 40  1  0  0  0  0
 22 41  1  0  0  0  0
 23 24  2  0  0  0  0
 23 42  1  0  0  0  0
 24 25  1  0  0  0  0
 24 26  1  0  0  0  0
 25 27  1  0  0  0  0
 26 28  2  0  0  0  0
 26 44  1  0  0  0  0
 27 29  2  0  0  0  0
 27 45  1  0  0  0  0
 28 29  1  0  0  0  0
M  END
> <DATABASE_ID>
DB16138

> <DATABASE_NAME>
drugbank

> <ORIGINAL_SOURCE>
PUBCHEM

> <ORIGINAL_SOURCE_URL>
https://pubchem.ncbi.nlm.nih.gov/rest/pug/compound/inchikey/LFQCJSBXBZRMTN-OAQYLSRUSA-N/SDF?record_type=3d

> <SMILES>
CC[C@@]1(O)CC(=O)OCC2=C1C=C1N(CC3=CC4=CC(F)=C(F)C=C4N=C13)C2=O

> <INCHI_IDENTIFIER>
InChI=1S/C21H16F2N2O4/c1-2-21(28)7-18(26)29-9-12-13(21)5-17-19-11(8-25(17)20(12)27)3-10-4-14(22)15(23)6-16(10)24-19/h3-6,28H,2,7-9H2,1H3/t21-/m1/s1

> <INCHI_KEY>
LFQCJSBXBZRMTN-OAQYLSRUSA-N

> <FORMULA>
C21H16F2N2O4

> <MOLECULAR_WEIGHT>
398.366

> <EXACT_MASS>
398.107813329

> <JCHEM_ACCEPTOR_COUNT>
4

> <JCHEM_ATOM_COUNT>
45

> <JCHEM_AVERAGE_NEUTRAL_MICROSPECIES_CHARGE>
6.564518449632293e-06

> <JCHEM_AVERAGE_POLARIZABILITY>
38.89609658620057

> <JCHEM_BIOAVAILABILITY>
1

> <JCHEM_DONOR_COUNT>
1

> <JCHEM_FORMAL_CHARGE>
0

> <JCHEM_GHOSE_FILTER>
1

> <JCHEM_IUPAC>
(20R)-20-ethyl-6,7-difluoro-20-hydroxy-17-oxa-3,13-diazapentacyclo[11.9.0.0^{2,11}.0^{4,9}.0^{15,21}]docosa-1(22),2,4,6,8,10,15(21)-heptaene-14,18-dione

> <ALOGPS_LOGP>
2.05

> <JCHEM_LOGP>
1.4382814116666671

> <ALOGPS_LOGS>
-3.49

> <JCHEM_MDDR_LIKE_RULE>
0

> <JCHEM_NEUTRAL_CHARGE>
0

> <JCHEM_NUMBER_OF_RINGS>
5

> <JCHEM_PHYSIOLOGICAL_CHARGE>
0

> <JCHEM_PKA_STRONGEST_ACIDIC>
13.808765496178983

> <JCHEM_PKA_STRONGEST_BASIC>
1.827364509246216

> <JCHEM_POLAR_SURFACE_AREA>
79.73

> <JCHEM_REFRACTIVITY>
99.47449999999999

> <JCHEM_ROTATABLE_BOND_COUNT>
1

> <JCHEM_RULE_OF_FIVE>
1

> <ALOGPS_SOLUBILITY>
1.29e-01 g/l

> <JCHEM_TRADITIONAL_IUPAC>
2-methoxy-4-[(1E)-3-[4-(nitrooxy)butoxy]-3-oxoprop-1-en-1-yl]phenyl (4R)-4-[(1R,3aS,3bR,4S,5aS,7R,9aS,9bS,11aR)-4,7-dihydroxy-9a,11a-dimethyl-tetradecahydro-1H-cyclopenta[a]phenanthren-1-yl]pentanoate

> <JCHEM_VEBER_RULE>
0

> <DRUGBANK_ID>
DB16138

> <DRUG_GROUPS>
investigational

> <GENERIC_NAME>
Diflomotecan

$$$$