46851625
  -OEChem-12152013153D

 47 50  0     0  0  0  0  0  0999 V2000
    3.7963    2.9282    0.9808 F   0  0  0  0  0  0  0  0  0  0  0  0
   -3.6257    3.5078   -0.2648 O   0  0  0  0  0  0  0  0  0  0  0  0
    5.2200    1.3841   -0.7858 O   0  0  0  0  0  0  0  0  0  0  0  0
   -2.1085    4.9778   -1.2060 O   0  0  0  0  0  0  0  0  0  0  0  0
   -2.5527   -1.8845    0.4393 N   0  0  0  0  0  0  0  0  0  0  0  0
   -1.5754    2.7241   -0.9461 N   0  0  0  0  0  0  0  0  0  0  0  0
    2.1100   -2.2293   -0.1262 N   0  0  0  0  0  0  0  0  0  0  0  0
   -0.2115   -2.0427    0.1605 N   0  0  0  0  0  0  0  0  0  0  0  0
    0.7932   -4.1417   -0.4657 N   0  0  0  0  0  0  0  0  0  0  0  0
   -2.8547   -0.5148    0.2727 C   0  0  0  0  0  0  0  0  0  0  0  0
   -2.2681    1.6598   -0.4331 C   0  0  0  0  0  0  0  0  0  0  0  0
   -3.4926    2.1479   -0.0304 C   0  0  0  0  0  0  0  0  0  0  0  0
   -1.9083    0.3379   -0.3004 C   0  0  0  0  0  0  0  0  0  0  0  0
   -1.4148   -2.6525    0.1316 C   0  0  0  0  0  0  0  0  0  0  0  0
   -4.1105   -0.0256    0.6880 C   0  0  0  0  0  0  0  0  0  0  0  0
    2.5382   -0.9189    0.1560 C   0  0  0  0  0  0  0  0  0  0  0  0
   -1.5920   -3.9845   -0.1826 C   0  0  0  0  0  0  0  0  0  0  0  0
   -4.4412    1.3251    0.5371 C   0  0  0  0  0  0  0  0  0  0  0  0
    2.2438    1.1706    1.3325 C   0  0  0  0  0  0  0  0  0  0  0  0
    0.8343   -2.8347   -0.1440 C   0  0  0  0  0  0  0  0  0  0  0  0
    1.8199   -0.1285    1.0533 C   0  0  0  0  0  0  0  0  0  0  0  0
    3.6805   -0.4100   -0.4619 C   0  0  0  0  0  0  0  0  0  0  0  0
    4.1045    0.8891   -0.1828 C   0  0  0  0  0  0  0  0  0  0  0  0
    3.3861    1.6795    0.7144 C   0  0  0  0  0  0  0  0  0  0  0  0
   -0.4408   -4.6870   -0.4755 C   0  0  0  0  0  0  0  0  0  0  0  0
   -2.3894    3.8411   -0.8474 C   0  0  0  0  0  0  0  0  0  0  0  0
   -2.9198   -4.6520   -0.2146 C   0  0  0  0  0  0  0  0  0  0  0  0
    1.4742    2.0132    2.2929 C   0  0  0  0  0  0  0  0  0  0  0  0
    5.9051    0.5206   -1.6919 C   0  0  0  0  0  0  0  0  0  0  0  0
   -0.9419    0.0229   -0.6660 H   0  0  0  0  0  0  0  0  0  0  0  0
   -3.2923   -2.4045    0.9020 H   0  0  0  0  0  0  0  0  0  0  0  0
   -4.8404   -0.6984    1.1329 H   0  0  0  0  0  0  0  0  0  0  0  0
   -5.4057    1.7026    0.8557 H   0  0  0  0  0  0  0  0  0  0  0  0
   -0.6375    2.6888   -1.3256 H   0  0  0  0  0  0  0  0  0  0  0  0
    0.9552   -0.5121    1.5853 H   0  0  0  0  0  0  0  0  0  0  0  0
    2.8338   -2.8399   -0.4931 H   0  0  0  0  0  0  0  0  0  0  0  0
    4.1997   -1.0677   -1.1517 H   0  0  0  0  0  0  0  0  0  0  0  0
   -0.4664   -5.7406   -0.7351 H   0  0  0  0  0  0  0  0  0  0  0  0
   -3.3428   -4.7147    0.7933 H   0  0  0  0  0  0  0  0  0  0  0  0
   -3.6133   -4.1099   -0.8662 H   0  0  0  0  0  0  0  0  0  0  0  0
   -2.8474   -5.6734   -0.6047 H   0  0  0  0  0  0  0  0  0  0  0  0
    1.9713    2.0219    3.2679 H   0  0  0  0  0  0  0  0  0  0  0  0
    1.3913    3.0421    1.9267 H   0  0  0  0  0  0  0  0  0  0  0  0
    0.4534    1.6397    2.4285 H   0  0  0  0  0  0  0  0  0  0  0  0
    6.2996   -0.3657   -1.1834 H   0  0  0  0  0  0  0  0  0  0  0  0
    5.2798    0.2628   -2.5534 H   0  0  0  0  0  0  0  0  0  0  0  0
    6.7662    1.0760   -2.0780 H   0  0  0  0  0  0  0  0  0  0  0  0
  1 24  1  0  0  0  0
  2 12  1  0  0  0  0
  2 26  1  0  0  0  0
  3 23  1  0  0  0  0
  3 29  1  0  0  0  0
  4 26  2  0  0  0  0
  5 10  1  0  0  0  0
  5 14  1  0  0  0  0
  5 31  1  0  0  0  0
  6 11  1  0  0  0  0
  6 26  1  0  0  0  0
  6 34  1  0  0  0  0
  7 16  1  0  0  0  0
  7 20  1  0  0  0  0
  7 36  1  0  0  0  0
  8 14  2  0  0  0  0
  8 20  1  0  0  0  0
  9 20  2  0  0  0  0
  9 25  1  0  0  0  0
 10 13  2  0  0  0  0
 10 15  1  0  0  0  0
 11 12  2  0  0  0  0
 11 13  1  0  0  0  0
 12 18  1  0  0  0  0
 13 30  1  0  0  0  0
 14 17  1  0  0  0  0
 15 18  2  0  0  0  0
 15 32  1  0  0  0  0
 16 21  1  0  0  0  0
 16 22  2  0  0  0  0
 17 25  2  0  0  0  0
 17 27  1  0  0  0  0
 18 33  1  0  0  0  0
 19 21  2  0  0  0  0
 19 24  1  0  0  0  0
 19 28  1  0  0  0  0
 21 35  1  0  0  0  0
 22 23  1  0  0  0  0
 22 37  1  0  0  0  0
 23 24  2  0  0  0  0
 25 38  1  0  0  0  0
 27 39  1  0  0  0  0
 27 40  1  0  0  0  0
 27 41  1  0  0  0  0
 28 42  1  0  0  0  0
 28 43  1  0  0  0  0
 28 44  1  0  0  0  0
 29 45  1  0  0  0  0
 29 46  1  0  0  0  0
 29 47  1  0  0  0  0
M  END
> <DATABASE_ID>
DB16191

> <DATABASE_NAME>
drugbank

> <ORIGINAL_SOURCE>
PUBCHEM

> <ORIGINAL_SOURCE_URL>
https://pubchem.ncbi.nlm.nih.gov/rest/pug/compound/inchikey/OYFMQDVLFYKOPZ-UHFFFAOYSA-N/SDF?record_type=3d

> <SMILES>
COC1=C(F)C(C)=CC(NC2=NC=C(C)C(NC3=CC=C4OC(=O)NC4=C3)=N2)=C1

> <INCHI_IDENTIFIER>
InChI=1S/C20H18FN5O3/c1-10-6-13(8-16(28-3)17(10)21)24-19-22-9-11(2)18(26-19)23-12-4-5-15-14(7-12)25-20(27)29-15/h4-9H,1-3H3,(H,25,27)(H2,22,23,24,26)

> <INCHI_KEY>
OYFMQDVLFYKOPZ-UHFFFAOYSA-N

> <FORMULA>
C20H18FN5O3

> <MOLECULAR_WEIGHT>
395.394

> <EXACT_MASS>
395.139367623

> <JCHEM_ACCEPTOR_COUNT>
7

> <JCHEM_ATOM_COUNT>
47

> <JCHEM_AVERAGE_NEUTRAL_MICROSPECIES_CHARGE>
0.025734972941334824

> <JCHEM_AVERAGE_POLARIZABILITY>
40.38437875516641

> <JCHEM_BIOAVAILABILITY>
1

> <JCHEM_DONOR_COUNT>
3

> <JCHEM_FORMAL_CHARGE>
0

> <JCHEM_GHOSE_FILTER>
1

> <JCHEM_IUPAC>
5-({2-[(4-fluoro-3-methoxy-5-methylphenyl)amino]-5-methylpyrimidin-4-yl}amino)-2,3-dihydro-1,3-benzoxazol-2-one

> <ALOGPS_LOGP>
4.17

> <JCHEM_LOGP>
4.573084810666667

> <ALOGPS_LOGS>
-4.28

> <JCHEM_MDDR_LIKE_RULE>
0

> <JCHEM_NEUTRAL_CHARGE>
0

> <JCHEM_NUMBER_OF_RINGS>
4

> <JCHEM_PHYSIOLOGICAL_CHARGE>
0

> <JCHEM_PKA>
13.843749618004647

> <JCHEM_PKA_STRONGEST_ACIDIC>
9.445433356062262

> <JCHEM_PKA_STRONGEST_BASIC>
4.481228261863805

> <JCHEM_POLAR_SURFACE_AREA>
97.39999999999999

> <JCHEM_REFRACTIVITY>
106.9224

> <JCHEM_ROTATABLE_BOND_COUNT>
5

> <JCHEM_RULE_OF_FIVE>
1

> <ALOGPS_SOLUBILITY>
2.06e-02 g/l

> <JCHEM_TRADITIONAL_IUPAC>
2-methoxy-4-[(1E)-3-[4-(nitrooxy)butoxy]-3-oxoprop-1-en-1-yl]phenyl (4R)-4-[(1R,3aS,3bR,4S,5aS,7R,9aS,9bS,11aR)-4,7-dihydroxy-9a,11a-dimethyl-tetradecahydro-1H-cyclopenta[a]phenanthren-1-yl]pentanoate

> <JCHEM_VEBER_RULE>
0

> <DRUGBANK_ID>
DB16191

> <DRUG_GROUPS>
investigational

> <GENERIC_NAME>
Ifidancitinib

$$$$