204056
  -OEChem-12152013163D

 75 78  0     1  0  0  0  0  0999 V2000
    5.2597    0.0713   -0.9339 S   0  0  0  0  0  0  0  0  0  0  0  0
    0.4716    4.3961   -2.0153 F   0  0  0  0  0  0  0  0  0  0  0  0
    1.4057    4.6346   -0.0654 F   0  0  0  0  0  0  0  0  0  0  0  0
    0.2166    6.2591   -0.9018 F   0  0  0  0  0  0  0  0  0  0  0  0
   -0.7574   -4.4903   -1.8159 O   0  0  0  0  0  0  0  0  0  0  0  0
   -5.4594    2.7971    1.5428 O   0  0  0  0  0  0  0  0  0  0  0  0
    3.6962   -2.5281   -0.2701 O   0  0  0  0  0  0  0  0  0  0  0  0
    6.1154   -0.9336   -1.5346 O   0  0  0  0  0  0  0  0  0  0  0  0
    5.4306    1.4744   -1.2584 O   0  0  0  0  0  0  0  0  0  0  0  0
   -4.1891   -3.3953    1.1229 N   0  0  0  0  0  0  0  0  0  0  0  0
   -3.5488    2.8030    0.2274 N   0  0  0  0  0  0  0  0  0  0  0  0
    3.6196   -0.3678   -1.1729 N   0  0  0  0  0  0  0  0  0  0  0  0
   -3.8129   -1.4226    0.1514 C   0  0  0  0  0  0  0  0  0  0  0  0
   -3.2765   -2.4545   -0.6685 C   0  0  0  0  0  0  0  0  0  0  0  0
   -4.3795   -2.0397    1.2687 C   0  0  0  0  0  0  0  0  0  0  0  0
   -2.2642    4.6737   -0.7987 C   0  0  1  0  0  0  0  0  0  0  0  0
   -2.5795   -2.2791   -1.9587 C   0  0  0  0  0  0  0  0  0  0  0  0
   -3.5236   -3.6558   -0.0450 C   0  0  0  0  0  0  0  0  0  0  0  0
   -3.4611    4.2279    0.0590 C   0  0  0  0  0  0  0  0  0  0  0  0
   -3.8706   -0.0184    0.0501 C   0  0  0  0  0  0  0  0  0  0  0  0
   -4.4919    0.7147    1.0678 C   0  0  0  0  0  0  0  0  0  0  0  0
   -0.9308    4.3485   -0.0961 C   0  0  0  0  0  0  0  0  0  0  0  0
   -5.0036   -1.3199    2.2937 C   0  0  0  0  0  0  0  0  0  0  0  0
   -1.1031   -2.1238   -1.6564 C   0  0  0  0  0  0  0  0  0  0  0  0
   -5.0490    0.0717    2.1715 C   0  0  0  0  0  0  0  0  0  0  0  0
   -2.3517    4.0802   -2.2073 C   0  0  0  0  0  0  0  0  0  0  0  0
   -4.5566    2.1954    0.9672 C   0  0  0  0  0  0  0  0  0  0  0  0
   -4.6216   -4.4106    2.0589 C   0  0  0  0  0  0  0  0  0  0  0  0
   -0.2657   -3.2381   -1.6007 C   0  0  0  0  0  0  0  0  0  0  0  0
    0.2948    4.9168   -0.7843 C   0  0  0  0  0  0  0  0  0  0  0  0
   -0.5829   -0.8487   -1.4345 C   0  0  0  0  0  0  0  0  0  0  0  0
    1.0918   -3.0770   -1.3232 C   0  0  0  0  0  0  0  0  0  0  0  0
    1.6119   -1.8020   -1.1010 C   0  0  0  0  0  0  0  0  0  0  0  0
    0.7746   -0.6878   -1.1566 C   0  0  0  0  0  0  0  0  0  0  0  0
    3.0267   -1.6339   -0.8091 C   0  0  0  0  0  0  0  0  0  0  0  0
    5.3966   -0.0665    0.8227 C   0  0  0  0  0  0  0  0  0  0  0  0
    4.6762    0.7737    1.6718 C   0  0  0  0  0  0  0  0  0  0  0  0
    0.1690   -5.5720   -1.7398 C   0  0  0  0  0  0  0  0  0  0  0  0
    6.2426   -1.0386    1.3567 C   0  0  0  0  0  0  0  0  0  0  0  0
    4.8021    0.6421    3.0548 C   0  0  0  0  0  0  0  0  0  0  0  0
    3.7614    1.8241    1.1326 C   0  0  0  0  0  0  0  0  0  0  0  0
    6.3682   -1.1703    2.7396 C   0  0  0  0  0  0  0  0  0  0  0  0
    5.6482   -0.3299    3.5887 C   0  0  0  0  0  0  0  0  0  0  0  0
   -2.3362    5.7652   -0.8957 H   0  0  0  0  0  0  0  0  0  0  0  0
   -2.7537   -3.1305   -2.6275 H   0  0  0  0  0  0  0  0  0  0  0  0
   -2.9498   -1.3992   -2.4988 H   0  0  0  0  0  0  0  0  0  0  0  0
   -3.2829   -4.6695   -0.3373 H   0  0  0  0  0  0  0  0  0  0  0  0
   -3.4091    4.6822    1.0555 H   0  0  0  0  0  0  0  0  0  0  0  0
   -4.4003    4.5666   -0.3948 H   0  0  0  0  0  0  0  0  0  0  0  0
   -3.4703    0.4568   -0.8388 H   0  0  0  0  0  0  0  0  0  0  0  0
   -0.9604    4.7446    0.9265 H   0  0  0  0  0  0  0  0  0  0  0  0
   -0.8031    3.2632   -0.0078 H   0  0  0  0  0  0  0  0  0  0  0  0
   -5.4381   -1.8143    3.1561 H   0  0  0  0  0  0  0  0  0  0  0  0
   -5.5272    0.6426    2.9644 H   0  0  0  0  0  0  0  0  0  0  0  0
   -2.1033    3.0140   -2.2162 H   0  0  0  0  0  0  0  0  0  0  0  0
   -1.6700    4.5924   -2.8929 H   0  0  0  0  0  0  0  0  0  0  0  0
   -3.3606    4.1978   -2.6176 H   0  0  0  0  0  0  0  0  0  0  0  0
   -2.7927    2.2414   -0.1478 H   0  0  0  0  0  0  0  0  0  0  0  0
   -4.3351   -5.3982    1.6884 H   0  0  0  0  0  0  0  0  0  0  0  0
   -5.7089   -4.3519    2.1533 H   0  0  0  0  0  0  0  0  0  0  0  0
   -4.1376   -4.2216    3.0205 H   0  0  0  0  0  0  0  0  0  0  0  0
   -1.2168    0.0316   -1.4794 H   0  0  0  0  0  0  0  0  0  0  0  0
    1.7873   -3.9079   -1.2736 H   0  0  0  0  0  0  0  0  0  0  0  0
    1.1277    0.3196   -0.9597 H   0  0  0  0  0  0  0  0  0  0  0  0
    3.0334    0.3589   -1.5998 H   0  0  0  0  0  0  0  0  0  0  0  0
    0.9378   -5.5016   -2.5169 H   0  0  0  0  0  0  0  0  0  0  0  0
    0.5951   -5.6698   -0.7355 H   0  0  0  0  0  0  0  0  0  0  0  0
   -0.3941   -6.4908   -1.9347 H   0  0  0  0  0  0  0  0  0  0  0  0
    6.8158   -1.7082    0.7226 H   0  0  0  0  0  0  0  0  0  0  0  0
    4.2494    1.2879    3.7319 H   0  0  0  0  0  0  0  0  0  0  0  0
    2.9802    1.4088    0.4947 H   0  0  0  0  0  0  0  0  0  0  0  0
    3.2319    2.3334    1.9475 H   0  0  0  0  0  0  0  0  0  0  0  0
    4.3165    2.6044    0.6053 H   0  0  0  0  0  0  0  0  0  0  0  0
    7.0266   -1.9273    3.1558 H   0  0  0  0  0  0  0  0  0  0  0  0
    5.7463   -0.4327    4.6655 H   0  0  0  0  0  0  0  0  0  0  0  0
  1  8  2  0  0  0  0
  1  9  2  0  0  0  0
  1 12  1  0  0  0  0
  1 36  1  0  0  0  0
  2 30  1  0  0  0  0
  3 30  1  0  0  0  0
  4 30  1  0  0  0  0
  5 29  1  0  0  0  0
  5 38  1  0  0  0  0
  6 27  2  0  0  0  0
  7 35  2  0  0  0  0
 10 15  1  0  0  0  0
 10 18  1  0  0  0  0
 10 28  1  0  0  0  0
 11 19  1  0  0  0  0
 11 27  1  0  0  0  0
 11 58  1  0  0  0  0
 12 35  1  0  0  0  0
 12 65  1  0  0  0  0
 13 14  1  0  0  0  0
 13 15  2  0  0  0  0
 13 20  1  0  0  0  0
 14 17  1  0  0  0  0
 14 18  2  0  0  0  0
 15 23  1  0  0  0  0
 16 19  1  0  0  0  0
 16 22  1  0  0  0  0
 16 26  1  0  0  0  0
 16 44  1  0  0  0  0
 17 24  1  0  0  0  0
 17 45  1  0  0  0  0
 17 46  1  0  0  0  0
 18 47  1  0  0  0  0
 19 48  1  0  0  0  0
 19 49  1  0  0  0  0
 20 21  2  0  0  0  0
 20 50  1  0  0  0  0
 21 25  1  0  0  0  0
 21 27  1  0  0  0  0
 22 30  1  0  0  0  0
 22 51  1  0  0  0  0
 22 52  1  0  0  0  0
 23 25  2  0  0  0  0
 23 53  1  0  0  0  0
 24 29  2  0  0  0  0
 24 31  1  0  0  0  0
 25 54  1  0  0  0  0
 26 55  1  0  0  0  0
 26 56  1  0  0  0  0
 26 57  1  0  0  0  0
 28 59  1  0  0  0  0
 28 60  1  0  0  0  0
 28 61  1  0  0  0  0
 29 32  1  0  0  0  0
 31 34  2  0  0  0  0
 31 62  1  0  0  0  0
 32 33  2  0  0  0  0
 32 63  1  0  0  0  0
 33 34  1  0  0  0  0
 33 35  1  0  0  0  0
 34 64  1  0  0  0  0
 36 37  1  0  0  0  0
 36 39  2  0  0  0  0
 37 40  2  0  0  0  0
 37 41  1  0  0  0  0
 38 66  1  0  0  0  0
 38 67  1  0  0  0  0
 38 68  1  0  0  0  0
 39 42  1  0  0  0  0
 39 69  1  0  0  0  0
 40 43  1  0  0  0  0
 40 70  1  0  0  0  0
 41 71  1  0  0  0  0
 41 72  1  0  0  0  0
 41 73  1  0  0  0  0
 42 43  2  0  0  0  0
 42 74  1  0  0  0  0
 43 75  1  0  0  0  0
M  END
> <DATABASE_ID>
DB16227

> <DATABASE_NAME>
drugbank

> <ORIGINAL_SOURCE>
PUBCHEM

> <ORIGINAL_SOURCE_URL>
https://pubchem.ncbi.nlm.nih.gov/rest/pug/compound/inchikey/ULMFXAMQUGLVGA-LJQANCHMSA-N/SDF?record_type=3d

> <SMILES>
COC1=CC(=CC=C1CC1=CN(C)C2=C1C=C(C=C2)C(=O)NC[C@H](C)CC(F)(F)F)C(=O)NS(=O)(=O)C1=CC=CC=C1C

> <INCHI_IDENTIFIER>
InChI=1S/C31H32F3N3O5S/c1-19(16-31(32,33)34)17-35-29(38)22-11-12-26-25(14-22)24(18-37(26)3)13-21-9-10-23(15-27(21)42-4)30(39)36-43(40,41)28-8-6-5-7-20(28)2/h5-12,14-15,18-19H,13,16-17H2,1-4H3,(H,35,38)(H,36,39)/t19-/m1/s1

> <INCHI_KEY>
ULMFXAMQUGLVGA-LJQANCHMSA-N

> <FORMULA>
C31H32F3N3O5S

> <MOLECULAR_WEIGHT>
615.67

> <EXACT_MASS>
615.201476805

> <JCHEM_ACCEPTOR_COUNT>
5

> <JCHEM_ATOM_COUNT>
75

> <JCHEM_AVERAGE_NEUTRAL_MICROSPECIES_CHARGE>
-0.9980748710814914

> <JCHEM_AVERAGE_POLARIZABILITY>
62.23015800011263

> <JCHEM_BIOAVAILABILITY>
0

> <JCHEM_DONOR_COUNT>
2

> <JCHEM_FORMAL_CHARGE>
0

> <JCHEM_GHOSE_FILTER>
0

> <JCHEM_IUPAC>
3-({2-methoxy-4-[(2-methylbenzenesulfonyl)carbamoyl]phenyl}methyl)-1-methyl-N-[(2R)-4,4,4-trifluoro-2-methylbutyl]-1H-indole-5-carboxamide

> <ALOGPS_LOGP>
4.48

> <JCHEM_LOGP>
6.145391288333334

> <ALOGPS_LOGS>
-5.88

> <JCHEM_MDDR_LIKE_RULE>
1

> <JCHEM_NEUTRAL_CHARGE>
-1

> <JCHEM_NUMBER_OF_RINGS>
4

> <JCHEM_PHYSIOLOGICAL_CHARGE>
-1

> <JCHEM_PKA>
14.969321365184774

> <JCHEM_PKA_STRONGEST_ACIDIC>
4.285299107072898

> <JCHEM_PKA_STRONGEST_BASIC>
-0.7404427922743766

> <JCHEM_POLAR_SURFACE_AREA>
106.5

> <JCHEM_REFRACTIVITY>
158.78069999999997

> <JCHEM_ROTATABLE_BOND_COUNT>
10

> <JCHEM_RULE_OF_FIVE>
0

> <ALOGPS_SOLUBILITY>
8.14e-04 g/l

> <JCHEM_TRADITIONAL_IUPAC>
2-methoxy-4-[(1E)-3-[4-(nitrooxy)butoxy]-3-oxoprop-1-en-1-yl]phenyl (4R)-4-[(1R,3aS,3bR,4S,5aS,7R,9aS,9bS,11aR)-4,7-dihydroxy-9a,11a-dimethyl-tetradecahydro-1H-cyclopenta[a]phenanthren-1-yl]pentanoate

> <JCHEM_VEBER_RULE>
0

> <DRUGBANK_ID>
DB16227

> <DRUG_GROUPS>
investigational

> <GENERIC_NAME>
Masilukast

$$$$