drugbank_target|P04958 Tetanus toxin (DB02265; DB02379; DB03721; DB04265; DB11604)
 OpenBabel12092119533D

  0  0  0     0  0            999 V3000
M  V30 BEGIN CTAB
M  V30 COUNTS 21198 21425 0 0 0
M  V30 BEGIN ATOM
M  V30 1 H -0.908 1.98254 -0.117106 0
M  V30 2 N 0 1.576 0 0
M  V30 3 C 0.933 2.03868 1.02534 0
M  V30 4 C 1.911 0.928543 1.3348 0
M  V30 5 O 3.095 1.19667 1.45644 0
M  V30 6 C 0.222 2.43627 2.35294 0
M  V30 7 C -0.732 3.65373 2.2001 0
M  V30 8 S 0.101 5.13292 1.52614 0
M  V30 9 C 1.257 5.56322 2.86805 0
M  V30 10 H 1.49 2.90518 0.631377 0
M  V30 11 H -0.977 1.52953 0.210867 0
M  V30 12 H 0.981 2.67203 3.11629 0
M  V30 13 H -0.358 1.57376 2.7183 0
M  V30 14 H -1.165 3.90944 3.18086 0
M  V30 15 H -1.563 3.418 1.51819 0
M  V30 16 H 0.729 5.58782 3.83104 0
M  V30 17 H 1.672 6.56266 2.65933 0
M  V30 18 H 2.08 4.83886 2.90714 0
M  V30 19 N 1.4781 -0.272755 1.55222 0
M  V30 20 C 2.8891 -0.84378 1.66545 0
M  V30 21 C 3.2401 -1.87035 0.592641 0
M  V30 22 O 2.3651 -2.14761 -0.265818 0
M  V30 23 C 2.9601 -1.53723 3.01918 0
M  V30 24 C 1.5191 -2.05628 3.15268 0
M  V30 25 C 0.6661 -0.898424 2.62343 0
M  V30 26 H 3.6171 -0.0490998 1.58624 0
M  V30 27 H 3.6381 -2.40421 2.94921 0
M  V30 28 H 3.1501 -0.78983 3.79978 0
M  V30 29 H 1.2511 -2.83329 2.41983 0
M  V30 30 H 1.3641 -2.27142 4.21833 0
M  V30 31 H -0.2719 -1.29186 2.19506 0
M  V30 32 H 0.5111 -0.164528 3.42906 0
M  V30 33 N 2.9562 -1.48159 -0.537278 0
M  V30 34 C 4.2052 -1.5506 -1.28993 0
M  V30 35 C 4.5182 -0.226211 -1.94288 0
M  V30 36 O 5.7242 -0.173395 -2.70946 0
M  V30 37 C 4.1802 -2.73429 -2.34018 0
M  V30 38 C 3.7882 -4.1248 -1.74825 0
M  V30 39 C 5.5322 -2.89638 -3.10339 0
M  V30 40 C 3.4392 -5.22121 -2.77747 0
M  V30 41 H 2.3692 -0.577231 -0.485098 0
M  V30 42 H 5.0202 -1.74478 -0.568317 0
M  V30 43 H 3.4022 -2.47431 -3.09182 0
M  V30 44 H 4.5762 -4.48466 -1.05899 0
M  V30 45 H 2.8912 -4.01327 -1.11022 0
M  V30 46 H 5.4882 -3.68718 -3.87235 0
M  V30 47 H 5.8312 -1.9882 -3.65754 0
M  V30 48 H 6.3642 -3.15502 -2.42288 0
M  V30 49 H 3.1032 -6.1488 -2.27161 0
M  V30 50 H 2.6232 -4.90631 -3.45024 0
M  V30 51 H 4.3022 -5.49924 -3.4087 0
M  V30 52 N 4.4343 0.785586 -1.36625 0
M  V30 53 C 5.6623 1.57448 -1.3423 0
M  V30 54 C 6.0773 1.88649 0.0755653 0
M  V30 55 O 5.4343 1.50414 1.03354 0
M  V30 56 C 5.4853 2.89316 -2.16745 0
M  V30 57 O 5.2063 2.59459 -3.53005 0
M  V30 58 C 6.7073 3.83606 -2.22174 0
M  V30 59 H 3.9273 0.488226 -0.4603 0
M  V30 60 H 6.4713 0.974733 -1.79775 0
M  V30 61 H 4.6263 3.4575 -1.74745 0
M  V30 62 H 5.0403 3.43804 -3.96105 0
M  V30 63 H 6.5143 4.73181 -2.8426 0
M  V30 64 H 6.9913 4.21734 -1.22627 0
M  V30 65 H 7.5973 3.33104 -2.64427 0
M  V30 66 N 5.9124 1.20967 1.01018 0
M  V30 67 C 7.1614 1.01796 1.74128 0
M  V30 68 C 7.4744 -0.449691 1.90361 0
M  V30 69 O 8.6804 -0.76068 2.60626 0
M  V30 70 C 7.1364 1.7727 3.13215 0
M  V30 71 C 6.7444 3.28171 3.04972 0
M  V30 72 C 8.4884 1.66489 3.90489 0
M  V30 73 C 6.3954 3.96156 4.39107 0
M  V30 74 H 5.3254 0.377276 0.652824 0
M  V30 75 H 7.9764 1.44651 1.12909 0
M  V30 76 H 6.3584 1.27205 3.75013 0
M  V30 77 H 7.5324 3.85499 2.52443 0
M  V30 78 H 5.8474 3.39437 2.41188 0
M  V30 79 H 8.4444 2.14617 4.89738 0
M  V30 80 H 8.7874 0.6222 4.11624 0
M  V30 81 H 9.3204 2.14003 3.35332 0
M  V30 82 H 6.0594 5.00604 4.23174 0
M  V30 83 H 5.5794 3.43617 4.91617 0
M  V30 84 H 7.2584 4.00774 5.07926 0
M  V30 85 N 7.3905 -1.2043 1.01659 0
M  V30 86 C 8.3385 -2.25249 0.580143 0
M  V30 87 C 9.3325 -1.65057 -0.381115 0
M  V30 88 O 10.5385 -1.78241 -0.251039 0
M  V30 89 H 6.9135 -0.732695 0.169299 0
M  V30 90 H 8.8845 -2.59389 1.47512 0
M  V30 91 C 7.6335 -3.47638 -0.065788 0
M  V30 92 H 6.9565 -3.94233 0.664874 0
M  V30 93 H 8.3965 -4.2268 -0.334282 0
M  V30 94 C 6.8555 -3.10447 -1.3086 0
M  V30 95 O 7.3855 -3.21981 -2.4019 0
M  V30 96 N 5.5915 -2.64996 -1.1927 0
M  V30 97 H 5.1385 -2.55811 -0.303064 0
M  V30 98 H 5.0965 -2.40482 -2.02523 0
M  V30 99 N 8.8686 -0.792821 -1.36206 0
M  V30 100 C 9.8166 -0.181555 -2.3189 0
M  V30 101 C 10.8106 0.661025 -1.55971 0
M  V30 102 O 12.0166 0.555728 -1.71206 0
M  V30 103 H 8.3916 -0.0399382 -0.750939 0
M  V30 104 H 10.3626 -1.00394 -2.81005 0
M  V30 105 C 9.1116 0.666444 -3.41253 0
M  V30 106 H 8.4346 0.0274489 -3.99791 0
M  V30 107 H 9.8746 1.06076 -4.10517 0
M  V30 108 C 8.3336 1.82614 -2.83114 0
M  V30 109 O 8.8636 2.9229 -2.75553 0
M  V30 110 N 7.0696 1.63333 -2.40356 0
M  V30 111 H 6.6166 0.741217 -2.46706 0
M  V30 112 H 6.5746 2.41087 -2.01803 0
M  V30 113 N 10.3467 1.47872 -0.545128 0
M  V30 114 C 11.5937 2.02493 -0.0165858 0
M  V30 115 C 11.9217 1.42073 1.32836 0
M  V30 116 O 11.1767 0.561459 1.87473 0
M  V30 117 C 11.4757 3.57131 0.13867 0
M  V30 118 C 11.1417 4.36411 -1.13384 0
M  V30 119 C 9.8037 4.57792 -1.48256 0
M  V30 120 C 12.1557 4.82223 -1.97764 0
M  V30 121 C 9.4837 5.22233 -2.67376 0
M  V30 122 C 11.8357 5.47977 -3.16076 0
M  V30 123 C 10.4997 5.67593 -3.51275 0
M  V30 124 H 9.7697 0.740975 -0.00606918 0
M  V30 125 H 12.4167 1.77683 -0.714207 0
M  V30 126 H 10.7217 3.80865 0.919172 0
M  V30 127 H 12.4187 3.97031 0.562782 0
M  V30 128 H 9.0087 4.2004 -0.852297 0
M  V30 129 H 13.1927 4.65493 -1.72132 0
M  V30 130 H 8.4487 5.35616 -2.94831 0
M  V30 131 H 12.6227 5.8244 -3.81755 0
M  V30 132 H 10.2497 6.17298 -4.43675 0
M  V30 133 N 11.8248 0.280983 1.55075 0
M  V30 134 C 13.2408 -0.0729964 1.59433 0
M  V30 135 C 13.4408 -1.5411 1.29817 0
M  V30 136 O 12.4968 -2.29086 1.06187 0
M  V30 137 C 13.8098 0.306921 2.9913 0
M  V30 138 C 15.3578 0.254023 3.11968 0
M  V30 139 C 15.8328 0.608467 4.5394 0
M  V30 140 N 17.3238 0.560241 4.59799 0
M  V30 141 C 18.0588 0.80722 5.6769 0
M  V30 142 N 17.5548 1.11912 6.83701 0
M  V30 143 N 19.3478 0.735623 5.57266 0
M  V30 144 H 11.4988 1.238 1.7259 0
M  V30 145 H 13.7618 0.500547 0.805082 0
M  V30 146 H 13.4678 1.32816 3.25657 0
M  V30 147 H 13.3418 -0.349363 3.75579 0
M  V30 148 H 15.7288 -0.75794 2.852 0
M  V30 149 H 15.8098 0.944649 2.37718 0
M  V30 150 H 15.4538 1.61814 4.81434 0
M  V30 151 H 15.3838 -0.104013 5.26497 0
M  V30 152 H 17.8748 0.329288 3.76463 0
M  V30 153 H 18.1878 1.29409 7.61888 0
M  V30 154 H 16.5328 1.15695 6.85303 0
M  V30 155 H 19.7238 0.491752 4.6551 0
M  V30 156 H 19.8968 0.931482 6.4127 0
M  V30 157 N 13.3029 -1.57598 0.00835791 0
M  V30 158 C 14.5329 -1.94931 -0.684496 0
M  V30 159 C 14.9409 -0.882233 -1.67372 0
M  V30 160 O 14.2839 0.146621 -1.83114 0
M  V30 161 C 14.3459 -3.283 -1.4649 0
M  V30 162 C 14.0099 -4.52548 -0.63634 0
M  V30 163 C 15.0069 -5.19839 0.0795586 0
M  V30 164 C 12.6919 -4.98942 -0.579849 0
M  V30 165 C 14.6859 -6.3183 0.840843 0
M  V30 166 C 12.3729 -6.10819 0.185155 0
M  V30 167 C 13.3709 -6.77121 0.894227 0
M  V30 168 O 13.0589 -7.86853 1.64673 0
M  V30 169 H 12.7909 -0.647249 -0.19505 0
M  V30 170 H 15.3449 -2.05318 0.0581272 0
M  V30 171 H 13.5749 -3.14345 -2.2522 0
M  V30 172 H 15.2639 -3.50685 -2.04389 0
M  V30 173 H 16.0299 -4.84979 0.0451202 0
M  V30 174 H 11.9089 -4.47155 -1.1213 0
M  V30 175 H 15.4529 -6.83513 1.39483 0
M  V30 176 H 11.3499 -6.4512 0.221384 0
M  V30 177 H 12.1179 -8.03412 1.56432 0
M  V30 178 N 14.781 0.264519 -1.55364 0
M  V30 179 C 16.006 1.01726 -1.80739 0
M  V30 180 C 16.431 1.78836 -0.583044 0
M  V30 181 O 15.789 1.75167 0.467566 0
M  V30 182 C 15.837 1.94482 -3.03659 0
M  V30 183 O 14.941 3.03386 -2.7934 0
M  V30 184 H 14.282 0.290395 -0.597132 0
M  V30 185 H 16.812 0.290854 -2.02522 0
M  V30 186 H 16.822 2.36278 -3.32621 0
M  V30 187 H 15.497 1.37772 -3.92418 0
M  V30 188 H 14.074 2.65844 -2.61498 0
M  V30 189 N 16.2591 1.48442 0.529413 0
M  V30 190 C 17.5361 1.46978 1.29062 0
M  V30 191 C 17.9161 0.181769 2.10316 0
M  V30 192 O 17.2641 -0.836481 2.12639 0
M  V30 193 C 17.4741 2.7321 2.17157 0
M  V30 194 C 18.8221 3.21562 2.77278 0
M  V30 195 O 19.8461 2.74131 2.27444 0
M  V30 196 O 18.7051 4.04094 3.67927 0
M  V30 197 H 15.7991 0.587003 0.582543 0
M  V30 198 H 18.3451 1.60676 0.546021 0
M  V30 199 H 17.1171 3.58465 1.56903 0
M  V30 200 H 16.7401 2.62235 2.98862 0
M  V30 201 N 17.7372 -0.778329 1.37039 0
M  V30 202 C 19.1482 -1.35421 1.28523 0
M  V30 203 C 19.4992 -1.96075 -0.0700901 0
M  V30 204 O 18.6242 -1.93352 -0.971801 0
M  V30 205 C 19.2192 -2.46211 2.32735 0
M  V30 206 C 17.7782 -2.99585 2.27873 0
M  V30 207 C 16.9252 -1.72748 2.16918 0
M  V30 208 H 19.8762 -0.5791 1.47757 0
M  V30 209 H 19.8972 -3.2552 1.9702 0
M  V30 210 H 19.4092 -2.02036 3.31365 0
M  V30 211 H 17.5102 -3.48152 1.32745 0
M  V30 212 H 17.6232 -3.55646 3.21018 0
M  V30 213 H 15.9872 -1.95416 1.63354 0
M  V30 214 H 16.7702 -1.30686 3.17452 0
M  V30 215 N 19.2153 -1.21501 -1.00376 0
M  V30 216 C 20.4613 -1.03452 -1.74429 0
M  V30 217 C 20.7943 0.430764 -1.89362 0
M  V30 218 O 20.0693 1.31962 -1.42886 0
M  V30 219 C 20.3523 -1.73375 -3.15615 0
M  V30 220 C 20.2053 -3.27431 -3.08397 0
M  V30 221 C 21.5243 -1.47732 -4.14564 0
M  V30 222 H 18.6433 -0.377226 -0.633143 0
M  V30 223 H 21.2853 -1.49693 -1.17013 0
M  V30 224 H 19.4353 -1.34064 -3.64636 0
M  V30 225 H 21.1073 -3.76119 -2.67081 0
M  V30 226 H 19.3503 -3.5767 -2.45468 0
M  V30 227 H 20.0213 -3.71524 -4.08258 0
M  V30 228 H 22.4973 -1.8186 -3.74254 0
M  V30 229 H 21.3733 -1.99169 -5.11491 0
M  V30 230 H 21.6343 -0.407589 -4.40217 0
M  V30 231 N 20.6934 1.19889 -1.02296 0
M  V30 232 C 21.6414 2.24938 -0.592081 0
M  V30 233 C 22.6354 1.65257 0.372357 0
M  V30 234 O 23.8414 1.78371 0.241583 0
M  V30 235 H 20.2164 0.731787 -0.173182 0
M  V30 236 H 22.1874 2.58603 -1.48885 0
M  V30 237 C 20.9364 3.47668 0.047351 0
M  V30 238 H 20.2594 3.93875 -0.685772 0
M  V30 239 H 21.6994 4.22852 0.311862 0
M  V30 240 C 20.1584 3.11136 1.29212 0
M  V30 241 O 20.6884 3.2325 2.38479 0
M  V30 242 N 18.8944 2.65625 1.17863 0
M  V30 243 H 18.4414 2.55968 0.289493 0
M  V30 244 H 18.3994 2.41553 2.01245 0
M  V30 245 N 22.1715 0.800033 1.35784 0
M  V30 246 C 23.1195 0.193851 2.31791 0
M  V30 247 C 24.1135 -0.652744 1.56319 0
M  V30 248 O 25.3195 -0.546641 1.71499 0
M  V30 249 H 21.6945 0.04392 0.750716 0
M  V30 250 H 23.6655 1.01883 2.80468 0
M  V30 251 C 22.4145 -0.648338 3.41602 0
M  V30 252 H 21.7375 -0.00624665 3.998 0
M  V30 253 H 23.1775 -1.03898 4.11073 0
M  V30 254 C 21.6365 -1.8111 2.84079 0
M  V30 255 O 22.1665 -2.90825 2.77099 0
M  V30 256 N 20.3725 -1.62056 2.41218 0
M  V30 257 H 19.9195 -0.728123 2.47095 0
M  V30 258 H 19.8775 -2.40013 2.03079 0
M  V30 259 N 23.6496 -1.47581 0.552962 0
M  V30 260 C 24.9266 -1.95563 -0.0381515 0
M  V30 261 C 25.3066 -1.49552 -1.48988 0
M  V30 262 O 24.6546 -0.732414 -2.16444 0
M  V30 263 C 24.8646 -3.48848 0.102919 0
M  V30 264 C 26.2126 -4.24577 -0.0446082 0
M  V30 265 O 27.2366 -3.56187 0.0302548 0
M  V30 266 O 26.0956 -5.46116 -0.204923 0
M  V30 267 H 23.1896 -0.824321 -0.0665067 0
M  V30 268 H 25.7356 -1.58001 0.619186 0
M  V30 269 H 24.5076 -3.75129 1.11328 0
M  V30 270 H 24.1306 -3.93165 -0.592224 0
M  V30 271 N 25.1277 -0.289203 -1.54924 0
M  V30 272 C 26.3557 0.326463 -2.04308 0
M  V30 273 C 26.7707 1.48413 -1.16701 0
M  V30 274 O 26.1277 1.81507 -0.190087 0
M  V30 275 C 26.1787 0.794014 -3.52672 0
M  V30 276 O 25.8997 -0.317564 -4.36948 0
M  V30 277 C 27.4007 1.47605 -4.18004 0
M  V30 278 H 24.6207 0.0726272 -0.667058 0
M  V30 279 H 27.1647 -0.425401 -2.00026 0
M  V30 280 H 25.3197 1.49593 -3.57352 0
M  V30 281 H 25.7337 0.0443186 -5.24481 0
M  V30 282 H 27.2077 1.75447 -5.23376 0
M  V30 283 H 27.6847 2.41224 -3.67025 0
M  V30 284 H 28.2907 0.81762 -4.17367 0
M  V30 285 N 26.6058 1.57591 -0.0167156 0
M  V30 286 C 27.8548 1.90461 0.663877 0
M  V30 287 C 28.1678 0.893515 1.73999 0
M  V30 288 O 29.3738 1.11302 2.47637 0
M  V30 289 C 27.8298 3.38155 1.23204 0
M  V30 290 C 27.4378 4.47597 0.189866 0
M  V30 291 C 29.1818 3.80111 1.88986 0
M  V30 292 C 27.0888 5.86379 0.768964 0
M  V30 293 H 26.0188 0.710738 0.251729 0
M  V30 294 H 28.6698 1.83326 -0.0799926 0
M  V30 295 H 27.0518 3.40182 2.02712 0
M  V30 296 H 28.2258 4.57112 -0.581846 0
M  V30 297 H 26.5408 4.14766 -0.368475 0
M  V30 298 H 29.1378 4.81145 2.33247 0
M  V30 299 H 29.4808 3.14511 2.72743 0
M  V30 300 H 30.0138 3.80454 1.16187 0
M  V30 301 H 26.7528 6.55493 -0.0301957 0
M  V30 302 H 26.2728 5.80496 1.50945 0
M  V30 303 H 27.9518 6.34563 1.26251 0
M  V30 304 N 28.0839 -0.256276 1.55502 0
M  V30 305 C 29.3329 -0.983486 1.76098 0
M  V30 306 C 29.6459 -1.86837 0.578896 0
M  V30 307 O 30.8519 -2.63163 0.667648 0
M  V30 308 C 29.3079 -1.79868 3.1173 0
M  V30 309 C 28.9159 -0.961648 4.37557 0
M  V30 310 C 30.6599 -2.51919 3.41668 0
M  V30 311 C 28.5669 -1.77219 5.64223 0
M  V30 312 H 27.4969 -0.370936 0.656447 0
M  V30 313 H 30.1479 -0.238492 1.81944 0
M  V30 314 H 28.5299 -2.58527 2.99966 0
M  V30 315 H 29.7039 -0.218048 4.60284 0
M  V30 316 H 28.0189 -0.354913 4.14885 0
M  V30 317 H 30.6159 -3.12998 4.33516 0
M  V30 318 H 30.9589 -3.23059 2.62562 0
M  V30 319 H 31.4919 -1.80278 3.54605 0
M  V30 320 H 28.2309 -1.10471 6.46124 0
M  V30 321 H 27.7509 -2.49132 5.45613 0
M  V30 322 H 29.4299 -2.34169 6.03137 0
M  V30 323 N 29.562 -1.4872 -0.521534 0
M  V30 324 C 30.495 -1.58451 -1.64221 0
M  V30 325 C 31.473 -0.434513 -1.56687 0
M  V30 326 O 32.657 -0.647275 -1.77038 0
M  V30 327 C 29.784 -1.52037 -3.02659 0
M  V30 328 C 28.83 -2.71981 -3.28525 0
M  V30 329 S 29.663 -4.33869 -3.13876 0
M  V30 330 C 30.819 -4.30067 -4.54745 0
M  V30 331 H 31.052 -2.53256 -1.55719 0
M  V30 332 H 28.585 -1.37358 -0.705143 0
M  V30 333 H 30.543 -1.49023 -3.82495 0
M  V30 334 H 29.204 -0.585541 -3.08594 0
M  V30 335 H 28.397 -2.63656 -4.29536 0
M  V30 336 H 27.999 -2.72302 -2.56374 0
M  V30 337 H 30.291 -4.00521 -5.46433 0
M  V30 338 H 31.234 -5.31287 -4.68123 0
M  V30 339 H 31.642 -3.60419 -4.34463 0
M  V30 340 N 31.0401 0.771051 -1.3745 0
M  V30 341 C 31.9731 1.89166 -1.27638 0
M  V30 342 C 32.9511 1.61842 -0.156782 0
M  V30 343 O 34.1351 1.85569 -0.331111 0
M  V30 344 C 31.2621 3.24405 -0.973621 0
M  V30 345 C 30.3081 3.70638 -2.1102 0
M  V30 346 S 31.1411 3.84228 -3.73 0
M  V30 347 C 32.2971 5.22313 -3.44876 0
M  V30 348 H 32.5301 1.972 -2.22485 0
M  V30 349 H 30.0631 0.932224 -1.23081 0
M  V30 350 H 32.0211 4.02514 -0.805766 0
M  V30 351 H 30.6821 3.14071 -0.0426279 0
M  V30 352 H 29.8751 4.68685 -1.85338 0
M  V30 353 H 29.4771 2.99632 -2.23822 0
M  V30 354 H 31.7691 6.07505 -2.99908 0
M  V30 355 H 32.7121 5.53008 -4.42253 0
M  V30 356 H 33.1201 4.90284 -2.79789 0
M  V30 357 N 32.5182 1.22032 0.997298 0
M  V30 358 C 33.4282 1.00271 2.12092 0
M  V30 359 C 34.4442 -0.047621 1.73935 0
M  V30 360 O 35.6202 0.144136 2.00884 0
M  V30 361 C 32.6852 0.578449 3.4184 0
M  V30 362 C 31.7462 1.70189 3.94125 0
M  V30 363 C 30.9792 1.29778 5.17681 0
M  V30 364 O 31.2022 0.174676 5.70132 0
M  V30 365 O 30.1362 2.11261 5.63607 0
M  V30 366 H 33.9622 1.94398 2.3333 0
M  V30 367 H 31.5472 1.00587 1.10465 0
M  V30 368 H 33.4292 0.351998 4.19927 0
M  V30 369 H 32.1042 -0.334019 3.21972 0
M  V30 370 H 31.0112 1.98282 3.1723 0
M  V30 371 H 32.3442 2.59206 4.18417 0
M  V30 372 N 33.9963 -1.19345 1.0293 0
M  V30 373 C 35.4073 -1.70725 0.755633 0
M  V30 374 C 35.7583 -1.82326 -0.724676 0
M  V30 375 O 34.8833 -1.49471 -1.56484 0
M  V30 376 C 35.4783 -3.10084 1.36503 0
M  V30 377 C 34.0373 -3.58723 1.13994 0
M  V30 378 C 33.1843 -2.35577 1.46283 0
M  V30 379 H 36.1353 -1.0418 1.19718 0
M  V30 380 H 36.1563 -3.72787 0.762217 0
M  V30 381 H 35.6683 -3.01609 2.44241 0
M  V30 382 H 33.7693 -3.72512 0.0807901 0
M  V30 383 H 33.8823 -4.42816 1.82894 0
M  V30 384 H 32.2463 -2.38935 0.88217 0
M  V30 385 H 33.0293 -2.29731 2.55105 0
M  V30 386 N 35.4744 -0.807222 -1.35358 0
M  V30 387 C 36.8854 -0.44876 -1.81226 0
M  V30 388 C 37.2364 1.02929 -1.67033 0
M  V30 389 O 36.3614 1.79991 -1.20133 0
M  V30 390 C 36.9564 -0.807774 -3.2903 0
M  V30 391 C 35.5154 -0.501901 -3.73039 0
M  V30 392 C 34.6624 -1.03304 -2.57339 0
M  V30 393 H 37.6134 -0.998808 -1.23327 0
M  V30 394 H 37.6344 -0.10554 -3.80354 0
M  V30 395 H 37.1464 -1.88357 -3.39328 0
M  V30 396 H 35.2474 0.565128 -3.68289 0
M  V30 397 H 35.3604 -1.03497 -4.67787 0
M  V30 398 H 33.7244 -0.455339 -2.50597 0
M  V30 399 H 34.5074 -2.11496 -2.70415 0
M  V30 400 N 36.9525 1.47285 -0.560781 0
M  V30 401 C 38.1825 2.06555 -0.0429638 0
M  V30 402 C 38.5905 1.41339 1.25777 0
M  V30 403 O 37.9335 0.505182 1.76617 0
M  V30 404 C 37.9955 3.58827 0.219887 0
M  V30 405 C 37.6595 4.46105 -0.991944 0
M  V30 406 C 38.6565 4.84 -1.89843 0
M  V30 407 C 36.3415 4.87567 -1.20762 0
M  V30 408 C 38.3355 5.6216 -3.00425 0
M  V30 409 C 36.0225 5.65491 -2.31653 0
M  V30 410 C 37.0205 6.02699 -3.21315 0
M  V30 411 O 36.7085 6.79052 -4.30283 0
M  V30 412 H 36.4405 0.674537 -0.0444468 0
M  V30 413 H 38.9945 1.90225 -0.774818 0
M  V30 414 H 37.2245 3.73383 1.00609 0
M  V30 415 H 38.9135 4.00103 0.683522 0
M  V30 416 H 39.6795 4.52564 -1.74387 0
M  V30 417 H 35.5585 4.5807 -0.518893 0
M  V30 418 H 39.1025 5.9112 -3.70436 0
M  V30 419 H 34.9995 5.9634 -2.47081 0
M  V30 420 H 35.7675 6.9745 -4.28376 0
M  V30 421 N 38.4306 0.297415 1.54768 0
M  V30 422 C 39.6706 -0.313829 2.01976 0
M  V30 423 C 40.0346 -1.51366 1.1812 0
M  V30 424 O 41.2356 -2.19603 1.5501 0
M  V30 425 C 39.5066 -0.664964 3.51159 0
M  V30 426 S 41.0656 -1.25958 4.20333 0
M  V30 427 H 37.8836 -0.0965014 0.704421 0
M  V30 428 H 40.4856 0.424451 1.90837 0
M  V30 429 H 39.1896 0.21681 4.09827 0
M  V30 430 H 38.7206 -1.43413 3.66328 0
M  V30 431 H 40.7356 -2.54751 4.25813 0
M  V30 432 N 39.9087 -1.5758 0.0250728 0
M  V30 433 C 40.8557 -2.09973 -0.958129 0
M  V30 434 C 41.8257 -1.00085 -1.3256 0
M  V30 435 O 43.0107 -1.27481 -1.41962 0
M  V30 436 C 40.1507 -2.62812 -2.2366 0
M  V30 437 C 39.2637 -3.86693 -1.92594 0
M  V30 438 C 38.3987 -4.27941 -3.14707 0
M  V30 439 C 37.4377 -5.44591 -2.79442 0
M  V30 440 N 36.5747 -5.81014 -3.94167 0
M  V30 441 H 41.4147 -2.937 -0.504428 0
M  V30 442 H 38.9517 -1.45172 -0.237392 0
M  V30 443 H 40.9097 -2.91536 -2.98434 0
M  V30 444 H 39.5397 -1.81922 -2.66654 0
M  V30 445 H 38.5917 -3.64723 -1.0808 0
M  V30 446 H 39.9037 -4.71547 -1.62619 0
M  V30 447 H 39.0577 -4.58079 -3.97804 0
M  V30 448 H 37.7967 -3.41845 -3.4784 0
M  V30 449 H 36.8017 -5.1415 -1.94755 0
M  V30 450 H 38.0267 -6.32382 -2.47528 0
M  V30 451 H 35.9727 -4.97874 -4.2715 0
M  V30 452 H 35.8897 -6.60498 -3.67801 0
M  V30 453 H 37.1577 -6.15756 -4.7798 0
M  V30 454 N 41.3868 0.248026 -1.55636 0
M  V30 455 C 42.6348 0.974295 -1.77065 0
M  V30 456 C 42.9558 1.85897 -0.588849 0
M  V30 457 O 42.2258 1.91868 0.395407 0
M  V30 458 H 40.8058 0.362733 -0.653019 0
M  V30 459 H 43.4678 0.266244 -1.93073 0
M  V30 460 H 42.5638 1.59667 -2.68166 0
M  V30 461 N 42.8649 1.48995 0.513639 0
M  V30 462 C 43.7949 1.67636 1.62544 0
M  V30 463 C 44.7759 0.525087 1.61793 0
M  V30 464 O 45.9609 0.759502 1.78732 0
M  V30 465 C 43.0909 1.73114 3.01079 0
M  V30 466 C 42.0449 2.87905 3.16693 0
M  V30 467 C 41.3709 2.78486 4.56453 0
M  V30 468 C 42.6709 4.29005 2.97913 0
M  V30 469 H 44.3649 2.60716 1.47198 0
M  V30 470 H 41.9109 1.25465 0.706714 0
M  V30 471 H 43.8639 1.84742 3.78746 0
M  V30 472 H 42.5879 0.766241 3.17484 0
M  V30 473 H 41.2469 2.75859 2.41448 0
M  V30 474 H 40.8949 1.7993 4.69717 0
M  V30 475 H 40.5949 3.55523 4.67843 0
M  V30 476 H 42.1189 2.92104 5.36197 0
M  V30 477 H 43.5329 4.41798 3.65359 0
M  V30 478 H 41.9299 5.07166 3.20785 0
M  V30 479 H 42.9999 4.44329 1.94165 0
M  V30 480 N 44.343 -0.763751 1.37857 0
M  V30 481 C 45.62 -1.51244 1.24035 0
M  V30 482 C 46 -2.10472 -0.162649 0
M  V30 483 O 45.348 -1.96206 -1.17112 0
M  V30 484 C 45.558 -2.58694 2.34261 0
M  V30 485 C 46.906 -3.25878 2.72193 0
M  V30 486 O 47.93 -2.68993 2.33497 0
M  V30 487 O 46.789 -4.2874 3.38887 0
M  V30 488 H 43.883 -0.670243 0.484462 0
M  V30 489 H 46.429 -0.800031 1.49658 0
M  V30 490 H 45.201 -2.13105 3.2818 0
M  V30 491 H 44.824 -3.37527 2.10146 0
M  V30 492 N 45.8211 -1.22559 -0.990812 0
M  V30 493 C 47.0701 -1.04553 -1.72486 0
M  V30 494 C 47.3831 0.419349 -1.91052 0
M  V30 495 O 48.5891 0.719121 -2.61803 0
M  V30 496 C 47.0451 -1.82231 -3.10355 0
M  V30 497 C 46.6531 -3.32981 -2.99713 0
M  V30 498 C 48.3971 -1.7268 -3.87791 0
M  V30 499 C 46.3041 -4.03091 -4.32748 0
M  V30 500 H 45.2341 -0.387614 -0.646739 0
M  V30 501 H 47.8851 -1.46429 -1.10593 0
M  V30 502 H 46.2671 -1.33155 -3.72942 0
M  V30 503 H 47.4411 -3.89466 -2.46278 0
M  V30 504 H 45.7561 -3.43231 -2.35758 0
M  V30 505 H 48.3531 -2.22381 -4.86262 0
M  V30 506 H 48.6961 -0.687607 -4.10582 0
M  V30 507 H 49.2291 -2.1931 -3.31885 0
M  V30 508 H 45.9681 -5.07273 -4.15156 0
M  V30 509 H 45.4881 -3.51394 -4.86089 0
M  V30 510 H 47.1671 -4.08804 -5.01486 0
M  V30 511 N 47.2992 1.18797 -1.03562 0
M  V30 512 C 48.5292 1.92319 -0.754773 0
M  V30 513 C 48.9372 1.7612 0.691248 0
M  V30 514 O 48.2802 1.08491 1.48241 0
M  V30 515 C 48.3422 3.44284 -1.03484 0
M  V30 516 C 48.0062 3.84258 -2.47376 0
M  V30 517 C 49.0032 3.88459 -3.45537 0
M  V30 518 C 46.6882 4.15701 -2.81954 0
M  V30 519 C 48.6822 4.23545 -4.76328 0
M  V30 520 C 46.3692 4.50458 -4.12954 0
M  V30 521 C 47.3672 4.54356 -5.09951 0
M  V30 522 O 47.0552 4.88305 -6.38603 0
M  V30 523 H 46.7872 0.617527 -0.275021 0
M  V30 524 H 49.3412 1.51683 -1.38497 0
M  V30 525 H 47.5712 3.85135 -0.347513 0
M  V30 526 H 49.2602 3.99049 -0.7426 0
M  V30 527 H 50.0262 3.6431 -3.20162 0
M  V30 528 H 45.9052 4.11847 -2.0713 0
M  V30 529 H 49.4492 4.26502 -5.52035 0
M  V30 530 H 45.3462 4.74067 -4.38099 0
M  V30 531 H 46.1142 5.06227 -6.43177 0
M  V30 532 N 48.7773 0.814389 1.34928 0
M  V30 533 C 50.0073 0.41054 2.0248 0
M  V30 534 C 50.4153 -0.985625 1.61499 0
M  V30 535 O 49.7583 -1.64781 0.811976 0
M  V30 536 C 49.8203 0.423384 3.56998 0
M  V30 537 C 49.4843 1.77141 4.21272 0
M  V30 538 C 50.4813 2.73093 4.42398 0
M  V30 539 C 48.1663 2.05755 4.58225 0
M  V30 540 C 50.1603 3.95838 4.9959 0
M  V30 541 C 47.8473 3.28762 5.1513 0
M  V30 542 C 48.8453 4.23621 5.35755 0
M  V30 543 O 48.5333 5.44456 5.91458 0
M  V30 544 H 48.2653 0.163997 0.655806 0
M  V30 545 H 50.8193 1.10155 1.73364 0
M  V30 546 H 49.0493 -0.324276 3.85338 0
M  V30 547 H 50.7383 0.0407683 4.0588 0
M  V30 548 H 51.5043 2.5228 4.14222 0
M  V30 549 H 47.3833 1.32727 4.4148 0
M  V30 550 H 50.9273 4.69891 5.15605 0
M  V30 551 H 46.8243 3.49443 5.42734 0
M  V30 552 H 47.5923 5.4586 6.09901 0
M  V30 553 N 50.2554 -1.46986 0.568584 0
M  V30 554 C 51.2024 -2.30153 -0.172707 0
M  V30 555 C 52.1724 -1.39759 -0.897586 0
M  V30 556 O 53.3574 -1.68716 -0.891044 0
M  V30 557 C 50.4974 -3.23952 -1.1895 0
M  V30 558 C 49.6104 -4.29441 -0.469517 0
M  V30 559 C 48.7454 -5.1038 -1.47259 0
M  V30 560 C 47.7844 -6.07632 -0.738225 0
M  V30 561 N 46.9214 -6.8149 -1.68868 0
M  V30 562 H 51.7614 -2.93019 0.542596 0
M  V30 563 H 49.2984 -1.44422 0.279401 0
M  V30 564 H 51.2564 -3.76767 -1.79173 0
M  V30 565 H 49.8864 -2.62926 -1.87269 0
M  V30 566 H 48.9384 -3.79594 0.247467 0
M  V30 567 H 50.2504 -4.98689 0.105241 0
M  V30 568 H 49.4044 -5.67402 -2.14803 0
M  V30 569 H 48.1434 -4.4106 -2.08128 0
M  V30 570 H 47.1484 -5.49778 -0.0489293 0
M  V30 571 H 48.3734 -6.78966 -0.135129 0
M  V30 572 H 46.3194 -6.14891 -2.28573 0
M  V30 573 H 46.2364 -7.46948 -1.16636 0
M  V30 574 H 47.5044 -7.43078 -2.3549 0
M  V30 575 N 51.7335 -0.305618 -1.54608 0
M  V30 576 C 52.6965 0.555591 -2.22364 0
M  V30 577 C 53.6965 1.05768 -1.21119 0
M  V30 578 O 54.8865 0.952972 -1.45822 0
M  V30 579 C 52.0185 1.76974 -2.91364 0
M  V30 580 H 53.2115 -0.0364572 -2.99878 0
M  V30 581 H 50.7645 -0.0565007 -1.56198 0
M  V30 582 H 51.4995 2.40151 -2.17941 0
M  V30 583 H 51.2845 1.41732 -3.65588 0
M  V30 584 H 52.7745 2.38148 -3.43038 0
M  V30 585 N 53.2116 1.57565 -0.0334293 0
M  V30 586 C 54.4586 1.91978 0.644272 0
M  V30 587 C 54.7866 0.910231 1.71887 0
M  V30 588 O 54.0416 -0.0801961 1.95536 0
M  V30 589 C 54.3406 3.33112 1.29504 0
M  V30 590 C 54.0066 4.49537 0.350388 0
M  V30 591 C 52.6686 4.81115 0.0903974 0
M  V30 592 C 55.0206 5.20347 -0.298032 0
M  V30 593 C 52.3486 5.8086 -0.825746 0
M  V30 594 C 54.7006 6.2107 -1.20226 0
M  V30 595 C 53.3646 6.51088 -1.4711 0
M  V30 596 H 52.6346 0.702496 0.235756 0
M  V30 597 H 55.2816 1.91259 -0.0961176 0
M  V30 598 H 53.5866 3.30113 2.11028 0
M  V30 599 H 55.2836 3.57011 1.82603 0
M  V30 600 H 51.8736 4.24883 0.563205 0
M  V30 601 H 56.0576 4.96178 -0.110234 0
M  V30 602 H 51.3136 6.02461 -1.04169 0
M  V30 603 H 55.4876 6.75057 -1.71086 0
M  V30 604 H 53.1146 7.28193 -2.18264 0
M  V30 605 N 54.6897 -0.239769 1.55765 0
M  V30 606 C 55.6367 -1.29696 1.90913 0
M  V30 607 C 56.6067 -1.47478 0.764164 0
M  V30 608 O 57.7917 -1.61345 1.01845 0
M  V30 609 C 54.9317 -2.64598 2.21544 0
M  V30 610 C 54.0447 -2.54765 3.48882 0
M  V30 611 C 53.1797 -3.82069 3.69049 0
M  V30 612 C 52.2187 -3.66883 4.89963 0
M  V30 613 N 51.3557 -4.86094 5.06614 0
M  V30 614 H 56.1957 -0.990224 2.81067 0
M  V30 615 H 53.7327 -0.477684 1.39128 0
M  V30 616 H 55.6907 -3.43132 2.3731 0
M  V30 617 H 54.3207 -2.93405 1.34585 0
M  V30 618 H 53.3727 -1.67763 3.41409 0
M  V30 619 H 54.6847 -2.39457 4.37563 0
M  V30 620 H 53.8387 -4.69046 3.84812 0
M  V30 621 H 52.5777 -4.00282 2.78614 0
M  V30 622 H 51.5827 -2.78289 4.74168 0
M  V30 623 H 52.8077 -3.50157 5.81865 0
M  V30 624 H 50.7537 -5.04655 4.19117 0
M  V30 625 H 50.6707 -4.73443 5.89396 0
M  V30 626 H 51.9387 -5.74549 5.26795 0
M  V30 627 N 56.1678 -1.49265 -0.50573 0
M  V30 628 C 57.4168 -1.57761 -1.25675 0
M  V30 629 C 57.7298 -0.267371 -1.93764 0
M  V30 630 O 58.9358 -0.230827 -2.70517 0
M  V30 631 C 57.3918 -2.78332 -2.28165 0
M  V30 632 C 56.9998 -4.16096 -1.66037 0
M  V30 633 C 58.7438 -2.96155 -3.04125 0
M  V30 634 C 56.6508 -5.27895 -2.6661 0
M  V30 635 H 55.5808 -0.587391 -0.472745 0
M  V30 636 H 58.2318 -1.75644 -0.53118 0
M  V30 637 H 56.6138 -2.53934 -3.03865 0
M  V30 638 H 57.7878 -4.50612 -0.963622 0
M  V30 639 H 56.1028 -4.03591 -1.02484 0
M  V30 640 H 58.6998 -3.76849 -3.79327 0
M  V30 641 H 59.0428 -2.06534 -3.61455 0
M  V30 642 H 59.5758 -3.2057 -2.35541 0
M  V30 643 H 56.3148 -6.1956 -2.14068 0
M  V30 644 H 55.8348 -4.97839 -3.34539 0
M  V30 645 H 57.5138 -5.57031 -3.29129 0
M  V30 646 N 57.6459 0.756429 -1.3826 0
M  V30 647 C 58.8739 1.54565 -1.3754 0
M  V30 648 C 59.2889 1.88767 0.0355331 0
M  V30 649 O 58.6459 1.52572 1.0014 0
M  V30 650 C 58.6969 2.84654 -2.22833 0
M  V30 651 O 58.4179 2.51912 -3.5843 0
M  V30 652 C 59.9189 3.78807 -2.30261 0
M  V30 653 H 57.1389 0.478353 -0.470553 0
M  V30 654 H 59.6829 0.936381 -1.81803 0
M  V30 655 H 57.8379 3.41965 -1.8204 0
M  V30 656 H 58.2519 3.35325 -4.03308 0
M  V30 657 H 59.7259 4.67045 -2.94233 0
M  V30 658 H 60.2029 4.19038 -1.31545 0
M  V30 659 H 60.8089 3.2742 -2.71433 0
M  V30 660 N 59.124 1.23083 0.984299 0
M  V30 661 C 60.401 0.9689 1.69917 0
M  V30 662 C 60.781 -0.513604 2.04757 0
M  V30 663 O 60.129 -1.48383 1.73767 0
M  V30 664 C 60.339 1.87518 2.94343 0
M  V30 665 C 61.687 2.13636 3.6694 0
M  V30 666 O 62.711 1.85036 3.04368 0
M  V30 667 O 61.57 2.62119 4.79537 0
M  V30 668 H 58.664 0.365095 0.742048 0
M  V30 669 H 61.21 1.34107 1.03987 0
M  V30 670 H 59.982 2.87756 2.65164 0
M  V30 671 H 59.605 1.50514 3.6801 0
M  V30 672 N 60.6021 -1.18246 1.0419 0
M  V30 673 C 62.0181 -1.40269 0.761366 0
M  V30 674 C 62.2181 -1.90777 -0.648578 0
M  V30 675 O 61.2741 -2.0929 -1.41258 0
M  V30 676 C 62.5871 -2.40237 1.8085 0
M  V30 677 C 64.1351 -2.53961 1.82955 0
M  V30 678 C 64.6101 -3.57194 2.86664 0
M  V30 679 N 66.1011 -3.64702 2.85563 0
M  V30 680 C 66.8361 -4.44309 3.6246 0
M  V30 681 N 66.3321 -5.27514 4.49111 0
M  V30 682 N 68.1251 -4.39084 3.50944 0
M  V30 683 H 60.2761 -0.837882 1.95175 0
M  V30 684 H 62.5391 -0.430608 0.84456 0
M  V30 685 H 62.2451 -2.10176 2.81991 0
M  V30 686 H 62.1191 -3.39601 1.64168 0
M  V30 687 H 64.5061 -2.83338 0.824855 0
M  V30 688 H 64.5871 -1.54706 2.03715 0
M  V30 689 H 64.2311 -3.28558 3.87314 0
M  V30 690 H 64.1611 -4.5613 2.6316 0
M  V30 691 H 66.6521 -3.05289 2.22727 0
M  V30 692 H 66.9651 -5.85411 5.04493 0
M  V30 693 H 65.3101 -5.2693 4.53178 0
M  V30 694 H 68.5011 -3.7313 2.82651 0
M  V30 695 H 68.6741 -5.00883 4.11121 0
M  V30 696 N 62.0802 -0.821533 -1.34494 0
M  V30 697 C 63.3292 -0.405355 -1.97585 0
M  V30 698 C 63.6422 1.03677 -1.65863 0
M  V30 699 O 64.8482 1.55679 -2.22433 0
M  V30 700 C 63.3042 -0.673861 -3.53535 0
M  V30 701 C 62.9122 -2.12951 -3.94152 0
M  V30 702 C 64.6562 -0.32378 -4.23263 0
M  V30 703 C 62.5632 -2.34298 -5.43009 0
M  V30 704 H 61.4932 -0.147836 -0.739365 0
M  V30 705 H 64.1442 -1.00769 -1.53355 0
M  V30 706 H 62.5262 -0.00137554 -3.96 0
M  V30 707 H 63.7002 -2.84104 -3.62797 0
M  V30 708 H 62.0152 -2.44089 -3.37356 0
M  V30 709 H 64.6122 -0.461126 -5.32708 0
M  V30 710 H 64.9552 0.731586 -4.09821 0
M  V30 711 H 65.4882 -0.950786 -3.8627 0
M  V30 712 H 62.2272 -3.38335 -5.61435 0
M  V30 713 H 61.7472 -1.67687 -5.75883 0
M  V30 714 H 63.4262 -2.16588 -6.09671 0
M  V30 715 N 63.5583 1.46682 -0.576371 0
M  V30 716 C 64.8043 2.03287 -0.0679305 0
M  V30 717 C 65.1593 1.44063 1.27529 0
M  V30 718 O 64.4523 0.593973 1.82161 0
M  V30 719 C 64.6463 3.57345 0.062886 0
M  V30 720 C 64.4753 4.31509 -1.26611 0
M  V30 721 C 63.2453 4.70664 -1.83856 0
M  V30 722 C 65.4433 4.65444 -2.18783 0
M  V30 723 N 63.4253 5.29552 -3.10561 0
M  V30 724 C 64.7963 5.24835 -3.30072 0
M  V30 725 C 66.8513 4.47375 -2.18542 0
M  V30 726 C 65.5543 5.68063 -4.41244 0
M  V30 727 C 67.5803 4.91614 -3.28739 0
M  V30 728 C 66.9423 5.51071 -4.38748 0
M  V30 729 H 63.0413 0.779083 -0.0674836 0
M  V30 730 H 65.6253 1.78918 -0.767877 0
M  V30 731 H 63.7963 3.8144 0.731988 0
M  V30 732 H 65.5283 4.00592 0.575134 0
M  V30 733 H 62.2833 4.53224 -1.37424 0
M  V30 734 H 62.7073 5.63523 -3.75195 0
M  V30 735 H 67.3493 4.00747 -1.34765 0
M  V30 736 H 65.0673 6.13672 -5.25768 0
M  V30 737 H 68.6533 4.79389 -3.29662 0
M  V30 738 H 67.5333 5.84678 -5.22611 0
M  V30 739 N 65.0364 0.313813 1.54444 0
M  V30 740 C 66.2854 -0.292519 1.99568 0
M  V30 741 C 66.5984 -1.54011 1.20582 0
M  V30 742 O 67.8044 -2.22183 1.56035 0
M  V30 743 C 66.2604 -0.571752 3.55329 0
M  V30 744 C 65.8684 0.658229 4.43138 0
M  V30 745 C 67.6124 -1.13857 4.08946 0
M  V30 746 C 65.5194 0.351439 5.90355 0
M  V30 747 H 64.4494 -0.113079 0.745472 0
M  V30 748 H 67.1004 0.424518 1.78522 0
M  V30 749 H 65.4824 -1.34872 3.72325 0
M  V30 750 H 66.6564 1.43403 4.37918 0
M  V30 751 H 64.9714 1.14458 4.0036 0
M  V30 752 H 67.5684 -1.38257 5.16516 0
M  V30 753 H 67.9114 -2.08489 3.6033 0
M  V30 754 H 68.4444 -0.423015 3.95544 0
M  V30 755 H 65.1834 1.26667 6.43145 0
M  V30 756 H 64.7034 -0.386842 5.98551 0
M  V30 757 H 66.3824 -0.0423134 6.46986 0
M  V30 758 N 66.5145 -1.57545 0.0417849 0
M  V30 759 C 67.7605 -1.92601 -0.635021 0
M  V30 760 C 68.0935 -0.919627 -1.71045 0
M  V30 761 O 67.3685 0.0557892 -1.9442 0
M  V30 762 C 67.6515 -3.38085 -1.23979 0
M  V30 763 C 67.5045 -4.49467 -0.173057 0
M  V30 764 C 68.8235 -3.83776 -2.15416 0
M  V30 765 H 65.9425 -0.700397 -0.229374 0
M  V30 766 H 68.5845 -1.89728 0.101633 0
M  V30 767 H 66.7345 -3.40664 -1.86762 0
M  V30 768 H 68.4065 -4.59018 0.458312 0
M  V30 769 H 66.6495 -4.30909 0.499996 0
M  V30 770 H 67.3205 -5.48323 -0.636054 0
M  V30 771 H 69.7965 -3.83013 -1.62605 0
M  V30 772 H 68.6725 -4.8624 -2.54679 0
M  V30 773 H 68.9335 -3.19998 -3.05047 0
M  V30 774 N 67.9926 0.231505 -1.5589 0
M  V30 775 C 69.4036 0.799327 -1.68724 0
M  V30 776 C 69.7546 1.85398 -0.642022 0
M  V30 777 O 68.8796 2.1539 0.208784 0
M  V30 778 C 69.4746 1.45664 -3.05888 0
M  V30 779 C 68.0336 1.97197 -3.20609 0
M  V30 780 C 67.1806 0.828552 -2.64632 0
M  V30 781 H 70.1316 0.00702616 -1.58698 0
M  V30 782 H 70.1526 2.32517 -3.01191 0
M  V30 783 H 69.6646 0.688808 -3.81939 0
M  V30 784 H 67.7656 2.76813 -2.4941 0
M  V30 785 H 67.8786 2.15878 -4.27707 0
M  V30 786 H 66.2426 1.23321 -2.22854 0
M  V30 787 H 67.0256 0.0735544 -3.43221 0
M  V30 788 N 69.4707 1.49531 0.497807 0
M  V30 789 C 70.3807 1.69176 1.62532 0
M  V30 790 C 71.3967 0.5744 1.64246 0
M  V30 791 O 72.5727 0.849497 1.82608 0
M  V30 792 C 69.6377 1.75695 2.98885 0
M  V30 793 C 68.6987 2.9929 3.07773 0
M  V30 794 C 67.9317 3.05488 4.37622 0
M  V30 795 O 68.1547 2.19192 5.26603 0
M  V30 796 O 67.0887 3.9798 4.51548 0
M  V30 797 H 70.9147 2.647 1.48887 0
M  V30 798 H 68.4997 1.3331 0.674441 0
M  V30 799 H 70.3817 1.82317 3.79919 0
M  V30 800 H 69.0567 0.8335 3.12785 0
M  V30 801 H 67.9637 2.98183 2.25915 0
M  V30 802 H 69.2967 3.91125 2.98801 0
M  V30 803 N 70.9488 -0.749086 1.3866 0
M  V30 804 C 72.3648 -1.05276 1.19955 0
M  V30 805 C 72.5648 -2.01435 0.05134 0
M  V30 806 O 71.6208 -2.45232 -0.60147 0
M  V30 807 C 72.9338 -1.62853 2.52783 0
M  V30 808 C 74.4818 -1.75002 2.59506 0
M  V30 809 C 74.9568 -2.35991 3.92521 0
M  V30 810 N 76.4478 -2.43416 3.94085 0
M  V30 811 C 77.1828 -2.91511 4.9377 0
M  V30 812 N 76.6788 -3.39608 6.03853 0
M  V30 813 N 78.4718 -2.90592 4.81157 0
M  V30 814 H 70.6228 -0.111066 2.12109 0
M  V30 815 H 72.8858 -0.111901 0.941373 0
M  V30 816 H 72.5918 -0.99664 3.37283 0
M  V30 817 H 72.4658 -2.61854 2.715 0
M  V30 818 H 74.8528 -2.37317 1.75398 0
M  V30 819 H 74.9338 -0.74693 2.44652 0
M  V30 820 H 74.5778 -1.74308 4.77053 0
M  V30 821 H 74.5078 -3.3695 4.04688 0
M  V30 822 H 76.9988 -2.09405 3.14576 0
M  V30 823 H 77.3118 -3.74775 6.75843 0
M  V30 824 H 75.6568 -3.37653 6.07466 0
M  V30 825 H 78.8478 -2.52332 3.94267 0
M  V30 826 H 79.0208 -3.27762 5.58996 0
M  V30 827 N 72.4269 -1.23603 -0.977757 0
M  V30 828 C 73.6569 -1.09487 -1.75203 0
M  V30 829 C 74.0649 0.356321 -1.85814 0
M  V30 830 O 73.4079 1.25816 -1.33851 0
M  V30 831 C 73.4699 -1.64905 -3.19447 0
M  V30 832 C 73.1339 -3.13688 -3.32338 0
M  V30 833 C 74.1309 -4.10953 -3.18455 0
M  V30 834 C 71.8159 -3.53449 -3.56902 0
M  V30 835 C 73.8099 -5.45962 -3.28944 0
M  V30 836 C 71.4969 -4.88602 -3.6703 0
M  V30 837 C 72.4949 -5.84668 -3.53062 0
M  V30 838 O 72.1829 -7.17365 -3.62826 0
M  V30 839 H 71.9149 -0.38367 -0.556573 0
M  V30 840 H 74.4689 -1.6398 -1.23693 0
M  V30 841 H 72.6989 -1.04835 -3.72218 0
M  V30 842 H 74.3879 -1.46226 -3.78646 0
M  V30 843 H 75.1539 -3.81577 -2.99372 0
M  V30 844 H 71.0329 -2.79188 -3.66844 0
M  V30 845 H 74.5769 -6.20925 -3.17958 0
M  V30 846 H 70.4739 -5.17653 -3.85623 0
M  V30 847 H 71.2419 -7.2515 -3.79605 0
M  V30 848 N 73.905 1.17692 -1.04816 0
M  V30 849 C 74.815 2.25229 -0.65643 0
M  V30 850 C 75.831 1.71018 0.320761 0
M  V30 851 O 77.007 2.00649 0.173805 0
M  V30 852 C 74.072 3.46684 -0.0332629 0
M  V30 853 C 73.133 4.15997 -1.06042 0
M  V30 854 C 72.366 5.31654 -0.466893 0
M  V30 855 O 72.589 5.65777 0.724758 0
M  V30 856 O 71.523 5.89831 -1.1993 0
M  V30 857 H 75.349 2.61016 -1.55255 0
M  V30 858 H 72.934 1.24919 -0.81949 0
M  V30 859 H 74.816 4.20234 0.313256 0
M  V30 860 H 73.491 3.12703 0.836566 0
M  V30 861 H 72.398 3.44482 -1.45886 0
M  V30 862 H 73.731 4.53996 -1.90127 0
M  V30 863 N 75.3831 0.828654 1.34056 0
M  V30 864 C 76.6301 0.419458 1.98108 0
M  V30 865 C 76.9581 -1.01886 1.65679 0
M  V30 866 O 76.2131 -1.72539 0.923512 0
M  V30 867 C 76.5121 0.575226 3.52741 0
M  V30 868 C 76.1781 1.98012 4.05095 0
M  V30 869 C 74.8401 2.36442 4.19104 0
M  V30 870 C 77.1921 2.89824 4.33188 0
M  V30 871 C 74.5201 3.66009 4.58535 0
M  V30 872 C 76.8721 4.1886 4.74066 0
M  V30 873 C 75.5361 4.5726 4.86281 0
M  V30 874 H 74.8061 0.153491 0.724929 0
M  V30 875 H 77.4531 1.05371 1.59904 0
M  V30 876 H 75.7581 -0.142385 3.91541 0
M  V30 877 H 77.4551 0.239057 4.00287 0
M  V30 878 H 74.0451 1.67162 3.94658 0
M  V30 879 H 78.2291 2.61375 4.21897 0
M  V30 880 H 73.4851 3.95579 4.66184 0
M  V30 881 H 77.6591 4.90086 4.94761 0
M  V30 882 H 75.2861 5.57707 5.16592 0
M  V30 883 N 76.8612 -1.46375 0.584142 0
M  V30 884 C 78.1092 -2.01978 0.0701287 0
M  V30 885 C 78.4302 -1.4579 -1.295 0
M  V30 886 O 77.7002 -0.64314 -1.85042 0
M  V30 887 H 76.2802 -0.746648 0.0229345 0
M  V30 888 H 78.9422 -1.79461 0.760245 0
M  V30 889 H 78.0382 -3.121 0.0022064 0
M  V30 890 N 78.3393 -0.321999 -1.54275 0
M  V30 891 C 79.5673 0.283052 -2.04955 0
M  V30 892 C 79.9823 1.45904 -1.19823 0
M  V30 893 O 79.3393 1.81063 -0.228545 0
M  V30 894 C 79.3903 0.719028 -3.54277 0
M  V30 895 O 79.1113 -0.410175 -4.36176 0
M  V30 896 C 80.6123 1.38705 -4.21041 0
M  V30 897 H 77.8323 0.0584616 -0.668448 0
M  V30 898 H 80.3763 -0.467734 -1.99079 0
M  V30 899 H 78.5313 1.41979 -3.60445 0
M  V30 900 H 78.9453 -0.0669416 -5.24457 0
M  V30 901 H 80.4193 1.64306 -5.2698 0
M  V30 902 H 80.8963 2.33385 -3.72059 0
M  V30 903 H 81.5023 0.728906 -4.19007 0
M  V30 904 N 79.8174 1.5752 -0.0501392 0
M  V30 905 C 80.7644 2.1147 0.924603 0
M  V30 906 C 81.7344 1.02182 1.30951 0
M  V30 907 O 82.9194 1.29723 1.39916 0
M  V30 908 C 80.0594 2.66337 2.19451 0
M  V30 909 C 79.1724 3.89708 1.86418 0
M  V30 910 C 78.3074 4.32893 3.07859 0
M  V30 911 C 77.3464 5.48967 2.70742 0
M  V30 912 N 76.4834 5.87211 3.84874 0
M  V30 913 H 81.3234 2.94465 0.457639 0
M  V30 914 H 78.8604 1.45531 0.214266 0
M  V30 915 H 80.8184 2.96247 2.93758 0
M  V30 916 H 79.4484 1.86141 2.63726 0
M  V30 917 H 78.5004 3.66396 1.02264 0
M  V30 918 H 79.8124 4.74074 1.55096 0
M  V30 919 H 78.9664 4.6435 3.90466 0
M  V30 920 H 77.7054 3.47336 3.42358 0
M  V30 921 H 76.7104 5.17183 1.86551 0
M  V30 922 H 77.9354 6.3624 2.37436 0
M  V30 923 H 75.8814 5.04607 4.19175 0
M  V30 924 H 75.7984 6.66266 3.57247 0
M  V30 925 H 77.0664 6.23282 4.68123 0
M  V30 926 N 81.2955 -0.223234 1.56011 0
M  V30 927 C 82.7065 -0.790368 1.69145 0
M  V30 928 C 83.0575 -1.85055 0.651845 0
M  V30 929 O 82.1825 -2.15498 -0.197359 0
M  V30 930 C 82.7775 -1.4404 3.06656 0
M  V30 931 C 81.3365 -1.95494 3.2165 0
M  V30 932 C 80.4835 -0.814506 2.65068 0
M  V30 933 H 83.4345 0.00139011 1.587 0
M  V30 934 H 83.4555 -2.30916 3.0242 0
M  V30 935 H 82.9675 -0.668543 3.82298 0
M  V30 936 H 81.0685 -2.75487 2.50874 0
M  V30 937 H 81.1815 -2.13607 4.28846 0
M  V30 938 H 79.5455 -1.22137 2.23505 0
M  V30 939 H 80.3285 -0.0553515 3.43255 0
M  V30 940 N 82.7736 -1.49793 -0.48987 0
M  V30 941 C 83.6836 -1.70036 -1.61632 0
M  V30 942 C 84.6996 -0.583102 -1.63939 0
M  V30 943 O 85.8756 -0.859169 -1.82154 0
M  V30 944 C 82.9406 -1.77277 -2.97949 0
M  V30 945 C 82.0016 -3.00918 -3.06181 0
M  V30 946 C 81.2346 -3.07804 -4.35996 0
M  V30 947 O 81.4576 -2.21982 -5.25433 0
M  V30 948 O 80.3916 -4.00369 -4.49431 0
M  V30 949 H 84.2176 -2.65486 -1.47482 0
M  V30 950 H 81.8026 -1.33666 -0.667362 0
M  V30 951 H 83.6846 -1.84329 -3.78947 0
M  V30 952 H 82.3596 -0.850076 -3.12339 0
M  V30 953 H 81.2666 -2.99377 -2.2433 0
M  V30 954 H 82.5996 -3.92704 -2.96723 0
M  V30 955 N 84.2517 0.741722 -1.39055 0
M  V30 956 C 85.5287 1.49252 -1.26425 0
M  V30 957 C 85.9087 2.10705 0.129144 0
M  V30 958 O 85.2567 1.98045 1.13976 0
M  V30 959 C 85.4667 2.54934 -2.38347 0
M  V30 960 C 86.8147 3.21506 -2.77343 0
M  V30 961 O 87.8387 2.65245 -2.37747 0
M  V30 962 O 86.6977 4.23294 -3.45665 0
M  V30 963 H 83.7917 0.662451 -0.495064 0
M  V30 964 H 86.3377 0.776121 -1.50912 0
M  V30 965 H 85.1097 2.07857 -3.31529 0
M  V30 966 H 84.7327 3.34141 -2.15489 0
M  V30 967 N 85.7298 1.2412 0.971189 0
M  V30 968 C 86.9768 1.07881 1.71371 0
M  V30 969 C 87.3048 -0.382901 1.90694 0
M  V30 970 O 86.5598 -1.29945 1.46331 0
M  V30 971 C 86.8588 1.75983 3.11071 0
M  V30 972 C 86.5248 3.25909 3.11599 0
M  V30 973 C 85.1868 3.66813 3.11451 0
M  V30 974 C 87.5388 4.21771 3.062 0
M  V30 975 C 84.8668 5.02021 3.03631 0
M  V30 976 C 87.2188 5.56982 2.99923 0
M  V30 977 C 85.8828 5.97237 2.98102 0
M  V30 978 H 85.1528 0.394764 0.62709 0
M  V30 979 H 87.7998 1.54176 1.13587 0
M  V30 980 H 86.1048 1.22072 3.72298 0
M  V30 981 H 87.8018 1.60887 3.6731 0
M  V30 982 H 84.3918 2.93353 3.12477 0
M  V30 983 H 88.5758 3.91172 3.05447 0
M  V30 984 H 83.8318 5.32411 3.0058 0
M  V30 985 H 88.0058 6.30969 2.94704 0
M  V30 986 H 85.6328 7.01967 2.91798 0
M  V30 987 N 87.2079 -1.17134 1.05439 0
M  V30 988 C 88.1559 -2.23289 0.651511 0
M  V30 989 C 89.1499 -1.66186 -0.328411 0
M  V30 990 O 90.3559 -1.78949 -0.194206 0
M  V30 991 H 86.7309 -0.726938 0.192523 0
M  V30 992 H 88.7019 -2.54565 1.55689 0
M  V30 993 C 87.4509 -3.47671 0.0448436 0
M  V30 994 H 86.7739 -3.91918 0.78996 0
M  V30 995 H 88.2139 -4.2353 -0.19964 0
M  V30 996 C 86.6729 -3.14453 -1.20918 0
M  V30 997 O 87.2029 -3.29459 -2.29825 0
M  V30 998 N 85.4089 -2.68657 -1.10779 0
M  V30 999 H 84.9559 -2.56646 -0.221526 0
M  V30 1000 H 84.9139 -2.46804 -1.9477 0
M  V30 1001 N 88.686 -0.835752 -1.33615 0
M  V30 1002 C 90.097 -0.487099 -1.80234 0
M  V30 1003 C 90.448 0.993627 -1.69179 0
M  V30 1004 O 89.573 1.77403 -1.23924 0
M  V30 1005 C 90.168 -0.877385 -3.27242 0
M  V30 1006 C 88.727 -0.580915 -3.7189 0
M  V30 1007 C 87.874 -1.0874 -2.5509 0
M  V30 1008 H 90.825 -1.02474 -1.2118 0
M  V30 1009 H 90.846 -0.186195 -3.80044 0
M  V30 1010 H 90.358 -1.95512 -3.35256 0
M  V30 1011 H 88.459 0.486881 -3.69405 0
M  V30 1012 H 88.572 -1.13396 -4.65487 0
M  V30 1013 H 86.936 -0.508392 -2.49575 0
M  V30 1014 H 87.719 -2.17184 -2.65868 0
M  V30 1015 N 90.1641 1.46063 -0.591896 0
M  V30 1016 C 91.5751 1.85944 -0.167822 0
M  V30 1017 C 91.9261 1.49429 1.27143 0
M  V30 1018 O 91.0511 0.913515 1.96173 0
M  V30 1019 C 91.6461 3.37489 -0.297794 0
M  V30 1020 C 90.2051 3.76332 0.0714732 0
M  V30 1021 C 89.3521 2.7006 -0.629509 0
M  V30 1022 H 92.3031 1.37087 -0.799555 0
M  V30 1023 H 92.3241 3.77532 0.474349 0
M  V30 1024 H 91.8361 3.64034 -1.3454 0
M  V30 1025 H 89.9371 3.55405 1.11886 0
M  V30 1026 H 90.0501 4.78088 -0.311245 0
M  V30 1027 H 88.4141 2.54607 -0.0687867 0
M  V30 1028 H 89.1971 2.99444 -1.67894 0
M  V30 1029 N 91.6422 0.330177 1.54103 0
M  V30 1030 C 92.8672 -0.274893 2.0557 0
M  V30 1031 C 93.2922 -1.44487 1.20437 0
M  V30 1032 O 92.6502 -1.80021 0.214991 0
M  V30 1033 C 92.6982 -0.68079 3.54115 0
M  V30 1034 O 91.8022 -1.7824 3.71893 0
M  V30 1035 H 91.1432 -0.0483849 0.662235 0
M  V30 1036 H 93.6732 0.480508 1.98878 0
M  V30 1037 H 93.6832 -0.961635 3.96505 0
M  V30 1038 H 92.3582 0.174903 4.15532 0
M  V30 1039 H 90.9352 -1.49985 3.41407 0
M  V30 1040 N 93.1203 -1.57491 0.0584922 0
M  V30 1041 C 94.3453 -1.97711 -0.62652 0
M  V30 1042 C 94.7703 -0.936132 -1.63151 0
M  V30 1043 O 94.1283 0.099811 -1.81025 0
M  V30 1044 C 94.1763 -3.36989 -1.28338 0
M  V30 1045 O 93.2803 -3.35433 -2.39913 0
M  V30 1046 H 92.6213 -0.643868 -0.162266 0
M  V30 1047 H 95.1513 -2.04193 0.129064 0
M  V30 1048 H 95.1613 -3.73879 -1.63335 0
M  V30 1049 H 93.8363 -4.12289 -0.546889 0
M  V30 1050 H 92.4133 -3.10298 -2.06809 0
M  V30 1051 N 94.5984 0.214957 -1.56127 0
M  V30 1052 C 95.5284 1.2695 -1.95974 0
M  V30 1053 C 96.5094 1.48539 -0.828868 0
M  V30 1054 O 97.6944 1.60611 -1.09168 0
M  V30 1055 C 94.8244 2.61794 -2.28214 0
M  V30 1056 C 93.7784 2.54851 -3.43853 0
M  V30 1057 C 93.1044 3.93785 -3.61715 0
M  V30 1058 C 94.4044 2.09065 -4.78632 0
M  V30 1059 H 96.0984 0.93846 -2.84312 0
M  V30 1060 H 93.6444 0.449996 -1.36788 0
M  V30 1061 H 95.5974 3.35731 -2.54682 0
M  V30 1062 H 94.3214 2.96599 -1.36736 0
M  V30 1063 H 92.9804 1.8337 -3.17444 0
M  V30 1064 H 92.6284 4.25908 -2.67602 0
M  V30 1065 H 92.3284 3.90019 -4.39498 0
M  V30 1066 H 93.8524 4.69374 -3.90539 0
M  V30 1067 H 95.2664 2.7275 -5.04262 0
M  V30 1068 H 93.6634 2.16346 -5.59745 0
M  V30 1069 H 94.7334 1.04315 -4.73547 0
M  V30 1070 N 96.0765 1.50051 0.48192 0
M  V30 1071 C 97.3255 1.59741 1.23149 0
M  V30 1072 C 97.6385 0.298163 1.93314 0
M  V30 1073 O 98.8445 0.273835 2.70116 0
M  V30 1074 C 97.3005 2.81926 2.23708 0
M  V30 1075 C 96.9085 4.18685 1.59396 0
M  V30 1076 C 98.6525 3.00956 2.99375 0
M  V30 1077 C 96.5595 5.3207 2.58178 0
M  V30 1078 H 95.4895 0.594838 0.46334 0
M  V30 1079 H 98.1405 1.76467 0.503169 0
M  V30 1080 H 96.5225 2.58736 2.99786 0
M  V30 1081 H 97.6965 4.52088 0.891811 0
M  V30 1082 H 96.0115 4.05171 0.960503 0
M  V30 1083 H 98.6085 3.82836 3.73283 0
M  V30 1084 H 98.9515 2.12258 3.58123 0
M  V30 1085 H 99.4845 3.24277 2.30411 0
M  V30 1086 H 96.2235 6.22888 2.04184 0
M  V30 1087 H 95.7435 5.03098 3.26577 0
M  V30 1088 H 97.4225 5.62196 3.20225 0
M  V30 1089 N 97.5546 -0.734337 1.39446 0
M  V30 1090 C 98.4646 -1.87879 1.40495 0
M  V30 1091 C 99.4806 -1.714 0.299672 0
M  V30 1092 O 100.657 -1.93991 0.541249 0
M  V30 1093 C 97.7216 -3.23477 1.24754 0
M  V30 1094 C 96.7826 -3.52344 2.45259 0
M  V30 1095 C 96.0156 -4.81473 2.30259 0
M  V30 1096 O 96.2386 -5.55237 1.30643 0
M  V30 1097 O 95.1726 -5.10254 3.19256 0
M  V30 1098 H 98.9986 -1.89949 2.36966 0
M  V30 1099 H 96.5836 -0.882243 1.20569 0
M  V30 1100 H 98.4656 -4.04509 1.18111 0
M  V30 1101 H 97.1406 -3.22176 0.313781 0
M  V30 1102 H 96.0476 -2.71396 2.57478 0
M  V30 1103 H 97.3806 -3.58426 3.37331 0
M  V30 1104 N 99.0327 -1.24633 -0.964593 0
M  V30 1105 C 100.281 -1.08573 -1.70459 0
M  V30 1106 C 100.602 0.375655 -1.91347 0
M  V30 1107 O 99.8717 1.26779 -1.49345 0
M  V30 1108 H 98.4517 -0.398784 -0.631649 0
M  V30 1109 H 101.114 -1.56601 -1.16026 0
M  V30 1110 H 100.21 -1.58623 -2.68785 0
M  V30 1111 N 100.511 1.16574 -1.06058 0
M  V30 1112 C 101.474 2.19085 -0.673392 0
M  V30 1113 C 102.474 1.5835 0.279648 0
M  V30 1114 O 103.664 1.74088 0.0623488 0
M  V30 1115 C 100.796 3.40899 0.00954234 0
M  V30 1116 H 101.989 2.54853 -1.58081 0
M  V30 1117 H 99.5418 1.30808 -0.855516 0
M  V30 1118 H 100.277 3.10684 0.929826 0
M  V30 1119 H 100.062 3.86233 -0.67573 0
M  V30 1120 H 101.552 4.1675 0.266245 0
M  V30 1121 N 101.989 0.842826 1.3317 0
M  V30 1122 C 103.214 0.453129 2.02389 0
M  V30 1123 C 103.639 -0.939105 1.6298 0
M  V30 1124 O 102.997 -1.61472 0.8244 0
M  V30 1125 C 103.045 0.586094 3.55805 0
M  V30 1126 O 102.149 -0.386029 4.10589 0
M  V30 1127 H 101.49 0.183664 0.638094 0
M  V30 1128 H 104.02 1.13875 1.69981 0
M  V30 1129 H 104.03 0.469209 4.05293 0
M  V30 1130 H 102.705 1.6014 3.83833 0
M  V30 1131 H 101.282 -0.226371 3.72212 0
M  V30 1132 N 103.467 -1.45747 0.599634 0
M  V30 1133 C 104.377 -2.34262 -0.125888 0
M  V30 1134 C 105.393 -1.50768 -0.868625 0
M  V30 1135 O 106.569 -1.83592 -0.828003 0
M  V30 1136 C 103.634 -3.28252 -1.11587 0
M  V30 1137 C 102.695 -4.27651 -0.375956 0
M  V30 1138 C 101.928 -5.1715 -1.31877 0
M  V30 1139 O 102.151 -5.09916 -2.55621 0
M  V30 1140 O 101.085 -5.96286 -0.820157 0
M  V30 1141 H 104.911 -2.97688 0.601315 0
M  V30 1142 H 102.496 -1.44999 0.359934 0
M  V30 1143 H 104.378 -3.86191 -1.68626 0
M  V30 1144 H 103.053 -2.67401 -1.82424 0
M  V30 1145 H 101.96 -3.7335 0.236698 0
M  V30 1146 H 103.293 -4.91334 0.29177 0
M  V30 1147 N 104.945 -0.338344 -1.53925 0
M  V30 1148 C 106.175 0.260919 -2.04946 0
M  V30 1149 C 106.583 1.45174 -1.2133 0
M  V30 1150 O 105.926 1.82122 -0.240262 0
M  V30 1151 C 105.988 0.744596 -3.51704 0
M  V30 1152 C 105.652 -0.325883 -4.55837 0
M  V30 1153 C 106.649 -1.16687 -5.06636 0
M  V30 1154 C 104.334 -0.478317 -5.00017 0
M  V30 1155 C 106.328 -2.14588 -6.00192 0
M  V30 1156 C 104.015 -1.46073 -5.93385 0
M  V30 1157 C 105.013 -2.29297 -6.4336 0
M  V30 1158 O 104.701 -3.25867 -7.34892 0
M  V30 1159 H 104.433 0.0551207 -0.673749 0
M  V30 1160 H 106.987 -0.486984 -1.99544 0
M  V30 1161 H 105.217 1.54366 -3.54553 0
M  V30 1162 H 106.906 1.26383 -3.85723 0
M  V30 1163 H 107.672 -1.06016 -4.73271 0
M  V30 1164 H 103.551 0.159613 -4.60724 0
M  V30 1165 H 107.095 -2.79585 -6.39123 0
M  V30 1166 H 102.992 -1.56802 -6.26166 0
M  V30 1167 H 103.76 -3.21278 -7.5281 0
M  V30 1168 N 106.423 1.57458 -0.0668435 0
M  V30 1169 C 107.653 1.97337 0.611677 0
M  V30 1170 C 108.061 0.943744 1.63982 0
M  V30 1171 O 107.404 -0.0785584 1.83532 0
M  V30 1172 C 107.466 3.33511 1.34205 0
M  V30 1173 C 107.13 4.54598 0.467941 0
M  V30 1174 C 108.127 5.19186 -0.272439 0
M  V30 1175 C 105.812 5.0075 0.39427 0
M  V30 1176 C 107.806 6.28274 -1.07476 0
M  V30 1177 C 105.493 6.09711 -0.411729 0
M  V30 1178 C 106.491 6.73335 -1.14492 0
M  V30 1179 O 106.179 7.80199 -1.93763 0
M  V30 1180 H 105.911 0.654042 0.170893 0
M  V30 1181 H 108.465 2.04961 -0.134289 0
M  V30 1182 H 106.695 3.22487 2.13398 0
M  V30 1183 H 108.384 3.58029 1.91233 0
M  V30 1184 H 109.15 4.84477 -0.225086 0
M  V30 1185 H 105.029 4.51009 0.954569 0
M  V30 1186 H 108.573 6.77866 -1.64755 0
M  V30 1187 H 104.47 6.43854 -0.460664 0
M  V30 1188 H 105.238 7.97053 -1.86142 0
M  V30 1189 N 107.901 -0.206675 1.56239 0
M  V30 1190 C 109.178 -0.954051 1.70755 0
M  V30 1191 C 109.558 -2.01841 0.618353 0
M  V30 1192 O 108.906 -2.25444 -0.372434 0
M  V30 1193 C 109.116 -1.551 3.12642 0
M  V30 1194 C 110.464 -2.03757 3.72516 0
M  V30 1195 O 111.488 -1.64965 3.15698 0
M  V30 1196 O 110.347 -2.75103 4.72208 0
M  V30 1197 H 107.441 -0.446636 0.696021 0
M  V30 1198 H 109.987 -0.197283 1.68549 0
M  V30 1199 H 108.759 -0.783212 3.83382 0
M  V30 1200 H 108.382 -2.37291 3.19028 0
M  V30 1201 N 109.379 -1.50304 -0.473955 0
M  V30 1202 C 110.79 -1.54042 -1.0549 0
M  V30 1203 C 111.141 -0.342248 -1.93192 0
M  V30 1204 O 110.266 0.545157 -2.09421 0
M  V30 1205 C 110.861 -2.79152 -1.91989 0
M  V30 1206 C 109.42 -2.8558 -2.45196 0
M  V30 1207 C 108.567 -2.48295 -1.2347 0
M  V30 1208 H 111.518 -1.5661 -0.256693 0
M  V30 1209 H 111.539 -2.60845 -2.7702 0
M  V30 1210 H 111.051 -3.66339 -1.28131 0
M  V30 1211 H 109.152 -2.02738 -3.12615 0
M  V30 1212 H 109.265 -3.88403 -2.80499 0
M  V30 1213 H 107.629 -2.00669 -1.56856 0
M  V30 1214 H 108.412 -3.37787 -0.612789 0
M  V30 1215 N 110.857 0.726932 -1.39834 0
M  V30 1216 C 111.805 1.86235 -1.39353 0
M  V30 1217 C 112.799 1.67144 -0.275555 0
M  V30 1218 O 114.005 1.74387 -0.44601 0
M  V30 1219 H 110.38 0.613174 -0.43534 0
M  V30 1220 H 112.351 1.83756 -2.35109 0
M  V30 1221 C 111.1 3.23995 -1.26185 0
M  V30 1222 H 110.423 3.39285 -2.11484 0
M  V30 1223 H 111.863 4.03609 -1.29907 0
M  V30 1224 C 110.322 3.36888 0.0290018 0
M  V30 1225 O 110.852 3.89152 0.99619 0
M  V30 1226 N 109.058 2.90446 0.0947437 0
M  V30 1227 H 108.605 2.48102 -0.693035 0
M  V30 1228 H 108.563 2.99451 0.957932 0
M  V30 1229 N 112.336 1.25143 0.95797 0
M  V30 1230 C 113.566 1.12261 1.73439 0
M  V30 1231 C 113.974 -0.326715 1.86358 0
M  V30 1232 O 113.317 -1.2367 1.35836 0
M  V30 1233 C 113.379 1.69966 3.16784 0
M  V30 1234 C 113.043 3.18936 3.27305 0
M  V30 1235 C 114.04 4.15968 3.11877 0
M  V30 1236 C 111.725 3.59083 3.51234 0
M  V30 1237 C 113.719 5.51126 3.20217 0
M  V30 1238 C 111.406 4.9438 3.5921 0
M  V30 1239 C 112.404 5.90211 3.43716 0
M  V30 1240 O 112.092 7.23046 3.51368 0
M  V30 1241 H 111.824 0.392476 0.550399 0
M  V30 1242 H 114.378 1.65927 1.21068 0
M  V30 1243 H 112.608 1.10744 3.70503 0
M  V30 1244 H 114.297 1.52232 3.76272 0
M  V30 1245 H 115.063 3.86292 2.93264 0
M  V30 1246 H 110.942 2.84989 3.62356 0
M  V30 1247 H 114.486 6.25905 3.0804 0
M  V30 1248 H 110.383 5.23723 3.77339 0
M  V30 1249 H 111.151 7.31097 3.6802 0
M  V30 1250 N 113.814 -1.1601 1.06675 0
M  V30 1251 C 114.744 -2.22688 0.702307 0
M  V30 1252 C 115.725 -1.67306 -0.307032 0
M  V30 1253 O 116.91 -1.93352 -0.181305 0
M  V30 1254 C 114.04 -3.47178 0.092038 0
M  V30 1255 C 112.994 -4.15477 1.02777 0
M  V30 1256 C 112.32 -5.33963 0.28061 0
M  V30 1257 C 113.62 -4.66019 2.35846 0
M  V30 1258 H 115.314 -2.53429 1.59419 0
M  V30 1259 H 112.86 -1.21813 0.767961 0
M  V30 1260 H 114.813 -4.21037 -0.174814 0
M  V30 1261 H 113.537 -3.15749 -0.834877 0
M  V30 1262 H 112.196 -3.43549 1.27944 0
M  V30 1263 H 111.844 -4.98788 -0.649545 0
M  V30 1264 H 111.544 -5.806 0.904258 0
M  V30 1265 H 113.068 -6.10596 0.021396 0
M  V30 1266 H 114.482 -5.3144 2.15045 0
M  V30 1267 H 112.879 -5.23293 2.93743 0
M  V30 1268 H 113.949 -3.82023 2.98641 0
M  V30 1269 N 115.292 -0.849877 -1.32721 0
M  V30 1270 C 116.708 -0.539102 -1.50219 0
M  V30 1271 C 116.908 0.931271 -1.78689 0
M  V30 1272 O 115.964 1.71455 -1.85363 0
M  V30 1273 C 117.277 -1.42196 -2.64954 0
M  V30 1274 C 118.825 -1.42189 -2.78839 0
M  V30 1275 C 119.3 -2.28985 -3.96648 0
M  V30 1276 N 120.791 -2.26754 -4.03902 0
M  V30 1277 C 121.526 -2.90644 -4.94281 0
M  V30 1278 N 121.022 -3.63629 -5.897 0
M  V30 1279 N 122.815 -2.80057 -4.87365 0
M  V30 1280 H 114.966 -1.80156 -1.12506 0
M  V30 1281 H 117.229 -0.769217 -0.554085 0
M  V30 1282 H 116.935 -2.46733 -2.50631 0
M  V30 1283 H 116.809 -1.10591 -3.60624 0
M  V30 1284 H 119.196 -0.38419 -2.92588 0
M  V30 1285 H 119.277 -1.77807 -1.83898 0
M  V30 1286 H 118.921 -3.32819 -3.83658 0
M  V30 1287 H 118.851 -1.90702 -4.90857 0
M  V30 1288 H 121.342 -1.73688 -3.3562 0
M  V30 1289 H 121.655 -4.09558 -6.55349 0
M  V30 1290 H 120 -3.67737 -5.89741 0
M  V30 1291 H 123.191 -2.22593 -4.11789 0
M  V30 1292 H 123.364 -3.30132 -5.57599 0
M  V30 1293 N 116.77 1.45427 -0.607355 0
M  V30 1294 C 117.998 2.06614 -0.108814 0
M  V30 1295 C 118.413 1.45204 1.2067 0
M  V30 1296 O 117.77 0.566132 1.73497 0
M  V30 1297 C 117.821 3.61481 0.0375347 0
M  V30 1298 O 117.542 4.20598 -1.22593 0
M  V30 1299 C 119.043 4.39652 0.567561 0
M  V30 1300 H 116.263 0.66747 -0.0687351 0
M  V30 1301 H 118.807 1.86675 -0.835022 0
M  V30 1302 H 116.962 3.80762 0.714068 0
M  V30 1303 H 117.376 5.1377 -1.05547 0
M  V30 1304 H 118.85 5.48518 0.61905 0
M  V30 1305 H 119.327 4.09417 1.58978 0
M  V30 1306 H 119.933 4.25234 -0.0749202 0
M  V30 1307 N 118.248 0.346503 1.53744 0
M  V30 1308 C 119.525 -0.304532 1.93215 0
M  V30 1309 C 119.905 -1.67993 1.27834 0
M  V30 1310 O 119.253 -2.24411 0.430352 0
M  V30 1311 C 119.463 -0.373852 3.46992 0
M  V30 1312 C 120.811 -0.62329 4.2 0
M  V30 1313 O 121.835 -0.455847 3.53271 0
M  V30 1314 O 120.694 -0.947879 5.38217 0
M  V30 1315 H 117.788 -0.178318 0.807547 0
M  V30 1316 H 120.334 0.397895 1.64969 0
M  V30 1317 H 119.106 0.591224 3.86808 0
M  V30 1318 H 118.729 -1.12294 3.81413 0
M  V30 1319 N 119.726 -1.57421 0.075193 0
M  V30 1320 C 120.951 -1.98364 -0.605515 0
M  V30 1321 C 121.376 -0.953383 -1.62149 0
M  V30 1322 O 120.734 0.0806053 -1.81121 0
M  V30 1323 C 120.782 -3.38332 -1.24756 0
M  V30 1324 O 119.886 -3.37959 -2.36342 0
M  V30 1325 H 119.227 -0.645553 -0.155428 0
M  V30 1326 H 121.757 -2.04044 0.150714 0
M  V30 1327 H 121.767 -3.75591 -1.5936 0
M  V30 1328 H 120.442 -4.12846 -0.503129 0
M  V30 1329 H 119.019 -3.12474 -2.03506 0
M  V30 1330 N 121.204 0.198386 -1.56346 0
M  V30 1331 C 122.481 0.944982 -1.71258 0
M  V30 1332 C 122.861 2.0151 -0.629048 0
M  V30 1333 O 122.209 2.25639 0.360473 0
M  V30 1334 C 122.419 1.5344 -3.1346 0
M  V30 1335 C 123.767 2.01778 -3.73591 0
M  V30 1336 O 124.791 1.63288 -3.16568 0
M  V30 1337 O 123.65 2.72594 -4.73661 0
M  V30 1338 H 120.744 0.442939 -0.69838 0
M  V30 1339 H 123.29 0.188342 -1.68652 0
M  V30 1340 H 122.062 0.762869 -3.83792 0
M  V30 1341 H 121.685 2.35596 -3.20282 0
M  V30 1342 N 122.682 1.50554 0.465978 0
M  V30 1343 C 123.629 1.6979 1.56333 0
M  V30 1344 C 124.599 0.539239 1.57103 0
M  V30 1345 O 125.784 0.770401 1.74555 0
M  V30 1346 C 122.924 1.80273 2.94271 0
M  V30 1347 C 122.037 3.07674 3.0325 0
M  V30 1348 C 121.172 3.08922 4.32135 0
M  V30 1349 C 120.211 4.30755 4.34875 0
M  V30 1350 N 119.348 4.29714 5.55239 0
M  V30 1351 H 124.188 2.63472 1.39235 0
M  V30 1352 H 121.725 1.30602 0.676873 0
M  V30 1353 H 123.683 1.84332 3.74269 0
M  V30 1354 H 122.313 0.900258 3.09992 0
M  V30 1355 H 121.365 3.13062 2.16094 0
M  V30 1356 H 122.677 3.97642 3.01135 0
M  V30 1357 H 121.831 3.11738 5.20485 0
M  V30 1358 H 120.57 2.16792 4.36866 0
M  V30 1359 H 119.575 4.28146 3.44922 0
M  V30 1360 H 120.8 5.24117 4.31831 0
M  V30 1361 H 118.746 3.4044 5.60746 0
M  V30 1362 H 118.663 5.13456 5.54886 0
M  V30 1363 H 119.931 4.36683 6.457 0
M  V30 1364 N 124.16 -0.719506 1.40217 0
M  V30 1365 C 125.437 -1.47221 1.28784 0
M  V30 1366 C 125.817 -2.10883 -0.0956067 0
M  V30 1367 O 125.165 -1.99833 -1.10811 0
M  V30 1368 C 125.375 -2.5111 2.42373 0
M  V30 1369 C 126.723 -3.17053 2.82423 0
M  V30 1370 O 127.747 -2.61429 2.41937 0
M  V30 1371 O 126.606 -4.17742 3.52355 0
M  V30 1372 H 123.7 -0.654491 0.50554 0
M  V30 1373 H 126.246 -0.752014 1.52128 0
M  V30 1374 H 125.018 -2.02556 3.34793 0
M  V30 1375 H 124.641 -3.3067 2.20778 0
M  V30 1376 N 125.638 -1.25649 -0.95132 0
M  V30 1377 C 127.054 -1.02542 -1.223 0
M  V30 1378 C 127.254 0.255715 -1.99871 0
M  V30 1379 O 126.31 0.967558 -2.33226 0
M  V30 1380 C 127.623 -2.25065 -1.99415 0
M  V30 1381 C 129.171 -2.29861 -2.12446 0
M  V30 1382 C 129.646 -3.52048 -2.92961 0
M  V30 1383 N 131.137 -3.52465 -3.00538 0
M  V30 1384 C 131.872 -4.43672 -3.63239 0
M  V30 1385 N 131.368 -5.45157 -4.27523 0
M  V30 1386 N 133.161 -4.31346 -3.60412 0
M  V30 1387 H 125.312 -2.07951 -0.432471 0
M  V30 1388 H 127.575 -0.91339 -0.253816 0
M  V30 1389 H 127.281 -3.18194 -1.49817 0
M  V30 1390 H 127.155 -2.28502 -3.00111 0
M  V30 1391 H 129.542 -1.37252 -2.61239 0
M  V30 1392 H 129.623 -2.3044 -1.11044 0
M  V30 1393 H 129.267 -4.44981 -2.44856 0
M  V30 1394 H 129.197 -3.48715 -3.94596 0
M  V30 1395 H 131.688 -2.79056 -2.54826 0
M  V30 1396 H 132.001 -6.10958 -4.73234 0
M  V30 1397 H 130.346 -5.49025 -4.26141 0
M  V30 1398 H 133.537 -3.51288 -3.09377 0
M  V30 1399 H 133.71 -5.02624 -4.0899 0
M  V30 1400 N 127.117 1.15442 -1.07289 0
M  V30 1401 C 128.364 1.86213 -0.795668 0
M  V30 1402 C 128.692 1.82291 0.678238 0
M  V30 1403 O 127.947 1.24057 1.51355 0
M  V30 1404 C 128.246 3.3489 -1.24834 0
M  V30 1405 C 127.912 3.59007 -2.72809 0
M  V30 1406 C 126.574 3.65298 -3.13227 0
M  V30 1407 C 128.926 3.68762 -3.68326 0
M  V30 1408 C 126.254 3.78854 -4.4798 0
M  V30 1409 C 128.606 3.83842 -5.0284 0
M  V30 1410 C 127.27 3.88378 -5.4288 0
M  V30 1411 H 126.54 0.681403 -0.291155 0
M  V30 1412 H 129.187 1.36435 -1.34379 0
M  V30 1413 H 127.492 3.8687 -0.619595 0
M  V30 1414 H 129.189 3.88052 -1.01076 0
M  V30 1415 H 125.779 3.5475 -2.40521 0
M  V30 1416 H 129.963 3.63202 -3.38227 0
M  V30 1417 H 125.219 3.80623 -4.78472 0
M  V30 1418 H 129.393 3.90332 -5.76727 0
M  V30 1419 H 127.02 3.98635 -6.47298 0
M  V30 1420 N 128.595 0.856903 1.32268 0
M  V30 1421 C 129.525 0.31858 2.31316 0
M  V30 1422 C 130.506 -0.583487 1.59779 0
M  V30 1423 O 131.691 -0.503259 1.87566 0
M  V30 1424 C 128.821 -0.491979 3.43798 0
M  V30 1425 C 127.775 0.315849 4.26833 0
M  V30 1426 C 127.101 -0.619586 5.31098 0
M  V30 1427 C 128.401 1.54282 4.98993 0
M  V30 1428 H 130.095 1.14621 2.76591 0
M  V30 1429 H 127.641 0.552613 1.32974 0
M  V30 1430 H 129.594 -0.879012 4.1213 0
M  V30 1431 H 128.318 -1.35299 2.97257 0
M  V30 1432 H 126.977 0.684664 3.6015 0
M  V30 1433 H 126.625 -1.47751 4.8081 0
M  V30 1434 H 126.325 -0.0830621 5.87541 0
M  V30 1435 H 127.849 -1.00375 6.02293 0
M  V30 1436 H 129.263 1.22796 5.59995 0
M  V30 1437 H 127.66 2.01745 5.65172 0
M  V30 1438 H 128.73 2.30285 4.26728 0
M  V30 1439 N 130.073 -1.45103 0.615059 0
M  V30 1440 C 131.005 -2.28786 -0.13762 0
M  V30 1441 C 132.018 -1.40376 -0.824525 0
M  V30 1442 O 133.207 -1.64681 -0.688662 0
M  V30 1443 C 130.307 -3.16322 -1.21628 0
M  V30 1444 C 129.48 -4.33054 -0.615039 0
M  V30 1445 C 128.539 -5.01743 -1.58556 0
M  V30 1446 O 127.565 -5.58293 -1.10895 0
M  V30 1447 N 128.767 -5.01714 -2.91998 0
M  V30 1448 H 131.532 -2.94025 0.580483 0
M  V30 1449 H 129.093 -1.55373 0.45507 0
M  V30 1450 H 131.085 -3.59139 -1.86552 0
M  V30 1451 H 129.655 -2.52943 -1.83681 0
M  V30 1452 H 128.875 -3.93627 0.21245 0
M  V30 1453 H 130.163 -5.08431 -0.193704 0
M  V30 1454 H 129.561 -4.57075 -3.33316 0
M  V30 1455 H 128.118 -5.48371 -3.52325 0
M  V30 1456 N 131.551 -0.354651 -1.53558 0
M  V30 1457 C 132.779 0.239515 -2.05509 0
M  V30 1458 C 133.194 1.4333 -1.2289 0
M  V30 1459 O 132.551 1.80538 -0.266899 0
M  V30 1460 C 132.602 0.643719 -3.55723 0
M  V30 1461 O 132.323 -0.502602 -4.35207 0
M  V30 1462 C 133.824 1.29743 -4.23889 0
M  V30 1463 H 131.044 0.0442697 -0.669538 0
M  V30 1464 H 133.588 -0.509856 -1.98042 0
M  V30 1465 H 131.743 1.34302 -3.63376 0
M  V30 1466 H 132.157 -0.178172 -5.24197 0
M  V30 1467 H 133.631 1.53091 -5.30346 0
M  V30 1468 H 134.108 2.25441 -3.76926 0
M  V30 1469 H 134.714 0.639865 -4.20459 0
M  V30 1470 N 133.029 1.57378 -0.0835403 0
M  V30 1471 C 133.962 2.09016 0.915833 0
M  V30 1472 C 134.94 0.997993 1.2837 0
M  V30 1473 O 136.124 1.27219 1.39096 0
M  V30 1474 C 133.251 2.55757 2.22049 0
M  V30 1475 C 132.297 3.76522 2.00333 0
M  V30 1476 S 133.13 5.20661 1.25191 0
M  V30 1477 C 134.286 5.70743 2.56912 0
M  V30 1478 H 134.519 2.93457 0.476492 0
M  V30 1479 H 132.052 1.53856 0.129493 0
M  V30 1480 H 134.01 2.83346 2.97027 0
M  V30 1481 H 132.671 1.71564 2.63106 0
M  V30 1482 H 131.864 4.07256 2.96916 0
M  V30 1483 H 131.466 3.49367 1.33488 0
M  V30 1484 H 133.758 5.78304 3.52946 0
M  V30 1485 H 134.701 6.6944 2.30772 0
M  V30 1486 H 135.109 4.98616 2.64655 0
M  V30 1487 N 134.507 -0.190092 1.56449 0
M  V30 1488 C 135.753 -0.911052 1.81184 0
M  V30 1489 C 136.086 -1.82699 0.658396 0
M  V30 1490 O 135.361 -1.91491 -0.340775 0
M  V30 1491 C 135.644 -1.72297 3.16205 0
M  V30 1492 C 135.497 -0.831419 4.42049 0
M  V30 1493 C 136.816 -2.69454 3.47969 0
M  V30 1494 H 133.935 -0.32977 0.659106 0
M  V30 1495 H 136.577 -0.178169 1.89163 0
M  V30 1496 H 134.727 -2.34778 3.09534 0
M  V30 1497 H 136.399 -0.220929 4.60771 0
M  V30 1498 H 134.642 -0.138406 4.33579 0
M  V30 1499 H 135.313 -1.43461 5.33032 0
M  V30 1500 H 137.789 -2.17104 3.54972 0
M  V30 1501 H 136.665 -3.23342 4.43555 0
M  V30 1502 H 136.926 -3.48744 2.71717 0
M  V30 1503 N 135.985 -1.50799 -0.457987 0
M  V30 1504 C 136.932 -1.70617 -1.5543 0
M  V30 1505 C 137.902 -0.547562 -1.56815 0
M  V30 1506 O 139.087 -0.779647 -1.74144 0
M  V30 1507 C 136.227 -1.81831 -2.93311 0
M  V30 1508 C 135.34 -3.09278 -3.01615 0
M  V30 1509 C 134.475 -3.11209 -4.30491 0
M  V30 1510 C 133.514 -4.33055 -4.32585 0
M  V30 1511 N 132.651 -4.32652 -5.52952 0
M  V30 1512 H 137.491 -2.64207 -1.37836 0
M  V30 1513 H 135.028 -1.30959 -0.669937 0
M  V30 1514 H 136.986 -1.86314 -3.73287 0
M  V30 1515 H 135.616 -0.916685 -3.0951 0
M  V30 1516 H 134.668 -3.14203 -2.1443 0
M  V30 1517 H 135.98 -3.99233 -2.99022 0
M  V30 1518 H 135.134 -3.14494 -5.18824 0
M  V30 1519 H 133.873 -2.19106 -4.35711 0
M  V30 1520 H 132.878 -4.29969 -3.42647 0
M  V30 1521 H 134.103 -5.264 -4.29046 0
M  V30 1522 H 132.049 -3.43409 -5.58933 0
M  V30 1523 H 131.966 -5.16392 -5.52155 0
M  V30 1524 H 133.234 -4.40101 -6.43375 0
M  V30 1525 N 137.463 0.71206 -1.40597 0
M  V30 1526 C 138.393 1.83889 -1.43899 0
M  V30 1527 C 139.374 1.67442 -0.299504 0
M  V30 1528 O 140.559 1.87421 -0.508624 0
M  V30 1529 C 137.689 3.21877 -1.30431 0
M  V30 1530 C 136.643 3.53002 -2.42019 0
M  V30 1531 C 135.969 4.90172 -2.13626 0
M  V30 1532 C 137.269 3.53643 -3.84362 0
M  V30 1533 H 138.963 1.81383 -2.38203 0
M  V30 1534 H 136.509 0.871237 -1.14654 0
M  V30 1535 H 138.462 4.00404 -1.31357 0
M  V30 1536 H 137.186 3.24968 -0.326049 0
M  V30 1537 H 135.845 2.76818 -2.40349 0
M  V30 1538 H 135.493 4.89869 -1.14182 0
M  V30 1539 H 135.193 5.11962 -2.88389 0
M  V30 1540 H 136.717 5.71028 -2.1624 0
M  V30 1541 H 138.131 4.22203 -3.87837 0
M  V30 1542 H 136.528 3.86961 -4.58673 0
M  V30 1543 H 137.598 2.52954 -4.13693 0
M  V30 1544 N 138.941 1.26152 0.944643 0
M  V30 1545 C 140.188 1.11492 1.69044 0
M  V30 1546 C 140.516 -0.342366 1.91463 0
M  V30 1547 O 139.771 -1.26812 1.49054 0
M  V30 1548 C 140.07 1.82541 3.07268 0
M  V30 1549 C 139.736 3.32445 3.04616 0
M  V30 1550 C 138.398 3.73337 3.036 0
M  V30 1551 C 140.75 4.28171 2.97185 0
M  V30 1552 C 138.078 5.08348 2.92915 0
M  V30 1553 C 140.43 5.63218 2.88041 0
M  V30 1554 C 139.094 6.03426 2.85366 0
M  V30 1555 H 138.364 0.407977 0.618576 0
M  V30 1556 H 141.011 1.56551 1.10291 0
M  V30 1557 H 139.316 1.29941 3.69625 0
M  V30 1558 H 141.013 1.68642 3.63815 0
M  V30 1559 H 137.603 2.99915 3.06185 0
M  V30 1560 H 141.787 3.97563 2.97081 0
M  V30 1561 H 137.043 5.38667 2.89219 0
M  V30 1562 H 141.217 6.37078 2.81254 0
M  V30 1563 H 138.844 7.07999 2.76842 0
M  V30 1564 N 140.419 -1.14872 1.07899 0
M  V30 1565 C 141.367 -2.21857 0.698727 0
M  V30 1566 C 142.361 -1.66845 -0.293086 0
M  V30 1567 O 143.567 -1.79321 -0.156204 0
M  V30 1568 H 139.942 -0.722691 0.207899 0
M  V30 1569 H 141.913 -2.51205 1.61054 0
M  V30 1570 C 140.662 -3.47498 0.11858 0
M  V30 1571 H 139.985 -3.90154 0.872914 0
M  V30 1572 H 141.425 -4.23858 -0.109759 0
M  V30 1573 C 139.884 -3.16947 -1.1422 0
M  V30 1574 O 140.414 -3.3426 -2.22785 0
M  V30 1575 N 138.62 -2.70946 -1.05055 0
M  V30 1576 H 138.167 -2.57058 -0.167038 0
M  V30 1577 H 138.125 -2.50879 -1.89491 0
M  V30 1578 N 141.898 -0.863906 -1.31812 0
M  V30 1579 C 143.314 -0.555004 -1.49639 0
M  V30 1580 C 143.514 0.912266 -1.79666 0
M  V30 1581 O 142.57 1.69479 -1.87171 0
M  V30 1582 C 143.883 -1.44998 -2.63431 0
M  V30 1583 C 145.431 -1.45138 -2.77316 0
M  V30 1584 C 145.906 -2.33179 -3.94197 0
M  V30 1585 N 147.397 -2.31025 -4.01474 0
M  V30 1586 C 148.132 -2.95871 -4.9117 0
M  V30 1587 N 147.628 -3.69863 -5.8581 0
M  V30 1588 N 149.421 -2.85211 -4.84367 0
M  V30 1589 H 141.572 -1.81339 -1.10589 0
M  V30 1590 H 143.835 -0.77505 -0.545895 0
M  V30 1591 H 143.541 -2.49377 -2.48 0
M  V30 1592 H 143.415 -1.14409 -3.59431 0
M  V30 1593 H 145.802 -0.415201 -2.92164 0
M  V30 1594 H 145.883 -1.79747 -1.82001 0
M  V30 1595 H 145.527 -3.3687 -3.80107 0
M  V30 1596 H 145.457 -1.95897 -4.88807 0
M  V30 1597 H 147.948 -1.77238 -3.33759 0
M  V30 1598 H 148.261 -4.16486 -6.50968 0
M  V30 1599 H 146.606 -3.73971 -5.85808 0
M  V30 1600 H 149.797 -2.26948 -4.09405 0
M  V30 1601 H 149.97 -3.36027 -5.54066 0
M  V30 1602 N 143.376 1.44774 -0.622745 0
M  V30 1603 C 144.625 2.01334 -0.121397 0
M  V30 1604 C 144.938 1.49505 1.26125 0
M  V30 1605 O 146.144 1.98139 1.85616 0
M  V30 1606 C 144.6 3.59516 -0.166298 0
M  V30 1607 C 144.208 4.20342 -1.54974 0
M  V30 1608 C 145.952 4.23582 0.279021 0
M  V30 1609 C 143.859 5.70721 -1.55021 0
M  V30 1610 H 142.789 0.752851 -0.0416172 0
M  V30 1611 H 145.44 1.66083 -0.780309 0
M  V30 1612 H 143.822 3.92027 0.559557 0
M  V30 1613 H 144.996 3.99381 -2.29851 0
M  V30 1614 H 143.311 3.68529 -1.93843 0
M  V30 1615 H 145.908 5.33868 0.298083 0
M  V30 1616 H 146.251 3.95327 1.30471 0
M  V30 1617 H 146.784 3.95843 -0.394063 0
M  V30 1618 H 143.523 6.03698 -2.55399 0
M  V30 1619 H 143.043 5.93829 -0.844245 0
M  V30 1620 H 144.722 6.34203 -1.28047 0
M  V30 1621 N 144.854 0.36279 1.53368 0
M  V30 1622 C 145.801 -0.485008 2.25646 0
M  V30 1623 C 146.771 -1.07982 1.2621 0
M  V30 1624 O 147.956 -1.11284 1.54986 0
M  V30 1625 C 145.096 -1.62023 3.04701 0
M  V30 1626 C 144.209 -1.05086 4.19024 0
M  V30 1627 C 143.344 -2.15496 4.85525 0
M  V30 1628 C 142.383 -1.5601 5.91884 0
M  V30 1629 N 141.52 -2.60241 6.52088 0
M  V30 1630 H 146.36 0.137864 2.97681 0
M  V30 1631 H 143.897 0.0798061 1.46883 0
M  V30 1632 H 145.855 -2.28887 3.48807 0
M  V30 1633 H 144.485 -2.2138 2.34927 0
M  V30 1634 H 143.537 -0.27259 3.79422 0
M  V30 1635 H 144.849 -0.575926 4.95464 0
M  V30 1636 H 144.003 -2.90186 5.32801 0
M  V30 1637 H 142.742 -2.66341 4.08551 0
M  V30 1638 H 141.747 -0.798338 5.43973 0
M  V30 1639 H 142.972 -1.05994 6.70777 0
M  V30 1640 H 140.918 -3.10304 5.77968 0
M  V30 1641 H 140.835 -2.17426 7.24059 0
M  V30 1642 H 142.103 -3.34641 7.04014 0
M  V30 1643 N 146.332 -1.57332 0.0918853 0
M  V30 1644 C 147.28 -2.15075 -0.885747 0
M  V30 1645 C 148.274 -1.09277 -1.29441 0
M  V30 1646 O 149.48 -1.27627 -1.26931 0
M  V30 1647 H 145.855 -0.687966 -0.303656 0
M  V30 1648 H 147.826 -2.96047 -0.373995 0
M  V30 1649 C 146.575 -2.74325 -2.13638 0
M  V30 1650 H 145.898 -3.55418 -1.8308 0
M  V30 1651 H 147.338 -3.183 -2.80109 0
M  V30 1652 C 145.797 -1.70062 -2.90827 0
M  V30 1653 O 146.327 -1.13763 -3.85254 0
M  V30 1654 N 144.533 -1.40628 -2.54307 0
M  V30 1655 H 144.08 -1.866 -1.7759 0
M  V30 1656 H 144.038 -0.711043 -3.06254 0
M  V30 1657 N 147.81 0.181792 -1.56548 0
M  V30 1658 C 148.758 1.24461 -1.965 0
M  V30 1659 C 149.752 1.464 -0.852261 0
M  V30 1660 O 150.958 1.47103 -1.03733 0
M  V30 1661 H 147.333 0.418138 -0.625031 0
M  V30 1662 H 149.304 0.880714 -2.85107 0
M  V30 1663 C 148.053 2.57891 -2.33212 0
M  V30 1664 H 147.376 2.41829 -3.18369 0
M  V30 1665 H 148.816 3.3097 -2.65019 0
M  V30 1666 C 147.275 3.15871 -1.17163 0
M  V30 1667 O 147.805 3.9913 -0.453708 0
M  V30 1668 N 146.011 2.74808 -0.944936 0
M  V30 1669 H 145.558 2.07205 -1.53049 0
M  V30 1670 H 145.516 3.13939 -0.170286 0
M  V30 1671 N 149.288 1.51039 0.449983 0
M  V30 1672 C 150.534 1.63322 1.20223 0
M  V30 1673 C 150.867 0.34241 1.91158 0
M  V30 1674 O 150.142 -0.657344 1.83055 0
M  V30 1675 C 150.425 2.82801 2.22925 0
M  V30 1676 C 150.278 4.21823 1.56157 0
M  V30 1677 C 151.597 2.97807 3.24035 0
M  V30 1678 H 148.716 0.594407 0.435718 0
M  V30 1679 H 151.358 1.83489 0.493136 0
M  V30 1680 H 149.508 2.65738 2.834 0
M  V30 1681 H 151.18 4.50526 0.991162 0
M  V30 1682 H 149.423 4.25105 0.864172 0
M  V30 1683 H 150.094 5.01391 2.30891 0
M  V30 1684 H 152.57 3.13497 2.73603 0
M  V30 1685 H 151.446 3.82992 3.93202 0
M  V30 1686 H 151.707 2.09328 3.89402 0
M  V30 1687 N 150.766 -0.704594 1.40972 0
M  V30 1688 C 151.729 -1.80035 1.41845 0
M  V30 1689 C 152.729 -1.57774 0.310474 0
M  V30 1690 O 153.919 -1.64613 0.56992 0
M  V30 1691 C 151.051 -3.18284 1.22098 0
M  V30 1692 H 152.244 -1.80658 2.3938 0
M  V30 1693 H 149.797 -0.911329 1.26982 0
M  V30 1694 H 150.532 -3.23306 0.253672 0
M  V30 1695 H 150.317 -3.35843 2.02366 0
M  V30 1696 H 151.807 -3.98289 1.25522 0
M  V30 1697 N 152.244 -1.26651 -0.937939 0
M  V30 1698 C 153.492 -1.12165 -1.68118 0
M  V30 1699 C 153.813 0.334983 -1.92101 0
M  V30 1700 O 153.083 1.23583 -1.52 0
M  V30 1701 H 151.663 -0.412093 -0.623048 0
M  V30 1702 H 154.325 -1.59027 -1.12678 0
M  V30 1703 H 153.421 -1.64289 -2.6536 0
M  V30 1704 N 153.722 1.14298 -1.08507 0
M  V30 1705 C 154.632 2.23027 -0.727753 0
M  V30 1706 C 155.648 1.71952 0.26619 0
M  V30 1707 O 156.824 2.011 0.109882 0
M  V30 1708 C 153.889 3.46403 -0.143541 0
M  V30 1709 C 152.95 4.12413 -1.19223 0
M  V30 1710 C 152.183 5.29899 -0.635798 0
M  V30 1711 O 152.406 5.67796 0.544393 0
M  V30 1712 O 151.34 5.85717 -1.38634 0
M  V30 1713 H 155.166 2.55945 -1.63481 0
M  V30 1714 H 152.751 1.22248 -0.858817 0
M  V30 1715 H 154.633 4.21018 0.179404 0
M  V30 1716 H 153.308 3.15206 0.736659 0
M  V30 1717 H 152.215 3.39667 -1.56772 0
M  V30 1718 H 153.548 4.47718 -2.04474 0
M  V30 1719 N 155.201 0.870884 1.31352 0
M  V30 1720 C 156.164 0.332243 2.26779 0
M  V30 1721 C 157.164 -0.517302 1.52252 0
M  V30 1722 O 158.354 -0.326477 1.71113 0
M  V30 1723 C 155.486 -0.528066 3.36785 0
M  V30 1724 H 156.679 1.17469 2.75937 0
M  V30 1725 H 154.232 0.64655 1.423 0
M  V30 1726 H 154.967 -1.39167 2.92922 0
M  V30 1727 H 154.752 0.0802582 3.92018 0
M  V30 1728 H 156.242 -0.897179 4.07849 0
M  V30 1729 N 156.679 -1.44442 0.630414 0
M  V30 1730 C 157.609 -2.33418 -0.0618083 0
M  V30 1731 C 158.59 -1.48165 -0.835541 0
M  V30 1732 O 159.775 -1.76886 -0.801564 0
M  V30 1733 C 156.905 -3.31222 -1.04449 0
M  V30 1734 C 155.859 -4.26288 -0.382436 0
M  V30 1735 C 155.185 -5.13954 -1.47497 0
M  V30 1736 C 156.485 -5.1744 0.710865 0
M  V30 1737 H 158.179 -2.91548 0.681184 0
M  V30 1738 H 155.725 -1.40191 0.329026 0
M  V30 1739 H 157.678 -3.92351 -1.53748 0
M  V30 1740 H 156.402 -2.71299 -1.81836 0
M  V30 1741 H 155.061 -3.6649 0.0899054 0
M  V30 1742 H 154.709 -4.50385 -2.2397 0
M  V30 1743 H 154.409 -5.7837 -1.03737 0
M  V30 1744 H 155.933 -5.77955 -1.96979 0
M  V30 1745 H 157.347 -5.72509 0.300996 0
M  V30 1746 H 155.744 -5.90455 1.07156 0
M  V30 1747 H 156.814 -4.58496 1.57829 0
M  V30 1748 N 158.157 -0.370918 -1.53173 0
M  V30 1749 C 159.087 0.464847 -2.28826 0
M  V30 1750 C 160.068 1.07936 -1.31468 0
M  V30 1751 O 161.253 1.0956 -1.60344 0
M  V30 1752 C 158.383 1.60196 -3.08147 0
M  V30 1753 C 157.337 1.11443 -4.13237 0
M  V30 1754 C 156.663 2.3422 -4.80672 0
M  V30 1755 C 157.963 0.195384 -5.21934 0
M  V30 1756 H 159.657 -0.166329 -2.98938 0
M  V30 1757 H 157.203 -0.0814359 -1.4377 0
M  V30 1758 H 159.156 2.19332 -3.59822 0
M  V30 1759 H 157.88 2.26045 -2.35735 0
M  V30 1760 H 156.539 0.545727 -3.62515 0
M  V30 1761 H 156.187 2.98537 -4.04827 0
M  V30 1762 H 155.887 2.02269 -5.51689 0
M  V30 1763 H 157.411 2.94032 -5.35143 0
M  V30 1764 H 158.825 0.694375 -5.69079 0
M  V30 1765 H 157.222 -0.0335027 -6.00091 0
M  V30 1766 H 158.292 -0.760961 -4.78892 0
M  V30 1767 N 159.635 1.57281 -0.100228 0
M  V30 1768 C 160.912 1.86014 0.604812 0
M  V30 1769 C 161.292 0.998025 1.86018 0
M  V30 1770 O 160.64 0.0718184 2.28387 0
M  V30 1771 C 160.85 3.36784 0.915278 0
M  V30 1772 C 162.198 4.04957 1.27651 0
M  V30 1773 O 163.222 3.41695 1.00613 0
M  V30 1774 O 162.081 5.16593 1.7831 0
M  V30 1775 H 159.175 0.76942 0.303185 0
M  V30 1776 H 161.721 1.69176 -0.133313 0
M  V30 1777 H 160.493 3.91292 0.0248896 0
M  V30 1778 H 160.116 3.58987 1.70921 0
M  V30 1779 N 161.113 -0.173488 1.56642 0
M  V30 1780 C 162.06 -1.21482 1.96242 0
M  V30 1781 C 163.03 -1.44104 0.826027 0
M  V30 1782 O 164.215 -1.5688 1.08597 0
M  V30 1783 C 161.355 -2.54964 2.32567 0
M  V30 1784 C 160.468 -2.39739 3.59373 0
M  V30 1785 C 159.603 -3.66072 3.84921 0
M  V30 1786 C 158.642 -3.45771 5.05083 0
M  V30 1787 N 157.779 -4.64169 5.26775 0
M  V30 1788 H 162.619 -0.870123 2.85014 0
M  V30 1789 H 160.156 -0.418245 1.41029 0
M  V30 1790 H 162.114 -3.32758 2.5165 0
M  V30 1791 H 160.744 -2.87433 1.46908 0
M  V30 1792 H 159.796 -1.53131 3.48217 0
M  V30 1793 H 161.108 -2.20683 4.47326 0
M  V30 1794 H 160.262 -4.52303 4.0436 0
M  V30 1795 H 159.001 -3.88105 2.9534 0
M  V30 1796 H 158.006 -2.57927 4.85545 0
M  V30 1797 H 159.231 -3.25163 5.96193 0
M  V30 1798 H 157.177 -4.86425 4.40144 0
M  V30 1799 H 157.094 -4.48019 6.08946 0
M  V30 1800 H 158.362 -5.51689 5.5069 0
M  V30 1801 N 162.591 -1.51276 -0.441967 0
M  V30 1802 C 163.84 -1.6295 -1.18871 0
M  V30 1803 C 164.153 -0.349312 -1.92456 0
M  V30 1804 O 165.359 -0.345355 -2.69295 0
M  V30 1805 C 163.815 -2.87759 -2.16155 0
M  V30 1806 C 163.423 -4.22764 -1.48239 0
M  V30 1807 C 165.167 -3.08788 -2.91291 0
M  V30 1808 C 163.074 -5.38728 -2.4398 0
M  V30 1809 H 162.004 -0.606913 -0.447406 0
M  V30 1810 H 164.655 -1.77739 -0.456205 0
M  V30 1811 H 163.037 -2.66593 -2.92821 0
M  V30 1812 H 164.211 -4.54293 -0.771635 0
M  V30 1813 H 162.526 -4.07575 -0.852741 0
M  V30 1814 H 165.123 -3.92599 -3.63002 0
M  V30 1815 H 165.466 -2.21679 -3.5237 0
M  V30 1816 H 165.999 -3.30272 -2.21733 0
M  V30 1817 H 162.738 -6.28082 -1.87598 0
M  V30 1818 H 162.258 -5.1158 -3.13123 0
M  V30 1819 H 163.937 -5.70489 -3.05207 0
M  V30 1820 N 164.069 0.697108 -1.41344 0
M  V30 1821 C 165.318 1.45279 -1.39918 0
M  V30 1822 C 165.631 1.95597 -0.0109624 0
M  V30 1823 O 166.837 2.71208 0.125919 0
M  V30 1824 C 165.293 2.62695 -2.46007 0
M  V30 1825 C 164.901 2.19169 -3.90729 0
M  V30 1826 C 166.645 3.40336 -2.53715 0
M  V30 1827 C 164.552 3.33535 -4.88373 0
M  V30 1828 H 163.482 0.545692 -0.520323 0
M  V30 1829 H 166.133 0.756929 -1.67161 0
M  V30 1830 H 164.515 3.34541 -2.11892 0
M  V30 1831 H 165.689 1.54623 -4.34083 0
M  V30 1832 H 164.004 1.54525 -3.86666 0
M  V30 1833 H 166.601 4.2547 -3.2385 0
M  V30 1834 H 166.944 3.85418 -1.5735 0
M  V30 1835 H 167.477 2.75546 -2.86913 0
M  V30 1836 H 164.216 2.93468 -5.86137 0
M  V30 1837 H 163.736 3.96936 -4.49668 0
M  V30 1838 H 165.415 3.99335 -5.09059 0
M  V30 1839 N 165.547 1.27147 0.931209 0
M  V30 1840 C 166.495 1.09398 2.05268 0
M  V30 1841 C 167.489 0.0180591 1.6939 0
M  V30 1842 O 168.695 0.17551 1.79142 0
M  V30 1843 H 165.07 0.336986 0.672268 0
M  V30 1844 H 167.041 2.04416 2.17386 0
M  V30 1845 C 165.79 0.75424 3.39421 0
M  V30 1846 H 165.113 1.57404 3.67511 0
M  V30 1847 H 166.553 0.669903 4.18674 0
M  V30 1848 C 165.012 -0.541197 3.32525 0
M  V30 1849 O 165.542 -1.57664 3.69466 0
M  V30 1850 N 163.748 -0.535517 2.85623 0
M  V30 1851 H 163.295 0.307511 2.55758 0
M  V30 1852 H 163.253 -1.40236 2.81392 0
M  V30 1853 N 167.025 -1.13721 1.09112 0
M  V30 1854 C 167.988 -2.17222 0.731241 0
M  V30 1855 C 168.988 -1.59035 -0.237566 0
M  V30 1856 O 170.178 -1.74192 -0.0161704 0
M  V30 1857 C 167.31 -3.40804 0.0808443 0
M  V30 1858 H 168.503 -2.50573 1.64783 0
M  V30 1859 H 166.056 -1.28493 0.889897 0
M  V30 1860 H 166.791 -3.1304 -0.847127 0
M  V30 1861 H 166.576 -3.84306 0.777896 0
M  V30 1862 H 168.066 -4.1731 -0.155657 0
M  V30 1863 N 168.503 -0.877838 -1.30888 0
M  V30 1864 C 169.752 -0.488793 -1.95688 0
M  V30 1865 C 170.065 0.965485 -1.70111 0
M  V30 1866 O 171.271 1.46104 -2.28836 0
M  V30 1867 C 169.727 -0.823201 -3.50359 0
M  V30 1868 C 169.335 -2.29477 -3.84765 0
M  V30 1869 C 171.079 -0.503009 -4.21509 0
M  V30 1870 C 168.986 -2.57118 -5.32583 0
M  V30 1871 H 167.916 -0.179062 -0.732429 0
M  V30 1872 H 170.567 -1.07183 -1.48943 0
M  V30 1873 H 168.949 -0.169331 -3.95638 0
M  V30 1874 H 170.123 -2.99236 -3.5042 0
M  V30 1875 H 168.438 -2.58178 -3.267 0
M  V30 1876 H 171.035 -0.68665 -5.30273 0
M  V30 1877 H 171.378 0.557109 -4.12555 0
M  V30 1878 H 171.911 -1.11376 -3.8189 0
M  V30 1879 H 168.65 -3.61843 -5.4658 0
M  V30 1880 H 168.17 -1.91961 -5.68253 0
M  V30 1881 H 169.849 -2.42251 -5.99936 0
M  V30 1882 N 169.982 1.44106 -0.638065 0
M  V30 1883 C 171.393 1.85316 -0.226894 0
M  V30 1884 C 171.744 1.53399 1.22324 0
M  V30 1885 O 170.869 0.975463 1.93167 0
M  V30 1886 C 171.464 3.3637 -0.405013 0
M  V30 1887 C 170.023 3.76369 -0.0482902 0
M  V30 1888 C 169.17 2.67921 -0.715108 0
M  V30 1889 H 172.121 1.34474 -0.842764 0
M  V30 1890 H 172.142 3.7885 0.354 0
M  V30 1891 H 171.654 3.59569 -1.46053 0
M  V30 1892 H 169.755 3.58784 1.00522 0
M  V30 1893 H 169.868 4.76856 -0.463187 0
M  V30 1894 H 168.232 2.54259 -0.149753 0
M  V30 1895 H 169.015 2.93951 -1.77335 0
M  V30 1896 N 171.46 0.379036 1.52974 0
M  V30 1897 C 172.69 -0.20649 2.05566 0
M  V30 1898 C 173.098 -1.41906 1.25137 0
M  V30 1899 O 172.441 -1.81421 0.288464 0
M  V30 1900 C 172.503 -0.651086 3.53555 0
M  V30 1901 C 172.167 0.446626 4.54812 0
M  V30 1902 C 173.164 1.30079 5.03364 0
M  V30 1903 C 170.849 0.610719 4.98573 0
M  V30 1904 C 172.843 2.30426 5.94292 0
M  V30 1905 C 170.53 1.61754 5.89304 0
M  V30 1906 C 171.528 2.46274 6.37054 0
M  V30 1907 O 171.216 3.45237 7.25994 0
M  V30 1908 H 170.948 -0.0372381 0.674974 0
M  V30 1909 H 173.502 0.539718 1.98182 0
M  V30 1910 H 171.732 -1.44911 3.58522 0
M  V30 1911 H 173.421 -1.16112 3.88938 0
M  V30 1912 H 174.187 1.18527 4.70294 0
M  V30 1913 H 170.066 -0.0374044 4.60985 0
M  V30 1914 H 173.61 2.96432 6.31485 0
M  V30 1915 H 169.507 1.73348 6.21788 0
M  V30 1916 H 170.275 3.41124 7.44027 0
M  V30 1917 N 172.938 -1.57226 0.108567 0
M  V30 1918 C 173.868 -2.17778 -0.84232 0
M  V30 1919 C 174.849 -1.11487 -1.2847 0
M  V30 1920 O 176.034 -1.39681 -1.34918 0
M  V30 1921 C 173.164 -2.76888 -2.09644 0
M  V30 1922 C 172.118 -3.88669 -1.79221 0
M  V30 1923 C 171.444 -4.34541 -3.11574 0
M  V30 1924 C 172.744 -5.11251 -1.06864 0
M  V30 1925 H 174.438 -2.97489 -0.337774 0
M  V30 1926 H 171.984 -1.43097 -0.161025 0
M  V30 1927 H 173.937 -3.17904 -2.76614 0
M  V30 1928 H 172.661 -1.94451 -2.62405 0
M  V30 1929 H 171.32 -3.48213 -1.14644 0
M  V30 1930 H 170.968 -3.48977 -3.62249 0
M  V30 1931 H 170.668 -5.09914 -2.91996 0
M  V30 1932 H 172.192 -4.782 -3.7968 0
M  V30 1933 H 173.606 -5.49352 -1.63968 0
M  V30 1934 H 172.003 -5.9214 -0.974178 0
M  V30 1935 H 173.073 -4.8487 -0.0536168 0
M  V30 1936 N 174.416 0.165178 -1.56732 0
M  V30 1937 C 175.664 0.879068 -1.8198 0
M  V30 1938 C 175.985 1.82514 -0.686561 0
M  V30 1939 O 175.255 1.93694 0.293146 0
M  V30 1940 H 173.835 0.327608 -0.671329 0
M  V30 1941 H 176.497 0.163526 -1.94213 0
M  V30 1942 H 175.593 1.45228 -2.76252 0
M  V30 1943 N 175.894 1.51508 0.433938 0
M  V30 1944 C 176.842 1.73646 1.54757 0
M  V30 1945 C 177.836 0.602854 1.5831 0
M  V30 1946 O 179.042 0.784318 1.62014 0
M  V30 1947 H 175.417 0.548718 0.51421 0
M  V30 1948 H 177.388 2.66991 1.33261 0
M  V30 1949 C 176.137 1.88172 2.92381 0
M  V30 1950 H 175.46 2.74808 2.90381 0
M  V30 1951 H 176.9 2.07672 3.6966 0
M  V30 1952 C 175.359 0.64239 3.30719 0
M  V30 1953 O 175.889 -0.201362 4.01195 0
M  V30 1954 N 174.095 0.485489 2.86516 0
M  V30 1955 H 173.642 1.17318 2.29334 0
M  V30 1956 H 173.6 -0.342482 3.12529 0
M  V30 1957 N 177.372 -0.689602 1.41712 0
M  V30 1958 C 178.597 -1.48329 1.44959 0
M  V30 1959 C 179.022 -1.8801 0.0581283 0
M  V30 1960 O 178.38 -1.55026 -0.940035 0
M  V30 1961 C 178.428 -2.71835 2.36935 0
M  V30 1962 O 177.532 -3.69549 1.8305 0
M  V30 1963 H 176.873 -0.446199 0.491734 0
M  V30 1964 H 179.403 -0.847127 1.86239 0
M  V30 1965 H 179.413 -3.20076 2.53013 0
M  V30 1966 H 178.088 -2.42291 3.38035 0
M  V30 1967 H 176.665 -3.2851 1.76452 0
M  V30 1968 N 178.85 -1.27639 -0.924453 0
M  V30 1969 C 180.08 -1.16819 -1.70402 0
M  V30 1970 C 180.488 0.277191 -1.87158 0
M  V30 1971 O 179.831 1.20025 -1.39067 0
M  V30 1972 C 179.893 -1.78305 -3.12166 0
M  V30 1973 C 179.557 -3.27502 -3.18734 0
M  V30 1974 C 180.554 -4.2409 -3.00738 0
M  V30 1975 C 178.239 -3.68269 -3.4159 0
M  V30 1976 C 180.233 -5.59422 -3.05492 0
M  V30 1977 C 177.92 -5.0373 -3.45977 0
M  V30 1978 C 178.918 -5.99116 -3.27946 0
M  V30 1979 O 178.606 -7.32108 -3.32074 0
M  V30 1980 H 178.338 -0.406931 -0.539799 0
M  V30 1981 H 180.892 -1.69078 -1.16626 0
M  V30 1982 H 179.122 -1.20528 -3.67437 0
M  V30 1983 H 180.811 -1.62154 -3.72103 0
M  V30 1984 H 181.577 -3.93931 -2.82919 0
M  V30 1985 H 177.456 -2.94496 -3.54673 0
M  V30 1986 H 181 -6.33852 -2.91337 0
M  V30 1987 H 176.897 -5.33543 -3.63321 0
M  V30 1988 H 177.665 -7.40598 -3.48507 0
M  V30 1989 N 180.328 1.1314 -1.09713 0
M  V30 1990 C 181.553 1.88862 -0.857081 0
M  V30 1991 C 181.978 1.78729 0.586304 0
M  V30 1992 O 181.336 1.13692 1.41222 0
M  V30 1993 C 181.384 3.36325 -1.30069 0
M  V30 1994 O 180.488 4.09815 -0.461007 0
M  V30 1995 H 179.829 0.587108 -0.310162 0
M  V30 1996 H 182.359 1.43129 -1.46203 0
M  V30 1997 H 182.369 3.87157 -1.28738 0
M  V30 1998 H 181.044 3.43017 -2.35185 0
M  V30 1999 H 179.621 3.68986 -0.538888 0
M  V30 2000 N 181.806 0.884767 1.30421 0
M  V30 2001 C 182.736 0.367574 2.30589 0
M  V30 2002 C 183.717 -0.549464 1.60981 0
M  V30 2003 O 184.902 -0.46336 1.88591 0
M  V30 2004 C 182.032 -0.418944 3.44764 0
M  V30 2005 C 180.986 0.406316 4.26067 0
M  V30 2006 C 180.312 -0.506793 5.32293 0
M  V30 2007 C 181.612 1.64832 4.95608 0
M  V30 2008 H 183.306 1.20462 2.74097 0
M  V30 2009 H 180.852 0.580695 1.31772 0
M  V30 2010 H 182.805 -0.791395 4.13902 0
M  V30 2011 H 181.529 -1.28964 3.0006 0
M  V30 2012 H 180.188 0.760903 3.58617 0
M  V30 2013 H 179.836 -1.37519 4.83836 0
M  V30 2014 H 179.536 0.0415828 5.87585 0
M  V30 2015 H 181.06 -0.875764 6.04287 0
M  V30 2016 H 182.474 1.34646 5.57264 0
M  V30 2017 H 180.871 2.13688 5.60765 0
M  V30 2018 H 181.941 2.39284 4.21748 0
M  V30 2019 N 183.284 -1.43765 0.645699 0
M  V30 2020 C 184.214 -2.33471 -0.0370477 0
M  V30 2021 C 185.195 -1.49042 -0.819779 0
M  V30 2022 O 186.38 -1.77726 -0.782758 0
M  V30 2023 C 183.51 -3.32311 -1.0093 0
M  V30 2024 C 182.464 -4.2667 -0.337201 0
M  V30 2025 C 181.79 -5.1549 -1.42037 0
M  V30 2026 C 183.09 -5.16657 0.765706 0
M  V30 2027 H 184.784 -2.90809 0.712069 0
M  V30 2028 H 182.33 -1.39834 0.343876 0
M  V30 2029 H 184.283 -3.9396 -1.49578 0
M  V30 2030 H 183.007 -2.73213 -1.78948 0
M  V30 2031 H 181.666 -3.66374 0.128771 0
M  V30 2032 H 181.314 -4.52735 -2.1918 0
M  V30 2033 H 181.014 -5.79438 -0.975966 0
M  V30 2034 H 182.538 -5.80012 -1.90838 0
M  V30 2035 H 183.952 -5.72158 0.361702 0
M  V30 2036 H 182.349 -5.89286 1.13413 0
M  V30 2037 H 183.419 -4.56796 1.62683 0
M  V30 2038 N 184.763 -0.387143 -1.52771 0
M  V30 2039 C 186.04 0.253197 -1.93954 0
M  V30 2040 C 186.42 1.64545 -1.32243 0
M  V30 2041 O 185.768 2.23191 -0.489699 0
M  V30 2042 C 185.978 0.281722 -3.47861 0
M  V30 2043 C 187.326 0.511715 -4.21505 0
M  V30 2044 O 188.35 0.362023 -3.54356 0
M  V30 2045 O 187.209 0.804847 -5.40541 0
M  V30 2046 H 184.303 0.156845 -0.811991 0
M  V30 2047 H 186.849 -0.441494 -1.63856 0
M  V30 2048 H 185.621 -0.693571 -3.85104 0
M  V30 2049 H 185.244 1.02142 -3.84256 0
M  V30 2050 N 186.241 1.57166 -0.116904 0
M  V30 2051 C 187.188 2.15202 0.83408 0
M  V30 2052 C 188.158 1.07644 1.26499 0
M  V30 2053 O 189.343 1.35541 1.34288 0
M  V30 2054 C 186.483 2.75405 2.07957 0
M  V30 2055 C 185.596 3.97264 1.69721 0
M  V30 2056 C 184.731 4.45561 2.89221 0
M  V30 2057 C 183.77 5.59956 2.47215 0
M  V30 2058 N 182.907 6.03006 3.59622 0
M  V30 2059 H 187.747 2.96141 0.332335 0
M  V30 2060 H 185.284 1.46309 0.152349 0
M  V30 2061 H 187.242 3.08439 2.80929 0
M  V30 2062 H 185.872 1.97159 2.55594 0
M  V30 2063 H 184.924 3.70404 0.866316 0
M  V30 2064 H 186.236 4.80226 1.34849 0
M  V30 2065 H 185.39 4.80493 3.7042 0
M  V30 2066 H 184.129 3.61544 3.27318 0
M  V30 2067 H 183.134 5.2463 1.64448 0
M  V30 2068 H 184.359 6.45738 2.10238 0
M  V30 2069 H 182.305 5.21931 3.97396 0
M  V30 2070 H 182.222 6.80819 3.28667 0
M  V30 2071 H 183.49 6.42576 4.41267 0
M  V30 2072 N 187.719 -0.156864 1.56817 0
M  V30 2073 C 188.966 -0.871125 1.82805 0
M  V30 2074 C 189.294 -1.81611 0.696262 0
M  V30 2075 O 188.549 -1.93141 -0.315459 0
M  V30 2076 C 188.848 -1.68737 3.1506 0
M  V30 2077 C 188.514 -0.890045 4.42028 0
M  V30 2078 C 187.176 -0.670042 4.76512 0
M  V30 2079 C 189.528 -0.331769 5.20143 0
M  V30 2080 C 186.856 0.119104 5.86579 0
M  V30 2081 C 189.208 0.444365 6.31037 0
M  V30 2082 C 187.872 0.675035 6.64078 0
M  V30 2083 H 187.142 -0.318767 0.668931 0
M  V30 2084 H 189.789 -0.135274 1.91022 0
M  V30 2085 H 188.094 -2.49304 3.0225 0
M  V30 2086 H 189.791 -2.24331 3.3238 0
M  V30 2087 H 186.381 -1.07157 4.14988 0
M  V30 2088 H 190.565 -0.489043 4.93885 0
M  V30 2089 H 185.821 0.307417 6.10627 0
M  V30 2090 H 189.995 0.884139 6.90765 0
M  V30 2091 H 187.622 1.28839 7.49203 0
M  V30 2092 N 189.197 -1.51736 -0.425897 0
M  V30 2093 C 190.474 -1.55519 -1.1863 0
M  V30 2094 C 190.854 -0.326219 -2.08564 0
M  V30 2095 O 190.202 0.688012 -2.17896 0
M  V30 2096 C 190.412 -2.87521 -1.9782 0
M  V30 2097 C 191.76 -3.39899 -2.54468 0
M  V30 2098 O 192.784 -2.89148 -2.08019 0
M  V30 2099 O 191.643 -4.2848 -3.39215 0
M  V30 2100 H 188.737 -0.625739 -0.540721 0
M  V30 2101 H 191.283 -1.64055 -0.434038 0
M  V30 2102 H 190.055 -3.68422 -1.31836 0
M  V30 2103 H 189.678 -2.822 -2.80088 0
M  V30 2104 N 190.675 0.682077 -1.42076 0
M  V30 2105 C 191.903 1.47057 -1.4554 0
M  V30 2106 C 192.318 1.8869 -0.0645779 0
M  V30 2107 O 191.675 1.57666 0.919115 0
M  V30 2108 C 191.726 2.72442 -2.37609 0
M  V30 2109 O 191.447 2.32559 -3.71279 0
M  V30 2110 C 192.948 3.66069 -2.50017 0
M  V30 2111 H 190.168 0.452737 -0.495248 0
M  V30 2112 H 192.712 0.838695 -1.8651 0
M  V30 2113 H 190.867 3.31835 -1.9991 0
M  V30 2114 H 191.281 3.13475 -4.20516 0
M  V30 2115 H 192.755 4.50792 -3.18576 0
M  V30 2116 H 193.232 4.11476 -1.53572 0
M  V30 2117 H 193.838 3.12572 -2.88407 0
M  V30 2118 N 192.153 1.28127 0.917671 0
M  V30 2119 C 193.101 1.11569 2.04096 0
M  V30 2120 C 194.095 0.0360242 1.69362 0
M  V30 2121 O 195.301 0.194501 1.78946 0
M  V30 2122 H 191.676 0.344097 0.668656 0
M  V30 2123 H 193.647 2.06711 2.15205 0
M  V30 2124 C 192.396 0.790197 3.38602 0
M  V30 2125 H 191.719 1.61293 3.6582 0
M  V30 2126 H 193.159 0.714271 4.1794 0
M  V30 2127 C 191.618 -0.505897 3.3308 0
M  V30 2128 O 192.148 -1.53736 3.71117 0
M  V30 2129 N 190.354 -0.505193 2.86175 0
M  V30 2130 H 189.901 0.334621 2.55417 0
M  V30 2131 H 189.859 -1.37243 2.82863 0
M  V30 2132 N 193.631 -1.12557 1.10312 0
M  V30 2133 C 194.856 -1.88405 0.867085 0
M  V30 2134 C 195.281 -1.79038 -0.576817 0
M  V30 2135 O 194.639 -1.14439 -1.40618 0
M  V30 2136 C 194.687 -3.3563 1.31851 0
M  V30 2137 O 193.791 -4.09565 0.482734 0
M  V30 2138 H 193.132 -0.585455 0.313271 0
M  V30 2139 H 195.662 -1.42352 1.4696 0
M  V30 2140 H 195.672 -3.86469 1.3079 0
M  V30 2141 H 194.347 -3.41765 2.37001 0
M  V30 2142 H 192.924 -3.68695 0.558448 0
M  V30 2143 N 195.109 -0.891671 -1.2995 0
M  V30 2144 C 196.057 -0.353066 -2.29905 0
M  V30 2145 C 197.051 0.543509 -1.60444 0
M  V30 2146 O 198.257 0.4272 -1.74857 0
M  V30 2147 H 194.632 -0.095531 -0.745907 0
M  V30 2148 H 196.603 -1.20961 -2.72784 0
M  V30 2149 C 195.352 0.411475 -3.45257 0
M  V30 2150 H 194.675 -0.269182 -3.98893 0
M  V30 2151 H 196.115 0.753328 -4.17254 0
M  V30 2152 C 194.574 1.6111 -2.9588 0
M  V30 2153 O 195.104 2.71045 -2.96475 0
M  V30 2154 N 193.31 1.45054 -2.51809 0
M  V30 2155 H 192.857 0.556175 -2.51524 0
M  V30 2156 H 192.815 2.25453 -2.1913 0
M  V30 2157 N 196.587 1.43421 -0.653314 0
M  V30 2158 C 197.812 2.06678 -0.172846 0
M  V30 2159 C 198.237 1.48648 1.15262 0
M  V30 2160 O 197.595 0.596457 1.71208 0
M  V30 2161 C 197.643 3.60474 -0.0953184 0
M  V30 2162 O 196.747 4.01487 0.942442 0
M  V30 2163 H 196.088 0.657181 -0.0949155 0
M  V30 2164 H 198.618 1.83925 -0.896265 0
M  V30 2165 H 198.628 4.07905 0.0879728 0
M  V30 2166 H 197.303 4.02088 -1.06291 0
M  V30 2167 H 195.88 3.65646 0.731932 0
M  V30 2168 N 198.065 0.39524 1.52563 0
M  V30 2169 C 199.311 -0.185318 2.01952 0
M  V30 2170 C 199.644 -1.45964 1.28095 0
M  V30 2171 O 198.919 -1.90689 0.38315 0
M  V30 2172 C 199.202 -0.447193 3.57312 0
M  V30 2173 C 199.055 0.842828 4.41833 0
M  V30 2174 C 200.374 -1.23529 4.22408 0
M  V30 2175 H 197.493 -0.0658788 0.73405 0
M  V30 2176 H 200.135 0.525975 1.82575 0
M  V30 2177 H 198.285 -1.05312 3.73954 0
M  V30 2178 H 199.957 1.4795 4.36931 0
M  V30 2179 H 198.2 1.45686 4.08605 0
M  V30 2180 H 198.871 0.614165 5.48573 0
M  V30 2181 H 201.347 -0.722445 4.0978 0
M  V30 2182 H 200.223 -1.38727 5.3108 0
M  V30 2183 H 200.484 -2.25213 3.80436 0
M  V30 2184 N 199.544 -1.57102 0.125237 0
M  V30 2185 C 200.769 -2.0019 -0.542101 0
M  V30 2186 C 201.194 -1.00449 -1.59034 0
M  V30 2187 O 200.552 0.0229423 -1.81285 0
M  V30 2188 C 200.6 -3.42129 -1.13929 0
M  V30 2189 O 199.704 -3.45307 -2.2547 0
M  V30 2190 H 199.045 -0.650171 -0.134812 0
M  V30 2191 H 201.575 -2.03461 0.215553 0
M  V30 2192 H 201.585 -3.80471 -1.4733 0
M  V30 2193 H 200.26 -4.14237 -0.371531 0
M  V30 2194 H 198.837 -3.1879 -1.93462 0
M  V30 2195 N 201.022 0.148545 -1.56898 0
M  V30 2196 C 202.269 0.861418 -1.83264 0
M  V30 2197 C 202.597 1.81239 -0.705883 0
M  V30 2198 O 201.852 1.93305 0.305212 0
M  V30 2199 C 202.151 1.67064 -3.1595 0
M  V30 2200 C 201.817 0.866591 -4.42494 0
M  V30 2201 C 200.479 0.644762 -4.76861 0
M  V30 2202 C 202.831 0.30418 -5.20312 0
M  V30 2203 C 200.159 -0.15021 -5.86508 0
M  V30 2204 C 202.511 -0.477824 -6.30793 0
M  V30 2205 C 201.175 -0.710244 -6.63711 0
M  V30 2206 H 200.445 0.315215 -0.670612 0
M  V30 2207 H 203.092 0.125142 -1.91091 0
M  V30 2208 H 201.397 2.47698 -3.03567 0
M  V30 2209 H 203.094 2.22566 -3.33565 0
M  V30 2210 H 199.684 1.04955 -4.15551 0
M  V30 2211 H 203.868 0.462844 -4.94137 0
M  V30 2212 H 199.124 -0.339796 -6.10455 0
M  V30 2213 H 203.298 -0.92076 -6.90286 0
M  V30 2214 H 200.925 -1.3281 -7.48509 0
M  V30 2215 N 202.5 1.5196 0.417844 0
M  V30 2216 C 203.448 1.75278 1.52907 0
M  V30 2217 C 204.442 0.619611 1.57662 0
M  V30 2218 O 205.648 0.801457 1.61173 0
M  V30 2219 H 202.023 0.554141 0.508362 0
M  V30 2220 H 203.994 2.68389 1.30422 0
M  V30 2221 C 202.743 1.91262 2.90369 0
M  V30 2222 H 202.066 2.77872 2.8745 0
M  V30 2223 H 203.506 2.11581 3.67436 0
M  V30 2224 C 201.965 0.677431 3.30019 0
M  V30 2225 O 202.495 -0.158799 4.01386 0
M  V30 2226 N 200.701 0.515851 2.85985 0
M  V30 2227 H 200.248 1.19744 2.28077 0
M  V30 2228 H 200.206 -0.309315 3.12875 0
M  V30 2229 N 203.978 -0.674533 1.42435 0
M  V30 2230 C 204.908 -1.80009 1.48724 0
M  V30 2231 C 205.889 -1.6659 0.343793 0
M  V30 2232 O 207.074 -1.86007 0.558137 0
M  V30 2233 C 204.204 -3.18306 1.38919 0
M  V30 2234 C 203.158 -3.46461 2.51294 0
M  V30 2235 C 202.484 -4.84335 2.26547 0
M  V30 2236 C 203.784 -3.43328 3.93603 0
M  V30 2237 H 205.478 -1.75004 2.42928 0
M  V30 2238 H 203.024 -0.840533 1.16923 0
M  V30 2239 H 204.977 -3.9678 1.41927 0
M  V30 2240 H 203.701 -3.2399 0.412094 0
M  V30 2241 H 202.36 -2.70348 2.47604 0
M  V30 2242 H 202.008 -4.86669 1.2713 0
M  V30 2243 H 201.708 -5.04136 3.01861 0
M  V30 2244 H 203.232 -5.65094 2.31304 0
M  V30 2245 H 204.646 -4.11772 3.98894 0
M  V30 2246 H 203.043 -3.74664 4.68771 0
M  V30 2247 H 204.113 -2.41897 4.20255 0
M  V30 2248 N 205.456 -1.28612 -0.910864 0
M  V30 2249 C 206.386 -1.15326 -2.03032 0
M  V30 2250 C 207.367 -0.0502924 -1.70026 0
M  V30 2251 O 208.552 -0.227797 -1.92859 0
M  V30 2252 C 205.682 -0.817343 -3.37545 0
M  V30 2253 C 204.636 -1.8754 -3.84724 0
M  V30 2254 C 203.962 -1.39305 -5.16235 0
M  V30 2255 C 205.262 -3.28244 -4.06267 0
M  V30 2256 H 206.956 -2.08975 -2.14406 0
M  V30 2257 H 204.502 -1.00612 -1.03021 0
M  V30 2258 H 206.455 -0.711151 -4.15356 0
M  V30 2259 H 205.179 0.154846 -3.26233 0
M  V30 2260 H 203.838 -1.97079 -3.09121 0
M  V30 2261 H 203.486 -0.409846 -5.01328 0
M  V30 2262 H 203.186 -2.10057 -5.48771 0
M  V30 2263 H 204.71 -1.30014 -5.96598 0
M  V30 2264 H 206.124 -3.21611 -4.74594 0
M  V30 2265 H 204.521 -3.96855 -4.5014 0
M  V30 2266 H 205.591 -3.72048 -3.10979 0
M  V30 2267 N 206.934 1.1197 -1.10907 0
M  V30 2268 C 207.844 2.21433 -0.774896 0
M  V30 2269 C 208.86 1.72478 0.229657 0
M  V30 2270 O 210.036 2.01288 0.0672008 0
M  V30 2271 C 207.101 3.4602 -0.216986 0
M  V30 2272 C 206.162 4.09791 -1.27944 0
M  V30 2273 C 205.395 5.28431 -0.748055 0
M  V30 2274 O 205.618 5.68823 0.423833 0
M  V30 2275 O 204.552 5.82644 -1.51027 0
M  V30 2276 H 208.378 2.5242 -1.68873 0
M  V30 2277 H 205.963 1.20399 -0.884555 0
M  V30 2278 H 207.845 4.21304 0.090059 0
M  V30 2279 H 206.52 3.16698 0.669633 0
M  V30 2280 H 205.427 3.36265 -1.63941 0
M  V30 2281 H 206.76 4.4328 -2.13925 0
M  V30 2282 N 208.412 0.89855 1.29475 0
M  V30 2283 C 209.344 0.332726 2.26772 0
M  V30 2284 C 210.357 -0.520323 1.54261 0
M  V30 2285 O 211.546 -0.337668 1.75277 0
M  V30 2286 C 208.646 -0.544334 3.345 0
M  V30 2287 C 207.819 0.282728 4.36485 0
M  V30 2288 C 206.878 -0.526982 5.23555 0
M  V30 2289 O 205.904 0.0551165 5.69173 0
M  V30 2290 N 207.106 -1.83331 5.5079 0
M  V30 2291 H 209.871 1.16897 2.75962 0
M  V30 2292 H 207.432 0.762919 1.42798 0
M  V30 2293 H 209.424 -1.09239 3.89678 0
M  V30 2294 H 207.994 -1.28127 2.85136 0
M  V30 2295 H 207.214 1.01221 3.80983 0
M  V30 2296 H 208.502 0.84918 5.01664 0
M  V30 2297 H 207.9 -2.32898 5.15534 0
M  V30 2298 H 206.457 -2.32852 6.08788 0
M  V30 2299 N 209.89 -1.43072 0.660911 0
M  V30 2300 C 211.167 -1.95307 0.107017 0
M  V30 2301 C 211.547 -1.60192 -1.37484 0
M  V30 2302 O 210.895 -0.890949 -2.10415 0
M  V30 2303 C 211.105 -3.47124 0.361402 0
M  V30 2304 C 212.453 -4.23738 0.270455 0
M  V30 2305 O 213.477 -3.54981 0.294382 0
M  V30 2306 O 212.336 -5.46131 0.200737 0
M  V30 2307 H 209.43 -0.826984 -0.00517729 0
M  V30 2308 H 211.976 -1.52972 0.734681 0
M  V30 2309 H 210.748 -3.65837 1.38848 0
M  V30 2310 H 210.371 -3.96475 -0.298953 0
M  V30 2311 N 211.368 -0.403325 -1.52352 0
M  V30 2312 C 212.779 0.0675782 -1.86578 0
M  V30 2313 C 213.13 1.44941 -1.32236 0
M  V30 2314 O 212.255 2.06112 -0.659307 0
M  V30 2315 C 212.85 0.129404 -3.38553 0
M  V30 2316 C 211.409 0.544629 -3.72439 0
M  V30 2317 C 210.556 -0.284551 -2.75836 0
M  V30 2318 H 213.507 -0.620631 -1.46061 0
M  V30 2319 H 213.528 0.94581 -3.68558 0
M  V30 2320 H 213.04 -0.87645 -3.78074 0
M  V30 2321 H 211.141 1.55734 -3.38493 0
M  V30 2322 H 211.254 0.293046 -4.78203 0
M  V30 2323 H 209.618 0.252258 -2.53448 0
M  V30 2324 H 210.401 -1.28865 -3.18196 0
M  V30 2325 N 212.846 1.57033 -0.133567 0
M  V30 2326 C 214.071 2.00475 0.531477 0
M  V30 2327 C 214.496 1.01291 1.58499 0
M  V30 2328 O 213.854 -0.0133279 1.81295 0
M  V30 2329 C 213.902 3.42729 1.12113 0
M  V30 2330 O 213.006 3.46498 2.23636 0
M  V30 2331 H 212.347 0.650876 0.131362 0
M  V30 2332 H 214.877 2.03344 -0.22634 0
M  V30 2333 H 214.887 3.81246 1.4531 0
M  V30 2334 H 213.562 4.14428 0.349557 0
M  V30 2335 H 212.139 3.19811 1.91769 0
M  V30 2336 N 214.325 -0.140222 1.56975 0
M  V30 2337 C 215.573 -0.850005 1.83356 0
M  V30 2338 C 215.894 -1.81399 0.71551 0
M  V30 2339 O 215.164 -1.94136 -0.262294 0
M  V30 2340 H 213.744 -0.316886 0.676456 0
M  V30 2341 H 216.406 -0.132608 1.94448 0
M  V30 2342 H 215.502 -1.40814 2.78528 0
M  V30 2343 N 215.803 -1.52179 -0.40978 0
M  V30 2344 C 216.766 -1.74853 -1.48186 0
M  V30 2345 C 217.766 -0.618417 -1.48433 0
M  V30 2346 O 218.956 -0.886286 -1.49969 0
M  V30 2347 C 216.088 -1.8303 -2.87598 0
M  V30 2348 H 217.281 -2.70559 -1.29374 0
M  V30 2349 H 214.834 -1.42586 -0.640233 0
M  V30 2350 H 215.569 -0.89236 -3.11781 0
M  V30 2351 H 215.354 -2.65187 -2.88822 0
M  V30 2352 H 216.844 -2.02316 -3.65319 0
M  V30 2353 N 217.281 0.66697 -1.42791 0
M  V30 2354 C 218.509 1.45505 -1.47091 0
M  V30 2355 C 218.924 1.8861 -0.0845873 0
M  V30 2356 O 218.281 1.58632 0.90234 0
M  V30 2357 C 218.332 2.69906 -2.40485 0
M  V30 2358 O 218.053 2.28608 -3.73725 0
M  V30 2359 C 219.554 3.63396 -2.53886 0
M  V30 2360 H 216.774 0.447459 -0.500022 0
M  V30 2361 H 219.318 0.818866 -1.8739 0
M  V30 2362 H 217.473 3.29696 -2.03419 0
M  V30 2363 H 217.887 3.08997 -4.23817 0
M  V30 2364 H 219.361 4.47387 -3.2334 0
M  V30 2365 H 219.838 4.09824 -1.57927 0
M  V30 2366 H 220.444 3.09495 -2.91706 0
M  V30 2367 N 218.759 1.29093 0.90403 0
M  V30 2368 C 219.987 1.19689 1.68766 0
M  V30 2369 C 220.402 -0.243113 1.87228 0
M  V30 2370 O 219.759 -1.16326 1.40621 0
M  V30 2371 C 219.81 1.90144 3.07453 0
M  V30 2372 O 219.531 3.2852 2.89838 0
M  V30 2373 C 221.032 1.87162 4.01852 0
M  V30 2374 H 218.252 0.415035 0.527244 0
M  V30 2375 H 220.796 1.7039 1.13082 0
M  V30 2376 H 218.951 1.43289 3.59926 0
M  V30 2377 H 219.365 3.63944 3.77684 0
M  V30 2378 H 220.839 2.41032 4.96596 0
M  V30 2379 H 221.316 0.84617 4.30972 0
M  V30 2380 H 221.922 2.33741 3.5531 0
M  V30 2381 N 220.237 -1.11381 1.11499 0
M  V30 2382 C 221.184 -2.17439 0.773887 0
M  V30 2383 C 222.154 -1.64132 -0.254899 0
M  V30 2384 O 223.339 -1.90345 -0.13168 0
M  V30 2385 C 220.479 -3.44373 0.223917 0
M  V30 2386 C 219.592 -4.1168 1.30934 0
M  V30 2387 C 218.727 -5.263 0.71984 0
M  V30 2388 C 217.766 -5.85493 1.78507 0
M  V30 2389 N 216.903 -6.91507 1.21502 0
M  V30 2390 H 221.743 -2.45962 1.68246 0
M  V30 2391 H 219.28 -1.20744 0.840191 0
M  V30 2392 H 221.238 -4.17047 -0.112921 0
M  V30 2393 H 219.868 -3.16232 -0.647851 0
M  V30 2394 H 218.92 -3.37073 1.76312 0
M  V30 2395 H 220.232 -4.51729 2.11524 0
M  V30 2396 H 219.386 -6.05785 0.333094 0
M  V30 2397 H 218.125 -4.87559 -0.117377 0
M  V30 2398 H 217.13 -5.04686 2.18111 0
M  V30 2399 H 218.355 -6.26301 2.62533 0
M  V30 2400 H 216.301 -6.54783 0.399455 0
M  V30 2401 H 216.218 -7.30214 1.95763 0
M  V30 2402 H 217.486 -7.74795 0.855181 0
M  V30 2403 N 221.715 -0.905404 -1.28997 0
M  V30 2404 C 222.94 -0.549175 -1.99997 0
M  V30 2405 C 223.365 0.860276 -1.67275 0
M  V30 2406 O 222.723 1.57355 -0.900502 0
M  V30 2407 C 222.771 -0.755185 -3.52604 0
M  V30 2408 O 221.875 0.189692 -4.11964 0
M  V30 2409 H 221.216 -0.213899 -0.628604 0
M  V30 2410 H 223.746 -1.21856 -1.64354 0
M  V30 2411 H 223.756 -0.662045 -4.02593 0
M  V30 2412 H 222.431 -1.78271 -3.75755 0
M  V30 2413 H 221.008 0.0485257 -3.72868 0
M  V30 2414 N 223.193 1.4272 -0.668489 0
M  V30 2415 C 224.156 2.292 0.00448567 0
M  V30 2416 C 225.156 1.43001 0.735339 0
M  V30 2417 O 226.346 1.64461 0.57429 0
M  V30 2418 C 223.478 3.25375 1.01705 0
M  V30 2419 H 224.671 2.90199 -0.756608 0
M  V30 2420 H 222.224 1.50254 -0.430506 0
M  V30 2421 H 222.959 2.69301 1.80686 0
M  V30 2422 H 222.744 3.88944 0.496463 0
M  V30 2423 H 224.234 3.90245 1.48655 0
M  V30 2424 N 224.671 0.411399 1.52136 0
M  V30 2425 C 225.604 -0.457614 2.23565 0
M  V30 2426 C 226.582 -1.04613 1.24478 0
M  V30 2427 O 227.766 -1.09356 1.53536 0
M  V30 2428 C 224.893 -1.6354 2.96602 0
M  V30 2429 C 223.939 -1.17005 4.10137 0
M  V30 2430 S 224.772 -0.13333 5.35334 0
M  V30 2431 C 225.928 -1.31638 6.119 0
M  V30 2432 H 226.161 0.148883 2.96927 0
M  V30 2433 H 223.694 0.195713 1.53155 0
M  V30 2434 H 225.652 -2.31074 3.39286 0
M  V30 2435 H 224.313 -2.21324 2.22878 0
M  V30 2436 H 223.506 -2.05005 4.60422 0
M  V30 2437 H 223.108 -0.573319 3.6958 0
M  V30 2438 H 225.4 -2.23957 6.39413 0
M  V30 2439 H 226.343 -0.854014 7.02931 0
M  V30 2440 H 226.751 -1.54321 5.42997 0
M  V30 2441 N 226.149 -1.5696 0.141893 0
M  V30 2442 C 227.079 -2.19516 -0.795936 0
M  V30 2443 C 228.06 -1.14187 -1.26077 0
M  V30 2444 O 229.245 -1.42511 -1.31925 0
M  V30 2445 C 226.375 -2.81272 -2.03723 0
M  V30 2446 C 225.329 -3.92384 -1.70936 0
M  V30 2447 C 224.655 -4.41052 -3.02287 0
M  V30 2448 C 225.955 -5.13403 -0.959954 0
M  V30 2449 H 227.649 -2.98138 -0.274596 0
M  V30 2450 H 225.195 -1.43406 -0.130636 0
M  V30 2451 H 227.148 -3.237 -2.69808 0
M  V30 2452 H 225.872 -1.99973 -2.58221 0
M  V30 2453 H 224.531 -3.50566 -1.07232 0
M  V30 2454 H 224.179 -3.56582 -3.54765 0
M  V30 2455 H 223.879 -5.15993 -2.81114 0
M  V30 2456 H 225.403 -4.86146 -3.69451 0
M  V30 2457 H 226.817 -5.52706 -1.52279 0
M  V30 2458 H 225.214 -5.94073 -0.848357 0
M  V30 2459 H 226.284 -4.84875 0.0492434 0
M  V30 2460 N 227.627 0.131896 -1.57047 0
M  V30 2461 C 228.855 0.856461 -1.88341 0
M  V30 2462 C 229.27 1.74042 -0.731757 0
M  V30 2463 O 228.627 1.80051 0.297945 0
M  V30 2464 C 228.678 1.70064 -3.18999 0
M  V30 2465 O 228.399 0.852278 -4.2973 0
M  V30 2466 C 229.9 2.53148 -3.63911 0
M  V30 2467 H 227.12 0.246885 -0.62393 0
M  V30 2468 H 229.664 0.120152 -2.04147 0
M  V30 2469 H 227.819 2.38984 -3.04902 0
M  V30 2470 H 228.233 1.43329 -5.04537 0
M  V30 2471 H 229.707 3.07931 -4.58129 0
M  V30 2472 H 230.184 3.29901 -2.89935 0
M  V30 2473 H 230.79 1.89492 -3.80753 0
M  V30 2474 N 229.106 1.52395 0.401703 0
M  V30 2475 C 230.054 1.7689 1.51039 0
M  V30 2476 C 231.048 0.636298 1.56996 0
M  V30 2477 O 232.254 0.818507 1.60314 0
M  V30 2478 H 228.629 0.559502 0.502456 0
M  V30 2479 H 230.6 2.69757 1.27568 0
M  V30 2480 C 229.349 1.94331 2.88324 0
M  V30 2481 H 228.672 2.80905 2.84486 0
M  V30 2482 H 230.112 2.15466 3.65172 0
M  V30 2483 C 228.571 0.712396 3.29282 0
M  V30 2484 O 229.101 -0.116218 4.01532 0
M  V30 2485 N 227.307 0.546154 2.85422 0
M  V30 2486 H 226.854 1.22156 2.26794 0
M  V30 2487 H 226.812 -0.276113 3.13185 0
M  V30 2488 N 230.584 -0.659388 1.43143 0
M  V30 2489 C 231.514 -1.78422 1.50625 0
M  V30 2490 C 232.495 -1.66216 0.361443 0
M  V30 2491 O 233.68 -1.85404 0.577834 0
M  V30 2492 C 230.81 -3.16815 1.42287 0
M  V30 2493 C 229.764 -3.43777 2.54954 0
M  V30 2494 C 229.09 -4.81905 2.31671 0
M  V30 2495 C 230.39 -3.39134 3.97222 0
M  V30 2496 H 232.084 -1.72417 2.44771 0
M  V30 2497 H 229.63 -0.828084 1.17808 0
M  V30 2498 H 231.583 -3.95253 1.46127 0
M  V30 2499 H 230.307 -3.23534 0.446435 0
M  V30 2500 H 228.966 -2.67707 2.50457 0
M  V30 2501 H 228.614 -4.85294 1.32284 0
M  V30 2502 H 228.314 -5.00906 3.07192 0
M  V30 2503 H 229.838 -5.62609 2.37284 0
M  V30 2504 H 231.252 -4.07518 4.03239 0
M  V30 2505 H 229.649 -3.69671 4.72719 0
M  V30 2506 H 230.719 -2.37426 4.22797 0
M  V30 2507 N 232.062 -1.29571 -0.897171 0
M  V30 2508 C 233.311 -1.1706 -1.64256 0
M  V30 2509 C 233.624 0.276476 -1.93636 0
M  V30 2510 O 234.83 0.52294 -2.66416 0
M  V30 2511 C 233.286 -2.0475 -2.95982 0
M  V30 2512 C 232.894 -3.54295 -2.74187 0
M  V30 2513 C 234.638 -2.0097 -3.73914 0
M  V30 2514 C 232.545 -4.34081 -4.01656 0
M  V30 2515 H 231.475 -0.43452 -0.616205 0
M  V30 2516 H 234.126 -1.54229 -0.994268 0
M  V30 2517 H 232.508 -1.60452 -3.62038 0
M  V30 2518 H 233.682 -4.06662 -2.1671 0
M  V30 2519 H 231.997 -3.59773 -2.09648 0
M  V30 2520 H 234.594 -2.57838 -4.68427 0
M  V30 2521 H 234.937 -0.990273 -4.0435 0
M  V30 2522 H 235.47 -2.43325 -3.14703 0
M  V30 2523 H 232.209 -5.36671 -3.76384 0
M  V30 2524 H 231.729 -3.86483 -4.58684 0
M  V30 2525 H 233.408 -4.44877 -4.69781 0
M  V30 2526 N 233.54 1.10788 -1.12088 0
M  V30 2527 C 234.789 1.82036 -0.868659 0
M  V30 2528 C 235.102 1.85929 0.607426 0
M  V30 2529 O 236.308 2.53346 0.97613 0
M  V30 2530 C 234.764 3.26951 -1.50435 0
M  V30 2531 C 234.372 3.31367 -3.01496 0
M  V30 2532 C 236.116 4.03053 -1.33225 0
M  V30 2533 C 234.023 4.7072 -3.58017 0
M  V30 2534 H 232.953 0.682108 -0.321318 0
M  V30 2535 H 235.604 1.24618 -1.34694 0
M  V30 2536 H 233.986 3.84343 -0.953735 0
M  V30 2537 H 235.16 2.83819 -3.6302 0
M  V30 2538 H 233.475 2.6875 -3.18061 0
M  V30 2539 H 236.072 5.05981 -1.72878 0
M  V30 2540 H 236.415 4.15387 -0.275529 0
M  V30 2541 H 236.948 3.52066 -1.85188 0
M  V30 2542 H 233.687 4.63585 -4.63432 0
M  V30 2543 H 233.207 5.1865 -3.01268 0
M  V30 2544 H 234.886 5.39685 -3.56859 0
M  V30 2545 N 235.018 0.912232 1.28515 0
M  V30 2546 C 236.265 0.544599 1.95039 0
M  V30 2547 C 236.593 -0.911435 1.71823 0
M  V30 2548 O 235.848 -1.66317 1.03137 0
M  V30 2549 C 236.147 0.798392 3.48368 0
M  V30 2550 C 235.813 2.23374 3.91682 0
M  V30 2551 C 234.475 2.62617 4.03219 0
M  V30 2552 C 236.827 3.16786 4.13879 0
M  V30 2553 C 234.155 3.94429 4.3433 0
M  V30 2554 C 236.507 4.48161 4.46469 0
M  V30 2555 C 235.171 4.8726 4.56217 0
M  V30 2556 H 234.441 0.199283 0.7137 0
M  V30 2557 H 237.088 1.15327 1.52879 0
M  V30 2558 H 235.393 0.106908 3.91654 0
M  V30 2559 H 237.09 0.493141 3.97956 0
M  V30 2560 H 233.68 1.91922 3.83228 0
M  V30 2561 H 237.864 2.87677 4.0442 0
M  V30 2562 H 233.12 4.24426 4.40082 0
M  V30 2563 H 237.294 5.20559 4.62592 0
M  V30 2564 H 234.921 5.89431 4.80078 0
M  V30 2565 N 236.496 -1.42363 0.676048 0
M  V30 2566 C 237.744 -2.01123 0.198437 0
M  V30 2567 C 238.065 -1.53731 -1.19966 0
M  V30 2568 O 237.335 -0.759518 -1.80577 0
M  V30 2569 H 235.915 -0.743678 0.0703721 0
M  V30 2570 H 238.577 -1.74263 0.872837 0
M  V30 2571 H 237.673 -3.11454 0.200686 0
M  V30 2572 N 237.974 -0.419461 -1.51915 0
M  V30 2573 C 239.385 0.0477853 -1.86639 0
M  V30 2574 C 239.736 1.43531 -1.33766 0
M  V30 2575 O 238.861 2.05401 -0.68113 0
M  V30 2576 C 239.456 0.0934885 -3.38671 0
M  V30 2577 C 238.015 0.505097 -3.72996 0
M  V30 2578 C 237.162 -0.313792 -2.75519 0
M  V30 2579 H 240.113 -0.636088 -1.45395 0
M  V30 2580 H 240.134 0.906667 -3.6954 0
M  V30 2581 H 239.646 -0.916501 -3.77123 0
M  V30 2582 H 237.747 1.52135 -3.40126 0
M  V30 2583 H 237.86 0.242309 -4.78487 0
M  V30 2584 H 236.224 0.225363 -2.53701 0
M  V30 2585 H 237.007 -1.32232 -3.16812 0
M  V30 2586 N 239.452 1.56882 -0.150215 0
M  V30 2587 C 240.7 1.9584 0.499105 0
M  V30 2588 C 241.021 1.03623 1.65188 0
M  V30 2589 O 240.291 0.0984084 1.95653 0
M  V30 2590 H 238.871 0.723119 0.187373 0
M  V30 2591 H 241.533 1.9358 -0.226466 0
M  V30 2592 H 240.629 2.99638 0.873122 0
M  V30 2593 N 240.93 -0.123565 1.57115 0
M  V30 2594 C 242.341 -0.681198 1.73829 0
M  V30 2595 C 242.692 -1.80535 0.768214 0
M  V30 2596 O 241.817 -2.16317 -0.0599103 0
M  V30 2597 C 242.412 -1.24246 3.15196 0
M  V30 2598 C 240.971 -1.74643 3.33432 0
M  V30 2599 C 240.118 -0.644284 2.69711 0
M  V30 2600 H 243.069 0.102315 1.5837 0
M  V30 2601 H 243.09 -2.11216 3.16493 0
M  V30 2602 H 242.602 -0.424062 3.85776 0
M  V30 2603 H 240.703 -2.58974 2.67886 0
M  V30 2604 H 240.816 -1.85902 4.41562 0
M  V30 2605 H 239.18 -1.07676 2.3082 0
M  V30 2606 H 239.963 0.163058 3.42913 0
M  V30 2607 N 242.408 -1.52605 -0.393616 0
M  V30 2608 C 243.654 -1.67672 -1.14079 0
M  V30 2609 C 243.987 -0.413121 -1.89755 0
M  V30 2610 O 243.262 0.588952 -1.85369 0
M  V30 2611 C 243.545 -2.9088 -2.12276 0
M  V30 2612 C 243.398 -4.27329 -1.40394 0
M  V30 2613 C 244.717 -3.09628 -3.12759 0
M  V30 2614 H 241.836 -0.610168 -0.413356 0
M  V30 2615 H 244.478 -1.85193 -0.424696 0
M  V30 2616 H 242.628 -2.76073 -2.73342 0
M  V30 2617 H 244.3 -4.53894 -0.82327 0
M  V30 2618 H 242.543 -4.2802 -0.705801 0
M  V30 2619 H 243.214 -5.09615 -2.12123 0
M  V30 2620 H 245.69 -3.23436 -2.61779 0
M  V30 2621 H 244.566 -3.97322 -3.78717 0
M  V30 2622 H 244.827 -2.23637 -3.81365 0
M  V30 2623 N 243.887 0.651787 -1.4349 0
M  V30 2624 C 244.817 1.77621 -1.51569 0
M  V30 2625 C 245.798 1.66022 -0.370253 0
M  V30 2626 O 246.983 1.85095 -0.587658 0
M  V30 2627 C 244.113 3.16056 -1.43966 0
M  V30 2628 C 243.067 3.4242 -2.56774 0
M  V30 2629 C 242.393 4.8067 -2.34223 0
M  V30 2630 C 243.693 3.37023 -3.99015 0
M  V30 2631 H 245.387 1.71117 -2.45681 0
M  V30 2632 H 242.933 0.821825 -1.18246 0
M  V30 2633 H 244.886 3.94472 -1.48221 0
M  V30 2634 H 243.61 3.23293 -0.463586 0
M  V30 2635 H 242.269 2.66375 -2.51873 0
M  V30 2636 H 241.917 4.84585 -1.34856 0
M  V30 2637 H 241.617 4.9927 -3.09844 0
M  V30 2638 H 243.141 5.61342 -2.40265 0
M  V30 2639 H 244.555 4.05374 -4.05395 0
M  V30 2640 H 242.952 3.67159 -4.74673 0
M  V30 2641 H 244.022 2.3518 -4.2405 0
M  V30 2642 N 245.365 1.30045 0.890287 0
M  V30 2643 C 246.313 1.15873 2.01683 0
M  V30 2644 C 247.307 0.0719403 1.69247 0
M  V30 2645 O 248.513 0.232414 1.78493 0
M  V30 2646 H 244.888 0.358203 0.661207 0
M  V30 2647 H 246.859 2.11229 2.10772 0
M  V30 2648 C 245.608 0.861842 3.36849 0
M  V30 2649 H 244.931 1.69016 3.62317 0
M  V30 2650 H 246.371 0.802762 4.16331 0
M  V30 2651 C 244.83 -0.435132 3.34078 0
M  V30 2652 O 245.36 -1.4583 3.74295 0
M  V30 2653 N 243.566 -0.444377 2.87182 0
M  V30 2654 H 243.113 0.388723 2.5465 0
M  V30 2655 H 243.071 -1.31213 2.85711 0
M  V30 2656 N 246.843 -1.10192 1.12674 0
M  V30 2657 C 247.79 -2.16606 0.796906 0
M  V30 2658 C 248.76 -1.64394 -0.237476 0
M  V30 2659 O 249.945 -1.90474 -0.111484 0
M  V30 2660 C 247.085 -3.44116 0.26043 0
M  V30 2661 C 246.198 -4.10268 1.35293 0
M  V30 2662 C 245.333 -5.25507 0.775621 0
M  V30 2663 C 244.372 -5.83567 1.84706 0
M  V30 2664 N 243.509 -6.90179 1.28829 0
M  V30 2665 H 248.349 -2.44163 1.70846 0
M  V30 2666 H 245.886 -1.19846 0.85295 0
M  V30 2667 H 247.844 -4.17143 -0.0686814 0
M  V30 2668 H 246.474 -3.16901 -0.614274 0
M  V30 2669 H 245.526 -3.35184 1.79877 0
M  V30 2670 H 246.838 -4.4946 2.16303 0
M  V30 2671 H 245.992 -6.05398 0.397327 0
M  V30 2672 H 244.731 -4.87656 -0.0656581 0
M  V30 2673 H 243.736 -5.02344 2.23452 0
M  V30 2674 H 244.961 -6.23482 2.69161 0
M  V30 2675 H 242.907 -6.54322 0.468881 0
M  V30 2676 H 242.824 -7.28097 2.03497 0
M  V30 2677 H 244.092 -7.73844 0.937311 0
M  V30 2678 N 248.321 -0.919034 -1.28029 0
M  V30 2679 C 249.269 -0.401753 -2.29104 0
M  V30 2680 C 250.263 0.509354 -1.61561 0
M  V30 2681 O 251.469 0.390014 -1.75724 0
M  V30 2682 H 247.844 -0.111331 -0.743713 0
M  V30 2683 H 249.815 -1.2672 -2.70156 0
M  V30 2684 C 248.564 0.338148 -3.46052 0
M  V30 2685 H 247.887 -0.353732 -3.98232 0
M  V30 2686 H 249.327 0.664653 -4.18758 0
M  V30 2687 C 247.786 1.54798 -2.99231 0
M  V30 2688 O 248.316 2.64696 -3.02157 0
M  V30 2689 N 246.522 1.3968 -2.54829 0
M  V30 2690 H 246.069 0.502698 -2.52647 0
M  V30 2691 H 246.027 2.20755 -2.23863 0
M  V30 2692 N 249.799 1.42003 -0.683588 0
M  V30 2693 C 250.709 2.34597 -0.0109075 0
M  V30 2694 C 251.725 1.55576 0.779245 0
M  V30 2695 O 252.901 1.88107 0.719555 0
M  V30 2696 C 249.966 3.34199 0.922588 0
M  V30 2697 C 249.027 4.29115 0.125984 0
M  V30 2698 C 248.26 5.23959 1.01502 0
M  V30 2699 O 248.483 5.23952 2.25456 0
M  V30 2700 O 247.417 6.00053 0.47111 0
M  V30 2701 H 251.243 2.93675 -0.773853 0
M  V30 2702 H 248.828 1.42654 -0.443861 0
M  V30 2703 H 250.71 3.95365 1.45823 0
M  V30 2704 H 249.385 2.77582 1.66523 0
M  V30 2705 H 248.292 3.71335 -0.453969 0
M  V30 2706 H 249.625 4.88798 -0.577736 0
M  V30 2707 N 251.277 0.427512 1.51691 0
M  V30 2708 C 252.523 -0.142439 2.02299 0
M  V30 2709 C 252.856 -1.43214 1.31162 0
M  V30 2710 O 252.131 -1.89833 0.423511 0
M  V30 2711 C 252.414 -0.371301 3.58181 0
M  V30 2712 C 252.267 0.936358 4.39946 0
M  V30 2713 C 253.586 -1.14542 4.24933 0
M  V30 2714 H 250.705 -0.0502937 0.735282 0
M  V30 2715 H 253.347 0.564584 1.81418 0
M  V30 2716 H 251.497 -0.973559 3.76104 0
M  V30 2717 H 253.169 1.57184 4.33694 0
M  V30 2718 H 251.412 1.5432 4.05423 0
M  V30 2719 H 252.083 0.730388 5.47147 0
M  V30 2720 H 254.559 -0.635362 4.11221 0
M  V30 2721 H 253.435 -1.27431 5.33903 0
M  V30 2722 H 253.696 -2.17093 3.85127 0
M  V30 2723 N 252.755 -1.56801 0.158532 0
M  V30 2724 C 254.171 -1.5837 -0.197774 0
M  V30 2725 C 254.371 -1.17334 -1.63814 0
M  V30 2726 O 253.427 -0.878988 -2.36707 0
M  V30 2727 C 254.74 -3.00615 0.0714459 0
M  V30 2728 C 256.288 -3.12999 0.00864533 0
M  V30 2729 C 256.763 -4.57313 0.250685 0
M  V30 2730 N 258.254 -4.62777 0.198014 0
M  V30 2731 C 258.989 -5.72271 0.359642 0
M  V30 2732 N 258.485 -6.90371 0.579625 0
M  V30 2733 N 260.278 -5.61318 0.296438 0
M  V30 2734 H 252.429 -1.81765 1.09887 0
M  V30 2735 H 254.692 -0.841849 0.435884 0
M  V30 2736 H 254.398 -3.35068 1.06874 0
M  V30 2737 H 254.272 -3.71683 -0.642757 0
M  V30 2738 H 256.659 -2.7838 -0.979217 0
M  V30 2739 H 256.74 -2.44393 0.755359 0
M  V30 2740 H 256.384 -4.92639 1.2357 0
M  V30 2741 H 256.314 -5.24061 -0.516489 0
M  V30 2742 H 258.805 -3.77885 0.0331115 0
M  V30 2743 H 259.118 -7.69689 0.69275 0
M  V30 2744 H 257.463 -6.92264 0.616087 0
M  V30 2745 H 260.654 -4.67932 0.125258 0
M  V30 2746 H 260.827 -6.46599 0.425831 0
M  V30 2747 N 254.233 0.115231 -1.57178 0
M  V30 2748 C 255.481 0.820727 -1.84685 0
M  V30 2749 C 255.802 1.80237 -0.744279 0
M  V30 2750 O 255.072 1.94529 0.231375 0
M  V30 2751 H 253.652 0.306084 -0.681411 0
M  V30 2752 H 256.314 0.101656 -1.94635 0
M  V30 2753 H 255.41 1.36366 -2.80733 0
M  V30 2754 N 255.711 1.52812 0.385517 0
M  V30 2755 C 256.96 1.67249 1.12741 0
M  V30 2756 C 257.273 0.4205 1.91027 0
M  V30 2757 O 258.479 0.445064 2.67827 0
M  V30 2758 C 256.935 2.95583 2.05326 0
M  V30 2759 C 256.543 4.27974 1.32447 0
M  V30 2760 C 258.287 3.19386 2.7963 0
M  V30 2761 C 256.194 5.47412 2.23818 0
M  V30 2762 H 255.124 0.6231 0.424573 0
M  V30 2763 H 257.775 1.79309 0.389924 0
M  V30 2764 H 256.157 2.77277 2.82725 0
M  V30 2765 H 257.331 4.56844 0.602495 0
M  V30 2766 H 255.646 4.10459 0.700885 0
M  V30 2767 H 258.243 4.05801 3.48181 0
M  V30 2768 H 258.586 2.34604 3.43899 0
M  V30 2769 H 259.119 3.38274 2.09322 0
M  V30 2770 H 255.858 6.34612 1.64157 0
M  V30 2771 H 255.378 5.22849 2.93921 0
M  V30 2772 H 257.057 5.81423 2.83824 0
M  V30 2773 N 257.189 -0.644168 1.43834 0
M  V30 2774 C 258.435 -1.40603 1.46146 0
M  V30 2775 C 258.768 -1.93997 0.0887717 0
M  V30 2776 O 258.043 -1.72854 -0.891724 0
M  V30 2777 C 258.326 -2.58086 2.51124 0
M  V30 2778 C 258.179 -2.10126 3.97702 0
M  V30 2779 C 259.498 -3.60291 2.52742 0
M  V30 2780 H 256.617 -0.509905 0.532134 0
M  V30 2781 H 259.259 -0.729502 1.75437 0
M  V30 2782 H 257.409 -3.15801 2.26278 0
M  V30 2783 H 259.081 -1.57342 4.33637 0
M  V30 2784 H 257.324 -1.41419 4.10101 0
M  V30 2785 H 257.995 -2.94649 4.66783 0
M  V30 2786 H 260.471 -3.12352 2.7491 0
M  V30 2787 H 259.347 -4.40032 3.28121 0
M  V30 2788 H 259.608 -4.1349 1.56455 0
M  V30 2789 N 258.668 -1.30515 -0.883378 0
M  V30 2790 C 259.598 -1.19607 -2.00541 0
M  V30 2791 C 260.579 -0.086346 -1.69881 0
M  V30 2792 O 261.764 -0.268654 -1.92333 0
M  V30 2793 C 258.894 -0.888758 -3.35736 0
M  V30 2794 C 257.848 -1.95659 -3.8066 0
M  V30 2795 C 257.174 -1.50224 -5.13164 0
M  V30 2796 C 258.474 -3.36788 -3.99213 0
M  V30 2797 H 260.168 -2.13476 -2.09925 0
M  V30 2798 H 257.714 -1.02775 -1.00863 0
M  V30 2799 H 259.667 -0.799094 -4.13754 0
M  V30 2800 H 258.391 0.0856125 -3.26488 0
M  V30 2801 H 257.05 -2.03591 -3.04871 0
M  V30 2802 H 256.698 -0.516092 -5.00345 0
M  V30 2803 H 256.398 -2.2165 -5.44192 0
M  V30 2804 H 257.922 -1.42639 -5.93706 0
M  V30 2805 H 259.336 -3.31605 -4.67665 0
M  V30 2806 H 257.733 -4.06314 -4.41621 0
M  V30 2807 H 258.803 -3.78561 -3.03017 0
M  V30 2808 N 260.146 1.09593 -1.13257 0
M  V30 2809 C 261.562 1.33775 -0.870423 0
M  V30 2810 C 261.762 1.95327 0.494926 0
M  V30 2811 O 260.818 2.19853 1.2418 0
M  V30 2812 C 262.131 2.25106 -1.99369 0
M  V30 2813 C 263.679 2.3862 -2.02558 0
M  V30 2814 C 264.154 3.33285 -3.14142 0
M  V30 2815 N 265.645 3.40857 -3.13641 0
M  V30 2816 C 266.38 4.14101 -3.96621 0
M  V30 2817 N 265.876 4.90157 -4.8961 0
M  V30 2818 N 267.669 4.09808 -3.84726 0
M  V30 2819 H 259.82 0.680136 -2.01216 0
M  V30 2820 H 262.083 0.362133 -0.876107 0
M  V30 2821 H 261.789 1.87103 -2.97801 0
M  V30 2822 H 261.663 3.25481 -1.90635 0
M  V30 2823 H 264.05 2.75887 -1.0474 0
M  V30 2824 H 264.131 1.38028 -2.15364 0
M  V30 2825 H 263.775 2.96741 -4.12198 0
M  V30 2826 H 263.705 4.33776 -2.98574 0
M  V30 2827 H 266.196 2.86624 -2.46282 0
M  V30 2828 H 266.509 5.4347 -5.49418 0
M  V30 2829 H 264.854 4.89251 -4.93617 0
M  V30 2830 H 268.045 3.4949 -3.11408 0
M  V30 2831 H 268.218 4.66629 -4.49623 0
M  V30 2832 N 261.624 0.925811 1.2754 0
M  V30 2833 C 262.87 0.566092 1.94739 0
M  V30 2834 C 263.203 -0.890057 1.72603 0
M  V30 2835 O 262.478 -1.63467 1.05399 0
M  V30 2836 C 262.761 0.89054 3.48915 0
M  V30 2837 C 262.614 2.4003 3.80402 0
M  V30 2838 C 263.933 0.395101 4.38323 0
M  V30 2839 H 261.052 0.20714 0.707292 0
M  V30 2840 H 263.694 1.15725 1.50691 0
M  V30 2841 H 261.844 0.387452 3.86563 0
M  V30 2842 H 263.516 2.97494 3.52555 0
M  V30 2843 H 261.759 2.85028 3.2702 0
M  V30 2844 H 262.43 2.57785 4.8811 0
M  V30 2845 H 264.906 0.826241 4.07814 0
M  V30 2846 H 263.782 0.651086 5.45025 0
M  V30 2847 H 264.043 -0.704798 4.36446 0
M  V30 2848 N 263.102 -1.41638 0.69111 0
M  V30 2849 C 264.379 -1.95036 0.148421 0
M  V30 2850 C 264.759 -1.63072 -1.34055 0
M  V30 2851 O 264.107 -0.93538 -2.08478 0
M  V30 2852 C 264.317 -3.46279 0.434951 0
M  V30 2853 C 265.665 -4.23069 0.360275 0
M  V30 2854 O 266.689 -3.54277 0.369613 0
M  V30 2855 O 265.548 -5.45583 0.316534 0
M  V30 2856 H 262.642 -0.826908 0.0123654 0
M  V30 2857 H 265.188 -1.5138 0.766963 0
M  V30 2858 H 263.96 -3.6281 1.46576 0
M  V30 2859 H 263.583 -3.97019 -0.214787 0
M  V30 2860 N 264.58 -0.43555 -1.51462 0
M  V30 2861 C 265.528 0.391205 -2.29287 0
M  V30 2862 C 266.522 1.02247 -1.35062 0
M  V30 2863 O 267.728 0.957646 -1.52411 0
M  V30 2864 H 264.103 0.144968 -0.737895 0
M  V30 2865 H 266.074 -0.286051 -2.97026 0
M  V30 2866 C 264.823 1.48096 -3.14583 0
M  V30 2867 H 264.146 1.00457 -3.86973 0
M  V30 2868 H 265.586 2.03273 -3.72097 0
M  V30 2869 C 264.045 2.46321 -2.29843 0
M  V30 2870 O 264.575 3.50815 -1.95682 0
M  V30 2871 N 262.781 2.17166 -1.931 0
M  V30 2872 H 262.328 1.32218 -2.21079 0
M  V30 2873 H 262.286 2.83127 -1.36698 0
M  V30 2874 N 266.058 1.56714 -0.166846 0
M  V30 2875 C 267.005 2.17746 0.765193 0
M  V30 2876 C 267.975 1.11614 1.23011 0
M  V30 2877 O 269.16 1.39745 1.29908 0
M  V30 2878 C 266.3 2.81882 1.9909 0
M  V30 2879 C 265.413 4.02462 1.56997 0
M  V30 2880 C 264.548 4.54537 2.749 0
M  V30 2881 C 263.587 5.67538 2.29275 0
M  V30 2882 N 262.724 6.14142 3.40255 0
M  V30 2883 H 267.564 2.97048 0.237952 0
M  V30 2884 H 265.101 1.4672 0.105725 0
M  V30 2885 H 267.059 3.17221 2.70974 0
M  V30 2886 H 265.689 2.05191 2.49192 0
M  V30 2887 H 264.741 3.72973 0.748037 0
M  V30 2888 H 266.053 4.84273 1.19503 0
M  V30 2889 H 265.207 4.92035 3.54946 0
M  V30 2890 H 263.946 3.71774 3.1565 0
M  V30 2891 H 262.951 5.29597 1.47674 0
M  V30 2892 H 264.176 6.52099 1.89588 0
M  V30 2893 H 262.122 5.3431 3.8059 0
M  V30 2894 H 262.039 6.9093 3.06841 0
M  V30 2895 H 263.307 6.56289 4.206 0
M  V30 2896 N 267.536 -0.106894 1.57237 0
M  V30 2897 C 268.484 -1.14944 2.02215 0
M  V30 2898 C 269.478 -1.42167 0.92114 0
M  V30 2899 O 270.684 -1.41987 1.10634 0
M  V30 2900 H 267.059 -0.387841 0.64427 0
M  V30 2901 H 269.03 -0.743683 2.88984 0
M  V30 2902 C 267.779 -2.4647 2.4525 0
M  V30 2903 H 267.102 -2.26363 3.29545 0
M  V30 2904 H 268.542 -3.17948 2.80508 0
M  V30 2905 C 267.001 -3.09921 1.321 0
M  V30 2906 O 267.531 -3.9651 0.643622 0
M  V30 2907 N 265.737 -2.69986 1.07497 0
M  V30 2908 H 265.284 -1.99667 1.62761 0
M  V30 2909 H 265.242 -3.12769 0.319876 0
M  V30 2910 N 269.014 -1.53014 -0.377408 0
M  V30 2911 C 270.244 -1.72265 -1.14054 0
M  V30 2912 C 270.652 -0.44601 -1.83868 0
M  V30 2913 O 269.995 0.590095 -1.73964 0
M  V30 2914 C 270.057 -2.82492 -2.22348 0
M  V30 2915 C 269.721 -4.23233 -1.72402 0
M  V30 2916 C 270.718 -5.05992 -1.19448 0
M  V30 2917 C 268.403 -4.696 -1.78273 0
M  V30 2918 C 270.397 -6.33203 -0.730268 0
M  V30 2919 C 268.084 -5.96792 -1.31464 0
M  V30 2920 C 269.082 -6.78424 -0.789297 0
M  V30 2921 O 268.77 -8.0323 -0.328077 0
M  V30 2922 H 268.502 -0.579873 -0.347453 0
M  V30 2923 H 271.056 -2.00502 -0.445882 0
M  V30 2924 H 269.286 -2.49702 -2.95272 0
M  V30 2925 H 270.975 -2.90034 -2.83963 0
M  V30 2926 H 271.741 -4.71349 -1.14259 0
M  V30 2927 H 267.62 -4.06142 -2.18106 0
M  V30 2928 H 271.164 -6.96868 -0.319542 0
M  V30 2929 H 267.061 -6.30937 -1.36342 0
M  V30 2930 H 267.829 -8.1727 -0.448493 0
M  V30 2931 N 270.492 0.636531 -1.44174 0
M  V30 2932 C 271.739 1.39619 -1.46672 0
M  V30 2933 C 272.067 1.94257 -0.0972691 0
M  V30 2934 O 271.322 1.73768 0.900175 0
M  V30 2935 C 271.621 2.58309 -2.47005 0
M  V30 2936 C 271.287 2.21992 -3.92467 0
M  V30 2937 C 269.949 2.118 -4.32081 0
M  V30 2938 C 272.301 1.9321 -4.84065 0
M  V30 2939 C 269.629 1.71007 -5.61225 0
M  V30 2940 C 271.981 1.53911 -6.13591 0
M  V30 2941 C 270.645 1.42257 -6.52165 0
M  V30 2942 H 269.915 0.510902 -0.536712 0
M  V30 2943 H 272.562 0.722328 -1.77355 0
M  V30 2944 H 270.867 3.30903 -2.09786 0
M  V30 2945 H 272.564 3.16533 -2.46186 0
M  V30 2946 H 269.154 2.30841 -3.61124 0
M  V30 2947 H 273.338 1.99997 -4.54219 0
M  V30 2948 H 268.594 1.60583 -5.89935 0
M  V30 2949 H 272.768 1.30677 -6.8403 0
M  V30 2950 H 270.395 1.10419 -7.52138 0
M  V30 2951 N 271.97 1.30982 0.876444 0
M  V30 2952 C 273.381 1.18277 1.44456 0
M  V30 2953 C 273.732 -0.213265 1.95037 0
M  V30 2954 O 272.857 -1.11057 1.85729 0
M  V30 2955 C 273.452 2.1411 2.62569 0
M  V30 2956 C 272.011 2.05358 3.15444 0
M  V30 2957 C 271.158 2.03706 1.88146 0
M  V30 2958 H 274.109 1.43127 0.685584 0
M  V30 2959 H 274.13 1.72692 3.39054 0
M  V30 2960 H 273.642 3.15706 2.25724 0
M  V30 2961 H 271.743 1.06934 3.56926 0
M  V30 2962 H 271.856 2.94156 3.78166 0
M  V30 2963 H 270.22 1.48629 2.06837 0
M  V30 2964 H 271.003 3.07047 1.53547 0
M  V30 2965 N 273.449 -1.08991 1.13837 0
M  V30 2966 C 274.689 -1.82867 0.913183 0
M  V30 2967 C 275.053 -1.83936 -0.550604 0
M  V30 2968 O 276.254 -2.53515 -0.893515 0
M  V30 2969 C 274.525 -3.24843 1.49036 0
M  V30 2970 S 276.084 -4.15669 1.40588 0
M  V30 2971 H 272.902 -0.630278 0.329046 0
M  V30 2972 H 275.504 -1.31049 1.45073 0
M  V30 2973 H 274.208 -3.21644 2.54899 0
M  V30 2974 H 273.739 -3.81734 0.950947 0
M  V30 2975 H 275.754 -4.94686 0.387353 0
M  V30 2976 N 274.927 -0.932562 -1.27047 0
M  V30 2977 C 276.343 -0.633544 -1.46487 0
M  V30 2978 C 276.543 0.815746 -1.84249 0
M  V30 2979 O 275.599 1.59319 -1.95892 0
M  V30 2980 C 276.912 -1.58758 -2.55375 0
M  V30 2981 C 278.46 -1.59634 -2.69232 0
M  V30 2982 C 278.935 -2.53747 -3.81283 0
M  V30 2983 N 280.426 -2.51982 -3.88664 0
M  V30 2984 C 281.161 -3.21491 -4.74796 0
M  V30 2985 N 280.657 -4.00395 -5.65381 0
M  V30 2986 N 282.45 -3.10485 -4.68568 0
M  V30 2987 H 274.601 -1.86946 -1.00821 0
M  V30 2988 H 276.864 -0.802897 -0.504044 0
M  V30 2989 H 276.57 -2.62172 -2.34432 0
M  V30 2990 H 276.444 -1.33301 -3.52861 0
M  V30 2991 H 278.831 -0.569488 -2.89553 0
M  V30 2992 H 278.912 -1.89142 -1.72218 0
M  V30 2993 H 278.556 -3.56545 -3.61715 0
M  V30 2994 H 278.486 -2.21532 -4.77735 0
M  V30 2995 H 280.977 -1.94681 -3.23895 0
M  V30 2996 H 281.29 -4.50406 -6.27976 0
M  V30 2997 H 279.635 -4.04498 -5.65161 0
M  V30 2998 H 282.826 -2.48331 -3.96799 0
M  V30 2999 H 282.999 -3.64925 -5.35475 0
M  V30 3000 N 276.405 1.4127 -0.698611 0
M  V30 3001 C 277.682 1.94955 -0.158762 0
M  V30 3002 C 278.062 1.63781 1.33188 0
M  V30 3003 O 277.41 0.946423 2.07979 0
M  V30 3004 C 277.62 3.46044 -0.453309 0
M  V30 3005 C 278.968 4.22872 -0.382707 0
M  V30 3006 O 279.992 3.54076 -0.388396 0
M  V30 3007 O 278.851 5.45407 -0.345463 0
M  V30 3008 H 275.945 0.82683 -0.0167505 0
M  V30 3009 H 278.491 1.50971 -0.77498 0
M  V30 3010 H 277.263 3.62028 -1.48498 0
M  V30 3011 H 276.886 3.97128 0.19373 0
M  V30 3012 N 277.883 0.443576 1.51229 0
M  V30 3013 C 279.131 -0.120557 2.0174 0
M  V30 3014 C 279.452 -1.42665 1.32935 0
M  V30 3015 O 278.722 -1.9028 0.465866 0
M  V30 3016 H 277.302 -0.0475426 0.745486 0
M  V30 3017 H 279.964 0.587711 1.85828 0
M  V30 3018 H 279.06 -0.291972 3.10731 0
M  V30 3019 N 279.361 -1.56624 0.175154 0
M  V30 3020 C 280.608 -1.96999 -0.468811 0
M  V30 3021 C 280.936 -1.06129 -1.62994 0
M  V30 3022 O 280.191 -0.0961771 -1.95464 0
M  V30 3023 C 280.49 -3.43419 -0.989864 0
M  V30 3024 C 280.156 -4.50866 0.0557687 0
M  V30 3025 C 278.818 -4.79975 0.343134 0
M  V30 3026 C 281.17 -5.15551 0.765308 0
M  V30 3027 C 278.498 -5.71066 1.34536 0
M  V30 3028 C 280.85 -6.07724 1.75654 0
M  V30 3029 C 279.514 -6.35199 2.05132 0
M  V30 3030 H 278.784 -0.720869 -0.17155 0
M  V30 3031 H 281.431 -1.89616 0.267924 0
M  V30 3032 H 279.736 -3.47772 -1.80449 0
M  V30 3033 H 281.433 -3.72002 -1.49719 0
M  V30 3034 H 278.023 -4.28229 -0.178381 0
M  V30 3035 H 282.207 -4.9317 0.556513 0
M  V30 3036 H 277.463 -5.90635 1.57988 0
M  V30 3037 H 281.637 -6.56912 2.31169 0
M  V30 3038 H 279.264 -7.05584 2.8294 0
M  V30 3039 N 280.839 0.0985539 -1.57292 0
M  V30 3040 C 282.087 0.801092 -1.85545 0
M  V30 3041 C 282.408 1.79438 -0.763353 0
M  V30 3042 O 281.678 1.94763 0.21073 0
M  V30 3043 H 280.258 0.29884 -0.684619 0
M  V30 3044 H 282.92 0.0810064 -1.94732 0
M  V30 3045 H 282.016 1.3338 -2.82163 0
M  V30 3046 N 282.317 1.53212 0.369288 0
M  V30 3047 C 283.542 1.73423 1.1375 0
M  V30 3048 C 283.967 0.460404 1.82378 0
M  V30 3049 O 283.325 -0.585298 1.71592 0
M  V30 3050 C 283.373 2.89769 2.1463 0
M  V30 3051 O 282.477 2.58119 3.21634 0
M  V30 3052 H 281.818 0.576061 0.330227 0
M  V30 3053 H 284.348 2.00083 0.427547 0
M  V30 3054 H 284.358 3.15829 2.58294 0
M  V30 3055 H 283.033 3.8217 1.64071 0
M  V30 3056 H 281.61 2.42864 2.82969 0
M  V30 3057 N 283.795 -0.628877 1.44509 0
M  V30 3058 C 285.044 -1.38437 1.4669 0
M  V30 3059 C 285.357 -1.95322 0.104272 0
M  V30 3060 O 286.563 -2.715 0.00362163 0
M  V30 3061 C 285.019 -2.50659 2.5826 0
M  V30 3062 C 284.627 -2.00277 4.0074 0
M  V30 3063 C 286.371 -3.27844 2.69664 0
M  V30 3064 C 284.278 -3.09854 5.0373 0
M  V30 3065 H 283.208 -0.520245 0.545766 0
M  V30 3066 H 285.859 -0.676313 1.70582 0
M  V30 3067 H 284.241 -3.2405 2.27612 0
M  V30 3068 H 285.415 -1.33736 4.40966 0
M  V30 3069 H 283.73 -1.35901 3.93599 0
M  V30 3070 H 286.327 -4.09534 3.43781 0
M  V30 3071 H 286.67 -3.77471 1.75559 0
M  V30 3072 H 287.203 -2.61543 2.99733 0
M  V30 3073 H 283.942 -2.65168 5.99472 0
M  V30 3074 H 283.462 -3.7503 4.68095 0
M  V30 3075 H 285.141 -3.74592 5.27532 0
M  V30 3076 N 285.273 -1.31445 -0.869486 0
M  V30 3077 C 286.206 -1.13465 -1.97992 0
M  V30 3078 C 287.184 -0.0380291 -1.62556 0
M  V30 3079 O 288.368 -0.194544 -1.87493 0
M  V30 3080 C 285.495 -0.733822 -3.30655 0
M  V30 3081 C 284.541 -1.83356 -3.85075 0
M  V30 3082 S 285.374 -3.43909 -4.10472 0
M  V30 3083 C 286.53 -3.05763 -5.46132 0
M  V30 3084 H 286.763 -2.07471 -2.1294 0
M  V30 3085 H 284.296 -1.15936 -1.01972 0
M  V30 3086 H 286.254 -0.509306 -4.07328 0
M  V30 3087 H 284.915 0.187123 -3.13542 0
M  V30 3088 H 284.108 -1.50574 -4.80982 0
M  V30 3089 H 283.71 -2.01315 -3.15195 0
M  V30 3090 H 286.002 -2.54686 -6.27807 0
M  V30 3091 H 286.945 -4.00635 -5.83864 0
M  V30 3092 H 287.353 -2.43192 -5.09429 0
M  V30 3093 N 286.751 1.08385 -1.14413 0
M  V30 3094 C 287.683 2.1519 -0.789036 0
M  V30 3095 C 288.696 1.61638 0.19417 0
M  V30 3096 O 289.885 1.78479 -0.0275711 0
M  V30 3097 C 286.985 3.38565 -0.15058 0
M  V30 3098 C 286.158 4.21501 -1.16857 0
M  V30 3099 C 285.217 5.23277 -0.553832 0
M  V30 3100 O 284.243 5.56041 -1.21686 0
M  V30 3101 N 285.445 5.76629 0.669296 0
M  V30 3102 H 288.21 2.46257 -1.70814 0
M  V30 3103 H 285.771 1.24198 -1.03858 0
M  V30 3104 H 287.763 4.03777 0.273181 0
M  V30 3105 H 286.333 3.05299 0.671667 0
M  V30 3106 H 285.553 3.52265 -1.76926 0
M  V30 3107 H 286.841 4.73731 -1.85624 0
M  V30 3108 H 286.239 5.52243 1.22654 0
M  V30 3109 H 284.796 6.43521 1.03556 0
M  V30 3110 N 288.23 0.939286 1.26551 0
M  V30 3111 C 289.163 0.391702 2.24813 0
M  V30 3112 C 290.141 -0.518421 1.54114 0
M  V30 3113 O 291.325 -0.456299 1.82894 0
M  V30 3114 C 288.452 -0.437382 3.35864 0
M  V30 3115 C 287.498 0.410946 4.24516 0
M  V30 3116 S 288.331 1.83372 5.03125 0
M  V30 3117 C 289.487 1.01264 6.17654 0
M  V30 3118 H 289.72 1.22448 2.70913 0
M  V30 3119 H 287.253 0.742269 1.35387 0
M  V30 3120 H 289.211 -0.909837 4.0029 0
M  V30 3121 H 287.872 -1.24482 2.8838 0
M  V30 3122 H 287.065 -0.224191 5.03501 0
M  V30 3123 H 286.667 0.818014 3.64945 0
M  V30 3124 H 288.959 0.254023 6.77024 0
M  V30 3125 H 289.902 1.77589 6.85469 0
M  V30 3126 H 290.31 0.549532 5.61819 0
M  V30 3127 N 289.708 -1.40897 0.706093 0
M  V30 3128 C 290.671 -2.29131 0.0562841 0
M  V30 3129 C 291.671 -1.44901 -0.697166 0
M  V30 3130 O 292.861 -1.65926 -0.530484 0
M  V30 3131 C 289.993 -3.27957 -0.93043 0
M  V30 3132 H 291.186 -2.88091 0.833284 0
M  V30 3133 H 288.739 -1.4906 0.470192 0
M  V30 3134 H 289.474 -2.73997 -1.73482 0
M  V30 3135 H 289.259 -3.90124 -0.393166 0
M  V30 3136 H 290.749 -3.94049 -1.38256 0
M  V30 3137 N 291.186 -0.45159 -1.50991 0
M  V30 3138 C 292.433 0.110074 -2.02201 0
M  V30 3139 C 292.761 1.4146 -1.33489 0
M  V30 3140 O 292.016 1.90617 -0.443125 0
M  V30 3141 C 292.315 0.361728 -3.55565 0
M  V30 3142 C 291.981 -0.858717 -4.42648 0
M  V30 3143 C 290.643 -1.19338 -4.66167 0
M  V30 3144 C 292.995 -1.67221 -4.93646 0
M  V30 3145 C 290.323 -2.34195 -5.37931 0
M  V30 3146 C 292.675 -2.8119 -5.6667 0
M  V30 3147 C 291.339 -3.15094 -5.88449 0
M  V30 3148 H 290.609 0.040279 -0.739904 0
M  V30 3149 H 293.256 -0.601696 -1.81802 0
M  V30 3150 H 291.561 1.15554 -3.74372 0
M  V30 3151 H 293.258 0.80996 -3.92735 0
M  V30 3152 H 289.848 -0.58796 -4.24548 0
M  V30 3153 H 294.032 -1.42686 -4.75347 0
M  V30 3154 H 289.288 -2.6076 -5.53005 0
M  V30 3155 H 293.462 -3.44585 -6.05173 0
M  V30 3156 H 291.089 -4.04204 -6.43835 0
M  V30 3157 N 292.664 1.56529 -0.183458 0
M  V30 3158 C 293.904 1.99141 0.460667 0
M  V30 3159 C 294.268 1.06736 1.59597 0
M  V30 3160 O 295.469 1.38538 2.30349 0
M  V30 3161 C 293.74 3.45358 0.919939 0
M  V30 3162 S 295.299 4.09999 1.56354 0
M  V30 3163 H 292.117 0.695479 0.147748 0
M  V30 3164 H 294.719 1.93429 -0.283782 0
M  V30 3165 H 293.423 4.10315 0.0834208 0
M  V30 3166 H 292.954 3.54862 1.69814 0
M  V30 3167 H 294.969 4.06046 2.85203 0
M  V30 3168 N 294.142 -0.090211 1.57342 0
M  V30 3169 C 295.553 -0.644173 1.75235 0
M  V30 3170 C 295.904 -1.78865 0.806335 0
M  V30 3171 O 295.029 -2.16395 -0.0140128 0
M  V30 3172 C 295.624 -1.17532 3.1776 0
M  V30 3173 C 294.183 -1.67531 3.37061 0
M  V30 3174 C 293.33 -0.58693 2.71017 0
M  V30 3175 H 296.281 0.135884 1.58117 0
M  V30 3176 H 296.302 -2.04455 3.20902 0
M  V30 3177 H 295.814 -0.342138 3.86589 0
M  V30 3178 H 293.915 -2.53234 2.73319 0
M  V30 3179 H 294.028 -1.76493 4.45406 0
M  V30 3180 H 292.392 -1.02756 2.33052 0
M  V30 3181 H 293.175 0.235758 3.4249 0
M  V30 3182 N 295.62 -1.53406 -0.361157 0
M  V30 3183 C 296.53 -1.83122 -1.4664 0
M  V30 3184 C 297.546 -0.719943 -1.58407 0
M  V30 3185 O 298.722 -1.01046 -1.74218 0
M  V30 3186 C 295.787 -2.01891 -2.81853 0
M  V30 3187 C 294.848 -3.25784 -2.79577 0
M  V30 3188 C 294.081 -3.43648 -4.0834 0
M  V30 3189 O 294.304 -2.65714 -5.0473 0
M  V30 3190 O 293.238 -4.37018 -4.13883 0
M  V30 3191 H 297.064 -2.7703 -1.24451 0
M  V30 3192 H 294.649 -1.38841 -0.551678 0
M  V30 3193 H 296.531 -2.15782 -3.61962 0
M  V30 3194 H 295.206 -1.11173 -3.0401 0
M  V30 3195 H 294.113 -3.17312 -1.98151 0
M  V30 3196 H 295.446 -4.16439 -2.62373 0
M  V30 3197 N 297.098 0.621204 -1.44841 0
M  V30 3198 C 298.328 1.40548 -1.51426 0
M  V30 3199 C 298.736 1.88673 -0.141083 0
M  V30 3200 O 298.079 1.62053 0.865128 0
M  V30 3201 C 298.141 2.65325 -2.42576 0
M  V30 3202 C 297.805 2.3893 -3.89566 0
M  V30 3203 C 298.802 2.00138 -4.79834 0
M  V30 3204 C 296.487 2.52263 -4.3436 0
M  V30 3205 C 298.481 1.75021 -6.129 0
M  V30 3206 C 296.168 2.2676 -5.67471 0
M  V30 3207 C 297.166 1.88199 -6.56559 0
M  V30 3208 O 296.854 1.62986 -7.87204 0
M  V30 3209 H 296.586 0.437122 -0.515655 0
M  V30 3210 H 299.14 0.765987 -1.90583 0
M  V30 3211 H 297.37 3.31947 -1.98364 0
M  V30 3212 H 299.059 3.27347 -2.39998 0
M  V30 3213 H 299.825 1.89386 -4.46495 0
M  V30 3214 H 295.704 2.81246 -3.65269 0
M  V30 3215 H 299.248 1.44848 -6.82396 0
M  V30 3216 H 295.145 2.37125 -6.00368 0
M  V30 3217 H 295.913 1.7715 -7.991 0
M  V30 3218 N 298.576 1.31904 0.862503 0
M  V30 3219 C 299.822 1.22197 1.61851 0
M  V30 3220 C 300.155 -0.217641 1.92977 0
M  V30 3221 O 299.43 -1.15264 1.56666 0
M  V30 3222 C 299.713 2.07378 2.94391 0
M  V30 3223 C 299.566 3.59678 2.70096 0
M  V30 3224 C 300.885 1.92891 3.95577 0
M  V30 3225 H 298.004 0.445255 0.587296 0
M  V30 3226 H 300.646 1.6177 0.99651 0
M  V30 3227 H 298.796 1.73758 3.47477 0
M  V30 3228 H 300.468 4.03472 2.23625 0
M  V30 3229 H 298.711 3.82735 2.04197 0
M  V30 3230 H 299.382 4.14595 3.64438 0
M  V30 3231 H 301.858 2.22327 3.51724 0
M  V30 3232 H 300.734 2.54781 4.86187 0
M  V30 3233 H 300.995 0.894315 4.3296 0
M  V30 3234 N 300.054 -1.07777 1.14986 0
M  V30 3235 C 301.465 -1.61766 0.932127 0
M  V30 3236 C 301.816 -1.88974 -0.527581 0
M  V30 3237 O 300.941 -1.65198 -1.39781 0
M  V30 3238 C 301.536 -2.93891 1.68563 0
M  V30 3239 C 300.095 -3.44639 1.5133 0
M  V30 3240 C 299.242 -2.18767 1.704 0
M  V30 3241 H 302.193 -0.909201 1.30074 0
M  V30 3242 H 302.214 -3.62623 1.15259 0
M  V30 3243 H 301.726 -2.74057 2.74799 0
M  V30 3244 H 299.827 -3.69564 0.474702 0
M  V30 3245 H 299.94 -4.20966 2.28746 0
M  V30 3246 H 298.304 -2.28253 1.13016 0
M  V30 3247 H 299.087 -2.01433 2.77992 0
M  V30 3248 N 301.532 -0.945985 -1.26051 0
M  V30 3249 C 302.76 -0.613025 -1.9761 0
M  V30 3250 C 303.175 0.813035 -1.70397 0
M  V30 3251 O 302.532 1.54274 -0.974979 0
M  V30 3252 C 302.583 -0.85159 -3.51326 0
M  V30 3253 O 302.304 -2.22157 -3.77595 0
M  V30 3254 C 303.805 -0.529831 -4.40122 0
M  V30 3255 H 301.025 -0.230593 -0.630133 0
M  V30 3256 H 303.569 -1.268 -1.60443 0
M  V30 3257 H 301.724 -0.243151 -3.86636 0
M  V30 3258 H 302.138 -2.2852 -4.721 0
M  V30 3259 H 303.612 -0.747348 -5.46917 0
M  V30 3260 H 304.089 0.535341 -4.35925 0
M  V30 3261 H 304.695 -1.11721 -4.10364 0
M  V30 3262 N 303.011 1.40521 -0.713556 0
M  V30 3263 C 304.258 2.00923 -0.25219 0
M  V30 3264 C 304.586 1.56571 1.15395 0
M  V30 3265 O 303.841 0.775874 1.79663 0
M  V30 3266 C 304.14 3.56317 -0.278 0
M  V30 3267 C 303.806 4.20246 -1.63415 0
M  V30 3268 C 302.468 4.37422 -2.00538 0
M  V30 3269 C 304.82 4.55923 -2.52554 0
M  V30 3270 C 302.148 4.87558 -3.2635 0
M  V30 3271 C 304.5 5.07458 -3.77716 0
M  V30 3272 C 303.164 5.22843 -4.14959 0
M  V30 3273 H 302.434 0.735231 -0.0922829 0
M  V30 3274 H 305.081 1.68161 -0.916188 0
M  V30 3275 H 303.386 3.88976 0.469567 0
M  V30 3276 H 305.083 4.00883 0.0967819 0
M  V30 3277 H 301.673 4.07263 -1.33546 0
M  V30 3278 H 305.857 4.42291 -2.25149 0
M  V30 3279 H 301.113 4.97654 -3.55176 0
M  V30 3280 H 305.287 5.34041 -4.4696 0
M  V30 3281 H 302.914 5.61454 -5.12516 0
M  V30 3282 N 304.489 0.459591 1.5075 0
M  V30 3283 C 305.766 -0.160371 1.94941 0
M  V30 3284 C 306.146 -1.58048 1.39943 0
M  V30 3285 O 305.494 -2.206 0.595629 0
M  V30 3286 C 305.704 -0.115432 3.48809 0
M  V30 3287 C 307.052 -0.310026 4.23467 0
M  V30 3288 O 308.076 -0.192543 3.55679 0
M  V30 3289 O 306.935 -0.546031 5.43765 0
M  V30 3290 H 304.029 -0.117925 0.818549 0
M  V30 3291 H 306.575 0.519169 1.61563 0
M  V30 3292 H 305.347 0.87652 3.81357 0
M  V30 3293 H 304.97 -0.836928 3.88692 0
M  V30 3294 N 305.967 -1.56429 0.191757 0
M  V30 3295 C 306.915 -2.20273 -0.747174 0
M  V30 3296 C 307.909 -1.17288 -1.22229 0
M  V30 3297 O 309.115 -1.35441 -1.18557 0
M  V30 3298 H 305.49 -0.705885 -0.259289 0
M  V30 3299 H 307.461 -2.97826 -0.184963 0
M  V30 3300 C 306.21 -2.87356 -1.95759 0
M  V30 3301 H 305.533 -3.66341 -1.60106 0
M  V30 3302 H 306.973 -3.3547 -2.59299 0
M  V30 3303 C 305.432 -1.88213 -2.79423 0
M  V30 3304 O 305.962 -1.38033 -3.7724 0
M  V30 3305 N 304.168 -1.56516 -2.44849 0
M  V30 3306 H 303.715 -1.97516 -1.65364 0
M  V30 3307 H 303.673 -0.904369 -3.01112 0
M  V30 3308 N 307.445 0.0818655 -1.57387 0
M  V30 3309 C 308.691 0.784074 -1.8703 0
M  V30 3310 C 309.024 1.77729 -0.782689 0
M  V30 3311 O 308.299 1.93384 0.208051 0
M  V30 3312 C 308.582 1.50105 -3.27323 0
M  V30 3313 C 308.435 0.524925 -4.46727 0
M  V30 3314 C 309.754 2.44843 -3.65705 0
M  V30 3315 H 306.873 0.283582 -0.680257 0
M  V30 3316 H 309.515 0.0474352 -1.89941 0
M  V30 3317 H 307.665 2.12897 -3.24972 0
M  V30 3318 H 309.337 -0.0970111 -4.61198 0
M  V30 3319 H 307.58 -0.160606 -4.33503 0
M  V30 3320 H 308.251 1.064 -5.41648 0
M  V30 3321 H 310.727 1.92135 -3.69085 0
M  V30 3322 H 309.603 2.92018 -4.64776 0
M  V30 3323 H 309.864 3.29197 -2.95096 0
M  V30 3324 N 308.923 1.53595 0.353017 0
M  V30 3325 C 310.172 1.69603 1.09168 0
M  V30 3326 C 310.485 0.460925 1.90092 0
M  V30 3327 O 311.691 0.501774 2.66823 0
M  V30 3328 C 310.147 2.99872 1.9901 0
M  V30 3329 C 309.755 4.30687 1.23339 0
M  V30 3330 C 311.499 3.25246 2.72792 0
M  V30 3331 C 309.406 5.52036 2.12156 0
M  V30 3332 H 308.336 0.631966 0.411261 0
M  V30 3333 H 310.987 1.80096 0.351802 0
M  V30 3334 H 309.369 2.83212 2.7678 0
M  V30 3335 H 310.543 4.58019 0.505456 0
M  V30 3336 H 308.858 4.11853 0.613663 0
M  V30 3337 H 311.455 4.13095 3.39495 0
M  V30 3338 H 311.798 2.41846 3.38846 0
M  V30 3339 H 312.331 3.42638 2.021 0
M  V30 3340 H 309.07 6.37951 1.50659 0
M  V30 3341 H 308.59 5.28966 2.82764 0
M  V30 3342 H 310.269 5.87313 2.71427 0
M  V30 3343 N 310.401 -0.613514 1.45168 0
M  V30 3344 C 311.311 -1.75296 1.55912 0
M  V30 3345 C 312.327 -1.68244 0.443856 0
M  V30 3346 O 313.503 -1.88706 0.70371 0
M  V30 3347 C 310.568 -3.1174 1.5172 0
M  V30 3348 C 309.629 -3.30291 2.74238 0
M  V30 3349 C 308.862 -4.60226 2.70236 0
M  V30 3350 O 309.085 -5.42168 1.77229 0
M  V30 3351 O 308.019 -4.81361 3.61352 0
M  V30 3352 H 311.845 -1.69183 2.52212 0
M  V30 3353 H 309.43 -0.776886 1.27612 0
M  V30 3354 H 311.312 -3.93044 1.51968 0
M  V30 3355 H 309.987 -3.18357 0.585697 0
M  V30 3356 H 308.894 -2.48598 2.79553 0
M  V30 3357 H 310.227 -3.28547 3.66494 0
M  V30 3358 N 311.879 -1.3236 -0.855495 0
M  V30 3359 C 312.827 -1.2118 -1.9854 0
M  V30 3360 C 313.821 -0.116788 -1.68997 0
M  V30 3361 O 315.027 -0.279657 -1.77814 0
M  V30 3362 H 311.402 -0.375608 -0.651477 0
M  V30 3363 H 313.373 -2.16743 -2.05098 0
M  V30 3364 C 312.122 -0.950849 -3.34446 0
M  V30 3365 H 311.445 -1.78563 -3.57708 0
M  V30 3366 H 312.885 -0.912863 -4.14057 0
M  V30 3367 C 311.344 0.346404 -3.35114 0
M  V30 3368 O 311.874 1.35855 -3.7803 0
M  V30 3369 N 310.08 0.36808 -2.88259 0
M  V30 3370 H 309.627 -0.456102 -2.5353 0
M  V30 3371 H 309.585 1.23591 -2.89089 0
M  V30 3372 N 313.357 1.07166 -1.15556 0
M  V30 3373 C 314.606 1.79181 -0.926132 0
M  V30 3374 C 314.919 1.87768 0.547967 0
M  V30 3375 O 316.125 2.56323 0.895036 0
M  V30 3376 C 314.581 3.22 -1.60761 0
M  V30 3377 C 314.189 3.21607 -3.11886 0
M  V30 3378 C 315.933 3.9861 -1.4598 0
M  V30 3379 C 313.84 4.59092 -3.72812 0
M  V30 3380 H 312.77 0.67154 -0.342856 0
M  V30 3381 H 315.421 1.2027 -1.3859 0
M  V30 3382 H 313.803 3.81115 -1.07553 0
M  V30 3383 H 314.977 2.72127 -3.71865 0
M  V30 3384 H 313.292 2.58495 -3.2645 0
M  V30 3385 H 315.889 5.00225 -1.88888 0
M  V30 3386 H 316.232 4.143 -0.407541 0
M  V30 3387 H 316.765 3.45996 -1.96295 0
M  V30 3388 H 313.504 4.48606 -4.77946 0
M  V30 3389 H 313.024 5.08803 -3.17616 0
M  V30 3390 H 314.703 5.28059 -3.73848 0
M  V30 3391 N 314.835 0.952656 1.25548 0
M  V30 3392 C 316.063 0.623496 1.97282 0
M  V30 3393 C 316.478 -0.803987 1.70826 0
M  V30 3394 O 315.835 -1.53755 0.983147 0
M  V30 3395 C 315.886 0.870209 3.5087 0
M  V30 3396 O 315.607 2.24156 3.76412 0
M  V30 3397 C 317.108 0.553164 4.39835 0
M  V30 3398 H 314.328 0.233931 0.628902 0
M  V30 3399 H 316.872 1.27649 1.59768 0
M  V30 3400 H 315.027 0.263652 3.86502 0
M  V30 3401 H 315.441 2.31021 4.70882 0
M  V30 3402 H 316.915 0.776342 5.46513 0
M  V30 3403 H 317.392 -0.512215 4.36203 0
M  V30 3404 H 317.998 1.13896 4.09766 0
M  V30 3405 N 316.313 -1.40141 0.720998 0
M  V30 3406 C 317.538 -2.05618 0.271258 0
M  V30 3407 C 317.963 -1.53978 -1.08039 0
M  V30 3408 O 317.321 -0.677463 -1.68167 0
M  V30 3409 C 317.369 -3.59609 0.267197 0
M  V30 3410 O 316.473 -4.05526 -0.749814 0
M  V30 3411 H 315.814 -0.651904 0.126162 0
M  V30 3412 H 318.344 -1.79439 0.982997 0
M  V30 3413 H 318.354 -4.0786 0.106744 0
M  V30 3414 H 317.029 -3.96559 1.25354 0
M  V30 3415 H 315.606 -3.68722 -0.556644 0
M  V30 3416 N 317.792 -0.46758 -1.50504 0
M  V30 3417 C 318.722 0.318381 -2.31319 0
M  V30 3418 C 319.703 0.993564 -1.38066 0
M  V30 3419 O 320.888 0.991411 -1.66987 0
M  V30 3420 C 318.018 1.40275 -3.17711 0
M  V30 3421 C 316.972 0.849373 -4.19487 0
M  V30 3422 C 316.298 2.03177 -4.94594 0
M  V30 3423 C 317.598 -0.136942 -5.2212 0
M  V30 3424 H 319.292 -0.356106 -2.97275 0
M  V30 3425 H 316.838 -0.172703 -1.42961 0
M  V30 3426 H 318.791 1.96004 -3.73042 0
M  V30 3427 H 317.515 2.10596 -2.49634 0
M  V30 3428 H 316.174 0.314076 -3.65252 0
M  V30 3429 H 315.822 2.72187 -4.22993 0
M  V30 3430 H 315.522 1.66774 -5.63436 0
M  V30 3431 H 317.046 2.59403 -5.52759 0
M  V30 3432 H 318.46 0.331056 -5.72343 0
M  V30 3433 H 316.857 -0.41507 -5.98663 0
M  V30 3434 H 317.927 -1.06398 -4.73083 0
M  V30 3435 N 319.27 1.56325 -0.20005 0
M  V30 3436 C 320.498 2.02105 0.442874 0
M  V30 3437 C 320.913 1.08014 1.5485 0
M  V30 3438 O 320.27 0.0858797 1.82298 0
M  V30 3439 C 320.321 3.47549 0.994583 0
M  V30 3440 O 320.042 4.38049 -0.0669322 0
M  V30 3441 C 321.543 4.0887 1.7129 0
M  V30 3442 H 318.763 0.661807 0.110691 0
M  V30 3443 H 321.307 2.02134 -0.310207 0
M  V30 3444 H 319.462 3.48204 1.69803 0
M  V30 3445 H 319.876 5.23368 0.344462 0
M  V30 3446 H 321.35 5.12475 2.05118 0
M  V30 3447 H 321.827 3.52615 2.61838 0
M  V30 3448 H 322.433 4.12002 1.05518 0
M  V30 3449 N 320.748 -0.0735177 1.57428 0
M  V30 3450 C 321.997 -0.771809 1.86349 0
M  V30 3451 C 322.31 -1.78828 0.792452 0
M  V30 3452 O 323.516 -2.53602 0.96945 0
M  V30 3453 C 321.972 -1.42358 3.30548 0
M  V30 3454 C 321.58 -0.445761 4.45777 0
M  V30 3455 C 323.324 -2.10434 3.6867 0
M  V30 3456 C 321.231 -1.10335 5.81016 0
M  V30 3457 H 320.161 -0.291999 0.695164 0
M  V30 3458 H 322.812 -0.0250749 1.83483 0
M  V30 3459 H 321.194 -2.21852 3.28021 0
M  V30 3460 H 322.368 0.319239 4.59693 0
M  V30 3461 H 320.683 0.130457 4.16196 0
M  V30 3462 H 323.28 -2.60405 4.67004 0
M  V30 3463 H 323.623 -2.90298 2.98383 0
M  V30 3464 H 324.156 -1.37773 3.7318 0
M  V30 3465 H 320.895 -0.345061 6.54591 0
M  V30 3466 H 320.415 -1.83925 5.70904 0
M  V30 3467 H 322.094 -1.62367 6.26295 0
M  V30 3468 N 322.226 -1.5378 -0.344866 0
M  V30 3469 C 323.474 -1.70625 -1.08311 0
M  V30 3470 C 323.795 -0.471447 -1.89215 0
M  V30 3471 O 323.065 0.514616 -1.8902 0
M  V30 3472 H 321.645 -0.629058 -0.402859 0
M  V30 3473 H 324.307 -1.9103 -0.386459 0
M  V30 3474 H 323.403 -2.57656 -1.76124 0
M  V30 3475 N 323.704 0.605807 -1.45491 0
M  V30 3476 C 324.651 1.7164 -1.54299 0
M  V30 3477 C 325.621 1.61486 -0.388761 0
M  V30 3478 O 326.806 1.81039 -0.602445 0
M  V30 3479 C 323.946 3.09953 -1.51734 0
M  V30 3480 C 323.059 3.309 -2.77721 0
M  V30 3481 C 322.194 4.59329 -2.66816 0
M  V30 3482 C 321.233 4.7354 -3.87848 0
M  V30 3483 N 320.37 5.9327 -3.75467 0
M  V30 3484 H 325.21 1.63449 -2.49176 0
M  V30 3485 H 322.747 0.796957 -1.23641 0
M  V30 3486 H 324.705 3.89977 -1.48235 0
M  V30 3487 H 323.335 3.17098 -0.604068 0
M  V30 3488 H 322.387 2.44639 -2.913 0
M  V30 3489 H 323.699 3.37274 -3.67488 0
M  V30 3490 H 322.853 5.4755 -2.61292 0
M  V30 3491 H 321.592 4.55355 -1.74651 0
M  V30 3492 H 320.597 3.83741 -3.93729 0
M  V30 3493 H 321.822 4.79309 -4.81082 0
M  V30 3494 H 319.768 5.90338 -2.86072 0
M  V30 3495 H 319.685 6.00811 -4.5887 0
M  V30 3496 H 320.953 6.83984 -3.73879 0
M  V30 3497 N 325.182 1.32811 0.848464 0
M  V30 3498 C 326.407 1.26882 1.6406 0
M  V30 3499 C 326.832 -0.15913 1.87426 0
M  V30 3500 O 326.19 -1.11258 1.43148 0
M  V30 3501 C 326.238 2.03997 2.97351 0
M  V30 3502 O 325.342 1.39201 3.88197 0
M  V30 3503 H 324.683 0.436982 0.499943 0
M  V30 3504 H 327.213 1.75224 1.0563 0
M  V30 3505 H 327.223 2.14403 3.47124 0
M  V30 3506 H 325.898 3.0783 2.79666 0
M  V30 3507 H 324.475 1.37381 3.46671 0
M  V30 3508 N 326.66 -1.06551 1.16123 0
M  V30 3509 C 327.607 -2.13961 0.865414 0
M  V30 3510 C 328.577 -1.65066 -0.185055 0
M  V30 3511 O 329.762 -1.90732 -0.05083 0
M  V30 3512 C 326.902 -3.43113 0.369776 0
M  V30 3513 C 326.015 -4.05756 1.48276 0
M  V30 3514 C 325.15 -5.22773 0.942414 0
M  V30 3515 C 324.189 -5.77395 2.03179 0
M  V30 3516 N 323.326 -6.85731 1.50721 0
M  V30 3517 H 328.166 -2.38605 1.78527 0
M  V30 3518 H 325.703 -1.17072 0.890646 0
M  V30 3519 H 327.661 -4.17151 0.0640643 0
M  V30 3520 H 326.291 -3.18695 -0.513143 0
M  V30 3521 H 325.343 -3.29292 1.9045 0
M  V30 3522 H 326.655 -4.42351 2.30493 0
M  V30 3523 H 325.809 -6.03827 0.589729 0
M  V30 3524 H 324.548 -4.87618 0.0895191 0
M  V30 3525 H 323.553 -4.94981 2.3932 0
M  V30 3526 H 324.778 -6.14603 2.8886 0
M  V30 3527 H 322.724 -6.52499 0.676811 0
M  V30 3528 H 322.641 -7.21254 2.26557 0
M  V30 3529 H 323.909 -7.7047 1.18303 0
M  V30 3530 N 328.138 -0.959301 -1.25041 0
M  V30 3531 C 329.368 -0.63303 -1.96663 0
M  V30 3532 C 329.776 0.800031 -1.71453 0
M  V30 3533 O 329.119 1.54736 -0.99008 0
M  V30 3534 C 329.181 -0.817523 -3.50081 0
M  V30 3535 C 328.845 -2.22863 -3.98975 0
M  V30 3536 C 329.842 -3.20569 -4.09306 0
M  V30 3537 C 327.527 -2.55407 -4.32519 0
M  V30 3538 C 329.521 -4.4891 -4.52503 0
M  V30 3539 C 327.208 -3.83976 -4.754 0
M  V30 3540 C 328.206 -4.8054 -4.85356 0
M  V30 3541 O 327.894 -6.06817 -5.27284 0
M  V30 3542 H 327.626 -0.235866 -0.633516 0
M  V30 3543 H 330.18 -1.2874 -1.60047 0
M  V30 3544 H 328.41 -0.105992 -3.86555 0
M  V30 3545 H 330.099 -0.491604 -4.02912 0
M  V30 3546 H 330.865 -2.96753 -3.83618 0
M  V30 3547 H 326.744 -1.8097 -4.23994 0
M  V30 3548 H 330.288 -5.24283 -4.60188 0
M  V30 3549 H 326.185 -4.07596 -5.00535 0
M  V30 3550 H 326.953 -6.10262 -5.45457 0
M  V30 3551 N 329.616 1.39756 -0.72842 0
M  V30 3552 C 330.863 2.00645 -0.273487 0
M  V30 3553 C 331.191 1.57786 1.13727 0
M  V30 3554 O 330.446 0.794886 1.7883 0
M  V30 3555 C 330.745 3.56002 -0.315776 0
M  V30 3556 C 330.411 4.18489 -1.67863 0
M  V30 3557 C 329.073 4.3527 -2.05166 0
M  V30 3558 C 331.425 4.53219 -2.57375 0
M  V30 3559 C 328.753 4.84069 -3.31503 0
M  V30 3560 C 331.105 5.03423 -3.83077 0
M  V30 3561 C 329.769 5.18413 -4.20481 0
M  V30 3562 H 329.039 0.734211 -0.100076 0
M  V30 3563 H 331.686 1.6718 -0.933972 0
M  V30 3564 H 329.991 3.89452 0.428285 0
M  V30 3565 H 331.688 4.00963 0.0542575 0
M  V30 3566 H 328.278 4.05824 -1.37858 0
M  V30 3567 H 332.462 4.39878 -2.29827 0
M  V30 3568 H 327.718 4.93859 -3.60435 0
M  V30 3569 H 331.892 5.2927 -4.52599 0
M  V30 3570 H 329.519 5.55987 -5.18443 0
M  V30 3571 N 331.094 0.475555 1.50254 0
M  V30 3572 C 332.026 -0.352649 2.26471 0
M  V30 3573 C 333.039 -0.953165 1.3198 0
M  V30 3574 O 334.228 -0.840815 1.57457 0
M  V30 3575 C 331.328 -1.50902 3.0345 0
M  V30 3576 C 330.501 -1.02047 4.25329 0
M  V30 3577 C 329.56 -2.05142 4.84565 0
M  V30 3578 O 328.586 -1.63023 5.45355 0
M  V30 3579 N 329.788 -3.37987 4.71959 0
M  V30 3580 H 332.553 0.300767 2.98187 0
M  V30 3581 H 330.114 0.306598 1.5897 0
M  V30 3582 H 332.106 -2.19572 3.39956 0
M  V30 3583 H 330.676 -2.06705 2.34504 0
M  V30 3584 H 329.896 -0.159507 3.93877 0
M  V30 3585 H 331.184 -0.672061 5.04342 0
M  V30 3586 H 330.582 -3.74913 4.23623 0
M  V30 3587 H 329.139 -4.02443 5.12721 0
M  V30 3588 N 332.573 -1.56217 0.208337 0
M  V30 3589 C 333.85 -1.89739 -0.475234 0
M  V30 3590 C 334.23 -1.1238 -1.78701 0
M  V30 3591 O 333.578 -0.228979 -2.2735 0
M  V30 3592 C 333.788 -3.42289 -0.681101 0
M  V30 3593 C 335.136 -4.12789 -0.994507 0
M  V30 3594 O 336.16 -3.47814 -0.768357 0
M  V30 3595 O 335.019 -5.27649 -1.42299 0
M  V30 3596 H 332.113 -0.788478 -0.249461 0
M  V30 3597 H 334.659 -1.67855 0.249538 0
M  V30 3598 H 333.431 -3.90534 0.244722 0
M  V30 3599 H 333.054 -3.69909 -1.45785 0
M  V30 3600 N 334.051 0.0651679 -1.57465 0
M  V30 3601 C 335.462 0.616213 -1.76238 0
M  V30 3602 C 335.813 1.7756 -0.834689 0
M  V30 3603 O 334.938 2.1639 -0.0204156 0
M  V30 3604 C 335.533 1.12462 -3.1959 0
M  V30 3605 C 334.092 1.62147 -3.39684 0
M  V30 3606 C 333.239 0.543739 -2.71917 0
M  V30 3607 H 336.19 -0.161022 -1.57881 0
M  V30 3608 H 336.211 1.99324 -3.24114 0
M  V30 3609 H 335.723 0.280592 -3.87084 0
M  V30 3610 H 333.824 2.48854 -2.77313 0
M  V30 3611 H 333.937 1.69385 -4.48158 0
M  V30 3612 H 332.301 0.990352 -2.34657 0
M  V30 3613 H 333.084 -0.290216 -3.42071 0
M  V30 3614 N 335.529 1.53961 0.336706 0
M  V30 3615 C 336.492 1.81724 1.39675 0
M  V30 3616 C 337.492 0.688532 1.45313 0
M  V30 3617 O 338.682 0.956829 1.45569 0
M  V30 3618 C 335.814 1.96543 2.78538 0
M  V30 3619 H 337.007 2.76424 1.16318 0
M  V30 3620 H 334.56 1.45478 0.571474 0
M  V30 3621 H 335.295 1.0401 3.07168 0
M  V30 3622 H 335.08 2.78665 2.75841 0
M  V30 3623 H 336.57 2.19516 3.5525 0
M  V30 3624 N 337.007 -0.598083 1.45811 0
M  V30 3625 C 337.937 -1.71873 1.58057 0
M  V30 3626 C 338.918 -1.64533 0.431615 0
M  V30 3627 O 340.103 -1.82787 0.65595 0
M  V30 3628 C 337.233 -3.10495 1.55597 0
M  V30 3629 C 336.187 -3.32654 2.69305 0
M  V30 3630 C 335.513 -4.71646 2.51902 0
M  V30 3631 C 336.813 -3.21981 4.11248 0
M  V30 3632 H 338.507 -1.61881 2.51863 0
M  V30 3633 H 336.053 -0.777372 1.21214 0
M  V30 3634 H 338.006 -3.88699 1.6276 0
M  V30 3635 H 336.73 -3.2135 0.583255 0
M  V30 3636 H 335.389 -2.56843 2.61586 0
M  V30 3637 H 335.037 -4.79246 1.52748 0
M  V30 3638 H 334.737 -4.87426 3.2816 0
M  V30 3639 H 336.261 -5.52038 2.60933 0
M  V30 3640 H 337.675 -3.90049 4.20161 0
M  V30 3641 H 336.072 -3.49289 4.87972 0
M  V30 3642 H 337.142 -2.1928 4.32486 0
M  V30 3643 N 338.485 -1.33259 -0.841409 0
M  V30 3644 C 339.415 -1.25926 -1.96634 0
M  V30 3645 C 340.396 -0.140349 -1.6952 0
M  V30 3646 O 341.581 -0.329707 -1.91381 0
M  V30 3647 C 338.711 -0.99512 -3.32738 0
M  V30 3648 C 337.665 -2.0767 -3.74242 0
M  V30 3649 C 336.991 -1.66474 -5.08125 0
M  V30 3650 C 338.291 -3.49318 -3.88297 0
M  V30 3651 H 339.985 -2.20046 -2.03027 0
M  V30 3652 H 337.531 -1.05931 -0.975425 0
M  V30 3653 H 339.484 -0.930323 -4.11002 0
M  V30 3654 H 338.208 -0.0183004 -3.26595 0
M  V30 3655 H 336.867 -2.13187 -2.98239 0
M  V30 3656 H 336.515 -0.675012 -4.9845 0
M  V30 3657 H 336.215 -2.3885 -5.36865 0
M  V30 3658 H 337.739 -1.61455 -5.88867 0
M  V30 3659 H 339.153 -3.46316 -4.56879 0
M  V30 3660 H 337.55 -4.20158 -4.28471 0
M  V30 3661 H 338.62 -3.8801 -2.9082 0
M  V30 3662 N 339.963 1.05934 -1.16686 0
M  V30 3663 C 340.893 2.1546 -0.899949 0
M  V30 3664 C 341.874 1.69391 0.155154 0
M  V30 3665 O 343.059 1.94199 0.00648693 0
M  V30 3666 C 340.189 3.44939 -0.404241 0
M  V30 3667 C 339.143 4.04536 -1.39767 0
M  V30 3668 C 338.469 5.29268 -0.760216 0
M  V30 3669 C 339.769 4.42893 -2.76845 0
M  V30 3670 H 341.463 2.38046 -1.81588 0
M  V30 3671 H 339.009 1.14404 -0.874514 0
M  V30 3672 H 340.962 4.20901 -0.204971 0
M  V30 3673 H 339.686 3.21983 0.547206 0
M  V30 3674 H 338.345 3.30635 -1.58355 0
M  V30 3675 H 337.993 5.02611 0.197831 0
M  V30 3676 H 337.693 5.70101 -1.42332 0
M  V30 3677 H 339.217 6.07924 -0.57105 0
M  V30 3678 H 340.631 5.09921 -2.62019 0
M  V30 3679 H 339.028 4.94721 -3.39663 0
M  V30 3680 H 340.098 3.53584 -3.31823 0
M  V30 3681 N 341.441 0.965919 1.2453 0
M  V30 3682 C 342.374 0.4393 2.23932 0
M  V30 3683 C 343.352 -0.485615 1.55179 0
M  V30 3684 O 344.536 -0.417402 1.83821 0
M  V30 3685 C 341.663 -0.366042 3.36716 0
M  V30 3686 C 340.709 0.5009 4.23548 0
M  V30 3687 S 341.542 1.94002 4.99123 0
M  V30 3688 C 342.698 1.14342 6.15367 0
M  V30 3689 H 342.931 1.28167 2.68254 0
M  V30 3690 H 340.464 0.770819 1.33782 0
M  V30 3691 H 342.422 -0.824724 4.0213 0
M  V30 3692 H 341.083 -1.18337 2.90956 0
M  V30 3693 H 340.276 -0.117341 5.03863 0
M  V30 3694 H 339.878 0.89524 3.63127 0
M  V30 3695 H 342.17 0.397572 6.76332 0
M  V30 3696 H 343.113 1.92089 6.81548 0
M  V30 3697 H 343.521 0.668579 5.60527 0
M  V30 3698 N 342.919 -1.39368 0.735821 0
M  V30 3699 C 343.869 -2.27885 0.0724287 0
M  V30 3700 C 344.853 -1.44301 -0.711756 0
M  V30 3701 O 346.045 -1.67206 -0.58063 0
M  V30 3702 C 343.174 -3.33029 -0.833454 0
M  V30 3703 C 342.26 -4.24078 -0.0433749 0
M  V30 3704 N 342.651 -4.96138 0.983903 0
M  V30 3705 C 340.949 -4.45164 -0.272905 0
M  V30 3706 C 341.65 -5.63069 1.4604 0
M  V30 3707 N 340.626 -5.37991 0.778857 0
M  V30 3708 H 344.428 -2.81052 0.859467 0
M  V30 3709 H 341.942 -1.5206 0.570227 0
M  V30 3710 H 343.939 -3.95311 -1.32419 0
M  V30 3711 H 342.599 -2.81421 -1.61964 0
M  V30 3712 H 343.61 -4.9958 1.36528 0
M  V30 3713 H 340.287 -4.04497 -1.03383 0
M  V30 3714 H 341.677 -6.30755 2.31511 0
M  V30 3715 N 344.397 -0.483516 -1.5 0
M  V30 3716 C 345.307 0.309172 -2.32554 0
M  V30 3717 C 346.323 0.984159 -1.43493 0
M  V30 3718 O 347.499 0.969399 -1.76535 0
M  V30 3719 C 344.564 1.36979 -3.18493 0
M  V30 3720 C 343.625 0.710095 -4.23387 0
M  V30 3721 C 342.858 1.72018 -5.05218 0
M  V30 3722 O 343.081 2.94813 -4.88305 0
M  V30 3723 O 342.015 1.28515 -5.8802 0
M  V30 3724 H 345.841 -0.366064 -3.01486 0
M  V30 3725 H 343.426 -0.24514 -1.47375 0
M  V30 3726 H 345.308 1.98385 -3.71781 0
M  V30 3727 H 343.983 2.02828 -2.52275 0
M  V30 3728 H 342.89 0.0567539 -3.74057 0
M  V30 3729 H 344.223 0.0943557 -4.9211 0
M  V30 3730 N 345.875 1.56104 -0.216619 0
M  V30 3731 C 346.805 2.23063 0.690296 0
M  V30 3732 C 347.786 1.20072 1.20485 0
M  V30 3733 O 348.971 1.48643 1.24976 0
M  V30 3734 C 346.101 2.90672 1.90072 0
M  V30 3735 C 345.055 4.00092 1.5202 0
M  V30 3736 C 344.381 4.54972 2.80899 0
M  V30 3737 C 345.681 5.17398 0.71391 0
M  V30 3738 H 347.375 2.99109 0.132038 0
M  V30 3739 H 344.921 1.43866 0.0620664 0
M  V30 3740 H 346.874 3.36204 2.54057 0
M  V30 3741 H 345.598 2.12066 2.48386 0
M  V30 3742 H 344.257 3.55283 0.903839 0
M  V30 3743 H 343.905 3.73102 3.37348 0
M  V30 3744 H 343.605 5.28817 2.56176 0
M  V30 3745 H 345.129 5.0322 3.45836 0
M  V30 3746 H 346.543 5.59342 1.25735 0
M  V30 3747 H 344.94 5.97444 0.563951 0
M  V30 3748 H 346.01 4.84088 -0.280527 0
M  V30 3749 N 347.353 -0.0568162 1.57498 0
M  V30 3750 C 348.602 -0.752001 1.87157 0
M  V30 3751 C 348.915 -1.77978 0.811375 0
M  V30 3752 O 350.121 -2.52559 0.996293 0
M  V30 3753 C 348.577 -1.38844 3.3204 0
M  V30 3754 C 348.185 -0.398456 4.46225 0
M  V30 3755 C 349.929 -2.06512 3.70882 0
M  V30 3756 C 347.836 -1.04166 5.82154 0
M  V30 3757 H 346.766 -0.28461 0.698222 0
M  V30 3758 H 349.417 -0.00561272 1.83499 0
M  V30 3759 H 347.799 -2.1836 3.30356 0
M  V30 3760 H 348.973 0.367977 4.59328 0
M  V30 3761 H 347.288 0.174592 4.16034 0
M  V30 3762 H 349.885 -2.55437 4.6974 0
M  V30 3763 H 350.228 -2.87117 3.01445 0
M  V30 3764 H 350.761 -1.33808 3.7462 0
M  V30 3765 H 347.5 -0.275614 6.5492 0
M  V30 3766 H 347.02 -1.7786 5.72823 0
M  V30 3767 H 348.699 -1.55715 6.27982 0
M  V30 3768 N 348.832 -1.54138 -0.328536 0
M  V30 3769 C 349.782 -1.79557 -1.4051 0
M  V30 3770 C 350.766 -0.651373 -1.47126 0
M  V30 3771 O 351.958 -0.911226 -1.51742 0
M  V30 3772 C 349.087 -2.02196 -2.77438 0
M  V30 3773 C 348.173 -3.22724 -2.75155 0
M  V30 3774 N 348.564 -4.43881 -2.42494 0
M  V30 3775 C 346.862 -3.24196 -3.06289 0
M  V30 3776 C 347.563 -5.25797 -2.48822 0
M  V30 3777 N 346.539 -4.62862 -2.8506 0
M  V30 3778 H 350.341 -2.70814 -1.1418 0
M  V30 3779 H 347.855 -1.53265 -0.536991 0
M  V30 3780 H 349.852 -2.18546 -3.55026 0
M  V30 3781 H 348.512 -1.12191 -3.04702 0
M  V30 3782 H 349.523 -4.70969 -2.15428 0
M  V30 3783 H 346.2 -2.44208 -3.38627 0
M  V30 3784 H 347.59 -6.32535 -2.26603 0
M  V30 3785 N 350.31 0.590341 -1.46126 0
M  V30 3786 C 351.556 1.35082 -1.51264 0
M  V30 3787 C 351.889 1.93534 -0.160711 0
M  V30 3788 O 351.164 1.76045 0.826956 0
M  V30 3789 C 351.447 2.48588 -2.6053 0
M  V30 3790 C 351.3 1.95221 -4.05227 0
M  V30 3791 C 352.619 3.50662 -2.6594 0
M  V30 3792 H 349.738 0.489803 -0.550692 0
M  V30 3793 H 352.38 0.663887 -1.78024 0
M  V30 3794 H 350.53 3.07186 -2.37843 0
M  V30 3795 H 352.202 1.41139 -4.39178 0
M  V30 3796 H 350.445 1.26101 -4.15068 0
M  V30 3797 H 351.116 2.77121 -4.77397 0
M  V30 3798 H 353.592 3.01934 -2.86313 0
M  V30 3799 H 352.468 4.27551 -3.44226 0
M  V30 3800 H 352.729 4.07399 -1.71694 0
M  V30 3801 N 351.788 1.33704 0.83433 0
M  V30 3802 C 352.718 1.26967 1.95963 0
M  V30 3803 C 353.699 0.149337 1.69443 0
M  V30 3804 O 354.884 0.339852 1.91203 0
M  V30 3805 C 352.014 1.01275 3.32206 0
M  V30 3806 C 350.968 2.09652 3.73136 0
M  V30 3807 C 350.294 1.69166 5.07235 0
M  V30 3808 C 351.594 3.51372 3.86439 0
M  V30 3809 H 353.288 2.2112 2.01857 0
M  V30 3810 H 350.834 1.06447 0.969793 0
M  V30 3811 H 352.787 0.952106 4.10503 0
M  V30 3812 H 351.511 0.0356203 3.26581 0
M  V30 3813 H 350.17 2.14766 2.97104 0
M  V30 3814 H 349.818 0.701437 4.98085 0
M  V30 3815 H 349.518 2.41694 5.35591 0
M  V30 3816 H 351.042 1.64576 5.88003 0
M  V30 3817 H 352.456 3.48734 4.55036 0
M  V30 3818 H 350.853 4.22425 4.26236 0
M  V30 3819 H 351.923 3.89546 2.88759 0
M  V30 3820 N 353.266 -1.05314 1.17247 0
M  V30 3821 C 354.216 -2.11313 0.856196 0
M  V30 3822 C 355.2 -1.60013 -0.168694 0
M  V30 3823 O 356.392 -1.76968 0.0335624 0
M  V30 3824 C 353.521 -3.41301 0.369917 0
M  V30 3825 C 352.607 -3.99401 1.42616 0
M  V30 3826 N 352.998 -4.31481 2.63928 0
M  V30 3827 C 351.296 -4.27126 1.28373 0
M  V30 3828 C 351.997 -4.77799 3.31787 0
M  V30 3829 N 350.973 -4.77843 2.59166 0
M  V30 3830 H 354.775 -2.33976 1.77856 0
M  V30 3831 H 352.289 -1.2295 1.06099 0
M  V30 3832 H 354.286 -4.16713 0.124897 0
M  V30 3833 H 352.946 -3.20072 -0.546253 0
M  V30 3834 H 353.957 -4.21519 3.00902 0
M  V30 3835 H 350.634 -4.15289 0.429111 0
M  V30 3836 H 352.024 -5.11743 4.35395 0
M  V30 3837 N 354.744 -0.972509 -1.24016 0
M  V30 3838 C 355.992 -0.635776 -1.91839 0
M  V30 3839 C 356.313 0.832312 -1.76345 0
M  V30 3840 O 355.583 1.5946 -1.13795 0
M  V30 3841 H 354.163 -0.232157 -0.710009 0
M  V30 3842 H 356.825 -1.23462 -1.50809 0
M  V30 3843 H 355.921 -0.880545 -2.99421 0
M  V30 3844 N 356.222 1.38976 -0.743202 0
M  V30 3845 C 357.152 2.33171 -0.123873 0
M  V30 3846 C 358.133 1.54336 0.71516 0
M  V30 3847 O 359.318 1.82696 0.658467 0
M  V30 3848 C 356.448 3.38474 0.777978 0
M  V30 3849 C 355.402 4.27979 0.0424758 0
M  V30 3850 C 354.728 5.2405 1.06189 0
M  V30 3851 C 356.028 5.10155 -1.1198 0
M  V30 3852 H 357.722 2.85213 -0.910709 0
M  V30 3853 H 355.268 1.37133 -0.439388 0
M  V30 3854 H 357.221 4.03328 1.22084 0
M  V30 3855 H 355.945 2.84891 1.59702 0
M  V30 3856 H 354.604 3.64616 -0.380853 0
M  V30 3857 H 354.252 4.66758 1.87472 0
M  V30 3858 H 353.952 5.84785 0.574485 0
M  V30 3859 H 355.476 5.9178 1.50428 0
M  V30 3860 H 356.89 5.68307 -0.75499 0
M  V30 3861 H 355.287 5.80073 -1.53738 0
M  V30 3862 H 356.357 4.44504 -1.93764 0
M  V30 3863 N 357.7 0.491464 1.49741 0
M  V30 3864 C 358.93 -0.0534375 2.06531 0
M  V30 3865 C 359.338 -1.32233 1.35318 0
M  V30 3866 O 358.681 -1.78781 0.422243 0
M  V30 3867 C 358.743 -0.387034 3.57411 0
M  V30 3868 C 358.407 0.782764 4.50246 0
M  V30 3869 C 359.404 1.67059 4.92329 0
M  V30 3870 C 357.089 0.978866 4.9267 0
M  V30 3871 C 359.083 2.73874 5.75562 0
M  V30 3872 C 356.77 2.05022 5.75682 0
M  V30 3873 C 357.768 2.92851 6.17031 0
M  V30 3874 O 357.456 3.98138 6.98385 0
M  V30 3875 H 357.188 0.0129324 0.675876 0
M  V30 3876 H 359.742 0.685238 1.93633 0
M  V30 3877 H 357.972 -1.17918 3.68283 0
M  V30 3878 H 359.661 -0.869419 3.96479 0
M  V30 3879 H 360.427 1.53086 4.60206 0
M  V30 3880 H 356.306 0.304646 4.59992 0
M  V30 3881 H 359.85 3.42458 6.07757 0
M  V30 3882 H 355.747 2.18993 6.07217 0
M  V30 3883 H 356.515 3.95374 7.16674 0
M  V30 3884 N 359.178 -1.55987 0.224894 0
M  V30 3885 C 360.426 -1.97998 -0.405099 0
M  V30 3886 C 360.747 -1.11387 -1.60056 0
M  V30 3887 O 360.017 -0.191645 -1.9496 0
M  V30 3888 H 358.597 -0.731235 -0.152658 0
M  V30 3889 H 361.259 -1.92279 0.318567 0
M  V30 3890 H 360.355 -3.03463 -0.729167 0
M  V30 3891 N 360.656 0.0484629 -1.57525 0
M  V30 3892 C 361.589 1.08755 -2.00618 0
M  V30 3893 C 362.567 1.36272 -0.887058 0
M  V30 3894 O 363.751 1.49255 -1.15131 0
M  V30 3895 C 360.878 2.42675 -2.36277 0
M  V30 3896 C 359.924 2.31142 -3.58435 0
M  V30 3897 S 360.757 1.68326 -5.08357 0
M  V30 3898 C 361.913 3.03776 -5.47239 0
M  V30 3899 H 362.146 0.720415 -2.88439 0
M  V30 3900 H 359.679 0.257801 -1.52233 0
M  V30 3901 H 361.637 3.19699 -2.57494 0
M  V30 3902 H 360.298 2.76541 -1.48942 0
M  V30 3903 H 359.491 3.29957 -3.80978 0
M  V30 3904 H 359.093 1.62258 -3.36969 0
M  V30 3905 H 361.385 4.00106 -5.46737 0
M  V30 3906 H 362.328 2.85988 -6.47778 0
M  V30 3907 H 362.736 3.05456 -4.74718 0
M  V30 3908 N 362.134 1.5431 0.320358 0
M  V30 3909 C 363.066 1.80262 1.41556 0
M  V30 3910 C 364.079 0.684723 1.477 0
M  V30 3911 O 365.268 0.961886 1.50366 0
M  V30 3912 C 362.368 1.90825 2.8007 0
M  V30 3913 C 361.541 3.21023 2.97091 0
M  V30 3914 C 360.6 3.22247 4.15985 0
M  V30 3915 O 359.626 3.95871 4.08992 0
M  V30 3916 N 360.828 2.46258 5.25678 0
M  V30 3917 H 363.593 2.74778 1.19655 0
M  V30 3918 H 361.154 1.53646 0.510358 0
M  V30 3919 H 363.146 1.89067 3.57821 0
M  V30 3920 H 361.716 1.03392 2.95006 0
M  V30 3921 H 360.936 3.35715 2.06614 0
M  V30 3922 H 362.224 4.0698 3.05361 0
M  V30 3923 H 361.622 1.86037 5.34235 0
M  V30 3924 H 360.179 2.50275 6.01835 0
M  V30 3925 N 363.613 -0.582584 1.46437 0
M  V30 3926 C 364.859 -1.34278 1.51978 0
M  V30 3927 C 365.192 -1.93446 0.170973 0
M  V30 3928 O 364.467 -1.76481 -0.817608 0
M  V30 3929 C 364.75 -2.47203 2.61845 0
M  V30 3930 C 364.603 -1.93069 4.06257 0
M  V30 3931 C 365.922 -3.49247 2.67795 0
M  V30 3932 H 363.041 -0.486876 0.553282 0
M  V30 3933 H 365.683 -0.654437 1.78374 0
M  V30 3934 H 363.833 -3.0592 2.39469 0
M  V30 3935 H 365.505 -1.38808 4.3992 0
M  V30 3936 H 363.748 -1.23898 4.1573 0
M  V30 3937 H 364.419 -2.74586 4.7886 0
M  V30 3938 H 366.895 -3.00411 2.8791 0
M  V30 3939 H 365.771 -4.25719 3.46489 0
M  V30 3940 H 366.032 -4.06482 1.73852 0
M  V30 3941 N 365.091 -1.34144 -0.827227 0
M  V30 3942 C 366.316 -1.29476 -1.62021 0
M  V30 3943 C 366.741 0.129292 -1.87655 0
M  V30 3944 O 366.099 1.08967 -1.449 0
M  V30 3945 C 366.147 -2.08702 -2.94068 0
M  V30 3946 O 365.251 -1.45359 -3.85933 0
M  V30 3947 H 364.592 -0.444881 -0.492927 0
M  V30 3948 H 367.122 -1.76882 -1.02829 0
M  V30 3949 H 367.132 -2.19898 -3.43669 0
M  V30 3950 H 365.807 -3.12241 -2.74734 0
M  V30 3951 H 364.384 -1.42879 -3.44442 0
M  V30 3952 N 366.569 1.04691 -1.17803 0
M  V30 3953 C 367.794 1.81984 -0.994813 0
M  V30 3954 C 368.219 1.82586 0.452112 0
M  V30 3955 O 367.577 1.23854 1.324 0
M  V30 3956 C 367.625 3.2575 -1.54659 0
M  V30 3957 O 366.729 4.05267 -0.763728 0
M  V30 3958 H 366.07 0.562483 -0.352857 0
M  V30 3959 H 368.6 1.3189 -1.56417 0
M  V30 3960 H 368.61 3.76541 -1.57102 0
M  V30 3961 H 367.285 3.24627 -2.59981 0
M  V30 3962 H 365.862 3.63972 -0.811108 0
M  V30 3963 N 368.047 0.979072 1.23499 0
M  V30 3964 C 368.997 0.489378 2.22686 0
M  V30 3965 C 369.981 -0.434871 1.54912 0
M  V30 3966 O 371.173 -0.263941 1.75021 0
M  V30 3967 C 368.302 -0.208178 3.42668 0
M  V30 3968 C 367.388 0.735563 4.17672 0
M  V30 3969 N 367.779 1.87763 4.69658 0
M  V30 3970 C 366.077 0.548625 4.42613 0
M  V30 3971 C 366.778 2.46886 5.26709 0
M  V30 3972 N 365.754 1.75287 5.14563 0
M  V30 3973 H 369.556 1.36062 2.60508 0
M  V30 3974 H 367.07 0.83958 1.39014 0
M  V30 3975 H 369.067 -0.576295 4.12898 0
M  V30 3976 H 367.727 -1.07572 3.06363 0
M  V30 3977 H 368.738 2.25885 4.66043 0
M  V30 3978 H 365.415 -0.274006 4.166 0
M  V30 3979 H 366.805 3.43326 5.77561 0
M  V30 3980 N 369.525 -1.3858 0.750561 0
M  V30 3981 C 370.435 -2.34278 0.122825 0
M  V30 3982 C 371.451 -1.59116 -0.704131 0
M  V30 3983 O 372.627 -1.91326 -0.628987 0
M  V30 3984 C 369.692 -3.38221 -0.762086 0
M  V30 3985 C 368.753 -4.29227 0.078896 0
M  V30 3986 C 367.986 -5.28205 -0.763874 0
M  V30 3987 O 368.209 -5.34112 -2.00201 0
M  V30 3988 O 367.143 -6.01618 -0.18428 0
M  V30 3989 H 370.969 -2.89649 0.913088 0
M  V30 3990 H 368.554 -1.40374 0.511417 0
M  V30 3991 H 370.436 -4.01872 -1.26793 0
M  V30 3992 H 369.111 -2.85211 -1.5309 0
M  V30 3993 H 368.018 -3.68747 0.630621 0
M  V30 3994 H 369.351 -4.85484 0.810289 0
M  V30 3995 N 371.003 -0.499398 -1.49478 0
M  V30 3996 C 372.252 0.0475259 -2.01644 0
M  V30 3997 C 372.565 1.38195 -1.38425 0
M  V30 3998 O 373.771 2.01547 -1.8191 0
M  V30 3999 C 372.227 0.135164 -3.59646 0
M  V30 4000 C 371.835 -1.19252 -4.31837 0
M  V30 4001 C 373.579 0.632538 -4.19761 0
M  V30 4002 C 371.486 -1.06713 -5.81693 0
M  V30 4003 H 370.416 0.0215349 -0.753692 0
M  V30 4004 H 373.067 -0.638577 -1.7203 0
M  V30 4005 H 371.449 0.885681 -3.85969 0
M  V30 4006 H 372.623 -1.9562 -4.17216 0
M  V30 4007 H 370.938 -1.62321 -3.83459 0
M  V30 4008 H 373.535 0.743833 -5.29501 0
M  V30 4009 H 373.878 1.63098 -3.83021 0
M  V30 4010 H 374.411 -0.0613987 -3.97753 0
M  V30 4011 H 371.15 -2.03979 -6.22955 0
M  V30 4012 H 370.67 -0.344307 -5.98811 0
M  V30 4013 H 372.349 -0.745208 -6.42694 0
M  V30 4014 N 372.481 1.55866 -0.233164 0
M  V30 4015 C 373.73 1.97779 0.39579 0
M  V30 4016 C 374.043 1.12419 1.60066 0
M  V30 4017 O 375.249 1.44283 2.29988 0
M  V30 4018 C 373.705 3.5188 0.755556 0
M  V30 4019 C 373.313 4.45959 -0.427152 0
M  V30 4020 C 375.057 4.02479 1.34946 0
M  V30 4021 C 372.964 5.91383 -0.0443043 0
M  V30 4022 H 371.894 0.738592 0.15165 0
M  V30 4023 H 374.545 1.80486 -0.331212 0
M  V30 4024 H 372.927 3.64816 1.5403 0
M  V30 4025 H 374.101 4.44776 -1.20462 0
M  V30 4026 H 372.416 4.05765 -0.935068 0
M  V30 4027 H 375.013 5.08637 1.649 0
M  V30 4028 H 375.356 3.49014 2.26925 0
M  V30 4029 H 375.889 3.92813 0.62791 0
M  V30 4030 H 372.628 6.48857 -0.930874 0
M  V30 4031 H 372.148 5.95734 0.697238 0
M  V30 4032 H 373.827 6.45893 0.378334 0
M  V30 4033 N 373.959 -0.0401083 1.57549 0
M  V30 4034 C 375.37 -0.588097 1.77196 0
M  V30 4035 C 375.721 -1.76209 0.862832 0
M  V30 4036 O 374.846 -2.16331 0.0548389 0
M  V30 4037 C 375.441 -1.07363 3.21339 0
M  V30 4038 C 374 -1.56723 3.42221 0
M  V30 4039 C 373.147 -0.50041 2.72747 0
M  V30 4040 H 376.098 0.186119 1.57605 0
M  V30 4041 H 376.119 -1.94143 3.27244 0
M  V30 4042 H 375.631 -0.218975 3.87482 0
M  V30 4043 H 373.732 -2.4441 2.81237 0
M  V30 4044 H 373.845 -1.62234 4.50796 0
M  V30 4045 H 372.209 -0.952894 2.36203 0
M  V30 4046 H 372.992 0.344599 3.41566 0
M  V30 4047 N 375.437 -1.54477 -0.31217 0
M  V30 4048 C 376.662 -1.77526 -1.07235 0
M  V30 4049 C 377.087 -0.527775 -1.80544 0
M  V30 4050 O 376.445 0.52121 -1.73646 0
M  V30 4051 C 376.493 -2.97535 -2.03728 0
M  V30 4052 O 375.597 -2.69878 -3.11833 0
M  V30 4053 H 374.938 -0.58792 -0.30862 0
M  V30 4054 H 377.468 -2.01532 -0.352993 0
M  V30 4055 H 377.478 -3.25198 -2.46395 0
M  V30 4056 H 376.153 -3.87996 -1.49774 0
M  V30 4057 H 374.73 -2.53199 -2.7376 0
M  V30 4058 N 376.915 0.57481 -1.46744 0
M  V30 4059 C 377.862 1.68329 -1.57905 0
M  V30 4060 C 378.832 1.60625 -0.422927 0
M  V30 4061 O 380.017 1.79721 -0.640711 0
M  V30 4062 C 377.157 3.06665 -1.58274 0
M  V30 4063 C 376.27 3.24935 -2.84678 0
M  V30 4064 C 375.405 4.53566 -2.76499 0
M  V30 4065 C 374.444 4.65207 -3.97806 0
M  V30 4066 N 373.581 5.85172 -3.87967 0
M  V30 4067 H 378.421 1.58127 -2.52587 0
M  V30 4068 H 375.958 0.770552 -1.25303 0
M  V30 4069 H 377.916 3.86745 -1.56473 0
M  V30 4070 H 376.546 3.15745 -0.671194 0
M  V30 4071 H 375.598 2.38405 -2.96424 0
M  V30 4072 H 376.91 3.29403 -3.7456 0
M  V30 4073 H 376.064 5.41885 -2.72848 0
M  V30 4074 H 374.803 4.51548 -1.8427 0
M  V30 4075 H 373.808 3.75304 -4.0178 0
M  V30 4076 H 375.033 4.68997 -4.9114 0
M  V30 4077 H 372.979 5.84137 -2.98529 0
M  V30 4078 H 372.896 5.90943 -4.71511 0
M  V30 4079 H 374.164 6.759 -3.88303 0
M  V30 4080 N 378.394 1.34581 0.820102 0
M  V30 4081 C 379.326 1.22236 1.93884 0
M  V30 4082 C 380.339 0.148776 1.62119 0
M  V30 4083 O 381.528 0.400877 1.7394 0
M  V30 4084 C 378.628 0.856542 3.27897 0
M  V30 4085 C 377.801 2.02569 3.87666 0
M  V30 4086 C 376.86 1.63782 5.00062 0
M  V30 4087 O 375.886 2.35477 5.18208 0
M  V30 4088 N 377.088 0.553611 5.77854 0
M  V30 4089 H 379.853 2.18615 2.05006 0
M  V30 4090 H 377.414 1.27573 0.99683 0
M  V30 4091 H 379.406 0.578806 4.0054 0
M  V30 4092 H 377.976 -0.0171518 3.12595 0
M  V30 4093 H 377.196 2.468 3.07382 0
M  V30 4094 H 378.484 2.80752 4.24329 0
M  V30 4095 H 377.882 -0.0423528 5.65684 0
M  V30 4096 H 376.439 0.335614 6.50935 0
M  V30 4097 N 379.872 -1.04064 1.18357 0
M  V30 4098 C 380.782 -2.15569 0.925596 0
M  V30 4099 C 381.798 -1.7365 -0.110295 0
M  V30 4100 O 382.974 -2.01273 0.0716218 0
M  V30 4101 C 380.039 -3.43704 0.454836 0
M  V30 4102 C 379.1 -4.00004 1.55869 0
M  V30 4103 C 378.333 -5.22023 1.1103 0
M  V30 4104 O 378.556 -5.70392 -0.0309756 0
M  V30 4105 O 377.49 -5.70856 1.90805 0
M  V30 4106 H 381.316 -2.40187 1.8586 0
M  V30 4107 H 378.901 -1.1402 0.965394 0
M  V30 4108 H 380.783 -4.20923 0.200382 0
M  V30 4109 H 379.458 -3.20559 -0.449876 0
M  V30 4110 H 378.365 -3.24172 1.86716 0
M  V30 4111 H 379.698 -4.2749 2.43953 0
M  V30 4112 N 381.35 -0.985608 -1.22978 0
M  V30 4113 C 382.599 -0.652881 -1.90841 0
M  V30 4114 C 382.912 0.817842 -1.77681 0
M  V30 4115 O 384.118 1.26185 -2.40395 0
M  V30 4116 C 382.574 -1.11717 -3.42122 0
M  V30 4117 C 382.182 -2.6126 -3.63933 0
M  V30 4118 C 383.926 -0.85843 -4.1573 0
M  V30 4119 C 381.833 -3.0133 -5.08876 0
M  V30 4120 H 380.763 -0.240491 -0.714619 0
M  V30 4121 H 383.414 -1.1942 -1.39324 0
M  V30 4122 H 381.796 -0.504027 -3.92779 0
M  V30 4123 H 382.97 -3.27858 -3.23799 0
M  V30 4124 H 381.285 -2.84937 -3.03644 0
M  V30 4125 H 383.882 -1.13359 -5.22546 0
M  V30 4126 H 384.225 0.205461 -4.15793 0
M  V30 4127 H 384.758 -1.43341 -3.71077 0
M  V30 4128 H 381.497 -4.06864 -5.13947 0
M  V30 4129 H 381.017 -2.3943 -5.49939 0
M  V30 4130 H 382.696 -2.92224 -5.77247 0
M  V30 4131 N 382.828 1.3818 -0.7579 0
M  V30 4132 C 384.058 2.04004 -0.326463 0
M  V30 4133 C 384.466 1.57286 1.05156 0
M  V30 4134 O 383.809 0.743144 1.67997 0
M  V30 4135 C 383.871 3.58444 -0.275402 0
M  V30 4136 C 383.535 4.28237 -1.59569 0
M  V30 4137 C 384.532 4.53312 -2.54566 0
M  V30 4138 C 382.217 4.66341 -1.86631 0
M  V30 4139 C 384.211 5.15531 -3.74842 0
M  V30 4140 C 381.898 5.28283 -3.0718 0
M  V30 4141 C 382.896 5.52814 -4.01106 0
M  V30 4142 O 382.584 6.13465 -5.19534 0
M  V30 4143 H 382.316 0.662026 -0.136739 0
M  V30 4144 H 384.87 1.7777 -1.02893 0
M  V30 4145 H 383.1 3.83667 0.483337 0
M  V30 4146 H 384.789 4.05701 0.127099 0
M  V30 4147 H 385.555 4.24299 -2.34936 0
M  V30 4148 H 381.434 4.46591 -1.14358 0
M  V30 4149 H 384.978 5.34594 -4.48168 0
M  V30 4150 H 380.875 5.56719 -3.26702 0
M  V30 4151 H 381.643 6.31951 -5.20173 0
M  V30 4152 N 384.306 0.507319 1.49211 0
M  V30 4153 C 385.239 -0.314509 2.26022 0
M  V30 4154 C 386.217 -0.964849 1.30879 0
M  V30 4155 O 387.401 -0.993707 1.6018 0
M  V30 4156 C 384.528 -1.44346 3.06402 0
M  V30 4157 C 383.574 -0.90685 4.16748 0
M  V30 4158 S 384.407 0.207392 5.35098 0
M  V30 4159 C 385.563 -0.924573 6.19033 0
M  V30 4160 H 385.796 0.337416 2.95379 0
M  V30 4161 H 383.329 0.292718 1.516 0
M  V30 4162 H 385.287 -2.09029 3.53295 0
M  V30 4163 H 383.948 -2.06702 2.36502 0
M  V30 4164 H 383.141 -1.75309 4.72528 0
M  V30 4165 H 382.743 -0.33712 3.72478 0
M  V30 4166 H 385.035 -1.82839 6.52362 0
M  V30 4167 H 385.978 -0.405248 7.06939 0
M  V30 4168 H 386.386 -1.19476 5.51712 0
M  V30 4169 N 385.784 -1.5574 0.241426 0
M  V30 4170 C 386.716 -2.18469 -0.693091 0
M  V30 4171 C 387.729 -1.15942 -1.14286 0
M  V30 4172 O 388.918 -1.42832 -1.07058 0
M  V30 4173 C 386.018 -2.7696 -1.95311 0
M  V30 4174 C 385.191 -4.04853 -1.65568 0
M  V30 4175 C 384.25 -4.47715 -2.76474 0
M  V30 4176 O 383.276 -5.14205 -2.44094 0
M  V30 4177 N 384.478 -4.15044 -4.05855 0
M  V30 4178 H 387.243 -2.99292 -0.156388 0
M  V30 4179 H 384.804 -1.61784 0.0611752 0
M  V30 4180 H 386.796 -3.02594 -2.68736 0
M  V30 4181 H 385.366 -2.00326 -2.39975 0
M  V30 4182 H 384.586 -3.86865 -0.756886 0
M  V30 4183 H 385.874 -4.88246 -1.43153 0
M  V30 4184 H 385.272 -3.61654 -4.34998 0
M  V30 4185 H 383.829 -4.45526 -4.75762 0
M  V30 4186 N 387.262 0.0317525 -1.57568 0
M  V30 4187 C 388.212 1.04101 -2.02847 0
M  V30 4188 C 389.196 1.3219 -0.917317 0
M  V30 4189 O 390.388 1.31819 -1.18121 0
M  V30 4190 C 387.517 2.34295 -2.5092 0
M  V30 4191 C 386.603 2.09308 -3.68851 0
M  V30 4192 N 386.994 1.5437 -4.81667 0
M  V30 4193 C 385.292 2.39604 -3.76172 0
M  V30 4194 C 385.993 1.45126 -5.63306 0
M  V30 4195 N 384.969 1.92589 -5.08341 0
M  V30 4196 H 388.771 0.610217 -2.87495 0
M  V30 4197 H 386.285 0.238108 -1.60645 0
M  V30 4198 H 388.282 3.07404 -2.81617 0
M  V30 4199 H 386.942 2.78055 -1.67677 0
M  V30 4200 H 387.953 1.22678 -5.03161 0
M  V30 4201 H 384.63 2.86457 -3.03724 0
M  V30 4202 H 386.02 1.03163 -6.63933 0
M  V30 4203 N 388.74 1.54641 0.303973 0
M  V30 4204 C 389.968 1.77768 1.05858 0
M  V30 4205 C 390.383 0.535722 1.8104 0
M  V30 4206 O 389.74 -0.494337 1.75677 0
M  V30 4207 C 389.791 2.9834 2.04146 0
M  V30 4208 O 389.512 4.17736 1.32015 0
M  V30 4209 C 391.013 3.33832 2.91669 0
M  V30 4210 H 388.233 0.592961 0.314067 0
M  V30 4211 H 390.777 2.01583 0.344149 0
M  V30 4212 H 388.932 2.76742 2.71096 0
M  V30 4213 H 389.346 4.85693 1.97998 0
M  V30 4214 H 390.82 4.21448 3.56491 0
M  V30 4215 H 391.297 2.51857 3.59812 0
M  V30 4216 H 391.903 3.57579 2.30254 0
M  V30 4217 N 390.218 -0.567019 1.47046 0
M  V30 4218 C 391.448 -1.34831 1.56538 0
M  V30 4219 C 391.856 -1.8802 0.21101 0
M  V30 4220 O 391.199 -1.65152 -0.804387 0
M  V30 4221 C 391.261 -2.56139 2.52256 0
M  V30 4222 C 390.925 -2.24307 3.98165 0
M  V30 4223 C 391.922 -1.82192 4.86931 0
M  V30 4224 C 389.607 -2.35968 4.43423 0
M  V30 4225 C 391.601 -1.52153 6.18973 0
M  V30 4226 C 389.288 -2.05542 5.75496 0
M  V30 4227 C 390.286 -1.63701 6.63092 0
M  V30 4228 O 389.974 -1.33657 7.92711 0
M  V30 4229 H 389.706 -0.417683 0.531523 0
M  V30 4230 H 392.26 -0.694726 1.93294 0
M  V30 4231 H 390.49 -3.24356 2.10548 0
M  V30 4232 H 392.179 -3.18214 2.51982 0
M  V30 4233 H 392.945 -1.72684 4.53217 0
M  V30 4234 H 388.824 -2.67495 3.75456 0
M  V30 4235 H 392.368 -1.19421 6.87302 0
M  V30 4236 H 388.265 -2.14679 6.08755 0
M  V30 4237 H 389.033 -1.4737 8.05124 0
M  V30 4238 N 391.696 -1.35014 -0.812953 0
M  V30 4239 C 393.107 -1.25035 -1.38648 0
M  V30 4240 C 393.458 0.119967 -1.95833 0
M  V30 4241 O 392.583 1.02069 -1.90816 0
M  V30 4242 C 393.178 -2.26394 -2.52054 0
M  V30 4243 C 391.737 -2.20175 -3.05287 0
M  V30 4244 C 390.884 -2.12451 -1.78213 0
M  V30 4245 H 393.835 -1.46235 -0.616516 0
M  V30 4246 H 393.856 -1.88672 -3.30429 0
M  V30 4247 H 393.368 -3.26116 -2.10404 0
M  V30 4248 H 391.469 -1.23841 -3.51417 0
M  V30 4249 H 391.582 -3.11863 -3.63701 0
M  V30 4250 H 389.946 -1.58328 -1.9951 0
M  V30 4251 H 390.729 -3.14024 -1.38723 0
M  V30 4252 N 393.175 1.03435 -1.18907 0
M  V30 4253 C 394.424 1.76143 -0.982669 0
M  V30 4254 C 394.737 1.89416 0.487953 0
M  V30 4255 O 395.943 2.59041 0.813036 0
M  V30 4256 C 394.399 3.16722 -1.70924 0
M  V30 4257 C 394.007 3.11522 -3.21959 0
M  V30 4258 C 395.751 3.93764 -1.58588 0
M  V30 4259 C 393.658 4.46999 -3.87228 0
M  V30 4260 H 392.588 0.660292 -0.364047 0
M  V30 4261 H 395.239 1.158 -1.42347 0
M  V30 4262 H 393.621 3.775 -1.19623 0
M  V30 4263 H 394.795 2.60158 -3.80335 0
M  V30 4264 H 393.11 2.47978 -3.34508 0
M  V30 4265 H 395.707 4.93963 -2.04707 0
M  V30 4266 H 396.05 4.12794 -0.539142 0
M  V30 4267 H 396.583 3.39576 -2.07203 0
M  V30 4268 H 393.322 4.33174 -4.91976 0
M  V30 4269 H 392.842 4.98441 -3.33642 0
M  V30 4270 H 394.521 5.15898 -3.90459 0
M  V30 4271 N 394.653 0.992116 1.22453 0
M  V30 4272 C 395.878 0.685644 1.95739 0
M  V30 4273 C 396.303 -0.743 1.72804 0
M  V30 4274 O 395.661 -1.50778 1.00676 0
M  V30 4275 C 395.709 0.996293 3.46564 0
M  V30 4276 O 394.813 0.0945512 4.12292 0
M  V30 4277 H 394.154 0.256694 0.612376 0
M  V30 4278 H 396.684 1.32888 1.5557 0
M  V30 4279 H 396.694 0.93781 3.97076 0
M  V30 4280 H 395.369 2.03733 3.62582 0
M  V30 4281 H 393.946 0.208451 3.72317 0
M  V30 4282 N 396.131 -1.37776 0.765217 0
M  V30 4283 C 397.094 -2.28686 0.153416 0
M  V30 4284 C 398.094 -1.47727 -0.635081 0
M  V30 4285 O 399.284 -1.68027 -0.459632 0
M  V30 4286 C 396.416 -3.31608 -0.790495 0
M  V30 4287 H 397.609 -2.84297 0.954723 0
M  V30 4288 H 395.162 -1.46932 0.53299 0
M  V30 4289 H 395.897 -2.81109 -1.61705 0
M  V30 4290 H 395.682 -3.9144 -0.227348 0
M  V30 4291 H 397.172 -3.99559 -1.21419 0
M  V30 4292 N 397.609 -0.515225 -1.4894 0
M  V30 4293 C 398.519 0.259774 -2.33157 0
M  V30 4294 C 399.535 0.953501 -1.45548 0
M  V30 4295 O 400.711 0.931735 -1.78552 0
M  V30 4296 C 397.776 1.30193 -3.21326 0
M  V30 4297 C 396.837 0.620129 -4.24797 0
M  V30 4298 C 396.07 1.61263 -5.08753 0
M  V30 4299 O 396.293 2.84389 -4.94448 0
M  V30 4300 O 395.227 1.16013 -5.90614 0
M  V30 4301 H 399.053 -0.429932 -3.00641 0
M  V30 4302 H 396.638 -0.276346 -1.46822 0
M  V30 4303 H 398.52 1.90455 -3.75905 0
M  V30 4304 H 397.195 1.97431 -2.56521 0
M  V30 4305 H 396.102 -0.0226019 -3.74093 0
M  V30 4306 H 397.435 -0.0100493 -4.92199 0
M  V30 4307 N 399.087 1.5561 -0.249682 0
M  V30 4308 C 399.997 2.25143 0.659375 0
M  V30 4309 C 401.013 1.2685 1.19101 0
M  V30 4310 O 402.189 1.59732 1.22669 0
M  V30 4311 C 399.254 2.93945 1.8384 0
M  V30 4312 C 398.315 4.07655 1.34596 0
M  V30 4313 C 397.548 4.73167 2.46878 0
M  V30 4314 O 397.771 4.37768 3.65671 0
M  V30 4315 O 396.705 5.61623 2.16478 0
M  V30 4316 H 400.531 3.03545 0.0968698 0
M  V30 4317 H 398.116 1.49389 -0.018074 0
M  V30 4318 H 399.998 3.37271 2.52638 0
M  V30 4319 H 398.673 2.18481 2.38847 0
M  V30 4320 H 397.58 3.68839 0.625174 0
M  V30 4321 H 398.913 4.84946 0.841941 0
M  V30 4322 N 400.565 -0.0233959 1.57583 0
M  V30 4323 C 401.495 -1.02162 2.09965 0
M  V30 4324 C 402.476 -1.3735 1.00344 0
M  V30 4325 O 403.661 -1.46135 1.27899 0
M  V30 4326 C 400.791 -2.32081 2.58371 0
M  V30 4327 C 399.745 -2.1112 3.72307 0
M  V30 4328 C 399.071 -3.46848 4.06941 0
M  V30 4329 C 400.371 -1.49276 5.00514 0
M  V30 4330 H 402.065 -0.585557 2.93618 0
M  V30 4331 H 399.611 -0.280218 1.41247 0
M  V30 4332 H 401.564 -3.02249 2.93639 0
M  V30 4333 H 400.288 -2.77758 1.71808 0
M  V30 4334 H 398.947 -1.43384 3.37397 0
M  V30 4335 H 398.595 -3.90184 3.17436 0
M  V30 4336 H 398.295 -3.33646 4.83688 0
M  V30 4337 H 399.819 -4.18369 4.44747 0
M  V30 4338 H 401.233 -2.09368 5.33702 0
M  V30 4339 H 399.63 -1.46632 5.8191 0
M  V30 4340 H 400.7 -0.459217 4.82721 0
M  V30 4341 N 402.043 -1.548 -0.295768 0
M  V30 4342 C 403.29 -1.74329 -1.03032 0
M  V30 4343 C 403.618 -0.531915 -1.87085 0
M  V30 4344 O 402.873 0.486052 -1.89568 0
M  V30 4345 C 403.172 -2.98797 -1.961 0
M  V30 4346 C 402.838 -4.32356 -1.2798 0
M  V30 4347 C 401.5 -4.68661 -1.09135 0
M  V30 4348 C 403.852 -5.15128 -0.793243 0
M  V30 4349 C 401.18 -5.85312 -0.403269 0
M  V30 4350 C 403.532 -6.32488 -0.118854 0
M  V30 4351 C 402.196 -6.6745 0.0815043 0
M  V30 4352 H 401.466 -0.637916 -0.37702 0
M  V30 4353 H 404.113 -1.8906 -0.304696 0
M  V30 4354 H 402.418 -2.78869 -2.75207 0
M  V30 4355 H 404.115 -3.11102 -2.53015 0
M  V30 4356 H 400.705 -4.03808 -1.43655 0
M  V30 4357 H 404.889 -4.87575 -0.92653 0
M  V30 4358 H 400.145 -6.1094 -0.237098 0
M  V30 4359 H 404.319 -6.95892 0.266035 0
M  V30 4360 H 401.946 -7.57695 0.616685 0
M  V30 4361 N 403.521 0.559213 -1.47345 0
M  V30 4362 C 404.749 1.34194 -1.57479 0
M  V30 4363 C 405.164 1.87463 -0.224261 0
M  V30 4364 O 404.521 1.64888 0.782185 0
M  V30 4365 C 404.572 2.51324 -2.59843 0
M  V30 4366 O 404.293 2.00256 -3.89653 0
M  V30 4367 C 405.794 3.43563 -2.80142 0
M  V30 4368 H 403.014 0.409136 -0.531835 0
M  V30 4369 H 405.558 0.677609 -1.92947 0
M  V30 4370 H 403.713 3.13699 -2.27314 0
M  V30 4371 H 404.127 2.76708 -4.4557 0
M  V30 4372 H 405.601 4.2217 -3.55635 0
M  V30 4373 H 406.078 3.9698 -1.87892 0
M  V30 4374 H 406.684 2.87005 -3.1386 0
M  V30 4375 N 404.999 1.35443 0.805782 0
M  V30 4376 C 406.246 1.28761 1.56291 0
M  V30 4377 C 406.574 -0.137747 1.94012 0
M  V30 4378 O 405.829 -1.1032 1.61642 0
M  V30 4379 C 406.128 2.14045 2.86216 0
M  V30 4380 C 405.794 3.62826 2.67709 0
M  V30 4381 C 404.456 4.0338 2.6237 0
M  V30 4382 C 406.808 4.57227 2.50186 0
M  V30 4383 C 404.136 5.36501 2.37451 0
M  V30 4384 C 406.488 5.90547 2.26797 0
M  V30 4385 C 405.152 6.30245 2.1988 0
M  V30 4386 H 404.422 0.471171 0.571908 0
M  V30 4387 H 407.069 1.67347 0.930974 0
M  V30 4388 H 405.374 1.68342 3.53791 0
M  V30 4389 H 407.071 2.0621 3.43917 0
M  V30 4390 H 403.661 3.30644 2.72713 0
M  V30 4391 H 407.845 4.2678 2.53323 0
M  V30 4392 H 403.101 5.66259 2.30567 0
M  V30 4393 H 407.275 6.63274 2.12228 0
M  V30 4394 H 404.902 7.33328 2.00333 0
M  V30 4395 N 406.477 -1.02803 1.19454 0
M  V30 4396 C 407.725 -1.75869 0.995722 0
M  V30 4397 C 408.046 -1.89138 -0.474543 0
M  V30 4398 O 407.316 -1.42558 -1.34366 0
M  V30 4399 H 405.896 -0.651511 0.365435 0
M  V30 4400 H 408.558 -1.24004 1.50363 0
M  V30 4401 H 407.654 -2.76661 1.44447 0
M  V30 4402 N 407.956 -0.998596 -1.21925 0
M  V30 4403 C 409.204 -0.676325 -1.90448 0
M  V30 4404 C 409.525 0.794719 -1.78071 0
M  V30 4405 O 408.795 1.5701 -1.17152 0
M  V30 4406 H 407.375 -0.247165 -0.704925 0
M  V30 4407 H 410.037 -1.26633 -1.48156 0
M  V30 4408 H 409.133 -0.943858 -2.97486 0
M  V30 4409 N 409.434 1.37368 -0.772513 0
M  V30 4410 C 410.366 2.28899 -0.117502 0
M  V30 4411 C 411.379 1.4867 0.663405 0
M  V30 4412 O 412.568 1.71314 0.501372 0
M  V30 4413 C 409.668 3.2788 0.857192 0
M  V30 4414 C 408.841 4.37207 0.129938 0
M  V30 4415 C 407.9 5.16257 1.01811 0
M  V30 4416 O 406.926 5.67159 0.481601 0
M  V30 4417 N 408.128 5.31058 2.3443 0
M  V30 4418 H 410.893 2.85752 -0.903662 0
M  V30 4419 H 408.454 1.49353 -0.62493 0
M  V30 4420 H 410.446 3.77647 1.45482 0
M  V30 4421 H 409.016 2.7179 1.54432 0
M  V30 4422 H 408.236 3.88827 -0.648605 0
M  V30 4423 H 409.524 5.07434 -0.372559 0
M  V30 4424 H 408.922 4.91287 2.80452 0
M  V30 4425 H 407.479 5.84131 2.89197 0
M  V30 4426 N 410.912 0.523116 1.48665 0
M  V30 4427 C 412.189 -0.0775449 1.95446 0
M  V30 4428 C 412.569 -1.5197 1.4652 0
M  V30 4429 O 411.917 -2.17876 0.688657 0
M  V30 4430 C 412.127 0.0326135 3.48985 0
M  V30 4431 C 413.475 -0.130141 4.24401 0
M  V30 4432 O 414.499 -0.0415142 3.56176 0
M  V30 4433 O 413.358 -0.31491 5.45592 0
M  V30 4434 H 410.452 -0.0831012 0.822814 0
M  V30 4435 H 412.998 0.587227 1.59216 0
M  V30 4436 H 411.77 1.03748 3.77296 0
M  V30 4437 H 411.393 -0.671317 3.91892 0
M  V30 4438 N 412.39 -1.55475 0.257931 0
M  V30 4439 C 413.353 -2.20551 -0.623706 0
M  V30 4440 C 414.353 -1.17809 -1.09443 0
M  V30 4441 O 415.543 -1.42823 -0.997362 0
M  V30 4442 C 412.675 -2.85784 -1.8585 0
M  V30 4443 H 413.868 -2.99848 -0.0557743 0
M  V30 4444 H 411.421 -1.56298 0.0084422 0
M  V30 4445 H 412.156 -2.10453 -2.46739 0
M  V30 4446 H 411.941 -3.61057 -1.52907 0
M  V30 4447 H 413.431 -3.35553 -2.48584 0
M  V30 4448 N 413.868 0.0150385 -1.57593 0
M  V30 4449 C 414.816 1.02958 -2.08572 0
M  V30 4450 C 415.81 1.36554 -1.00246 0
M  V30 4451 O 417.016 1.35295 -1.18724 0
M  V30 4452 H 413.391 0.349619 -0.665786 0
M  V30 4453 H 415.362 0.573932 -2.92829 0
M  V30 4454 C 414.111 2.31752 -2.59203 0
M  V30 4455 H 413.434 2.06765 -3.42182 0
M  V30 4456 H 414.874 3.01053 -2.98568 0
M  V30 4457 C 413.333 3.01692 -1.49945 0
M  V30 4458 O 413.863 3.92083 -0.873704 0
M  V30 4459 N 412.069 2.6326 -1.23056 0
M  V30 4460 H 411.616 1.89838 -1.74125 0
M  V30 4461 H 411.574 3.10372 -0.501685 0
M  V30 4462 N 415.346 1.54954 0.287554 0
M  V30 4463 C 416.276 1.89839 1.35954 0
M  V30 4464 C 417.257 0.758675 1.52244 0
M  V30 4465 O 418.442 1.01557 1.65529 0
M  V30 4466 C 415.572 2.15753 2.72154 0
M  V30 4467 C 414.526 3.3159 2.70614 0
M  V30 4468 C 413.852 3.42952 4.10229 0
M  V30 4469 C 415.152 4.68359 2.31165 0
M  V30 4470 H 416.846 2.79625 1.07007 0
M  V30 4471 H 414.392 1.3454 0.513316 0
M  V30 4472 H 416.345 2.38743 3.47246 0
M  V30 4473 H 415.069 1.22752 3.02654 0
M  V30 4474 H 413.728 3.08545 1.97979 0
M  V30 4475 H 413.376 2.47443 4.37928 0
M  V30 4476 H 413.076 4.20826 4.10097 0
M  V30 4477 H 414.6 3.68218 4.87081 0
M  V30 4478 H 416.014 4.9099 2.95976 0
M  V30 4479 H 414.411 5.49044 2.42221 0
M  V30 4480 H 415.481 4.68165 1.26291 0
M  V30 4481 N 416.824 -0.551391 1.4764 0
M  V30 4482 C 418.073 -1.30467 1.53822 0
M  V30 4483 C 418.386 -1.94495 0.207661 0
M  V30 4484 O 419.592 -2.71099 0.147533 0
M  V30 4485 C 418.048 -2.36616 2.71184 0
M  V30 4486 C 417.656 -1.78754 4.10793 0
M  V30 4487 C 419.4 -3.13088 2.86663 0
M  V30 4488 C 417.307 -2.82717 5.19447 0
M  V30 4489 H 416.237 -0.490584 0.572576 0
M  V30 4490 H 418.888 -0.58494 1.73927 0
M  V30 4491 H 417.27 -3.11529 2.4447 0
M  V30 4492 H 418.444 -1.10173 4.47435 0
M  V30 4493 H 416.759 -1.14846 4.00249 0
M  V30 4494 H 419.356 -3.90736 3.65007 0
M  V30 4495 H 419.699 -3.67635 1.95321 0
M  V30 4496 H 420.232 -2.45288 3.13175 0
M  V30 4497 H 416.971 -2.33018 6.12685 0
M  V30 4498 H 416.491 -3.4969 4.87316 0
M  V30 4499 H 418.17 -3.46102 5.46646 0
M  V30 4500 N 418.302 -1.35869 -0.798587 0
M  V30 4501 C 419.527 -1.32883 -1.59238 0
M  V30 4502 C 419.952 0.0894587 -1.87887 0
M  V30 4503 O 419.31 1.05869 -1.47178 0
M  V30 4504 C 419.358 -2.14892 -2.89575 0
M  V30 4505 O 418.462 -1.53512 -3.82763 0
M  V30 4506 H 417.803 -0.455236 -0.48338 0
M  V30 4507 H 420.333 -1.79024 -0.990539 0
M  V30 4508 H 420.343 -2.27139 -3.38928 0
M  V30 4509 H 419.018 -3.17998 -2.68049 0
M  V30 4510 H 417.595 -1.50153 -3.41334 0
M  V30 4511 N 419.78 1.02168 -1.19998 0
M  V30 4512 C 421.029 1.75091 -1.0013 0
M  V30 4513 C 421.342 1.89923 0.467835 0
M  V30 4514 O 422.548 2.59888 0.785515 0
M  V30 4515 C 421.004 3.14892 -1.74273 0
M  V30 4516 C 420.612 3.0809 -3.25245 0
M  V30 4517 C 422.356 3.9206 -1.62755 0
M  V30 4518 C 420.263 4.42867 -3.91948 0
M  V30 4519 H 419.193 0.656394 -0.37103 0
M  V30 4520 H 421.844 1.14284 -1.43567 0
M  V30 4521 H 420.226 3.7621 -1.2362 0
M  V30 4522 H 421.4 2.5611 -3.83072 0
M  V30 4523 H 419.715 2.44416 -3.3712 0
M  V30 4524 H 422.312 4.91764 -2.09934 0
M  V30 4525 H 422.655 4.12199 -0.582894 0
M  V30 4526 H 423.188 3.37359 -2.10793 0
M  V30 4527 H 419.927 4.27931 -4.96543 0
M  V30 4528 H 419.447 4.94874 -3.3891 0
M  V30 4529 H 421.126 5.11728 -3.95909 0
M  V30 4530 N 421.258 1.00505 1.21394 0
M  V30 4531 C 422.535 0.603277 1.86064 0
M  V30 4532 C 422.915 -0.919095 1.90042 0
M  V30 4533 O 422.263 -1.80607 1.39977 0
M  V30 4534 C 422.473 1.23772 3.26315 0
M  V30 4535 C 423.821 1.34586 4.02705 0
M  V30 4536 O 424.845 1.19304 3.35626 0
M  V30 4537 O 423.704 1.59169 5.22807 0
M  V30 4538 H 420.798 0.206634 0.800769 0
M  V30 4539 H 423.344 1.1017 1.29076 0
M  V30 4540 H 422.116 2.27848 3.18121 0
M  V30 4541 H 421.739 0.725648 3.90922 0
M  V30 4542 N 422.737 -1.36956 0.779787 0
M  V30 4543 C 423.986 -1.98738 0.344405 0
M  V30 4544 C 424.299 -1.62596 -1.08728 0
M  V30 4545 O 425.505 -2.1754 -1.62445 0
M  V30 4546 C 423.961 -3.5544 0.564829 0
M  V30 4547 C 423.569 -4.00514 2.0073 0
M  V30 4548 C 425.313 -4.24059 0.193471 0
M  V30 4549 C 423.22 -5.49957 2.17489 0
M  V30 4550 H 422.15 -0.743561 0.12503 0
M  V30 4551 H 424.801 -1.56381 0.960057 0
M  V30 4552 H 423.183 -3.95817 -0.120397 0
M  V30 4553 H 424.357 -3.71362 2.72814 0
M  V30 4554 H 422.672 -3.44703 2.336 0
M  V30 4555 H 425.269 -5.33874 0.297097 0
M  V30 4556 H 425.612 -4.07378 -0.857263 0
M  V30 4557 H 426.145 -3.89012 0.831556 0
M  V30 4558 H 422.884 -5.71574 3.2091 0
M  V30 4559 H 422.404 -5.80767 1.49899 0
M  V30 4560 H 424.083 -6.16043 1.97738 0
M  V30 4561 N 424.215 -0.530993 -1.48385 0
M  V30 4562 C 425.162 0.231223 -2.29639 0
M  V30 4563 C 426.132 0.932864 -1.37429 0
M  V30 4564 O 427.317 0.933692 -1.66394 0
M  V30 4565 C 424.457 1.27155 -3.2082 0
M  V30 4566 C 423.57 0.578655 -4.28107 0
M  V30 4567 C 422.705 1.602 -5.06467 0
M  V30 4568 C 421.744 0.892625 -6.05556 0
M  V30 4569 N 420.881 1.86157 -6.76971 0
M  V30 4570 H 425.721 -0.467848 -2.94305 0
M  V30 4571 H 423.258 -0.242556 -1.45086 0
M  V30 4572 H 425.216 1.88703 -3.72085 0
M  V30 4573 H 423.846 1.939 -2.58075 0
M  V30 4574 H 422.898 -0.150782 -3.80101 0
M  V30 4575 H 424.21 0.0217065 -4.98795 0
M  V30 4576 H 423.364 2.29173 -5.61751 0
M  V30 4577 H 422.103 2.19285 -4.35621 0
M  V30 4578 H 421.108 0.188829 -5.49476 0
M  V30 4579 H 422.333 0.307878 -6.78402 0
M  V30 4580 H 420.279 2.44147 -6.08875 0
M  V30 4581 H 420.196 1.35608 -7.43738 0
M  V30 4582 H 421.464 2.54325 -7.36844 0
M  V30 4583 N 425.693 1.55336 -0.266172 0
M  V30 4584 C 426.641 2.23587 0.641228 0
M  V30 4585 C 427.635 1.22986 1.16494 0
M  V30 4586 O 428.841 1.40943 1.1196 0
M  V30 4587 H 425.216 0.717452 0.225315 0
M  V30 4588 H 427.187 2.9837 0.0426561 0
M  V30 4589 C 425.936 2.96369 1.81826 0
M  V30 4590 H 425.259 3.73563 1.42445 0
M  V30 4591 H 426.699 3.47459 2.42998 0
M  V30 4592 C 425.158 2.0133 2.70125 0
M  V30 4593 O 425.688 1.55875 3.70224 0
M  V30 4594 N 423.894 1.6802 2.37102 0
M  V30 4595 H 423.441 2.05181 1.55751 0
M  V30 4596 H 423.399 1.047 2.96454 0
M  V30 4597 N 427.171 -0.0066808 1.57599 0
M  V30 4598 C 428.448 -0.729586 1.81484 0
M  V30 4599 C 428.828 -1.92359 0.869558 0
M  V30 4600 O 428.176 -2.28348 -0.0832533 0
M  V30 4601 C 428.386 -1.1416 3.29801 0
M  V30 4602 C 429.734 -1.54823 3.95367 0
M  V30 4603 O 430.758 -1.23558 3.34084 0
M  V30 4604 O 429.617 -2.12937 5.03309 0
M  V30 4605 H 426.711 -0.354674 0.747085 0
M  V30 4606 H 429.257 0.0182609 1.6969 0
M  V30 4607 H 428.029 -0.290231 3.90222 0
M  V30 4608 H 427.652 -1.94876 3.46568 0
M  V30 4609 N 428.649 -1.55105 -0.279332 0
M  V30 4610 C 429.579 -1.90557 -1.34945 0
M  V30 4611 C 430.56 -0.766738 -1.51839 0
M  V30 4612 O 431.745 -1.02434 -1.64988 0
M  V30 4613 C 428.875 -2.17193 -2.71006 0
M  V30 4614 C 427.829 -3.33021 -2.68851 0
M  V30 4615 C 427.155 -3.45123 -4.08405 0
M  V30 4616 C 428.455 -4.69578 -2.28678 0
M  V30 4617 H 430.149 -2.80188 -1.05522 0
M  V30 4618 H 427.695 -1.34811 -0.506173 0
M  V30 4619 H 429.648 -2.40581 -3.45975 0
M  V30 4620 H 428.372 -1.24355 -3.01999 0
M  V30 4621 H 427.031 -3.0959 -1.9634 0
M  V30 4622 H 426.679 -2.49762 -4.3661 0
M  V30 4623 H 426.379 -4.22995 -4.07859 0
M  V30 4624 H 427.903 -3.70796 -4.85121 0
M  V30 4625 H 429.317 -4.92553 -2.93368 0
M  V30 4626 H 427.714 -5.5032 -2.39306 0
M  V30 4627 H 428.784 -4.68828 -1.23807 0
M  V30 4628 N 430.127 0.543554 -1.4793 0
M  V30 4629 C 431.357 1.32324 -1.58663 0
M  V30 4630 C 431.765 1.8766 -0.240896 0
M  V30 4631 O 431.108 1.66411 0.778011 0
M  V30 4632 C 431.17 2.52094 -2.56299 0
M  V30 4633 C 430.834 2.17944 -4.01683 0
M  V30 4634 C 431.831 1.74422 -4.89768 0
M  V30 4635 C 429.516 2.28884 -4.47121 0
M  V30 4636 C 431.51 1.42287 -6.21316 0
M  V30 4637 C 429.197 1.96361 -5.78693 0
M  V30 4638 C 430.195 1.53132 -6.65612 0
M  V30 4639 O 429.883 1.21029 -7.94737 0
M  V30 4640 H 429.615 0.409174 -0.538101 0
M  V30 4641 H 432.169 0.663887 -1.94375 0
M  V30 4642 H 430.399 3.20965 -2.15681 0
M  V30 4643 H 432.088 3.14165 -2.57012 0
M  V30 4644 H 432.854 1.65452 -4.55907 0
M  V30 4645 H 428.733 2.61488 -3.79664 0
M  V30 4646 H 432.277 1.08472 -6.89115 0
M  V30 4647 H 428.174 2.04967 -6.12094 0
M  V30 4648 H 428.942 1.34543 -8.07366 0
M  V30 4649 N 431.605 1.3629 0.791371 0
M  V30 4650 C 432.515 1.32606 1.93527 0
M  V30 4651 C 433.531 0.228541 1.72493 0
M  V30 4652 O 434.707 0.460571 1.96063 0
M  V30 4653 C 431.772 1.11271 3.28359 0
M  V30 4654 C 430.833 2.3048 3.62185 0
M  V30 4655 C 430.066 2.10154 4.90583 0
M  V30 4656 O 430.289 1.07572 5.60165 0
M  V30 4657 O 429.223 2.97884 5.23019 0
M  V30 4658 H 433.049 2.28909 1.99585 0
M  V30 4659 H 430.634 1.16818 0.931344 0
M  V30 4660 H 432.516 1.01283 4.09047 0
M  V30 4661 H 431.191 0.180292 3.23198 0
M  V30 4662 H 430.098 2.46036 2.81811 0
M  V30 4663 H 431.431 3.22221 3.72068 0
M  V30 4664 N 433.083 -1.0153 1.20538 0
M  V30 4665 C 434.03 -2.10098 0.955383 0
M  V30 4666 C 435 -1.65702 -0.114878 0
M  V30 4667 O 436.185 -1.90776 0.0301118 0
M  V30 4668 C 433.325 -3.41236 0.514969 0
M  V30 4669 C 432.438 -3.99102 1.65353 0
M  V30 4670 C 431.573 -5.18306 1.16329 0
M  V30 4671 C 430.612 -5.68258 2.27485 0
M  V30 4672 N 429.749 -6.78722 1.7967 0
M  V30 4673 H 434.589 -2.30818 1.88486 0
M  V30 4674 H 432.126 -1.13189 0.939499 0
M  V30 4675 H 434.084 -4.16504 0.240935 0
M  V30 4676 H 432.714 -3.20585 -0.377512 0
M  V30 4677 H 431.766 -3.20918 2.04245 0
M  V30 4678 H 433.078 -4.32177 2.49047 0
M  V30 4679 H 432.232 -6.00782 0.845302 0
M  V30 4680 H 430.971 -4.86799 0.296254 0
M  V30 4681 H 429.976 -4.84385 2.60099 0
M  V30 4682 H 431.201 -6.01798 3.14667 0
M  V30 4683 H 429.147 -6.49042 0.95295 0
M  V30 4684 H 429.064 -7.10996 2.56944 0
M  V30 4685 H 430.332 -7.64759 1.50875 0
M  V30 4686 N 434.561 -1.01147 -1.20859 0
M  V30 4687 C 435.789 -0.716911 -1.94082 0
M  V30 4688 C 436.204 0.721568 -1.74467 0
M  V30 4689 O 435.561 1.48889 -1.05539 0
M  V30 4690 C 435.612 -1.03662 -3.46318 0
M  V30 4691 O 435.333 -2.4186 -3.65288 0
M  V30 4692 C 436.834 -0.762386 -4.36695 0
M  V30 4693 H 434.054 -0.26367 -0.617024 0
M  V30 4694 H 436.598 -1.35127 -1.53496 0
M  V30 4695 H 434.753 -0.447757 -3.84804 0
M  V30 4696 H 435.167 -2.53224 -4.59323 0
M  V30 4697 H 436.641 -1.03621 -5.42187 0
M  V30 4698 H 437.118 0.303514 -4.3815 0
M  V30 4699 H 437.724 -1.33316 -4.03865 0
M  V30 4700 N 436.039 1.36541 -0.78704 0
M  V30 4701 C 436.969 2.32659 -0.197992 0
M  V30 4702 C 437.95 1.56533 0.665697 0
M  V30 4703 O 439.135 1.84698 0.60001 0
M  V30 4704 C 436.265 3.40778 0.669901 0
M  V30 4705 C 435.219 4.27897 -0.0937039 0
M  V30 4706 C 434.545 5.27163 0.894629 0
M  V30 4707 C 435.845 5.06334 -1.28154 0
M  V30 4708 H 437.539 2.82171 -1.00099 0
M  V30 4709 H 435.085 1.35665 -0.482793 0
M  V30 4710 H 437.038 4.07008 1.09191 0
M  V30 4711 H 435.762 2.89827 1.50558 0
M  V30 4712 H 434.421 3.6322 -0.49666 0
M  V30 4713 H 434.069 4.72486 1.72527 0
M  V30 4714 H 433.769 5.86317 0.388149 0
M  V30 4715 H 435.293 5.96266 1.31525 0
M  V30 4716 H 436.707 5.65617 -0.93541 0
M  V30 4717 H 435.104 5.74888 -1.72115 0
M  V30 4718 H 436.174 4.38114 -2.07807 0
M  V30 4719 N 437.518 0.538854 1.48102 0
M  V30 4720 C 438.466 -0.232325 2.31437 0
M  V30 4721 C 439.46 -0.927004 1.41785 0
M  V30 4722 O 440.666 -0.850378 1.58646 0
M  V30 4723 H 437.041 -0.0937916 0.746128 0
M  V30 4724 H 439.012 0.489986 2.9435 0
M  V30 4725 C 437.761 -1.26074 3.24038 0
M  V30 4726 H 437.084 -0.735609 3.92974 0
M  V30 4727 H 438.524 -1.77157 3.85216 0
M  V30 4728 C 436.983 -2.29902 2.46265 0
M  V30 4729 O 437.513 -3.36502 2.19384 0
M  V30 4730 N 435.719 -2.03348 2.07601 0
M  V30 4731 H 435.266 -1.16675 2.29662 0
M  V30 4732 H 435.224 -2.73038 1.55877 0
M  V30 4733 N 438.996 -1.55193 0.274407 0
M  V30 4734 C 440.273 -1.91584 -0.394331 0
M  V30 4735 C 440.653 -1.19858 -1.73774 0
M  V30 4736 O 440.001 -0.3252 -2.26174 0
M  V30 4737 C 440.211 -3.4487 -0.535311 0
M  V30 4738 C 441.559 -4.16636 -0.818534 0
M  V30 4739 O 442.583 -3.5076 -0.620146 0
M  V30 4740 O 441.442 -5.33209 -1.19792 0
M  V30 4741 H 438.536 -0.798349 -0.215794 0
M  V30 4742 H 441.082 -1.66646 0.320507 0
M  V30 4743 H 439.854 -3.89145 0.410141 0
M  V30 4744 H 439.477 -3.75759 -1.29964 0
M  V30 4745 N 440.474 -0.00167713 -1.576 0
M  V30 4746 C 441.704 0.692754 -1.94639 0
M  V30 4747 C 442.112 1.67744 -0.87513 0
M  V30 4748 O 441.455 1.8305 0.154382 0
M  V30 4749 C 441.517 1.47881 -3.27676 0
M  V30 4750 C 441.181 0.655518 -4.52274 0
M  V30 4751 C 442.178 -0.0575214 -5.19868 0
M  V30 4752 C 439.863 0.600994 -4.98692 0
M  V30 4753 C 441.857 -0.814052 -6.3218 0
M  V30 4754 C 439.544 -0.15926 -6.10892 0
M  V30 4755 C 440.542 -0.865515 -6.77494 0
M  V30 4756 O 440.23 -1.61336 -7.87544 0
M  V30 4757 H 439.962 0.197792 -0.646417 0
M  V30 4758 H 442.516 -0.049423 -2.05341 0
M  V30 4759 H 440.746 2.2655 -3.13388 0
M  V30 4760 H 442.435 2.05874 -3.49816 0
M  V30 4761 H 443.201 -0.0245611 -4.84994 0
M  V30 4762 H 439.08 1.14025 -4.46676 0
M  V30 4763 H 442.624 -1.36584 -6.84098 0
M  V30 4764 H 438.521 -0.194035 -6.45208 0
M  V30 4765 H 439.289 -1.53025 -8.04068 0
M  V30 4766 N 441.952 1.55251 0.271103 0
M  V30 4767 C 442.899 1.88261 1.33516 0
M  V30 4768 C 443.869 0.734296 1.48988 0
M  V30 4769 O 445.054 0.985741 1.63364 0
M  V30 4770 C 442.194 2.16168 2.69008 0
M  V30 4771 C 441.307 3.43678 2.61743 0
M  V30 4772 C 440.442 3.61276 3.89427 0
M  V30 4773 C 439.481 4.82472 3.7668 0
M  V30 4774 N 438.618 4.96717 4.96202 0
M  V30 4775 H 443.458 2.79015 1.04665 0
M  V30 4776 H 440.995 1.38137 0.505618 0
M  V30 4777 H 442.953 2.30349 3.47844 0
M  V30 4778 H 441.583 1.28646 2.96057 0
M  V30 4779 H 440.635 3.37959 1.74607 0
M  V30 4780 H 441.947 4.3265 2.48224 0
M  V30 4781 H 441.101 3.75284 4.76704 0
M  V30 4782 H 439.84 2.70492 4.05814 0
M  V30 4783 H 438.845 4.68465 2.87786 0
M  V30 4784 H 440.07 5.74692 3.61809 0
M  V30 4785 H 438.016 4.08865 5.12997 0
M  V30 4786 H 437.933 5.79738 4.85222 0
M  V30 4787 H 439.201 5.15113 5.85046 0
M  V30 4788 N 443.43 -0.535701 1.48216 0
M  V30 4789 C 444.393 -1.623 1.61838 0
M  V30 4790 C 445.393 -1.53087 0.492024 0
M  V30 4791 O 446.583 -1.5686 0.757668 0
M  V30 4792 C 443.715 -3.01907 1.58319 0
M  V30 4793 H 444.908 -1.51564 2.58783 0
M  V30 4794 H 442.461 -0.757317 1.36727 0
M  V30 4795 H 443.196 -3.18155 0.628299 0
M  V30 4796 H 442.981 -3.10003 2.40085 0
M  V30 4797 H 444.471 -3.80969 1.71033 0
M  V30 4798 N 444.908 -1.36708 -0.784132 0
M  V30 4799 C 446.157 -1.30559 -1.53744 0
M  V30 4800 C 446.47 0.111374 -1.95283 0
M  V30 4801 O 447.676 0.29527 -2.6989 0
M  V30 4802 C 446.132 -2.29098 -2.77565 0
M  V30 4803 C 445.74 -3.76258 -2.43174 0
M  V30 4804 C 447.484 -2.31936 -3.55536 0
M  V30 4805 C 445.391 -4.6656 -3.63422 0
M  V30 4806 H 444.321 -0.48518 -0.577162 0
M  V30 4807 H 446.972 -1.62101 -0.859981 0
M  V30 4808 H 445.354 -1.90557 -3.47137 0
M  V30 4809 H 446.528 -4.23565 -1.81465 0
M  V30 4810 H 444.843 -3.76246 -1.78403 0
M  V30 4811 H 447.44 -2.9661 -4.44889 0
M  V30 4812 H 447.783 -1.3294 -3.94503 0
M  V30 4813 H 448.316 -2.6912 -2.92949 0
M  V30 4814 H 445.055 -5.66638 -3.29547 0
M  V30 4815 H 444.575 -4.23966 -4.24279 0
M  V30 4816 H 446.254 -4.8309 -4.30387 0
M  V30 4817 N 446.386 1.0089 -1.21074 0
M  V30 4818 C 447.349 2.0775 -0.968129 0
M  V30 4819 C 448.349 1.6069 0.0593445 0
M  V30 4820 O 449.539 1.73293 -0.177525 0
M  V30 4821 C 446.671 3.37794 -0.459108 0
M  V30 4822 H 447.864 2.30707 -1.9161 0
M  V30 4823 H 445.417 1.17807 -1.02719 0
M  V30 4824 H 446.152 3.20516 0.49397 0
M  V30 4825 H 445.937 3.7328 -1.20019 0
M  V30 4826 H 447.427 4.16454 -0.309099 0
M  V30 4827 N 447.864 1.01787 1.20321 0
M  V30 4828 C 448.812 0.58254 2.25187 0
M  V30 4829 C 449.806 -0.379359 1.65098 0
M  V30 4830 O 451.012 -0.249142 1.78267 0
M  V30 4831 H 447.387 0.170078 0.732514 0
M  V30 4832 H 449.358 1.47788 2.59232 0
M  V30 4833 C 448.107 -0.0620885 3.47645 0
M  V30 4834 H 447.43 0.669069 3.94162 0
M  V30 4835 H 448.87 -0.329784 4.22716 0
M  V30 4836 C 447.329 -1.3053 3.10586 0
M  V30 4837 O 447.859 -2.39848 3.22236 0
M  V30 4838 N 446.065 -1.18988 2.65123 0
M  V30 4839 H 445.612 -0.300341 2.55843 0
M  V30 4840 H 445.57 -2.02267 2.40698 0
M  V30 4841 N 449.342 -1.36122 0.79427 0
M  V30 4842 C 450.289 -2.29982 0.194101 0
M  V30 4843 C 451.259 -1.52214 -0.664833 0
M  V30 4844 O 452.444 -1.80702 -0.612498 0
M  V30 4845 C 449.584 -3.38706 -0.661244 0
M  V30 4846 C 448.697 -4.31456 0.216766 0
M  V30 4847 C 447.832 -5.27265 -0.645411 0
M  V30 4848 C 446.871 -6.11653 0.233756 0
M  V30 4849 N 446.008 -6.99636 -0.587682 0
M  V30 4850 H 450.848 -2.80722 0.999965 0
M  V30 4851 H 448.385 -1.38172 0.504677 0
M  V30 4852 H 450.343 -4.00394 -1.17219 0
M  V30 4853 H 448.973 -2.89274 -1.43249 0
M  V30 4854 H 448.025 -3.7088 0.845724 0
M  V30 4855 H 449.337 -4.90724 0.893973 0
M  V30 4856 H 448.491 -5.94266 -1.22198 0
M  V30 4857 H 447.23 -4.68463 -1.35623 0
M  V30 4858 H 446.235 -5.4361 0.82269 0
M  V30 4859 H 447.46 -6.72531 0.942247 0
M  V30 4860 H 445.406 -6.43337 -1.2827 0
M  V30 4861 H 445.323 -7.55993 0.0317402 0
M  V30 4862 H 446.591 -7.71001 -1.14792 0
M  V30 4863 N 450.82 -0.546701 -1.47814 0
M  V30 4864 C 451.75 0.195317 -2.32682 0
M  V30 4865 C 452.731 0.918981 -1.43139 0
M  V30 4866 O 453.916 0.901501 -1.72008 0
M  V30 4867 C 451.046 1.23237 -3.247 0
M  V30 4868 C 450 0.625818 -4.234 0
M  V30 4869 C 449.326 1.76674 -5.04669 0
M  V30 4870 C 450.626 -0.413515 -5.2066 0
M  V30 4871 H 452.32 -0.513184 -2.94969 0
M  V30 4872 H 449.866 -0.248241 -1.41844 0
M  V30 4873 H 451.819 1.75955 -3.82907 0
M  V30 4874 H 450.543 1.97067 -2.60446 0
M  V30 4875 H 449.202 0.120023 -3.66403 0
M  V30 4876 H 448.85 2.49383 -4.36826 0
M  V30 4877 H 448.55 1.36673 -5.71484 0
M  V30 4878 H 450.074 2.29738 -5.65732 0
M  V30 4879 H 451.488 0.0272042 -5.73294 0
M  V30 4880 H 449.885 -0.731825 -5.95621 0
M  V30 4881 H 450.955 -1.31325 -4.66778 0
M  V30 4882 N 452.299 1.55045 -0.282633 0
M  V30 4883 C 453.524 2.04628 0.337977 0
M  V30 4884 C 453.949 1.15937 1.48123 0
M  V30 4885 O 453.307 0.159532 1.80597 0
M  V30 4886 C 453.355 3.51854 0.78936 0
M  V30 4887 O 452.459 3.66236 1.89592 0
M  V30 4888 H 451.8 0.660434 0.0687261 0
M  V30 4889 H 454.33 2.00261 -0.419124 0
M  V30 4890 H 454.34 3.93361 1.08311 0
M  V30 4891 H 453.015 4.15873 -0.0470419 0
M  V30 4892 H 451.592 3.36633 1.60413 0
M  V30 4893 N 453.777 0.010035 1.57597 0
M  V30 4894 C 454.709 -1.00649 2.05918 0
M  V30 4895 C 455.722 -1.30077 0.978964 0
M  V30 4896 O 456.911 -1.26878 1.25556 0
M  V30 4897 C 454.011 -2.33876 2.45265 0
M  V30 4898 C 453.184 -2.23242 3.7614 0
M  V30 4899 C 452.243 -3.39242 4.02245 0
M  V30 4900 O 451.269 -3.1698 4.72771 0
M  V30 4901 N 452.471 -4.6242 3.50924 0
M  V30 4902 H 455.236 -0.594333 2.93748 0
M  V30 4903 H 452.797 -0.17714 1.60928 0
M  V30 4904 H 454.789 -3.1027 2.59836 0
M  V30 4905 H 453.359 -2.66799 1.62902 0
M  V30 4906 H 452.579 -1.31696 3.71551 0
M  V30 4907 H 453.867 -2.13321 4.61922 0
M  V30 4908 H 453.265 -4.83404 2.93832 0
M  V30 4909 H 451.822 -5.36046 3.70807 0
M  V30 4910 N 455.255 -1.55392 -0.262866 0
M  V30 4911 C 456.501 -1.76737 -0.99458 0
M  V30 4912 C 456.834 -0.572453 -1.85571 0
M  V30 4913 O 456.109 0.429732 -1.89693 0
M  V30 4914 C 456.392 -3.07824 -1.8686 0
M  V30 4915 C 456.245 -4.3769 -1.03672 0
M  V30 4916 C 457.564 -3.35021 -2.85393 0
M  V30 4917 H 454.683 -0.643005 -0.360157 0
M  V30 4918 H 457.325 -1.88126 -0.266216 0
M  V30 4919 H 455.475 -2.98245 -2.48962 0
M  V30 4920 H 457.147 -4.59238 -0.43563 0
M  V30 4921 H 455.39 -4.32461 -0.340513 0
M  V30 4922 H 456.061 -5.25759 -1.6817 0
M  V30 4923 H 458.537 -3.44458 -2.33426 0
M  V30 4924 H 457.413 -4.27989 -3.43681 0
M  V30 4925 H 457.674 -2.55153 -3.61039 0
M  V30 4926 N 456.733 0.527833 -1.48498 0
M  V30 4927 C 457.961 1.30823 -1.6029 0
M  V30 4928 C 458.376 1.86945 -0.263974 0
M  V30 4929 O 457.733 1.6651 0.747034 0
M  V30 4930 C 457.784 2.45756 -2.65116 0
M  V30 4931 O 457.505 1.91946 -3.93813 0
M  V30 4932 C 459.006 3.37543 -2.87367 0
M  V30 4933 H 456.226 0.397763 -0.540394 0
M  V30 4934 H 458.77 0.636529 -1.94341 0
M  V30 4935 H 456.925 3.08806 -2.33917 0
M  V30 4936 H 457.339 2.67195 -4.51339 0
M  V30 4937 H 458.813 4.14532 -3.6451 0
M  V30 4938 H 459.29 3.92905 -1.9627 0
M  V30 4939 H 459.896 2.80283 -3.19878 0
M  V30 4940 N 458.211 1.37122 0.776871 0
M  V30 4941 C 459.436 1.354 1.57104 0
M  V30 4942 C 459.861 -0.0595562 1.88006 0
M  V30 4943 O 459.219 -1.03514 1.48844 0
M  V30 4944 C 459.267 2.19472 2.8612 0
M  V30 4945 O 458.371 1.59582 3.80273 0
M  V30 4946 H 457.712 0.462869 0.476076 0
M  V30 4947 H 460.242 1.80577 0.961932 0
M  V30 4948 H 460.252 2.32502 3.35271 0
M  V30 4949 H 458.927 3.22222 2.62956 0
M  V30 4950 H 457.504 1.55564 3.38902 0
M  V30 4951 N 459.689 -1.00246 1.21608 0
M  V30 4952 C 460.929 -1.75589 1.04631 0
M  V30 4953 C 461.293 -1.87513 -0.412648 0
M  V30 4954 O 462.494 -2.59444 -0.703003 0
M  V30 4955 C 460.765 -3.12893 1.72722 0
M  V30 4956 S 462.324 -4.04095 1.71034 0
M  V30 4957 H 459.142 -0.604133 0.374892 0
M  V30 4958 H 461.744 -1.19927 1.54395 0
M  V30 4959 H 460.448 -3.0185 2.78055 0
M  V30 4960 H 459.979 -3.73628 1.23149 0
M  V30 4961 H 461.994 -4.9045 0.753231 0
M  V30 4962 N 461.167 -1.02423 -1.1978 0
M  V30 4963 C 462.115 -0.594474 -2.24875 0
M  V30 4964 C 463.109 0.370598 -1.65296 0
M  V30 4965 O 464.315 0.239684 -1.78397 0
M  V30 4966 H 460.69 -0.173961 -0.731602 0
M  V30 4967 H 462.661 -1.4916 -2.58445 0
M  V30 4968 C 461.41 0.0436512 -3.47673 0
M  V30 4969 H 460.733 -0.689963 -3.93801 0
M  V30 4970 H 462.173 0.307362 -4.22884 0
M  V30 4971 C 460.632 1.28881 -3.11274 0
M  V30 4972 O 461.162 2.38135 -3.23503 0
M  V30 4973 N 459.368 1.1758 -2.6575 0
M  V30 4974 H 458.915 0.286769 -2.55999 0
M  V30 4975 H 458.873 2.00988 -2.41767 0
M  V30 4976 N 462.645 1.35699 -0.801477 0
M  V30 4977 C 463.922 1.9324 -0.302937 0
M  V30 4978 C 464.302 1.73209 1.20672 0
M  V30 4979 O 463.65 1.09809 2.00385 0
M  V30 4980 C 463.86 3.41728 -0.708747 0
M  V30 4981 C 465.208 4.18868 -0.695328 0
M  V30 4982 O 466.232 3.5022 -0.649971 0
M  V30 4983 O 465.091 5.41342 -0.749081 0
M  V30 4984 H 462.185 0.82331 -0.0780367 0
M  V30 4985 H 464.731 1.44806 -0.884832 0
M  V30 4986 H 463.503 3.50015 -1.74944 0
M  V30 4987 H 463.126 3.97471 -0.101384 0
M  V30 4988 N 464.123 0.554532 1.47522 0
M  V30 4989 C 465.534 0.120446 1.86311 0
M  V30 4990 C 465.885 -1.30904 1.46145 0
M  V30 4991 O 465.01 -1.98434 0.863294 0
M  V30 4992 C 465.605 0.211808 3.38137 0
M  V30 4993 C 464.164 -0.167224 3.76028 0
M  V30 4994 C 463.311 0.560576 2.71575 0
M  V30 4995 H 466.262 0.764408 1.39077 0
M  V30 4996 H 466.283 -0.570275 3.76202 0
M  V30 4997 H 465.795 1.25232 3.6734 0
M  V30 4998 H 463.896 -1.20894 3.52442 0
M  V30 4999 H 464.009 0.189473 4.78725 0
M  V30 5000 H 462.373 0.00396836 2.547 0
M  V30 5001 H 463.156 1.60219 3.0362 0
M  V30 5002 N 465.601 -1.54893 0.290851 0
M  V30 5003 C 466.549 -2.24579 -0.605576 0
M  V30 5004 C 467.543 -1.24824 -1.14522 0
M  V30 5005 O 468.749 -1.42706 -1.09704 0
M  V30 5006 H 465.124 -0.720946 -0.213872 0
M  V30 5007 H 467.095 -2.984 0.0048173 0
M  V30 5008 C 465.844 -2.99224 -1.77088 0
M  V30 5009 H 465.167 -3.75782 -1.36484 0
M  V30 5010 H 466.607 -3.51281 -2.3744 0
M  V30 5011 C 465.066 -2.05602 -2.66888 0
M  V30 5012 O 465.596 -1.61745 -3.67698 0
M  V30 5013 N 463.802 -1.71771 -2.34399 0
M  V30 5014 H 463.349 -2.07633 -1.52468 0
M  V30 5015 H 463.307 -1.09403 -2.94751 0
M  V30 5016 N 467.08 -0.0183926 -1.57589 0
M  V30 5017 C 468.329 0.66185 -1.90532 0
M  V30 5018 C 468.642 1.73904 -0.895366 0
M  V30 5019 O 469.848 2.47518 -1.11566 0
M  V30 5020 C 468.304 1.22844 -3.38286 0
M  V30 5021 C 467.912 0.185103 -4.47617 0
M  V30 5022 C 469.656 1.88581 -3.80312 0
M  V30 5023 C 467.563 0.762723 -5.86461 0
M  V30 5024 H 466.493 0.250972 -0.711006 0
M  V30 5025 H 469.144 -0.0819435 -1.83317 0
M  V30 5026 H 467.526 2.0235 -3.40398 0
M  V30 5027 H 468.7 -0.58671 -4.5705 0
M  V30 5028 H 467.015 -0.372889 -4.14727 0
M  V30 5029 H 469.612 2.32735 -4.81392 0
M  V30 5030 H 469.955 2.72408 -3.14801 0
M  V30 5031 H 470.488 1.15782 -3.80578 0
M  V30 5032 H 467.227 -0.0371713 -6.55489 0
M  V30 5033 H 466.747 1.50327 -5.80656 0
M  V30 5034 H 468.426 1.25576 -6.34697 0
M  V30 5035 N 468.558 1.5553 0.254621 0
M  V30 5036 C 469.835 1.6774 1.00611 0
M  V30 5037 C 470.215 0.555993 2.03647 0
M  V30 5038 O 469.563 -0.441583 2.24193 0
M  V30 5039 C 469.773 3.07725 1.6464 0
M  V30 5040 C 471.121 3.66074 2.15116 0
M  V30 5041 O 472.145 3.10476 1.74595 0
M  V30 5042 O 471.004 4.63526 2.89493 0
M  V30 5043 H 468.098 0.681958 0.467828 0
M  V30 5044 H 470.644 1.67863 0.24902 0
M  V30 5045 H 469.416 3.80792 0.900734 0
M  V30 5046 H 469.039 3.1158 2.46989 0
M  V30 5047 N 470.036 -0.519951 1.48776 0
M  V30 5048 C 471.285 -1.27175 1.56555 0
M  V30 5049 C 471.598 -1.9401 0.248869 0
M  V30 5050 O 472.804 -2.70725 0.205004 0
M  V30 5051 C 471.26 -2.30811 2.76142 0
M  V30 5052 C 470.868 -1.7 4.14493 0
M  V30 5053 C 472.612 -3.06937 2.9324 0
M  V30 5054 C 470.519 -2.71635 5.25327 0
M  V30 5055 H 469.449 -0.478329 0.582853 0
M  V30 5056 H 472.1 -0.547916 1.75129 0
M  V30 5057 H 470.482 -3.06274 2.51023 0
M  V30 5058 H 471.656 -1.00658 4.49672 0
M  V30 5059 H 469.971 -1.06331 4.02595 0
M  V30 5060 H 472.568 -3.82905 3.73213 0
M  V30 5061 H 472.911 -3.63409 2.03075 0
M  V30 5062 H 473.444 -2.38589 3.18308 0
M  V30 5063 H 470.183 -2.1997 6.1749 0
M  V30 5064 H 469.703 -3.39275 4.94624 0
M  V30 5065 H 471.382 -3.34429 5.53865 0
M  V30 5066 N 471.514 -1.37532 -0.769588 0
M  V30 5067 C 472.791 -1.23392 -1.51768 0
M  V30 5068 C 473.171 0.17157 -2.10402 0
M  V30 5069 O 472.519 1.17943 -1.95708 0
M  V30 5070 C 472.729 -2.33163 -2.59685 0
M  V30 5071 C 474.077 -2.70809 -3.27028 0
M  V30 5072 O 475.101 -2.32355 -2.69981 0
M  V30 5073 O 473.96 -3.37066 -4.30173 0
M  V30 5074 H 471.054 -0.481617 -0.67229 0
M  V30 5075 H 473.6 -1.49318 -0.806368 0
M  V30 5076 H 472.372 -3.27273 -2.14494 0
M  V30 5077 H 471.995 -2.08713 -3.38415 0
M  V30 5078 N 472.992 0.995999 -1.22138 0
M  V30 5079 C 474.217 1.77601 -1.0711 0
M  V30 5080 C 474.642 1.84339 0.374264 0
M  V30 5081 O 474 1.29359 1.27028 0
M  V30 5082 C 474.048 3.18897 -1.68336 0
M  V30 5083 O 473.152 4.01663 -0.934928 0
M  V30 5084 H 472.493 0.547011 -0.376397 0
M  V30 5085 H 475.023 1.25137 -1.6187 0
M  V30 5086 H 475.033 3.69539 -1.72931 0
M  V30 5087 H 473.708 3.13308 -2.73516 0
M  V30 5088 H 472.285 3.60204 -0.964751 0
M  V30 5089 N 474.47 1.03057 1.19235 0
M  V30 5090 C 475.7 0.746613 1.92638 0
M  V30 5091 C 476.108 -0.698708 1.75826 0
M  V30 5092 O 475.451 -1.487 1.07861 0
M  V30 5093 C 475.513 1.02024 3.44719 0
M  V30 5094 C 475.177 2.45745 3.85303 0
M  V30 5095 C 476.174 3.43887 3.8992 0
M  V30 5096 C 473.859 2.8019 4.16892 0
M  V30 5097 C 475.853 4.74529 4.2556 0
M  V30 5098 C 473.54 4.1104 4.52205 0
M  V30 5099 C 474.538 5.0802 4.56513 0
M  V30 5100 O 474.226 6.36527 4.91008 0
M  V30 5101 H 473.958 0.272401 0.618687 0
M  V30 5102 H 476.512 1.37853 1.52269 0
M  V30 5103 H 474.742 0.331184 3.85279 0
M  V30 5104 H 476.431 0.725677 3.9936 0
M  V30 5105 H 477.197 3.18614 3.65664 0
M  V30 5106 H 473.076 2.05382 4.12722 0
M  V30 5107 H 476.62 5.50222 4.28838 0
M  V30 5108 H 472.517 4.36086 4.7592 0
M  V30 5109 H 473.285 6.41025 5.08949 0
M  V30 5110 N 475.948 -1.35272 0.808662 0
M  V30 5111 C 476.895 -2.29764 0.218482 0
M  V30 5112 C 477.865 -1.52911 -0.648652 0
M  V30 5113 O 479.05 -1.81341 -0.593297 0
M  V30 5114 C 476.19 -3.39388 -0.625282 0
M  V30 5115 C 475.303 -4.31202 0.262516 0
M  V30 5116 C 474.438 -5.27919 -0.589451 0
M  V30 5117 C 473.477 -6.11371 0.298617 0
M  V30 5118 N 472.614 -7.0022 -0.513443 0
M  V30 5119 H 477.454 -2.79645 1.02968 0
M  V30 5120 H 474.991 -1.37629 0.519303 0
M  V30 5121 H 476.949 -4.01615 -1.12966 0
M  V30 5122 H 475.579 -2.90777 -1.40173 0
M  V30 5123 H 474.631 -3.69962 0.885013 0
M  V30 5124 H 475.943 -4.89748 0.945971 0
M  V30 5125 H 475.097 -5.95529 -1.15888 0
M  V30 5126 H 473.836 -4.69875 -1.30647 0
M  V30 5127 H 472.841 -5.42707 0.880301 0
M  V30 5128 H 474.066 -6.71494 1.01352 0
M  V30 5129 H 472.012 -6.44662 -1.21439 0
M  V30 5130 H 471.929 -7.55917 0.111922 0
M  V30 5131 H 473.197 -7.72175 -1.06608 0
M  V30 5132 N 477.426 -0.562348 -1.47226 0
M  V30 5133 C 478.358 0.220011 -2.28142 0
M  V30 5134 C 479.371 0.874596 -1.37312 0
M  V30 5135 O 480.56 0.747583 -1.62091 0
M  V30 5136 C 477.66 1.32953 -3.11732 0
M  V30 5137 C 476.833 0.770759 -4.30556 0
M  V30 5138 C 475.892 1.76541 -4.95701 0
M  V30 5139 O 474.918 1.3095 -5.53932 0
M  V30 5140 N 476.12 3.09896 -4.90861 0
M  V30 5141 H 478.885 -0.474107 -2.95926 0
M  V30 5142 H 476.446 -0.398761 -1.56912 0
M  V30 5143 H 478.438 1.99378 -3.5218 0
M  V30 5144 H 477.008 1.92681 -2.46156 0
M  V30 5145 H 476.228 -0.0704056 -3.94137 0
M  V30 5146 H 477.516 0.376872 -5.07402 0
M  V30 5147 H 476.914 3.49577 -4.44761 0
M  V30 5148 H 475.471 3.71865 -5.35313 0
M  V30 5149 N 478.904 1.54736 -0.299062 0
M  V30 5150 C 480.153 1.99279 0.311549 0
M  V30 5151 C 480.466 1.19107 1.55154 0
M  V30 5152 O 481.672 1.53908 2.23662 0
M  V30 5153 C 480.128 3.54768 0.605632 0
M  V30 5154 C 479.736 4.43746 -0.615914 0
M  V30 5155 C 481.48 4.07841 1.17754 0
M  V30 5156 C 479.387 5.90663 -0.29509 0
M  V30 5157 H 478.317 0.744359 0.120187 0
M  V30 5158 H 480.968 1.78919 -0.407464 0
M  V30 5159 H 479.35 3.71021 1.38419 0
M  V30 5160 H 480.524 4.39267 -1.39218 0
M  V30 5161 H 478.839 4.01434 -1.10633 0
M  V30 5162 H 481.436 5.15174 1.43179 0
M  V30 5163 H 481.779 3.58324 2.11918 0
M  V30 5164 H 482.312 3.95123 0.460739 0
M  V30 5165 H 479.051 6.44325 -1.20524 0
M  V30 5166 H 478.571 5.98155 0.44394 0
M  V30 5167 H 480.25 6.46916 0.104048 0
M  V30 5168 N 480.382 0.0267497 1.57577 0
M  V30 5169 C 481.612 -0.6617 1.95717 0
M  V30 5170 C 482.02 -1.66331 0.901706 0
M  V30 5171 O 481.363 -1.83273 -0.125241 0
M  V30 5172 C 481.425 -1.42649 3.29987 0
M  V30 5173 C 481.089 -0.583482 4.5326 0
M  V30 5174 C 482.086 0.140221 5.19711 0
M  V30 5175 C 479.771 -0.521581 4.99585 0
M  V30 5176 C 481.765 0.914523 6.30805 0
M  V30 5177 C 479.452 0.256428 6.10562 0
M  V30 5178 C 480.45 0.973189 6.76031 0
M  V30 5179 O 480.138 1.73845 7.84878 0
M  V30 5180 H 479.87 -0.187483 0.649481 0
M  V30 5181 H 482.424 0.0820847 2.05236 0
M  V30 5182 H 480.654 -2.21536 3.16952 0
M  V30 5183 H 482.343 -2.00282 3.53047 0
M  V30 5184 H 483.109 0.101716 4.84893 0
M  V30 5185 H 478.988 -1.06904 4.48433 0
M  V30 5186 H 482.532 1.4745 6.81839 0
M  V30 5187 H 478.429 0.296657 6.44818 0
M  V30 5188 H 479.197 1.65797 8.01532 0
M  V30 5189 N 481.861 -1.55662 -0.24637 0
M  V30 5190 C 482.793 -1.86811 -1.32794 0
M  V30 5191 C 483.806 -0.754413 -1.44265 0
M  V30 5192 O 484.995 -1.03253 -1.45606 0
M  V30 5193 C 482.095 -2.0397 -2.70646 0
M  V30 5194 C 481.268 -3.34832 -2.81436 0
M  V30 5195 C 480.327 -3.41727 -4.00136 0
M  V30 5196 O 479.353 -4.14934 -3.89639 0
M  V30 5197 N 480.555 -2.71058 -5.1333 0
M  V30 5198 H 483.32 -2.80174 -1.06409 0
M  V30 5199 H 480.881 -1.55906 -0.43647 0
M  V30 5200 H 482.873 -2.05924 -3.48393 0
M  V30 5201 H 481.443 -1.1735 -2.89738 0
M  V30 5202 H 480.663 -3.4519 -1.90361 0
M  V30 5203 H 481.951 -4.21085 -2.85595 0
M  V30 5204 H 481.349 -2.11314 -5.2475 0
M  V30 5205 H 479.906 -2.78704 -5.89209 0
M  V30 5206 N 483.339 0.512053 -1.4905 0
M  V30 5207 C 484.271 1.63121 -1.6101 0
M  V30 5208 C 485.284 1.55145 -0.493352 0
M  V30 5209 O 486.473 1.61278 -0.764955 0
M  V30 5210 C 483.573 3.01863 -1.54052 0
M  V30 5211 C 482.746 3.35138 -2.81072 0
M  V30 5212 C 481.805 4.5324 -2.67319 0
M  V30 5213 O 480.831 4.55571 -3.41238 0
M  V30 5214 N 482.033 5.52495 -1.78127 0
M  V30 5215 H 484.798 1.53292 -2.5753 0
M  V30 5216 H 482.359 0.699706 -1.45999 0
M  V30 5217 H 484.351 3.78774 -1.42521 0
M  V30 5218 H 482.921 3.05675 -0.654345 0
M  V30 5219 H 482.141 2.4723 -3.07036 0
M  V30 5220 H 483.429 3.54162 -3.65304 0
M  V30 5221 H 482.827 5.53403 -1.17308 0
M  V30 5222 H 481.384 6.28553 -1.72525 0
M  V30 5223 N 484.817 1.37938 0.762283 0
M  V30 5224 C 485.764 1.34467 1.87583 0
M  V30 5225 C 486.734 0.208633 1.64785 0
M  V30 5226 O 487.919 0.399494 1.86571 0
M  V30 5227 C 485.059 1.16692 3.24772 0
M  V30 5228 C 484.172 2.39608 3.59461 0
M  V30 5229 C 483.307 2.14631 4.85908 0
M  V30 5230 C 482.346 3.33364 5.13357 0
M  V30 5231 N 481.483 3.07877 6.30996 0
M  V30 5232 H 486.323 2.29669 1.89885 0
M  V30 5233 H 483.86 1.14116 0.928219 0
M  V30 5234 H 485.818 1.04405 4.03925 0
M  V30 5235 H 484.448 0.251333 3.2182 0
M  V30 5236 H 483.5 2.626 2.75219 0
M  V30 5237 H 484.812 3.28128 3.75678 0
M  V30 5238 H 483.966 1.99429 5.72986 0
M  V30 5239 H 482.705 1.23463 4.71814 0
M  V30 5240 H 481.71 3.49094 4.24751 0
M  V30 5241 H 482.935 4.25395 5.29354 0
M  V30 5242 H 480.881 2.19348 6.18241 0
M  V30 5243 H 480.798 3.89944 6.47673 0
M  V30 5244 H 482.066 2.96313 7.20985 0
M  V30 5245 N 486.295 -0.989507 1.22664 0
M  V30 5246 C 487.525 -1.7624 1.0781 0
M  V30 5247 C 487.933 -1.85466 -0.374036 0
M  V30 5248 O 487.276 -1.32645 -1.27087 0
M  V30 5249 C 487.338 -3.21007 1.61849 0
M  V30 5250 C 487.002 -3.35316 3.10503 0
M  V30 5251 C 487.999 -3.22362 4.07896 0
M  V30 5252 C 485.684 -3.60258 3.50028 0
M  V30 5253 C 487.678 -3.34139 5.42798 0
M  V30 5254 C 485.365 -3.71676 4.85078 0
M  V30 5255 C 486.363 -3.58625 5.81272 0
M  V30 5256 O 486.051 -3.69655 7.1387 0
M  V30 5257 H 485.783 -0.560209 0.378341 0
M  V30 5258 H 488.337 -1.25252 1.62792 0
M  V30 5259 H 486.567 -3.73202 1.01279 0
M  V30 5260 H 488.256 -3.80024 1.42606 0
M  V30 5261 H 489.022 -3.03 3.78703 0
M  V30 5262 H 484.901 -3.69492 2.75675 0
M  V30 5263 H 488.445 -3.23869 6.17863 0
M  V30 5264 H 484.342 -3.90545 5.1395 0
M  V30 5265 H 485.11 -3.86507 7.21495 0
M  V30 5266 N 487.773 -1.03688 -1.18687 0
M  V30 5267 C 488.705 -0.582696 -2.21669 0
M  V30 5268 C 489.718 0.345656 -1.59088 0
M  V30 5269 O 490.907 0.140776 -1.77944 0
M  V30 5270 C 488.007 0.169204 -3.38477 0
M  V30 5271 C 487.18 -0.766079 -4.30639 0
M  V30 5272 C 486.239 -0.0581541 -5.26168 0
M  V30 5273 O 485.265 -0.687346 -5.65035 0
M  V30 5274 N 486.467 1.20981 -5.67753 0
M  V30 5275 H 489.232 -1.46843 -2.61261 0
M  V30 5276 H 486.793 -0.916896 -1.33434 0
M  V30 5277 H 488.785 0.652543 -3.99405 0
M  V30 5278 H 487.355 0.956435 -2.97609 0
M  V30 5279 H 486.575 -1.42935 -3.67373 0
M  V30 5280 H 487.863 -1.40146 -4.89118 0
M  V30 5281 H 487.261 1.74159 -5.38224 0
M  V30 5282 H 485.818 1.6375 -6.30896 0
M  V30 5283 N 489.251 1.34841 -0.815825 0
M  V30 5284 C 490.498 1.98499 -0.400535 0
M  V30 5285 C 490.826 1.64699 1.03463 0
M  V30 5286 O 490.081 0.907006 1.73412 0
M  V30 5287 C 490.38 3.53273 -0.541541 0
M  V30 5288 C 490.046 4.06966 -1.94138 0
M  V30 5289 C 488.708 4.21341 -2.32433 0
M  V30 5290 C 491.06 4.35933 -2.85677 0
M  V30 5291 C 488.388 4.62007 -3.61617 0
M  V30 5292 C 490.74 4.78042 -4.14317 0
M  V30 5293 C 489.404 4.90622 -4.52599 0
M  V30 5294 H 488.674 0.72636 -0.146566 0
M  V30 5295 H 491.321 1.60902 -1.0384 0
M  V30 5296 H 489.626 3.91387 0.179741 0
M  V30 5297 H 491.323 4.00497 -0.20085 0
M  V30 5298 H 487.913 3.96235 -1.63388 0
M  V30 5299 H 492.097 4.24372 -2.57337 0
M  V30 5300 H 487.353 4.69937 -3.91113 0
M  V30 5301 H 491.527 4.99415 -4.85342 0
M  V30 5302 H 489.154 5.2189 -5.52752 0
M  V30 5303 N 490.729 0.570148 1.46925 0
M  V30 5304 C 492.006 -0.0153259 1.95594 0
M  V30 5305 C 492.386 -1.47232 1.51281 0
M  V30 5306 O 491.734 -2.15574 0.757624 0
M  V30 5307 C 491.944 0.143624 3.48704 0
M  V30 5308 C 493.292 0.00494484 4.246 0
M  V30 5309 O 494.316 0.0718214 3.56128 0
M  V30 5310 O 493.175 -0.141175 5.46318 0
M  V30 5311 H 490.269 -0.0568819 0.825041 0
M  V30 5312 H 492.815 0.637583 1.57267 0
M  V30 5313 H 491.587 1.15699 3.73804 0
M  V30 5314 H 491.21 -0.5463 3.93829 0
M  V30 5315 N 492.207 -1.54576 0.307264 0
M  V30 5316 C 493.154 -2.23751 -0.56604 0
M  V30 5317 C 494.124 -1.22235 -1.12462 0
M  V30 5318 O 495.309 -1.50873 -1.16799 0
M  V30 5319 C 492.449 -2.98661 -1.72903 0
M  V30 5320 C 491.562 -4.14963 -1.20124 0
M  V30 5321 C 490.697 -4.77441 -2.3286 0
M  V30 5322 C 489.736 -5.85875 -1.77247 0
M  V30 5323 N 488.873 -6.42282 -2.8358 0
M  V30 5324 H 493.713 -2.97984 0.0304578 0
M  V30 5325 H 491.25 -1.47076 0.0268015 0
M  V30 5326 H 493.208 -3.40329 -2.41313 0
M  V30 5327 H 491.838 -2.26793 -2.29706 0
M  V30 5328 H 490.89 -3.78193 -0.409198 0
M  V30 5329 H 492.202 -4.93066 -0.754171 0
M  V30 5330 H 491.356 -5.21993 -3.09205 0
M  V30 5331 H 490.095 -3.98684 -2.80896 0
M  V30 5332 H 489.1 -5.40741 -0.993926 0
M  V30 5333 H 490.325 -6.6652 -1.30107 0
M  V30 5334 H 488.271 -5.66406 -3.30939 0
M  V30 5335 H 488.188 -7.1575 -2.43388 0
M  V30 5336 H 489.456 -6.91492 -3.59804 0
M  V30 5337 N 493.685 -0.035106 -1.57561 0
M  V30 5338 C 494.962 0.681212 -1.83354 0
M  V30 5339 C 495.342 1.89986 -0.920252 0
M  V30 5340 O 494.69 2.28489 0.0226815 0
M  V30 5341 C 494.9 1.05376 -3.32712 0
M  V30 5342 C 496.248 1.44286 -3.99333 0
M  V30 5343 O 497.272 1.14656 -3.37242 0
M  V30 5344 O 496.131 1.99518 -5.08778 0
M  V30 5345 H 493.225 0.334741 -0.756226 0
M  V30 5346 H 495.771 -0.0632448 -1.69582 0
M  V30 5347 H 494.543 0.186668 -3.90854 0
M  V30 5348 H 494.166 1.85619 -3.51613 0
M  V30 5349 N 495.163 1.55791 0.238111 0
M  V30 5350 C 496.388 1.8244 0.986432 0
M  V30 5351 C 496.813 0.613314 1.7782 0
M  V30 5352 O 496.171 -0.437767 1.75935 0
M  V30 5353 C 496.219 3.06917 1.893 0
M  V30 5354 O 495.323 2.84449 2.98601 0
M  V30 5355 H 494.664 0.601975 0.280218 0
M  V30 5356 H 497.194 2.02987 0.256437 0
M  V30 5357 H 497.204 3.36583 2.30598 0
M  V30 5358 H 495.879 3.947 1.31091 0
M  V30 5359 H 494.456 2.65972 2.61368 0
M  V30 5360 N 496.642 -0.504142 1.49319 0
M  V30 5361 C 497.59 -1.62689 1.66238 0
M  V30 5362 C 498.584 -1.6095 0.528349 0
M  V30 5363 O 499.79 -1.65496 0.707887 0
M  V30 5364 H 496.165 -0.539247 0.524134 0
M  V30 5365 H 498.136 -1.45571 2.60484 0
M  V30 5366 C 496.885 -3.00841 1.74328 0
M  V30 5367 H 496.208 -3.02884 2.60963 0
M  V30 5368 H 497.648 -3.78945 1.90202 0
M  V30 5369 C 496.107 -3.33355 0.487416 0
M  V30 5370 O 496.637 -3.99819 -0.388294 0
M  V30 5371 N 494.843 -2.88469 0.351306 0
M  V30 5372 H 494.39 -2.34557 1.06492 0
M  V30 5373 H 494.348 -3.10591 -0.487899 0
M  V30 5374 N 498.12 -1.38341 -0.754957 0
M  V30 5375 C 499.368 -1.34208 -1.51105 0
M  V30 5376 C 499.689 0.0677634 -1.94882 0
M  V30 5377 O 498.959 1.01517 -1.67544 0
M  V30 5378 H 497.539 -0.493819 -0.560493 0
M  V30 5379 H 500.201 -1.73005 -0.897507 0
M  V30 5380 H 499.297 -1.99203 -2.4026 0
M  V30 5381 N 499.598 0.982988 -1.23187 0
M  V30 5382 C 500.53 2.07729 -0.968572 0
M  V30 5383 C 501.543 1.62702 0.0564821 0
M  V30 5384 O 502.732 1.77603 -0.178733 0
M  V30 5385 C 499.832 3.36071 -0.436974 0
M  V30 5386 C 499.005 4.10081 -1.52159 0
M  V30 5387 C 498.064 5.16701 -0.99532 0
M  V30 5388 O 497.09 5.43727 -1.68373 0
M  V30 5389 N 498.292 5.80226 0.178192 0
M  V30 5390 H 501.057 2.30894 -1.9107 0
M  V30 5391 H 498.618 1.14949 -1.1401 0
M  V30 5392 H 500.61 4.04639 -0.0700051 0
M  V30 5393 H 499.18 3.09893 0.410509 0
M  V30 5394 H 498.4 3.36004 -2.06144 0
M  V30 5395 H 499.688 4.56295 -2.25105 0
M  V30 5396 H 499.086 5.60651 0.754096 0
M  V30 5397 H 497.643 6.49982 0.486449 0
M  V30 5398 N 501.076 1.04316 1.18135 0
M  V30 5399 C 502.306 0.767003 1.91835 0
M  V30 5400 C 502.714 -0.68002 1.76557 0
M  V30 5401 O 502.057 -1.47548 1.09432 0
M  V30 5402 C 502.119 1.05674 3.43618 0
M  V30 5403 C 501.783 2.49818 3.82675 0
M  V30 5404 C 502.78 3.48003 3.86251 0
M  V30 5405 C 500.465 2.84596 4.13897 0
M  V30 5406 C 502.459 4.79016 4.20503 0
M  V30 5407 C 500.146 4.15813 4.4782 0
M  V30 5408 C 501.144 5.12834 4.51099 0
M  V30 5409 O 500.832 6.41699 4.84229 0
M  V30 5410 H 500.564 0.278948 0.615763 0
M  V30 5411 H 503.118 1.3946 1.50798 0
M  V30 5412 H 501.348 0.372029 3.84906 0
M  V30 5413 H 503.037 0.767994 3.98568 0
M  V30 5414 H 503.803 3.22475 3.62264 0
M  V30 5415 H 499.682 2.09748 4.1052 0
M  V30 5416 H 503.226 5.54739 4.22978 0
M  V30 5417 H 499.123 4.41109 4.71268 0
M  V30 5418 H 499.891 6.46387 5.02121 0
M  V30 5419 N 502.554 -1.34406 0.822964 0
M  V30 5420 C 503.803 -1.97542 0.407458 0
M  V30 5421 C 504.116 -1.65973 -1.035 0
M  V30 5422 O 505.322 -2.22598 -1.55442 0
M  V30 5423 C 503.778 -3.53463 0.677623 0
M  V30 5424 C 503.386 -3.93925 2.1337 0
M  V30 5425 C 505.13 -4.23229 0.328284 0
M  V30 5426 C 503.037 -5.42759 2.34876 0
M  V30 5427 H 501.967 -0.739207 0.148623 0
M  V30 5428 H 504.618 -1.53248 1.00932 0
M  V30 5429 H 503 -3.96 0.00558965 0
M  V30 5430 H 504.174 -3.62494 2.8449 0
M  V30 5431 H 502.489 -3.37097 2.44448 0
M  V30 5432 H 505.086 -5.32659 0.466794 0
M  V30 5433 H 505.429 -4.09899 -0.727224 0
M  V30 5434 H 505.962 -3.86169 0.954896 0
M  V30 5435 H 502.701 -5.61075 3.38932 0
M  V30 5436 H 502.221 -5.75704 1.68299 0
M  V30 5437 H 503.9 -6.0944 2.17236 0
M  V30 5438 N 504.032 -0.577932 -1.46621 0
M  V30 5439 C 505.278 -0.0617793 -2.02706 0
M  V30 5440 C 505.611 1.29294 -1.44903 0
M  V30 5441 O 504.886 1.8461 -0.61232 0
M  V30 5442 C 505.169 0.00911824 -3.60099 0
M  V30 5443 C 505.022 -1.37416 -4.28295 0
M  V30 5444 C 506.341 0.712159 -4.343 0
M  V30 5445 H 503.46 -0.0239246 -0.736612 0
M  V30 5446 H 506.102 -0.744211 -1.74818 0
M  V30 5447 H 504.252 0.590292 -3.83989 0
M  V30 5448 H 505.924 -2.00013 -4.15683 0
M  V30 5449 H 504.167 -1.94319 -3.87843 0
M  V30 5450 H 504.838 -1.27707 -5.37024 0
M  V30 5451 H 507.314 0.218486 -4.15526 0
M  V30 5452 H 506.19 0.730782 -5.44014 0
M  V30 5453 H 506.451 1.77251 -4.05012 0
M  V30 5454 N 505.51 1.54411 -0.315457 0
M  V30 5455 C 506.458 2.25514 0.569771 0
M  V30 5456 C 507.452 1.2663 1.12522 0
M  V30 5457 O 508.658 1.44434 1.07419 0
M  V30 5458 H 505.033 0.724257 0.202376 0
M  V30 5459 H 507.004 2.98354 -0.0522895 0
M  V30 5460 C 505.753 3.02004 1.72305 0
M  V30 5461 H 505.076 3.77906 1.30488 0
M  V30 5462 H 506.516 3.55014 2.31821 0
M  V30 5463 C 504.975 2.09822 2.63583 0
M  V30 5464 O 505.505 1.67574 3.65078 0
M  V30 5465 N 503.711 1.75478 2.31637 0
M  V30 5466 H 503.258 2.10032 1.49145 0
M  V30 5467 H 503.216 1.14079 2.92973 0
M  V30 5468 N 506.988 0.0434614 1.5754 0
M  V30 5469 C 507.898 -0.94893 2.14552 0
M  V30 5470 C 508.914 -1.34707 1.10136 0
M  V30 5471 O 510.09 -1.42557 1.42266 0
M  V30 5472 C 507.155 -2.208 2.67298 0
M  V30 5473 C 506.216 -1.86893 3.86484 0
M  V30 5474 C 505.449 -3.06797 4.36705 0
M  V30 5475 O 505.672 -4.19921 3.86034 0
M  V30 5476 O 504.606 -2.8826 5.28384 0
M  V30 5477 H 508.432 -0.494099 2.99654 0
M  V30 5478 H 506.017 -0.177989 1.48336 0
M  V30 5479 H 507.899 -2.94686 3.01228 0
M  V30 5480 H 506.574 -2.65436 1.85272 0
M  V30 5481 H 505.481 -1.10347 3.57455 0
M  V30 5482 H 506.814 -1.47062 4.69716 0
M  V30 5483 N 508.466 -1.55915 -0.229846 0
M  V30 5484 C 509.743 -1.6932 -0.979295 0
M  V30 5485 C 510.123 -0.588321 -2.02736 0
M  V30 5486 O 509.471 0.40586 -2.24867 0
M  V30 5487 C 509.681 -3.10305 -1.59724 0
M  V30 5488 C 511.029 -3.6945 -2.09264 0
M  V30 5489 O 512.053 -3.13214 -1.69633 0
M  V30 5490 O 510.912 -4.68072 -2.82082 0
M  V30 5491 H 508.006 -0.689314 -0.456919 0
M  V30 5492 H 510.552 -1.68238 -0.222283 0
M  V30 5493 H 509.324 -3.82177 -0.840039 0
M  V30 5494 H 508.947 -3.1547 -2.42001 0
M  V30 5495 N 509.944 0.496216 -1.49584 0
M  V30 5496 C 510.891 1.59722 -1.66606 0
M  V30 5497 C 511.861 1.58158 -0.507477 0
M  V30 5498 O 513.046 1.76072 -0.735076 0
M  V30 5499 C 510.186 2.97844 -1.74308 0
M  V30 5500 C 509.299 3.09388 -3.01502 0
M  V30 5501 C 508.434 4.38271 -3.00153 0
M  V30 5502 C 507.473 4.43466 -4.21906 0
M  V30 5503 N 506.61 5.63784 -4.1844 0
M  V30 5504 H 511.45 1.44515 -2.60613 0
M  V30 5505 H 508.987 0.703048 -1.29212 0
M  V30 5506 H 510.945 3.77907 -1.76754 0
M  V30 5507 H 509.575 3.11743 -0.837619 0
M  V30 5508 H 508.627 2.22357 -3.08645 0
M  V30 5509 H 509.939 3.09085 -3.91494 0
M  V30 5510 H 509.093 5.2666 -3.01188 0
M  V30 5511 H 507.832 4.41146 -2.07947 0
M  V30 5512 H 506.837 3.53478 -4.21109 0
M  V30 5513 H 508.062 4.42303 -5.1531 0
M  V30 5514 H 506.008 5.67491 -3.29074 0
M  V30 5515 H 505.925 5.65118 -5.02173 0
M  V30 5516 H 507.193 6.54367 -4.23585 0
M  V30 5517 N 511.423 1.38739 0.74761 0
M  V30 5518 C 512.67 1.35274 1.50689 0
M  V30 5519 C 512.998 -0.0553359 1.94421 0
M  V30 5520 O 512.253 -1.03365 1.66175 0
M  V30 5521 C 512.552 2.25992 2.7688 0
M  V30 5522 C 512.218 3.73854 2.5208 0
M  V30 5523 C 510.88 4.14145 2.45025 0
M  V30 5524 C 513.232 4.67427 2.30568 0
M  V30 5525 C 510.56 5.4609 2.14483 0
M  V30 5526 C 512.912 5.99635 2.01545 0
M  V30 5527 C 511.576 6.39004 1.92951 0
M  V30 5528 H 510.846 0.495003 0.55141 0
M  V30 5529 H 513.493 1.71145 0.859158 0
M  V30 5530 H 511.798 1.83196 3.46333 0
M  V30 5531 H 513.495 2.20611 3.34861 0
M  V30 5532 H 510.085 3.41913 2.58444 0
M  V30 5533 H 514.269 4.3714 2.34994 0
M  V30 5534 H 509.525 5.75528 2.06342 0
M  V30 5535 H 513.699 6.71678 1.83906 0
M  V30 5536 H 511.326 7.41165 1.6905 0
M  V30 5537 N 512.901 -0.976442 1.23707 0
M  V30 5538 C 513.833 -2.07212 0.979574 0
M  V30 5539 C 514.846 -1.6273 -0.0478528 0
M  V30 5540 O 516.035 -1.77506 0.18815 0
M  V30 5541 C 513.135 -3.35835 0.45479 0
M  V30 5542 C 512.308 -4.09268 1.54331 0
M  V30 5543 C 511.367 -5.16166 1.02271 0
M  V30 5544 O 510.393 -5.42827 1.71254 0
M  V30 5545 N 511.595 -5.80313 -0.147419 0
M  V30 5546 H 514.36 -2.29878 1.92292 0
M  V30 5547 H 511.921 -1.14343 1.14618 0
M  V30 5548 H 513.913 -4.04597 0.0914631 0
M  V30 5549 H 512.483 -3.10106 -0.394068 0
M  V30 5550 H 511.703 -3.34906 2.07923 0
M  V30 5551 H 512.991 -4.55095 2.27522 0
M  V30 5552 H 512.389 -5.61043 -0.724353 0
M  V30 5553 H 510.946 -6.50231 -0.451972 0
M  V30 5554 N 514.379 -1.04941 -1.1758 0
M  V30 5555 C 515.628 -0.753124 -1.87112 0
M  V30 5556 C 515.941 0.722507 -1.81767 0
M  V30 5557 O 517.147 1.13265 -2.46746 0
M  V30 5558 C 515.603 -1.29695 -3.35719 0
M  V30 5559 C 515.211 -2.80184 -3.49572 0
M  V30 5560 C 516.955 -1.07759 -4.10595 0
M  V30 5561 C 514.862 -3.2788 -4.92187 0
M  V30 5562 H 513.792 -0.278034 -0.700866 0
M  V30 5563 H 516.443 -1.26637 -1.32798 0
M  V30 5564 H 514.825 -0.711522 -3.89555 0
M  V30 5565 H 515.999 -3.44561 -3.05965 0
M  V30 5566 H 514.314 -3.00632 -2.88113 0
M  V30 5567 H 516.911 -1.40899 -5.15802 0
M  V30 5568 H 517.254 -0.0152302 -4.16297 0
M  V30 5569 H 517.787 -1.62809 -3.62957 0
M  V30 5570 H 514.526 -4.33535 -4.91658 0
M  V30 5571 H 514.046 -2.68245 -5.36475 0
M  V30 5572 H 515.725 -3.22412 -5.60945 0
M  V30 5573 N 515.857 1.33968 -0.830081 0
M  V30 5574 C 516.787 2.31911 -0.271911 0
M  V30 5575 C 517.768 1.58571 0.61556 0
M  V30 5576 O 518.953 1.86514 0.540946 0
M  V30 5577 C 516.083 3.42737 0.561146 0
M  V30 5578 C 515.037 4.27383 -0.229789 0
M  V30 5579 C 514.363 5.29742 0.726463 0
M  V30 5580 C 515.663 5.02 -1.44197 0
M  V30 5581 H 517.357 2.78844 -1.09025 0
M  V30 5582 H 514.903 1.34061 -0.52571 0
M  V30 5583 H 516.856 4.10276 0.961867 0
M  V30 5584 H 515.58 2.94471 1.41261 0
M  V30 5585 H 514.239 3.61456 -0.611964 0
M  V30 5586 H 513.887 4.77736 1.57408 0
M  V30 5587 H 513.587 5.87255 0.20142 0
M  V30 5588 H 515.111 6.00149 1.12489 0
M  V30 5589 H 516.525 5.62355 -1.11488 0
M  V30 5590 H 514.922 5.69122 -1.90317 0
M  V30 5591 H 515.992 4.31281 -2.2164 0
M  V30 5592 N 517.335 0.585699 1.46312 0
M  V30 5593 C 518.565 0.0780166 2.06453 0
M  V30 5594 C 518.973 -1.2336 1.43454 0
M  V30 5595 O 518.316 -1.75734 0.535086 0
M  V30 5596 C 518.378 -0.158951 3.59148 0
M  V30 5597 C 518.042 1.06752 4.44357 0
M  V30 5598 C 519.039 1.98031 4.80708 0
M  V30 5599 C 516.724 1.2902 4.85447 0
M  V30 5600 C 518.718 3.09924 5.5698 0
M  V30 5601 C 516.405 2.41218 5.61478 0
M  V30 5602 C 517.403 3.31499 5.97158 0
M  V30 5603 O 517.091 4.41747 6.71651 0
M  V30 5604 H 516.823 0.0558894 0.673686 0
M  V30 5605 H 519.377 0.806994 1.88883 0
M  V30 5606 H 517.607 -0.942575 3.75037 0
M  V30 5607 H 519.296 -0.615513 4.01206 0
M  V30 5608 H 520.062 1.82043 4.49539 0
M  V30 5609 H 515.941 0.596567 4.57124 0
M  V30 5610 H 519.485 3.80415 5.84748 0
M  V30 5611 H 515.382 2.57167 5.9206 0
M  V30 5612 H 516.15 4.40152 6.90079 0
M  V30 5613 N 518.813 -1.54241 0.323641 0
M  V30 5614 C 519.761 -2.25813 -0.557804 0
M  V30 5615 C 520.755 -1.27225 -1.11849 0
M  V30 5616 O 521.961 -1.45001 -1.06652 0
M  V30 5617 H 518.336 -0.72532 -0.198532 0
M  V30 5618 H 520.307 -2.98322 0.0681112 0
M  V30 5619 C 519.056 -3.02913 -1.70701 0
M  V30 5620 H 518.379 -3.78593 -1.28482 0
M  V30 5621 H 519.819 -3.56238 -2.29935 0
M  V30 5622 C 518.278 -2.11217 -2.62467 0
M  V30 5623 O 518.808 -1.69508 -3.64184 0
M  V30 5624 N 517.014 -1.76704 -2.30703 0
M  V30 5625 H 516.561 -2.1082 -1.48029 0
M  V30 5626 H 516.519 -1.15631 -2.92364 0
M  V30 5627 N 520.291 -0.0518155 -1.57515 0
M  V30 5628 C 521.516 0.634896 -1.97443 0
M  V30 5629 C 521.941 1.63546 -0.929207 0
M  V30 5630 O 521.299 1.80981 0.107484 0
M  V30 5631 C 521.347 1.29765 -3.36442 0
M  V30 5632 O 520.451 2.41333 -3.34413 0
M  V30 5633 H 519.792 0.164994 -0.643174 0
M  V30 5634 H 522.322 -0.120407 -2.04245 0
M  V30 5635 H 522.332 1.64918 -3.73184 0
M  V30 5636 H 521.007 0.564361 -4.12053 0
M  V30 5637 H 519.584 2.08122 -3.09418 0
M  V30 5638 N 521.769 1.56035 0.221574 0
M  V30 5639 C 523.018 1.78245 0.944016 0
M  V30 5640 C 523.331 0.620371 1.85501 0
M  V30 5641 O 524.537 0.726103 2.6161 0
M  V30 5642 C 522.993 3.15659 1.7288 0
M  V30 5643 C 522.601 4.39591 0.863942 0
M  V30 5644 C 524.345 3.47195 2.44246 0
M  V30 5645 C 522.252 5.6803 1.64607 0
M  V30 5646 H 521.182 0.664547 0.356222 0
M  V30 5647 H 523.833 1.8243 0.197904 0
M  V30 5648 H 522.215 3.0565 2.51781 0
M  V30 5649 H 523.389 4.60655 0.115464 0
M  V30 5650 H 521.704 4.15572 0.262407 0
M  V30 5651 H 524.301 4.40381 3.03263 0
M  V30 5652 H 524.644 2.69693 3.1713 0
M  V30 5653 H 525.177 3.58533 1.72334 0
M  V30 5654 H 521.916 6.48425 0.960507 0
M  V30 5655 H 521.436 5.51027 2.36917 0
M  V30 5656 H 523.115 6.08203 2.20675 0
M  V30 5657 N 523.247 -0.488276 1.49845 0
M  V30 5658 C 524.18 -1.60651 1.62069 0
M  V30 5659 C 525.158 -1.5568 0.469308 0
M  V30 5660 O 526.342 -1.75553 0.686551 0
M  V30 5661 C 523.469 -2.99197 1.58741 0
M  V30 5662 C 522.515 -3.22385 2.79232 0
M  V30 5663 S 523.348 -3.04133 4.40753 0
M  V30 5664 C 524.504 -4.45052 4.4009 0
M  V30 5665 H 524.737 -1.50039 2.56662 0
M  V30 5666 H 522.27 -0.674371 1.38894 0
M  V30 5667 H 524.228 -3.79081 1.57506 0
M  V30 5668 H 522.889 -3.07213 0.654136 0
M  V30 5669 H 522.082 -4.23557 2.73159 0
M  V30 5670 H 521.684 -2.50245 2.77945 0
M  V30 5671 H 523.976 -5.37375 4.12594 0
M  V30 5672 H 524.919 -4.56172 5.41583 0
M  V30 5673 H 525.327 -4.26327 3.70008 0
M  V30 5674 N 524.725 -1.39134 -0.740242 0
M  V30 5675 C 525.955 -1.39132 -1.52728 0
M  V30 5676 C 526.363 0.0173133 -1.89192 0
M  V30 5677 O 525.706 0.997715 -1.54244 0
M  V30 5678 C 525.768 -2.1952 -2.84695 0
M  V30 5679 C 525.432 -3.68203 -2.70695 0
M  V30 5680 C 526.429 -4.61401 -2.39593 0
M  V30 5681 C 524.114 -4.11724 -2.8773 0
M  V30 5682 C 526.108 -5.96102 -2.25701 0
M  V30 5683 C 523.795 -5.46503 -2.73456 0
M  V30 5684 C 524.793 -6.38506 -2.42486 0
M  V30 5685 O 524.481 -7.70803 -2.28295 0
M  V30 5686 H 524.213 -0.477263 -0.478744 0
M  V30 5687 H 526.767 -1.83504 -0.922799 0
M  V30 5688 H 524.997 -1.69888 -3.47383 0
M  V30 5689 H 526.686 -2.1176 -3.46284 0
M  V30 5690 H 527.452 -4.29079 -2.26088 0
M  V30 5691 H 523.331 -3.4045 -3.10829 0
M  V30 5692 H 526.875 -6.6788 -2.0145 0
M  V30 5693 H 522.772 -5.78417 -2.86538 0
M  V30 5694 H 523.54 -7.8147 -2.43405 0
M  V30 5695 N 526.204 0.969867 -1.24223 0
M  V30 5696 C 527.452 1.70918 -1.0785 0
M  V30 5697 C 527.773 1.91186 0.383763 0
M  V30 5698 O 527.043 1.48806 1.27411 0
M  V30 5699 H 525.623 0.633334 -0.396103 0
M  V30 5700 H 528.285 1.16689 -1.56108 0
M  V30 5701 H 527.381 2.69455 -1.57482 0
M  V30 5702 N 527.682 1.05563 1.17022 0
M  V30 5703 C 528.929 0.767937 1.87374 0
M  V30 5704 C 529.257 -0.705224 1.81265 0
M  V30 5705 O 528.512 -1.5318 1.21796 0
M  V30 5706 C 528.811 1.19849 3.36706 0
M  V30 5707 C 528.477 2.6745 3.63017 0
M  V30 5708 C 527.139 3.0777 3.69907 0
M  V30 5709 C 529.491 3.62811 3.74189 0
M  V30 5710 C 526.819 4.42307 3.85463 0
M  V30 5711 C 529.171 4.97087 3.91264 0
M  V30 5712 C 527.835 5.37055 3.96394 0
M  V30 5713 H 527.105 0.281008 0.68565 0
M  V30 5714 H 529.752 1.32339 1.38415 0
M  V30 5715 H 528.057 0.562096 3.87747 0
M  V30 5716 H 529.754 0.953038 3.8951 0
M  V30 5717 H 526.344 2.35228 3.58282 0
M  V30 5718 H 530.528 3.32798 3.68183 0
M  V30 5719 H 525.784 4.72769 3.87684 0
M  V30 5720 H 529.958 5.70869 3.9885 0
M  V30 5721 H 527.585 6.41308 4.082 0
M  V30 5722 N 529.16 -1.33526 0.837174 0
M  V30 5723 C 530.388 -2.02047 0.445494 0
M  V30 5724 C 530.803 -1.62995 -0.952788 0
M  V30 5725 O 530.16 -0.842447 -1.61892 0
M  V30 5726 C 530.211 -3.57221 0.554577 0
M  V30 5727 O 529.932 -3.94863 1.89776 0
M  V30 5728 C 531.433 -4.43012 0.159634 0
M  V30 5729 H 528.653 -0.647221 0.177048 0
M  V30 5730 H 531.197 -1.70492 1.12928 0
M  V30 5731 H 529.352 -3.87315 -0.0812781 0
M  V30 5732 H 529.766 -4.89569 1.88208 0
M  V30 5733 H 531.24 -5.51253 0.28701 0
M  V30 5734 H 531.717 -4.29916 -0.898289 0
M  V30 5735 H 532.323 -4.18274 0.769855 0
M  V30 5736 N 530.638 -0.59345 -1.46 0
M  V30 5737 C 531.548 0.135817 -2.34207 0
M  V30 5738 C 532.564 0.875008 -1.50398 0
M  V30 5739 O 533.74 0.835778 -1.83239 0
M  V30 5740 C 530.805 1.12977 -3.27776 0
M  V30 5741 C 529.866 0.394081 -4.27487 0
M  V30 5742 C 529.099 1.34068 -5.16586 0
M  V30 5743 O 529.322 2.5778 -5.08828 0
M  V30 5744 O 528.256 0.845426 -5.95933 0
M  V30 5745 H 532.082 -0.588691 -2.9794 0
M  V30 5746 H 529.667 -0.353784 -1.45151 0
M  V30 5747 H 531.549 1.70261 -3.85473 0
M  V30 5748 H 530.224 1.83556 -2.66625 0
M  V30 5749 H 529.131 -0.220869 -3.73447 0
M  V30 5750 H 530.464 -0.270939 -4.91454 0
M  V30 5751 N 532.116 1.54067 -0.331816 0
M  V30 5752 C 533.365 1.99895 0.269209 0
M  V30 5753 C 533.678 1.22371 1.52593 0
M  V30 5754 O 534.884 1.58618 2.20347 0
M  V30 5755 C 533.34 3.55972 0.530244 0
M  V30 5756 C 532.948 4.4234 -0.709901 0
M  V30 5757 C 534.692 4.10247 1.09077 0
M  V30 5758 C 532.599 5.89905 -0.420312 0
M  V30 5759 H 531.529 0.746741 0.104371 0
M  V30 5760 H 534.18 1.78014 -0.445324 0
M  V30 5761 H 532.562 3.73873 1.30518 0
M  V30 5762 H 533.736 4.36215 -1.48504 0
M  V30 5763 H 532.051 3.98997 -1.19123 0
M  V30 5764 H 534.648 5.18095 1.32219 0
M  V30 5765 H 534.991 3.62739 2.0427 0
M  V30 5766 H 535.524 3.96011 0.376824 0
M  V30 5767 H 532.263 6.41623 -1.34164 0
M  V30 5768 H 531.783 5.98962 0.316962 0
M  V30 5769 H 533.462 6.46991 -0.0331956 0
M  V30 5770 N 533.594 0.0601682 1.57485 0
M  V30 5771 C 534.504 -0.926121 2.15546 0
M  V30 5772 C 535.52 -1.33532 1.11558 0
M  V30 5773 O 536.696 -1.4104 1.4377 0
M  V30 5774 C 533.761 -2.17952 2.69625 0
M  V30 5775 C 532.822 -1.82783 3.88444 0
M  V30 5776 C 532.055 -3.02148 4.39935 0
M  V30 5777 O 532.278 -4.15803 3.90466 0
M  V30 5778 O 531.212 -2.82639 5.31412 0
M  V30 5779 H 535.038 -0.462289 3.00161 0
M  V30 5780 H 532.623 -0.162246 1.48516 0
M  V30 5781 H 534.505 -2.91474 3.04337 0
M  V30 5782 H 533.18 -2.63456 1.88077 0
M  V30 5783 H 532.087 -1.06549 3.58606 0
M  V30 5784 H 533.42 -1.42072 4.7125 0
M  V30 5785 N 535.072 -1.5615 -0.213296 0
M  V30 5786 C 536.002 -1.96109 -1.26742 0
M  V30 5787 C 536.983 -0.830448 -1.48451 0
M  V30 5788 O 538.168 -1.09339 -1.60495 0
M  V30 5789 C 535.298 -2.28492 -2.61551 0
M  V30 5790 C 534.252 -3.44124 -2.54485 0
M  V30 5791 C 533.578 -3.62134 -3.93399 0
M  V30 5792 C 534.878 -4.78855 -2.08556 0
M  V30 5793 H 536.572 -2.84412 -0.935434 0
M  V30 5794 H 534.118 -1.36836 -0.44854 0
M  V30 5795 H 536.071 -2.55039 -3.3546 0
M  V30 5796 H 534.795 -1.37052 -2.96453 0
M  V30 5797 H 533.454 -3.17639 -1.83033 0
M  V30 5798 H 533.102 -2.68055 -4.25623 0
M  V30 5799 H 532.802 -4.39913 -3.89551 0
M  V30 5800 H 534.326 -3.91038 -4.68958 0
M  V30 5801 H 535.74 -5.04552 -2.72213 0
M  V30 5802 H 534.137 -5.59975 -2.1575 0
M  V30 5803 H 535.207 -4.73657 -1.03811 0
M  V30 5804 N 536.55 0.480323 -1.50102 0
M  V30 5805 C 537.798 1.23063 -1.60312 0
M  V30 5806 C 538.119 1.92659 -0.301226 0
M  V30 5807 O 537.389 1.83691 0.680753 0
M  V30 5808 H 535.969 0.457231 -0.590719 0
M  V30 5809 H 538.631 0.554893 -1.86834 0
M  V30 5810 H 537.727 1.9835 -2.40964 0
M  V30 5811 N 538.028 1.39524 0.732853 0
M  V30 5812 C 538.975 1.38416 1.84688 0
M  V30 5813 C 539.945 0.243539 1.64305 0
M  V30 5814 O 541.13 0.438979 1.85681 0
M  V30 5815 C 538.27 1.23555 3.22224 0
M  V30 5816 C 537.383 2.47179 3.54298 0
M  V30 5817 C 536.518 2.2489 4.81246 0
M  V30 5818 C 535.557 3.44178 5.0617 0
M  V30 5819 N 534.694 3.21192 6.24323 0
M  V30 5820 H 539.534 2.33645 1.84971 0
M  V30 5821 H 537.071 1.16059 0.903804 0
M  V30 5822 H 539.029 1.12949 4.0162 0
M  V30 5823 H 537.659 0.31954 3.21215 0
M  V30 5824 H 536.711 2.68379 2.69587 0
M  V30 5825 H 538.023 3.36022 3.68633 0
M  V30 5826 H 537.177 2.11538 5.68627 0
M  V30 5827 H 535.916 1.33443 4.69089 0
M  V30 5828 H 534.921 3.58025 4.17251 0
M  V30 5829 H 536.146 4.36528 5.20212 0
M  V30 5830 H 534.092 2.32413 6.1345 0
M  V30 5831 H 534.009 4.03594 6.39256 0
M  V30 5832 H 535.277 3.1154 7.14537 0
M  V30 5833 N 539.506 -0.963266 1.24736 0
M  V30 5834 C 540.453 -2.05857 1.04363 0
M  V30 5835 C 541.423 -1.6604 -0.0444951 0
M  V30 5836 O 542.608 -1.90477 0.110999 0
M  V30 5837 C 539.748 -3.38745 0.659235 0
M  V30 5838 C 538.861 -3.9173 1.82131 0
M  V30 5839 C 537.996 -5.12906 1.38208 0
M  V30 5840 C 537.035 -5.58098 2.51382 0
M  V30 5841 N 536.172 -6.7049 2.08295 0
M  V30 5842 H 541.012 -2.22616 1.98107 0
M  V30 5843 H 538.549 -1.09103 0.986661 0
M  V30 5844 H 540.507 -4.15107 0.417371 0
M  V30 5845 H 539.137 -3.21898 -0.241201 0
M  V30 5846 H 538.189 -3.11966 2.17672 0
M  V30 5847 H 539.501 -4.21225 2.67153 0
M  V30 5848 H 538.655 -5.96657 1.09935 0
M  V30 5849 H 537.394 -4.85105 0.502456 0
M  V30 5850 H 536.399 -4.72917 2.80409 0
M  V30 5851 H 537.624 -5.87911 3.39909 0
M  V30 5852 H 535.57 -6.44416 1.22737 0
M  V30 5853 H 535.487 -6.99458 2.86869 0
M  V30 5854 H 536.755 -7.57672 1.83175 0
M  V30 5855 N 540.985 -1.06182 -1.16461 0
M  V30 5856 C 542.232 -0.777863 -1.86964 0
M  V30 5857 C 542.56 0.695602 -1.81636 0
M  V30 5858 O 541.815 1.52532 -1.22607 0
M  V30 5859 C 542.114 -1.21633 -3.36066 0
M  V30 5860 C 541.78 -2.69371 -3.61594 0
M  V30 5861 C 540.442 -3.09727 -3.6827 0
M  V30 5862 C 542.794 -3.64791 -3.7226 0
M  V30 5863 C 540.122 -4.44345 -3.83112 0
M  V30 5864 C 542.474 -4.99155 -3.88623 0
M  V30 5865 C 541.138 -5.39149 -3.93541 0
M  V30 5866 H 540.408 -0.28464 -0.68415 0
M  V30 5867 H 543.055 -1.33071 -1.37711 0
M  V30 5868 H 541.36 -0.582651 -3.87443 0
M  V30 5869 H 543.057 -0.973682 -3.88999 0
M  V30 5870 H 539.647 -2.37124 -3.57029 0
M  V30 5871 H 543.831 -3.34746 -3.66413 0
M  V30 5872 H 539.087 -4.74819 -3.85172 0
M  V30 5873 H 543.261 -5.72976 -3.95817 0
M  V30 5874 H 540.888 -6.43464 -4.04794 0
M  V30 5875 N 542.463 1.3308 -0.844243 0
M  V30 5876 C 543.411 2.31028 -0.269954 0
M  V30 5877 C 544.405 1.58381 0.600997 0
M  V30 5878 O 545.611 1.73203 0.48996 0
M  V30 5879 H 541.986 0.748866 -0.0685782 0
M  V30 5880 H 543.957 2.76967 -1.11049 0
M  V30 5881 C 542.706 3.43549 0.535676 0
M  V30 5882 H 542.029 3.99604 -0.125202 0
M  V30 5883 H 543.469 4.14267 0.903262 0
M  V30 5884 C 541.928 2.8988 1.71672 0
M  V30 5885 O 542.458 2.86511 2.81557 0
M  V30 5886 N 540.664 2.46416 1.54037 0
M  V30 5887 H 540.211 2.49356 0.64649 0
M  V30 5888 H 540.169 2.1086 2.33207 0
M  V30 5889 N 543.941 0.601185 1.45683 0
M  V30 5890 C 545.19 0.0914953 2.01492 0
M  V30 5891 C 545.503 -1.28331 1.47616 0
M  V30 5892 O 546.709 -1.88537 1.95362 0
M  V30 5893 C 545.165 0.11291 3.59723 0
M  V30 5894 C 544.773 1.48717 4.22596 0
M  V30 5895 C 546.517 -0.341871 4.23121 0
M  V30 5896 C 544.424 1.46531 5.7296 0
M  V30 5897 H 543.354 0.0304365 0.753385 0
M  V30 5898 H 546.005 0.755568 1.67223 0
M  V30 5899 H 544.387 -0.617692 3.91153 0
M  V30 5900 H 545.561 2.23897 4.02749 0
M  V30 5901 H 543.876 1.88351 3.71366 0
M  V30 5902 H 546.473 -0.377304 5.33367 0
M  V30 5903 H 546.816 -1.36325 3.93346 0
M  V30 5904 H 547.349 0.335256 3.96385 0
M  V30 5905 H 544.088 2.46408 6.07423 0
M  V30 5906 H 543.608 0.755997 5.95017 0
M  V30 5907 H 545.287 1.18618 6.36034 0
M  V30 5908 N 545.419 -1.53889 0.339982 0
M  V30 5909 C 546.366 -2.24902 -0.518452 0
M  V30 5910 C 547.336 -1.24593 -1.09844 0
M  V30 5911 O 548.521 -1.53317 -1.13572 0
M  V30 5912 C 545.661 -3.02262 -1.66529 0
M  V30 5913 C 544.774 -4.17418 -1.11295 0
M  V30 5914 C 543.909 -4.82273 -2.2268 0
M  V30 5915 C 542.948 -5.89503 -1.6478 0
M  V30 5916 N 542.085 -6.48153 -2.69893 0
M  V30 5917 H 546.925 -2.97853 0.0936579 0
M  V30 5918 H 544.462 -1.46986 0.0579924 0
M  V30 5919 H 546.42 -3.45371 -2.3404 0
M  V30 5920 H 545.05 -2.31614 -2.24844 0
M  V30 5921 H 544.102 -3.78976 -0.328886 0
M  V30 5922 H 545.414 -4.94554 -0.649414 0
M  V30 5923 H 544.568 -5.28435 -2.98063 0
M  V30 5924 H 543.307 -4.04552 -2.72376 0
M  V30 5925 H 542.312 -5.42728 -0.879004 0
M  V30 5926 H 543.537 -6.6913 -1.1594 0
M  V30 5927 H 541.483 -5.73298 -3.1885 0
M  V30 5928 H 541.4 -7.20752 -2.28151 0
M  V30 5929 H 542.668 -6.98968 -3.45056 0
M  V30 5930 N 546.897 -0.0685191 -1.57451 0
M  V30 5931 C 548.125 0.610462 -1.97689 0
M  V30 5932 C 548.54 1.63346 -0.946758 0
M  V30 5933 O 547.897 1.82377 0.0669868 0
M  V30 5934 C 547.948 1.28196 -3.38006 0
M  V30 5935 O 547.669 0.299906 -4.37072 0
M  V30 5936 C 549.17 2.04907 -3.931 0
M  V30 5937 H 546.39 0.165689 -0.650222 0
M  V30 5938 H 548.934 -0.139953 -2.04021 0
M  V30 5939 H 547.089 1.98348 -3.32771 0
M  V30 5940 H 547.503 0.78126 -5.18649 0
M  V30 5941 H 548.977 2.47287 -4.93511 0
M  V30 5942 H 549.454 2.9043 -3.29465 0
M  V30 5943 H 550.06 1.39629 -4.01726 0
M  V30 5944 N 548.375 1.56261 0.205012 0
M  V30 5945 C 549.791 1.49623 0.555433 0
M  V30 5946 C 549.991 0.766719 1.86343 0
M  V30 5947 O 549.047 0.313158 2.50551 0
M  V30 5948 C 550.36 2.94253 0.619347 0
M  V30 5949 C 551.908 3.04868 0.708855 0
M  V30 5950 C 552.383 4.50888 0.803969 0
M  V30 5951 N 553.874 4.54999 0.867758 0
M  V30 5952 C 554.609 5.65284 0.96135 0
M  V30 5953 N 554.105 6.85282 1.01786 0
M  V30 5954 N 555.898 5.53174 0.997771 0
M  V30 5955 H 548.049 2.0211 -0.653094 0
M  V30 5956 H 550.312 0.919333 -0.231366 0
M  V30 5957 H 550.018 3.50643 -0.272458 0
M  V30 5958 H 549.892 3.47063 1.47741 0
M  V30 5959 H 552.279 2.48532 1.5911 0
M  V30 5960 H 552.36 2.55199 -0.175205 0
M  V30 5961 H 552.004 5.07846 -0.0738798 0
M  V30 5962 H 551.934 4.98279 1.70369 0
M  V30 5963 H 554.425 3.68588 0.833735 0
M  V30 5964 H 554.738 7.65081 1.08951 0
M  V30 5965 H 553.083 6.8796 0.986706 0
M  V30 5966 H 556.274 4.5835 0.950392 0
M  V30 5967 H 556.447 6.39151 1.06725 0
M  V30 5968 N 549.853 -0.472356 1.50355 0
M  V30 5969 C 550.783 -1.57859 1.72055 0
M  V30 5970 C 551.764 -1.60283 0.569505 0
M  V30 5971 O 552.949 -1.7657 0.808503 0
M  V30 5972 C 550.079 -2.96191 1.81351 0
M  V30 5973 C 549.033 -3.08633 2.96529 0
M  V30 5974 C 548.359 -4.486 2.90968 0
M  V30 5975 C 549.659 -2.85969 4.37057 0
M  V30 5976 H 551.353 -1.39953 2.64676 0
M  V30 5977 H 548.899 -0.671846 1.27367 0
M  V30 5978 H 550.852 -3.73507 1.95117 0
M  V30 5979 H 549.576 -3.15251 0.853502 0
M  V30 5980 H 548.235 -2.33749 2.82413 0
M  V30 5981 H 547.883 -4.64577 1.92815 0
M  V30 5982 H 547.583 -4.57861 3.68289 0
M  V30 5983 H 549.107 -5.27938 3.0678 0
M  V30 5984 H 550.521 -3.53036 4.51706 0
M  V30 5985 H 548.918 -3.06677 5.15819 0
M  V30 5986 H 549.988 -1.81838 4.49514 0
M  V30 5987 N 551.331 -1.39911 -0.725443 0
M  V30 5988 C 552.556 -1.41137 -1.5197 0
M  V30 5989 C 552.981 -0.010262 -1.88097 0
M  V30 5990 O 552.339 0.979184 -1.52583 0
M  V30 5991 C 552.387 -2.2994 -2.77777 0
M  V30 5992 O 551.491 -1.73586 -3.74088 0
M  V30 5993 H 550.832 -0.480219 -0.458569 0
M  V30 5994 H 553.362 -1.84023 -0.894249 0
M  V30 5995 H 553.372 -2.44785 -3.26411 0
M  V30 5996 H 552.047 -3.31759 -2.50816 0
M  V30 5997 H 550.624 -1.68035 -3.32894 0
M  V30 5998 N 552.809 0.956637 -1.25245 0
M  V30 5999 C 554.039 1.7332 -1.12445 0
M  V30 6000 C 554.447 1.86392 0.324732 0
M  V30 6001 O 553.79 1.35967 1.23526 0
M  V30 6002 C 553.852 3.16603 -1.70303 0
M  V30 6003 C 553.516 3.26966 -3.19284 0
M  V30 6004 C 554.513 3.11434 -4.16299 0
M  V30 6005 C 552.198 3.50851 -3.59456 0
M  V30 6006 C 554.192 3.1963 -5.51467 0
M  V30 6007 C 551.879 3.58684 -4.94761 0
M  V30 6008 C 552.877 3.43087 -5.90576 0
M  V30 6009 O 552.565 3.50598 -7.2342 0
M  V30 6010 H 552.297 0.549981 -0.393061 0
M  V30 6011 H 554.851 1.20892 -1.66055 0
M  V30 6012 H 553.081 3.70385 -1.11138 0
M  V30 6013 H 554.77 3.76109 -1.52632 0
M  V30 6014 H 555.536 2.92853 -3.86604 0
M  V30 6015 H 551.415 3.62053 -2.85375 0
M  V30 6016 H 554.959 3.07373 -6.26233 0
M  V30 6017 H 550.856 3.76782 -5.24124 0
M  V30 6018 H 551.624 3.67242 -7.31489 0
M  V30 6019 N 554.287 1.06798 1.15896 0
M  V30 6020 C 555.534 0.787767 1.86549 0
M  V30 6021 C 555.862 -0.685959 1.82002 0
M  V30 6022 O 555.117 -1.5188 1.23414 0
M  V30 6023 C 555.416 1.23414 3.35416 0
M  V30 6024 C 555.082 2.71285 3.6016 0
M  V30 6025 C 553.744 3.11676 3.66622 0
M  V30 6026 C 556.096 3.6676 3.7032 0
M  V30 6027 C 553.424 4.4637 3.8075 0
M  V30 6028 C 555.776 5.01209 3.8597 0
M  V30 6029 C 554.44 5.41229 3.90676 0
M  V30 6030 H 553.71 0.288264 0.682631 0
M  V30 6031 H 556.357 1.338 1.37003 0
M  V30 6032 H 554.662 0.60319 3.87129 0
M  V30 6033 H 556.359 0.994298 3.88477 0
M  V30 6034 H 552.949 2.39015 3.55767 0
M  V30 6035 H 557.133 3.36685 3.64633 0
M  V30 6036 H 552.389 4.76855 3.82648 0
M  V30 6037 H 556.563 5.75067 3.92773 0
M  V30 6038 H 554.19 6.45602 4.01375 0
M  V30 6039 N 555.766 -1.3263 0.851289 0
M  V30 6040 C 556.991 -2.02097 0.466006 0
M  V30 6041 C 557.416 -1.63574 -0.928709 0
M  V30 6042 O 556.774 -0.834665 -1.60944 0
M  V30 6043 C 556.822 -3.55425 0.608737 0
M  V30 6044 O 555.926 -4.10827 -0.359878 0
M  V30 6045 H 555.267 -0.636911 0.187724 0
M  V30 6046 H 557.797 -1.69253 1.14955 0
M  V30 6047 H 557.807 -4.04986 0.495006 0
M  V30 6048 H 556.482 -3.82806 1.62581 0
M  V30 6049 H 555.059 -3.72349 -0.202666 0
M  V30 6050 N 557.244 -0.608902 -1.45362 0
M  V30 6051 C 558.177 0.158059 -2.27652 0
M  V30 6052 C 559.155 0.872397 -1.37215 0
M  V30 6053 O 560.339 0.881002 -1.66645 0
M  V30 6054 C 557.466 1.22896 -3.15617 0
M  V30 6055 C 556.512 0.617607 -4.22005 0
M  V30 6056 S 557.345 -0.575518 -5.32398 0
M  V30 6057 C 558.501 0.495938 -6.23932 0
M  V30 6058 H 558.734 -0.540095 -2.92353 0
M  V30 6059 H 556.267 -0.396456 -1.49223 0
M  V30 6060 H 558.225 1.84195 -3.66855 0
M  V30 6061 H 556.886 1.89919 -2.50179 0
M  V30 6062 H 556.079 1.42341 -4.83482 0
M  V30 6063 H 555.681 0.0797273 -3.73915 0
M  V30 6064 H 557.973 1.37465 -6.63408 0
M  V30 6065 H 558.916 -0.0827108 -7.08052 0
M  V30 6066 H 559.324 0.811856 -5.58631 0
M  V30 6067 N 558.722 1.53707 -0.348139 0
M  V30 6068 C 559.67 2.26671 0.521808 0
M  V30 6069 C 560.664 1.28988 1.09811 0
M  V30 6070 O 561.87 1.4668 1.04332 0
M  V30 6071 H 558.245 0.728387 0.186968 0
M  V30 6072 H 560.216 2.98176 -0.115563 0
M  V30 6073 C 558.965 3.05591 1.6586 0
M  V30 6074 H 558.288 3.80589 1.22443 0
M  V30 6075 H 559.728 3.59851 2.24239 0
M  V30 6076 C 558.187 2.15366 2.59073 0
M  V30 6077 O 558.717 1.7528 3.61441 0
M  V30 6078 N 556.923 1.80352 2.27863 0
M  V30 6079 H 556.47 2.13149 1.44656 0
M  V30 6080 H 556.428 1.20268 2.90488 0
M  V30 6081 N 560.2 0.0768682 1.57412 0
M  V30 6082 C 561.15 -0.898795 2.09537 0
M  V30 6083 C 562.134 -1.25556 1.0062 0
M  V30 6084 O 563.326 -1.23369 1.26921 0
M  V30 6085 C 560.455 -2.16453 2.66464 0
M  V30 6086 C 559.541 -1.83401 3.82393 0
M  V30 6087 N 559.932 -1.20823 4.91157 0
M  V30 6088 C 558.23 -2.13121 3.91785 0
M  V30 6089 C 558.931 -1.05976 5.71965 0
M  V30 6090 N 557.907 -1.57113 5.204 0
M  V30 6091 H 561.709 -0.410718 2.91016 0
M  V30 6092 H 559.223 -0.126878 1.61904 0
M  V30 6093 H 561.22 -2.87274 3.02125 0
M  V30 6094 H 559.88 -2.65844 1.86433 0
M  V30 6095 H 560.891 -0.877249 5.10416 0
M  V30 6096 H 557.568 -2.64854 3.22736 0
M  V30 6097 H 558.958 -0.571809 6.69462 0
M  V30 6098 N 561.678 -1.56367 -0.196722 0
M  V30 6099 C 562.955 -1.71359 -0.943159 0
M  V30 6100 C 563.335 -0.631192 -2.01443 0
M  V30 6101 O 562.683 0.358071 -2.25677 0
M  V30 6102 C 562.893 -3.13623 -1.53106 0
M  V30 6103 C 564.241 -3.73806 -2.01381 0
M  V30 6104 O 565.265 -3.16742 -1.62951 0
M  V30 6105 O 564.124 -4.73951 -2.7209 0
M  V30 6106 H 561.218 -0.698851 -0.442195 0
M  V30 6107 H 563.764 -1.68672 -0.186547 0
M  V30 6108 H 562.536 -3.83873 -0.758785 0
M  V30 6109 H 562.159 -3.20532 -2.35255 0
M  V30 6110 N 563.156 0.464375 -1.50603 0
M  V30 6111 C 564.567 1.04507 -1.5471 0
M  V30 6112 C 564.918 1.9297 -0.354542 0
M  V30 6113 O 564.043 2.09763 0.531812 0
M  V30 6114 C 564.638 1.90207 -2.80369 0
M  V30 6115 C 563.197 2.43373 -2.87135 0
M  V30 6116 C 562.344 1.21886 -2.49076 0
M  V30 6117 H 565.295 0.246716 -1.56771 0
M  V30 6118 H 565.316 2.75353 -2.62604 0
M  V30 6119 H 564.828 1.25796 -3.67147 0
M  V30 6120 H 562.929 3.11318 -2.04724 0
M  V30 6121 H 563.042 2.7802 -3.90181 0
M  V30 6122 H 561.406 1.55575 -2.01664 0
M  V30 6123 H 562.189 0.591268 -3.3817 0
M  V30 6124 N 564.634 1.40294 0.718013 0
M  V30 6125 C 565.88 1.38645 1.48005 0
M  V30 6126 C 566.213 -0.0121202 1.94196 0
M  V30 6127 O 565.488 -0.980309 1.67989 0
M  V30 6128 C 565.771 2.37379 2.70782 0
M  V30 6129 C 565.624 3.8625 2.30501 0
M  V30 6130 C 566.943 2.33685 3.72933 0
M  V30 6131 H 564.062 0.504928 0.536858 0
M  V30 6132 H 566.704 1.71411 0.819649 0
M  V30 6133 H 564.854 2.09568 3.27129 0
M  V30 6134 H 566.526 4.24879 1.79655 0
M  V30 6135 H 564.769 4.02202 1.6253 0
M  V30 6136 H 565.44 4.50847 3.18498 0
M  V30 6137 H 567.916 2.58314 3.2621 0
M  V30 6138 H 566.792 3.0482 4.56482 0
M  V30 6139 H 567.053 1.34765 4.21059 0
M  V30 6140 N 566.112 -0.949982 1.2575 0
M  V30 6141 C 567.059 -2.04738 1.06541 0
M  V30 6142 C 568.029 -1.66078 -0.0268818 0
M  V30 6143 O 569.214 -1.90348 0.131196 0
M  V30 6144 C 566.354 -3.38027 0.695127 0
M  V30 6145 C 565.467 -3.89776 1.86276 0
M  V30 6146 C 564.602 -5.11411 1.4364 0
M  V30 6147 C 563.641 -5.554 2.57287 0
M  V30 6148 N 562.778 -6.68244 2.15395 0
M  V30 6149 H 567.618 -2.20502 2.00457 0
M  V30 6150 H 565.155 -1.0805 0.998178 0
M  V30 6151 H 567.113 -4.14641 0.461375 0
M  V30 6152 H 565.743 -3.22135 -0.207046 0
M  V30 6153 H 564.795 -3.0964 2.20969 0
M  V30 6154 H 566.107 -4.18368 2.71606 0
M  V30 6155 H 565.261 -5.95457 1.16257 0
M  V30 6156 H 564 -4.84545 0.553879 0
M  V30 6157 H 563.005 -4.69916 2.85409 0
M  V30 6158 H 564.23 -5.84272 3.46125 0
M  V30 6159 H 562.176 -6.43078 1.29565 0
M  V30 6160 H 562.093 -6.96377 2.94272 0
M  V30 6161 H 563.361 -7.55687 1.91201 0
M  V30 6162 N 567.59 -1.07411 -1.15328 0
M  V30 6163 C 568.839 -0.792643 -1.85473 0
M  V30 6164 C 569.152 0.683789 -1.83259 0
M  V30 6165 O 570.358 1.08005 -2.49093 0
M  V30 6166 C 568.814 -1.36787 -3.32892 0
M  V30 6167 C 568.422 -2.87536 -3.43551 0
M  V30 6168 C 570.166 -1.16444 -4.08217 0
M  V30 6169 C 568.073 -3.38247 -4.85122 0
M  V30 6170 H 567.003 -0.292838 -0.694811 0
M  V30 6171 H 569.654 -1.29426 -1.30082 0
M  V30 6172 H 568.036 -0.793993 -3.87958 0
M  V30 6173 H 569.21 -3.50973 -2.98588 0
M  V30 6174 H 567.525 -3.06676 -2.81672 0
M  V30 6175 H 570.122 -1.51808 -5.12697 0
M  V30 6176 H 570.465 -0.10353 -4.16171 0
M  V30 6177 H 570.998 -1.70472 -3.59422 0
M  V30 6178 H 567.737 -4.43866 -4.82351 0
M  V30 6179 H 567.257 -2.79564 -5.30664 0
M  V30 6180 H 568.936 -3.34238 -5.5398 0
M  V30 6181 N 569.068 1.32177 -0.85831 0
M  V30 6182 C 570.479 1.79381 -0.517621 0
M  V30 6183 C 570.83 1.70841 0.964769 0
M  V30 6184 O 569.955 1.26917 1.75274 0
M  V30 6185 C 570.55 3.25706 -0.932801 0
M  V30 6186 C 569.109 3.70851 -0.643953 0
M  V30 6187 C 568.256 2.53208 -1.13054 0
M  V30 6188 H 571.207 1.19424 -1.04516 0
M  V30 6189 H 571.228 3.79673 -0.250674 0
M  V30 6190 H 570.74 3.31889 -2.01174 0
M  V30 6191 H 568.841 3.70178 0.424112 0
M  V30 6192 H 568.954 4.63495 -1.21281 0
M  V30 6193 H 567.318 2.48676 -0.550679 0
M  V30 6194 H 568.101 2.62143 -2.21666 0
M  V30 6195 N 570.547 0.616602 1.45037 0
M  V30 6196 C 571.495 -0.109318 2.32343 0
M  V30 6197 C 572.489 -0.850543 1.465 0
M  V30 6198 O 573.695 -0.765088 1.62931 0
M  V30 6199 H 570.07 -0.0541091 0.750051 0
M  V30 6200 H 572.041 0.645326 2.91338 0
M  V30 6201 C 570.79 -1.0872 3.30266 0
M  V30 6202 H 570.113 -0.526267 3.96321 0
M  V30 6203 H 571.553 -1.56489 3.94065 0
M  V30 6204 C 570.012 -2.16525 2.58105 0
M  V30 6205 O 570.542 -3.244 2.36913 0
M  V30 6206 N 568.748 -1.92057 2.18088 0
M  V30 6207 H 568.295 -1.04337 2.35524 0
M  V30 6208 H 568.253 -2.64391 1.70131 0
M  V30 6209 N 572.025 -1.5352 0.356285 0
M  V30 6210 C 572.955 -2.28372 -0.486661 0
M  V30 6211 C 573.936 -1.30432 -1.09185 0
M  V30 6212 O 575.121 -1.59291 -1.11085 0
M  V30 6213 C 572.251 -3.06604 -1.63129 0
M  V30 6214 C 571.205 -4.12154 -1.15381 0
M  V30 6215 C 570.531 -4.78415 -2.38796 0
M  V30 6216 C 571.831 -5.21724 -0.245179 0
M  V30 6217 H 573.525 -2.99083 0.137797 0
M  V30 6218 H 571.071 -1.43841 0.0677134 0
M  V30 6219 H 573.024 -3.57712 -2.22755 0
M  V30 6220 H 571.748 -2.33568 -2.28284 0
M  V30 6221 H 570.407 -3.61978 -0.580294 0
M  V30 6222 H 570.055 -4.01959 -3.02387 0
M  V30 6223 H 569.755 -5.49734 -2.07524 0
M  V30 6224 H 571.279 -5.32313 -2.99125 0
M  V30 6225 H 572.693 -5.68391 -0.748646 0
M  V30 6226 H 571.09 -6.00095 -0.0237608 0
M  V30 6227 H 572.16 -4.79596 0.715229 0
M  V30 6228 N 573.503 -0.0852151 -1.57369 0
M  V30 6229 C 574.433 0.874556 -2.16503 0
M  V30 6230 C 575.414 1.30111 -1.09568 0
M  V30 6231 O 576.599 1.36977 -1.37662 0
M  V30 6232 C 573.729 2.13731 -2.73745 0
M  V30 6233 C 572.683 1.84971 -3.85966 0
M  V30 6234 C 572.009 3.17991 -4.29867 0
M  V30 6235 C 573.309 1.14442 -5.09608 0
M  V30 6236 H 575.003 0.381899 -2.96954 0
M  V30 6237 H 572.549 0.18225 -1.42842 0
M  V30 6238 H 574.502 2.81302 -3.13763 0
M  V30 6239 H 573.226 2.65263 -1.90534 0
M  V30 6240 H 571.885 1.19801 -3.46473 0
M  V30 6241 H 571.533 3.6739 -3.4356 0
M  V30 6242 H 571.233 2.99534 -5.05523 0
M  V30 6243 H 572.757 3.86737 -4.72511 0
M  V30 6244 H 574.171 1.72105 -5.46857 0
M  V30 6245 H 572.568 1.06197 -5.90629 0
M  V30 6246 H 573.638 0.12559 -4.84737 0
M  V30 6247 N 574.981 1.5647 0.188427 0
M  V30 6248 C 576.258 1.71857 0.934058 0
M  V30 6249 C 576.638 0.641867 2.01105 0
M  V30 6250 O 575.986 -0.346098 2.25864 0
M  V30 6251 C 576.196 3.14431 1.5144 0
M  V30 6252 C 577.544 3.74869 1.99396 0
M  V30 6253 O 578.568 3.17601 1.61269 0
M  V30 6254 O 577.427 4.75387 2.69573 0
M  V30 6255 H 574.521 0.701186 0.438483 0
M  V30 6256 H 577.067 1.68768 0.177599 0
M  V30 6257 H 575.839 3.8427 0.738416 0
M  V30 6258 H 575.462 3.21775 2.33552 0
M  V30 6259 N 576.459 -0.456382 1.50847 0
M  V30 6260 C 577.736 -1.21739 1.53098 0
M  V30 6261 C 578.116 -2.09179 0.284132 0
M  V30 6262 O 577.464 -2.16466 -0.731773 0
M  V30 6263 C 577.674 -2.03573 2.83477 0
M  V30 6264 C 579.022 -2.61264 3.34703 0
M  V30 6265 O 580.046 -2.13802 2.84898 0
M  V30 6266 O 578.905 -3.47779 4.21559 0
M  V30 6267 H 575.999 -0.553219 0.614718 0
M  V30 6268 H 578.545 -0.467003 1.63148 0
M  V30 6269 H 577.317 -1.39232 3.65691 0
M  V30 6270 H 576.94 -2.85716 2.76499 0
M  V30 6271 N 577.937 -1.40673 -0.710563 0
M  V30 6272 C 579.165 -1.42547 -1.4996 0
M  V30 6273 C 579.58 -0.0265485 -1.88781 0
M  V30 6274 O 578.937 0.950694 -1.55782 0
M  V30 6275 C 578.988 -2.32071 -2.77173 0
M  V30 6276 O 578.709 -3.66518 -2.39992 0
M  V30 6277 C 580.21 -2.42591 -3.71032 0
M  V30 6278 H 577.43 -0.486025 -0.462623 0
M  V30 6279 H 579.974 -1.84783 -0.876102 0
M  V30 6280 H 578.129 -1.93184 -3.35795 0
M  V30 6281 H 578.543 -4.14115 -3.21884 0
M  V30 6282 H 580.017 -3.09429 -4.57119 0
M  V30 6283 H 580.494 -1.4525 -4.14486 0
M  V30 6284 H 581.1 -2.82051 -3.18319 0
M  V30 6285 N 579.415 0.9433 -1.26252 0
M  V30 6286 C 580.664 1.68369 -1.11062 0
M  V30 6287 C 580.977 1.92514 0.346104 0
M  V30 6288 O 582.183 2.64358 0.618646 0
M  V30 6289 C 580.639 3.03171 -1.93946 0
M  V30 6290 C 580.247 2.86782 -3.4418 0
M  V30 6291 C 581.991 3.80916 -1.87359 0
M  V30 6292 C 579.898 4.17044 -4.19319 0
M  V30 6293 H 578.828 0.631469 -0.412023 0
M  V30 6294 H 581.479 1.04922 -1.50544 0
M  V30 6295 H 579.861 3.67587 -1.47296 0
M  V30 6296 H 581.035 2.31229 -3.98585 0
M  V30 6297 H 579.35 2.22482 -3.51981 0
M  V30 6298 H 581.947 4.77417 -2.40784 0
M  V30 6299 H 582.29 4.07658 -0.843857 0
M  V30 6300 H 582.823 3.2327 -2.31821 0
M  V30 6301 H 579.562 3.95487 -5.22753 0
M  V30 6302 H 579.082 4.72319 -3.69696 0
M  V30 6303 H 580.761 4.85513 -4.27651 0
M  V30 6304 N 580.893 1.08022 1.14757 0
M  V30 6305 C 582.123 0.827646 1.89298 0
M  V30 6306 C 582.531 -0.623506 1.78631 0
M  V30 6307 O 581.874 -1.43991 1.14071 0
M  V30 6308 C 581.936 1.16553 3.40082 0
M  V30 6309 C 581.6 2.61866 3.74533 0
M  V30 6310 C 582.597 3.60116 3.74984 0
M  V30 6311 C 580.282 2.97619 4.04633 0
M  V30 6312 C 582.276 4.92151 4.05051 0
M  V30 6313 C 579.963 4.2985 4.34364 0
M  V30 6314 C 580.961 5.26926 4.34555 0
M  V30 6315 O 580.649 6.5678 4.63568 0
M  V30 6316 H 580.381 0.298396 0.606577 0
M  V30 6317 H 582.935 1.44187 1.46285 0
M  V30 6318 H 581.165 0.494296 3.83528 0
M  V30 6319 H 582.854 0.894407 3.95923 0
M  V30 6320 H 583.62 3.33837 3.51821 0
M  V30 6321 H 579.499 2.22702 4.03639 0
M  V30 6322 H 583.043 5.67915 4.05115 0
M  V30 6323 H 578.94 4.55879 4.56995 0
M  V30 6324 H 579.708 6.62035 4.81303 0
M  V30 6325 N 582.371 -1.3172 0.865308 0
M  V30 6326 C 583.319 -2.30569 0.306674 0
M  V30 6327 C 584.313 -1.59317 -0.575724 0
M  V30 6328 O 585.519 -1.73961 -0.462343 0
M  V30 6329 H 581.894 -0.747681 0.0804834 0
M  V30 6330 H 583.865 -2.75165 1.15441 0
M  V30 6331 C 582.614 -3.44358 -0.480952 0
M  V30 6332 H 581.937 -3.99354 0.18876 0
M  V30 6333 H 583.377 -4.15652 -0.837241 0
M  V30 6334 C 581.836 -2.92574 -1.67039 0
M  V30 6335 O 582.366 -2.90954 -2.76964 0
M  V30 6336 N 580.572 -2.48835 -1.50097 0
M  V30 6337 H 580.119 -2.50353 -0.606738 0
M  V30 6338 H 580.077 -2.14543 -2.29823 0
M  V30 6339 N 583.85 -0.624285 -1.44708 0
M  V30 6340 C 585.127 -0.0572781 -1.95516 0
M  V30 6341 C 585.507 1.41516 -1.56641 0
M  V30 6342 O 584.855 2.12614 -0.837111 0
M  V30 6343 C 585.065 -0.272944 -3.47931 0
M  V30 6344 C 586.413 -0.162529 -4.24289 0
M  V30 6345 O 587.437 -0.203946 -3.55616 0
M  V30 6346 O 586.296 -0.0616847 -5.46465 0
M  V30 6347 H 583.389 0.0262219 -0.826584 0
M  V30 6348 H 585.936 -0.695512 -1.54793 0
M  V30 6349 H 584.707 -1.29492 -3.69253 0
M  V30 6350 H 584.331 0.399756 -3.95585 0
M  V30 6351 N 585.328 1.53329 -0.364422 0
M  V30 6352 C 586.556 2.05657 0.226424 0
M  V30 6353 C 586.971 1.23801 1.42544 0
M  V30 6354 O 586.328 0.27839 1.80364 0
M  V30 6355 C 586.379 3.56125 0.621056 0
M  V30 6356 O 586.1 4.34879 -0.530304 0
M  V30 6357 C 587.601 4.24706 1.27041 0
M  V30 6358 H 584.821 0.669806 0.0400056 0
M  V30 6359 H 587.365 1.97714 -0.522456 0
M  V30 6360 H 585.52 3.64223 1.31985 0
M  V30 6361 H 585.934 5.24073 -0.211546 0
M  V30 6362 H 587.408 5.3131 1.49711 0
M  V30 6363 H 587.885 3.78354 2.23036 0
M  V30 6364 H 588.491 4.20858 0.613079 0
M  V30 6365 N 586.806 0.0935595 1.57322 0
M  V30 6366 C 587.716 -0.880192 2.17462 0
M  V30 6367 C 588.732 -1.31135 1.14366 0
M  V30 6368 O 589.908 -1.37958 1.46729 0
M  V30 6369 C 586.973 -2.12184 2.74188 0
M  V30 6370 C 586.034 -1.74503 3.92234 0
M  V30 6371 C 585.267 -2.92748 4.46245 0
M  V30 6372 O 585.49 -4.07427 3.99198 0
M  V30 6373 O 584.424 -2.71303 5.37288 0
M  V30 6374 H 588.25 -0.398516 3.01074 0
M  V30 6375 H 585.835 -0.130707 1.48827 0
M  V30 6376 H 587.717 -2.84953 3.10451 0
M  V30 6377 H 586.392 -2.59407 1.93623 0
M  V30 6378 H 585.299 -0.989186 3.60785 0
M  V30 6379 H 586.632 -1.32044 4.74157 0
M  V30 6380 N 588.284 -1.56567 -0.180126 0
M  V30 6381 C 589.532 -1.81133 -0.896392 0
M  V30 6382 C 589.853 -0.669114 -1.83161 0
M  V30 6383 O 589.123 0.311616 -1.93406 0
M  V30 6384 H 587.703 -0.668172 -0.333999 0
M  V30 6385 H 590.365 -1.94048 -0.182051 0
M  V30 6386 H 589.461 -2.74854 -1.47857 0
M  V30 6387 N 589.762 0.448376 -1.51087 0
M  V30 6388 C 591.009 1.19872 -1.63209 0
M  V30 6389 C 591.337 1.91451 -0.343062 0
M  V30 6390 O 590.592 1.83789 0.672321 0
M  V30 6391 C 590.891 2.24866 -2.77795 0
M  V30 6392 C 590.557 1.70378 -4.17471 0
M  V30 6393 C 589.219 1.55241 -4.55471 0
M  V30 6394 C 591.571 1.30203 -5.04675 0
M  V30 6395 C 588.899 0.983844 -5.78392 0
M  V30 6396 C 591.251 0.747798 -6.28165 0
M  V30 6397 C 589.915 0.583233 -6.64947 0
M  V30 6398 H 589.185 0.438642 -0.597222 0
M  V30 6399 H 591.832 0.49136 -1.85089 0
M  V30 6400 H 590.137 3.01598 -2.50092 0
M  V30 6401 H 591.834 2.82723 -2.84374 0
M  V30 6402 H 588.424 1.83134 -3.87505 0
M  V30 6403 H 592.608 1.40723 -4.75932 0
M  V30 6404 H 587.864 0.844007 -6.05546 0
M  V30 6405 H 592.038 0.427927 -6.95084 0
M  V30 6406 H 589.665 0.140532 -7.6007 0
M  V30 6407 N 591.24 1.41047 0.703093 0
M  V30 6408 C 592.188 1.42494 1.83843 0
M  V30 6409 C 593.182 0.303885 1.66652 0
M  V30 6410 O 594.388 0.475544 1.73605 0
M  V30 6411 H 590.763 0.445685 0.605697 0
M  V30 6412 H 592.734 2.38194 1.79739 0
M  V30 6413 C 591.483 1.31666 3.21807 0
M  V30 6414 H 590.806 2.17212 3.35647 0
M  V30 6415 H 592.246 1.36738 4.01346 0
M  V30 6416 C 590.705 0.0281828 3.36888 0
M  V30 6417 O 591.235 -0.929995 3.90786 0
M  V30 6418 N 589.441 -0.0454322 2.90564 0
M  V30 6419 H 588.988 0.735046 2.4689 0
M  V30 6420 H 588.946 -0.906968 3.01034 0
M  V30 6421 N 592.718 -0.936591 1.26751 0
M  V30 6422 C 593.967 -1.67778 1.11953 0
M  V30 6423 C 594.28 -1.92694 -0.33589 0
M  V30 6424 O 595.486 -2.64682 -0.604618 0
M  V30 6425 C 593.942 -3.02138 1.95551 0
M  V30 6426 C 593.55 -2.84953 3.45696 0
M  V30 6427 C 595.294 -3.79917 1.89377 0
M  V30 6428 C 593.201 -4.14814 4.21525 0
M  V30 6429 H 592.131 -0.629275 0.415366 0
M  V30 6430 H 594.782 -1.04122 1.51099 0
M  V30 6431 H 593.164 -3.668 1.49243 0
M  V30 6432 H 594.338 -2.29112 3.99805 0
M  V30 6433 H 592.653 -2.20612 3.53156 0
M  V30 6434 H 595.25 -4.76134 2.43312 0
M  V30 6435 H 595.593 -4.07204 0.865464 0
M  V30 6436 H 596.126 -3.22037 2.33532 0
M  V30 6437 H 592.865 -3.92709 5.24843 0
M  V30 6438 H 592.385 -4.70352 3.72195 0
M  V30 6439 H 594.064 -4.83239 4.3022 0
M  V30 6440 N 594.196 -1.08629 -1.14182 0
M  V30 6441 C 595.106 -0.730126 -2.22949 0
M  V30 6442 C 596.122 0.26436 -1.7198 0
M  V30 6443 O 597.298 0.107742 -2.01112 0
M  V30 6444 C 594.363 -0.147227 -3.46387 0
M  V30 6445 C 593.424 -1.19662 -4.12286 0
M  V30 6446 C 592.657 -0.641437 -5.29831 0
M  V30 6447 O 592.88 0.538351 -5.67854 0
M  V30 6448 O 591.814 -1.39257 -5.85569 0
M  V30 6449 H 595.64 -1.63753 -2.55771 0
M  V30 6450 H 593.225 -0.860118 -1.22157 0
M  V30 6451 H 595.107 0.174923 -4.21037 0
M  V30 6452 H 593.782 0.733304 -3.15285 0
M  V30 6453 H 592.689 -1.57133 -3.395 0
M  V30 6454 H 594.022 -2.0495 -4.475 0
M  V30 6455 N 595.674 1.31259 -0.872281 0
M  V30 6456 C 596.899 2.0133 -0.498099 0
M  V30 6457 C 597.324 1.65031 0.902568 0
M  V30 6458 O 596.682 0.860164 1.59596 0
M  V30 6459 C 596.73 3.54411 -0.665205 0
M  V30 6460 O 595.834 4.11347 0.294473 0
M  V30 6461 H 595.175 0.633844 -0.197832 0
M  V30 6462 H 597.705 1.67402 -1.17633 0
M  V30 6463 H 597.715 4.04147 -0.559373 0
M  V30 6464 H 596.39 3.80171 -1.68651 0
M  V30 6465 H 594.967 3.72624 0.143403 0
M  V30 6466 N 597.152 0.631951 1.44375 0
M  V30 6467 C 598.099 -0.0724807 2.30686 0
M  V30 6468 C 599.069 -0.835975 1.43529 0
M  V30 6469 O 600.254 -0.816849 1.7243 0
M  V30 6470 C 597.394 -1.04753 3.28817 0
M  V30 6471 C 596.507 -0.282367 4.31076 0
M  V30 6472 C 595.642 -1.2493 5.163 0
M  V30 6473 C 594.681 -0.473349 6.10267 0
M  V30 6474 N 593.818 -1.39079 6.88187 0
M  V30 6475 H 598.658 0.669477 2.90383 0
M  V30 6476 H 596.195 0.341927 1.43071 0
M  V30 6477 H 598.153 -1.62623 3.842 0
M  V30 6478 H 596.783 -1.75661 2.70819 0
M  V30 6479 H 595.835 0.412268 3.78159 0
M  V30 6480 H 597.147 0.321955 4.9776 0
M  V30 6481 H 596.301 -1.89931 5.76204 0
M  V30 6482 H 595.04 -1.88755 4.49692 0
M  V30 6483 H 594.045 0.190142 5.49471 0
M  V30 6484 H 595.27 0.16019 6.78911 0
M  V30 6485 H 593.216 -2.01623 6.24247 0
M  V30 6486 H 593.133 -0.840513 7.51313 0
M  V30 6487 H 594.401 -2.02961 7.52613 0
M  V30 6488 N 598.631 -1.53133 0.372548 0
M  V30 6489 C 599.908 -1.93704 -0.271693 0
M  V30 6490 C 600.288 -1.30667 -1.65799 0
M  V30 6491 O 599.636 -0.46838 -2.23648 0
M  V30 6492 C 599.846 -3.47576 -0.314903 0
M  V30 6493 C 601.194 -4.20998 -0.551912 0
M  V30 6494 O 602.218 -3.53994 -0.39582 0
M  V30 6495 O 601.077 -5.39748 -0.85639 0
M  V30 6496 H 598.171 -0.810457 -0.164586 0
M  V30 6497 H 600.717 -1.6427 0.425838 0
M  V30 6498 H 599.489 -3.85749 0.656792 0
M  V30 6499 H 599.112 -3.83264 -1.05804 0
M  V30 6500 N 600.109 -0.101901 -1.5727 0
M  V30 6501 C 601.039 0.851544 -2.17419 0
M  V30 6502 C 602.02 1.28942 -1.10941 0
M  V30 6503 O 603.205 1.35509 -1.39107 0
M  V30 6504 C 600.335 2.10816 -2.75996 0
M  V30 6505 C 599.289 1.80867 -3.87906 0
M  V30 6506 C 598.615 3.13413 -4.33216 0
M  V30 6507 C 599.915 1.0903 -5.10793 0
M  V30 6508 H 601.609 0.350381 -2.97343 0
M  V30 6509 H 599.155 0.16709 -1.43027 0
M  V30 6510 H 601.108 2.77959 -3.16729 0
M  V30 6511 H 599.832 2.63227 -1.93337 0
M  V30 6512 H 598.491 1.16119 -3.47724 0
M  V30 6513 H 598.139 3.63725 -3.47438 0
M  V30 6514 H 597.839 2.94155 -5.08671 0
M  V30 6515 H 599.363 3.81704 -4.76586 0
M  V30 6516 H 600.777 1.66295 -5.48652 0
M  V30 6517 H 599.174 0.99927 -5.91722 0
M  V30 6518 H 600.244 0.0741704 -4.84843 0
M  V30 6519 N 601.587 1.56661 0.17182 0
M  V30 6520 C 602.534 1.96371 1.21273 0
M  V30 6521 C 603.504 0.82756 1.44016 0
M  V30 6522 O 604.689 1.08764 1.56764 0
M  V30 6523 C 601.829 2.32838 2.54716 0
M  V30 6524 C 600.942 3.59628 2.39356 0
M  V30 6525 C 600.077 3.85311 3.65662 0
M  V30 6526 C 599.116 5.0545 3.45234 0
M  V30 6527 N 598.253 5.27268 4.63608 0
M  V30 6528 H 603.093 2.85106 0.86709 0
M  V30 6529 H 600.63 1.41073 0.416744 0
M  V30 6530 H 602.588 2.52004 3.3249 0
M  V30 6531 H 601.218 1.47214 2.87277 0
M  V30 6532 H 600.27 3.4838 1.52761 0
M  V30 6533 H 601.582 4.4756 2.20207 0
M  V30 6534 H 600.736 4.04841 4.51872 0
M  V30 6535 H 599.475 2.95753 3.8779 0
M  V30 6536 H 598.48 4.85819 2.5741 0
M  V30 6537 H 599.705 5.96538 3.24529 0
M  V30 6538 H 597.651 4.40662 4.85956 0
M  V30 6539 H 597.568 6.09422 4.4737 0
M  V30 6540 H 598.836 5.51277 5.51103 0
M  V30 6541 N 603.065 -0.440357 1.51323 0
M  V30 6542 C 604.29 -1.21716 1.67928 0
M  V30 6543 C 604.715 -1.84328 0.374826 0
M  V30 6544 O 604.073 -1.68675 -0.664706 0
M  V30 6545 C 604.121 -2.27914 2.79442 0
M  V30 6546 O 603.225 -3.33325 2.42834 0
M  V30 6547 H 602.566 -0.35674 0.560029 0
M  V30 6548 H 605.096 -0.520417 1.97871 0
M  V30 6549 H 605.106 -2.72746 3.03436 0
M  V30 6550 H 603.781 -1.8172 3.741 0
M  V30 6551 H 602.358 -2.9399 2.294 0
M  V30 6552 N 604.543 -1.41418 -0.695603 0
M  V30 6553 C 605.453 -1.45622 -1.83933 0
M  V30 6554 C 606.469 -0.346825 -1.70508 0
M  V30 6555 O 607.645 -0.59454 -1.92424 0
M  V30 6556 C 604.71 -1.33627 -3.19914 0
M  V30 6557 C 603.771 -2.54882 -3.45447 0
M  V30 6558 C 603.004 -2.43449 -4.7494 0
M  V30 6559 O 603.227 -1.45905 -5.51424 0
M  V30 6560 O 602.161 -3.33206 -5.01256 0
M  V30 6561 H 605.987 -2.42114 -1.83342 0
M  V30 6562 H 603.572 -1.22956 -0.848658 0
M  V30 6563 H 605.454 -1.29221 -4.01098 0
M  V30 6564 H 604.129 -0.402508 -3.21188 0
M  V30 6565 H 603.036 -2.64865 -2.64192 0
M  V30 6566 H 604.369 -3.47087 -3.48987 0
M  V30 6567 N 606.021 0.929856 -1.27246 0
M  V30 6568 C 607.251 1.70895 -1.16096 0
M  V30 6569 C 607.659 1.87039 0.285122 0
M  V30 6570 O 607.002 1.38557 1.20614 0
M  V30 6571 C 607.064 3.12919 -1.7698 0
M  V30 6572 C 606.728 3.2012 -3.26148 0
M  V30 6573 C 607.725 3.02533 -4.22812 0
M  V30 6574 C 605.41 3.43148 -3.66817 0
M  V30 6575 C 607.404 3.07861 -5.58122 0
M  V30 6576 C 605.091 3.48109 -5.02258 0
M  V30 6577 C 606.089 3.30483 -5.97721 0
M  V30 6578 O 605.777 3.35175 -7.30694 0
M  V30 6579 H 605.509 0.54152 -0.404639 0
M  V30 6580 H 608.063 1.17342 -1.68582 0
M  V30 6581 H 606.293 3.67945 -1.18969 0
M  V30 6582 H 607.982 3.72787 -1.60576 0
M  V30 6583 H 608.748 2.84586 -3.92728 0
M  V30 6584 H 604.627 3.55918 -2.9299 0
M  V30 6585 H 608.171 2.94021 -6.32612 0
M  V30 6586 H 604.068 3.65579 -5.31998 0
M  V30 6587 H 604.836 3.51644 -7.39114 0
M  V30 6588 N 607.499 1.09233 1.13605 0
M  V30 6589 C 608.446 0.729921 2.18954 0
M  V30 6590 C 609.416 -0.287916 1.63586 0
M  V30 6591 O 610.601 -0.170003 1.90041 0
M  V30 6592 C 607.741 0.154489 3.44754 0
M  V30 6593 C 606.854 1.22613 4.14234 0
M  V30 6594 C 605.989 0.613657 5.27644 0
M  V30 6595 C 605.028 1.66674 5.8897 0
M  V30 6596 N 604.165 1.07545 6.93814 0
M  V30 6597 H 609.005 1.63257 2.49302 0
M  V30 6598 H 606.542 0.815693 1.22413 0
M  V30 6599 H 608.5 -0.196923 4.16735 0
M  V30 6600 H 607.13 -0.711433 3.14863 0
M  V30 6601 H 606.182 1.69485 3.40557 0
M  V30 6602 H 607.494 2.0238 4.55899 0
M  V30 6603 H 606.648 0.210976 6.06333 0
M  V30 6604 H 605.387 -0.215584 4.87223 0
M  V30 6605 H 604.392 2.07899 5.08978 0
M  V30 6606 H 605.617 2.49861 6.31464 0
M  V30 6607 H 603.563 0.267451 6.55455 0
M  V30 6608 H 603.48 1.81011 7.3401 0
M  V30 6609 H 604.748 0.698906 7.7636 0
M  V30 6610 N 608.977 -1.30795 0.87923 0
M  V30 6611 C 610.225 -1.95974 0.493809 0
M  V30 6612 C 610.546 -1.69787 -0.959021 0
M  V30 6613 O 609.816 -1.01832 -1.67353 0
M  V30 6614 H 608.396 -0.725083 0.179622 0
M  V30 6615 H 611.058 -1.59432 1.12105 0
M  V30 6616 H 610.154 -3.05058 0.659263 0
M  V30 6617 N 610.455 -0.639598 -1.44038 0
M  V30 6618 C 611.387 0.0987684 -2.28987 0
M  V30 6619 C 612.4 0.80058 -1.41755 0
M  V30 6620 O 613.589 0.660611 -1.65826 0
M  V30 6621 C 610.689 1.16242 -3.18341 0
M  V30 6622 C 609.862 0.541447 -4.34036 0
M  V30 6623 C 608.921 1.50017 -5.04362 0
M  V30 6624 O 607.947 1.01403 -5.60095 0
M  V30 6625 N 609.149 2.83441 -5.06598 0
M  V30 6626 H 611.914 -0.630305 -2.92997 0
M  V30 6627 H 609.475 -0.481376 -1.54578 0
M  V30 6628 H 611.467 1.80429 -3.62253 0
M  V30 6629 H 610.037 1.79362 -2.56024 0
M  V30 6630 H 609.257 -0.27923 -3.9321 0
M  V30 6631 H 610.545 0.107379 -5.08687 0
M  V30 6632 H 609.943 3.2551 -4.62666 0
M  V30 6633 H 608.5 3.42966 -5.54272 0
M  V30 6634 N 611.933 1.52934 -0.380664 0
M  V30 6635 C 612.881 2.27727 0.47361 0
M  V30 6636 C 613.875 1.31288 1.0705 0
M  V30 6637 O 615.081 1.4886 1.01197 0
M  V30 6638 H 611.456 0.732189 0.171475 0
M  V30 6639 H 613.427 2.97864 -0.178785 0
M  V30 6640 C 612.176 3.0904 1.59341 0
M  V30 6641 H 611.499 3.831 1.14343 0
M  V30 6642 H 612.939 3.64527 2.16555 0
M  V30 6643 C 611.398 2.20813 2.54447 0
M  V30 6644 O 611.928 1.82907 3.57642 0
M  V30 6645 N 610.134 1.85145 2.23986 0
M  V30 6646 H 609.681 2.16169 1.40103 0
M  V30 6647 H 609.639 1.26402 2.87871 0
M  V30 6648 N 613.412 0.11024 1.57214 0
M  V30 6649 C 614.345 -0.880224 2.1054 0
M  V30 6650 C 615.323 -1.26658 1.01964 0
M  V30 6651 O 616.507 -1.36917 1.29561 0
M  V30 6652 C 613.634 -2.17676 2.59489 0
M  V30 6653 C 612.68 -1.93914 3.79868 0
M  V30 6654 S 613.513 -1.16336 5.2271 0
M  V30 6655 C 614.669 -2.47188 5.75021 0
M  V30 6656 H 614.902 -0.426614 2.94223 0
M  V30 6657 H 612.435 -0.10336 1.54054 0
M  V30 6658 H 614.393 -2.92175 2.88347 0
M  V30 6659 H 613.054 -2.60156 1.76005 0
M  V30 6660 H 612.247 -2.8996 4.12236 0
M  V30 6661 H 611.849 -1.27539 3.51582 0
M  V30 6662 H 614.141 -3.43079 5.84211 0
M  V30 6663 H 615.084 -2.19377 6.7326 0
M  V30 6664 H 615.492 -2.56154 5.03036 0
M  V30 6665 N 614.89 -1.56749 -0.16351 0
M  V30 6666 C 616.306 -1.51043 -0.515567 0
M  V30 6667 C 616.506 -0.815855 -1.84245 0
M  V30 6668 O 615.562 -0.379477 -2.49632 0
M  V30 6669 C 616.875 -2.95791 -0.541114 0
M  V30 6670 C 618.423 -3.0664 -0.627776 0
M  V30 6671 C 618.898 -4.52861 -0.684141 0
M  V30 6672 N 620.389 -4.5714 -0.746818 0
M  V30 6673 C 621.124 -5.67634 -0.811137 0
M  V30 6674 N 620.62 -6.8774 -0.835811 0
M  V30 6675 N 622.413 -5.55624 -0.850756 0
M  V30 6676 H 614.564 -2.00307 0.70645 0
M  V30 6677 H 616.827 -0.912876 0.255659 0
M  V30 6678 H 616.533 -3.49797 0.365329 0
M  V30 6679 H 616.407 -3.50858 -1.38487 0
M  V30 6680 H 618.794 -2.52663 -1.52464 0
M  V30 6681 H 618.875 -2.54645 0.242805 0
M  V30 6682 H 618.519 -5.07472 0.2085 0
M  V30 6683 H 618.449 -5.02621 -1.57098 0
M  V30 6684 H 620.94 -3.70669 -0.735717 0
M  V30 6685 H 621.253 -7.67701 -0.886279 0
M  V30 6686 H 619.598 -6.90334 -0.803958 0
M  V30 6687 H 622.789 -4.60709 -0.828535 0
M  V30 6688 H 622.962 -6.41756 -0.897418 0
M  V30 6689 N 616.368 0.432326 -1.51554 0
M  V30 6690 C 617.614 1.18309 -1.64714 0
M  V30 6691 C 617.947 1.90745 -0.364696 0
M  V30 6692 O 617.222 1.8381 0.635936 0
M  V30 6693 C 617.505 2.1961 -2.85383 0
M  V30 6694 C 617.358 1.51223 -4.23617 0
M  V30 6695 C 618.677 3.20538 -3.01569 0
M  V30 6696 H 615.796 0.428751 -0.599451 0
M  V30 6697 H 618.438 0.471689 -1.84052 0
M  V30 6698 H 616.588 2.8028 -2.69027 0
M  V30 6699 H 618.26 0.938516 -4.51652 0
M  V30 6700 H 616.503 0.814501 -4.26085 0
M  V30 6701 H 617.174 2.25024 -5.04052 0
M  V30 6702 H 619.65 2.69926 -3.16669 0
M  V30 6703 H 618.526 3.88706 -3.87555 0
M  V30 6704 H 618.787 3.86933 -2.13859 0
M  V30 6705 N 617.846 1.41785 0.688094 0
M  V30 6706 C 618.794 1.44436 1.82321 0
M  V30 6707 C 619.788 0.321544 1.6632 0
M  V30 6708 O 620.994 0.493931 1.73091 0
M  V30 6709 H 617.369 0.452084 0.600936 0
M  V30 6710 H 619.34 2.40087 1.77202 0
M  V30 6711 C 618.089 1.35071 3.20392 0
M  V30 6712 H 617.412 2.2076 3.33324 0
M  V30 6713 H 618.852 1.40988 3.99873 0
M  V30 6714 C 617.311 0.0639127 3.36839 0
M  V30 6715 O 617.841 -0.888495 3.91751 0
M  V30 6716 N 616.047 -0.0146114 2.90596 0
M  V30 6717 H 615.594 0.761191 2.46097 0
M  V30 6718 H 615.552 -0.874988 3.01979 0
M  V30 6719 N 619.324 -0.923095 1.27737 0
M  V30 6720 C 620.552 -1.70525 1.17171 0
M  V30 6721 C 620.967 -1.86847 -0.270881 0
M  V30 6722 O 620.324 -1.38879 -1.18401 0
M  V30 6723 C 620.375 -3.10242 1.85559 0
M  V30 6724 O 620.096 -2.94683 3.24182 0
M  V30 6725 C 621.597 -4.04586 1.81176 0
M  V30 6726 H 618.817 -0.533347 0.407163 0
M  V30 6727 H 621.361 -1.15599 1.68692 0
M  V30 6728 H 619.516 -3.62014 1.3793 0
M  V30 6729 H 619.93 -3.83045 3.58297 0
M  V30 6730 H 621.404 -5.00119 2.33633 0
M  V30 6731 H 621.881 -4.3218 0.782099 0
M  V30 6732 H 622.487 -3.58741 2.2844 0
M  V30 6733 N 620.802 -1.09834 -1.13024 0
M  V30 6734 C 621.75 -0.736283 -2.20639 0
M  V30 6735 C 622.744 0.264725 -1.67319 0
M  V30 6736 O 623.95 0.125745 -1.7956 0
M  V30 6737 H 620.325 -0.220136 -0.719058 0
M  V30 6738 H 622.296 -1.65295 -2.48436 0
M  V30 6739 C 621.045 -0.177544 -3.47246 0
M  V30 6740 H 620.368 -0.939009 -3.88616 0
M  V30 6741 H 621.808 0.0378007 -4.23983 0
M  V30 6742 C 620.267 1.08824 -3.1884 0
M  V30 6743 O 620.797 2.1708 -3.37993 0
M  V30 6744 N 619.003 1.00442 -2.7269 0
M  V30 6745 H 618.55 0.123383 -2.57304 0
M  V30 6746 H 618.508 1.85206 -2.5406 0
M  V30 6747 N 622.28 1.30327 -0.886154 0
M  V30 6748 C 623.243 2.26376 -0.358687 0
M  V30 6749 C 624.243 1.52845 0.499498 0
M  V30 6750 O 625.433 1.71483 0.306485 0
M  V30 6751 C 622.565 3.37379 0.488726 0
M  V30 6752 H 623.758 2.74547 -1.20681 0
M  V30 6753 H 621.311 1.41536 -0.663113 0
M  V30 6754 H 622.046 2.94526 1.35739 0
M  V30 6755 H 621.831 3.91897 -0.126003 0
M  V30 6756 H 623.321 4.08868 0.84952 0
M  V30 6757 N 623.758 0.647228 1.43697 0
M  V30 6758 C 625.005 0.158188 2.01881 0
M  V30 6759 C 625.333 -1.22573 1.51017 0
M  V30 6760 O 624.588 -1.83086 0.69122 0
M  V30 6761 C 624.887 0.111481 3.57226 0
M  V30 6762 C 624.553 1.43633 4.27411 0
M  V30 6763 C 623.215 1.79915 4.463 0
M  V30 6764 C 625.567 2.31011 4.67208 0
M  V30 6765 C 622.895 3.03251 5.02251 0
M  V30 6766 C 625.247 3.53633 5.24525 0
M  V30 6767 C 623.911 3.90118 5.41631 0
M  V30 6768 H 623.181 0.0578851 0.738736 0
M  V30 6769 H 625.828 0.836746 1.72252 0
M  V30 6770 H 624.133 -0.650507 3.86362 0
M  V30 6771 H 625.83 -0.283682 3.99995 0
M  V30 6772 H 622.42 1.14403 4.1305 0
M  V30 6773 H 626.604 2.04272 4.52313 0
M  V30 6774 H 621.86 3.31575 5.13681 0
M  V30 6775 H 626.034 4.21561 5.5431 0
M  V30 6776 H 623.661 4.85768 5.84751 0
M  V30 6777 N 625.236 -1.5273 0.388769 0
M  V30 6778 C 626.652 -1.59553 0.0387049 0
M  V30 6779 C 626.852 -1.40278 -1.44652 0
M  V30 6780 O 625.908 -1.21951 -2.21098 0
M  V30 6781 C 627.221 -2.9625 0.515409 0
M  V30 6782 C 628.769 -3.09426 0.471621 0
M  V30 6783 C 629.244 -4.48572 0.924505 0
M  V30 6784 N 630.735 -4.54754 0.880496 0
M  V30 6785 C 631.47 -5.60653 1.20234 0
M  V30 6786 N 630.966 -6.74198 1.59463 0
M  V30 6787 N 632.759 -5.50755 1.12363 0
M  V30 6788 H 624.91 -1.63508 1.35569 0
M  V30 6789 H 627.173 -0.768097 0.555636 0
M  V30 6790 H 626.879 -3.15569 1.5527 0
M  V30 6791 H 626.753 -3.77102 -0.085792 0
M  V30 6792 H 629.14 -2.89804 -0.556588 0
M  V30 6793 H 629.221 -2.30528 1.10862 0
M  V30 6794 H 628.865 -4.68936 1.95094 0
M  V30 6795 H 628.795 -5.25935 0.264524 0
M  V30 6796 H 631.286 -3.73237 0.591815 0
M  V30 6797 H 631.599 -7.5097 1.82385 0
M  V30 6798 H 629.944 -6.75531 1.63349 0
M  V30 6799 H 633.135 -4.6093 0.816169 0
M  V30 6800 H 633.308 -6.33184 1.37777 0
M  V30 6801 N 626.714 -0.118576 -1.57153 0
M  V30 6802 C 627.662 0.849114 -2.16547 0
M  V30 6803 C 628.656 1.27567 -1.11458 0
M  V30 6804 O 629.862 1.24746 -1.29763 0
M  V30 6805 H 626.237 0.291935 -0.693021 0
M  V30 6806 H 628.208 0.323693 -2.96639 0
M  V30 6807 C 626.957 2.08951 -2.77912 0
M  V30 6808 H 626.28 1.77021 -3.58474 0
M  V30 6809 H 627.72 2.74666 -3.23008 0
M  V30 6810 C 626.179 2.87899 -1.74974 0
M  V30 6811 O 626.709 3.83268 -1.20285 0
M  V30 6812 N 624.915 2.51884 -1.44924 0
M  V30 6813 H 624.462 1.74397 -1.89587 0
M  V30 6814 H 624.42 3.05003 -0.762921 0
M  V30 6815 N 628.193 1.56834 0.155195 0
M  V30 6816 C 629.439 1.83169 0.870467 0
M  V30 6817 C 629.772 0.698929 1.81187 0
M  V30 6818 O 629.047 -0.298035 1.92203 0
M  V30 6819 C 629.33 3.19965 1.65211 0
M  V30 6820 C 629.183 4.43792 0.732744 0
M  V30 6821 C 630.502 3.53885 2.61636 0
M  V30 6822 H 627.621 0.666288 0.315006 0
M  V30 6823 H 630.263 1.89513 0.135988 0
M  V30 6824 H 628.413 3.14687 2.27825 0
M  V30 6825 H 630.085 4.61148 0.118236 0
M  V30 6826 H 628.328 4.3378 0.0417906 0
M  V30 6827 H 628.999 5.36095 1.31552 0
M  V30 6828 H 631.475 3.5972 2.09143 0
M  V30 6829 H 630.351 4.50648 3.13381 0
M  V30 6830 H 630.612 2.79418 3.42605 0
M  V30 6831 N 629.671 -0.424282 1.51781 0
M  V30 6832 C 630.948 -1.18464 1.55646 0
M  V30 6833 C 631.328 -2.08529 0.328438 0
M  V30 6834 O 630.676 -2.17969 -0.685693 0
M  V30 6835 C 630.886 -1.97514 2.87731 0
M  V30 6836 C 632.234 -2.54106 3.40169 0
M  V30 6837 O 633.258 -2.07711 2.89369 0
M  V30 6838 O 632.117 -3.38759 4.28841 0
M  V30 6839 H 629.211 -0.540055 0.626314 0
M  V30 6840 H 631.757 -0.432291 1.64102 0
M  V30 6841 H 630.529 -1.31444 3.68562 0
M  V30 6842 H 630.152 -2.79787 2.82498 0
M  V30 6843 N 631.149 -1.42148 -0.680565 0
M  V30 6844 C 632.397 -1.42029 -1.43779 0
M  V30 6845 C 632.718 -0.0356347 -1.94967 0
M  V30 6846 O 631.988 0.924936 -1.7269 0
M  V30 6847 H 630.568 -0.522835 -0.533529 0
M  V30 6848 H 633.23 -1.7752 -0.804538 0
M  V30 6849 H 632.326 -2.11658 -2.29363 0
M  V30 6850 N 632.627 0.916307 -1.28225 0
M  V30 6851 C 633.852 1.7043 -1.18188 0
M  V30 6852 C 634.277 1.86346 0.256274 0
M  V30 6853 O 633.635 1.37175 1.18544 0
M  V30 6854 C 633.683 3.07546 -1.88275 0
M  V30 6855 O 632.787 3.94904 -1.18848 0
M  V30 6856 H 632.128 0.521967 -0.410423 0
M  V30 6857 H 634.658 1.14589 -1.69501 0
M  V30 6858 H 634.668 3.57793 -1.96082 0
M  V30 6859 H 633.343 2.95279 -2.92887 0
M  V30 6860 H 631.92 3.53339 -1.19187 0
M  V30 6861 N 634.105 1.10431 1.1244 0
M  V30 6862 C 635.353 0.845045 1.83585 0
M  V30 6863 C 635.674 -0.631168 1.84503 0
M  V30 6864 O 634.944 -1.45825 1.30813 0
M  V30 6865 H 633.524 0.309628 0.679809 0
M  V30 6866 H 636.186 1.39458 1.36153 0
M  V30 6867 H 635.282 1.20786 2.8778 0
M  V30 6868 N 635.583 -1.29855 0.893053 0
M  V30 6869 C 636.513 -2.3035 0.382249 0
M  V30 6870 C 637.494 -1.61328 -0.539203 0
M  V30 6871 O 638.679 -1.88882 -0.451342 0
M  V30 6872 C 635.809 -3.45024 -0.396983 0
M  V30 6873 C 634.763 -4.258 0.433437 0
M  V30 6874 C 634.089 -5.32605 -0.472889 0
M  V30 6875 C 635.389 -4.94549 1.67984 0
M  V30 6876 H 637.083 -2.73325 1.22205 0
M  V30 6877 H 634.629 -1.314 0.589073 0
M  V30 6878 H 636.582 -4.14398 -0.765024 0
M  V30 6879 H 635.306 -3.00875 -1.2705 0
M  V30 6880 H 633.965 -3.58125 0.783723 0
M  V30 6881 H 633.613 -4.84702 -1.34435 0
M  V30 6882 H 633.313 -5.87547 0.0789958 0
M  V30 6883 H 634.837 -6.04832 -0.837269 0
M  V30 6884 H 636.251 -5.56395 1.38192 0
M  V30 6885 H 634.648 -5.59393 2.17254 0
M  V30 6886 H 635.718 -4.20215 2.41965 0
M  V30 6887 N 637.061 -0.65484 -1.43351 0
M  V30 6888 C 638.307 -0.169142 -2.02093 0
M  V30 6889 C 638.64 1.21431 -1.51553 0
M  V30 6890 O 637.915 1.81105 -0.709317 0
M  V30 6891 C 638.198 -0.181775 -3.59641 0
M  V30 6892 C 638.051 -1.59926 -4.20409 0
M  V30 6893 C 639.37 0.480945 -4.37464 0
M  V30 6894 H 636.489 -0.0629371 -0.734308 0
M  V30 6895 H 639.131 -0.835833 -1.70628 0
M  V30 6896 H 637.281 0.385918 -3.86578 0
M  V30 6897 H 638.953 -2.21766 -4.04497 0
M  V30 6898 H 637.196 -2.14605 -3.76998 0
M  V30 6899 H 637.867 -1.55994 -5.295 0
M  V30 6900 H 640.343 -0.00208273 -4.161 0
M  V30 6901 H 639.219 0.441384 -5.47122 0
M  V30 6902 H 639.48 1.55533 -4.13838 0
M  V30 6903 N 638.539 1.52521 -0.396863 0
M  V30 6904 C 639.764 2.06571 0.185258 0
M  V30 6905 C 640.189 1.26605 1.39115 0
M  V30 6906 O 639.547 0.293055 1.78916 0
M  V30 6907 C 639.595 3.5674 0.526189 0
M  V30 6908 O 638.699 3.7929 1.61903 0
M  V30 6909 H 638.04 0.663712 0.0195474 0
M  V30 6910 H 640.57 1.966 -0.566519 0
M  V30 6911 H 640.58 4.00311 0.788338 0
M  V30 6912 H 639.255 4.14379 -0.355397 0
M  V30 6913 H 637.832 3.47605 1.35 0
M  V30 6914 N 640.017 0.126909 1.57088 0
M  V30 6915 C 640.964 -0.82036 2.15728 0
M  V30 6916 C 641.934 -1.25811 1.08447 0
M  V30 6917 O 643.119 -1.33422 1.36393 0
M  V30 6918 C 640.259 -2.06199 2.76724 0
M  V30 6919 C 639.372 -1.67188 3.98337 0
M  V30 6920 C 638.507 -2.86378 4.47393 0
M  V30 6921 C 637.546 -2.43644 5.61519 0
M  V30 6922 N 636.683 -3.55775 6.05284 0
M  V30 6923 H 641.523 -0.313472 2.96347 0
M  V30 6924 H 639.06 -0.14303 1.46403 0
M  V30 6925 H 641.018 -2.78959 3.10222 0
M  V30 6926 H 639.648 -2.54333 1.98782 0
M  V30 6927 H 638.7 -0.842714 3.70948 0
M  V30 6928 H 640.012 -1.31789 4.81075 0
M  V30 6929 H 639.166 -3.67353 4.82842 0
M  V30 6930 H 637.905 -3.25009 3.63621 0
M  V30 6931 H 636.91 -1.61104 5.25667 0
M  V30 6932 H 638.135 -2.06122 6.47063 0
M  V30 6933 H 636.081 -3.94065 5.24451 0
M  V30 6934 H 635.998 -3.24325 6.82898 0
M  V30 6935 H 637.266 -4.37166 6.45373 0
M  V30 6936 N 641.495 -1.56914 -0.146875 0
M  V30 6937 C 642.425 -2.01308 -1.1831 0
M  V30 6938 C 643.406 -0.892664 -1.44795 0
M  V30 6939 O 644.591 -1.16048 -1.55713 0
M  V30 6940 C 641.721 -2.3938 -2.51624 0
M  V30 6941 C 640.675 -3.54608 -2.3966 0
M  V30 6942 C 640.001 -3.78493 -3.77686 0
M  V30 6943 C 641.301 -4.87269 -1.88058 0
M  V30 6944 H 642.995 -2.88123 -0.813964 0
M  V30 6945 H 640.541 -1.38615 -0.3901 0
M  V30 6946 H 642.494 -2.69037 -3.24341 0
M  V30 6947 H 641.218 -1.49502 -2.90373 0
M  V30 6948 H 639.877 -3.25116 -1.69396 0
M  V30 6949 H 639.525 -2.85866 -4.13871 0
M  V30 6950 H 639.225 -4.56039 -3.70543 0
M  V30 6951 H 640.749 -4.10576 -4.51951 0
M  V30 6952 H 642.163 -5.15644 -2.50568 0
M  V30 6953 H 640.56 -5.68622 -1.91805 0
M  V30 6954 H 641.63 -4.77634 -0.836277 0
M  V30 6955 N 642.974 0.416227 -1.52004 0
M  V30 6956 C 644.223 1.16088 -1.64944 0
M  V30 6957 C 644.536 1.91835 -0.381928 0
M  V30 6958 O 645.742 2.6867 -0.391013 0
M  V30 6959 C 644.198 2.1124 -2.91386 0
M  V30 6960 C 643.806 1.41042 -4.25219 0
M  V30 6961 C 645.55 2.86008 -3.13688 0
M  V30 6962 C 643.457 2.34801 -5.42791 0
M  V30 6963 H 642.387 0.437041 -0.61442 0
M  V30 6964 H 645.038 0.425971 -1.78487 0
M  V30 6965 H 643.42 2.88254 -2.71525 0
M  V30 6966 H 644.594 0.694416 -4.55538 0
M  V30 6967 H 642.909 0.78344 -4.08964 0
M  V30 6968 H 645.506 3.56286 -3.98703 0
M  V30 6969 H 645.849 3.48556 -2.27628 0
M  V30 6970 H 646.382 2.16095 -3.33988 0
M  V30 6971 H 643.121 1.7691 -6.31176 0
M  V30 6972 H 642.641 3.04395 -5.16821 0
M  V30 6973 H 644.32 2.9548 -5.75587 0
M  V30 6974 N 644.452 1.42507 0.673017 0
M  V30 6975 C 645.7 1.42789 1.43023 0
M  V30 6976 C 646.021 0.0459738 1.94946 0
M  V30 6977 O 645.291 -0.915765 1.73178 0
M  V30 6978 H 643.871 0.525657 0.530748 0
M  V30 6979 H 646.533 1.77944 0.795113 0
M  V30 6980 H 645.629 2.12872 2.28237 0
M  V30 6981 N 645.93 -0.909495 1.28709 0
M  V30 6982 C 646.86 -2.0291 1.15542 0
M  V30 6983 C 647.841 -1.7002 0.0521017 0
M  V30 6984 O 649.026 -1.92835 0.229849 0
M  V30 6985 C 646.156 -3.37458 0.820935 0
M  V30 6986 C 645.11 -3.84524 1.87949 0
M  V30 6987 C 644.436 -5.16086 1.39854 0
M  V30 6988 C 645.736 -4.05918 3.28676 0
M  V30 6989 H 647.43 -2.14183 2.09203 0
M  V30 6990 H 644.976 -1.02913 1.00722 0
M  V30 6991 H 646.929 -4.1528 0.715571 0
M  V30 6992 H 645.653 -3.26249 -0.151374 0
M  V30 6993 H 644.312 -3.08911 1.97408 0
M  V30 6994 H 643.96 -5.01284 0.41518 0
M  V30 6995 H 643.66 -5.48547 2.1064 0
M  V30 6996 H 645.184 -5.96459 1.30649 0
M  V30 6997 H 646.598 -4.74252 3.22115 0
M  V30 6998 H 644.995 -4.49717 3.97334 0
M  V30 6999 H 646.065 -3.10583 3.72379 0
M  V30 7000 N 647.408 -1.11026 -1.11852 0
M  V30 7001 C 648.648 -0.866348 -1.85132 0
M  V30 7002 C 649.012 0.597236 -1.82475 0
M  V30 7003 O 650.213 0.957744 -2.51159 0
M  V30 7004 C 648.484 -1.40721 -3.28531 0
M  V30 7005 S 650.043 -1.29964 -4.19112 0
M  V30 7006 H 646.861 -0.312899 -0.638447 0
M  V30 7007 H 649.463 -1.41691 -1.34699 0
M  V30 7008 H 648.167 -2.46631 -3.28027 0
M  V30 7009 H 647.698 -0.85349 -3.8403 0
M  V30 7010 H 649.713 -0.261333 -4.95511 0
M  V30 7011 N 648.886 1.2938 -0.899927 0
M  V30 7012 C 649.833 2.27713 -0.376243 0
M  V30 7013 C 650.803 1.57016 0.541774 0
M  V30 7014 O 651.988 1.84997 0.466966 0
M  V30 7015 C 649.128 3.42889 0.39 0
M  V30 7016 C 648.241 4.28369 -0.558938 0
M  V30 7017 C 647.376 5.30726 0.224379 0
M  V30 7018 C 646.415 6.07862 -0.719068 0
M  V30 7019 N 645.552 7.02094 0.0298569 0
M  V30 7020 H 650.392 2.71888 -1.21988 0
M  V30 7021 H 647.929 1.33724 -0.612879 0
M  V30 7022 H 649.887 4.08443 0.850314 0
M  V30 7023 H 648.517 2.99743 1.19809 0
M  V30 7024 H 647.569 3.62986 -1.13777 0
M  V30 7025 H 648.881 4.82068 -1.2811 0
M  V30 7026 H 648.035 6.02098 0.745881 0
M  V30 7027 H 646.774 4.77759 0.979674 0
M  V30 7028 H 645.779 5.35353 -1.25207 0
M  V30 7029 H 647.004 6.62917 -1.4737 0
M  V30 7030 H 644.95 6.51496 0.767415 0
M  V30 7031 H 644.867 7.5335 -0.632391 0
M  V30 7032 H 646.135 7.77685 0.531615 0
M  V30 7033 N 650.364 0.662433 1.43002 0
M  V30 7034 C 651.311 -0.0235324 2.30788 0
M  V30 7035 C 652.281 -0.805342 1.4527 0
M  V30 7036 O 653.466 -0.78009 1.74124 0
M  V30 7037 C 650.606 -0.977545 3.30965 0
M  V30 7038 C 649.719 -0.190865 4.31578 0
M  V30 7039 C 648.854 -1.13951 5.18834 0
M  V30 7040 C 647.893 -0.343796 6.11134 0
M  V30 7041 N 647.03 -1.2445 6.90982 0
M  V30 7042 H 651.87 0.730921 2.88897 0
M  V30 7043 H 649.407 0.372197 1.42313 0
M  V30 7044 H 651.365 -1.54437 3.87563 0
M  V30 7045 H 649.995 -1.69877 2.74484 0
M  V30 7046 H 649.047 0.492388 3.772 0
M  V30 7047 H 650.359 0.427464 4.96965 0
M  V30 7048 H 649.513 -1.77666 5.80103 0
M  V30 7049 H 648.252 -1.79174 4.53595 0
M  V30 7050 H 647.257 0.30665 5.48944 0
M  V30 7051 H 648.482 0.304161 6.78419 0
M  V30 7052 H 646.428 -1.88336 6.28383 0
M  V30 7053 H 646.345 -0.680959 7.52927 0
M  V30 7054 H 647.613 -1.86952 7.56749 0
M  V30 7055 N 651.842 -1.52309 0.404946 0
M  V30 7056 C 653.091 -2.00952 -0.173529 0
M  V30 7057 C 653.404 -1.29512 -1.46581 0
M  V30 7058 O 654.61 -1.6895 -2.12528 0
M  V30 7059 C 653.066 -3.58097 -0.359801 0
M  V30 7060 C 652.674 -4.38449 0.920138 0
M  V30 7061 C 654.418 -4.14984 -0.893794 0
M  V30 7062 C 652.325 -5.87227 0.701285 0
M  V30 7063 H 651.255 -0.750871 -0.0686244 0
M  V30 7064 H 653.906 -1.75687 0.529749 0
M  V30 7065 H 652.288 -3.79675 -1.12531 0
M  V30 7066 H 653.462 -4.28633 1.69147 0
M  V30 7067 H 651.777 -3.92859 1.38024 0
M  V30 7068 H 654.374 -5.23813 -1.0735 0
M  V30 7069 H 654.717 -3.72072 -1.8673 0
M  V30 7070 H 655.25 -3.97358 -0.187453 0
M  V30 7071 H 651.989 -6.34491 1.64624 0
M  V30 7072 H 651.509 -5.99792 -0.0308288 0
M  V30 7073 H 653.188 -6.46096 0.341846 0
M  V30 7074 N 653.32 -0.135238 -1.57019 0
M  V30 7075 C 654.569 0.518694 -1.94917 0
M  V30 7076 C 654.882 1.66783 -1.0219 0
M  V30 7077 O 656.088 2.38561 -1.29619 0
M  V30 7078 C 654.544 0.974123 -3.46466 0
M  V30 7079 C 654.152 -0.147439 -4.47757 0
M  V30 7080 C 655.896 1.59851 -3.93253 0
M  V30 7081 C 653.803 0.325599 -5.90503 0
M  V30 7082 H 652.733 0.19754 -0.727663 0
M  V30 7083 H 655.384 -0.217698 -1.82204 0
M  V30 7084 H 653.766 1.76542 -3.5447 0
M  V30 7085 H 654.94 -0.924122 -4.51438 0
M  V30 7086 H 653.255 -0.679496 -4.10818 0
M  V30 7087 H 655.852 1.96385 -4.9733 0
M  V30 7088 H 656.195 2.48306 -3.3414 0
M  V30 7089 H 656.728 0.872323 -3.88118 0
M  V30 7090 H 653.467 -0.523295 -6.53408 0
M  V30 7091 H 652.987 1.06841 -5.90208 0
M  V30 7092 H 654.666 0.781498 -6.42263 0
M  V30 7093 N 654.798 1.5699 0.138552 0
M  V30 7094 C 656.209 1.73171 0.697754 0
M  V30 7095 C 656.56 0.750952 1.8126 0
M  V30 7096 O 655.685 -0.080549 2.1625 0
M  V30 7097 C 656.28 3.13996 1.27248 0
M  V30 7098 C 654.839 3.3175 1.77816 0
M  V30 7099 C 653.986 2.69084 0.669991 0
M  V30 7100 H 656.937 1.5846 -0.0871979 0
M  V30 7101 H 656.958 3.14463 2.14227 0
M  V30 7102 H 656.47 3.85354 0.460855 0
M  V30 7103 H 654.571 2.65403 2.61519 0
M  V30 7104 H 654.684 4.39768 1.90107 0
M  V30 7105 H 653.048 2.29782 1.09874 0
M  V30 7106 H 653.831 3.43053 -0.130329 0
M  V30 7107 N 656.276 -0.40816 1.52223 0
M  V30 7108 C 657.687 -0.986929 1.58482 0
M  V30 7109 C 658.038 -1.91521 0.425917 0
M  V30 7110 O 657.163 -2.11593 -0.453593 0
M  V30 7111 C 657.758 -1.7967 2.87235 0
M  V30 7112 C 656.317 -2.32549 2.9597 0
M  V30 7113 C 655.464 -1.12558 2.53428 0
M  V30 7114 H 658.415 -0.188362 1.57578 0
M  V30 7115 H 658.436 -2.65417 2.72642 0
M  V30 7116 H 657.948 -1.12082 3.71563 0
M  V30 7117 H 656.049 -3.03505 2.16137 0
M  V30 7118 H 656.162 -2.63348 4.00231 0
M  V30 7119 H 654.526 -1.47984 2.07299 0
M  V30 7120 H 655.309 -0.465351 3.40131 0
M  V30 7121 N 657.755 -1.42862 -0.66545 0
M  V30 7122 C 658.983 -1.47246 -1.45349 0
M  V30 7123 C 659.398 -0.0865944 -1.88601 0
M  V30 7124 O 658.755 0.900652 -1.58728 0
M  V30 7125 C 658.806 -2.40772 -2.6965 0
M  V30 7126 O 658.527 -3.73968 -2.2821 0
M  V30 7127 C 660.028 -2.54272 -3.63126 0
M  V30 7128 H 657.248 -0.500497 -0.446927 0
M  V30 7129 H 659.792 -1.87477 -0.816871 0
M  V30 7130 H 657.947 -2.0377 -3.29479 0
M  V30 7131 H 658.361 -4.24146 -3.08546 0
M  V30 7132 H 659.835 -3.23815 -4.47043 0
M  V30 7133 H 660.312 -1.58364 -4.09656 0
M  V30 7134 H 660.918 -2.92036 -3.09185 0
M  V30 7135 N 659.233 0.902656 -1.29189 0
M  V30 7136 C 660.181 2.0278 -1.13943 0
M  V30 7137 C 661.175 1.69308 -0.055787 0
M  V30 7138 O 662.381 1.78707 -0.215371 0
M  V30 7139 H 658.756 0.664595 -0.351877 0
M  V30 7140 H 660.727 2.12778 -2.09208 0
M  V30 7141 C 659.476 3.37657 -0.82966 0
M  V30 7142 H 658.799 3.63913 -1.65551 0
M  V30 7143 H 660.239 4.17078 -0.762998 0
M  V30 7144 C 658.698 3.33648 0.466991 0
M  V30 7145 O 659.228 3.72886 1.49395 0
M  V30 7146 N 657.434 2.86745 0.471761 0
M  V30 7147 H 656.981 2.55009 -0.364406 0
M  V30 7148 H 656.939 2.84446 1.33933 0
M  V30 7149 N 660.711 1.11618 1.11262 0
M  V30 7150 C 661.96 0.860934 1.82403 0
M  V30 7151 C 662.273 -0.615303 1.8567 0
M  V30 7152 O 663.479 -0.986861 2.52929 0
M  V30 7153 C 661.935 1.49048 3.27586 0
M  V30 7154 C 661.543 3.00089 3.32642 0
M  V30 7155 C 663.287 1.31515 4.03614 0
M  V30 7156 C 661.194 3.56019 4.72234 0
M  V30 7157 H 660.124 0.318423 0.683464 0
M  V30 7158 H 662.775 1.34165 1.25188 0
M  V30 7159 H 661.157 0.937434 3.84744 0
M  V30 7160 H 662.331 3.61813 2.85356 0
M  V30 7161 H 660.646 3.16919 2.70096 0
M  V30 7162 H 663.243 1.70732 5.0671 0
M  V30 7163 H 663.586 0.257917 4.155 0
M  V30 7164 H 664.119 1.83694 3.52848 0
M  V30 7165 H 660.858 4.61463 4.65545 0
M  V30 7166 H 660.378 2.99066 5.19923 0
M  V30 7167 H 662.057 3.54568 5.41193 0
M  V30 7168 N 662.189 -1.289 0.906776 0
M  V30 7169 C 663.605 -1.47733 0.603902 0
M  V30 7170 C 663.805 -1.82568 -0.852702 0
M  V30 7171 O 662.861 -1.92642 -1.63234 0
M  V30 7172 C 664.174 -2.58522 1.53581 0
M  V30 7173 C 665.722 -2.72394 1.54177 0
M  V30 7174 C 666.197 -3.86318 2.46013 0
M  V30 7175 N 667.688 -3.93661 2.441 0
M  V30 7176 C 668.423 -4.81177 3.11859 0
M  V30 7177 N 667.919 -5.73333 3.88923 0
M  V30 7178 N 669.712 -4.74728 3.00981 0
M  V30 7179 H 661.863 -1.04567 1.84877 0
M  V30 7180 H 664.126 -0.520118 0.792579 0
M  V30 7181 H 663.832 -2.39667 2.57396 0
M  V30 7182 H 663.706 -3.55475 1.26165 0
M  V30 7183 H 666.093 -2.90641 0.511034 0
M  V30 7184 H 666.174 -1.75993 1.85634 0
M  V30 7185 H 665.818 -3.68826 3.49185 0
M  V30 7186 H 665.748 -4.82102 2.11862 0
M  V30 7187 H 668.239 -3.27751 1.88115 0
M  V30 7188 H 668.552 -6.36923 4.37663 0
M  V30 7189 H 666.897 -5.73196 3.93029 0
M  V30 7190 H 670.088 -4.01722 2.40286 0
M  V30 7191 H 670.261 -5.42719 3.54062 0
M  V30 7192 N 663.667 -0.670007 -1.42649 0
M  V30 7193 C 664.577 0.0114788 -2.34597 0
M  V30 7194 C 665.593 0.794055 -1.54825 0
M  V30 7195 O 666.769 0.737472 -1.87412 0
M  V30 7196 C 663.834 0.954436 -3.33304 0
M  V30 7197 C 662.895 0.166925 -4.28975 0
M  V30 7198 C 662.128 1.06497 -5.22967 0
M  V30 7199 O 662.351 2.30446 -5.21777 0
M  V30 7200 O 661.285 0.528347 -5.99577 0
M  V30 7201 H 665.111 -0.745794 -2.944 0
M  V30 7202 H 662.696 -0.430228 -1.43071 0
M  V30 7203 H 664.578 1.49589 -3.93956 0
M  V30 7204 H 663.253 1.69164 -2.7598 0
M  V30 7205 H 662.16 -0.418515 -3.71752 0
M  V30 7206 H 663.493 -0.531067 -4.89327 0
M  V30 7207 N 665.145 1.52092 -0.413018 0
M  V30 7208 C 666.093 2.28681 0.425199 0
M  V30 7209 C 667.087 1.3353 1.04241 0
M  V30 7210 O 668.293 1.50973 0.980166 0
M  V30 7211 H 664.668 0.735661 0.155906 0
M  V30 7212 H 666.639 2.97418 -0.241926 0
M  V30 7213 C 665.388 3.1235 1.5275 0
M  V30 7214 H 664.711 3.85439 1.06191 0
M  V30 7215 H 666.151 3.69038 2.08774 0
M  V30 7216 C 664.61 2.26161 2.49706 0
M  V30 7217 O 665.14 1.90452 3.53682 0
M  V30 7218 N 663.346 1.89854 2.20008 0
M  V30 7219 H 662.893 2.19092 1.35486 0
M  V30 7220 H 662.851 1.3248 2.85125 0
M  V30 7221 N 666.623 0.143563 1.56945 0
M  V30 7222 C 667.553 -0.7936 2.196 0
M  V30 7223 C 668.534 -1.25955 1.14321 0
M  V30 7224 O 669.719 -1.31773 1.42651 0
M  V30 7225 C 666.849 -2.03424 2.81489 0
M  V30 7226 C 665.803 -1.70519 3.92565 0
M  V30 7227 C 665.129 -3.01817 4.41373 0
M  V30 7228 C 666.429 -0.95449 5.13504 0
M  V30 7229 H 668.123 -0.271423 2.98167 0
M  V30 7230 H 665.669 -0.12911 1.4342 0
M  V30 7231 H 667.622 -2.69463 3.23987 0
M  V30 7232 H 666.346 -2.58008 2.00248 0
M  V30 7233 H 665.005 -1.06859 3.5068 0
M  V30 7234 H 664.653 -3.54386 3.56959 0
M  V30 7235 H 664.353 -2.80565 5.16292 0
M  V30 7236 H 665.877 -3.68934 4.86539 0
M  V30 7237 H 667.291 -1.5169 5.52868 0
M  V30 7238 H 665.688 -0.842035 5.94163 0
M  V30 7239 H 666.758 0.0544033 4.84869 0
M  V30 7240 N 668.101 -1.57061 -0.130224 0
M  V30 7241 C 669.331 -1.88159 -0.853217 0
M  V30 7242 C 669.739 -0.731675 -1.7448 0
M  V30 7243 O 669.082 0.307035 -1.81116 0
M  V30 7244 C 669.144 -3.1415 -1.74785 0
M  V30 7245 C 668.808 -4.45202 -1.03173 0
M  V30 7246 C 669.805 -5.18526 -0.377759 0
M  V30 7247 C 667.49 -4.91912 -1.01624 0
M  V30 7248 C 669.484 -6.36775 0.282123 0
M  V30 7249 C 667.171 -6.10082 -0.352555 0
M  V30 7250 C 668.169 -6.82361 0.295483 0
M  V30 7251 O 667.857 -7.98284 0.948606 0
M  V30 7252 H 667.589 -0.627596 -0.251197 0
M  V30 7253 H 670.143 -2.05034 -0.1226 0
M  V30 7254 H 668.373 -2.93328 -2.51983 0
M  V30 7255 H 670.062 -3.31359 -2.34427 0
M  V30 7256 H 670.828 -4.83498 -0.381417 0
M  V30 7257 H 666.707 -4.35566 -1.51007 0
M  V30 7258 H 670.251 -6.93129 0.788525 0
M  V30 7259 H 666.148 -6.44569 -0.346621 0
M  V30 7260 H 666.916 -8.14054 0.851954 0
M  V30 7261 N 669.579 0.400081 -1.52437 0
M  V30 7262 C 670.527 1.50851 -1.7705 0
M  V30 7263 C 671.521 1.56928 -0.637969 0
M  V30 7264 O 672.727 1.60226 -0.820212 0
M  V30 7265 H 669.102 0.50186 -0.560036 0
M  V30 7266 H 671.073 1.27281 -2.69893 0
M  V30 7267 C 669.822 2.88117 -1.94638 0
M  V30 7268 H 669.145 2.84187 -2.81208 0
M  V30 7269 H 670.585 3.64942 -2.15855 0
M  V30 7270 C 669.044 3.29206 -0.715899 0
M  V30 7271 O 669.574 4.01544 0.111944 0
M  V30 7272 N 667.78 2.85363 -0.549191 0
M  V30 7273 H 667.327 2.26664 -1.22397 0
M  V30 7274 H 667.285 3.13214 0.27278 0
M  V30 7275 N 671.057 1.43213 0.657864 0
M  V30 7276 C 672.473 1.26511 0.972992 0
M  V30 7277 C 672.673 0.181477 2.00681 0
M  V30 7278 O 671.729 -0.441649 2.48608 0
M  V30 7279 C 673.042 2.62784 1.46168 0
M  V30 7280 C 674.59 2.70278 1.57857 0
M  V30 7281 C 675.065 4.06958 2.10117 0
M  V30 7282 N 676.556 4.08999 2.17426 0
M  V30 7283 C 677.291 5.11585 2.58975 0
M  V30 7284 N 676.787 6.24548 2.99853 0
M  V30 7285 N 678.58 4.9894 2.58873 0
M  V30 7286 H 670.731 2.12384 -0.0263129 0
M  V30 7287 H 672.994 0.946638 0.0507992 0
M  V30 7288 H 672.7 3.43022 0.776474 0
M  V30 7289 H 672.574 2.87863 2.43751 0
M  V30 7290 H 674.961 1.90376 2.25479 0
M  V30 7291 H 675.042 2.4897 0.587179 0
M  V30 7292 H 674.686 4.87325 1.43098 0
M  V30 7293 H 674.616 4.25628 3.10078 0
M  V30 7294 H 677.107 3.27457 1.88627 0
M  V30 7295 H 677.42 6.98661 3.30292 0
M  V30 7296 H 675.765 6.28027 2.97669 0
M  V30 7297 H 678.956 4.09757 2.26311 0
M  V30 7298 H 679.129 5.79019 2.90932 0
M  V30 7299 N 672.536 -0.895792 1.29666 0
M  V30 7300 C 673.764 -1.68001 1.20761 0
M  V30 7301 C 674.179 -1.87379 -0.231187 0
M  V30 7302 O 673.536 -1.41359 -1.15429 0
M  V30 7303 C 673.587 -3.06236 1.92098 0
M  V30 7304 O 673.308 -2.8774 3.30359 0
M  V30 7305 C 674.809 -4.00652 1.89717 0
M  V30 7306 H 672.029 -0.524591 0.418384 0
M  V30 7307 H 674.573 -1.11995 1.71106 0
M  V30 7308 H 672.728 -3.59007 1.45578 0
M  V30 7309 H 673.142 -3.75359 3.66342 0
M  V30 7310 H 674.616 -4.95051 2.44189 0
M  V30 7311 H 675.093 -4.30424 0.873595 0
M  V30 7312 H 675.699 -3.53815 2.35998 0
M  V30 7313 N 674.014 -1.12206 -1.10668 0
M  V30 7314 C 674.977 -0.790867 -2.15123 0
M  V30 7315 C 675.977 0.193618 -1.5963 0
M  V30 7316 O 677.167 -0.0318728 -1.74171 0
M  V30 7317 C 674.299 -0.174797 -3.40452 0
M  V30 7318 H 675.492 -1.7163 -2.45933 0
M  V30 7319 H 673.045 -0.924993 -1.2599 0
M  V30 7320 H 673.78 0.760478 -3.15257 0
M  V30 7321 H 673.565 -0.88358 -3.82015 0
M  V30 7322 H 675.055 0.0405162 -4.1758 0
M  V30 7323 N 675.492 1.28418 -0.913599 0
M  V30 7324 C 676.717 1.99643 -0.561899 0
M  V30 7325 C 677.142 1.67819 0.849608 0
M  V30 7326 O 676.5 0.910503 1.56779 0
M  V30 7327 C 676.548 3.52116 -0.777622 0
M  V30 7328 O 675.652 4.12076 0.163457 0
M  V30 7329 H 674.993 0.627229 -0.217898 0
M  V30 7330 H 677.523 1.63575 -1.229 0
M  V30 7331 H 677.533 4.02163 -0.687666 0
M  V30 7332 H 676.208 3.74613 -1.8066 0
M  V30 7333 H 674.785 3.72892 0.0247827 0
M  V30 7334 N 676.97 0.677563 1.42291 0
M  V30 7335 C 677.9 0.014968 2.33495 0
M  V30 7336 C 678.881 -0.786376 1.50831 0
M  V30 7337 O 680.066 -0.742975 1.79426 0
M  V30 7338 C 677.196 -0.935023 3.34477 0
M  V30 7339 C 676.15 -0.242074 4.27315 0
M  V30 7340 C 675.476 -1.30519 5.18526 0
M  V30 7341 C 676.776 0.880604 5.14823 0
M  V30 7342 H 678.47 0.776671 2.89151 0
M  V30 7343 H 676.016 0.37494 1.39033 0
M  V30 7344 H 677.969 -1.40766 3.97194 0
M  V30 7345 H 676.693 -1.72818 2.77131 0
M  V30 7346 H 675.352 0.210351 3.65996 0
M  V30 7347 H 675 -2.09041 4.57505 0
M  V30 7348 H 674.7 -0.846652 5.81468 0
M  V30 7349 H 676.224 -1.7787 5.84119 0
M  V30 7350 H 677.638 0.489062 5.7121 0
M  V30 7351 H 676.035 1.26511 5.86613 0
M  V30 7352 H 677.105 1.72818 4.53059 0
M  V30 7353 N 678.448 -1.51871 0.421078 0
M  V30 7354 C 679.676 -2.06356 -0.14994 0
M  V30 7355 C 680.091 -1.29006 -1.37851 0
M  V30 7356 O 679.448 -0.345139 -1.79207 0
M  V30 7357 C 679.499 -3.58185 -0.488454 0
M  V30 7358 O 679.22 -4.32611 0.691341 0
M  V30 7359 C 680.721 -4.29129 -1.11191 0
M  V30 7360 H 677.941 -0.67083 -0.0151186 0
M  V30 7361 H 680.485 -1.95638 0.595476 0
M  V30 7362 H 678.64 -3.68871 -1.18376 0
M  V30 7363 H 679.054 -5.22927 0.405906 0
M  V30 7364 H 680.528 -5.36501 -1.29889 0
M  V30 7365 H 681.005 -3.86371 -2.0884 0
M  V30 7366 H 681.611 -4.22843 -0.456458 0
M  V30 7367 N 679.926 -0.151884 -1.56866 0
M  V30 7368 C 681.203 0.543328 -1.87902 0
M  V30 7369 C 681.583 1.82636 -1.05864 0
M  V30 7370 O 680.931 2.28028 -0.146868 0
M  V30 7371 C 681.141 0.804056 -3.39611 0
M  V30 7372 C 682.489 1.14267 -4.08935 0
M  V30 7373 O 683.513 0.893248 -3.44818 0
M  V30 7374 O 682.372 1.61229 -5.22176 0
M  V30 7375 H 679.466 0.277724 -0.778973 0
M  V30 7376 H 682.012 -0.188862 -1.68646 0
M  V30 7377 H 680.784 -0.103772 -3.91162 0
M  V30 7378 H 680.407 1.59025 -3.64413 0
M  V30 7379 N 681.404 1.57128 0.121893 0
M  V30 7380 C 682.334 2.03165 1.15092 0
M  V30 7381 C 683.315 0.915587 1.43356 0
M  V30 7382 O 684.5 1.1851 1.53847 0
M  V30 7383 C 681.63 2.43352 2.47784 0
M  V30 7384 C 680.584 3.58376 2.33989 0
M  V30 7385 C 679.91 3.84454 3.71617 0
M  V30 7386 C 681.21 4.90199 1.80283 0
M  V30 7387 H 682.904 2.89382 0.768023 0
M  V30 7388 H 680.45 1.39218 0.367998 0
M  V30 7389 H 682.403 2.74163 3.20019 0
M  V30 7390 H 681.127 1.54103 2.87958 0
M  V30 7391 H 679.786 3.2777 1.64202 0
M  V30 7392 H 679.434 2.92414 4.09271 0
M  V30 7393 H 679.134 4.61877 3.6324 0
M  V30 7394 H 680.658 4.17714 4.45362 0
M  V30 7395 H 682.072 5.19565 2.42333 0
M  V30 7396 H 680.469 5.71601 1.82735 0
M  V30 7397 H 681.539 4.78904 0.760184 0
M  V30 7398 N 682.882 -0.391992 1.52647 0
M  V30 7399 C 684.13 -1.13507 1.67214 0
M  V30 7400 C 684.451 -1.90575 0.41304 0
M  V30 7401 O 683.721 -1.87348 -0.572498 0
M  V30 7402 H 682.301 -0.422013 0.616372 0
M  V30 7403 H 684.963 -0.44502 1.89751 0
M  V30 7404 H 684.059 -1.83964 2.52118 0
M  V30 7405 N 684.36 -1.4356 -0.65026 0
M  V30 7406 C 685.608 -1.45046 -1.40734 0
M  V30 7407 C 685.929 -0.0769822 -1.94848 0
M  V30 7408 O 685.199 0.888098 -1.74613 0
M  V30 7409 H 683.779 -0.534034 -0.522318 0
M  V30 7410 H 686.441 -1.79186 -0.766703 0
M  V30 7411 H 685.537 -2.16476 -2.24822 0
M  V30 7412 N 685.838 0.888903 -1.30139 0
M  V30 7413 C 686.748 2.02705 -1.18101 0
M  V30 7414 C 687.764 1.73702 -0.101809 0
M  V30 7415 O 688.94 1.98906 -0.315984 0
M  V30 7416 C 686.005 3.35616 -0.869651 0
M  V30 7417 C 685.066 3.78067 -2.03381 0
M  V30 7418 C 684.299 5.04635 -1.73721 0
M  V30 7419 O 684.522 5.66531 -0.663267 0
M  V30 7420 O 683.456 5.43399 -2.58845 0
M  V30 7421 H 687.282 2.15788 -2.13704 0
M  V30 7422 H 684.867 1.01426 -1.09695 0
M  V30 7423 H 686.749 4.15358 -0.711043 0
M  V30 7424 H 685.424 3.23651 0.0565002 0
M  V30 7425 H 684.331 2.99046 -2.24772 0
M  V30 7426 H 685.664 3.94631 -2.94155 0
M  V30 7427 N 687.317 1.12792 1.10072 0
M  V30 7428 C 688.247 0.821688 2.18565 0
M  V30 7429 C 689.228 -0.21612 1.68721 0
M  V30 7430 O 690.413 -0.0764932 1.94049 0
M  V30 7431 C 687.543 0.279624 3.46172 0
M  V30 7432 C 686.497 1.25092 4.09312 0
M  V30 7433 C 685.823 0.568916 5.31665 0
M  V30 7434 C 687.123 2.60699 4.52585 0
M  V30 7435 H 688.817 1.72888 2.44438 0
M  V30 7436 H 686.363 0.832702 1.17482 0
M  V30 7437 H 688.316 0.053099 4.21367 0
M  V30 7438 H 687.04 -0.662929 3.19801 0
M  V30 7439 H 685.699 1.46332 3.36129 0
M  V30 7440 H 685.347 -0.378898 5.01571 0
M  V30 7441 H 685.047 1.21687 5.74862 0
M  V30 7442 H 686.571 0.351517 6.09587 0
M  V30 7443 H 687.985 2.43465 5.19035 0
M  V30 7444 H 686.382 3.21608 5.06644 0
M  V30 7445 H 687.452 3.1886 3.65317 0
M  V30 7446 N 688.795 -1.27931 0.920396 0
M  V30 7447 C 690.035 -1.96459 0.564198 0
M  V30 7448 C 690.399 -1.70802 -0.876967 0
M  V30 7449 O 691.6 -2.32956 -1.34107 0
M  V30 7450 C 689.871 -3.46583 0.872641 0
M  V30 7451 S 691.43 -4.34343 0.623859 0
M  V30 7452 H 688.248 -0.679735 0.208523 0
M  V30 7453 H 690.85 -1.55319 1.18727 0
M  V30 7454 H 689.554 -3.62753 1.91933 0
M  V30 7455 H 689.085 -3.92677 0.238479 0
M  V30 7456 H 691.1 -4.93449 -0.521744 0
M  V30 7457 N 690.273 -0.685099 -1.4193 0
M  V30 7458 C 691.522 -0.208816 -2.00616 0
M  V30 7459 C 691.835 1.19506 -1.54847 0
M  V30 7460 O 693.041 1.76826 -2.06021 0
M  V30 7461 C 691.497 -0.322446 -3.58453 0
M  V30 7462 C 691.105 -1.73102 -4.13206 0
M  V30 7463 C 692.849 0.0945979 -4.24395 0
M  V30 7464 C 690.756 -1.79687 -5.63442 0
M  V30 7465 H 689.686 -0.0743092 -0.750329 0
M  V30 7466 H 692.337 -0.851778 -1.62533 0
M  V30 7467 H 690.719 0.388588 -3.94089 0
M  V30 7468 H 691.893 -2.46997 -3.8901 0
M  V30 7469 H 690.208 -2.09682 -3.59753 0
M  V30 7470 H 692.805 0.0656937 -5.3466 0
M  V30 7471 H 693.148 1.1316 -4.00625 0
M  V30 7472 H 693.681 -0.56579 -3.93756 0
M  V30 7473 H 690.42 -2.81404 -5.92024 0
M  V30 7474 H 689.94 -1.10162 -5.89597 0
M  V30 7475 H 691.619 -1.55498 -6.28036 0
M  V30 7476 N 691.751 1.51645 -0.429126 0
M  V30 7477 C 692.698 2.27542 0.386446 0
M  V30 7478 C 693.668 1.30786 1.02393 0
M  V30 7479 O 694.853 1.59678 1.0444 0
M  V30 7480 C 691.993 3.11457 1.48623 0
M  V30 7481 C 691.106 4.23196 0.867691 0
M  V30 7482 C 690.241 4.94435 1.94183 0
M  V30 7483 C 689.28 5.98108 1.30129 0
M  V30 7484 N 688.417 6.62786 2.31644 0
M  V30 7485 H 693.257 2.968 -0.267155 0
M  V30 7486 H 690.794 1.46397 -0.143591 0
M  V30 7487 H 692.752 3.58429 2.13506 0
M  V30 7488 H 691.382 2.44329 2.10957 0
M  V30 7489 H 690.434 3.80248 0.107373 0
M  V30 7490 H 691.746 4.97499 0.35997 0
M  V30 7491 H 690.9 5.44914 2.66747 0
M  V30 7492 H 689.639 4.19744 2.48326 0
M  V30 7493 H 688.644 5.4693 0.561082 0
M  V30 7494 H 689.869 6.74751 0.767303 0
M  V30 7495 H 687.815 5.90913 2.84883 0
M  V30 7496 H 687.732 7.32828 1.85741 0
M  V30 7497 H 689 7.17897 3.03717 0
M  V30 7498 N 693.229 0.160201 1.56784 0
M  V30 7499 C 694.478 -0.487619 1.95717 0
M  V30 7500 C 694.791 -1.65136 1.0483 0
M  V30 7501 O 695.997 -2.36468 1.33398 0
M  V30 7502 C 694.453 -0.91888 3.47972 0
M  V30 7503 C 694.061 0.218655 4.47466 0
M  V30 7504 C 695.805 -1.53575 3.95746 0
M  V30 7505 C 693.712 -0.231614 5.90946 0
M  V30 7506 H 692.642 -0.185939 0.730714 0
M  V30 7507 H 695.293 0.246657 1.81835 0
M  V30 7508 H 693.675 -1.70881 3.57234 0
M  V30 7509 H 694.849 0.995825 4.49911 0
M  V30 7510 H 693.164 0.744767 4.09685 0
M  V30 7511 H 695.761 -1.88448 5.00391 0
M  V30 7512 H 696.104 -2.42959 3.38048 0
M  V30 7513 H 696.637 -0.810467 3.89456 0
M  V30 7514 H 693.376 0.62718 6.52493 0
M  V30 7515 H 692.896 -0.974379 5.91833 0
M  V30 7516 H 694.575 -0.67922 6.43425 0
M  V30 7517 N 694.707 -1.5719 -0.113559 0
M  V30 7518 C 695.654 -2.00736 -1.13901 0
M  V30 7519 C 696.624 -0.88044 -1.40846 0
M  V30 7520 O 697.809 -1.14507 -1.5262 0
M  V30 7521 C 694.949 -2.42132 -2.45899 0
M  V30 7522 C 694.062 -3.68264 -2.25844 0
M  V30 7523 C 693.197 -3.98617 -3.5111 0
M  V30 7524 C 692.236 -5.17915 -3.26236 0
M  V30 7525 N 691.373 -5.44111 -4.4372 0
M  V30 7526 H 696.213 -2.88128 -0.760677 0
M  V30 7527 H 693.75 -1.42523 -0.364099 0
M  V30 7528 H 695.708 -2.6417 -3.22908 0
M  V30 7529 H 694.338 -1.57775 -2.81615 0
M  V30 7530 H 693.39 -3.53809 -1.39726 0
M  V30 7531 H 694.702 -4.55425 -2.03444 0
M  V30 7532 H 693.856 -4.21333 -4.36536 0
M  V30 7533 H 692.595 -3.09942 -3.76546 0
M  V30 7534 H 691.6 -4.95038 -2.39202 0
M  V30 7535 H 692.825 -6.08172 -3.02165 0
M  V30 7536 H 690.771 -4.58394 -4.69266 0
M  V30 7537 H 690.688 -6.25606 -4.24444 0
M  V30 7538 H 691.956 -5.71351 -5.30263 0
M  V30 7539 N 696.185 0.383891 -1.52853 0
M  V30 7540 C 697.133 1.48965 -1.7864 0
M  V30 7541 C 698.127 1.56242 -0.654577 0
M  V30 7542 O 699.333 1.59347 -0.83716 0
M  V30 7543 H 695.708 0.495892 -0.565328 0
M  V30 7544 H 697.679 1.24411 -2.71228 0
M  V30 7545 C 696.428 2.86036 -1.97683 0
M  V30 7546 H 695.751 2.81188 -2.84206 0
M  V30 7547 H 697.191 3.62632 -2.19713 0
M  V30 7548 C 695.65 3.28428 -0.750776 0
M  V30 7549 O 696.18 4.0164 0.0693491 0
M  V30 7550 N 694.386 2.84765 -0.579427 0
M  V30 7551 H 693.933 2.25353 -1.24795 0
M  V30 7552 H 693.891 3.13486 0.239544 0
M  V30 7553 N 697.663 1.43903 0.642637 0
M  V30 7554 C 698.573 1.52349 1.78401 0
M  V30 7555 C 699.589 0.409869 1.69104 0
M  V30 7556 O 700.765 0.665548 1.90085 0
M  V30 7557 C 697.83 1.45408 3.14734 0
M  V30 7558 C 696.891 2.67528 3.35749 0
M  V30 7559 C 696.124 2.60909 4.65577 0
M  V30 7560 O 696.347 1.6627 5.45628 0
M  V30 7561 O 695.281 3.5158 4.88544 0
M  V30 7562 H 699.107 2.48752 1.7423 0
M  V30 7563 H 696.692 1.26021 0.802439 0
M  V30 7564 H 698.574 1.44019 3.96026 0
M  V30 7565 H 697.249 0.521437 3.19473 0
M  V30 7566 H 696.156 2.74487 2.5418 0
M  V30 7567 H 697.489 3.598 3.35864 0
M  V30 7568 N 699.141 -0.881989 1.30609 0
M  V30 7569 C 700.418 -1.61563 1.10258 0
M  V30 7570 C 700.798 -2.08228 -0.347053 0
M  V30 7571 O 700.146 -1.85151 -1.33908 0
M  V30 7572 C 700.356 -2.78287 2.10612 0
M  V30 7573 C 701.704 -3.48545 2.4249 0
M  V30 7574 O 702.728 -2.88479 2.08945 0
M  V30 7575 O 701.587 -4.56873 2.99883 0
M  V30 7576 H 698.681 -0.710238 0.423663 0
M  V30 7577 H 701.227 -0.928503 1.42045 0
M  V30 7578 H 699.999 -2.41131 3.08174 0
M  V30 7579 H 699.622 -3.54695 1.79659 0
M  V30 7580 N 700.619 -1.13374 -1.09472 0
M  V30 7581 C 701.549 -0.833268 -2.18126 0
M  V30 7582 C 702.53 0.207169 -1.68834 0
M  V30 7583 O 703.715 0.0662012 -1.94087 0
M  V30 7584 C 700.845 -0.297979 -3.46019 0
M  V30 7585 C 699.799 -1.27261 -4.08642 0
M  V30 7586 C 699.125 -0.597104 -5.31356 0
M  V30 7587 C 700.425 -2.63095 -4.51197 0
M  V30 7588 H 702.119 -1.74182 -2.43518 0
M  V30 7589 H 699.665 -0.838921 -1.17039 0
M  V30 7590 H 701.618 -0.0754444 -4.21332 0
M  V30 7591 H 700.342 0.645959 -3.20148 0
M  V30 7592 H 699.001 -1.48113 -3.35348 0
M  V30 7593 H 698.649 0.352293 -5.01765 0
M  V30 7594 H 698.349 -1.24734 -5.74208 0
M  V30 7595 H 699.873 -0.38384 -6.09392 0
M  V30 7596 H 701.287 -2.46214 -5.17737 0
M  V30 7597 H 699.684 -3.2429 -5.04932 0
M  V30 7598 H 700.754 -3.20793 -3.6362 0
M  V30 7599 N 702.098 1.27442 -0.927168 0
M  V30 7600 C 703.326 1.98498 -0.583622 0
M  V30 7601 C 703.741 1.69171 0.838241 0
M  V30 7602 O 703.098 0.951969 1.55704 0
M  V30 7603 C 703.149 3.52552 -0.799341 0
M  V30 7604 O 702.87 3.80851 -2.16527 0
M  V30 7605 C 704.371 4.4086 -0.464436 0
M  V30 7606 H 701.591 0.633487 -0.221213 0
M  V30 7607 H 704.135 1.62308 -1.24404 0
M  V30 7608 H 702.29 3.86955 -0.185728 0
M  V30 7609 H 702.704 4.75441 -2.21487 0
M  V30 7610 H 704.178 5.47967 -0.666075 0
M  V30 7611 H 704.655 4.35082 0.599995 0
M  V30 7612 H 705.261 4.11977 -1.05617 0
M  V30 7613 N 703.576 0.692616 1.41565 0
M  V30 7614 C 704.823 0.222335 2.01276 0
M  V30 7615 C 705.151 -1.17706 1.5484 0
M  V30 7616 O 704.406 -1.80795 0.749118 0
M  V30 7617 C 704.705 0.225073 3.56691 0
M  V30 7618 C 704.371 1.57158 4.22625 0
M  V30 7619 C 703.033 1.94022 4.40351 0
M  V30 7620 C 705.385 2.45758 4.59622 0
M  V30 7621 C 702.713 3.19076 4.92349 0
M  V30 7622 C 705.065 3.70141 5.13009 0
M  V30 7623 C 703.729 4.07152 5.28946 0
M  V30 7624 H 702.999 0.0813581 0.73652 0
M  V30 7625 H 705.646 0.891123 1.69503 0
M  V30 7626 H 703.951 -0.527259 3.88236 0
M  V30 7627 H 705.648 -0.156283 4.00695 0
M  V30 7628 H 702.238 1.27486 4.09201 0
M  V30 7629 H 706.422 2.18558 4.45585 0
M  V30 7630 H 701.678 3.4775 5.02872 0
M  V30 7631 H 705.852 4.38983 5.40617 0
M  V30 7632 H 703.479 5.04125 5.69001 0
M  V30 7633 N 705.054 -1.51416 0.437162 0
M  V30 7634 C 706.303 -2.01275 -0.130865 0
M  V30 7635 C 706.616 -1.32593 -1.438 0
M  V30 7636 O 707.822 -1.7342 -2.08897 0
M  V30 7637 C 706.278 -3.5878 -0.283763 0
M  V30 7638 C 705.886 -4.36399 1.01293 0
M  V30 7639 C 707.63 -4.16786 -0.805569 0
M  V30 7640 C 705.537 -5.85608 0.825687 0
M  V30 7641 H 704.467 -0.752157 -0.0526818 0
M  V30 7642 H 707.118 -1.74524 0.566896 0
M  V30 7643 H 705.5 -3.81976 -1.04452 0
M  V30 7644 H 706.674 -4.24948 1.78201 0
M  V30 7645 H 704.989 -3.89843 1.46326 0
M  V30 7646 H 707.586 -5.25972 -0.962146 0
M  V30 7647 H 707.929 -3.75949 -1.78796 0
M  V30 7648 H 708.462 -3.97666 -0.103125 0
M  V30 7649 H 705.201 -6.30857 1.78045 0
M  V30 7650 H 704.721 -5.99723 0.0964029 0
M  V30 7651 H 706.4 -6.45226 0.478815 0
M  V30 7652 N 706.532 -0.168513 -1.56696 0
M  V30 7653 C 707.495 0.748928 -2.16619 0
M  V30 7654 C 708.495 1.16007 -1.11351 0
M  V30 7655 O 709.685 1.07748 -1.3688 0
M  V30 7656 C 706.817 2.01904 -2.74677 0
M  V30 7657 H 708.01 0.227317 -2.99037 0
M  V30 7658 H 705.563 0.0810372 -1.5609 0
M  V30 7659 H 706.298 2.58381 -1.95985 0
M  V30 7660 H 706.083 1.73323 -3.51712 0
M  V30 7661 H 707.573 2.67383 -3.20774 0
M  V30 7662 N 708.01 1.57248 0.105221 0
M  V30 7663 C 708.92 2.04653 1.14693 0
M  V30 7664 C 709.936 0.969488 1.44489 0
M  V30 7665 O 711.112 1.28196 1.55331 0
M  V30 7666 C 708.177 2.45297 2.45011 0
M  V30 7667 C 707.238 3.67148 2.22489 0
M  V30 7668 C 706.471 4.05844 3.46592 0
M  V30 7669 O 706.694 3.44736 4.54437 0
M  V30 7670 O 705.628 4.98862 3.36779 0
M  V30 7671 H 709.454 2.93663 0.774336 0
M  V30 7672 H 707.039 1.45998 0.31701 0
M  V30 7673 H 708.921 2.72112 3.21766 0
M  V30 7674 H 707.596 1.59429 2.81717 0
M  V30 7675 H 706.503 3.45463 1.43547 0
M  V30 7676 H 707.836 4.53764 1.9068 0
M  V30 7677 N 709.488 -0.375779 1.53054 0
M  V30 7678 C 710.435 -1.45978 1.78771 0
M  V30 7679 C 711.405 -1.53625 0.631552 0
M  V30 7680 O 712.59 -1.69674 0.872667 0
M  V30 7681 C 709.73 -2.8305 1.97425 0
M  V30 7682 C 708.843 -2.84451 3.25134 0
M  V30 7683 C 707.978 -4.13034 3.34031 0
M  V30 7684 C 707.017 -4.08536 4.55812 0
M  V30 7685 N 706.154 -5.2875 4.61918 0
M  V30 7686 H 710.994 -1.23349 2.71273 0
M  V30 7687 H 708.531 -0.598147 1.3439 0
M  V30 7688 H 710.489 -3.62666 2.06225 0
M  V30 7689 H 709.119 -3.04101 1.0827 0
M  V30 7690 H 708.171 -1.97127 3.25338 0
M  V30 7691 H 709.483 -2.76998 4.14818 0
M  V30 7692 H 708.637 -5.0106 3.42087 0
M  V30 7693 H 707.376 -4.23226 2.42345 0
M  V30 7694 H 706.381 -3.18897 4.47867 0
M  V30 7695 H 707.606 -3.99955 5.48828 0
M  V30 7696 H 705.552 -5.39547 3.73129 0
M  V30 7697 H 705.469 -5.23426 5.45492 0
M  V30 7698 H 706.737 -6.18637 4.74245 0
M  V30 7699 N 710.966 -1.44241 -0.634997 0
M  V30 7700 C 711.914 -1.51103 -1.76835 0
M  V30 7701 C 712.908 -0.383051 -1.65012 0
M  V30 7702 O 714.114 -0.557832 -1.71138 0
M  V30 7703 H 710.489 -0.474076 -0.583743 0
M  V30 7704 H 712.46 -2.46499 -1.68169 0
M  V30 7705 C 711.209 -1.4687 -3.15158 0
M  V30 7706 H 710.532 -2.32979 -3.24901 0
M  V30 7707 H 711.972 -1.55731 -3.94365 0
M  V30 7708 C 710.431 -0.188884 -3.3637 0
M  V30 7709 O 710.961 0.742487 -3.94778 0
M  V30 7710 N 709.167 -0.0932516 -2.9045 0
M  V30 7711 H 708.714 -0.852004 -2.43102 0
M  V30 7712 H 708.672 0.762308 -3.05018 0
M  V30 7713 N 712.444 0.87505 -1.31075 0
M  V30 7714 C 713.669 1.66583 -1.23551 0
M  V30 7715 C 714.094 1.87067 0.19686 0
M  V30 7716 O 713.452 1.40877 1.1412 0
M  V30 7717 C 713.5 3.01401 -1.97965 0
M  V30 7718 O 712.604 3.90923 -1.31351 0
M  V30 7719 H 711.945 0.508645 -0.426821 0
M  V30 7720 H 714.475 1.09139 -1.7306 0
M  V30 7721 H 714.485 3.51374 -2.07366 0
M  V30 7722 H 713.16 2.85812 -3.02133 0
M  V30 7723 H 711.737 3.49369 -1.30368 0
M  V30 7724 N 713.922 1.13953 1.08869 0
M  V30 7725 C 715.169 0.90481 1.81161 0
M  V30 7726 C 715.497 -0.568824 1.85996 0
M  V30 7727 O 714.752 -1.43723 1.32823 0
M  V30 7728 C 715.051 1.44495 3.26888 0
M  V30 7729 C 714.717 2.93641 3.42178 0
M  V30 7730 C 713.379 3.34361 3.46059 0
M  V30 7731 C 715.731 3.89568 3.46246 0
M  V30 7732 C 713.059 4.69681 3.51592 0
M  V30 7733 C 715.411 5.2474 3.53314 0
M  V30 7734 C 714.075 5.64979 3.55465 0
M  V30 7735 H 713.345 0.331094 0.662916 0
M  V30 7736 H 715.992 1.42242 1.28217 0
M  V30 7737 H 714.297 0.848169 3.82509 0
M  V30 7738 H 715.994 1.23934 3.81368 0
M  V30 7739 H 712.584 2.61156 3.39846 0
M  V30 7740 H 716.768 3.59192 3.42483 0
M  V30 7741 H 712.024 5.00224 3.51547 0
M  V30 7742 H 716.198 5.98882 3.55406 0
M  V30 7743 H 713.825 6.69821 3.59505 0
M  V30 7744 N 715.4 -1.26948 0.933913 0
M  V30 7745 C 716.625 -1.98724 0.593589 0
M  V30 7746 C 717.05 -1.6915 -0.822801 0
M  V30 7747 O 716.408 -0.93533 -1.5531 0
M  V30 7748 C 716.456 -3.50834 0.833542 0
M  V30 7749 O 715.56 -4.12284 -0.0978788 0
M  V30 7750 H 714.901 -0.623683 0.227849 0
M  V30 7751 H 717.431 -1.61599 1.25486 0
M  V30 7752 H 717.441 -4.01018 0.75156 0
M  V30 7753 H 716.116 -3.71691 1.86597 0
M  V30 7754 H 714.693 -3.72884 0.0345443 0
M  V30 7755 N 716.879 -0.700114 -1.41195 0
M  V30 7756 C 717.789 -0.0382854 -2.34569 0
M  V30 7757 C 718.805 0.761036 -1.56474 0
M  V30 7758 O 719.981 0.697553 -1.88934 0
M  V30 7759 C 717.046 0.883522 -3.35253 0
M  V30 7760 C 716.107 0.0758957 -4.29233 0
M  V30 7761 C 715.34 0.9538 -5.25108 0
M  V30 7762 O 715.563 2.19326 -5.26547 0
M  V30 7763 O 714.497 0.401049 -6.00562 0
M  V30 7764 H 718.323 -0.808073 -2.92752 0
M  V30 7765 H 715.908 -0.460479 -1.42127 0
M  V30 7766 H 717.79 1.41199 -3.9704 0
M  V30 7767 H 716.465 1.63272 -2.79506 0
M  V30 7768 H 715.372 -0.497274 -3.7078 0
M  V30 7769 H 716.705 -0.634741 -4.8809 0
M  V30 7770 N 718.357 1.51182 -0.445186 0
M  V30 7771 C 719.267 2.31692 0.368255 0
M  V30 7772 C 720.283 1.40942 1.02036 0
M  V30 7773 O 721.459 1.74011 1.01401 0
M  V30 7774 C 718.524 3.14903 1.45041 0
M  V30 7775 C 717.585 4.21442 0.817615 0
M  V30 7776 C 716.818 5.00677 1.8482 0
M  V30 7777 O 717.041 4.80644 3.07145 0
M  V30 7778 O 715.975 5.84559 1.43438 0
M  V30 7779 H 719.801 3.0232 -0.289219 0
M  V30 7780 H 717.386 1.47951 -0.207555 0
M  V30 7781 H 719.268 3.66612 2.07783 0
M  V30 7782 H 717.943 2.47031 2.09182 0
M  V30 7783 H 716.85 3.73791 0.151931 0
M  V30 7784 H 718.183 4.9171 0.219564 0
M  V30 7785 N 719.835 0.176821 1.56605 0
M  V30 7786 C 721.246 -0.338963 1.83597 0
M  V30 7787 C 721.597 -1.62677 1.09684 0
M  V30 7788 O 720.722 -2.13524 0.351661 0
M  V30 7789 C 721.317 -0.62177 3.33046 0
M  V30 7790 C 719.876 -1.08198 3.60514 0
M  V30 7791 C 719.023 -0.120774 2.77037 0
M  V30 7792 H 721.974 0.400978 1.53551 0
M  V30 7793 H 721.995 -1.47321 3.50823 0
M  V30 7794 H 721.507 0.315692 3.86814 0
M  V30 7795 H 719.608 -2.03435 3.12162 0
M  V30 7796 H 719.721 -0.987329 4.68816 0
M  V30 7797 H 718.085 -0.619192 2.47059 0
M  V30 7798 H 718.868 0.810806 3.33588 0
M  V30 7799 N 721.313 -1.57302 -0.09688 0
M  V30 7800 C 722.56 -1.85997 -0.800699 0
M  V30 7801 C 722.888 -0.765089 -1.7882 0
M  V30 7802 O 722.143 0.241492 -1.94204 0
M  V30 7803 C 722.442 -3.21272 -1.56586 0
M  V30 7804 C 722.108 -4.45104 -0.72064 0
M  V30 7805 C 720.77 -4.78723 -0.487632 0
M  V30 7806 C 723.122 -5.2103 -0.132948 0
M  V30 7807 C 720.45 -5.85697 0.34296 0
M  V30 7808 C 722.802 -6.28881 0.684957 0
M  V30 7809 C 721.466 -6.61017 0.928073 0
M  V30 7810 H 720.736 -0.680613 -0.292997 0
M  V30 7811 H 723.383 -1.91399 -0.0622474 0
M  V30 7812 H 721.688 -3.11547 -2.37583 0
M  V30 7813 H 723.385 -3.40702 -2.11478 0
M  V30 7814 H 719.975 -4.18777 -0.912359 0
M  V30 7815 H 724.159 -4.95392 -0.300132 0
M  V30 7816 H 719.415 -6.09008 0.540317 0
M  V30 7817 H 723.589 -6.86886 1.14721 0
M  V30 7818 H 721.216 -7.43738 1.57348 0
M  V30 7819 N 722.791 0.367657 -1.53252 0
M  V30 7820 C 723.723 1.47032 -1.75824 0
M  V30 7821 C 724.736 1.49736 -0.63898 0
M  V30 7822 O 725.925 1.53253 -0.915193 0
M  V30 7823 C 723.025 2.85805 -1.82122 0
M  V30 7824 C 722.198 3.06822 -3.11736 0
M  V30 7825 C 721.257 4.25698 -3.09302 0
M  V30 7826 O 720.283 4.20972 -3.83107 0
M  V30 7827 N 721.485 5.33002 -2.29977 0
M  V30 7828 H 724.25 1.28048 -2.70968 0
M  V30 7829 H 721.811 0.557363 -1.52004 0
M  V30 7830 H 723.803 3.63465 -1.77975 0
M  V30 7831 H 722.373 2.98046 -0.942716 0
M  V30 7832 H 721.593 2.1684 -3.29202 0
M  V30 7833 H 722.881 3.17731 -3.97397 0
M  V30 7834 H 722.279 5.39703 -1.69521 0
M  V30 7835 H 720.836 6.09247 -2.3165 0
M  V30 7836 N 724.269 1.44576 0.627338 0
M  V30 7837 C 725.546 1.38033 1.38586 0
M  V30 7838 C 725.926 0.0409468 2.1106 0
M  V30 7839 O 725.274 -0.976582 2.0658 0
M  V30 7840 C 725.484 2.58102 2.34913 0
M  V30 7841 C 726.832 3.02332 2.98129 0
M  V30 7842 O 727.856 2.58334 2.45238 0
M  V30 7843 O 726.715 3.78628 3.94085 0
M  V30 7844 H 723.809 0.546801 0.620434 0
M  V30 7845 H 726.355 1.56672 0.652077 0
M  V30 7846 H 725.127 3.4719 1.80485 0
M  V30 7847 H 724.75 2.41696 3.15703 0
M  V30 7848 N 725.747 -0.868086 1.31537 0
M  V30 7849 C 726.657 -2.00801 1.21311 0
M  V30 7850 C 727.673 -1.73518 0.129431 0
M  V30 7851 O 728.849 -1.98378 0.347588 0
M  V30 7852 C 725.914 -3.3419 0.922935 0
M  V30 7853 C 724.975 -3.74783 2.0937 0
M  V30 7854 C 724.208 -5.01807 1.81728 0
M  V30 7855 O 724.431 -5.65404 0.753313 0
M  V30 7856 O 723.365 -5.39213 2.67457 0
M  V30 7857 H 727.191 -2.12361 2.17109 0
M  V30 7858 H 724.776 -0.996684 1.11295 0
M  V30 7859 H 726.658 -4.14174 0.777033 0
M  V30 7860 H 725.333 -3.237 -0.00500301 0
M  V30 7861 H 724.24 -2.95432 2.29501 0
M  V30 7862 H 725.573 -3.89902 3.00396 0
M  V30 7863 N 727.225 -1.14528 -1.08264 0
M  V30 7864 C 728.474 -0.908992 -1.80056 0
M  V30 7865 C 728.787 0.565859 -1.87236 0
M  V30 7866 O 729.993 0.919454 -2.55457 0
M  V30 7867 C 728.449 -1.57681 -3.23519 0
M  V30 7868 C 728.057 -3.08803 -3.24569 0
M  V30 7869 C 729.801 -1.4217 -3.99985 0
M  V30 7870 C 727.708 -3.68414 -4.62629 0
M  V30 7871 H 726.638 -0.336432 -0.674781 0
M  V30 7872 H 729.289 -1.37437 -1.21587 0
M  V30 7873 H 727.671 -1.03911 -3.82124 0
M  V30 7874 H 728.845 -3.69252 -2.75663 0
M  V30 7875 H 727.16 -3.23968 -2.61598 0
M  V30 7876 H 729.757 -1.84106 -5.02005 0
M  V30 7877 H 730.1 -0.367989 -4.1467 0
M  V30 7878 H 730.633 -1.92984 -3.47853 0
M  V30 7879 H 727.372 -4.73644 -4.53147 0
M  V30 7880 H 726.892 -3.12746 -5.11811 0
M  V30 7881 H 728.571 -3.68793 -5.31602 0
M  V30 7882 N 728.703 1.26451 -0.940633 0
M  V30 7883 C 729.949 1.94065 -0.58878 0
M  V30 7884 C 730.282 1.7363 0.869853 0
M  V30 7885 O 729.557 1.073 1.62225 0
M  V30 7886 C 729.84 3.47852 -0.931199 0
M  V30 7887 C 729.693 3.77575 -2.44453 0
M  V30 7888 C 731.012 4.37832 -0.446229 0
M  V30 7889 H 728.131 0.704827 -0.21538 0
M  V30 7890 H 730.773 1.4933 -1.17475 0
M  V30 7891 H 728.923 3.86085 -0.432539 0
M  V30 7892 H 730.595 3.49059 -3.01588 0
M  V30 7893 H 728.838 3.23671 -2.88825 0
M  V30 7894 H 729.509 4.85068 -2.63464 0
M  V30 7895 H 731.985 4.06822 -0.873778 0
M  V30 7896 H 730.861 5.44228 -0.714648 0
M  V30 7897 H 731.122 4.37239 0.653815 0
M  V30 7898 N 730.181 0.707592 1.40822 0
M  V30 7899 C 731.406 0.251626 2.05868 0
M  V30 7900 C 731.831 -1.09503 1.5294 0
M  V30 7901 O 731.189 -1.68806 0.661385 0
M  V30 7902 C 731.237 0.23287 3.59847 0
M  V30 7903 O 730.341 -0.788477 4.04792 0
M  V30 7904 H 729.682 0.119936 0.653078 0
M  V30 7905 H 732.212 0.96583 1.80369 0
M  V30 7906 H 732.222 0.0678204 4.07944 0
M  V30 7907 H 730.897 1.21565 3.97737 0
M  V30 7908 H 729.474 -0.591802 3.68174 0
M  V30 7909 N 731.66 -1.50943 0.453197 0
M  V30 7910 C 732.89 -2.06328 -0.105981 0
M  V30 7911 C 733.298 -1.31909 -1.35634 0
M  V30 7912 O 732.641 -0.376607 -1.79798 0
M  V30 7913 C 732.703 -3.5631 -0.477868 0
M  V30 7914 C 732.367 -4.52093 0.667925 0
M  V30 7915 C 733.364 -4.96421 1.54475 0
M  V30 7916 C 731.049 -4.95001 0.853168 0
M  V30 7917 C 733.043 -5.82346 2.59138 0
M  V30 7918 C 730.73 -5.80713 1.90305 0
M  V30 7919 C 731.728 -6.24284 2.77053 0
M  V30 7920 O 731.416 -7.08291 3.80236 0
M  V30 7921 H 731.148 -0.675986 -0.00427247 0
M  V30 7922 H 733.702 -1.95314 0.635738 0
M  V30 7923 H 731.932 -3.65163 -1.27252 0
M  V30 7924 H 733.621 -3.94138 -0.970039 0
M  V30 7925 H 734.387 -4.63953 1.41324 0
M  V30 7926 H 730.266 -4.60619 0.187482 0
M  V30 7927 H 733.81 -6.16276 3.2688 0
M  V30 7928 H 729.707 -6.12593 2.03469 0
M  V30 7929 H 730.475 -7.26504 3.77007 0
M  V30 7930 N 733.138 -0.185124 -1.56509 0
M  V30 7931 C 734.086 0.756505 -2.19954 0
M  V30 7932 C 735.08 1.22725 -1.16769 0
M  V30 7933 O 736.286 1.1913 -1.34937 0
M  V30 7934 H 732.661 0.262279 -0.704779 0
M  V30 7935 H 734.632 0.197587 -2.97745 0
M  V30 7936 C 733.381 1.96975 -2.86524 0
M  V30 7937 H 732.704 1.61658 -3.65659 0
M  V30 7938 H 734.144 2.60719 -3.34367 0
M  V30 7939 C 732.603 2.80219 -1.87027 0
M  V30 7940 O 733.133 3.77821 -1.36433 0
M  V30 7941 N 731.339 2.4551 -1.55477 0
M  V30 7942 H 730.886 1.66199 -1.96813 0
M  V30 7943 H 730.844 3.01493 -0.891597 0
M  V30 7944 N 734.616 1.57351 0.0885366 0
M  V30 7945 C 735.844 1.90631 0.804196 0
M  V30 7946 C 736.259 0.779474 1.71958 0
M  V30 7947 O 735.616 -0.248179 1.80805 0
M  V30 7948 C 735.667 3.23568 1.61202 0
M  V30 7949 O 735.388 4.31917 0.733447 0
M  V30 7950 C 736.889 3.70753 2.43016 0
M  V30 7951 H 734.109 0.630501 0.229585 0
M  V30 7952 H 736.653 2.044 0.0638092 0
M  V30 7953 H 734.808 3.11377 2.30485 0
M  V30 7954 H 735.222 5.08297 1.29361 0
M  V30 7955 H 736.696 4.66447 2.9518 0
M  V30 7956 H 737.173 2.98922 3.2178 0
M  V30 7957 H 737.779 3.85834 1.7892 0
M  V30 7958 N 736.094 -0.359525 1.53444 0
M  V30 7959 C 737.041 -1.44073 1.8031 0
M  V30 7960 C 738.011 -1.52946 0.647811 0
M  V30 7961 O 739.196 -1.68739 0.890614 0
M  V30 7962 C 736.336 -2.80941 2.00416 0
M  V30 7963 C 735.449 -2.80986 3.28132 0
M  V30 7964 C 734.584 -4.09468 3.38393 0
M  V30 7965 C 733.623 -4.03679 4.60119 0
M  V30 7966 N 732.76 -5.23821 4.675 0
M  V30 7967 H 737.6 -1.20464 2.72566 0
M  V30 7968 H 735.137 -0.583859 1.35017 0
M  V30 7969 H 737.095 -3.60459 2.1006 0
M  V30 7970 H 735.725 -3.02936 1.11489 0
M  V30 7971 H 734.777 -1.93666 3.27411 0
M  V30 7972 H 736.089 -2.72583 4.17732 0
M  V30 7973 H 735.243 -4.97404 3.47382 0
M  V30 7974 H 733.982 -4.20632 2.4682 0
M  V30 7975 H 732.987 -3.14129 4.51224 0
M  V30 7976 H 734.212 -3.94112 5.5304 0
M  V30 7977 H 732.158 -5.35559 3.7883 0
M  V30 7978 H 732.075 -5.17611 5.51013 0
M  V30 7979 H 733.343 -6.13572 4.8078 0
M  V30 7980 N 737.572 -1.44907 -0.619662 0
M  V30 7981 C 738.52 -1.52971 -1.75222 0
M  V30 7982 C 739.514 -0.400531 -1.64597 0
M  V30 7983 O 740.72 -0.575952 -1.70537 0
M  V30 7984 H 737.095 -0.480241 -0.578682 0
M  V30 7985 H 739.066 -2.48269 -1.65545 0
M  V30 7986 C 737.815 -1.50204 -3.13583 0
M  V30 7987 H 737.138 -2.36412 -3.22412 0
M  V30 7988 H 738.578 -1.59905 -3.92691 0
M  V30 7989 C 737.037 -0.22455 -3.36151 0
M  V30 7990 O 737.567 0.700574 -3.95544 0
M  V30 7991 N 735.773 -0.124052 -2.90335 0
M  V30 7992 H 735.32 -0.87774 -2.42185 0
M  V30 7993 H 735.278 0.729914 -3.0581 0
M  V30 7994 N 739.05 0.861098 -1.31996 0
M  V30 7995 C 739.997 1.96912 -1.20392 0
M  V30 7996 C 740.967 1.65869 -0.0875899 0
M  V30 7997 O 742.152 1.88992 -0.262011 0
M  V30 7998 C 739.292 3.32435 -0.926335 0
M  V30 7999 C 738.405 3.76018 -2.12684 0
M  V30 8000 C 737.54 5.00301 -1.78529 0
M  V30 8001 C 736.579 5.36357 -2.94937 0
M  V30 8002 N 735.716 6.51818 -2.60917 0
M  V30 8003 H 740.556 2.06169 -2.1517 0
M  V30 8004 H 738.093 1.00917 -1.07024 0
M  V30 8005 H 740.051 4.10478 -0.745917 0
M  V30 8006 H 738.681 3.22796 -0.0153578 0
M  V30 8007 H 737.733 2.93683 -2.41774 0
M  V30 8008 H 739.045 3.98664 -2.99781 0
M  V30 8009 H 738.199 5.86034 -1.57001 0
M  V30 8010 H 736.938 4.79578 -0.886356 0
M  V30 8011 H 735.943 4.49139 -3.17103 0
M  V30 8012 H 737.168 5.59041 -3.85552 0
M  V30 8013 H 735.114 6.32624 -1.73558 0
M  V30 8014 H 735.031 6.7445 -3.41544 0
M  V30 8015 H 736.299 7.4072 -2.42804 0
M  V30 8016 N 740.528 1.15101 1.07655 0
M  V30 8017 C 741.939 0.933848 1.61667 0
M  V30 8018 C 742.29 -0.525569 1.8903 0
M  V30 8019 O 741.415 -1.39605 1.65346 0
M  V30 8020 C 742.01 1.68876 2.93711 0
M  V30 8021 C 740.569 1.51697 3.44478 0
M  V30 8022 C 739.716 1.70633 2.18586 0
M  V30 8023 H 742.667 1.30171 0.907816 0
M  V30 8024 H 742.688 1.15645 3.625 0
M  V30 8025 H 742.2 2.7509 2.73764 0
M  V30 8026 H 740.301 0.478635 3.69513 0
M  V30 8027 H 740.414 2.29194 4.20722 0
M  V30 8028 H 738.778 1.13259 2.28132 0
M  V30 8029 H 739.561 2.78206 2.01137 0
M  V30 8030 N 742.006 -1.2595 0.947325 0
M  V30 8031 C 742.936 -2.28521 0.479604 0
M  V30 8032 C 743.917 -1.63469 -0.470293 0
M  V30 8033 O 745.102 -1.90627 -0.370824 0
M  V30 8034 C 742.232 -3.46397 -0.250289 0
M  V30 8035 C 741.186 -4.23578 0.613643 0
M  V30 8036 C 740.512 -5.34131 -0.246568 0
M  V30 8037 C 741.812 -4.86979 1.88809 0
M  V30 8038 H 743.506 -2.67895 1.33688 0
M  V30 8039 H 741.052 -1.28783 0.644274 0
M  V30 8040 H 743.005 -4.17269 -0.588576 0
M  V30 8041 H 741.729 -3.05993 -1.14175 0
M  V30 8042 H 740.388 -3.54478 0.93491 0
M  V30 8043 H 740.036 -4.89968 -1.13756 0
M  V30 8044 H 739.736 -5.86683 0.328123 0
M  V30 8045 H 741.26 -6.07839 -0.579986 0
M  V30 8046 H 742.674 -5.50034 1.61666 0
M  V30 8047 H 741.071 -5.49675 2.40784 0
M  V30 8048 H 742.141 -4.09575 2.5957 0
M  V30 8049 N 743.484 -0.715051 -1.40445 0
M  V30 8050 C 744.432 -0.0509974 -2.32544 0
M  V30 8051 C 745.426 0.747602 -1.52011 0
M  V30 8052 O 746.632 0.651031 -1.67814 0
M  V30 8053 H 743.007 0.00231113 -0.751996 0
M  V30 8054 H 744.978 -0.84449 -2.86201 0
M  V30 8055 C 743.727 0.857101 -3.3697 0
M  V30 8056 H 743.05 0.252 -3.99005 0
M  V30 8057 H 744.49 1.28971 -4.03909 0
M  V30 8058 C 742.949 1.98231 -2.72408 0
M  V30 8059 O 743.479 3.07309 -2.58697 0
M  V30 8060 N 741.685 1.76577 -2.308 0
M  V30 8061 H 741.232 0.878641 -2.42152 0
M  V30 8062 H 741.19 2.52043 -1.87941 0
M  V30 8063 N 744.962 1.50701 -0.461195 0
M  V30 8064 C 746.209 2.02267 0.0971971 0
M  V30 8065 C 746.537 1.34387 1.40608 0
M  V30 8066 O 745.792 0.455254 1.90331 0
M  V30 8067 C 746.091 3.55788 0.33908 0
M  V30 8068 C 745.757 4.42092 -0.886885 0
M  V30 8069 C 744.419 4.65398 -1.22304 0
M  V30 8070 C 746.771 4.92571 -1.70361 0
M  V30 8071 C 744.099 5.36429 -2.37616 0
M  V30 8072 C 746.451 5.64868 -2.84793 0
M  V30 8073 C 745.115 5.86431 -3.18834 0
M  V30 8074 H 744.385 0.740146 0.0355669 0
M  V30 8075 H 747.032 1.81415 -0.61326 0
M  V30 8076 H 745.337 3.751 1.13168 0
M  V30 8077 H 747.034 3.93243 0.784937 0
M  V30 8078 H 743.624 4.24165 -0.614981 0
M  V30 8079 H 747.808 4.74428 -1.4571 0
M  V30 8080 H 743.064 5.51333 -2.64276 0
M  V30 8081 H 747.238 6.02966 -3.48432 0
M  V30 8082 H 744.865 6.41248 -4.08296 0
M  V30 8083 N 746.441 0.193421 1.56409 0
M  V30 8084 C 747.389 -0.744829 2.20352 0
M  V30 8085 C 748.383 -1.22104 1.17418 0
M  V30 8086 O 749.589 -1.18413 1.35567 0
M  V30 8087 H 745.964 -0.258538 0.70616 0
M  V30 8088 H 747.935 -0.181794 2.97846 0
M  V30 8089 C 746.684 -1.95453 2.87565 0
M  V30 8090 H 746.007 -1.59716 3.66512 0
M  V30 8091 H 747.447 -2.58942 3.35745 0
M  V30 8092 C 745.906 -2.79223 1.8851 0
M  V30 8093 O 746.436 -3.77093 1.38434 0
M  V30 8094 N 744.642 -2.44682 1.56777 0
M  V30 8095 H 744.189 -1.65153 1.97692 0
M  V30 8096 H 744.147 -3.01016 0.907573 0
M  V30 8097 N 747.919 -1.57396 -0.0801906 0
M  V30 8098 C 749.149 -1.90778 -0.792924 0
M  V30 8099 C 749.557 -0.786814 -1.72064 0
M  V30 8100 O 748.9 0.249259 -1.82001 0
M  V30 8101 C 748.962 -3.19552 -1.64702 0
M  V30 8102 C 748.626 -4.48259 -0.889567 0
M  V30 8103 C 749.623 -5.19465 -0.212602 0
M  V30 8104 C 747.308 -4.94896 -0.859229 0
M  V30 8105 C 749.302 -6.35555 0.484566 0
M  V30 8106 C 746.989 -6.10895 -0.158284 0
M  V30 8107 C 747.987 -6.81075 0.512421 0
M  V30 8108 O 747.675 -7.94862 1.20209 0
M  V30 8109 H 747.407 -0.63527 -0.231103 0
M  V30 8110 H 749.961 -2.0532 -0.0573081 0
M  V30 8111 H 748.191 -3.01196 -2.42524 0
M  V30 8112 H 749.88 -3.38649 -2.23767 0
M  V30 8113 H 750.646 -4.84467 -0.227403 0
M  V30 8114 H 746.525 -4.4015 -1.37073 0
M  V30 8115 H 750.069 -6.9027 1.00864 0
M  V30 8116 H 745.966 -6.45345 -0.141381 0
M  V30 8117 H 746.734 -8.10932 1.11051 0
M  V30 8118 N 749.397 0.351382 -1.53633 0
M  V30 8119 C 750.622 1.11718 -1.74739 0
M  V30 8120 C 751.047 1.81829 -0.481657 0
M  V30 8121 O 750.405 1.72264 0.565233 0
M  V30 8122 C 750.453 2.11234 -2.92254 0
M  V30 8123 O 749.557 3.186 -2.61855 0
M  V30 8124 H 748.898 0.323482 -0.579875 0
M  V30 8125 H 751.428 0.404167 -2.00568 0
M  V30 8126 H 751.438 2.54591 -3.18822 0
M  V30 8127 H 750.113 1.59599 -3.84058 0
M  V30 8128 H 748.69 2.80115 -2.4615 0
M  V30 8129 N 750.875 1.45233 0.611969 0
M  V30 8130 C 751.805 1.5641 1.73373 0
M  V30 8131 C 752.786 0.415896 1.64937 0
M  V30 8132 O 753.971 0.638478 1.83404 0
M  V30 8133 C 751.101 1.52627 3.11965 0
M  V30 8134 C 750.055 2.66119 3.35208 0
M  V30 8135 C 749.381 2.4739 4.74028 0
M  V30 8136 C 750.681 4.08157 3.25891 0
M  V30 8137 H 752.375 2.50307 1.64277 0
M  V30 8138 H 749.921 1.20467 0.788904 0
M  V30 8139 H 751.874 1.59043 3.90235 0
M  V30 8140 H 750.598 0.552564 3.21892 0
M  V30 8141 H 749.257 2.59123 2.59327 0
M  V30 8142 H 748.905 1.48168 4.80682 0
M  V30 8143 H 748.605 3.23494 4.90536 0
M  V30 8144 H 750.129 2.55653 5.54503 0
M  V30 8145 H 751.543 4.1642 3.9404 0
M  V30 8146 H 749.94 4.84617 3.5393 0
M  V30 8147 H 751.01 4.30374 2.23397 0
M  V30 8148 N 752.353 -0.854086 1.3245 0
M  V30 8149 C 753.63 -1.59188 1.1366 0
M  V30 8150 C 754.01 -2.08917 -0.302807 0
M  V30 8151 O 753.358 -1.8795 -1.29951 0
M  V30 8152 C 753.568 -2.73757 2.16467 0
M  V30 8153 C 754.916 -3.43323 2.49829 0
M  V30 8154 O 755.94 -2.83983 2.15017 0
M  V30 8155 O 754.799 -4.50409 3.09506 0
M  V30 8156 H 751.893 -0.701092 0.438633 0
M  V30 8157 H 754.439 -0.898165 1.43983 0
M  V30 8158 H 753.211 -2.3454 3.1322 0
M  V30 8159 H 752.834 -3.50804 1.87142 0
M  V30 8160 N 753.831 -1.1567 -1.07043 0
M  V30 8161 C 754.778 -0.856336 -2.14326 0
M  V30 8162 C 755.748 0.192051 -1.64986 0
M  V30 8163 O 756.933 0.0589148 -1.90709 0
M  V30 8164 C 754.073 -0.355227 -3.43267 0
M  V30 8165 C 753.186 -1.46555 -4.06381 0
M  V30 8166 C 752.321 -0.920245 -5.23168 0
M  V30 8167 C 751.36 -2.00729 -5.78251 0
M  V30 8168 N 750.497 -1.47813 -6.86364 0
M  V30 8169 H 755.337 -1.77514 -2.39359 0
M  V30 8170 H 752.874 -0.885676 -1.17449 0
M  V30 8171 H 754.832 -0.0463804 -4.17174 0
M  V30 8172 H 753.462 0.526649 -3.18475 0
M  V30 8173 H 752.514 -1.89052 -3.30096 0
M  V30 8174 H 753.826 -2.28616 -4.43324 0
M  V30 8175 H 752.98 -0.564127 -6.04072 0
M  V30 8176 H 751.719 -0.0688477 -4.87651 0
M  V30 8177 H 750.724 -2.3722 -4.95991 0
M  V30 8178 H 751.949 -2.86252 -6.15822 0
M  V30 8179 H 749.895 -0.649145 -6.5278 0
M  V30 8180 H 749.812 -2.23498 -7.22208 0
M  V30 8181 H 751.08 -1.15036 -7.70965 0
M  V30 8182 N 755.309 1.25446 -0.953992 0
M  V30 8183 C 756.558 1.92441 -0.604101 0
M  V30 8184 C 756.871 1.75543 0.862796 0
M  V30 8185 O 758.077 2.37106 1.32262 0
M  V30 8186 C 756.533 3.44854 -1.02974 0
M  V30 8187 C 756.141 3.70464 -2.51914 0
M  V30 8188 C 757.885 4.1778 -0.752352 0
M  V30 8189 C 755.792 5.1638 -2.88281 0
M  V30 8190 H 754.722 0.720508 -0.222227 0
M  V30 8191 H 757.373 1.42318 -1.15836 0
M  V30 8192 H 755.755 3.93935 -0.403904 0
M  V30 8193 H 756.929 3.32038 -3.19511 0
M  V30 8194 H 755.244 3.10797 -2.77117 0
M  V30 8195 H 757.841 5.25261 -1.00024 0
M  V30 8196 H 758.184 4.15135 0.311212 0
M  V30 8197 H 758.717 3.74605 -1.33851 0
M  V30 8198 H 755.456 5.24135 -3.93653 0
M  V30 8199 H 754.976 5.55855 -2.25357 0
M  V30 8200 H 756.655 5.84497 -2.77439 0
M  V30 8201 N 756.787 0.722489 1.40064 0
M  V30 8202 C 758.036 0.261932 1.99992 0
M  V30 8203 C 758.349 -1.15358 1.57961 0
M  V30 8204 O 759.555 -1.71301 2.10637 0
M  V30 8205 C 758.011 0.41737 3.57472 0
M  V30 8206 C 757.619 1.83997 4.08472 0
M  V30 8207 C 759.363 0.0179561 4.24496 0
M  V30 8208 C 757.27 1.94563 5.5848 0
M  V30 8209 H 756.2 0.0941768 0.748095 0
M  V30 8210 H 758.851 0.894572 1.60218 0
M  V30 8211 H 757.233 -0.283965 3.94981 0
M  V30 8212 H 758.407 2.57224 3.82325 0
M  V30 8213 H 756.722 2.19147 3.54067 0
M  V30 8214 H 759.319 0.076085 5.34646 0
M  V30 8215 H 759.662 -1.02498 4.03485 0
M  V30 8216 H 760.195 0.669988 3.92117 0
M  V30 8217 H 756.934 2.97001 5.84355 0
M  V30 8218 H 756.454 1.25756 5.86469 0
M  V30 8219 H 758.133 1.72095 6.23692 0
M  V30 8220 N 758.265 -1.50454 0.469181 0
M  V30 8221 C 759.511 -2.02615 -0.0865971 0
M  V30 8222 C 759.844 -1.35062 -1.39542 0
M  V30 8223 O 759.119 -0.475701 -1.88593 0
M  V30 8224 C 759.402 -3.59068 -0.272385 0
M  V30 8225 C 759.255 -4.37196 1.05733 0
M  V30 8226 C 760.574 -4.2793 -1.0278 0
M  V30 8227 H 757.693 -0.736389 -0.0299977 0
M  V30 8228 H 760.335 -1.79792 0.614399 0
M  V30 8229 H 758.485 -3.78646 -0.869471 0
M  V30 8230 H 760.157 -4.29195 1.69084 0
M  V30 8231 H 758.4 -4.01013 1.65442 0
M  V30 8232 H 759.071 -5.44924 0.880997 0
M  V30 8233 H 761.547 -4.12816 -0.521718 0
M  V30 8234 H 760.423 -5.37214 -1.12659 0
M  V30 8235 H 760.684 -3.90968 -2.0639 0
M  V30 8236 N 759.743 -0.201713 -1.56304 0
M  V30 8237 C 761.02 0.483273 -1.89536 0
M  V30 8238 C 761.4 1.79176 -1.11621 0
M  V30 8239 O 760.748 2.27445 -0.219339 0
M  V30 8240 C 760.958 0.695604 -3.41998 0
M  V30 8241 C 762.306 1.012 -4.12364 0
M  V30 8242 O 763.33 0.783094 -3.47485 0
M  V30 8243 O 762.189 1.44534 -5.27041 0
M  V30 8244 H 759.283 0.252801 -0.787414 0
M  V30 8245 H 761.829 -0.24242 -1.6796 0
M  V30 8246 H 760.601 -0.228165 -3.90634 0
M  V30 8247 H 760.224 1.47351 -3.69288 0
M  V30 8248 N 761.222 1.57436 0.0718424 0
M  V30 8249 C 762.452 1.91196 0.782795 0
M  V30 8250 C 762.86 0.795927 1.71644 0
M  V30 8251 O 762.203 -0.239604 1.82131 0
M  V30 8252 C 762.265 3.20421 1.63005 0
M  V30 8253 C 761.929 4.48724 0.865782 0
M  V30 8254 C 762.926 5.19571 0.185051 0
M  V30 8255 C 760.611 4.95345 0.832971 0
M  V30 8256 C 762.605 6.3529 -0.518264 0
M  V30 8257 C 760.292 6.1097 0.125884 0
M  V30 8258 C 761.29 6.80794 -0.548533 0
M  V30 8259 O 760.978 7.94213 -1.24423 0
M  V30 8260 H 760.71 0.636486 0.227731 0
M  V30 8261 H 763.264 2.05348 0.0464187 0
M  V30 8262 H 761.494 3.02478 2.40923 0
M  V30 8263 H 763.183 3.39831 2.21968 0
M  V30 8264 H 763.949 4.8458 0.201707 0
M  V30 8265 H 759.828 4.40871 1.34737 0
M  V30 8266 H 763.372 6.89725 -1.04523 0
M  V30 8267 H 759.269 6.45411 0.107155 0
M  V30 8268 H 760.037 8.10331 -1.1535 0
M  V30 8269 N 762.7 -0.34323 1.53817 0
M  V30 8270 C 763.648 -1.44176 1.82527 0
M  V30 8271 C 764.642 -1.54452 0.695772 0
M  V30 8272 O 765.848 -1.57072 0.879114 0
M  V30 8273 H 762.223 -0.480729 0.578277 0
M  V30 8274 H 764.194 -1.17176 2.74431 0
M  V30 8275 C 762.943 -2.80695 2.05197 0
M  V30 8276 H 762.266 -2.73554 2.91561 0
M  V30 8277 H 763.706 -3.56679 2.29251 0
M  V30 8278 C 762.165 -3.26322 0.837589 0
M  V30 8279 O 762.695 -4.01683 0.0371631 0
M  V30 8280 N 760.901 -2.83128 0.654724 0
M  V30 8281 H 760.448 -2.21965 1.30725 0
M  V30 8282 H 760.406 -3.14011 -0.156345 0
M  V30 8283 N 764.178 -1.45556 -0.604258 0
M  V30 8284 C 765.108 -1.57327 -1.72541 0
M  V30 8285 C 766.089 -0.424637 -1.64714 0
M  V30 8286 O 767.274 -0.648196 -1.83063 0
M  V30 8287 C 764.404 -1.54279 -3.11152 0
M  V30 8288 C 763.358 -2.67893 -3.33792 0
M  V30 8289 C 762.684 -2.499 -4.72709 0
M  V30 8290 C 763.984 -4.0988 -3.23722 0
M  V30 8291 H 765.678 -2.51175 -1.62947 0
M  V30 8292 H 763.224 -1.20884 -0.782504 0
M  V30 8293 H 765.177 -1.6111 -3.89386 0
M  V30 8294 H 763.901 -0.569627 -3.21594 0
M  V30 8295 H 762.56 -2.60495 -2.57949 0
M  V30 8296 H 762.208 -1.50715 -4.79889 0
M  V30 8297 H 761.908 -3.26091 -4.88813 0
M  V30 8298 H 763.432 -2.5859 -5.5314 0
M  V30 8299 H 764.846 -4.18503 -3.91826 0
M  V30 8300 H 763.243 -4.86487 -3.51355 0
M  V30 8301 H 764.313 -4.31553 -2.21111 0
M  V30 8302 N 765.656 0.84705 -1.32902 0
M  V30 8303 C 766.588 1.96308 -1.18304 0
M  V30 8304 C 767.601 1.62386 -0.116082 0
M  V30 8305 O 768.79 1.74713 -0.365751 0
M  V30 8306 C 765.89 3.29556 -0.790305 0
M  V30 8307 C 765.063 3.91668 -1.94717 0
M  V30 8308 C 764.122 5.0326 -1.53674 0
M  V30 8309 O 763.148 5.22847 -2.24989 0
M  V30 8310 N 764.35 5.78852 -0.437075 0
M  V30 8311 H 767.115 2.09369 -2.14441 0
M  V30 8312 H 764.676 1.02233 -1.25539 0
M  V30 8313 H 766.668 4.01624 -0.49799 0
M  V30 8314 H 765.238 3.12497 0.0801286 0
M  V30 8315 H 764.458 3.12292 -2.40557 0
M  V30 8316 H 765.746 4.299 -2.72146 0
M  V30 8317 H 765.144 5.65484 0.156316 0
M  V30 8318 H 763.701 6.51479 -0.204399 0
M  V30 8319 N 767.134 1.16236 1.06428 0
M  V30 8320 C 768.359 0.967688 1.83441 0
M  V30 8321 C 768.784 -0.479167 1.81894 0
M  V30 8322 O 768.142 -1.34224 1.21875 0
M  V30 8323 C 768.19 1.49806 3.2801 0
M  V30 8324 O 767.294 0.703481 4.06356 0
M  V30 8325 H 766.635 0.344468 0.56766 0
M  V30 8326 H 769.165 1.54442 1.34197 0
M  V30 8327 H 769.175 1.51495 3.78831 0
M  V30 8328 H 767.85 2.55133 3.2845 0
M  V30 8329 H 766.427 0.756986 3.65136 0
M  V30 8330 N 768.612 -1.24939 0.960631 0
M  V30 8331 C 769.559 -2.25658 0.484459 0
M  V30 8332 C 770.529 -1.59422 -0.466242 0
M  V30 8333 O 771.714 -1.87015 -0.378169 0
M  V30 8334 C 768.854 -3.44359 -0.225958 0
M  V30 8335 C 767.967 -4.25214 0.762682 0
M  V30 8336 C 767.102 -5.31192 0.0290931 0
M  V30 8337 C 766.141 -6.03739 1.00827 0
M  V30 8338 N 765.278 -7.01437 0.305155 0
M  V30 8339 H 770.118 -2.65758 1.34821 0
M  V30 8340 H 767.655 -1.30648 0.675983 0
M  V30 8341 H 769.613 -4.12035 -0.654472 0
M  V30 8342 H 768.243 -3.05118 -1.05371 0
M  V30 8343 H 767.295 -3.57144 1.30966 0
M  V30 8344 H 768.607 -4.75406 1.50964 0
M  V30 8345 H 767.761 -6.04971 -0.457763 0
M  V30 8346 H 766.5 -4.81889 -0.750614 0
M  V30 8347 H 765.505 -5.2877 1.50607 0
M  V30 8348 H 766.73 -6.55131 1.7883 0
M  V30 8349 H 764.676 -6.54415 -0.455704 0
M  V30 8350 H 764.593 -7.49475 0.991104 0
M  V30 8351 H 765.861 -7.79336 -0.159966 0
M  V30 8352 N 770.09 -0.729906 -1.39679 0
M  V30 8353 C 771.339 -0.272534 -1.9985 0
M  V30 8354 C 771.652 1.14519 -1.58571 0
M  V30 8355 O 772.858 1.70182 -2.11543 0
M  V30 8356 C 771.314 -0.436322 -3.57245 0
M  V30 8357 C 770.922 -1.86161 -4.0749 0
M  V30 8358 C 772.666 -0.0404679 -4.24481 0
M  V30 8359 C 770.573 -1.97522 -5.5744 0
M  V30 8360 H 769.503 -0.0981428 -0.747585 0
M  V30 8361 H 772.154 -0.903056 -1.59741 0
M  V30 8362 H 770.536 0.263015 -3.95126 0
M  V30 8363 H 771.71 -2.59248 -3.80955 0
M  V30 8364 H 770.025 -2.21021 -3.529 0
M  V30 8365 H 772.622 -0.104437 -5.34598 0
M  V30 8366 H 772.965 1.00357 -4.04023 0
M  V30 8367 H 773.498 -0.690774 -3.91757 0
M  V30 8368 H 770.237 -3.00096 -5.82771 0
M  V30 8369 H 769.757 -1.28864 -5.85794 0
M  V30 8370 H 771.436 -1.754 -6.22771 0
M  V30 8371 N 771.568 1.50203 -0.477153 0
M  V30 8372 C 772.796 2.0677 0.0732489 0
M  V30 8373 C 773.211 1.34033 1.32968 0
M  V30 8374 O 772.568 0.411412 1.77802 0
M  V30 8375 C 772.619 3.59751 0.35518 0
M  V30 8376 O 772.34 4.29747 -0.851425 0
M  V30 8377 C 773.841 4.3296 0.951877 0
M  V30 8378 H 771.061 0.670929 -0.00978923 0
M  V30 8379 H 773.605 1.93293 -0.667676 0
M  V30 8380 H 771.76 3.7301 1.04605 0
M  V30 8381 H 772.174 5.2106 -0.599708 0
M  V30 8382 H 773.648 5.40952 1.09888 0
M  V30 8383 H 774.125 3.93856 1.94356 0
M  V30 8384 H 774.731 4.24246 0.299208 0
M  V30 8385 N 773.046 0.209999 1.56195 0
M  V30 8386 C 773.976 -0.699746 2.22769 0
M  V30 8387 C 774.957 -1.20993 1.1956 0
M  V30 8388 O 776.142 -1.25605 1.48112 0
M  V30 8389 C 773.272 -1.91302 2.89863 0
M  V30 8390 C 772.226 -1.53715 3.99444 0
M  V30 8391 C 771.552 -2.82826 4.53777 0
M  V30 8392 C 772.852 -0.735836 5.17091 0
M  V30 8393 H 774.546 -0.144716 2.9905 0
M  V30 8394 H 772.092 -0.0681645 1.43839 0
M  V30 8395 H 774.045 -2.5548 3.35124 0
M  V30 8396 H 772.769 -2.49283 2.11011 0
M  V30 8397 H 771.428 -0.918892 3.54897 0
M  V30 8398 H 771.076 -3.38927 3.71669 0
M  V30 8399 H 770.776 -2.58415 5.27727 0
M  V30 8400 H 772.3 -3.47966 5.01749 0
M  V30 8401 H 773.714 -1.28105 5.58804 0
M  V30 8402 H 772.111 -0.589272 5.972 0
M  V30 8403 H 773.181 0.260004 4.84202 0
M  V30 8404 N 774.524 -1.57472 -0.0634922 0
M  V30 8405 C 775.935 -1.76303 -0.614337 0
M  V30 8406 C 776.286 -0.836578 -1.77471 0
M  V30 8407 O 775.411 -0.0227184 -2.16388 0
M  V30 8408 C 776.006 -3.19709 -1.12122 0
M  V30 8409 C 774.565 -3.39856 -1.61786 0
M  V30 8410 C 773.712 -2.71975 -0.540845 0
M  V30 8411 H 776.663 -1.57864 0.162702 0
M  V30 8412 H 776.684 -3.24326 -1.98979 0
M  V30 8413 H 776.196 -3.87114 -0.276472 0
M  V30 8414 H 774.297 -2.77578 -2.48558 0
M  V30 8415 H 774.41 -4.48338 -1.68908 0
M  V30 8416 H 772.774 -2.34763 -0.987854 0
M  V30 8417 H 773.557 -3.4204 0.293856 0
M  V30 8418 N 776.003 0.335068 -1.53997 0
M  V30 8419 C 776.951 1.43206 -1.83289 0
M  V30 8420 C 777.945 1.54081 -0.703953 0
M  V30 8421 O 779.151 1.56603 -0.887432 0
M  V30 8422 H 775.526 0.477655 -0.580818 0
M  V30 8423 H 777.497 1.15719 -2.75049 0
M  V30 8424 C 776.246 2.79602 -2.06683 0
M  V30 8425 H 775.569 2.72004 -2.93008 0
M  V30 8426 H 777.009 3.55459 -2.31139 0
M  V30 8427 C 775.468 3.25873 -0.854883 0
M  V30 8428 O 775.998 4.01657 -0.0584648 0
M  V30 8429 N 774.204 2.82777 -0.669729 0
M  V30 8430 H 773.751 2.21269 -1.31901 0
M  V30 8431 H 773.709 3.1409 0.13969 0
M  V30 8432 N 777.481 1.45874 0.596531 0
M  V30 8433 C 778.758 1.40942 1.35627 0
M  V30 8434 C 779.138 0.0857066 2.10926 0
M  V30 8435 O 778.486 -0.932544 2.08605 0
M  V30 8436 C 778.696 2.63027 2.29386 0
M  V30 8437 C 780.044 3.08588 2.91649 0
M  V30 8438 O 781.068 2.63478 2.39704 0
M  V30 8439 O 779.927 3.86902 3.85965 0
M  V30 8440 H 777.021 0.559838 0.608696 0
M  V30 8441 H 779.567 1.5802 0.618698 0
M  V30 8442 H 778.339 3.5094 1.7308 0
M  V30 8443 H 777.962 2.48338 3.10506 0
M  V30 8444 N 778.959 -0.83999 1.33349 0
M  V30 8445 C 780.375 -1.13049 1.12659 0
M  V30 8446 C 780.575 -2.01328 -0.0832613 0
M  V30 8447 O 779.631 -2.40669 -0.763856 0
M  V30 8448 C 780.944 -1.79366 2.41347 0
M  V30 8449 C 782.492 -1.91937 2.47243 0
M  V30 8450 C 782.967 -2.6167 3.75889 0
M  V30 8451 N 784.458 -2.69184 3.76954 0
M  V30 8452 C 785.193 -3.23827 4.73206 0
M  V30 8453 N 784.689 -3.79166 5.79832 0
M  V30 8454 N 786.482 -3.22068 4.60683 0
M  V30 8455 H 778.633 -0.252432 2.10895 0
M  V30 8456 H 780.896 -0.174501 0.931801 0
M  V30 8457 H 780.602 -1.2196 3.29877 0
M  V30 8458 H 780.476 -2.79396 2.53412 0
M  V30 8459 H 782.863 -2.48498 1.59163 0
M  V30 8460 H 782.944 -0.908604 2.39119 0
M  V30 8461 H 782.588 -2.05769 4.64351 0
M  V30 8462 H 782.518 -3.63217 3.81289 0
M  V30 8463 H 785.009 -2.2994 2.99893 0
M  V30 8464 H 785.322 -4.19061 6.49313 0
M  V30 8465 H 783.667 -3.77457 5.83568 0
M  V30 8466 H 786.858 -2.78092 3.7654 0
M  V30 8467 H 787.031 -3.64351 5.35866 0
M  V30 8468 N 780.437 -1.16799 -1.0581 0
M  V30 8469 C 781.665 -0.97687 -1.82387 0
M  V30 8470 C 782.08 0.474917 -1.82729 0
M  V30 8471 O 781.437 1.3297 -1.25001 0
M  V30 8472 C 781.488 -1.50279 -3.28783 0
M  V30 8473 O 781.209 -2.89772 -3.28578 0
M  V30 8474 C 782.71 -1.35538 -4.22071 0
M  V30 8475 H 779.93 -0.345977 -0.574927 0
M  V30 8476 H 782.474 -1.54942 -1.33466 0
M  V30 8477 H 780.629 -0.972414 -3.74997 0
M  V30 8478 H 781.043 -3.13954 -4.20159 0
M  V30 8479 H 782.517 -1.7716 -5.22799 0
M  V30 8480 H 782.994 -0.301598 -4.38163 0
M  V30 8481 H 783.6 -1.87562 -3.81708 0
M  V30 8482 N 781.915 1.24427 -0.967243 0
M  V30 8483 C 783.143 1.96541 -0.646477 0
M  V30 8484 C 783.558 1.71753 0.783996 0
M  V30 8485 O 782.915 1.00102 1.52597 0
M  V30 8486 C 782.966 3.4983 -0.911098 0
M  V30 8487 O 782.687 3.7377 -2.28534 0
M  V30 8488 C 784.188 4.3916 -0.604458 0
M  V30 8489 H 781.408 0.626129 -0.241255 0
M  V30 8490 H 783.952 1.58268 -1.29505 0
M  V30 8491 H 782.107 3.86168 -0.308741 0
M  V30 8492 H 782.521 4.68154 -2.365 0
M  V30 8493 H 783.995 5.4557 -0.840069 0
M  V30 8494 H 784.472 4.36771 0.461273 0
M  V30 8495 H 785.078 4.08409 -1.1867 0
M  V30 8496 N 783.393 0.737304 1.3929 0
M  V30 8497 C 784.804 0.355966 1.83275 0
M  V30 8498 C 785.155 -1.11295 1.6158 0
M  V30 8499 O 784.28 -1.85871 1.10819 0
M  V30 8500 C 784.875 0.63931 3.32713 0
M  V30 8501 C 783.434 0.31144 3.75109 0
M  V30 8502 C 782.581 0.900765 2.62262 0
M  V30 8503 H 785.532 0.934763 1.28249 0
M  V30 8504 H 785.553 -0.0881293 3.80398 0
M  V30 8505 H 785.065 1.70847 3.48472 0
M  V30 8506 H 783.166 -0.751791 3.64937 0
M  V30 8507 H 783.279 0.795611 4.72448 0
M  V30 8508 H 781.643 0.327239 2.52589 0
M  V30 8509 H 782.426 1.97463 2.80826 0
M  V30 8510 N 784.871 -1.49948 0.485112 0
M  V30 8511 C 786.117 -2.02695 -0.0651022 0
M  V30 8512 C 786.45 -1.36534 -1.38102 0
M  V30 8513 O 785.725 -0.495677 -1.88078 0
M  V30 8514 C 786.008 -3.59337 -0.234285 0
M  V30 8515 C 785.861 -4.3605 1.10364 0
M  V30 8516 C 787.18 -4.28996 -0.982351 0
M  V30 8517 H 784.299 -0.736666 -0.0221856 0
M  V30 8518 H 786.941 -1.7913 0.633433 0
M  V30 8519 H 785.091 -3.79546 -0.829262 0
M  V30 8520 H 786.763 -4.27377 1.73627 0
M  V30 8521 H 785.006 -3.99236 1.69686 0
M  V30 8522 H 785.677 -5.43959 0.938743 0
M  V30 8523 H 788.153 -4.13346 -0.477904 0
M  V30 8524 H 787.029 -5.38379 -1.06955 0
M  V30 8525 H 787.29 -3.93135 -2.02231 0
M  V30 8526 N 786.349 -0.21828 -1.56081 0
M  V30 8527 C 787.577 0.419258 -2.02608 0
M  V30 8528 C 787.992 1.53578 -1.09814 0
M  V30 8529 O 787.349 1.82185 -0.107149 0
M  V30 8530 C 787.4 0.953955 -3.48686 0
M  V30 8531 O 787.121 -0.11805 -4.37941 0
M  V30 8532 C 788.622 1.66506 -4.10841 0
M  V30 8533 H 785.842 0.10296 -0.663054 0
M  V30 8534 H 788.386 -0.333776 -2.01758 0
M  V30 8535 H 786.541 1.65727 -3.50162 0
M  V30 8536 H 786.955 0.283359 -5.23734 0
M  V30 8537 H 788.429 1.99123 -5.14834 0
M  V30 8538 H 788.906 2.57705 -3.55647 0
M  V30 8539 H 789.512 1.00703 -4.13206 0
M  V30 8540 N 787.827 1.57504 0.0551401 0
M  V30 8541 C 788.774 2.04825 1.06373 0
M  V30 8542 C 789.744 0.932108 1.37481 0
M  V30 8543 O 790.929 1.20093 1.48265 0
M  V30 8544 C 788.069 2.51091 2.36743 0
M  V30 8545 C 787.182 3.76392 2.12021 0
M  V30 8546 C 786.317 4.11373 3.36074 0
M  V30 8547 C 785.356 5.29666 3.0679 0
M  V30 8548 N 784.493 5.60205 4.2322 0
M  V30 8549 H 789.333 2.90753 0.653216 0
M  V30 8550 H 786.87 1.43776 0.310951 0
M  V30 8551 H 788.828 2.75973 3.12881 0
M  V30 8552 H 787.458 1.68118 2.75565 0
M  V30 8553 H 786.51 3.58751 1.26498 0
M  V30 8554 H 787.822 4.62662 1.86401 0
M  V30 8555 H 786.976 4.37245 4.20597 0
M  V30 8556 H 785.715 3.23704 3.64784 0
M  V30 8557 H 784.72 5.03574 2.20664 0
M  V30 8558 H 785.945 6.18968 2.79385 0
M  V30 8559 H 783.891 4.75495 4.5193 0
M  V30 8560 H 783.808 6.40928 4.00933 0
M  V30 8561 H 785.076 5.90637 5.08692 0
M  V30 8562 N 789.305 -0.326896 1.54172 0
M  V30 8563 C 790.553 -1.06313 1.71878 0
M  V30 8564 C 790.874 -1.88652 0.493498 0
M  V30 8565 O 790.144 -1.89608 -0.492522 0
M  V30 8566 H 788.724 -0.39549 0.633716 0
M  V30 8567 H 791.386 -0.364139 1.91468 0
M  V30 8568 H 790.482 -1.73105 2.59694 0
M  V30 8569 N 790.784 -1.46188 -0.588786 0
M  V30 8570 C 792.033 -1.50452 -1.34339 0
M  V30 8571 C 792.346 -0.158096 -1.9496 0
M  V30 8572 O 793.552 -0.0784918 -2.71387 0
M  V30 8573 C 792.008 -2.65074 -2.43441 0
M  V30 8574 C 791.616 -4.06111 -1.8915 0
M  V30 8575 C 793.36 -2.78603 -3.20282 0
M  V30 8576 C 791.267 -5.12084 -2.95845 0
M  V30 8577 H 790.197 -0.559905 -0.504997 0
M  V30 8578 H 792.848 -1.72382 -0.629014 0
M  V30 8579 H 791.23 -2.36462 -3.1765 0
M  V30 8580 H 792.404 -4.44487 -1.21524 0
M  V30 8581 H 790.719 -3.97197 -1.24995 0
M  V30 8582 H 793.316 -3.54944 -3.99898 0
M  V30 8583 H 793.659 -1.85902 -3.72486 0
M  V30 8584 H 794.192 -3.06832 -2.53178 0
M  V30 8585 H 790.931 -6.06556 -2.48535 0
M  V30 8586 H 790.451 -4.78259 -3.61979 0
M  V30 8587 H 792.13 -5.37661 -3.59902 0
M  V30 8588 N 792.262 0.832906 -1.33792 0
M  V30 8589 C 793.673 1.40489 -1.22963 0
M  V30 8590 C 794.024 1.95633 0.149026 0
M  V30 8591 O 793.149 1.8928 1.04891 0
M  V30 8592 C 793.744 2.55387 -2.22627 0
M  V30 8593 C 792.303 3.08522 -2.15618 0
M  V30 8594 C 791.45 1.81347 -2.09782 0
M  V30 8595 H 794.401 0.638156 -1.45304 0
M  V30 8596 H 794.422 3.33193 -1.83746 0
M  V30 8597 H 793.934 2.15222 -3.22957 0
M  V30 8598 H 792.035 3.53217 -1.18611 0
M  V30 8599 H 792.148 3.6829 -3.0643 0
M  V30 8600 H 790.512 2.01839 -1.55349 0
M  V30 8601 H 791.295 1.43369 -3.1193 0
M  V30 8602 N 793.74 1.17359 1.05189 0
M  V30 8603 C 794.97 0.985099 1.81602 0
M  V30 8604 C 795.378 -0.469872 1.83273 0
M  V30 8605 O 794.721 -1.33806 1.25864 0
M  V30 8606 C 794.783 1.44956 3.2898 0
M  V30 8607 C 794.447 2.92666 3.50993 0
M  V30 8608 C 795.444 3.906 3.43115 0
M  V30 8609 C 793.129 3.30841 3.77954 0
M  V30 8610 C 795.123 5.24709 3.61883 0
M  V30 8611 C 792.81 4.65116 3.96371 0
M  V30 8612 C 793.808 5.61859 3.88335 0
M  V30 8613 O 793.496 6.93704 4.06238 0
M  V30 8614 H 793.228 0.348731 0.579105 0
M  V30 8615 H 795.782 1.56066 1.33539 0
M  V30 8616 H 794.012 0.817559 3.77959 0
M  V30 8617 H 795.701 1.22674 3.86919 0
M  V30 8618 H 796.467 3.62453 3.22262 0
M  V30 8619 H 792.346 2.5611 3.83313 0
M  V30 8620 H 795.89 6.00205 3.55527 0
M  V30 8621 H 791.787 4.92969 4.16715 0
M  V30 8622 H 792.555 7.00443 4.23463 0
M  V30 8623 N 795.218 -1.23913 0.973828 0
M  V30 8624 C 796.181 -2.23367 0.51378 0
M  V30 8625 C 797.181 -1.55923 -0.39302 0
M  V30 8626 O 798.371 -1.73187 -0.187626 0
M  V30 8627 C 795.503 -3.39944 -0.255152 0
M  V30 8628 H 796.696 -2.65581 1.39307 0
M  V30 8629 H 794.249 -1.36632 0.759039 0
M  V30 8630 H 794.984 -3.03177 -1.15127 0
M  V30 8631 H 794.769 -3.90098 0.395673 0
M  V30 8632 H 796.259 -4.13749 -0.565842 0
M  V30 8633 N 796.696 -0.74468 -1.38897 0
M  V30 8634 C 798.107 -0.36568 -1.83084 0
M  V30 8635 C 798.458 1.10436 -1.62168 0
M  V30 8636 O 797.583 1.85281 -1.11804 0
M  V30 8637 C 798.178 -0.656946 -3.3237 0
M  V30 8638 C 796.737 -0.331329 -3.74939 0
M  V30 8639 C 795.884 -0.914661 -2.61781 0
M  V30 8640 H 798.835 -0.941551 -1.27752 0
M  V30 8641 H 798.856 0.0679546 -3.80439 0
M  V30 8642 H 798.368 -1.72693 -3.47561 0
M  V30 8643 H 796.469 0.732426 -3.6533 0
M  V30 8644 H 796.582 -0.820655 -4.72019 0
M  V30 8645 H 794.946 -0.34063 -2.52412 0
M  V30 8646 H 795.729 -1.98949 -2.79775 0
M  V30 8647 N 798.174 1.49689 -0.493057 0
M  V30 8648 C 799.084 2.32746 0.294358 0
M  V30 8649 C 800.1 1.44117 0.975003 0
M  V30 8650 O 801.276 1.77149 0.958138 0
M  V30 8651 C 798.341 3.19358 1.34949 0
M  V30 8652 C 797.402 4.2383 0.683122 0
M  V30 8653 C 796.635 5.06303 1.68798 0
M  V30 8654 O 796.858 4.90172 2.91698 0
M  V30 8655 O 795.792 5.88826 1.24768 0
M  V30 8656 H 799.618 3.01247 -0.385254 0
M  V30 8657 H 797.203 1.47216 -0.254519 0
M  V30 8658 H 799.085 3.73037 1.96014 0
M  V30 8659 H 797.76 2.53561 2.01217 0
M  V30 8660 H 796.667 3.74086 0.0329351 0
M  V30 8661 H 798 4.9216 0.0630192 0
M  V30 8662 N 799.652 0.226554 1.55963 0
M  V30 8663 C 800.882 -0.407915 2.02533 0
M  V30 8664 C 801.29 -1.53539 1.10554 0
M  V30 8665 O 800.633 -1.8338 0.108409 0
M  V30 8666 C 800.695 -0.996081 3.45425 0
M  V30 8667 C 800.359 -0.00341651 4.57 0
M  V30 8668 C 801.356 0.798782 5.13727 0
M  V30 8669 C 799.041 0.116786 5.02164 0
M  V30 8670 C 801.035 1.70784 6.14094 0
M  V30 8671 C 798.722 1.02937 6.02368 0
M  V30 8672 C 799.72 1.82344 6.5821 0
M  V30 8673 O 799.408 2.72067 7.56462 0
M  V30 8674 H 799.14 -0.103524 0.668026 0
M  V30 8675 H 801.694 0.341937 2.02534 0
M  V30 8676 H 799.924 -1.79512 3.42509 0
M  V30 8677 H 801.613 -1.53848 3.75614 0
M  V30 8678 H 802.379 0.716393 4.7968 0
M  V30 8679 H 798.258 -0.491172 4.58376 0
M  V30 8680 H 801.802 2.32807 6.57607 0
M  V30 8681 H 797.699 1.11276 6.35836 0
M  V30 8682 H 798.467 2.66199 7.74003 0
M  V30 8683 N 801.13 -1.57531 -0.0467866 0
M  V30 8684 C 802.077 -2.05387 -1.05285 0
M  V30 8685 C 803.047 -0.939385 -1.36985 0
M  V30 8686 O 804.232 -1.20877 -1.47626 0
M  V30 8687 C 801.372 -2.52343 -2.35408 0
M  V30 8688 C 800.485 -3.77512 -2.10022 0
M  V30 8689 C 799.62 -4.1315 -3.33887 0
M  V30 8690 C 798.659 -5.31286 -3.03976 0
M  V30 8691 N 797.796 -5.62441 -4.20243 0
M  V30 8692 H 802.636 -2.91095 -0.637788 0
M  V30 8693 H 800.173 -1.43939 -0.303322 0
M  V30 8694 H 802.131 -2.77628 -3.11413 0
M  V30 8695 H 800.761 -1.69577 -2.7467 0
M  V30 8696 H 799.813 -3.59417 -1.24594 0
M  V30 8697 H 801.125 -4.63644 -1.83945 0
M  V30 8698 H 800.279 -4.39469 -4.18273 0
M  V30 8699 H 799.018 -3.25634 -3.63062 0
M  V30 8700 H 798.023 -5.04738 -2.17991 0
M  V30 8701 H 799.248 -6.20441 -2.76098 0
M  V30 8702 H 797.194 -4.77885 -4.49402 0
M  V30 8703 H 797.111 -6.43046 -3.97528 0
M  V30 8704 H 798.379 -5.93327 -5.05553 0
M  V30 8705 N 802.608 0.318715 -1.54344 0
M  V30 8706 C 803.833 1.07987 -1.77069 0
M  V30 8707 C 804.258 1.80766 -0.520117 0
M  V30 8708 O 803.616 1.73424 0.528566 0
M  V30 8709 C 803.664 2.04987 -2.96669 0
M  V30 8710 O 802.768 3.12974 -2.68554 0
M  V30 8711 H 802.109 0.311109 -0.586606 0
M  V30 8712 H 804.639 0.361533 -2.0138 0
M  V30 8713 H 804.649 2.47771 -3.2415 0
M  V30 8714 H 803.324 1.51417 -3.87357 0
M  V30 8715 H 801.901 2.74831 -2.52037 0
M  V30 8716 N 804.086 1.46499 0.581025 0
M  V30 8717 C 805.034 1.57562 1.71105 0
M  V30 8718 C 806.028 0.44403 1.63477 0
M  V30 8719 O 807.234 0.620964 1.6895 0
M  V30 8720 H 803.609 0.495415 0.565746 0
M  V30 8721 H 805.58 2.5257 1.58905 0
M  V30 8722 C 804.329 1.58465 3.0949 0
M  V30 8723 H 803.652 2.44877 3.16031 0
M  V30 8724 H 805.092 1.70261 3.88313 0
M  V30 8725 C 803.551 0.313596 3.35437 0
M  V30 8726 O 804.081 -0.595456 3.97262 0
M  V30 8727 N 802.287 0.200986 2.89904 0
M  V30 8728 H 801.834 0.941643 2.39773 0
M  V30 8729 H 801.792 -0.648577 3.07638 0
M  V30 8730 N 805.565 -0.825799 1.34232 0
M  V30 8731 C 806.528 -1.91808 1.25468 0
M  V30 8732 C 807.528 -1.59893 0.170567 0
M  V30 8733 O 808.718 -1.68986 0.422996 0
M  V30 8734 C 805.85 -3.27786 0.93644 0
M  V30 8735 H 807.043 -2.01003 2.22571 0
M  V30 8736 H 804.596 -1.01944 1.18479 0
M  V30 8737 H 805.331 -3.24285 -0.0315408 0
M  V30 8738 H 805.116 -3.52333 1.72057 0
M  V30 8739 H 806.606 -4.07782 0.900214 0
M  V30 8740 N 807.043 -1.17915 -1.04565 0
M  V30 8741 C 808.006 -0.903787 -2.10628 0
M  V30 8742 C 809.006 0.10873 -1.60432 0
M  V30 8743 O 810.196 -0.124152 -1.73757 0
M  V30 8744 C 807.328 -0.355017 -3.39046 0
M  V30 8745 H 808.521 -1.84425 -2.3649 0
M  V30 8746 H 806.074 -0.990477 -1.2091 0
M  V30 8747 H 806.809 0.592297 -3.18845 0
M  V30 8748 H 806.594 -1.08484 -3.76794 0
M  V30 8749 H 808.084 -0.180891 -4.17208 0
M  V30 8750 N 808.521 1.23394 -0.980386 0
M  V30 8751 C 809.746 1.96384 -0.666935 0
M  V30 8752 C 810.171 1.72087 0.759456 0
M  V30 8753 O 809.529 0.992328 1.51732 0
M  V30 8754 C 809.577 3.47499 -0.963177 0
M  V30 8755 O 808.681 4.12363 -0.0552051 0
M  V30 8756 H 808.022 0.614797 -0.250839 0
M  V30 8757 H 810.552 1.56831 -1.31398 0
M  V30 8758 H 810.562 3.97953 -0.899877 0
M  V30 8759 H 809.237 3.6451 -2.00264 0
M  V30 8760 H 807.814 3.72499 -0.172914 0
M  V30 8761 N 809.999 0.752036 1.385 0
M  V30 8762 C 811.227 0.318274 2.04437 0
M  V30 8763 C 811.642 -1.05285 1.56718 0
M  V30 8764 O 810.999 -1.66844 0.73956 0
M  V30 8765 C 811.05 0.330106 3.5999 0
M  V30 8766 O 810.771 1.64712 4.05957 0
M  V30 8767 C 812.272 -0.117713 4.43144 0
M  V30 8768 H 809.492 0.136228 0.657026 0
M  V30 8769 H 812.036 1.02045 1.7722 0
M  V30 8770 H 810.191 -0.323323 3.86048 0
M  V30 8771 H 810.605 1.57225 5.0038 0
M  V30 8772 H 812.079 -0.0582735 5.51969 0
M  V30 8773 H 812.556 -1.16538 4.23457 0
M  V30 8774 H 813.162 0.506784 4.2227 0
M  V30 8775 N 811.477 -1.49425 0.500989 0
M  V30 8776 C 812.726 -2.01649 -0.04538 0
M  V30 8777 C 813.039 -1.38572 -1.38047 0
M  V30 8778 O 814.245 -1.82124 -2.01353 0
M  V30 8779 C 812.701 -3.5966 -0.131337 0
M  V30 8780 C 812.309 -4.3171 1.19711 0
M  V30 8781 C 814.053 -4.19828 -0.628071 0
M  V30 8782 C 811.96 -5.81579 1.07332 0
M  V30 8783 H 810.89 -0.753715 -0.0207329 0
M  V30 8784 H 813.541 -1.71962 0.640407 0
M  V30 8785 H 811.923 -3.86063 -0.881574 0
M  V30 8786 H 813.097 -4.17008 1.96064 0
M  V30 8787 H 811.412 -3.83286 1.62729 0
M  V30 8788 H 814.009 -5.2958 -0.738198 0
M  V30 8789 H 814.352 -3.83194 -1.6269 0
M  V30 8790 H 814.885 -3.97746 0.0656314 0
M  V30 8791 H 811.624 -6.22738 2.04642 0
M  V30 8792 H 811.144 -5.98774 0.350679 0
M  V30 8793 H 812.823 -6.42614 0.752047 0
M  V30 8794 N 812.955 -0.234822 -1.55841 0
M  V30 8795 C 813.865 0.680828 -2.24504 0
M  V30 8796 C 814.881 1.20306 -1.25708 0
M  V30 8797 O 816.057 1.24188 -1.58554 0
M  V30 8798 C 813.122 1.86636 -2.92178 0
M  V30 8799 C 812.183 1.3848 -4.06352 0
M  V30 8800 C 811.416 2.51382 -4.70789 0
M  V30 8801 O 811.639 3.69831 -4.34259 0
M  V30 8802 O 810.573 2.21828 -5.59532 0
M  V30 8803 H 814.399 0.12583 -3.03439 0
M  V30 8804 H 811.984 -0.00381817 -1.494 0
M  V30 8805 H 813.866 2.55845 -3.34845 0
M  V30 8806 H 812.541 2.40921 -2.16192 0
M  V30 8807 H 811.448 0.660341 -3.68226 0
M  V30 8808 H 812.781 0.888177 -4.8412 0
M  V30 8809 N 814.433 1.57553 0.0384317 0
M  V30 8810 C 815.682 1.88022 0.730108 0
M  V30 8811 C 815.995 0.83209 1.77019 0
M  V30 8812 O 817.201 1.0257 2.51379 0
M  V30 8813 C 815.657 3.33637 1.3496 0
M  V30 8814 C 815.265 4.46659 0.346352 0
M  V30 8815 C 817.009 3.73266 2.02169 0
M  V30 8816 C 814.916 5.8333 0.973652 0
M  V30 8817 H 813.846 0.701496 0.276442 0
M  V30 8818 H 816.497 1.83493 -0.0158028 0
M  V30 8819 H 814.879 3.32882 2.1449 0
M  V30 8820 H 816.053 4.58868 -0.421558 0
M  V30 8821 H 814.368 4.15802 -0.223133 0
M  V30 8822 H 816.965 4.72689 2.49938 0
M  V30 8823 H 817.308 3.04776 2.8358 0
M  V30 8824 H 817.841 3.76156 1.29427 0
M  V30 8825 H 814.58 6.55197 0.199163 0
M  V30 8826 H 814.1 5.7486 1.71162 0
M  V30 8827 H 815.779 6.29757 1.48376 0
M  V30 8828 N 815.911 -0.310526 1.54511 0
M  V30 8829 C 816.861 -1.38405 1.81185 0
M  V30 8830 C 817.845 -1.46355 0.668499 0
M  V30 8831 O 819.037 -1.50668 0.928873 0
M  V30 8832 C 816.166 -2.75059 2.0542 0
M  V30 8833 C 815.252 -2.7137 3.25913 0
M  V30 8834 N 815.643 -2.37298 4.4668 0
M  V30 8835 C 813.941 -3.02484 3.27749 0
M  V30 8836 C 814.642 -2.42669 5.28665 0
M  V30 8837 N 813.618 -2.79639 4.66158 0
M  V30 8838 H 817.42 -1.11012 2.72128 0
M  V30 8839 H 814.934 -0.519068 1.53881 0
M  V30 8840 H 816.931 -3.52451 2.22674 0
M  V30 8841 H 815.591 -3.03372 1.15739 0
M  V30 8842 H 816.602 -2.09917 4.73451 0
M  V30 8843 H 813.279 -3.35754 2.48144 0
M  V30 8844 H 814.669 -2.19206 6.35136 0
M  V30 8845 N 817.389 -1.46805 -0.573248 0
M  V30 8846 C 818.337 -1.58468 -1.70267 0
M  V30 8847 C 819.331 -0.452694 -1.63239 0
M  V30 8848 O 820.537 -0.629915 -1.68618 0
M  V30 8849 H 816.912 -0.498408 -0.56311 0
M  V30 8850 H 818.883 -2.5341 -1.57563 0
M  V30 8851 C 817.632 -1.60104 -3.08645 0
M  V30 8852 H 816.955 -2.4655 -3.14727 0
M  V30 8853 H 818.395 -1.72318 -3.87405 0
M  V30 8854 C 816.854 -0.33138 -3.35266 0
M  V30 8855 O 817.384 0.57438 -3.97572 0
M  V30 8856 N 815.59 -0.216358 -2.89793 0
M  V30 8857 H 815.137 -0.954345 -2.3927 0
M  V30 8858 H 815.095 0.632253 -3.07977 0
M  V30 8859 N 818.867 0.818669 -1.34668 0
M  V30 8860 C 820.116 1.57017 -1.26604 0
M  V30 8861 C 820.429 1.94936 0.161036 0
M  V30 8862 O 821.635 2.69051 0.36386 0
M  V30 8863 C 820.091 2.83305 -2.2196 0
M  V30 8864 C 819.699 2.52671 -3.69948 0
M  V30 8865 C 821.443 3.61324 -2.22813 0
M  V30 8866 C 819.35 3.75178 -4.5716 0
M  V30 8867 H 818.28 0.589323 -0.470335 0
M  V30 8868 H 820.931 0.900956 -1.59859 0
M  V30 8869 H 819.313 3.51874 -1.81661 0
M  V30 8870 H 820.487 1.92186 -4.18809 0
M  V30 8871 H 818.802 1.8792 -3.71584 0
M  V30 8872 H 821.399 4.52294 -2.85192 0
M  V30 8873 H 821.742 3.97759 -1.22857 0
M  V30 8874 H 822.275 2.99703 -2.61578 0
M  V30 8875 H 819.014 3.43861 -5.58068 0
M  V30 8876 H 818.534 4.34931 -4.13031 0
M  V30 8877 H 820.213 4.42542 -4.71981 0
M  V30 8878 N 820.346 1.18468 1.03938 0
M  V30 8879 C 821.623 0.890435 1.74157 0
M  V30 8880 C 822.003 -0.606409 2.02203 0
M  V30 8881 O 821.351 -1.5615 1.66822 0
M  V30 8882 C 821.561 1.73906 3.02585 0
M  V30 8883 C 822.909 1.96686 3.76297 0
M  V30 8884 O 823.933 1.70969 3.12487 0
M  V30 8885 O 822.792 2.39986 4.90988 0
M  V30 8886 H 819.886 0.330889 0.757919 0
M  V30 8887 H 822.432 1.29228 1.09992 0
M  V30 8888 H 821.204 2.75369 2.78006 0
M  V30 8889 H 820.827 1.33581 3.74489 0
M  V30 8890 N 821.824 -1.22873 0.986916 0
M  V30 8891 C 823.101 -1.86939 0.575589 0
M  V30 8892 C 823.481 -1.88656 -0.947205 0
M  V30 8893 O 822.829 -1.3728 -1.82665 0
M  V30 8894 C 823.039 -3.28117 1.18914 0
M  V30 8895 C 824.387 -4.04659 1.28593 0
M  V30 8896 O 825.411 -3.3736 1.14308 0
M  V30 8897 O 824.27 -5.25112 1.51391 0
M  V30 8898 H 821.364 -0.803748 0.194724 0
M  V30 8899 H 823.91 -1.30698 1.08241 0
M  V30 8900 H 822.682 -3.21468 2.231 0
M  V30 8901 H 822.305 -3.91956 0.667535 0
M  V30 8902 N 823.302 -0.75937 -1.38099 0
M  V30 8903 C 824.25 -0.124954 -2.32264 0
M  V30 8904 C 825.244 0.698863 -1.54312 0
M  V30 8905 O 826.45 0.597312 -1.698 0
M  V30 8906 H 822.825 -0.0216142 -0.751689 0
M  V30 8907 H 824.796 -0.935115 -2.83369 0
M  V30 8908 C 823.545 0.749463 -3.39527 0
M  V30 8909 H 822.868 0.124932 -3.99605 0
M  V30 8910 H 824.308 1.16055 -4.07808 0
M  V30 8911 C 822.767 1.89464 -2.78577 0
M  V30 8912 O 823.297 2.98923 -2.68343 0
M  V30 8913 N 821.503 1.69145 -2.36301 0
M  V30 8914 H 821.05 0.801157 -2.44825 0
M  V30 8915 H 821.008 2.45936 -1.95864 0
M  V30 8916 N 824.78 1.49157 -0.508906 0
M  V30 8917 C 826.008 2.06879 0.0293734 0
M  V30 8918 C 826.423 1.36823 1.30095 0
M  V30 8919 O 825.78 0.449034 1.7689 0
M  V30 8920 C 825.831 3.60423 0.278791 0
M  V30 8921 O 825.552 4.27844 -0.942389 0
M  V30 8922 C 827.053 4.34881 0.859825 0
M  V30 8923 H 824.273 0.67057 -0.0240184 0
M  V30 8924 H 826.817 1.91834 -0.708526 0
M  V30 8925 H 824.972 3.75145 0.966689 0
M  V30 8926 H 825.386 5.19671 -0.710097 0
M  V30 8927 H 826.86 5.43161 0.983884 0
M  V30 8928 H 827.337 3.9789 1.85958 0
M  V30 8929 H 827.943 4.24785 0.209152 0
M  V30 8930 N 826.258 0.243083 1.55714 0
M  V30 8931 C 827.507 -0.383188 1.98027 0
M  V30 8932 C 827.82 -1.59347 1.13436 0
M  V30 8933 O 829.026 -2.29065 1.45745 0
M  V30 8934 C 827.482 -0.733135 3.52354 0
M  V30 8935 C 827.09 0.455539 4.45678 0
M  V30 8936 C 828.834 -1.32381 4.03331 0
M  V30 8937 C 826.741 0.0819591 5.91343 0
M  V30 8938 H 825.671 -0.146944 0.739543 0
M  V30 8939 H 828.322 0.342697 1.80272 0
M  V30 8940 H 826.704 -1.51704 3.65789 0
M  V30 8941 H 827.878 1.23291 4.44 0
M  V30 8942 H 826.193 0.960886 4.05162 0
M  V30 8943 H 828.79 -1.61658 5.09677 0
M  V30 8944 H 829.133 -2.24698 3.50452 0
M  V30 8945 H 829.666 -0.602885 3.93205 0
M  V30 8946 H 826.405 0.972171 6.48251 0
M  V30 8947 H 825.925 -0.659291 5.96166 0
M  V30 8948 H 827.604 -0.3372 6.46121 0
M  V30 8949 N 827.736 -1.57571 -0.0300757 0
M  V30 8950 C 828.966 -1.93204 -0.731828 0
M  V30 8951 C 829.374 -0.841156 -1.69473 0
M  V30 8952 O 828.717 0.191231 -1.82702 0
M  V30 8953 C 828.779 -3.2463 -1.54453 0
M  V30 8954 C 828.443 -4.50862 -0.746507 0
M  V30 8955 C 829.44 -5.19879 -0.0472309 0
M  V30 8956 C 827.125 -4.9738 -0.701347 0
M  V30 8957 C 829.119 -6.33692 0.686518 0
M  V30 8958 C 826.806 -6.11089 0.036148 0
M  V30 8959 C 827.804 -6.791 0.728841 0
M  V30 8960 O 827.492 -7.90635 1.45436 0
M  V30 8961 H 827.224 -0.6423 -0.210775 0
M  V30 8962 H 829.778 -2.05398 0.00804194 0
M  V30 8963 H 828.008 -3.0876 -2.32818 0
M  V30 8964 H 829.697 -3.45597 -2.1288 0
M  V30 8965 H 830.463 -4.84945 -0.0731582 0
M  V30 8966 H 826.342 -4.44288 -1.23001 0
M  V30 8967 H 829.886 -6.86711 1.22773 0
M  V30 8968 H 825.783 -6.45468 0.064002 0
M  V30 8969 H 826.551 -8.06988 1.36794 0
M  V30 8970 N 829.214 0.302327 -1.54673 0
M  V30 8971 C 830.146 1.39443 -1.81902 0
M  V30 8972 C 831.159 1.46891 -0.701914 0
M  V30 8973 O 832.348 1.49233 -0.979369 0
M  V30 8974 C 829.448 2.77824 -1.9408 0
M  V30 8975 C 828.621 2.93324 -3.24468 0
M  V30 8976 C 827.68 4.12196 -3.27079 0
M  V30 8977 O 826.706 4.04344 -4.00617 0
M  V30 8978 N 827.908 5.22768 -2.52376 0
M  V30 8979 H 830.673 1.1644 -2.76155 0
M  V30 8980 H 828.234 0.492392 -1.54231 0
M  V30 8981 H 830.226 3.5559 -1.9323 0
M  V30 8982 H 828.796 2.9378 -1.06828 0
M  V30 8983 H 828.016 2.02682 -3.38103 0
M  V30 8984 H 829.304 3.0059 -4.10516 0
M  V30 8985 H 828.702 5.32027 -1.92259 0
M  V30 8986 H 827.259 5.98874 -2.57281 0
M  V30 8987 N 830.692 1.47107 0.565454 0
M  V30 8988 C 831.922 1.56681 1.34664 0
M  V30 8989 C 832.33 0.213011 1.87997 0
M  V30 8990 O 831.673 -0.802629 1.65238 0
M  V30 8991 C 831.735 2.52528 2.55871 0
M  V30 8992 C 831.399 3.98403 2.23883 0
M  V30 8993 C 832.396 4.87125 1.81673 0
M  V30 8994 C 830.081 4.43674 2.35496 0
M  V30 8995 C 832.075 6.19135 1.51494 0
M  V30 8996 C 829.762 5.75714 2.0493 0
M  V30 8997 C 830.76 6.63266 1.62996 0
M  V30 8998 O 830.448 7.92853 1.32813 0
M  V30 8999 H 830.18 0.531967 0.417117 0
M  V30 9000 H 832.734 1.93368 0.692669 0
M  V30 9001 H 830.964 2.10893 3.24131 0
M  V30 9002 H 832.653 2.5232 3.17945 0
M  V30 9003 H 833.419 4.534 1.72201 0
M  V30 9004 H 829.298 3.7574 2.67096 0
M  V30 9005 H 832.842 6.87429 1.1869 0
M  V30 9006 H 828.739 6.08983 2.14031 0
M  V30 9007 H 829.507 8.0528 1.46513 0
M  V30 9008 N 832.17 -0.811516 1.35101 0
M  V30 9009 C 833.1 -1.9378 1.30275 0
M  V30 9010 C 834.081 -1.69165 0.178075 0
M  V30 9011 O 835.266 -1.90599 0.372256 0
M  V30 9012 C 832.396 -3.30439 1.06899 0
M  V30 9013 C 831.35 -3.69523 2.15955 0
M  V30 9014 C 830.676 -5.0429 1.77751 0
M  V30 9015 C 831.976 -3.80419 3.57881 0
M  V30 9016 H 833.67 -1.98075 2.24514 0
M  V30 9017 H 831.216 -0.951586 1.08078 0
M  V30 9018 H 833.169 -4.08828 1.02164 0
M  V30 9019 H 831.893 -3.26473 0.0910462 0
M  V30 9020 H 830.552 -2.93416 2.19778 0
M  V30 9021 H 830.2 -4.96823 0.785876 0
M  V30 9022 H 829.9 -5.31411 2.5075 0
M  V30 9023 H 831.424 -5.85125 1.74533 0
M  V30 9024 H 832.838 -4.49051 3.56407 0
M  V30 9025 H 831.235 -4.19005 4.29598 0
M  V30 9026 H 832.305 -2.82105 3.94391 0
M  V30 9027 N 833.648 -1.19017 -1.03309 0
M  V30 9028 C 834.878 -1.01387 -1.80012 0
M  V30 9029 C 835.286 0.440655 -1.83997 0
M  V30 9030 O 834.629 1.31786 -1.27977 0
M  V30 9031 C 834.691 -1.50171 -3.26633 0
M  V30 9032 C 834.355 -2.98213 -3.46292 0
M  V30 9033 C 835.352 -3.96009 -3.36857 0
M  V30 9034 C 833.037 -3.36812 -3.72643 0
M  V30 9035 C 835.031 -5.30399 -3.5349 0
M  V30 9036 C 832.718 -4.71363 -3.88922 0
M  V30 9037 C 833.716 -5.67966 -3.79347 0
M  V30 9038 O 833.404 -7.00079 -3.95151 0
M  V30 9039 H 833.136 -0.357899 -0.573484 0
M  V30 9040 H 835.69 -1.58171 -1.31039 0
M  V30 9041 H 833.92 -0.877586 -3.7661 0
M  V30 9042 H 835.609 -1.28814 -3.84918 0
M  V30 9043 H 836.375 -3.67534 -3.16455 0
M  V30 9044 H 832.254 -2.62175 -3.7919 0
M  V30 9045 H 835.798 -6.05786 -3.45933 0
M  V30 9046 H 831.695 -4.99536 -4.0882 0
M  V30 9047 H 832.463 -7.07092 -4.12266 0
M  V30 9048 N 835.127 1.22348 -0.993418 0
M  V30 9049 C 836.09 2.22522 -0.549251 0
M  V30 9050 C 837.09 1.56529 0.368164 0
M  V30 9051 O 838.28 1.73463 0.16005 0
M  V30 9052 C 835.412 3.40307 0.201037 0
M  V30 9053 H 836.605 2.63332 -1.43515 0
M  V30 9054 H 834.158 1.35407 -0.78068 0
M  V30 9055 H 834.893 3.0497 1.10289 0
M  V30 9056 H 834.678 3.8942 -0.457685 0
M  V30 9057 H 836.168 4.14597 0.499946 0
M  V30 9058 N 836.605 0.766683 1.37694 0
M  V30 9059 C 837.537 0.107798 2.28946 0
M  V30 9060 C 838.55 -0.669701 1.48387 0
M  V30 9061 O 839.739 -0.508629 1.711 0
M  V30 9062 C 836.839 -0.871084 3.27514 0
M  V30 9063 C 836.012 -0.148471 4.37148 0
M  V30 9064 C 835.071 -1.03998 5.1582 0
M  V30 9065 O 834.097 -0.505639 5.6695 0
M  V30 9066 N 835.299 -2.36679 5.3006 0
M  V30 9067 H 838.064 0.89154 2.86132 0
M  V30 9068 H 835.625 0.618593 1.49616 0
M  V30 9069 H 837.617 -1.47081 3.77027 0
M  V30 9070 H 836.187 -1.55582 2.71133 0
M  V30 9071 H 835.407 0.632117 3.89099 0
M  V30 9072 H 836.695 0.351045 5.07588 0
M  V30 9073 H 836.093 -2.82532 4.90094 0
M  V30 9074 H 834.65 -2.9167 5.82899 0
M  V30 9075 N 838.083 -1.48885 0.516809 0
M  V30 9076 C 839.03 -2.29408 -0.253125 0
M  V30 9077 C 840 -1.36533 -0.945935 0
M  V30 9078 O 841.185 -1.65495 -0.949527 0
M  V30 9079 C 838.325 -3.19592 -1.30211 0
M  V30 9080 C 837.438 -4.27535 -0.61948 0
M  V30 9081 C 836.573 -5.04916 -1.65026 0
M  V30 9082 C 835.612 -6.04677 -0.950368 0
M  V30 9083 N 834.749 -6.75164 -1.92608 0
M  V30 9084 H 839.589 -2.94738 0.439744 0
M  V30 9085 H 837.126 -1.45311 0.2287 0
M  V30 9086 H 839.084 -3.70267 -1.92245 0
M  V30 9087 H 837.714 -2.56213 -1.96353 0
M  V30 9088 H 836.766 -3.80228 0.114505 0
M  V30 9089 H 838.078 -4.98752 -0.0693016 0
M  V30 9090 H 837.232 -5.59539 -2.34523 0
M  V30 9091 H 835.971 -4.33508 -2.23432 0
M  V30 9092 H 834.976 -5.4927 -0.241252 0
M  V30 9093 H 836.201 -6.78077 -0.372599 0
M  V30 9094 H 834.147 -6.06517 -2.49946 0
M  V30 9095 H 834.064 -7.4241 -1.42699 0
M  V30 9096 H 835.332 -7.34384 -2.61345 0
M  V30 9097 N 839.561 -0.251338 -1.55583 0
M  V30 9098 C 840.786 0.379136 -2.03905 0
M  V30 9099 C 841.211 1.50428 -1.12929 0
M  V30 9100 O 840.569 1.80882 -0.123114 0
M  V30 9101 C 840.617 0.86009 -3.50193 0
M  V30 9102 O 839.721 1.96932 -3.62342 0
M  V30 9103 H 839.062 0.0820183 -0.658915 0
M  V30 9104 H 841.592 -0.378692 -2.01065 0
M  V30 9105 H 841.602 1.16214 -3.91099 0
M  V30 9106 H 840.277 0.0367559 -4.15884 0
M  V30 9107 H 838.854 1.67163 -3.33333 0
M  V30 9108 N 841.039 1.57585 0.0217189 0
M  V30 9109 C 842.45 1.7787 0.567377 0
M  V30 9110 C 842.801 0.883337 1.7519 0
M  V30 9111 O 841.926 0.0800819 2.16252 0
M  V30 9112 C 842.521 3.2257 1.03606 0
M  V30 9113 C 841.08 3.44026 1.52718 0
M  V30 9114 C 840.227 2.73313 0.468545 0
M  V30 9115 H 843.178 1.57377 -0.2045 0
M  V30 9116 H 843.199 3.29488 1.9031 0
M  V30 9117 H 842.711 3.87711 0.173739 0
M  V30 9118 H 840.812 2.8407 2.41111 0
M  V30 9119 H 840.925 4.52659 1.56962 0
M  V30 9120 H 839.289 2.37299 0.925263 0
M  V30 9121 H 840.072 3.41141 -0.384438 0
M  V30 9122 N 842.517 -0.29412 1.54831 0
M  V30 9123 C 843.745 -1.04724 1.78439 0
M  V30 9124 C 844.16 -1.80695 0.547239 0
M  V30 9125 O 843.517 -1.75989 -0.483141 0
M  V30 9126 C 843.568 -2.02242 2.99634 0
M  V30 9127 O 843.289 -1.29352 4.18568 0
M  V30 9128 C 844.79 -2.89537 3.35683 0
M  V30 9129 H 842.01 -0.310285 0.594949 0
M  V30 9130 H 844.554 -0.331306 2.01798 0
M  V30 9131 H 842.709 -2.69328 2.78462 0
M  V30 9132 H 843.123 -1.94901 4.86943 0
M  V30 9133 H 844.597 -3.538 4.23709 0
M  V30 9134 H 845.074 -3.58201 2.54143 0
M  V30 9135 H 845.68 -2.27973 3.59038 0
M  V30 9136 N 843.995 -1.47404 -0.557645 0
M  V30 9137 C 845.223 -1.57622 -1.34026 0
M  V30 9138 C 845.638 -0.226256 -1.87439 0
M  V30 9139 O 844.995 0.78043 -1.64971 0
M  V30 9140 C 845.046 -2.60111 -2.51047 0
M  V30 9141 O 844.767 -3.89866 -1.99841 0
M  V30 9142 C 846.268 -2.80508 -3.43264 0
M  V30 9143 H 843.488 -0.532271 -0.40857 0
M  V30 9144 H 846.032 -1.93019 -0.675555 0
M  V30 9145 H 844.187 -2.27648 -3.13457 0
M  V30 9146 H 844.601 -4.45864 -2.76234 0
M  V30 9147 H 846.075 -3.56084 -4.21792 0
M  V30 9148 H 846.552 -1.88314 -3.9678 0
M  V30 9149 H 847.158 -3.14166 -2.86671 0
M  V30 9150 N 845.473 0.80434 -1.35529 0
M  V30 9151 C 846.403 1.93086 -1.31301 0
M  V30 9152 C 847.384 1.69068 -0.187044 0
M  V30 9153 O 848.569 1.90399 -0.382359 0
M  V30 9154 C 845.699 3.29867 -1.0865 0
M  V30 9155 C 844.653 3.68373 -2.17911 0
M  V30 9156 C 843.979 5.0334 -1.80423 0
M  V30 9157 C 845.279 3.78516 -3.59893 0
M  V30 9158 H 846.973 1.96882 -2.25561 0
M  V30 9159 H 844.519 0.945841 -1.08581 0
M  V30 9160 H 846.472 4.08281 -1.04331 0
M  V30 9161 H 845.196 3.2642 -0.108359 0
M  V30 9162 H 843.855 2.92247 -2.21331 0
M  V30 9163 H 843.503 4.96399 -0.812213 0
M  V30 9164 H 843.203 5.30074 -2.53565 0
M  V30 9165 H 844.727 5.84191 -1.77633 0
M  V30 9166 H 846.141 4.47155 -3.58783 0
M  V30 9167 H 844.538 4.16721 -4.31814 0
M  V30 9168 H 845.608 2.8001 -3.95882 0
M  V30 9169 N 846.951 1.19563 1.02676 0
M  V30 9170 C 847.883 0.893054 2.11086 0
M  V30 9171 C 848.896 -0.115101 1.62393 0
M  V30 9172 O 850.085 0.11459 1.78132 0
M  V30 9173 C 847.185 0.315533 3.37428 0
M  V30 9174 C 846.358 1.37276 4.153 0
M  V30 9175 C 845.417 0.808398 5.19953 0
M  V30 9176 O 844.443 1.48661 5.49444 0
M  V30 9177 N 845.645 -0.387253 5.79207 0
M  V30 9178 H 848.41 1.82622 2.37633 0
M  V30 9179 H 845.971 1.09792 1.18984 0
M  V30 9180 H 847.963 -0.0759166 4.04629 0
M  V30 9181 H 846.533 -0.521961 3.08211 0
M  V30 9182 H 845.753 1.93897 3.43217 0
M  V30 9183 H 847.041 2.08509 4.64114 0
M  V30 9184 H 846.439 -0.955725 5.57568 0
M  V30 9185 H 844.996 -0.720457 6.47806 0
M  V30 9186 N 848.429 -1.21819 0.999893 0
M  V30 9187 C 849.845 -1.42847 0.711824 0
M  V30 9188 C 850.045 -1.88391 -0.714928 0
M  V30 9189 O 849.101 -2.0422 -1.48494 0
M  V30 9190 C 850.414 -2.46417 1.72334 0
M  V30 9191 C 851.962 -2.60207 1.73958 0
M  V30 9192 C 852.437 -3.67005 2.73992 0
M  V30 9193 N 853.928 -3.7447 2.72628 0
M  V30 9194 C 854.663 -4.56718 3.46693 0
M  V30 9195 N 854.159 -5.42904 4.3038 0
M  V30 9196 N 855.952 -4.51094 3.35366 0
M  V30 9197 H 848.103 -0.905656 1.92124 0
M  V30 9198 H 850.366 -0.459893 0.828977 0
M  V30 9199 H 850.072 -2.19914 2.74465 0
M  V30 9200 H 849.946 -3.45137 1.52186 0
M  V30 9201 H 852.333 -2.8605 0.725217 0
M  V30 9202 H 852.414 -1.61739 1.98177 0
M  V30 9203 H 852.058 -3.41908 3.75582 0
M  V30 9204 H 851.988 -4.65058 2.4704 0
M  V30 9205 H 854.479 -3.12895 2.11909 0
M  V30 9206 H 854.792 -6.02704 4.83702 0
M  V30 9207 H 853.137 -5.42463 4.34464 0
M  V30 9208 H 856.328 -3.82791 2.69423 0
M  V30 9209 H 856.501 -5.1496 3.93344 0
M  V30 9210 N 849.908 -0.773975 -1.37286 0
M  V30 9211 C 851.157 -0.335977 -1.98882 0
M  V30 9212 C 851.47 1.09416 -1.62134 0
M  V30 9213 O 852.676 1.63366 -2.1685 0
M  V30 9214 C 851.132 -0.549756 -3.55676 0
M  V30 9215 C 850.74 -1.9903 -4.01361 0
M  V30 9216 C 852.484 -0.175493 -4.24137 0
M  V30 9217 C 850.391 -2.15156 -5.50874 0
M  V30 9218 H 849.321 -0.121877 -0.744085 0
M  V30 9219 H 851.972 -0.953419 -1.56787 0
M  V30 9220 H 850.354 0.137175 -3.95762 0
M  V30 9221 H 851.528 -2.71237 -3.72515 0
M  V30 9222 H 849.843 -2.32137 -3.4569 0
M  V30 9223 H 852.44 -0.274463 -5.33995 0
M  V30 9224 H 852.783 0.874524 -4.07011 0
M  V30 9225 H 853.316 -0.815058 -3.89361 0
M  V30 9226 H 850.055 -3.18485 -5.72929 0
M  V30 9227 H 849.575 -1.47435 -5.81397 0
M  V30 9228 H 851.254 -1.95124 -6.16876 0
M  V30 9229 N 851.386 1.48609 -0.524698 0
M  V30 9230 C 852.614 2.06899 0.00742946 0
M  V30 9231 C 853.029 1.38196 1.28637 0
M  V30 9232 O 852.386 0.467771 1.76403 0
M  V30 9233 C 852.437 3.60699 0.240548 0
M  V30 9234 O 852.158 4.26821 -0.987715 0
M  V30 9235 C 853.659 4.35769 0.813652 0
M  V30 9236 H 850.879 0.670278 -0.0311294 0
M  V30 9237 H 853.423 1.91071 -0.728832 0
M  V30 9238 H 851.578 3.76149 0.926845 0
M  V30 9239 H 851.992 5.18889 -0.765175 0
M  V30 9240 H 853.466 5.44174 0.926219 0
M  V30 9241 H 853.943 3.9984 1.81728 0
M  V30 9242 H 854.549 4.24983 0.164086 0
M  V30 9243 N 852.864 0.259585 1.55447 0
M  V30 9244 C 853.797 -0.675542 2.17972 0
M  V30 9245 C 854.775 -1.16362 1.13572 0
M  V30 9246 O 855.959 -1.23944 1.42021 0
M  V30 9247 C 853.086 -1.91952 2.79056 0
M  V30 9248 C 852.132 -1.56824 3.96621 0
M  V30 9249 S 852.965 -0.659846 5.31419 0
M  V30 9250 C 854.121 -1.91255 5.95963 0
M  V30 9251 H 854.354 -0.144236 2.9695 0
M  V30 9252 H 851.887 0.0439448 1.54337 0
M  V30 9253 H 853.845 -2.63362 3.14882 0
M  V30 9254 H 852.506 -2.42196 2 0
M  V30 9255 H 851.699 -2.49348 4.37997 0
M  V30 9256 H 851.301 -0.934472 3.62138 0
M  V30 9257 H 853.593 -2.85834 6.14252 0
M  V30 9258 H 854.536 -1.54207 6.91105 0
M  V30 9259 H 854.944 -2.07042 5.25161 0
M  V30 9260 N 854.342 -1.57594 -0.0133615 0
M  V30 9261 C 855.57 -1.94251 -0.712328 0
M  V30 9262 C 855.985 -0.86063 -1.68043 0
M  V30 9263 O 855.342 0.161632 -1.81783 0
M  V30 9264 C 855.393 -3.30891 -1.45581 0
M  V30 9265 O 855.114 -4.34924 -0.526539 0
M  V30 9266 C 856.615 -3.81926 -2.2505 0
M  V30 9267 H 853.835 -0.640737 -0.199241 0
M  V30 9268 H 856.379 -2.04472 0.0337855 0
M  V30 9269 H 854.534 -3.22019 -2.15366 0
M  V30 9270 H 854.948 -5.1389 -1.04962 0
M  V30 9271 H 856.422 -4.79999 -2.72589 0
M  V30 9272 H 856.899 -3.13934 -3.07152 0
M  V30 9273 H 857.505 -3.93931 -1.60308 0
M  V30 9274 N 855.82 0.285905 -1.54985 0
M  V30 9275 C 856.768 1.37302 -1.87752 0
M  V30 9276 C 857.762 1.51763 -0.752616 0
M  V30 9277 O 858.968 1.53701 -0.936805 0
M  V30 9278 H 855.343 0.458935 -0.59572 0
M  V30 9279 H 857.314 1.0691 -2.78591 0
M  V30 9280 C 856.063 2.72885 -2.15474 0
M  V30 9281 H 855.386 2.62545 -3.01513 0
M  V30 9282 H 856.826 3.47925 -2.42331 0
M  V30 9283 C 855.285 3.22989 -0.958124 0
M  V30 9284 O 855.815 4.01268 -0.186219 0
M  V30 9285 N 854.021 2.80503 -0.759354 0
M  V30 9286 H 853.568 2.16961 -1.38874 0
M  V30 9287 H 853.526 3.14375 0.0396937 0
M  V30 9288 N 857.298 1.47698 0.54982 0
M  V30 9289 C 858.523 1.58579 1.33669 0
M  V30 9290 C 858.948 0.239049 1.86575 0
M  V30 9291 O 858.306 -0.786256 1.63364 0
M  V30 9292 C 858.354 2.62029 2.47736 0
M  V30 9293 O 857.458 2.17813 3.50188 0
M  V30 9294 H 856.799 0.532447 0.396732 0
M  V30 9295 H 859.329 1.93536 0.6637 0
M  V30 9296 H 859.339 2.82682 2.94202 0
M  V30 9297 H 858.014 3.59812 2.08586 0
M  V30 9298 H 856.591 2.07291 3.09976 0
M  V30 9299 N 858.776 -0.797141 1.35954 0
M  V30 9300 C 860.022 -1.55698 1.29946 0
M  V30 9301 C 860.355 -1.93808 -0.123259 0
M  V30 9302 O 859.63 -1.62102 -1.07486 0
M  V30 9303 C 859.913 -2.83926 2.2149 0
M  V30 9304 C 859.766 -2.52232 3.72423 0
M  V30 9305 C 861.085 -3.85698 2.11955 0
M  V30 9306 H 858.204 -0.56488 0.47337 0
M  V30 9307 H 860.846 -0.916421 1.66438 0
M  V30 9308 H 858.996 -3.38588 1.905 0
M  V30 9309 H 860.668 -2.0368 4.13899 0
M  V30 9310 H 858.911 -1.85286 3.92239 0
M  V30 9311 H 859.582 -3.43782 4.31877 0
M  V30 9312 H 862.058 -3.40462 2.39218 0
M  V30 9313 H 860.934 -4.73182 2.78191 0
M  V30 9314 H 861.195 -4.28083 1.10442 0
M  V30 9315 N 860.254 -1.20106 -1.0204 0
M  V30 9316 C 861.531 -0.918029 -1.72718 0
M  V30 9317 C 861.911 0.574163 -2.03142 0
M  V30 9318 O 861.259 1.53476 -1.69285 0
M  V30 9319 C 861.469 -1.78698 -2.9978 0
M  V30 9320 C 862.817 -2.02648 -3.7312 0
M  V30 9321 O 863.841 -1.75919 -3.09727 0
M  V30 9322 O 862.7 -2.47767 -4.87107 0
M  V30 9323 H 859.794 -0.342904 -0.752559 0
M  V30 9324 H 862.34 -1.30961 -1.07923 0
M  V30 9325 H 861.112 -2.79757 -2.7359 0
M  V30 9326 H 860.735 -1.39522 -3.72316 0
M  V30 9327 N 861.732 1.21287 -1.00634 0
M  V30 9328 C 863.009 1.86 -0.605257 0
M  V30 9329 C 863.389 1.90139 0.917072 0
M  V30 9330 O 862.737 1.40169 1.80458 0
M  V30 9331 C 862.947 3.26183 -1.24119 0
M  V30 9332 C 864.295 4.02562 -1.35015 0
M  V30 9333 O 865.319 3.35499 -1.19661 0
M  V30 9334 O 864.178 5.22638 -1.59726 0
M  V30 9335 H 861.272 0.800549 -0.207486 0
M  V30 9336 H 863.818 1.28959 -1.10307 0
M  V30 9337 H 862.59 3.17878 -2.28186 0
M  V30 9338 H 862.213 3.90845 -0.729807 0
M  V30 9339 N 863.21 0.781244 1.36873 0
M  V30 9340 C 864.173 0.180094 2.28491 0
M  V30 9341 C 865.173 -0.617798 1.48458 0
M  V30 9342 O 866.363 -0.439991 1.68552 0
M  V30 9343 C 863.495 -0.751741 3.32508 0
M  V30 9344 H 864.688 0.987837 2.83164 0
M  V30 9345 H 862.241 0.550102 1.463 0
M  V30 9346 H 862.976 -1.58413 2.82977 0
M  V30 9347 H 862.761 -0.181649 3.91679 0
M  V30 9348 H 864.251 -1.16748 4.00949 0
M  V30 9349 N 864.689 -1.48329 0.532571 0
M  V30 9350 C 865.619 -2.32485 -0.217511 0
M  V30 9351 C 866.6 -1.42255 -0.932598 0
M  V30 9352 O 867.785 -1.7114 -0.917873 0
M  V30 9353 C 864.915 -3.23509 -1.26329 0
M  V30 9354 C 863.869 -4.22784 -0.666191 0
M  V30 9355 C 863.195 -5.0296 -1.81482 0
M  V30 9356 C 864.495 -5.21031 0.363813 0
M  V30 9357 H 866.189 -2.95445 0.485014 0
M  V30 9358 H 863.735 -1.42075 0.234694 0
M  V30 9359 H 865.688 -3.81211 -1.79601 0
M  V30 9360 H 864.412 -2.58554 -1.99543 0
M  V30 9361 H 863.071 -3.66272 -0.15498 0
M  V30 9362 H 862.719 -4.34427 -2.5354 0
M  V30 9363 H 862.419 -5.70154 -1.4212 0
M  V30 9364 H 863.943 -5.63514 -2.35126 0
M  V30 9365 H 865.357 -5.73241 -0.0819079 0
M  V30 9366 H 863.754 -5.96292 0.674956 0
M  V30 9367 H 864.824 -4.6801 1.26865 0
M  V30 9368 N 866.167 -0.267825 -1.55308 0
M  V30 9369 C 867.416 0.351635 -1.98611 0
M  V30 9370 C 867.729 1.57522 -1.15957 0
M  V30 9371 O 868.935 2.26717 -1.49371 0
M  V30 9372 C 867.391 0.676986 -3.53475 0
M  V30 9373 C 866.999 -0.526385 -4.44897 0
M  V30 9374 C 868.743 1.25948 -4.05386 0
M  V30 9375 C 866.65 -0.176026 -5.91138 0
M  V30 9376 H 865.58 0.13516 -0.741787 0
M  V30 9377 H 868.231 -0.371333 -1.79704 0
M  V30 9378 H 866.613 1.45866 -3.68156 0
M  V30 9379 H 867.787 -1.30339 -4.41982 0
M  V30 9380 H 866.102 -1.02522 -4.03582 0
M  V30 9381 H 868.699 1.53529 -5.12184 0
M  V30 9382 H 869.042 2.19094 -3.53982 0
M  V30 9383 H 869.575 0.540253 -3.94114 0
M  V30 9384 H 866.314 -1.07518 -6.46622 0
M  V30 9385 H 865.834 0.564363 -5.97139 0
M  V30 9386 H 867.513 0.234365 -6.46575 0
M  V30 9387 N 867.645 1.57599 0.00500368 0
M  V30 9388 C 868.593 2.09223 1.01628 0
M  V30 9389 C 869.587 1.01113 1.35913 0
M  V30 9390 O 870.793 1.19583 1.34536 0
M  V30 9391 H 867.168 0.667999 0.345372 0
M  V30 9392 H 869.139 2.93188 0.555274 0
M  V30 9393 C 867.888 2.60674 2.30097 0
M  V30 9394 H 867.211 3.43491 2.04582 0
M  V30 9395 H 868.651 3.00479 2.99146 0
M  V30 9396 C 867.11 1.51862 3.00731 0
M  V30 9397 O 867.64 0.898651 3.91519 0
M  V30 9398 N 865.846 1.24729 2.62471 0
M  V30 9399 H 865.393 1.7533 1.88725 0
M  V30 9400 H 865.351 0.521437 3.10046 0
M  V30 9401 N 869.123 -0.277682 1.55134 0
M  V30 9402 C 870.348 -1.03254 1.7987 0
M  V30 9403 C 870.773 -1.79324 0.567861 0
M  V30 9404 O 870.131 -1.74764 -0.4824 0
M  V30 9405 C 870.179 -1.9705 3.02 0
M  V30 9406 O 869.283 -3.05744 2.76757 0
M  V30 9407 H 868.624 -0.295447 0.594649 0
M  V30 9408 H 871.154 -0.308013 2.02268 0
M  V30 9409 H 871.164 -2.3909 3.30606 0
M  V30 9410 H 869.839 -1.41094 3.91236 0
M  V30 9411 H 868.416 -2.68052 2.59235 0
M  V30 9412 N 870.601 -1.47988 -0.541979 0
M  V30 9413 C 871.829 -1.59034 -1.32347 0
M  V30 9414 C 872.244 -0.246123 -1.87189 0
M  V30 9415 O 871.601 0.762889 -1.6579 0
M  V30 9416 C 871.652 -2.62759 -2.48274 0
M  V30 9417 O 871.373 -3.91963 -1.95695 0
M  V30 9418 C 872.874 -2.84133 -3.4027 0
M  V30 9419 H 870.094 -0.536574 -0.402901 0
M  V30 9420 H 872.638 -1.93725 -0.655045 0
M  V30 9421 H 870.793 -2.3096 -3.11025 0
M  V30 9422 H 871.207 -4.48769 -2.7149 0
M  V30 9423 H 872.681 -3.60538 -4.17991 0
M  V30 9424 H 873.158 -1.92512 -3.9476 0
M  V30 9425 H 873.764 -3.17188 -2.83322 0
M  V30 9426 N 872.079 0.78992 -1.36375 0
M  V30 9427 C 873.026 1.90254 -1.3066 0
M  V30 9428 C 873.996 1.65171 -0.17539 0
M  V30 9429 O 875.181 1.87338 -0.361824 0
M  V30 9430 C 872.321 3.27057 -1.10125 0
M  V30 9431 C 871.434 3.64215 -2.32317 0
M  V30 9432 C 870.569 4.90134 -2.04798 0
M  V30 9433 C 869.608 5.19969 -3.22953 0
M  V30 9434 N 868.745 6.37071 -2.95102 0
M  V30 9435 H 873.585 1.94474 -2.25796 0
M  V30 9436 H 871.122 0.951022 -1.12223 0
M  V30 9437 H 873.08 4.05947 -0.962453 0
M  V30 9438 H 871.71 3.22261 -0.186444 0
M  V30 9439 H 870.762 2.80454 -2.57002 0
M  V30 9440 H 872.074 3.82212 -3.20492 0
M  V30 9441 H 871.228 5.76888 -1.87845 0
M  V30 9442 H 869.967 4.74205 -1.13932 0
M  V30 9443 H 868.972 4.31699 -3.40465 0
M  V30 9444 H 870.197 5.37817 -4.14644 0
M  V30 9445 H 868.143 6.22535 -2.06848 0
M  V30 9446 H 868.06 6.55398 -3.76815 0
M  V30 9447 H 869.328 7.26808 -2.81727 0
M  V30 9448 N 873.557 1.20646 1.01402 0
M  V30 9449 C 874.806 1.01242 1.7445 0
M  V30 9450 C 875.119 -0.455732 1.90217 0
M  V30 9451 O 876.325 -0.768951 2.60383 0
M  V30 9452 C 874.781 1.76275 3.13776 0
M  V30 9453 C 874.389 3.27201 3.06013 0
M  V30 9454 C 876.133 1.65248 3.91016 0
M  V30 9455 C 874.04 3.9476 4.40362 0
M  V30 9456 H 872.97 0.375202 0.654018 0
M  V30 9457 H 875.621 1.44292 1.13367 0
M  V30 9458 H 874.003 1.26013 3.75415 0
M  V30 9459 H 875.177 3.84695 2.53665 0
M  V30 9460 H 873.492 3.38669 2.42265 0
M  V30 9461 H 876.089 2.13061 4.90417 0
M  V30 9462 H 876.432 0.609128 4.1182 0
M  V30 9463 H 876.965 2.12937 3.3601 0
M  V30 9464 H 873.704 4.99258 4.24761 0
M  V30 9465 H 873.224 3.42054 4.92706 0
M  V30 9466 H 874.903 3.99159 5.09196 0
M  V30 9467 N 875.035 -1.20752 1.01276 0
M  V30 9468 C 876.265 -1.93725 0.717934 0
M  V30 9469 C 876.673 -1.74769 -0.724732 0
M  V30 9470 O 876.016 -1.05642 -1.50285 0
M  V30 9471 C 876.078 -3.46196 0.968954 0
M  V30 9472 C 875.742 -3.88909 2.39998 0
M  V30 9473 C 876.739 -3.94982 3.38061 0
M  V30 9474 C 874.424 -4.21006 2.7397 0
M  V30 9475 C 876.418 -4.32558 4.68159 0
M  V30 9476 C 874.105 -4.58257 4.04282 0
M  V30 9477 C 875.103 -4.64004 5.01187 0
M  V30 9478 O 874.791 -5.00403 6.29168 0
M  V30 9479 H 874.523 -0.622663 0.263186 0
M  V30 9480 H 877.077 -1.54299 1.35577 0
M  V30 9481 H 875.307 -3.85728 0.273952 0
M  V30 9482 H 876.996 -4.00394 0.666312 0
M  V30 9483 H 877.762 -3.70353 3.13151 0
M  V30 9484 H 873.641 -4.15725 1.99233 0
M  V30 9485 H 877.185 -4.36959 5.43795 0
M  V30 9486 H 873.082 -4.82341 4.28973 0
M  V30 9487 H 873.85 -5.18409 6.33399 0
M  V30 9488 N 876.513 -0.788492 -1.36457 0
M  V30 9489 C 877.738 -0.371224 -2.04051 0
M  V30 9490 C 878.163 1.004 -1.59064 0
M  V30 9491 O 877.521 1.64663 -0.758679 0
M  V30 9492 C 877.569 -0.442275 -3.57877 0
M  V30 9493 O 876.673 0.55113 -4.08701 0
M  V30 9494 H 876.014 -0.157808 -0.644975 0
M  V30 9495 H 878.544 -1.06935 -1.74431 0
M  V30 9496 H 878.554 -0.305548 -4.06854 0
M  V30 9497 H 877.229 -1.44547 -3.89973 0
M  V30 9498 H 875.806 0.37614 -3.70998 0
M  V30 9499 N 877.991 1.48044 -0.54043 0
M  V30 9500 C 879.221 2.06595 -0.0144943 0
M  V30 9501 C 879.629 1.39593 1.27713 0
M  V30 9502 O 878.972 0.480794 1.77297 0
M  V30 9503 C 879.034 3.5849 0.269316 0
M  V30 9504 C 878.698 4.47429 -0.930372 0
M  V30 9505 C 879.695 4.8657 -1.83155 0
M  V30 9506 C 877.38 4.89185 -1.14032 0
M  V30 9507 C 879.374 5.66246 -2.92649 0
M  V30 9508 C 877.061 5.6863 -2.23838 0
M  V30 9509 C 878.059 6.07069 -3.12979 0
M  V30 9510 O 877.747 6.84917 -4.20884 0
M  V30 9511 H 877.479 0.675086 -0.0351467 0
M  V30 9512 H 880.033 1.91275 -0.74853 0
M  V30 9513 H 878.263 3.71961 1.05745 0
M  V30 9514 H 879.952 3.99124 0.738595 0
M  V30 9515 H 880.718 4.54924 -1.68134 0
M  V30 9516 H 876.597 4.58742 -0.455717 0
M  V30 9517 H 880.141 5.96169 -3.62254 0
M  V30 9518 H 876.038 5.99688 -2.38839 0
M  V30 9519 H 876.806 7.03287 -4.18723 0
M  V30 9520 N 879.47 0.276058 1.55163 0
M  V30 9521 C 880.717 -0.340455 1.99618 0
M  V30 9522 C 881.045 -1.5579 1.16446 0
M  V30 9523 O 880.3 -1.94433 0.222359 0
M  V30 9524 C 880.599 -0.765744 3.491 0
M  V30 9525 C 880.265 0.347174 4.49561 0
M  V30 9526 C 878.927 0.65276 4.76752 0
M  V30 9527 C 881.279 1.09705 5.09523 0
M  V30 9528 C 878.607 1.71179 5.61173 0
M  V30 9529 C 880.959 2.14581 5.95095 0
M  V30 9530 C 879.623 2.45773 6.20606 0
M  V30 9531 H 878.893 -0.124581 0.730452 0
M  V30 9532 H 881.54 0.389966 1.87487 0
M  V30 9533 H 879.845 -1.57585 3.58712 0
M  V30 9534 H 881.542 -1.25352 3.80904 0
M  V30 9535 H 878.132 0.0988779 4.28486 0
M  V30 9536 H 882.316 0.874223 4.8854 0
M  V30 9537 H 877.572 1.95846 5.79184 0
M  V30 9538 H 881.746 2.7316 6.40591 0
M  V30 9539 H 879.373 3.27969 6.85813 0
M  V30 9540 N 880.948 -1.576 0.00335426 0
M  V30 9541 C 882.359 -1.7875 -0.539008 0
M  V30 9542 C 882.71 -0.911097 -1.73763 0
M  V30 9543 O 881.835 -0.114476 -2.16097 0
M  V30 9544 C 882.43 -3.24177 -0.984611 0
M  V30 9545 C 880.989 -3.46412 -1.47226 0
M  V30 9546 C 880.136 -2.74024 -0.425004 0
M  V30 9547 H 883.087 -1.57032 0.229511 0
M  V30 9548 H 883.108 -3.32474 -1.85044 0
M  V30 9549 H 882.62 -3.87938 -0.112035 0
M  V30 9550 H 880.721 -2.8787 -2.36562 0
M  V30 9551 H 880.834 -4.55098 -1.49741 0
M  V30 9552 H 879.198 -2.38741 -0.887394 0
M  V30 9553 H 879.981 -3.40486 0.438662 0
M  V30 9554 N 882.426 0.269451 -1.5528 0
M  V30 9555 C 883.651 1.02299 -1.80415 0
M  V30 9556 C 884.076 1.7902 -0.577363 0
M  V30 9557 O 883.434 1.75018 0.473125 0
M  V30 9558 C 883.482 1.95445 -3.0304 0
M  V30 9559 O 882.586 3.04271 -2.78375 0
M  V30 9560 H 881.927 0.292289 -0.596207 0
M  V30 9561 H 884.457 0.297282 -2.02429 0
M  V30 9562 H 884.467 2.37333 -3.31869 0
M  V30 9563 H 883.142 1.39017 -3.91978 0
M  V30 9564 H 881.719 2.66673 -2.60653 0
M  V30 9565 N 883.904 1.48273 0.534124 0
M  V30 9566 C 885.15 1.56311 1.29208 0
M  V30 9567 C 885.483 0.234481 1.92779 0
M  V30 9568 O 884.758 -0.759143 1.79073 0
M  V30 9569 C 885.041 2.69831 2.3846 0
M  V30 9570 C 884.894 4.12385 1.79608 0
M  V30 9571 C 886.213 2.79133 3.40254 0
M  V30 9572 H 883.332 0.56899 0.468422 0
M  V30 9573 H 885.974 1.80429 0.595438 0
M  V30 9574 H 884.124 2.49397 2.97881 0
M  V30 9575 H 885.796 4.44246 1.24269 0
M  V30 9576 H 884.039 4.19579 1.10162 0
M  V30 9577 H 884.71 4.87629 2.58693 0
M  V30 9578 H 887.186 2.97632 2.90783 0
M  V30 9579 H 886.062 3.60298 4.14097 0
M  V30 9580 H 886.323 1.87122 4.00547 0
M  V30 9581 N 885.382 -0.782676 1.36792 0
M  V30 9582 C 886.631 -1.53605 1.30723 0
M  V30 9583 C 886.944 -1.95294 -0.109296 0
M  V30 9584 O 888.15 -2.69921 -0.292398 0
M  V30 9585 C 886.606 -2.77321 2.29393 0
M  V30 9586 C 886.214 -2.42774 3.76517 0
M  V30 9587 C 887.958 -3.55289 2.32314 0
M  V30 9588 C 885.865 -3.62926 4.66947 0
M  V30 9589 H 884.795 -0.576646 0.485794 0
M  V30 9590 H 887.446 -0.858255 1.62192 0
M  V30 9591 H 885.828 -3.46934 1.90927 0
M  V30 9592 H 887.002 -1.81014 4.23758 0
M  V30 9593 H 885.317 -1.78002 3.76436 0
M  V30 9594 H 887.914 -4.44573 2.97083 0
M  V30 9595 H 888.257 -3.94361 1.3336 0
M  V30 9596 H 888.79 -2.92662 2.69432 0
M  V30 9597 H 885.529 -3.28944 5.66989 0
M  V30 9598 H 885.049 -4.23828 4.24418 0
M  V30 9599 H 886.728 -4.29873 4.83548 0
M  V30 9600 N 886.86 -1.21182 -1.00761 0
M  V30 9601 C 888.085 -1.05411 -1.78615 0
M  V30 9602 C 888.51 0.391837 -1.83973 0
M  V30 9603 O 887.868 1.28256 -1.28141 0
M  V30 9604 C 887.916 -1.65285 -3.20489 0
M  V30 9605 O 887.02 -0.896558 -4.02536 0
M  V30 9606 H 886.361 -0.37116 -0.550578 0
M  V30 9607 H 888.891 -1.60669 -1.26676 0
M  V30 9608 H 888.901 -1.69397 -3.71172 0
M  V30 9609 H 887.576 -2.70514 -3.15904 0
M  V30 9610 H 886.153 -0.930335 -3.61108 0
M  V30 9611 N 888.338 1.20213 -1.01915 0
M  V30 9612 C 889.285 2.2309 -0.591571 0
M  V30 9613 C 890.255 1.61465 0.389649 0
M  V30 9614 O 891.44 1.88606 0.288511 0
M  V30 9615 C 888.58 3.45045 0.0614028 0
M  V30 9616 C 887.693 4.21091 -0.964688 0
M  V30 9617 C 886.828 5.30448 -0.282499 0
M  V30 9618 C 885.867 5.98241 -1.29517 0
M  V30 9619 N 885.004 6.99182 -0.639472 0
M  V30 9620 H 889.844 2.59023 -1.47347 0
M  V30 9621 H 887.381 1.27274 -0.737547 0
M  V30 9622 H 889.339 4.14688 0.45714 0
M  V30 9623 H 887.969 3.09797 0.906937 0
M  V30 9624 H 887.021 3.50489 -1.47857 0
M  V30 9625 H 888.333 4.67662 -1.73475 0
M  V30 9626 H 887.487 6.06466 0.168603 0
M  V30 9627 H 886.226 4.84922 0.519843 0
M  V30 9628 H 885.231 5.20982 -1.75663 0
M  V30 9629 H 886.456 6.45853 -2.09884 0
M  V30 9630 H 884.402 6.55844 0.142955 0
M  V30 9631 H 884.319 7.43893 -1.34756 0
M  V30 9632 H 885.587 7.79212 -0.212047 0
M  V30 9633 N 889.816 0.795718 1.36037 0
M  V30 9634 C 891.062 0.371574 1.99367 0
M  V30 9635 C 891.395 -1.0557 1.62999 0
M  V30 9636 O 890.67 -1.73051 0.887895 0
M  V30 9637 C 890.953 0.542622 3.55988 0
M  V30 9638 C 890.806 2.01404 4.0219 0
M  V30 9639 C 892.125 -0.0384527 4.40083 0
M  V30 9640 H 889.244 0.136483 0.724252 0
M  V30 9641 H 891.886 1.00323 1.61355 0
M  V30 9642 H 890.036 0.0049053 3.885 0
M  V30 9643 H 891.708 2.6133 3.80137 0
M  V30 9644 H 889.951 2.51439 3.53498 0
M  V30 9645 H 890.622 2.08466 5.11122 0
M  V30 9646 H 893.098 0.420634 4.13968 0
M  V30 9647 H 891.974 0.111214 5.48787 0
M  V30 9648 H 892.235 -1.13116 4.27384 0
M  V30 9649 N 891.294 -1.47756 0.548274 0
M  V30 9650 C 892.242 -2.3158 -0.217584 0
M  V30 9651 C 893.236 -1.42372 -0.917957 0
M  V30 9652 O 894.442 -1.59184 -0.840259 0
M  V30 9653 H 890.817 -0.74671 -0.0890388 0
M  V30 9654 H 892.788 -2.94032 0.508719 0
M  V30 9655 C 891.537 -3.24834 -1.24008 0
M  V30 9656 H 890.86 -3.93435 -0.710572 0
M  V30 9657 H 892.3 -3.86336 -1.74701 0
M  V30 9658 C 890.759 -2.47724 -2.2833 0
M  V30 9659 O 891.289 -2.21522 -3.35098 0
M  V30 9660 N 889.495 -2.08891 -2.02022 0
M  V30 9661 H 889.042 -2.30401 -1.1521 0
M  V30 9662 H 889 -1.57613 -2.7204 0
M  V30 9663 N 892.772 -0.284283 -1.55015 0
M  V30 9664 C 893.704 0.63258 -2.20298 0
M  V30 9665 C 894.717 1.11045 -1.1905 0
M  V30 9666 O 895.906 1.03078 -1.4573 0
M  V30 9667 C 893.006 1.87599 -2.82241 0
M  V30 9668 C 892.179 1.5434 -4.09265 0
M  V30 9669 C 891.238 2.64023 -4.55169 0
M  V30 9670 O 890.264 2.29821 -5.20741 0
M  V30 9671 N 891.466 3.94255 -4.26079 0
M  V30 9672 H 894.231 0.0737928 -2.99609 0
M  V30 9673 H 891.792 -0.105767 -1.61554 0
M  V30 9674 H 893.784 2.60289 -3.0989 0
M  V30 9675 H 892.354 2.3436 -2.06868 0
M  V30 9676 H 891.574 0.649912 -3.88806 0
M  V30 9677 H 892.862 1.29634 -4.92009 0
M  V30 9678 H 892.26 4.24859 -3.73512 0
M  V30 9679 H 890.817 4.63295 -4.58477 0
M  V30 9680 N 894.251 1.57596 -0.0117121 0
M  V30 9681 C 895.499 1.90694 0.669342 0
M  V30 9682 C 895.82 0.886999 1.73659 0
M  V30 9683 O 895.09 -0.0739779 1.9576 0
M  V30 9684 H 893.67 0.703846 0.250219 0
M  V30 9685 H 896.332 1.94821 -0.0554057 0
M  V30 9686 H 895.428 2.90802 1.13316 0
M  V30 9687 N 895.729 -0.261212 1.5542 0
M  V30 9688 C 896.692 -1.30645 1.8832 0
M  V30 9689 C 897.692 -1.41782 0.758588 0
M  V30 9690 O 898.882 -1.40729 1.02669 0
M  V30 9691 C 896.014 -2.6862 2.09895 0
M  V30 9692 H 897.207 -1.02698 2.81768 0
M  V30 9693 H 894.76 -0.499838 1.48092 0
M  V30 9694 H 895.495 -3.0173 1.18868 0
M  V30 9695 H 895.28 -2.61921 2.91787 0
M  V30 9696 H 896.77 -3.44121 2.36581 0
M  V30 9697 N 897.207 -1.48554 -0.526253 0
M  V30 9698 C 898.139 -1.59446 -1.6465 0
M  V30 9699 C 899.152 -0.478525 -1.55608 0
M  V30 9700 O 900.341 -0.74953 -1.62001 0
M  V30 9701 C 897.441 -1.51164 -3.03319 0
M  V30 9702 C 896.614 -2.77861 -3.37805 0
M  V30 9703 C 895.673 -2.62982 -4.5577 0
M  V30 9704 O 894.699 -3.36876 -4.58806 0
M  V30 9705 N 895.901 -1.72847 -5.5417 0
M  V30 9706 H 898.666 -2.56055 -1.55743 0
M  V30 9707 H 896.227 -1.45325 -0.713606 0
M  V30 9708 H 898.219 -1.389 -3.80117 0
M  V30 9709 H 896.789 -0.625147 -3.06285 0
M  V30 9710 H 896.009 -3.04663 -2.50149 0
M  V30 9711 H 897.297 -3.61908 -3.57632 0
M  V30 9712 H 896.695 -1.12022 -5.54498 0
M  V30 9713 H 895.252 -1.6652 -6.3017 0
M  V30 9714 N 898.685 0.775411 -1.37205 0
M  V30 9715 C 899.933 1.53081 -1.3195 0
M  V30 9716 C 900.254 1.9476 0.0966864 0
M  V30 9717 O 899.524 1.66019 1.03993 0
M  V30 9718 H 898.104 0.567762 -0.485444 0
M  V30 9719 H 900.766 0.92309 -1.71654 0
M  V30 9720 H 899.862 2.4319 -1.95614 0
M  V30 9721 N 900.163 1.21714 1.00117 0
M  V30 9722 C 901.412 1.03087 1.73367 0
M  V30 9723 C 901.725 -0.435532 1.90689 0
M  V30 9724 O 902.931 -0.741291 2.61184 0
M  V30 9725 C 901.387 1.79593 3.11888 0
M  V30 9726 C 900.995 3.30428 3.02525 0
M  V30 9727 C 902.739 1.69386 3.89241 0
M  V30 9728 C 900.646 3.99408 4.3615 0
M  V30 9729 H 899.576 0.382117 0.650002 0
M  V30 9730 H 902.227 1.45486 1.11831 0
M  V30 9731 H 900.609 1.29988 3.74058 0
M  V30 9732 H 901.783 3.87364 2.49571 0
M  V30 9733 H 900.098 3.4122 2.38659 0
M  V30 9734 H 902.695 2.18251 4.8813 0
M  V30 9735 H 903.038 0.652773 4.1115 0
M  V30 9736 H 903.571 2.16489 3.33733 0
M  V30 9737 H 900.31 5.03735 4.19442 0
M  V30 9738 H 899.83 3.47261 4.8905 0
M  V30 9739 H 901.509 4.04537 5.04934 0
M  V30 9740 N 901.641 -1.19671 1.02551 0
M  V30 9741 C 902.571 -2.25009 0.623965 0
M  V30 9742 C 903.552 -1.66129 -0.36538 0
M  V30 9743 O 904.737 -1.92599 -0.248842 0
M  V30 9744 C 901.867 -3.47287 -0.0294869 0
M  V30 9745 C 900.821 -4.18818 0.881781 0
M  V30 9746 C 900.147 -5.34618 0.0936189 0
M  V30 9747 C 901.447 -4.73986 2.19396 0
M  V30 9748 H 903.141 -2.58851 1.50454 0
M  V30 9749 H 900.687 -1.24425 0.724872 0
M  V30 9750 H 902.64 -4.20168 -0.322016 0
M  V30 9751 H 901.364 -3.12635 -0.944838 0
M  V30 9752 H 900.023 -3.47815 1.15845 0
M  V30 9753 H 899.671 -4.9621 -0.823661 0
M  V30 9754 H 899.371 -5.83409 0.700568 0
M  V30 9755 H 900.895 -6.10297 -0.192249 0
M  V30 9756 H 902.309 -5.38639 1.96319 0
M  V30 9757 H 900.706 -5.3325 2.75254 0
M  V30 9758 H 901.776 -3.92238 2.85092 0
M  V30 9759 N 903.119 -0.802921 -1.35613 0
M  V30 9760 C 904.366 -0.381576 -1.98872 0
M  V30 9761 C 904.694 1.0503 -1.63704 0
M  V30 9762 O 903.949 1.7427 -0.890418 0
M  V30 9763 C 904.248 -0.507806 -3.53774 0
M  V30 9764 C 903.914 -1.90245 -4.088 0
M  V30 9765 C 902.576 -2.28401 -4.2354 0
M  V30 9766 C 904.928 -2.81504 -4.3864 0
M  V30 9767 C 902.256 -3.57192 -4.65436 0
M  V30 9768 C 904.608 -4.09737 -4.81973 0
M  V30 9769 C 903.272 -4.47897 -4.94919 0
M  V30 9770 H 902.542 -0.139629 -0.727726 0
M  V30 9771 H 905.189 -1.023 -1.61886 0
M  V30 9772 H 903.494 0.21708 -3.91198 0
M  V30 9773 H 905.191 -0.162625 -4.0067 0
M  V30 9774 H 901.781 -1.596 -3.97776 0
M  V30 9775 H 905.965 -2.53276 -4.26808 0
M  V30 9776 H 901.221 -3.86611 -4.73648 0
M  V30 9777 H 905.395 -4.80555 -5.04024 0
M  V30 9778 H 903.022 -5.47747 -5.27141 0
M  V30 9779 N 904.597 1.47463 -0.556102 0
M  V30 9780 C 905.527 2.32801 0.180497 0
M  V30 9781 C 906.508 1.43721 0.909848 0
M  V30 9782 O 907.693 1.72578 0.89053 0
M  V30 9783 C 904.823 3.25478 1.21167 0
M  V30 9784 C 903.777 4.2379 0.598846 0
M  V30 9785 C 903.103 5.05783 1.73457 0
M  V30 9786 C 904.403 5.20387 -0.446659 0
M  V30 9787 H 906.097 2.94636 -0.531956 0
M  V30 9788 H 903.643 1.41683 -0.257267 0
M  V30 9789 H 905.596 3.8402 1.73513 0
M  V30 9790 H 904.32 2.61695 1.95405 0
M  V30 9791 H 902.979 3.66472 0.0966897 0
M  V30 9792 H 902.627 4.38405 2.46596 0
M  V30 9793 H 902.327 5.72343 1.33031 0
M  V30 9794 H 903.851 5.67183 2.26131 0
M  V30 9795 H 905.265 5.73299 -0.00930019 0
M  V30 9796 H 903.662 5.95143 -0.769735 0
M  V30 9797 H 904.732 4.65932 -1.34295 0
M  V30 9798 N 906.075 0.2925 1.54862 0
M  V30 9799 C 907.007 -0.620889 2.2063 0
M  V30 9800 C 908.02 -1.10412 1.19637 0
M  V30 9801 O 909.209 -1.02304 1.46274 0
M  V30 9802 C 906.309 -1.861 2.83232 0
M  V30 9803 C 905.482 -1.52168 4.10078 0
M  V30 9804 C 904.541 -2.61605 4.56562 0
M  V30 9805 O 903.567 -2.27056 5.21952 0
M  V30 9806 N 904.769 -3.9199 4.28163 0
M  V30 9807 H 907.534 -0.0579028 2.99644 0
M  V30 9808 H 905.095 0.114333 1.61496 0
M  V30 9809 H 907.087 -2.58642 3.11266 0
M  V30 9810 H 905.657 -2.33259 2.08108 0
M  V30 9811 H 904.877 -0.629283 3.89145 0
M  V30 9812 H 906.165 -1.27023 4.92689 0
M  V30 9813 H 905.563 -4.22872 3.7576 0
M  V30 9814 H 904.12 -4.60857 4.60928 0
M  V30 9815 N 907.553 -1.57587 0.0200696 0
M  V30 9816 C 908.799 -1.92539 -0.655764 0
M  V30 9817 C 909.154 -0.896187 -1.70253 0
M  V30 9818 O 908.447 0.0890022 -1.91393 0
M  V30 9819 C 908.641 -3.32002 -1.32323 0
M  V30 9820 C 908.47 -4.48393 -0.342632 0
M  V30 9821 C 907.24 -5.05271 0.0542423 0
M  V30 9822 C 909.438 -5.12747 0.399388 0
M  V30 9823 N 907.42 -6.05181 1.03095 0
M  V30 9824 C 908.791 -6.07674 1.23014 0
M  V30 9825 C 910.846 -4.95761 0.461065 0
M  V30 9826 C 909.549 -6.87442 2.11698 0
M  V30 9827 C 911.575 -5.7613 1.33521 0
M  V30 9828 C 910.937 -6.70666 2.15376 0
M  V30 9829 H 907.036 -0.75256 -0.212549 0
M  V30 9830 H 909.62 -1.94514 0.0851247 0
M  V30 9831 H 907.791 -3.30863 -2.0343 0
M  V30 9832 H 909.523 -3.54327 -1.95537 0
M  V30 9833 H 906.278 -4.72529 -0.318327 0
M  V30 9834 H 906.702 -6.59824 1.51528 0
M  V30 9835 H 911.344 -4.22506 -0.15752 0
M  V30 9836 H 909.062 -7.60008 2.74616 0
M  V30 9837 H 912.648 -5.65023 1.38711 0
M  V30 9838 H 911.528 -7.31772 2.81922 0
M  V30 9839 N 909.032 0.252966 -1.55557 0
M  V30 9840 C 910.278 0.983306 -1.77367 0
M  V30 9841 C 910.611 1.85203 -0.584258 0
M  V30 9842 O 909.886 1.89963 0.417644 0
M  V30 9843 C 910.169 1.84896 -3.09007 0
M  V30 9844 C 910.022 1.00883 -4.38341 0
M  V30 9845 C 911.341 2.83254 -3.36831 0
M  V30 9846 H 908.46 0.356056 -0.645286 0
M  V30 9847 H 911.102 0.254232 -1.88291 0
M  V30 9848 H 909.252 2.47058 -2.99825 0
M  V30 9849 H 910.924 0.40638 -4.59507 0
M  V30 9850 H 909.167 0.31297 -4.3267 0
M  V30 9851 H 909.838 1.64818 -5.2682 0
M  V30 9852 H 912.314 2.31228 -3.45937 0
M  V30 9853 H 911.19 3.40949 -4.30169 0
M  V30 9854 H 911.451 3.59407 -2.57447 0
M  V30 9855 N 910.51 1.48831 0.518367 0
M  V30 9856 C 911.926 1.35209 0.847979 0
M  V30 9857 C 912.126 0.371927 1.98038 0
M  V30 9858 O 911.182 -0.202681 2.51685 0
M  V30 9859 C 912.495 2.7552 1.20455 0
M  V30 9860 C 914.043 2.84094 1.31377 0
M  V30 9861 C 914.518 4.25132 1.70372 0
M  V30 9862 N 916.009 4.27861 1.77453 0
M  V30 9863 C 916.744 5.3394 2.09035 0
M  V30 9864 N 916.24 6.50285 2.3896 0
M  V30 9865 N 918.033 5.21343 2.10139 0
M  V30 9866 H 910.184 2.11166 -0.228624 0
M  V30 9867 H 912.447 0.94717 -0.0396599 0
M  V30 9868 H 912.153 3.48861 0.445991 0
M  V30 9869 H 912.027 3.09785 2.15204 0
M  V30 9870 H 914.414 2.11001 2.06307 0
M  V30 9871 H 914.495 2.53433 0.347203 0
M  V30 9872 H 914.139 4.98745 0.959975 0
M  V30 9873 H 914.069 4.53245 2.68098 0
M  V30 9874 H 916.56 3.43945 1.56557 0
M  V30 9875 H 916.873 7.26961 2.62196 0
M  V30 9876 H 915.218 6.5354 2.36454 0
M  V30 9877 H 918.409 4.29462 1.86225 0
M  V30 9878 H 918.582 6.04112 2.34419 0
M  V30 9879 N 911.988 -0.768124 1.37614 0
M  V30 9880 C 913.265 -1.51637 1.23554 0
M  V30 9881 C 913.645 -2.1042 -0.169331 0
M  V30 9882 O 912.993 -1.95834 -1.17735 0
M  V30 9883 C 913.203 -2.59436 2.33439 0
M  V30 9884 C 914.551 -3.2674 2.71157 0
M  V30 9885 O 915.575 -2.69733 2.32642 0
M  V30 9886 O 914.434 -4.29814 3.37524 0
M  V30 9887 H 911.528 -0.671778 0.482332 0
M  V30 9888 H 914.074 -0.804779 1.49403 0
M  V30 9889 H 912.846 -2.14146 3.27502 0
M  V30 9890 H 912.469 -3.38192 2.09073 0
M  V30 9891 N 913.466 -1.22244 -0.994698 0
M  V30 9892 C 914.715 -1.04005 -1.72817 0
M  V30 9893 C 915.028 0.425413 -1.90918 0
M  V30 9894 O 916.234 0.727429 -2.61574 0
M  V30 9895 C 914.69 -1.81244 -3.10932 0
M  V30 9896 C 914.298 -3.32028 -3.00768 0
M  V30 9897 C 916.042 -1.71448 -3.88337 0
M  V30 9898 C 913.949 -4.01716 -4.34026 0
M  V30 9899 H 912.879 -0.385559 -0.647966 0
M  V30 9900 H 915.53 -1.46077 -1.11058 0
M  V30 9901 H 913.912 -1.3197 -3.73363 0
M  V30 9902 H 915.086 -3.88682 -2.47513 0
M  V30 9903 H 913.401 -3.4248 -2.36846 0
M  V30 9904 H 915.998 -2.20836 -4.86965 0
M  V30 9905 H 916.341 -0.674568 -4.10798 0
M  V30 9906 H 916.874 -2.18256 -3.3258 0
M  V30 9907 H 913.613 -5.05952 -4.16765 0
M  V30 9908 H 913.133 -3.49849 -4.87202 0
M  V30 9909 H 914.812 -4.0721 -5.02782 0
M  V30 9910 N 914.944 1.19125 -1.03184 0
M  V30 9911 C 916.193 1.8821 -0.725264 0
M  V30 9912 C 916.506 1.80674 0.749411 0
M  V30 9913 O 917.712 2.45037 1.16915 0
M  V30 9914 C 916.168 3.37607 -1.24697 0
M  V30 9915 C 915.776 3.53693 -2.74964 0
M  V30 9916 C 917.52 4.12149 -1.01652 0
M  V30 9917 C 915.427 4.97001 -3.20538 0
M  V30 9918 H 914.357 0.704916 -0.267599 0
M  V30 9919 H 917.008 1.34663 -1.24652 0
M  V30 9920 H 915.39 3.90569 -0.653614 0
M  V30 9921 H 916.564 3.11046 -3.39981 0
M  V30 9922 H 914.879 2.92544 -2.96322 0
M  V30 9923 H 917.476 5.17837 -1.33226 0
M  V30 9924 H 917.819 4.16274 0.0465712 0
M  V30 9925 H 918.352 3.65334 -1.57403 0
M  V30 9926 H 915.091 4.9804 -4.26189 0
M  V30 9927 H 914.611 5.40398 -2.60251 0
M  V30 9928 H 916.29 5.65669 -3.14049 0
M  V30 9929 N 916.422 0.810101 1.35185 0
M  V30 9930 C 917.699 0.315235 1.93043 0
M  V30 9931 C 918.079 -1.19567 1.73974 0
M  V30 9932 O 917.427 -1.99682 1.11083 0
M  V30 9933 C 917.637 0.730492 3.41269 0
M  V30 9934 C 918.985 0.721985 4.18417 0
M  V30 9935 O 920.009 0.672258 3.49799 0
M  V30 9936 O 918.868 0.783535 5.40854 0
M  V30 9937 H 915.962 0.0832774 0.822796 0
M  V30 9938 H 918.508 0.894034 1.4424 0
M  V30 9939 H 917.28 1.77169 3.48894 0
M  V30 9940 H 916.903 0.12669 3.97398 0
M  V30 9941 N 917.9 -1.47166 0.563914 0
M  V30 9942 C 919.177 -1.95586 -0.0236172 0
M  V30 9943 C 919.557 -1.50655 -1.47872 0
M  V30 9944 O 918.905 -0.748479 -2.15894 0
M  V30 9945 C 919.115 -3.48762 0.128841 0
M  V30 9946 C 920.463 -4.24598 -0.0130544 0
M  V30 9947 O 921.487 -3.56155 0.0567242 0
M  V30 9948 O 920.346 -5.46253 -0.164332 0
M  V30 9949 H 917.44 -0.824793 -0.0603789 0
M  V30 9950 H 919.986 -1.57536 0.63091 0
M  V30 9951 H 918.758 -3.74291 1.14113 0
M  V30 9952 H 918.381 -3.93594 -0.56299 0
M  V30 9953 N 919.378 -0.300708 -1.54705 0
M  V30 9954 C 920.625 0.308654 -2.00134 0
M  V30 9955 C 920.953 1.53918 -1.1891 0
M  V30 9956 O 920.208 1.94054 -0.253263 0
M  V30 9957 C 920.507 0.710108 -3.50275 0
M  V30 9958 C 920.173 -0.418651 -4.48952 0
M  V30 9959 C 918.835 -0.728524 -4.75653 0
M  V30 9960 C 921.187 -1.17797 -5.07714 0
M  V30 9961 C 918.515 -1.80085 -5.58378 0
M  V30 9962 C 920.867 -2.24022 -5.91606 0
M  V30 9963 C 919.531 -2.55616 -6.16617 0
M  V30 9964 H 918.801 0.112945 -0.732342 0
M  V30 9965 H 921.448 -0.419744 -1.86843 0
M  V30 9966 H 919.753 1.51859 -3.61173 0
M  V30 9967 H 921.45 1.19277 -3.8285 0
M  V30 9968 H 918.04 -0.167034 -4.28274 0
M  V30 9969 H 922.224 -0.951835 -4.87087 0
M  V30 9970 H 917.48 -2.05036 -5.75995 0
M  V30 9971 H 921.654 -2.83317 -6.36164 0
M  V30 9972 H 919.281 -3.38839 -6.80509 0
M  V30 9973 N 920.856 1.57574 -0.0284266 0
M  V30 9974 C 922.084 1.96071 0.660575 0
M  V30 9975 C 922.499 0.904881 1.65703 0
M  V30 9976 O 921.856 -0.113379 1.82147 0
M  V30 9977 C 921.907 3.34634 1.36756 0
M  V30 9978 O 921.628 4.36167 0.411041 0
M  V30 9979 C 923.129 3.87758 2.14845 0
M  V30 9980 H 920.349 0.645794 0.182183 0
M  V30 9981 H 922.893 2.04311 -0.0879858 0
M  V30 9982 H 921.048 3.27616 2.06753 0
M  V30 9983 H 921.462 5.16493 0.913 0
M  V30 9984 H 922.936 4.87058 2.59767 0
M  V30 9985 H 923.413 3.21967 2.9872 0
M  V30 9986 H 924.019 3.98043 1.49807 0
M  V30 9987 N 922.334 -0.244713 1.55689 0
M  V30 9988 C 923.282 -1.32276 1.91326 0
M  V30 9989 C 924.276 -1.49714 0.792589 0
M  V30 9990 O 925.482 -1.51163 0.977227 0
M  V30 9991 H 921.857 -0.442979 0.607679 0
M  V30 9992 H 923.828 -0.99486 2.81327 0
M  V30 9993 C 922.577 -2.67077 2.22633 0
M  V30 9994 H 921.9 -2.54458 3.08368 0
M  V30 9995 H 923.34 -3.41378 2.5147 0
M  V30 9996 C 921.799 -3.20335 1.04342 0
M  V30 9997 O 922.329 -4.00633 0.292543 0
M  V30 9998 N 920.535 -2.78392 0.833457 0
M  V30 9999 H 920.082 -2.13202 1.44577 0
M  V30 10000 H 920.04 -3.1437 0.0436713 0
M  V30 10001 N 923.813 -1.49104 -0.510467 0
M  V30 10002 C 924.723 -1.67792 -1.6396 0
M  V30 10003 C 925.739 -0.560454 -1.64727 0
M  V30 10004 O 926.915 -0.833985 -1.83321 0
M  V30 10005 C 923.98 -1.73154 -3.00364 0
M  V30 10006 C 923.041 -2.9667 -3.10299 0
M  V30 10007 C 922.274 -3.01767 -4.40196 0
M  V30 10008 O 922.497 -2.1472 -5.28443 0
M  V30 10009 O 921.431 -3.94137 -4.54906 0
M  V30 10010 H 925.257 -2.63428 -1.51126 0
M  V30 10011 H 922.842 -1.32734 -0.685719 0
M  V30 10012 H 924.724 -1.79089 -3.81451 0
M  V30 10013 H 923.399 -0.806952 -3.1348 0
M  V30 10014 H 922.306 -2.96257 -2.28435 0
M  V30 10015 H 923.639 -3.88578 -3.02106 0
M  V30 10016 N 925.291 0.760815 -1.38019 0
M  V30 10017 C 926.516 1.55513 -1.37224 0
M  V30 10018 C 926.941 1.88062 0.037611 0
M  V30 10019 O 926.299 1.50042 1.0177 0
M  V30 10020 C 926.347 2.83539 -2.22796 0
M  V30 10021 O 925.451 3.78384 -1.64009 0
M  V30 10022 H 924.792 0.470642 -0.468393 0
M  V30 10023 H 927.322 0.940792 -1.81687 0
M  V30 10024 H 927.332 3.32535 -2.36399 0
M  V30 10025 H 926.007 2.59178 -3.25269 0
M  V30 10026 H 924.584 3.37063 -1.59508 0
M  V30 10027 N 926.769 1.22769 0.988202 0
M  V30 10028 C 927.994 1.08239 1.76915 0
M  V30 10029 C 928.419 -0.362519 1.84574 0
M  V30 10030 O 927.777 -1.26202 1.30165 0
M  V30 10031 C 927.825 1.70363 3.17819 0
M  V30 10032 O 926.929 0.960484 4.01059 0
M  V30 10033 H 926.27 0.379872 0.544604 0
M  V30 10034 H 928.8 1.62663 1.24104 0
M  V30 10035 H 928.81 1.7528 3.6843 0
M  V30 10036 H 927.485 2.75505 3.1156 0
M  V30 10037 H 926.062 0.987667 3.59582 0
M  V30 10038 N 928.247 -1.18576 1.03814 0
M  V30 10039 C 929.179 -2.21607 0.585055 0
M  V30 10040 C 930.192 -1.59125 -0.343963 0
M  V30 10041 O 931.381 -1.77959 -0.138882 0
M  V30 10042 C 928.481 -3.38495 -0.165602 0
M  V30 10043 C 927.654 -4.30557 0.770662 0
M  V30 10044 C 926.713 -5.26161 0.0637534 0
M  V30 10045 O 925.739 -5.64961 0.693359 0
M  V30 10046 N 926.941 -5.67882 -1.20377 0
M  V30 10047 H 929.706 -2.61104 1.47121 0
M  V30 10048 H 927.267 -1.33336 0.918316 0
M  V30 10049 H 929.259 -3.99474 -0.648292 0
M  V30 10050 H 927.829 -2.97711 -0.953268 0
M  V30 10051 H 927.049 -3.67221 1.43326 0
M  V30 10052 H 928.337 -4.88969 1.40667 0
M  V30 10053 H 927.735 -5.38409 -1.73586 0
M  V30 10054 H 926.292 -6.31069 -1.63079 0
M  V30 10055 N 929.725 -0.817259 -1.34754 0
M  V30 10056 C 930.672 -0.233108 -2.2962 0
M  V30 10057 C 931.642 0.638902 -1.53321 0
M  V30 10058 O 932.827 0.581739 -1.81715 0
M  V30 10059 C 929.967 0.603659 -3.39779 0
M  V30 10060 C 929.08 -0.289967 -4.31026 0
M  V30 10061 C 928.215 0.555825 -5.28284 0
M  V30 10062 C 927.254 -0.337539 -6.11169 0
M  V30 10063 N 926.391 0.468847 -7.00533 0
M  V30 10064 H 931.231 -1.04747 -2.78984 0
M  V30 10065 H 928.768 -0.528056 -1.37295 0
M  V30 10066 H 930.726 1.10407 -4.02326 0
M  V30 10067 H 929.356 1.38319 -2.91664 0
M  V30 10068 H 928.408 -0.908552 -3.69391 0
M  V30 10069 H 929.72 -0.977136 -4.89135 0
M  V30 10070 H 928.874 1.12094 -5.96255 0
M  V30 10071 H 927.613 1.27652 -4.70698 0
M  V30 10072 H 926.618 -0.914839 -5.42135 0
M  V30 10073 H 927.843 -1.05626 -6.70835 0
M  V30 10074 H 925.789 1.17332 -6.45422 0
M  V30 10075 H 925.706 -0.160052 -7.55831 0
M  V30 10076 H 926.974 1.01689 -7.72839 0
M  V30 10077 N 931.203 1.46865 -0.571711 0
M  V30 10078 C 932.431 2.06818 -0.0583975 0
M  V30 10079 C 932.846 1.42218 1.24175 0
M  V30 10080 O 932.203 0.523655 1.74826 0
M  V30 10081 C 932.254 3.61281 0.125673 0
M  V30 10082 O 931.975 4.23462 -1.123 0
M  V30 10083 C 933.476 4.38137 0.674604 0
M  V30 10084 H 930.696 0.668948 -0.052438 0
M  V30 10085 H 933.24 1.88656 -0.789251 0
M  V30 10086 H 931.395 3.78908 0.806707 0
M  V30 10087 H 931.809 5.16192 -0.929869 0
M  V30 10088 H 933.283 5.46845 0.752626 0
M  V30 10089 H 933.76 4.05419 1.68915 0
M  V30 10090 H 934.366 4.2529 0.0287979 0
M  V30 10091 N 932.681 0.308908 1.54543 0
M  V30 10092 C 933.909 -0.300418 2.04707 0
M  V30 10093 C 934.324 -1.46915 1.18581 0
M  V30 10094 O 933.681 -1.81251 0.213186 0
M  V30 10095 C 933.732 -0.749038 3.53655 0
M  V30 10096 O 933.453 0.373181 4.36508 0
M  V30 10097 C 934.954 -1.4227 4.1985 0
M  V30 10098 H 932.174 -0.0641267 0.667929 0
M  V30 10099 H 934.718 0.450839 1.99469 0
M  V30 10100 H 932.873 -1.4503 3.59228 0
M  V30 10101 H 933.287 0.0224752 5.24495 0
M  V30 10102 H 934.761 -1.68768 5.25568 0
M  V30 10103 H 935.238 -2.36531 3.70067 0
M  V30 10104 H 935.844 -0.764404 4.18374 0
M  V30 10105 N 934.159 -1.57557 0.0367827 0
M  V30 10106 C 935.408 -1.91291 -0.639569 0
M  V30 10107 C 935.721 -0.915601 -1.72847 0
M  V30 10108 O 936.927 -1.14447 -2.46199 0
M  V30 10109 C 935.383 -3.39697 -1.18888 0
M  V30 10110 C 934.991 -4.47803 -0.132851 0
M  V30 10111 C 936.735 -3.82487 -1.8413 0
M  V30 10112 C 934.642 -5.87311 -0.694229 0
M  V30 10113 H 933.572 -0.713886 -0.242658 0
M  V30 10114 H 936.223 -1.83209 0.103332 0
M  V30 10115 H 934.605 -3.42736 -1.98363 0
M  V30 10116 H 935.779 -4.56334 0.640009 0
M  V30 10117 H 934.094 -4.14264 0.421264 0
M  V30 10118 H 936.691 -4.84076 -2.27101 0
M  V30 10119 H 937.034 -3.17959 -2.68716 0
M  V30 10120 H 937.567 -3.81903 -1.11332 0
M  V30 10121 H 934.306 -6.55401 0.113667 0
M  V30 10122 H 933.826 -5.82371 -1.4354 0
M  V30 10123 H 935.505 -6.36119 -1.1816 0
M  V30 10124 N 935.637 0.236453 -1.55816 0
M  V30 10125 C 936.914 0.986463 -1.68903 0
M  V30 10126 C 937.294 2.02984 -0.579722 0
M  V30 10127 O 936.642 2.24693 0.415389 0
M  V30 10128 C 936.852 1.61038 -3.09625 0
M  V30 10129 C 938.2 2.10829 -3.6856 0
M  V30 10130 O 939.224 1.7096 -3.12492 0
M  V30 10131 O 938.083 2.84064 -4.66873 0
M  V30 10132 H 935.177 0.459837 -0.687371 0
M  V30 10133 H 937.723 0.229412 -1.68142 0
M  V30 10134 H 936.495 0.856232 -3.81817 0
M  V30 10135 H 936.118 2.43336 -3.14441 0
M  V30 10136 N 937.115 1.49373 0.502552 0
M  V30 10137 C 938.062 1.65927 1.60427 0
M  V30 10138 C 939.032 0.500768 1.58371 0
M  V30 10139 O 940.217 0.727606 1.76382 0
M  V30 10140 C 937.357 1.73043 2.9858 0
M  V30 10141 C 936.47 3.00187 3.10663 0
M  V30 10142 C 935.605 2.98292 4.3954 0
M  V30 10143 C 934.644 4.20022 4.4525 0
M  V30 10144 N 933.781 4.16046 5.65553 0
M  V30 10145 H 938.621 2.59998 1.45619 0
M  V30 10146 H 936.158 1.28912 0.708519 0
M  V30 10147 H 938.116 1.7515 3.78653 0
M  V30 10148 H 936.746 0.824397 3.12095 0
M  V30 10149 H 935.798 3.07699 2.23663 0
M  V30 10150 H 937.11 3.9018 3.10742 0
M  V30 10151 H 936.264 2.98953 5.27932 0
M  V30 10152 H 935.003 2.06075 4.42023 0
M  V30 10153 H 934.008 4.19607 3.5526 0
M  V30 10154 H 935.233 5.13431 4.44484 0
M  V30 10155 H 933.179 3.26665 5.68881 0
M  V30 10156 H 933.096 4.99773 5.67242 0
M  V30 10157 H 934.364 4.20807 6.56156 0
M  V30 10158 N 938.594 -0.753485 1.38421 0
M  V30 10159 C 939.843 -1.50797 1.33952 0
M  V30 10160 C 940.156 -1.95482 -0.0678464 0
M  V30 10161 O 941.362 -2.7048 -0.235078 0
M  V30 10162 C 939.818 -2.72393 2.35224 0
M  V30 10163 C 939.426 -2.34733 3.81582 0
M  V30 10164 C 941.17 -3.50281 2.39798 0
M  V30 10165 C 939.077 -3.52939 4.7454 0
M  V30 10166 H 938.007 -0.566211 0.497916 0
M  V30 10167 H 940.658 -0.823659 1.63976 0
M  V30 10168 H 939.04 -3.42806 1.98243 0
M  V30 10169 H 940.214 -1.71985 4.27502 0
M  V30 10170 H 938.529 -1.69978 3.80127 0
M  V30 10171 H 941.126 -4.38172 3.06447 0
M  V30 10172 H 941.469 -3.91444 1.41695 0
M  V30 10173 H 942.002 -2.86881 2.75579 0
M  V30 10174 H 938.741 -3.16843 5.73839 0
M  V30 10175 H 938.261 -4.1473 4.33312 0
M  V30 10176 H 939.94 -4.19519 4.92557 0
M  V30 10177 N 940.072 -1.23292 -0.981677 0
M  V30 10178 C 941.297 -1.09176 -1.76339 0
M  V30 10179 C 941.722 0.352726 -1.84763 0
M  V30 10180 O 941.08 1.25509 -1.30832 0
M  V30 10181 C 941.128 -1.72046 -3.16911 0
M  V30 10182 O 940.232 -0.98174 -4.00544 0
M  V30 10183 H 939.573 -0.382755 -0.542581 0
M  V30 10184 H 942.103 -1.63319 -1.23239 0
M  V30 10185 H 942.113 -1.77232 -3.67495 0
M  V30 10186 H 940.788 -2.77154 -3.10095 0
M  V30 10187 H 939.365 -1.00672 -3.59054 0
M  V30 10188 N 941.55 1.18024 -1.04442 0
M  V30 10189 C 942.827 1.8398 -0.664125 0
M  V30 10190 C 943.207 1.92961 0.856116 0
M  V30 10191 O 942.555 1.45839 1.75907 0
M  V30 10192 C 942.765 3.22069 -1.34433 0
M  V30 10193 C 944.113 3.98063 -1.47754 0
M  V30 10194 O 945.137 3.31523 -1.30274 0
M  V30 10195 O 943.996 5.17291 -1.76272 0
M  V30 10196 H 941.09 0.793543 -0.23285 0
M  V30 10197 H 943.636 1.25385 -1.14354 0
M  V30 10198 H 942.408 3.10458 -2.38184 0
M  V30 10199 H 942.031 3.88325 -0.853782 0
M  V30 10200 N 943.028 0.824394 1.34319 0
M  V30 10201 C 944.274 0.413779 1.98534 0
M  V30 10202 C 944.607 -1.02089 1.65201 0
M  V30 10203 O 943.882 -1.71129 0.924402 0
M  V30 10204 C 944.165 0.61801 3.54757 0
M  V30 10205 C 944.018 2.0989 3.97827 0
M  V30 10206 C 945.337 0.0549041 4.40066 0
M  V30 10207 H 942.456 0.151815 0.721194 0
M  V30 10208 H 945.098 1.03723 1.5919 0
M  V30 10209 H 943.248 0.0873107 3.88402 0
M  V30 10210 H 944.92 2.69335 3.74508 0
M  V30 10211 H 943.163 2.58881 3.48085 0
M  V30 10212 H 943.834 2.1926 5.06586 0
M  V30 10213 H 946.31 0.508348 4.12983 0
M  V30 10214 H 945.186 0.227595 5.48428 0
M  V30 10215 H 945.447 -1.04025 4.29687 0
M  V30 10216 N 944.506 -1.46559 0.579492 0
M  V30 10217 C 945.731 -2.0729 0.0674595 0
M  V30 10218 C 946.156 -1.4259 -1.22677 0
M  V30 10219 O 945.514 -0.50857 -1.74021 0
M  V30 10220 C 945.562 -3.60492 -0.0882227 0
M  V30 10221 O 944.666 -3.96172 -1.14551 0
M  V30 10222 H 944.007 -0.661159 0.0613536 0
M  V30 10223 H 946.537 -1.88247 0.801519 0
M  V30 10224 H 946.547 -4.06929 -0.295411 0
M  V30 10225 H 945.222 -4.06976 0.856943 0
M  V30 10226 H 943.799 -3.61448 -0.917033 0
M  V30 10227 N 945.984 -0.3171 -1.54377 0
M  V30 10228 C 947.212 0.289558 -2.04864 0
M  V30 10229 C 947.627 1.46284 -1.19359 0
M  V30 10230 O 946.984 1.81135 -0.222795 0
M  V30 10231 C 947.035 0.730273 -3.54047 0
M  V30 10232 O 946.756 -0.396325 -4.36304 0
M  V30 10233 C 948.257 1.40041 -4.20599 0
M  V30 10234 H 945.477 0.0605836 -0.668259 0
M  V30 10235 H 948.021 -0.461411 -1.99227 0
M  V30 10236 H 946.176 1.43123 -3.59992 0
M  V30 10237 H 946.59 -0.0502901 -5.24476 0
M  V30 10238 H 948.064 1.65979 -5.26455 0
M  V30 10239 H 948.541 2.34565 -3.71316 0
M  V30 10240 H 949.147 0.742206 -4.18774 0
M  V30 10241 N 947.462 1.57535 -0.0451378 0
M  V30 10242 C 948.711 1.91628 0.629415 0
M  V30 10243 C 949.024 0.924754 1.72359 0
M  V30 10244 O 950.23 1.15751 2.45589 0
M  V30 10245 C 948.686 3.40322 1.17084 0
M  V30 10246 C 948.294 4.47867 0.109101 0
M  V30 10247 C 950.038 3.83458 1.82099 0
M  V30 10248 C 947.945 5.87671 0.663072 0
M  V30 10249 H 946.875 0.715163 0.238868 0
M  V30 10250 H 949.526 1.83151 -0.113046 0
M  V30 10251 H 947.908 3.43783 1.96543 0
M  V30 10252 H 949.082 4.55988 -0.664201 0
M  V30 10253 H 947.397 4.14034 -0.443227 0
M  V30 10254 H 949.994 4.85273 2.2453 0
M  V30 10255 H 950.337 3.19379 2.67026 0
M  V30 10256 H 950.87 3.82488 1.09305 0
M  V30 10257 H 947.609 6.55332 -0.148423 0
M  V30 10258 H 947.129 5.83124 1.4045 0
M  V30 10259 H 948.808 6.36737 1.14785 0
M  V30 10260 N 948.94 -0.228186 1.55939 0
M  V30 10261 C 950.186 -0.954964 1.78909 0
M  V30 10262 C 950.519 -1.8425 0.613648 0
M  V30 10263 O 949.794 -1.90604 -0.38737 0
M  V30 10264 C 950.077 -1.79957 3.1191 0
M  V30 10265 C 949.93 -0.938968 4.3989 0
M  V30 10266 C 951.249 -2.77859 3.41295 0
M  V30 10267 H 948.368 -0.345745 0.650868 0
M  V30 10268 H 951.01 -0.224244 1.88672 0
M  V30 10269 H 949.16 -2.42256 3.03717 0
M  V30 10270 H 950.832 -0.333225 4.60095 0
M  V30 10271 H 949.075 -0.244096 4.33113 0
M  V30 10272 H 949.746 -1.56416 5.29375 0
M  V30 10273 H 952.222 -2.25695 3.49572 0
M  V30 10274 H 951.098 -3.34062 4.35538 0
M  V30 10275 H 951.359 -3.55266 2.63132 0
M  V30 10276 N 950.418 -1.49637 -0.494624 0
M  V30 10277 C 951.829 -1.52573 -1.07603 0
M  V30 10278 C 952.18 -0.315591 -1.93645 0
M  V30 10279 O 951.305 0.573966 -2.08649 0
M  V30 10280 C 951.9 -2.7648 -1.95817 0
M  V30 10281 C 950.459 -2.82173 -2.49109 0
M  V30 10282 C 949.606 -2.4657 -1.2688 0
M  V30 10283 H 952.557 -1.56242 -0.278251 0
M  V30 10284 H 952.578 -2.57003 -2.80588 0
M  V30 10285 H 952.09 -3.64538 -1.33167 0
M  V30 10286 H 950.191 -1.9841 -3.15379 0
M  V30 10287 H 950.304 -3.84501 -2.85825 0
M  V30 10288 H 948.668 -1.98489 -1.59607 0
M  V30 10289 H 949.451 -3.3691 -0.659281 0
M  V30 10290 N 951.896 0.746133 -1.38819 0
M  V30 10291 C 953.126 1.53316 -1.38484 0
M  V30 10292 C 953.534 1.89183 0.0253332 0
M  V30 10293 O 952.877 1.5382 1.00424 0
M  V30 10294 C 952.939 2.85623 -2.18311 0
M  V30 10295 C 952.603 2.72253 -3.67052 0
M  V30 10296 C 953.6 2.41547 -4.60381 0
M  V30 10297 C 951.285 2.89472 -4.10501 0
M  V30 10298 C 953.279 2.28226 -5.9514 0
M  V30 10299 C 950.966 2.7577 -5.45338 0
M  V30 10300 C 951.964 2.45191 -6.37472 0
M  V30 10301 O 951.652 2.31561 -7.69828 0
M  V30 10302 H 951.384 0.480763 -0.475229 0
M  V30 10303 H 953.938 0.93057 -1.83111 0
M  V30 10304 H 952.168 3.481 -1.68414 0
M  V30 10305 H 953.857 3.47178 -2.10291 0
M  V30 10306 H 954.623 2.27905 -4.28117 0
M  V30 10307 H 950.502 3.12269 -3.3913 0
M  V30 10308 H 954.046 2.04279 -6.6702 0
M  V30 10309 H 949.943 2.88987 -5.77197 0
M  V30 10310 H 950.711 2.46716 -7.80432 0
M  V30 10311 N 953.375 1.23811 0.975125 0
M  V30 10312 C 954.624 1.06741 1.71141 0
M  V30 10313 C 954.937 -0.394986 1.9157 0
M  V30 10314 O 956.143 -0.685723 2.62698 0
M  V30 10315 C 954.599 1.86168 3.08009 0
M  V30 10316 C 954.207 3.36771 2.95448 0
M  V30 10317 C 955.951 1.77604 3.85561 0
M  V30 10318 C 953.858 4.0857 4.2758 0
M  V30 10319 H 952.788 0.395819 0.64175 0
M  V30 10320 H 955.439 1.47825 1.0872 0
M  V30 10321 H 953.821 1.37893 3.71216 0
M  V30 10322 H 954.995 3.92571 2.41298 0
M  V30 10323 H 953.31 3.46205 2.31368 0
M  V30 10324 H 955.907 2.28556 4.83391 0
M  V30 10325 H 956.25 0.739837 4.09673 0
M  V30 10326 H 956.783 2.23519 3.29065 0
M  V30 10327 H 953.522 5.12518 4.08663 0
M  V30 10328 H 953.042 3.57556 4.81574 0
M  V30 10329 H 954.721 4.15157 4.9624 0
M  V30 10330 N 954.853 -1.17469 1.05066 0
M  V30 10331 C 956.101 -1.87327 0.758485 0
M  V30 10332 C 956.422 -1.81358 -0.716549 0
M  V30 10333 O 955.692 -1.23868 -1.51768 0
M  V30 10334 H 954.272 -0.693512 0.277579 0
M  V30 10335 H 956.934 -1.4251 1.32954 0
M  V30 10336 H 956.03 -2.93101 1.0723 0
M  V30 10337 N 956.331 -0.831506 -1.3388 0
M  V30 10338 C 957.742 -0.481375 -1.80388 0
M  V30 10339 C 958.093 0.998993 -1.68863 0
M  V30 10340 O 957.218 1.77795 -1.2336 0
M  V30 10341 C 957.813 -0.86699 -3.27519 0
M  V30 10342 C 956.372 -0.569105 -3.72073 0
M  V30 10343 C 955.519 -1.07929 -2.55434 0
M  V30 10344 H 958.47 -1.02089 -1.21505 0
M  V30 10345 H 958.491 -0.174128 -3.80101 0
M  V30 10346 H 958.003 -1.94447 -3.35875 0
M  V30 10347 H 956.104 0.498607 -3.69249 0
M  V30 10348 H 956.217 -1.11918 -4.65845 0
M  V30 10349 H 954.581 -0.500465 -2.49735 0
M  V30 10350 H 955.364 -2.16339 -2.66556 0
M  V30 10351 N 957.809 1.4625 -0.587256 0
M  V30 10352 C 958.772 2.28812 0.133238 0
M  V30 10353 C 959.772 1.38645 0.814513 0
M  V30 10354 O 960.962 1.60975 0.665774 0
M  V30 10355 C 958.094 3.19147 1.19824 0
M  V30 10356 H 959.287 2.93991 -0.592386 0
M  V30 10357 H 956.84 1.52435 -0.345416 0
M  V30 10358 H 957.575 2.58725 1.95529 0
M  V30 10359 H 957.36 3.85541 0.71418 0
M  V30 10360 H 958.85 3.81278 1.70344 0
M  V30 10361 N 959.287 0.325282 1.54207 0
M  V30 10362 C 960.217 -0.532574 2.27345 0
M  V30 10363 C 961.198 -1.11791 1.28206 0
M  V30 10364 O 962.383 -1.14272 1.57021 0
M  V30 10365 C 959.513 -1.69274 3.03255 0
M  V30 10366 C 958.467 -1.23662 4.09746 0
M  V30 10367 C 957.793 -2.48386 4.73506 0
M  V30 10368 C 959.093 -0.350244 5.21124 0
M  V30 10369 H 960.787 0.0775108 2.993 0
M  V30 10370 H 958.333 0.0387193 1.43948 0
M  V30 10371 H 960.286 -2.29917 3.53152 0
M  V30 10372 H 959.01 -2.32944 2.28921 0
M  V30 10373 H 957.669 -0.653106 3.60735 0
M  V30 10374 H 957.317 -3.10424 3.95786 0
M  V30 10375 H 957.017 -2.18558 5.45441 0
M  V30 10376 H 958.541 -3.09789 5.26178 0
M  V30 10377 H 959.955 -0.863011 5.66767 0
M  V30 10378 H 958.352 -0.14466 5.99926 0
M  V30 10379 H 959.422 0.618457 4.8094 0
M  V30 10380 N 960.765 -1.57509 0.0534917 0
M  V30 10381 C 961.713 -2.12851 -0.937931 0
M  V30 10382 C 962.707 -1.06088 -1.32067 0
M  V30 10383 O 963.913 -1.24494 -1.30005 0
M  V30 10384 H 960.288 -0.680357 -0.320342 0
M  V30 10385 H 962.259 -2.95047 -0.446077 0
M  V30 10386 C 961.008 -2.69034 -2.20264 0
M  V30 10387 H 960.331 -3.50848 -1.91693 0
M  V30 10388 H 961.771 -3.11375 -2.87788 0
M  V30 10389 C 960.23 -1.62919 -2.94888 0
M  V30 10390 O 960.76 -1.04334 -3.87914 0
M  V30 10391 N 958.966 -1.34385 -2.57661 0
M  V30 10392 H 958.513 -1.82214 -1.82088 0
M  V30 10393 H 958.471 -0.636149 -3.07897 0
M  V30 10394 N 962.243 0.219913 -1.56058 0
M  V30 10395 C 963.492 0.942119 -1.78345 0
M  V30 10396 C 963.805 1.85435 -0.622344 0
M  V30 10397 O 965.011 2.61533 -0.728886 0
M  V30 10398 C 963.467 1.72544 -3.15843 0
M  V30 10399 C 963.075 0.859263 -4.39682 0
M  V30 10400 C 964.819 2.43876 -3.47455 0
M  V30 10401 C 962.726 1.64003 -5.68205 0
M  V30 10402 H 961.656 0.355514 -0.664925 0
M  V30 10403 H 964.307 0.195963 -1.82451 0
M  V30 10404 H 962.689 2.51456 -3.05918 0
M  V30 10405 H 963.863 0.110562 -4.60667 0
M  V30 10406 H 962.178 0.257985 -4.156 0
M  V30 10407 H 964.775 3.02794 -4.40704 0
M  V30 10408 H 965.118 3.16843 -2.7003 0
M  V30 10409 H 965.651 1.71952 -3.58716 0
M  V30 10410 H 962.39 0.953606 -6.48526 0
M  V30 10411 H 961.91 2.3633 -5.51279 0
M  V30 10412 H 963.589 2.20028 -6.08438 0
M  V30 10413 N 963.721 1.49897 0.486681 0
M  V30 10414 C 964.967 1.60342 1.2417 0
M  V30 10415 C 965.3 0.295694 1.91936 0
M  V30 10416 O 964.575 -0.701788 1.81398 0
M  V30 10417 C 964.858 2.77281 2.29755 0
M  V30 10418 C 964.711 4.1789 1.66397 0
M  V30 10419 C 966.03 2.89817 3.31201 0
M  V30 10420 H 963.149 0.583605 0.450083 0
M  V30 10421 H 965.791 1.82232 0.537734 0
M  V30 10422 H 963.941 2.58748 2.89796 0
M  V30 10423 H 965.613 4.47975 1.10073 0
M  V30 10424 H 963.856 4.22872 0.967579 0
M  V30 10425 H 964.527 4.95612 2.43049 0
M  V30 10426 H 967.003 3.06732 2.81167 0
M  V30 10427 H 965.879 3.7329 4.02425 0
M  V30 10428 H 966.14 1.9977 3.94391 0
M  V30 10429 N 965.199 -0.738761 1.39212 0
M  V30 10430 C 966.146 -1.85273 1.37631 0
M  V30 10431 C 967.116 -1.64407 0.236572 0
M  V30 10432 O 968.301 -1.85866 0.431104 0
M  V30 10433 C 965.441 -3.22745 1.22188 0
M  V30 10434 C 964.554 -3.55342 2.45674 0
M  V30 10435 C 963.689 -4.82195 2.22847 0
M  V30 10436 C 962.728 -5.07625 3.42029 0
M  V30 10437 N 961.865 -6.25679 3.18543 0
M  V30 10438 H 966.705 -1.85959 2.32859 0
M  V30 10439 H 964.242 -0.908716 1.15675 0
M  V30 10440 H 966.2 -4.02095 1.11245 0
M  V30 10441 H 964.83 -3.21347 0.30592 0
M  V30 10442 H 963.882 -2.70722 2.67233 0
M  V30 10443 H 965.194 -3.70054 3.34457 0
M  V30 10444 H 964.348 -5.69518 2.09126 0
M  V30 10445 H 963.087 -4.6965 1.31454 0
M  V30 10446 H 962.092 -4.18765 3.56253 0
M  V30 10447 H 963.317 -5.22058 4.34319 0
M  V30 10448 H 961.263 -6.14429 2.2981 0
M  V30 10449 H 961.18 -6.40961 4.0088 0
M  V30 10450 H 962.448 -7.15851 3.08508 0
M  V30 10451 N 966.677 -1.24326 -0.968545 0
M  V30 10452 C 967.609 -0.992749 -2.06584 0
M  V30 10453 C 968.622 0.0374902 -1.62757 0
M  V30 10454 O 969.811 -0.199448 -1.77382 0
M  V30 10455 C 966.911 -0.476165 -3.35538 0
M  V30 10456 C 966.084 -1.56934 -4.08277 0
M  V30 10457 C 965.143 -1.05555 -5.15504 0
M  V30 10458 O 964.169 -1.74707 -5.41725 0
M  V30 10459 N 965.371 0.110465 -5.80395 0
M  V30 10460 H 968.136 -1.93752 -2.28649 0
M  V30 10461 H 965.697 -1.15344 -1.13611 0
M  V30 10462 H 967.689 -0.117223 -4.0453 0
M  V30 10463 H 966.259 0.374315 -3.10351 0
M  V30 10464 H 965.479 -2.10051 -3.33575 0
M  V30 10465 H 966.767 -2.30415 -4.53637 0
M  V30 10466 H 966.165 0.688614 -5.61493 0
M  V30 10467 H 964.722 0.41056 -6.50506 0
M  V30 10468 N 968.156 1.1691 -1.05688 0
M  V30 10469 C 969.404 1.86922 -0.768409 0
M  V30 10470 C 969.725 1.81735 0.706921 0
M  V30 10471 O 968.995 1.24671 1.51109 0
M  V30 10472 H 967.575 0.69203 -0.281253 0
M  V30 10473 H 970.237 1.41803 -1.33708 0
M  V30 10474 H 969.333 2.92528 -1.08783 0
M  V30 10475 N 969.634 0.838594 1.33437 0
M  V30 10476 C 970.864 0.446995 2.01707 0
M  V30 10477 C 971.272 -0.956335 1.63251 0
M  V30 10478 O 970.615 -1.63289 0.841566 0
M  V30 10479 C 970.677 0.487707 3.56176 0
M  V30 10480 C 970.341 1.8471 4.18009 0
M  V30 10481 C 971.338 2.81028 4.374 0
M  V30 10482 C 969.023 2.13987 4.54439 0
M  V30 10483 C 971.017 4.04785 4.92369 0
M  V30 10484 C 968.704 3.38 5.09116 0
M  V30 10485 C 969.702 4.33216 5.28027 0
M  V30 10486 O 969.39 5.55036 5.81541 0
M  V30 10487 H 969.122 0.175799 0.652741 0
M  V30 10488 H 971.676 1.13265 1.71348 0
M  V30 10489 H 969.906 -0.254719 3.8586 0
M  V30 10490 H 971.595 0.113971 4.0574 0
M  V30 10491 H 972.361 2.5971 4.09604 0
M  V30 10492 H 968.24 1.40668 4.39014 0
M  V30 10493 H 971.784 4.79114 5.07046 0
M  V30 10494 H 967.681 3.59175 5.36343 0
M  V30 10495 H 968.449 5.56772 5.99956 0
M  V30 10496 N 971.112 -1.45937 0.595003 0
M  V30 10497 C 972.022 -2.34221 -0.133325 0
M  V30 10498 C 973.038 -1.50491 -0.873407 0
M  V30 10499 O 974.214 -1.83328 -0.833828 0
M  V30 10500 C 971.279 -3.27896 -1.12628 0
M  V30 10501 C 970.34 -4.27529 -0.389532 0
M  V30 10502 C 969.573 -5.16729 -1.33519 0
M  V30 10503 O 969.796 -5.09102 -2.57238 0
M  V30 10504 O 968.73 -5.96023 -0.839084 0
M  V30 10505 H 972.556 -2.97877 0.591861 0
M  V30 10506 H 970.141 -1.45113 0.355329 0
M  V30 10507 H 972.023 -3.85654 -1.69851 0
M  V30 10508 H 970.698 -2.6682 -1.83272 0
M  V30 10509 H 969.605 -3.73424 0.224843 0
M  V30 10510 H 970.938 -4.91425 0.276169 0
M  V30 10511 N 972.59 -0.333456 -1.54032 0
M  V30 10512 C 973.838 0.265608 -2.00347 0
M  V30 10513 C 974.159 1.51873 -1.2231 0
M  V30 10514 O 973.429 1.93142 -0.327549 0
M  V30 10515 H 972.009 0.101135 -0.740122 0
M  V30 10516 H 974.671 -0.452285 -1.8958 0
M  V30 10517 H 973.767 0.51511 -3.0782 0
M  V30 10518 N 974.068 1.57479 -0.061844 0
M  V30 10519 C 975.016 2.13346 0.926629 0
M  V30 10520 C 976.01 1.06787 1.31502 0
M  V30 10521 O 977.216 1.25181 1.29343 0
M  V30 10522 H 973.591 0.682046 0.316729 0
M  V30 10523 H 975.562 2.95279 0.430424 0
M  V30 10524 C 974.311 2.70198 2.18834 0
M  V30 10525 H 973.634 3.51859 1.89829 0
M  V30 10526 H 975.074 3.12897 2.86132 0
M  V30 10527 C 973.533 1.64481 2.9402 0
M  V30 10528 O 974.063 1.0639 3.87355 0
M  V30 10529 N 972.269 1.35749 2.56944 0
M  V30 10530 H 971.816 1.83177 1.81119 0
M  V30 10531 H 971.774 0.652469 3.07555 0
M  V30 10532 N 975.546 -0.211634 1.56173 0
M  V30 10533 C 976.793 -0.93455 1.79645 0
M  V30 10534 C 977.121 -1.83936 0.632294 0
M  V30 10535 O 976.376 -1.91919 -0.382841 0
M  V30 10536 C 976.675 -1.79657 3.08963 0
M  V30 10537 C 976.341 -1.04415 4.38644 0
M  V30 10538 C 975.003 -0.836351 4.73876 0
M  V30 10539 C 977.355 -0.51355 5.18664 0
M  V30 10540 C 974.683 -0.0861976 5.86637 0
M  V30 10541 C 977.035 0.223309 6.32206 0
M  V30 10542 C 975.699 0.442279 6.66033 0
M  V30 10543 H 974.969 -0.341976 0.657368 0
M  V30 10544 H 977.616 -0.202024 1.90431 0
M  V30 10545 H 975.921 -2.59726 2.93342 0
M  V30 10546 H 977.618 -2.35823 3.24328 0
M  V30 10547 H 974.208 -1.21611 4.10985 0
M  V30 10548 H 978.392 -0.661541 4.91871 0
M  V30 10549 H 973.648 0.0935866 6.11328 0
M  V30 10550 H 977.822 0.641917 6.93435 0
M  V30 10551 H 975.449 1.02547 7.53252 0
M  V30 10552 N 977.024 -1.50153 -0.478725 0
M  V30 10553 C 978.273 -1.60002 -1.22809 0
M  V30 10554 C 978.586 -0.302277 -1.9325 0
M  V30 10555 O 979.792 -0.279583 -2.70057 0
M  V30 10556 C 978.248 -2.82402 -2.23108 0
M  V30 10557 C 977.856 -4.19023 -1.58505 0
M  V30 10558 C 979.6 -3.01593 -2.98734 0
M  V30 10559 C 977.507 -5.32618 -2.57045 0
M  V30 10560 H 976.437 -0.595822 -0.462073 0
M  V30 10561 H 979.088 -1.76573 -0.499412 0
M  V30 10562 H 977.47 -2.59373 -2.99235 0
M  V30 10563 H 978.644 -4.52277 -0.882187 0
M  V30 10564 H 976.959 -4.05374 -0.951877 0
M  V30 10565 H 979.556 -3.8363 -3.72468 0
M  V30 10566 H 979.899 -2.1302 -3.57671 0
M  V30 10567 H 980.432 -3.24766 -2.29721 0
M  V30 10568 H 977.171 -6.23321 -2.02858 0
M  V30 10569 H 976.691 -5.03792 -3.25505 0
M  V30 10570 H 978.37 -5.62877 -3.19028 0
M  V30 10571 N 978.502 0.731368 -1.39602 0
M  V30 10572 C 979.75 1.48805 -1.36753 0
M  V30 10573 C 980.071 1.94969 0.034676 0
M  V30 10574 O 979.341 1.69243 0.986591 0
M  V30 10575 H 977.921 0.55203 -0.503261 0
M  V30 10576 H 980.583 0.868013 -1.74504 0
M  V30 10577 H 979.679 2.36844 -2.03252 0
M  V30 10578 N 979.98 1.24838 0.961938 0
M  V30 10579 C 980.943 1.04674 2.03902 0
M  V30 10580 C 981.943 0.00204674 1.608 0
M  V30 10581 O 983.133 0.243555 1.72489 0
M  V30 10582 C 980.265 0.587736 3.35795 0
M  V30 10583 H 981.458 2.00278 2.23223 0
M  V30 10584 H 979.011 1.07142 1.138 0
M  V30 10585 H 979.746 -0.371244 3.22168 0
M  V30 10586 H 979.531 1.34182 3.68426 0
M  V30 10587 H 981.021 0.467867 4.14971 0
M  V30 10588 N 981.458 -1.16348 1.06306 0
M  V30 10589 C 982.388 -2.2291 0.695234 0
M  V30 10590 C 983.369 -1.67208 -0.312343 0
M  V30 10591 O 984.554 -1.93293 -0.187442 0
M  V30 10592 C 981.684 -3.47205 0.0810149 0
M  V30 10593 C 980.638 -4.15801 1.01458 0
M  V30 10594 C 979.964 -5.3405 0.263656 0
M  V30 10595 C 981.264 -4.66766 2.34365 0
M  V30 10596 H 982.958 -2.53934 1.58613 0
M  V30 10597 H 980.504 -1.22056 0.76409 0
M  V30 10598 H 982.457 -4.2098 -0.18818 0
M  V30 10599 H 981.181 -3.15482 -0.844897 0
M  V30 10600 H 979.84 -3.43954 1.26852 0
M  V30 10601 H 979.488 -4.9858 -0.665378 0
M  V30 10602 H 979.188 -5.80885 0.88582 0
M  V30 10603 H 980.712 -6.106 0.00200994 0
M  V30 10604 H 982.126 -5.3212 2.13356 0
M  V30 10605 H 980.523 -5.24223 2.9208 0
M  V30 10606 H 981.593 -3.82969 2.97426 0
M  V30 10607 N 982.937 -0.845659 -1.3299 0
M  V30 10608 C 983.847 -0.2864 -2.32845 0
M  V30 10609 C 984.863 0.591105 -1.63652 0
M  V30 10610 O 986.039 0.493615 -1.95257 0
M  V30 10611 C 983.104 0.523636 -3.42723 0
M  V30 10612 C 982.165 -0.378945 -4.27624 0
M  V30 10613 C 981.398 0.392526 -5.32255 0
M  V30 10614 O 981.621 1.6235 -5.46808 0
M  V30 10615 O 980.555 -0.237 -6.01433 0
M  V30 10616 H 984.381 -1.11346 -2.82552 0
M  V30 10617 H 981.966 -0.608356 -1.36453 0
M  V30 10618 H 983.848 0.983718 -4.09757 0
M  V30 10619 H 982.523 1.32764 -2.95221 0
M  V30 10620 H 981.43 -0.887012 -3.63432 0
M  V30 10621 H 982.763 -1.1479 -4.78627 0
M  V30 10622 N 984.415 1.45619 -0.602734 0
M  V30 10623 C 985.643 2.06647 -0.102253 0
M  V30 10624 C 986.058 1.4482 1.21131 0
M  V30 10625 O 985.415 0.560621 1.73676 0
M  V30 10626 C 985.466 3.61467 0.0490113 0
M  V30 10627 O 985.187 4.20985 -1.21257 0
M  V30 10628 C 986.688 4.39469 0.581517 0
M  V30 10629 H 983.908 0.667685 -0.0666155 0
M  V30 10630 H 986.452 1.86939 -0.829091 0
M  V30 10631 H 984.607 3.80534 0.726153 0
M  V30 10632 H 985.021 5.14103 -1.03915 0
M  V30 10633 H 986.495 5.48318 0.636462 0
M  V30 10634 H 986.972 4.0891 1.60277 0
M  V30 10635 H 987.578 4.25256 -0.061419 0
M  V30 10636 N 985.893 0.34162 1.53853 0
M  V30 10637 C 987.121 -0.256929 2.05299 0
M  V30 10638 C 987.536 -1.44366 1.21671 0
M  V30 10639 O 986.893 -1.80758 0.251584 0
M  V30 10640 C 986.944 -0.673854 3.55164 0
M  V30 10641 O 986.665 0.465687 4.35618 0
M  V30 10642 C 988.166 -1.33332 4.22773 0
M  V30 10643 H 985.386 -0.0499445 0.669139 0
M  V30 10644 H 987.93 0.493048 1.98467 0
M  V30 10645 H 986.085 -1.37378 3.62224 0
M  V30 10646 H 986.499 0.133723 5.2433 0
M  V30 10647 H 987.973 -1.57582 5.29029 0
M  V30 10648 H 988.45 -2.28628 3.75001 0
M  V30 10649 H 989.056 -0.675489 4.19901 0
M  V30 10650 N 987.371 -1.57444 0.0701946 0
M  V30 10651 C 988.619 -1.93047 -0.598106 0
M  V30 10652 C 988.94 -0.950841 -1.70247 0
M  V30 10653 O 988.21 0.00127177 -1.959 0
M  V30 10654 H 986.79 -0.712648 -0.223924 0
M  V30 10655 H 989.452 -1.94481 0.127674 0
M  V30 10656 H 988.548 -2.94807 -1.02445 0
M  V30 10657 N 988.849 0.203349 -1.56283 0
M  V30 10658 C 990.095 0.926381 -1.80405 0
M  V30 10659 C 990.428 1.8325 -0.642883 0
M  V30 10660 O 989.703 1.91196 0.356998 0
M  V30 10661 C 989.986 1.74972 -3.14733 0
M  V30 10662 C 989.839 0.868866 -4.41328 0
M  V30 10663 C 991.158 2.72394 -3.45672 0
M  V30 10664 H 988.277 0.335346 -0.656286 0
M  V30 10665 H 990.919 0.1942 -1.89005 0
M  V30 10666 H 989.069 2.37394 -3.07533 0
M  V30 10667 H 990.741 0.259986 -4.60567 0
M  V30 10668 H 988.984 0.175161 -4.33446 0
M  V30 10669 H 989.655 1.47975 -5.31796 0
M  V30 10670 H 992.131 2.20105 -3.53119 0
M  V30 10671 H 991.007 3.27091 -4.40798 0
M  V30 10672 H 991.268 3.51035 -2.6875 0
M  V30 10673 N 990.327 1.50405 0.470755 0
M  V30 10674 C 991.573 1.6165 1.22462 0
M  V30 10675 C 991.906 0.316034 1.91611 0
M  V30 10676 O 991.181 -0.682509 1.82132 0
M  V30 10677 C 991.464 2.79702 2.26801 0
M  V30 10678 C 991.317 4.19631 1.61955 0
M  V30 10679 C 992.636 2.93313 3.28109 0
M  V30 10680 H 989.755 0.588345 0.443868 0
M  V30 10681 H 992.397 1.82792 0.518376 0
M  V30 10682 H 990.547 2.61807 2.87036 0
M  V30 10683 H 992.219 4.49117 1.05316 0
M  V30 10684 H 990.462 4.23874 0.922674 0
M  V30 10685 H 991.133 4.98162 2.37779 0
M  V30 10686 H 993.609 3.09697 2.77897 0
M  V30 10687 H 992.485 3.77537 3.98443 0
M  V30 10688 H 992.746 2.03942 3.9225 0
M  V30 10689 N 991.805 -0.723954 1.39988 0
M  V30 10690 C 992.735 -1.85103 1.42335 0
M  V30 10691 C 993.716 -1.6769 0.285297 0
M  V30 10692 O 994.901 -1.87846 0.492716 0
M  V30 10693 C 992.031 -3.22972 1.27697 0
M  V30 10694 C 990.985 -3.55041 2.39018 0
M  V30 10695 C 990.311 -4.91965 2.09462 0
M  V30 10696 C 991.611 -3.56889 3.8135 0
M  V30 10697 H 993.305 -1.83396 2.36656 0
M  V30 10698 H 990.851 -0.880926 1.13911 0
M  V30 10699 H 992.804 -4.01503 1.27958 0
M  V30 10700 H 991.528 -3.25233 0.298487 0
M  V30 10701 H 990.187 -2.78845 2.37993 0
M  V30 10702 H 989.835 -4.90819 1.10025 0
M  V30 10703 H 989.535 -5.14389 2.84038 0
M  V30 10704 H 991.059 -5.7284 2.11391 0
M  V30 10705 H 992.473 -4.25476 3.84243 0
M  V30 10706 H 990.87 -3.90836 4.55376 0
M  V30 10707 H 991.94 -2.56452 4.11534 0
M  V30 10708 N 993.283 -1.25346 -0.955304 0
M  V30 10709 C 994.213 -1.08152 -2.06943 0
M  V30 10710 C 995.194 0.00922598 -1.70097 0
M  V30 10711 O 996.379 -0.160181 -1.93538 0
M  V30 10712 C 993.509 -0.698745 -3.40198 0
M  V30 10713 C 992.463 -1.73965 -3.9105 0
M  V30 10714 C 991.789 -1.21158 -5.20792 0
M  V30 10715 C 993.089 -3.13829 -4.17503 0
M  V30 10716 H 994.783 -2.01345 -2.21586 0
M  V30 10717 H 992.329 -0.969459 -1.06478 0
M  V30 10718 H 994.282 -0.565394 -4.1759 0
M  V30 10719 H 993.006 0.268892 -3.25491 0
M  V30 10720 H 991.665 -1.86143 -3.15827 0
M  V30 10721 H 991.313 -0.234193 -5.02455 0
M  V30 10722 H 991.013 -1.90728 -5.55785 0
M  V30 10723 H 992.537 -1.09061 -6.00781 0
M  V30 10724 H 993.951 -3.04809 -4.85556 0
M  V30 10725 H 992.348 -3.80863 -4.63749 0
M  V30 10726 H 993.418 -3.6094 -3.23806 0
M  V30 10727 N 994.761 1.15782 -1.06922 0
M  V30 10728 C 995.691 2.22538 -0.707045 0
M  V30 10729 C 996.672 1.67371 0.303471 0
M  V30 10730 O 997.857 1.9339 0.177189 0
M  V30 10731 C 994.987 3.47158 -0.0994269 0
M  V30 10732 C 993.941 4.15257 -1.03661 0
M  V30 10733 C 993.267 5.33902 -0.291974 0
M  V30 10734 C 994.567 4.65516 -2.36837 0
M  V30 10735 H 996.261 2.53089 -1.59958 0
M  V30 10736 H 993.807 1.21649 -0.770552 0
M  V30 10737 H 995.76 4.21073 0.165852 0
M  V30 10738 H 994.484 3.15926 0.828155 0
M  V30 10739 H 993.143 3.43276 -1.28674 0
M  V30 10740 H 992.791 4.98926 0.638928 0
M  V30 10741 H 992.491 5.80407 -0.916613 0
M  V30 10742 H 994.015 6.1059 -0.0343915 0
M  V30 10743 H 995.429 5.30981 -2.16175 0
M  V30 10744 H 993.826 5.22666 -2.94856 0
M  V30 10745 H 994.896 3.81387 -2.99453 0
M  V30 10746 N 996.239 0.8527 1.3254 0
M  V30 10747 C 997.149 0.298744 2.3269 0
M  V30 10748 C 998.165 -0.582418 1.63963 0
M  V30 10749 O 999.341 -0.483253 1.95516 0
M  V30 10750 C 996.406 -0.505453 3.42996 0
M  V30 10751 C 995.467 0.401618 4.27417 0
M  V30 10752 C 994.7 -0.364294 5.32455 0
M  V30 10753 O 994.923 -1.59448 5.47661 0
M  V30 10754 O 993.857 0.268892 6.01299 0
M  V30 10755 H 997.683 1.12843 2.81958 0
M  V30 10756 H 995.268 0.615584 1.36128 0
M  V30 10757 H 997.15 -0.961974 4.10273 0
M  V30 10758 H 995.825 -1.31197 2.95921 0
M  V30 10759 H 994.732 0.906274 3.62957 0
M  V30 10760 H 996.065 1.17327 4.78012 0
M  V30 10761 N 997.718 -1.45297 0.610449 0
M  V30 10762 C 998.948 -2.0629 0.113047 0
M  V30 10763 C 999.356 -1.45527 -1.20907 0
M  V30 10764 O 998.699 -0.564837 -1.74801 0
M  V30 10765 C 998.761 -3.59366 -0.0979692 0
M  V30 10766 C 998.425 -4.42481 1.14279 0
M  V30 10767 C 999.422 -4.77277 2.06161 0
M  V30 10768 C 997.107 -4.83187 1.37241 0
M  V30 10769 C 999.101 -5.51639 3.19333 0
M  V30 10770 C 996.788 -5.57303 2.50713 0
M  V30 10771 C 997.786 -5.91445 3.41587 0
M  V30 10772 O 997.474 -6.64056 4.53083 0
M  V30 10773 H 997.206 -0.67264 0.0673159 0
M  V30 10774 H 999.76 -1.87486 0.838937 0
M  V30 10775 H 997.99 -3.76582 -0.878783 0
M  V30 10776 H 999.679 -4.02193 -0.547327 0
M  V30 10777 H 1000.44 -4.46384 1.89647 0
M  V30 10778 H 996.324 -4.56045 0.67407 0
M  V30 10779 H 999.868 -5.78207 3.90286 0
M  V30 10780 H 995.765 -5.8761 2.67179 0
M  V30 10781 H 996.533 -6.82509 4.51801 0
M  V30 10782 N 999.196 -0.349774 -1.5367 0
M  V30 10783 C 1000.44 0.245862 -2.00196 0
M  V30 10784 C 1000.76 1.51154 -1.24144 0
M  V30 10785 O 1001.96 2.18481 -1.61178 0
M  V30 10786 C 1000.42 0.488665 -3.56567 0
M  V30 10787 C 1000.03 -0.761475 -4.41481 0
M  V30 10788 C 1001.77 1.04282 -4.11492 0
M  V30 10789 C 999.679 -0.489128 -5.89374 0
M  V30 10790 H 998.609 0.0956493 -0.747909 0
M  V30 10791 H 1001.26 -0.466068 -1.77483 0
M  V30 10792 H 999.642 1.26145 -3.75371 0
M  V30 10793 H 1000.82 -1.53585 -4.34452 0
M  V30 10794 H 999.131 -1.23771 -3.9758 0
M  V30 10795 H 1001.73 1.26164 -5.19603 0
M  V30 10796 H 1002.07 2.00023 -3.65098 0
M  V30 10797 H 1002.6 0.330582 -3.96424 0
M  V30 10798 H 999.343 -1.41643 -6.40014 0
M  V30 10799 H 998.863 0.247039 -5.99291 0
M  V30 10800 H 1000.54 -0.1087 -6.46909 0
M  V30 10801 N 1000.67 1.57404 -0.0785433 0
M  V30 10802 C 1002.08 1.81118 0.45311 0
M  V30 10803 C 1002.44 0.992963 1.69218 0
M  V30 10804 O 1001.56 0.217448 2.15305 0
M  V30 10805 C 1002.16 3.28506 0.82882 0
M  V30 10806 C 1000.71 3.53042 1.3053 0
M  V30 10807 C 999.862 2.75739 0.29378 0
M  V30 10808 H 1002.81 1.55758 -0.304171 0
M  V30 10809 H 1002.83 3.40924 1.68971 0
M  V30 10810 H 1002.35 3.88031 -0.0731826 0
M  V30 10811 H 1000.45 2.98829 2.22558 0
M  V30 10812 H 1000.56 4.61724 1.27857 0
M  V30 10813 H 998.924 2.42703 0.772477 0
M  V30 10814 H 999.707 3.38005 -0.600613 0
M  V30 10815 N 1002.15 -0.195058 1.56388 0
M  V30 10816 C 1003.06 -1.26219 1.97752 0
M  V30 10817 C 1004.08 -1.49801 0.885192 0
M  V30 10818 O 1005.25 -1.62415 1.19094 0
M  V30 10819 C 1002.32 -2.5865 2.3087 0
M  V30 10820 C 1001.38 -2.4314 3.5381 0
M  V30 10821 C 1000.61 -3.69255 3.85339 0
M  V30 10822 O 1000.84 -4.73425 3.18159 0
M  V30 10823 O 999.77 -3.64782 4.78767 0
M  V30 10824 H 1003.6 -0.941161 2.88749 0
M  V30 10825 H 1001.18 -0.40006 1.43944 0
M  V30 10826 H 1003.06 -3.36814 2.53247 0
M  V30 10827 H 1001.74 -2.9038 1.43042 0
M  V30 10828 H 1000.64 -1.63086 3.3668 0
M  V30 10829 H 1001.98 -2.16341 4.42105 0
M  V30 10830 N 1003.63 -1.50653 -0.462772 0
M  V30 10831 C 1004.88 -1.61296 -1.21105 0
M  V30 10832 C 1005.19 -0.322757 -1.92919 0
M  V30 10833 O 1006.4 -0.308211 -2.69745 0
M  V30 10834 C 1004.85 -2.84752 -2.201 0
M  V30 10835 C 1004.46 -4.20681 -1.54051 0
M  V30 10836 C 1006.21 -3.04744 -2.95518 0
M  V30 10837 C 1004.11 -5.35314 -2.51381 0
M  V30 10838 H 1003.04 -0.60069 -0.455728 0
M  V30 10839 H 1005.69 -1.77093 -0.480656 0
M  V30 10840 H 1004.08 -2.62532 -2.96467 0
M  V30 10841 H 1005.25 -4.53187 -0.834168 0
M  V30 10842 H 1003.56 -4.06361 -0.908828 0
M  V30 10843 H 1006.16 -3.87559 -3.68378 0
M  V30 10844 H 1006.5 -2.16802 -3.55391 0
M  V30 10845 H 1007.04 -3.27185 -2.26263 0
M  V30 10846 H 1003.78 -6.25437 -1.96235 0
M  V30 10847 H 1003.3 -5.07216 -3.20144 0
M  V30 10848 H 1004.98 -5.66229 -3.1304 0
M  V30 10849 N 1005.11 0.71652 -1.4037 0
M  V30 10850 C 1006.34 1.50563 -1.4191 0
M  V30 10851 C 1006.75 1.88791 -0.0185456 0
M  V30 10852 O 1006.11 1.55378 0.957289 0
M  V30 10853 C 1006.16 2.78155 -2.30894 0
M  V30 10854 O 1005.88 2.41543 -3.65497 0
M  V30 10855 C 1007.38 3.72057 -2.41016 0
M  V30 10856 H 1004.6 0.464679 -0.48406 0
M  V30 10857 H 1007.15 0.883927 -1.8441 0
M  V30 10858 H 1005.3 3.36611 -1.91759 0
M  V30 10859 H 1005.71 3.23636 -4.12747 0
M  V30 10860 H 1007.19 4.58426 -3.07489 0
M  V30 10861 H 1007.67 4.15098 -1.43492 0
M  V30 10862 H 1008.27 3.19512 -2.80699 0
M  V30 10863 N 1006.59 1.25851 0.948643 0
M  V30 10864 C 1007.52 1.09248 2.06367 0
M  V30 10865 C 1008.5 -0.000205168 1.701 0
M  V30 10866 O 1009.68 0.170442 1.93451 0
M  V30 10867 C 1006.81 0.716777 3.39823 0
M  V30 10868 C 1005.77 1.76036 3.90122 0
M  V30 10869 C 1005.09 1.23918 5.20143 0
M  V30 10870 C 1006.39 3.16039 4.15833 0
M  V30 10871 H 1008.09 2.02518 2.20515 0
M  V30 10872 H 1005.63 0.975093 1.05962 0
M  V30 10873 H 1007.59 0.587531 4.17284 0
M  V30 10874 H 1006.31 -0.251626 3.25629 0
M  V30 10875 H 1004.97 1.87815 3.14835 0
M  V30 10876 H 1004.62 0.260836 5.02323 0
M  V30 10877 H 1004.32 1.93673 5.54765 0
M  V30 10878 H 1005.84 1.12245 6.00194 0
M  V30 10879 H 1007.25 3.0738 4.83933 0
M  V30 10880 H 1005.65 3.83317 4.61723 0
M  V30 10881 H 1006.72 3.62652 3.21887 0
M  V30 10882 N 1008.06 -1.15214 1.07534 0
M  V30 10883 C 1009.48 -1.67628 0.822045 0
M  V30 10884 C 1009.83 -1.8503 -0.652571 0
M  V30 10885 O 1008.95 -1.55497 -1.50498 0
M  V30 10886 C 1009.55 -3.04489 1.48566 0
M  V30 10887 C 1008.11 -3.53974 1.27983 0
M  V30 10888 C 1007.25 -2.29656 1.55414 0
M  V30 10889 H 1010.2 -0.994016 1.23713 0
M  V30 10890 H 1010.22 -3.69509 0.907916 0
M  V30 10891 H 1009.74 -2.91792 2.55888 0
M  V30 10892 H 1007.84 -3.71908 0.226906 0
M  V30 10893 H 1007.95 -4.35298 2.0013 0
M  V30 10894 H 1006.31 -2.35289 0.975251 0
M  V30 10895 H 1007.1 -2.19544 2.63923 0
M  V30 10896 N 1009.54 -0.859717 -1.32086 0
M  V30 10897 C 1010.79 -0.466271 -1.97367 0
M  V30 10898 C 1011.12 0.976728 -1.6785 0
M  V30 10899 O 1010.4 1.68618 -0.969449 0
M  V30 10900 C 1010.68 -0.711851 -3.52994 0
M  V30 10901 C 1010.53 -2.20364 -3.92122 0
M  V30 10902 C 1011.85 -0.17156 -4.39765 0
M  V30 10903 H 1008.97 -0.170883 -0.716916 0
M  V30 10904 H 1011.61 -1.07907 -1.56384 0
M  V30 10905 H 1009.76 -0.190258 -3.88034 0
M  V30 10906 H 1011.43 -2.7917 -3.67236 0
M  V30 10907 H 1009.68 -2.68019 -3.41099 0
M  V30 10908 H 1010.35 -2.32615 -5.00594 0
M  V30 10909 H 1012.82 -0.617665 -4.1149 0
M  V30 10910 H 1011.7 -0.372921 -5.47632 0
M  V30 10911 H 1011.96 0.925959 -4.32294 0
M  V30 10912 N 1011.02 1.44971 -0.618145 0
M  V30 10913 C 1012.27 2.01372 -0.115004 0
M  V30 10914 C 1012.58 1.49104 1.26599 0
M  V30 10915 O 1013.79 1.97549 1.86244 0
M  V30 10916 C 1012.24 3.59567 -0.154883 0
M  V30 10917 C 1011.85 4.20832 -1.53639 0
M  V30 10918 C 1013.6 4.23491 0.292468 0
M  V30 10919 C 1011.5 5.7121 -1.53208 0
M  V30 10920 H 1010.43 0.752979 -0.0392267 0
M  V30 10921 H 1013.08 1.66329 -0.775032 0
M  V30 10922 H 1011.47 3.91847 0.572001 0
M  V30 10923 H 1012.64 4.00109 -2.28582 0
M  V30 10924 H 1010.96 3.69143 -1.92672 0
M  V30 10925 H 1013.55 5.33771 0.315032 0
M  V30 10926 H 1013.9 3.9491 1.31725 0
M  V30 10927 H 1014.43 3.95967 -0.381493 0
M  V30 10928 H 1011.17 6.04506 -2.53481 0
M  V30 10929 H 1010.69 5.94094 -0.825387 0
M  V30 10930 H 1012.37 6.34606 -1.26032 0
M  V30 10931 N 1012.5 0.357919 1.53482 0
M  V30 10932 C 1013.46 -0.479797 2.24122 0
M  V30 10933 C 1014.46 -1.01596 1.24639 0
M  V30 10934 O 1015.65 -0.902928 1.48973 0
M  V30 10935 C 1012.78 -1.66983 2.97203 0
M  V30 10936 H 1013.98 0.138219 2.99581 0
M  V30 10937 H 1011.53 0.109484 1.55916 0
M  V30 10938 H 1012.26 -2.32615 2.25966 0
M  V30 10939 H 1012.05 -1.29242 3.70188 0
M  V30 10940 H 1013.54 -2.26367 3.50924 0
M  V30 10941 N 1013.98 -1.5736 0.0868897 0
M  V30 10942 C 1014.94 -2.12436 -0.860439 0
M  V30 10943 C 1015.94 -1.05175 -1.21634 0
M  V30 10944 O 1017.13 -1.31098 -1.14713 0
M  V30 10945 C 1014.26 -2.63818 -2.159 0
M  V30 10946 H 1015.45 -2.97453 -0.382346 0
M  V30 10947 H 1013.01 -1.55458 -0.162009 0
M  V30 10948 H 1013.74 -1.82298 -2.68212 0
M  V30 10949 H 1013.53 -3.42234 -1.91359 0
M  V30 10950 H 1015.02 -3.06452 -2.83685 0
M  V30 10951 N 1015.45 0.186762 -1.56489 0
M  V30 10952 C 1016.38 1.23395 -1.98232 0
M  V30 10953 C 1017.37 1.4702 -0.855526 0
M  V30 10954 O 1018.55 1.58616 -1.12048 0
M  V30 10955 C 1015.68 2.57635 -2.32898 0
M  V30 10956 C 1014.63 2.48607 -3.48394 0
M  V30 10957 C 1013.96 3.87196 -3.68759 0
M  V30 10958 C 1015.26 2.00398 -4.82325 0
M  V30 10959 H 1016.95 0.887026 -2.85958 0
M  V30 10960 H 1014.5 0.42525 -1.37578 0
M  V30 10961 H 1016.45 3.31082 -2.60696 0
M  V30 10962 H 1015.18 2.94084 -1.42064 0
M  V30 10963 H 1013.84 1.77615 -3.207 0
M  V30 10964 H 1013.48 4.21012 -2.75241 0
M  V30 10965 H 1013.18 3.82029 -4.46462 0
M  V30 10966 H 1014.71 4.62253 -3.98941 0
M  V30 10967 H 1016.12 2.6361 -5.091 0
M  V30 10968 H 1014.52 2.06214 -5.63556 0
M  V30 10969 H 1015.59 0.957562 -4.75351 0
M  V30 10970 N 1016.93 1.50896 0.454776 0
M  V30 10971 C 1018.16 1.66759 1.23313 0
M  V30 10972 C 1018.58 0.35722 1.84677 0
M  V30 10973 O 1017.94 -0.680771 1.68033 0
M  V30 10974 C 1017.99 2.77254 2.3057 0
M  V30 10975 O 1017.09 2.39642 3.35627 0
M  V30 10976 H 1016.43 0.556599 0.362068 0
M  V30 10977 H 1018.96 1.97365 0.539274 0
M  V30 10978 H 1018.97 3.0082 2.75629 0
M  V30 10979 H 1017.65 3.72349 1.85281 0
M  V30 10980 H 1016.23 2.26584 2.96165 0
M  V30 10981 N 1018.41 -0.709066 1.40748 0
M  V30 10982 C 1019.66 -1.4646 1.38681 0
M  V30 10983 C 1019.97 -1.95599 -0.0056209 0
M  V30 10984 O 1021.18 -2.71091 -0.148907 0
M  V30 10985 C 1019.63 -2.64771 2.43771 0
M  V30 10986 C 1019.24 -2.22474 3.88856 0
M  V30 10987 C 1020.99 -3.42475 2.50821 0
M  V30 10988 C 1018.89 -3.37663 4.85528 0
M  V30 10989 H 1017.82 -0.550084 0.515678 0
M  V30 10990 H 1020.47 -0.771074 1.66513 0
M  V30 10991 H 1018.86 -3.36325 2.09048 0
M  V30 10992 H 1020.03 -1.58297 4.32757 0
M  V30 10993 H 1018.35 -1.57798 3.85342 0
M  V30 10994 H 1020.94 -4.28201 3.20232 0
M  V30 10995 H 1021.29 -3.86738 1.54076 0
M  V30 10996 H 1021.82 -2.77969 2.84567 0
M  V30 10997 H 1018.56 -2.98426 5.83628 0
M  V30 10998 H 1018.08 -4.00734 4.46287 0
M  V30 10999 H 1019.76 -4.03636 5.05655 0
M  V30 11000 N 1019.89 -1.26353 -0.941956 0
M  V30 11001 C 1020.85 -1.07904 -2.02211 0
M  V30 11002 C 1021.85 -0.0276283 -1.60776 0
M  V30 11003 O 1023.04 -0.270965 -1.7208 0
M  V30 11004 C 1020.17 -0.641084 -3.34818 0
M  V30 11005 H 1021.37 -2.03804 -2.20009 0
M  V30 11006 H 1018.92 -1.08939 -1.12081 0
M  V30 11007 H 1019.66 0.319943 -3.22718 0
M  V30 11008 H 1019.44 -1.40027 -3.66244 0
M  V30 11009 H 1020.93 -0.533826 -4.14174 0
M  V30 11010 N 1021.37 1.14642 -1.08144 0
M  V30 11011 C 1022.28 2.23257 -0.720668 0
M  V30 11012 C 1023.29 1.71866 0.271648 0
M  V30 11013 O 1024.47 2.01064 0.116266 0
M  V30 11014 C 1021.53 3.46447 -0.132542 0
M  V30 11015 C 1020.6 4.12789 -1.17913 0
M  V30 11016 C 1019.83 5.30099 -0.618971 0
M  V30 11017 O 1020.05 5.6762 0.562418 0
M  V30 11018 O 1018.99 5.86154 -1.36774 0
M  V30 11019 H 1022.81 2.56463 -1.62667 0
M  V30 11020 H 1020.4 1.22521 -0.854932 0
M  V30 11021 H 1022.28 4.20959 0.19277 0
M  V30 11022 H 1020.95 3.14971 0.746662 0
M  V30 11023 H 1019.86 3.40163 -1.55693 0
M  V30 11024 H 1021.19 4.48365 -2.03051 0
M  V30 11025 N 1022.85 0.866709 1.31628 0
M  V30 11026 C 1024.07 0.48956 2.01539 0
M  V30 11027 C 1024.5 -0.909556 1.64647 0
M  V30 11028 O 1023.85 -1.59959 0.853391 0
M  V30 11029 C 1023.9 0.650176 3.5469 0
M  V30 11030 O 1023.01 -0.311908 4.11219 0
M  V30 11031 H 1022.35 0.195144 0.634677 0
M  V30 11032 H 1024.88 1.16923 1.679 0
M  V30 11033 H 1024.89 0.542236 4.04381 0
M  V30 11034 H 1023.56 1.67038 3.80882 0
M  V30 11035 H 1022.14 -0.159197 3.7256 0
M  V30 11036 N 1024.32 -1.44642 0.625825 0
M  V30 11037 C 1025.55 -2.06971 0.133373 0
M  V30 11038 C 1025.97 -1.46421 -1.18078 0
M  V30 11039 O 1025.33 -0.563676 -1.72315 0
M  V30 11040 C 1025.38 -3.6059 0.0265097 0
M  V30 11041 O 1024.48 -3.99615 -1.01889 0
M  V30 11042 H 1023.82 -0.658873 0.0823568 0
M  V30 11043 H 1026.35 -1.85601 0.861002 0
M  V30 11044 H 1026.36 -4.07663 -0.1658 0
M  V30 11045 H 1025.04 -4.04043 0.985986 0
M  V30 11046 H 1023.62 -3.64183 -0.801577 0
M  V30 11047 N 1025.8 -0.366053 -1.5329 0
M  V30 11048 C 1027.03 0.224236 -2.05681 0
M  V30 11049 C 1027.44 1.42412 -1.23952 0
M  V30 11050 O 1026.8 1.80334 -0.280309 0
M  V30 11051 C 1026.85 0.617266 -3.56191 0
M  V30 11052 O 1026.57 -0.534931 -4.34822 0
M  V30 11053 C 1028.07 1.26589 -4.24841 0
M  V30 11054 H 1025.29 0.0392928 -0.669849 0
M  V30 11055 H 1027.84 -0.52456 -1.97658 0
M  V30 11056 H 1025.99 1.31598 -3.64364 0
M  V30 11057 H 1026.41 -0.217123 -5.2405 0
M  V30 11058 H 1027.88 1.49146 -5.31469 0
M  V30 11059 H 1028.36 2.22633 -3.78591 0
M  V30 11060 H 1028.96 0.6086 -4.20923 0
M  V30 11061 N 1027.28 1.57312 -0.0952337 0
M  V30 11062 C 1028.21 2.11059 0.893678 0
M  V30 11063 C 1029.22 1.04787 1.24594 0
M  V30 11064 O 1030.41 1.32233 1.19903 0
M  V30 11065 C 1027.51 2.57552 2.20272 0
M  V30 11066 C 1026.69 3.87661 2.02578 0
M  V30 11067 C 1025.75 4.2 3.16996 0
M  V30 11068 O 1024.77 4.89219 2.90953 0
M  V30 11069 N 1025.97 3.75414 4.42769 0
M  V30 11070 H 1028.74 2.96532 0.434632 0
M  V30 11071 H 1026.3 1.6165 0.0898661 0
M  V30 11072 H 1028.29 2.76232 2.95766 0
M  V30 11073 H 1026.86 1.7709 2.576 0
M  V30 11074 H 1026.08 3.78128 1.11413 0
M  V30 11075 H 1027.37 4.7278 1.88032 0
M  V30 11076 H 1026.77 3.1954 4.66809 0
M  V30 11077 H 1025.32 3.99249 5.15212 0
M  V30 11078 N 1028.76 -0.17846 1.56586 0
M  V30 11079 C 1029.7 -1.22104 1.95855 0
M  V30 11080 C 1030.67 -1.44366 0.821447 0
M  V30 11081 O 1031.86 -1.57224 1.08098 0
M  V30 11082 C 1029 -2.55701 2.31757 0
M  V30 11083 C 1028.11 -2.40879 3.5861 0
M  V30 11084 C 1027.25 -3.67293 3.83757 0
M  V30 11085 C 1026.29 -3.47373 5.03982 0
M  V30 11086 N 1025.42 -4.65839 5.25298 0
M  V30 11087 H 1030.26 -0.879168 2.84736 0
M  V30 11088 H 1027.8 -0.422721 1.40895 0
M  V30 11089 H 1029.76 -3.33556 2.50592 0
M  V30 11090 H 1028.39 -2.87898 1.45995 0
M  V30 11091 H 1027.44 -1.54236 3.47729 0
M  V30 11092 H 1028.75 -2.22102 4.46623 0
M  V30 11093 H 1027.91 -4.53584 4.02922 0
M  V30 11094 H 1026.65 -3.89041 2.94107 0
M  V30 11095 H 1025.65 -2.59467 4.84723 0
M  V30 11096 H 1026.88 -3.27055 5.95157 0
M  V30 11097 H 1024.82 -4.8782 4.38598 0
M  V30 11098 H 1024.74 -4.4995 6.0752 0
M  V30 11099 H 1026.01 -5.53435 5.48936 0
M  V30 11100 N 1030.24 -1.51135 -0.446768 0
M  V30 11101 C 1031.15 -1.74595 -1.56696 0
M  V30 11102 C 1032.16 -0.629816 -1.62201 0
M  V30 11103 O 1033.34 -0.910987 -1.79619 0
M  V30 11104 C 1030.4 -1.85738 -2.9275 0
M  V30 11105 C 1029.46 -3.09564 -2.97437 0
M  V30 11106 C 1028.7 -3.20165 -4.27001 0
M  V30 11107 O 1028.92 -2.36939 -5.1886 0
M  V30 11108 O 1027.85 -4.13077 -4.3778 0
M  V30 11109 H 1031.68 -2.69601 -1.39817 0
M  V30 11110 H 1029.26 -1.35523 -0.628805 0
M  V30 11111 H 1031.15 -1.95107 -3.73512 0
M  V30 11112 H 1029.82 -0.939184 -3.09776 0
M  V30 11113 H 1028.73 -3.05679 -2.15664 0
M  V30 11114 H 1030.06 -4.01041 -2.85353 0
M  V30 11115 N 1031.71 0.701592 -1.41122 0
M  V30 11116 C 1032.66 1.81559 -1.42495 0
M  V30 11117 C 1033.63 1.63722 -0.280078 0
M  V30 11118 O 1034.82 1.84658 -0.480231 0
M  V30 11119 C 1031.96 3.19392 -1.30702 0
M  V30 11120 C 1031.07 3.48704 -2.55009 0
M  V30 11121 C 1030.2 4.76118 -2.35554 0
M  V30 11122 C 1029.24 4.98378 -3.55367 0
M  V30 11123 N 1028.38 6.17014 -3.3502 0
M  V30 11124 H 1033.22 1.7972 -2.37707 0
M  V30 11125 H 1030.76 0.877727 -1.18044 0
M  V30 11126 H 1032.71 3.99004 -1.21867 0
M  V30 11127 H 1031.34 3.20423 -0.391012 0
M  V30 11128 H 1030.4 2.63542 -2.74317 0
M  V30 11129 H 1031.71 3.61057 -3.44151 0
M  V30 11130 H 1030.86 5.63774 -2.24152 0
M  V30 11131 H 1029.6 4.66 -1.43859 0
M  V30 11132 H 1028.61 4.09172 -3.6723 0
M  V30 11133 H 1029.83 5.10359 -4.48007 0
M  V30 11134 H 1027.78 6.0812 -2.4602 0
M  V30 11135 H 1027.69 6.30107 -4.17733 0
M  V30 11136 H 1028.96 7.0742 -3.27379 0
M  V30 11137 N 1033.19 1.2685 0.935242 0
M  V30 11138 C 1034.44 1.12132 1.67658 0
M  V30 11139 C 1034.75 -0.333839 1.9273 0
M  V30 11140 O 1035.96 -0.601801 2.64746 0
M  V30 11141 C 1034.42 1.95873 3.0193 0
M  V30 11142 C 1034.02 3.46 2.84584 0
M  V30 11143 C 1035.77 1.89781 3.79715 0
M  V30 11144 C 1033.67 4.21966 4.14365 0
M  V30 11145 H 1032.6 0.416035 0.628833 0
M  V30 11146 H 1035.26 1.51209 1.03962 0
M  V30 11147 H 1033.64 1.49633 3.66641 0
M  V30 11148 H 1034.81 4.00049 2.28687 0
M  V30 11149 H 1033.13 3.53391 2.20236 0
M  V30 11150 H 1035.72 2.43819 4.75875 0
M  V30 11151 H 1036.07 0.869797 4.07112 0
M  V30 11152 H 1036.6 2.33875 3.21788 0
M  V30 11153 H 1033.34 5.2526 3.9215 0
M  V30 11154 H 1032.86 3.72696 4.69955 0
M  V30 11155 H 1034.54 4.30734 4.82781 0
M  V30 11156 N 1034.67 -1.14067 1.0875 0
M  V30 11157 C 1035.92 -1.84535 0.814235 0
M  V30 11158 C 1036.23 -1.84044 -0.662355 0
M  V30 11159 O 1037.44 -2.50336 -1.05091 0
M  V30 11160 C 1035.89 -3.31273 1.40663 0
M  V30 11161 C 1035.5 -3.40171 2.91526 0
M  V30 11162 C 1037.25 -4.0683 1.21201 0
M  V30 11163 C 1035.15 -4.81141 3.43885 0
M  V30 11164 H 1034.08 -0.691346 0.300926 0
M  V30 11165 H 1036.73 -1.28562 1.30935 0
M  V30 11166 H 1035.12 -3.87005 0.839215 0
M  V30 11167 H 1036.29 -2.94471 3.54434 0
M  V30 11168 H 1034.61 -2.78073 3.09942 0
M  V30 11169 H 1037.2 -5.10891 1.57781 0
M  V30 11170 H 1037.55 -4.16022 0.152092 0
M  V30 11171 H 1038.08 -3.57408 1.74655 0
M  V30 11172 H 1034.82 -4.77138 4.49466 0
M  V30 11173 H 1034.34 -5.27365 2.85738 0
M  V30 11174 H 1036.02 -5.50042 3.40681 0
M  V30 11175 N 1036.15 -0.873678 -1.31166 0
M  V30 11176 C 1037.1 -0.330288 -2.28424 0
M  V30 11177 C 1038.07 0.573299 -1.55893 0
M  V30 11178 O 1039.25 0.504143 -1.84019 0
M  V30 11179 C 1036.39 0.459004 -3.42034 0
M  V30 11180 C 1035.5 -0.472519 -4.29408 0
M  V30 11181 C 1034.64 0.331261 -5.30166 0
M  V30 11182 C 1033.68 -0.596453 -6.09187 0
M  V30 11183 N 1032.81 0.171305 -7.01891 0
M  V30 11184 H 1037.65 -1.16485 -2.7429 0
M  V30 11185 H 1035.19 -0.585813 -1.34932 0
M  V30 11186 H 1037.15 0.932432 -4.06647 0
M  V30 11187 H 1035.78 1.25824 -2.97268 0
M  V30 11188 H 1034.83 -1.06441 -3.65205 0
M  V30 11189 H 1036.14 -1.18372 -4.84551 0
M  V30 11190 H 1035.3 0.867038 -6.00473 0
M  V30 11191 H 1034.04 1.07573 -4.75688 0
M  V30 11192 H 1033.04 -1.14395 -5.37767 0
M  V30 11193 H 1034.27 -1.33983 -6.65752 0
M  V30 11194 H 1032.21 0.89852 -6.49817 0
M  V30 11195 H 1032.13 -0.480481 -7.54472 0
M  V30 11196 H 1033.4 0.688192 -7.76456 0
M  V30 11197 N 1037.63 1.44308 -0.633487 0
M  V30 11198 C 1038.85 2.06384 -0.146063 0
M  V30 11199 C 1039.27 1.47357 1.18031 0
M  V30 11200 O 1038.63 0.597334 1.72448 0
M  V30 11201 C 1038.68 3.61489 -0.0276722 0
M  V30 11202 O 1038.4 4.18318 -1.3016 0
M  V30 11203 C 1039.9 4.40604 0.488168 0
M  V30 11204 H 1037.12 0.666122 -0.0807632 0
M  V30 11205 H 1039.66 1.85139 -0.868557 0
M  V30 11206 H 1037.82 3.81988 0.645273 0
M  V30 11207 H 1038.23 5.11783 -1.14797 0
M  V30 11208 H 1039.71 5.49545 0.520013 0
M  V30 11209 H 1040.18 4.12218 1.51568 0
M  V30 11210 H 1040.79 4.2503 -0.151608 0
M  V30 11211 N 1039.1 0.374177 1.53094 0
M  V30 11212 C 1040.35 -0.213981 2.00562 0
M  V30 11213 C 1040.67 -1.4916 1.26533 0
M  V30 11214 O 1041.87 -2.15889 1.64634 0
M  V30 11215 C 1040.33 -0.431876 3.57299 0
M  V30 11216 C 1039.94 0.831615 4.40214 0
M  V30 11217 C 1041.68 -0.977222 4.13099 0
M  V30 11218 C 1039.59 0.582831 5.88521 0
M  V30 11219 H 1038.52 -0.0837386 0.749336 0
M  V30 11220 H 1041.17 0.494245 1.76719 0
M  V30 11221 H 1039.55 -1.20158 3.7733 0
M  V30 11222 H 1040.72 1.60477 4.31953 0
M  V30 11223 H 1039.04 1.30081 3.9556 0
M  V30 11224 H 1041.64 -1.17881 5.21544 0
M  V30 11225 H 1041.98 -1.94189 3.68234 0
M  V30 11226 H 1042.51 -0.267473 3.969 0
M  V30 11227 H 1039.25 1.51807 6.37679 0
M  V30 11228 H 1038.77 -0.151666 5.99608 0
M  V30 11229 H 1040.45 0.211604 6.46654 0
M  V30 11230 N 1040.58 -1.57259 0.103575 0
M  V30 11231 C 1041.86 -1.86143 -0.600852 0
M  V30 11232 C 1042.24 -1.00198 -1.85805 0
M  V30 11233 O 1041.59 -0.0766791 -2.28371 0
M  V30 11234 C 1041.8 -3.36978 -0.908108 0
M  V30 11235 C 1043.15 -4.05228 -1.26788 0
M  V30 11236 O 1044.17 -3.41908 -0.998859 0
M  V30 11237 O 1043.03 -5.16971 -1.7721 0
M  V30 11238 H 1040.12 -0.770064 -0.301547 0
M  V30 11239 H 1042.67 -1.69147 0.136914 0
M  V30 11240 H 1041.44 -3.91296 -0.0165615 0
M  V30 11241 H 1041.06 -3.5935 -1.70156 0
M  V30 11242 N 1042.06 0.170153 -1.56679 0
M  V30 11243 C 1043.01 1.22997 -1.9742 0
M  V30 11244 C 1044 1.45762 -0.863117 0
M  V30 11245 O 1045.21 1.46328 -1.04824 0
M  V30 11246 H 1041.58 0.413482 -0.628122 0
M  V30 11247 H 1043.55 0.859502 -2.85754 0
M  V30 11248 C 1042.3 2.5615 -2.35122 0
M  V30 11249 H 1041.63 2.39456 -3.20158 0
M  V30 11250 H 1043.07 3.28991 -2.67471 0
M  V30 11251 C 1041.53 3.14992 -1.19507 0
M  V30 11252 O 1042.06 3.98781 -0.483357 0
M  V30 11253 N 1040.26 2.74098 -0.965332 0
M  V30 11254 H 1039.81 2.06062 -1.54585 0
M  V30 11255 H 1039.77 3.13803 -0.193611 0
M  V30 11256 N 1043.54 1.5137 0.438746 0
M  V30 11257 C 1044.79 1.63969 1.1883 0
M  V30 11258 C 1045.11 0.355245 1.91228 0
M  V30 11259 O 1044.37 -0.660605 1.84213 0
M  V30 11260 C 1044.67 2.79221 2.23093 0
M  V30 11261 C 1044.33 4.18547 1.67717 0
M  V30 11262 C 1043 4.5645 1.52337 0
M  V30 11263 C 1045.35 5.05494 1.26986 0
M  V30 11264 C 1042.68 5.79007 0.946996 0
M  V30 11265 C 1045.03 6.28628 0.707785 0
M  V30 11266 C 1043.69 6.65305 0.540881 0
M  V30 11267 H 1042.96 0.600003 0.43483 0
M  V30 11268 H 1045.61 1.85398 0.479565 0
M  V30 11269 H 1043.91 2.52008 2.99999 0
M  V30 11270 H 1045.61 2.86168 2.80907 0
M  V30 11271 H 1042.2 3.88663 1.80663 0
M  V30 11272 H 1046.38 4.76818 1.37689 0
M  V30 11273 H 1041.64 6.06072 0.805432 0
M  V30 11274 H 1045.81 6.95342 0.38366 0
M  V30 11275 H 1043.44 7.60144 0.0921324 0
M  V30 11276 N 1045.02 -0.694098 1.41492 0
M  V30 11277 C 1045.95 -1.82042 1.46229 0
M  V30 11278 C 1046.93 -1.67047 0.320803 0
M  V30 11279 O 1048.11 -1.86758 0.53245 0
M  V30 11280 C 1045.24 -3.2019 1.34519 0
M  V30 11281 C 1044.2 -3.49892 2.46495 0
M  V30 11282 C 1043.52 -4.87411 2.1985 0
M  V30 11283 C 1044.82 -3.4872 3.88834 0
M  V30 11284 H 1046.52 -1.78335 2.40493 0
M  V30 11285 H 1044.06 -0.856566 1.15754 0
M  V30 11286 H 1046.02 -3.98699 1.36445 0
M  V30 11287 H 1044.74 -3.24527 0.367406 0
M  V30 11288 H 1043.4 -2.73734 2.43854 0
M  V30 11289 H 1043.05 -4.88375 1.20411 0
M  V30 11290 H 1042.75 -5.08248 2.94885 0
M  V30 11291 H 1044.27 -5.68228 2.23494 0
M  V30 11292 H 1045.68 -4.1723 3.93182 0
M  V30 11293 H 1044.08 -3.81089 4.63564 0
M  V30 11294 H 1045.15 -2.47665 4.16881 0
M  V30 11295 N 1046.49 -1.27344 -0.928501 0
M  V30 11296 C 1047.4 -1.11812 -2.06241 0
M  V30 11297 C 1048.42 -0.048347 -1.73933 0
M  V30 11298 O 1049.6 -0.25467 -1.99783 0
M  V30 11299 C 1046.66 -0.766036 -3.38131 0
M  V30 11300 C 1045.72 -1.91659 -3.84142 0
M  V30 11301 C 1044.96 -1.58121 -5.09738 0
M  V30 11302 O 1045.18 -0.488742 -5.68302 0
M  V30 11303 O 1044.11 -2.42013 -5.51102 0
M  V30 11304 H 1047.94 -2.06967 -2.22258 0
M  V30 11305 H 1045.52 -1.06524 -1.04752 0
M  V30 11306 H 1047.41 -0.582982 -4.17348 0
M  V30 11307 H 1046.08 0.155998 -3.23324 0
M  V30 11308 H 1044.99 -2.1547 -3.05816 0
M  V30 11309 H 1046.32 -2.8188 -4.0349 0
M  V30 11310 N 1047.97 1.13488 -1.09353 0
M  V30 11311 C 1048.92 2.18876 -0.732251 0
M  V30 11312 C 1049.89 1.63616 0.286175 0
M  V30 11313 O 1051.07 1.90059 0.167981 0
M  V30 11314 C 1048.21 3.44737 -0.158157 0
M  V30 11315 C 1047.33 4.14104 -1.23053 0
M  V30 11316 C 1046.46 5.27578 -0.619272 0
M  V30 11317 C 1045.5 5.88793 -1.67301 0
M  V30 11318 N 1044.64 6.937 -1.08283 0
M  V30 11319 H 1049.48 2.49128 -1.63522 0
M  V30 11320 H 1047.02 1.22326 -0.816995 0
M  V30 11321 H 1048.97 4.16756 0.192488 0
M  V30 11322 H 1047.6 3.14938 0.708082 0
M  V30 11323 H 1046.66 3.40376 -1.69847 0
M  V30 11324 H 1047.97 4.55683 -2.02865 0
M  V30 11325 H 1047.12 6.0631 -0.217428 0
M  V30 11326 H 1045.86 4.87246 0.210399 0
M  V30 11327 H 1044.87 5.08756 -2.0844 0
M  V30 11328 H 1046.09 6.31197 -2.50533 0
M  V30 11329 H 1044.04 6.55426 -0.274426 0
M  V30 11330 H 1043.95 7.33817 -1.81792 0
M  V30 11331 H 1045.22 7.76286 -0.707167 0
M  V30 11332 N 1049.45 0.880621 1.30701 0
M  V30 11333 C 1050.87 0.574015 1.4892 0
M  V30 11334 C 1051.07 -0.889312 1.80813 0
M  V30 11335 O 1050.12 -1.67082 1.89314 0
M  V30 11336 C 1051.44 1.48341 2.61563 0
M  V30 11337 C 1052.98 1.48658 2.75445 0
M  V30 11338 C 1053.46 2.3818 3.91196 0
M  V30 11339 N 1054.95 2.36119 3.985 0
M  V30 11340 C 1055.69 3.02101 4.87363 0
M  V30 11341 N 1055.18 3.77293 5.81052 0
M  V30 11342 N 1056.97 2.91356 4.80696 0
M  V30 11343 H 1049.13 1.82732 1.08271 0
M  V30 11344 H 1051.39 0.781939 0.535981 0
M  V30 11345 H 1051.09 2.52515 2.44804 0
M  V30 11346 H 1050.97 1.18977 3.57944 0
M  V30 11347 H 1053.36 0.452374 2.91612 0
M  V30 11348 H 1053.44 1.8205 1.79698 0
M  V30 11349 H 1053.08 3.41683 3.75786 0
M  V30 11350 H 1053.01 2.02106 4.86272 0
M  V30 11351 H 1055.5 1.81474 3.31475 0
M  V30 11352 H 1055.81 4.24742 6.45612 0
M  V30 11353 H 1054.16 3.81401 5.80998 0
M  V30 11354 H 1057.35 2.32143 4.06481 0
M  V30 11355 H 1057.52 3.43056 5.49742 0
M  V30 11356 N 1050.93 -1.4397 0.641131 0
M  V30 11357 C 1052.16 -2.06004 0.156779 0
M  V30 11358 C 1052.57 -1.48059 -1.17793 0
M  V30 11359 O 1051.91 -0.601788 -1.73563 0
M  V30 11360 C 1051.97 -3.59493 -0.0217203 0
M  V30 11361 C 1051.64 -4.39957 1.23639 0
M  V30 11362 C 1052.63 -4.72797 2.16239 0
M  V30 11363 C 1050.32 -4.80168 1.4746 0
M  V30 11364 C 1052.31 -5.44741 3.30962 0
M  V30 11365 C 1050 -5.51859 2.62478 0
M  V30 11366 C 1051 -5.84067 3.54055 0
M  V30 11367 O 1050.69 -6.54296 4.67067 0
M  V30 11368 H 1050.42 -0.671061 0.0815685 0
M  V30 11369 H 1052.97 -1.85664 0.878517 0
M  V30 11370 H 1051.2 -3.78362 -0.798707 0
M  V30 11371 H 1052.89 -4.03263 -0.461893 0
M  V30 11372 H 1053.66 -4.42261 1.99073 0
M  V30 11373 H 1049.54 -4.54513 0.770652 0
M  V30 11374 H 1053.08 -5.69798 4.02462 0
M  V30 11375 H 1048.98 -5.81811 2.79583 0
M  V30 11376 H 1049.74 -6.72772 4.66177 0
M  V30 11377 N 1052.41 -0.382291 -1.52893 0
M  V30 11378 C 1053.32 0.463745 -2.29971 0
M  V30 11379 C 1054.33 1.07777 -1.36602 0
M  V30 11380 O 1055.51 1.0851 -1.69669 0
M  V30 11381 C 1052.57 1.57938 -3.08637 0
M  V30 11382 C 1051.64 0.991182 -4.17701 0
M  V30 11383 C 1050.87 2.05365 -4.92606 0
M  V30 11384 O 1051.09 3.26757 -4.67532 0
M  V30 11385 O 1050.03 1.67487 -5.78128 0
M  V30 11386 H 1053.85 -0.163962 -3.03257 0
M  V30 11387 H 1051.44 -0.146199 -1.48683 0
M  V30 11388 H 1053.32 2.22765 -3.57706 0
M  V30 11389 H 1051.99 2.19218 -2.3817 0
M  V30 11390 H 1050.9 0.306364 -3.72843 0
M  V30 11391 H 1052.23 0.422699 -4.90382 0
M  V30 11392 N 1053.89 1.57202 -0.111913 0
M  V30 11393 C 1054.83 2.14936 0.840908 0
M  V30 11394 C 1055.8 1.07242 1.2684 0
M  V30 11395 O 1056.99 1.35114 1.34718 0
M  V30 11396 C 1054.13 2.74743 2.0883 0
M  V30 11397 C 1053.24 3.96723 1.70982 0
M  V30 11398 C 1052.38 4.4464 2.90634 0
M  V30 11399 C 1051.41 5.59169 2.48992 0
M  V30 11400 N 1050.55 6.01862 3.61534 0
M  V30 11401 H 1055.39 2.96034 0.341735 0
M  V30 11402 H 1052.93 1.4626 0.156993 0
M  V30 11403 H 1054.89 3.07546 2.81907 0
M  V30 11404 H 1053.52 1.96346 2.56218 0
M  V30 11405 H 1052.57 3.70127 0.878072 0
M  V30 11406 H 1053.88 4.79795 1.36373 0
M  V30 11407 H 1053.03 4.79315 3.71944 0
M  V30 11408 H 1051.77 3.60503 3.28464 0
M  V30 11409 H 1050.78 5.24106 1.66113 0
M  V30 11410 H 1052 6.45067 2.12287 0
M  V30 11411 H 1049.95 5.20667 3.99051 0
M  V30 11412 H 1049.87 6.79772 3.30827 0
M  V30 11413 H 1051.13 6.41172 4.43305 0
M  V30 11414 N 1055.36 -0.161842 1.56767 0
M  V30 11415 C 1056.61 -0.873481 1.8369 0
M  V30 11416 C 1056.96 -1.79455 0.693817 0
M  V30 11417 O 1056.26 -1.89089 -0.309181 0
M  V30 11418 C 1056.45 -1.69736 3.14522 0
M  V30 11419 C 1056.28 -0.857568 4.41447 0
M  V30 11420 C 1055.05 -0.528952 5.02524 0
M  V30 11421 C 1057.25 -0.194734 5.13931 0
M  V30 11422 N 1055.23 0.325994 6.13034 0
M  V30 11423 C 1056.6 0.520973 6.17807 0
M  V30 11424 C 1058.66 -0.113874 4.9777 0
M  V30 11425 C 1057.36 1.30988 7.07273 0
M  V30 11426 C 1059.39 0.661731 5.87686 0
M  V30 11427 C 1058.75 1.36577 6.91033 0
M  V30 11428 H 1054.85 -0.297939 0.723019 0
M  V30 11429 H 1057.43 -0.139816 1.94197 0
M  V30 11430 H 1055.6 -2.40238 3.05189 0
M  V30 11431 H 1057.33 -2.35103 3.29407 0
M  V30 11432 H 1054.09 -0.861267 4.65703 0
M  V30 11433 H 1054.51 0.744055 6.72899 0
M  V30 11434 H 1059.15 -0.643832 4.17869 0
M  V30 11435 H 1056.87 1.85115 7.86612 0
M  V30 11436 H 1060.46 0.726092 5.77251 0
M  V30 11437 H 1059.34 1.9563 7.59407 0
M  V30 11438 N 1056.84 -1.516 -0.430713 0
M  V30 11439 C 1058.09 -1.63829 -1.17657 0
M  V30 11440 C 1058.4 -0.363605 -1.92191 0
M  V30 11441 O 1059.61 -0.365358 -2.6903 0
M  V30 11442 C 1058.07 -2.89357 -2.14011 0
M  V30 11443 C 1057.67 -4.23854 -1.45094 0
M  V30 11444 C 1059.42 -3.10944 -2.88988 0
M  V30 11445 C 1057.32 -5.40526 -2.3997 0
M  V30 11446 H 1056.25 -0.610221 -0.442884 0
M  V30 11447 H 1058.91 -1.78073 -0.442984 0
M  V30 11448 H 1057.29 -2.68762 -2.90832 0
M  V30 11449 H 1058.46 -4.54854 -0.737853 0
M  V30 11450 H 1056.78 -4.08197 -0.822429 0
M  V30 11451 H 1059.37 -3.95286 -3.60074 0
M  V30 11452 H 1059.72 -2.24291 -3.50712 0
M  V30 11453 H 1060.25 -3.3191 -2.19272 0
M  V30 11454 H 1056.99 -6.29459 -1.82925 0
M  V30 11455 H 1056.51 -5.13893 -3.09313 0
M  V30 11456 H 1058.19 -5.72741 -3.00959 0
M  V30 11457 N 1058.32 0.686584 -1.41858 0
M  V30 11458 C 1059.23 1.83002 -1.46791 0
M  V30 11459 C 1060.25 1.70284 -0.357675 0
M  V30 11460 O 1061.42 1.92042 -0.606781 0
M  V30 11461 C 1058.49 3.19056 -1.35661 0
M  V30 11462 C 1057.55 3.43817 -2.57077 0
M  V30 11463 C 1056.78 4.7338 -2.46469 0
M  V30 11464 O 1057 5.50483 -1.49413 0
M  V30 11465 O 1055.94 4.99124 -3.36391 0
M  V30 11466 H 1059.76 1.81797 -2.43277 0
M  V30 11467 H 1057.35 0.840812 -1.23494 0
M  V30 11468 H 1059.23 4.00267 -1.31773 0
M  V30 11469 H 1057.91 3.20925 -0.422951 0
M  V30 11470 H 1056.81 2.625 -2.66541 0
M  V30 11471 H 1058.15 3.4677 -3.49302 0
M  V30 11472 N 1059.8 1.27835 0.921735 0
M  V30 11473 C 1061.04 1.14692 1.67253 0
M  V30 11474 C 1061.38 -0.305384 1.91784 0
M  V30 11475 O 1060.65 -1.22286 1.51249 0
M  V30 11476 C 1060.93 1.93743 3.03539 0
M  V30 11477 C 1060.79 3.46991 2.86212 0
M  V30 11478 C 1062.11 1.74658 4.03959 0
M  V30 11479 H 1059.23 0.418021 0.606983 0
M  V30 11480 H 1061.87 1.5706 1.06922 0
M  V30 11481 H 1060.02 1.57738 3.55037 0
M  V30 11482 H 1061.69 3.92858 2.41785 0
M  V30 11483 H 1059.93 3.73029 2.21432 0
M  V30 11484 H 1060.6 3.97551 3.82958 0
M  V30 11485 H 1063.08 2.06063 3.61493 0
M  V30 11486 H 1061.96 2.32353 4.97296 0
M  V30 11487 H 1062.22 0.696019 4.36587 0
M  V30 11488 N 1061.28 -1.12907 1.09954 0
M  V30 11489 C 1062.51 -1.87866 0.859656 0
M  V30 11490 C 1062.91 -1.79664 -0.593096 0
M  V30 11491 O 1062.26 -1.16499 -1.42034 0
M  V30 11492 C 1062.32 -3.38055 1.22308 0
M  V30 11493 C 1061.98 -3.70035 2.68185 0
M  V30 11494 C 1062.98 -3.68817 3.66428 0
M  V30 11495 C 1060.66 -3.99523 3.04444 0
M  V30 11496 C 1062.66 -3.96639 4.98955 0
M  V30 11497 C 1060.35 -4.27006 4.37161 0
M  V30 11498 C 1061.34 -4.25549 5.34225 0
M  V30 11499 O 1061.03 -4.52354 6.64553 0
M  V30 11500 H 1060.76 -0.601425 0.308649 0
M  V30 11501 H 1063.32 -1.43817 1.46649 0
M  V30 11502 H 1061.55 -3.82634 0.559322 0
M  V30 11503 H 1063.24 -3.94348 0.961479 0
M  V30 11504 H 1064 -3.46104 3.3976 0
M  V30 11505 H 1059.88 -3.99801 2.29521 0
M  V30 11506 H 1063.43 -3.95418 5.74709 0
M  V30 11507 H 1059.32 -4.49192 4.6357 0
M  V30 11508 H 1060.09 -4.69997 6.70108 0
M  V30 11509 N 1062.75 -0.88754 -1.30232 0
M  V30 11510 C 1063.7 -0.354497 -2.28061 0
M  V30 11511 C 1064.67 0.556732 -1.56492 0
M  V30 11512 O 1065.86 0.484597 -1.84543 0
M  V30 11513 C 1063 0.422701 -3.42501 0
M  V30 11514 C 1062.11 -0.518036 -4.28883 0
M  V30 11515 C 1061.24 0.275011 -5.30488 0
M  V30 11516 C 1060.28 -0.661032 -6.0852 0
M  V30 11517 N 1059.42 0.0968509 -7.02033 0
M  V30 11518 H 1064.26 -1.19388 -2.73039 0
M  V30 11519 H 1061.8 -0.600091 -1.34303 0
M  V30 11520 H 1063.75 0.889249 -4.07613 0
M  V30 11521 H 1062.38 1.22664 -2.98586 0
M  V30 11522 H 1061.44 -1.10308 -3.64055 0
M  V30 11523 H 1062.75 -1.23504 -4.83268 0
M  V30 11524 H 1061.9 0.803301 -6.01358 0
M  V30 11525 H 1060.64 1.02522 -4.76802 0
M  V30 11526 H 1059.65 -1.20093 -5.36524 0
M  V30 11527 H 1060.87 -1.41037 -6.64293 0
M  V30 11528 H 1058.82 0.829548 -6.50734 0
M  V30 11529 H 1058.73 -0.560476 -7.5392 0
M  V30 11530 H 1060 0.6058 -7.77142 0
M  V30 11531 N 1064.23 1.43628 -0.648757 0
M  V30 11532 C 1065.16 2.33478 0.0320785 0
M  V30 11533 C 1066.14 1.49217 0.816605 0
M  V30 11534 O 1067.33 1.77892 0.778974 0
M  V30 11535 C 1064.46 3.32525 1.00222 0
M  V30 11536 C 1063.41 4.2674 0.328119 0
M  V30 11537 C 1062.74 5.15791 1.4094 0
M  V30 11538 C 1064.04 5.16493 -0.776701 0
M  V30 11539 H 1065.73 2.90657 -0.718257 0
M  V30 11540 H 1063.28 1.3976 -0.346852 0
M  V30 11541 H 1065.23 3.94277 1.4874 0
M  V30 11542 H 1063.96 2.73593 1.78366 0
M  V30 11543 H 1062.61 3.66346 -0.136569 0
M  V30 11544 H 1062.26 4.53201 2.18216 0
M  V30 11545 H 1061.96 5.79645 0.963631 0
M  V30 11546 H 1063.49 5.80416 1.89603 0
M  V30 11547 H 1064.9 5.7208 -0.373878 0
M  V30 11548 H 1063.3 5.89043 -1.14667 0
M  V30 11549 H 1064.37 4.56448 -1.63654 0
M  V30 11550 N 1065.71 0.390394 1.52688 0
M  V30 11551 C 1066.96 -0.191729 2.01892 0
M  V30 11552 C 1067.29 -1.4637 1.27631 0
M  V30 11553 O 1066.56 -1.90809 0.377094 0
M  V30 11554 C 1066.85 -0.458535 3.57169 0
M  V30 11555 C 1066.7 0.828796 4.42098 0
M  V30 11556 C 1068.02 -1.2487 4.22014 0
M  V30 11557 H 1065.14 -0.0682091 0.733837 0
M  V30 11558 H 1067.78 0.520176 1.82741 0
M  V30 11559 H 1065.93 -1.06498 3.73618 0
M  V30 11560 H 1067.6 1.46562 4.37398 0
M  V30 11561 H 1065.85 1.44388 4.09066 0
M  V30 11562 H 1066.52 0.596746 5.48765 0
M  V30 11563 H 1068.99 -0.735452 4.09549 0
M  V30 11564 H 1067.87 -1.40412 5.30637 0
M  V30 11565 H 1068.13 -2.2642 3.79719 0
M  V30 11566 N 1067.19 -1.57141 0.120249 0
M  V30 11567 C 1068.14 -2.15379 -0.829497 0
M  V30 11568 C 1069.11 -1.07913 -1.2627 0
M  V30 11569 O 1070.29 -1.35827 -1.33999 0
M  V30 11570 C 1067.43 -2.75847 -2.0737 0
M  V30 11571 C 1066.54 -3.97624 -1.68875 0
M  V30 11572 C 1065.68 -4.46175 -2.88272 0
M  V30 11573 C 1064.72 -5.60481 -2.46023 0
M  V30 11574 N 1063.85 -6.0377 -3.58337 0
M  V30 11575 H 1068.69 -2.96211 -0.326031 0
M  V30 11576 H 1066.23 -1.46341 -0.149235 0
M  V30 11577 H 1068.19 -3.09037 -2.80272 0
M  V30 11578 H 1066.82 -1.97703 -2.55174 0
M  V30 11579 H 1065.87 -3.70588 -0.858431 0
M  V30 11580 H 1067.18 -4.80512 -1.33827 0
M  V30 11581 H 1066.34 -4.8128 -3.69397 0
M  V30 11582 H 1065.08 -3.6224 -3.26548 0
M  V30 11583 H 1064.08 -5.24979 -1.63331 0
M  V30 11584 H 1065.31 -6.46184 -2.08863 0
M  V30 11585 H 1063.25 -5.22776 -3.96284 0
M  V30 11586 H 1063.17 -6.81517 -3.27217 0
M  V30 11587 H 1064.44 -6.43514 -4.39898 0
M  V30 11588 N 1068.67 0.153526 -1.5685 0
M  V30 11589 C 1069.63 1.17362 -1.96873 0
M  V30 11590 C 1070.63 1.36219 -0.854456 0
M  V30 11591 O 1071.82 1.33322 -1.1212 0
M  V30 11592 C 1068.95 2.53523 -2.27901 0
M  V30 11593 H 1070.14 0.830432 -2.88173 0
M  V30 11594 H 1067.7 0.396633 -1.51184 0
M  V30 11595 H 1068.43 2.92824 -1.39371 0
M  V30 11596 H 1068.22 2.41198 -3.09137 0
M  V30 11597 H 1069.71 3.27006 -2.59725 0
M  V30 11598 N 1070.14 1.51827 0.422667 0
M  V30 11599 C 1071.09 1.74198 1.51406 0
M  V30 11600 C 1072.06 0.584013 1.55494 0
M  V30 11601 O 1073.25 0.820079 1.72277 0
M  V30 11602 C 1070.39 1.88627 2.88988 0
M  V30 11603 C 1069.5 3.16233 2.94314 0
M  V30 11604 C 1068.63 3.21172 4.2311 0
M  V30 11605 C 1067.67 4.43033 4.2236 0
M  V30 11606 N 1066.81 4.4544 5.42704 0
M  V30 11607 H 1071.65 2.67352 1.31632 0
M  V30 11608 H 1069.19 1.32487 0.63919 0
M  V30 11609 H 1071.15 1.94976 3.68837 0
M  V30 11610 H 1069.78 0.988673 3.07287 0
M  V30 11611 H 1068.83 3.19123 2.07039 0
M  V30 11612 H 1070.14 4.06104 2.89623 0
M  V30 11613 H 1069.29 3.26517 5.11343 0
M  V30 11614 H 1068.03 2.29216 4.30478 0
M  V30 11615 H 1067.04 4.37849 3.32518 0
M  V30 11616 H 1068.26 5.3627 4.16643 0
M  V30 11617 H 1066.21 3.56361 5.50766 0
M  V30 11618 H 1066.13 5.29138 5.39953 0
M  V30 11619 H 1067.39 4.54997 6.32928 0
M  V30 11620 N 1071.62 -0.679052 1.4222 0
M  V30 11621 C 1072.87 -1.43978 1.43673 0
M  V30 11622 C 1073.22 -1.92333 0.0506711 0
M  V30 11623 O 1072.52 -1.67715 -0.926406 0
M  V30 11624 C 1072.71 -2.65528 2.39227 0
M  V30 11625 C 1072.54 -2.29065 3.86987 0
M  V30 11626 C 1071.31 -2.1863 4.55553 0
M  V30 11627 C 1073.51 -1.90983 4.77525 0
M  V30 11628 N 1071.49 -1.75227 5.88361 0
M  V30 11629 C 1072.86 -1.58465 5.99407 0
M  V30 11630 C 1074.92 -1.77938 4.65019 0
M  V30 11631 C 1073.62 -1.14212 7.10175 0
M  V30 11632 C 1075.64 -1.35089 5.75765 0
M  V30 11633 C 1075.01 -1.03493 6.96756 0
M  V30 11634 H 1071.11 -0.523503 0.58092 0
M  V30 11635 H 1073.69 -0.784043 1.78216 0
M  V30 11636 H 1071.86 -3.28797 2.06753 0
M  V30 11637 H 1073.59 -3.32096 2.31288 0
M  V30 11638 H 1070.35 -2.37562 4.09709 0
M  V30 11639 H 1070.77 -1.5596 6.58791 0
M  V30 11640 H 1075.41 -2.01013 3.71959 0
M  V30 11641 H 1073.13 -0.89882 8.03086 0
M  V30 11642 H 1076.72 -1.25522 5.68098 0
M  V30 11643 H 1075.6 -0.708396 7.80994 0
M  V30 11644 N 1073.1 -1.28322 -0.914942 0
M  V30 11645 C 1074.03 -1.14681 -2.03398 0
M  V30 11646 C 1075.01 -0.0448939 -1.70041 0
M  V30 11647 O 1076.2 -0.221672 -1.92931 0
M  V30 11648 C 1073.33 -0.806623 -3.37803 0
M  V30 11649 C 1072.28 -1.86318 -3.85318 0
M  V30 11650 C 1071.61 -1.37665 -5.16674 0
M  V30 11651 C 1072.91 -3.26953 -4.07307 0
M  V30 11652 H 1074.6 -2.08293 -2.15068 0
M  V30 11653 H 1072.15 -1.00284 -1.03339 0
M  V30 11654 H 1074.1 -0.69796 -4.1558 0
M  V30 11655 H 1072.82 0.165203 -3.26182 0
M  V30 11656 H 1071.48 -1.96096 -3.09745 0
M  V30 11657 H 1071.13 -0.393927 -5.01455 0
M  V30 11658 H 1070.83 -2.08313 -5.49435 0
M  V30 11659 H 1072.35 -1.28119 -5.97007 0
M  V30 11660 H 1073.77 -3.20102 -4.75613 0
M  V30 11661 H 1072.17 -3.95424 -4.51398 0
M  V30 11662 H 1073.24 -3.71059 -3.12159 0
M  V30 11663 N 1074.58 1.12322 -1.10551 0
M  V30 11664 C 1075.83 1.83495 -0.846998 0
M  V30 11665 C 1076.15 1.8457 0.629205 0
M  V30 11666 O 1075.42 1.30968 1.45686 0
M  V30 11667 H 1074 0.679479 -0.310351 0
M  V30 11668 H 1076.66 1.36004 -1.39602 0
M  V30 11669 H 1075.76 2.87651 -1.21092 0
M  V30 11670 N 1076.06 0.894434 1.2976 0
M  V30 11671 C 1077.28 0.532916 1.99919 0
M  V30 11672 C 1077.7 -0.881022 1.66983 0
M  V30 11673 O 1077.06 -1.58076 0.912035 0
M  V30 11674 C 1077.11 0.70936 3.54472 0
M  V30 11675 O 1076.83 2.06764 3.86239 0
M  V30 11676 C 1078.33 0.352089 4.419 0
M  V30 11677 H 1075.55 0.205019 0.638912 0
M  V30 11678 H 1078.09 1.20233 1.65421 0
M  V30 11679 H 1076.25 0.0871901 3.87302 0
M  V30 11680 H 1076.66 2.09315 4.80924 0
M  V30 11681 H 1078.14 0.526405 5.49484 0
M  V30 11682 H 1078.61 -0.710527 4.33415 0
M  V30 11683 H 1079.22 0.950979 4.14532 0
M  V30 11684 N 1077.53 -1.43282 0.656365 0
M  V30 11685 C 1078.78 -2.02075 0.171293 0
M  V30 11686 C 1079.11 -1.51682 -1.21269 0
M  V30 11687 O 1078.39 -0.711243 -1.81029 0
M  V30 11688 C 1078.67 -3.59621 0.185602 0
M  V30 11689 C 1078.52 -4.20239 1.60373 0
M  V30 11690 C 1079.84 -4.37515 -0.476289 0
M  V30 11691 H 1076.96 -0.73424 0.0637185 0
M  V30 11692 H 1079.6 -1.70539 0.837648 0
M  V30 11693 H 1077.75 -3.86619 -0.381804 0
M  V30 11694 H 1079.43 -4.0426 2.22197 0
M  V30 11695 H 1077.67 -3.76769 2.15006 0
M  V30 11696 H 1078.34 -5.29333 1.56557 0
M  V30 11697 H 1080.82 -4.16099 0.00651073 0
M  V30 11698 H 1079.69 -5.47169 -0.435562 0
M  V30 11699 H 1079.95 -4.14003 -1.55093 0
M  V30 11700 N 1079.01 -0.398486 -1.52479 0
M  V30 11701 C 1079.96 0.447001 -2.28264 0
M  V30 11702 C 1080.96 1.05511 -1.32529 0
M  V30 11703 O 1082.16 0.994528 -1.5003 0
M  V30 11704 H 1078.54 0.162919 -0.73414 0
M  V30 11705 H 1080.51 -0.213534 -2.97635 0
M  V30 11706 C 1079.26 1.55724 -3.10879 0
M  V30 11707 H 1078.58 1.09864 -3.84409 0
M  V30 11708 H 1080.02 2.12286 -3.67029 0
M  V30 11709 C 1078.48 2.51853 -2.23768 0
M  V30 11710 O 1079.01 3.55483 -1.87069 0
M  V30 11711 N 1077.21 2.2181 -1.87746 0
M  V30 11712 H 1076.76 1.3757 -2.17789 0
M  V30 11713 H 1076.72 2.86376 -1.29753 0
M  V30 11714 N 1080.49 1.57075 -0.12858 0
M  V30 11715 C 1081.72 1.99876 0.534544 0
M  V30 11716 C 1082.13 1.00843 1.59612 0
M  V30 11717 O 1081.49 0.00268947 1.825 0
M  V30 11718 C 1081.54 3.42654 1.15198 0
M  V30 11719 O 1081.26 4.37899 0.132823 0
M  V30 11720 C 1082.76 4.00637 1.8975 0
M  V30 11721 H 1079.98 0.656073 0.140744 0
M  V30 11722 H 1082.53 2.03337 -0.217742 0
M  V30 11723 H 1080.68 3.40101 1.85499 0
M  V30 11724 H 1081.1 5.21253 0.582682 0
M  V30 11725 H 1082.57 5.02592 2.28266 0
M  V30 11726 H 1083.05 3.40313 2.7764 0
M  V30 11727 H 1083.65 4.06764 1.2419 0
M  V30 11728 N 1081.97 -0.145205 1.5693 0
M  V30 11729 C 1082.9 -1.20438 1.95006 0
M  V30 11730 C 1083.91 -1.39085 0.846114 0
M  V30 11731 O 1085.1 -1.38625 1.12452 0
M  V30 11732 C 1082.2 -2.56892 2.21043 0
M  V30 11733 C 1081.38 -2.59197 3.52329 0
M  V30 11734 C 1080.44 -3.77204 3.66884 0
M  V30 11735 O 1079.46 -3.61995 4.39259 0
M  V30 11736 N 1080.66 -4.9473 3.03682 0
M  V30 11737 H 1083.43 -0.880709 2.86467 0
M  V30 11738 H 1080.99 -0.334751 1.58401 0
M  V30 11739 H 1082.98 -3.34349 2.2802 0
M  V30 11740 H 1081.55 -2.81544 1.35838 0
M  V30 11741 H 1080.77 -1.67644 3.56776 0
M  V30 11742 H 1082.06 -2.57771 4.3867 0
M  V30 11743 H 1081.46 -5.09989 2.44801 0
M  V30 11744 H 1080.01 -5.69956 3.16218 0
M  V30 11745 N 1083.45 -1.52049 -0.414609 0
M  V30 11746 C 1084.69 -1.65838 -1.16206 0
M  V30 11747 C 1085.02 -0.385623 -1.90639 0
M  V30 11748 O 1084.28 0.631214 -1.85241 0
M  V30 11749 C 1084.58 -2.82735 -2.18622 0
M  V30 11750 C 1084.24 -4.21163 -1.61037 0
M  V30 11751 C 1082.9 -4.58816 -1.45056 0
M  V30 11752 C 1085.26 -5.0745 -1.18928 0
M  V30 11753 C 1082.58 -5.8044 -0.854761 0
M  V30 11754 C 1084.94 -6.29674 -0.607686 0
M  V30 11755 C 1083.6 -6.66081 -0.434968 0
M  V30 11756 H 1082.87 -0.606845 -0.425229 0
M  V30 11757 H 1085.52 -1.86137 -0.450009 0
M  V30 11758 H 1083.82 -2.56749 -2.95952 0
M  V30 11759 H 1085.52 -2.90601 -2.76319 0
M  V30 11760 H 1082.11 -3.91488 -1.74457 0
M  V30 11761 H 1086.29 -4.78948 -1.30086 0
M  V30 11762 H 1081.55 -6.07276 -0.70891 0
M  V30 11763 H 1085.72 -6.95865 -0.272988 0
M  V30 11764 H 1083.35 -7.60195 0.0288116 0
M  V30 11765 N 1084.93 0.6715 -1.42579 0
M  V30 11766 C 1085.86 1.79703 -1.42266 0
M  V30 11767 C 1086.87 1.59599 -0.321268 0
M  V30 11768 O 1088.06 1.68657 -0.584564 0
M  V30 11769 C 1085.16 3.16859 -1.20224 0
M  V30 11770 C 1084.33 3.63783 -2.42859 0
M  V30 11771 C 1083.39 4.79683 -2.16312 0
M  V30 11772 O 1082.42 4.90058 -2.89537 0
M  V30 11773 N 1083.62 5.68622 -1.16831 0
M  V30 11774 H 1086.38 1.80455 -2.39282 0
M  V30 11775 H 1083.95 0.854708 -1.375 0
M  V30 11776 H 1085.94 3.92054 -1.00376 0
M  V30 11777 H 1084.51 3.10987 -0.317188 0
M  V30 11778 H 1083.73 2.7923 -2.78252 0
M  V30 11779 H 1085.02 3.91877 -3.24514 0
M  V30 11780 H 1084.41 5.62894 -0.562746 0
M  V30 11781 H 1082.97 6.43615 -1.0297 0
M  V30 11782 N 1086.4 1.28806 0.908124 0
M  V30 11783 C 1087.35 1.13215 2.01125 0
M  V30 11784 C 1088.32 0.0277357 1.66077 0
M  V30 11785 O 1089.51 0.193707 1.89814 0
M  V30 11786 C 1086.65 0.805887 3.35558 0
M  V30 11787 C 1085.76 1.9899 3.83441 0
M  V30 11788 C 1084.89 1.60376 5.06412 0
M  V30 11789 C 1083.93 2.75409 5.46641 0
M  V30 11790 N 1083.07 2.37249 6.60801 0
M  V30 11791 H 1087.91 2.07598 2.13792 0
M  V30 11792 H 1085.45 1.03316 1.0471 0
M  V30 11793 H 1087.4 0.597451 4.129 0
M  V30 11794 H 1086.03 -0.101023 3.22642 0
M  V30 11795 H 1085.09 2.31029 3.02208 0
M  V30 11796 H 1086.4 2.85214 4.09212 0
M  V30 11797 H 1085.55 1.35772 5.91313 0
M  V30 11798 H 1084.29 0.712888 4.82462 0
M  V30 11799 H 1083.3 3.00705 4.60279 0
M  V30 11800 H 1084.52 3.65148 5.72577 0
M  V30 11801 H 1082.47 1.50638 6.3847 0
M  V30 11802 H 1082.38 3.17008 6.86325 0
M  V30 11803 H 1083.65 2.15943 7.48992 0
M  V30 11804 N 1087.88 -1.11734 1.11145 0
M  V30 11805 C 1089.3 -1.35412 0.844736 0
M  V30 11806 C 1089.5 -1.94347 -0.532111 0
M  V30 11807 O 1088.55 -2.17443 -1.28353 0
M  V30 11808 C 1089.87 -2.28869 1.95037 0
M  V30 11809 C 1091.41 -2.42442 1.97967 0
M  V30 11810 C 1091.89 -3.39219 3.07725 0
M  V30 11811 N 1093.38 -3.4678 3.07079 0
M  V30 11812 C 1094.12 -4.21595 3.88646 0
M  V30 11813 N 1093.61 -4.99411 4.80167 0
M  V30 11814 N 1095.4 -4.17075 3.76835 0
M  V30 11815 H 1087.56 -0.718412 1.99881 0
M  V30 11816 H 1089.82 -0.378787 0.869037 0
M  V30 11817 H 1089.52 -1.92752 2.94176 0
M  V30 11818 H 1089.4 -3.2906 1.84389 0
M  V30 11819 H 1091.79 -2.77835 0.994561 0
M  V30 11820 H 1091.87 -1.42113 2.12691 0
M  V30 11821 H 1091.51 -3.04553 4.0646 0
M  V30 11822 H 1091.44 -4.39394 2.90242 0
M  V30 11823 H 1093.93 -2.91272 2.40767 0
M  V30 11824 H 1094.24 -5.53856 5.38946 0
M  V30 11825 H 1092.59 -4.98582 4.84191 0
M  V30 11826 H 1095.78 -3.55369 3.04681 0
M  V30 11827 H 1095.95 -4.75125 4.40637 0
M  V30 11828 N 1089.36 -0.901303 -1.29284 0
M  V30 11829 C 1090.58 -0.542823 -2.0017 0
M  V30 11830 C 1091.01 0.865583 -1.67001 0
M  V30 11831 O 1090.37 1.5764 -0.895502 0
M  V30 11832 C 1090.42 -0.743987 -3.52842 0
M  V30 11833 O 1089.52 0.202771 -4.11901 0
M  V30 11834 H 1088.86 -0.211903 -0.62928 0
M  V30 11835 H 1091.39 -1.21333 -1.64741 0
M  V30 11836 H 1091.4 -0.64926 -4.02801 0
M  V30 11837 H 1090.08 -1.77077 -3.7632 0
M  V30 11838 H 1088.65 0.0603637 -3.72851 0
M  V30 11839 N 1090.84 1.42931 -0.663954 0
M  V30 11840 C 1092.07 2.05729 -0.189532 0
M  V30 11841 C 1092.48 1.49914 1.15423 0
M  V30 11842 O 1091.82 0.629324 1.72584 0
M  V30 11843 C 1091.88 3.59482 -0.0354748 0
M  V30 11844 C 1091.54 4.37935 -1.30622 0
M  V30 11845 C 1092.54 4.69297 -2.23733 0
M  V30 11846 C 1090.23 4.77761 -1.5508 0
M  V30 11847 C 1092.22 5.39407 -3.39586 0
M  V30 11848 C 1089.91 5.47613 -2.71224 0
M  V30 11849 C 1090.91 5.7836 -3.63302 0
M  V30 11850 O 1090.59 6.46783 -4.77417 0
M  V30 11851 H 1090.33 0.669678 -0.0922342 0
M  V30 11852 H 1092.88 1.84243 -0.907943 0
M  V30 11853 H 1091.11 3.79584 0.738412 0
M  V30 11854 H 1092.8 4.03947 0.397679 0
M  V30 11855 H 1093.56 4.39038 -2.06084 0
M  V30 11856 H 1089.44 4.53229 -0.842863 0
M  V30 11857 H 1092.99 5.63323 -4.11476 0
M  V30 11858 H 1088.88 5.77289 -2.88804 0
M  V30 11859 H 1089.65 6.6527 -4.76821 0
M  V30 11860 N 1092.32 0.406567 1.52266 0
M  V30 11861 C 1093.25 -0.45552 2.24628 0
M  V30 11862 C 1094.26 -1.01234 1.27497 0
M  V30 11863 O 1095.45 -0.911718 1.5346 0
M  V30 11864 C 1092.55 -1.64578 2.96256 0
M  V30 11865 C 1091.72 -1.2133 4.20235 0
M  V30 11866 C 1090.78 -2.27018 4.7471 0
M  V30 11867 O 1089.81 -1.87714 5.37357 0
M  V30 11868 N 1091.01 -3.5915 4.56061 0
M  V30 11869 H 1093.77 0.164525 2.99248 0
M  V30 11870 H 1091.34 0.233812 1.60203 0
M  V30 11871 H 1093.33 -2.3484 3.29594 0
M  V30 11872 H 1091.9 -2.1718 2.24837 0
M  V30 11873 H 1091.12 -0.338892 3.92741 0
M  V30 11874 H 1092.41 -0.901268 5.00754 0
M  V30 11875 H 1091.8 -3.93834 4.06092 0
M  V30 11876 H 1090.36 -4.25397 4.93843 0
M  V30 11877 N 1093.79 -1.57004 0.136909 0
M  V30 11878 C 1094.73 -2.12004 -0.844362 0
M  V30 11879 C 1095.71 -1.04099 -1.24909 0
M  V30 11880 O 1096.89 -1.31866 -1.34698 0
M  V30 11881 C 1094.02 -2.63147 -2.13241 0
M  V30 11882 C 1093.06 -3.83105 -1.87438 0
M  V30 11883 S 1093.9 -5.2461 -1.07447 0
M  V30 11884 C 1095.05 -5.79134 -2.37392 0
M  V30 11885 H 1095.28 -2.94905 -0.376614 0
M  V30 11886 H 1092.82 -1.54207 -0.0771977 0
M  V30 11887 H 1094.78 -2.93264 -2.87239 0
M  V30 11888 H 1093.44 -1.80395 -2.57131 0
M  V30 11889 H 1092.63 -4.17099 -2.82922 0
M  V30 11890 H 1092.23 -3.53696 -1.21553 0
M  V30 11891 H 1094.52 -5.8995 -3.33114 0
M  V30 11892 H 1095.47 -6.76887 -2.07918 0
M  V30 11893 H 1095.87 -5.07311 -2.47579 0
M  V30 11894 N 1095.27 0.136881 -1.57004 0
M  V30 11895 C 1096.5 0.861186 -1.87796 0
M  V30 11896 C 1096.91 1.74788 -0.724272 0
M  V30 11897 O 1096.25 1.80984 0.31471 0
M  V30 11898 C 1096.32 1.76115 -3.13407 0
M  V30 11899 C 1095.98 1.05059 -4.4476 0
M  V30 11900 C 1096.98 0.399736 -5.18361 0
M  V30 11901 C 1094.66 1.03709 -4.91477 0
M  V30 11902 C 1096.66 -0.255127 -6.36889 0
M  V30 11903 C 1094.34 0.378414 -6.09927 0
M  V30 11904 C 1095.34 -0.266555 -6.8248 0
M  V30 11905 O 1095.03 -0.914757 -7.98679 0
M  V30 11906 H 1094.76 0.253855 -0.626525 0
M  V30 11907 H 1097.31 0.131291 -2.0498 0
M  V30 11908 H 1095.54 2.53224 -2.92257 0
M  V30 11909 H 1097.23 2.3583 -3.30362 0
M  V30 11910 H 1098 0.401909 -4.83332 0
M  V30 11911 H 1093.88 1.52852 -4.34922 0
M  V30 11912 H 1097.42 -0.759135 -6.93457 0
M  V30 11913 H 1093.32 0.373942 -6.44416 0
M  V30 11914 H 1094.09 -0.817437 -8.14408 0
M  V30 11915 N 1096.75 1.52266 0.40654 0
M  V30 11916 C 1098.17 1.41127 0.745348 0
M  V30 11917 C 1098.37 0.517802 1.94733 0
M  V30 11918 O 1097.42 -0.0154286 2.52495 0
M  V30 11919 C 1098.74 2.83696 0.996859 0
M  V30 11920 C 1100.28 2.93056 1.09942 0
M  V30 11921 C 1100.76 4.36599 1.38367 0
M  V30 11922 N 1102.25 4.39845 1.45226 0
M  V30 11923 C 1102.98 5.47975 1.68852 0
M  V30 11924 N 1102.48 6.66219 1.90065 0
M  V30 11925 N 1104.27 5.35494 1.70888 0
M  V30 11926 H 1096.42 2.08888 -0.384632 0
M  V30 11927 H 1098.69 0.941619 -0.109809 0
M  V30 11928 H 1098.39 3.51208 0.185986 0
M  V30 11929 H 1098.27 3.24895 1.91632 0
M  V30 11930 H 1100.65 2.25723 1.90088 0
M  V30 11931 H 1100.74 2.5531 0.158256 0
M  V30 11932 H 1100.38 5.04492 0.587373 0
M  V30 11933 H 1100.31 4.71883 2.33739 0
M  V30 11934 H 1102.8 3.54611 1.30612 0
M  V30 11935 H 1103.11 7.44408 2.0755 0
M  V30 11936 H 1101.46 6.69279 1.87325 0
M  V30 11937 H 1104.65 4.42093 1.53856 0
M  V30 11938 H 1104.82 6.19837 1.88962 0
M  V30 11939 N 1098.23 -0.663929 1.42933 0
M  V30 11940 C 1099.45 -1.45691 1.47611 0
M  V30 11941 C 1099.88 -1.87875 0.0920305 0
M  V30 11942 O 1099.24 -1.56696 -0.91192 0
M  V30 11943 C 1099.28 -2.67517 2.41799 0
M  V30 11944 O 1098.39 -3.66187 1.89686 0
M  V30 11945 H 1097.73 -0.437257 0.499702 0
M  V30 11946 H 1100.26 -0.813397 1.87737 0
M  V30 11947 H 1100.27 -3.1546 2.58745 0
M  V30 11948 H 1098.94 -2.36155 3.4235 0
M  V30 11949 H 1097.52 -3.25274 1.82349 0
M  V30 11950 N 1099.71 -1.29285 -0.901281 0
M  V30 11951 C 1100.64 -1.16832 -2.0217 0
M  V30 11952 C 1101.62 -0.0629265 -1.69984 0
M  V30 11953 O 1102.8 -0.242123 -1.92685 0
M  V30 11954 C 1099.93 -0.842406 -3.36929 0
M  V30 11955 C 1098.89 -1.90394 -3.8332 0
M  V30 11956 C 1098.21 -1.43138 -5.15185 0
M  V30 11957 C 1099.51 -3.31254 -4.03817 0
M  V30 11958 H 1101.21 -2.10562 -2.12847 0
M  V30 11959 H 1098.75 -1.01375 -1.0227 0
M  V30 11960 H 1100.71 -0.741999 -4.14816 0
M  V30 11961 H 1099.43 0.130598 -3.26339 0
M  V30 11962 H 1098.09 -1.99371 -3.07647 0
M  V30 11963 H 1097.74 -0.447091 -5.01009 0
M  V30 11964 H 1097.44 -2.14129 -5.47195 0
M  V30 11965 H 1098.96 -1.34444 -5.95615 0
M  V30 11966 H 1100.37 -3.25129 -4.72191 0
M  V30 11967 H 1098.77 -4.00189 -4.47178 0
M  V30 11968 H 1099.84 -3.74349 -3.08206 0
M  V30 11969 N 1101.18 1.11143 -1.11736 0
M  V30 11970 C 1102.09 2.20851 -0.791331 0
M  V30 11971 C 1103.11 1.72644 0.216833 0
M  V30 11972 O 1104.29 2.01332 0.0522401 0
M  V30 11973 C 1101.35 3.4585 -0.242694 0
M  V30 11974 C 1100.41 4.08829 -1.30986 0
M  V30 11975 C 1099.65 5.27861 -0.787305 0
M  V30 11976 O 1099.87 5.69122 0.381549 0
M  V30 11977 O 1098.8 5.81506 -1.55352 0
M  V30 11978 H 1102.63 2.51158 -1.70744 0
M  V30 11979 H 1100.21 1.19739 -0.893478 0
M  V30 11980 H 1102.1 4.21359 0.0587472 0
M  V30 11981 H 1100.77 3.17187 0.646079 0
M  V30 11982 H 1099.68 3.35037 -1.66436 0
M  V30 11983 H 1101.01 4.41678 -2.17213 0
M  V30 11984 N 1102.66 0.908147 1.28804 0
M  V30 11985 C 1103.89 0.553287 1.99054 0
M  V30 11986 C 1104.3 -0.868455 1.68091 0
M  V30 11987 O 1103.64 -1.58599 0.926939 0
M  V30 11988 C 1103.71 0.675823 3.5309 0
M  V30 11989 C 1103.37 2.06608 4.0763 0
M  V30 11990 C 1104.37 3.03819 4.21889 0
M  V30 11991 C 1102.05 2.37775 4.42457 0
M  V30 11992 C 1104.05 4.30316 4.7022 0
M  V30 11993 C 1101.73 3.64512 4.90484 0
M  V30 11994 C 1102.73 4.60597 5.04321 0
M  V30 11995 O 1102.42 5.85082 5.51302 0
M  V30 11996 H 1102.15 0.210152 0.642504 0
M  V30 11997 H 1104.7 1.22188 1.65104 0
M  V30 11998 H 1102.93 -0.0498253 3.86668 0
M  V30 11999 H 1104.62 0.328884 4.04565 0
M  V30 12000 H 1105.39 2.81057 3.95262 0
M  V30 12001 H 1101.27 1.63742 4.3094 0
M  V30 12002 H 1104.81 5.05318 4.80936 0
M  V30 12003 H 1100.71 3.87101 5.1655 0
M  V30 12004 H 1101.48 5.87791 5.69599 0
M  V30 12005 N 1104.14 -1.42577 0.671525 0
M  V30 12006 C 1105.07 -2.2915 -0.0477361 0
M  V30 12007 C 1106.09 -1.43503 -0.768805 0
M  V30 12008 O 1107.27 -1.67256 -0.623509 0
M  V30 12009 C 1104.37 -3.20851 -1.09122 0
M  V30 12010 C 1103.55 -4.35134 -0.44463 0
M  V30 12011 C 1102.61 -5.07579 -1.38745 0
M  V30 12012 O 1101.63 -5.62215 -0.889015 0
M  V30 12013 N 1102.83 -5.12786 -2.72086 0
M  V30 12014 H 1105.6 -2.9152 0.695415 0
M  V30 12015 H 1103.16 -1.53467 0.515689 0
M  V30 12016 H 1105.15 -3.66183 -1.72315 0
M  V30 12017 H 1103.72 -2.59956 -1.73614 0
M  V30 12018 H 1102.94 -3.9249 0.36675 0
M  V30 12019 H 1104.23 -5.088 0.00595927 0
M  V30 12020 H 1103.63 -4.69802 -3.15123 0
M  V30 12021 H 1102.19 -5.61774 -3.30535 0
M  V30 12022 N 1105.62 -0.414636 -1.52048 0
M  V30 12023 C 1106.86 0.159585 -2.02171 0
M  V30 12024 C 1107.2 1.44321 -1.29943 0
M  V30 12025 O 1106.47 1.90185 -0.407402 0
M  V30 12026 C 1106.76 0.401655 -3.57853 0
M  V30 12027 C 1106.61 -0.899026 -4.40724 0
M  V30 12028 C 1107.93 1.1814 -4.23947 0
M  V30 12029 H 1105.05 0.0565257 -0.734829 0
M  V30 12030 H 1107.69 -0.549183 -1.8189 0
M  V30 12031 H 1105.84 1.00541 -3.75265 0
M  V30 12032 H 1107.51 -1.53502 -4.35011 0
M  V30 12033 H 1105.75 -1.50877 -4.06717 0
M  V30 12034 H 1106.42 -0.683974 -5.47746 0
M  V30 12035 H 1108.9 0.670203 -4.10667 0
M  V30 12036 H 1107.78 1.31953 -5.32804 0
M  V30 12037 H 1108.04 2.2035 -3.83273 0
M  V30 12038 N 1107.1 1.56929 -0.145233 0
M  V30 12039 C 1108.37 1.8767 0.551288 0
M  V30 12040 C 1108.75 1.05089 1.83083 0
M  V30 12041 O 1108.1 0.137201 2.28088 0
M  V30 12042 C 1108.31 3.39268 0.818445 0
M  V30 12043 C 1109.66 4.08447 1.16 0
M  V30 12044 O 1110.68 3.44436 0.907857 0
M  V30 12045 O 1109.54 5.21488 1.63441 0
M  V30 12046 H 1106.64 0.777788 0.281024 0
M  V30 12047 H 1109.18 1.68724 -0.181712 0
M  V30 12048 H 1107.95 3.91203 -0.0871897 0
M  V30 12049 H 1107.58 3.63735 1.60569 0
M  V30 12050 N 1108.58 -0.128553 1.57075 0
M  V30 12051 C 1109.54 -1.14215 1.98715 0
M  V30 12052 C 1110.54 -1.34843 0.876019 0
M  V30 12053 O 1111.73 -1.31522 1.14227 0
M  V30 12054 C 1108.86 -2.49865 2.31905 0
M  V30 12055 H 1110.05 -0.784481 2.89458 0
M  V30 12056 H 1107.61 -0.372531 1.51796 0
M  V30 12057 H 1108.34 -2.9057 1.44012 0
M  V30 12058 H 1108.13 -2.3625 3.12935 0
M  V30 12059 H 1109.62 -3.22832 2.64895 0
M  V30 12060 N 1110.05 -1.5248 -0.398459 0
M  V30 12061 C 1111.3 -1.66287 -1.14155 0
M  V30 12062 C 1111.62 -0.40429 -1.91376 0
M  V30 12063 O 1112.82 -0.422341 -2.68195 0
M  V30 12064 C 1111.28 -2.93831 -2.07825 0
M  V30 12065 C 1110.89 -4.26836 -1.3607 0
M  V30 12066 C 1112.63 -3.17004 -2.82327 0
M  V30 12067 C 1110.54 -5.45495 -2.28451 0
M  V30 12068 H 1109.47 -0.619478 -0.42984 0
M  V30 12069 H 1112.12 -1.78972 -0.405112 0
M  V30 12070 H 1110.5 -2.7487 -2.85065 0
M  V30 12071 H 1111.67 -4.56317 -0.641205 0
M  V30 12072 H 1109.99 -4.0985 -0.735659 0
M  V30 12073 H 1112.59 -4.02834 -3.51609 0
M  V30 12074 H 1112.93 -2.3168 -3.45876 0
M  V30 12075 H 1113.46 -3.36487 -2.12183 0
M  V30 12076 H 1110.2 -6.33198 -1.69532 0
M  V30 12077 H 1109.72 -5.20338 -2.98343 0
M  V30 12078 H 1111.4 -5.78996 -2.88743 0
M  V30 12079 N 1111.53 0.65634 -1.43283 0
M  V30 12080 C 1112.48 1.76934 -1.48199 0
M  V30 12081 C 1113.45 1.62748 -0.332023 0
M  V30 12082 O 1114.63 1.83036 -0.538735 0
M  V30 12083 C 1111.77 3.15072 -1.40797 0
M  V30 12084 C 1110.89 3.40414 -2.65974 0
M  V30 12085 C 1110.02 4.68383 -2.50582 0
M  V30 12086 C 1109.06 4.8682 -3.71043 0
M  V30 12087 N 1108.2 6.06043 -3.5448 0
M  V30 12088 H 1113.04 1.72067 -2.43304 0
M  V30 12089 H 1110.57 0.839728 -1.20777 0
M  V30 12090 H 1112.53 3.94925 -1.345 0
M  V30 12091 H 1111.16 3.19017 -0.492754 0
M  V30 12092 H 1110.21 2.54681 -2.82563 0
M  V30 12093 H 1111.53 3.49925 -3.55463 0
M  V30 12094 H 1110.68 5.56357 -2.41975 0
M  V30 12095 H 1109.42 4.61187 -1.58612 0
M  V30 12096 H 1108.42 3.97282 -3.80062 0
M  V30 12097 H 1109.65 4.95847 -4.64017 0
M  V30 12098 H 1107.6 5.99985 -2.65242 0
M  V30 12099 H 1107.51 6.16498 -4.37568 0
M  V30 12100 H 1108.78 6.96647 -3.49719 0
M  V30 12101 N 1113.01 1.29761 0.894412 0
M  V30 12102 C 1113.96 1.15341 1.99912 0
M  V30 12103 C 1114.93 0.0453488 1.66038 0
M  V30 12104 O 1116.11 0.213829 1.89598 0
M  V30 12105 C 1113.25 0.841432 3.34685 0
M  V30 12106 C 1112.36 2.03046 3.81309 0
M  V30 12107 C 1111.5 1.65739 5.04682 0
M  V30 12108 C 1110.54 2.81191 5.43689 0
M  V30 12109 N 1109.68 2.44244 6.58247 0
M  V30 12110 H 1114.52 2.09854 2.11578 0
M  V30 12111 H 1112.05 1.04421 1.03608 0
M  V30 12112 H 1114.01 0.641211 4.12243 0
M  V30 12113 H 1112.64 -0.066797 3.22731 0
M  V30 12114 H 1111.69 2.34222 2.9974 0
M  V30 12115 H 1113 2.89538 4.06164 0
M  V30 12116 H 1112.16 1.42036 5.8984 0
M  V30 12117 H 1110.9 0.764019 4.81678 0
M  V30 12118 H 1109.9 3.0557 4.57064 0
M  V30 12119 H 1111.13 3.712 5.68672 0
M  V30 12120 H 1109.07 1.57402 6.36837 0
M  V30 12121 H 1108.99 3.24269 6.82924 0
M  V30 12122 H 1110.26 2.23875 7.46659 0
M  V30 12123 N 1114.49 -1.10549 1.12324 0
M  V30 12124 C 1115.74 -1.81851 0.872531 0
M  V30 12125 C 1116.05 -1.86058 -0.603468 0
M  V30 12126 O 1117.26 -2.53553 -0.970736 0
M  V30 12127 C 1115.71 -3.26631 1.51131 0
M  V30 12128 C 1115.32 -3.30725 3.02201 0
M  V30 12129 C 1117.06 -4.02768 1.34082 0
M  V30 12130 C 1114.97 -4.69957 3.59018 0
M  V30 12131 H 1113.9 -0.681422 0.322769 0
M  V30 12132 H 1116.55 -1.24332 1.34959 0
M  V30 12133 H 1114.93 -3.8414 0.961913 0
M  V30 12134 H 1116.11 -2.83046 3.63623 0
M  V30 12135 H 1114.42 -2.68072 3.18632 0
M  V30 12136 H 1117.02 -5.05612 1.73955 0
M  V30 12137 H 1117.36 -4.15328 0.284369 0
M  V30 12138 H 1117.9 -3.51671 1.85937 0
M  V30 12139 H 1114.63 -4.62597 4.64418 0
M  V30 12140 H 1114.15 -5.18008 3.02371 0
M  V30 12141 H 1115.83 -5.38925 3.58007 0
M  V30 12142 N 1115.97 -0.914965 -1.28321 0
M  V30 12143 C 1117.21 -0.544639 -1.94208 0
M  V30 12144 C 1117.53 0.916368 -1.72806 0
M  V30 12145 O 1118.73 1.39491 -2.32926 0
M  V30 12146 C 1117.19 -0.923209 -3.47858 0
M  V30 12147 C 1116.8 -2.40403 -3.78035 0
M  V30 12148 C 1118.54 -0.623526 -4.19896 0
M  V30 12149 C 1116.45 -2.72266 -5.25 0
M  V30 12150 H 1115.38 -0.199966 -0.727 0
M  V30 12151 H 1118.03 -1.11405 -1.45812 0
M  V30 12152 H 1116.41 -0.282576 -3.94991 0
M  V30 12153 H 1117.59 -3.09149 -3.41706 0
M  V30 12154 H 1115.9 -2.67429 -3.19172 0
M  V30 12155 H 1118.5 -0.838243 -5.28089 0
M  V30 12156 H 1118.84 0.438721 -4.13982 0
M  V30 12157 H 1119.37 -1.22268 -3.78544 0
M  V30 12158 H 1116.11 -3.77349 -5.35993 0
M  V30 12159 H 1115.63 -2.08157 -5.62522 0
M  V30 12160 H 1117.31 -2.59334 -5.92752 0
M  V30 12161 N 1117.44 1.42219 -0.679077 0
M  V30 12162 C 1118.72 1.95155 -0.13188 0
M  V30 12163 C 1119.1 1.6193 1.35433 0
M  V30 12164 O 1118.45 0.917672 2.09263 0
M  V30 12165 C 1118.66 3.46635 -0.405578 0
M  V30 12166 C 1120.01 4.23359 -0.324394 0
M  V30 12167 O 1121.03 3.54578 -0.339564 0
M  V30 12168 O 1119.89 5.45831 -0.270268 0
M  V30 12169 H 1116.98 0.826983 -0.00535438 0
M  V30 12170 H 1119.53 1.52024 -0.754101 0
M  V30 12171 H 1118.3 3.6404 -1.43495 0
M  V30 12172 H 1117.92 3.96823 0.248439 0
M  V30 12173 N 1118.92 0.422693 1.51826 0
M  V30 12174 C 1120.15 -0.14753 2.06073 0
M  V30 12175 C 1120.56 -1.38264 1.2915 0
M  V30 12176 O 1119.9 -1.8052 0.340306 0
M  V30 12177 C 1119.96 -0.549558 3.55275 0
M  V30 12178 C 1119.63 0.576704 4.53347 0
M  V30 12179 C 1120.63 1.44442 4.99432 0
M  V30 12180 C 1118.31 0.753264 4.9662 0
M  V30 12181 C 1120.3 2.47352 5.87448 0
M  V30 12182 C 1117.99 1.78566 5.84429 0
M  V30 12183 C 1118.99 2.64419 6.29739 0
M  V30 12184 O 1118.68 3.65888 7.15808 0
M  V30 12185 H 1118.41 -0.0178911 0.675763 0
M  V30 12186 H 1120.96 0.596258 1.96555 0
M  V30 12187 H 1119.19 -1.34583 3.62525 0
M  V30 12188 H 1120.88 -1.04925 3.92104 0
M  V30 12189 H 1121.65 1.31948 4.66706 0
M  V30 12190 H 1117.53 0.0946405 4.60903 0
M  V30 12191 H 1121.07 3.14397 6.22736 0
M  V30 12192 H 1116.97 1.91086 6.16568 0
M  V30 12193 H 1117.74 3.62294 7.33952 0
M  V30 12194 N 1120.4 -1.5685 0.153553 0
M  V30 12195 C 1121.31 -2.20664 -0.796528 0
M  V30 12196 C 1122.33 -1.19289 -1.26674 0
M  V30 12197 O 1123.5 -1.51889 -1.32256 0
M  V30 12198 C 1120.57 -2.82088 -2.01561 0
M  V30 12199 C 1119.63 -3.9861 -1.59401 0
M  V30 12200 C 1118.86 -4.57096 -2.75498 0
M  V30 12201 O 1119.08 -4.14462 -3.9189 0
M  V30 12202 O 1118.02 -5.47254 -2.50593 0
M  V30 12203 H 1121.84 -3.02376 -0.283282 0
M  V30 12204 H 1119.43 -1.49218 -0.0737927 0
M  V30 12205 H 1121.31 -3.21103 -2.72893 0
M  V30 12206 H 1119.99 -2.03385 -2.51826 0
M  V30 12207 H 1118.89 -3.64299 -0.850725 0
M  V30 12208 H 1120.23 -4.78853 -1.13845 0
M  V30 12209 N 1121.88 0.120221 -1.57141 0
M  V30 12210 C 1123.11 0.841219 -1.88698 0
M  V30 12211 C 1123.52 1.7401 -0.74277 0
M  V30 12212 O 1122.86 1.81308 0.295497 0
M  V30 12213 C 1122.92 1.72781 -3.15257 0
M  V30 12214 C 1122.58 1.00336 -4.45849 0
M  V30 12215 C 1123.58 0.344734 -5.18756 0
M  V30 12216 C 1121.27 0.984899 -4.9255 0
M  V30 12217 C 1123.26 -0.322664 -6.36583 0
M  V30 12218 C 1120.95 0.313702 -6.10294 0
M  V30 12219 C 1121.95 -0.338926 -6.82159 0
M  V30 12220 O 1121.63 -0.999416 -7.97663 0
M  V30 12221 H 1121.37 0.247195 -0.629182 0
M  V30 12222 H 1123.92 0.109542 -2.05108 0
M  V30 12223 H 1122.15 2.5011 -2.94927 0
M  V30 12224 H 1123.84 2.32313 -3.32845 0
M  V30 12225 H 1124.6 0.350623 -4.83731 0
M  V30 12226 H 1120.48 1.4823 -4.36519 0
M  V30 12227 H 1124.03 -0.832643 -6.92613 0
M  V30 12228 H 1119.92 0.305572 -6.44776 0
M  V30 12229 H 1120.69 -0.90377 -8.13495 0
M  V30 12230 N 1123.36 1.52689 0.390367 0
M  V30 12231 C 1124.3 1.7737 1.47677 0
M  V30 12232 C 1125.27 0.616864 1.54221 0
M  V30 12233 O 1126.46 0.856437 1.70499 0
M  V30 12234 C 1123.6 1.94715 2.84921 0
M  V30 12235 C 1122.71 3.22405 2.8754 0
M  V30 12236 C 1121.85 3.30074 4.16202 0
M  V30 12237 C 1120.89 4.51893 4.12867 0
M  V30 12238 N 1120.02 4.56851 5.33134 0
M  V30 12239 H 1124.86 2.70084 1.25932 0
M  V30 12240 H 1122.4 1.33813 0.610943 0
M  V30 12241 H 1124.36 2.02755 3.64618 0
M  V30 12242 H 1122.99 1.05363 3.0512 0
M  V30 12243 H 1122.04 3.23442 2.00223 0
M  V30 12244 H 1123.35 4.12156 2.80943 0
M  V30 12245 H 1122.51 3.3729 5.04302 0
M  V30 12246 H 1121.24 2.38295 4.25519 0
M  V30 12247 H 1120.25 4.44803 3.23156 0
M  V30 12248 H 1121.47 5.44987 4.05174 0
M  V30 12249 H 1119.42 3.67963 5.43083 0
M  V30 12250 H 1119.34 5.40472 5.28607 0
M  V30 12251 H 1120.61 4.6832 6.23134 0
M  V30 12252 N 1124.83 -0.648732 1.43629 0
M  V30 12253 C 1126.08 -1.40446 1.44768 0
M  V30 12254 C 1126.4 -1.95447 0.0773445 0
M  V30 12255 O 1127.6 -2.71479 -0.0337942 0
M  V30 12256 C 1126.06 -2.54194 2.54781 0
M  V30 12257 C 1125.67 -2.05781 3.97942 0
M  V30 12258 C 1127.41 -3.31529 2.65121 0
M  V30 12259 C 1125.32 -3.16767 4.99412 0
M  V30 12260 H 1124.25 -0.527717 0.538545 0
M  V30 12261 H 1126.9 -0.699756 1.69634 0
M  V30 12262 H 1125.28 -3.27156 2.23125 0
M  V30 12263 H 1126.45 -1.398 4.39081 0
M  V30 12264 H 1124.77 -1.41312 3.91688 0
M  V30 12265 H 1127.37 -4.14233 3.38105 0
M  V30 12266 H 1127.71 -3.79855 1.70341 0
M  V30 12267 H 1128.24 -2.65649 2.961 0
M  V30 12268 H 1124.98 -2.73404 5.9576 0
M  V30 12269 H 1124.5 -3.81445 4.62882 0
M  V30 12270 H 1126.18 -3.81827 5.22319 0
M  V30 12271 N 1126.31 -1.30234 -0.887518 0
M  V30 12272 C 1127.54 -1.21652 -1.66986 0
M  V30 12273 C 1127.95 0.223473 -1.87876 0
M  V30 12274 O 1127.29 1.15993 -1.42448 0
M  V30 12275 C 1127.36 -1.87173 -3.06931 0
M  V30 12276 C 1127.02 -3.36496 -3.09224 0
M  V30 12277 C 1128.02 -4.3253 -2.88469 0
M  V30 12278 C 1125.7 -3.77901 -3.30902 0
M  V30 12279 C 1127.7 -5.67942 -2.89344 0
M  V30 12280 C 1125.38 -5.13432 -3.31407 0
M  V30 12281 C 1126.38 -6.08263 -3.10653 0
M  V30 12282 O 1126.07 -7.41318 -3.1097 0
M  V30 12283 H 1125.8 -0.422224 -0.527923 0
M  V30 12284 H 1128.35 -1.72349 -1.11736 0
M  V30 12285 H 1126.58 -1.31002 -3.63834 0
M  V30 12286 H 1128.27 -1.72745 -3.67306 0
M  V30 12287 H 1129.04 -4.01873 -2.7152 0
M  V30 12288 H 1124.92 -3.04534 -3.46093 0
M  V30 12289 H 1128.46 -6.41936 -2.73063 0
M  V30 12290 H 1124.36 -5.4373 -3.47891 0
M  V30 12291 H 1125.13 -7.50275 -3.27153 0
M  V30 12292 N 1127.79 1.09952 -1.12909 0
M  V30 12293 C 1129.02 1.8633 -0.910821 0
M  V30 12294 C 1129.44 1.80335 0.534874 0
M  V30 12295 O 1128.8 1.1769 1.37908 0
M  V30 12296 C 1128.85 3.32462 -1.39648 0
M  V30 12297 O 1127.95 4.08327 -0.578192 0
M  V30 12298 H 1127.29 0.577984 -0.32685 0
M  V30 12299 H 1129.82 1.38883 -1.50242 0
M  V30 12300 H 1129.83 3.83311 -1.39774 0
M  V30 12301 H 1128.51 3.36141 -2.44913 0
M  V30 12302 H 1127.08 3.67291 -0.644347 0
M  V30 12303 N 1129.27 0.921757 1.27833 0
M  V30 12304 C 1130.52 0.557974 1.94245 0
M  V30 12305 C 1130.84 -0.90268 1.72849 0
M  V30 12306 O 1130.11 -1.63915 1.07279 0
M  V30 12307 H 1128.69 0.203364 0.718785 0
M  V30 12308 H 1131.35 1.17286 1.5566 0
M  V30 12309 H 1130.45 0.759202 3.02725 0
M  V30 12310 N 1130.75 -1.41857 0.686609 0
M  V30 12311 C 1132.16 -1.84439 0.289662 0
M  V30 12312 C 1132.51 -1.57462 -1.17047 0
M  V30 12313 O 1131.63 -1.04046 -1.89745 0
M  V30 12314 C 1132.23 -3.34802 0.518948 0
M  V30 12315 C 1130.79 -3.75988 0.176007 0
M  V30 12316 C 1129.93 -2.65339 0.805632 0
M  V30 12317 H 1132.89 -1.31536 0.88792 0
M  V30 12318 H 1132.91 -3.79833 -0.225209 0
M  V30 12319 H 1132.42 -3.54405 1.58173 0
M  V30 12320 H 1130.52 -3.61989 -0.882865 0
M  V30 12321 H 1130.63 -4.75009 0.624772 0
M  V30 12322 H 1129 -2.53605 0.235966 0
M  V30 12323 H 1129.78 -2.87762 1.8721 0
M  V30 12324 N 1132.22 -0.430739 -1.51599 0
M  V30 12325 C 1133.5 0.197543 -1.946 0
M  V30 12326 C 1133.88 1.6069 -1.36901 0
M  V30 12327 O 1133.23 2.21697 -0.553422 0
M  V30 12328 C 1133.44 0.181976 -3.48525 0
M  V30 12329 C 1134.79 0.390783 -4.22798 0
M  V30 12330 O 1135.81 0.260384 -3.55247 0
M  V30 12331 O 1134.67 0.649701 -5.42624 0
M  V30 12332 H 1131.76 0.133524 -0.81615 0
M  V30 12333 H 1134.31 -0.488243 -1.62525 0
M  V30 12334 H 1133.08 -0.803584 -3.8296 0
M  V30 12335 H 1132.71 0.910952 -3.87024 0
M  V30 12336 N 1133.7 1.56767 -0.161869 0
M  V30 12337 C 1134.65 2.17502 0.772102 0
M  V30 12338 C 1135.62 1.11223 1.23364 0
M  V30 12339 O 1136.8 1.39332 1.30351 0
M  V30 12340 C 1133.94 2.81248 1.99984 0
M  V30 12341 C 1133.06 4.01962 1.58274 0
M  V30 12342 C 1132.19 4.53662 2.76341 0
M  V30 12343 C 1131.23 5.66807 2.31076 0
M  V30 12344 N 1130.37 6.13059 3.42203 0
M  V30 12345 H 1135.21 2.96971 0.247382 0
M  V30 12346 H 1132.75 1.46685 0.110382 0
M  V30 12347 H 1134.7 3.16359 2.7198 0
M  V30 12348 H 1133.33 2.04398 2.49842 0
M  V30 12349 H 1132.39 3.72733 0.759874 0
M  V30 12350 H 1133.7 4.83891 1.2104 0
M  V30 12351 H 1132.85 4.90905 3.56507 0
M  V30 12352 H 1131.59 3.7077 3.16829 0
M  V30 12353 H 1130.6 5.29125 1.49354 0
M  V30 12354 H 1131.82 6.51494 1.91657 0
M  V30 12355 H 1129.77 5.33099 3.82285 0
M  V30 12356 H 1129.68 6.89953 3.09033 0
M  V30 12357 H 1130.95 6.54951 4.22682 0
M  V30 12358 N 1135.18 -0.111886 1.57202 0
M  V30 12359 C 1136.09 -1.1556 2.04165 0
M  V30 12360 C 1137.11 -1.44898 0.963354 0
M  V30 12361 O 1138.28 -1.55873 1.27536 0
M  V30 12362 C 1135.35 -2.46048 2.44256 0
M  V30 12363 C 1134.41 -2.24043 3.66201 0
M  V30 12364 C 1133.64 -3.4831 4.04371 0
M  V30 12365 O 1133.86 -4.55895 3.42806 0
M  V30 12366 O 1132.8 -3.38891 4.9743 0
M  V30 12367 H 1136.62 -0.786778 2.93332 0
M  V30 12368 H 1134.21 -0.323196 1.45862 0
M  V30 12369 H 1136.09 -3.22916 2.70745 0
M  V30 12370 H 1134.77 -2.8239 1.58233 0
M  V30 12371 H 1133.67 -1.4501 3.44852 0
M  V30 12372 H 1135.01 -1.92602 4.52952 0
M  V30 12373 N 1136.66 -1.52894 -0.382264 0
M  V30 12374 C 1137.59 -1.74413 -1.48703 0
M  V30 12375 C 1138.6 -0.624663 -1.50339 0
M  V30 12376 O 1139.79 -0.900527 -1.54119 0
M  V30 12377 C 1136.89 -1.79387 -2.8753 0
M  V30 12378 C 1136.07 -3.08794 -3.09783 0
M  V30 12379 C 1135.12 -3.05226 -4.2863 0
M  V30 12380 O 1134.15 -3.79073 -4.24609 0
M  V30 12381 N 1135.35 -2.2488 -5.35172 0
M  V30 12382 H 1138.12 -2.69734 -1.30628 0
M  V30 12383 H 1135.68 -1.51465 -0.571842 0
M  V30 12384 H 1137.67 -1.74498 -3.65147 0
M  V30 12385 H 1136.24 -0.914233 -2.98932 0
M  V30 12386 H 1135.46 -3.27118 -2.19971 0
M  V30 12387 H 1136.75 -3.94347 -3.21509 0
M  V30 12388 H 1136.15 -1.64363 -5.41296 0
M  V30 12389 H 1134.7 -2.25825 -6.1143 0
M  V30 12390 N 1138.14 0.641106 -1.43971 0
M  V30 12391 C 1139.39 1.39676 -1.45511 0
M  V30 12392 C 1139.7 1.95403 -0.0877084 0
M  V30 12393 O 1140.91 2.71493 0.0193965 0
M  V30 12394 C 1139.36 2.52839 -2.56126 0
M  V30 12395 C 1138.97 2.03668 -3.99028 0
M  V30 12396 C 1140.71 3.30118 -2.66875 0
M  V30 12397 C 1138.62 3.14114 -5.01085 0
M  V30 12398 H 1137.55 0.524854 -0.541336 0
M  V30 12399 H 1140.2 0.69075 -1.70003 0
M  V30 12400 H 1138.58 3.25968 -2.24857 0
M  V30 12401 H 1139.76 1.3747 -4.39817 0
M  V30 12402 H 1138.07 1.39233 -3.92432 0
M  V30 12403 H 1140.67 4.12434 -3.40297 0
M  V30 12404 H 1141.01 3.78946 -1.72353 0
M  V30 12405 H 1141.55 2.64075 -2.97505 0
M  V30 12406 H 1138.28 2.70241 -5.97202 0
M  V30 12407 H 1137.8 3.78985 -4.64898 0
M  V30 12408 H 1139.48 3.79051 -5.24337 0
M  V30 12409 N 1139.62 1.30703 0.880598 0
M  V30 12410 C 1140.58 1.17429 1.96832 0
M  V30 12411 C 1141.58 0.104305 1.60461 0
M  V30 12412 O 1142.77 0.352758 1.70591 0
M  V30 12413 C 1139.9 0.800099 3.31378 0
M  V30 12414 H 1141.09 2.14069 2.10034 0
M  V30 12415 H 1138.65 1.14162 1.06755 0
M  V30 12416 H 1139.38 -0.165606 3.23877 0
M  V30 12417 H 1139.17 1.57341 3.59146 0
M  V30 12418 H 1140.66 0.730826 4.11155 0
M  V30 12419 N 1141.09 -1.09351 1.1349 0
M  V30 12420 C 1142.37 -1.78121 0.808225 0
M  V30 12421 C 1142.75 -1.99154 -0.700072 0
M  V30 12422 O 1142.1 -1.59356 -1.63762 0
M  V30 12423 C 1142.31 -3.10368 1.59601 0
M  V30 12424 C 1143.66 -3.85063 1.78919 0
M  V30 12425 O 1144.68 -3.20122 1.56206 0
M  V30 12426 O 1143.54 -5.01648 2.16821 0
M  V30 12427 H 1140.63 -0.77253 0.295173 0
M  V30 12428 H 1143.18 -1.15901 1.23956 0
M  V30 12429 H 1141.95 -2.90549 2.62101 0
M  V30 12430 H 1141.57 -3.80312 1.15967 0
M  V30 12431 N 1142.57 -0.928524 -1.27343 0
M  V30 12432 C 1143.48 -0.433901 -2.30553 0
M  V30 12433 C 1144.5 0.485832 -1.6708 0
M  V30 12434 O 1145.67 0.36844 -1.98001 0
M  V30 12435 C 1142.74 0.304617 -3.45359 0
M  V30 12436 C 1141.8 -0.650131 -4.24349 0
M  V30 12437 C 1141.03 0.0532372 -5.33673 0
M  V30 12438 O 1141.26 1.27246 -5.56026 0
M  V30 12439 O 1140.19 -0.619009 -5.98709 0
M  V30 12440 H 1144.02 -1.2909 -2.74899 0
M  V30 12441 H 1141.6 -0.693903 -1.32308 0
M  V30 12442 H 1143.48 0.721137 -4.15184 0
M  V30 12443 H 1142.16 1.13721 -3.03066 0
M  V30 12444 H 1141.06 -1.11635 -3.57055 0
M  V30 12445 H 1142.4 -1.44996 -4.70358 0
M  V30 12446 N 1144.05 1.41491 -0.694123 0
M  V30 12447 C 1145.3 2.00479 -0.221585 0
M  V30 12448 C 1145.61 1.55605 1.18518 0
M  V30 12449 O 1146.82 2.07143 1.7551 0
M  V30 12450 C 1145.27 3.5824 -0.345264 0
M  V30 12451 C 1144.88 4.12096 -1.7573 0
M  V30 12452 C 1146.63 4.24446 0.0675731 0
M  V30 12453 C 1144.53 5.62286 -1.83271 0
M  V30 12454 H 1143.46 0.749841 -0.0790854 0
M  V30 12455 H 1146.11 1.61987 -0.86211 0
M  V30 12456 H 1144.5 3.94328 0.363487 0
M  V30 12457 H 1145.67 3.8743 -2.49469 0
M  V30 12458 H 1143.98 3.58411 -2.11969 0
M  V30 12459 H 1146.58 5.34691 0.0316485 0
M  V30 12460 H 1146.92 4.01338 1.10606 0
M  V30 12461 H 1147.46 3.93388 -0.59085 0
M  V30 12462 H 1144.2 5.9022 -2.85168 0
M  V30 12463 H 1143.72 5.88883 -1.13914 0
M  V30 12464 H 1145.4 6.27033 -1.59494 0
M  V30 12465 N 1145.53 0.438773 1.51369 0
M  V30 12466 C 1146.48 -0.386324 2.29369 0
M  V30 12467 C 1147.47 -1.0196 1.3528 0
M  V30 12468 O 1148.68 -0.9544 1.52615 0
M  V30 12469 H 1145.05 -0.143397 0.738201 0
M  V30 12470 H 1147.02 0.292372 2.96964 0
M  V30 12471 C 1145.77 -1.47426 3.14898 0
M  V30 12472 H 1145.09 -0.996335 3.87186 0
M  V30 12473 H 1146.53 -2.02481 3.72529 0
M  V30 12474 C 1144.99 -2.45831 2.30366 0
M  V30 12475 O 1145.52 -3.50398 1.96428 0
M  V30 12476 N 1143.73 -2.16754 1.93561 0
M  V30 12477 H 1143.28 -1.31748 2.2136 0
M  V30 12478 H 1143.23 -2.82836 1.373 0
M  V30 12479 N 1147.01 -1.56678 0.170181 0
M  V30 12480 C 1147.95 -2.19222 -0.777459 0
M  V30 12481 C 1148.95 -1.15592 -1.23834 0
M  V30 12482 O 1150.15 -1.33794 -1.20412 0
M  V30 12483 H 1146.53 -0.702244 -0.268992 0
M  V30 12484 H 1148.5 -2.97543 -0.225989 0
M  V30 12485 C 1147.25 -2.84631 -1.997 0
M  V30 12486 H 1146.57 -3.641 -1.65139 0
M  V30 12487 H 1148.01 -3.31864 -2.63898 0
M  V30 12488 C 1146.47 -1.84345 -2.81991 0
M  V30 12489 O 1147 -1.32821 -3.79106 0
M  V30 12490 N 1145.21 -1.53127 -2.46983 0
M  V30 12491 H 1144.75 -1.95219 -1.6807 0
M  V30 12492 H 1144.71 -0.862787 -3.0233 0
M  V30 12493 N 1148.48 0.103547 -1.57259 0
M  V30 12494 C 1149.41 1.12714 -2.04494 0
M  V30 12495 C 1150.39 1.42278 -0.932255 0
M  V30 12496 O 1151.58 1.52453 -1.20298 0
M  V30 12497 C 1148.71 2.44927 -2.46228 0
M  V30 12498 C 1147.66 2.2979 -3.61082 0
M  V30 12499 C 1146.99 3.67105 -3.88765 0
M  V30 12500 C 1148.29 1.7455 -4.9227 0
M  V30 12501 H 1149.98 0.734198 -2.90258 0
M  V30 12502 H 1147.53 0.351725 -1.39638 0
M  V30 12503 H 1149.48 3.16798 -2.77879 0
M  V30 12504 H 1148.21 2.8614 -1.57453 0
M  V30 12505 H 1146.87 1.60366 -3.29664 0
M  V30 12506 H 1146.51 4.05831 -2.97171 0
M  V30 12507 H 1146.21 3.57825 -4.66084 0
M  V30 12508 H 1147.74 4.40456 -4.22884 0
M  V30 12509 H 1149.15 2.36253 -5.22358 0
M  V30 12510 H 1147.55 1.76051 -5.73695 0
M  V30 12511 H 1148.62 0.704242 -4.79759 0
M  V30 12512 N 1149.96 1.53094 0.37415 0
M  V30 12513 C 1150.91 1.78927 1.45787 0
M  V30 12514 C 1151.88 0.633187 1.53558 0
M  V30 12515 O 1153.06 0.874472 1.69581 0
M  V30 12516 C 1150.2 1.97726 2.8284 0
M  V30 12517 C 1149.32 3.25436 2.84104 0
M  V30 12518 C 1148.45 3.3447 4.12678 0
M  V30 12519 C 1147.49 4.56246 4.08051 0
M  V30 12520 N 1146.63 4.6248 5.28258 0
M  V30 12521 H 1151.47 2.71404 1.2306 0
M  V30 12522 H 1149 1.34453 0.596716 0
M  V30 12523 H 1150.96 2.06611 3.62447 0
M  V30 12524 H 1149.59 1.08593 3.03986 0
M  V30 12525 H 1148.64 3.25548 1.96781 0
M  V30 12526 H 1149.96 4.15112 2.76556 0
M  V30 12527 H 1149.11 3.4262 5.00696 0
M  V30 12528 H 1147.85 2.42795 4.22968 0
M  V30 12529 H 1146.85 4.48206 3.1842 0
M  V30 12530 H 1148.08 5.49254 3.99371 0
M  V30 12531 H 1146.03 3.73703 5.3915 0
M  V30 12532 H 1145.94 5.46049 5.22845 0
M  V30 12533 H 1147.21 4.74903 6.18132 0
M  V30 12534 N 1151.44 -0.633461 1.44309 0
M  V30 12535 C 1152.39 -1.76674 1.51292 0
M  V30 12536 C 1153.38 -1.64972 0.384807 0
M  V30 12537 O 1154.59 -1.71079 0.559653 0
M  V30 12538 H 1150.96 -0.583238 0.474697 0
M  V30 12539 H 1152.93 -1.67907 2.46678 0
M  V30 12540 C 1151.68 -3.15002 1.47205 0
M  V30 12541 H 1151.01 -3.24653 2.33325 0
M  V30 12542 H 1152.45 -3.94199 1.56151 0
M  V30 12543 C 1150.9 -3.3635 0.192464 0
M  V30 12544 O 1151.43 -3.94857 -0.738285 0
M  V30 12545 N 1149.64 -2.9044 0.0963424 0
M  V30 12546 H 1149.19 -2.43011 0.85459 0
M  V30 12547 H 1149.15 -3.05099 -0.759061 0
M  V30 12548 N 1152.92 -1.31168 -0.873655 0
M  V30 12549 C 1153.87 -1.18507 -1.98052 0
M  V30 12550 C 1154.84 -0.0717583 -1.65945 0
M  V30 12551 O 1156.02 -0.243965 -1.89234 0
M  V30 12552 C 1153.16 -0.894571 -3.33304 0
M  V30 12553 C 1152.27 -2.09086 -3.7803 0
M  V30 12554 C 1151.41 -1.73747 -5.01982 0
M  V30 12555 C 1150.45 -2.89805 -5.39147 0
M  V30 12556 N 1149.58 -2.54686 -6.54278 0
M  V30 12557 H 1154.42 -2.13193 -2.08213 0
M  V30 12558 H 1151.96 -1.06056 -1.01934 0
M  V30 12559 H 1153.92 -0.706714 -4.11171 0
M  V30 12560 H 1152.55 0.0154449 -3.22796 0
M  V30 12561 H 1151.6 -2.38961 -2.95976 0
M  V30 12562 H 1152.91 -2.95963 -4.01506 0
M  V30 12563 H 1152.07 -1.51402 -5.87505 0
M  V30 12564 H 1150.81 -0.840553 -4.80402 0
M  V30 12565 H 1149.81 -3.12803 -4.52144 0
M  V30 12566 H 1151.04 -3.802 -5.62694 0
M  V30 12567 H 1148.98 -1.67513 -6.34252 0
M  V30 12568 H 1148.9 -3.35093 -6.77679 0
M  V30 12569 H 1150.17 -2.35725 -7.43003 0
M  V30 12570 N 1154.4 1.08748 -1.14068 0
M  V30 12571 C 1155.33 2.17591 -0.84714 0
M  V30 12572 C 1156.31 1.68962 0.196415 0
M  V30 12573 O 1157.49 1.94125 0.0538415 0
M  V30 12574 C 1154.62 3.45823 -0.320005 0
M  V30 12575 C 1153.58 4.07824 -1.2986 0
M  V30 12576 C 1152.9 5.30965 -0.630925 0
M  V30 12577 C 1154.2 4.49512 -2.65963 0
M  V30 12578 H 1155.9 2.42404 -1.75729 0
M  V30 12579 H 1153.44 1.16502 -0.846356 0
M  V30 12580 H 1155.4 4.21276 -0.102271 0
M  V30 12581 H 1154.12 3.20553 0.625561 0
M  V30 12582 H 1152.78 3.34398 -1.50245 0
M  V30 12583 H 1152.43 5.01979 0.320337 0
M  V30 12584 H 1152.13 5.73402 -1.28388 0
M  V30 12585 H 1153.65 6.09136 -0.422635 0
M  V30 12586 H 1155.06 5.16159 -2.49506 0
M  V30 12587 H 1153.46 5.02857 -3.27498 0
M  V30 12588 H 1154.53 3.6157 -3.23102 0
M  V30 12589 N 1155.87 0.935264 1.26849 0
M  V30 12590 C 1156.78 0.446122 2.30319 0
M  V30 12591 C 1157.8 -0.476965 1.67335 0
M  V30 12592 O 1158.98 -0.357934 1.98194 0
M  V30 12593 C 1156.04 -0.286297 3.45516 0
M  V30 12594 C 1155.1 0.672626 4.23998 0
M  V30 12595 C 1154.34 -0.0249345 5.33694 0
M  V30 12596 O 1154.56 -1.24296 5.56693 0
M  V30 12597 O 1153.49 0.650752 5.98372 0
M  V30 12598 H 1157.32 1.30546 2.74211 0
M  V30 12599 H 1154.9 0.70091 1.31938 0
M  V30 12600 H 1156.79 -0.699109 4.1556 0
M  V30 12601 H 1155.46 -1.12112 3.03665 0
M  V30 12602 H 1154.37 1.13527 3.56458 0
M  V30 12603 H 1155.7 1.47489 4.69583 0
M  V30 12604 N 1157.35 -1.41121 0.701616 0
M  V30 12605 C 1158.26 -2.34565 0.0407815 0
M  V30 12606 C 1159.28 -1.56555 -0.75937 0
M  V30 12607 O 1160.45 -1.89008 -0.695542 0
M  V30 12608 C 1157.52 -3.35347 -0.879954 0
M  V30 12609 C 1156.58 -4.29241 -0.0713279 0
M  V30 12610 C 1155.81 -5.25209 -0.948211 0
M  V30 12611 O 1156.04 -5.26781 -2.18766 0
M  V30 12612 O 1154.97 -6.00605 -0.394657 0
M  V30 12613 H 1158.8 -2.92666 0.811188 0
M  V30 12614 H 1156.38 -1.42077 0.461991 0
M  V30 12615 H 1158.26 -3.9719 -1.40776 0
M  V30 12616 H 1156.94 -2.7968 -1.62975 0
M  V30 12617 H 1155.85 -3.70727 0.50122 0
M  V30 12618 H 1157.18 -4.88022 0.639935 0
M  V30 12619 N 1158.83 -0.446794 -1.51134 0
M  V30 12620 C 1159.78 0.359865 -2.27977 0
M  V30 12621 C 1160.75 1.0086 -1.31972 0
M  V30 12622 O 1161.93 1.02569 -1.60886 0
M  V30 12623 C 1159.07 1.44978 -3.1317 0
M  V30 12624 C 1158.19 0.818243 -4.2418 0
M  V30 12625 C 1157.32 1.884 -4.96668 0
M  V30 12626 C 1156.36 1.2314 -5.99586 0
M  V30 12627 N 1155.5 2.23894 -6.65444 0
M  V30 12628 H 1160.34 -0.301775 -2.96468 0
M  V30 12629 H 1157.87 -0.160666 -1.4622 0
M  V30 12630 H 1159.83 2.09308 -3.60896 0
M  V30 12631 H 1158.46 2.08092 -2.46775 0
M  V30 12632 H 1157.51 0.0629889 -3.80348 0
M  V30 12633 H 1158.83 0.301885 -4.97886 0
M  V30 12634 H 1157.98 2.6037 -5.4799 0
M  V30 12635 H 1156.72 2.43411 -4.22614 0
M  V30 12636 H 1155.72 0.497215 -5.47547 0
M  V30 12637 H 1156.95 0.688505 -6.75601 0
M  V30 12638 H 1154.89 2.77967 -5.94197 0
M  V30 12639 H 1154.81 1.77176 -7.34945 0
M  V30 12640 H 1156.08 2.95318 -7.21393 0
M  V30 12641 N 1160.31 1.56586 -0.178487 0
M  V30 12642 C 1161.27 2.17091 0.73512 0
M  V30 12643 C 1162.27 1.12088 1.15295 0
M  V30 12644 O 1163.46 1.37563 1.06874 0
M  V30 12645 C 1160.59 2.75957 2.00151 0
M  V30 12646 H 1161.79 2.99176 0.208272 0
M  V30 12647 H 1159.34 1.56138 0.0710967 0
M  V30 12648 H 1160.07 1.97626 2.57127 0
M  V30 12649 H 1159.86 3.52809 1.7108 0
M  V30 12650 H 1161.35 3.2247 2.65335 0
M  V30 12651 N 1161.79 -0.095206 1.57312 0
M  V30 12652 C 1162.73 -1.13438 2.03063 0
M  V30 12653 C 1163.73 -1.41478 0.931679 0
M  V30 12654 O 1164.93 -1.41161 1.11686 0
M  V30 12655 H 1161.31 -0.383042 0.647134 0
M  V30 12656 H 1163.28 -0.722186 2.89529 0
M  V30 12657 C 1162.03 -2.44641 2.47075 0
M  V30 12658 H 1161.35 -2.23908 3.31218 0
M  V30 12659 H 1162.79 -3.15855 2.82863 0
M  V30 12660 C 1161.25 -3.08931 1.34399 0
M  V30 12661 O 1161.78 -3.96021 0.673071 0
M  V30 12662 N 1159.99 -2.6918 1.09501 0
M  V30 12663 H 1159.53 -1.98451 1.6424 0
M  V30 12664 H 1159.49 -3.12522 0.34311 0
M  V30 12665 N 1163.26 -1.53291 -0.366026 0
M  V30 12666 C 1164.21 -1.79697 -1.44836 0
M  V30 12667 C 1165.18 -0.641321 -1.5322 0
M  V30 12668 O 1166.37 -0.883453 -1.69115 0
M  V30 12669 C 1163.51 -1.99223 -2.81788 0
M  V30 12670 C 1162.62 -3.26938 -2.82375 0
M  V30 12671 C 1161.75 -3.36654 -4.10898 0
M  V30 12672 C 1160.79 -4.58404 -4.05626 0
M  V30 12673 N 1159.93 -4.65275 -5.25798 0
M  V30 12674 H 1164.77 -2.72053 -1.21619 0
M  V30 12675 H 1162.31 -1.34768 -0.589577 0
M  V30 12676 H 1164.27 -2.0853 -3.61346 0
M  V30 12677 H 1162.9 -1.10204 -3.03406 0
M  V30 12678 H 1161.95 -3.26587 -1.95052 0
M  V30 12679 H 1163.26 -4.16573 -2.74351 0
M  V30 12680 H 1162.41 -3.4527 -4.98872 0
M  V30 12681 H 1161.15 -2.45035 -4.21674 0
M  V30 12682 H 1160.16 -4.49888 -3.16039 0
M  V30 12683 H 1161.38 -5.51364 -3.96453 0
M  V30 12684 H 1159.33 -3.76557 -5.3716 0
M  V30 12685 H 1159.25 -5.48814 -5.19942 0
M  V30 12686 H 1160.51 -4.78175 -6.15605 0
M  V30 12687 N 1164.74 0.6258 -1.44643 0
M  V30 12688 C 1165.71 1.71941 -1.51555 0
M  V30 12689 C 1166.71 1.55822 -0.396988 0
M  V30 12690 O 1167.9 1.61221 -0.65981 0
M  V30 12691 C 1165.03 3.11068 -1.39461 0
M  V30 12692 H 1166.22 1.67185 -2.48976 0
M  V30 12693 H 1163.77 0.839934 -1.31814 0
M  V30 12694 H 1164.51 3.21416 -0.431534 0
M  V30 12695 H 1164.29 3.24175 -2.20574 0
M  V30 12696 H 1165.78 3.90762 -1.4729 0
M  V30 12697 N 1166.22 1.31629 0.866686 0
M  V30 12698 C 1167.15 1.13886 1.9775 0
M  V30 12699 C 1168.13 0.0414887 1.62547 0
M  V30 12700 O 1169.32 0.198534 1.87452 0
M  V30 12701 C 1166.44 0.740858 3.30498 0
M  V30 12702 C 1165.49 1.84175 3.84684 0
M  V30 12703 S 1166.32 3.44781 4.09739 0
M  V30 12704 C 1167.48 3.06925 5.45479 0
M  V30 12705 H 1167.71 2.07923 2.12497 0
M  V30 12706 H 1165.24 1.16152 1.01725 0
M  V30 12707 H 1167.2 0.517974 4.07219 0
M  V30 12708 H 1165.86 -0.18045 3.13581 0
M  V30 12709 H 1165.06 1.51597 4.8066 0
M  V30 12710 H 1164.66 2.01986 3.14766 0
M  V30 12711 H 1166.95 2.56022 6.27263 0
M  V30 12712 H 1167.89 4.01877 5.8301 0
M  V30 12713 H 1168.3 2.44276 5.0891 0
M  V30 12714 N 1167.7 -1.08142 1.14644 0
M  V30 12715 C 1168.95 -1.79959 0.910908 0
M  V30 12716 C 1169.26 -1.87296 -0.563866 0
M  V30 12717 O 1170.47 -2.55555 -0.916735 0
M  V30 12718 C 1168.92 -3.23351 1.58025 0
M  V30 12719 C 1168.53 -3.2424 3.09148 0
M  V30 12720 C 1170.28 -3.99834 1.42595 0
M  V30 12721 C 1168.18 -4.62236 3.68906 0
M  V30 12722 H 1167.11 -0.674423 0.33715 0
M  V30 12723 H 1169.76 -1.21441 1.37566 0
M  V30 12724 H 1168.15 -3.82013 1.04318 0
M  V30 12725 H 1169.32 -2.75269 3.69545 0
M  V30 12726 H 1167.63 -2.61253 3.24246 0
M  V30 12727 H 1170.23 -5.01809 1.8464 0
M  V30 12728 H 1170.57 -4.14631 0.372402 0
M  V30 12729 H 1171.11 -3.47648 1.93354 0
M  V30 12730 H 1167.85 -4.52642 4.74126 0
M  V30 12731 H 1167.37 -5.11477 3.1329 0
M  V30 12732 H 1169.05 -5.3121 3.69358 0
M  V30 12733 N 1169.18 -0.941978 -1.26351 0
M  V30 12734 C 1170.13 -0.443011 -2.28342 0
M  V30 12735 C 1171.12 0.48013 -1.62453 0
M  V30 12736 O 1172.33 0.358255 -1.76399 0
M  V30 12737 H 1168.7 -0.124728 -0.741584 0
M  V30 12738 H 1170.67 -1.31573 -2.67827 0
M  V30 12739 C 1169.42 0.275675 -3.46605 0
M  V30 12740 H 1168.74 -0.425504 -3.97529 0
M  V30 12741 H 1170.18 0.589012 -4.19889 0
M  V30 12742 C 1168.64 1.49376 -3.01974 0
M  V30 12743 O 1169.17 2.59203 -3.06883 0
M  V30 12744 N 1167.38 1.35061 -2.57307 0
M  V30 12745 H 1166.93 0.457045 -2.53513 0
M  V30 12746 H 1166.88 2.16681 -2.27809 0
M  V30 12747 N 1170.66 1.40747 -0.709091 0
M  V30 12748 C 1171.9 2.00233 -0.242836 0
M  V30 12749 C 1172.22 1.56853 1.1686 0
M  V30 12750 O 1173.42 2.08993 1.73304 0
M  V30 12751 C 1171.88 3.57854 -0.383241 0
M  V30 12752 C 1171.49 4.10209 -1.80091 0
M  V30 12753 C 1173.23 4.24494 0.0225511 0
M  V30 12754 C 1171.14 5.60311 -1.89225 0
M  V30 12755 H 1170.07 0.74896 -0.087034 0
M  V30 12756 H 1172.72 1.61064 -0.879243 0
M  V30 12757 H 1171.1 3.94692 0.321642 0
M  V30 12758 H 1172.28 3.84762 -2.53564 0
M  V30 12759 H 1170.59 3.56142 -2.15758 0
M  V30 12760 H 1173.19 5.34694 -0.0250644 0
M  V30 12761 H 1173.53 4.02488 1.06344 0
M  V30 12762 H 1174.06 3.92739 -0.632541 0
M  V30 12763 H 1170.8 5.87162 -2.91412 0
M  V30 12764 H 1170.32 5.87642 -1.20154 0
M  V30 12765 H 1172 6.25306 -1.66136 0
M  V30 12766 N 1172.13 0.454803 1.50895 0
M  V30 12767 C 1173.08 -0.361974 2.29766 0
M  V30 12768 C 1174.08 -1.00519 1.36353 0
M  V30 12769 O 1175.28 -0.938159 1.53618 0
M  V30 12770 H 1171.66 -0.135559 0.739681 0
M  V30 12771 H 1173.63 0.323853 2.96637 0
M  V30 12772 C 1172.38 -1.44078 3.16444 0
M  V30 12773 H 1171.7 -0.955212 3.88221 0
M  V30 12774 H 1173.14 -1.98518 3.74655 0
M  V30 12775 C 1171.6 -2.43374 2.32961 0
M  V30 12776 O 1172.13 -3.48295 2.00133 0
M  V30 12777 N 1170.33 -2.14689 1.95849 0
M  V30 12778 H 1169.88 -1.29392 2.22745 0
M  V30 12779 H 1169.84 -2.81363 1.40292 0
M  V30 12780 N 1173.61 -1.56489 0.186789 0
M  V30 12781 C 1174.86 -1.96517 -0.45433 0
M  V30 12782 C 1175.17 -1.07618 -1.63333 0
M  V30 12783 O 1176.38 -1.37392 -2.3417 0
M  V30 12784 C 1174.84 -3.49482 -0.859685 0
M  V30 12785 C 1174.44 -4.47031 0.294572 0
M  V30 12786 C 1176.19 -3.98296 -1.46835 0
M  V30 12787 C 1174.09 -5.91254 -0.131279 0
M  V30 12788 H 1173.02 -0.733765 -0.17351 0
M  V30 12789 H 1175.68 -1.8139 0.277485 0
M  V30 12790 H 1174.06 -3.60082 -1.64793 0
M  V30 12791 H 1175.23 -4.48156 1.07205 0
M  V30 12792 H 1173.55 -4.08362 0.814197 0
M  V30 12793 H 1176.14 -5.03518 -1.79928 0
M  V30 12794 H 1176.49 -3.42123 -2.37186 0
M  V30 12795 H 1177.02 -3.90776 -0.744247 0
M  V30 12796 H 1173.76 -6.51334 0.737839 0
M  V30 12797 H 1173.28 -5.93401 -0.873786 0
M  V30 12798 H 1174.96 -6.44485 -0.569913 0
M  V30 12799 N 1175.09 0.086862 -1.5736 0
M  V30 12800 C 1176.34 0.78884 -1.86504 0
M  V30 12801 C 1176.66 1.78329 -0.77646 0
M  V30 12802 O 1175.92 1.94354 0.229122 0
M  V30 12803 C 1176.22 1.54537 -3.22263 0
M  V30 12804 C 1175.88 0.692284 -4.45554 0
M  V30 12805 C 1174.55 0.45714 -4.79024 0
M  V30 12806 C 1176.9 0.0997695 -5.21105 0
M  V30 12807 C 1174.23 -0.380247 -5.85466 0
M  V30 12808 C 1176.58 -0.724986 -6.28432 0
M  V30 12809 C 1175.24 -0.970144 -6.60412 0
M  V30 12810 H 1174.51 0.288657 -0.682465 0
M  V30 12811 H 1177.16 0.050059 -1.91435 0
M  V30 12812 H 1175.46 2.35594 -3.13053 0
M  V30 12813 H 1177.16 2.09305 -3.42042 0
M  V30 12814 H 1173.75 0.885675 -4.19349 0
M  V30 12815 H 1177.94 0.268583 -4.95573 0
M  V30 12816 H 1173.19 -0.579084 -6.08651 0
M  V30 12817 H 1177.37 -1.19093 -6.86141 0
M  V30 12818 H 1174.99 -1.6208 -7.42721 0
M  V30 12819 N 1176.57 1.53483 0.357892 0
M  V30 12820 C 1177.5 1.75257 1.46151 0
M  V30 12821 C 1178.48 0.601167 1.51079 0
M  V30 12822 O 1179.66 0.834661 1.69014 0
M  V30 12823 C 1176.79 1.8383 2.84472 0
M  V30 12824 C 1175.84 3.05866 2.97234 0
M  V30 12825 S 1176.67 4.65225 2.6519 0
M  V30 12826 C 1177.82 4.76657 4.05646 0
M  V30 12827 H 1178.06 2.6859 1.27462 0
M  V30 12828 H 1175.59 1.44169 0.552697 0
M  V30 12829 H 1177.55 1.89454 3.64167 0
M  V30 12830 H 1176.21 0.915345 3.00467 0
M  V30 12831 H 1175.4 3.08497 3.98555 0
M  V30 12832 H 1175 2.98393 2.25471 0
M  V30 12833 H 1177.3 4.57185 4.99988 0
M  V30 12834 H 1178.24 5.7873 4.08016 0
M  V30 12835 H 1178.65 4.05226 3.93004 0
M  V30 12836 N 1178.05 -0.61812 1.44973 0
M  V30 12837 C 1179.46 -0.937734 1.29146 0
M  V30 12838 C 1179.66 -2.00104 0.236749 0
M  V30 12839 O 1178.72 -2.49731 -0.372923 0
M  V30 12840 C 1180.03 -1.38865 2.66715 0
M  V30 12841 C 1181.58 -1.50343 2.74529 0
M  V30 12842 C 1182.05 -1.98814 4.12598 0
M  V30 12843 N 1183.54 -2.06064 4.14839 0
M  V30 12844 C 1184.28 -2.44768 5.18533 0
M  V30 12845 N 1183.78 -2.82516 6.32579 0
M  V30 12846 N 1185.57 -2.45016 5.05889 0
M  V30 12847 H 1177.72 0.084872 2.1223 0
M  V30 12848 H 1179.98 -0.0246744 0.947679 0
M  V30 12849 H 1179.69 -0.681583 3.45032 0
M  V30 12850 H 1179.56 -2.3572 2.94475 0
M  V30 12851 H 1181.95 -2.20144 1.96522 0
M  V30 12852 H 1182.03 -0.518297 2.50494 0
M  V30 12853 H 1181.67 -1.29604 4.91086 0
M  V30 12854 H 1181.6 -2.98223 4.34017 0
M  V30 12855 H 1184.1 -1.79525 3.32535 0
M  V30 12856 H 1184.41 -3.109 7.07504 0
M  V30 12857 H 1182.75 -2.80237 6.35997 0
M  V30 12858 H 1185.94 -2.14925 4.15842 0
M  V30 12859 H 1186.12 -2.74854 5.86821 0
M  V30 12860 N 1179.52 -1.32087 -0.859693 0
M  V30 12861 C 1180.43 -1.22587 -2.00024 0
M  V30 12862 C 1181.45 -0.140477 -1.73432 0
M  V30 12863 O 1182.63 -0.360213 -1.98153 0
M  V30 12864 C 1179.69 -0.944195 -3.33595 0
M  V30 12865 C 1178.75 -2.11752 -3.73443 0
M  V30 12866 C 1177.98 -1.84919 -5.0064 0
M  V30 12867 O 1178.21 -0.789299 -5.64913 0
M  V30 12868 O 1177.14 -2.70885 -5.37499 0
M  V30 12869 H 1180.97 -2.18457 -2.10974 0
M  V30 12870 H 1178.55 -1.11927 -0.989577 0
M  V30 12871 H 1180.43 -0.803389 -4.13671 0
M  V30 12872 H 1179.11 -0.0156083 -3.23696 0
M  V30 12873 H 1178.02 -2.31378 -2.93965 0
M  V30 12874 H 1179.35 -3.02872 -3.87981 0
M  V30 12875 N 1181 1.07532 -1.15215 0
M  V30 12876 C 1182.23 1.84356 -0.950139 0
M  V30 12877 C 1182.65 1.81429 0.496502 0
M  V30 12878 O 1182.01 1.20589 1.35381 0
M  V30 12879 C 1182.06 3.29425 -1.46669 0
M  V30 12880 O 1181.16 4.07008 -0.664674 0
M  V30 12881 H 1180.5 0.570921 -0.339036 0
M  V30 12882 H 1183.03 1.35665 -1.53154 0
M  V30 12883 H 1183.04 3.8026 -1.47873 0
M  V30 12884 H 1181.72 3.3087 -2.51988 0
M  V30 12885 H 1180.29 3.65841 -0.72211 0
M  V30 12886 N 1182.48 0.948665 1.2585 0
M  V30 12887 C 1183.71 0.616741 1.98018 0
M  V30 12888 C 1184.13 -0.803005 1.70098 0
M  V30 12889 O 1183.49 -1.54208 0.953392 0
M  V30 12890 C 1183.54 0.874429 3.49837 0
M  V30 12891 O 1182.64 -0.0497568 4.1237 0
M  V30 12892 H 1181.98 0.235112 0.620982 0
M  V30 12893 H 1184.51 1.27364 1.60124 0
M  V30 12894 H 1184.52 0.798309 4.00114 0
M  V30 12895 H 1183.2 1.90922 3.69488 0
M  V30 12896 H 1181.77 0.0780591 3.72818 0
M  V30 12897 N 1183.96 -1.40369 0.716545 0
M  V30 12898 C 1185.37 -1.54757 0.390202 0
M  V30 12899 C 1185.57 -1.68767 -1.10091 0
M  V30 12900 O 1184.63 -1.67779 -1.88697 0
M  V30 12901 C 1185.94 -2.77546 1.15709 0
M  V30 12902 C 1187.49 -2.91364 1.14349 0
M  V30 12903 C 1187.97 -4.17068 1.89256 0
M  V30 12904 N 1189.46 -4.2407 1.8633 0
M  V30 12905 C 1190.19 -5.20243 2.41112 0
M  V30 12906 N 1189.69 -6.22318 3.04454 0
M  V30 12907 N 1191.48 -5.12328 2.31249 0
M  V30 12908 H 1183.63 -1.29521 1.68339 0
M  V30 12909 H 1185.9 -0.626382 0.711582 0
M  V30 12910 H 1185.6 -2.73474 2.21144 0
M  V30 12911 H 1185.48 -3.69682 0.749347 0
M  V30 12912 H 1187.86 -2.94939 0.0973383 0
M  V30 12913 H 1187.94 -2.00344 1.59047 0
M  V30 12914 H 1187.59 -4.14255 2.93863 0
M  V30 12915 H 1187.52 -5.07099 1.41978 0
M  V30 12916 H 1190.01 -3.50944 1.40168 0
M  V30 12917 H 1190.32 -6.92129 3.43769 0
M  V30 12918 H 1188.67 -6.22759 3.08538 0
M  V30 12919 H 1191.86 -4.31514 1.8142 0
M  V30 12920 H 1192.03 -5.87107 2.74243 0
M  V30 12921 N 1185.44 -0.462799 -1.50652 0
M  V30 12922 C 1186.66 0.0952726 -2.07181 0
M  V30 12923 C 1187.09 1.33479 -1.32533 0
M  V30 12924 O 1186.44 1.77473 -0.370564 0
M  V30 12925 C 1186.49 0.370592 -3.58691 0
M  V30 12926 O 1185.6 1.4526 -3.85971 0
M  V30 12927 H 1184.94 -0.00932702 -0.663934 0
M  V30 12928 H 1187.47 -0.651458 -1.93951 0
M  V30 12929 H 1187.48 0.613551 -4.0336 0
M  V30 12930 H 1186.15 -0.535219 -4.12442 0
M  V30 12931 H 1184.73 1.1976 -3.53146 0
M  V30 12932 N 1186.91 1.56388 -0.195085 0
M  V30 12933 C 1188.16 1.9758 0.443686 0
M  V30 12934 C 1188.49 1.08196 1.61629 0
M  V30 12935 O 1187.74 0.121061 1.95325 0
M  V30 12936 C 1188.04 3.44651 0.946051 0
M  V30 12937 C 1187.71 4.50758 -0.11318 0
M  V30 12938 C 1186.37 4.79499 -0.404229 0
M  V30 12939 C 1188.72 5.14534 -0.830899 0
M  V30 12940 C 1186.05 5.69307 -1.41797 0
M  V30 12941 C 1188.4 6.05438 -1.83379 0
M  V30 12942 C 1187.07 6.32535 -2.13204 0
M  V30 12943 H 1186.34 0.722995 0.162356 0
M  V30 12944 H 1188.98 1.8926 -0.292049 0
M  V30 12945 H 1187.29 3.50042 1.76006 0
M  V30 12946 H 1188.99 3.73878 1.44969 0
M  V30 12947 H 1185.58 4.28421 0.123833 0
M  V30 12948 H 1189.76 4.92421 -0.61927 0
M  V30 12949 H 1185.02 5.88575 -1.65496 0
M  V30 12950 H 1189.19 6.53915 -2.39516 0
M  V30 12951 H 1186.82 7.01924 -2.91902 0
M  V30 12952 N 1188.39 -0.0785156 1.57404 0
M  V30 12953 C 1189.32 -1.09446 2.06262 0
M  V30 12954 C 1190.3 -1.40777 0.954772 0
M  V30 12955 O 1191.49 -1.5052 1.22708 0
M  V30 12956 C 1188.62 -2.40979 2.50093 0
M  V30 12957 C 1187.57 -2.24017 3.64692 0
M  V30 12958 C 1186.9 -3.60873 3.94556 0
M  V30 12959 C 1188.2 -1.66696 4.94985 0
M  V30 12960 H 1189.89 -0.687928 2.9139 0
M  V30 12961 H 1187.44 -0.329466 1.4018 0
M  V30 12962 H 1189.39 -3.12337 2.82884 0
M  V30 12963 H 1188.12 -2.83599 1.61985 0
M  V30 12964 H 1186.77 -1.55101 3.32174 0
M  V30 12965 H 1186.42 -4.01051 3.0359 0
M  V30 12966 H 1186.12 -3.50365 4.71718 0
M  V30 12967 H 1187.65 -4.33673 4.29837 0
M  V30 12968 H 1189.06 -2.27913 5.2605 0
M  V30 12969 H 1187.46 -1.66902 5.76423 0
M  V30 12970 H 1188.53 -0.627827 4.80818 0
M  V30 12971 N 1189.87 -1.5367 -0.349747 0
M  V30 12972 C 1191.12 -1.7087 -1.0923 0
M  V30 12973 C 1191.45 -0.467299 -1.88494 0
M  V30 12974 O 1190.72 0.535619 -1.8698 0
M  V30 12975 C 1191.01 -2.9684 -2.03858 0
M  V30 12976 C 1190.86 -4.31174 -1.28097 0
M  V30 12977 C 1192.18 -3.18459 -3.03763 0
M  V30 12978 H 1189.3 -0.621757 -0.395711 0
M  V30 12979 H 1191.94 -1.86333 -0.371481 0
M  V30 12980 H 1190.09 -2.83788 -2.65323 0
M  V30 12981 H 1191.76 -4.56066 -0.692933 0
M  V30 12982 H 1190.01 -4.29866 -0.582924 0
M  V30 12983 H 1190.68 -5.15482 -1.9744 0
M  V30 12984 H 1193.15 -3.30801 -2.52409 0
M  V30 12985 H 1192.03 -4.08006 -3.67182 0
M  V30 12986 H 1192.29 -2.34467 -3.74803 0
M  V30 12987 N 1191.35 0.610423 -1.45298 0
M  V30 12988 C 1192.3 1.74245 -1.54083 0
M  V30 12989 C 1193.29 1.64338 -0.411003 0
M  V30 12990 O 1194.5 1.70167 -0.586799 0
M  V30 12991 H 1190.87 0.575612 -0.483916 0
M  V30 12992 H 1192.84 1.63961 -2.49318 0
M  V30 12993 C 1191.59 3.1262 -1.52198 0
M  V30 12994 H 1190.91 3.209 -2.3846 0
M  V30 12995 H 1192.35 3.91665 -1.62403 0
M  V30 12996 C 1190.81 3.36001 -0.24595 0
M  V30 12997 O 1191.34 3.95982 0.675374 0
M  V30 12998 N 1189.55 2.9025 -0.142537 0
M  V30 12999 H 1189.1 2.41621 -0.893143 0
M  V30 13000 H 1189.05 3.06268 0.710427 0
M  V30 13001 N 1192.83 1.32541 0.852676 0
M  V30 13002 C 1193.76 1.17471 1.96807 0
M  V30 13003 C 1194.77 0.109198 1.62433 0
M  V30 13004 O 1195.96 0.358342 1.74866 0
M  V30 13005 C 1193.06 0.776328 3.29888 0
M  V30 13006 C 1192.23 1.93055 3.9249 0
M  V30 13007 C 1191.29 1.51539 5.03907 0
M  V30 13008 O 1190.32 2.22771 5.23796 0
M  V30 13009 N 1191.52 0.412533 5.79032 0
M  V30 13010 H 1194.29 2.13551 2.10276 0
M  V30 13011 H 1191.85 1.25104 1.02764 0
M  V30 13012 H 1193.84 0.48096 4.01832 0
M  V30 13013 H 1192.41 -0.0933749 3.12461 0
M  V30 13014 H 1191.63 2.39231 3.13309 0
M  V30 13015 H 1192.92 2.70321 4.3105 0
M  V30 13016 H 1192.31 -0.180286 5.65413 0
M  V30 13017 H 1190.87 0.17678 6.5156 0
M  V30 13018 N 1194.3 -1.0692 1.15784 0
M  V30 13019 C 1195.24 -2.13637 0.802141 0
M  V30 13020 C 1196.22 -1.61058 -0.223384 0
M  V30 13021 O 1197.4 -1.88185 -0.108927 0
M  V30 13022 C 1194.53 -3.38146 0.193568 0
M  V30 13023 C 1193.57 -4.09513 1.19169 0
M  V30 13024 S 1194.41 -4.60351 2.73564 0
M  V30 13025 C 1195.56 -5.88129 2.14138 0
M  V30 13026 H 1195.79 -2.4348 1.70601 0
M  V30 13027 H 1193.33 -1.19259 0.980646 0
M  V30 13028 H 1195.29 -4.10222 -0.151106 0
M  V30 13029 H 1193.95 -3.06473 -0.687968 0
M  V30 13030 H 1193.14 -4.98914 0.714183 0
M  V30 13031 H 1192.74 -3.43422 1.48113 0
M  V30 13032 H 1195.03 -6.60547 1.50614 0
M  V30 13033 H 1195.98 -6.406 3.01724 0
M  V30 13034 H 1196.38 -5.41859 1.5827 0
M  V30 13035 N 1195.78 -0.955326 -1.25345 0
M  V30 13036 C 1197.03 -0.606149 -1.92377 0
M  V30 13037 C 1197.34 0.860927 -1.75634 0
M  V30 13038 O 1198.55 1.3201 -2.37246 0
M  V30 13039 C 1197.01 -1.03341 -3.44744 0
M  V30 13040 C 1196.61 -2.52308 -3.70196 0
M  V30 13041 C 1198.36 -0.756797 -4.17699 0
M  V30 13042 C 1196.27 -2.88831 -5.16072 0
M  V30 13043 H 1195.2 -0.222994 -0.720271 0
M  V30 13044 H 1197.85 -1.15987 -1.42194 0
M  V30 13045 H 1196.23 -0.408096 -3.93892 0
M  V30 13046 H 1197.4 -3.19864 -3.31698 0
M  V30 13047 H 1195.72 -2.77448 -3.10502 0
M  V30 13048 H 1198.31 -1.00583 -5.25154 0
M  V30 13049 H 1198.66 0.306794 -4.15168 0
M  V30 13050 H 1199.19 -1.34249 -3.74462 0
M  V30 13051 H 1195.93 -3.9421 -5.23716 0
M  V30 13052 H 1195.45 -2.25948 -5.55614 0
M  V30 13053 H 1197.13 -2.78061 -5.84201 0
M  V30 13054 N 1197.26 1.39987 -0.723979 0
M  V30 13055 C 1198.21 2.32507 -0.0658033 0
M  V30 13056 C 1199.2 1.52484 0.737908 0
M  V30 13057 O 1200.41 1.68225 0.640332 0
M  V30 13058 H 1196.78 0.751996 -0.00247717 0
M  V30 13059 H 1198.76 2.85657 -0.862696 0
M  V30 13060 C 1197.5 3.37509 0.835628 0
M  V30 13061 H 1196.83 3.99157 0.226589 0
M  V30 13062 H 1198.27 4.04722 1.26396 0
M  V30 13063 C 1196.73 2.73665 1.96492 0
M  V30 13064 O 1197.26 2.60649 3.05655 0
M  V30 13065 N 1195.46 2.3192 1.75104 0
M  V30 13066 H 1195.01 2.42707 0.863204 0
M  V30 13067 H 1194.97 1.89542 2.50841 0
M  V30 13068 N 1198.74 0.470782 1.50404 0
M  V30 13069 C 1199.65 -0.328877 2.32283 0
M  V30 13070 C 1200.67 -0.99629 1.42654 0
M  V30 13071 O 1201.84 -0.984331 1.75707 0
M  V30 13072 C 1198.91 -1.39675 3.1732 0
M  V30 13073 C 1197.97 -0.745965 4.22769 0
M  V30 13074 C 1197.2 -1.76295 5.03742 0
M  V30 13075 O 1197.42 -2.98943 4.85788 0
M  V30 13076 O 1196.36 -1.33495 5.86909 0
M  V30 13077 H 1200.18 0.340491 3.01785 0
M  V30 13078 H 1197.77 0.232637 1.47578 0
M  V30 13079 H 1199.65 -2.0153 3.70086 0
M  V30 13080 H 1198.33 -2.04959 2.50546 0
M  V30 13081 H 1197.23 -0.0884647 3.73995 0
M  V30 13082 H 1198.57 -0.136074 4.92012 0
M  V30 13083 N 1200.22 -1.56282 0.203376 0
M  V30 13084 C 1201.18 -2.18233 -0.700489 0
M  V30 13085 C 1202.18 -1.13908 -1.13497 0
M  V30 13086 O 1203.37 -1.39246 -1.04672 0
M  V30 13087 C 1200.5 -2.79107 -1.95735 0
M  V30 13088 H 1201.7 -2.99469 -0.160649 0
M  V30 13089 H 1199.25 -1.56232 -0.0462475 0
M  V30 13090 H 1199.98 -2.01691 -2.53951 0
M  V30 13091 H 1199.77 -3.55486 -1.65446 0
M  V30 13092 H 1201.26 -3.2665 -2.60172 0
M  V30 13093 N 1201.7 0.070167 -1.57444 0
M  V30 13094 C 1202.64 1.08322 -2.03801 0
M  V30 13095 C 1203.61 1.38364 -0.918946 0
M  V30 13096 O 1204.8 1.49404 -1.18672 0
M  V30 13097 C 1201.94 2.39128 -2.48821 0
M  V30 13098 C 1201.05 2.15603 -3.74352 0
M  V30 13099 C 1200.19 3.39984 -4.08148 0
M  V30 13100 C 1199.22 3.1183 -5.26715 0
M  V30 13101 N 1198.36 4.28546 -5.56141 0
M  V30 13102 H 1203.2 0.680931 -2.90116 0
M  V30 13103 H 1200.74 0.324657 -1.43473 0
M  V30 13104 H 1202.7 3.15501 -2.72975 0
M  V30 13105 H 1201.33 2.77157 -1.65481 0
M  V30 13106 H 1200.38 1.29915 -3.57528 0
M  V30 13107 H 1201.69 1.90808 -4.60862 0
M  V30 13108 H 1200.84 4.2475 -4.33211 0
M  V30 13109 H 1199.58 3.67856 -3.20208 0
M  V30 13110 H 1198.59 2.2546 -5.01446 0
M  V30 13111 H 1199.81 2.85278 -6.16273 0
M  V30 13112 H 1197.76 4.56447 -4.71161 0
M  V30 13113 H 1197.68 4.0703 -6.37073 0
M  V30 13114 H 1198.94 5.14305 -5.85757 0
M  V30 13115 N 1203.17 1.53854 0.341593 0
M  V30 13116 C 1204.12 1.81979 1.41959 0
M  V30 13117 C 1205.09 0.665616 1.5218 0
M  V30 13118 O 1206.28 0.910246 1.67688 0
M  V30 13119 C 1203.42 2.03681 2.78583 0
M  V30 13120 C 1202.53 3.31389 2.77137 0
M  V30 13121 C 1201.66 3.43148 4.05491 0
M  V30 13122 C 1200.7 4.64799 3.98282 0
M  V30 13123 N 1199.84 4.73581 5.18329 0
M  V30 13124 H 1204.68 2.73953 1.17275 0
M  V30 13125 H 1202.22 1.35689 0.568062 0
M  V30 13126 H 1204.17 2.14253 3.57983 0
M  V30 13127 H 1202.8 1.15017 3.01614 0
M  V30 13128 H 1201.86 3.29649 1.89832 0
M  V30 13129 H 1203.17 4.20885 2.67689 0
M  V30 13130 H 1202.32 3.53163 4.93316 0
M  V30 13131 H 1201.06 2.51712 4.17723 0
M  V30 13132 H 1200.07 4.54859 3.08842 0
M  V30 13133 H 1201.29 5.57601 3.87631 0
M  V30 13134 H 1199.24 3.85055 5.31102 0
M  V30 13135 H 1199.15 5.57016 5.11145 0
M  V30 13136 H 1200.42 4.87908 6.0792 0
M  V30 13137 N 1204.65 -0.602709 1.4562 0
M  V30 13138 C 1205.58 -1.7271 1.50678 0
M  V30 13139 C 1206.6 -1.57884 0.397048 0
M  V30 13140 O 1207.79 -1.65676 0.664367 0
M  V30 13141 C 1204.89 -3.10762 1.35204 0
M  V30 13142 C 1204.06 -3.51782 2.59939 0
M  V30 13143 C 1203.12 -4.68816 2.38952 0
M  V30 13144 O 1202.14 -4.75686 3.12588 0
M  V30 13145 N 1203.35 -5.624 1.43827 0
M  V30 13146 H 1206.11 -1.68833 2.47619 0
M  V30 13147 H 1203.67 -0.788131 1.41422 0
M  V30 13148 H 1205.66 -3.86819 1.18967 0
M  V30 13149 H 1204.23 -3.09119 0.465203 0
M  V30 13150 H 1203.45 -2.65637 2.91257 0
M  V30 13151 H 1204.74 -3.75948 3.42842 0
M  V30 13152 H 1204.14 -5.59568 0.830669 0
M  V30 13153 H 1202.7 -6.37969 1.33561 0
M  V30 13154 N 1206.13 -1.32992 -0.845635 0
M  V30 13155 C 1207.06 -1.25301 -1.97033 0
M  V30 13156 C 1208.04 -0.134966 -1.69564 0
M  V30 13157 O 1209.23 -0.323629 -1.91484 0
M  V30 13158 C 1206.36 -0.984551 -3.33052 0
M  V30 13159 C 1205.31 -2.06481 -3.749 0
M  V30 13160 C 1204.64 -1.6486 -5.08651 0
M  V30 13161 C 1205.94 -3.48083 -3.89404 0
M  V30 13162 H 1207.63 -2.194 -2.03725 0
M  V30 13163 H 1205.18 -1.05621 -0.978783 0
M  V30 13164 H 1207.13 -0.917269 -4.11296 0
M  V30 13165 H 1205.85 -0.00793116 -3.26599 0
M  V30 13166 H 1204.51 -2.1224 -2.98915 0
M  V30 13167 H 1204.16 -0.659183 -4.98662 0
M  V30 13168 H 1203.86 -2.37145 -5.37621 0
M  V30 13169 H 1205.38 -1.59585 -5.89377 0
M  V30 13170 H 1206.8 -3.44863 -4.57976 0
M  V30 13171 H 1205.19 -4.18796 -4.29802 0
M  V30 13172 H 1206.26 -3.87084 -2.92051 0
M  V30 13173 N 1207.61 1.06304 -1.1635 0
M  V30 13174 C 1208.54 2.15745 -0.893103 0
M  V30 13175 C 1209.52 1.69341 0.160531 0
M  V30 13176 O 1210.7 1.94196 0.0126526 0
M  V30 13177 C 1207.83 3.45066 -0.393287 0
M  V30 13178 C 1206.79 4.04978 -1.38482 0
M  V30 13179 C 1206.11 5.29507 -0.743409 0
M  V30 13180 C 1207.41 4.4377 -2.75438 0
M  V30 13181 H 1209.11 2.38622 -1.80831 0
M  V30 13182 H 1206.65 1.14681 -0.870878 0
M  V30 13183 H 1208.61 4.20964 -0.191607 0
M  V30 13184 H 1207.33 3.21808 0.557426 0
M  V30 13185 H 1205.99 3.31136 -1.57304 0
M  V30 13186 H 1205.64 5.02545 0.213787 0
M  V30 13187 H 1205.34 5.7055 -1.40521 0
M  V30 13188 H 1206.86 6.08102 -0.551746 0
M  V30 13189 H 1208.28 5.1075 -2.60398 0
M  V30 13190 H 1206.67 4.95797 -3.38091 0
M  V30 13191 H 1207.74 3.54636 -3.30699 0
M  V30 13192 N 1209.09 0.96196 1.24836 0
M  V30 13193 C 1210 0.494876 2.29321 0
M  V30 13194 C 1211.01 -0.441363 1.68309 0
M  V30 13195 O 1212.19 -0.315814 1.98908 0
M  V30 13196 C 1209.25 -0.212944 3.46045 0
M  V30 13197 C 1208.31 0.762411 4.22476 0
M  V30 13198 C 1207.55 0.0882756 5.33627 0
M  V30 13199 O 1207.77 -1.12459 5.59204 0
M  V30 13200 O 1206.7 0.777529 5.96857 0
M  V30 13201 H 1210.53 1.36333 2.7138 0
M  V30 13202 H 1208.11 0.728738 1.30421 0
M  V30 13203 H 1210 -0.610805 4.1695 0
M  V30 13204 H 1208.67 -1.05645 3.05975 0
M  V30 13205 H 1207.58 1.21062 3.5397 0
M  V30 13206 H 1208.91 1.57416 4.66349 0
M  V30 13207 N 1210.56 -1.39601 0.731392 0
M  V30 13208 C 1211.81 -2.00586 0.277756 0
M  V30 13209 C 1212.14 -1.58027 -1.13391 0
M  V30 13210 O 1211.39 -0.798691 -1.7866 0
M  V30 13211 C 1211.69 -3.55934 0.323352 0
M  V30 13212 C 1211.36 -4.18131 1.68753 0
M  V30 13213 C 1210.02 -4.34833 2.06092 0
M  V30 13214 C 1212.37 -4.5267 2.58339 0
M  V30 13215 C 1209.7 -4.83362 3.32532 0
M  V30 13216 C 1212.05 -5.02607 3.84148 0
M  V30 13217 C 1210.72 -5.17517 4.21584 0
M  V30 13218 H 1209.99 -0.733996 0.101638 0
M  V30 13219 H 1212.63 -1.66981 0.937528 0
M  V30 13220 H 1210.94 -3.89542 -0.419995 0
M  V30 13221 H 1212.64 -4.00974 -0.0457235 0
M  V30 13222 H 1209.23 -4.0553 1.38722 0
M  V30 13223 H 1213.41 -4.39388 2.30763 0
M  V30 13224 H 1208.67 -4.93091 3.61485 0
M  V30 13225 H 1212.84 -5.28306 4.53724 0
M  V30 13226 H 1210.47 -5.54882 5.19625 0
M  V30 13227 N 1212.04 -0.478751 -1.50152 0
M  V30 13228 C 1213.32 0.135533 -1.9513 0
M  V30 13229 C 1213.7 1.56253 -1.41944 0
M  V30 13230 O 1213.05 2.19824 -0.623673 0
M  V30 13231 C 1213.26 0.0710037 -3.48928 0
M  V30 13232 C 1214.61 0.256075 -4.23827 0
M  V30 13233 O 1215.63 0.147234 -3.55896 0
M  V30 13234 O 1214.49 0.476741 -5.44417 0
M  V30 13235 H 1211.58 0.107491 -0.819985 0
M  V30 13236 H 1214.13 -0.539701 -1.60889 0
M  V30 13237 H 1212.9 -0.925012 -3.80209 0
M  V30 13238 H 1212.52 0.787362 -3.89726 0
M  V30 13239 N 1213.52 1.56172 -0.211661 0
M  V30 13240 C 1214.75 2.02428 0.427843 0
M  V30 13241 C 1215.16 1.09162 1.54043 0
M  V30 13242 O 1214.52 0.0994249 1.82229 0
M  V30 13243 C 1214.57 3.48279 0.968728 0
M  V30 13244 O 1214.29 4.37987 -0.0994841 0
M  V30 13245 C 1215.79 4.10132 1.68246 0
M  V30 13246 H 1213.01 0.662611 0.10577 0
M  V30 13247 H 1215.56 2.01897 -0.32522 0
M  V30 13248 H 1213.71 3.49456 1.6721 0
M  V30 13249 H 1214.13 5.23609 0.305558 0
M  V30 13250 H 1215.6 5.13985 2.01304 0
M  V30 13251 H 1216.08 3.54552 2.5921 0
M  V30 13252 H 1216.68 4.12775 1.02453 0
M  V30 13253 N 1215 -0.0618163 1.57479 0
M  V30 13254 C 1215.93 -1.09931 2.01116 0
M  V30 13255 C 1216.94 -1.34405 0.91865 0
M  V30 13256 O 1218.13 -1.32469 1.19642 0
M  V30 13257 C 1215.23 -2.44814 2.34349 0
M  V30 13258 C 1214.41 -2.40157 3.65573 0
M  V30 13259 C 1213.46 -3.57226 3.86363 0
M  V30 13260 O 1212.49 -3.38202 4.5783 0
M  V30 13261 N 1213.69 -4.77937 3.2948 0
M  V30 13262 H 1216.46 -0.727621 2.90733 0
M  V30 13263 H 1214.02 -0.250315 1.59953 0
M  V30 13264 H 1216.01 -3.21792 2.45422 0
M  V30 13265 H 1214.58 -2.73947 1.50571 0
M  V30 13266 H 1213.8 -1.48496 3.65161 0
M  V30 13267 H 1215.09 -2.34156 4.51717 0
M  V30 13268 H 1214.49 -4.96296 2.7149 0
M  V30 13269 H 1213.04 -5.52392 3.45986 0
M  V30 13270 N 1216.48 -1.54033 -0.333429 0
M  V30 13271 C 1217.7 -1.76031 -1.09672 0
M  V30 13272 C 1218.13 -0.502844 -1.81254 0
M  V30 13273 O 1217.48 0.54509 -1.72912 0
M  V30 13274 C 1217.53 -2.947 -2.07809 0
M  V30 13275 O 1216.64 -2.65555 -3.15522 0
M  V30 13276 H 1215.98 -0.583611 -0.316692 0
M  V30 13277 H 1218.51 -2.01026 -0.380732 0
M  V30 13278 H 1218.52 -3.21771 -2.50853 0
M  V30 13279 H 1217.19 -3.85895 -1.55106 0
M  V30 13280 H 1215.77 -2.49403 -2.77223 0
M  V30 13281 N 1217.95 0.594978 -1.45938 0
M  V30 13282 C 1218.9 1.70489 -1.5557 0
M  V30 13283 C 1219.87 1.61193 -0.400751 0
M  V30 13284 O 1221.06 1.80587 -0.615882 0
M  V30 13285 C 1218.2 3.08817 -1.54033 0
M  V30 13286 C 1217.31 3.28827 -2.80173 0
M  V30 13287 C 1216.44 4.57333 -2.70222 0
M  V30 13288 C 1215.48 4.70644 -3.91357 0
M  V30 13289 N 1214.62 5.90463 -3.79865 0
M  V30 13290 H 1219.46 1.61593 -2.50383 0
M  V30 13291 H 1217 0.787747 -1.24229 0
M  V30 13292 H 1218.96 3.88865 -1.51129 0
M  V30 13293 H 1217.59 3.1664 -0.627617 0
M  V30 13294 H 1216.64 2.42467 -2.9311 0
M  V30 13295 H 1217.95 3.34534 -3.69985 0
M  V30 13296 H 1217.1 5.45593 -2.65354 0
M  V30 13297 H 1215.84 4.54045 -1.7803 0
M  V30 13298 H 1214.85 3.80805 -3.9657 0
M  V30 13299 H 1216.07 4.75721 -4.8463 0
M  V30 13300 H 1214.02 5.88196 -2.90451 0
M  V30 13301 H 1213.94 5.97385 -4.63322 0
M  V30 13302 H 1215.2 6.81187 -3.78952 0
M  V30 13303 N 1219.43 1.33438 0.838571 0
M  V30 13304 C 1220.38 1.23698 1.96981 0
M  V30 13305 C 1221.37 0.138299 1.68835 0
M  V30 13306 O 1222.58 0.302278 1.77444 0
M  V30 13307 H 1218.96 0.383874 0.646641 0
M  V30 13308 H 1220.93 2.19337 2.02321 0
M  V30 13309 C 1219.68 0.993362 3.33208 0
M  V30 13310 H 1219 1.83104 3.55405 0
M  V30 13311 H 1220.44 0.965517 4.1286 0
M  V30 13312 C 1218.9 -0.303701 3.35528 0
M  V30 13313 O 1219.43 -1.3103 3.79729 0
M  V30 13314 N 1217.63 -0.331342 2.88705 0
M  V30 13315 H 1217.18 0.488351 2.52929 0
M  V30 13316 H 1217.14 -1.199 2.9064 0
M  V30 13317 N 1220.91 -1.05686 1.16912 0
M  V30 13318 C 1222.16 -1.77987 0.948875 0
M  V30 13319 C 1222.47 -1.8845 -0.524011 0
M  V30 13320 O 1223.68 -2.57442 -0.862322 0
M  V30 13321 C 1222.13 -3.19927 1.64848 0
M  V30 13322 C 1221.74 -3.1761 3.15956 0
M  V30 13323 C 1223.49 -3.96719 1.51044 0
M  V30 13324 C 1221.39 -4.54307 3.78628 0
M  V30 13325 H 1220.32 -0.667119 0.35138 0
M  V30 13326 H 1222.97 -1.18496 1.40111 0
M  V30 13327 H 1221.36 -3.79714 1.12397 0
M  V30 13328 H 1222.53 -2.67369 3.75301 0
M  V30 13329 H 1220.85 -2.54317 3.29715 0
M  V30 13330 H 1223.44 -4.97779 1.95243 0
M  V30 13331 H 1223.79 -4.13748 0.460268 0
M  V30 13332 H 1224.32 -3.43468 2.00685 0
M  V30 13333 H 1221.06 -4.42484 4.8362 0
M  V30 13334 H 1220.58 -5.04717 3.24069 0
M  V30 13335 H 1222.26 -5.23255 3.80543 0
M  V30 13336 N 1222.39 -0.968567 -1.24324 0
M  V30 13337 C 1223.32 -0.518323 -2.27674 0
M  V30 13338 C 1224.3 0.442479 -1.64244 0
M  V30 13339 O 1225.48 0.338416 -1.91229 0
M  V30 13340 C 1222.61 0.191459 -3.46772 0
M  V30 13341 C 1221.57 -0.685449 -4.22476 0
M  V30 13342 C 1220.89 0.155873 -5.34473 0
M  V30 13343 C 1222.19 -1.97047 -4.83704 0
M  V30 13344 H 1223.89 -1.38215 -2.65588 0
M  V30 13345 H 1221.43 -0.66604 -1.27671 0
M  V30 13346 H 1223.39 0.517667 -4.18208 0
M  V30 13347 H 1222.11 1.08965 -3.07887 0
M  V30 13348 H 1220.77 -0.994942 -3.52841 0
M  V30 13349 H 1220.42 1.05424 -4.91828 0
M  V30 13350 H 1220.12 -0.427655 -5.86042 0
M  V30 13351 H 1221.64 0.476733 -6.08736 0
M  V30 13352 H 1223.06 -1.70979 -5.4721 0
M  V30 13353 H 1221.45 -2.50079 -5.45509 0
M  V30 13354 H 1222.52 -2.66484 -4.0511 0
M  V30 13355 N 1223.87 1.39211 -0.738786 0
M  V30 13356 C 1224.8 2.28145 -0.0499733 0
M  V30 13357 C 1225.78 1.44592 0.743776 0
M  V30 13358 O 1226.96 1.73978 0.725536 0
M  V30 13359 C 1224.09 3.255 0.93634 0
M  V30 13360 C 1223.13 4.25876 0.230621 0
M  V30 13361 S 1223.97 5.24942 -1.0581 0
M  V30 13362 C 1225.12 6.25856 -0.0744844 0
M  V30 13363 H 1225.36 2.86218 -0.804163 0
M  V30 13364 H 1222.89 1.44991 -0.53074 0
M  V30 13365 H 1224.85 3.82109 1.50011 0
M  V30 13366 H 1223.51 2.66439 1.66339 0
M  V30 13367 H 1222.7 4.94438 0.977075 0
M  V30 13368 H 1222.3 3.73087 -0.261216 0
M  V30 13369 H 1224.6 6.73172 0.764616 0
M  V30 13370 H 1225.54 7.04354 -0.727354 0
M  V30 13371 H 1225.95 5.63704 0.299605 0
M  V30 13372 N 1225.34 0.486708 1.49896 0
M  V30 13373 C 1226.28 -0.335809 2.26727 0
M  V30 13374 C 1227.29 -0.94333 1.32684 0
M  V30 13375 O 1228.48 -0.82909 1.58077 0
M  V30 13376 C 1225.58 -1.48642 3.04563 0
M  V30 13377 C 1224.75 -0.988837 4.26076 0
M  V30 13378 C 1223.81 -2.01535 4.86076 0
M  V30 13379 O 1222.84 -1.58966 5.46552 0
M  V30 13380 N 1224.04 -3.34471 4.74457 0
M  V30 13381 H 1226.8 0.322919 2.97955 0
M  V30 13382 H 1224.36 0.318403 1.58738 0
M  V30 13383 H 1226.36 -2.17039 3.41579 0
M  V30 13384 H 1224.93 -2.04956 2.36033 0
M  V30 13385 H 1224.15 -0.130232 3.93985 0
M  V30 13386 H 1225.43 -0.634562 5.04827 0
M  V30 13387 H 1224.83 -3.71755 4.26398 0
M  V30 13388 H 1223.39 -3.98621 5.15698 0
M  V30 13389 N 1226.82 -1.56058 0.219941 0
M  V30 13390 C 1228.05 -2.02358 -0.416497 0
M  V30 13391 C 1228.46 -1.09903 -1.54007 0
M  V30 13392 O 1227.8 -0.100635 -1.83424 0
M  V30 13393 C 1227.87 -3.45 -1.01072 0
M  V30 13394 C 1227.53 -4.56994 -0.0227891 0
M  V30 13395 C 1228.53 -5.14061 0.776997 0
M  V30 13396 C 1226.21 -5.02209 0.0954981 0
M  V30 13397 C 1228.21 -6.14813 1.68179 0
M  V30 13398 C 1225.89 -6.02799 1.00383 0
M  V30 13399 C 1226.89 -6.58977 1.79552 0
M  V30 13400 O 1226.58 -7.57608 2.68858 0
M  V30 13401 H 1226.31 -0.667581 -0.106355 0
M  V30 13402 H 1228.87 -2.02677 0.333348 0
M  V30 13403 H 1227.1 -3.41745 -1.80962 0
M  V30 13404 H 1228.78 -3.74958 -1.55439 0
M  V30 13405 H 1229.55 -4.79979 0.696053 0
M  V30 13406 H 1225.43 -4.58164 -0.510599 0
M  V30 13407 H 1228.97 -6.58588 2.30017 0
M  V30 13408 H 1224.87 -6.36302 1.08579 0
M  V30 13409 H 1225.64 -7.75124 2.62915 0
M  V30 13410 N 1228.3 0.053464 -1.57509 0
M  V30 13411 C 1229.55 0.748016 -1.87317 0
M  V30 13412 C 1229.86 1.77805 -0.815161 0
M  V30 13413 O 1231.07 2.52347 -1.00167 0
M  V30 13414 C 1229.53 1.38137 -3.32334 0
M  V30 13415 C 1229.13 0.388958 -4.46308 0
M  V30 13416 C 1230.88 2.05722 -3.7132 0
M  V30 13417 C 1228.78 1.02927 -5.82374 0
M  V30 13418 H 1227.71 0.283123 -0.698826 0
M  V30 13419 H 1230.37 0.00170723 -1.835 0
M  V30 13420 H 1228.75 2.17656 -3.3082 0
M  V30 13421 H 1229.92 -0.377752 -4.59249 0
M  V30 13422 H 1228.24 -0.183447 -4.15996 0
M  V30 13423 H 1230.83 2.54437 -4.70283 0
M  V30 13424 H 1231.18 2.86475 -3.02056 0
M  V30 13425 H 1231.71 1.3301 -3.74904 0
M  V30 13426 H 1228.45 0.261674 -6.54977 0
M  V30 13427 H 1227.97 1.7664 -5.732 0
M  V30 13428 H 1229.65 1.54378 -6.28312 0
M  V30 13429 N 1229.78 1.54207 0.325255 0
M  V30 13430 C 1230.73 1.83474 1.40021 0
M  V30 13431 C 1231.7 0.681719 1.51466 0
M  V30 13432 O 1232.88 0.92798 1.66713 0
M  V30 13433 C 1230.02 2.06624 2.76407 0
M  V30 13434 C 1229.13 3.3431 2.73607 0
M  V30 13435 C 1228.27 3.4743 4.01828 0
M  V30 13436 C 1227.31 4.68997 3.93329 0
M  V30 13437 N 1226.45 4.79052 5.13277 0
M  V30 13438 H 1231.29 2.75182 1.14363 0
M  V30 13439 H 1228.82 1.36284 0.553639 0
M  V30 13440 H 1230.78 2.18037 3.5569 0
M  V30 13441 H 1229.41 1.18209 3.00377 0
M  V30 13442 H 1228.46 3.31643 1.86324 0
M  V30 13443 H 1229.77 4.237 2.6321 0
M  V30 13444 H 1228.93 3.58376 4.89542 0
M  V30 13445 H 1227.67 2.56128 4.1503 0
M  V30 13446 H 1226.67 4.58109 3.04 0
M  V30 13447 H 1227.9 5.61681 3.81695 0
M  V30 13448 H 1225.84 3.90666 5.26988 0
M  V30 13449 H 1225.76 5.62406 5.05208 0
M  V30 13450 H 1227.03 4.94328 6.02711 0
M  V30 13451 N 1231.26 -0.58723 1.46251 0
M  V30 13452 C 1232.22 -1.67863 1.5606 0
M  V30 13453 C 1233.22 -1.54715 0.438162 0
M  V30 13454 O 1234.41 -1.59415 0.702323 0
M  V30 13455 C 1231.54 -3.07262 1.47659 0
M  V30 13456 H 1232.74 -1.60525 2.53321 0
M  V30 13457 H 1230.29 -0.804691 1.33994 0
M  V30 13458 H 1231.02 -3.20159 0.5166 0
M  V30 13459 H 1230.81 -3.18213 2.29092 0
M  V30 13460 H 1232.3 -3.8672 1.57599 0
M  V30 13461 N 1232.74 -1.33881 -0.831482 0
M  V30 13462 C 1233.68 -1.24741 -1.96322 0
M  V30 13463 C 1234.68 -0.147251 -1.68759 0
M  V30 13464 O 1235.88 -0.311684 -1.77281 0
M  V30 13465 H 1232.26 -0.387298 -0.644596 0
M  V30 13466 H 1234.23 -2.20407 -2.01155 0
M  V30 13467 C 1232.98 -1.01102 -3.32677 0
M  V30 13468 H 1232.3 -1.84986 -3.54429 0
M  V30 13469 H 1233.74 -0.987398 -4.12343 0
M  V30 13470 C 1232.2 0.285903 -3.35685 0
M  V30 13471 O 1232.73 1.29014 -3.80419 0
M  V30 13472 N 1230.94 0.316026 -2.88877 0
M  V30 13473 H 1230.48 -0.501758 -2.52666 0
M  V30 13474 H 1230.44 1.18357 -2.91271 0
M  V30 13475 N 1234.21 1.05064 -1.1747 0
M  V30 13476 C 1235.44 1.82299 -0.98903 0
M  V30 13477 C 1235.86 1.82441 0.457907 0
M  V30 13478 O 1235.22 1.23433 1.32793 0
M  V30 13479 C 1235.27 3.26239 -1.53624 0
M  V30 13480 O 1234.37 4.05507 -0.750857 0
M  V30 13481 H 1233.71 0.563601 -0.35107 0
M  V30 13482 H 1236.24 1.32386 -1.55997 0
M  V30 13483 H 1236.25 3.77038 -1.55906 0
M  V30 13484 H 1234.93 3.25451 -2.58949 0
M  V30 13485 H 1233.51 3.64227 -0.799548 0
M  V30 13486 N 1235.69 0.975146 1.23809 0
M  V30 13487 C 1236.64 0.510761 2.25077 0
M  V30 13488 C 1237.61 -0.447605 1.59955 0
M  V30 13489 O 1238.79 -0.356318 1.87443 0
M  V30 13490 C 1235.93 -0.185755 3.446 0
M  V30 13491 C 1235.05 0.812254 4.24295 0
M  V30 13492 C 1234.18 0.0910835 5.31122 0
M  V30 13493 C 1233.22 1.07866 6.02521 0
M  V30 13494 N 1232.36 0.386995 7.01033 0
M  V30 13495 H 1237.2 1.37913 2.64166 0
M  V30 13496 H 1234.73 0.691184 1.2985 0
M  V30 13497 H 1236.69 -0.606341 4.1277 0
M  V30 13498 H 1235.32 -1.01803 3.06327 0
M  V30 13499 H 1234.37 1.35125 3.55592 0
M  V30 13500 H 1235.69 1.56502 4.73612 0
M  V30 13501 H 1234.84 -0.387129 6.05464 0
M  V30 13502 H 1233.58 -0.694324 4.82732 0
M  V30 13503 H 1232.58 1.56767 5.26976 0
M  V30 13504 H 1233.81 1.86464 6.52999 0
M  V30 13505 H 1231.76 -0.3793 6.54903 0
M  V30 13506 H 1231.67 1.0785 7.48268 0
M  V30 13507 H 1232.94 -0.0690036 7.79469 0
M  V30 13508 N 1237.17 -1.38817 0.746158 0
M  V30 13509 C 1238.42 -2.0028 0.299016 0
M  V30 13510 C 1238.74 -1.59221 -1.11709 0
M  V30 13511 O 1238 -0.817595 -1.77803 0
M  V30 13512 C 1238.3 -3.55571 0.361086 0
M  V30 13513 C 1237.96 -4.16317 1.73179 0
M  V30 13514 C 1236.63 -4.32622 2.10693 0
M  V30 13515 C 1238.98 -4.49905 2.63126 0
M  V30 13516 C 1236.31 -4.79808 3.3764 0
M  V30 13517 C 1238.66 -4.98504 3.89457 0
M  V30 13518 C 1237.32 -5.13016 4.27049 0
M  V30 13519 H 1236.59 -0.732877 0.109418 0
M  V30 13520 H 1239.24 -1.65977 0.955186 0
M  V30 13521 H 1237.54 -3.89966 -0.378655 0
M  V30 13522 H 1239.24 -4.01 -0.00319228 0
M  V30 13523 H 1235.83 -4.04035 1.43015 0
M  V30 13524 H 1240.02 -4.36916 2.3541 0
M  V30 13525 H 1235.27 -4.89229 3.66695 0
M  V30 13526 H 1239.45 -5.23464 4.59302 0
M  V30 13527 H 1237.07 -5.4934 5.25481 0
M  V30 13528 N 1238.65 -0.49465 -1.49636 0
M  V30 13529 C 1239.9 0.0539277 -2.01628 0
M  V30 13530 C 1240.21 1.38634 -1.37986 0
M  V30 13531 O 1241.42 2.02123 -1.81269 0
M  V30 13532 C 1239.87 0.146582 -3.59601 0
M  V30 13533 C 1239.48 -1.1788 -4.32213 0
M  V30 13534 C 1241.22 0.645862 -4.19558 0
M  V30 13535 C 1239.13 -1.04866 -5.82028 0
M  V30 13536 H 1238.06 0.0239278 -0.75362 0
M  V30 13537 H 1240.71 -0.633112 -1.72232 0
M  V30 13538 H 1239.09 0.897931 -3.85685 0
M  V30 13539 H 1240.27 -1.94295 -4.17835 0
M  V30 13540 H 1238.58 -1.61102 -3.83973 0
M  V30 13541 H 1241.18 0.76064 -5.29262 0
M  V30 13542 H 1241.52 1.64313 -3.82501 0
M  V30 13543 H 1242.06 -0.04877 -3.9777 0
M  V30 13544 H 1238.79 -2.02 -6.23599 0
M  V30 13545 H 1238.31 -0.325293 -5.98917 0
M  V30 13546 H 1239.99 -0.724799 -6.42927 0
M  V30 13547 N 1240.13 1.55939 -0.228214 0
M  V30 13548 C 1241.37 1.98084 0.400884 0
M  V30 13549 C 1241.69 1.11727 1.59819 0
M  V30 13550 O 1240.96 0.195794 1.94919 0
M  V30 13551 H 1239.54 0.731558 0.151102 0
M  V30 13552 H 1242.21 1.92211 -0.322659 0
M  V30 13553 H 1241.3 3.03617 0.722706 0
M  V30 13554 N 1241.6 -0.0451101 1.57535 0
M  V30 13555 C 1242.85 -0.738072 1.87711 0
M  V30 13556 C 1243.17 -1.7737 0.824579 0
M  V30 13557 O 1244.37 -2.51812 1.01503 0
M  V30 13558 C 1242.83 -1.36373 3.33062 0
M  V30 13559 C 1242.44 -0.365283 4.46508 0
M  V30 13560 C 1244.18 -2.0375 3.72406 0
M  V30 13561 C 1242.09 -0.998371 5.82912 0
M  V30 13562 H 1241.02 -0.279413 0.700317 0
M  V30 13563 H 1243.67 0.00802425 1.83498 0
M  V30 13564 H 1242.05 -2.15899 3.31969 0
M  V30 13565 H 1243.22 0.402102 4.59042 0
M  V30 13566 H 1241.54 0.205505 4.15893 0
M  V30 13567 H 1244.14 -2.51939 4.71625 0
M  V30 13568 H 1244.48 -2.84869 3.03571 0
M  V30 13569 H 1245.01 -1.3102 3.75604 0
M  V30 13570 H 1241.75 -0.226935 6.55107 0
M  V30 13571 H 1241.27 -1.73598 5.74129 0
M  V30 13572 H 1242.95 -1.51044 6.29122 0
M  V30 13573 N 1243.08 -1.54377 -0.317073 0
M  V30 13574 C 1244.31 -1.76865 -1.07362 0
M  V30 13575 C 1244.73 -0.520354 -1.81488 0
M  V30 13576 O 1244.08 0.509213 -1.75252 0
M  V30 13577 C 1244.13 -2.96598 -2.06668 0
M  V30 13578 O 1243.85 -4.16602 -1.35552 0
M  V30 13579 C 1245.36 -3.31348 -2.94489 0
M  V30 13580 H 1242.58 -0.590277 -0.319083 0
M  V30 13581 H 1245.12 -2.01284 -0.361227 0
M  V30 13582 H 1243.27 -2.74433 -2.73432 0
M  V30 13583 H 1243.69 -4.83996 -2.02108 0
M  V30 13584 H 1245.16 -4.1841 -3.60051 0
M  V30 13585 H 1245.64 -2.48797 -3.61935 0
M  V30 13586 H 1246.25 -3.55614 -2.33278 0
M  V30 13587 N 1244.56 0.579466 -1.4656 0
M  V30 13588 C 1245.47 1.71609 -1.59961 0
M  V30 13589 C 1246.49 1.67162 -0.483002 0
M  V30 13590 O 1247.66 1.87012 -0.747561 0
M  V30 13591 C 1244.73 3.08114 -1.58954 0
M  V30 13592 C 1243.79 3.238 -2.81872 0
M  V30 13593 C 1243.02 4.53794 -2.80904 0
M  V30 13594 O 1243.24 5.37884 -1.89835 0
M  V30 13595 O 1242.18 4.72796 -3.72488 0
M  V30 13596 H 1246 1.6325 -2.56092 0
M  V30 13597 H 1243.59 0.746891 -1.2939 0
M  V30 13598 H 1245.47 3.8939 -1.611 0
M  V30 13599 H 1244.15 3.16903 -0.65984 0
M  V30 13600 H 1243.05 2.42006 -2.85279 0
M  V30 13601 H 1244.39 3.19904 -3.74062 0
M  V30 13602 N 1246.04 1.3432 0.824371 0
M  V30 13603 C 1246.97 1.2842 1.95014 0
M  V30 13604 C 1247.95 0.161925 1.69328 0
M  V30 13605 O 1249.13 0.354052 1.90945 0
M  V30 13606 C 1246.26 1.03741 3.31444 0
M  V30 13607 C 1245.22 2.12419 3.71567 0
M  V30 13608 C 1244.54 1.72931 5.05963 0
M  V30 13609 C 1245.84 3.54235 3.83817 0
M  V30 13610 H 1247.54 2.22614 2.00209 0
M  V30 13611 H 1245.08 1.07165 0.961856 0
M  V30 13612 H 1247.04 0.982586 4.09784 0
M  V30 13613 H 1245.76 0.0598892 3.26545 0
M  V30 13614 H 1244.42 2.16968 2.955 0
M  V30 13615 H 1244.07 0.738433 4.9755 0
M  V30 13616 H 1243.77 2.45668 5.3378 0
M  V30 13617 H 1245.29 1.68941 5.86763 0
M  V30 13618 H 1246.71 3.52106 4.52432 0
M  V30 13619 H 1245.1 4.25581 4.23085 0
M  V30 13620 H 1246.17 3.91682 2.85856 0
M  V30 13621 N 1247.52 -1.0444 1.18026 0
M  V30 13622 C 1248.46 -2.12365 0.903865 0
M  V30 13623 C 1249.43 -1.65373 -0.155252 0
M  V30 13624 O 1250.62 -1.90793 -0.016419 0
M  V30 13625 C 1247.76 -3.4239 0.431603 0
M  V30 13626 C 1246.87 -4.03016 1.55571 0
M  V30 13627 C 1246.01 -5.20988 1.03655 0
M  V30 13628 C 1245.05 -5.73636 2.1356 0
M  V30 13629 N 1244.18 -6.82901 1.63066 0
M  V30 13630 H 1249.02 -2.35346 1.82802 0
M  V30 13631 H 1246.56 -1.15447 0.911618 0
M  V30 13632 H 1248.52 -4.16967 0.139296 0
M  V30 13633 H 1247.15 -3.19569 -0.455576 0
M  V30 13634 H 1246.2 -3.25803 1.96358 0
M  V30 13635 H 1247.51 -4.38122 2.38434 0
M  V30 13636 H 1246.67 -6.02665 0.698546 0
M  V30 13637 H 1245.4 -4.87377 0.177457 0
M  V30 13638 H 1244.41 -4.90583 2.4821 0
M  V30 13639 H 1245.63 -6.09293 2.99899 0
M  V30 13640 H 1243.58 -6.51172 0.794394 0
M  V30 13641 H 1243.5 -7.1705 2.3953 0
M  V30 13642 H 1244.77 -7.68211 1.32181 0
M  V30 13643 N 1248.99 -0.981699 -1.2329 0
M  V30 13644 C 1249.94 -0.52269 -2.24803 0
M  V30 13645 C 1250.91 0.439116 -1.6019 0
M  V30 13646 O 1252.1 0.346372 -1.8763 0
M  V30 13647 C 1249.24 0.167477 -3.44693 0
M  V30 13648 C 1248.35 -0.834744 -4.23858 0
M  V30 13649 C 1247.48 -0.119249 -5.31066 0
M  V30 13650 C 1246.52 -1.1106 -6.0194 0
M  V30 13651 N 1245.66 -0.424167 -7.00818 0
M  V30 13652 H 1250.5 -1.39312 -2.63431 0
M  V30 13653 H 1248.04 -0.698061 -1.29482 0
M  V30 13654 H 1250 0.584442 -4.13086 0
M  V30 13655 H 1248.63 1.00177 -3.06862 0
M  V30 13656 H 1247.68 -1.37009 -3.5487 0
M  V30 13657 H 1248.99 -1.59012 -4.72776 0
M  V30 13658 H 1248.14 0.355015 -6.0566 0
M  V30 13659 H 1246.88 0.668714 -4.83094 0
M  V30 13660 H 1245.89 -1.5956 -5.26138 0
M  V30 13661 H 1247.11 -1.89924 -6.52001 0
M  V30 13662 H 1245.06 0.344564 -6.55094 0
M  V30 13663 H 1244.98 -1.11817 -7.47685 0
M  V30 13664 H 1246.24 0.0276655 -7.79495 0
M  V30 13665 N 1250.47 1.3842 -0.753509 0
M  V30 13666 C 1251.4 2.33073 -0.141198 0
M  V30 13667 C 1252.38 1.54863 0.70367 0
M  V30 13668 O 1253.57 1.8318 0.644872 0
M  V30 13669 C 1250.7 3.39043 0.752802 0
M  V30 13670 C 1249.65 4.27999 0.0106692 0
M  V30 13671 C 1248.98 5.24824 1.02291 0
M  V30 13672 C 1250.28 5.09308 -1.15768 0
M  V30 13673 H 1251.97 2.84528 -0.93188 0
M  V30 13674 H 1249.52 1.36802 -0.449567 0
M  V30 13675 H 1251.47 4.04224 1.19083 0
M  V30 13676 H 1250.2 2.8607 1.57581 0
M  V30 13677 H 1248.85 3.64323 -0.407939 0
M  V30 13678 H 1248.5 4.68139 1.83998 0
M  V30 13679 H 1248.2 5.85196 0.53101 0
M  V30 13680 H 1249.73 5.92882 1.46026 0
M  V30 13681 H 1251.14 5.6773 -0.797203 0
M  V30 13682 H 1249.54 5.78914 -1.58044 0
M  V30 13683 H 1250.61 4.43051 -1.97062 0
M  V30 13684 N 1251.95 0.502579 1.49372 0
M  V30 13685 C 1252.86 -0.279532 2.32929 0
M  V30 13686 C 1253.88 -0.965806 1.44735 0
M  V30 13687 O 1255.05 -0.946839 1.77755 0
M  V30 13688 C 1252.12 -1.32913 3.20211 0
M  V30 13689 C 1251.18 -0.656121 4.24256 0
M  V30 13690 C 1250.41 -1.65571 5.07368 0
M  V30 13691 O 1250.63 -2.88571 4.92019 0
M  V30 13692 O 1249.57 -1.21016 5.89609 0
M  V30 13693 H 1253.39 0.404427 3.00995 0
M  V30 13694 H 1250.98 0.263888 1.47051 0
M  V30 13695 H 1252.86 -1.93635 3.74277 0
M  V30 13696 H 1251.54 -1.99598 2.54837 0
M  V30 13697 H 1250.44 -0.00911489 3.74099 0
M  V30 13698 H 1251.78 -0.0316802 4.9219 0
M  V30 13699 N 1253.43 -1.55816 0.23648 0
M  V30 13700 C 1254.65 -2.03534 -0.398575 0
M  V30 13701 C 1255.08 -1.11488 -1.51499 0
M  V30 13702 O 1254.44 -0.105848 -1.80991 0
M  V30 13703 C 1254.48 -3.49356 -0.893467 0
M  V30 13704 O 1253.59 -3.60446 -2.00381 0
M  V30 13705 H 1252.93 -0.658102 -0.0883021 0
M  V30 13706 H 1255.46 -2.01417 0.359488 0
M  V30 13707 H 1255.47 -3.89972 -1.19941 0
M  V30 13708 H 1254.14 -4.1583 -0.0764388 0
M  V30 13709 H 1252.72 -3.31723 -1.70336 0
M  V30 13710 N 1254.91 0.036755 -1.57557 0
M  V30 13711 C 1255.85 1.03975 -2.06053 0
M  V30 13712 C 1256.82 1.36384 -0.948089 0
M  V30 13713 O 1258.01 1.46853 -1.21815 0
M  V30 13714 C 1255.15 2.33796 -2.53837 0
M  V30 13715 C 1254.26 2.07614 -3.78841 0
M  V30 13716 C 1253.4 3.3125 -4.15267 0
M  V30 13717 C 1252.44 3.00587 -5.33211 0
M  V30 13718 N 1251.57 4.16653 -5.65106 0
M  V30 13719 H 1256.41 0.61924 -2.91495 0
M  V30 13720 H 1253.95 0.294151 -1.44129 0
M  V30 13721 H 1255.91 3.09639 -2.79606 0
M  V30 13722 H 1254.54 2.73584 -1.71323 0
M  V30 13723 H 1253.59 1.22302 -3.60203 0
M  V30 13724 H 1254.9 1.80989 -4.64806 0
M  V30 13725 H 1254.06 4.15466 -4.42123 0
M  V30 13726 H 1252.79 3.60981 -3.27939 0
M  V30 13727 H 1251.8 2.14772 -5.06115 0
M  V30 13728 H 1253.02 2.72142 -6.22186 0
M  V30 13729 H 1250.97 4.4635 -4.80737 0
M  V30 13730 H 1250.89 3.93425 -6.45564 0
M  V30 13731 H 1252.16 5.01764 -5.96534 0
M  V30 13732 N 1256.39 1.54543 0.308881 0
M  V30 13733 C 1257.63 1.7266 1.04266 0
M  V30 13734 C 1257.95 0.51518 1.88694 0
M  V30 13735 O 1259.15 0.577988 2.65276 0
M  V30 13736 C 1257.61 3.05448 1.9034 0
M  V30 13737 C 1257.22 4.34043 1.10953 0
M  V30 13738 C 1258.96 3.32925 2.63365 0
M  V30 13739 C 1256.87 5.57886 1.96258 0
M  V30 13740 H 1255.8 0.643485 0.392992 0
M  V30 13741 H 1258.45 1.8103 0.300077 0
M  V30 13742 H 1256.83 2.91023 2.68555 0
M  V30 13743 H 1258.01 4.59279 0.374069 0
M  V30 13744 H 1256.32 4.13442 0.495453 0
M  V30 13745 H 1258.92 4.22649 3.27524 0
M  V30 13746 H 1259.26 2.51451 3.3178 0
M  V30 13747 H 1259.79 3.48285 1.92204 0
M  V30 13748 H 1256.53 6.42005 1.32326 0
M  V30 13749 H 1256.05 5.36847 2.67498 0
M  V30 13750 H 1257.73 5.94846 2.54494 0
M  V30 13751 N 1257.86 -0.571685 1.46866 0
M  V30 13752 C 1258.81 -1.70098 1.58649 0
M  V30 13753 C 1259.81 -1.63191 0.45443 0
M  V30 13754 O 1261.01 -1.68551 0.63171 0
M  V30 13755 H 1257.39 -0.56258 0.499007 0
M  V30 13756 H 1259.36 -1.57293 2.53577 0
M  V30 13757 C 1258.11 -3.08475 1.60433 0
M  V30 13758 H 1257.43 -3.14465 2.46884 0
M  V30 13759 H 1258.87 -3.87221 1.7273 0
M  V30 13760 C 1257.33 -3.35231 0.334948 0
M  V30 13761 O 1257.86 -3.97633 -0.570149 0
M  V30 13762 N 1256.06 -2.8977 0.219441 0
M  V30 13763 H 1255.61 -2.39168 0.956891 0
M  V30 13764 H 1255.57 -3.08044 -0.628975 0
M  V30 13765 N 1259.34 -1.34755 -0.817236 0
M  V30 13766 C 1260.29 -1.26801 -1.92848 0
M  V30 13767 C 1261.26 -0.142077 -1.65491 0
M  V30 13768 O 1262.44 -0.324006 -1.88029 0
M  V30 13769 C 1259.58 -1.03513 -3.2921 0
M  V30 13770 C 1258.7 -2.24932 -3.68822 0
M  V30 13771 C 1257.83 -1.94881 -4.94161 0
M  V30 13772 C 1256.87 -3.12411 -5.2637 0
M  V30 13773 N 1256.01 -2.82207 -6.42887 0
M  V30 13774 H 1260.85 -2.21832 -1.98983 0
M  V30 13775 H 1258.38 -1.10284 -0.973439 0
M  V30 13776 H 1260.34 -0.88047 -4.07803 0
M  V30 13777 H 1258.97 -0.121478 -3.22571 0
M  V30 13778 H 1258.02 -2.51299 -2.85575 0
M  V30 13779 H 1259.34 -3.12726 -3.88592 0
M  V30 13780 H 1258.49 -1.76184 -5.80555 0
M  V30 13781 H 1257.23 -1.04355 -4.76405 0
M  V30 13782 H 1256.23 -3.31698 -4.3847 0
M  V30 13783 H 1257.46 -4.03724 -5.46062 0
M  V30 13784 H 1255.41 -1.94263 -6.26576 0
M  V30 13785 H 1255.32 -3.63534 -6.62857 0
M  V30 13786 H 1256.59 -2.67026 -7.32337 0
M  V30 13787 N 1260.82 1.03812 -1.18578 0
M  V30 13788 C 1262.07 1.77319 -0.984173 0
M  V30 13789 C 1262.4 1.88052 0.484789 0
M  V30 13790 O 1261.67 1.3905 1.35998 0
M  V30 13791 C 1261.96 3.20448 -1.6427 0
M  V30 13792 C 1261.81 3.17643 -3.1847 0
M  V30 13793 C 1263.13 4.18623 -1.35805 0
M  V30 13794 H 1260.25 0.643681 -0.358949 0
M  V30 13795 H 1262.89 1.21249 -1.46283 0
M  V30 13796 H 1261.04 3.68324 -1.23572 0
M  V30 13797 H 1262.71 2.77738 -3.6832 0
M  V30 13798 H 1260.95 2.55606 -3.50497 0
M  V30 13799 H 1261.63 4.18724 -3.59686 0
M  V30 13800 H 1264.1 3.79306 -1.71073 0
M  V30 13801 H 1262.98 5.16982 -1.84446 0
M  V30 13802 H 1263.24 4.41203 -0.281418 0
M  V30 13803 N 1262.3 0.988223 1.22768 0
M  V30 13804 C 1263.54 0.661461 1.91392 0
M  V30 13805 C 1263.87 -0.805942 1.77016 0
M  V30 13806 O 1263.13 -1.5978 1.12999 0
M  V30 13807 C 1263.43 1.00744 3.42907 0
M  V30 13808 C 1263.09 2.46634 3.77469 0
M  V30 13809 C 1261.75 2.86503 3.86613 0
M  V30 13810 C 1264.11 3.41217 3.9398 0
M  V30 13811 C 1261.43 4.19954 4.09702 0
M  V30 13812 C 1263.79 4.74321 4.18572 0
M  V30 13813 C 1262.45 5.13938 4.25939 0
M  V30 13814 H 1261.72 0.242046 0.700353 0
M  V30 13815 H 1264.37 1.24354 1.45631 0
M  V30 13816 H 1262.67 0.34338 3.90292 0
M  V30 13817 H 1264.37 0.732714 3.94249 0
M  V30 13818 H 1260.96 2.14729 3.70931 0
M  V30 13819 H 1265.14 3.11589 3.86298 0
M  V30 13820 H 1260.4 4.50243 4.13631 0
M  V30 13821 H 1264.57 5.47561 4.30291 0
M  V30 13822 H 1262.2 6.17364 4.43583 0
M  V30 13823 N 1263.78 -1.38018 0.760839 0
M  V30 13824 C 1265 -2.04757 0.330038 0
M  V30 13825 C 1265.43 -1.57009 -1.03585 0
M  V30 13826 O 1264.78 -0.725349 -1.66158 0
M  V30 13827 C 1264.83 -3.58696 0.370082 0
M  V30 13828 O 1263.94 -4.07507 -0.633361 0
M  V30 13829 H 1263.28 -0.648023 0.144782 0
M  V30 13830 H 1265.81 -1.7655 1.03399 0
M  V30 13831 H 1265.82 -4.07387 0.223515 0
M  V30 13832 H 1264.49 -3.92806 1.36661 0
M  V30 13833 H 1263.07 -3.70165 -0.45081 0
M  V30 13834 N 1265.25 -0.510493 -1.49103 0
M  V30 13835 C 1266.48 0.0271718 -2.06882 0
M  V30 13836 C 1266.9 1.2995 -1.36962 0
M  V30 13837 O 1266.25 1.76842 -0.450916 0
M  V30 13838 C 1266.3 0.274956 -3.60453 0
M  V30 13839 O 1266.03 -0.946941 -4.27744 0
M  V30 13840 C 1267.53 0.855197 -4.34973 0
M  V30 13841 H 1264.75 -0.024732 -0.670544 0
M  V30 13842 H 1267.29 -0.710567 -1.91758 0
M  V30 13843 H 1265.45 0.962696 -3.75248 0
M  V30 13844 H 1265.86 -0.715627 -5.19595 0
M  V30 13845 H 1267.33 0.978103 -5.43265 0
M  V30 13846 H 1267.81 1.85535 -3.98087 0
M  V30 13847 H 1268.42 0.204632 -4.24807 0
M  V30 13848 N 1266.73 1.55688 -0.24474 0
M  V30 13849 C 1268.14 1.84897 0.25882 0
M  V30 13850 C 1268.49 1.16653 1.57755 0
M  V30 13851 O 1267.62 0.444162 2.11793 0
M  V30 13852 C 1268.21 3.35434 0.476385 0
M  V30 13853 C 1266.77 3.64877 0.924213 0
M  V30 13854 C 1265.92 2.773 0.00021322 0
M  V30 13855 H 1268.87 1.51662 -0.467358 0
M  V30 13856 H 1268.89 3.56896 1.31929 0
M  V30 13857 H 1268.4 3.85076 -0.483567 0
M  V30 13858 H 1266.5 3.20711 1.89671 0
M  V30 13859 H 1266.62 4.72665 0.78257 0
M  V30 13860 H 1264.98 2.49517 0.511194 0
M  V30 13861 H 1265.76 3.29747 -0.955072 0
M  V30 13862 N 1268.21 -0.0283989 1.57574 0
M  V30 13863 C 1269.46 -0.718121 1.88483 0
M  V30 13864 C 1269.77 -1.76485 0.843345 0
M  V30 13865 O 1270.98 -2.50721 1.04169 0
M  V30 13866 C 1269.43 -1.32832 3.3449 0
M  V30 13867 C 1269.04 -0.317905 4.46871 0
M  V30 13868 C 1270.79 -1.99788 3.74546 0
M  V30 13869 C 1268.69 -0.936489 5.83938 0
M  V30 13870 H 1267.62 -0.271969 0.703242 0
M  V30 13871 H 1270.27 0.0274862 1.83479 0
M  V30 13872 H 1268.66 -2.12366 3.34241 0
M  V30 13873 H 1269.83 0.450767 4.5859 0
M  V30 13874 H 1268.14 0.249605 4.15651 0
M  V30 13875 H 1270.74 -2.46923 4.74271 0
M  V30 13876 H 1271.08 -2.81633 3.06575 0
M  V30 13877 H 1271.62 -1.27029 3.76973 0
M  V30 13878 H 1268.36 -0.15744 6.55311 0
M  V30 13879 H 1267.88 -1.67499 5.75938 0
M  V30 13880 H 1269.56 -1.44363 6.30689 0
M  V30 13881 N 1269.69 -1.54705 -0.300681 0
M  V30 13882 C 1271.1 -1.64998 -0.873654 0
M  V30 13883 C 1271.45 -0.558842 -1.88073 0
M  V30 13884 O 1270.57 0.304474 -2.14247 0
M  V30 13885 C 1271.17 -2.99099 -1.59138 0
M  V30 13886 C 1269.73 -3.11512 -2.11276 0
M  V30 13887 C 1268.88 -2.60681 -0.945551 0
M  V30 13888 H 1271.83 -1.5851 -0.0776752 0
M  V30 13889 H 1271.85 -2.9054 -2.45696 0
M  V30 13890 H 1271.36 -3.78493 -0.858172 0
M  V30 13891 H 1269.46 -2.36838 -2.87643 0
M  V30 13892 H 1269.57 -4.17672 -2.34707 0
M  V30 13893 H 1267.94 -2.17143 -1.33121 0
M  V30 13894 H 1268.72 -3.42553 -0.226291 0
M  V30 13895 N 1271.17 0.563888 -1.47167 0
M  V30 13896 C 1272.41 1.32136 -1.53448 0
M  V30 13897 C 1272.74 1.9353 -0.19396 0
M  V30 13898 O 1272 1.78038 0.812456 0
M  V30 13899 C 1272.3 2.45678 -2.59571 0
M  V30 13900 C 1271.96 2.02157 -4.03043 0
M  V30 13901 C 1270.62 1.90003 -4.421 0
M  V30 13902 C 1272.98 1.68846 -4.93093 0
M  V30 13903 C 1270.3 1.42825 -5.6905 0
M  V30 13904 C 1272.66 1.2314 -6.20499 0
M  V30 13905 C 1271.32 1.09578 -6.58444 0
M  V30 13906 H 1270.59 0.483519 -0.561507 0
M  V30 13907 H 1273.24 0.633042 -1.80734 0
M  V30 13908 H 1271.54 3.20037 -2.26017 0
M  V30 13909 H 1273.24 3.03871 -2.61655 0
M  V30 13910 H 1269.83 2.12557 -3.7218 0
M  V30 13911 H 1274.01 1.77111 -4.63622 0
M  V30 13912 H 1269.27 1.30983 -5.97205 0
M  V30 13913 H 1273.44 0.964247 -6.89692 0
M  V30 13914 H 1271.07 0.727975 -7.56706 0
M  V30 13915 N 1272.64 1.35187 0.810078 0
M  V30 13916 C 1273.87 1.31528 1.60359 0
M  V30 13917 C 1274.29 -0.105385 1.87805 0
M  V30 13918 O 1273.65 -1.07113 1.46276 0
M  V30 13919 C 1273.7 2.12429 2.91386 0
M  V30 13920 O 1272.8 1.50262 3.84051 0
M  V30 13921 H 1272.15 0.451122 0.487222 0
M  V30 13922 H 1274.68 1.78178 1.00568 0
M  V30 13923 H 1274.69 2.24257 3.40841 0
M  V30 13924 H 1273.36 3.15714 2.70735 0
M  V30 13925 H 1271.94 1.47253 3.42594 0
M  V30 13926 N 1274.12 -1.03182 1.19127 0
M  V30 13927 C 1275.35 -1.79904 1.01578 0
M  V30 13928 C 1275.76 -1.84044 -0.438697 0
M  V30 13929 O 1275.1 -1.28117 -1.3165 0
M  V30 13930 C 1275.17 -3.26473 1.50519 0
M  V30 13931 C 1274.83 -3.45975 2.98581 0
M  V30 13932 C 1275.83 -3.36436 3.96367 0
M  V30 13933 C 1273.51 -3.72284 3.37209 0
M  V30 13934 C 1275.51 -3.52925 5.30775 0
M  V30 13935 C 1273.19 -3.8842 4.71777 0
M  V30 13936 C 1274.19 -3.78742 5.68369 0
M  V30 13937 O 1273.88 -3.94405 7.005 0
M  V30 13938 H 1273.61 -0.573103 0.35851 0
M  V30 13939 H 1276.16 -1.30871 1.5831 0
M  V30 13940 H 1274.39 -3.76517 0.881593 0
M  V30 13941 H 1276.08 -3.84781 1.29223 0
M  V30 13942 H 1276.85 -3.16064 3.6787 0
M  V30 13943 H 1272.73 -3.78911 2.62579 0
M  V30 13944 H 1276.27 -3.45288 6.06153 0
M  V30 13945 H 1272.17 -4.08288 4.99971 0
M  V30 13946 H 1272.94 -4.11514 7.0753 0
M  V30 13947 N 1275.6 -0.99472 -1.22242 0
M  V30 13948 C 1276.83 -0.689809 -1.95592 0
M  V30 13949 C 1277.25 0.739321 -1.72961 0
M  V30 13950 O 1276.61 1.50563 -1.00997 0
M  V30 13951 C 1276.66 -1.00367 -3.46351 0
M  V30 13952 O 1275.76 -0.103326 -4.12271 0
M  V30 13953 H 1275.1 -0.257997 -0.611828 0
M  V30 13954 H 1277.63 -1.33219 -1.55286 0
M  V30 13955 H 1277.64 -0.946259 -3.96875 0
M  V30 13956 H 1276.32 -2.04504 -3.62148 0
M  V30 13957 H 1274.89 -0.216374 -3.72272 0
M  V30 13958 N 1277.08 1.37613 -0.768148 0
M  V30 13959 C 1278.03 2.30311 -0.150176 0
M  V30 13960 C 1279 1.50918 0.69376 0
M  V30 13961 O 1280.18 1.795 0.64687 0
M  V30 13962 C 1277.32 3.37382 0.72576 0
M  V30 13963 C 1276.43 4.31791 -0.13439 0
M  V30 13964 C 1275.57 5.25937 0.745915 0
M  V30 13965 C 1274.61 6.11988 -0.116988 0
M  V30 13966 N 1273.74 6.98387 0.721091 0
M  V30 13967 H 1278.58 2.82579 -0.946212 0
M  V30 13968 H 1276.12 1.3911 -0.478217 0
M  V30 13969 H 1278.08 3.98084 1.24839 0
M  V30 13970 H 1276.71 2.86488 1.48743 0
M  V30 13971 H 1275.76 3.72426 -0.774793 0
M  V30 13972 H 1277.07 4.9234 -0.800163 0
M  V30 13973 H 1276.23 5.91826 1.33516 0
M  V30 13974 H 1274.97 4.6579 1.44538 0
M  V30 13975 H 1273.97 5.45081 -0.7188 0
M  V30 13976 H 1275.2 6.74207 -0.813732 0
M  V30 13977 H 1273.14 6.40772 1.40524 0
M  V30 13978 H 1273.06 7.55916 0.112536 0
M  V30 13979 H 1274.33 7.6867 1.29485 0
M  V30 13980 N 1278.56 0.518393 1.4883 0
M  V30 13981 C 1279.5 -0.264197 2.31095 0
M  V30 13982 C 1280.5 -0.946455 1.40494 0
M  V30 13983 O 1281.7 -0.872161 1.57459 0
M  V30 13984 H 1278.08 -0.104065 0.744765 0
M  V30 13985 H 1280.05 0.449375 2.94997 0
M  V30 13986 C 1278.8 -1.30527 3.2227 0
M  V30 13987 H 1278.12 -0.789695 3.91923 0
M  V30 13988 H 1279.56 -1.82449 3.82738 0
M  V30 13989 C 1278.02 -2.33274 2.43073 0
M  V30 13990 O 1278.55 -3.39493 2.14726 0
M  V30 13991 N 1276.76 -2.06189 2.04779 0
M  V30 13992 H 1276.3 -1.19829 2.28033 0
M  V30 13993 H 1276.26 -2.7516 1.521 0
M  V30 13994 N 1280.03 -1.55556 0.252993 0
M  V30 13995 C 1280.96 -2.24613 -0.638047 0
M  V30 13996 C 1281.95 -1.22852 -1.1765 0
M  V30 13997 O 1283.13 -1.51519 -1.21472 0
M  V30 13998 C 1280.26 -2.95029 -1.83236 0
M  V30 13999 C 1279.21 -4.03531 -1.42641 0
M  V30 14000 C 1278.54 -4.61404 -2.70204 0
M  V30 14001 C 1279.84 -5.18923 -0.592958 0
M  V30 14002 H 1281.53 -2.99335 -0.0621918 0
M  V30 14003 H 1279.08 -1.43972 -0.0284722 0
M  V30 14004 H 1281.03 -3.42042 -2.46141 0
M  V30 14005 H 1279.76 -2.17805 -2.43369 0
M  V30 14006 H 1278.42 -3.57296 -0.820672 0
M  V30 14007 H 1278.06 -3.80874 -3.28548 0
M  V30 14008 H 1277.76 -5.34652 -2.43764 0
M  V30 14009 H 1279.29 -5.11154 -3.33997 0
M  V30 14010 H 1280.7 -5.62124 -1.12646 0
M  V30 14011 H 1279.1 -5.98598 -0.424358 0
M  V30 14012 H 1280.17 -4.83301 0.393434 0
M  V30 14013 N 1281.51 0.0200419 -1.57587 0
M  V30 14014 C 1282.79 0.744946 -1.80859 0
M  V30 14015 C 1283.17 1.93089 -0.853218 0
M  V30 14016 O 1282.52 2.28269 0.10261 0
M  V30 14017 C 1282.73 1.16952 -3.28821 0
M  V30 14018 C 1284.08 1.5817 -3.9404 0
M  V30 14019 O 1285.1 1.26385 -3.33024 0
M  V30 14020 O 1283.96 2.17197 -5.01486 0
M  V30 14021 H 1281.05 0.360995 -0.744051 0
M  V30 14022 H 1283.6 -0.00387374 -1.697 0
M  V30 14023 H 1282.37 0.323304 -3.89962 0
M  V30 14024 H 1281.99 1.97807 -3.44903 0
M  V30 14025 N 1282.99 1.54862 0.292472 0
M  V30 14026 C 1284.23 1.76289 1.03448 0
M  V30 14027 C 1284.59 0.541914 1.84194 0
M  V30 14028 O 1285.8 0.634075 2.61214 0
M  V30 14029 C 1284.07 3.02112 1.90953 0
M  V30 14030 S 1285.63 3.44577 2.71683 0
M  V30 14031 H 1282.44 0.619596 0.348744 0
M  V30 14032 H 1285.05 1.93075 0.306952 0
M  V30 14033 H 1283.75 3.89091 1.30523 0
M  V30 14034 H 1283.28 2.87937 2.68059 0
M  V30 14035 H 1285.3 3.02318 3.93469 0
M  V30 14036 N 1284.47 -0.556076 1.47464 0
M  V30 14037 C 1285.71 -1.31283 1.55358 0
M  V30 14038 C 1286.07 -1.91212 0.213492 0
M  V30 14039 O 1285.36 -1.74963 -0.780934 0
M  V30 14040 C 1285.56 -2.44298 2.6087 0
M  V30 14041 C 1285.39 -1.95444 4.05008 0
M  V30 14042 C 1284.16 -1.79235 4.72443 0
M  V30 14043 C 1286.35 -1.49825 4.91993 0
M  V30 14044 N 1284.34 -1.24732 6.01095 0
M  V30 14045 C 1285.71 -1.07095 6.1068 0
M  V30 14046 C 1287.76 -1.37887 4.78426 0
M  V30 14047 C 1286.46 -0.536134 7.17299 0
M  V30 14048 C 1288.49 -0.858066 5.85142 0
M  V30 14049 C 1287.85 -0.440699 7.0302 0
M  V30 14050 H 1283.95 -0.472387 0.623197 0
M  V30 14051 H 1286.54 -0.630184 1.84219 0
M  V30 14052 H 1284.71 -3.10092 2.33875 0
M  V30 14053 H 1286.44 -3.11299 2.58601 0
M  V30 14054 H 1283.19 -2.01984 4.28368 0
M  V30 14055 H 1283.62 -0.995659 6.69638 0
M  V30 14056 H 1288.26 -1.68766 3.87657 0
M  V30 14057 H 1285.98 -0.214967 8.07814 0
M  V30 14058 H 1289.56 -0.769235 5.76692 0
M  V30 14059 H 1288.44 -0.0439514 7.84188 0
M  V30 14060 N 1285.95 -1.35615 -0.802897 0
M  V30 14061 C 1287.19 -1.29285 -1.56247 0
M  V30 14062 C 1287.53 0.131474 -1.93754 0
M  V30 14063 O 1286.8 1.08172 -1.61645 0
M  V30 14064 C 1287.08 -2.20285 -2.84863 0
M  V30 14065 C 1286.94 -3.71351 -2.53808 0
M  V30 14066 C 1288.26 -2.10318 -3.86593 0
M  V30 14067 H 1285.38 -0.470972 -0.566882 0
M  V30 14068 H 1288.02 -1.66048 -0.923469 0
M  V30 14069 H 1286.17 -1.89063 -3.39393 0
M  V30 14070 H 1287.84 -4.13031 -2.05433 0
M  V30 14071 H 1286.08 -3.9145 -1.86947 0
M  V30 14072 H 1286.75 -4.30416 -3.4561 0
M  V30 14073 H 1289.23 -2.37772 -3.41473 0
M  V30 14074 H 1288.11 -2.76183 -4.74357 0
M  V30 14075 H 1288.37 -1.08627 -4.28547 0
M  V30 14076 N 1287.43 1.02549 -1.19673 0
M  V30 14077 C 1288.7 1.73106 -0.9107 0
M  V30 14078 C 1289.08 2.02897 0.582769 0
M  V30 14079 O 1288.43 1.68633 1.54192 0
M  V30 14080 C 1288.64 3.00535 -1.77425 0
M  V30 14081 C 1289.99 3.73976 -2.01065 0
M  V30 14082 O 1291.01 3.1047 -1.74605 0
M  V30 14083 O 1289.87 4.88153 -2.457 0
M  V30 14084 H 1286.97 0.754006 -0.339711 0
M  V30 14085 H 1289.51 1.08477 -1.30502 0
M  V30 14086 H 1288.28 2.74773 -2.78595 0
M  V30 14087 H 1287.91 3.72904 -1.37943 0
M  V30 14088 N 1288.9 1.00119 1.21713 0
M  V30 14089 C 1289.85 0.551452 2.25969 0
M  V30 14090 C 1290.85 -0.402075 1.64559 0
M  V30 14091 O 1292.05 -0.273685 1.77907 0
M  V30 14092 H 1288.43 0.159968 0.734789 0
M  V30 14093 H 1290.4 1.44201 2.61244 0
M  V30 14094 C 1289.15 -0.109992 3.47526 0
M  V30 14095 H 1288.47 0.614686 3.95046 0
M  V30 14096 H 1289.91 -0.388007 4.22221 0
M  V30 14097 C 1288.37 -1.34798 3.08757 0
M  V30 14098 O 1288.9 -2.44266 3.189 0
M  V30 14099 N 1287.1 -1.2263 2.63458 0
M  V30 14100 H 1286.65 -0.335571 2.55405 0
M  V30 14101 H 1286.61 -2.05565 2.37887 0
M  V30 14102 N 1290.38 -1.37203 0.775435 0
M  V30 14103 C 1291.29 -2.34019 0.165062 0
M  V30 14104 C 1292.31 -1.6036 -0.675316 0
M  V30 14105 O 1293.48 -1.9243 -0.594375 0
M  V30 14106 C 1290.55 -3.3954 -0.700957 0
M  V30 14107 C 1289.61 -4.29015 0.156304 0
M  V30 14108 C 1288.84 -5.29497 -0.668476 0
M  V30 14109 O 1289.07 -5.37636 -1.90535 0
M  V30 14110 O 1288 -6.01852 -0.0757351 0
M  V30 14111 H 1291.83 -2.87955 0.965184 0
M  V30 14112 H 1289.41 -1.39429 0.536654 0
M  V30 14113 H 1291.29 -4.04094 -1.19524 0
M  V30 14114 H 1289.97 -2.87926 -1.4792 0
M  V30 14115 H 1288.87 -3.67549 0.69703 0
M  V30 14116 H 1290.21 -4.83944 0.897725 0
M  V30 14117 N 1291.86 -0.526279 -1.48553 0
M  V30 14118 C 1292.77 0.24244 -2.33344 0
M  V30 14119 C 1293.79 0.942658 -1.46253 0
M  V30 14120 O 1294.96 0.91844 -1.79239 0
M  V30 14121 C 1292.03 1.27801 -3.22285 0
M  V30 14122 C 1291.09 0.588543 -4.25247 0
M  V30 14123 C 1290.32 1.57478 -5.09938 0
M  V30 14124 O 1290.54 2.80707 -4.96548 0
M  V30 14125 O 1289.48 1.11621 -5.9146 0
M  V30 14126 H 1293.3 -0.452262 -3.00314 0
M  V30 14127 H 1290.89 -0.287249 -1.46613 0
M  V30 14128 H 1292.77 1.87656 -3.7731 0
M  V30 14129 H 1291.45 1.95519 -2.57981 0
M  V30 14130 H 1290.35 -0.0504022 -3.74066 0
M  V30 14131 H 1291.69 -0.046627 -4.92178 0
M  V30 14132 N 1293.34 1.5542 -0.261239 0
M  V30 14133 C 1294.61 1.91243 0.41056 0
M  V30 14134 C 1294.99 1.1838 1.74784 0
M  V30 14135 O 1294.34 0.306013 2.26442 0
M  V30 14136 C 1294.55 3.44404 0.56453 0
M  V30 14137 C 1295.9 4.15927 0.853827 0
M  V30 14138 O 1296.92 3.50222 0.649861 0
M  V30 14139 O 1295.78 5.32175 1.24308 0
M  V30 14140 H 1292.88 0.796491 0.222555 0
M  V30 14141 H 1295.42 1.66912 -0.306367 0
M  V30 14142 H 1294.2 3.89478 -0.377134 0
M  V30 14143 H 1293.82 3.74644 1.33145 0
M  V30 14144 N 1294.82 -0.0116844 1.57596 0
M  V30 14145 C 1296.06 -0.698089 1.89234 0
M  V30 14146 C 1296.38 -1.75581 0.862016 0
M  V30 14147 O 1297.58 -2.49602 1.06822 0
M  V30 14148 C 1296.04 -1.29277 3.3588 0
M  V30 14149 C 1295.65 -0.27049 4.47183 0
M  V30 14150 C 1297.39 -1.95805 3.76644 0
M  V30 14151 C 1295.3 -0.874502 5.84899 0
M  V30 14152 H 1294.23 -0.264495 0.706087 0
M  V30 14153 H 1296.88 0.0469451 1.8344 0
M  V30 14154 H 1295.26 -2.08809 3.36474 0
M  V30 14155 H 1296.44 0.499381 4.58086 0
M  V30 14156 H 1294.75 0.293676 4.15363 0
M  V30 14157 H 1297.35 -2.41879 4.76863 0
M  V30 14158 H 1297.69 -2.78366 3.09545 0
M  V30 14159 H 1298.22 -1.23023 3.78299 0
M  V30 14160 H 1294.96 -0.0879263 6.55441 0
M  V30 14161 H 1294.48 -1.61381 5.77682 0
M  V30 14162 H 1296.16 -1.37665 6.32185 0
M  V30 14163 N 1296.29 -1.55015 -0.284256 0
M  V30 14164 C 1297.57 -1.6579 -1.03794 0
M  V30 14165 C 1297.95 -0.517029 -2.04671 0
M  V30 14166 O 1297.3 0.484287 -2.23309 0
M  V30 14167 C 1297.51 -3.04527 -1.70483 0
M  V30 14168 C 1298.86 -3.61903 -2.22062 0
M  V30 14169 O 1299.88 -3.07087 -1.80488 0
M  V30 14170 O 1298.74 -4.57917 -2.98286 0
M  V30 14171 H 1295.83 -0.672906 -0.480757 0
M  V30 14172 H 1298.38 -1.67357 -0.281009 0
M  V30 14173 H 1297.15 -3.79004 -0.973238 0
M  V30 14174 H 1296.77 -3.0681 -2.5289 0
M  V30 14175 N 1297.77 0.548248 -1.47757 0
M  V30 14176 C 1299.02 1.30694 -1.55071 0
M  V30 14177 C 1299.35 1.92994 -0.216075 0
M  V30 14178 O 1298.63 1.78341 0.776196 0
M  V30 14179 C 1298.91 2.41024 -2.67543 0
M  V30 14180 C 1298.76 1.83534 -4.10652 0
M  V30 14181 C 1300.08 3.42902 -2.75874 0
M  V30 14182 H 1297.2 0.47383 -0.564494 0
M  V30 14183 H 1299.84 0.612628 -1.79852 0
M  V30 14184 H 1297.99 3.00248 -2.46543 0
M  V30 14185 H 1299.66 1.28503 -4.4304 0
M  V30 14186 H 1297.91 1.14161 -4.18509 0
M  V30 14187 H 1298.58 2.63335 -4.85138 0
M  V30 14188 H 1301.05 2.9361 -2.94843 0
M  V30 14189 H 1299.93 4.17516 -3.5633 0
M  V30 14190 H 1300.19 4.02314 -1.83291 0
M  V30 14191 N 1299.25 1.36039 0.795694 0
M  V30 14192 C 1300.5 1.29251 1.54845 0
M  V30 14193 C 1300.81 -0.127926 1.95181 0
M  V30 14194 O 1302.02 -0.318141 2.6963 0
M  V30 14195 C 1300.47 2.26736 2.79497 0
M  V30 14196 C 1300.08 3.74183 2.46355 0
M  V30 14197 C 1301.83 2.28913 3.5749 0
M  V30 14198 C 1299.73 4.63462 3.67365 0
M  V30 14199 H 1298.66 0.48027 0.581255 0
M  V30 14200 H 1301.31 1.61366 0.873693 0
M  V30 14201 H 1299.7 1.87608 3.4874 0
M  V30 14202 H 1300.87 4.22011 1.8505 0
M  V30 14203 H 1299.18 3.7472 1.81586 0
M  V30 14204 H 1301.78 2.92828 4.47388 0
M  V30 14205 H 1302.12 1.2959 3.95616 0
M  V30 14206 H 1302.66 2.66627 2.9522 0
M  V30 14207 H 1299.4 5.63824 3.34339 0
M  V30 14208 H 1298.92 4.20354 4.27858 0
M  V30 14209 H 1300.6 4.79424 4.34467 0
M  V30 14210 N 1300.73 -1.01913 1.20215 0
M  V30 14211 C 1301.66 -2.12282 0.97256 0
M  V30 14212 C 1302.64 -1.6982 -0.0975709 0
M  V30 14213 O 1303.82 -1.94109 0.0594307 0
M  V30 14214 C 1300.95 -3.43369 0.521085 0
M  V30 14215 C 1299.91 -3.99559 1.53417 0
M  V30 14216 C 1299.23 -5.26383 0.93942 0
M  V30 14217 C 1300.53 -4.33241 2.91718 0
M  V30 14218 H 1302.23 -2.31746 1.89563 0
M  V30 14219 H 1299.77 -1.1137 0.912841 0
M  V30 14220 H 1301.73 -4.19963 0.347713 0
M  V30 14221 H 1300.45 -3.23655 -0.437605 0
M  V30 14222 H 1299.11 -3.25069 1.69486 0
M  V30 14223 H 1298.76 -5.02993 -0.0271236 0
M  V30 14224 H 1298.46 -5.64942 1.616 0
M  V30 14225 H 1299.98 -6.05635 0.777059 0
M  V30 14226 H 1301.4 -5.00734 2.79175 0
M  V30 14227 H 1299.79 -4.82907 3.56259 0
M  V30 14228 H 1300.86 -3.42118 3.43633 0
M  V30 14229 N 1302.21 -1.00763 -1.2118 0
M  V30 14230 C 1303.15 -0.570257 -2.23644 0
M  V30 14231 C 1304.12 0.405039 -1.61086 0
M  V30 14232 O 1305.31 0.306496 -1.88322 0
M  V30 14233 C 1302.45 0.094325 -3.44971 0
M  V30 14234 C 1301.56 -0.924463 -4.21993 0
M  V30 14235 C 1300.7 -0.231869 -5.30694 0
M  V30 14236 C 1299.74 -1.23803 -5.99449 0
M  V30 14237 N 1298.87 -0.572725 -6.9976 0
M  V30 14238 H 1303.71 -1.44869 -2.60417 0
M  V30 14239 H 1301.25 -0.725369 -1.27972 0
M  V30 14240 H 1303.21 0.496689 -4.14233 0
M  V30 14241 H 1301.84 0.936457 -3.08918 0
M  V30 14242 H 1300.89 -1.44505 -3.51884 0
M  V30 14243 H 1302.2 -1.69004 -4.69296 0
M  V30 14244 H 1301.36 0.226465 -6.06277 0
M  V30 14245 H 1300.09 0.566092 -4.84403 0
M  V30 14246 H 1299.1 -1.70684 -5.22635 0
M  V30 14247 H 1300.32 -2.03711 -6.47826 0
M  V30 14248 H 1298.27 0.205531 -6.55678 0
M  V30 14249 H 1298.19 -1.27651 -7.45145 0
M  V30 14250 H 1299.46 -0.137683 -7.79378 0
M  V30 14251 N 1303.68 1.3679 -0.7827 0
M  V30 14252 C 1304.63 2.30139 -0.174595 0
M  V30 14253 C 1305.6 1.51645 0.677714 0
M  V30 14254 O 1306.79 1.80176 0.627796 0
M  V30 14255 C 1303.93 3.38133 0.689936 0
M  V30 14256 C 1303.04 4.31624 -0.180179 0
M  V30 14257 C 1302.17 5.26698 0.69009 0
M  V30 14258 C 1301.21 6.1183 -0.181891 0
M  V30 14259 N 1300.35 6.99113 0.646977 0
M  V30 14260 H 1305.19 2.81559 -0.97613 0
M  V30 14261 H 1302.73 1.38595 -0.492944 0
M  V30 14262 H 1304.69 3.99386 1.2061 0
M  V30 14263 H 1303.32 2.88049 1.45696 0
M  V30 14264 H 1302.37 3.71583 -0.81425 0
M  V30 14265 H 1303.68 4.91464 -0.852337 0
M  V30 14266 H 1302.83 5.93209 1.27232 0
M  V30 14267 H 1301.57 4.67297 1.3959 0
M  V30 14268 H 1300.58 5.44288 -0.776572 0
M  V30 14269 H 1301.8 6.73306 -0.885195 0
M  V30 14270 H 1299.75 6.42227 1.3372 0
M  V30 14271 H 1299.67 7.55993 0.0323547 0
M  V30 14272 H 1300.93 7.7 1.21325 0
M  V30 14273 N 1305.16 0.53415 1.48272 0
M  V30 14274 C 1306.39 0.00368464 2.074 0
M  V30 14275 C 1306.81 -1.27003 1.38751 0
M  V30 14276 O 1306.17 -1.75502 0.454817 0
M  V30 14277 C 1306.22 -0.199034 3.6005 0
M  V30 14278 O 1305.32 -1.26679 3.92462 0
M  V30 14279 H 1304.66 0.0409936 0.662733 0
M  V30 14280 H 1307.19 0.743253 1.90622 0
M  V30 14281 H 1307.2 -0.420404 4.05828 0
M  V30 14282 H 1305.88 0.731391 4.09418 0
M  V30 14283 H 1304.46 -1.02775 3.58457 0
M  V30 14284 N 1306.64 -1.55279 0.269478 0
M  V30 14285 C 1307.87 -2.03876 -0.352418 0
M  V30 14286 C 1308.28 -1.14804 -1.49885 0
M  V30 14287 O 1307.64 -0.166989 -1.81734 0
M  V30 14288 C 1307.69 -3.51634 -0.838799 0
M  V30 14289 O 1307.41 -4.37316 0.261972 0
M  V30 14290 C 1308.91 -4.16094 -1.52909 0
M  V30 14291 H 1306.13 -0.66608 -0.0811043 0
M  V30 14292 H 1308.68 -2.00551 0.399929 0
M  V30 14293 H 1306.83 -3.55421 -1.54125 0
M  V30 14294 H 1307.25 -5.24383 -0.111013 0
M  V30 14295 H 1308.72 -5.21102 -1.82089 0
M  V30 14296 H 1309.2 -3.63928 -2.45872 0
M  V30 14297 H 1309.8 -4.16293 -0.87063 0
M  V30 14298 N 1308.12 0.00332656 -1.576 0
M  V30 14299 C 1309.37 0.688044 -1.89602 0
M  V30 14300 C 1309.68 1.75121 -0.871316 0
M  V30 14301 O 1310.89 2.49032 -1.08144 0
M  V30 14302 C 1309.34 1.27494 -3.36561 0
M  V30 14303 C 1308.95 0.246771 -4.4732 0
M  V30 14304 C 1310.69 1.93804 -3.77677 0
M  V30 14305 C 1308.6 0.843471 -5.85354 0
M  V30 14306 H 1307.53 0.260747 -0.707479 0
M  V30 14307 H 1310.18 -0.0566727 -1.83412 0
M  V30 14308 H 1308.56 2.07022 -3.37577 0
M  V30 14309 H 1309.74 -0.523668 -4.57815 0
M  V30 14310 H 1308.05 -0.3157 -4.15202 0
M  V30 14311 H 1310.65 2.39347 -4.78139 0
M  V30 14312 H 1310.99 2.7672 -3.11017 0
M  V30 14313 H 1311.53 1.21015 -3.78946 0
M  V30 14314 H 1308.27 0.0531655 -6.55478 0
M  V30 14315 H 1307.79 1.58315 -5.7853 0
M  V30 14316 H 1309.46 1.34311 -6.32906 0
M  V30 14317 N 1309.6 1.55164 0.276031 0
M  V30 14318 C 1310.53 1.90844 1.34539 0
M  V30 14319 C 1311.51 0.769968 1.51676 0
M  V30 14320 O 1312.69 1.02785 1.64769 0
M  V30 14321 C 1309.82 2.17769 2.70543 0
M  V30 14322 C 1308.78 3.33592 2.68142 0
M  V30 14323 C 1308.1 3.45991 4.07669 0
M  V30 14324 C 1309.4 4.70064 2.27678 0
M  V30 14325 H 1311.1 2.80412 1.04926 0
M  V30 14326 H 1308.64 1.34918 0.503303 0
M  V30 14327 H 1310.6 2.41317 3.45462 0
M  V30 14328 H 1309.32 1.24997 3.01734 0
M  V30 14329 H 1307.98 3.10007 1.95681 0
M  V30 14330 H 1307.63 2.50691 4.36077 0
M  V30 14331 H 1307.33 4.23862 4.06958 0
M  V30 14332 H 1308.85 3.71828 4.84331 0
M  V30 14333 H 1310.26 4.93176 2.92319 0
M  V30 14334 H 1308.66 5.50829 2.38134 0
M  V30 14335 H 1309.73 4.69091 1.22808 0
M  V30 14336 N 1311.07 -0.540404 1.48045 0
M  V30 14337 C 1312.02 -1.66695 1.62221 0
M  V30 14338 C 1313.02 -1.6219 0.488943 0
M  V30 14339 O 1314.22 -1.67173 0.66732 0
M  V30 14340 H 1310.6 -0.551868 0.510828 0
M  V30 14341 H 1312.57 -1.51879 2.56856 0
M  V30 14342 C 1311.32 -3.05002 1.6694 0
M  V30 14343 H 1310.64 -3.09157 2.53499 0
M  V30 14344 H 1312.08 -3.8347 1.80904 0
M  V30 14345 C 1310.54 -3.34445 0.40598 0
M  V30 14346 O 1311.07 -3.98753 -0.485676 0
M  V30 14347 N 1309.28 -2.8924 0.280857 0
M  V30 14348 H 1308.82 -2.37085 1.00741 0
M  V30 14349 H 1308.78 -3.09309 -0.563493 0
M  V30 14350 N 1312.55 -1.36459 -0.788468 0
M  V30 14351 C 1313.48 -1.33545 -1.91541 0
M  V30 14352 C 1314.46 -0.206762 -1.68839 0
M  V30 14353 O 1315.65 -0.404553 -1.89939 0
M  V30 14354 C 1312.78 -1.12492 -3.28577 0
M  V30 14355 C 1311.73 -2.22196 -3.65805 0
M  V30 14356 C 1311.06 -1.86285 -5.01201 0
M  V30 14357 C 1312.36 -3.64286 -3.7429 0
M  V30 14358 H 1314.05 -2.27844 -1.94236 0
M  V30 14359 H 1311.6 -1.09677 -0.933105 0
M  V30 14360 H 1313.55 -1.09089 -4.07035 0
M  V30 14361 H 1312.28 -0.146446 -3.26272 0
M  V30 14362 H 1310.93 -2.24727 -2.89644 0
M  V30 14363 H 1310.58 -0.87009 -4.95417 0
M  V30 14364 H 1310.28 -2.59734 -5.27079 0
M  V30 14365 H 1311.81 -1.84439 -5.82078 0
M  V30 14366 H 1313.22 -3.63977 -4.42937 0
M  V30 14367 H 1311.62 -4.36648 -4.11653 0
M  V30 14368 H 1312.69 -3.99123 -2.75371 0
M  V30 14369 N 1314.03 1.01274 -1.20754 0
M  V30 14370 C 1315.31 1.7213 -0.929008 0
M  V30 14371 C 1315.69 2.03503 0.561217 0
M  V30 14372 O 1315.04 1.70259 1.52395 0
M  V30 14373 C 1315.25 2.98636 -1.80603 0
M  V30 14374 C 1316.59 3.71823 -2.0502 0
M  V30 14375 O 1317.62 3.08601 -1.77888 0
M  V30 14376 O 1316.48 4.8552 -2.50864 0
M  V30 14377 H 1313.57 0.750361 -0.347689 0
M  V30 14378 H 1316.12 1.07086 -1.31646 0
M  V30 14379 H 1314.89 2.71803 -2.81494 0
M  V30 14380 H 1314.51 3.7142 -1.4189 0
M  V30 14381 N 1315.51 1.01404 1.20644 0
M  V30 14382 C 1316.76 0.697244 1.89265 0
M  V30 14383 C 1317.07 -0.776149 1.79542 0
M  V30 14384 O 1318.28 -1.2054 2.43274 0
M  V30 14385 C 1316.73 1.19672 3.39421 0
M  V30 14386 C 1316.34 2.69683 3.57736 0
M  V30 14387 C 1318.09 0.955225 4.13613 0
M  V30 14388 C 1315.99 3.13124 5.01704 0
M  V30 14389 H 1314.92 0.257105 0.708811 0
M  V30 14390 H 1317.57 1.22639 1.36499 0
M  V30 14391 H 1315.96 0.595562 3.91496 0
M  V30 14392 H 1317.13 3.35326 3.16059 0
M  V30 14393 H 1315.44 2.91946 2.96911 0
M  V30 14394 H 1318.04 1.25524 5.19757 0
M  V30 14395 H 1318.38 -0.108362 4.16159 0
M  V30 14396 H 1318.92 1.51962 3.67631 0
M  V30 14397 H 1315.66 4.18748 5.04311 0
M  V30 14398 H 1315.18 2.522 5.44201 0
M  V30 14399 H 1316.86 3.05617 5.70269 0
M  V30 14400 N 1316.99 -1.36373 0.789944 0
M  V30 14401 C 1317.94 -2.31928 0.17666 0
M  V30 14402 C 1318.93 -1.55831 -0.664316 0
M  V30 14403 O 1320.14 -1.71089 -0.559341 0
M  V30 14404 H 1316.51 -0.751021 0.038353 0
M  V30 14405 H 1318.48 -2.81216 0.998004 0
M  V30 14406 C 1317.23 -3.41112 -0.673646 0
M  V30 14407 H 1316.55 -3.99784 -0.0358875 0
M  V30 14408 H 1317.99 -4.10292 -1.06942 0
M  V30 14409 C 1316.45 -2.82728 -1.83211 0
M  V30 14410 O 1316.98 -2.74935 -2.92871 0
M  V30 14411 N 1315.19 -2.4001 -1.6384 0
M  V30 14412 H 1314.74 -2.46549 -0.746423 0
M  V30 14413 H 1314.69 -2.01294 -2.41512 0
M  V30 14414 N 1318.47 -0.542005 -1.47987 0
M  V30 14415 C 1319.41 0.227398 -2.31486 0
M  V30 14416 C 1320.41 0.923984 -1.41982 0
M  V30 14417 O 1321.61 0.847 -1.58827 0
M  V30 14418 H 1317.99 0.0922034 -0.746326 0
M  V30 14419 H 1319.96 -0.49625 -2.94245 0
M  V30 14420 C 1318.71 1.25384 -3.24306 0
M  V30 14421 H 1318.03 0.727243 -3.9313 0
M  V30 14422 H 1319.47 1.76337 -3.85592 0
M  V30 14423 C 1317.93 2.29378 -2.46754 0
M  V30 14424 O 1318.46 3.36034 -2.201 0
M  V30 14425 N 1316.67 2.02905 -2.08033 0
M  V30 14426 H 1316.21 1.16186 -2.2991 0
M  V30 14427 H 1316.17 2.72705 -1.56458 0
M  V30 14428 N 1319.94 1.55134 -0.277709 0
M  V30 14429 C 1321.22 1.91667 0.390253 0
M  V30 14430 C 1321.6 1.20228 1.73518 0
M  V30 14431 O 1320.95 0.330013 2.26104 0
M  V30 14432 C 1321.16 3.44983 0.52797 0
M  V30 14433 C 1322.51 4.16809 0.809665 0
M  V30 14434 O 1323.53 3.50891 0.612679 0
M  V30 14435 O 1322.39 5.33463 1.18656 0
M  V30 14436 H 1319.48 0.798807 0.214095 0
M  V30 14437 H 1322.03 1.66577 -0.324053 0
M  V30 14438 H 1320.8 3.89056 -0.418422 0
M  V30 14439 H 1320.42 3.76035 1.29164 0
M  V30 14440 N 1321.42 0.00503138 1.57599 0
M  V30 14441 C 1322.67 -0.677979 1.89964 0
M  V30 14442 C 1322.98 -1.74657 0.88059 0
M  V30 14443 O 1324.19 -2.48455 1.09463 0
M  V30 14444 C 1322.65 -1.25708 3.37232 0
M  V30 14445 C 1322.25 -0.223045 4.47444 0
M  V30 14446 C 1324 -1.91799 3.787 0
M  V30 14447 C 1321.9 -0.812416 5.85793 0
M  V30 14448 H 1320.83 -0.256991 0.708852 0
M  V30 14449 H 1323.49 0.0663988 1.8338 0
M  V30 14450 H 1321.87 -2.05228 3.3867 0
M  V30 14451 H 1323.04 0.54794 4.57531 0
M  V30 14452 H 1321.36 0.337714 4.15028 0
M  V30 14453 H 1323.95 -2.36808 4.79402 0
M  V30 14454 H 1324.3 -2.75067 3.1248 0
M  V30 14455 H 1324.83 -1.19004 3.79583 0
M  V30 14456 H 1321.57 -0.0184031 6.55497 0
M  V30 14457 H 1321.09 -1.55244 5.79361 0
M  V30 14458 H 1322.77 -1.30952 6.33609 0
M  V30 14459 N 1322.9 -1.55308 -0.267798 0
M  V30 14460 C 1324.15 -1.75364 -0.996515 0
M  V30 14461 C 1324.46 -0.565028 -1.87261 0
M  V30 14462 O 1325.67 -0.648119 -2.63651 0
M  V30 14463 C 1324.12 -3.10388 -1.82175 0
M  V30 14464 C 1323.73 -4.36832 -0.994062 0
M  V30 14465 C 1325.48 -3.39791 -2.54445 0
M  V30 14466 C 1323.38 -5.62893 -1.81398 0
M  V30 14467 H 1322.31 -0.653679 -0.375793 0
M  V30 14468 H 1324.96 -1.81762 -0.251975 0
M  V30 14469 H 1323.35 -2.98041 -2.60744 0
M  V30 14470 H 1324.52 -4.6011 -0.252167 0
M  V30 14471 H 1322.83 -4.1461 -0.385662 0
M  V30 14472 H 1325.43 -4.31184 -3.16203 0
M  V30 14473 H 1325.77 -2.60159 -3.24997 0
M  V30 14474 H 1326.31 -3.53259 -1.82902 0
M  V30 14475 H 1323.05 -6.45287 -1.15258 0
M  V30 14476 H 1322.57 -5.43751 -2.5317 0
M  V30 14477 H 1324.25 -6.01384 -2.38634 0
M  V30 14478 N 1324.38 0.532545 -1.4833 0
M  V30 14479 C 1325.6 1.31809 -1.60129 0
M  V30 14480 C 1326.03 1.86283 -0.260807 0
M  V30 14481 O 1325.39 1.6427 0.767137 0
M  V30 14482 C 1325.43 2.44661 -2.64903 0
M  V30 14483 O 1324.54 3.47622 -2.21885 0
M  V30 14484 H 1323.88 0.390492 -0.53704 0
M  V30 14485 H 1326.41 0.641068 -1.94297 0
M  V30 14486 H 1326.42 2.90883 -2.86096 0
M  V30 14487 H 1325.09 2.04373 -3.62222 0
M  V30 14488 H 1323.67 3.07536 -2.10894 0
M  V30 14489 N 1325.86 1.36875 0.78122 0
M  V30 14490 C 1327.13 1.22101 1.52809 0
M  V30 14491 C 1327.51 -0.189402 2.10249 0
M  V30 14492 O 1326.86 -1.19598 1.94701 0
M  V30 14493 C 1327.07 2.30953 2.61652 0
M  V30 14494 C 1328.42 2.68027 3.29313 0
M  V30 14495 O 1329.44 2.30058 2.71941 0
M  V30 14496 O 1328.3 3.33407 4.33015 0
M  V30 14497 H 1325.4 0.4759 0.676349 0
M  V30 14498 H 1327.94 1.48629 0.818998 0
M  V30 14499 H 1326.71 3.25443 2.17261 0
M  V30 14500 H 1326.34 2.05837 3.40172 0
M  V30 14501 N 1327.33 -1.00632 1.21289 0
M  V30 14502 C 1328.58 -1.73802 1.02351 0
M  V30 14503 C 1328.9 -1.90503 -0.443611 0
M  V30 14504 O 1330.1 -2.60868 -0.752356 0
M  V30 14505 C 1328.56 -3.12647 1.78269 0
M  V30 14506 C 1328.17 -3.03923 3.29142 0
M  V30 14507 C 1329.91 -3.89956 1.67735 0
M  V30 14508 C 1327.82 -4.3784 3.97556 0
M  V30 14509 H 1326.75 -0.651616 0.379358 0
M  V30 14510 H 1329.4 -1.12446 1.45011 0
M  V30 14511 H 1327.78 -3.74605 1.28401 0
M  V30 14512 H 1328.95 -2.51211 3.86303 0
M  V30 14513 H 1327.27 -2.40103 3.40205 0
M  V30 14514 H 1329.87 -4.89051 2.1618 0
M  V30 14515 H 1330.21 -4.11423 0.635338 0
M  V30 14516 H 1330.74 -3.34647 2.15072 0
M  V30 14517 H 1327.48 -4.21573 5.01952 0
M  V30 14518 H 1327 -4.90518 3.45184 0
M  V30 14519 H 1328.68 -5.06644 4.02393 0
M  V30 14520 N 1328.81 -1.02043 -1.20104 0
M  V30 14521 C 1330.04 -0.731142 -1.94085 0
M  V30 14522 C 1330.46 0.702467 -1.74491 0
M  V30 14523 O 1329.82 1.48387 -1.04168 0
M  V30 14524 C 1329.87 -1.07691 -3.44144 0
M  V30 14525 O 1328.97 -0.190751 -4.11959 0
M  V30 14526 H 1328.31 -0.270917 -0.606218 0
M  V30 14527 H 1330.84 -1.36483 -1.52426 0
M  V30 14528 H 1330.85 -1.03023 -3.94779 0
M  V30 14529 H 1329.53 -2.1214 -3.57728 0
M  V30 14530 H 1328.1 -0.29529 -3.71729 0
M  V30 14531 N 1330.29 1.35952 -0.797165 0
M  V30 14532 C 1331.54 1.98639 -0.372405 0
M  V30 14533 C 1331.86 1.63571 1.06158 0
M  V30 14534 O 1331.13 0.913516 1.73297 0
M  V30 14535 H 1329.71 0.734753 -0.13471 0
M  V30 14536 H 1332.37 1.66022 -1.02092 0
M  V30 14537 H 1331.47 3.08533 -0.47049 0
M  V30 14538 N 1331.77 0.549846 1.47697 0
M  V30 14539 C 1333.02 0.0230503 2.02487 0
M  V30 14540 C 1333.34 -1.32382 1.42497 0
M  V30 14541 O 1332.6 -1.87293 0.567441 0
M  V30 14542 C 1332.9 -0.127268 3.57173 0
M  V30 14543 C 1332.56 1.14777 4.36047 0
M  V30 14544 C 1331.23 1.49716 4.57317 0
M  V30 14545 C 1333.58 1.99302 4.81589 0
M  V30 14546 C 1330.91 2.69042 5.21376 0
M  V30 14547 C 1333.26 3.17824 5.46965 0
M  V30 14548 C 1331.92 3.53086 5.66469 0
M  V30 14549 H 1331.19 0.00843471 0.740952 0
M  V30 14550 H 1333.84 0.719876 1.77454 0
M  V30 14551 H 1332.14 -0.907008 3.81157 0
M  V30 14552 H 1333.84 -0.550103 3.97209 0
M  V30 14553 H 1330.43 0.865703 4.19766 0
M  V30 14554 H 1334.61 1.73618 4.64942 0
M  V30 14555 H 1329.87 2.9654 5.34672 0
M  V30 14556 H 1334.04 3.83612 5.81218 0
M  V30 14557 H 1331.67 4.45643 6.15878 0
M  V30 14558 N 1333.25 -1.54984 0.285932 0
M  V30 14559 C 1334.19 -2.24385 -0.612703 0
M  V30 14560 C 1335.19 -1.24459 -1.14918 0
M  V30 14561 O 1336.39 -1.42357 -1.10156 0
M  V30 14562 H 1332.77 -0.720263 -0.21616 0
M  V30 14563 H 1334.74 -2.984 -0.00465668 0
M  V30 14564 C 1333.49 -2.98661 -1.78037 0
M  V30 14565 H 1332.81 -3.75347 -1.37676 0
M  V30 14566 H 1334.25 -3.50525 -2.38554 0
M  V30 14567 C 1332.71 -2.04754 -2.67539 0
M  V30 14568 O 1333.24 -1.60577 -3.68209 0
M  V30 14569 N 1331.45 -1.71026 -2.34944 0
M  V30 14570 H 1330.99 -2.07148 -1.53126 0
M  V30 14571 H 1330.95 -1.08467 -2.95097 0
M  V30 14572 N 1334.72 -0.0133892 -1.57594 0
M  V30 14573 C 1335.95 0.682855 -1.95836 0
M  V30 14574 C 1336.37 1.65763 -0.889049 0
M  V30 14575 O 1335.73 1.80665 0.151585 0
M  V30 14576 C 1335.78 1.37931 -3.33178 0
M  V30 14577 O 1334.88 2.49416 -3.28429 0
M  V30 14578 H 1334.23 0.180629 -0.638959 0
M  V30 14579 H 1336.76 -0.0705644 -2.04478 0
M  V30 14580 H 1336.77 1.73969 -3.69051 0
M  V30 14581 H 1335.44 0.664675 -4.10554 0
M  V30 14582 H 1334.02 2.15606 -3.04251 0
M  V30 14583 N 1336.2 1.55448 0.259558 0
M  V30 14584 C 1337.43 1.81063 1.01148 0
M  V30 14585 C 1337.85 0.58875 1.78649 0
M  V30 14586 O 1337.21 -0.461971 1.75315 0
M  V30 14587 C 1337.26 3.04279 1.93512 0
M  V30 14588 O 1336.36 2.80307 3.02493 0
M  V30 14589 H 1335.7 0.598056 0.288487 0
M  V30 14590 H 1338.23 2.02614 0.284387 0
M  V30 14591 H 1338.24 3.33373 2.35215 0
M  V30 14592 H 1336.92 3.92856 1.36518 0
M  V30 14593 H 1335.5 2.62345 2.65008 0
M  V30 14594 N 1337.68 -0.524672 1.4861 0
M  V30 14595 C 1338.93 -1.28211 1.5713 0
M  V30 14596 C 1339.26 -1.92626 0.246751 0
M  V30 14597 O 1338.53 -1.79553 -0.747725 0
M  V30 14598 C 1338.82 -2.36737 2.71344 0
M  V30 14599 C 1338.67 -1.76978 4.1352 0
M  V30 14600 C 1339.99 -3.3847 2.81294 0
M  V30 14601 H 1337.11 -0.46479 0.571961 0
M  V30 14602 H 1339.75 -0.583937 1.80804 0
M  V30 14603 H 1337.9 -2.96287 2.51289 0
M  V30 14604 H 1339.57 -1.21438 4.45029 0
M  V30 14605 H 1337.82 -1.07488 4.20272 0
M  V30 14606 H 1338.49 -2.55583 4.89266 0
M  V30 14607 H 1340.96 -2.88882 2.99477 0
M  V30 14608 H 1339.84 -4.11795 3.62928 0
M  V30 14609 H 1340.1 -3.99347 1.89669 0
M  V30 14610 N 1339.16 -1.37287 -0.77395 0
M  V30 14611 C 1340.41 -1.31698 -1.52769 0
M  V30 14612 C 1340.72 0.0968585 -1.9536 0
M  V30 14613 O 1341.93 0.275205 -2.70102 0
M  V30 14614 C 1340.38 -2.31154 -2.75854 0
M  V30 14615 C 1339.99 -3.78055 -2.40371 0
M  V30 14616 C 1341.73 -2.34572 -3.53803 0
M  V30 14617 C 1339.64 -4.69248 -3.59945 0
M  V30 14618 H 1338.57 -0.489456 -0.573541 0
M  V30 14619 H 1341.22 -1.62735 -0.84791 0
M  V30 14620 H 1339.6 -1.93132 -3.45711 0
M  V30 14621 H 1340.78 -4.24902 -1.78312 0
M  V30 14622 H 1339.09 -3.77562 -1.75602 0
M  V30 14623 H 1341.69 -2.99908 -4.42673 0
M  V30 14624 H 1342.03 -1.35868 -3.93504 0
M  V30 14625 H 1342.57 -2.7129 -2.90941 0
M  V30 14626 H 1339.31 -5.69072 -3.25327 0
M  V30 14627 H 1338.83 -4.27108 -4.21117 0
M  V30 14628 H 1340.5 -4.86275 -4.26785 0
M  V30 14629 N 1340.64 0.999871 -1.21821 0
M  V30 14630 C 1341.86 1.77405 -1.06467 0
M  V30 14631 C 1342.28 1.84828 0.385227 0
M  V30 14632 O 1341.64 1.31338 1.26714 0
M  V30 14633 C 1341.69 3.21062 -1.66137 0
M  V30 14634 O 1341.41 3.14054 -3.05454 0
M  V30 14635 C 1342.91 4.14958 -1.55963 0
M  V30 14636 H 1340.13 0.557368 -0.373607 0
M  V30 14637 H 1342.67 1.2575 -1.61267 0
M  V30 14638 H 1340.83 3.69808 -1.15416 0
M  V30 14639 H 1341.24 4.04346 -3.34073 0
M  V30 14640 H 1342.72 5.13536 -2.02448 0
M  V30 14641 H 1343.19 4.36171 -0.514949 0
M  V30 14642 H 1343.8 3.72105 -2.05956 0
M  V30 14643 N 1342.11 1.02678 1.19562 0
M  V30 14644 C 1343.34 0.740493 1.92874 0
M  V30 14645 C 1343.75 -0.704287 1.75603 0
M  V30 14646 O 1343.1 -1.49042 1.07389 0
M  V30 14647 C 1343.16 1.00929 3.45041 0
M  V30 14648 C 1342.82 2.4452 3.86081 0
M  V30 14649 C 1343.82 3.42647 3.9101 0
M  V30 14650 C 1341.5 2.78865 4.1778 0
M  V30 14651 C 1343.5 4.73175 4.27065 0
M  V30 14652 C 1341.18 4.09603 4.53507 0
M  V30 14653 C 1342.18 5.06568 4.58124 0
M  V30 14654 O 1341.87 6.34965 4.93026 0
M  V30 14655 H 1341.6 0.270435 0.619549 0
M  V30 14656 H 1344.16 1.37369 1.52706 0
M  V30 14657 H 1342.39 0.31895 3.85382 0
M  V30 14658 H 1344.08 0.712994 3.99589 0
M  V30 14659 H 1344.84 3.17452 3.66673 0
M  V30 14660 H 1340.72 2.04071 4.13372 0
M  V30 14661 H 1344.26 5.48857 4.30583 0
M  V30 14662 H 1340.16 4.34573 4.77302 0
M  V30 14663 H 1340.93 6.39406 5.10982 0
M  V30 14664 N 1343.59 -1.35528 0.804364 0
M  V30 14665 C 1345 -1.81321 0.444933 0
M  V30 14666 C 1345.35 -1.66816 -1.03281 0
M  V30 14667 O 1344.48 -1.19753 -1.80245 0
M  V30 14668 C 1345.07 -3.29199 0.800827 0
M  V30 14669 C 1343.63 -3.73144 0.494026 0
M  V30 14670 C 1342.78 -2.57557 1.02761 0
M  V30 14671 H 1345.73 -1.23537 0.996203 0
M  V30 14672 H 1345.75 -3.80375 0.0975117 0
M  V30 14673 H 1345.26 -3.39725 1.8764 0
M  V30 14674 H 1343.37 -3.68169 -0.572901 0
M  V30 14675 H 1343.48 -4.68005 1.0251 0
M  V30 14676 H 1341.84 -2.50692 0.450048 0
M  V30 14677 H 1342.63 -2.70861 2.10925 0
M  V30 14678 N 1345.07 -0.557671 -1.47404 0
M  V30 14679 C 1346.35 0.031908 -1.95574 0
M  V30 14680 C 1346.73 1.48509 -1.50027 0
M  V30 14681 O 1346.08 2.16209 -0.73932 0
M  V30 14682 C 1346.29 -0.114055 -3.48814 0
M  V30 14683 C 1347.63 0.0310533 -4.24589 0
M  V30 14684 O 1348.66 -0.041626 -3.56176 0
M  V30 14685 O 1347.52 0.187487 -5.46178 0
M  V30 14686 H 1344.61 0.0638747 -0.82453 0
M  V30 14687 H 1347.16 -0.624227 -1.57802 0
M  V30 14688 H 1345.93 -1.12525 -3.74772 0
M  V30 14689 H 1345.55 0.57967 -3.93352 0
M  V30 14690 N 1346.55 1.54831 -0.294147 0
M  V30 14691 C 1347.51 2.21946 0.572061 0
M  V30 14692 C 1348.51 1.20331 1.06663 0
M  V30 14693 O 1349.7 1.45112 0.963757 0
M  V30 14694 C 1346.83 2.90044 1.7913 0
M  V30 14695 H 1348.03 2.99897 -0.0142234 0
M  V30 14696 H 1345.58 1.56235 -0.0449187 0
M  V30 14697 H 1346.32 2.16154 2.4176 0
M  V30 14698 H 1346.1 3.64527 1.44439 0
M  V30 14699 H 1347.59 3.41263 2.40684 0
M  V30 14700 N 1348.03 0.0217466 1.57585 0
M  V30 14701 C 1348.96 -0.99116 2.06661 0
M  V30 14702 C 1349.97 -1.29346 0.988604 0
M  V30 14703 O 1351.16 -1.25941 1.26496 0
M  V30 14704 C 1348.26 -2.32047 2.46997 0
M  V30 14705 C 1347.43 -2.20441 3.77789 0
M  V30 14706 C 1346.49 -3.36243 4.04755 0
M  V30 14707 O 1345.52 -3.13458 4.75114 0
M  V30 14708 N 1346.72 -4.598 3.54351 0
M  V30 14709 H 1349.49 -0.572486 2.94181 0
M  V30 14710 H 1347.05 -0.165175 1.61055 0
M  V30 14711 H 1349.04 -3.0833 2.62135 0
M  V30 14712 H 1347.61 -2.65581 1.64881 0
M  V30 14713 H 1346.83 -1.28931 3.72519 0
M  V30 14714 H 1348.12 -2.09882 4.63494 0
M  V30 14715 H 1347.52 -4.81207 2.97416 0
M  V30 14716 H 1346.07 -5.33276 3.7478 0
M  V30 14717 N 1349.51 -1.55583 -0.251311 0
M  V30 14718 C 1350.44 -1.9296 -1.31486 0
M  V30 14719 C 1351.42 -0.794001 -1.50431 0
M  V30 14720 O 1352.6 -1.05393 -1.63113 0
M  V30 14721 C 1349.73 -2.22046 -2.67045 0
M  V30 14722 C 1348.69 -3.37816 -2.62801 0
M  V30 14723 C 1348.01 -3.52433 -4.02113 0
M  V30 14724 C 1349.31 -4.73626 -2.20171 0
M  V30 14725 H 1351.01 -2.82046 -1.00451 0
M  V30 14726 H 1348.55 -1.35702 -0.481775 0
M  V30 14727 H 1350.5 -2.46783 -3.41579 0
M  V30 14728 H 1349.23 -1.29782 -2.99707 0
M  V30 14729 H 1347.89 -3.13081 -1.90724 0
M  V30 14730 H 1347.54 -2.57597 -4.32034 0
M  V30 14731 H 1347.24 -4.30283 -4.00163 0
M  V30 14732 H 1348.76 -3.79486 -4.78354 0
M  V30 14733 H 1350.17 -4.97764 -2.84436 0
M  V30 14734 H 1348.57 -5.54547 -2.29341 0
M  V30 14735 H 1349.64 -4.70985 -1.1533 0
M  V30 14736 N 1350.98 0.516783 -1.48886 0
M  V30 14737 C 1352.23 1.27375 -1.57808 0
M  V30 14738 C 1352.56 1.92492 -0.256963 0
M  V30 14739 O 1351.84 1.79947 0.738193 0
M  V30 14740 C 1352.12 2.35295 -2.72595 0
M  V30 14741 C 1351.97 1.74783 -4.14453 0
M  V30 14742 C 1353.29 3.36973 -2.83085 0
M  V30 14743 H 1350.41 0.46175 -0.574418 0
M  V30 14744 H 1353.05 0.57434 -1.81111 0
M  V30 14745 H 1351.2 2.94951 -2.52857 0
M  V30 14746 H 1352.88 1.19076 -4.45666 0
M  V30 14747 H 1351.12 1.05258 -4.20836 0
M  V30 14748 H 1351.79 2.52985 -4.90615 0
M  V30 14749 H 1354.27 2.87289 -3.01005 0
M  V30 14750 H 1353.14 4.09864 -3.65106 0
M  V30 14751 H 1353.4 3.98336 -1.91784 0
M  V30 14752 N 1352.46 1.37696 0.766659 0
M  V30 14753 C 1353.87 1.29668 1.34324 0
M  V30 14754 C 1354.22 -0.0534297 1.96127 0
M  V30 14755 O 1353.35 -0.95534 1.94171 0
M  V30 14756 C 1353.94 2.34818 2.44225 0
M  V30 14757 C 1352.5 2.3041 2.97638 0
M  V30 14758 C 1351.65 2.18378 1.70899 0
M  V30 14759 H 1354.6 1.48244 0.566526 0
M  V30 14760 H 1354.62 1.99778 3.23835 0
M  V30 14761 H 1354.13 3.3307 1.99214 0
M  V30 14762 H 1352.23 1.35698 3.47011 0
M  V30 14763 H 1352.35 3.24028 3.52906 0
M  V30 14764 H 1350.71 1.65008 1.94021 0
M  V30 14765 H 1351.49 3.18551 1.27985 0
M  V30 14766 N 1353.94 -0.993397 1.22349 0
M  V30 14767 C 1355.19 -1.72945 1.04568 0
M  V30 14768 C 1355.51 -1.90419 -0.420178 0
M  V30 14769 O 1354.78 -1.46348 -1.30227 0
M  V30 14770 H 1353.36 -0.640777 0.383945 0
M  V30 14771 H 1356.02 -1.19647 1.53853 0
M  V30 14772 H 1355.12 -2.72411 1.52311 0
M  V30 14773 N 1355.42 -1.03311 -1.19015 0
M  V30 14774 C 1356.67 -0.727266 -1.88132 0
M  V30 14775 C 1356.98 0.747488 -1.80754 0
M  V30 14776 O 1358.19 1.16654 -2.45161 0
M  V30 14777 C 1356.64 -1.25056 -3.37474 0
M  V30 14778 C 1356.25 -2.7534 -3.534 0
M  V30 14779 C 1357.99 -1.02091 -4.12041 0
M  V30 14780 C 1355.9 -3.21066 -4.96659 0
M  V30 14781 H 1354.83 -0.268349 -0.704631 0
M  V30 14782 H 1357.48 -1.24795 -1.3453 0
M  V30 14783 H 1355.86 -0.65777 -3.90499 0
M  V30 14784 H 1357.04 -3.40311 -3.10684 0
M  V30 14785 H 1355.35 -2.96633 -2.92229 0
M  V30 14786 H 1357.95 -1.33777 -5.17695 0
M  V30 14787 H 1358.29 0.0421413 -4.16279 0
M  V30 14788 H 1358.83 -1.57792 -3.65166 0
M  V30 14789 H 1355.56 -4.26719 -4.97586 0
M  V30 14790 H 1355.08 -2.60826 -5.4012 0
M  V30 14791 H 1356.76 -3.14651 -5.65335 0
M  V30 14792 N 1356.9 1.35099 -0.81154 0
M  V30 14793 C 1357.84 2.31618 -0.213536 0
M  V30 14794 C 1358.84 1.56868 0.63944 0
M  V30 14795 O 1360.04 1.71957 0.532051 0
M  V30 14796 H 1356.42 0.750316 -0.0502963 0
M  V30 14797 H 1358.39 2.79593 -1.04262 0
M  V30 14798 C 1357.14 3.4214 0.619293 0
M  V30 14799 H 1356.46 3.9979 -0.0277192 0
M  V30 14800 H 1357.9 4.11941 1.00401 0
M  V30 14801 C 1356.36 2.85607 1.7869 0
M  V30 14802 O 1356.89 2.7956 2.8846 0
M  V30 14803 N 1355.1 2.42587 1.6 0
M  V30 14804 H 1354.64 2.47705 0.707105 0
M  V30 14805 H 1354.6 2.0511 2.38279 0
M  V30 14806 N 1358.37 0.56548 1.47106 0
M  V30 14807 C 1359.62 0.0444375 2.02051 0
M  V30 14808 C 1359.94 -1.31344 1.44131 0
M  V30 14809 O 1359.21 -1.85845 0.619556 0
M  V30 14810 H 1357.79 0.0134375 0.746879 0
M  V30 14811 H 1360.45 0.737362 1.80413 0
M  V30 14812 H 1359.55 -0.0374834 3.12077 0
M  V30 14813 N 1359.85 -1.54672 0.302354 0
M  V30 14814 C 1360.8 -2.2357 -0.573141 0
M  V30 14815 C 1361.77 -1.21878 -1.12849 0
M  V30 14816 O 1362.95 -1.50502 -1.17277 0
M  V30 14817 C 1360.09 -2.98111 -1.7385 0
M  V30 14818 C 1359.21 -4.14579 -1.21441 0
M  V30 14819 C 1358.34 -4.76699 -2.34374 0
M  V30 14820 C 1357.38 -5.8531 -1.79106 0
M  V30 14821 N 1356.52 -6.41379 -2.85618 0
M  V30 14822 H 1361.36 -2.97993 0.0209969 0
M  V30 14823 H 1358.9 -1.47083 0.0221318 0
M  V30 14824 H 1360.85 -3.39561 -2.42392 0
M  V30 14825 H 1359.48 -2.26063 -2.30425 0
M  V30 14826 H 1358.54 -3.78061 -0.421204 0
M  V30 14827 H 1359.85 -4.92824 -0.769821 0
M  V30 14828 H 1359 -5.21009 -3.10861 0
M  V30 14829 H 1357.74 -3.9779 -2.8216 0
M  V30 14830 H 1356.75 -5.40423 -1.01109 0
M  V30 14831 H 1357.97 -6.66104 -1.32222 0
M  V30 14832 H 1355.92 -5.65352 -3.32735 0
M  V30 14833 H 1355.83 -7.14974 -2.45659 0
M  V30 14834 H 1357.1 -6.90346 -3.61998 0
M  V30 14835 N 1361.33 -0.0301034 -1.57571 0
M  V30 14836 C 1362.29 0.936465 -2.09196 0
M  V30 14837 C 1363.29 1.25347 -1.00722 0
M  V30 14838 O 1364.48 1.19364 -1.26877 0
M  V30 14839 C 1361.62 2.2527 -2.55864 0
M  V30 14840 H 1362.81 0.489332 -2.95881 0
M  V30 14841 H 1360.36 0.217948 -1.54773 0
M  V30 14842 H 1361.1 2.7461 -1.72511 0
M  V30 14843 H 1360.88 2.03573 -3.35113 0
M  V30 14844 H 1362.37 2.94549 -2.96025 0
M  V30 14845 N 1362.81 1.55714 0.243056 0
M  V30 14846 C 1364.06 1.76927 0.96849 0
M  V30 14847 C 1364.37 0.594748 1.86339 0
M  V30 14848 O 1365.58 0.689981 2.62586 0
M  V30 14849 C 1364.03 3.13246 1.77214 0
M  V30 14850 C 1363.64 4.38358 0.92444 0
M  V30 14851 C 1365.38 3.43796 2.49007 0
M  V30 14852 C 1363.29 5.65708 1.7242 0
M  V30 14853 H 1362.22 0.659574 0.365346 0
M  V30 14854 H 1364.87 1.8214 0.223026 0
M  V30 14855 H 1363.25 3.02151 2.5597 0
M  V30 14856 H 1364.43 4.60452 0.178936 0
M  V30 14857 H 1362.74 4.15171 0.319653 0
M  V30 14858 H 1365.34 4.3616 3.09303 0
M  V30 14859 H 1365.68 2.65297 3.20817 0
M  V30 14860 H 1366.22 3.56124 1.77259 0
M  V30 14861 H 1362.96 6.47039 1.04978 0
M  V30 14862 H 1362.48 5.4771 2.44488 0
M  V30 14863 H 1364.15 6.05105 2.29036 0
M  V30 14864 N 1364.29 -0.50888 1.49158 0
M  V30 14865 C 1365.24 -1.60799 1.61641 0
M  V30 14866 C 1366.22 -1.53808 0.472434 0
M  V30 14867 O 1367.41 -1.61471 0.724985 0
M  V30 14868 C 1364.54 -2.99444 1.67894 0
M  V30 14869 C 1363.63 -3.1146 2.87843 0
M  V30 14870 N 1364.02 -2.93387 4.12016 0
M  V30 14871 C 1362.32 -3.42549 2.85616 0
M  V30 14872 C 1363.02 -3.09378 4.92606 0
M  V30 14873 N 1361.99 -3.37902 4.2582 0
M  V30 14874 H 1365.8 -1.45468 2.55375 0
M  V30 14875 H 1363.31 -0.714832 1.45822 0
M  V30 14876 H 1365.31 -3.78423 1.74934 0
M  V30 14877 H 1363.97 -3.1585 0.752919 0
M  V30 14878 H 1364.98 -2.69721 4.42121 0
M  V30 14879 H 1361.65 -3.65181 2.02359 0
M  V30 14880 H 1363.04 -2.99964 6.01225 0
M  V30 14881 N 1365.76 -1.381 -0.759346 0
M  V30 14882 C 1366.69 -1.37578 -1.88665 0
M  V30 14883 C 1367.68 -0.242529 -1.68362 0
M  V30 14884 O 1368.86 -0.444751 -1.89039 0
M  V30 14885 C 1365.99 -1.19437 -3.26117 0
M  V30 14886 C 1364.94 -2.29905 -3.61009 0
M  V30 14887 C 1364.27 -1.96874 -4.97136 0
M  V30 14888 C 1365.57 -3.72143 -3.66479 0
M  V30 14889 H 1367.26 -2.31912 -1.89359 0
M  V30 14890 H 1364.81 -1.11632 -0.909631 0
M  V30 14891 H 1366.76 -1.17698 -4.0463 0
M  V30 14892 H 1365.49 -0.21562 -3.25887 0
M  V30 14893 H 1364.15 -2.3082 -2.84812 0
M  V30 14894 H 1363.79 -0.974979 -4.9346 0
M  V30 14895 H 1363.49 -2.70855 -5.21451 0
M  V30 14896 H 1365.02 -1.96744 -5.78035 0
M  V30 14897 H 1366.43 -3.73291 -4.35117 0
M  V30 14898 H 1364.83 -4.45282 -4.02299 0
M  V30 14899 H 1365.9 -4.04874 -2.66843 0
M  V30 14900 N 1367.24 0.986894 -1.22875 0
M  V30 14901 C 1368.49 1.72985 -1.05849 0
M  V30 14902 C 1368.82 1.89939 0.404594 0
M  V30 14903 O 1368.1 1.44693 1.29978 0
M  V30 14904 C 1368.38 3.13193 -1.77714 0
M  V30 14905 C 1368.23 3.0385 -3.31655 0
M  V30 14906 C 1369.55 4.12486 -1.53438 0
M  V30 14907 H 1366.67 0.627877 -0.385926 0
M  V30 14908 H 1369.31 1.14936 -1.51294 0
M  V30 14909 H 1367.46 3.62751 -1.39083 0
M  V30 14910 H 1369.13 2.61866 -3.79768 0
M  V30 14911 H 1367.38 2.4051 -3.61023 0
M  V30 14912 H 1368.05 4.03092 -3.77122 0
M  V30 14913 H 1370.52 3.71709 -1.87007 0
M  V30 14914 H 1369.4 5.08694 -2.06207 0
M  V30 14915 H 1369.66 4.39613 -0.468294 0
M  V30 14916 N 1368.72 1.0394 1.18466 0
M  V30 14917 C 1369.67 0.623063 2.241 0
M  V30 14918 C 1370.66 -0.349518 1.65755 0
M  V30 14919 O 1371.87 -0.216947 1.78688 0
M  V30 14920 H 1368.24 0.183263 0.729327 0
M  V30 14921 H 1370.21 1.52439 2.56524 0
M  V30 14922 C 1368.96 0.000626805 3.477 0
M  V30 14923 H 1368.29 0.740056 3.92891 0
M  V30 14924 H 1369.73 -0.253484 4.23242 0
M  V30 14925 C 1368.19 -1.24907 3.1289 0
M  V30 14926 O 1368.72 -2.33996 3.2651 0
M  V30 14927 N 1366.92 -1.14187 2.67226 0
M  V30 14928 H 1366.47 -0.254146 2.56343 0
M  V30 14929 H 1366.43 -1.97893 2.44307 0
M  V30 14930 N 1370.2 -1.34667 0.818693 0
M  V30 14931 C 1371.15 -2.31501 0.225816 0
M  V30 14932 C 1372.14 -1.57205 -0.631112 0
M  V30 14933 O 1373.35 -1.72237 -0.522924 0
M  V30 14934 H 1369.72 -0.750039 0.0542747 0
M  V30 14935 H 1371.69 -2.79036 1.05743 0
M  V30 14936 C 1370.44 -3.42464 -0.60114 0
M  V30 14937 H 1369.76 -3.9977 0.0489207 0
M  V30 14938 H 1371.2 -4.12468 -0.982154 0
M  V30 14939 C 1369.66 -2.86551 -1.77173 0
M  V30 14940 O 1370.19 -2.81085 -2.86974 0
M  V30 14941 N 1368.4 -2.43432 -1.58712 0
M  V30 14942 H 1367.95 -2.48077 -0.693958 0
M  V30 14943 H 1367.9 -2.06371 -2.37188 0
M  V30 14944 N 1371.68 -0.573274 -1.46804 0
M  V30 14945 C 1372.59 0.168081 -2.33997 0
M  V30 14946 C 1373.6 0.895652 -1.49178 0
M  V30 14947 O 1374.78 0.860951 -1.8207 0
M  V30 14948 C 1371.84 1.17483 -3.26188 0
M  V30 14949 C 1370.9 0.452956 -4.26904 0
M  V30 14950 C 1370.14 1.41175 -5.1469 0
M  V30 14951 O 1370.36 2.64767 -5.05227 0
M  V30 14952 O 1369.29 0.927472 -5.94711 0
M  V30 14953 H 1373.12 -0.547576 -2.98723 0
M  V30 14954 H 1370.71 -0.333747 -1.45624 0
M  V30 14955 H 1372.59 1.75557 -3.8309 0
M  V30 14956 H 1371.26 1.87213 -2.6407 0
M  V30 14957 H 1370.17 -0.169383 -3.73716 0
M  V30 14958 H 1371.5 -0.203186 -4.9178 0
M  V30 14959 N 1373.15 1.5451 -0.310553 0
M  V30 14960 C 1374.38 2.05204 0.301013 0
M  V30 14961 C 1374.8 1.1859 1.46007 0
M  V30 14962 O 1374.16 0.192081 1.8028 0
M  V30 14963 C 1374.21 3.53221 0.725767 0
M  V30 14964 O 1373.31 3.69596 1.82955 0
M  V30 14965 H 1372.66 0.661566 0.0568026 0
M  V30 14966 H 1375.19 1.99473 -0.455178 0
M  V30 14967 H 1375.2 3.9525 1.01198 0
M  V30 14968 H 1373.87 4.15721 -0.122046 0
M  V30 14969 H 1372.45 3.39472 1.54315 0
M  V30 14970 N 1374.63 0.0384594 1.57553 0
M  V30 14971 C 1375.86 -0.651613 1.96898 0
M  V30 14972 C 1376.28 -1.64328 0.915308 0
M  V30 14973 O 1375.64 -1.80883 -0.122824 0
M  V30 14974 C 1375.69 -1.32613 3.3533 0
M  V30 14975 O 1374.79 -2.44159 3.32355 0
M  V30 14976 H 1374.13 -0.170441 0.641752 0
M  V30 14977 H 1376.66 0.103086 2.0434 0
M  V30 14978 H 1376.67 -1.68076 3.71772 0
M  V30 14979 H 1375.35 -0.599275 4.1156 0
M  V30 14980 H 1373.93 -2.10738 3.07642 0
M  V30 14981 N 1376.11 -1.55841 -0.234795 0
M  V30 14982 C 1377.02 -1.94476 -1.31211 0
M  V30 14983 C 1378.04 -0.846782 -1.52005 0
M  V30 14984 O 1379.21 -1.14922 -1.65393 0
M  V30 14985 C 1376.28 -2.24213 -2.64442 0
M  V30 14986 C 1375.34 -3.47508 -2.52065 0
M  V30 14987 C 1374.57 -3.75817 -3.78942 0
M  V30 14988 O 1374.8 -3.06007 -4.81369 0
M  V30 14989 O 1373.73 -4.69328 -3.76848 0
M  V30 14990 H 1377.56 -2.8626 -1.01434 0
M  V30 14991 H 1375.14 -1.42879 -0.436563 0
M  V30 14992 H 1377.02 -2.44594 -3.4315 0
M  V30 14993 H 1375.7 -1.35605 -2.93927 0
M  V30 14994 H 1374.6 -3.32421 -1.71602 0
M  V30 14995 H 1375.94 -4.36457 -2.27523 0
M  V30 14996 N 1377.59 0.500963 -1.49426 0
M  V30 14997 C 1378.84 1.25694 -1.5915 0
M  V30 14998 C 1379.17 1.92209 -0.277365 0
M  V30 14999 O 1378.44 1.8072 0.719065 0
M  V30 15000 C 1378.73 2.32391 -2.75076 0
M  V30 15001 C 1378.58 1.70377 -4.16283 0
M  V30 15002 C 1379.9 3.33952 -2.86643 0
M  V30 15003 H 1377.02 0.455631 -0.579283 0
M  V30 15004 H 1379.66 0.555099 -1.8171 0
M  V30 15005 H 1377.81 2.92252 -2.55971 0
M  V30 15006 H 1379.48 1.14343 -4.46904 0
M  V30 15007 H 1377.72 1.00789 -4.21929 0
M  V30 15008 H 1378.4 2.47767 -4.9327 0
M  V30 15009 H 1380.87 2.84081 -3.04035 0
M  V30 15010 H 1379.75 4.05969 -3.69433 0
M  V30 15011 H 1380.01 3.96279 -1.95998 0
M  V30 15012 N 1379.07 1.38501 0.752011 0
M  V30 15013 C 1380.32 1.34112 1.50655 0
M  V30 15014 C 1380.63 -0.0657661 1.95489 0
M  V30 15015 O 1381.84 -0.232199 2.70505 0
M  V30 15016 C 1380.29 2.35514 2.72142 0
M  V30 15017 C 1379.9 3.81831 2.34326 0
M  V30 15018 C 1381.64 2.40171 3.50026 0
M  V30 15019 C 1379.55 4.74915 3.52434 0
M  V30 15020 H 1378.48 0.498519 0.565681 0
M  V30 15021 H 1381.13 1.64064 0.821913 0
M  V30 15022 H 1379.51 1.98607 3.42595 0
M  V30 15023 H 1380.69 4.27685 1.7153 0
M  V30 15024 H 1379 3.80308 1.69573 0
M  V30 15025 H 1381.6 3.06913 4.37845 0
M  V30 15026 H 1381.94 1.42111 3.91293 0
M  V30 15027 H 1382.48 2.75884 2.86588 0
M  V30 15028 H 1379.21 5.74176 3.16232 0
M  V30 15029 H 1378.73 4.33753 4.14268 0
M  V30 15030 H 1380.41 4.93003 4.18995 0
M  V30 15031 N 1380.55 -0.980364 1.23396 0
M  V30 15032 C 1381.79 -1.72421 1.06765 0
M  V30 15033 C 1382.12 -1.90151 -0.394515 0
M  V30 15034 O 1381.4 -1.4538 -1.29209 0
M  V30 15035 C 1381.68 -3.12246 1.79372 0
M  V30 15036 C 1381.54 -3.02087 3.33262 0
M  V30 15037 C 1382.85 -4.11667 1.55624 0
M  V30 15038 H 1379.97 -0.625822 0.389251 0
M  V30 15039 H 1382.62 -1.14132 1.51901 0
M  V30 15040 H 1380.77 -3.62008 1.41004 0
M  V30 15041 H 1382.44 -2.59848 3.81152 0
M  V30 15042 H 1380.68 -2.38592 3.62293 0
M  V30 15043 H 1381.35 -4.01087 3.79254 0
M  V30 15044 H 1383.83 -3.70712 1.88975 0
M  V30 15045 H 1382.7 -5.07593 2.08902 0
M  V30 15046 H 1382.96 -4.39358 0.491601 0
M  V30 15047 N 1382.02 -1.04567 -1.17913 0
M  V30 15048 C 1382.97 -0.611407 -2.19649 0
M  V30 15049 C 1383.96 0.348802 -1.57074 0
M  V30 15050 O 1385.15 0.167045 -1.7621 0
M  V30 15051 C 1382.28 0.0189379 -3.43295 0
M  V30 15052 C 1381.36 -0.96472 -4.12982 0
M  V30 15053 N 1381.76 -2.13371 -4.58592 0
M  V30 15054 C 1380.05 -0.791817 -4.38915 0
M  V30 15055 C 1380.75 -2.75549 -5.12296 0
M  V30 15056 N 1379.73 -2.0339 -5.04117 0
M  V30 15057 H 1383.53 -1.50217 -2.5261 0
M  V30 15058 H 1381.05 -0.914946 -1.34173 0
M  V30 15059 H 1383.04 0.347776 -4.15447 0
M  V30 15060 H 1381.7 0.905177 -3.11828 0
M  V30 15061 H 1382.71 -2.51236 -4.52881 0
M  V30 15062 H 1379.39 0.0439054 -4.17477 0
M  V30 15063 H 1380.78 -3.74647 -5.57754 0
M  V30 15064 N 1383.5 1.34231 -0.825823 0
M  V30 15065 C 1384.45 2.29467 -0.247724 0
M  V30 15066 C 1385.42 1.53724 0.629127 0
M  V30 15067 O 1386.6 1.82082 0.570156 0
M  V30 15068 C 1383.74 3.40157 0.582012 0
M  V30 15069 C 1382.86 4.30832 -0.317406 0
M  V30 15070 C 1381.99 5.28627 0.522176 0
M  V30 15071 C 1381.03 6.10941 -0.376448 0
M  V30 15072 N 1380.17 7.00817 0.424232 0
M  V30 15073 H 1385.01 2.78311 -1.06521 0
M  V30 15074 H 1382.54 1.36956 -0.536788 0
M  V30 15075 H 1384.5 4.03021 1.07843 0
M  V30 15076 H 1383.13 2.92539 1.36459 0
M  V30 15077 H 1382.18 3.68805 -0.932054 0
M  V30 15078 H 1383.5 4.88503 -1.00826 0
M  V30 15079 H 1382.65 5.96957 1.08295 0
M  V30 15080 H 1381.39 4.71501 1.24652 0
M  V30 15081 H 1380.39 5.41542 -0.94934 0
M  V30 15082 H 1381.62 6.70149 -1.09895 0
M  V30 15083 H 1379.57 6.46156 1.1322 0
M  V30 15084 H 1379.48 7.55713 -0.208175 0
M  V30 15085 H 1380.75 7.7347 0.967664 0
M  V30 15086 N 1384.98 0.581051 1.46498 0
M  V30 15087 C 1385.94 -0.142937 2.28754 0
M  V30 15088 C 1386.94 -0.820383 1.38298 0
M  V30 15089 O 1388.13 -0.672592 1.60692 0
M  V30 15090 C 1385.26 -1.21176 3.18637 0
M  V30 15091 H 1386.46 0.579918 2.9424 0
M  V30 15092 H 1384.01 0.338951 1.52581 0
M  V30 15093 H 1384.75 -1.96624 2.57894 0
M  V30 15094 H 1384.53 -0.730517 3.85235 0
M  V30 15095 H 1386.02 -1.71958 3.80552 0
M  V30 15096 N 1386.46 -1.54343 0.318742 0
M  V30 15097 C 1387.39 -2.20392 -0.591833 0
M  V30 15098 C 1388.37 -1.17931 -1.11942 0
M  V30 15099 O 1389.55 -1.4665 -1.18432 0
M  V30 15100 C 1386.68 -2.8618 -1.81159 0
M  V30 15101 C 1385.73 -4.02319 -1.41568 0
M  V30 15102 S 1386.56 -5.33551 -0.456481 0
M  V30 15103 C 1387.71 -6.02831 -1.68363 0
M  V30 15104 H 1387.95 -2.97284 -0.0307625 0
M  V30 15105 H 1385.48 -1.54057 0.102835 0
M  V30 15106 H 1387.44 -3.24707 -2.51148 0
M  V30 15107 H 1386.1 -2.091 -2.34384 0
M  V30 15108 H 1385.29 -4.47197 -2.32445 0
M  V30 15109 H 1384.89 -3.65441 -0.795535 0
M  V30 15110 H 1387.19 -6.24716 -2.62175 0
M  V30 15111 H 1388.13 -6.96488 -1.27709 0
M  V30 15112 H 1388.54 -5.32682 -1.86841 0
M  V30 15113 N 1387.94 -0.0468143 -1.5753 0
M  V30 15114 C 1389.21 0.667567 -1.83856 0
M  V30 15115 C 1389.59 1.89297 -0.934346 0
M  V30 15116 O 1388.94 2.28499 0.00570067 0
M  V30 15117 C 1389.15 1.029 -3.33485 0
M  V30 15118 C 1390.5 1.41315 -4.00394 0
M  V30 15119 O 1391.52 1.12147 -3.38085 0
M  V30 15120 O 1390.38 1.95732 -5.10246 0
M  V30 15121 H 1387.48 0.329112 -0.758692 0
M  V30 15122 H 1390.02 -0.0758456 -1.6953 0
M  V30 15123 H 1388.79 0.157617 -3.90982 0
M  V30 15124 H 1388.42 1.83 -3.52982 0
M  V30 15125 N 1389.41 1.55964 0.226527 0
M  V30 15126 C 1390.66 1.77944 0.94967 0
M  V30 15127 C 1390.98 0.614478 1.85697 0
M  V30 15128 O 1392.18 0.717793 2.6184 0
M  V30 15129 C 1390.64 3.15108 1.73881 0
M  V30 15130 C 1390.25 4.39314 0.877894 0
M  V30 15131 C 1391.99 3.46418 2.45347 0
M  V30 15132 C 1389.9 5.67505 1.6641 0
M  V30 15133 H 1388.83 0.663412 0.35833 0
M  V30 15134 H 1391.48 1.82366 0.203695 0
M  V30 15135 H 1389.86 3.04849 2.52751 0
M  V30 15136 H 1391.03 4.60616 0.130089 0
M  V30 15137 H 1389.35 4.15487 0.2756 0
M  V30 15138 H 1391.95 4.39416 3.0466 0
M  V30 15139 H 1392.29 2.68685 3.17985 0
M  V30 15140 H 1392.82 3.57984 1.73471 0
M  V30 15141 H 1389.56 6.48116 0.981089 0
M  V30 15142 H 1389.08 5.50272 2.38665 0
M  V30 15143 H 1390.76 6.075 2.22605 0
M  V30 15144 N 1390.89 -0.493031 1.4969 0
M  V30 15145 C 1391.8 -1.61991 1.69694 0
M  V30 15146 C 1392.82 -1.64061 0.579641 0
M  V30 15147 O 1393.99 -1.82335 0.855323 0
M  V30 15148 C 1391.06 -2.98323 1.76648 0
M  V30 15149 C 1390.12 -3.06816 3.00271 0
M  V30 15150 C 1389.35 -4.36644 3.06883 0
M  V30 15151 O 1389.58 -5.25901 2.20872 0
M  V30 15152 O 1388.51 -4.50275 3.99419 0
M  V30 15153 H 1392.34 -1.48042 2.65174 0
M  V30 15154 H 1389.92 -0.670182 1.33525 0
M  V30 15155 H 1391.8 -3.79335 1.83529 0
M  V30 15156 H 1390.48 -3.12517 0.843482 0
M  V30 15157 H 1389.39 -2.24962 2.98903 0
M  V30 15158 H 1390.72 -2.97551 3.92077 0
M  V30 15159 N 1392.37 -1.38898 -0.744656 0
M  V30 15160 C 1393.6 -1.38647 -1.53169 0
M  V30 15161 C 1394.01 0.0233199 -1.89186 0
M  V30 15162 O 1393.35 1.00261 -1.53927 0
M  V30 15163 C 1393.41 -2.18615 -2.85391 0
M  V30 15164 C 1393.08 -3.67342 -2.71862 0
M  V30 15165 C 1394.07 -4.60638 -2.41057 0
M  V30 15166 C 1391.76 -4.10809 -2.89035 0
M  V30 15167 C 1393.75 -5.95383 -2.27592 0
M  V30 15168 C 1391.44 -5.45632 -2.7519 0
M  V30 15169 C 1392.44 -6.37733 -2.44512 0
M  V30 15170 O 1392.13 -7.70074 -2.30741 0
M  V30 15171 H 1391.86 -0.475741 -0.480257 0
M  V30 15172 H 1394.41 -1.8321 -0.928621 0
M  V30 15173 H 1392.64 -1.68784 -3.47921 0
M  V30 15174 H 1394.33 -2.1066 -3.46954 0
M  V30 15175 H 1395.1 -4.28359 -2.2745 0
M  V30 15176 H 1390.98 -3.39462 -3.11908 0
M  V30 15177 H 1394.52 -6.67237 -2.03569 0
M  V30 15178 H 1390.42 -5.77504 -2.88373 0
M  V30 15179 H 1391.19 -7.80694 -2.45885 0
M  V30 15180 N 1393.85 0.973806 -1.23914 0
M  V30 15181 C 1394.8 2.08861 -1.02372 0
M  V30 15182 C 1395.79 1.69354 0.039415 0
M  V30 15183 O 1397 1.79635 -0.114637 0
M  V30 15184 H 1393.37 0.683313 -0.313986 0
M  V30 15185 H 1395.34 2.24195 -1.96924 0
M  V30 15186 C 1394.09 3.41784 -0.638661 0
M  V30 15187 H 1393.41 3.72639 -1.44846 0
M  V30 15188 H 1394.85 4.20706 -0.527487 0
M  V30 15189 C 1393.31 3.30497 0.65369 0
M  V30 15190 O 1393.84 3.63905 1.70107 0
M  V30 15191 N 1392.05 2.83642 0.632104 0
M  V30 15192 H 1391.6 2.56654 -0.220571 0
M  V30 15193 H 1391.55 2.76472 1.49701 0
M  V30 15194 N 1395.33 1.05191 1.17357 0
M  V30 15195 C 1396.6 0.675826 1.83554 0
M  V30 15196 C 1396.98 -0.843812 1.93502 0
M  V30 15197 O 1396.33 -1.74975 1.46956 0
M  V30 15198 C 1396.54 1.36481 3.21207 0
M  V30 15199 C 1397.89 1.50285 3.97114 0
M  V30 15200 O 1398.91 1.32382 3.30686 0
M  V30 15201 O 1397.77 1.79562 5.16159 0
M  V30 15202 H 1394.87 0.237898 0.792044 0
M  V30 15203 H 1397.41 1.1515 1.24654 0
M  V30 15204 H 1396.18 2.40156 3.08935 0
M  V30 15205 H 1395.81 0.878491 3.87774 0
M  V30 15206 N 1396.8 -1.33791 0.83293 0
M  V30 15207 C 1397.74 -2.27259 0.207019 0
M  V30 15208 C 1398.72 -1.49372 -0.642403 0
M  V30 15209 O 1399.9 -1.78562 -0.603963 0
M  V30 15210 C 1397.03 -3.31177 -0.709885 0
M  V30 15211 C 1396.07 -4.26453 0.0633036 0
M  V30 15212 S 1396.91 -5.16406 1.41721 0
M  V30 15213 C 1398.06 -6.23856 0.505446 0
M  V30 15214 H 1398.29 -2.79998 0.999422 0
M  V30 15215 H 1395.83 -1.40991 0.629361 0
M  V30 15216 H 1397.79 -3.91535 -1.23332 0
M  V30 15217 H 1396.45 -2.77265 -1.4759 0
M  V30 15218 H 1395.64 -4.99995 -0.634145 0
M  V30 15219 H 1395.24 -3.70401 0.517607 0
M  V30 15220 H 1397.53 -6.7684 -0.299066 0
M  V30 15221 H 1398.48 -6.97671 1.21084 0
M  V30 15222 H 1398.88 -5.64429 0.0894308 0
M  V30 15223 N 1398.28 -0.588812 -1.46187 0
M  V30 15224 C 1399.53 -0.076728 -2.02355 0
M  V30 15225 C 1399.86 1.28557 -1.45956 0
M  V30 15226 O 1399.11 1.85722 -0.616899 0
M  V30 15227 C 1399.41 0.0325249 -3.57385 0
M  V30 15228 C 1399.08 -1.26298 -4.32851 0
M  V30 15229 C 1397.74 -1.61789 -4.53186 0
M  V30 15230 C 1400.09 -2.12001 -4.76136 0
M  V30 15231 C 1397.42 -2.82771 -5.1406 0
M  V30 15232 C 1399.77 -3.32214 -5.38346 0
M  V30 15233 C 1398.44 -3.6798 -5.56908 0
M  V30 15234 H 1397.71 -0.0280768 -0.740468 0
M  V30 15235 H 1400.35 -0.766671 -1.75483 0
M  V30 15236 H 1398.66 0.805632 -3.83428 0
M  V30 15237 H 1400.35 0.444597 -3.98528 0
M  V30 15238 H 1396.94 -0.976692 -4.17323 0
M  V30 15239 H 1401.13 -1.85884 -4.60175 0
M  V30 15240 H 1396.38 -3.10611 -5.26622 0
M  V30 15241 H 1400.56 -3.98888 -5.70843 0
M  V30 15242 H 1398.19 -4.61815 -6.03846 0
M  V30 15243 N 1399.76 1.54172 -0.326923 0
M  V30 15244 C 1400.71 2.25931 0.552996 0
M  V30 15245 C 1401.7 1.27463 1.11578 0
M  V30 15246 O 1402.91 1.45228 1.06343 0
M  V30 15247 H 1399.28 0.725741 0.196988 0
M  V30 15248 H 1401.25 2.98307 -0.0744603 0
M  V30 15249 C 1400 3.03276 1.70056 0
M  V30 15250 H 1399.33 3.78865 1.27676 0
M  V30 15251 H 1400.77 3.56727 2.29177 0
M  V30 15252 C 1399.23 2.11775 2.62017 0
M  V30 15253 O 1399.76 1.70282 3.63822 0
M  V30 15254 N 1397.96 1.77195 2.30327 0
M  V30 15255 H 1397.51 2.11135 1.4758 0
M  V30 15256 H 1397.47 1.16253 2.92117 0
M  V30 15257 N 1401.24 0.0551678 1.57503 0
M  V30 15258 C 1402.19 -0.935665 2.12951 0
M  V30 15259 C 1403.18 -1.31954 1.06229 0
M  V30 15260 O 1404.39 -1.29873 1.24632 0
M  V30 15261 H 1400.76 -0.319618 0.680697 0
M  V30 15262 H 1402.73 -0.442937 2.95094 0
M  V30 15263 C 1401.48 -2.19977 2.69268 0
M  V30 15264 H 1400.8 -1.91319 3.51051 0
M  V30 15265 H 1402.24 -2.87456 3.11681 0
M  V30 15266 C 1400.7 -2.94714 1.63233 0
M  V30 15267 O 1401.23 -3.87803 1.04747 0
M  V30 15268 N 1399.44 -2.57518 1.34659 0
M  V30 15269 H 1398.99 -1.81894 1.82407 0
M  V30 15270 H 1398.94 -3.07829 0.639425 0
M  V30 15271 N 1402.72 -1.56081 -0.218252 0
M  V30 15272 C 1403.96 -1.79247 -0.942157 0
M  V30 15273 C 1404.29 -0.624492 -1.84202 0
M  V30 15274 O 1403.55 0.390973 -1.91755 0
M  V30 15275 C 1403.85 -3.08199 -1.80965 0
M  V30 15276 C 1403.51 -4.38197 -1.06274 0
M  V30 15277 C 1402.17 -4.73517 -0.856432 0
M  V30 15278 C 1404.53 -5.18441 -0.535532 0
M  V30 15279 C 1401.85 -5.86595 -0.111065 0
M  V30 15280 C 1404.21 -6.32295 0.196507 0
M  V30 15281 C 1402.87 -6.66215 0.414041 0
M  V30 15282 H 1402.14 -0.655913 -0.34476 0
M  V30 15283 H 1404.79 -1.90344 -0.210095 0
M  V30 15284 H 1403.09 -2.92238 -2.60967 0
M  V30 15285 H 1404.79 -3.23325 -2.37196 0
M  V30 15286 H 1401.38 -4.10466 -1.23352 0
M  V30 15287 H 1405.56 -4.91586 -0.682386 0
M  V30 15288 H 1400.82 -6.11363 0.0676711 0
M  V30 15289 H 1404.99 -6.93701 0.612516 0
M  V30 15290 H 1402.62 -7.5368 0.993532 0
M  V30 15291 N 1404.2 0.485086 -1.49949 0
M  V30 15292 C 1405.42 1.26179 -1.63971 0
M  V30 15293 C 1405.84 1.86113 -0.317408 0
M  V30 15294 O 1405.2 1.68581 0.699038 0
M  V30 15295 C 1405.25 2.38062 -2.72046 0
M  V30 15296 O 1404.97 1.80588 -3.99149 0
M  V30 15297 C 1406.47 3.29174 -2.96916 0
M  V30 15298 H 1403.69 0.382122 -0.551565 0
M  V30 15299 H 1406.23 0.580607 -1.96085 0
M  V30 15300 H 1404.39 3.0198 -2.42666 0
M  V30 15301 H 1404.8 2.54159 -4.58807 0
M  V30 15302 H 1406.28 4.03922 -3.76233 0
M  V30 15303 H 1406.75 3.87123 -2.07443 0
M  V30 15304 H 1407.36 2.71006 -3.27774 0
M  V30 15305 N 1405.67 1.39291 0.737279 0
M  V30 15306 C 1406.92 1.36592 1.49901 0
M  V30 15307 C 1407.25 -0.0388812 1.94161 0
M  V30 15308 O 1406.53 -1.00337 1.66622 0
M  V30 15309 C 1406.81 2.33625 2.74028 0
M  V30 15310 C 1406.66 3.83037 2.35802 0
M  V30 15311 C 1407.98 2.28524 3.76118 0
M  V30 15312 H 1405.1 0.497482 0.543765 0
M  V30 15313 H 1407.74 1.70265 0.843193 0
M  V30 15314 H 1405.89 2.0504 3.29986 0
M  V30 15315 H 1407.57 4.22363 1.85493 0
M  V30 15316 H 1405.81 3.99924 1.68058 0
M  V30 15317 H 1406.48 4.46415 3.24681 0
M  V30 15318 H 1408.96 2.53794 3.29739 0
M  V30 15319 H 1407.83 2.98501 4.60639 0
M  V30 15320 H 1408.09 1.28949 4.22876 0
M  V30 15321 N 1407.15 -0.967221 1.24429 0
M  V30 15322 C 1408.38 -1.75053 1.11226 0
M  V30 15323 C 1408.8 -1.85162 -0.331139 0
M  V30 15324 O 1408.16 -1.32288 -1.23974 0
M  V30 15325 C 1408.21 -3.14882 1.75733 0
M  V30 15326 O 1407.31 -3.99371 1.02842 0
M  V30 15327 H 1406.65 -0.538078 0.389061 0
M  V30 15328 H 1409.18 -1.21325 1.64746 0
M  V30 15329 H 1409.19 -3.65402 1.81509 0
M  V30 15330 H 1407.87 -3.06839 2.80754 0
M  V30 15331 H 1406.44 -3.57854 1.04856 0
M  V30 15332 N 1408.63 -1.05812 -1.16797 0
M  V30 15333 C 1409.88 -0.771923 -1.8721 0
M  V30 15334 C 1410.2 0.701365 -1.81414 0
M  V30 15335 O 1409.46 1.5292 -1.22122 0
M  V30 15336 C 1409.76 -1.20565 -3.3645 0
M  V30 15337 C 1409.42 -2.68222 -3.62447 0
M  V30 15338 C 1408.09 -3.08556 -3.69251 0
M  V30 15339 C 1410.44 -3.63607 -3.73416 0
M  V30 15340 C 1407.77 -4.43126 -3.84521 0
M  V30 15341 C 1410.12 -4.97918 -3.90205 0
M  V30 15342 C 1408.78 -5.37897 -3.9525 0
M  V30 15343 H 1408.05 -0.282467 -0.68505 0
M  V30 15344 H 1410.7 -1.32633 -1.38133 0
M  V30 15345 H 1409 -0.570347 -3.87626 0
M  V30 15346 H 1410.7 -0.961326 -3.89306 0
M  V30 15347 H 1407.29 -2.3599 -3.5778 0
M  V30 15348 H 1411.48 -3.33581 -3.67474 0
M  V30 15349 H 1406.73 -4.73593 -3.86677 0
M  V30 15350 H 1410.91 -5.71716 -3.97635 0
M  V30 15351 H 1408.53 -6.42176 -4.06834 0
M  V30 15352 N 1410.11 1.33347 -0.840014 0
M  V30 15353 C 1411.35 1.98447 -0.446154 0
M  V30 15354 C 1411.71 1.65334 0.984 0
M  V30 15355 O 1411 0.923523 1.67874 0
M  V30 15356 C 1411.2 3.52239 -0.605173 0
M  V30 15357 C 1411.02 4.00295 -2.04923 0
M  V30 15358 C 1409.79 4.28079 -2.68471 0
M  V30 15359 C 1411.99 4.16431 -3.0181 0
M  V30 15360 N 1409.97 4.62283 -4.0394 0
M  V30 15361 C 1411.35 4.54008 -4.22229 0
M  V30 15362 C 1413.4 3.98724 -2.982 0
M  V30 15363 C 1412.1 4.75727 -5.39515 0
M  V30 15364 C 1414.13 4.21619 -4.14718 0
M  V30 15365 C 1413.49 4.59499 -5.33892 0
M  V30 15366 H 1409.59 0.752797 -0.211707 0
M  V30 15367 H 1412.17 1.61443 -1.08832 0
M  V30 15368 H 1410.35 3.88399 0.00719937 0
M  V30 15369 H 1412.08 4.04288 -0.182645 0
M  V30 15370 H 1408.83 4.1961 -2.196 0
M  V30 15371 H 1409.26 4.83594 -4.73779 0
M  V30 15372 H 1413.9 3.68553 -2.07193 0
M  V30 15373 H 1411.62 5.04759 -6.31066 0
M  V30 15374 H 1415.2 4.09437 -4.13343 0
M  V30 15375 H 1414.08 4.76863 -6.22553 0
M  V30 15376 N 1411.59 0.596556 1.45873 0
M  V30 15377 C 1412.52 -0.116229 2.33211 0
M  V30 15378 C 1413.5 -0.869868 1.46176 0
M  V30 15379 O 1414.68 -0.842599 1.74968 0
M  V30 15380 C 1411.81 -1.12145 3.28696 0
M  V30 15381 C 1410.77 -0.481749 4.2528 0
M  V30 15382 C 1410.09 -1.59443 5.10374 0
M  V30 15383 C 1411.39 0.589996 5.18957 0
M  V30 15384 H 1413.09 0.613005 2.93057 0
M  V30 15385 H 1410.63 0.296242 1.4092 0
M  V30 15386 H 1412.58 -1.62857 3.88659 0
M  V30 15387 H 1411.31 -1.88114 2.66985 0
M  V30 15388 H 1409.97 0.0044092 3.666 0
M  V30 15389 H 1409.62 -2.34413 4.45039 0
M  V30 15390 H 1409.32 -1.17197 5.75794 0
M  V30 15391 H 1410.84 -2.10404 5.73204 0
M  V30 15392 H 1412.25 0.167395 5.73056 0
M  V30 15393 H 1410.65 0.933565 5.92794 0
M  V30 15394 H 1411.72 1.47093 4.62052 0
M  V30 15395 N 1413.06 -1.53996 0.335095 0
M  V30 15396 C 1414.48 -1.59591 -0.0171422 0
M  V30 15397 C 1414.68 -1.35132 -1.49471 0
M  V30 15398 O 1413.74 -1.14141 -2.25229 0
M  V30 15399 C 1415.05 -2.97872 0.411443 0
M  V30 15400 C 1416.6 -3.10887 0.363072 0
M  V30 15401 C 1417.07 -4.51532 0.766995 0
M  V30 15402 N 1418.56 -4.57557 0.72085 0
M  V30 15403 C 1419.3 -5.64516 1.00544 0
M  V30 15404 N 1418.79 -6.79365 1.35777 0
M  V30 15405 N 1420.59 -5.54349 0.930243 0
M  V30 15406 H 1412.74 -1.68151 1.29766 0
M  V30 15407 H 1415 -0.787067 0.528422 0
M  V30 15408 H 1414.71 -3.20809 1.44134 0
M  V30 15409 H 1414.58 -3.76571 -0.217678 0
M  V30 15410 H 1416.97 -2.87679 -0.657642 0
M  V30 15411 H 1417.05 -2.34266 1.02728 0
M  V30 15412 H 1416.69 -4.75474 1.78568 0
M  V30 15413 H 1416.62 -5.26539 0.0803511 0
M  V30 15414 H 1419.11 -3.75079 0.460867 0
M  V30 15415 H 1419.43 -7.56891 1.55999 0
M  V30 15416 H 1417.77 -6.80833 1.39614 0
M  V30 15417 H 1420.96 -4.63503 0.654402 0
M  V30 15418 H 1421.14 -6.37616 1.15539 0
M  V30 15419 N 1414.54 -0.0635198 -1.57472 0
M  V30 15420 C 1415.79 0.608384 -1.93459 0
M  V30 15421 C 1416.12 1.6976 -0.943141 0
M  V30 15422 O 1415.4 1.94478 0.0289567 0
M  V30 15423 C 1415.68 1.19302 -3.39763 0
M  V30 15424 C 1415.53 0.11102 -4.49663 0
M  V30 15425 C 1416.85 2.101 -3.86712 0
M  V30 15426 H 1413.97 0.219688 -0.703496 0
M  V30 15427 H 1416.61 -0.127803 -1.8957 0
M  V30 15428 H 1414.76 1.82044 -3.43209 0
M  V30 15429 H 1416.43 -0.521606 -4.58342 0
M  V30 15430 H 1414.68 -0.559408 -4.30178 0
M  V30 15431 H 1415.35 0.560332 -5.49149 0
M  V30 15432 H 1417.82 1.57305 -3.8522 0
M  V30 15433 H 1416.7 2.47945 -4.89708 0
M  V30 15434 H 1416.96 3.00603 -3.24177 0
M  V30 15435 N 1416.02 1.56195 0.209972 0
M  V30 15436 C 1417.43 1.69811 0.775969 0
M  V30 15437 C 1417.78 0.667543 1.84495 0
M  V30 15438 O 1416.91 -0.179043 2.15658 0
M  V30 15439 C 1417.5 3.07869 1.41429 0
M  V30 15440 C 1416.06 3.233 1.92755 0
M  V30 15441 C 1415.21 2.6575 0.791958 0
M  V30 15442 H 1418.16 1.58693 -0.0148727 0
M  V30 15443 H 1418.18 3.04371 2.28339 0
M  V30 15444 H 1417.69 3.82853 0.63604 0
M  V30 15445 H 1415.79 2.53206 2.73345 0
M  V30 15446 H 1415.91 4.30645 2.09956 0
M  V30 15447 H 1414.27 2.24535 1.20234 0
M  V30 15448 H 1415.05 3.4329 0.0261877 0
M  V30 15449 N 1417.5 -0.477127 1.50204 0
M  V30 15450 C 1418.44 -1.57587 1.68626 0
M  V30 15451 C 1419.41 -1.57499 0.527576 0
M  V30 15452 O 1420.6 -1.75121 0.757438 0
M  V30 15453 C 1417.74 -2.956 1.78086 0
M  V30 15454 C 1416.85 -3.05523 3.05417 0
M  V30 15455 C 1415.99 -4.34414 3.05709 0
M  V30 15456 C 1415.03 -4.38057 4.27519 0
M  V30 15457 N 1414.16 -5.5841 4.25585 0
M  V30 15458 H 1419 -1.41185 2.62433 0
M  V30 15459 H 1416.54 -0.686537 1.30096 0
M  V30 15460 H 1418.5 -3.75626 1.81552 0
M  V30 15461 H 1417.13 -3.10651 0.877251 0
M  V30 15462 H 1416.18 -2.18409 3.11451 0
M  V30 15463 H 1417.49 -3.04075 3.95398 0
M  V30 15464 H 1416.65 -5.22782 3.07871 0
M  V30 15465 H 1415.39 -4.38462 2.13548 0
M  V30 15466 H 1414.39 -3.48087 4.25577 0
M  V30 15467 H 1415.62 -4.35705 5.20901 0
M  V30 15468 H 1413.56 -5.63255 3.36274 0
M  V30 15469 H 1413.48 -5.58677 5.09328 0
M  V30 15470 H 1414.75 -6.4892 4.31884 0
M  V30 15471 N 1418.98 -1.3968 -0.729882 0
M  V30 15472 C 1420.22 -1.37385 -1.49175 0
M  V30 15473 C 1420.56 0.0285839 -1.94179 0
M  V30 15474 O 1419.83 0.994516 -1.67152 0
M  V30 15475 C 1420.11 -2.35075 -2.72785 0
M  V30 15476 C 1419.97 -3.84282 -2.33767 0
M  V30 15477 C 1421.29 -2.30515 -3.74901 0
M  V30 15478 H 1418.4 -0.500359 -0.541119 0
M  V30 15479 H 1421.05 -1.7071 -0.834152 0
M  V30 15480 H 1419.2 -2.06787 -3.28894 0
M  V30 15481 H 1420.87 -4.2334 -1.8325 0
M  V30 15482 H 1419.11 -4.00809 -1.65935 0
M  V30 15483 H 1419.78 -4.48131 -3.22309 0
M  V30 15484 H 1422.26 -2.55539 -3.28389 0
M  V30 15485 H 1421.13 -3.00939 -4.5905 0
M  V30 15486 H 1421.4 -1.3119 -4.22187 0
M  V30 15487 N 1420.45 0.960609 -1.2494 0
M  V30 15488 C 1421.68 1.7446 -1.12153 0
M  V30 15489 C 1422.1 1.85335 0.321315 0
M  V30 15490 O 1421.46 1.32944 1.23271 0
M  V30 15491 C 1421.51 3.13945 -1.774 0
M  V30 15492 O 1420.61 3.9882 -1.04958 0
M  V30 15493 H 1419.96 0.536007 -0.391909 0
M  V30 15494 H 1422.49 1.2045 -1.65388 0
M  V30 15495 H 1422.5 3.64434 -1.83444 0
M  V30 15496 H 1421.17 3.05346 -2.82377 0
M  V30 15497 H 1419.75 3.57293 -1.06752 0
M  V30 15498 N 1421.93 1.0643 1.16234 0
M  V30 15499 C 1422.9 0.680383 2.18869 0
M  V30 15500 C 1423.9 -0.274591 1.58438 0
M  V30 15501 O 1425.09 -0.0567907 1.74107 0
M  V30 15502 C 1422.22 0.00134091 3.409 0
M  V30 15503 H 1423.41 1.58894 2.54347 0
M  V30 15504 H 1420.96 0.859688 1.30534 0
M  V30 15505 H 1421.7 -0.919903 3.1098 0
M  V30 15506 H 1421.48 0.688057 3.86016 0
M  V30 15507 H 1422.97 -0.252938 4.16833 0
M  V30 15508 N 1423.41 -1.329 0.847073 0
M  V30 15509 C 1424.64 -2.02244 0.459588 0
M  V30 15510 C 1425.06 -1.63279 -0.933897 0
M  V30 15511 O 1424.42 -0.829551 -1.61208 0
M  V30 15512 C 1424.47 -3.55616 0.59745 0
M  V30 15513 O 1423.57 -4.1071 -0.372919 0
M  V30 15514 H 1422.91 -0.637504 0.1857 0
M  V30 15515 H 1425.44 -1.69617 1.14417 0
M  V30 15516 H 1425.45 -4.05141 0.482145 0
M  V30 15517 H 1424.13 -3.8332 1.61365 0
M  V30 15518 H 1422.7 -3.72283 -0.214487 0
M  V30 15519 N 1424.89 -0.604284 -1.45555 0
M  V30 15520 C 1425.84 0.137842 -2.27583 0
M  V30 15521 C 1426.82 0.841681 -1.3713 0
M  V30 15522 O 1428.01 0.732216 -1.61145 0
M  V30 15523 C 1425.14 1.13675 -3.23934 0
M  V30 15524 C 1424.23 0.433916 -4.21874 0
M  V30 15525 N 1424.62 -0.522599 -5.03093 0
M  V30 15526 C 1422.92 0.681898 -4.40756 0
M  V30 15527 C 1423.62 -0.935401 -5.7413 0
M  V30 15528 N 1422.6 -0.279863 -5.42879 0
M  V30 15529 H 1426.4 -0.596862 -2.87776 0
M  V30 15530 H 1423.91 -0.427701 -1.56667 0
M  V30 15531 H 1425.91 1.68278 -3.81429 0
M  V30 15532 H 1424.57 1.87204 -2.65301 0
M  V30 15533 H 1425.58 -0.899187 -5.10034 0
M  V30 15534 H 1422.26 1.40212 -3.93252 0
M  V30 15535 H 1423.65 -1.72412 -6.49403 0
M  V30 15536 N 1426.37 1.53816 -0.343257 0
M  V30 15537 C 1427.3 2.27951 0.506005 0
M  V30 15538 C 1428.28 1.29502 1.10287 0
M  V30 15539 O 1429.46 1.58344 1.12432 0
M  V30 15540 C 1426.59 3.0521 1.65723 0
M  V30 15541 C 1425.55 4.11161 1.18871 0
M  V30 15542 C 1424.87 4.76373 2.42843 0
M  V30 15543 C 1426.17 5.21498 0.289403 0
M  V30 15544 H 1427.87 2.99189 -0.112435 0
M  V30 15545 H 1425.41 1.43893 -0.055516 0
M  V30 15546 H 1427.37 3.55811 2.2578 0
M  V30 15547 H 1426.09 2.31624 2.30256 0
M  V30 15548 H 1424.75 3.61473 0.610962 0
M  V30 15549 H 1424.4 3.99381 3.05784 0
M  V30 15550 H 1424.1 5.47955 2.12177 0
M  V30 15551 H 1425.62 5.29758 3.03627 0
M  V30 15552 H 1427.03 5.67736 0.796808 0
M  V30 15553 H 1425.43 6.00054 0.0746366 0
M  V30 15554 H 1426.5 4.80185 -0.674543 0
M  V30 15555 N 1427.84 0.0718701 1.57436 0
M  V30 15556 C 1428.75 -0.910077 2.16229 0
M  V30 15557 C 1429.77 -1.32699 1.12548 0
M  V30 15558 O 1430.95 -1.39967 1.44814 0
M  V30 15559 C 1428.01 -2.15942 2.71238 0
M  V30 15560 C 1427.07 -1.79891 3.89792 0
M  V30 15561 C 1426.31 -2.9887 4.42168 0
M  V30 15562 O 1426.53 -4.1289 3.93545 0
M  V30 15563 O 1425.46 -2.78682 5.33498 0
M  V30 15564 H 1429.29 -0.439969 3.00496 0
M  V30 15565 H 1426.87 -0.151204 1.48633 0
M  V30 15566 H 1428.76 -2.89204 3.06494 0
M  V30 15567 H 1427.43 -2.62051 1.90029 0
M  V30 15568 H 1426.34 -1.03881 3.59388 0
M  V30 15569 H 1427.67 -1.38566 4.72293 0
M  V30 15570 N 1429.32 -1.56304 -0.201686 0
M  V30 15571 C 1430.25 -1.90538 -1.27389 0
M  V30 15572 C 1431.27 -0.795422 -1.42045 0
M  V30 15573 O 1432.46 -1.07381 -1.42589 0
M  V30 15574 C 1429.56 -2.11638 -2.64694 0
M  V30 15575 C 1428.73 -3.42755 -2.71731 0
M  V30 15576 C 1427.79 -3.53047 -3.90185 0
M  V30 15577 O 1426.81 -4.25923 -3.77595 0
M  V30 15578 N 1428.02 -2.85649 -5.05356 0
M  V30 15579 H 1430.78 -2.83106 -0.983411 0
M  V30 15580 H 1428.34 -1.57092 -0.391638 0
M  V30 15581 H 1430.33 -2.15818 -3.42352 0
M  V30 15582 H 1428.9 -1.256 -2.86258 0
M  V30 15583 H 1428.12 -3.50501 -1.80397 0
M  V30 15584 H 1429.41 -4.29092 -2.73418 0
M  V30 15585 H 1428.81 -2.26256 -5.18483 0
M  V30 15586 H 1427.37 -2.95465 -5.80985 0
M  V30 15587 N 1430.8 0.469154 -1.50455 0
M  V30 15588 C 1432.03 1.24252 -1.65061 0
M  V30 15589 C 1432.44 1.86226 -0.334121 0
M  V30 15590 O 1431.78 1.70082 0.694109 0
M  V30 15591 C 1431.84 2.39007 -2.68544 0
M  V30 15592 C 1431.51 1.97655 -4.12046 0
M  V30 15593 C 1432.5 1.49796 -4.97852 0
M  V30 15594 C 1430.19 2.06316 -4.57973 0
M  V30 15595 C 1432.18 1.11145 -6.27635 0
M  V30 15596 C 1429.87 1.67276 -5.8776 0
M  V30 15597 C 1430.87 1.19769 -6.72417 0
M  V30 15598 O 1430.56 0.812708 -7.99781 0
M  V30 15599 H 1430.29 0.381848 -0.557824 0
M  V30 15600 H 1432.84 0.566191 -1.97442 0
M  V30 15601 H 1431.07 3.09817 -2.31409 0
M  V30 15602 H 1432.76 3.00965 -2.7235 0
M  V30 15603 H 1433.53 1.42525 -4.63586 0
M  V30 15604 H 1429.41 2.42242 -3.92224 0
M  V30 15605 H 1432.95 0.739936 -6.93665 0
M  V30 15606 H 1428.85 1.74208 -6.21548 0
M  V30 15607 H 1429.62 0.941386 -8.13068 0
M  V30 15608 N 1432.28 1.40065 0.722464 0
M  V30 15609 C 1433.53 1.37698 1.47932 0
M  V30 15610 C 1433.85 -0.0222608 1.94987 0
M  V30 15611 O 1433.12 -0.975795 1.69868 0
M  V30 15612 H 1431.7 0.506766 0.548815 0
M  V30 15613 H 1434.36 1.75053 0.856884 0
M  V30 15614 H 1433.46 2.04756 2.35545 0
M  V30 15615 N 1433.76 -0.95397 1.25448 0
M  V30 15616 C 1434.99 -1.73331 1.12977 0
M  V30 15617 C 1435.4 -1.86131 -0.316364 0
M  V30 15618 O 1434.76 -1.35951 -1.21753 0
M  V30 15619 C 1434.81 -3.14675 1.77938 0
M  V30 15620 O 1434.53 -3.025 3.16899 0
M  V30 15621 C 1436.03 -4.08884 1.71256 0
M  V30 15622 H 1433.25 -0.543118 0.394036 0
M  V30 15623 H 1435.79 -1.19678 1.65823 0
M  V30 15624 H 1433.95 -3.6527 1.29062 0
M  V30 15625 H 1434.36 -3.91668 3.4885 0
M  V30 15626 H 1435.84 -5.05668 2.21368 0
M  V30 15627 H 1436.31 -4.33959 0.676476 0
M  V30 15628 H 1436.92 -3.64205 2.19624 0
M  V30 15629 N 1435.24 -1.07045 -1.15668 0
M  V30 15630 C 1436.18 -0.68226 -2.22369 0
M  V30 15631 C 1437.18 0.305448 -1.66623 0
M  V30 15632 O 1438.38 0.169495 -1.792 0
M  V30 15633 H 1434.76 -0.202536 -0.724212 0
M  V30 15634 H 1436.73 -1.59187 -2.52393 0
M  V30 15635 C 1435.48 -0.0928131 -3.47576 0
M  V30 15636 H 1434.8 -0.843964 -3.90791 0
M  V30 15637 H 1436.24 0.14118 -4.23765 0
M  V30 15638 C 1434.7 1.16567 -3.16091 0
M  V30 15639 O 1435.23 2.25257 -3.32599 0
M  V30 15640 N 1433.44 1.07061 -2.7016 0
M  V30 15641 H 1432.98 0.186091 -2.56927 0
M  V30 15642 H 1432.94 1.91346 -2.49468 0
M  V30 15643 N 1436.71 1.32449 -0.85411 0
M  V30 15644 C 1437.62 2.32658 -0.301221 0
M  V30 15645 C 1438.64 1.64025 0.580673 0
M  V30 15646 O 1439.82 1.95568 0.481172 0
M  V30 15647 C 1436.88 3.43049 0.501803 0
M  V30 15648 C 1435.94 4.27374 -0.406166 0
M  V30 15649 C 1435.17 5.32494 0.358627 0
M  V30 15650 O 1435.4 5.4783 1.58865 0
M  V30 15651 O 1434.33 6.0127 -0.275291 0
M  V30 15652 H 1438.16 2.81838 -1.13143 0
M  V30 15653 H 1435.74 1.36063 -0.617032 0
M  V30 15654 H 1437.62 4.10375 0.957608 0
M  V30 15655 H 1436.3 2.9606 1.30882 0
M  V30 15656 H 1435.21 3.6286 -0.910136 0
M  V30 15657 H 1436.54 4.77887 -1.17835 0
M  V30 15658 N 1438.19 0.611994 1.45232 0
M  V30 15659 C 1439.42 0.115242 2.06278 0
M  V30 15660 C 1439.83 -1.20752 1.45656 0
M  V30 15661 O 1439.17 -1.7474 0.566697 0
M  V30 15662 C 1439.23 -0.0941449 3.59377 0
M  V30 15663 C 1438.9 1.1475 4.42359 0
M  V30 15664 C 1439.9 2.06669 4.77058 0
M  V30 15665 C 1437.58 1.37756 4.83041 0
M  V30 15666 C 1439.57 3.19919 5.51299 0
M  V30 15667 C 1437.26 2.51306 5.57035 0
M  V30 15668 C 1438.26 3.42216 5.91082 0
M  V30 15669 O 1437.95 4.5379 6.63574 0
M  V30 15670 H 1437.68 0.0680317 0.672568 0
M  V30 15671 H 1440.23 0.840932 1.87397 0
M  V30 15672 H 1438.46 -0.874775 3.76676 0
M  V30 15673 H 1440.15 -0.543047 4.02251 0
M  V30 15674 H 1440.92 1.90122 4.46182 0
M  V30 15675 H 1436.8 0.678922 4.55973 0
M  V30 15676 H 1440.34 3.90901 5.77791 0
M  V30 15677 H 1436.24 2.67804 5.87325 0
M  V30 15678 H 1437.01 4.52527 6.82027 0
M  V30 15679 N 1439.67 -1.53632 0.351409 0
M  V30 15680 C 1440.89 -2.0593 -0.246501 0
M  V30 15681 C 1441.32 -1.22419 -1.42812 0
M  V30 15682 O 1440.68 -0.239811 -1.79707 0
M  V30 15683 C 1440.73 -3.55021 -0.631862 0
M  V30 15684 O 1439.83 -3.74317 -1.73092 0
M  V30 15685 H 1439.17 -0.662839 -0.0392424 0
M  V30 15686 H 1441.7 -1.98196 0.507904 0
M  V30 15687 H 1441.71 -3.97795 -0.906831 0
M  V30 15688 H 1440.39 -4.15251 0.232224 0
M  V30 15689 H 1438.96 -3.43444 -1.4526 0
M  V30 15690 N 1441.15 -0.0802183 -1.57396 0
M  V30 15691 C 1442.4 0.586573 -1.92982 0
M  V30 15692 C 1442.71 1.70256 -0.962918 0
M  V30 15693 O 1443.92 2.4295 -1.21193 0
M  V30 15694 C 1442.37 1.09475 -3.42846 0
M  V30 15695 C 1441.98 0.0093098 -4.47999 0
M  V30 15696 C 1443.72 1.73512 -3.87419 0
M  V30 15697 C 1441.63 0.532002 -5.89002 0
M  V30 15698 H 1440.56 0.222878 -0.720306 0
M  V30 15699 H 1443.21 -0.153816 -1.82854 0
M  V30 15700 H 1441.59 1.88836 -3.48076 0
M  V30 15701 H 1442.77 -0.765609 -4.54395 0
M  V30 15702 H 1441.08 -0.535345 -4.12944 0
M  V30 15703 H 1443.68 2.13665 -4.90154 0
M  V30 15704 H 1444.02 2.59845 -3.25248 0
M  V30 15705 H 1444.56 1.00758 -3.84828 0
M  V30 15706 H 1441.29 -0.294364 -6.54839 0
M  V30 15707 H 1440.81 1.27425 -5.86108 0
M  V30 15708 H 1442.49 1.00573 -6.39135 0
M  V30 15709 N 1442.63 1.56409 0.193394 0
M  V30 15710 C 1443.87 1.79919 0.911712 0
M  V30 15711 C 1444.19 0.653729 1.84352 0
M  V30 15712 O 1445.39 0.773172 2.60258 0
M  V30 15713 C 1443.85 3.18726 1.67158 0
M  V30 15714 C 1443.46 4.41078 0.784512 0
M  V30 15715 C 1445.2 3.51544 2.37944 0
M  V30 15716 C 1443.11 5.70907 1.54335 0
M  V30 15717 H 1442.04 0.670864 0.344177 0
M  V30 15718 H 1444.69 1.82757 0.164967 0
M  V30 15719 H 1443.07 3.10142 2.46227 0
M  V30 15720 H 1444.25 4.60789 0.032356 0
M  V30 15721 H 1442.56 4.15978 0.187407 0
M  V30 15722 H 1445.16 4.45779 2.95271 0
M  V30 15723 H 1445.5 2.75369 3.12214 0
M  V30 15724 H 1446.03 3.61583 1.65839 0
M  V30 15725 H 1442.77 6.50052 0.843393 0
M  V30 15726 H 1442.29 5.5521 2.26939 0
M  V30 15727 H 1443.97 6.12085 2.09669 0
M  V30 15728 N 1444.1 -0.461169 1.50702 0
M  V30 15729 C 1445.33 -1.24019 1.66235 0
M  V30 15730 C 1445.75 -1.84827 0.349388 0
M  V30 15731 O 1445.11 -1.67743 -0.687888 0
M  V30 15732 C 1445.16 -2.31743 2.76274 0
M  V30 15733 O 1444.26 -3.3664 2.38217 0
M  V30 15734 H 1443.6 -0.364424 0.55506 0
M  V30 15735 H 1446.13 -0.547636 1.97135 0
M  V30 15736 H 1446.14 -2.76902 2.99649 0
M  V30 15737 H 1444.82 -1.86858 3.7156 0
M  V30 15738 H 1443.4 -2.97123 2.25327 0
M  V30 15739 N 1445.58 -1.40446 -0.715026 0
M  V30 15740 C 1446.81 -1.42263 -1.50917 0
M  V30 15741 C 1447.23 -0.0242402 -1.88084 0
M  V30 15742 O 1446.59 0.967817 -1.53307 0
M  V30 15743 C 1446.64 -2.31998 -2.7606 0
M  V30 15744 O 1445.74 -1.76361 -3.72787 0
M  V30 15745 H 1445.08 -0.483614 -0.454988 0
M  V30 15746 H 1447.61 -1.84682 -0.880549 0
M  V30 15747 H 1447.62 -2.47204 -3.24583 0
M  V30 15748 H 1446.3 -3.33614 -2.48343 0
M  V30 15749 H 1444.87 -1.70504 -3.31636 0
M  V30 15750 N 1447.06 0.947303 -1.25952 0
M  V30 15751 C 1447.99 2.04485 -1.01297 0
M  V30 15752 C 1448.97 1.62488 0.06024 0
M  V30 15753 O 1450.15 1.88326 -0.0809237 0
M  V30 15754 C 1447.28 3.34484 -0.532733 0
M  V30 15755 C 1446.33 3.95449 -1.59758 0
M  V30 15756 S 1447.16 4.30498 -3.18484 0
M  V30 15757 C 1448.32 5.63605 -2.72213 0
M  V30 15758 H 1448.55 2.25084 -1.94228 0
M  V30 15759 H 1446.08 1.0879 -1.09564 0
M  V30 15760 H 1448.04 4.09661 -0.262309 0
M  V30 15761 H 1446.7 3.11839 0.376192 0
M  V30 15762 H 1445.89 4.892 -1.21243 0
M  V30 15763 H 1445.5 3.26781 -1.81907 0
M  V30 15764 H 1447.79 6.42046 -2.16295 0
M  V30 15765 H 1448.73 6.07 -3.64633 0
M  V30 15766 H 1449.14 5.2319 -2.11974 0
M  V30 15767 N 1448.54 1.07657 1.15099 0
M  V30 15768 C 1449.49 0.699678 2.19939 0
M  V30 15769 C 1450.46 -0.310432 1.63173 0
M  V30 15770 O 1451.64 -0.196177 1.89789 0
M  V30 15771 C 1448.78 0.106963 3.44934 0
M  V30 15772 C 1447.89 1.16892 4.15885 0
M  V30 15773 C 1447.03 0.540884 5.28439 0
M  V30 15774 C 1446.07 1.58542 5.91211 0
M  V30 15775 N 1445.2 0.979731 6.95231 0
M  V30 15776 H 1450.04 1.59805 2.51528 0
M  V30 15777 H 1447.58 0.798746 1.23525 0
M  V30 15778 H 1449.54 -0.254335 4.16424 0
M  V30 15779 H 1448.17 -0.754756 3.13852 0
M  V30 15780 H 1447.22 1.64775 3.4286 0
M  V30 15781 H 1448.53 1.96078 4.58645 0
M  V30 15782 H 1447.69 0.127397 6.06566 0
M  V30 15783 H 1446.43 -0.282708 4.8688 0
M  V30 15784 H 1445.43 2.00865 5.11794 0
M  V30 15785 H 1446.66 2.41135 6.34847 0
M  V30 15786 H 1444.6 0.177098 6.55761 0
M  V30 15787 H 1444.52 1.70878 7.36435 0
M  V30 15788 H 1445.79 0.591849 7.7725 0
M  V30 15789 N 1450.02 -1.31994 0.861122 0
M  V30 15790 C 1450.96 -2.28729 0.308476 0
M  V30 15791 C 1451.93 -1.55338 -0.588148 0
M  V30 15792 O 1453.12 -1.8353 -0.52168 0
M  V30 15793 C 1450.26 -3.4158 -0.491621 0
M  V30 15794 C 1449.37 -4.29839 0.431522 0
M  V30 15795 C 1448.51 -5.29826 -0.381836 0
M  V30 15796 C 1447.55 -6.09728 0.538296 0
M  V30 15797 N 1446.68 -7.01696 -0.238274 0
M  V30 15798 H 1451.52 -2.75389 1.13863 0
M  V30 15799 H 1449.06 -1.35485 0.572911 0
M  V30 15800 H 1451.02 -4.05738 -0.971193 0
M  V30 15801 H 1449.65 -2.96054 -1.28654 0
M  V30 15802 H 1448.7 -3.66204 1.02951 0
M  V30 15803 H 1450.01 -4.85658 1.13742 0
M  V30 15804 H 1449.17 -5.99618 -0.924297 0
M  V30 15805 H 1447.9 -4.7464 -1.12107 0
M  V30 15806 H 1446.91 -5.38834 1.09259 0
M  V30 15807 H 1448.13 -6.67 1.27625 0
M  V30 15808 H 1446.08 -6.4893 -0.960486 0
M  V30 15809 H 1446 -7.54896 0.408466 0
M  V30 15810 H 1447.27 -7.75764 -0.762252 0
M  V30 15811 N 1451.49 -0.619688 -1.44906 0
M  V30 15812 C 1452.44 0.113696 -2.27716 0
M  V30 15813 C 1453.43 0.82709 -1.38015 0
M  V30 15814 O 1454.62 0.715083 -1.61912 0
M  V30 15815 C 1451.75 1.10233 -3.25121 0
M  V30 15816 C 1450.84 0.389147 -4.22311 0
M  V30 15817 N 1451.23 -0.575929 -5.0251 0
M  V30 15818 C 1449.52 0.635112 -4.41455 0
M  V30 15819 C 1450.23 -0.996243 -5.73105 0
M  V30 15820 N 1449.2 -0.337427 -5.42552 0
M  V30 15821 H 1453 -0.627351 -2.87126 0
M  V30 15822 H 1450.52 -0.444293 -1.56204 0
M  V30 15823 H 1452.51 1.64223 -3.83192 0
M  V30 15824 H 1451.17 1.8438 -2.67272 0
M  V30 15825 H 1452.19 -0.953232 -5.09052 0
M  V30 15826 H 1448.86 1.36033 -3.94717 0
M  V30 15827 H 1450.25 -1.7929 -6.47537 0
M  V30 15828 N 1452.97 1.53444 -0.359552 0
M  V30 15829 C 1454.2 2.06058 0.235576 0
M  V30 15830 C 1454.62 1.23175 1.42161 0
M  V30 15831 O 1453.98 0.249338 1.79577 0
M  V30 15832 C 1454.03 3.55351 0.613025 0
M  V30 15833 O 1453.13 3.75229 1.71104 0
M  V30 15834 H 1452.47 0.663038 0.0357266 0
M  V30 15835 H 1455 1.97923 -0.518408 0
M  V30 15836 H 1455.01 3.9827 0.885722 0
M  V30 15837 H 1453.69 4.15122 -0.254243 0
M  V30 15838 H 1452.27 3.4421 1.43437 0
M  V30 15839 N 1454.45 0.0885642 1.57351 0
M  V30 15840 C 1455.38 -0.869946 2.16689 0
M  V30 15841 C 1456.36 -1.29878 1.09844 0
M  V30 15842 O 1457.55 -1.36684 1.37954 0
M  V30 15843 C 1454.68 -2.13148 2.74199 0
M  V30 15844 C 1453.63 -1.84149 3.86359 0
M  V30 15845 C 1452.96 -3.17075 4.30543 0
M  V30 15846 C 1454.26 -1.13357 5.09851 0
M  V30 15847 H 1455.95 -0.375578 2.97035 0
M  V30 15848 H 1453.5 -0.17921 1.42881 0
M  V30 15849 H 1455.45 -2.80634 3.14361 0
M  V30 15850 H 1454.17 -2.64856 1.91098 0
M  V30 15851 H 1452.83 -1.19063 3.46727 0
M  V30 15852 H 1452.48 -3.66658 3.44342 0
M  V30 15853 H 1452.18 -2.98457 5.06159 0
M  V30 15854 H 1453.7 -3.85731 4.73333 0
M  V30 15855 H 1455.12 -1.70941 5.47222 0
M  V30 15856 H 1453.52 -1.0494 5.90853 0
M  V30 15857 H 1454.59 -0.115273 4.84763 0
M  V30 15858 N 1455.93 -1.56509 -0.185096 0
M  V30 15859 C 1457.15 -1.85683 -0.923941 0
M  V30 15860 C 1457.58 -0.673315 -1.75636 0
M  V30 15861 O 1456.94 0.3778 -1.7732 0
M  V30 15862 C 1456.98 -3.13165 -1.78774 0
M  V30 15863 O 1456.09 -2.9442 -2.88775 0
M  V30 15864 H 1455.43 -0.611139 -0.259624 0
M  V30 15865 H 1457.96 -2.0374 -0.187393 0
M  V30 15866 H 1457.97 -3.44216 -2.19042 0
M  V30 15867 H 1456.64 -3.98922 -1.17619 0
M  V30 15868 H 1455.22 -2.7469 -2.5219 0
M  V30 15869 N 1457.41 0.45317 -1.50944 0
M  V30 15870 C 1458.66 1.20076 -1.62064 0
M  V30 15871 C 1458.97 1.92709 -0.335034 0
M  V30 15872 O 1460.17 2.69543 -0.32538 0
M  V30 15873 C 1458.63 2.18283 -2.86148 0
M  V30 15874 C 1458.24 1.5137 -4.21653 0
M  V30 15875 C 1459.98 2.93572 -3.0662 0
M  V30 15876 C 1457.89 2.47968 -5.36904 0
M  V30 15877 H 1456.82 0.451894 -0.603579 0
M  V30 15878 H 1459.47 0.46937 -1.77396 0
M  V30 15879 H 1457.85 2.94789 -2.64415 0
M  V30 15880 H 1459.03 0.805295 -4.53709 0
M  V30 15881 H 1457.34 0.882935 -4.06931 0
M  V30 15882 H 1459.94 3.65903 -3.89897 0
M  V30 15883 H 1460.28 3.54003 -2.1906 0
M  V30 15884 H 1460.81 2.24175 -3.28619 0
M  V30 15885 H 1457.55 1.92249 -6.26674 0
M  V30 15886 H 1457.07 3.16907 -5.09244 0
M  V30 15887 H 1458.75 3.09428 -5.6821 0
M  V30 15888 N 1458.88 1.40823 0.707568 0
M  V30 15889 C 1460.13 1.39259 1.46463 0
M  V30 15890 C 1460.45 -0.00157854 1.95 0
M  V30 15891 O 1459.72 -0.957723 1.70893 0
M  V30 15892 H 1458.3 0.512558 0.543409 0
M  V30 15893 H 1460.97 1.75952 0.838269 0
M  V30 15894 H 1460.06 2.07243 2.3336 0
M  V30 15895 N 1460.36 -0.94061 1.26453 0
M  V30 15896 C 1461.59 -1.72654 1.14914 0
M  V30 15897 C 1462.01 -1.85823 -0.291789 0
M  V30 15898 O 1461.37 -1.34888 -1.2114 0
M  V30 15899 C 1461.42 -3.11083 1.82372 0
M  V30 15900 O 1460.52 -3.971 1.1129 0
M  V30 15901 H 1459.86 -0.529704 0.400387 0
M  V30 15902 H 1462.39 -1.17803 1.67283 0
M  V30 15903 H 1462.4 -3.6147 1.89219 0
M  V30 15904 H 1461.08 -3.00815 2.87199 0
M  V30 15905 H 1459.66 -3.5555 1.12423 0
M  V30 15906 N 1461.84 -1.08266 -1.14527 0
M  V30 15907 C 1463.09 -0.809856 -1.85164 0
M  V30 15908 C 1463.41 0.666263 -1.83265 0
M  V30 15909 O 1462.68 1.48295 -1.28006 0
M  V30 15910 H 1461.26 -0.296598 -0.685594 0
M  V30 15911 H 1463.92 -1.36834 -1.38789 0
M  V30 15912 H 1463.02 -1.15272 -2.90032 0
M  V30 15913 N 1463.32 1.31536 -0.86811 0
M  V30 15914 C 1464.57 1.97456 -0.488147 0
M  V30 15915 C 1464.92 1.67384 0.948709 0
M  V30 15916 O 1464.21 0.958924 1.65877 0
M  V30 15917 C 1464.41 3.50876 -0.679752 0
M  V30 15918 C 1464.24 3.95859 -2.13368 0
M  V30 15919 C 1463.01 4.22288 -2.77491 0
M  V30 15920 C 1465.2 4.09936 -3.10575 0
M  V30 15921 N 1463.19 4.53611 -4.13655 0
M  V30 15922 C 1464.56 4.44949 -4.31764 0
M  V30 15923 C 1466.61 3.92309 -3.06591 0
M  V30 15924 C 1465.32 4.64176 -5.49485 0
M  V30 15925 C 1467.34 4.12728 -4.23568 0
M  V30 15926 C 1466.7 4.48071 -5.43518 0
M  V30 15927 H 1462.8 0.748137 -0.227628 0
M  V30 15928 H 1465.39 1.59098 -1.12232 0
M  V30 15929 H 1463.56 3.88327 -0.0751875 0
M  V30 15930 H 1465.29 4.03809 -0.26836 0
M  V30 15931 H 1462.04 4.14858 -2.28451 0
M  V30 15932 H 1462.47 4.73435 -4.8393 0
M  V30 15933 H 1467.11 3.64075 -2.14964 0
M  V30 15934 H 1464.83 4.91259 -6.41631 0
M  V30 15935 H 1468.41 4.00577 -4.21935 0
M  V30 15936 H 1467.29 4.6355 -6.32527 0
M  V30 15937 N 1464.8 0.627364 1.44575 0
M  V30 15938 C 1466.02 0.135576 2.06956 0
M  V30 15939 C 1466.45 -1.17922 1.46547 0
M  V30 15940 O 1465.81 -1.72255 0.565509 0
M  V30 15941 C 1465.85 0.030347 3.60587 0
M  V30 15942 O 1464.96 -1.01464 3.99724 0
M  V30 15943 H 1464.3 0.083058 0.658785 0
M  V30 15944 H 1466.83 0.862977 1.8551 0
M  V30 15945 H 1466.84 -0.161461 4.0768 0
M  V30 15946 H 1465.51 0.990285 4.03938 0
M  V30 15947 H 1464.09 -0.797701 3.64268 0
M  V30 15948 N 1466.28 -1.53251 0.367684 0
M  V30 15949 C 1467.52 -2.01585 -0.221679 0
M  V30 15950 C 1467.85 -1.25444 -1.48248 0
M  V30 15951 O 1467.13 -0.348726 -1.91348 0
M  V30 15952 C 1467.41 -3.56449 -0.511507 0
M  V30 15953 C 1467.27 -4.4328 0.763075 0
M  V30 15954 C 1468.58 -4.20113 -1.31121 0
M  V30 15955 H 1465.7 -0.732743 -0.0790954 0
M  V30 15956 H 1468.35 -1.83493 0.492991 0
M  V30 15957 H 1466.5 -3.71996 -1.12033 0
M  V30 15958 H 1468.17 -4.39526 1.40052 0
M  V30 15959 H 1466.41 -4.11164 1.38299 0
M  V30 15960 H 1467.08 -5.4959 0.515215 0
M  V30 15961 H 1469.56 -4.08412 -0.796169 0
M  V30 15962 H 1468.43 -5.28494 -1.48274 0
M  V30 15963 H 1468.69 -3.76316 -2.32032 0
M  V30 15964 N 1467.75 -0.0969077 -1.57302 0
M  V30 15965 C 1468.98 0.578086 -1.99181 0
M  V30 15966 C 1469.4 1.60818 -0.975667 0
M  V30 15967 O 1468.76 1.81215 0.0556054 0
M  V30 15968 C 1468.81 1.20076 -3.40021 0
M  V30 15969 O 1467.91 2.31656 -3.41188 0
M  V30 15970 H 1467.25 0.146506 -0.647636 0
M  V30 15971 H 1469.78 -0.178855 -2.03817 0
M  V30 15972 H 1469.79 1.54162 -3.77754 0
M  V30 15973 H 1468.47 0.446114 -4.135 0
M  V30 15974 H 1467.05 1.99175 -3.15252 0
M  V30 15975 N 1469.23 1.56605 0.176793 0
M  V30 15976 C 1470.16 1.99014 1.2213 0
M  V30 15977 C 1471.14 0.86487 1.46472 0
M  V30 15978 O 1472.33 1.13055 1.57899 0
M  V30 15979 C 1469.46 2.34534 2.56146 0
M  V30 15980 C 1468.41 3.4997 2.46384 0
M  V30 15981 C 1467.74 3.71217 3.8484 0
M  V30 15982 C 1469.04 4.83592 1.97323 0
M  V30 15983 H 1470.73 2.86517 0.8688 0
M  V30 15984 H 1468.28 1.37846 0.416481 0
M  V30 15985 H 1470.23 2.62799 3.29416 0
M  V30 15986 H 1468.95 1.43933 2.93174 0
M  V30 15987 H 1467.61 3.21824 1.75569 0
M  V30 15988 H 1467.26 2.77916 4.19251 0
M  V30 15989 H 1466.96 4.48885 3.79178 0
M  V30 15990 H 1468.49 4.01877 4.59704 0
M  V30 15991 H 1469.9 5.10768 2.60363 0
M  V30 15992 H 1468.3 5.64858 2.02622 0
M  V30 15993 H 1469.37 4.75951 0.927275 0
M  V30 15994 N 1470.71 -0.445159 1.51182 0
M  V30 15995 C 1471.66 -1.53975 1.71931 0
M  V30 15996 C 1472.63 -1.56344 0.560865 0
M  V30 15997 O 1473.81 -1.73475 0.794414 0
M  V30 15998 C 1470.95 -2.91756 1.84316 0
M  V30 15999 C 1470.06 -2.98976 3.11829 0
M  V30 16000 C 1469.2 -4.27831 3.14855 0
M  V30 16001 C 1468.24 -4.2889 4.36715 0
M  V30 16002 N 1467.38 -5.49257 4.37334 0
M  V30 16003 H 1472.22 -1.35586 2.65368 0
M  V30 16004 H 1469.75 -0.658787 1.31523 0
M  V30 16005 H 1471.71 -3.7169 1.89479 0
M  V30 16006 H 1470.34 -3.08721 0.942947 0
M  V30 16007 H 1469.39 -2.11753 3.16014 0
M  V30 16008 H 1470.7 -2.95619 4.01759 0
M  V30 16009 H 1469.86 -5.16134 3.1889 0
M  V30 16010 H 1468.6 -4.33833 2.228 0
M  V30 16011 H 1467.6 -3.38982 4.32864 0
M  V30 16012 H 1468.83 -4.24558 5.30026 0
M  V30 16013 H 1466.77 -5.55995 3.48145 0
M  V30 16014 H 1466.69 -5.47748 5.21064 0
M  V30 16015 H 1467.96 -6.39613 4.45551 0
M  V30 16016 N 1472.19 -1.41197 -0.700089 0
M  V30 16017 C 1473.44 -1.40034 -1.45722 0
M  V30 16018 C 1473.76 -0.00876281 -1.94998 0
M  V30 16019 O 1473.03 0.948647 -1.71399 0
M  V30 16020 H 1471.61 -0.515433 -0.540683 0
M  V30 16021 H 1474.27 -1.76394 -0.828926 0
M  V30 16022 H 1473.36 -2.08477 -2.32258 0
M  V30 16023 N 1473.67 0.933891 -1.2695 0
M  V30 16024 C 1474.61 2.05498 -1.08964 0
M  V30 16025 C 1475.61 1.69394 -0.0144837 0
M  V30 16026 O 1476.81 1.79179 -0.171729 0
M  V30 16027 H 1473.19 0.672978 -0.335566 0
M  V30 16028 H 1475.16 2.17817 -2.03957 0
M  V30 16029 C 1473.91 3.39579 -0.747074 0
M  V30 16030 H 1473.23 3.67842 -1.56628 0
M  V30 16031 H 1474.67 4.18815 -0.661064 0
M  V30 16032 C 1473.13 3.3241 0.548214 0
M  V30 16033 O 1473.66 3.69132 1.58443 0
M  V30 16034 N 1471.87 2.85509 0.541545 0
M  V30 16035 H 1471.41 2.55822 -0.302112 0
M  V30 16036 H 1471.37 2.81095 1.4083 0
M  V30 16037 N 1475.14 1.08871 1.13951 0
M  V30 16038 C 1476.09 0.71755 2.21255 0
M  V30 16039 C 1477.09 -0.278901 1.67088 0
M  V30 16040 O 1478.29 -0.140964 1.79447 0
M  V30 16041 H 1474.67 0.214032 0.720898 0
M  V30 16042 H 1476.64 1.63182 2.49828 0
M  V30 16043 C 1475.39 0.148098 3.47384 0
M  V30 16044 H 1474.71 0.906028 3.89398 0
M  V30 16045 H 1476.15 -0.0737451 4.23936 0
M  V30 16046 C 1474.61 -1.11524 3.17906 0
M  V30 16047 O 1475.14 -2.19937 3.3614 0
M  V30 16048 N 1473.34 -1.0275 2.71829 0
M  V30 16049 H 1472.89 -0.145193 2.5719 0
M  V30 16050 H 1472.85 -1.87353 2.5248 0
M  V30 16051 N 1476.62 -1.31073 0.875073 0
M  V30 16052 C 1477.55 -2.30855 0.350468 0
M  V30 16053 C 1478.53 -1.60569 -0.561384 0
M  V30 16054 O 1479.72 -1.88242 -0.477329 0
M  V30 16055 C 1476.85 -3.44444 -0.444493 0
M  V30 16056 C 1475.8 -4.26357 0.374716 0
M  V30 16057 C 1475.13 -5.31903 -0.546243 0
M  V30 16058 C 1476.43 -4.96817 1.61153 0
M  V30 16059 H 1478.12 -2.74983 1.18427 0
M  V30 16060 H 1475.67 -1.32199 0.570909 0
M  V30 16061 H 1477.62 -4.13304 -0.82206 0
M  V30 16062 H 1476.34 -2.99096 -1.31185 0
M  V30 16063 H 1475 -3.59171 0.734295 0
M  V30 16064 H 1474.65 -4.82803 -1.41102 0
M  V30 16065 H 1474.35 -5.876 -0.00198173 0
M  V30 16066 H 1475.88 -6.03621 -0.920542 0
M  V30 16067 H 1477.29 -5.58247 1.30511 0
M  V30 16068 H 1475.69 -5.62334 2.09524 0
M  V30 16069 H 1476.76 -4.2351 2.36151 0
M  V30 16070 N 1478.1 -0.635022 -1.4424 0
M  V30 16071 C 1479.35 -0.138497 -2.01224 0
M  V30 16072 C 1479.66 1.2485 -1.50571 0
M  V30 16073 O 1480.87 1.83926 -1.99709 0
M  V30 16074 C 1479.32 -0.196836 -3.59361 0
M  V30 16075 C 1478.93 -1.58539 -4.1901 0
M  V30 16076 C 1480.68 0.243025 -4.23804 0
M  V30 16077 C 1478.58 -1.59864 -5.69384 0
M  V30 16078 H 1477.51 -0.0480117 -0.75247 0
M  V30 16079 H 1480.16 -0.794391 -1.65414 0
M  V30 16080 H 1478.55 0.526231 -3.92488 0
M  V30 16081 H 1479.72 -2.33236 -3.97414 0
M  V30 16082 H 1478.04 -1.96967 -3.66869 0
M  V30 16083 H 1480.63 0.252717 -5.34102 0
M  V30 16084 H 1480.98 1.27107 -3.96421 0
M  V30 16085 H 1481.51 -0.427678 -3.95494 0
M  V30 16086 H 1478.25 -2.60518 -6.01507 0
M  V30 16087 H 1477.77 -0.894664 -5.9309 0
M  V30 16088 H 1479.45 -1.3343 -6.33092 0
M  V30 16089 N 1479.58 1.53054 -0.375806 0
M  V30 16090 C 1480.82 2.02379 0.203516 0
M  V30 16091 C 1481.18 1.25788 1.45586 0
M  V30 16092 O 1480.47 0.345983 1.8845 0
M  V30 16093 C 1480.67 3.53321 0.538419 0
M  V30 16094 C 1480.5 4.4453 -0.679917 0
M  V30 16095 C 1479.27 4.90964 -1.1951 0
M  V30 16096 C 1481.46 4.90444 -1.54821 0
M  V30 16097 N 1479.45 5.66207 -2.37239 0
M  V30 16098 C 1480.82 5.64132 -2.57206 0
M  V30 16099 C 1482.87 4.72503 -1.56989 0
M  V30 16100 C 1481.57 6.21786 -3.61627 0
M  V30 16101 C 1483.6 5.3103 -2.6031 0
M  V30 16102 C 1482.96 6.04613 -3.61417 0
M  V30 16103 H 1479.06 0.781128 0.0369159 0
M  V30 16104 H 1481.65 1.87554 -0.522657 0
M  V30 16105 H 1479.82 3.68287 1.23366 0
M  V30 16106 H 1481.55 3.89359 1.10372 0
M  V30 16107 H 1478.3 4.67492 -0.758156 0
M  V30 16108 H 1478.73 6.08487 -2.96771 0
M  V30 16109 H 1483.37 4.15129 -0.801715 0
M  V30 16110 H 1481.09 6.7825 -4.39321 0
M  V30 16111 H 1484.67 5.19037 -2.62854 0
M  V30 16112 H 1483.55 6.49093 -4.40054 0
M  V30 16113 N 1481.06 0.105248 1.57248 0
M  V30 16114 C 1482.28 -0.564157 1.9906 0
M  V30 16115 C 1482.7 -1.61092 0.984624 0
M  V30 16116 O 1482.06 -1.82484 -0.0244031 0
M  V30 16117 C 1482.11 -1.20272 3.40906 0
M  V30 16118 O 1481.83 -0.197815 4.37653 0
M  V30 16119 C 1483.33 -1.95677 3.97776 0
M  V30 16120 H 1480.55 -0.150468 0.653912 0
M  V30 16121 H 1483.09 0.187532 2.03638 0
M  V30 16122 H 1481.25 -1.90528 3.3731 0
M  V30 16123 H 1481.66 -0.659998 5.20331 0
M  V30 16124 H 1483.14 -2.35702 4.99148 0
M  V30 16125 H 1483.61 -2.82661 3.36154 0
M  V30 16126 H 1484.22 -1.30215 4.04876 0
M  V30 16127 N 1482.53 -1.56697 -0.168486 0
M  V30 16128 C 1483.46 -1.99659 -1.21073 0
M  V30 16129 C 1484.45 -0.872625 -1.46011 0
M  V30 16130 O 1485.63 -1.13891 -1.57297 0
M  V30 16131 C 1482.76 -2.35889 -2.54899 0
M  V30 16132 C 1481.71 -3.51272 -2.44524 0
M  V30 16133 C 1481.04 -3.73253 -3.82866 0
M  V30 16134 C 1482.34 -4.84631 -1.94756 0
M  V30 16135 H 1484.03 -2.86974 -0.853593 0
M  V30 16136 H 1481.58 -1.38065 -0.409165 0
M  V30 16137 H 1483.53 -2.64542 -3.28017 0
M  V30 16138 H 1482.26 -1.45486 -2.92406 0
M  V30 16139 H 1480.92 -3.22751 -1.7386 0
M  V30 16140 H 1480.56 -2.80136 -4.17772 0
M  V30 16141 H 1480.26 -4.5089 -3.76792 0
M  V30 16142 H 1481.79 -4.04309 -4.57566 0
M  V30 16143 H 1483.2 -5.12142 -2.5765 0
M  V30 16144 H 1481.6 -5.65925 -1.99623 0
M  V30 16145 H 1482.67 -4.76436 -0.902021 0
M  V30 16146 N 1484.01 0.437135 -1.51416 0
M  V30 16147 C 1484.96 1.53061 -1.72745 0
M  V30 16148 C 1485.93 1.56045 -0.569149 0
M  V30 16149 O 1487.11 1.73052 -0.803602 0
M  V30 16150 C 1484.25 2.90774 -1.85861 0
M  V30 16151 C 1483.37 2.97318 -3.1341 0
M  V30 16152 C 1482.5 4.26156 -3.1712 0
M  V30 16153 C 1481.54 4.26568 -4.38983 0
M  V30 16154 N 1480.68 5.4693 -4.40241 0
M  V30 16155 H 1485.52 1.34177 -2.66084 0
M  V30 16156 H 1483.06 0.651803 -1.31871 0
M  V30 16157 H 1485.01 3.7068 -1.91447 0
M  V30 16158 H 1483.64 3.08216 -0.959306 0
M  V30 16159 H 1482.7 2.10074 -3.17132 0
M  V30 16160 H 1484.01 2.93485 -4.03321 0
M  V30 16161 H 1483.16 5.14435 -3.21623 0
M  V30 16162 H 1481.9 4.32646 -2.25098 0
M  V30 16163 H 1480.91 3.36681 -4.34656 0
M  V30 16164 H 1482.13 4.21741 -5.3227 0
M  V30 16165 H 1480.08 5.54141 -3.51089 0
M  V30 16166 H 1479.99 5.44977 -5.23962 0
M  V30 16167 H 1481.26 6.37241 -4.48937 0
M  V30 16168 N 1485.49 1.41566 0.692592 0
M  V30 16169 C 1486.77 1.31572 1.44735 0
M  V30 16170 C 1487.15 -0.0553081 2.11028 0
M  V30 16171 O 1486.5 -1.06974 2.01913 0
M  V30 16172 C 1486.71 2.47125 2.46435 0
M  V30 16173 C 1488.05 2.88427 3.11601 0
M  V30 16174 O 1489.08 2.46886 2.5676 0
M  V30 16175 O 1487.94 3.6027 4.10935 0
M  V30 16176 H 1485.03 0.517949 0.644715 0
M  V30 16177 H 1487.58 1.53536 0.722818 0
M  V30 16178 H 1486.35 3.38601 1.96124 0
M  V30 16179 H 1485.97 2.27054 3.26393 0
M  V30 16180 N 1486.97 -0.927146 1.27443 0
M  V30 16181 C 1488.19 -1.71426 1.16739 0
M  V30 16182 C 1488.62 -1.86122 -0.272063 0
M  V30 16183 O 1487.98 -1.36165 -1.19703 0
M  V30 16184 C 1488.02 -3.09131 1.85661 0
M  V30 16185 O 1487.13 -3.95897 1.15495 0
M  V30 16186 H 1486.47 -0.525428 0.405983 0
M  V30 16187 H 1489 -1.16022 1.68523 0
M  V30 16188 H 1489.01 -3.59442 1.93042 0
M  V30 16189 H 1487.68 -2.97752 2.90373 0
M  V30 16190 H 1486.26 -3.54337 1.16187 0
M  V30 16191 N 1488.45 -1.09474 -1.13372 0
M  V30 16192 C 1489.41 -0.738173 -2.16988 0
M  V30 16193 C 1490.41 0.232488 -1.5911 0
M  V30 16194 O 1491.6 0.0106093 -1.74197 0
M  V30 16195 C 1488.73 -0.091724 -3.40777 0
M  V30 16196 H 1489.92 -1.65582 -2.50045 0
M  V30 16197 H 1487.48 -0.893994 -1.28209 0
M  V30 16198 H 1488.21 0.837129 -3.13309 0
M  V30 16199 H 1488 -0.790161 -3.84056 0
M  V30 16200 H 1489.49 0.142334 -4.17357 0
M  V30 16201 N 1489.92 1.30607 -0.882012 0
M  V30 16202 C 1491.17 1.95869 -0.497978 0
M  V30 16203 C 1491.49 1.69991 0.955405 0
M  V30 16204 O 1490.76 1.02188 1.67136 0
M  V30 16205 H 1489.34 0.724699 -0.181165 0
M  V30 16206 H 1492.01 1.59193 -1.12444 0
M  V30 16207 H 1491.1 3.04917 -0.665754 0
M  V30 16208 N 1491.4 0.642663 1.43901 0
M  V30 16209 C 1492.31 -0.0562462 2.34533 0
M  V30 16210 C 1493.33 -0.823457 1.53281 0
M  V30 16211 O 1494.5 -0.773103 1.85971 0
M  V30 16212 C 1491.57 -1.01787 3.31422 0
M  V30 16213 C 1490.63 -0.248759 4.28579 0
M  V30 16214 C 1489.86 -1.16458 5.20839 0
M  V30 16215 O 1490.09 -2.40361 5.17284 0
M  V30 16216 O 1489.02 -0.642671 5.98459 0
M  V30 16217 H 1492.85 0.689476 2.9577 0
M  V30 16218 H 1490.43 0.402847 1.43866 0
M  V30 16219 H 1492.31 -1.5708 3.91029 0
M  V30 16220 H 1490.99 -1.744 2.72702 0
M  V30 16221 H 1489.9 0.347495 3.72483 0
M  V30 16222 H 1491.23 0.437589 4.90251 0
M  V30 16223 N 1492.88 -1.52852 0.383918 0
M  V30 16224 C 1494.13 -2.01809 -0.200285 0
M  V30 16225 C 1494.46 -1.27009 -1.46909 0
M  V30 16226 O 1493.74 -0.369002 -1.90968 0
M  V30 16227 C 1494.02 -3.56971 -0.473672 0
M  V30 16228 C 1493.87 -4.42446 0.810048 0
M  V30 16229 C 1495.19 -4.21481 -1.26658 0
M  V30 16230 H 1492.31 -0.733541 -0.0713192 0
M  V30 16231 H 1494.95 -1.8296 0.512425 0
M  V30 16232 H 1493.1 -3.73163 -1.08081 0
M  V30 16233 H 1494.77 -4.38016 1.44706 0
M  V30 16234 H 1493.02 -4.09674 1.42652 0
M  V30 16235 H 1493.69 -5.49013 0.573478 0
M  V30 16236 H 1496.16 -4.09233 -0.752806 0
M  V30 16237 H 1495.04 -5.30037 -1.42661 0
M  V30 16238 H 1495.3 -3.78756 -2.28028 0
M  V30 16239 N 1494.36 -0.113586 -1.5719 0
M  V30 16240 C 1495.78 0.243023 -1.57739 0
M  V30 16241 C 1495.98 1.67105 -1.12597 0
M  V30 16242 O 1495.03 2.39126 -0.810874 0
M  V30 16243 C 1496.34 0.014629 -3.00696 0
M  V30 16244 C 1497.89 0.0809485 -3.12895 0
M  V30 16245 C 1498.37 -0.119685 -4.57844 0
M  V30 16246 N 1499.86 -0.0654711 -4.63154 0
M  V30 16247 C 1500.59 -0.195692 -5.73066 0
M  V30 16248 N 1500.09 -0.381782 -6.91747 0
M  V30 16249 N 1501.88 -0.13565 -5.61936 0
M  V30 16250 H 1494.03 -1.04639 -1.84836 0
M  V30 16251 H 1496.3 -0.411609 -0.85398 0
M  V30 16252 H 1496 -0.972399 -3.3799 0
M  V30 16253 H 1495.88 0.748882 -3.69691 0
M  V30 16254 H 1498.26 1.0585 -2.75463 0
M  V30 16255 H 1498.34 -0.685097 -2.46455 0
M  V30 16256 H 1497.99 -1.09418 -4.95974 0
M  V30 16257 H 1497.92 0.666281 -5.22368 0
M  V30 16258 H 1500.41 0.0750649 -3.77825 0
M  V30 16259 H 1500.72 -0.472157 -7.71356 0
M  V30 16260 H 1499.07 -0.417686 -6.93744 0
M  V30 16261 H 1502.26 0.0087301 -4.68099 0
M  V30 16262 H 1502.43 -0.240579 -6.47553 0
M  V30 16263 N 1495.84 1.56784 0.160173 0
M  V30 16264 C 1496.77 1.93848 1.22293 0
M  V30 16265 C 1497.78 0.832803 1.39886 0
M  V30 16266 O 1498.97 1.11124 1.39692 0
M  V30 16267 C 1496.07 2.18581 2.58989 0
M  V30 16268 C 1495.24 3.49839 2.62548 0
M  V30 16269 C 1494.3 3.63268 3.80687 0
M  V30 16270 O 1493.33 4.35785 3.6617 0
M  V30 16271 N 1494.53 2.98948 4.97605 0
M  V30 16272 H 1497.3 2.85614 0.908004 0
M  V30 16273 H 1494.86 1.58075 0.349851 0
M  V30 16274 H 1496.85 2.24819 3.36509 0
M  V30 16275 H 1495.42 1.33145 2.82827 0
M  V30 16276 H 1494.64 3.5516 1.7104 0
M  V30 16277 H 1495.93 4.3619 2.61945 0
M  V30 16278 H 1495.33 2.39924 5.12302 0
M  V30 16279 H 1493.88 3.10765 5.72947 0
M  V30 16280 N 1497.32 -0.429099 1.51646 0
M  V30 16281 C 1498.56 -1.17482 1.63954 0
M  V30 16282 C 1498.88 -1.92152 0.36565 0
M  V30 16283 O 1500.08 -2.68991 0.368221 0
M  V30 16284 C 1498.54 -2.13703 2.89585 0
M  V30 16285 C 1498.15 -1.44642 4.24008 0
M  V30 16286 C 1499.89 -2.88657 3.11252 0
M  V30 16287 C 1497.8 -2.39395 5.40781 0
M  V30 16288 H 1496.73 -0.442234 0.610692 0
M  V30 16289 H 1499.38 -0.441088 1.7812 0
M  V30 16290 H 1497.76 -2.90545 2.69071 0
M  V30 16291 H 1498.94 -0.733012 4.54932 0
M  V30 16292 H 1497.25 -0.818084 4.08285 0
M  V30 16293 H 1499.85 -3.59653 3.95669 0
M  V30 16294 H 1500.19 -3.50473 2.24664 0
M  V30 16295 H 1500.72 -2.18919 3.32144 0
M  V30 16296 H 1497.46 -1.82255 6.29653 0
M  V30 16297 H 1496.98 -3.08766 5.14222 0
M  V30 16298 H 1498.66 -3.0035 5.73061 0
M  V30 16299 N 1498.79 -1.41931 -0.685074 0
M  V30 16300 C 1500.02 -1.45229 -1.47364 0
M  V30 16301 C 1500.44 -0.060595 -1.88703 0
M  V30 16302 O 1499.79 0.92244 -1.57472 0
M  V30 16303 C 1499.84 -2.37033 -2.72942 0
M  V30 16304 O 1499.57 -3.70787 -2.33342 0
M  V30 16305 C 1501.07 -2.49244 -3.66596 0
M  V30 16306 H 1498.29 -0.494291 -0.453781 0
M  V30 16307 H 1500.83 -1.86333 -0.84263 0
M  V30 16308 H 1498.99 -1.9921 -3.32256 0
M  V30 16309 H 1499.4 -4.19853 -3.14362 0
M  V30 16310 H 1500.87 -3.17624 -4.51463 0
M  V30 16311 H 1501.35 -1.52703 -4.11799 0
M  V30 16312 H 1501.96 -2.87747 -3.1318 0
M  V30 16313 N 1500.27 0.920374 -1.27933 0
M  V30 16314 C 1501.52 1.66883 -1.147 0
M  V30 16315 C 1501.85 1.92082 0.305732 0
M  V30 16316 O 1501.1 1.51449 1.23942 0
M  V30 16317 C 1501.4 3.03725 -1.88377 0
M  V30 16318 C 1501.07 2.9821 -3.38203 0
M  V30 16319 C 1499.73 2.96413 -3.79068 0
M  V30 16320 C 1502.08 2.88952 -4.3377 0
M  V30 16321 C 1499.41 2.83151 -5.13851 0
M  V30 16322 C 1501.76 2.77231 -5.68618 0
M  V30 16323 C 1500.42 2.73788 -6.08766 0
M  V30 16324 H 1499.69 0.61067 -0.419718 0
M  V30 16325 H 1502.34 1.0728 -1.58629 0
M  V30 16326 H 1500.65 3.67075 -1.36978 0
M  V30 16327 H 1502.34 3.60527 -1.7556 0
M  V30 16328 H 1498.93 3.004 -3.05709 0
M  V30 16329 H 1503.12 2.89433 -4.03165 0
M  V30 16330 H 1498.37 2.78877 -5.44093 0
M  V30 16331 H 1502.55 2.69034 -6.42335 0
M  V30 16332 H 1500.17 2.63268 -7.13158 0
M  V30 16333 N 1501.75 1.10074 1.1279 0
M  V30 16334 C 1503.17 0.831776 1.36212 0
M  V30 16335 C 1503.37 -0.550632 1.93831 0
M  V30 16336 O 1502.42 -1.30422 2.16209 0
M  V30 16337 C 1503.73 1.92844 2.3072 0
M  V30 16338 C 1505.28 1.95645 2.4432 0
M  V30 16339 C 1505.76 3.04474 3.4214 0
M  V30 16340 N 1507.25 3.03756 3.49695 0
M  V30 16341 C 1507.98 3.84605 4.25284 0
M  V30 16342 N 1507.48 4.7538 5.0397 0
M  V30 16343 N 1509.27 3.72838 4.20652 0
M  V30 16344 H 1501.42 1.99187 0.737452 0
M  V30 16345 H 1503.69 0.865383 0.387062 0
M  V30 16346 H 1503.39 2.92323 1.9555 0
M  V30 16347 H 1503.27 1.81241 3.30805 0
M  V30 16348 H 1505.65 0.968004 2.78772 0
M  V30 16349 H 1505.73 2.11325 1.44136 0
M  V30 16350 H 1505.38 4.03536 3.08418 0
M  V30 16351 H 1505.31 2.86036 4.42144 0
M  V30 16352 H 1507.8 2.37977 2.93556 0
M  V30 16353 H 1508.11 5.33637 5.58974 0
M  V30 16354 H 1506.46 4.79411 5.0318 0
M  V30 16355 H 1509.65 3.01276 3.5826 0
M  V30 16356 H 1509.82 4.36083 4.79308 0
M  V30 16357 N 1503.23 -1.30138 0.888926 0
M  V30 16358 C 1504.5 -1.90831 0.42928 0
M  V30 16359 C 1504.88 -1.80765 -1.09028 0
M  V30 16360 O 1504.23 -1.22741 -1.92735 0
M  V30 16361 C 1504.44 -3.36331 0.931798 0
M  V30 16362 C 1505.79 -4.13393 0.969106 0
M  V30 16363 O 1506.81 -3.45191 0.878731 0
M  V30 16364 O 1505.67 -5.35249 1.10323 0
M  V30 16365 H 1502.77 -0.816401 0.131976 0
M  V30 16366 H 1505.31 -1.38678 0.978086 0
M  V30 16367 H 1504.09 -3.37761 1.97568 0
M  V30 16368 H 1503.71 -3.95945 0.362383 0
M  V30 16369 N 1504.71 -0.650285 -1.43559 0
M  V30 16370 C 1505.64 0.0295939 -2.33481 0
M  V30 16371 C 1506.62 0.815017 -1.49303 0
M  V30 16372 O 1507.8 0.77708 -1.77975 0
M  V30 16373 C 1504.93 0.998683 -3.32631 0
M  V30 16374 C 1503.89 0.323577 -4.26775 0
M  V30 16375 C 1503.21 1.40391 -5.1594 0
M  V30 16376 C 1504.51 -0.782197 -5.1641 0
M  V30 16377 H 1506.21 -0.721349 -2.9058 0
M  V30 16378 H 1503.75 -0.348339 -1.39723 0
M  V30 16379 H 1505.7 1.4832 -3.94435 0
M  V30 16380 H 1504.43 1.78075 -2.73782 0
M  V30 16381 H 1503.09 -0.140467 -3.66331 0
M  V30 16382 H 1502.74 2.17734 -4.53432 0
M  V30 16383 H 1502.44 0.957462 -5.79747 0
M  V30 16384 H 1503.96 1.88985 -5.80618 0
M  V30 16385 H 1505.37 -0.379966 -5.72039 0
M  V30 16386 H 1503.77 -1.15293 -5.88921 0
M  V30 16387 H 1504.84 -1.6414 -4.56274 0
M  V30 16388 N 1506.18 1.52647 -0.392018 0
M  V30 16389 C 1507.59 1.86522 0.0814091 0
M  V30 16390 C 1507.95 1.31158 1.45918 0
M  V30 16391 O 1507.07 0.644007 2.06595 0
M  V30 16392 C 1507.67 3.38448 0.1545 0
M  V30 16393 C 1506.22 3.72025 0.572227 0
M  V30 16394 C 1505.37 2.7604 -0.264093 0
M  V30 16395 H 1508.32 1.46517 -0.609785 0
M  V30 16396 H 1508.34 3.67846 0.973109 0
M  V30 16397 H 1507.86 3.78713 -0.848396 0
M  V30 16398 H 1505.96 3.37329 1.58239 0
M  V30 16399 H 1506.07 4.77973 0.328491 0
M  V30 16400 H 1504.43 2.53254 0.271042 0
M  V30 16401 H 1505.22 3.19143 -1.26502 0
M  V30 16402 N 1507.66 0.121921 1.57128 0
M  V30 16403 C 1508.94 -0.579087 1.86831 0
M  V30 16404 C 1509.32 -1.84623 1.0236 0
M  V30 16405 O 1508.67 -2.28266 0.103326 0
M  V30 16406 C 1508.88 -0.86872 3.38015 0
M  V30 16407 C 1510.23 -1.22051 4.0668 0
M  V30 16408 O 1511.25 -0.958889 3.43051 0
M  V30 16409 O 1510.11 -1.71164 5.19004 0
M  V30 16410 H 1507.2 -0.292539 0.773531 0
M  V30 16411 H 1509.75 0.156644 1.68975 0
M  V30 16412 H 1508.52 0.0291056 3.91289 0
M  V30 16413 H 1508.14 -1.65951 3.61312 0
M  V30 16414 N 1509.14 -1.56867 -0.151857 0
M  V30 16415 C 1510.09 -1.97899 -1.18763 0
M  V30 16416 C 1511.06 -0.845833 -1.42951 0
M  V30 16417 O 1512.24 -1.10751 -1.55367 0
M  V30 16418 C 1509.38 -2.36063 -2.5173 0
M  V30 16419 C 1508.5 -3.62647 -2.34757 0
M  V30 16420 C 1507.63 -3.89936 -3.60726 0
M  V30 16421 C 1506.67 -5.09806 -3.38769 0
M  V30 16422 N 1505.81 -5.33129 -4.56856 0
M  V30 16423 H 1510.65 -2.86187 -0.830713 0
M  V30 16424 H 1508.18 -1.41592 -0.398745 0
M  V30 16425 H 1510.14 -2.56218 -3.29254 0
M  V30 16426 H 1508.77 -1.50861 -2.85379 0
M  V30 16427 H 1507.82 -3.50297 -1.48312 0
M  V30 16428 H 1509.14 -4.50328 -2.1449 0
M  V30 16429 H 1508.29 -4.10563 -4.4668 0
M  V30 16430 H 1507.03 -3.00668 -3.83993 0
M  V30 16431 H 1506.03 -4.89057 -2.51203 0
M  V30 16432 H 1507.26 -6.00623 -3.16906 0
M  V30 16433 H 1505.2 -4.46815 -4.80305 0
M  V30 16434 H 1505.12 -6.1507 -4.39574 0
M  V30 16435 H 1506.39 -5.5825 -5.44038 0
M  V30 16436 N 1510.62 0.421051 -1.51871 0
M  V30 16437 C 1511.87 1.16908 -1.65344 0
M  V30 16438 C 1512.19 1.90801 -0.377538 0
M  V30 16439 O 1511.45 1.84972 0.639061 0
M  V30 16440 C 1511.75 2.19819 -2.81806 0
M  V30 16441 C 1511.41 1.62821 -4.20476 0
M  V30 16442 C 1510.08 1.47 -4.58197 0
M  V30 16443 C 1512.43 1.21079 -5.06941 0
M  V30 16444 C 1509.76 0.879359 -5.80073 0
M  V30 16445 C 1512.11 0.634373 -6.29411 0
M  V30 16446 C 1510.77 0.4632 -6.65891 0
M  V30 16447 H 1510.04 0.427798 -0.605037 0
M  V30 16448 H 1512.69 0.457896 -1.85945 0
M  V30 16449 H 1510.99 2.97037 -2.55492 0
M  V30 16450 H 1512.69 2.77548 -2.89427 0
M  V30 16451 H 1509.28 1.76115 -3.90745 0
M  V30 16452 H 1513.46 1.32115 -4.78392 0
M  V30 16453 H 1508.72 0.734646 -6.0697 0
M  V30 16454 H 1512.89 0.302484 -6.95743 0
M  V30 16455 H 1510.52 0.00341397 -7.602 0
M  V30 16456 N 1512.1 1.42293 0.677538 0
M  V30 16457 C 1513.04 1.45787 1.81243 0
M  V30 16458 C 1514.04 0.333895 1.66077 0
M  V30 16459 O 1515.24 0.50678 1.72719 0
M  V30 16460 H 1511.62 0.456538 0.597559 0
M  V30 16461 H 1513.59 2.41398 1.75413 0
M  V30 16462 C 1512.34 1.37449 3.19379 0
M  V30 16463 H 1511.66 2.23231 3.31674 0
M  V30 16464 H 1513.1 1.43955 3.98814 0
M  V30 16465 C 1511.56 0.0889433 3.36783 0
M  V30 16466 O 1512.09 -0.859357 3.924 0
M  V30 16467 N 1510.3 0.00698476 2.90599 0
M  V30 16468 H 1509.84 0.779459 2.45524 0
M  V30 16469 H 1509.8 -0.852522 3.02621 0
M  V30 16470 N 1513.57 -0.913576 1.28419 0
M  V30 16471 C 1514.54 -1.99757 1.12382 0
M  V30 16472 C 1515.54 -1.60675 0.063435 0
M  V30 16473 O 1516.73 -1.71433 0.30923 0
M  V30 16474 C 1513.86 -3.33307 0.715506 0
M  V30 16475 H 1515.05 -2.15414 2.08655 0
M  V30 16476 H 1512.61 -1.09626 1.11408 0
M  V30 16477 H 1513.34 -3.23351 -0.247977 0
M  V30 16478 H 1513.13 -3.63034 1.4815 0
M  V30 16479 H 1514.62 -4.12882 0.625953 0
M  V30 16480 N 1515.05 -1.1067 -1.12204 0
M  V30 16481 C 1516.28 -0.871601 -1.87314 0
M  V30 16482 C 1516.69 0.581644 -1.80038 0
M  V30 16483 O 1516.03 1.4129 -1.17401 0
M  V30 16484 C 1516.1 -1.24458 -3.37269 0
M  V30 16485 C 1515.76 -2.70536 -3.6832 0
M  V30 16486 C 1516.76 -3.68769 -3.66477 0
M  V30 16487 C 1514.44 -3.06982 -3.97577 0
M  V30 16488 C 1516.44 -5.01471 -3.93454 0
M  V30 16489 C 1514.12 -4.39871 -4.24213 0
M  V30 16490 C 1515.12 -5.36924 -4.22139 0
M  V30 16491 O 1514.81 -6.6742 -4.48113 0
M  V30 16492 H 1514.54 -0.312472 -0.599447 0
M  V30 16493 H 1517.09 -1.47562 -1.4288 0
M  V30 16494 H 1515.32 -0.583674 -3.8227 0
M  V30 16495 H 1517.01 -0.986569 -3.93728 0
M  V30 16496 H 1517.78 -3.41957 -3.43934 0
M  V30 16497 H 1513.66 -2.32062 -3.98332 0
M  V30 16498 H 1517.2 -5.77215 -3.9175 0
M  V30 16499 H 1513.1 -4.6642 -4.46231 0
M  V30 16500 H 1513.87 -6.73088 -4.6572 0
M  V30 16501 N 1516.53 1.29665 -0.895815 0
M  V30 16502 C 1517.46 2.30268 -0.387151 0
M  V30 16503 C 1518.44 1.61442 0.535768 0
M  V30 16504 O 1519.63 1.88978 0.447321 0
M  V30 16505 C 1516.76 3.45107 0.389639 0
M  V30 16506 C 1515.71 4.25706 -0.442498 0
M  V30 16507 C 1515.04 5.32704 0.461552 0
M  V30 16508 C 1516.34 4.9419 -1.69036 0
M  V30 16509 H 1518.03 2.73064 -1.22786 0
M  V30 16510 H 1515.58 1.31274 -0.591869 0
M  V30 16511 H 1517.53 4.14559 0.756203 0
M  V30 16512 H 1516.25 3.01145 1.2641 0
M  V30 16513 H 1514.91 3.57957 -0.791343 0
M  V30 16514 H 1514.56 4.84987 1.33403 0
M  V30 16515 H 1514.26 5.87529 -0.0915006 0
M  V30 16516 H 1515.78 6.05009 0.824395 0
M  V30 16517 H 1517.2 5.561 -1.39376 0
M  V30 16518 H 1515.6 5.5893 -2.18444 0
M  V30 16519 H 1516.67 4.19699 -2.42859 0
M  V30 16520 N 1518.01 0.657889 1.43212 0
M  V30 16521 C 1518.97 -0.0214783 2.2919 0
M  V30 16522 C 1519.97 -0.745921 1.42452 0
M  V30 16523 O 1521.16 -0.586468 1.64031 0
M  V30 16524 C 1518.29 -1.04115 3.24612 0
M  V30 16525 H 1519.49 0.735072 2.90752 0
M  V30 16526 H 1517.04 0.419354 1.50569 0
M  V30 16527 H 1517.77 -1.82677 2.67954 0
M  V30 16528 H 1517.56 -0.525285 3.88566 0
M  V30 16529 H 1519.05 -1.51544 3.89132 0
M  V30 16530 N 1519.49 -1.52437 0.400108 0
M  V30 16531 C 1520.43 -2.28312 -0.444572 0
M  V30 16532 C 1521.43 -1.32641 -1.0537 0
M  V30 16533 O 1522.63 -1.50136 -0.99293 0
M  V30 16534 H 1519.01 -0.734313 -0.162137 0
M  V30 16535 H 1520.98 -2.97612 0.216702 0
M  V30 16536 C 1519.73 -3.11044 -1.55393 0
M  V30 16537 H 1519.05 -3.84525 -1.09455 0
M  V30 16538 H 1520.49 -3.67255 -2.11896 0
M  V30 16539 C 1518.95 -2.24035 -2.51614 0
M  V30 16540 O 1519.48 -1.87447 -3.55284 0
M  V30 16541 N 1517.69 -1.87982 -2.2161 0
M  V30 16542 H 1517.23 -2.17936 -1.37338 0
M  V30 16543 H 1517.19 -1.30058 -2.86238 0
M  V30 16544 N 1520.96 -0.130252 -1.57061 0
M  V30 16545 C 1521.91 0.815767 -2.15902 0
M  V30 16546 C 1522.88 1.2558 -1.08715 0
M  V30 16547 O 1524.07 1.33132 -1.36677 0
M  V30 16548 C 1521.21 2.0561 -2.77162 0
M  V30 16549 C 1520.32 1.6634 -3.98692 0
M  V30 16550 C 1519.45 2.85425 -4.48002 0
M  V30 16551 C 1518.49 2.42449 -5.62036 0
M  V30 16552 N 1517.63 3.54486 -6.0604 0
M  V30 16553 H 1522.47 0.307164 -2.96413 0
M  V30 16554 H 1520.01 0.139913 -1.46433 0
M  V30 16555 H 1521.97 2.78298 -3.10815 0
M  V30 16556 H 1520.6 2.5391 -1.99323 0
M  V30 16557 H 1519.65 0.834817 -3.71127 0
M  V30 16558 H 1520.96 1.30765 -4.81354 0
M  V30 16559 H 1520.11 3.66325 -4.83623 0
M  V30 16560 H 1518.85 3.24235 -3.64312 0
M  V30 16561 H 1517.86 1.59985 -5.26008 0
M  V30 16562 H 1519.08 2.04744 -6.475 0
M  V30 16563 H 1517.03 3.92948 -5.25289 0
M  V30 16564 H 1516.95 3.22871 -6.83586 0
M  V30 16565 H 1518.21 4.35792 -6.46302 0
M  V30 16566 N 1522.44 1.56945 0.143535 0
M  V30 16567 C 1523.69 1.84696 0.851985 0
M  V30 16568 C 1524.04 0.714713 1.78633 0
M  V30 16569 O 1523.34 -0.287092 1.89437 0
M  V30 16570 C 1523.53 3.16482 1.66054 0
M  V30 16571 C 1523.36 4.42418 0.80599 0
M  V30 16572 C 1522.13 5.03107 0.470269 0
M  V30 16573 C 1524.33 5.14123 0.134742 0
M  V30 16574 N 1522.31 6.12612 -0.397516 0
M  V30 16575 C 1523.68 6.17157 -0.593039 0
M  V30 16576 C 1525.74 4.97869 0.0557743 0
M  V30 16577 C 1524.44 7.05696 -1.39234 0
M  V30 16578 C 1526.47 5.86874 -0.730272 0
M  V30 16579 C 1525.83 6.89392 -1.44632 0
M  V30 16580 H 1521.93 0.726447 0.28948 0
M  V30 16581 H 1524.51 1.94347 0.117143 0
M  V30 16582 H 1522.68 3.07972 2.3666 0
M  V30 16583 H 1524.41 3.32128 2.31243 0
M  V30 16584 H 1521.17 4.66676 0.806858 0
M  V30 16585 H 1521.59 6.71985 -0.822534 0
M  V30 16586 H 1526.23 4.18592 0.595021 0
M  V30 16587 H 1523.95 7.84398 -1.94283 0
M  V30 16588 H 1527.54 5.76365 -0.79341 0
M  V30 16589 H 1526.42 7.57072 -2.04479 0
M  V30 16590 N 1523.92 -0.412991 1.52093 0
M  V30 16591 C 1525.17 -1.16202 1.66208 0
M  V30 16592 C 1525.5 -1.90265 0.388957 0
M  V30 16593 O 1524.78 -1.84605 -0.612477 0
M  V30 16594 C 1525.06 -2.15958 2.88157 0
M  V30 16595 C 1524.91 -1.45817 4.25509 0
M  V30 16596 C 1526.23 -3.16671 3.05626 0
M  V30 16597 H 1523.35 -0.421083 0.604862 0
M  V30 16598 H 1525.99 -0.448212 1.84638 0
M  V30 16599 H 1524.14 -2.76831 2.72574 0
M  V30 16600 H 1525.81 -0.880925 4.52811 0
M  V30 16601 H 1524.06 -0.760175 4.27088 0
M  V30 16602 H 1524.73 -2.18587 5.06877 0
M  V30 16603 H 1527.2 -2.65871 3.20081 0
M  V30 16604 H 1526.08 -3.83739 3.92474 0
M  V30 16605 H 1526.34 -3.84178 2.18769 0
M  V30 16606 N 1525.4 -1.4265 -0.669982 0
M  V30 16607 C 1526.65 -1.43376 -1.43002 0
M  V30 16608 C 1526.97 -0.0519386 -1.94431 0
M  V30 16609 O 1526.23 0.940456 -1.71621 0
M  V30 16610 C 1526.53 -2.40913 -2.63999 0
M  V30 16611 C 1526.19 -3.87183 -2.31085 0
M  V30 16612 C 1524.86 -4.27024 -2.21819 0
M  V30 16613 C 1527.21 -4.79428 -2.04447 0
M  V30 16614 C 1524.54 -5.57084 -1.84049 0
M  V30 16615 C 1526.89 -6.09835 -1.68179 0
M  V30 16616 C 1525.55 -6.4867 -1.57428 0
M  V30 16617 H 1524.82 -0.524651 -0.52328 0
M  V30 16618 H 1527.47 -1.75622 -0.763494 0
M  V30 16619 H 1525.77 -2.02012 -3.35706 0
M  V30 16620 H 1527.47 -2.38737 -3.22189 0
M  V30 16621 H 1524.06 -3.55642 -2.392 0
M  V30 16622 H 1528.25 -4.49431 -2.10535 0
M  V30 16623 H 1523.5 -5.86029 -1.74298 0
M  V30 16624 H 1527.68 -6.80796 -1.46594 0
M  V30 16625 H 1525.3 -7.49358 -1.2793 0
M  V30 16626 N 1526.88 0.906753 -1.28902 0
M  V30 16627 C 1528.13 1.65119 -1.15839 0
M  V30 16628 C 1528.44 1.93426 0.290825 0
M  V30 16629 O 1529.65 2.66021 0.542678 0
M  V30 16630 C 1528.1 2.97492 -2.0255 0
M  V30 16631 C 1527.71 2.76807 -3.52253 0
M  V30 16632 C 1529.45 3.75393 -1.98192 0
M  V30 16633 C 1527.36 4.04863 -4.31091 0
M  V30 16634 H 1526.29 0.619409 -0.429939 0
M  V30 16635 H 1528.94 1.00567 -1.53488 0
M  V30 16636 H 1527.32 3.63217 -1.57763 0
M  V30 16637 H 1528.5 2.19719 -4.05044 0
M  V30 16638 H 1526.81 2.1231 -3.58209 0
M  V30 16639 H 1529.41 4.70325 -2.54358 0
M  V30 16640 H 1529.75 4.05074 -0.960267 0
M  V30 16641 H 1530.29 3.16498 -2.40985 0
M  V30 16642 H 1527.02 3.80353 -5.33865 0
M  V30 16643 H 1526.54 4.61537 -3.83072 0
M  V30 16644 H 1528.22 4.73066 -4.41381 0
M  V30 16645 N 1528.36 1.11264 1.11616 0
M  V30 16646 C 1529.58 0.882802 1.87121 0
M  V30 16647 C 1530 -0.567279 1.80076 0
M  V30 16648 O 1529.36 -1.39158 1.18074 0
M  V30 16649 C 1529.41 1.33355 3.36004 0
M  V30 16650 O 1529.13 2.72678 3.42897 0
M  V30 16651 C 1530.63 1.13886 4.28421 0
M  V30 16652 H 1527.85 0.316275 0.591786 0
M  V30 16653 H 1530.39 1.4795 1.41177 0
M  V30 16654 H 1528.55 0.780347 3.79459 0
M  V30 16655 H 1528.96 2.92168 4.35589 0
M  V30 16656 H 1530.44 1.50329 5.31136 0
M  V30 16657 H 1530.91 0.078259 4.3913 0
M  V30 16658 H 1531.52 1.67896 3.90757 0
M  V30 16659 N 1529.83 -1.29188 0.902679 0
M  V30 16660 C 1531.08 -1.94718 0.526082 0
M  V30 16661 C 1531.4 -1.71924 -0.932816 0
M  V30 16662 O 1532.6 -2.31585 -1.41707 0
M  V30 16663 C 1531.06 -3.48723 0.889974 0
M  V30 16664 C 1530.67 -3.80312 2.36784 0
M  V30 16665 C 1532.41 -4.20472 0.58343 0
M  V30 16666 C 1530.32 -5.27574 2.67244 0
M  V30 16667 H 1529.25 -0.728875 0.193019 0
M  V30 16668 H 1531.9 -1.46869 1.10008 0
M  V30 16669 H 1530.28 -3.95242 0.244872 0
M  V30 16670 H 1531.45 -3.44641 3.05875 0
M  V30 16671 H 1529.77 -3.21709 2.64371 0
M  V30 16672 H 1532.37 -5.28864 0.787813 0
M  V30 16673 H 1532.71 -4.13544 -0.478204 0
M  V30 16674 H 1533.24 -3.79693 1.1865 0
M  V30 16675 H 1529.98 -5.39569 3.72217 0
M  V30 16676 H 1529.5 -5.64482 2.0278 0
M  V30 16677 H 1531.18 -5.95199 2.53666 0
M  V30 16678 N 1531.31 -0.665475 -1.42861 0
M  V30 16679 C 1532.54 -0.192 -2.06007 0
M  V30 16680 C 1532.95 1.1472 -1.49949 0
M  V30 16681 O 1532.31 1.71074 -0.635599 0
M  V30 16682 C 1532.36 -0.108189 -3.61338 0
M  V30 16683 O 1532.08 -1.39446 -4.15315 0
M  V30 16684 C 1533.58 0.3899 -4.41582 0
M  V30 16685 H 1530.8 -0.0955812 -0.664158 0
M  V30 16686 H 1533.35 -0.909582 -1.83158 0
M  V30 16687 H 1531.5 0.560024 -3.83331 0
M  V30 16688 H 1531.92 -1.26168 -5.09099 0
M  V30 16689 H 1533.39 0.39747 -5.50567 0
M  V30 16690 H 1533.87 1.42348 -4.15492 0
M  V30 16691 H 1534.47 -0.246248 -4.24587 0
M  V30 16692 N 1532.79 1.52222 -0.408187 0
M  V30 16693 C 1533.74 2.28544 0.432458 0
M  V30 16694 C 1534.73 1.33198 1.04665 0
M  V30 16695 O 1535.94 1.50661 0.984954 0
M  V30 16696 H 1532.31 0.735162 0.158241 0
M  V30 16697 H 1534.28 2.97493 -0.232482 0
M  V30 16698 C 1533.03 3.11864 1.53741 0
M  V30 16699 H 1532.36 3.851 1.07414 0
M  V30 16700 H 1533.8 3.68374 2.09945 0
M  V30 16701 C 1532.25 2.25367 2.50423 0
M  V30 16702 O 1532.78 1.89329 3.54285 0
M  V30 16703 N 1530.99 1.89155 2.2061 0
M  V30 16704 H 1530.54 2.18661 1.36181 0
M  V30 16705 H 1530.5 1.31574 2.85544 0
M  V30 16706 N 1534.27 0.138579 1.5699 0
M  V30 16707 C 1535.54 -0.559239 1.87435 0
M  V30 16708 C 1535.92 -1.83527 1.04312 0
M  V30 16709 O 1535.27 -2.28144 0.127531 0
M  V30 16710 C 1535.48 -0.83282 3.38918 0
M  V30 16711 C 1536.83 -1.1773 4.07952 0
M  V30 16712 O 1537.85 -0.92245 3.44048 0
M  V30 16713 O 1536.71 -1.6565 5.2079 0
M  V30 16714 H 1533.81 -0.284318 0.77659 0
M  V30 16715 H 1536.35 0.174558 1.688 0
M  V30 16716 H 1535.13 0.0706054 3.91236 0
M  V30 16717 H 1534.75 -1.62109 3.63051 0
M  V30 16718 N 1535.75 -1.57019 -0.13521 0
M  V30 16719 C 1537.16 -1.51949 -0.48824 0
M  V30 16720 C 1537.36 -0.848955 -1.82743 0
M  V30 16721 O 1536.42 -0.424441 -2.48907 0
M  V30 16722 C 1537.73 -2.96719 -0.487673 0
M  V30 16723 C 1539.28 -3.07722 -0.572365 0
M  V30 16724 C 1539.75 -4.54022 -0.602347 0
M  V30 16725 N 1541.24 -4.58413 -0.664242 0
M  V30 16726 C 1541.98 -5.69005 -0.70862 0
M  V30 16727 N 1541.48 -6.89135 -0.711626 0
M  V30 16728 N 1543.27 -5.57069 -0.750399 0
M  V30 16729 H 1535.42 -1.99001 0.742465 0
M  V30 16730 H 1537.68 -0.908116 0.272083 0
M  V30 16731 H 1537.39 -3.49082 0.428363 0
M  V30 16732 H 1537.26 -3.53299 -1.32136 0
M  V30 16733 H 1539.65 -2.55372 -1.47882 0
M  V30 16734 H 1539.73 -2.54166 0.288696 0
M  V30 16735 H 1539.37 -5.07013 0.3 0
M  V30 16736 H 1539.3 -5.05373 -1.48006 0
M  V30 16737 H 1541.8 -3.71936 -0.668739 0
M  V30 16738 H 1542.11 -7.69175 -0.747663 0
M  V30 16739 H 1540.45 -6.91672 -0.679311 0
M  V30 16740 H 1543.64 -4.62129 -0.745301 0
M  V30 16741 H 1543.82 -6.4327 -0.781518 0
M  V30 16742 N 1537.22 0.404919 -1.52309 0
M  V30 16743 C 1538.15 1.50039 -1.78915 0
M  V30 16744 C 1539.14 1.57587 -0.640329 0
M  V30 16745 O 1540.32 1.72793 -0.886344 0
M  V30 16746 C 1537.45 2.87819 -1.94364 0
M  V30 16747 C 1536.4 2.9512 -3.09981 0
M  V30 16748 C 1535.73 4.35195 -3.10659 0
M  V30 16749 C 1537.03 2.66219 -4.4936 0
M  V30 16750 H 1538.72 1.28025 -2.70647 0
M  V30 16751 H 1536.27 0.61445 -1.30233 0
M  V30 16752 H 1538.22 3.64446 -2.11559 0
M  V30 16753 H 1536.95 3.11136 -0.993067 0
M  V30 16754 H 1535.61 2.20939 -2.92543 0
M  V30 16755 H 1535.25 4.55528 -2.13316 0
M  V30 16756 H 1534.95 4.41003 -3.88317 0
M  V30 16757 H 1536.48 5.1375 -3.29989 0
M  V30 16758 H 1537.89 3.32567 -4.66982 0
M  V30 16759 H 1536.29 2.83398 -5.28967 0
M  V30 16760 H 1537.36 1.61636 -4.57167 0
M  V30 16761 N 1538.7 1.43003 0.662408 0
M  V30 16762 C 1539.93 1.47766 1.45533 0
M  V30 16763 C 1540.35 0.0940298 1.87865 0
M  V30 16764 O 1539.71 -0.910252 1.56793 0
M  V30 16765 C 1539.76 2.42084 2.6726 0
M  V30 16766 O 1538.86 1.90076 3.65985 0
M  V30 16767 H 1538.2 0.500167 0.436725 0
M  V30 16768 H 1540.73 1.87823 0.811399 0
M  V30 16769 H 1540.74 2.5908 3.15185 0
M  V30 16770 H 1539.42 3.42601 2.3579 0
M  V30 16771 H 1538 1.82695 3.2508 0
M  V30 16772 N 1540.18 -0.899904 1.29381 0
M  V30 16773 C 1541.41 -1.68911 1.20349 0
M  V30 16774 C 1541.83 -1.86657 -0.232523 0
M  V30 16775 O 1541.19 -1.38674 -1.16787 0
M  V30 16776 C 1541.24 -3.05124 1.92177 0
M  V30 16777 O 1540.34 -3.93358 1.23867 0
M  V30 16778 H 1539.68 -0.516698 0.417036 0
M  V30 16779 H 1542.21 -1.12422 1.70946 0
M  V30 16780 H 1542.22 -3.55267 2.00623 0
M  V30 16781 H 1540.9 -2.91525 2.96624 0
M  V30 16782 H 1539.47 -3.51793 1.23677 0
M  V30 16783 N 1541.66 -1.11854 -1.11024 0
M  V30 16784 C 1542.62 -0.784033 -2.15373 0
M  V30 16785 C 1543.62 0.198686 -1.59568 0
M  V30 16786 O 1544.81 -0.0263428 -1.7418 0
M  V30 16787 C 1541.94 -0.163987 -3.40505 0
M  V30 16788 H 1543.14 -1.70849 -2.46477 0
M  V30 16789 H 1540.69 -0.920988 -1.26283 0
M  V30 16790 H 1541.42 0.770483 -3.15014 0
M  V30 16791 H 1541.21 -0.871447 -3.82293 0
M  V30 16792 H 1542.7 0.0537739 -4.17565 0
M  V30 16793 N 1543.14 1.28707 -0.909517 0
M  V30 16794 C 1544.08 2.29396 -0.384756 0
M  V30 16795 C 1545.08 1.61179 0.521318 0
M  V30 16796 O 1546.28 1.7543 0.403032 0
M  V30 16797 H 1542.66 0.744518 -0.105814 0
M  V30 16798 H 1544.63 2.71089 -1.24714 0
M  V30 16799 C 1543.38 3.45792 0.363795 0
M  V30 16800 H 1542.7 3.98483 -0.324198 0
M  V30 16801 H 1544.14 4.18254 0.695681 0
M  V30 16802 C 1542.6 2.98075 1.57012 0
M  V30 16803 O 1543.13 3.00187 2.66929 0
M  V30 16804 N 1541.34 2.53787 1.41565 0
M  V30 16805 H 1540.88 2.52268 0.521415 0
M  V30 16806 H 1540.84 2.2222 2.22408 0
M  V30 16807 N 1544.61 0.673042 1.42506 0
M  V30 16808 C 1545.54 0.00755467 2.33499 0
M  V30 16809 C 1546.53 -0.791161 1.50581 0
M  V30 16810 O 1547.71 -0.748668 1.79189 0
M  V30 16811 C 1544.84 -0.945638 3.34178 0
M  V30 16812 C 1543.79 -0.25564 4.27236 0
M  V30 16813 C 1543.12 -1.32165 5.18109 0
M  V30 16814 C 1544.42 0.864254 5.151 0
M  V30 16815 H 1546.11 0.767487 2.89396 0
M  V30 16816 H 1543.66 0.370524 1.39151 0
M  V30 16817 H 1545.61 -1.42026 3.96745 0
M  V30 16818 H 1544.34 -1.73697 2.76581 0
M  V30 16819 H 1543 0.19873 3.66061 0
M  V30 16820 H 1542.64 -2.10492 4.56839 0
M  V30 16821 H 1542.34 -0.865109 5.81197 0
M  V30 16822 H 1543.87 -1.79724 5.83551 0
M  V30 16823 H 1545.28 0.470924 5.71363 0
M  V30 16824 H 1543.68 1.24648 5.87012 0
M  V30 16825 H 1544.75 1.71378 4.53605 0
M  V30 16826 N 1546.09 -1.52004 0.416254 0
M  V30 16827 C 1547.32 -2.06008 -0.156264 0
M  V30 16828 C 1547.73 -1.28562 -1.3881 0
M  V30 16829 O 1547.07 -0.33265 -1.80663 0
M  V30 16830 C 1547.14 -3.55039 -0.564614 0
M  V30 16831 C 1546.8 -4.53587 0.557481 0
M  V30 16832 C 1547.8 -5.0004 1.42324 0
M  V30 16833 C 1545.48 -4.96935 0.732205 0
M  V30 16834 C 1547.48 -5.88492 2.4486 0
M  V30 16835 C 1545.16 -5.85181 1.76087 0
M  V30 16836 C 1546.16 -6.30855 2.61747 0
M  V30 16837 O 1545.85 -7.17353 3.6285 0
M  V30 16838 H 1545.58 -0.675681 -0.0207555 0
M  V30 16839 H 1548.13 -1.96806 0.58792 0
M  V30 16840 H 1546.36 -3.61951 -1.36119 0
M  V30 16841 H 1548.05 -3.91656 -1.06586 0
M  V30 16842 H 1548.82 -4.67261 1.29968 0
M  V30 16843 H 1544.7 -4.60939 0.0751016 0
M  V30 16844 H 1548.24 -6.24063 3.11754 0
M  V30 16845 H 1544.14 -6.17373 1.8847 0
M  V30 16846 H 1544.91 -7.35481 3.59179 0
M  V30 16847 N 1547.57 -0.146903 -1.56914 0
M  V30 16848 C 1548.82 0.504195 -1.95297 0
M  V30 16849 C 1549.13 1.66019 -1.03426 0
M  V30 16850 O 1550.34 2.37591 -1.31388 0
M  V30 16851 C 1548.79 0.948348 -3.47181 0
M  V30 16852 C 1548.4 -0.18071 -4.47635 0
M  V30 16853 C 1550.15 1.56924 -3.9443 0
M  V30 16854 C 1548.05 0.281707 -5.90729 0
M  V30 16855 H 1546.98 0.192127 -0.729111 0
M  V30 16856 H 1549.63 -0.231232 -1.82037 0
M  V30 16857 H 1548.02 1.73903 -3.55772 0
M  V30 16858 H 1549.19 -0.957645 -4.50739 0
M  V30 16859 H 1547.51 -0.710007 -4.10302 0
M  V30 16860 H 1550.1 1.92684 -4.98776 0
M  V30 16861 H 1550.45 2.45816 -3.35976 0
M  V30 16862 H 1550.98 0.843456 -3.88755 0
M  V30 16863 H 1547.72 -0.571839 -6.53001 0
M  V30 16864 H 1547.24 1.02452 -5.90985 0
M  V30 16865 H 1548.92 0.733746 -6.42826 0
M  V30 16866 N 1549.05 1.57088 0.126881 0
M  V30 16867 C 1550 2.00736 1.17506 0
M  V30 16868 C 1550.99 0.902986 1.43327 0
M  V30 16869 O 1552.2 1.08819 1.43382 0
M  V30 16870 H 1548.57 0.639285 0.396003 0
M  V30 16871 H 1550.54 2.88015 0.780373 0
M  V30 16872 C 1549.29 2.42096 2.49569 0
M  V30 16873 H 1548.61 3.26639 2.30536 0
M  V30 16874 H 1550.05 2.76442 3.2149 0
M  V30 16875 C 1548.51 1.28148 3.11576 0
M  V30 16876 O 1549.04 0.593145 3.97297 0
M  V30 16877 N 1547.25 1.04055 2.71332 0
M  V30 16878 H 1546.8 1.60208 2.0172 0
M  V30 16879 H 1546.75 0.280075 3.1315 0
M  V30 16880 N 1550.53 -0.396836 1.52522 0
M  V30 16881 C 1551.77 -1.14037 1.66853 0
M  V30 16882 C 1552.1 -1.90706 0.406987 0
M  V30 16883 O 1551.37 -1.87165 -0.578443 0
M  V30 16884 H 1549.95 -0.423967 0.615029 0
M  V30 16885 H 1552.61 -0.451042 1.89609 0
M  V30 16886 H 1551.7 -1.84763 2.51533 0
M  V30 16887 N 1552.01 -1.43353 -0.654814 0
M  V30 16888 C 1553.25 -1.451 -1.41682 0
M  V30 16889 C 1553.58 -0.0743864 -1.94057 0
M  V30 16890 O 1552.86 0.904515 -1.72188 0
M  V30 16891 C 1553.14 -2.49204 -2.59941 0
M  V30 16892 C 1553 -3.96134 -2.13069 0
M  V30 16893 C 1554.31 -2.50064 -3.62155 0
M  V30 16894 H 1551.43 -0.528339 -0.513836 0
M  V30 16895 H 1554.08 -1.74892 -0.742489 0
M  V30 16896 H 1552.23 -2.2393 -3.1747 0
M  V30 16897 H 1553.9 -4.32459 -1.60552 0
M  V30 16898 H 1552.14 -4.09042 -1.44455 0
M  V30 16899 H 1552.81 -4.64585 -2.98101 0
M  V30 16900 H 1555.29 -2.72587 -3.14382 0
M  V30 16901 H 1554.16 -3.24849 -4.42452 0
M  V30 16902 H 1554.42 -1.53385 -4.14639 0
M  V30 16903 N 1553.48 0.89303 -1.29857 0
M  V30 16904 C 1554.41 2.01422 -1.18117 0
M  V30 16905 C 1555.39 1.6994 -0.0737487 0
M  V30 16906 O 1556.58 1.92527 -0.254387 0
M  V30 16907 C 1553.71 3.36385 -0.863842 0
M  V30 16908 C 1552.66 3.821 -1.92831 0
M  V30 16909 C 1551.99 5.14263 -1.46415 0
M  V30 16910 C 1553.29 4.01699 -3.33819 0
M  V30 16911 H 1554.98 2.11502 -2.11913 0
M  V30 16912 H 1552.53 1.01622 -1.02024 0
M  V30 16913 H 1554.48 4.14335 -0.768397 0
M  V30 16914 H 1553.21 3.26415 0.109816 0
M  V30 16915 H 1551.87 3.06372 -2.01325 0
M  V30 16916 H 1551.51 5.00714 -0.478983 0
M  V30 16917 H 1551.21 5.45821 -2.17609 0
M  V30 16918 H 1552.74 5.94747 -1.38234 0
M  V30 16919 H 1554.15 4.70111 -3.28129 0
M  V30 16920 H 1552.55 4.44621 -4.03029 0
M  V30 16921 H 1553.62 3.05816 -3.76304 0
M  V30 16922 N 1554.96 1.12442 1.10429 0
M  V30 16923 C 1555.89 0.736067 2.16003 0
M  V30 16924 C 1556.87 -0.272805 1.60295 0
M  V30 16925 O 1558.06 -0.166744 1.87761 0
M  V30 16926 C 1555.18 0.0894945 3.38582 0
M  V30 16927 C 1554.23 1.0652 4.12984 0
M  V30 16928 S 1555.06 2.59279 4.68546 0
M  V30 16929 C 1556.22 1.95952 5.94436 0
M  V30 16930 H 1556.45 1.63033 2.48611 0
M  V30 16931 H 1553.98 0.94351 1.22218 0
M  V30 16932 H 1555.94 -0.27718 4.09563 0
M  V30 16933 H 1554.6 -0.781885 3.04213 0
M  V30 16934 H 1553.8 0.560426 5.00874 0
M  V30 16935 H 1553.4 1.37482 3.47814 0
M  V30 16936 H 1555.69 1.30231 6.64866 0
M  V30 16937 H 1556.63 2.81882 6.49575 0
M  V30 16938 H 1557.04 1.41533 5.46469 0
M  V30 16939 N 1556.44 -1.28223 0.91633 0
M  V30 16940 C 1557.69 -1.9448 0.549734 0
M  V30 16941 C 1558.01 -1.72465 -0.909999 0
M  V30 16942 O 1557.28 -1.06583 -1.64368 0
M  V30 16943 H 1555.86 -0.719641 0.200315 0
M  V30 16944 H 1558.52 -1.56156 1.16625 0
M  V30 16945 H 1557.62 -3.03044 0.746363 0
M  V30 16946 N 1557.92 -0.68059 -1.42147 0
M  V30 16947 C 1559.14 -0.212293 -2.06311 0
M  V30 16948 C 1559.57 1.12402 -1.50822 0
M  V30 16949 O 1558.93 1.70037 -0.629051 0
M  V30 16950 C 1558.97 -0.164156 -3.60226 0
M  V30 16951 O 1558.08 0.865582 -4.03214 0
M  V30 16952 H 1557.42 -0.107451 -0.655248 0
M  V30 16953 H 1559.95 -0.931233 -1.82179 0
M  V30 16954 H 1559.96 0.0100422 -4.07999 0
M  V30 16955 H 1558.63 -1.13952 -3.99985 0
M  V30 16956 H 1557.21 0.661955 -3.66978 0
M  V30 16957 N 1559.4 1.51781 -0.424309 0
M  V30 16958 C 1560.36 2.25996 0.381903 0
M  V30 16959 C 1561.36 1.28938 0.960813 0
M  V30 16960 O 1562.55 1.52757 0.837306 0
M  V30 16961 C 1559.68 3.04181 1.53904 0
M  V30 16962 H 1560.87 2.98697 -0.268336 0
M  V30 16963 H 1558.43 1.55293 -0.177167 0
M  V30 16964 H 1559.16 2.35866 2.22571 0
M  V30 16965 H 1558.95 3.75457 1.13025 0
M  V30 16966 H 1560.44 3.60434 2.10896 0
M  V30 16967 N 1560.87 0.155222 1.56834 0
M  V30 16968 C 1561.78 -0.794179 2.20749 0
M  V30 16969 C 1562.8 -1.26546 1.19424 0
M  V30 16970 O 1563.98 -1.32094 1.5203 0
M  V30 16971 C 1561.04 -2.01261 2.82303 0
M  V30 16972 C 1560.1 -1.58976 3.98779 0
M  V30 16973 C 1559.33 -2.75011 4.57389 0
M  V30 16974 O 1559.56 -3.91449 4.14879 0
M  V30 16975 O 1558.49 -2.50011 5.4752 0
M  V30 16976 H 1562.32 -0.280064 3.02406 0
M  V30 16977 H 1559.9 -0.0722048 1.49225 0
M  V30 16978 H 1561.78 -2.72551 3.21394 0
M  V30 16979 H 1560.46 -2.51609 2.03653 0
M  V30 16980 H 1559.37 -0.846848 3.64389 0
M  V30 16981 H 1560.7 -1.13336 4.78974 0
M  V30 16982 N 1562.35 -1.57153 -0.118549 0
M  V30 16983 C 1563.6 -1.84064 -0.824832 0
M  V30 16984 C 1563.91 -0.740941 -1.81023 0
M  V30 16985 O 1565.12 -0.896464 -2.56273 0
M  V30 16986 C 1563.58 -3.26338 -1.51761 0
M  V30 16987 C 1563.18 -4.44318 -0.573174 0
M  V30 16988 C 1564.93 -3.62496 -2.209 0
M  V30 16989 C 1562.83 -5.7762 -1.2692 0
M  V30 16990 H 1561.76 -0.686521 -0.311777 0
M  V30 16991 H 1564.42 -1.83336 -0.0775833 0
M  V30 16992 H 1562.8 -3.21537 -2.3115 0
M  V30 16993 H 1563.97 -4.60418 0.187529 0
M  V30 16994 H 1562.29 -4.16398 0.0112747 0
M  V30 16995 H 1564.88 -4.5936 -2.73666 0
M  V30 16996 H 1565.23 -2.89952 -2.9872 0
M  V30 16997 H 1565.76 -3.69084 -1.48399 0
M  V30 16998 H 1562.5 -6.53335 -0.532285 0
M  V30 16999 H 1562.02 -5.65406 -2.00191 0
M  V30 17000 H 1563.7 -6.21391 -1.80227 0
M  V30 17001 N 1563.83 0.388742 -1.5273 0
M  V30 17002 C 1565.06 1.15495 -1.71664 0
M  V30 17003 C 1565.47 1.83717 -0.435127 0
M  V30 17004 O 1564.83 1.72686 0.590411 0
M  V30 17005 C 1564.88 2.20279 -2.86635 0
M  V30 17006 O 1564.6 1.54838 -4.09825 0
M  V30 17007 C 1566.1 3.09625 -3.1725 0
M  V30 17008 H 1563.32 0.346271 -0.57475 0
M  V30 17009 H 1565.87 0.454729 -1.9938 0
M  V30 17010 H 1564.02 2.85936 -2.61379 0
M  V30 17011 H 1564.44 2.24466 -4.74042 0
M  V30 17012 H 1565.91 3.79177 -4.01159 0
M  V30 17013 H 1566.39 3.73147 -2.31643 0
M  V30 17014 H 1566.99 2.49612 -3.44345 0
M  V30 17015 N 1565.31 1.43698 0.647203 0
M  V30 17016 C 1566.56 1.45346 1.40425 0
M  V30 17017 C 1566.88 0.081129 1.94831 0
M  V30 17018 O 1566.15 -0.884379 1.74801 0
M  V30 17019 H 1564.73 0.535145 0.521181 0
M  V30 17020 H 1567.39 1.79349 0.762887 0
M  V30 17021 H 1566.48 2.16954 2.2436 0
M  V30 17022 N 1566.79 -0.886131 1.30328 0
M  V30 17023 C 1567.72 -2.00793 1.19183 0
M  V30 17024 C 1568.7 -1.69899 0.08276 0
M  V30 17025 O 1569.88 -1.92389 0.264593 0
M  V30 17026 C 1567.01 -3.35922 0.881669 0
M  V30 17027 C 1565.97 -3.81072 1.94855 0
M  V30 17028 C 1565.29 -5.1348 1.4914 0
M  V30 17029 C 1566.59 -3.99923 3.35944 0
M  V30 17030 H 1568.29 -2.10375 2.13032 0
M  V30 17031 H 1565.83 -1.0108 1.02561 0
M  V30 17032 H 1567.79 -4.13922 0.790359 0
M  V30 17033 H 1566.51 -3.26469 -0.0925037 0
M  V30 17034 H 1565.17 -3.053 2.02947 0
M  V30 17035 H 1564.82 -5.00453 0.50553 0
M  V30 17036 H 1564.52 -5.44659 2.205 0
M  V30 17037 H 1566.04 -5.94005 1.41386 0
M  V30 17038 H 1567.45 -4.68364 3.30617 0
M  V30 17039 H 1565.85 -4.42477 4.05381 0
M  V30 17040 H 1566.92 -3.03816 3.77921 0
M  V30 17041 N 1568.26 -1.13026 -1.09832 0
M  V30 17042 C 1569.51 -0.887662 -1.81563 0
M  V30 17043 C 1569.83 0.587935 -1.85926 0
M  V30 17044 O 1569.1 1.42732 -1.3418 0
M  V30 17045 H 1567.68 -0.32541 -0.672397 0
M  V30 17046 H 1570.35 -1.42597 -1.32861 0
M  V30 17047 H 1569.44 -1.2747 -2.84882 0
M  V30 17048 N 1569.74 1.27735 -0.923117 0
M  V30 17049 C 1570.71 2.25256 -0.423375 0
M  V30 17050 C 1571.71 1.54213 0.455517 0
M  V30 17051 O 1572.9 1.7229 0.257245 0
M  V30 17052 C 1570.03 3.3864 0.391897 0
M  V30 17053 H 1571.22 2.70978 -1.28495 0
M  V30 17054 H 1568.77 1.39579 -0.703378 0
M  V30 17055 H 1569.51 2.98293 1.27248 0
M  V30 17056 H 1569.29 3.91376 -0.238194 0
M  V30 17057 H 1570.78 4.11133 0.732069 0
M  V30 17058 N 1571.22 0.688118 1.41784 0
M  V30 17059 C 1572.47 0.213085 2.00571 0
M  V30 17060 C 1572.78 -1.19176 1.55101 0
M  V30 17061 O 1573.99 -1.76387 2.06397 0
M  V30 17062 C 1572.44 0.330075 3.58383 0
M  V30 17063 C 1572.05 1.73981 4.12837 0
M  V30 17064 C 1573.8 -0.0855651 4.24414 0
M  V30 17065 C 1571.7 1.80886 5.63058 0
M  V30 17066 H 1570.63 0.075906 0.750169 0
M  V30 17067 H 1573.28 0.855236 1.62351 0
M  V30 17068 H 1571.67 -0.380199 3.94171 0
M  V30 17069 H 1572.84 2.47825 3.88484 0
M  V30 17070 H 1571.16 2.10447 3.59306 0
M  V30 17071 H 1573.75 -0.0543142 5.34672 0
M  V30 17072 H 1574.1 -1.12307 4.00865 0
M  V30 17073 H 1574.63 0.574169 3.93635 0
M  V30 17074 H 1571.37 2.82663 5.91424 0
M  V30 17075 H 1570.89 1.11417 5.89361 0
M  V30 17076 H 1572.57 1.56835 6.27704 0
M  V30 17077 N 1572.7 -1.51554 0.432352 0
M  V30 17078 C 1574.11 -1.59377 0.0843863 0
M  V30 17079 C 1574.31 -1.44364 -1.40575 0
M  V30 17080 O 1573.37 -1.28234 -2.17514 0
M  V30 17081 C 1574.68 -2.94652 0.600046 0
M  V30 17082 C 1576.23 -3.07949 0.560049 0
M  V30 17083 C 1576.71 -4.4574 1.0526 0
M  V30 17084 N 1578.2 -4.52046 1.01038 0
M  V30 17085 C 1578.93 -5.56979 1.36242 0
M  V30 17086 N 1578.43 -6.69355 1.78707 0
M  V30 17087 N 1580.22 -5.47311 1.2809 0
M  V30 17088 H 1572.37 -1.59558 1.40197 0
M  V30 17089 H 1574.64 -0.751868 0.577406 0
M  V30 17090 H 1574.34 -3.10993 1.64245 0
M  V30 17091 H 1574.22 -3.77193 0.0222482 0
M  V30 17092 H 1576.6 -2.91279 -0.473357 0
M  V30 17093 H 1576.68 -2.27259 1.17419 0
M  V30 17094 H 1576.33 -4.63156 2.08445 0
M  V30 17095 H 1576.26 -5.24962 0.415047 0
M  V30 17096 H 1578.75 -3.71389 0.69847 0
M  V30 17097 H 1579.06 -7.45438 2.03819 0
M  V30 17098 H 1577.41 -6.70576 1.82629 0
M  V30 17099 H 1580.6 -4.58403 0.947848 0
M  V30 17100 H 1580.77 -6.28978 1.55855 0
M  V30 17101 N 1574.18 -0.163538 -1.56749 0
M  V30 17102 C 1575.09 0.782461 -2.21167 0
M  V30 17103 C 1576.1 1.25911 -1.20093 0
M  V30 17104 O 1577.28 1.31286 -1.52728 0
M  V30 17105 C 1574.34 1.99761 -2.83366 0
M  V30 17106 C 1573.4 1.56859 -3.99617 0
M  V30 17107 C 1572.64 2.72582 -4.58841 0
M  V30 17108 O 1572.86 3.89243 -4.16949 0
M  V30 17109 O 1571.79 2.47104 -5.48838 0
M  V30 17110 H 1575.62 0.264023 -3.0255 0
M  V30 17111 H 1573.21 0.06429 -1.49262 0
M  V30 17112 H 1575.09 2.70843 -3.22835 0
M  V30 17113 H 1573.76 2.50526 -2.04984 0
M  V30 17114 H 1572.67 0.827511 -3.64833 0
M  V30 17115 H 1574 1.10794 -4.79568 0
M  V30 17116 N 1575.65 1.57214 0.110213 0
M  V30 17117 C 1576.93 1.76298 0.847249 0
M  V30 17118 C 1577.31 0.741294 1.97656 0
M  V30 17119 O 1576.66 -0.233104 2.27308 0
M  V30 17120 C 1576.87 3.21588 1.35582 0
M  V30 17121 C 1578.22 3.8434 1.80465 0
M  V30 17122 O 1579.24 3.25244 1.45241 0
M  V30 17123 O 1578.1 4.88231 2.45546 0
M  V30 17124 H 1575.19 0.722167 0.402993 0
M  V30 17125 H 1577.74 1.69443 0.0932694 0
M  V30 17126 H 1576.51 3.87472 0.54599 0
M  V30 17127 H 1576.14 3.33015 2.17225 0
M  V30 17128 N 1577.13 -0.380637 1.52934 0
M  V30 17129 C 1578.08 -1.48584 1.78957 0
M  V30 17130 C 1579.07 -1.56103 0.657901 0
M  V30 17131 O 1580.28 -1.59169 0.84055 0
M  V30 17132 H 1576.66 -0.494687 0.566382 0
M  V30 17133 H 1578.63 -1.23833 2.71492 0
M  V30 17134 C 1577.38 -2.85615 1.98291 0
M  V30 17135 H 1576.7 -2.80583 2.84804 0
M  V30 17136 H 1578.14 -3.62164 2.20485 0
M  V30 17137 C 1576.6 -3.28267 0.757764 0
M  V30 17138 O 1577.13 -4.01654 -0.0608007 0
M  V30 17139 N 1575.33 -2.84641 0.585486 0
M  V30 17140 H 1574.88 -2.25087 1.25274 0
M  V30 17141 H 1574.84 -3.13536 -0.232871 0
M  V30 17142 N 1578.61 -1.44039 -0.639573 0
M  V30 17143 C 1579.56 -1.50541 -1.77314 0
M  V30 17144 C 1580.55 -0.37781 -1.65133 0
M  V30 17145 O 1581.76 -0.552396 -1.71314 0
M  V30 17146 H 1578.13 -0.472221 -0.585245 0
M  V30 17147 H 1580.1 -2.45964 -1.68951 0
M  V30 17148 C 1578.85 -1.45868 -3.15623 0
M  V30 17149 H 1578.18 -2.31946 -3.25639 0
M  V30 17150 H 1579.62 -1.54479 -3.94857 0
M  V30 17151 C 1578.08 -0.178204 -3.36428 0
M  V30 17152 O 1578.61 0.755017 -3.94541 0
M  V30 17153 N 1576.81 -0.0840295 -2.90478 0
M  V30 17154 H 1576.36 -0.844281 -2.43371 0
M  V30 17155 H 1576.32 0.771988 -3.04775 0
M  V30 17156 N 1580.09 0.879207 -1.30796 0
M  V30 17157 C 1581.34 1.62625 -1.19315 0
M  V30 17158 C 1581.65 1.93999 0.249731 0
M  V30 17159 O 1582.86 2.67112 0.486129 0
M  V30 17160 C 1581.31 2.93129 -2.08815 0
M  V30 17161 C 1580.92 2.69272 -3.58045 0
M  V30 17162 C 1582.66 3.71105 -2.0611 0
M  V30 17163 C 1580.57 3.95628 -4.39582 0
M  V30 17164 H 1579.5 0.61015 -0.442981 0
M  V30 17165 H 1582.15 0.972892 -1.55586 0
M  V30 17166 H 1580.53 3.59789 -1.65432 0
M  V30 17167 H 1581.71 2.11078 -4.09613 0
M  V30 17168 H 1580.02 2.04664 -3.62632 0
M  V30 17169 H 1582.62 4.64824 -2.64277 0
M  V30 17170 H 1582.96 4.02946 -1.04597 0
M  V30 17171 H 1583.5 3.11315 -2.47644 0
M  V30 17172 H 1580.24 3.68943 -5.41813 0
M  V30 17173 H 1579.76 4.53307 -3.92775 0
M  V30 17174 H 1581.43 4.63597 -4.51317 0
M  V30 17175 N 1581.57 1.13606 1.09231 0
M  V30 17176 C 1582.8 0.922295 1.85206 0
M  V30 17177 C 1583.21 -0.528954 1.81239 0
M  V30 17178 O 1582.57 -1.36622 1.20999 0
M  V30 17179 C 1582.62 1.40453 3.331 0
M  V30 17180 O 1582.34 2.7989 3.37036 0
M  V30 17181 C 1583.84 1.22948 4.25909 0
M  V30 17182 H 1581.06 0.328757 0.584945 0
M  V30 17183 H 1583.6 1.50911 1.38007 0
M  V30 17184 H 1581.76 0.86066 3.77719 0
M  V30 17185 H 1582.17 3.01342 4.29294 0
M  V30 17186 H 1583.65 1.61562 5.27827 0
M  V30 17187 H 1584.12 0.171387 4.38865 0
M  V30 17188 H 1584.73 1.76147 3.87108 0
M  V30 17189 N 1583.05 -1.27244 0.929878 0
M  V30 17190 C 1583.98 -2.29161 0.448066 0
M  V30 17191 C 1584.96 -1.62806 -0.492776 0
M  V30 17192 O 1586.14 -1.90098 -0.39706 0
M  V30 17193 C 1583.27 -3.46019 -0.298002 0
M  V30 17194 C 1582.23 -4.24384 0.555211 0
M  V30 17195 C 1581.55 -5.33741 -0.320153 0
M  V30 17196 C 1582.85 -4.89535 1.8208 0
M  V30 17197 H 1584.55 -2.69712 1.29983 0
M  V30 17198 H 1582.09 -1.29659 0.626466 0
M  V30 17199 H 1584.04 -4.16419 -0.646024 0
M  V30 17200 H 1582.77 -3.0439 -1.18381 0
M  V30 17201 H 1581.43 -3.55733 0.885971 0
M  V30 17202 H 1581.08 -4.88354 -1.20498 0
M  V30 17203 H 1580.78 -5.8708 0.247241 0
M  V30 17204 H 1582.3 -6.06982 -0.663697 0
M  V30 17205 H 1583.71 -5.52209 1.54071 0
M  V30 17206 H 1582.11 -5.52941 2.33186 0
M  V30 17207 H 1583.18 -4.13113 2.53901 0
M  V30 17208 N 1584.52 -0.695628 -1.41417 0
M  V30 17209 C 1585.47 -0.0303383 -2.3078 0
M  V30 17210 C 1586.44 0.771218 -1.4711 0
M  V30 17211 O 1587.63 0.739239 -1.75897 0
M  V30 17212 C 1584.77 0.900034 -3.33157 0
M  V30 17213 C 1583.88 0.0900862 -4.31906 0
M  V30 17214 C 1583.01 1.01811 -5.21352 0
M  V30 17215 C 1582.05 0.201068 -6.1177 0
M  V30 17216 N 1581.19 1.0829 -6.93699 0
M  V30 17217 H 1586.03 -0.798148 -2.87113 0
M  V30 17218 H 1583.57 -0.405311 -1.41406 0
M  V30 17219 H 1585.52 1.45349 -3.91062 0
M  V30 17220 H 1584.15 1.63424 -2.78375 0
M  V30 17221 H 1583.21 -0.58029 -3.75948 0
M  V30 17222 H 1584.52 -0.543336 -4.95832 0
M  V30 17223 H 1583.67 1.64079 -5.84092 0
M  V30 17224 H 1582.41 1.68538 -4.57653 0
M  V30 17225 H 1581.42 -0.434686 -5.48079 0
M  V30 17226 H 1582.64 -0.462416 -6.77524 0
M  V30 17227 H 1580.59 1.73619 -6.32608 0
M  V30 17228 H 1580.5 0.505046 -7.54311 0
M  V30 17229 H 1581.77 1.69239 -7.60906 0
M  V30 17230 N 1586 1.51322 -0.440383 0
M  V30 17231 C 1586.93 2.30708 0.360013 0
M  V30 17232 C 1587.91 1.36254 1.01828 0
M  V30 17233 O 1589.1 1.65174 1.02134 0
M  V30 17234 C 1586.23 3.15132 1.45977 0
M  V30 17235 C 1585.18 4.17889 0.924825 0
M  V30 17236 C 1584.51 4.90853 2.12056 0
M  V30 17237 C 1585.81 5.22282 -0.0428362 0
M  V30 17238 H 1587.5 2.97868 -0.30248 0
M  V30 17239 H 1585.05 1.43249 -0.146914 0
M  V30 17240 H 1587 3.69449 2.02695 0
M  V30 17241 H 1585.72 2.45798 2.1506 0
M  V30 17242 H 1584.38 3.64627 0.379842 0
M  V30 17243 H 1584.03 4.1802 2.79765 0
M  V30 17244 H 1583.73 5.60339 1.769 0
M  V30 17245 H 1585.26 5.47995 2.69322 0
M  V30 17246 H 1586.67 5.71654 0.434137 0
M  V30 17247 H 1585.07 5.99314 -0.307126 0
M  V30 17248 H 1586.14 4.74923 -0.978557 0
M  V30 17249 N 1587.48 0.171848 1.5666 0
M  V30 17250 C 1588.76 -0.519355 1.88579 0
M  V30 17251 C 1589.14 -1.81273 1.08182 0
M  V30 17252 O 1588.48 -2.27822 0.175895 0
M  V30 17253 C 1588.69 -0.760743 3.40608 0
M  V30 17254 C 1590.04 -1.09051 4.10357 0
M  V30 17255 O 1591.07 -0.849264 3.45928 0
M  V30 17256 O 1589.93 -1.54566 5.24187 0
M  V30 17257 H 1587.02 -0.267782 0.782446 0
M  V30 17258 H 1589.57 0.210323 1.68392 0
M  V30 17259 H 1588.34 0.153577 3.90999 0
M  V30 17260 H 1587.96 -1.54372 3.66408 0
M  V30 17261 N 1588.96 -1.5727 -0.101874 0
M  V30 17262 C 1590.37 -1.5295 -0.455899 0
M  V30 17263 C 1590.57 -0.887526 -1.80901 0
M  V30 17264 O 1589.63 -0.477143 -2.47951 0
M  V30 17265 C 1590.94 -2.97687 -0.424625 0
M  V30 17266 C 1592.49 -3.08867 -0.506963 0
M  V30 17267 C 1592.97 -4.55197 -0.505907 0
M  V30 17268 N 1594.46 -4.59718 -0.566856 0
M  V30 17269 C 1595.19 -5.7038 -0.587766 0
M  V30 17270 N 1594.69 -6.9049 -0.56529 0
M  V30 17271 N 1596.48 -5.58535 -0.632067 0
M  V30 17272 H 1588.63 -1.97381 0.784509 0
M  V30 17273 H 1590.89 -0.902141 0.291284 0
M  V30 17274 H 1590.6 -3.48094 0.502312 0
M  V30 17275 H 1590.47 -3.56022 -1.24612 0
M  V30 17276 H 1592.86 -2.58451 -1.42432 0
M  V30 17277 H 1592.94 -2.53496 0.342544 0
M  V30 17278 H 1592.59 -5.06263 0.407477 0
M  V30 17279 H 1592.52 -5.08399 -1.37253 0
M  V30 17280 H 1595.01 -3.73271 -0.589696 0
M  V30 17281 H 1595.32 -7.70588 -0.584342 0
M  V30 17282 H 1593.67 -6.92957 -0.532444 0
M  V30 17283 H 1596.86 -4.63606 -0.647109 0
M  V30 17284 H 1597.03 -6.44783 -0.644895 0
M  V30 17285 N 1590.44 0.372521 -1.53134 0
M  V30 17286 C 1591.68 1.12465 -1.70678 0
M  V30 17287 C 1592.04 1.8676 -0.445503 0
M  V30 17288 O 1593.24 2.64155 -0.497531 0
M  V30 17289 C 1591.51 2.06389 -2.91785 0
M  V30 17290 S 1593.07 2.89216 -3.3 0
M  V30 17291 H 1589.89 0.380458 -0.600644 0
M  V30 17292 H 1592.49 0.406831 -1.9122 0
M  V30 17293 H 1591.19 1.50559 -3.81786 0
M  V30 17294 H 1590.73 2.82654 -2.73624 0
M  V30 17295 H 1592.74 4.08642 -2.81471 0
M  V30 17296 N 1591.91 1.44376 0.631925 0
M  V30 17297 C 1592.86 1.51479 1.76513 0
M  V30 17298 C 1593.86 0.386562 1.6493 0
M  V30 17299 O 1595.06 0.561473 1.71019 0
M  V30 17300 H 1591.44 0.475318 0.582733 0
M  V30 17301 H 1593.41 2.46856 1.67644 0
M  V30 17302 C 1592.16 1.4754 3.14845 0
M  V30 17303 H 1591.48 2.3367 3.24405 0
M  V30 17304 H 1592.92 1.5657 3.94033 0
M  V30 17305 C 1591.38 0.196043 3.36329 0
M  V30 17306 O 1591.91 -0.734083 3.94936 0
M  V30 17307 N 1590.11 0.0994331 2.9043 0
M  V30 17308 H 1589.66 0.857176 2.4292 0
M  V30 17309 H 1589.62 -0.755814 3.0518 0
M  V30 17310 N 1593.39 -0.872258 1.31261 0
M  V30 17311 C 1594.34 -2.00065 1.18645 0
M  V30 17312 C 1595.33 -1.69132 0.0952872 0
M  V30 17313 O 1596.54 -1.78156 0.257022 0
M  V30 17314 H 1592.91 -0.656201 0.367293 0
M  V30 17315 H 1594.89 -2.07837 2.14117 0
M  V30 17316 C 1593.63 -3.35628 0.908241 0
M  V30 17317 H 1592.96 -3.5995 1.74 0
M  V30 17318 H 1594.4 -4.15184 0.860134 0
M  V30 17319 C 1592.86 -3.34647 -0.388993 0
M  V30 17320 O 1593.39 -3.76271 -1.40651 0
M  V30 17321 N 1591.59 -2.87768 -0.404708 0
M  V30 17322 H 1591.14 -2.5409 0.423824 0
M  V30 17323 H 1591.1 -2.87494 -1.27258 0
M  V30 17324 N 1594.87 -1.14184 -1.08627 0
M  V30 17325 C 1595.82 -0.822297 -2.1758 0
M  V30 17326 C 1596.81 0.198863 -1.68229 0
M  V30 17327 O 1598.02 0.0551869 -1.79915 0
M  V30 17328 H 1594.39 -0.248183 -0.709866 0
M  V30 17329 H 1596.36 -1.74916 -2.41758 0
M  V30 17330 C 1595.11 -0.313671 -3.46282 0
M  V30 17331 H 1594.44 -1.09078 -3.84632 0
M  V30 17332 H 1595.88 -0.128604 -4.23805 0
M  V30 17333 C 1594.33 0.962289 -3.22865 0
M  V30 17334 O 1594.86 2.03649 -3.46251 0
M  V30 17335 N 1593.07 0.896635 -2.76421 0
M  V30 17336 H 1592.62 0.0223186 -2.5759 0
M  V30 17337 H 1592.58 1.75093 -2.61132 0
M  V30 17338 N 1596.35 1.26749 -0.936613 0
M  V30 17339 C 1597.3 2.28528 -0.433328 0
M  V30 17340 C 1598.29 1.62248 0.487012 0
M  V30 17341 O 1599.5 1.76245 0.36573 0
M  V30 17342 H 1595.87 0.742106 -0.121583 0
M  V30 17343 H 1597.84 2.68382 -1.30436 0
M  V30 17344 C 1596.59 3.46485 0.290366 0
M  V30 17345 H 1595.91 3.97706 -0.408649 0
M  V30 17346 H 1597.35 4.19635 0.606807 0
M  V30 17347 C 1595.81 3.01339 1.50654 0
M  V30 17348 O 1596.34 3.05781 2.60501 0
M  V30 17349 N 1594.55 2.56732 1.3615 0
M  V30 17350 H 1594.1 2.53317 0.467788 0
M  V30 17351 H 1594.05 2.26888 2.17645 0
M  V30 17352 N 1597.83 0.703118 1.41046 0
M  V30 17353 C 1598.76 0.00331992 2.292 0
M  V30 17354 C 1599.77 -0.736648 1.4518 0
M  V30 17355 O 1600.96 -0.586097 1.68604 0
M  V30 17356 C 1598.06 -1.01948 3.23203 0
M  V30 17357 C 1597.23 -0.347591 4.36017 0
M  V30 17358 C 1596.29 -1.27404 5.10543 0
M  V30 17359 O 1595.32 -0.763558 5.64055 0
M  V30 17360 N 1596.52 -2.60596 5.1872 0
M  V30 17361 H 1599.29 0.760179 2.89899 0
M  V30 17362 H 1596.85 0.549747 1.52281 0
M  V30 17363 H 1598.84 -1.64115 3.6993 0
M  V30 17364 H 1597.41 -1.6778 2.63758 0
M  V30 17365 H 1596.63 0.454088 3.91576 0
M  V30 17366 H 1597.92 0.119295 5.0866 0
M  V30 17367 H 1597.31 -3.0458 4.76705 0
M  V30 17368 H 1595.87 -3.17939 5.68998 0
M  V30 17369 N 1599.3 -1.51086 0.448402 0
M  V30 17370 C 1600.53 -2.06293 -0.112531 0
M  V30 17371 C 1600.94 -1.31478 -1.36052 0
M  V30 17372 O 1600.29 -0.370897 -1.79917 0
M  V30 17373 C 1600.35 -3.56156 -0.489178 0
M  V30 17374 C 1600.01 -4.52302 0.653568 0
M  V30 17375 C 1601.01 -4.96909 1.52898 0
M  V30 17376 C 1598.69 -4.9527 0.837448 0
M  V30 17377 C 1600.69 -5.83165 2.57288 0
M  V30 17378 C 1598.37 -5.81314 1.8846 0
M  V30 17379 C 1599.37 -6.25161 2.75069 0
M  V30 17380 O 1599.06 -7.09495 3.77985 0
M  V30 17381 H 1598.79 -0.67597 -0.00641865 0
M  V30 17382 H 1601.35 -1.95515 0.629533 0
M  V30 17383 H 1599.58 -3.64757 -1.28411 0
M  V30 17384 H 1601.27 -3.93828 -0.982548 0
M  V30 17385 H 1602.03 -4.64399 1.3985 0
M  V30 17386 H 1597.91 -4.60676 0.172857 0
M  V30 17387 H 1601.45 -6.1731 3.24921 0
M  V30 17388 H 1597.35 -6.13236 2.01523 0
M  V30 17389 H 1598.12 -7.27697 3.74699 0
M  V30 17390 N 1600.78 -0.180154 -1.56567 0
M  V30 17391 C 1602.03 0.463205 -1.97439 0
M  V30 17392 C 1602.36 1.62296 -1.06647 0
M  V30 17393 O 1601.64 1.94157 -0.115382 0
M  V30 17394 C 1601.92 0.937709 -3.47677 0
M  V30 17395 C 1601.77 -0.222835 -4.49248 0
M  V30 17396 C 1603.09 1.80836 -4.01231 0
M  V30 17397 H 1600.21 0.166899 -0.717854 0
M  V30 17398 H 1602.85 -0.268069 -1.88099 0
M  V30 17399 H 1601 1.56084 -3.55767 0
M  V30 17400 H 1602.67 -0.860155 -4.5321 0
M  V30 17401 H 1600.92 -0.876962 -4.24843 0
M  V30 17402 H 1601.59 0.151444 -5.51792 0
M  V30 17403 H 1604.06 1.28297 -3.95827 0
M  V30 17404 H 1602.94 2.10937 -5.06751 0
M  V30 17405 H 1603.2 2.75728 -3.45581 0
M  V30 17406 N 1602.26 1.57322 0.0935319 0
M  V30 17407 C 1603.49 1.90754 0.814111 0
M  V30 17408 C 1603.91 0.774571 1.71412 0
M  V30 17409 O 1603.27 -0.273775 1.79221 0
M  V30 17410 C 1603.32 3.23055 1.60211 0
M  V30 17411 O 1602.42 3.10755 2.71118 0
M  V30 17412 H 1601.76 0.625237 0.223552 0
M  V30 17413 H 1604.29 2.04486 0.068288 0
M  V30 17414 H 1604.3 3.56401 1.986 0
M  V30 17415 H 1602.98 4.05101 0.941607 0
M  V30 17416 H 1601.55 2.88926 2.35745 0
M  V30 17417 N 1603.74 -0.364395 1.53329 0
M  V30 17418 C 1604.99 -1.10423 1.68789 0
M  V30 17419 C 1605.3 -1.90428 0.446819 0
M  V30 17420 O 1606.51 -2.67188 0.481978 0
M  V30 17421 C 1604.96 -2.01228 2.98388 0
M  V30 17422 C 1604.57 -1.26529 4.29761 0
M  V30 17423 C 1606.31 -2.75196 3.23214 0
M  V30 17424 C 1604.22 -2.16243 5.50448 0
M  V30 17425 H 1603.15 -0.415935 0.628899 0
M  V30 17426 H 1605.8 -0.365145 1.7983 0
M  V30 17427 H 1604.18 -2.78872 2.81152 0
M  V30 17428 H 1605.36 -0.5394 4.57632 0
M  V30 17429 H 1603.67 -0.644181 4.11387 0
M  V30 17430 H 1606.27 -3.42548 4.10567 0
M  V30 17431 H 1606.61 -3.40629 2.39327 0
M  V30 17432 H 1607.15 -2.04635 3.4113 0
M  V30 17433 H 1603.89 -1.55385 6.36817 0
M  V30 17434 H 1603.41 -2.86678 5.26855 0
M  V30 17435 H 1605.08 -2.75774 5.85284 0
M  V30 17436 N 1605.22 -1.44709 -0.62426 0
M  V30 17437 C 1606.49 -1.38328 -1.38292 0
M  V30 17438 C 1606.87 -0.0454388 -2.11051 0
M  V30 17439 O 1606.22 0.972183 -2.06787 0
M  V30 17440 C 1606.43 -2.58602 -2.34364 0
M  V30 17441 C 1607.78 -3.02966 -2.97484 0
M  V30 17442 O 1608.8 -2.58856 -2.44688 0
M  V30 17443 O 1607.66 -3.79466 -3.93278 0
M  V30 17444 H 1604.76 -0.54812 -0.619269 0
M  V30 17445 H 1607.3 -1.5681 -0.648741 0
M  V30 17446 H 1606.07 -3.47573 -1.79746 0
M  V30 17447 H 1605.7 -2.42368 -3.15188 0
M  V30 17448 N 1606.69 0.865285 -1.31722 0
M  V30 17449 C 1607.64 1.97294 -1.19766 0
M  V30 17450 C 1608.61 1.65896 -0.0823232 0
M  V30 17451 O 1609.8 1.89075 -0.256009 0
M  V30 17452 C 1606.94 3.32727 -0.915776 0
M  V30 17453 C 1606.05 3.76691 -2.11489 0
M  V30 17454 C 1605.18 5.00865 -1.76939 0
M  V30 17455 C 1604.22 5.37291 -2.93232 0
M  V30 17456 N 1603.36 6.52643 -2.58846 0
M  V30 17457 H 1608.2 2.06851 -2.14515 0
M  V30 17458 H 1605.74 1.01256 -1.06703 0
M  V30 17459 H 1607.7 4.10712 -0.732881 0
M  V30 17460 H 1606.33 3.228 -0.00510917 0
M  V30 17461 H 1605.38 2.94449 -2.4084 0
M  V30 17462 H 1606.69 3.99613 -2.98514 0
M  V30 17463 H 1605.84 5.86529 -1.5514 0
M  V30 17464 H 1604.58 4.79857 -0.871125 0
M  V30 17465 H 1603.59 4.50143 -3.15675 0
M  V30 17466 H 1604.81 5.60262 -3.83775 0
M  V30 17467 H 1602.76 6.33172 -1.71548 0
M  V30 17468 H 1602.68 6.75531 -3.39401 0
M  V30 17469 H 1603.94 7.41487 -2.40451 0
M  V30 17470 N 1608.17 1.14759 1.0802 0
M  V30 17471 C 1609.42 0.918248 1.80484 0
M  V30 17472 C 1609.75 -0.554986 1.86414 0
M  V30 17473 O 1609 -1.42732 1.33888 0
M  V30 17474 C 1609.3 1.4692 3.25805 0
M  V30 17475 C 1608.97 2.96176 3.39987 0
M  V30 17476 C 1607.63 3.36923 3.43564 0
M  V30 17477 C 1609.98 3.92131 3.43341 0
M  V30 17478 C 1607.31 4.72281 3.48092 0
M  V30 17479 C 1609.66 5.27351 3.49404 0
M  V30 17480 C 1608.33 5.67605 3.51256 0
M  V30 17481 H 1607.6 0.336011 0.660437 0
M  V30 17482 H 1610.24 1.43191 1.27156 0
M  V30 17483 H 1608.55 0.876571 3.81868 0
M  V30 17484 H 1610.24 1.26765 3.80436 0
M  V30 17485 H 1606.83 2.63675 3.37896 0
M  V30 17486 H 1611.02 3.61728 3.39804 0
M  V30 17487 H 1606.27 5.02823 3.4782 0
M  V30 17488 H 1610.45 6.01507 3.50946 0
M  V30 17489 H 1608.08 6.72474 3.54517 0
M  V30 17490 N 1609.65 -1.26251 0.943322 0
M  V30 17491 C 1611.07 -1.45943 0.645966 0
M  V30 17492 C 1611.27 -1.84936 -0.800064 0
M  V30 17493 O 1610.32 -1.97238 -1.57649 0
M  V30 17494 C 1611.64 -2.54017 1.60922 0
M  V30 17495 C 1613.18 -2.67866 1.61916 0
M  V30 17496 C 1613.66 -3.79113 2.56977 0
M  V30 17497 N 1615.15 -3.86509 2.55275 0
M  V30 17498 C 1615.88 -4.72048 3.25513 0
M  V30 17499 N 1615.38 -5.61959 4.05184 0
M  V30 17500 N 1617.17 -4.65913 3.14454 0
M  V30 17501 H 1609.32 -0.992295 1.87796 0
M  V30 17502 H 1611.59 -0.497204 0.80715 0
M  V30 17503 H 1611.29 -2.32197 2.64155 0
M  V30 17504 H 1611.17 -3.51715 1.36294 0
M  V30 17505 H 1613.55 -2.89059 0.594067 0
M  V30 17506 H 1613.64 -1.70604 1.90598 0
M  V30 17507 H 1613.28 -3.58673 3.59605 0
M  V30 17508 H 1613.21 -4.75836 2.25583 0
M  V30 17509 H 1615.7 -3.22229 1.97425 0
M  V30 17510 H 1616.01 -6.24127 4.55725 0
M  V30 17511 H 1614.36 -5.61704 4.09285 0
M  V30 17512 H 1617.55 -3.94675 2.51693 0
M  V30 17513 H 1617.72 -5.32356 3.69461 0
M  V30 17514 N 1611.13 -0.710588 -1.40671 0
M  V30 17515 C 1612.38 -0.244967 -2.00207 0
M  V30 17516 C 1612.69 1.16693 -1.56978 0
M  V30 17517 O 1613.9 1.73081 -2.09177 0
M  V30 17518 C 1612.35 -0.387049 -3.57813 0
M  V30 17519 C 1611.96 -1.80527 -4.10017 0
M  V30 17520 C 1613.71 0.0180338 -4.24496 0
M  V30 17521 C 1611.61 -1.89821 -5.60109 0
M  V30 17522 H 1610.54 -0.087831 -0.748867 0
M  V30 17523 H 1613.19 -0.880956 -1.6097 0
M  V30 17524 H 1611.58 0.317442 -3.94726 0
M  V30 17525 H 1612.75 -2.53974 -3.84492 0
M  V30 17526 H 1611.06 -2.16137 -3.55913 0
M  V30 17527 H 1613.66 -0.0307544 -5.34691 0
M  V30 17528 H 1614 1.05915 -4.02601 0
M  V30 17529 H 1614.54 -0.63672 -3.92671 0
M  V30 17530 H 1611.28 -2.92036 -5.86852 0
M  V30 17531 H 1610.8 -1.20779 -5.87514 0
M  V30 17532 H 1612.48 -1.66801 -6.25129 0
M  V30 17533 N 1612.61 1.50847 -0.456408 0
M  V30 17534 C 1613.85 2.02235 0.103618 0
M  V30 17535 C 1614.18 1.33939 1.41034 0
M  V30 17536 O 1613.44 0.449209 1.90475 0
M  V30 17537 C 1613.74 3.55678 0.350374 0
M  V30 17538 C 1613.4 4.42371 -0.872844 0
M  V30 17539 C 1612.06 4.65784 -1.20825 0
M  V30 17540 C 1614.42 4.9311 -1.68797 0
M  V30 17541 C 1611.74 5.3718 -2.35911 0
M  V30 17542 C 1614.1 5.65769 -2.82998 0
M  V30 17543 C 1612.76 5.8744 -3.16971 0
M  V30 17544 H 1612.03 0.740029 0.0379167 0
M  V30 17545 H 1614.68 1.81609 -0.607497 0
M  V30 17546 H 1612.98 3.74739 1.14359 0
M  V30 17547 H 1614.68 3.92991 0.797418 0
M  V30 17548 H 1611.27 4.24358 -0.601511 0
M  V30 17549 H 1615.45 4.74889 -1.44203 0
M  V30 17550 H 1610.71 5.52169 -2.62524 0
M  V30 17551 H 1614.88 6.04069 -3.46516 0
M  V30 17552 H 1612.51 6.42541 -4.06258 0
M  V30 17553 N 1614.09 0.188454 1.56469 0
M  V30 17554 C 1615.33 -0.454307 1.99287 0
M  V30 17555 C 1615.69 -1.59256 1.07245 0
M  V30 17556 O 1616.89 -2.29905 1.39273 0
M  V30 17557 C 1615.16 -0.908909 3.4565 0
M  V30 17558 S 1616.72 -1.55044 4.10496 0
M  V30 17559 H 1613.54 -0.145527 0.695948 0
M  V30 17560 H 1616.14 0.289956 1.93338 0
M  V30 17561 H 1614.84 -0.0703211 4.1034 0
M  V30 17562 H 1614.38 -1.6868 3.55402 0
M  V30 17563 H 1616.39 -2.83905 4.06955 0
M  V30 17564 N 1615.56 -1.5737 -0.0851874 0
M  V30 17565 C 1616.51 -2.02758 -1.10262 0
M  V30 17566 C 1617.48 -0.905702 -1.39235 0
M  V30 17567 O 1618.67 -1.17241 -1.50529 0
M  V30 17568 C 1615.81 -2.46528 -2.41492 0
M  V30 17569 C 1614.92 -3.72278 -2.19165 0
M  V30 17570 C 1614.05 -4.04885 -3.43863 0
M  V30 17571 C 1613.09 -5.23715 -3.16842 0
M  V30 17572 N 1612.23 -5.52026 -4.33833 0
M  V30 17573 H 1617.07 -2.89453 -0.708583 0
M  V30 17574 H 1614.61 -1.43156 -0.338332 0
M  V30 17575 H 1616.56 -2.69952 -3.18091 0
M  V30 17576 H 1615.19 -1.62829 -2.78723 0
M  V30 17577 H 1614.25 -3.56272 -1.33321 0
M  V30 17578 H 1615.56 -4.5902 -1.95197 0
M  V30 17579 H 1614.71 -4.29138 -4.28865 0
M  V30 17580 H 1613.45 -3.16683 -3.70895 0
M  V30 17581 H 1612.46 -4.99272 -2.30234 0
M  V30 17582 H 1613.68 -6.13523 -2.91146 0
M  V30 17583 H 1611.63 -4.66784 -4.60922 0
M  V30 17584 H 1611.54 -6.3316 -4.13091 0
M  V30 17585 H 1612.81 -5.80822 -5.19871 0
M  V30 17586 N 1617.04 0.356258 -1.53521 0
M  V30 17587 C 1618 1.41975 -1.79933 0
M  V30 17588 C 1619 1.46177 -0.669997 0
M  V30 17589 O 1620.19 1.46774 -0.938239 0
M  V30 17590 C 1617.33 2.81015 -1.92985 0
M  V30 17591 H 1618.52 1.19824 -2.74922 0
M  V30 17592 H 1616.07 0.589928 -1.4474 0
M  V30 17593 H 1616.81 3.08466 -1.00095 0
M  V30 17594 H 1616.59 2.79363 -2.75135 0
M  V30 17595 H 1618.08 3.58013 -2.1498 0
M  V30 17596 N 1618.52 1.45038 0.616577 0
M  V30 17597 C 1619.45 1.55858 1.73869 0
M  V30 17598 C 1620.43 0.410657 1.65069 0
M  V30 17599 O 1621.62 0.632652 1.83606 0
M  V30 17600 C 1618.75 1.51635 3.12448 0
M  V30 17601 C 1617.7 2.65053 3.36052 0
M  V30 17602 C 1617.03 2.45883 4.74811 0
M  V30 17603 C 1618.33 4.07121 3.27185 0
M  V30 17604 H 1620.02 2.49784 1.6507 0
M  V30 17605 H 1617.57 1.20216 0.792724 0
M  V30 17606 H 1619.52 1.57803 3.90738 0
M  V30 17607 H 1618.24 0.542342 3.22066 0
M  V30 17608 H 1616.9 2.58299 2.60149 0
M  V30 17609 H 1616.55 1.46641 4.8115 0
M  V30 17610 H 1616.25 3.21935 4.9156 0
M  V30 17611 H 1617.77 2.53892 5.55312 0
M  V30 17612 H 1619.19 4.15167 3.9536 0
M  V30 17613 H 1617.58 4.83491 3.55466 0
M  V30 17614 H 1618.65 4.29663 2.24762 0
M  V30 17615 N 1620 -0.858287 1.32179 0
M  V30 17616 C 1620.95 -1.98796 1.2076 0
M  V30 17617 C 1621.94 -1.69021 0.11322 0
M  V30 17618 O 1623.15 -1.77873 0.275903 0
M  V30 17619 H 1619.52 -0.652269 0.374232 0
M  V30 17620 H 1621.49 -2.05555 2.1631 0
M  V30 17621 C 1620.24 -3.34646 0.943787 0
M  V30 17622 H 1619.56 -3.58084 1.77808 0
M  V30 17623 H 1621 -4.14248 0.904121 0
M  V30 17624 C 1619.46 -3.35041 -0.353477 0
M  V30 17625 O 1619.99 -3.77742 -1.36652 0
M  V30 17626 N 1618.2 -2.88181 -0.374164 0
M  V30 17627 H 1617.75 -2.53626 0.45075 0
M  V30 17628 H 1617.7 -2.88828 -1.24201 0
M  V30 17629 N 1621.48 -1.1533 -1.07409 0
M  V30 17630 C 1622.89 -0.937287 -1.61468 0
M  V30 17631 C 1623.24 0.521545 -1.89141 0
M  V30 17632 O 1622.36 1.39253 -1.65643 0
M  V30 17633 C 1622.96 -1.69501 -2.93351 0
M  V30 17634 C 1621.52 -1.52429 -3.44154 0
M  V30 17635 C 1620.66 -1.71098 -2.18222 0
M  V30 17636 H 1623.61 -1.30364 -0.905044 0
M  V30 17637 H 1623.64 -1.16416 -3.62253 0
M  V30 17638 H 1623.15 -2.75672 -2.73178 0
M  V30 17639 H 1621.25 -0.486498 -3.6941 0
M  V30 17640 H 1621.36 -2.30089 -4.20233 0
M  V30 17641 H 1619.73 -1.13745 -2.27891 0
M  V30 17642 H 1620.51 -2.78634 -2.00545 0
M  V30 17643 N 1622.95 1.25748 -0.950004 0
M  V30 17644 C 1623.9 2.26061 -0.46531 0
M  V30 17645 C 1624.87 1.59021 0.479742 0
M  V30 17646 O 1626.06 1.86687 0.394011 0
M  V30 17647 C 1623.2 3.44156 0.255146 0
M  V30 17648 C 1622.31 4.25846 -0.726604 0
M  V30 17649 C 1621.44 5.31198 0.0159429 0
M  V30 17650 C 1620.48 6.04572 -0.957046 0
M  V30 17651 N 1619.62 7.0167 -0.245676 0
M  V30 17652 H 1624.46 2.66891 -1.32563 0
M  V30 17653 H 1622 1.31216 -0.664882 0
M  V30 17654 H 1623.95 4.11465 0.689381 0
M  V30 17655 H 1622.58 3.04213 1.07954 0
M  V30 17656 H 1621.64 3.58242 -1.27933 0
M  V30 17657 H 1622.95 4.76669 -1.46928 0
M  V30 17658 H 1622.1 6.04561 0.509037 0
M  V30 17659 H 1620.84 4.81235 0.791442 0
M  V30 17660 H 1619.85 5.30028 -1.46118 0
M  V30 17661 H 1621.07 6.56624 -1.7327 0
M  V30 17662 H 1619.02 6.54005 0.51117 0
M  V30 17663 H 1618.93 7.50289 -0.927527 0
M  V30 17664 H 1620.2 7.79172 0.226034 0
M  V30 17665 N 1624.43 0.718038 1.40292 0
M  V30 17666 C 1625.34 0.0681535 2.34501 0
M  V30 17667 C 1626.36 -0.741048 1.57431 0
M  V30 17668 O 1627.53 -0.673437 1.89807 0
M  V30 17669 C 1624.6 -0.840758 3.36351 0
M  V30 17670 C 1623.66 -0.0212287 4.29295 0
M  V30 17671 C 1622.89 -0.886852 5.2628 0
M  V30 17672 O 1623.12 -2.12603 5.29298 0
M  V30 17673 O 1622.05 -0.324537 6.01024 0
M  V30 17674 H 1625.88 0.845288 2.91699 0
M  V30 17675 H 1623.46 0.478541 1.41529 0
M  V30 17676 H 1625.34 -1.36131 3.98806 0
M  V30 17677 H 1624.02 -1.597 2.81563 0
M  V30 17678 H 1622.92 0.544451 3.70117 0
M  V30 17679 H 1624.26 0.696846 4.87242 0
M  V30 17680 N 1625.91 -1.50602 0.464402 0
M  V30 17681 C 1627.16 -2.01478 -0.0945398 0
M  V30 17682 C 1627.47 -1.35165 -1.41386 0
M  V30 17683 O 1628.68 -1.7716 -2.05735 0
M  V30 17684 C 1627.13 -3.59233 -0.219003 0
M  V30 17685 C 1626.74 -4.345 1.09148 0
M  V30 17686 C 1628.49 -4.18172 -0.730262 0
M  V30 17687 C 1626.39 -5.84023 0.931179 0
M  V30 17688 H 1625.32 -0.752985 -0.0391065 0
M  V30 17689 H 1627.97 -1.73473 0.598283 0
M  V30 17690 H 1626.36 -3.83798 -0.975455 0
M  V30 17691 H 1627.53 -4.21665 1.85837 0
M  V30 17692 H 1625.85 -3.8714 1.53334 0
M  V30 17693 H 1628.44 -5.27622 -0.867119 0
M  V30 17694 H 1628.79 -3.79113 -1.71986 0
M  V30 17695 H 1629.32 -3.97788 -0.0313808 0
M  V30 17696 H 1626.06 -6.27543 1.89395 0
M  V30 17697 H 1625.58 -5.99451 0.20456 0
M  V30 17698 H 1627.26 -6.44257 0.595118 0
M  V30 17699 N 1627.39 -0.19675 -1.56367 0
M  V30 17700 C 1628.3 0.735372 -2.22777 0
M  V30 17701 C 1629.31 1.23336 -1.22737 0
M  V30 17702 O 1630.49 1.28017 -1.55479 0
M  V30 17703 C 1627.56 1.93706 -2.8754 0
M  V30 17704 C 1626.62 1.48348 -4.02854 0
M  V30 17705 C 1625.85 2.62788 -4.64519 0
M  V30 17706 O 1626.07 3.80311 -4.25111 0
M  V30 17707 O 1625.01 2.35406 -5.53956 0
M  V30 17708 H 1628.83 0.199788 -3.03042 0
M  V30 17709 H 1626.42 0.0326149 -1.49364 0
M  V30 17710 H 1628.3 2.63934 -3.28507 0
M  V30 17711 H 1626.97 2.46121 -2.10252 0
M  V30 17712 H 1625.88 0.749939 -3.66506 0
M  V30 17713 H 1627.21 1.00597 -4.8181 0
M  V30 17714 N 1628.87 1.57413 0.0768405 0
M  V30 17715 C 1629.81 2.0334 1.09185 0
M  V30 17716 C 1630.78 0.913073 1.38752 0
M  V30 17717 O 1631.97 1.18038 1.49906 0
M  V30 17718 C 1629.11 2.47805 2.40181 0
M  V30 17719 C 1628.22 3.73435 2.17188 0
M  V30 17720 C 1627.36 4.06703 3.41711 0
M  V30 17721 C 1626.4 5.25388 3.1406 0
M  V30 17722 N 1625.53 5.54319 4.309 0
M  V30 17723 H 1630.37 2.89825 0.693223 0
M  V30 17724 H 1627.91 1.43334 0.330736 0
M  V30 17725 H 1629.87 2.71635 3.16655 0
M  V30 17726 H 1628.5 1.64305 2.77856 0
M  V30 17727 H 1627.55 3.56974 1.3143 0
M  V30 17728 H 1628.86 4.60049 1.9276 0
M  V30 17729 H 1628.02 4.31407 4.26583 0
M  V30 17730 H 1626.75 3.18646 3.6921 0
M  V30 17731 H 1625.76 5.00486 2.27583 0
M  V30 17732 H 1626.98 6.15059 2.87888 0
M  V30 17733 H 1624.93 4.69222 4.5844 0
M  V30 17734 H 1624.85 6.35342 4.09727 0
M  V30 17735 H 1626.12 5.83571 5.16783 0
M  V30 17736 N 1630.34 -0.348112 1.53707 0
M  V30 17737 C 1631.27 -1.43296 1.8436 0
M  V30 17738 C 1632.26 -1.55102 0.698376 0
M  V30 17739 O 1633.44 -1.69385 0.949864 0
M  V30 17740 C 1630.57 -2.80407 2.04912 0
M  V30 17741 C 1629.52 -2.83412 3.20721 0
M  V30 17742 C 1628.85 -4.23365 3.26597 0
M  V30 17743 C 1630.15 -2.49358 4.58931 0
M  V30 17744 H 1631.84 -1.17892 2.75212 0
M  V30 17745 H 1629.39 -0.565692 1.32423 0
M  V30 17746 H 1631.34 -3.56343 2.24939 0
M  V30 17747 H 1630.07 -3.07236 1.10786 0
M  V30 17748 H 1628.73 -2.09929 3.00542 0
M  V30 17749 H 1628.37 -4.47297 2.30076 0
M  V30 17750 H 1628.07 -4.26287 4.04417 0
M  V30 17751 H 1629.6 -5.01149 3.4883 0
M  V30 17752 H 1631.01 -3.15006 4.79003 0
M  V30 17753 H 1629.41 -2.6357 5.3912 0
M  V30 17754 H 1630.48 -1.44557 4.62851 0
M  V30 17755 N 1631.82 -1.45363 -0.608876 0
M  V30 17756 C 1633.05 -1.52614 -1.39257 0
M  V30 17757 C 1633.46 -0.157106 -1.88547 0
M  V30 17758 O 1632.8 0.851329 -1.62782 0
M  V30 17759 C 1632.87 -2.44821 -2.63255 0
M  V30 17760 C 1632.53 -3.91582 -2.35612 0
M  V30 17761 C 1633.53 -4.81517 -1.96054 0
M  V30 17762 C 1631.21 -4.36488 -2.48564 0
M  V30 17763 C 1633.21 -6.14365 -1.69808 0
M  V30 17764 C 1630.89 -5.69377 -2.21931 0
M  V30 17765 C 1631.89 -6.58135 -1.82614 0
M  V30 17766 O 1631.58 -7.88561 -1.56292 0
M  V30 17767 H 1631.31 -0.51935 -0.432726 0
M  V30 17768 H 1633.86 -1.91227 -0.749768 0
M  V30 17769 H 1632.09 -2.01177 -3.30249 0
M  V30 17770 H 1633.78 -2.4277 -3.25296 0
M  V30 17771 H 1634.55 -4.48088 -1.85585 0
M  V30 17772 H 1630.43 -3.67646 -2.78133 0
M  V30 17773 H 1633.97 -6.83602 -1.39045 0
M  V30 17774 H 1629.87 -6.02361 -2.32016 0
M  V30 17775 H 1630.64 -8.00576 -1.70355 0
M  V30 17776 N 1633.3 0.851265 -1.32632 0
M  V30 17777 C 1634.53 1.63805 -1.26394 0
M  V30 17778 C 1634.94 1.88056 0.167454 0
M  V30 17779 O 1634.3 1.45196 1.10564 0
M  V30 17780 C 1634.35 2.9954 -2.02381 0
M  V30 17781 O 1634.07 2.76361 -3.39935 0
M  V30 17782 C 1635.57 3.93982 -2.03207 0
M  V30 17783 H 1632.79 0.510088 -0.435948 0
M  V30 17784 H 1635.34 1.06123 -1.74809 0
M  V30 17785 H 1633.49 3.53859 -1.5768 0
M  V30 17786 H 1633.91 3.62708 -3.78871 0
M  V30 17787 H 1635.38 4.86478 -2.60851 0
M  V30 17788 H 1635.86 4.27211 -1.01918 0
M  V30 17789 H 1636.46 3.45601 -2.47871 0
M  V30 17790 N 1634.78 1.15898 1.06796 0
M  V30 17791 C 1636 0.961859 1.83747 0
M  V30 17792 C 1636.43 -0.48494 1.81741 0
M  V30 17793 O 1635.79 -1.3461 1.21449 0
M  V30 17794 C 1635.83 1.48764 3.28484 0
M  V30 17795 O 1634.94 0.690576 4.06577 0
M  V30 17796 H 1634.28 0.342664 0.568751 0
M  V30 17797 H 1636.81 1.54015 1.34687 0
M  V30 17798 H 1636.82 1.50291 3.79311 0
M  V30 17799 H 1635.49 2.54089 3.29259 0
M  V30 17800 H 1634.07 0.74539 3.65374 0
M  V30 17801 N 1636.26 -1.25243 0.956659 0
M  V30 17802 C 1637.49 -1.96796 0.628878 0
M  V30 17803 C 1637.89 -1.71284 -0.803648 0
M  V30 17804 O 1637.24 -0.986812 -1.54944 0
M  V30 17805 C 1637.3 -3.50253 0.810132 0
M  V30 17806 C 1636.96 -3.99445 2.2202 0
M  V30 17807 C 1637.96 -4.09982 3.19704 0
M  V30 17808 C 1635.65 -4.33057 2.54493 0
M  V30 17809 C 1637.64 -4.53449 4.47954 0
M  V30 17810 C 1635.33 -4.7621 3.82972 0
M  V30 17811 C 1636.32 -4.86369 4.79515 0
M  V30 17812 O 1636.01 -5.28563 6.05703 0
M  V30 17813 H 1635.74 -0.634013 0.234529 0
M  V30 17814 H 1638.3 -1.60318 1.28402 0
M  V30 17815 H 1636.53 -3.86576 0.0978322 0
M  V30 17816 H 1638.22 -4.03015 0.483099 0
M  V30 17817 H 1638.98 -3.84243 2.95943 0
M  V30 17818 H 1634.86 -4.24375 1.80075 0
M  V30 17819 H 1638.41 -4.61294 5.23311 0
M  V30 17820 H 1634.3 -5.01394 4.06539 0
M  V30 17821 H 1635.07 -5.46744 6.09109 0
M  V30 17822 N 1637.73 -0.725468 -1.3991 0
M  V30 17823 C 1638.66 -0.094211 -2.3331 0
M  V30 17824 C 1639.65 0.734728 -1.53414 0
M  V30 17825 O 1640.83 0.681647 -1.81844 0
M  V30 17826 C 1637.96 0.820958 -3.37457 0
M  V30 17827 C 1636.91 0.0968983 -4.2789 0
M  V30 17828 C 1636.24 1.12845 -5.22657 0
M  V30 17829 C 1637.54 -1.05483 -5.11537 0
M  V30 17830 H 1639.23 -0.874365 -2.86348 0
M  V30 17831 H 1636.78 -0.421913 -1.3768 0
M  V30 17832 H 1638.73 1.27203 -4.01743 0
M  V30 17833 H 1637.46 1.63312 -2.82837 0
M  V30 17834 H 1636.12 -0.334454 -3.65071 0
M  V30 17835 H 1635.76 1.93392 -4.64337 0
M  V30 17836 H 1635.46 0.648805 -5.84007 0
M  V30 17837 H 1636.99 1.57942 -5.89819 0
M  V30 17838 H 1638.4 -0.682657 -5.69221 0
M  V30 17839 H 1636.8 -1.46349 -5.81981 0
M  V30 17840 H 1637.87 -1.88095 -4.46932 0
M  V30 17841 N 1639.21 1.50354 -0.472382 0
M  V30 17842 C 1640.44 2.07238 0.0820787 0
M  V30 17843 C 1640.86 1.3338 1.32632 0
M  V30 17844 O 1640.22 0.381857 1.77233 0
M  V30 17845 C 1640.27 3.58919 0.347746 0
M  V30 17846 O 1639.37 3.86888 1.42799 0
M  V30 17847 H 1638.71 0.663862 -0.0135544 0
M  V30 17848 H 1641.24 1.93533 -0.663795 0
M  V30 17849 H 1641.25 4.03743 0.587855 0
M  V30 17850 H 1639.93 4.12093 -0.56147 0
M  V30 17851 H 1638.51 3.53901 1.17509 0
M  V30 17852 N 1640.69 0.205039 1.56261 0
M  V30 17853 C 1641.94 -0.431364 1.97033 0
M  V30 17854 C 1642.25 -1.62066 1.09517 0
M  V30 17855 O 1643.46 -2.32551 1.40116 0
M  V30 17856 C 1641.92 -0.818841 3.50461 0
M  V30 17857 C 1641.52 0.346723 4.46656 0
M  V30 17858 C 1643.27 -1.42177 3.99982 0
M  V30 17859 C 1641.17 -0.0622677 5.91367 0
M  V30 17860 H 1640.1 -0.164934 0.73574 0
M  V30 17861 H 1642.76 0.298635 1.81054 0
M  V30 17862 H 1641.14 -1.60579 3.61981 0
M  V30 17863 H 1642.31 1.12427 4.46874 0
M  V30 17864 H 1640.63 0.861799 4.07384 0
M  V30 17865 H 1643.22 -1.74039 5.05583 0
M  V30 17866 H 1643.57 -2.33177 3.44868 0
M  V30 17867 H 1644.1 -0.698591 3.91618 0
M  V30 17868 H 1640.84 0.813802 6.50429 0
M  V30 17869 H 1640.36 -0.804474 5.94381 0
M  V30 17870 H 1642.04 -0.49466 6.45106 0
M  V30 17871 N 1642.17 -1.57451 -0.0684915 0
M  V30 17872 C 1643.4 -1.9164 -0.779855 0
M  V30 17873 C 1643.81 -0.801309 -1.70952 0
M  V30 17874 O 1643.17 0.225134 -1.81106 0
M  V30 17875 C 1643.22 -3.25594 -1.57068 0
M  V30 17876 O 1642.94 -4.32816 -0.678385 0
M  V30 17877 C 1644.44 -3.73818 -2.38275 0
M  V30 17878 H 1641.66 -0.633374 -0.221537 0
M  V30 17879 H 1644.21 -2.04465 -0.0377746 0
M  V30 17880 H 1642.36 -3.14287 -2.26501 0
M  V30 17881 H 1642.78 -5.09903 -1.22877 0
M  V30 17882 H 1644.25 -4.70168 -2.89216 0
M  V30 17883 H 1644.73 -3.02995 -3.17947 0
M  V30 17884 H 1645.33 -3.88081 -1.73992 0
M  V30 17885 N 1643.65 0.339955 -1.5389 0
M  V30 17886 C 1644.89 1.07979 -1.71309 0
M  V30 17887 C 1645.22 1.88531 -0.478147 0
M  V30 17888 O 1644.48 1.88099 0.540113 0
M  V30 17889 C 1644.78 2.04572 -2.93062 0
M  V30 17890 C 1644.44 1.40303 -4.28516 0
M  V30 17891 C 1643.1 1.22505 -4.65345 0
M  V30 17892 C 1645.46 0.940364 -5.12647 0
M  V30 17893 C 1642.78 0.570639 -5.83918 0
M  V30 17894 C 1645.14 0.299844 -6.31889 0
M  V30 17895 C 1643.8 0.109575 -6.6741 0
M  V30 17896 H 1643.07 0.395125 -0.626863 0
M  V30 17897 H 1645.72 0.358686 -1.88111 0
M  V30 17898 H 1644.02 2.83077 -2.70878 0
M  V30 17899 H 1645.72 2.61816 -3.03733 0
M  V30 17900 H 1642.31 1.55155 -3.99531 0
M  V30 17901 H 1646.49 1.06571 -4.84723 0
M  V30 17902 H 1641.75 0.411872 -6.10011 0
M  V30 17903 H 1645.92 -0.0667391 -6.96368 0
M  V30 17904 H 1643.55 -0.399556 -7.59149 0
M  V30 17905 N 1645.13 1.45684 0.601159 0
M  V30 17906 C 1646.06 1.57694 1.72206 0
M  V30 17907 C 1647.04 0.428141 1.64624 0
M  V30 17908 O 1648.22 0.65209 1.82925 0
M  V30 17909 C 1645.35 1.54941 3.10822 0
M  V30 17910 C 1644.31 2.68603 3.33222 0
M  V30 17911 C 1643.63 2.50906 4.72176 0
M  V30 17912 C 1644.93 4.10568 3.22849 0
M  V30 17913 H 1646.63 2.51521 1.62412 0
M  V30 17914 H 1644.17 1.2105 0.779929 0
M  V30 17915 H 1646.12 1.61939 3.89042 0
M  V30 17916 H 1644.85 0.576471 3.21472 0
M  V30 17917 H 1643.51 2.61043 2.57394 0
M  V30 17918 H 1643.16 1.51736 4.79568 0
M  V30 17919 H 1642.86 3.27131 4.88118 0
M  V30 17920 H 1644.38 2.59767 5.52588 0
M  V30 17921 H 1645.79 4.19336 3.90935 0
M  V30 17922 H 1644.19 4.87234 3.50318 0
M  V30 17923 H 1645.26 4.32022 2.20192 0
M  V30 17924 N 1646.6 -0.84422 1.33082 0
M  V30 17925 C 1648.02 -1.13406 1.12299 0
M  V30 17926 C 1648.22 -2.013 -0.0896529 0
M  V30 17927 O 1647.28 -2.40425 -0.771493 0
M  V30 17928 C 1648.59 -1.80132 2.40776 0
M  V30 17929 C 1650.14 -1.92721 2.46632 0
M  V30 17930 C 1650.61 -2.62863 3.75056 0
M  V30 17931 N 1652.1 -2.70379 3.76097 0
M  V30 17932 C 1652.84 -3.25328 4.72175 0
M  V30 17933 N 1652.33 -3.81005 5.78625 0
M  V30 17934 N 1654.13 -3.23529 4.59658 0
M  V30 17935 H 1646.28 -0.259126 2.10813 0
M  V30 17936 H 1648.54 -0.177459 0.931242 0
M  V30 17937 H 1648.25 -1.23007 3.29488 0
M  V30 17938 H 1648.12 -2.802 2.52523 0
M  V30 17939 H 1650.51 -2.49002 1.58373 0
M  V30 17940 H 1650.59 -0.916191 2.3883 0
M  V30 17941 H 1650.23 -2.07242 4.63695 0
M  V30 17942 H 1650.16 -3.64425 3.80134 0
M  V30 17943 H 1652.65 -2.30891 2.99162 0
M  V30 17944 H 1652.97 -4.21121 6.47979 0
M  V30 17945 H 1651.31 -3.79308 5.82366 0
M  V30 17946 H 1654.5 -2.79286 3.75656 0
M  V30 17947 H 1654.68 -3.66051 5.34706 0
M  V30 17948 N 1648.08 -1.16463 -1.0618 0
M  V30 17949 C 1649.36 -0.857038 -1.75824 0
M  V30 17950 C 1649.74 0.644886 -2.01009 0
M  V30 17951 O 1649.09 1.59305 -1.63812 0
M  V30 17952 C 1649.3 -1.681 -3.05849 0
M  V30 17953 C 1650.64 -1.8947 -3.79982 0
M  V30 17954 O 1651.67 -1.64975 -3.15692 0
M  V30 17955 O 1650.53 -2.30573 -4.95478 0
M  V30 17956 H 1647.62 -0.316364 -0.764096 0
M  V30 17957 H 1650.17 -1.27105 -1.12438 0
M  V30 17958 H 1648.94 -2.70014 -2.8321 0
M  V30 17959 H 1648.56 -1.2641 -3.7697 0
M  V30 17960 N 1649.56 1.24734 -0.963288 0
M  V30 17961 C 1650.81 1.92686 -0.622766 0
M  V30 17962 C 1651.13 1.75357 0.841442 0
M  V30 17963 O 1650.39 1.09757 1.62025 0
M  V30 17964 C 1650.69 3.44867 -0.938151 0
M  V30 17965 C 1650.35 3.82361 -2.38979 0
M  V30 17966 C 1649.02 3.92307 -2.78655 0
M  V30 17967 C 1651.37 4.00775 -3.3321 0
M  V30 17968 C 1648.7 4.1808 -4.11614 0
M  V30 17969 C 1651.05 4.28043 -4.65792 0
M  V30 17970 C 1649.71 4.36207 -5.05252 0
M  V30 17971 H 1648.98 0.705088 -0.227886 0
M  V30 17972 H 1651.63 1.48107 -1.21395 0
M  V30 17973 H 1649.93 3.90905 -0.264676 0
M  V30 17974 H 1651.63 3.95645 -0.653134 0
M  V30 17975 H 1648.22 3.75182 -2.07212 0
M  V30 17976 H 1652.41 3.92497 -3.03743 0
M  V30 17977 H 1647.66 4.22619 -4.41818 0
M  V30 17978 H 1651.84 4.41236 -5.3878 0
M  V30 17979 H 1649.46 4.55931 -6.08301 0
M  V30 17980 N 1651.04 0.732878 1.39523 0
M  V30 17981 C 1652.28 0.28919 2.01334 0
M  V30 17982 C 1652.64 -1.1106 1.5711 0
M  V30 17983 O 1651.93 -1.74598 0.78906 0
M  V30 17984 C 1652.13 0.32714 3.559 0
M  V30 17985 C 1651.95 1.72908 4.1513 0
M  V30 17986 C 1650.72 2.34081 4.4781 0
M  V30 17987 C 1652.92 2.68231 4.38813 0
M  V30 17988 N 1650.9 3.66452 4.92531 0
M  V30 17989 C 1652.28 3.85333 4.85715 0
M  V30 17990 C 1654.33 2.6602 4.20877 0
M  V30 17991 C 1653.03 5.00555 5.16563 0
M  V30 17992 C 1655.06 3.80385 4.52837 0
M  V30 17993 C 1654.42 4.96221 4.99944 0
M  V30 17994 H 1650.52 0.152033 0.767079 0
M  V30 17995 H 1653.1 0.958392 1.69478 0
M  V30 17996 H 1651.28 -0.311699 3.87147 0
M  V30 17997 H 1653.01 -0.134896 4.04475 0
M  V30 17998 H 1649.76 1.86025 4.35536 0
M  V30 17999 H 1650.19 4.34404 5.19251 0
M  V30 18000 H 1654.83 1.77659 3.83663 0
M  V30 18001 H 1652.55 5.89548 5.52683 0
M  V30 18002 H 1656.13 3.79969 4.40584 0
M  V30 18003 H 1655.01 5.83248 5.24205 0
M  V30 18004 N 1652.52 -1.50101 0.480349 0
M  V30 18005 C 1653.76 -2.01974 -0.0712904 0
M  V30 18006 C 1654.08 -1.36377 -1.39378 0
M  V30 18007 O 1653.35 -0.512162 -1.89087 0
M  V30 18008 H 1651.93 -0.746424 -0.0293362 0
M  V30 18009 H 1654.6 -1.84338 0.632883 0
M  V30 18010 H 1653.69 -3.11351 -0.216057 0
M  V30 18011 N 1653.99 -0.213323 -1.5615 0
M  V30 18012 C 1654.94 0.716708 -2.21283 0
M  V30 18013 C 1655.94 1.20599 -1.18963 0
M  V30 18014 O 1657.14 1.16677 -1.37064 0
M  V30 18015 H 1653.52 0.249524 -0.709395 0
M  V30 18016 H 1655.49 0.14385 -2.98053 0
M  V30 18017 C 1654.24 1.91775 -2.9003 0
M  V30 18018 H 1653.56 1.55036 -3.68516 0
M  V30 18019 H 1655 2.54646 -3.39016 0
M  V30 18020 C 1653.46 2.768 -1.92051 0
M  V30 18021 O 1653.99 3.75299 -1.43225 0
M  V30 18022 N 1652.19 2.42666 -1.5988 0
M  V30 18023 H 1651.74 1.62622 -1.99779 0
M  V30 18024 H 1651.7 2.99836 -0.945833 0
M  V30 18025 N 1655.47 1.57485 0.0601405 0
M  V30 18026 C 1656.88 1.76433 0.610583 0
M  V30 18027 C 1657.23 0.840353 1.77292 0
M  V30 18028 O 1656.36 0.0273238 2.16383 0
M  V30 18029 C 1656.95 3.19947 1.11441 0
M  V30 18030 C 1655.51 3.402 1.61062 0
M  V30 18031 C 1654.66 2.72089 0.535055 0
M  V30 18032 H 1657.61 1.57829 -0.166062 0
M  V30 18033 H 1657.63 3.24749 1.98288 0
M  V30 18034 H 1657.14 3.87172 0.268233 0
M  V30 18035 H 1655.25 2.78106 2.47967 0
M  V30 18036 H 1655.36 4.48696 1.67954 0
M  V30 18037 H 1653.72 2.34972 0.982855 0
M  V30 18038 H 1654.51 3.41977 -0.301135 0
M  V30 18039 N 1656.95 -0.331789 1.54068 0
M  V30 18040 C 1657.88 -1.41332 1.8587 0
M  V30 18041 C 1658.86 -1.54353 0.714787 0
M  V30 18042 O 1660.05 -1.68368 0.967777 0
M  V30 18043 C 1657.18 -2.78218 2.07875 0
M  V30 18044 C 1656.13 -2.79994 3.23709 0
M  V30 18045 C 1655.46 -4.19878 3.31069 0
M  V30 18046 C 1656.76 -2.44476 4.6155 0
M  V30 18047 H 1658.45 -1.14966 2.76447 0
M  V30 18048 H 1656 -0.551615 1.33016 0
M  V30 18049 H 1657.95 -3.53937 2.28706 0
M  V30 18050 H 1656.67 -3.06044 1.14038 0
M  V30 18051 H 1655.33 -2.0673 3.02751 0
M  V30 18052 H 1654.98 -4.44831 2.34807 0
M  V30 18053 H 1654.68 -4.21974 4.08915 0
M  V30 18054 H 1656.2 -4.97421 3.54125 0
M  V30 18055 H 1657.62 -3.09908 4.82317 0
M  V30 18056 H 1656.02 -2.57837 5.41886 0
M  V30 18057 H 1657.09 -1.3964 4.64358 0
M  V30 18058 N 1658.43 -1.46001 -0.593424 0
M  V30 18059 C 1659.84 -1.30719 -0.915678 0
M  V30 18060 C 1660.04 -0.270679 -1.99674 0
M  V30 18061 O 1659.1 0.330482 -2.50328 0
M  V30 18062 C 1660.41 -2.69034 -1.34318 0
M  V30 18063 C 1661.96 -2.77041 -1.45662 0
M  V30 18064 C 1662.44 -4.15913 -1.91783 0
M  V30 18065 N 1663.93 -4.18277 -1.98994 0
M  V30 18066 C 1664.66 -5.22612 -2.35932 0
M  V30 18067 N 1664.16 -6.37283 -2.71738 0
M  V30 18068 N 1665.95 -5.09975 -2.36394 0
M  V30 18069 H 1658.1 -2.12056 0.120882 0
M  V30 18070 H 1660.37 -0.947961 -0.00858574 0
M  V30 18071 H 1660.07 -3.4614 -0.622922 0
M  V30 18072 H 1659.95 -2.98434 -2.30688 0
M  V30 18073 H 1662.33 -2.0023 -2.16776 0
M  V30 18074 H 1662.41 -2.51338 -0.475706 0
M  V30 18075 H 1662.06 -4.93215 -1.2125 0
M  V30 18076 H 1661.99 -4.39016 -2.90813 0
M  V30 18077 H 1664.48 -3.35534 -1.73855 0
M  V30 18078 H 1664.79 -7.12679 -2.98846 0
M  V30 18079 H 1663.14 -6.40662 -2.69401 0
M  V30 18080 H 1666.33 -4.1943 -2.07836 0
M  V30 18081 H 1666.5 -5.91402 -2.64854 0
M  V30 18082 N 1659.91 0.83715 -1.33527 0
M  V30 18083 C 1661.14 1.6222 -1.27938 0
M  V30 18084 C 1661.54 1.88592 0.151584 0
M  V30 18085 O 1660.89 1.46772 1.1047 0
M  V30 18086 C 1660.95 2.99561 -1.98754 0
M  V30 18087 C 1660.61 2.96152 -3.48056 0
M  V30 18088 C 1661.61 2.71745 -4.43227 0
M  V30 18089 C 1659.3 3.16233 -3.90259 0
M  V30 18090 C 1661.29 2.67451 -5.78575 0
M  V30 18091 C 1658.98 3.11564 -5.2571 0
M  V30 18092 C 1659.97 2.87204 -6.1968 0
M  V30 18093 O 1659.66 2.82441 -7.5265 0
M  V30 18094 H 1659.39 0.511419 -0.442071 0
M  V30 18095 H 1661.95 1.05075 -1.76489 0
M  V30 18096 H 1660.18 3.58568 -1.44797 0
M  V30 18097 H 1661.87 3.60444 -1.86642 0
M  V30 18098 H 1662.63 2.5598 -4.11946 0
M  V30 18099 H 1658.51 3.34214 -3.17525 0
M  V30 18100 H 1662.06 2.48356 -6.51893 0
M  V30 18101 H 1657.95 3.26879 -5.56615 0
M  V30 18102 H 1658.72 2.98271 -7.62218 0
M  V30 18103 N 1661.38 1.17024 1.05561 0
M  V30 18104 C 1662.66 0.86635 1.75367 0
M  V30 18105 C 1663.04 -0.634217 2.01348 0
M  V30 18106 O 1662.39 -1.58434 1.64654 0
M  V30 18107 C 1662.6 1.69719 3.04953 0
M  V30 18108 C 1663.95 1.91482 3.78972 0
M  V30 18109 O 1664.97 1.66647 3.14813 0
M  V30 18110 O 1663.83 2.33197 4.94248 0
M  V30 18111 H 1660.92 0.320412 0.762407 0
M  V30 18112 H 1663.47 1.277 1.11763 0
M  V30 18113 H 1662.24 2.71512 2.81775 0
M  V30 18114 H 1661.87 1.28408 3.76294 0
M  V30 18115 N 1662.86 -1.24221 0.969889 0
M  V30 18116 C 1664.09 -1.96403 0.650658 0
M  V30 18117 C 1664.51 -1.71919 -0.780339 0
M  V30 18118 O 1663.86 -1.00427 -1.52383 0
M  V30 18119 C 1663.91 -3.49636 0.918542 0
M  V30 18120 O 1663.63 -3.73283 2.29328 0
M  V30 18121 C 1665.14 -4.3903 0.613803 0
M  V30 18122 H 1662.36 -0.625614 0.242587 0
M  V30 18123 H 1664.9 -1.57992 1.29842 0
M  V30 18124 H 1663.05 -3.86101 0.316959 0
M  V30 18125 H 1663.47 -4.67649 2.37496 0
M  V30 18126 H 1664.94 -5.4539 0.851679 0
M  V30 18127 H 1665.42 -4.36868 -0.451976 0
M  V30 18128 H 1666.03 -4.08155 1.19539 0
M  V30 18129 N 1664.34 -0.740267 -1.39132 0
M  V30 18130 C 1665.25 -0.105452 -2.34363 0
M  V30 18131 C 1666.27 0.715908 -1.5859 0
M  V30 18132 O 1667.44 0.643155 -1.90855 0
M  V30 18133 C 1664.51 0.787141 -3.37646 0
M  V30 18134 C 1663.57 -0.047071 -4.29274 0
M  V30 18135 C 1662.8 0.803014 -5.27624 0
M  V30 18136 O 1663.02 2.04155 -5.32613 0
M  V30 18137 O 1661.96 0.228879 -6.01465 0
M  V30 18138 H 1665.78 -0.891588 -2.90318 0
M  V30 18139 H 1663.37 -0.500996 -1.40749 0
M  V30 18140 H 1665.25 1.29769 -4.00921 0
M  V30 18141 H 1663.93 1.552 -2.84068 0
M  V30 18142 H 1662.83 -0.603265 -3.69204 0
M  V30 18143 H 1664.17 -0.774273 -4.86072 0
M  V30 18144 N 1665.82 1.49844 -0.488302 0
M  V30 18145 C 1667.05 2.06519 0.0577968 0
M  V30 18146 C 1667.46 1.35039 1.32519 0
M  V30 18147 O 1666.8 0.418468 1.7887 0
M  V30 18148 C 1666.86 3.57328 0.394577 0
M  V30 18149 C 1666.53 4.50411 -0.773259 0
M  V30 18150 C 1667.52 4.9268 -1.66019 0
M  V30 18151 C 1665.21 4.92875 -0.968465 0
M  V30 18152 C 1667.2 5.76139 -2.72659 0
M  V30 18153 C 1664.89 5.76113 -2.03806 0
M  V30 18154 C 1665.89 6.17648 -2.91548 0
M  V30 18155 O 1665.57 6.99224 -3.96663 0
M  V30 18156 H 1665.31 0.675902 -0.0115057 0
M  V30 18157 H 1667.86 1.93777 -0.681149 0
M  V30 18158 H 1666.09 3.68033 1.18695 0
M  V30 18159 H 1667.78 3.96295 0.877786 0
M  V30 18160 H 1668.55 4.60528 -1.52114 0
M  V30 18161 H 1664.42 4.60056 -0.294936 0
M  V30 18162 H 1667.97 6.08478 -3.41174 0
M  V30 18163 H 1663.87 6.07678 -2.17711 0
M  V30 18164 H 1664.63 7.17507 -3.93861 0
M  V30 18165 N 1667.3 0.221601 1.56034 0
M  V30 18166 C 1668.53 -0.414343 2.02402 0
M  V30 18167 C 1668.93 -1.5389 1.10066 0
M  V30 18168 O 1668.28 -1.83413 0.102587 0
M  V30 18169 C 1668.34 -1.00704 3.45107 0
M  V30 18170 C 1668 -0.0179259 4.56996 0
M  V30 18171 C 1669 0.782467 5.13978 0
M  V30 18172 C 1666.69 0.100842 5.02199 0
M  V30 18173 C 1668.68 1.68833 6.14633 0
M  V30 18174 C 1666.37 1.01024 6.02692 0
M  V30 18175 C 1667.36 1.80253 6.58785 0
M  V30 18176 O 1667.05 2.69664 7.57322 0
M  V30 18177 H 1666.78 -0.105645 0.667694 0
M  V30 18178 H 1669.34 0.335505 2.02641 0
M  V30 18179 H 1667.57 -1.80598 3.41937 0
M  V30 18180 H 1669.26 -1.5504 3.75123 0
M  V30 18181 H 1670.02 0.70116 4.79905 0
M  V30 18182 H 1665.9 -0.505723 4.58218 0
M  V30 18183 H 1669.45 2.30718 6.58343 0
M  V30 18184 H 1665.34 1.09256 6.36187 0
M  V30 18185 H 1666.11 2.6374 7.74844 0
M  V30 18186 N 1668.77 -1.57515 -0.0517878 0
M  V30 18187 C 1669.7 -2.0809 -1.05929 0
M  V30 18188 C 1670.69 -0.978529 -1.39136 0
M  V30 18189 O 1671.87 -1.25245 -1.48416 0
M  V30 18190 C 1669 -2.54147 -2.36699 0
M  V30 18191 C 1667.95 -3.68442 -2.17794 0
M  V30 18192 C 1667.28 -4.00624 -3.54125 0
M  V30 18193 C 1668.58 -4.97743 -1.5827 0
M  V30 18194 H 1670.27 -2.92515 -0.638371 0
M  V30 18195 H 1667.82 -1.40719 -0.305625 0
M  V30 18196 H 1669.77 -2.88145 -3.07491 0
M  V30 18197 H 1668.5 -1.66775 -2.80809 0
M  V30 18198 H 1667.16 -3.34758 -1.4944 0
M  V30 18199 H 1666.8 -3.10353 -3.95841 0
M  V30 18200 H 1666.5 -4.77597 -3.42308 0
M  V30 18201 H 1668.03 -4.37136 -4.26315 0
M  V30 18202 H 1669.44 -5.29843 -2.18951 0
M  V30 18203 H 1667.84 -5.79173 -1.57094 0
M  V30 18204 H 1668.91 -4.81815 -0.546127 0
M  V30 18205 N 1670.25 0.323614 -1.54242 0
M  V30 18206 C 1671.5 1.05909 -1.71657 0
M  V30 18207 C 1671.82 1.89177 -0.497151 0
M  V30 18208 O 1673.02 2.65816 -0.552649 0
M  V30 18209 C 1671.48 1.93246 -3.03618 0
M  V30 18210 C 1671.09 1.1509 -4.32965 0
M  V30 18211 C 1672.83 2.6653 -3.30397 0
M  V30 18212 C 1670.74 2.01573 -5.55988 0
M  V30 18213 H 1669.67 0.399114 -0.639706 0
M  V30 18214 H 1672.32 0.317338 -1.80735 0
M  V30 18215 H 1670.7 2.71319 -2.88447 0
M  V30 18216 H 1671.87 0.417877 -4.58901 0
M  V30 18217 H 1670.19 0.534882 -4.1295 0
M  V30 18218 H 1672.79 3.31542 -4.19504 0
M  V30 18219 H 1673.13 3.34164 -2.48274 0
M  V30 18220 H 1673.66 1.95518 -3.46435 0
M  V30 18221 H 1670.4 1.38446 -6.40713 0
M  V30 18222 H 1669.92 2.72609 -5.3427 0
M  V30 18223 H 1671.6 2.60159 -5.9239 0
M  V30 18224 N 1671.73 1.46313 0.585673 0
M  V30 18225 C 1673.14 1.4567 1.16778 0
M  V30 18226 C 1673.49 0.195957 1.95219 0
M  V30 18227 O 1672.62 -0.701142 2.04727 0
M  V30 18228 C 1673.21 2.6392 2.12443 0
M  V30 18229 C 1671.77 2.66327 2.65983 0
M  V30 18230 C 1670.92 2.38304 1.41797 0
M  V30 18231 H 1673.87 1.54236 0.37377 0
M  V30 18232 H 1673.89 2.39268 2.95856 0
M  V30 18233 H 1673.4 3.55663 1.55324 0
M  V30 18234 H 1671.5 1.78648 3.2698 0
M  V30 18235 H 1671.62 3.66203 3.08921 0
M  V30 18236 H 1669.98 1.88302 1.71507 0
M  V30 18237 H 1670.76 3.3222 0.86514 0
M  V30 18238 N 1673.21 -0.830057 1.33969 0
M  V30 18239 C 1674.46 -1.58821 1.26111 0
M  V30 18240 C 1674.79 -1.9345 -0.170484 0
M  V30 18241 O 1674.06 -1.59433 -1.11407 0
M  V30 18242 C 1674.35 -2.89243 2.14501 0
M  V30 18243 C 1674.2 -2.61239 3.66162 0
M  V30 18244 C 1675.52 -3.90752 2.02487 0
M  V30 18245 H 1672.64 -0.576255 0.459455 0
M  V30 18246 H 1675.28 -0.956736 1.64154 0
M  V30 18247 H 1673.43 -3.43133 1.82186 0
M  V30 18248 H 1675.1 -2.13713 4.08809 0
M  V30 18249 H 1673.34 -1.94796 3.87604 0
M  V30 18250 H 1674.02 -3.54212 4.23365 0
M  V30 18251 H 1676.49 -3.46194 2.30844 0
M  V30 18252 H 1675.37 -4.79825 2.6657 0
M  V30 18253 H 1675.63 -4.30649 0.999704 0
M  V30 18254 N 1674.69 -1.17582 -1.04939 0
M  V30 18255 C 1675.65 -0.897095 -2.10914 0
M  V30 18256 C 1676.65 0.113823 -1.60397 0
M  V30 18257 O 1677.84 -0.118635 -1.73796 0
M  V30 18258 C 1674.97 -0.344251 -3.39157 0
M  V30 18259 H 1676.17 -1.83674 -2.37074 0
M  V30 18260 H 1673.72 -0.986634 -1.21224 0
M  V30 18261 H 1674.45 0.602417 -3.18656 0
M  V30 18262 H 1674.24 -1.07287 -3.77137 0
M  V30 18263 H 1675.73 -0.167644 -4.17263 0
M  V30 18264 N 1676.17 1.23705 -0.976463 0
M  V30 18265 C 1677.39 1.96595 -0.660697 0
M  V30 18266 C 1677.82 1.71845 0.764916 0
M  V30 18267 O 1677.17 0.987506 1.52046 0
M  V30 18268 C 1677.22 3.47803 -0.95214 0
M  V30 18269 O 1676.33 4.12378 -0.0421126 0
M  V30 18270 H 1675.67 0.615591 -0.248886 0
M  V30 18271 H 1678.2 1.57247 -1.30899 0
M  V30 18272 H 1678.21 3.98236 -0.887238 0
M  V30 18273 H 1676.88 3.65144 -1.99105 0
M  V30 18274 H 1675.46 3.72552 -0.161087 0
M  V30 18275 N 1677.64 0.747635 1.38738 0
M  V30 18276 C 1678.87 0.310484 2.05063 0
M  V30 18277 C 1679.29 -1.05078 1.56013 0
M  V30 18278 O 1678.65 -1.66842 0.709461 0
M  V30 18279 C 1678.7 0.335837 3.59033 0
M  V30 18280 O 1677.8 -0.672218 4.06884 0
M  V30 18281 H 1677.14 0.138591 0.649375 0
M  V30 18282 H 1679.67 1.01709 1.77529 0
M  V30 18283 H 1679.68 0.184631 4.07582 0
M  V30 18284 H 1678.36 1.32906 3.94092 0
M  V30 18285 H 1676.94 -0.486112 3.69718 0
M  V30 18286 N 1679.12 -1.49583 0.496242 0
M  V30 18287 C 1680.35 -2.07342 -0.0490986 0
M  V30 18288 C 1680.77 -1.35474 -1.30493 0
M  V30 18289 O 1680.13 -0.410005 -1.76603 0
M  V30 18290 C 1680.18 -3.59427 -0.290601 0
M  V30 18291 O 1679.28 -3.89111 -1.36626 0
M  V30 18292 H 1678.62 -0.663562 0.0241141 0
M  V30 18293 H 1681.15 -1.92452 0.6945 0
M  V30 18294 H 1681.16 -4.04627 -0.523549 0
M  V30 18295 H 1679.84 -4.11147 0.626959 0
M  V30 18296 H 1678.41 -3.55726 -1.11864 0
M  V30 18297 N 1680.6 -0.229873 -1.55915 0
M  V30 18298 C 1681.55 0.676809 -2.20653 0
M  V30 18299 C 1682.52 1.18412 -1.16481 0
M  V30 18300 O 1683.7 1.2417 -1.44867 0
M  V30 18301 C 1680.84 1.87567 -2.89677 0
M  V30 18302 C 1679.95 1.40648 -4.08463 0
M  V30 18303 C 1679.09 2.56356 -4.65247 0
M  V30 18304 C 1678.13 2.06215 -5.76318 0
M  V30 18305 N 1677.27 3.15226 -6.27357 0
M  V30 18306 H 1682.11 0.118035 -2.97766 0
M  V30 18307 H 1679.64 0.0465042 -1.47026 0
M  V30 18308 H 1681.6 2.57968 -3.27884 0
M  V30 18309 H 1680.23 2.40719 -2.15067 0
M  V30 18310 H 1679.28 0.597104 -3.75684 0
M  V30 18311 H 1680.59 0.998877 -4.88696 0
M  V30 18312 H 1679.75 3.34827 -5.05941 0
M  V30 18313 H 1678.49 3.0041 -3.84194 0
M  V30 18314 H 1677.49 1.26209 -5.35118 0
M  V30 18315 H 1678.72 1.63151 -6.59211 0
M  V30 18316 H 1676.66 3.58746 -5.49215 0
M  V30 18317 H 1676.58 2.78744 -7.02736 0
M  V30 18318 H 1677.85 3.93807 -6.72708 0
M  V30 18319 N 1682.08 1.5754 0.0434337 0
M  V30 18320 C 1683.35 1.79733 0.771713 0
M  V30 18321 C 1683.73 0.82446 1.94334 0
M  V30 18322 O 1683.08 -0.136485 2.28092 0
M  V30 18323 C 1683.29 3.27049 1.2182 0
M  V30 18324 C 1684.64 3.91648 1.64002 0
M  V30 18325 O 1685.66 3.31111 1.31315 0
M  V30 18326 O 1684.52 4.98206 2.24618 0
M  V30 18327 H 1681.62 0.73861 0.372001 0
M  V30 18328 H 1684.16 1.69687 0.0213187 0
M  V30 18329 H 1682.94 3.89439 0.381158 0
M  V30 18330 H 1682.56 3.41929 2.02905 0
M  V30 18331 N 1683.56 -0.31543 1.54411 0
M  V30 18332 C 1684.8 -1.05396 1.73261 0
M  V30 18333 C 1685.13 -1.87406 0.509171 0
M  V30 18334 O 1684.41 -1.88126 -0.493836 0
M  V30 18335 C 1684.69 -1.97195 3.01308 0
M  V30 18336 C 1684.55 -1.18461 4.33921 0
M  V30 18337 C 1685.86 -2.96594 3.25146 0
M  V30 18338 H 1682.98 -0.381763 0.630417 0
M  V30 18339 H 1685.63 -0.329882 1.87114 0
M  V30 18340 H 1683.78 -2.58936 2.89628 0
M  V30 18341 H 1685.45 -0.591171 4.57496 0
M  V30 18342 H 1683.69 -0.487025 4.31057 0
M  V30 18343 H 1684.36 -1.85909 5.19752 0
M  V30 18344 H 1686.84 -2.44977 3.36341 0
M  V30 18345 H 1685.71 -3.58002 4.16084 0
M  V30 18346 H 1685.97 -3.69487 2.42758 0
M  V30 18347 N 1685.03 -1.46622 -0.577906 0
M  V30 18348 C 1685.97 -1.53587 -1.70128 0
M  V30 18349 C 1686.98 -0.423789 -1.57187 0
M  V30 18350 O 1688.17 -0.692392 -1.64524 0
M  V30 18351 C 1685.27 -1.40459 -3.08422 0
M  V30 18352 C 1684.44 -2.65872 -3.47319 0
M  V30 18353 C 1683.5 -2.46875 -4.64693 0
M  V30 18354 O 1682.53 -3.20617 -4.70312 0
M  V30 18355 N 1683.73 -1.53352 -5.59878 0
M  V30 18356 H 1686.49 -2.50449 -1.64606 0
M  V30 18357 H 1684.05 -1.42739 -0.764014 0
M  V30 18358 H 1686.05 -1.25516 -3.84744 0
M  V30 18359 H 1684.62 -0.517603 -3.08285 0
M  V30 18360 H 1683.84 -2.95724 -2.60655 0
M  V30 18361 H 1685.12 -3.49173 -3.70075 0
M  V30 18362 H 1684.52 -0.925526 -5.58078 0
M  V30 18363 H 1683.08 -1.4437 -6.3561 0
M  V30 18364 N 1686.51 0.822941 -1.34408 0
M  V30 18365 C 1687.44 1.94878 -1.28627 0
M  V30 18366 C 1688.42 1.6931 -0.163727 0
M  V30 18367 O 1689.61 1.90908 -0.356083 0
M  V30 18368 C 1686.74 3.31333 -1.04094 0
M  V30 18369 C 1685.69 3.71341 -2.12814 0
M  V30 18370 C 1685.02 5.05779 -1.73469 0
M  V30 18371 C 1686.32 3.83439 -3.54643 0
M  V30 18372 H 1688.01 1.99972 -2.22827 0
M  V30 18373 H 1685.56 0.960715 -1.07267 0
M  V30 18374 H 1687.51 4.0968 -0.986947 0
M  V30 18375 H 1686.24 3.26539 -0.0633642 0
M  V30 18376 H 1684.89 2.95269 -2.17282 0
M  V30 18377 H 1684.54 4.97471 -0.743727 0
M  V30 18378 H 1684.24 5.33518 -2.46236 0
M  V30 18379 H 1685.77 5.86583 -1.69566 0
M  V30 18380 H 1687.18 4.52057 -3.52587 0
M  V30 18381 H 1685.58 4.22632 -4.2603 0
M  V30 18382 H 1686.65 2.85439 -3.91986 0
M  V30 18383 N 1687.99 1.18137 1.04314 0
M  V30 18384 C 1688.94 0.906125 2.12269 0
M  V30 18385 C 1689.91 -0.153492 1.65389 0
M  V30 18386 O 1691.09 -0.0143887 1.90795 0
M  V30 18387 C 1688.23 0.435247 3.42344 0
M  V30 18388 C 1687.35 1.56 4.0285 0
M  V30 18389 C 1686.48 1.0421 5.20878 0
M  V30 18390 C 1685.52 2.14171 5.73409 0
M  V30 18391 N 1684.66 1.63792 6.82727 0
M  V30 18392 H 1689.5 1.83052 2.35151 0
M  V30 18393 H 1687.03 0.912846 1.1535 0
M  V30 18394 H 1688.99 0.143733 4.16952 0
M  V30 18395 H 1687.62 -0.452175 3.19617 0
M  V30 18396 H 1686.67 1.96705 3.25594 0
M  V30 18397 H 1687.99 2.389 4.37868 0
M  V30 18398 H 1687.14 0.704959 6.0259 0
M  V30 18399 H 1685.88 0.182643 4.87358 0
M  V30 18400 H 1684.88 2.48732 4.90319 0
M  V30 18401 H 1686.11 3.00547 6.08973 0
M  V30 18402 H 1684.05 0.801323 6.51087 0
M  V30 18403 H 1683.97 2.40293 7.16795 0
M  V30 18404 H 1685.24 1.32998 7.6807 0
M  V30 18405 N 1689.47 -1.23186 0.98301 0
M  V30 18406 C 1690.42 -2.26762 0.517846 0
M  V30 18407 C 1691.41 -1.63944 -0.426459 0
M  V30 18408 O 1692.62 -1.77481 -0.300065 0
M  V30 18409 H 1688.99 -0.737082 0.149042 0
M  V30 18410 H 1690.96 -2.63356 1.40307 0
M  V30 18411 C 1689.71 -3.47324 -0.16157 0
M  V30 18412 H 1689.03 -3.95915 0.555973 0
M  V30 18413 H 1690.47 -4.21598 -0.450644 0
M  V30 18414 C 1688.93 -3.06722 -1.39366 0
M  V30 18415 O 1689.46 -3.15239 -2.48973 0
M  V30 18416 N 1687.67 -2.61609 -1.26528 0
M  V30 18417 H 1687.22 -2.54879 -0.373449 0
M  V30 18418 H 1687.17 -2.34809 -2.09074 0
M  V30 18419 N 1690.95 -0.754982 -1.38339 0
M  V30 18420 C 1692.2 -0.308537 -1.99326 0
M  V30 18421 C 1692.51 1.1164 -1.60611 0
M  V30 18422 O 1693.71 1.66339 -2.14578 0
M  V30 18423 C 1692.17 -0.500688 -3.564 0
M  V30 18424 C 1691.78 -1.9348 -4.04066 0
M  V30 18425 C 1693.52 -0.117026 -4.24339 0
M  V30 18426 C 1691.43 -2.07544 -5.53786 0
M  V30 18427 H 1690.36 -0.111611 -0.745694 0
M  V30 18428 H 1693.01 -0.931722 -1.58086 0
M  V30 18429 H 1691.39 0.191702 -3.95536 0
M  V30 18430 H 1692.57 -2.66077 -3.76217 0
M  V30 18431 H 1690.88 -2.27351 -3.48856 0
M  V30 18432 H 1693.48 -0.200847 -5.34323 0
M  V30 18433 H 1693.82 0.930531 -4.05767 0
M  V30 18434 H 1694.35 -0.761323 -3.90447 0
M  V30 18435 H 1691.09 -3.10559 -5.77264 0
M  V30 18436 H 1690.61 -1.39409 -5.83374 0
M  V30 18437 H 1692.29 -1.86605 -6.19506 0
M  V30 18438 N 1692.42 1.49318 -0.504168 0
M  V30 18439 C 1693.65 2.06869 0.0359415 0
M  V30 18440 C 1694.07 1.3641 1.30529 0
M  V30 18441 O 1693.42 0.443416 1.77031 0
M  V30 18442 C 1693.48 3.60333 0.290233 0
M  V30 18443 O 1693.2 4.28141 -0.928801 0
M  V30 18444 C 1694.7 4.34606 0.873628 0
M  V30 18445 H 1691.92 0.670643 -0.0218893 0
M  V30 18446 H 1694.46 1.92058 -0.702432 0
M  V30 18447 H 1692.62 3.74836 0.978594 0
M  V30 18448 H 1693.03 5.19894 -0.693595 0
M  V30 18449 H 1694.5 5.42846 1.00112 0
M  V30 18450 H 1694.98 3.97297 1.87221 0
M  V30 18451 H 1695.59 4.24717 0.222638 0
M  V30 18452 N 1693.9 0.238138 1.5579 0
M  V30 18453 C 1695.18 -0.438905 1.90612 0
M  V30 18454 C 1695.56 -1.76522 1.15773 0
M  V30 18455 O 1694.91 -2.26871 0.272363 0
M  V30 18456 C 1695.12 -0.615595 3.43528 0
M  V30 18457 C 1696.47 -0.915478 4.14613 0
M  V30 18458 O 1697.49 -0.70178 3.49218 0
M  V30 18459 O 1696.35 -1.32194 5.30271 0
M  V30 18460 H 1693.44 -0.234355 0.7931 0
M  V30 18461 H 1695.99 0.281555 1.67348 0
M  V30 18462 H 1694.76 0.319274 3.89995 0
M  V30 18463 H 1694.38 -1.38692 3.72626 0
M  V30 18464 N 1695.38 -1.57561 -0.0350783 0
M  V30 18465 C 1696.61 -1.92971 -0.737958 0
M  V30 18466 C 1697.02 -0.835771 -1.6974 0
M  V30 18467 O 1696.36 0.19703 -1.8264 0
M  V30 18468 C 1696.42 -3.24138 -1.55482 0
M  V30 18469 C 1696.09 -4.50622 -0.760818 0
M  V30 18470 C 1697.08 -5.19861 -0.0637364 0
M  V30 18471 C 1694.77 -4.97154 -0.717134 0
M  V30 18472 C 1696.76 -6.33907 0.666395 0
M  V30 18473 C 1694.45 -6.11098 0.0167462 0
M  V30 18474 C 1695.45 -6.79328 0.707276 0
M  V30 18475 O 1695.14 -7.91093 1.42925 0
M  V30 18476 H 1694.87 -0.641628 -0.212814 0
M  V30 18477 H 1697.42 -2.054 0.00152065 0
M  V30 18478 H 1695.65 -3.08019 -2.33798 0
M  V30 18479 H 1697.34 -3.44919 -2.13976 0
M  V30 18480 H 1698.11 -4.84919 -0.0885544 0
M  V30 18481 H 1693.99 -4.43895 -1.24411 0
M  V30 18482 H 1697.53 -6.87098 1.20592 0
M  V30 18483 H 1693.43 -6.45485 0.0435085 0
M  V30 18484 H 1694.2 -8.07418 1.34231 0
M  V30 18485 N 1696.86 0.307236 -1.54576 0
M  V30 18486 C 1697.79 1.4031 -1.79968 0
M  V30 18487 C 1698.77 1.4902 -0.650513 0
M  V30 18488 O 1699.95 1.66178 -0.889778 0
M  V30 18489 C 1697.08 2.78274 -1.93083 0
M  V30 18490 C 1696.13 2.87017 -3.15473 0
M  V30 18491 S 1696.96 2.49751 -4.73693 0
M  V30 18492 C 1698.12 3.89755 -4.89736 0
M  V30 18493 H 1698.35 1.18562 -2.72636 0
M  V30 18494 H 1695.88 0.504999 -1.45908 0
M  V30 18495 H 1697.84 3.57741 -2.01325 0
M  V30 18496 H 1696.5 2.97295 -1.01364 0
M  V30 18497 H 1695.69 3.88196 -3.21434 0
M  V30 18498 H 1695.3 2.15539 -3.05645 0
M  V30 18499 H 1697.59 4.84687 -4.73376 0
M  V30 18500 H 1698.53 3.88768 -5.91832 0
M  V30 18501 H 1698.94 3.79468 -4.17928 0
M  V30 18502 N 1698.34 1.46926 0.570122 0
M  V30 18503 C 1699.57 1.56253 1.35161 0
M  V30 18504 C 1699.97 0.207041 1.88064 0
M  V30 18505 O 1699.32 -0.807871 1.64982 0
M  V30 18506 C 1699.38 2.51715 2.56671 0
M  V30 18507 C 1699.04 3.97691 2.25147 0
M  V30 18508 C 1700.04 4.86546 1.83219 0
M  V30 18509 C 1697.73 4.42924 2.36904 0
M  V30 18510 C 1699.72 6.18651 1.53459 0
M  V30 18511 C 1697.41 5.75061 2.06757 0
M  V30 18512 C 1698.4 6.62745 1.65101 0
M  V30 18513 O 1698.09 7.92427 1.3533 0
M  V30 18514 H 1697.82 0.53064 0.418804 0
M  V30 18515 H 1700.38 1.93147 0.698804 0
M  V30 18516 H 1698.61 2.09862 3.24799 0
M  V30 18517 H 1700.3 2.5131 3.18745 0
M  V30 18518 H 1701.06 4.52851 1.7364 0
M  V30 18519 H 1696.94 3.7489 2.68287 0
M  V30 18520 H 1700.49 6.87049 1.20872 0
M  V30 18521 H 1696.38 6.08301 2.15964 0
M  V30 18522 H 1697.15 8.04811 1.49069 0
M  V30 18523 N 1699.82 -0.815801 1.34842 0
M  V30 18524 C 1700.75 -1.94193 1.29659 0
M  V30 18525 C 1701.73 -1.69221 0.172703 0
M  V30 18526 O 1702.91 -1.90716 0.366203 0
M  V30 18527 C 1700.04 -3.30777 1.0585 0
M  V30 18528 C 1699 -3.70207 2.1478 0
M  V30 18529 C 1698.32 -5.04852 1.76149 0
M  V30 18530 C 1699.62 -3.81553 3.56671 0
M  V30 18531 H 1701.32 -1.98787 2.23884 0
M  V30 18532 H 1698.86 -0.955013 1.07775 0
M  V30 18533 H 1700.81 -4.0915 1.00866 0
M  V30 18534 H 1699.54 -3.265 0.0806804 0
M  V30 18535 H 1698.2 -2.94113 2.18845 0
M  V30 18536 H 1697.85 -4.9707 0.770099 0
M  V30 18537 H 1697.55 -5.32205 2.49062 0
M  V30 18538 H 1699.07 -5.85676 1.72674 0
M  V30 18539 H 1700.48 -4.50181 3.54979 0
M  V30 18540 H 1698.88 -4.20367 4.28266 0
M  V30 18541 H 1699.95 -2.83356 3.93494 0
M  V30 18542 N 1701.29 -1.18689 -1.03686 0
M  V30 18543 C 1702.52 -1.00961 -1.80595 0
M  V30 18544 C 1702.94 0.44188 -1.83556 0
M  V30 18545 O 1702.29 1.30693 -1.27379 0
M  V30 18546 C 1702.34 -1.56185 -3.26019 0
M  V30 18547 O 1702.07 -2.95652 -3.23298 0
M  V30 18548 C 1703.57 -1.43129 -4.19558 0
M  V30 18549 H 1700.79 -0.356291 -0.568593 0
M  V30 18550 H 1703.33 -1.57324 -1.3065 0
M  V30 18551 H 1701.49 -1.03989 -3.73182 0
M  V30 18552 H 1701.9 -3.21481 -4.14427 0
M  V30 18553 H 1703.37 -1.86561 -5.19518 0
M  V30 18554 H 1703.85 -0.380581 -4.37548 0
M  V30 18555 H 1704.46 -1.94416 -3.78262 0
M  V30 18556 N 1702.77 1.22662 -0.989529 0
M  V30 18557 C 1703.72 2.26484 -0.529864 0
M  V30 18558 C 1704.71 1.64168 0.417759 0
M  V30 18559 O 1705.92 1.77638 0.290649 0
M  V30 18560 H 1702.29 0.736282 -0.152949 0
M  V30 18561 H 1704.27 2.62608 -1.41702 0
M  V30 18562 C 1703.01 3.47405 0.143148 0
M  V30 18563 H 1702.34 3.95615 -0.576962 0
M  V30 18564 H 1703.78 4.21831 0.428279 0
M  V30 18565 C 1702.24 3.07457 1.37738 0
M  V30 18566 O 1702.77 3.16555 2.47297 0
M  V30 18567 N 1700.97 2.62276 1.25139 0
M  V30 18568 H 1700.52 2.55073 0.359927 0
M  V30 18569 H 1700.48 2.35915 2.07826 0
M  V30 18570 N 1704.25 0.762308 1.37937 0
M  V30 18571 C 1705.21 0.148588 2.28718 0
M  V30 18572 C 1706.21 -0.638198 1.47593 0
M  V30 18573 O 1707.4 -0.463178 1.67929 0
M  V30 18574 C 1704.53 -0.797492 3.31441 0
M  V30 18575 H 1705.73 0.94872 2.84498 0
M  V30 18576 H 1703.28 0.529888 1.47044 0
M  V30 18577 H 1704.02 -1.62298 2.80767 0
M  V30 18578 H 1703.8 -0.23561 3.91391 0
M  V30 18579 H 1705.29 -1.22262 3.99302 0
M  V30 18580 N 1705.73 -1.49049 0.51208 0
M  V30 18581 C 1707.14 -1.86579 0.0670687 0
M  V30 18582 C 1707.49 -1.42339 -1.35034 0
M  V30 18583 O 1706.61 -0.806142 -2.00824 0
M  V30 18584 C 1707.21 -3.38605 0.114936 0
M  V30 18585 C 1705.77 -3.75396 -0.274787 0
M  V30 18586 C 1704.92 -2.73068 0.482613 0
M  V30 18587 H 1707.87 -1.41208 0.724287 0
M  V30 18588 H 1707.89 -3.74416 -0.677722 0
M  V30 18589 H 1707.4 -3.70774 1.14666 0
M  V30 18590 H 1705.5 -3.48837 -1.30933 0
M  V30 18591 H 1705.61 -4.79071 0.0523691 0
M  V30 18592 H 1703.98 -2.54607 -0.0689364 0
M  V30 18593 H 1704.76 -3.08081 1.51463 0
M  V30 18594 N 1707.21 -0.246397 -1.55662 0
M  V30 18595 C 1708.43 0.385607 -2.03784 0
M  V30 18596 C 1708.86 1.50786 -1.12451 0
M  V30 18597 O 1708.21 1.8092 -0.117371 0
M  V30 18598 C 1708.26 0.871204 -3.49918 0
M  V30 18599 O 1707.37 1.98082 -3.61715 0
M  V30 18600 H 1706.71 0.0841099 -0.658651 0
M  V30 18601 H 1709.24 -0.372306 -2.01184 0
M  V30 18602 H 1709.25 1.17455 -3.90728 0
M  V30 18603 H 1707.92 0.0499597 -4.1587 0
M  V30 18604 H 1706.5 1.6822 -3.32801 0
M  V30 18605 N 1708.68 1.57577 0.026722 0
M  V30 18606 C 1709.91 1.93359 0.727714 0
M  V30 18607 C 1710.32 0.844761 1.69294 0
M  V30 18608 O 1709.66 -0.187342 1.82742 0
M  V30 18609 C 1709.73 3.24958 1.53761 0
M  V30 18610 C 1709.39 4.5102 0.736909 0
M  V30 18611 C 1710.39 5.19887 0.036166 0
M  V30 18612 C 1708.07 4.97528 0.690759 0
M  V30 18613 C 1710.07 6.33545 -0.700003 0
M  V30 18614 C 1707.75 6.1108 -0.0491539 0
M  V30 18615 C 1708.75 6.78943 -0.743293 0
M  V30 18616 O 1708.44 7.90324 -1.47119 0
M  V30 18617 H 1708.17 0.642747 0.209408 0
M  V30 18618 H 1710.73 2.05396 -0.0124135 0
M  V30 18619 H 1708.96 3.09254 2.32161 0
M  V30 18620 H 1710.64 3.46049 2.12144 0
M  V30 18621 H 1711.41 4.84959 0.0628368 0
M  V30 18622 H 1707.29 4.44549 1.22055 0
M  V30 18623 H 1710.83 6.86448 -1.24235 0
M  V30 18624 H 1706.73 6.45453 -0.0777396 0
M  V30 18625 H 1707.5 8.06695 -1.38511 0
M  V30 18626 N 1710.16 -0.299034 1.54737 0
M  V30 18627 C 1711.39 -1.0529 1.78105 0
M  V30 18628 C 1711.8 -1.80868 0.541499 0
M  V30 18629 O 1711.16 -1.75834 -0.488726 0
M  V30 18630 C 1711.21 -2.03192 2.9899 0
M  V30 18631 O 1710.93 -1.30681 4.18156 0
M  V30 18632 C 1712.43 -2.90602 3.34762 0
M  V30 18633 H 1709.65 -0.312173 0.593961 0
M  V30 18634 H 1712.2 -0.337712 2.01692 0
M  V30 18635 H 1710.35 -2.70211 2.77606 0
M  V30 18636 H 1710.77 -1.96446 4.86322 0
M  V30 18637 H 1712.24 -3.55144 4.22584 0
M  V30 18638 H 1712.72 -3.59006 2.53004 0
M  V30 18639 H 1713.32 -2.29112 3.58313 0
M  V30 18640 N 1711.64 -1.47227 -0.562322 0
M  V30 18641 C 1712.59 -1.59729 -1.69084 0
M  V30 18642 C 1713.58 -0.464812 -1.62898 0
M  V30 18643 O 1714.79 -0.642429 -1.68145 0
M  V30 18644 H 1711.16 -0.502579 -0.559391 0
M  V30 18645 H 1713.13 -2.54573 -1.55676 0
M  V30 18646 C 1711.88 -1.62394 -3.07447 0
M  V30 18647 H 1711.21 -2.48882 -3.12887 0
M  V30 18648 H 1712.65 -1.75192 -3.86114 0
M  V30 18649 C 1711.1 -0.356287 -3.35011 0
M  V30 18650 O 1711.63 0.544818 -3.97988 0
M  V30 18651 N 1709.84 -0.237888 -2.89625 0
M  V30 18652 H 1709.39 -0.9721 -2.38554 0
M  V30 18653 H 1709.35 0.609348 -3.08438 0
M  V30 18654 N 1713.12 0.808639 -1.35273 0
M  V30 18655 C 1714.37 1.56253 -1.28177 0
M  V30 18656 C 1714.69 1.94466 0.144151 0
M  V30 18657 O 1713.96 1.63433 1.08011 0
M  V30 18658 H 1712.54 0.579431 -0.471454 0
M  V30 18659 H 1715.2 0.964675 -1.69352 0
M  V30 18660 H 1714.29 2.47888 -1.89625 0
M  V30 18661 N 1714.6 1.19237 1.03055 0
M  V30 18662 C 1715.54 0.928588 2.11296 0
M  V30 18663 C 1716.51 -0.135941 1.65543 0
M  V30 18664 O 1717.7 0.00584847 1.90799 0
M  V30 18665 C 1714.84 0.471532 3.41863 0
M  V30 18666 C 1713.95 1.60264 4.01173 0
M  V30 18667 C 1713.09 1.09729 5.19743 0
M  V30 18668 C 1712.13 2.2024 5.71105 0
M  V30 18669 N 1711.26 1.71024 6.80952 0
M  V30 18670 H 1716.1 1.85536 2.33196 0
M  V30 18671 H 1713.64 0.925029 1.14375 0
M  V30 18672 H 1715.6 0.187949 4.16776 0
M  V30 18673 H 1714.23 -0.41825 3.20079 0
M  V30 18674 H 1713.28 2.00147 3.23489 0
M  V30 18675 H 1714.59 2.43531 4.35309 0
M  V30 18676 H 1713.75 0.768832 6.01809 0
M  V30 18677 H 1712.48 0.234324 4.87137 0
M  V30 18678 H 1711.49 2.53918 4.87653 0
M  V30 18679 H 1712.71 3.06989 6.05751 0
M  V30 18680 H 1710.66 0.870334 6.50201 0
M  V30 18681 H 1710.58 2.47882 7.14206 0
M  V30 18682 H 1711.85 1.41137 7.66616 0
M  V30 18683 N 1716.07 -1.22136 0.99602 0
M  V30 18684 C 1717 -2.26463 0.568909 0
M  V30 18685 C 1717.99 -1.65189 -0.405783 0
M  V30 18686 O 1719.17 -1.91935 -0.295735 0
M  V30 18687 C 1716.3 -3.47112 -0.114166 0
M  V30 18688 C 1715.25 -4.20844 0.779387 0
M  V30 18689 C 1714.58 -5.34687 -0.0367787 0
M  V30 18690 C 1715.88 -4.79195 2.07773 0
M  V30 18691 H 1717.57 -2.62443 1.44097 0
M  V30 18692 H 1715.12 -1.26156 0.694314 0
M  V30 18693 H 1717.07 -4.19258 -0.424381 0
M  V30 18694 H 1715.8 -3.10238 -1.02079 0
M  V30 18695 H 1714.46 -3.50537 1.07329 0
M  V30 18696 H 1714.1 -4.94054 -0.94442 0
M  V30 18697 H 1713.8 -5.84944 0.558092 0
M  V30 18698 H 1715.33 -6.09647 -0.341016 0
M  V30 18699 H 1716.74 -5.43266 1.83126 0
M  V30 18700 H 1715.14 -5.39803 2.62169 0
M  V30 18701 H 1716.21 -3.99073 2.75442 0
M  V30 18702 N 1717.55 -0.769612 -1.37531 0
M  V30 18703 C 1718.5 -0.142211 -2.32165 0
M  V30 18704 C 1719.49 0.687376 -1.54827 0
M  V30 18705 O 1720.7 0.584677 -1.7024 0
M  V30 18706 H 1717.08 -0.0271998 -0.751508 0
M  V30 18707 H 1719.05 -0.956148 -2.82667 0
M  V30 18708 C 1717.8 0.72421 -3.40074 0
M  V30 18709 H 1717.12 0.0952318 -3.99687 0
M  V30 18710 H 1718.56 1.13021 -4.08659 0
M  V30 18711 C 1717.02 1.87388 -2.79977 0
M  V30 18712 O 1717.55 2.96921 -2.70557 0
M  V30 18713 N 1715.75 1.67384 -2.37552 0
M  V30 18714 H 1715.3 0.782941 -2.45414 0
M  V30 18715 H 1715.26 2.44474 -1.97686 0
M  V30 18716 N 1719.03 1.48775 -0.519977 0
M  V30 18717 C 1720.28 2.0169 0.0196973 0
M  V30 18718 C 1720.59 1.40319 1.36272 0
M  V30 18719 O 1721.8 1.84673 1.99018 0
M  V30 18720 C 1720.25 3.59798 0.085525 0
M  V30 18721 C 1719.86 4.3015 -1.25199 0
M  V30 18722 C 1721.61 4.20594 0.574557 0
M  V30 18723 C 1719.51 5.80165 -1.14729 0
M  V30 18724 H 1718.44 0.753918 0.011133 0
M  V30 18725 H 1721.09 1.71133 -0.662254 0
M  V30 18726 H 1719.48 3.87154 0.832339 0
M  V30 18727 H 1720.65 4.14477 -2.01359 0
M  V30 18728 H 1718.97 3.81183 -1.67596 0
M  V30 18729 H 1721.56 5.30477 0.670698 0
M  V30 18730 H 1721.91 3.85235 1.57797 0
M  V30 18731 H 1722.44 3.9763 -0.116277 0
M  V30 18732 H 1719.18 6.20081 -2.12555 0
M  V30 18733 H 1718.7 5.98279 -0.426902 0
M  V30 18734 H 1720.38 6.41605 -0.83382 0
M  V30 18735 N 1720.51 0.254649 1.55529 0
M  V30 18736 C 1721.74 -0.371317 2.03236 0
M  V30 18737 C 1722.15 -1.5152 1.13306 0
M  V30 18738 O 1721.49 -1.83154 0.141468 0
M  V30 18739 C 1721.55 -0.933614 3.47166 0
M  V30 18740 C 1721.22 0.0790139 4.56932 0
M  V30 18741 C 1722.21 0.891314 5.12203 0
M  V30 18742 C 1719.9 0.207343 5.01872 0
M  V30 18743 C 1721.89 1.81833 6.10914 0
M  V30 18744 C 1719.58 1.13785 6.00413 0
M  V30 18745 C 1720.58 1.94186 6.54813 0
M  V30 18746 O 1720.26 2.85667 7.51432 0
M  V30 18747 H 1720 -0.0914583 0.669785 0
M  V30 18748 H 1722.55 0.378413 2.01884 0
M  V30 18749 H 1720.78 -1.73305 3.45691 0
M  V30 18750 H 1722.47 -1.47048 3.78327 0
M  V30 18751 H 1723.24 0.802797 4.7831 0
M  V30 18752 H 1719.11 -0.408414 4.59187 0
M  V30 18753 H 1722.66 2.4463 6.53301 0
M  V30 18754 H 1718.56 1.22726 6.33726 0
M  V30 18755 H 1719.32 2.80116 7.69075 0
M  V30 18756 N 1721.99 -1.57589 -0.0183649 0
M  V30 18757 C 1723.22 -1.93743 -0.71745 0
M  V30 18758 C 1723.62 -0.853727 -1.68844 0
M  V30 18759 O 1722.97 0.177648 -1.82839 0
M  V30 18760 C 1723.03 -3.25769 -1.52036 0
M  V30 18761 C 1722.69 -4.51404 -0.71298 0
M  V30 18762 C 1723.69 -5.19899 -0.00859461 0
M  V30 18763 C 1721.38 -4.97887 -0.664364 0
M  V30 18764 C 1723.37 -6.33164 0.733592 0
M  V30 18765 C 1721.06 -6.11046 0.0815603 0
M  V30 18766 C 1722.05 -6.7854 0.779288 0
M  V30 18767 O 1721.74 -7.89532 1.51308 0
M  V30 18768 H 1721.47 -0.643849 -0.205996 0
M  V30 18769 H 1724.03 -2.05387 0.023306 0
M  V30 18770 H 1722.26 -3.10481 -2.30518 0
M  V30 18771 H 1723.95 -3.47169 -2.10305 0
M  V30 18772 H 1724.71 -4.84986 -0.0371173 0
M  V30 18773 H 1720.59 -4.4519 -1.19696 0
M  V30 18774 H 1724.14 -6.8578 1.27873 0
M  V30 18775 H 1720.03 -6.45403 0.111968 0
M  V30 18776 H 1720.8 -8.05949 1.42787 0
M  V30 18777 N 1723.46 0.290824 -1.54893 0
M  V30 18778 C 1724.88 0.637054 -1.46334 0
M  V30 18779 C 1725.08 1.90285 -0.66285 0
M  V30 18780 O 1724.14 2.51896 -0.174589 0
M  V30 18781 C 1725.45 0.780585 -2.90392 0
M  V30 18782 C 1727 0.875807 -3.00497 0
M  V30 18783 C 1727.47 1.05126 -4.45772 0
M  V30 18784 N 1728.96 1.11721 -4.49525 0
M  V30 18785 C 1729.7 1.27145 -5.59126 0
M  V30 18786 N 1729.19 1.39401 -6.7863 0
M  V30 18787 N 1730.99 1.30114 -5.46833 0
M  V30 18788 H 1723.14 -0.540707 -2.05402 0
M  V30 18789 H 1725.4 -0.180344 -0.930688 0
M  V30 18790 H 1725.11 -0.0787855 -3.51612 0
M  V30 18791 H 1724.98 1.66644 -3.38392 0
M  V30 18792 H 1727.37 1.72566 -2.39385 0
M  V30 18793 H 1727.45 -0.0342844 -2.55777 0
M  V30 18794 H 1727.09 0.206135 -5.07482 0
M  V30 18795 H 1727.02 1.97573 -4.88132 0
M  V30 18796 H 1729.51 1.03562 -3.63433 0
M  V30 18797 H 1729.83 1.50953 -7.57914 0
M  V30 18798 H 1728.17 1.36438 -6.81476 0
M  V30 18799 H 1731.36 1.20157 -4.52416 0
M  V30 18800 H 1731.54 1.4179 -6.32297 0
M  V30 18801 N 1724.94 1.47523 0.554506 0
M  V30 18802 C 1726.36 1.33101 0.880699 0
M  V30 18803 C 1726.56 0.323524 1.98886 0
M  V30 18804 O 1725.61 -0.263996 2.51116 0
M  V30 18805 C 1726.93 2.725 1.27138 0
M  V30 18806 C 1728.48 2.80805 1.38266 0
M  V30 18807 C 1728.95 4.20851 1.80688 0
M  V30 18808 N 1730.44 4.23406 1.87834 0
M  V30 18809 C 1731.18 5.28684 2.21993 0
M  V30 18810 N 1730.67 6.44264 2.54746 0
M  V30 18811 N 1732.47 5.16063 2.2279 0
M  V30 18812 H 1724.62 2.11661 -0.177062 0
M  V30 18813 H 1726.88 0.947856 -0.0165508 0
M  V30 18814 H 1726.59 3.47669 0.53093 0
M  V30 18815 H 1726.46 3.04445 2.22695 0
M  V30 18816 H 1728.85 2.05907 2.11391 0
M  V30 18817 H 1728.93 2.52511 0.408901 0
M  V30 18818 H 1728.57 4.96256 1.08131 0
M  V30 18819 H 1728.5 4.46572 2.79071 0
M  V30 18820 H 1730.99 3.40025 1.64897 0
M  V30 18821 H 1731.31 7.20351 2.79846 0
M  V30 18822 H 1729.65 6.4758 2.52321 0
M  V30 18823 H 1732.84 4.24793 1.96642 0
M  V30 18824 H 1733.01 5.98216 2.49081 0
M  V30 18825 N 1726.42 -0.801453 1.357 0
M  V30 18826 C 1727.35 -1.92807 1.31711 0
M  V30 18827 C 1728.33 -1.69028 0.190642 0
M  V30 18828 O 1729.52 -1.90317 0.38641 0
M  V30 18829 C 1726.65 -3.29635 1.09352 0
M  V30 18830 C 1725.6 -3.67908 2.18695 0
M  V30 18831 C 1724.93 -5.02955 1.81494 0
M  V30 18832 C 1726.23 -3.77749 3.60698 0
M  V30 18833 H 1727.92 -1.96401 2.2598 0
M  V30 18834 H 1725.47 -0.943528 1.08782 0
M  V30 18835 H 1727.42 -4.08058 1.052 0
M  V30 18836 H 1726.14 -3.26396 0.115306 0
M  V30 18837 H 1724.8 -2.91775 2.21952 0
M  V30 18838 H 1724.45 -4.96225 0.822776 0
M  V30 18839 H 1724.15 -5.29533 2.54692 0
M  V30 18840 H 1725.67 -5.83811 1.78876 0
M  V30 18841 H 1727.09 -4.4639 3.59734 0
M  V30 18842 H 1725.49 -4.15801 4.327 0
M  V30 18843 H 1726.56 -2.79167 3.96477 0
M  V30 18844 N 1727.9 -1.19782 -1.02421 0
M  V30 18845 C 1729.13 -1.02721 -1.79254 0
M  V30 18846 C 1729.54 0.426969 -1.84319 0
M  V30 18847 O 1728.88 1.30832 -1.28953 0
M  V30 18848 C 1728.94 -1.52594 -3.25508 0
M  V30 18849 C 1728.61 -3.00778 -3.44066 0
M  V30 18850 C 1729.6 -3.98502 -3.33905 0
M  V30 18851 C 1727.29 -3.39572 -3.7013 0
M  V30 18852 C 1729.28 -5.33012 -3.49539 0
M  V30 18853 C 1726.97 -4.7424 -3.85408 0
M  V30 18854 C 1727.97 -5.70769 -3.75116 0
M  V30 18855 O 1727.65 -7.02997 -3.89937 0
M  V30 18856 H 1727.39 -0.362151 -0.570808 0
M  V30 18857 H 1729.94 -1.5914 -1.2986 0
M  V30 18858 H 1728.17 -0.90555 -3.75948 0
M  V30 18859 H 1729.86 -1.31671 -3.8395 0
M  V30 18860 H 1730.63 -3.69875 -3.13715 0
M  V30 18861 H 1726.5 -2.64986 -3.77231 0
M  V30 18862 H 1730.05 -6.0834 -3.41421 0
M  V30 18863 H 1725.95 -5.02561 -4.05096 0
M  V30 18864 H 1726.71 -7.10136 -4.07 0
M  V30 18865 N 1729.38 1.21606 -1.00248 0
M  V30 18866 C 1730.33 2.2591 -0.553856 0
M  V30 18867 C 1731.32 1.64602 0.400323 0
M  V30 18868 O 1732.53 1.77936 0.271792 0
M  V30 18869 H 1728.9 0.734618 -0.160749 0
M  V30 18870 H 1730.87 2.61091 -1.44479 0
M  V30 18871 C 1729.62 3.47537 0.106293 0
M  V30 18872 H 1728.94 3.94981 -0.61889 0
M  V30 18873 H 1730.38 4.22262 0.383514 0
M  V30 18874 C 1728.84 3.08901 1.34469 0
M  V30 18875 O 1729.37 3.1916 2.43926 0
M  V30 18876 N 1727.58 2.63588 1.2235 0
M  V30 18877 H 1727.13 2.55441 0.332852 0
M  V30 18878 H 1727.08 2.38106 2.05312 0
M  V30 18879 N 1730.86 0.776895 1.37121 0
M  V30 18880 C 1732.1 0.342876 1.9917 0
M  V30 18881 C 1732.42 -1.08574 1.61977 0
M  V30 18882 O 1731.69 -1.74634 0.887689 0
M  V30 18883 H 1730.27 0.123788 0.736672 0
M  V30 18884 H 1732.94 0.996163 1.67519 0
M  V30 18885 H 1732.03 0.424637 3.09198 0
M  V30 18886 N 1732.33 -1.48497 0.527859 0
M  V30 18887 C 1733.26 -2.32414 -0.224891 0
M  V30 18888 C 1734.24 -1.41959 -0.93711 0
M  V30 18889 O 1735.43 -1.70847 -0.923302 0
M  V30 18890 C 1732.56 -3.23106 -1.27356 0
M  V30 18891 C 1731.51 -4.2257 -0.679611 0
M  V30 18892 C 1730.84 -5.02381 -1.83077 0
M  V30 18893 C 1732.14 -5.21144 0.347269 0
M  V30 18894 H 1733.83 -2.95598 0.475632 0
M  V30 18895 H 1731.38 -1.42148 0.230182 0
M  V30 18896 H 1733.33 -3.80639 -1.8081 0
M  V30 18897 H 1732.06 -2.57919 -2.00363 0
M  V30 18898 H 1730.72 -3.66221 -0.166608 0
M  V30 18899 H 1730.36 -4.3362 -2.54918 0
M  V30 18900 H 1730.06 -5.697 -1.43929 0
M  V30 18901 H 1731.59 -5.62765 -2.36914 0
M  V30 18902 H 1733 -5.73213 -0.100107 0
M  V30 18903 H 1731.4 -5.96503 0.656021 0
M  V30 18904 H 1732.47 -4.6841 1.25379 0
M  V30 18905 N 1733.81 -0.262893 -1.55392 0
M  V30 18906 C 1734.76 0.629853 -2.22039 0
M  V30 18907 C 1735.73 1.15915 -1.18966 0
M  V30 18908 O 1736.91 1.21069 -1.47468 0
M  V30 18909 C 1734.05 1.8138 -2.9359 0
M  V30 18910 C 1733.17 1.31952 -4.11355 0
M  V30 18911 C 1732.3 2.4643 -4.7058 0
M  V30 18912 C 1731.34 1.93944 -5.80562 0
M  V30 18913 N 1730.48 3.01848 -6.33902 0
M  V30 18914 H 1735.32 0.0548473 -2.9795 0
M  V30 18915 H 1732.85 0.0153072 -1.47092 0
M  V30 18916 H 1734.81 2.50955 -3.33283 0
M  V30 18917 H 1733.44 2.36103 -2.20125 0
M  V30 18918 H 1732.49 0.517281 -3.76866 0
M  V30 18919 H 1733.81 0.894993 -4.90705 0
M  V30 18920 H 1732.96 3.2402 -5.12929 0
M  V30 18921 H 1731.7 2.92193 -3.9048 0
M  V30 18922 H 1730.7 1.1483 -5.37675 0
M  V30 18923 H 1731.93 1.49132 -6.62523 0
M  V30 18924 H 1729.88 3.47015 -5.56701 0
M  V30 18925 H 1729.79 2.63775 -7.08491 0
M  V30 18926 H 1731.06 3.79449 -6.8091 0
M  V30 18927 N 1735.29 1.57597 0.0100073 0
M  V30 18928 C 1736.54 1.90129 0.696935 0
M  V30 18929 C 1736.86 0.862514 1.7433 0
M  V30 18930 O 1736.12 -0.134054 1.9524 0
M  V30 18931 C 1736.42 3.29416 1.38635 0
M  V30 18932 C 1736.08 4.484 0.474144 0
M  V30 18933 C 1734.75 4.80683 0.222956 0
M  V30 18934 C 1737.1 5.20971 -0.154514 0
M  V30 18935 C 1734.43 5.82915 -0.665351 0
M  V30 18936 C 1736.78 6.24148 -1.03064 0
M  V30 18937 C 1735.44 6.54895 -1.2911 0
M  V30 18938 H 1734.71 0.695732 0.255027 0
M  V30 18939 H 1737.36 1.91451 -0.0433713 0
M  V30 18940 H 1735.66 3.24172 2.20045 0
M  V30 18941 H 1737.36 3.51843 1.92373 0
M  V30 18942 H 1733.95 4.2317 0.680087 0
M  V30 18943 H 1738.14 4.96293 0.0265512 0
M  V30 18944 H 1733.39 6.05103 -0.875259 0
M  V30 18945 H 1737.57 6.79516 -1.52417 0
M  V30 18946 H 1735.19 7.33931 -1.98113 0
M  V30 18947 N 1736.77 -0.282606 1.55045 0
M  V30 18948 C 1738.02 -1.0132 1.74405 0
M  V30 18949 C 1738.33 -1.87792 0.547133 0
M  V30 18950 O 1739.54 -2.64257 0.622931 0
M  V30 18951 C 1737.99 -1.85128 3.08635 0
M  V30 18952 C 1737.6 -1.0357 4.35864 0
M  V30 18953 C 1739.34 -2.57676 3.37347 0
M  V30 18954 C 1737.25 -1.86761 5.61137 0
M  V30 18955 H 1736.18 -0.382013 0.650063 0
M  V30 18956 H 1738.83 -0.269307 1.81513 0
M  V30 18957 H 1737.21 -2.63576 2.95539 0
M  V30 18958 H 1738.39 -0.296061 4.59848 0
M  V30 18959 H 1736.7 -0.425208 4.14223 0
M  V30 18960 H 1739.3 -3.20303 4.28147 0
M  V30 18961 H 1739.64 -3.27464 2.57046 0
M  V30 18962 H 1740.18 -1.86264 3.51497 0
M  V30 18963 H 1736.91 -1.2141 6.44158 0
M  V30 18964 H 1736.43 -2.58348 5.4131 0
M  V30 18965 H 1738.11 -2.44361 5.9908 0
M  V30 18966 N 1738.25 -1.47815 -0.546675 0
M  V30 18967 C 1739.49 -1.54238 -1.29975 0
M  V30 18968 C 1739.81 -0.213869 -1.94427 0
M  V30 18969 O 1741.01 -0.156187 -2.7105 0
M  V30 18970 C 1739.47 -2.71938 -2.35749 0
M  V30 18971 C 1739.08 -4.11362 -1.77441 0
M  V30 18972 C 1740.82 -2.87661 -3.12172 0
M  V30 18973 C 1738.73 -5.20347 -2.81057 0
M  V30 18974 H 1737.66 -0.574139 -0.488754 0
M  V30 18975 H 1740.31 -1.74113 -0.579384 0
M  V30 18976 H 1738.69 -2.45463 -3.10747 0
M  V30 18977 H 1739.87 -4.47785 -1.08744 0
M  V30 18978 H 1738.18 -4.00614 -1.13568 0
M  V30 18979 H 1740.78 -3.66252 -3.89568 0
M  V30 18980 H 1741.12 -1.96494 -3.67009 0
M  V30 18981 H 1741.65 -3.13957 -2.44286 0
M  V30 18982 H 1738.39 -6.13426 -2.31061 0
M  V30 18983 H 1737.91 -4.8843 -3.48132 0
M  V30 18984 H 1739.59 -5.47748 -3.44355 0
M  V30 18985 N 1739.72 0.794246 -1.36123 0
M  V30 18986 C 1740.67 1.90668 -1.30056 0
M  V30 18987 C 1741.64 1.65226 -0.170145 0
M  V30 18988 O 1742.83 1.87452 -0.355874 0
M  V30 18989 C 1739.97 3.27405 -1.09086 0
M  V30 18990 C 1739.08 3.64951 -2.31159 0
M  V30 18991 C 1738.21 4.90782 -2.0324 0
M  V30 18992 C 1737.25 5.20992 -3.21301 0
M  V30 18993 N 1736.39 6.38005 -2.93078 0
M  V30 18994 H 1741.23 1.9519 -2.25178 0
M  V30 18995 H 1738.77 0.95458 -1.1192 0
M  V30 18996 H 1740.72 4.0625 -0.94956 0
M  V30 18997 H 1739.35 3.22319 -0.176211 0
M  V30 18998 H 1738.41 2.81268 -2.5611 0
M  V30 18999 H 1739.72 3.83228 -3.19277 0
M  V30 19000 H 1738.87 5.77481 -1.86012 0
M  V30 19001 H 1737.61 4.74565 -1.12426 0
M  V30 19002 H 1736.62 4.32777 -3.39093 0
M  V30 19003 H 1737.84 5.39131 -4.12934 0
M  V30 19004 H 1735.79 6.23189 -2.0487 0
M  V30 19005 H 1735.7 6.56591 -3.74733 0
M  V30 19006 H 1736.97 7.27699 -2.79418 0
M  V30 19007 N 1741.2 1.20323 1.01785 0
M  V30 19008 C 1742.62 0.957818 1.27664 0
M  V30 19009 C 1742.82 -0.363377 1.98196 0
M  V30 19010 O 1741.87 -1.09221 2.27656 0
M  V30 19011 C 1743.19 2.13957 2.11289 0
M  V30 19012 C 1744.73 2.18041 2.2456 0
M  V30 19013 C 1745.21 3.35698 3.11562 0
M  V30 19014 N 1746.7 3.35704 3.1915 0
M  V30 19015 C 1747.44 4.2339 3.86689 0
M  V30 19016 N 1746.93 5.21251 4.56366 0
M  V30 19017 N 1748.72 4.11235 3.832 0
M  V30 19018 H 1740.88 2.05309 0.544242 0
M  V30 19019 H 1743.14 0.898335 0.302817 0
M  V30 19020 H 1742.84 3.09631 1.66798 0
M  V30 19021 H 1742.72 2.11946 3.12024 0
M  V30 19022 H 1745.11 1.22931 2.68276 0
M  V30 19023 H 1745.19 2.24101 1.23338 0
M  V30 19024 H 1744.83 4.31095 2.68551 0
M  V30 19025 H 1744.76 3.26876 4.12868 0
M  V30 19026 H 1747.25 2.64874 2.69537 0
M  V30 19027 H 1747.56 5.84485 5.05566 0
M  V30 19028 H 1745.91 5.25189 4.55195 0
M  V30 19029 H 1749.1 3.34052 3.27913 0
M  V30 19030 H 1749.27 4.79782 4.35561 0
M  V30 19031 N 1742.68 -1.21073 1.00892 0
M  V30 19032 C 1743.91 -1.93952 0.71178 0
M  V30 19033 C 1744.32 -1.74538 -0.730278 0
M  V30 19034 O 1743.66 -1.05164 -1.50619 0
M  V30 19035 C 1743.72 -3.46502 0.957957 0
M  V30 19036 C 1743.39 -3.89669 2.38762 0
M  V30 19037 C 1744.38 -3.96053 3.36805 0
M  V30 19038 C 1742.07 -4.21873 2.72632 0
M  V30 19039 C 1744.06 -4.34042 4.66783 0
M  V30 19040 C 1741.75 -4.59538 4.02825 0
M  V30 19041 C 1742.75 -4.65593 4.99712 0
M  V30 19042 O 1742.44 -5.02398 6.27576 0
M  V30 19043 H 1742.17 -0.623495 0.261208 0
M  V30 19044 H 1744.72 -1.54728 1.35086 0
M  V30 19045 H 1742.95 -3.85813 0.261704 0
M  V30 19046 H 1744.64 -4.00603 0.653596 0
M  V30 19047 H 1745.41 -3.71346 3.11974 0
M  V30 19048 H 1741.29 -4.16356 1.97912 0
M  V30 19049 H 1744.83 -4.38683 5.42405 0
M  V30 19050 H 1740.73 -4.837 4.27439 0
M  V30 19051 H 1741.49 -5.20417 6.3175 0
M  V30 19052 N 1744.16 -0.784156 -1.36707 0
M  V30 19053 C 1745.39 -0.365901 -2.03639 0
M  V30 19054 C 1745.8 1.01599 -1.59132 0
M  V30 19055 O 1745.16 1.65072 -0.778298 0
M  V30 19056 C 1745.21 -0.414035 -3.59121 0
M  V30 19057 O 1744.93 -1.74142 -4.02003 0
M  V30 19058 C 1746.43 0.0142546 -4.43298 0
M  V30 19059 H 1743.65 -0.151525 -0.653667 0
M  V30 19060 H 1746.2 -1.06154 -1.7479 0
M  V30 19061 H 1744.35 0.233134 -3.86698 0
M  V30 19062 H 1744.76 -1.68861 -4.96575 0
M  V30 19063 H 1746.24 -0.0705681 -5.51955 0
M  V30 19064 H 1746.72 1.06623 -4.26061 0
M  V30 19065 H 1747.32 -0.605201 -4.20972 0
M  V30 19066 N 1745.64 1.48215 -0.535727 0
M  V30 19067 C 1747.05 1.86449 -0.0967433 0
M  V30 19068 C 1747.4 1.44469 1.32752 0
M  V30 19069 O 1746.52 0.837989 1.99516 0
M  V30 19070 C 1747.12 3.38379 -0.168791 0
M  V30 19071 C 1745.68 3.75785 0.21503 0
M  V30 19072 C 1744.82 2.72266 -0.525995 0
M  V30 19073 H 1747.78 1.40038 -0.74666 0
M  V30 19074 H 1747.8 3.75447 0.61807 0
M  V30 19075 H 1747.31 3.68903 -1.2055 0
M  V30 19076 H 1745.41 3.50876 1.25366 0
M  V30 19077 H 1745.52 4.78927 -0.128579 0
M  V30 19078 H 1743.89 2.54684 0.028422 0
M  V30 19079 H 1744.67 3.05632 -1.56345 0
M  V30 19080 N 1747.11 0.27113 1.5525 0
M  V30 19081 C 1748.06 -0.634087 2.2379 0
M  V30 19082 C 1749.06 -1.16101 1.23357 0
M  V30 19083 O 1750.26 -1.1151 1.413 0
M  V30 19084 H 1746.64 -0.223023 0.718168 0
M  V30 19085 H 1748.61 -0.0331304 2.98382 0
M  V30 19086 C 1747.36 -1.80879 2.96948 0
M  V30 19087 H 1746.68 -1.41252 3.74016 0
M  V30 19088 H 1748.12 -2.41888 3.48233 0
M  V30 19089 C 1746.58 -2.69481 2.02192 0
M  V30 19090 O 1747.11 -3.69725 1.57056 0
M  V30 19091 N 1745.32 -2.36565 1.68776 0
M  V30 19092 H 1744.86 -1.55096 2.05677 0
M  V30 19093 H 1744.82 -2.96119 1.05646 0
M  V30 19094 N 1748.59 -1.576 -0.00164943 0
M  V30 19095 C 1749.54 -2.09439 -1.01183 0
M  V30 19096 C 1750.53 -1.01402 -1.35698 0
M  V30 19097 O 1751.74 -1.19869 -1.34281 0
M  V30 19098 H 1748.12 -0.668732 -0.34395 0
M  V30 19099 H 1750.09 -2.93306 -0.549033 0
M  V30 19100 C 1748.84 -2.61163 -2.29542 0
M  V30 19101 H 1748.16 -3.43926 -2.0385 0
M  V30 19102 H 1749.6 -3.01115 -2.98506 0
M  V30 19103 C 1748.06 -1.52502 -3.00408 0
M  V30 19104 O 1748.59 -0.906982 -3.91327 0
M  V30 19105 N 1746.79 -1.25288 -2.62205 0
M  V30 19106 H 1746.34 -1.75731 -1.88351 0
M  V30 19107 H 1746.3 -0.528035 -3.09934 0
M  V30 19108 N 1750.07 0.274379 -1.55193 0
M  V30 19109 C 1750.98 1.36118 -1.91073 0
M  V30 19110 C 1752 1.54111 -0.807823 0
M  V30 19111 O 1753.17 1.68264 -1.10676 0
M  V30 19112 C 1750.24 2.70062 -2.17411 0
M  V30 19113 C 1749.3 2.60827 -3.4098 0
M  V30 19114 C 1748.53 3.88384 -3.66052 0
M  V30 19115 O 1748.75 4.89 -2.93657 0
M  V30 19116 O 1747.69 3.8867 -4.59586 0
M  V30 19117 H 1751.51 1.08686 -2.83586 0
M  V30 19118 H 1749.1 0.472784 -1.41722 0
M  V30 19119 H 1750.98 3.49264 -2.35782 0
M  V30 19120 H 1749.66 2.97283 -1.28081 0
M  V30 19121 H 1748.56 1.80006 -3.27946 0
M  V30 19122 H 1749.9 2.38556 -4.30525 0
M  V30 19123 N 1751.55 1.48103 0.538828 0
M  V30 19124 C 1752.8 1.54925 1.29156 0
M  V30 19125 C 1753.11 0.224177 1.94311 0
M  V30 19126 O 1754.32 0.170559 2.70964 0
M  V30 19127 C 1752.77 2.73184 2.34304 0
M  V30 19128 C 1752.38 4.12297 1.75257 0
M  V30 19129 C 1754.12 2.89313 3.10642 0
M  V30 19130 C 1752.03 5.2183 2.78294 0
M  V30 19131 H 1750.96 0.576723 0.485702 0
M  V30 19132 H 1753.61 1.74418 0.570142 0
M  V30 19133 H 1751.99 2.47107 3.09441 0
M  V30 19134 H 1753.17 4.48355 1.06368 0
M  V30 19135 H 1751.48 4.0121 1.11442 0
M  V30 19136 H 1754.08 3.68313 3.87621 0
M  V30 19137 H 1754.42 1.98438 3.65962 0
M  V30 19138 H 1754.96 3.15248 2.42618 0
M  V30 19139 H 1751.7 6.14642 2.27805 0
M  V30 19140 H 1751.22 4.90269 3.45537 0
M  V30 19141 H 1752.89 5.49567 3.41446 0
M  V30 19142 N 1753.03 -0.787016 1.36542 0
M  V30 19143 C 1754.3 -1.53325 1.21452 0
M  V30 19144 C 1754.68 -2.10166 -0.198313 0
M  V30 19145 O 1754.03 -1.94192 -1.20422 0
M  V30 19146 C 1754.24 -2.62629 2.29841 0
M  V30 19147 C 1755.59 -3.30446 2.66628 0
M  V30 19148 O 1756.61 -2.72914 2.28903 0
M  V30 19149 O 1755.47 -4.34424 3.31569 0
M  V30 19150 H 1752.57 -0.678361 0.473028 0
M  V30 19151 H 1755.11 -0.825292 1.4828 0
M  V30 19152 H 1753.88 -2.18639 3.24519 0
M  V30 19153 H 1753.51 -3.41042 2.04393 0
M  V30 19154 N 1754.5 -1.20861 -1.01145 0
M  V30 19155 C 1755.73 -1.04843 -1.78949 0
M  V30 19156 C 1756.15 0.397676 -1.83848 0
M  V30 19157 O 1755.51 1.28663 -1.27733 0
M  V30 19158 C 1755.56 -1.64267 -3.21012 0
M  V30 19159 O 1754.66 -0.883773 -4.02819 0
M  V30 19160 H 1754.01 -0.36941 -0.551754 0
M  V30 19161 H 1756.54 -1.60266 -1.27185 0
M  V30 19162 H 1756.55 -1.68218 -3.71708 0
M  V30 19163 H 1755.22 -2.69509 -3.16761 0
M  V30 19164 H 1753.8 -0.918866 -3.61402 0
M  V30 19165 N 1755.98 1.20536 -1.01532 0
M  V30 19166 C 1757.23 1.89871 -0.70393 0
M  V30 19167 C 1757.56 1.78768 0.76631 0
M  V30 19168 O 1756.81 1.1653 1.57224 0
M  V30 19169 C 1757.11 3.40578 -1.08358 0
M  V30 19170 C 1756.78 3.71881 -2.54981 0
M  V30 19171 C 1755.44 3.80135 -2.95044 0
M  V30 19172 C 1757.79 3.86282 -3.49909 0
M  V30 19173 C 1755.12 4.00246 -4.28976 0
M  V30 19174 C 1757.47 4.07902 -4.83527 0
M  V30 19175 C 1756.14 4.14385 -5.23298 0
M  V30 19176 H 1755.41 0.694788 -0.257586 0
M  V30 19177 H 1758.05 1.42825 -1.27567 0
M  V30 19178 H 1756.36 3.89431 -0.430234 0
M  V30 19179 H 1758.05 3.92519 -0.820353 0
M  V30 19180 H 1754.64 3.66055 -2.22938 0
M  V30 19181 H 1758.83 3.79261 -3.20117 0
M  V30 19182 H 1754.08 4.03499 -4.59345 0
M  V30 19183 H 1758.26 4.17987 -5.5701 0
M  V30 19184 H 1755.89 4.29721 -6.27092 0
M  V30 19185 N 1757.46 0.791395 1.36289 0
M  V30 19186 C 1758.71 0.365242 1.99484 0
M  V30 19187 C 1759.04 -1.06087 1.62663 0
M  V30 19188 O 1758.31 -1.73332 0.882396 0
M  V30 19189 C 1758.6 0.531317 3.56159 0
M  V30 19190 C 1758.45 2.00126 4.02827 0
M  V30 19191 C 1759.77 -0.0524248 4.40069 0
M  V30 19192 H 1756.89 0.134183 0.724682 0
M  V30 19193 H 1759.53 0.998102 1.61672 0
M  V30 19194 H 1757.68 -0.0074293 3.88499 0
M  V30 19195 H 1759.35 2.60122 3.80965 0
M  V30 19196 H 1757.6 2.50316 3.54294 0
M  V30 19197 H 1758.27 2.06842 5.11782 0
M  V30 19198 H 1760.74 0.407489 4.141 0
M  V30 19199 H 1759.62 0.0937898 5.4882 0
M  V30 19200 H 1759.88 -1.14472 4.27023 0
M  V30 19201 N 1758.94 -1.47929 0.54358 0
M  V30 19202 C 1759.89 -2.29827 -0.211706 0
M  V30 19203 C 1760.86 -1.38217 -0.921154 0
M  V30 19204 O 1762.04 -1.67181 -0.919522 0
M  V30 19205 C 1759.18 -3.21889 -1.24425 0
M  V30 19206 C 1758.29 -4.28583 -0.542264 0
M  V30 19207 C 1757.43 -5.0781 -1.55892 0
M  V30 19208 C 1756.47 -6.06293 -0.841146 0
M  V30 19209 N 1755.61 -6.78528 -1.80399 0
M  V30 19210 H 1760.45 -2.93896 0.492835 0
M  V30 19211 H 1757.98 -1.44875 0.254873 0
M  V30 19212 H 1759.94 -3.73674 -1.85535 0
M  V30 19213 H 1758.57 -2.59713 -1.917 0
M  V30 19214 H 1757.62 -3.79959 0.183069 0
M  V30 19215 H 1758.93 -4.98796 0.0206703 0
M  V30 19216 H 1758.09 -5.63678 -2.24393 0
M  V30 19217 H 1756.83 -4.37468 -2.15576 0
M  V30 19218 H 1755.83 -5.49616 -0.14214 0
M  V30 19219 H 1757.06 -6.78639 -0.250232 0
M  V30 19220 H 1755 -6.10927 -2.38965 0
M  V30 19221 H 1754.92 -7.44863 -1.29285 0
M  V30 19222 H 1756.19 -7.38978 -2.48056 0
M  V30 19223 N 1760.42 -0.27936 -1.55104 0
M  V30 19224 C 1761.64 0.342295 -2.04556 0
M  V30 19225 C 1762.07 1.48367 -1.15624 0
M  V30 19226 O 1761.43 1.8063 -0.15572 0
M  V30 19227 C 1761.47 0.796785 -3.51687 0
M  V30 19228 O 1760.58 1.90364 -3.65835 0
M  V30 19229 H 1759.92 0.07012 -0.660287 0
M  V30 19230 H 1762.45 -0.414896 -2.00349 0
M  V30 19231 H 1762.46 1.09141 -3.93131 0
M  V30 19232 H 1761.13 -0.0382637 -4.15882 0
M  V30 19233 H 1759.71 1.61123 -3.36294 0
M  V30 19234 N 1761.9 1.57599 -0.0067085 0
M  V30 19235 C 1763.14 1.90481 0.675393 0
M  V30 19236 C 1763.46 0.881481 1.73939 0
M  V30 19237 O 1762.73 -0.0801928 1.95736 0
M  V30 19238 H 1761.31 0.703048 0.252452 0
M  V30 19239 H 1763.98 1.94838 -0.04922 0
M  V30 19240 H 1763.07 2.90441 1.14239 0
M  V30 19241 N 1763.37 -0.266145 1.55336 0
M  V30 19242 C 1764.65 -1.01852 1.6699 0
M  V30 19243 C 1765.03 -2.04053 0.54088 0
M  V30 19244 O 1764.38 -2.23859 -0.458193 0
M  V30 19245 C 1764.59 -1.66917 3.06496 0
M  V30 19246 C 1765.94 -2.17824 3.64469 0
M  V30 19247 O 1766.96 -1.76892 3.09173 0
M  V30 19248 O 1765.82 -2.92922 4.61367 0
M  V30 19249 H 1762.91 -0.472871 0.67847 0
M  V30 19250 H 1765.46 -0.261458 1.67674 0
M  V30 19251 H 1764.23 -0.928941 3.80114 0
M  V30 19252 H 1763.85 -2.49292 3.0974 0
M  V30 19253 N 1764.85 -1.48386 -0.530967 0
M  V30 19254 C 1766.1 -1.56354 -1.28685 0
M  V30 19255 C 1766.43 -0.237022 -1.9305 0
M  V30 19256 O 1765.68 0.772595 -1.79804 0
M  V30 19257 C 1765.98 -2.64979 -2.39835 0
M  V30 19258 C 1765.65 -4.07446 -1.93129 0
M  V30 19259 C 1764.31 -4.46222 -1.80108 0
M  V30 19260 C 1766.66 -4.96732 -1.5782 0
M  V30 19261 C 1763.99 -5.7209 -1.30113 0
M  V30 19262 C 1766.34 -6.23088 -1.09288 0
M  V30 19263 C 1765 -6.60722 -0.948835 0
M  V30 19264 H 1764.27 -0.572139 -0.470891 0
M  V30 19265 H 1766.92 -1.82099 -0.592626 0
M  V30 19266 H 1765.23 -2.3309 -3.14923 0
M  V30 19267 H 1766.92 -2.68359 -2.97967 0
M  V30 19268 H 1763.51 -3.76822 -2.04213 0
M  V30 19269 H 1767.7 -4.67452 -1.6674 0
M  V30 19270 H 1762.95 -5.99974 -1.17647 0
M  V30 19271 H 1767.13 -6.91669 -0.810376 0
M  V30 19272 H 1764.75 -7.5814 -0.559235 0
M  V30 19273 N 1766.33 0.779763 -1.36958 0
M  V30 19274 C 1767.58 1.53326 -1.31049 0
M  V30 19275 C 1767.89 1.95317 0.105139 0
M  V30 19276 O 1769.1 2.69983 0.286652 0
M  V30 19277 C 1767.55 2.76832 -2.29983 0
M  V30 19278 C 1767.16 2.41972 -3.77033 0
M  V30 19279 C 1768.91 3.54794 -2.3307 0
M  V30 19280 C 1766.81 3.61931 -4.67718 0
M  V30 19281 H 1765.74 0.57561 -0.48702 0
M  V30 19282 H 1768.39 0.854801 -1.62374 0
M  V30 19283 H 1766.78 3.46527 -1.91665 0
M  V30 19284 H 1767.95 1.80112 -4.24142 0
M  V30 19285 H 1766.26 1.77201 -3.76814 0
M  V30 19286 H 1768.86 4.4394 -2.98029 0
M  V30 19287 H 1769.2 3.94077 -1.34199 0
M  V30 19288 H 1769.74 2.92088 -2.70054 0
M  V30 19289 H 1766.48 3.27736 -5.67688 0
M  V30 19290 H 1766 4.22923 -4.25319 0
M  V30 19291 H 1767.68 4.28842 -4.84462 0
M  V30 19292 N 1767.81 1.21396 1.00503 0
M  V30 19293 C 1768.75 0.973198 2.09279 0
M  V30 19294 C 1769.72 -0.100797 1.65794 0
M  V30 19295 O 1770.91 0.0463185 1.90744 0
M  V30 19296 C 1768.05 0.543941 3.40786 0
M  V30 19297 C 1767.16 1.68737 3.97683 0
M  V30 19298 C 1766.3 1.20728 5.17299 0
M  V30 19299 C 1765.34 2.32305 5.66305 0
M  V30 19300 N 1764.47 1.8543 6.77171 0
M  V30 19301 H 1769.31 1.90441 2.29208 0
M  V30 19302 H 1766.85 0.949082 1.12387 0
M  V30 19303 H 1768.81 0.276311 4.16284 0
M  V30 19304 H 1767.44 -0.350263 3.20894 0
M  V30 19305 H 1766.49 2.06964 3.19171 0
M  V30 19306 H 1767.8 2.5271 4.30045 0
M  V30 19307 H 1766.96 0.896312 6.00043 0
M  V30 19308 H 1765.7 0.3376 4.8653 0
M  V30 19309 H 1764.7 2.64205 4.82158 0
M  V30 19310 H 1765.93 3.19769 5.99103 0
M  V30 19311 H 1763.87 1.00806 6.48208 0
M  V30 19312 H 1763.79 2.62976 7.08788 0
M  V30 19313 H 1765.06 1.57366 7.6345 0
M  V30 19314 N 1769.29 -1.19996 1.0217 0
M  V30 19315 C 1770.22 -2.25206 0.616818 0
M  V30 19316 C 1771.2 -1.66013 -0.370653 0
M  V30 19317 O 1772.38 -1.92519 -0.254956 0
M  V30 19318 C 1769.51 -3.47276 -0.0405129 0
M  V30 19319 C 1768.47 -4.19096 0.868479 0
M  V30 19320 C 1767.79 -5.34645 0.0766447 0
M  V30 19321 C 1769.09 -4.7468 2.1789 0
M  V30 19322 H 1770.79 -2.59328 1.49632 0
M  V30 19323 H 1768.33 -1.24655 0.720917 0
M  V30 19324 H 1770.28 -4.20063 -0.335355 0
M  V30 19325 H 1769.01 -3.12333 -0.954759 0
M  V30 19326 H 1767.67 -3.48181 1.1474 0
M  V30 19327 H 1767.32 -4.95946 -0.839411 0
M  V30 19328 H 1767.02 -5.83628 0.682041 0
M  V30 19329 H 1768.54 -6.10233 -0.211624 0
M  V30 19330 H 1769.95 -5.39259 1.94608 0
M  V30 19331 H 1768.35 -5.34121 2.7356 0
M  V30 19332 H 1769.42 -3.93141 2.83845 0
M  V30 19333 N 1770.76 -0.798611 -1.35867 0
M  V30 19334 C 1771.99 -0.386918 -2.02945 0
M  V30 19335 C 1772.4 1.00438 -1.6034 0
M  V30 19336 O 1771.74 1.65716 -0.792719 0
M  V30 19337 C 1771.81 -0.381754 -3.57467 0
M  V30 19338 C 1771.47 -1.72219 -4.23308 0
M  V30 19339 C 1772.47 -2.67919 -4.45551 0
M  V30 19340 C 1770.15 -2.00402 -4.60591 0
M  V30 19341 C 1772.15 -3.8999 -5.04169 0
M  V30 19342 C 1769.83 -3.22737 -5.18926 0
M  V30 19343 C 1770.83 -4.1735 -5.40655 0
M  V30 19344 O 1770.52 -5.37527 -5.97762 0
M  V30 19345 H 1770.25 -0.156344 -0.657672 0
M  V30 19346 H 1772.81 -1.08128 -1.74635 0
M  V30 19347 H 1771.04 0.369157 -3.84934 0
M  V30 19348 H 1772.72 0.00653107 -4.05899 0
M  V30 19349 H 1773.49 -2.47436 -4.17134 0
M  V30 19350 H 1769.37 -1.27573 -4.42997 0
M  V30 19351 H 1772.91 -4.6385 -5.21046 0
M  V30 19352 H 1768.81 -3.43094 -5.46769 0
M  V30 19353 H 1769.58 -5.38716 -6.16221 0
M  V30 19354 N 1772.24 1.47639 -0.551417 0
M  V30 19355 C 1773.49 2.02784 -0.0252425 0
M  V30 19356 C 1773.82 1.42549 1.31884 0
M  V30 19357 O 1773.1 0.578954 1.85684 0
M  V30 19358 C 1773.38 3.60024 0.0740051 0
M  V30 19359 C 1773.23 4.30702 -1.29676 0
M  V30 19360 C 1774.55 4.32946 0.790302 0
M  V30 19361 H 1771.67 0.736923 -0.0106473 0
M  V30 19362 H 1774.31 1.76131 -0.712589 0
M  V30 19363 H 1772.46 3.82863 0.65939 0
M  V30 19364 H 1774.13 4.1922 -1.9249 0
M  V30 19365 H 1772.38 3.91282 -1.87299 0
M  V30 19366 H 1773.05 5.39238 -1.18009 0
M  V30 19367 H 1775.52 4.15065 0.293326 0
M  V30 19368 H 1774.4 5.42608 0.828692 0
M  V30 19369 H 1774.66 4.01752 1.84521 0
M  V30 19370 N 1773.72 0.287581 1.54954 0
M  V30 19371 C 1774.95 -0.331442 2.04735 0
M  V30 19372 C 1775.37 -1.47752 1.16409 0
M  V30 19373 O 1774.73 -1.80545 0.165297 0
M  V30 19374 C 1774.78 -0.778123 3.52105 0
M  V30 19375 O 1773.88 -1.88422 3.66839 0
M  V30 19376 H 1773.22 -0.0666173 0.66065 0
M  V30 19377 H 1775.75 0.425516 2.00126 0
M  V30 19378 H 1775.76 -1.07054 3.93705 0
M  V30 19379 H 1774.44 0.0603184 4.15856 0
M  V30 19380 H 1773.01 -1.59338 3.37144 0
M  V30 19381 N 1775.2 -1.57593 0.0150662 0
M  V30 19382 C 1776.43 -1.95221 -0.676193 0
M  V30 19383 C 1776.84 -0.889349 -1.66995 0
M  V30 19384 O 1776.18 0.138825 -1.83175 0
M  V30 19385 C 1776.24 -3.28921 -1.45092 0
M  V30 19386 C 1775.91 -4.52815 -0.61707 0
M  V30 19387 C 1776.9 -5.19801 0.101686 0
M  V30 19388 C 1774.59 -4.99184 -0.558606 0
M  V30 19389 C 1776.58 -6.31466 0.86773 0
M  V30 19390 C 1774.27 -6.10735 0.211154 0
M  V30 19391 C 1775.27 -6.76734 0.923041 0
M  V30 19392 O 1774.95 -7.86145 1.68021 0
M  V30 19393 H 1774.69 -0.648074 -0.192293 0
M  V30 19394 H 1777.24 -2.05291 0.0668663 0
M  V30 19395 H 1775.47 -3.15301 -2.2388 0
M  V30 19396 H 1777.16 -3.51552 -2.02894 0
M  V30 19397 H 1777.93 -4.84955 0.0657637 0
M  V30 19398 H 1773.8 -4.47629 -1.10226 0
M  V30 19399 H 1777.35 -6.82913 1.42391 0
M  V30 19400 H 1773.25 -6.4502 0.248843 0
M  V30 19401 H 1774.01 -8.02739 1.5985 0
M  V30 19402 N 1776.68 0.257904 -1.55475 0
M  V30 19403 C 1777.62 1.33893 -1.90198 0
M  V30 19404 C 1778.62 1.50381 -0.779868 0
M  V30 19405 O 1779.82 1.51986 -0.964376 0
M  V30 19406 H 1776.2 0.448115 -0.603901 0
M  V30 19407 H 1778.17 1.01868 -2.80474 0
M  V30 19408 C 1776.92 2.68954 -2.20361 0
M  V30 19409 H 1776.24 2.57064 -3.062 0
M  V30 19410 H 1777.68 3.43498 -2.48567 0
M  V30 19411 C 1776.14 3.21208 -1.01623 0
M  V30 19412 O 1776.67 4.00867 -0.258567 0
M  V30 19413 N 1774.88 2.79088 -0.809825 0
M  V30 19414 H 1774.42 2.1442 -1.42764 0
M  V30 19415 H 1774.38 3.14395 -0.0170171 0
M  V30 19416 N 1778.15 1.48666 0.52309 0
M  V30 19417 C 1779.1 1.64155 1.6479 0
M  V30 19418 C 1780.1 0.507838 1.61609 0
M  V30 19419 O 1781.3 0.686784 1.66383 0
M  V30 19420 H 1777.68 0.517234 0.545869 0
M  V30 19421 H 1779.65 2.58611 1.48871 0
M  V30 19422 C 1778.4 1.70488 3.03033 0
M  V30 19423 H 1777.72 2.5709 3.06178 0
M  V30 19424 H 1779.16 1.85367 3.81333 0
M  V30 19425 C 1777.62 0.444984 3.33948 0
M  V30 19426 O 1778.15 -0.439107 3.99293 0
M  V30 19427 N 1776.36 0.314593 2.88892 0
M  V30 19428 H 1775.9 1.03501 2.35893 0
M  V30 19429 H 1775.86 -0.527357 3.09946 0
M  V30 19430 N 1779.63 -0.772489 1.37369 0
M  V30 19431 C 1780.58 -1.90713 1.33158 0
M  V30 19432 C 1781.57 -1.67959 0.220482 0
M  V30 19433 O 1782.78 -1.75758 0.388465 0
M  V30 19434 H 1779.16 -0.627149 0.414956 0
M  V30 19435 H 1781.13 -1.91382 2.28944 0
M  V30 19436 C 1779.88 -3.27966 1.1547 0
M  V30 19437 H 1779.2 -3.46052 2.00221 0
M  V30 19438 H 1780.64 -4.0766 1.16574 0
M  V30 19439 C 1779.1 -3.3661 -0.139688 0
M  V30 19440 O 1779.63 -3.85668 -1.12353 0
M  V30 19441 N 1777.83 -2.89977 -0.190134 0
M  V30 19442 H 1777.38 -2.50246 0.611134 0
M  V30 19443 H 1777.34 -2.96142 -1.05582 0
M  V30 19444 N 1781.11 -1.21927 -0.998575 0
M  V30 19445 C 1782.02 -1.00049 -2.12197 0
M  V30 19446 C 1783.04 0.0494414 -1.7393 0
M  V30 19447 O 1784.21 -0.142033 -2.00899 0
M  V30 19448 C 1781.28 -0.574871 -3.41901 0
M  V30 19449 C 1780.34 -1.69776 -3.94303 0
M  V30 19450 C 1779.57 -1.29236 -5.17816 0
M  V30 19451 O 1779.79 -0.168709 -5.7015 0
M  V30 19452 O 1778.73 -2.10671 -5.63827 0
M  V30 19453 H 1782.55 -1.94154 -2.33534 0
M  V30 19454 H 1780.14 -1.00472 -1.10571 0
M  V30 19455 H 1782.02 -0.347603 -4.19964 0
M  V30 19456 H 1780.7 0.337389 -3.21937 0
M  V30 19457 H 1779.6 -1.9795 -3.17438 0
M  V30 19458 H 1780.94 -2.58768 -4.18688 0
M  V30 19459 N 1782.59 1.19452 -1.02805 0
M  V30 19460 C 1783.54 2.20533 -0.578732 0
M  V30 19461 C 1784.52 1.56539 0.372081 0
M  V30 19462 O 1785.71 1.75943 0.193185 0
M  V30 19463 C 1782.84 3.43229 0.0698982 0
M  V30 19464 C 1781.93 4.14368 -0.903306 0
M  V30 19465 N 1782.32 4.61709 -2.0654 0
M  V30 19466 C 1780.62 4.40042 -0.726572 0
M  V30 19467 C 1781.32 5.1633 -2.67914 0
M  V30 19468 N 1780.3 5.0708 -1.95884 0
M  V30 19469 H 1784.1 2.54813 -1.46451 0
M  V30 19470 H 1781.61 1.35517 -0.894927 0
M  V30 19471 H 1783.61 4.14885 0.409411 0
M  V30 19472 H 1782.27 3.1045 0.951368 0
M  V30 19473 H 1783.28 4.5656 -2.44485 0
M  V30 19474 H 1779.96 4.17366 0.105875 0
M  V30 19475 H 1781.35 5.63254 -3.66326 0
M  V30 19476 N 1784.07 0.805805 1.35442 0
M  V30 19477 C 1785.32 0.382303 1.98044 0
M  V30 19478 C 1785.63 -1.05602 1.64644 0
M  V30 19479 O 1786.83 -1.5826 2.20604 0
M  V30 19480 C 1785.29 0.632619 3.54296 0
M  V30 19481 C 1784.9 2.08344 3.96607 0
M  V30 19482 C 1786.64 0.274435 4.23612 0
M  V30 19483 C 1784.55 2.27954 5.45702 0
M  V30 19484 H 1783.48 0.13921 0.741037 0
M  V30 19485 H 1786.13 0.989752 1.54519 0
M  V30 19486 H 1784.51 -0.0447699 3.95975 0
M  V30 19487 H 1785.69 2.79857 3.66083 0
M  V30 19488 H 1784 2.40142 3.40178 0
M  V30 19489 H 1786.6 0.399019 5.33209 0
M  V30 19490 H 1786.94 -0.779292 4.08941 0
M  V30 19491 H 1787.47 0.90571 3.87352 0
M  V30 19492 H 1784.21 3.3177 5.6534 0
M  V30 19493 H 1783.73 1.60965 5.77798 0
M  V30 19494 H 1785.41 2.09469 6.12153 0
M  V30 19495 N 1785.54 -1.47344 0.559239 0
M  V30 19496 C 1786.79 -2.02768 0.0359962 0
M  V30 19497 C 1787.12 -1.43247 -1.31126 0
M  V30 19498 O 1786.4 -0.588793 -1.85374 0
M  V30 19499 C 1786.68 -3.60058 -0.0549111 0
M  V30 19500 C 1786.53 -4.30008 1.31958 0
M  V30 19501 C 1787.85 -4.33359 -0.767331 0
M  V30 19502 H 1784.97 -0.736856 0.0145552 0
M  V30 19503 H 1787.61 -1.75751 0.72192 0
M  V30 19504 H 1785.76 -3.83208 -0.639076 0
M  V30 19505 H 1787.44 -4.18193 1.94711 0
M  V30 19506 H 1785.68 -3.90283 1.89372 0
M  V30 19507 H 1786.35 -5.38605 1.20867 0
M  V30 19508 H 1788.83 -4.15215 -0.27131 0
M  V30 19509 H 1787.7 -5.4304 -0.799905 0
M  V30 19510 H 1787.96 -4.02725 -1.82387 0
M  V30 19511 N 1787.02 -0.295795 -1.54799 0
M  V30 19512 C 1788.27 0.314384 -1.9964 0
M  V30 19513 C 1788.59 1.5481 -1.1857 0
M  V30 19514 O 1787.86 1.93884 -0.280353 0
M  V30 19515 H 1786.44 0.119153 -0.737436 0
M  V30 19516 H 1789.1 -0.40592 -1.90626 0
M  V30 19517 H 1788.2 0.59002 -3.06472 0
M  V30 19518 N 1788.5 1.57583 -0.0234236 0
M  V30 19519 C 1789.73 1.95577 0.66583 0
M  V30 19520 C 1790.14 0.898193 1.66521 0
M  V30 19521 O 1789.48 -0.129109 1.83246 0
M  V30 19522 C 1789.54 3.29685 1.43345 0
M  V30 19523 C 1789.21 4.53136 0.593048 0
M  V30 19524 C 1790.21 5.19739 -0.129251 0
M  V30 19525 C 1787.89 4.99473 0.532125 0
M  V30 19526 C 1789.88 6.30997 -0.901206 0
M  V30 19527 C 1787.57 6.10615 -0.24354 0
M  V30 19528 C 1788.57 6.76235 -0.958917 0
M  V30 19529 O 1788.26 7.85243 -1.72188 0
M  V30 19530 H 1787.99 0.649084 0.188853 0
M  V30 19531 H 1790.54 2.05253 -0.0777525 0
M  V30 19532 H 1788.77 3.16484 2.22205 0
M  V30 19533 H 1790.46 3.52623 2.01027 0
M  V30 19534 H 1791.23 4.84914 -0.0914812 0
M  V30 19535 H 1787.11 4.48207 1.0785 0
M  V30 19536 H 1790.65 6.82149 -1.46011 0
M  V30 19537 H 1786.55 6.44879 -0.283046 0
M  V30 19538 H 1787.32 8.0188 -1.64105 0
M  V30 19539 N 1789.98 -0.249655 1.5561 0
M  V30 19540 C 1791.39 -0.818934 1.67781 0
M  V30 19541 C 1791.74 -1.86134 0.620374 0
M  V30 19542 O 1790.87 -2.15133 -0.233869 0
M  V30 19543 C 1791.46 -1.49219 3.0417 0
M  V30 19544 C 1790.02 -2.0092 3.18289 0
M  V30 19545 C 1789.17 -0.859333 2.63649 0
M  V30 19546 H 1792.12 -0.0255186 1.58679 0
M  V30 19547 H 1792.14 -2.36011 2.98461 0
M  V30 19548 H 1791.65 -0.733268 3.8111 0
M  V30 19549 H 1789.75 -2.79701 2.46167 0
M  V30 19550 H 1789.87 -2.20848 4.25163 0
M  V30 19551 H 1788.23 -1.2591 2.21402 0
M  V30 19552 H 1789.01 -0.113545 3.43112 0
M  V30 19553 N 1791.46 -1.48941 -0.515198 0
M  V30 19554 C 1792.4 -1.64561 -1.61828 0
M  V30 19555 C 1793.37 -0.487323 -1.5879 0
M  V30 19556 O 1794.56 -0.712626 -1.76992 0
M  V30 19557 C 1791.7 -1.70506 -3.00036 0
M  V30 19558 C 1790.81 -2.97543 -3.13197 0
M  V30 19559 C 1789.95 -2.94555 -4.42053 0
M  V30 19560 C 1788.99 -4.16232 -4.48795 0
M  V30 19561 N 1788.12 -4.11236 -5.6906 0
M  V30 19562 H 1792.96 -2.58754 -1.47818 0
M  V30 19563 H 1790.5 -1.28307 -0.719423 0
M  V30 19564 H 1792.46 -1.71934 -3.80125 0
M  V30 19565 H 1791.09 -0.797907 -3.12783 0
M  V30 19566 H 1790.14 -3.05792 -2.26264 0
M  V30 19567 H 1791.45 -3.87532 -3.14039 0
M  V30 19568 H 1790.61 -2.94466 -5.30447 0
M  V30 19569 H 1789.35 -2.0232 -4.43754 0
M  V30 19570 H 1788.35 -4.1658 -3.58805 0
M  V30 19571 H 1789.58 -5.09644 -4.48821 0
M  V30 19572 H 1787.52 -3.2183 -5.7163 0
M  V30 19573 H 1787.44 -4.94945 -5.71459 0
M  V30 19574 H 1788.71 -4.15229 -6.59701 0
M  V30 19575 N 1792.94 0.765193 -1.37777 0
M  V30 19576 C 1794.21 1.51374 -1.23876 0
M  V30 19577 C 1794.59 2.10455 0.164852 0
M  V30 19578 O 1793.94 1.96084 1.17318 0
M  V30 19579 C 1794.15 2.58939 -2.33991 0
M  V30 19580 C 1795.5 3.26162 -2.71852 0
M  V30 19581 O 1796.52 2.69238 -2.33216 0
M  V30 19582 O 1795.38 4.29094 -3.38438 0
M  V30 19583 H 1792.48 0.670749 -0.48376 0
M  V30 19584 H 1795.02 0.801597 -1.49574 0
M  V30 19585 H 1793.79 2.13448 -3.27957 0
M  V30 19586 H 1793.42 3.37747 -2.09793 0
M  V30 19587 N 1794.41 1.22455 0.992094 0
M  V30 19588 C 1795.66 1.04752 1.72833 0
M  V30 19589 C 1795.98 -0.418152 1.90464 0
M  V30 19590 O 1795.25 -1.30072 1.46486 0
M  V30 19591 H 1793.83 0.384626 0.640368 0
M  V30 19592 H 1796.49 1.5398 1.19483 0
M  V30 19593 H 1795.59 1.52601 2.72249 0
M  V30 19594 N 1795.89 -1.18905 1.03437 0
M  V30 19595 C 1796.84 -2.24362 0.613557 0
M  V30 19596 C 1797.83 -1.65605 -0.356541 0
M  V30 19597 O 1799.04 -1.78594 -0.22452 0
M  V30 19598 H 1795.41 -0.730098 0.18017 0
M  V30 19599 H 1797.39 -2.57168 1.51351 0
M  V30 19600 C 1796.13 -3.47697 -0.0141125 0
M  V30 19601 H 1795.46 -3.93201 0.723394 0
M  V30 19602 H 1796.9 -4.2313 -0.271424 0
M  V30 19603 C 1795.36 -3.12357 -1.26232 0
M  V30 19604 O 1795.89 -3.25515 -2.35378 0
M  V30 19605 N 1794.09 -2.6674 -1.15318 0
M  V30 19606 H 1793.64 -2.56233 -0.26501 0
M  V30 19607 H 1793.6 -2.43466 -1.98927 0
M  V30 19608 N 1797.37 -0.812977 -1.35013 0
M  V30 19609 C 1798.33 -0.233373 -2.28009 0
M  V30 19610 C 1799.33 0.58298 -1.4986 0
M  V30 19611 O 1800.52 0.400533 -1.69533 0
M  V30 19612 C 1797.65 0.673931 -3.34172 0
M  V30 19613 H 1798.85 -1.05366 -2.80781 0
M  V30 19614 H 1796.4 -0.584097 -1.44976 0
M  V30 19615 H 1797.14 1.51766 -2.86597 0
M  V30 19616 H 1796.92 0.0901848 -3.91996 0
M  V30 19617 H 1798.41 1.07358 -4.03564 0
M  V30 19618 N 1798.85 1.47045 -0.567045 0
M  V30 19619 C 1800.09 2.02446 -0.0466799 0
M  V30 19620 C 1800.42 1.44032 1.3071 0
M  V30 19621 O 1799.68 0.58926 1.86618 0
M  V30 19622 C 1799.98 3.57298 0.0855754 0
M  V30 19623 C 1799.64 4.34678 -1.19858 0
M  V30 19624 C 1798.3 4.55538 -1.55043 0
M  V30 19625 C 1800.66 4.7923 -2.04909 0
M  V30 19626 C 1797.98 5.18201 -2.75108 0
M  V30 19627 C 1800.34 5.43218 -3.24186 0
M  V30 19628 C 1799 5.62309 -3.59673 0
M  V30 19629 H 1798.27 0.740803 -0.0170814 0
M  V30 19630 H 1800.92 1.76602 -0.740536 0
M  V30 19631 H 1799.22 3.82189 0.862463 0
M  V30 19632 H 1800.92 3.97824 0.50371 0
M  V30 19633 H 1797.51 4.18727 -0.914632 0
M  V30 19634 H 1801.69 4.62884 -1.79032 0
M  V30 19635 H 1796.95 5.31175 -3.02759 0
M  V30 19636 H 1801.12 5.76702 -3.90369 0
M  V30 19637 H 1798.75 6.10636 -4.528 0
M  V30 19638 N 1800.33 0.304 1.5464 0
M  V30 19639 C 1801.27 -0.586475 2.25085 0
M  V30 19640 C 1802.27 -1.13458 1.25792 0
M  V30 19641 O 1803.47 -1.08487 1.43633 0
M  V30 19642 H 1799.85 -0.20774 0.722737 0
M  V30 19643 H 1801.82 0.0301682 2.98385 0
M  V30 19644 C 1800.57 -1.74539 3.00718 0
M  V30 19645 H 1799.89 -1.33287 3.76928 0
M  V30 19646 H 1801.33 -2.34447 3.53285 0
M  V30 19647 C 1799.79 -2.65132 2.07862 0
M  V30 19648 O 1800.32 -3.6631 1.64863 0
M  V30 19649 N 1798.53 -2.32932 1.73756 0
M  V30 19650 H 1798.07 -1.50698 2.08921 0
M  V30 19651 H 1798.03 -2.93811 1.11904 0
M  V30 19652 N 1801.8 -1.57568 0.0317802 0
M  V30 19653 C 1802.75 -2.11538 -0.967175 0
M  V30 19654 C 1803.75 -1.04258 -1.33516 0
M  V30 19655 O 1804.95 -1.2269 -1.31709 0
M  V30 19656 H 1801.33 -0.675877 -0.329687 0
M  V30 19657 H 1803.3 -2.94404 -0.486695 0
M  V30 19658 C 1802.05 -2.65973 -2.2395 0
M  V30 19659 H 1801.37 -3.48172 -1.96509 0
M  V30 19660 H 1802.81 -3.07379 -2.92052 0
M  V30 19661 C 1801.27 -1.5884 -2.97105 0
M  V30 19662 O 1801.8 -0.989784 -3.89315 0
M  V30 19663 N 1800 -1.30821 -2.59488 0
M  V30 19664 H 1799.55 -1.79687 -1.84581 0
M  V30 19665 H 1799.51 -0.593658 -3.08744 0
M  V30 19666 N 1803.28 0.241399 -1.5574 0
M  V30 19667 C 1804.21 1.30255 -1.93793 0
M  V30 19668 C 1805.19 1.49923 -0.803563 0
M  V30 19669 O 1806.38 1.62439 -1.06429 0
M  V30 19670 C 1803.51 2.65625 -2.23742 0
M  V30 19671 C 1802.46 2.60645 -3.39483 0
M  V30 19672 C 1801.79 3.99861 -3.54986 0
M  V30 19673 C 1803.09 2.17151 -4.75019 0
M  V30 19674 H 1804.78 0.986532 -2.8268 0
M  V30 19675 H 1802.33 0.473125 -1.36006 0
M  V30 19676 H 1804.28 3.40001 -2.48953 0
M  V30 19677 H 1803.01 2.98874 -1.31688 0
M  V30 19678 H 1801.66 1.88727 -3.14289 0
M  V30 19679 H 1801.31 4.30385 -2.60342 0
M  V30 19680 H 1801.01 3.97415 -4.32822 0
M  V30 19681 H 1802.54 4.75928 -3.82524 0
M  V30 19682 H 1803.95 2.8126 -4.99565 0
M  V30 19683 H 1802.35 2.25805 -5.55996 0
M  V30 19684 H 1803.42 1.12329 -4.7171 0
M  V30 19685 N 1804.76 1.49212 0.507292 0
M  V30 19686 C 1806.04 1.4888 1.26863 0
M  V30 19687 C 1806.42 0.213007 2.10023 0
M  V30 19688 O 1805.77 -0.804785 2.13858 0
M  V30 19689 C 1805.98 2.76407 2.13073 0
M  V30 19690 C 1807.32 3.25647 2.72468 0
M  V30 19691 O 1808.35 2.77481 2.23344 0
M  V30 19692 O 1807.21 4.09518 3.6188 0
M  V30 19693 H 1804.3 0.595597 0.573754 0
M  V30 19694 H 1806.85 1.6147 0.52208 0
M  V30 19695 H 1805.62 3.60758 1.51558 0
M  V30 19696 H 1805.24 2.66648 2.94932 0
M  V30 19697 N 1806.24 -0.757876 1.38181 0
M  V30 19698 C 1807.65 -1.06035 1.19284 0
M  V30 19699 C 1807.85 -2.01463 0.0385482 0
M  V30 19700 O 1806.91 -2.44845 -0.61703 0
M  V30 19701 C 1808.22 -1.64455 2.51744 0
M  V30 19702 C 1809.77 -1.76646 2.58389 0
M  V30 19703 C 1810.25 -2.38478 3.91014 0
M  V30 19704 N 1811.74 -2.45914 3.92531 0
M  V30 19705 C 1812.47 -2.94641 4.91909 0
M  V30 19706 N 1811.97 -3.43435 6.01684 0
M  V30 19707 N 1813.76 -2.93642 4.79303 0
M  V30 19708 H 1805.91 -0.124532 2.12035 0
M  V30 19709 H 1808.18 -0.117876 0.940643 0
M  V30 19710 H 1807.88 -1.01804 3.36644 0
M  V30 19711 H 1807.76 -2.63573 2.69832 0
M  V30 19712 H 1810.14 -2.38426 1.73888 0
M  V30 19713 H 1810.22 -0.762449 2.44173 0
M  V30 19714 H 1809.87 -1.77334 4.75936 0
M  V30 19715 H 1809.8 -3.39513 4.0254 0
M  V30 19716 H 1812.29 -2.11398 3.1324 0
M  V30 19717 H 1812.6 -3.79059 6.73449 0
M  V30 19718 H 1810.95 -3.41504 6.0531 0
M  V30 19719 H 1814.14 -2.5483 3.92657 0
M  V30 19720 H 1814.31 -3.31304 5.56903 0
M  V30 19721 N 1807.72 -1.22979 -0.985586 0
M  V30 19722 C 1808.97 -1.05286 -1.7204 0
M  V30 19723 C 1809.28 0.411213 -1.91229 0
M  V30 19724 O 1810.48 0.70797 -2.62107 0
M  V30 19725 C 1808.94 -1.8355 -3.09576 0
M  V30 19726 C 1808.55 -3.34254 -2.98293 0
M  V30 19727 C 1810.29 -1.74329 -3.87052 0
M  V30 19728 C 1808.2 -4.0493 -4.31029 0
M  V30 19729 H 1807.13 -0.390364 -0.645083 0
M  V30 19730 H 1809.78 -1.46898 -1.09969 0
M  V30 19731 H 1808.16 -1.34741 -3.72372 0
M  V30 19732 H 1809.34 -3.90511 -2.44618 0
M  V30 19733 H 1807.65 -3.44231 -2.34294 0
M  V30 19734 H 1810.25 -2.24449 -4.85311 0
M  V30 19735 H 1810.59 -0.705078 -4.10286 0
M  V30 19736 H 1811.12 -2.20721 -3.30949 0
M  V30 19737 H 1807.86 -5.09035 -4.12993 0
M  V30 19738 H 1807.38 -3.5346 -4.84588 0
M  V30 19739 H 1809.06 -4.10935 -4.99742 0
M  V30 19740 N 1809.19 1.18355 -1.04066 0
M  V30 19741 C 1810.12 2.24196 -0.652568 0
M  V30 19742 C 1811.11 1.66581 0.344195 0
M  V30 19743 O 1812.29 1.929 0.224296 0
M  V30 19744 C 1809.42 3.47297 -0.0147409 0
M  V30 19745 C 1808.37 4.17661 -0.935044 0
M  V30 19746 C 1807.7 5.34455 -0.161692 0
M  V30 19747 C 1809 4.71153 -2.25415 0
M  V30 19748 H 1810.69 2.56914 -1.53738 0
M  V30 19749 H 1808.24 1.23492 -0.740658 0
M  V30 19750 H 1810.19 4.20544 0.268484 0
M  V30 19751 H 1808.92 3.13812 0.904949 0
M  V30 19752 H 1807.58 3.46312 -1.20265 0
M  V30 19753 H 1807.22 4.97219 0.760404 0
M  V30 19754 H 1806.92 5.82469 -0.774805 0
M  V30 19755 H 1808.45 6.10493 0.114515 0
M  V30 19756 H 1809.86 5.36095 -2.03163 0
M  V30 19757 H 1808.26 5.29701 -2.82022 0
M  V30 19758 H 1809.33 3.88576 -2.90064 0
M  V30 19759 N 1810.67 0.820125 1.3458 0
M  V30 19760 C 1812.09 0.505533 1.51382 0
M  V30 19761 C 1812.29 -0.970812 1.76571 0
M  V30 19762 O 1811.34 -1.75538 1.81501 0
M  V30 19763 C 1812.66 1.36264 2.68054 0
M  V30 19764 C 1814.21 1.35947 2.81935 0
M  V30 19765 C 1814.68 2.201 4.01647 0
M  V30 19766 N 1816.17 2.17708 4.08849 0
M  V30 19767 C 1816.91 2.79571 5.00627 0
M  V30 19768 N 1816.4 3.50413 5.97647 0
M  V30 19769 N 1818.2 2.6914 4.93477 0
M  V30 19770 H 1810.35 1.77607 1.16488 0
M  V30 19771 H 1812.61 0.756693 0.571068 0
M  V30 19772 H 1812.32 2.41093 2.56061 0
M  V30 19773 H 1812.19 1.02537 3.62996 0
M  V30 19774 H 1814.58 0.318971 2.93371 0
M  V30 19775 H 1814.66 1.7367 1.8781 0
M  V30 19776 H 1814.3 3.24198 3.90971 0
M  V30 19777 H 1814.23 1.79729 4.9498 0
M  V30 19778 H 1816.72 1.66175 3.39403 0
M  V30 19779 H 1817.04 3.9487 6.64303 0
M  V30 19780 H 1815.38 3.54519 5.9778 0
M  V30 19781 H 1818.57 2.13372 4.16641 0
M  V30 19782 H 1818.74 3.17639 5.64809 0
M  V30 19783 N 1812.15 -1.46743 0.574835 0
M  V30 19784 C 1813.4 -2.02718 0.0575005 0
M  V30 19785 C 1813.73 -1.4463 -1.29599 0
M  V30 19786 O 1813 -0.608422 -1.84739 0
M  V30 19787 C 1813.29 -3.60096 -0.016719 0
M  V30 19788 C 1813.14 -4.28584 1.36511 0
M  V30 19789 C 1814.46 -4.34149 -0.721324 0
M  V30 19790 H 1811.58 -0.73666 0.0223697 0
M  V30 19791 H 1814.22 -1.74975 0.74052 0
M  V30 19792 H 1812.37 -3.83864 -0.598396 0
M  V30 19793 H 1814.04 -4.16104 1.99135 0
M  V30 19794 H 1812.29 -3.88253 1.935 0
M  V30 19795 H 1812.96 -5.37293 1.26573 0
M  V30 19796 H 1815.43 -4.15479 -0.227256 0
M  V30 19797 H 1814.31 -5.43858 -0.742263 0
M  V30 19798 H 1814.57 -4.04637 -1.78106 0
M  V30 19799 N 1813.63 -0.312197 -1.54477 0
M  V30 19800 C 1814.88 0.293192 -1.99962 0
M  V30 19801 C 1815.2 1.53544 -1.20205 0
M  V30 19802 O 1814.47 1.93575 -0.300901 0
M  V30 19803 H 1813.05 0.111325 -0.738658 0
M  V30 19804 H 1815.71 -0.426116 -1.90185 0
M  V30 19805 H 1814.81 0.557482 -3.07081 0
M  V30 19806 N 1815.11 1.57549 -0.040136 0
M  V30 19807 C 1816.34 1.96272 0.645049 0
M  V30 19808 C 1816.74 0.915804 1.65559 0
M  V30 19809 O 1816.09 -0.109666 1.83372 0
M  V30 19810 C 1816.15 3.31187 1.3984 0
M  V30 19811 C 1815.81 4.53739 0.544953 0
M  V30 19812 C 1816.81 5.19573 -0.184369 0
M  V30 19813 C 1814.5 5.0001 0.479119 0
M  V30 19814 C 1816.49 6.30006 -0.968081 0
M  V30 19815 C 1814.18 6.10322 -0.30829 0
M  V30 19816 C 1815.17 6.7518 -1.03059 0
M  V30 19817 O 1814.86 7.83373 -1.80507 0
M  V30 19818 H 1814.59 0.651051 0.181958 0
M  V30 19819 H 1817.15 2.05159 -0.0995179 0
M  V30 19820 H 1815.38 3.18823 2.18835 0
M  V30 19821 H 1817.07 3.54735 1.97276 0
M  V30 19822 H 1817.83 4.84789 -0.142908 0
M  V30 19823 H 1813.71 4.49325 1.0309 0
M  V30 19824 H 1817.26 6.80562 -1.53237 0
M  V30 19825 H 1813.15 6.44543 -0.351428 0
M  V30 19826 H 1813.92 8.00094 -1.72601 0
M  V30 19827 N 1816.58 -0.233136 1.55866 0
M  V30 19828 C 1817.53 -1.3085 1.92304 0
M  V30 19829 C 1818.53 -1.49121 0.803693 0
M  V30 19830 O 1819.73 -1.50433 0.988433 0
M  V30 19831 H 1816.11 -0.438451 0.610954 0
M  V30 19832 H 1818.08 -0.973925 2.82059 0
M  V30 19833 C 1816.83 -2.65415 2.24611 0
M  V30 19834 H 1816.15 -2.5216 3.10251 0
M  V30 19835 H 1817.59 -3.395 2.54 0
M  V30 19836 C 1816.05 -3.1955 1.0672 0
M  V30 19837 O 1816.58 -4.00405 0.322308 0
M  V30 19838 N 1814.79 -2.77764 0.854123 0
M  V30 19839 H 1814.33 -2.12122 1.46157 0
M  V30 19840 H 1814.29 -3.14329 0.0670326 0
M  V30 19841 N 1818.06 -1.49479 -0.499372 0
M  V30 19842 C 1819.03 -1.6575 -1.58302 0
M  V30 19843 C 1820.03 -0.529236 -1.51841 0
M  V30 19844 O 1821.22 -0.795721 -1.54964 0
M  V30 19845 C 1818.35 -1.65639 -2.97954 0
M  V30 19846 H 1819.54 -2.62404 -1.45203 0
M  V30 19847 H 1817.09 -1.38535 -0.723725 0
M  V30 19848 H 1817.83 -0.705752 -3.16527 0
M  V30 19849 H 1817.61 -2.47578 -3.04051 0
M  V30 19850 H 1819.1 -1.80279 -3.76682 0
M  V30 19851 N 1819.54 0.750537 -1.38581 0
M  V30 19852 C 1820.95 1.32802 -1.31227 0
M  V30 19853 C 1821.3 1.96176 0.0305372 0
M  V30 19854 O 1820.43 1.95272 0.932614 0
M  V30 19855 C 1821.02 2.41468 -2.37652 0
M  V30 19856 C 1819.58 2.94929 -2.33867 0
M  V30 19857 C 1818.73 1.68339 -2.20357 0
M  V30 19858 H 1821.68 0.549187 -1.48895 0
M  V30 19859 H 1821.7 3.21481 -2.03544 0
M  V30 19860 H 1821.21 1.95313 -3.35372 0
M  V30 19861 H 1819.31 3.45404 -1.39738 0
M  V30 19862 H 1819.43 3.491 -3.28125 0
M  V30 19863 H 1817.79 1.92082 -1.67262 0
M  V30 19864 H 1818.57 1.24258 -3.20023 0
M  V30 19865 N 1821.02 1.235 0.979051 0
M  V30 19866 C 1822.27 1.0658 1.71713 0
M  V30 19867 C 1822.59 -0.397927 1.90897 0
M  V30 19868 O 1821.86 -1.28511 1.47857 0
M  V30 19869 H 1820.44 0.391397 0.636253 0
M  V30 19870 H 1823.1 1.55239 1.17843 0
M  V30 19871 H 1822.2 1.5548 2.70615 0
M  V30 19872 N 1822.5 -1.17802 1.04693 0
M  V30 19873 C 1823.75 -1.87271 0.749172 0
M  V30 19874 C 1824.06 -1.81614 -0.726342 0
M  V30 19875 O 1825.27 -2.46506 -1.13785 0
M  V30 19876 C 1823.72 -3.35992 1.28986 0
M  V30 19877 C 1823.33 -3.50163 2.79446 0
M  V30 19878 C 1825.07 -4.10821 1.06892 0
M  V30 19879 C 1822.98 -4.92878 3.26841 0
M  V30 19880 H 1821.91 -0.701451 0.276554 0
M  V30 19881 H 1824.56 -1.33065 1.26357 0
M  V30 19882 H 1822.94 -3.89705 0.703298 0
M  V30 19883 H 1824.12 -3.06692 3.43914 0
M  V30 19884 H 1822.43 -2.88747 3.00023 0
M  V30 19885 H 1825.03 -5.16098 1.39809 0
M  V30 19886 H 1825.37 -4.163 0.00644311 0
M  V30 19887 H 1825.91 -3.633 1.62043 0
M  V30 19888 H 1822.64 -4.92572 4.32497 0
M  V30 19889 H 1822.16 -5.3704 2.67112 0
M  V30 19890 H 1823.84 -5.61624 3.21227 0
M  V30 19891 N 1823.98 -0.827251 -1.34143 0
M  V30 19892 C 1825.39 -0.475645 -1.80539 0
M  V30 19893 C 1825.74 1.00435 -1.68545 0
M  V30 19894 O 1824.86 1.78186 -1.22795 0
M  V30 19895 C 1825.46 -0.856588 -3.27793 0
M  V30 19896 C 1824.02 -0.557289 -3.72252 0
M  V30 19897 C 1823.16 -1.07118 -2.55775 0
M  V30 19898 H 1826.11 -1.01703 -1.21829 0
M  V30 19899 H 1826.14 -0.162059 -3.80155 0
M  V30 19900 H 1825.65 -1.93379 -3.36491 0
M  V30 19901 H 1823.75 0.510328 -3.69089 0
M  V30 19902 H 1823.86 -1.10438 -4.66198 0
M  V30 19903 H 1822.23 -0.492534 -2.49892 0
M  V30 19904 H 1823.01 -2.15492 -2.67242 0
M  V30 19905 N 1825.45 1.46436 -0.582609 0
M  V30 19906 C 1826.38 2.33089 0.138477 0
M  V30 19907 C 1827.36 1.45339 0.883777 0
M  V30 19908 O 1828.55 1.74156 0.859257 0
M  V30 19909 C 1825.68 3.27611 1.15276 0
M  V30 19910 C 1824.63 4.24801 0.522308 0
M  V30 19911 C 1823.96 5.0883 1.64306 0
M  V30 19912 C 1825.26 5.19496 -0.540449 0
M  V30 19913 H 1826.95 2.93629 -0.585013 0
M  V30 19914 H 1824.5 1.41196 -0.282781 0
M  V30 19915 H 1826.45 3.87087 1.66558 0
M  V30 19916 H 1825.18 2.65177 1.90653 0
M  V30 19917 H 1823.84 3.66587 0.0305728 0
M  V30 19918 H 1823.48 4.42782 2.38649 0
M  V30 19919 H 1823.18 5.74649 1.22686 0
M  V30 19920 H 1824.71 5.7117 2.15864 0
M  V30 19921 H 1826.12 5.73189 -0.112706 0
M  V30 19922 H 1824.52 5.93658 -0.876957 0
M  V30 19923 H 1825.59 4.63434 -1.42677 0
M  V30 19924 N 1826.93 0.320385 1.54309 0
M  V30 19925 C 1828.16 -0.284784 2.04628 0
M  V30 19926 C 1828.57 -1.46578 1.1963 0
M  V30 19927 O 1827.91 -1.8239 0.219023 0
M  V30 19928 C 1827.97 -0.785529 3.50813 0
M  V30 19929 C 1827.64 0.272743 4.56185 0
M  V30 19930 C 1828.64 1.10775 5.07961 0
M  V30 19931 C 1826.32 0.420018 5.00541 0
M  V30 19932 C 1828.31 2.0758 6.02652 0
M  V30 19933 C 1826 1.39148 5.95047 0
M  V30 19934 C 1827 2.21784 6.45988 0
M  V30 19935 O 1826.69 3.17281 7.38639 0
M  V30 19936 H 1826.42 -0.0629681 0.673061 0
M  V30 19937 H 1828.97 0.463698 2.00097 0
M  V30 19938 H 1827.2 -1.58487 3.52731 0
M  V30 19939 H 1828.89 -1.3087 3.84224 0
M  V30 19940 H 1829.66 1.00494 4.74474 0
M  V30 19941 H 1825.54 -0.21329 4.60506 0
M  V30 19942 H 1829.08 2.72119 6.42337 0
M  V30 19943 H 1824.98 1.49494 6.2795 0
M  V30 19944 H 1825.75 3.12483 7.56503 0
M  V30 19945 N 1828.41 -1.57525 0.0484906 0
M  V30 19946 C 1829.36 -2.11374 -0.926816 0
M  V30 19947 C 1830.33 -1.02045 -1.31058 0
M  V30 19948 O 1831.51 -1.29577 -1.40052 0
M  V30 19949 C 1828.65 -2.66107 -2.19729 0
M  V30 19950 C 1827.76 -3.89513 -1.86826 0
M  V30 19951 C 1826.9 -4.32571 -3.08312 0
M  V30 19952 C 1825.94 -5.48684 -2.71317 0
M  V30 19953 N 1825.08 -5.86808 -3.85488 0
M  V30 19954 H 1829.92 -2.94417 -0.460721 0
M  V30 19955 H 1827.45 -1.45509 -0.215789 0
M  V30 19956 H 1829.41 -2.95939 -2.94068 0
M  V30 19957 H 1828.04 -1.85865 -2.63921 0
M  V30 19958 H 1827.09 -3.66289 -1.02647 0
M  V30 19959 H 1828.4 -4.73912 -1.55592 0
M  V30 19960 H 1827.56 -4.63941 -3.90952 0
M  V30 19961 H 1826.3 -3.46978 -3.42721 0
M  V30 19962 H 1825.3 -5.16988 -1.87092 0
M  V30 19963 H 1826.53 -6.35991 -2.38102 0
M  V30 19964 H 1824.47 -5.04168 -4.19703 0
M  V30 19965 H 1824.39 -6.65892 -3.57944 0
M  V30 19966 H 1825.66 -6.22792 -4.68776 0
M  V30 19967 N 1829.89 0.224867 -1.55988 0
M  V30 19968 C 1830.83 1.27865 -1.92144 0
M  V30 19969 C 1831.8 1.46741 -0.778228 0
M  V30 19970 O 1832.99 1.60364 -1.03383 0
M  V30 19971 C 1830.13 2.62468 -2.24063 0
M  V30 19972 C 1829.24 2.51419 -3.51301 0
M  V30 19973 C 1828.38 3.78523 -3.72684 0
M  V30 19974 C 1827.42 3.62182 -4.93448 0
M  V30 19975 N 1826.55 4.81228 -5.11237 0
M  V30 19976 H 1831.39 0.96331 -2.82001 0
M  V30 19977 H 1828.93 0.464362 -1.39578 0
M  V30 19978 H 1830.89 3.40848 -2.4058 0
M  V30 19979 H 1829.52 2.92105 -1.37384 0
M  V30 19980 H 1828.57 1.64491 -3.42997 0
M  V30 19981 H 1829.88 2.35263 -4.39833 0
M  V30 19982 H 1829.04 4.65346 -3.89279 0
M  V30 19983 H 1827.78 3.976 -2.82428 0
M  V30 19984 H 1826.78 2.73743 -4.76807 0
M  V30 19985 H 1828.01 3.44579 -5.85186 0
M  V30 19986 H 1825.95 5.00625 -4.23923 0
M  V30 19987 H 1825.87 4.67787 -5.93895 0
M  V30 19988 H 1827.14 5.69487 -5.32264 0
M  V30 19989 N 1831.37 1.49742 0.491438 0
M  V30 19990 C 1832.3 1.6173 1.60993 0
M  V30 19991 C 1833.28 0.466021 1.55779 0
M  V30 19992 O 1834.46 0.682843 1.75697 0
M  V30 19993 C 1831.59 1.58109 2.99532 0
M  V30 19994 C 1830.63 2.78551 3.22973 0
M  V30 19995 S 1831.47 4.4011 3.05063 0
M  V30 19996 C 1832.62 4.3915 4.4598 0
M  V30 19997 H 1832.86 2.56345 1.50581 0
M  V30 19998 H 1830.39 1.38752 0.677301 0
M  V30 19999 H 1832.35 1.56706 3.79412 0
M  V30 20000 H 1831.01 0.64765 3.0735 0
M  V30 20001 H 1830.2 2.72264 4.24133 0
M  V30 20002 H 1829.8 2.77416 2.50831 0
M  V30 20003 H 1832.09 4.11459 5.38245 0
M  V30 20004 H 1833.04 5.40619 4.57315 0
M  V30 20005 H 1833.45 3.69107 4.27107 0
M  V30 20006 N 1832.84 -0.743177 1.38977 0
M  V30 20007 C 1833.75 -1.88767 1.39299 0
M  V30 20008 C 1834.77 -1.71587 0.288782 0
M  V30 20009 O 1835.95 -1.94331 0.52892 0
M  V30 20010 C 1833.01 -3.24263 1.22697 0
M  V30 20011 C 1832.07 -3.53895 2.43017 0
M  V30 20012 C 1831.31 -4.82925 2.27198 0
M  V30 20013 O 1831.53 -5.56056 1.27114 0
M  V30 20014 O 1830.46 -5.12271 3.16009 0
M  V30 20015 H 1834.29 -1.9145 2.35755 0
M  V30 20016 H 1831.87 -0.889881 1.20006 0
M  V30 20017 H 1833.76 -4.05251 1.1554 0
M  V30 20018 H 1832.43 -3.22368 0.293317 0
M  V30 20019 H 1831.34 -2.73026 2.5575 0
M  V30 20020 H 1832.67 -3.6056 3.35048 0
M  V30 20021 N 1834.32 -1.24018 -0.972487 0
M  V30 20022 C 1835.29 -1.02941 -2.04782 0
M  V30 20023 C 1836.29 0.0115861 -1.60796 0
M  V30 20024 O 1837.48 -0.228922 -1.72689 0
M  V30 20025 C 1834.61 -0.559246 -3.36282 0
M  V30 20026 H 1835.8 -1.98379 -2.24913 0
M  V30 20027 H 1833.35 -1.06173 -1.14704 0
M  V30 20028 H 1834.09 0.398545 -3.21842 0
M  V30 20029 H 1833.87 -1.31054 -3.6955 0
M  V30 20030 H 1835.36 -0.432669 -4.15353 0
M  V30 20031 N 1835.8 1.17245 -1.05316 0
M  V30 20032 C 1837.05 1.87813 -0.765112 0
M  V30 20033 C 1837.38 1.80907 0.706147 0
M  V30 20034 O 1836.65 1.21793 1.51647 0
M  V30 20035 C 1836.94 3.3779 -1.24779 0
M  V30 20036 C 1836.79 3.53441 -2.78208 0
M  V30 20037 C 1838.11 4.31857 -0.847805 0
M  V30 20038 H 1835.23 0.681979 -0.279415 0
M  V30 20039 H 1837.87 1.37869 -1.30737 0
M  V30 20040 H 1836.02 3.80456 -0.786487 0
M  V30 20041 H 1837.69 3.19782 -3.32472 0
M  V30 20042 H 1835.94 2.95678 -3.17423 0
M  V30 20043 H 1836.61 4.58725 -3.07043 0
M  V30 20044 H 1839.08 3.97039 -1.24496 0
M  V30 20045 H 1837.96 5.35326 -1.21313 0
M  V30 20046 H 1838.22 4.41403 0.248104 0
M  V30 20047 N 1837.28 0.834353 1.33702 0
M  V30 20048 C 1838.23 0.26233 2.29304 0
M  V30 20049 C 1839.2 -0.619326 1.54122 0
M  V30 20050 O 1840.38 -0.558551 1.82441 0
M  V30 20051 C 1837.52 -0.560341 3.4052 0
M  V30 20052 C 1836.63 0.344832 4.30622 0
M  V30 20053 C 1835.77 -0.488505 5.28949 0
M  V30 20054 C 1834.81 0.415341 6.10689 0
M  V30 20055 N 1833.94 -0.3796 7.01073 0
M  V30 20056 H 1838.78 1.08291 2.77628 0
M  V30 20057 H 1836.32 0.545497 1.36612 0
M  V30 20058 H 1838.28 -1.05274 4.03699 0
M  V30 20059 H 1836.91 -1.34593 2.93402 0
M  V30 20060 H 1835.96 0.955519 3.68204 0
M  V30 20061 H 1837.27 1.03935 4.87851 0
M  V30 20062 H 1836.43 -1.04492 5.97634 0
M  V30 20063 H 1835.17 -1.21648 4.72285 0
M  V30 20064 H 1834.17 0.983803 5.40926 0
M  V30 20065 H 1835.4 1.1416 6.69436 0
M  V30 20066 H 1833.34 -1.09103 6.46864 0
M  V30 20067 H 1833.26 0.25629 7.55565 0
M  V30 20068 H 1834.53 -0.918394 7.74071 0
M  V30 20069 N 1838.76 -1.46125 0.590367 0
M  V30 20070 C 1839.69 -2.33159 -0.126114 0
M  V30 20071 C 1840.67 -1.45806 -0.876057 0
M  V30 20072 O 1841.85 -1.7461 -0.850009 0
M  V30 20073 C 1838.98 -3.28217 -1.13537 0
M  V30 20074 C 1837.94 -4.25072 -0.499773 0
M  V30 20075 C 1837.26 -5.09694 -1.61605 0
M  V30 20076 C 1838.56 -5.19202 0.567992 0
M  V30 20077 H 1840.26 -2.93315 0.600577 0
M  V30 20078 H 1837.8 -1.41044 0.290265 0
M  V30 20079 H 1839.76 -3.87965 -1.64503 0
M  V30 20080 H 1838.48 -2.66185 -1.89244 0
M  V30 20081 H 1837.14 -3.66598 -0.0111313 0
M  V30 20082 H 1836.79 -4.44041 -2.36297 0
M  V30 20083 H 1836.49 -5.75292 -1.19637 0
M  V30 20084 H 1838.01 -5.72307 -2.12832 0
M  V30 20085 H 1839.42 -5.73121 0.143102 0
M  V30 20086 H 1837.82 -5.93184 0.908428 0
M  V30 20087 H 1838.89 -4.62671 1.45133 0
M  V30 20088 N 1840.23 -0.328564 -1.54137 0
M  V30 20089 C 1841.65 0.0239073 -1.59582 0
M  V30 20090 C 1841.85 1.50043 -1.34497 0
M  V30 20091 O 1840.91 2.25711 -1.13185 0
M  V30 20092 C 1842.22 -0.398812 -2.98044 0
M  V30 20093 C 1843.77 -0.34989 -3.11038 0
M  V30 20094 C 1844.24 -0.747848 -4.51853 0
M  V30 20095 N 1845.73 -0.701447 -4.57858 0
M  V30 20096 C 1846.47 -0.981505 -5.64937 0
M  V30 20097 N 1845.96 -1.32895 -6.79934 0
M  V30 20098 N 1847.76 -0.906735 -5.54738 0
M  V30 20099 H 1839.91 -1.29052 -1.68699 0
M  V30 20100 H 1842.17 -0.52508 -0.7893 0
M  V30 20101 H 1841.88 -1.42773 -3.21417 0
M  V30 20102 H 1841.75 0.233639 -3.76476 0
M  V30 20103 H 1844.14 0.669831 -2.87397 0
M  V30 20104 H 1844.22 -1.01734 -2.34699 0
M  V30 20105 H 1843.86 -1.76551 -4.76227 0
M  V30 20106 H 1843.79 -0.0580299 -5.26568 0
M  V30 20107 H 1846.28 -0.444963 -3.75271 0
M  V30 20108 H 1846.6 -1.52789 -7.57546 0
M  V30 20109 H 1844.94 -1.36726 -6.81418 0
M  V30 20110 H 1848.13 -0.634748 -4.63776 0
M  V30 20111 H 1848.31 -1.12835 -6.38101 0
M  V30 20112 N 1841.71 1.57497 -0.0568439 0
M  V30 20113 C 1842.99 1.84277 0.655847 0
M  V30 20114 C 1843.37 0.94638 1.88698 0
M  V30 20115 O 1842.72 0.00884889 2.28498 0
M  V30 20116 C 1842.93 3.34134 1.00775 0
M  V30 20117 C 1844.28 4.01286 1.38763 0
M  V30 20118 O 1845.3 3.38792 1.09992 0
M  V30 20119 O 1844.16 5.11482 1.92479 0
M  V30 20120 H 1841.25 0.760773 0.324275 0
M  V30 20121 H 1843.8 1.69479 -0.0866388 0
M  V30 20122 H 1842.57 3.91075 0.132718 0
M  V30 20123 H 1842.19 3.5414 1.80749 0
M  V30 20124 N 1843.19 -0.216591 1.56105 0
M  V30 20125 C 1844.12 -1.27155 1.95841 0
M  V30 20126 C 1845.1 -1.48626 0.827313 0
M  V30 20127 O 1846.29 -1.60725 1.09 0
M  V30 20128 C 1843.42 -2.62032 2.27939 0
M  V30 20129 C 1842.37 -2.55211 3.43586 0
M  V30 20130 C 1841.7 -3.94163 3.61303 0
M  V30 20131 C 1843 -2.09566 4.78413 0
M  V30 20132 H 1844.69 -0.941435 2.84214 0
M  V30 20133 H 1842.24 -0.451427 1.36741 0
M  V30 20134 H 1844.19 -3.35997 2.5433 0
M  V30 20135 H 1842.91 -2.96742 1.36426 0
M  V30 20136 H 1841.57 -1.83703 3.17252 0
M  V30 20137 H 1841.22 -4.26188 2.67156 0
M  V30 20138 H 1840.92 -3.90479 4.3909 0
M  V30 20139 H 1842.44 -4.69782 3.90047 0
M  V30 20140 H 1843.86 -2.73277 5.03977 0
M  V30 20141 H 1842.26 -2.16931 5.59518 0
M  V30 20142 H 1843.33 -1.0481 4.73437 0
M  V30 20143 N 1844.67 -1.5 -0.48349 0
M  V30 20144 C 1845.62 -1.67957 -1.58301 0
M  V30 20145 C 1846.59 -0.520895 -1.57721 0
M  V30 20146 O 1847.77 -0.750008 -1.75441 0
M  V30 20147 C 1844.91 -1.76832 -2.96352 0
M  V30 20148 C 1844.02 -3.04119 -3.06815 0
M  V30 20149 C 1843.16 -3.03865 -4.35706 0
M  V30 20150 C 1842.2 -4.25658 -4.39865 0
M  V30 20151 N 1841.33 -4.23214 -5.60209 0
M  V30 20152 H 1846.17 -2.61832 -1.42296 0
M  V30 20153 H 1843.71 -1.29804 -0.692045 0
M  V30 20154 H 1845.67 -1.79958 -3.76392 0
M  V30 20155 H 1844.3 -0.864074 -3.1102 0
M  V30 20156 H 1843.35 -3.10523 -2.19727 0
M  V30 20157 H 1844.66 -3.94106 -3.05748 0
M  V30 20158 H 1843.82 -3.05652 -5.24082 0
M  V30 20159 H 1842.56 -2.11687 -4.39363 0
M  V30 20160 H 1841.56 -4.24097 -3.49888 0
M  V30 20161 H 1842.79 -5.19049 -4.37909 0
M  V30 20162 H 1840.73 -3.33883 -5.64675 0
M  V30 20163 H 1840.65 -5.06956 -5.60832 0
M  V30 20164 H 1841.92 -4.29129 -6.50744 0
M  V30 20165 N 1846.15 0.735796 -1.39369 0
M  V30 20166 C 1847.37 1.52504 -1.39822 0
M  V30 20167 C 1847.79 1.88799 0.00747346 0
M  V30 20168 O 1847.15 1.54044 0.978611 0
M  V30 20169 C 1847.2 2.8131 -2.27039 0
M  V30 20170 O 1846.92 2.46557 -3.62134 0
M  V30 20171 C 1848.42 3.75343 -2.35866 0
M  V30 20172 H 1845.64 0.471306 -0.47761 0
M  V30 20173 H 1848.18 0.909257 -1.83174 0
M  V30 20174 H 1846.34 3.39222 -1.87102 0
M  V30 20175 H 1846.75 3.29294 -4.08247 0
M  V30 20176 H 1848.23 4.6262 -3.01142 0
M  V30 20177 H 1848.7 4.17036 -1.37758 0
M  V30 20178 H 1849.31 3.2335 -2.7627 0
M  V30 20179 N 1847.63 1.24532 0.965897 0
M  V30 20180 C 1848.86 1.11157 1.74148 0
M  V30 20181 C 1849.26 -0.338542 1.86147 0
M  V30 20182 O 1848.61 -1.2453 1.35048 0
M  V30 20183 C 1848.67 1.67951 3.17856 0
M  V30 20184 C 1848.33 3.16851 3.29324 0
M  V30 20185 C 1849.33 4.13979 3.14512 0
M  V30 20186 C 1847.01 3.56845 3.53507 0
M  V30 20187 C 1849.01 5.49082 3.2371 0
M  V30 20188 C 1846.7 4.92089 3.62342 0
M  V30 20189 C 1847.69 5.88016 3.47456 0
M  V30 20190 O 1847.38 7.20801 3.55952 0
M  V30 20191 H 1847.11 0.388973 0.55288 0
M  V30 20192 H 1849.67 1.65155 1.22119 0
M  V30 20193 H 1847.9 1.08389 3.71199 0
M  V30 20194 H 1849.59 1.49839 3.77231 0
M  V30 20195 H 1850.35 3.84422 2.95711 0
M  V30 20196 H 1846.23 2.82683 3.64159 0
M  V30 20197 H 1849.78 6.23937 3.12008 0
M  V30 20198 H 1845.67 5.21316 3.80657 0
M  V30 20199 H 1846.44 7.28746 3.72655 0
M  V30 20200 N 1849.1 -1.16685 1.05936 0
M  V30 20201 C 1850.33 -1.91576 0.794558 0
M  V30 20202 C 1850.75 -1.76706 -0.644718 0
M  V30 20203 O 1850.11 -1.0899 -1.44882 0
M  V30 20204 C 1850.16 -3.40417 1.18947 0
M  V30 20205 O 1849.26 -4.11109 0.326091 0
M  V30 20206 H 1848.6 -0.596983 0.290702 0
M  V30 20207 H 1851.13 -1.47856 1.4142 0
M  V30 20208 H 1851.14 -3.91178 1.15947 0
M  V30 20209 H 1849.82 -3.5056 2.23786 0
M  V30 20210 H 1848.4 -3.70557 0.417347 0
M  V30 20211 N 1850.58 -0.841432 -1.33258 0
M  V30 20212 C 1851.83 -0.439027 -1.97991 0
M  V30 20213 C 1852.16 0.999767 -1.66488 0
M  V30 20214 O 1851.44 1.69938 -0.94612 0
M  V30 20215 C 1851.72 -0.663137 -3.53941 0
M  V30 20216 C 1851.57 -2.14939 -3.95122 0
M  V30 20217 C 1852.89 -0.11094 -4.3996 0
M  V30 20218 H 1850.01 -0.160987 -0.719203 0
M  V30 20219 H 1852.65 -1.05742 -1.57856 0
M  V30 20220 H 1850.8 -0.136765 -3.88259 0
M  V30 20221 H 1852.47 -2.74082 -3.71048 0
M  V30 20222 H 1850.72 -2.63293 -3.4476 0
M  V30 20223 H 1851.39 -2.25694 -5.03752 0
M  V30 20224 H 1853.86 -0.560898 -4.12302 0
M  V30 20225 H 1852.74 -0.297416 -5.48094 0
M  V30 20226 H 1853 0.985446 -4.30977 0
M  V30 20227 N 1852.06 1.4581 -0.598108 0
M  V30 20228 C 1852.99 2.28611 0.164271 0
M  V30 20229 C 1854 1.39406 0.840827 0
M  V30 20230 O 1855.19 1.63867 0.707805 0
M  V30 20231 C 1852.29 3.14883 1.25306 0
M  V30 20232 C 1851.47 4.32308 0.66546 0
M  V30 20233 C 1850.53 4.99862 1.64392 0
M  V30 20234 O 1849.55 5.56963 1.17393 0
M  V30 20235 N 1850.75 4.98278 2.97825 0
M  V30 20236 H 1853.52 2.94681 -0.546181 0
M  V30 20237 H 1851.08 1.55893 -0.436933 0
M  V30 20238 H 1853.07 3.5694 1.90724 0
M  V30 20239 H 1851.64 2.50785 1.86616 0
M  V30 20240 H 1850.86 3.93848 -0.166567 0
M  V30 20241 H 1852.15 5.08171 0.252938 0
M  V30 20242 H 1851.55 4.53159 3.38619 0
M  V30 20243 H 1850.1 5.44228 3.58691 0
M  V30 20244 N 1853.54 0.336733 1.53961 0
M  V30 20245 C 1854.47 -0.515664 2.27735 0
M  V30 20246 C 1855.45 -1.10835 1.29033 0
M  V30 20247 O 1856.63 -1.13102 1.57866 0
M  V30 20248 C 1853.76 -1.67015 3.04505 0
M  V30 20249 C 1852.72 -1.20613 4.10654 0
M  V30 20250 C 1852.04 -2.44861 4.75339 0
M  V30 20251 C 1853.34 -0.311507 5.2137 0
M  V30 20252 H 1855.04 0.0997513 2.99234 0
M  V30 20253 H 1852.58 0.0494157 1.43915 0
M  V30 20254 H 1854.54 -2.27286 3.54851 0
M  V30 20255 H 1853.26 -2.31236 2.30646 0
M  V30 20256 H 1851.92 -0.62628 3.61211 0
M  V30 20257 H 1851.57 -3.07474 3.98081 0
M  V30 20258 H 1851.27 -2.14498 5.47051 0
M  V30 20259 H 1852.79 -3.0587 5.28466 0
M  V30 20260 H 1854.21 -0.820868 5.67393 0
M  V30 20261 H 1852.6 -0.100073 6.00017 0
M  V30 20262 H 1853.67 0.654181 4.80467 0
M  V30 20263 N 1855.02 -1.57465 0.0651956 0
M  V30 20264 C 1855.96 -2.12345 -0.904345 0
M  V30 20265 C 1856.93 -1.03429 -1.29968 0
M  V30 20266 O 1858.12 -1.31055 -1.38669 0
M  V30 20267 C 1855.26 -2.68423 -2.16895 0
M  V30 20268 C 1854.37 -3.91472 -1.82684 0
M  V30 20269 C 1853.51 -4.35816 -3.03706 0
M  V30 20270 C 1852.54 -5.5153 -2.65482 0
M  V30 20271 N 1851.68 -5.90863 -3.79242 0
M  V30 20272 H 1856.52 -2.94889 -0.429468 0
M  V30 20273 H 1854.06 -1.45729 -0.200344 0
M  V30 20274 H 1856.02 -2.99041 -2.90913 0
M  V30 20275 H 1854.65 -1.88654 -2.61934 0
M  V30 20276 H 1853.7 -3.67357 -0.987564 0
M  V30 20277 H 1855.01 -4.75536 -1.50557 0
M  V30 20278 H 1854.16 -4.68062 -3.86009 0
M  V30 20279 H 1852.9 -3.50593 -3.39022 0
M  V30 20280 H 1851.91 -5.18943 -1.81598 0
M  V30 20281 H 1853.13 -6.3848 -2.31343 0
M  V30 20282 H 1851.08 -5.08591 -4.14332 0
M  V30 20283 H 1851 -6.69651 -3.50861 0
M  V30 20284 H 1852.26 -6.27729 -4.62144 0
M  V30 20285 N 1856.49 0.20831 -1.56217 0
M  V30 20286 C 1857.42 1.26115 -1.96513 0
M  V30 20287 C 1858.4 1.48185 -0.835183 0
M  V30 20288 O 1859.59 1.60145 -1.09851 0
M  V30 20289 C 1856.72 2.6082 -2.29326 0
M  V30 20290 C 1855.67 2.53385 -3.44935 0
M  V30 20291 C 1855 3.92241 -3.63388 0
M  V30 20292 C 1856.3 2.07026 -4.79518 0
M  V30 20293 H 1857.99 0.92635 -2.84709 0
M  V30 20294 H 1855.54 0.444169 -1.36979 0
M  V30 20295 H 1857.49 3.34644 -2.56109 0
M  V30 20296 H 1856.22 2.96014 -1.37997 0
M  V30 20297 H 1854.88 1.82018 -3.18222 0
M  V30 20298 H 1854.52 4.24766 -2.69413 0
M  V30 20299 H 1854.22 3.88145 -4.41154 0
M  V30 20300 H 1855.75 4.67707 -3.92533 0
M  V30 20301 H 1857.16 2.70601 -5.05419 0
M  V30 20302 H 1855.56 2.13961 -5.60661 0
M  V30 20303 H 1856.63 1.02298 -4.73986 0
M  V30 20304 N 1857.97 1.50255 0.475528 0
M  V30 20305 C 1859.2 1.64532 1.24951 0
M  V30 20306 C 1859.61 0.326223 1.86366 0
M  V30 20307 O 1858.95 -0.701313 1.69786 0
M  V30 20308 C 1859.01 2.67528 2.40143 0
M  V30 20309 C 1858.68 4.11204 1.99399 0
M  V30 20310 C 1859.68 4.97213 1.51906 0
M  V30 20311 C 1857.36 4.57094 2.08256 0
M  V30 20312 C 1859.35 6.27158 1.13805 0
M  V30 20313 C 1857.04 5.87046 1.69766 0
M  V30 20314 C 1858.04 6.71903 1.22618 0
M  V30 20315 O 1857.73 7.9943 0.846604 0
M  V30 20316 H 1857.46 0.556201 0.384209 0
M  V30 20317 H 1860.01 1.972 0.574555 0
M  V30 20318 H 1858.24 2.30094 3.10795 0
M  V30 20319 H 1859.93 2.71072 3.02117 0
M  V30 20320 H 1860.7 4.62977 1.44489 0
M  V30 20321 H 1856.58 3.91194 2.43903 0
M  V30 20322 H 1860.12 6.93345 0.769334 0
M  V30 20323 H 1856.02 6.20804 1.76841 0
M  V30 20324 H 1856.79 8.12662 0.975845 0
M  V30 20325 N 1859.45 -0.728395 1.39758 0
M  V30 20326 C 1860.73 -1.48036 1.27846 0
M  V30 20327 C 1861.11 -2.10818 -0.108996 0
M  V30 20328 O 1860.45 -1.99125 -1.12078 0
M  V30 20329 C 1860.66 -2.52644 2.40774 0
M  V30 20330 C 1862.01 -3.1884 2.80404 0
M  V30 20331 O 1863.04 -2.6296 2.40272 0
M  V30 20332 O 1861.9 -4.19971 3.49696 0
M  V30 20333 H 1858.99 -0.657688 0.501374 0
M  V30 20334 H 1861.54 -0.761658 1.51647 0
M  V30 20335 H 1860.31 -2.04678 3.335 0
M  V30 20336 H 1859.93 -3.32066 2.18674 0
M  V30 20337 N 1860.93 -1.25042 -0.959279 0
M  V30 20338 C 1862.2 -1.00297 -1.67928 0
M  V30 20339 C 1862.58 0.47221 -2.05751 0
M  V30 20340 O 1861.93 1.44849 -1.76723 0
M  V30 20341 C 1862.14 -1.93416 -2.90502 0
M  V30 20342 C 1863.49 -2.20992 -3.62557 0
M  V30 20343 O 1864.51 -1.91136 -3.00575 0
M  V30 20344 O 1863.37 -2.71735 -4.74154 0
M  V30 20345 H 1860.47 -0.379984 -0.734535 0
M  V30 20346 H 1863.01 -1.36177 -1.01262 0
M  V30 20347 H 1861.79 -2.93045 -2.59308 0
M  V30 20348 H 1861.41 -1.57904 -3.649 0
M  V30 20349 N 1862.41 1.16121 -1.06553 0
M  V30 20350 C 1863.35 2.20597 -0.678659 0
M  V30 20351 C 1864.32 1.6287 0.325988 0
M  V30 20352 O 1865.51 1.89593 0.214278 0
M  V30 20353 C 1862.65 3.45021 -0.0740442 0
M  V30 20354 C 1861.76 4.16981 -1.12919 0
M  V30 20355 C 1860.9 5.28931 -0.490435 0
M  V30 20356 C 1859.94 5.92697 -1.52893 0
M  V30 20357 N 1859.07 6.96134 -0.913346 0
M  V30 20358 H 1863.91 2.53041 -1.57398 0
M  V30 20359 H 1861.45 1.24282 -0.786923 0
M  V30 20360 H 1863.41 4.16162 0.294059 0
M  V30 20361 H 1862.04 3.13118 0.784671 0
M  V30 20362 H 1861.09 3.44417 -1.61496 0
M  V30 20363 H 1862.4 4.60495 -1.91693 0
M  V30 20364 H 1861.56 6.0666 -0.0695112 0
M  V30 20365 H 1860.29 4.86588 0.329154 0
M  V30 20366 H 1859.3 5.13688 -1.95972 0
M  V30 20367 H 1860.52 6.37119 -2.35066 0
M  V30 20368 H 1858.47 6.559 -0.114515 0
M  V30 20369 H 1858.39 7.38032 -1.63843 0
M  V30 20370 H 1859.66 7.77779 -0.517655 0
M  V30 20371 N 1863.88 0.848487 1.3281 0
M  V30 20372 C 1864.83 0.277328 2.30941 0
M  V30 20373 C 1865.83 -0.595938 1.58572 0
M  V30 20374 O 1867.03 -0.484428 1.73359 0
M  V30 20375 H 1863.41 0.0709686 0.748644 0
M  V30 20376 H 1865.38 1.11932 2.76611 0
M  V30 20377 C 1864.13 -0.524705 3.43718 0
M  V30 20378 H 1863.45 0.137959 3.99562 0
M  V30 20379 H 1864.89 -0.890032 4.14553 0
M  V30 20380 C 1863.35 -1.70746 2.90426 0
M  V30 20381 O 1863.88 -2.80641 2.87408 0
M  V30 20382 N 1862.09 -1.5325 2.46907 0
M  V30 20383 H 1861.63 -0.638526 2.49561 0
M  V30 20384 H 1861.59 -2.32532 2.11603 0
M  V30 20385 N 1865.36 -1.4549 0.605832 0
M  V30 20386 C 1866.33 -2.28964 -0.104089 0
M  V30 20387 C 1867.33 -1.39671 -0.796791 0
M  V30 20388 O 1868.52 -1.6181 -0.645221 0
M  V30 20389 C 1865.65 -3.20647 -1.1575 0
M  V30 20390 H 1866.84 -2.93213 0.629776 0
M  V30 20391 H 1864.39 -1.51983 0.3648 0
M  V30 20392 H 1865.13 -2.61194 -1.92219 0
M  V30 20393 H 1864.91 -3.86419 -0.665025 0
M  V30 20394 H 1866.4 -3.83416 -1.65474 0
M  V30 20395 N 1866.84 -0.344893 -1.5378 0
M  V30 20396 C 1868.07 0.255228 -2.05824 0
M  V30 20397 C 1868.49 1.43329 -1.21812 0
M  V30 20398 O 1867.85 1.79807 -0.232191 0
M  V30 20399 C 1867.9 0.646906 -3.5475 0
M  V30 20400 O 1867 1.74677 -3.7358 0
M  V30 20401 H 1866.34 0.0420518 -0.662667 0
M  V30 20402 H 1868.87 -0.499498 -1.98409 0
M  V30 20403 H 1868.88 0.923686 -3.97407 0
M  V30 20404 H 1867.56 -0.214619 -4.15346 0
M  V30 20405 H 1866.13 1.46715 -3.42825 0
M  V30 20406 N 1868.32 1.57428 -0.0735454 0
M  V30 20407 C 1869.25 2.15849 0.890584 0
M  V30 20408 C 1870.23 1.086 1.3092 0
M  V30 20409 O 1871.41 1.36643 1.37994 0
M  V30 20410 C 1868.54 2.72153 2.15755 0
M  V30 20411 C 1867.5 3.84584 1.87827 0
M  V30 20412 C 1866.82 4.27498 3.21169 0
M  V30 20413 C 1868.12 5.08746 1.18217 0
M  V30 20414 H 1869.82 2.96663 0.403904 0
M  V30 20415 H 1867.36 1.42703 0.192836 0
M  V30 20416 H 1869.32 3.11668 2.83621 0
M  V30 20417 H 1868.04 1.88562 2.66668 0
M  V30 20418 H 1866.7 3.45575 1.22366 0
M  V30 20419 H 1866.35 3.40827 3.69927 0
M  V30 20420 H 1866.05 5.03288 3.03273 0
M  V30 20421 H 1867.57 4.69631 3.9023 0
M  V30 20422 H 1868.99 5.45566 1.76155 0
M  V30 20423 H 1867.38 5.89825 1.10573 0
M  V30 20424 H 1868.45 4.84631 0.161525 0
M  V30 20425 N 1869.8 -0.200022 1.56326 0
M  V30 20426 C 1871.04 -0.919355 1.79979 0
M  V30 20427 C 1871.37 -1.83997 0.645767 0
M  V30 20428 O 1870.64 -1.92994 -0.336186 0
M  V30 20429 H 1869.22 -0.342469 0.66387 0
M  V30 20430 H 1871.88 -0.206713 1.93801 0
M  V30 20431 H 1870.97 -1.51341 2.72951 0
M  V30 20432 N 1871.27 -1.50505 -0.467553 0
M  V30 20433 C 1872.2 -1.72558 -1.57309 0
M  V30 20434 C 1873.19 -0.574619 -1.601 0
M  V30 20435 O 1874.37 -0.814135 -1.76311 0
M  V30 20436 C 1871.5 -1.82296 -2.9561 0
M  V30 20437 C 1870.45 -2.97513 -3.07685 0
M  V30 20438 C 1869.78 -2.92398 -4.47669 0
M  V30 20439 C 1871.08 -4.37968 -2.84573 0
M  V30 20440 H 1872.77 -2.65122 -1.39107 0
M  V30 20441 H 1870.32 -1.2758 -0.667776 0
M  V30 20442 H 1872.27 -1.96308 -3.72882 0
M  V30 20443 H 1871 -0.863562 -3.14976 0
M  V30 20444 H 1869.66 -2.83157 -2.32847 0
M  V30 20445 H 1869.3 -1.94297 -4.63959 0
M  V30 20446 H 1869 -3.69749 -4.56683 0
M  V30 20447 H 1870.53 -3.08464 -5.26956 0
M  V30 20448 H 1871.94 -4.52831 -3.51593 0
M  V30 20449 H 1870.34 -5.16796 -3.05028 0
M  V30 20450 H 1871.41 -4.50093 -1.80402 0
M  V30 20451 N 1872.75 0.720973 -1.40142 0
M  V30 20452 C 1874 1.48297 -1.38332 0
M  V30 20453 C 1874.33 1.94193 0.0162191 0
M  V30 20454 O 1873.61 1.67781 0.983853 0
M  V30 20455 C 1873.89 2.71283 -2.36807 0
M  V30 20456 C 1873.74 2.31316 -3.85763 0
M  V30 20457 C 1875.06 3.73426 -2.32897 0
M  V30 20458 H 1872.18 0.537922 -0.503794 0
M  V30 20459 H 1874.82 0.823265 -1.71238 0
M  V30 20460 H 1872.97 3.27571 -2.08877 0
M  V30 20461 H 1874.64 1.80551 -4.24499 0
M  V30 20462 H 1872.89 1.63379 -4.01858 0
M  V30 20463 H 1873.56 3.19449 -4.50174 0
M  V30 20464 H 1876.03 3.26755 -2.57624 0
M  V30 20465 H 1874.91 4.57124 -3.03856 0
M  V30 20466 H 1875.17 4.21343 -1.33876 0
M  V30 20467 N 1874.23 1.25549 0.952634 0
M  V30 20468 C 1875.48 1.10198 1.69413 0
M  V30 20469 C 1875.8 -0.357345 1.91698 0
M  V30 20470 O 1875.07 -1.25345 1.5055 0
M  V30 20471 H 1873.65 0.404804 0.627808 0
M  V30 20472 H 1876.31 1.57703 1.14524 0
M  V30 20473 H 1875.41 1.61185 2.67256 0
M  V30 20474 N 1875.71 -1.15554 1.07168 0
M  V30 20475 C 1876.94 -1.90182 0.81477 0
M  V30 20476 C 1877.35 -1.77914 -0.631829 0
M  V30 20477 O 1876.71 -1.1298 -1.43324 0
M  V30 20478 C 1876.76 -3.40593 1.21155 0
M  V30 20479 O 1876.48 -3.52504 2.60139 0
M  V30 20480 C 1877.98 -4.32248 0.983675 0
M  V30 20481 H 1875.2 -0.602804 0.294735 0
M  V30 20482 H 1877.75 -1.46419 1.42764 0
M  V30 20483 H 1875.9 -3.82026 0.643041 0
M  V30 20484 H 1876.31 -4.45839 2.76275 0
M  V30 20485 H 1877.79 -5.3621 1.31084 0
M  V30 20486 H 1878.27 -4.39127 -0.0801022 0
M  V30 20487 H 1878.87 -3.96556 1.537 0
M  V30 20488 N 1877.19 -0.855519 -1.32358 0
M  V30 20489 C 1878.14 -0.27253 -2.26365 0
M  V30 20490 C 1879.12 0.582114 -1.50001 0
M  V30 20491 O 1880.31 0.431356 -1.71663 0
M  V30 20492 C 1877.44 0.53739 -3.39068 0
M  V30 20493 C 1876.53 -0.329689 -4.22817 0
M  V30 20494 N 1876.92 -1.41635 -4.85565 0
M  V30 20495 C 1875.22 -0.11959 -4.4584 0
M  V30 20496 C 1875.92 -1.94986 -5.48047 0
M  V30 20497 N 1874.89 -1.2489 -5.29059 0
M  V30 20498 H 1878.7 -1.10327 -2.72406 0
M  V30 20499 H 1876.21 -0.701726 -1.46457 0
M  V30 20500 H 1878.21 0.971464 -4.05423 0
M  V30 20501 H 1876.87 1.36591 -2.94572 0
M  V30 20502 H 1877.88 -1.79928 -4.8564 0
M  V30 20503 H 1874.56 0.674149 -4.12021 0
M  V30 20504 H 1875.95 -2.86078 -6.07955 0
M  V30 20505 N 1878.67 1.45167 -0.61354 0
M  V30 20506 C 1879.61 2.32319 0.114222 0
M  V30 20507 C 1880.61 1.4632 0.853634 0
M  V30 20508 O 1881.81 1.62769 0.768525 0
M  V30 20509 H 1878.19 0.749935 0.0556921 0
M  V30 20510 H 1880.16 2.91474 -0.639175 0
M  V30 20511 C 1878.91 3.30035 1.09417 0
M  V30 20512 H 1878.23 3.96209 0.534632 0
M  V30 20513 H 1879.67 3.93734 1.5732 0
M  V30 20514 C 1878.13 2.57648 2.1707 0
M  V30 20515 O 1878.66 2.36227 3.24899 0
M  V30 20516 N 1876.87 2.17682 1.92517 0
M  V30 20517 H 1876.41 2.35303 1.04834 0
M  V30 20518 H 1876.37 1.69573 2.6475 0
M  V30 20519 N 1880.14 0.353044 1.53595 0
M  V30 20520 C 1881.39 -0.240073 2.00669 0
M  V30 20521 C 1881.71 -1.50303 1.24234 0
M  V30 20522 O 1880.98 -1.92709 0.352118 0
M  V30 20523 H 1879.56 -0.0917016 0.74135 0
M  V30 20524 H 1882.22 0.47639 1.88988 0
M  V30 20525 H 1881.32 -0.475869 3.08451 0
M  V30 20526 N 1881.62 -1.57387 0.0818932 0
M  V30 20527 C 1882.55 -2.10294 -0.911539 0
M  V30 20528 C 1883.57 -1.03726 -1.25478 0
M  V30 20529 O 1884.76 -1.31212 -1.2102 0
M  V30 20530 C 1881.86 -2.55676 -2.22448 0
M  V30 20531 C 1881.03 -3.8593 -2.05857 0
M  V30 20532 C 1880.09 -4.17297 -3.20545 0
M  V30 20533 O 1879.11 -4.86734 -2.9509 0
M  V30 20534 N 1880.32 -3.71647 -4.45936 0
M  V30 20535 H 1883.08 -2.96153 -0.459757 0
M  V30 20536 H 1880.64 -1.61568 -0.103568 0
M  V30 20537 H 1882.63 -2.73715 -2.98098 0
M  V30 20538 H 1881.2 -1.749 -2.59092 0
M  V30 20539 H 1880.42 -3.7717 -1.14615 0
M  V30 20540 H 1881.71 -4.71169 -1.92034 0
M  V30 20541 H 1881.11 -3.15571 -4.69501 0
M  V30 20542 H 1879.67 -3.94866 -5.18579 0
M  V30 20543 N 1883.1 0.191729 -1.56429 0
M  V30 20544 C 1884.35 0.909797 -1.80016 0
M  V30 20545 C 1884.66 1.84283 -0.65569 0
M  V30 20546 O 1885.87 2.60176 -0.775941 0
M  V30 20547 C 1884.32 1.66819 -3.18904 0
M  V30 20548 C 1883.93 0.779817 -4.41161 0
M  V30 20549 C 1885.68 2.37569 -3.51797 0
M  V30 20550 C 1883.58 1.53727 -5.71071 0
M  V30 20551 H 1882.51 0.343463 -0.67123 0
M  V30 20552 H 1885.16 0.163022 -1.82774 0
M  V30 20553 H 1883.55 2.45897 -3.10404 0
M  V30 20554 H 1884.72 0.0274524 -4.60792 0
M  V30 20555 H 1883.03 0.18298 -4.15998 0
M  V30 20556 H 1885.63 2.94796 -4.46093 0
M  V30 20557 H 1885.97 3.11921 -2.75701 0
M  V30 20558 H 1886.51 1.65454 -3.61759 0
M  V30 20559 H 1883.25 0.836475 -6.50141 0
M  V30 20560 H 1882.77 2.26348 -5.55452 0
M  V30 20561 H 1884.45 2.09018 -6.12308 0
M  V30 20562 N 1884.58 1.50751 0.459565 0
M  V30 20563 C 1885.83 1.61995 1.20839 0
M  V30 20564 C 1886.15 0.327782 1.92225 0
M  V30 20565 O 1885.42 -0.655341 1.84613 0
M  V30 20566 H 1884 0.596972 0.449036 0
M  V30 20567 H 1886.66 1.87582 0.52906 0
M  V30 20568 H 1885.75 2.43678 1.95006 0
M  V30 20569 N 1886.06 -0.713531 1.40522 0
M  V30 20570 C 1887 -1.84894 1.41127 0
M  V30 20571 C 1888 -1.66873 0.291521 0
M  V30 20572 O 1889.2 -1.73952 0.46266 0
M  V30 20573 H 1885.58 -0.608985 0.441182 0
M  V30 20574 H 1887.55 -1.815 2.36855 0
M  V30 20575 C 1886.3 -3.22774 1.29276 0
M  V30 20576 H 1885.62 -3.37248 2.14718 0
M  V30 20577 H 1887.06 -4.02349 1.33759 0
M  V30 20578 C 1885.52 -3.369 0.00320525 0
M  V30 20579 O 1886.05 -3.90086 -0.958942 0
M  V30 20580 N 1884.26 -2.90523 -0.0669733 0
M  V30 20581 H 1883.8 -2.47428 0.716722 0
M  V30 20582 H 1883.76 -3.00353 -0.929262 0
M  V30 20583 N 1887.53 -1.26053 -0.945962 0
M  V30 20584 C 1888.81 -1.02072 -1.66855 0
M  V30 20585 C 1889.19 0.45036 -2.0624 0
M  V30 20586 O 1888.54 1.42966 -1.7825 0
M  V30 20587 C 1888.75 -1.96486 -2.88434 0
M  V30 20588 C 1890.1 -2.24825 -3.60193 0
M  V30 20589 O 1891.12 -1.94314 -2.98531 0
M  V30 20590 O 1889.98 -2.76749 -4.71245 0
M  V30 20591 H 1887.07 -0.387753 -0.730463 0
M  V30 20592 H 1889.62 -1.37243 -0.998117 0
M  V30 20593 H 1888.39 -2.95779 -2.56185 0
M  V30 20594 H 1888.01 -1.61765 -3.63205 0
M  V30 20595 N 1889.01 1.14984 -1.07779 0
M  V30 20596 C 1890.42 1.67453 -0.825611 0
M  V30 20597 C 1890.77 1.85168 0.648631 0
M  V30 20598 O 1889.9 1.55817 1.50167 0
M  V30 20599 C 1890.49 3.04172 -1.49214 0
M  V30 20600 C 1889.05 3.53701 -1.28736 0
M  V30 20601 C 1888.2 2.29324 -1.55903 0
M  V30 20602 H 1891.15 0.99138 -1.23925 0
M  V30 20603 H 1891.17 3.69315 -0.915779 0
M  V30 20604 H 1890.68 2.91247 -2.56509 0
M  V30 20605 H 1888.78 3.71859 -0.234821 0
M  V30 20606 H 1888.9 4.34871 -2.01056 0
M  V30 20607 H 1887.26 2.35081 -0.980257 0
M  V30 20608 H 1888.04 2.18982 -2.6439 0
M  V30 20609 N 1890.49 0.862526 1.31902 0
M  V30 20610 C 1891.44 0.301807 2.30634 0
M  V30 20611 C 1892.43 -0.579086 1.59195 0
M  V30 20612 O 1893.64 -0.466014 1.73863 0
M  V30 20613 H 1890.01 0.078905 0.747849 0
M  V30 20614 H 1891.98 1.1486 2.75408 0
M  V30 20615 C 1890.73 -0.48822 3.44255 0
M  V30 20616 H 1890.06 0.18033 3.99393 0
M  V30 20617 H 1891.5 -0.846013 4.15474 0
M  V30 20618 C 1889.95 -1.67656 2.92221 0
M  V30 20619 O 1890.48 -2.77577 2.90369 0
M  V30 20620 N 1888.69 -1.50622 2.48518 0
M  V30 20621 H 1888.24 -0.612021 2.50224 0
M  V30 20622 H 1888.2 -2.30275 2.14058 0
M  V30 20623 N 1891.97 -1.4484 0.62123 0
M  V30 20624 C 1893.38 -1.57016 0.286009 0
M  V30 20625 C 1893.58 -1.6104 -1.21113 0
M  V30 20626 O 1892.64 -1.54807 -1.99477 0
M  V30 20627 C 1893.95 -2.84652 0.969209 0
M  V30 20628 C 1895.5 -2.98349 0.946414 0
M  V30 20629 C 1895.98 -4.28773 1.60989 0
M  V30 20630 N 1897.47 -4.35564 1.57601 0
M  V30 20631 C 1898.2 -5.3518 2.0584 0
M  V30 20632 N 1897.7 -6.41256 2.62226 0
M  V30 20633 N 1899.49 -5.26625 1.96527 0
M  V30 20634 H 1891.64 -1.40471 1.59316 0
M  V30 20635 H 1893.91 -0.672493 0.668174 0
M  V30 20636 H 1893.61 -2.87629 2.02392 0
M  V30 20637 H 1893.49 -3.7386 0.500859 0
M  V30 20638 H 1895.87 -2.94931 -0.0997935 0
M  V30 20639 H 1895.95 -2.10516 1.45316 0
M  V30 20640 H 1895.6 -4.3295 2.65549 0
M  V30 20641 H 1895.53 -5.15447 1.07805 0
M  V30 20642 H 1898.02 -3.59519 1.16424 0
M  V30 20643 H 1898.33 -7.13536 2.96792 0
M  V30 20644 H 1896.68 -6.41969 2.66272 0
M  V30 20645 H 1899.87 -4.42664 1.52206 0
M  V30 20646 H 1900.04 -6.04107 2.34434 0
M  V30 20647 N 1893.45 -0.361184 -1.53405 0
M  V30 20648 C 1894.72 0.286047 -1.93497 0
M  V30 20649 C 1895.1 1.66764 -1.29434 0
M  V30 20650 O 1894.45 2.23989 -0.451785 0
M  V30 20651 C 1894.66 0.340663 -3.47333 0
M  V30 20652 C 1896.01 0.58311 -4.20577 0
M  V30 20653 O 1897.03 0.422054 -3.53691 0
M  V30 20654 O 1895.89 0.896383 -5.39099 0
M  V30 20655 H 1892.99 0.17059 -0.809215 0
M  V30 20656 H 1895.53 -0.413648 -1.64581 0
M  V30 20657 H 1894.3 -0.628175 -3.86225 0
M  V30 20658 H 1893.93 1.08643 -3.82469 0
M  V30 20659 N 1894.92 1.57341 -0.0902386 0
M  V30 20660 C 1896.17 1.93352 0.574273 0
M  V30 20661 C 1896.49 0.97374 1.6964 0
M  V30 20662 O 1897.69 1.22737 2.42173 0
M  V30 20663 C 1896.15 3.43536 1.07289 0
M  V30 20664 C 1895.76 4.47996 -0.0192163 0
M  V30 20665 C 1897.5 3.88516 1.71042 0
M  V30 20666 C 1895.41 5.89329 0.494487 0
M  V30 20667 H 1894.34 0.721711 0.218287 0
M  V30 20668 H 1896.99 1.82753 -0.165456 0
M  V30 20669 H 1895.37 3.49271 1.86616 0
M  V30 20670 H 1896.54 4.53899 -0.794527 0
M  V30 20671 H 1894.86 4.12595 -0.561628 0
M  V30 20672 H 1897.46 4.91505 2.1054 0
M  V30 20673 H 1897.8 3.26896 2.57769 0
M  V30 20674 H 1898.33 3.85462 0.983058 0
M  V30 20675 H 1895.07 6.54638 -0.336054 0
M  V30 20676 H 1894.59 5.86908 1.23691 0
M  V30 20677 H 1896.27 6.39763 0.965014 0
M  V30 20678 N 1896.4 -0.183431 1.56529 0
M  V30 20679 C 1897.33 -1.22973 1.98494 0
M  V30 20680 C 1898.31 -1.46837 0.858653 0
M  V30 20681 O 1899.5 -1.58377 1.12385 0
M  V30 20682 C 1896.63 -2.57138 2.33446 0
M  V30 20683 C 1895.58 -2.47865 3.48922 0
M  V30 20684 C 1894.91 -3.8641 3.69582 0
M  V30 20685 C 1896.21 -1.99371 4.82751 0
M  V30 20686 H 1897.9 -0.880938 2.86147 0
M  V30 20687 H 1895.45 -0.422321 1.37668 0
M  V30 20688 H 1897.4 -3.30527 2.614 0
M  V30 20689 H 1896.13 -2.93781 1.42689 0
M  V30 20690 H 1894.78 -1.76932 3.21077 0
M  V30 20691 H 1894.43 -4.20426 2.76136 0
M  V30 20692 H 1894.13 -3.81077 4.47274 0
M  V30 20693 H 1895.66 -4.61403 3.99924 0
M  V30 20694 H 1897.07 -2.62526 5.0966 0
M  V30 20695 H 1895.47 -2.05014 5.63994 0
M  V30 20696 H 1896.54 -0.947442 4.75554 0
M  V30 20697 N 1897.88 -1.50992 -0.451564 0
M  V30 20698 C 1899.13 -1.62192 -1.19903 0
M  V30 20699 C 1899.44 -0.337085 -1.92674 0
M  V30 20700 O 1900.65 -0.328248 -2.69508 0
M  V30 20701 C 1899.1 -2.8638 -2.17978 0
M  V30 20702 C 1898.71 -4.21814 -1.50921 0
M  V30 20703 C 1900.46 -3.06932 -2.93246 0
M  V30 20704 C 1898.36 -5.37168 -2.47396 0
M  V30 20705 H 1897.29 -0.60406 -0.451251 0
M  V30 20706 H 1899.94 -1.77445 -0.467482 0
M  V30 20707 H 1898.33 -2.64728 -2.94508 0
M  V30 20708 H 1899.5 -4.53794 -0.800466 0
M  V30 20709 H 1897.82 -4.07025 -0.878604 0
M  V30 20710 H 1900.41 -3.90286 -3.65487 0
M  V30 20711 H 1900.76 -2.19437 -3.5377 0
M  V30 20712 H 1901.29 -3.28857 -2.23826 0
M  V30 20713 H 1898.03 -6.26878 -1.91582 0
M  V30 20714 H 1897.55 -5.09581 -3.16365 0
M  V30 20715 H 1899.23 -5.68539 -3.08824 0
M  V30 20716 N 1899.36 0.706069 -1.40899 0
M  V30 20717 C 1900.32 1.80184 -1.41656 0
M  V30 20718 C 1901.32 1.57807 -0.308823 0
M  V30 20719 O 1902.51 1.64673 -0.568197 0
M  V30 20720 C 1899.64 3.18412 -1.21765 0
M  V30 20721 H 1900.84 1.80908 -2.39191 0
M  V30 20722 H 1898.39 0.912658 -1.26887 0
M  V30 20723 H 1899.12 3.23333 -0.250288 0
M  V30 20724 H 1898.91 3.36054 -2.02015 0
M  V30 20725 H 1900.4 3.9842 -1.25106 0
M  V30 20726 N 1900.84 1.26553 0.939264 0
M  V30 20727 C 1902.06 1.15098 1.72532 0
M  V30 20728 C 1902.49 -0.289811 1.85854 0
M  V30 20729 O 1901.84 -1.20997 1.35017 0
M  V30 20730 C 1901.89 1.82703 3.10889 0
M  V30 20731 O 1901 1.11712 3.96981 0
M  V30 20732 H 1900.34 0.40095 0.529278 0
M  V30 20733 H 1902.87 1.67408 1.17625 0
M  V30 20734 H 1902.88 1.89603 3.61268 0
M  V30 20735 H 1901.55 2.87519 3.00509 0
M  V30 20736 H 1900.13 1.12801 3.5543 0
M  V30 20737 N 1902.31 -1.14411 1.08387 0
M  V30 20738 C 1903.26 -2.21558 0.708165 0
M  V30 20739 C 1904.26 -1.66969 -0.285982 0
M  V30 20740 O 1905.46 -1.79386 -0.14857 0
M  V30 20741 H 1901.84 -0.721799 0.210974 0
M  V30 20742 H 1903.81 -2.50518 1.62122 0
M  V30 20743 C 1902.56 -3.47444 0.13337 0
M  V30 20744 H 1901.88 -3.89779 0.889513 0
M  V30 20745 H 1903.32 -4.23901 -0.0917154 0
M  V30 20746 C 1901.78 -3.1743 -1.1287 0
M  V30 20747 O 1902.31 -3.35205 -2.2136 0
M  V30 20748 N 1900.52 -2.71391 -1.03901 0
M  V30 20749 H 1900.06 -2.57127 -0.156094 0
M  V30 20750 H 1900.02 -2.51684 -1.88422 0
M  V30 20751 N 1903.79 -0.869509 -1.31443 0
M  V30 20752 C 1905.04 -0.490248 -1.97403 0
M  V30 20753 C 1905.39 0.946928 -1.67484 0
M  V30 20754 O 1904.69 1.65775 -0.960689 0
M  V30 20755 C 1904.88 -0.683486 -3.50804 0
M  V30 20756 C 1904.71 -2.13789 -3.95631 0
M  V30 20757 C 1903.48 -2.7794 -4.21992 0
M  V30 20758 C 1905.68 -3.11011 -4.09605 0
M  V30 20759 N 1903.66 -4.14137 -4.5317 0
M  V30 20760 C 1905.03 -4.32237 -4.4449 0
M  V30 20761 C 1907.09 -3.07008 -3.91983 0
M  V30 20762 C 1905.79 -5.49978 -4.63591 0
M  V30 20763 C 1907.81 -4.24007 -4.12277 0
M  V30 20764 C 1907.18 -5.43995 -4.47492 0
M  V30 20765 H 1903.28 -0.228424 -0.747895 0
M  V30 20766 H 1905.86 -1.12401 -1.58978 0
M  V30 20767 H 1904.03 -0.0793199 -3.88319 0
M  V30 20768 H 1905.76 -0.272657 -4.0378 0
M  V30 20769 H 1902.52 -2.28892 -4.14615 0
M  V30 20770 H 1902.94 -4.84433 -4.7292 0
M  V30 20771 H 1907.58 -2.15351 -3.63846 0
M  V30 20772 H 1905.3 -6.42153 -4.90576 0
M  V30 20773 H 1908.89 -4.22361 -4.00128 0
M  V30 20774 H 1907.77 -6.3302 -4.62877 0
M  V30 20775 N 1905.27 1.44508 -0.628902 0
M  V30 20776 C 1906.5 2.0613 -0.139308 0
M  V30 20777 C 1906.91 1.47055 1.19044 0
M  V30 20778 O 1906.25 0.587051 1.74067 0
M  V30 20779 C 1906.31 3.59462 0.0521977 0
M  V30 20780 C 1905.98 4.4099 -1.19904 0
M  V30 20781 C 1906.97 4.74613 -2.12222 0
M  V30 20782 C 1904.66 4.81401 -1.43383 0
M  V30 20783 C 1906.65 5.47528 -3.26332 0
M  V30 20784 C 1904.34 5.54065 -2.5779 0
M  V30 20785 C 1905.34 5.87047 -3.49091 0
M  V30 20786 O 1905.03 6.58233 -4.61503 0
M  V30 20787 H 1904.76 0.671728 -0.0758762 0
M  V30 20788 H 1907.31 1.86402 -0.862745 0
M  V30 20789 H 1905.54 3.77671 0.830756 0
M  V30 20790 H 1907.23 4.02857 0.496066 0
M  V30 20791 H 1908 4.43933 -1.95316 0
M  V30 20792 H 1903.88 4.5515 -0.73209 0
M  V30 20793 H 1907.42 5.7319 -3.97617 0
M  V30 20794 H 1903.32 5.8416 -2.7464 0
M  V30 20795 H 1904.09 6.767 -4.60456 0
M  V30 20796 N 1906.75 0.369315 1.53212 0
M  V30 20797 C 1908 -0.219209 2.0131 0
M  V30 20798 C 1908.32 -1.48469 1.25647 0
M  V30 20799 O 1907.58 -1.92734 0.339443 0
M  V30 20800 C 1907.88 -0.553392 3.5309 0
M  V30 20801 C 1907.54 0.618198 4.46642 0
M  V30 20802 C 1906.21 0.939656 4.71936 0
M  V30 20803 C 1908.56 1.40294 5.01963 0
M  V30 20804 C 1905.89 2.04776 5.49803 0
M  V30 20805 C 1908.24 2.50149 5.81041 0
M  V30 20806 C 1906.9 2.82826 6.0462 0
M  V30 20807 H 1906.17 -0.0802141 0.736646 0
M  V30 20808 H 1908.82 0.502547 1.84788 0
M  V30 20809 H 1907.12 -1.35621 3.67579 0
M  V30 20810 H 1908.82 -1.02106 3.87783 0
M  V30 20811 H 1905.41 0.35762 4.27105 0
M  V30 20812 H 1909.6 1.16784 4.82364 0
M  V30 20813 H 1904.85 2.30487 5.66291 0
M  V30 20814 H 1909.03 3.1137 6.22914 0
M  V30 20815 H 1906.65 3.68812 6.64742 0
M  V30 20816 N 1908.23 -1.57291 0.0985816 0
M  V30 20817 C 1909.18 -2.1545 -0.876584 0
M  V30 20818 C 1910.17 -1.09827 -1.28974 0
M  V30 20819 O 1911.38 -1.28166 -1.26386 0
M  V30 20820 H 1907.75 -0.689252 -0.300725 0
M  V30 20821 H 1909.72 -2.96204 -0.36139 0
M  V30 20822 C 1908.47 -2.75232 -2.12468 0
M  V30 20823 H 1907.79 -3.56194 -1.81565 0
M  V30 20824 H 1909.23 -3.19489 -2.78752 0
M  V30 20825 C 1907.69 -1.71298 -2.90101 0
M  V30 20826 O 1908.22 -1.15402 -3.84767 0
M  V30 20827 N 1906.43 -1.41709 -2.53706 0
M  V30 20828 H 1905.98 -1.87354 -1.76794 0
M  V30 20829 H 1905.93 -0.724072 -3.05949 0
M  V30 20830 N 1909.71 0.175127 -1.56624 0
M  V30 20831 C 1910.66 1.22142 -1.92523 0
M  V30 20832 C 1911.64 1.39995 -0.793112 0
M  V30 20833 O 1912.83 1.4203 -1.05625 0
M  V30 20834 C 1909.96 2.56174 -2.28538 0
M  V30 20835 C 1909.05 2.42031 -3.48255 0
M  V30 20836 N 1909.44 1.97597 -4.65606 0
M  V30 20837 C 1907.74 2.72869 -3.52787 0
M  V30 20838 C 1908.44 1.95826 -5.47747 0
M  V30 20839 N 1907.41 2.38086 -4.88688 0
M  V30 20840 H 1911.21 0.869519 -2.80743 0
M  V30 20841 H 1908.73 0.383427 -1.57809 0
M  V30 20842 H 1910.73 3.31775 -2.5245 0
M  V30 20843 H 1909.39 2.92171 -1.41656 0
M  V30 20844 H 1910.4 1.67994 -4.89896 0
M  V30 20845 H 1907.07 3.12929 -2.76373 0
M  V30 20846 H 1908.46 1.63202 -6.51778 0
M  V30 20847 N 1911.18 1.5123 0.44355 0
M  V30 20848 C 1912.11 1.75038 1.54544 0
M  V30 20849 C 1913.09 0.600017 1.59166 0
M  V30 20850 O 1914.28 0.842082 1.74993 0
M  V30 20851 C 1911.41 1.86976 2.92673 0
M  V30 20852 C 1910.36 3.0237 3.02913 0
M  V30 20853 C 1909.69 2.99483 4.4296 0
M  V30 20854 C 1910.99 4.4244 2.77569 0
M  V30 20855 H 1912.68 2.67301 1.34872 0
M  V30 20856 H 1910.23 1.28627 0.647395 0
M  V30 20857 H 1912.18 2.02215 3.69712 0
M  V30 20858 H 1910.91 0.913563 3.13563 0
M  V30 20859 H 1909.57 2.86826 2.28312 0
M  V30 20860 H 1909.21 2.01654 4.60809 0
M  V30 20861 H 1908.91 3.76968 4.50743 0
M  V30 20862 H 1910.44 3.16808 5.21982 0
M  V30 20863 H 1911.85 4.58367 3.44344 0
M  V30 20864 H 1910.25 5.21583 2.96768 0
M  V30 20865 H 1911.32 4.52906 1.73218 0
M  V30 20866 N 1912.66 -0.698586 1.41271 0
M  V30 20867 C 1913.61 -1.81256 1.42881 0
M  V30 20868 C 1914.58 -1.63662 0.283562 0
M  V30 20869 O 1915.76 -1.84555 0.48416 0
M  V30 20870 C 1912.9 -3.19113 1.31381 0
M  V30 20871 C 1912.02 -3.4816 2.55751 0
M  V30 20872 C 1911.15 -4.75615 2.36566 0
M  V30 20873 C 1910.19 -4.9762 3.56427 0
M  V30 20874 N 1909.33 -6.16299 3.36332 0
M  V30 20875 H 1914.17 -1.79214 2.38089 0
M  V30 20876 H 1911.7 -0.875213 1.1823 0
M  V30 20877 H 1913.66 -3.98744 1.22716 0
M  V30 20878 H 1912.29 -3.20339 0.397831 0
M  V30 20879 H 1911.34 -2.62957 2.74878 0
M  V30 20880 H 1912.66 -3.60323 3.44918 0
M  V30 20881 H 1911.81 -5.63295 2.25352 0
M  V30 20882 H 1910.55 -4.65693 1.44851 0
M  V30 20883 H 1909.55 -4.0839 3.681 0
M  V30 20884 H 1910.78 -5.09404 4.49093 0
M  V30 20885 H 1908.73 -6.07595 2.47314 0
M  V30 20886 H 1908.64 -6.29216 4.19074 0
M  V30 20887 H 1909.91 -7.06722 3.28884 0
M  V30 20888 N 1914.14 -1.27049 -0.93254 0
M  V30 20889 C 1915.42 -1.03836 -1.65763 0
M  V30 20890 C 1915.8 0.428461 -2.06706 0
M  V30 20891 O 1915.14 1.41067 -1.79756 0
M  V30 20892 C 1915.35 -1.99534 -2.86334 0
M  V30 20893 C 1916.7 -2.28632 -3.57788 0
M  V30 20894 O 1917.73 -1.97469 -2.96453 0
M  V30 20895 O 1916.59 -2.81732 -4.68284 0
M  V30 20896 H 1913.68 -0.395479 -0.72631 0
M  V30 20897 H 1916.23 -1.38294 -0.983504 0
M  V30 20898 H 1915 -2.98479 -2.53033 0
M  V30 20899 H 1914.62 -1.65608 -3.61469 0
M  V30 20900 N 1915.62 1.13835 -1.08993 0
M  V30 20901 C 1916.56 2.19107 -0.725298 0
M  V30 20902 C 1917.53 1.63524 0.291368 0
M  V30 20903 O 1918.72 1.90005 0.174014 0
M  V30 20904 C 1915.86 3.44786 -0.147212 0
M  V30 20905 C 1914.97 4.14492 -1.21738 0
M  V30 20906 C 1914.11 5.27772 -0.602519 0
M  V30 20907 C 1913.15 5.89321 -1.65431 0
M  V30 20908 N 1912.28 6.9404 -1.0608 0
M  V30 20909 H 1917.12 2.49646 -1.6273 0
M  V30 20910 H 1914.66 1.22585 -0.813108 0
M  V30 20911 H 1916.62 4.16692 0.205719 0
M  V30 20912 H 1915.25 3.14712 0.718077 0
M  V30 20913 H 1914.3 3.40914 -1.68766 0
M  V30 20914 H 1915.61 4.56325 -2.01417 0
M  V30 20915 H 1914.77 6.06376 -0.198177 0
M  V30 20916 H 1913.51 4.87177 0.225868 0
M  V30 20917 H 1912.51 5.09415 -2.06824 0
M  V30 20918 H 1913.74 6.3199 -2.48528 0
M  V30 20919 H 1911.68 6.5551 -0.253616 0
M  V30 20920 H 1911.6 7.34391 -1.79461 0
M  V30 20921 H 1912.87 7.76506 -0.682517 0
M  V30 20922 N 1917.1 0.876467 1.3098 0
M  V30 20923 C 1918.34 0.486745 1.95739 0
M  V30 20924 C 1918.66 -0.967265 1.7001 0
M  V30 20925 O 1919.86 -1.46344 2.28683 0
M  V30 20926 C 1918.32 0.819534 3.50445 0
M  V30 20927 C 1917.93 2.29074 3.85005 0
M  V30 20928 C 1919.67 0.498597 4.21562 0
M  V30 20929 C 1917.58 2.5656 5.32851 0
M  V30 20930 H 1916.51 0.178295 0.732616 0
M  V30 20931 H 1919.16 1.07027 1.49055 0
M  V30 20932 H 1917.54 0.165191 3.95655 0
M  V30 20933 H 1918.72 2.98869 3.50733 0
M  V30 20934 H 1917.03 2.57836 3.2697 0
M  V30 20935 H 1919.63 0.6811 5.30344 0
M  V30 20936 H 1919.97 -0.561426 4.12497 0
M  V30 20937 H 1920.5 1.10976 3.82007 0
M  V30 20938 H 1917.24 3.61271 5.46959 0
M  V30 20939 H 1916.76 1.91366 5.68453 0
M  V30 20940 H 1918.44 2.41623 6.00189 0
M  V30 20941 N 1918.57 -1.44173 0.636557 0
M  V30 20942 C 1919.5 -2.33442 -0.0518719 0
M  V30 20943 C 1920.48 -1.48519 -0.829226 0
M  V30 20944 O 1921.67 -1.77225 -0.794028 0
M  V30 20945 C 1918.8 -3.31663 -1.03038 0
M  V30 20946 C 1917.75 -4.26447 -0.364286 0
M  V30 20947 C 1917.08 -5.14577 -1.45308 0
M  V30 20948 C 1918.38 -5.17133 0.732884 0
M  V30 20949 H 1920.07 -2.91255 0.693589 0
M  V30 20950 H 1917.62 -1.40049 0.33499 0
M  V30 20951 H 1919.57 -3.93002 -1.52077 0
M  V30 20952 H 1918.3 -2.72071 -1.80679 0
M  V30 20953 H 1916.96 -3.66448 0.105505 0
M  V30 20954 H 1916.6 -4.51334 -2.22051 0
M  V30 20955 H 1916.3 -5.78807 -1.01274 0
M  V30 20956 H 1917.83 -5.78788 -1.94517 0
M  V30 20957 H 1919.24 -5.72376 0.325363 0
M  V30 20958 H 1917.64 -5.89994 1.09669 0
M  V30 20959 H 1918.71 -4.5782 1.59779 0
M  V30 20960 N 1920.05 -0.377435 -1.53014 0
M  V30 20961 C 1921.3 0.208118 -2.01026 0
M  V30 20962 C 1921.62 1.48307 -1.26609 0
M  V30 20963 O 1920.89 1.92125 -0.382732 0
M  V30 20964 H 1919.47 0.0798957 -0.742715 0
M  V30 20965 H 1922.13 -0.506396 -1.88206 0
M  V30 20966 H 1921.23 0.426737 -3.09169 0
M  V30 20967 N 1921.53 1.57237 -0.106922 0
M  V30 20968 C 1922.77 1.96658 0.557214 0
M  V30 20969 C 1923.13 0.988281 1.64612 0
M  V30 20970 O 1924.34 1.27142 2.3683 0
M  V30 20971 C 1922.61 3.40462 1.08723 0
M  V30 20972 S 1924.17 4.01888 1.76158 0
M  V30 20973 H 1920.98 0.687449 0.181481 0
M  V30 20974 H 1923.59 1.94583 -0.189135 0
M  V30 20975 H 1922.29 4.0942 0.283378 0
M  V30 20976 H 1921.82 3.4616 1.86913 0
M  V30 20977 H 1923.84 3.91658 3.04661 0
M  V30 20978 N 1923.01 -0.166818 1.56715 0
M  V30 20979 C 1924.29 -0.910255 1.73129 0
M  V30 20980 C 1924.67 -2.002 0.669555 0
M  V30 20981 O 1924.01 -2.2632 -0.314899 0
M  V30 20982 C 1924.22 -1.47087 3.16491 0
M  V30 20983 C 1925.57 -1.94204 3.77584 0
M  V30 20984 O 1926.6 -1.56872 3.19796 0
M  V30 20985 O 1925.45 -2.62988 4.79061 0
M  V30 20986 H 1922.55 -0.428766 0.70717 0
M  V30 20987 H 1925.09 -0.154295 1.68997 0
M  V30 20988 H 1923.87 -0.685322 3.85252 0
M  V30 20989 H 1923.49 -2.29089 3.24967 0
M  V30 20990 N 1924.49 -1.51463 -0.435524 0
M  V30 20991 C 1925.73 -1.65426 -1.18347 0
M  V30 20992 C 1926.09 -0.366774 -1.88872 0
M  V30 20993 O 1925.38 0.637507 -1.80683 0
M  V30 20994 C 1925.57 -2.79695 -2.22498 0
M  V30 20995 C 1925.4 -4.19431 -1.62196 0
M  V30 20996 C 1924.17 -4.85342 -1.40609 0
M  V30 20997 C 1926.37 -5.0246 -1.0972 0
M  V30 20998 N 1924.35 -6.09187 -0.759235 0
M  V30 20999 C 1925.72 -6.17321 -0.575716 0
M  V30 21000 C 1927.78 -4.87976 -0.989133 0
M  V30 21001 C 1926.48 -7.19287 0.0432192 0
M  V30 21002 C 1928.51 -5.90151 -0.384089 0
M  V30 21003 C 1927.87 -7.04286 0.126845 0
M  V30 21004 H 1923.97 -0.659213 -0.420669 0
M  V30 21005 H 1926.55 -1.88696 -0.479793 0
M  V30 21006 H 1924.72 -2.58086 -2.90252 0
M  V30 21007 H 1926.46 -2.82829 -2.89464 0
M  V30 21008 H 1923.21 -4.43242 -1.66833 0
M  V30 21009 H 1923.64 -6.75481 -0.453193 0
M  V30 21010 H 1928.28 -3.99988 -1.37002 0
M  V30 21011 H 1926 -8.06922 0.436231 0
M  V30 21012 H 1929.58 -5.81014 -0.30235 0
M  V30 21013 H 1928.46 -7.81995 0.587666 0
M  V30 21014 N 1925.96 0.691085 -1.4164 0
M  V30 21015 C 1927.19 1.47764 -1.44393 0
M  V30 21016 C 1927.6 1.89137 -0.0489239 0
M  V30 21017 O 1926.95 1.57642 0.943111 0
M  V30 21018 C 1927.01 2.76837 -2.29351 0
M  V30 21019 C 1926.67 2.5764 -3.77453 0
M  V30 21020 C 1927.67 2.23295 -4.69505 0
M  V30 21021 C 1925.35 2.73141 -4.21544 0
M  V30 21022 C 1927.35 2.04696 -6.03638 0
M  V30 21023 C 1925.03 2.54158 -5.5574 0
M  V30 21024 C 1926.03 2.19987 -6.46603 0
M  V30 21025 O 1925.72 2.01173 -7.78322 0
M  V30 21026 H 1925.45 0.461744 -0.493729 0
M  V30 21027 H 1928.01 0.857998 -1.86621 0
M  V30 21028 H 1926.24 3.41223 -1.81944 0
M  V30 21029 H 1927.93 3.38659 -2.23752 0
M  V30 21030 H 1928.69 2.1093 -4.36731 0
M  V30 21031 H 1924.57 2.98721 -3.51122 0
M  V30 21032 H 1928.11 1.77947 -6.74523 0
M  V30 21033 H 1924.01 2.66115 -5.88093 0
M  V30 21034 H 1924.78 2.15901 -7.89512 0
M  V30 21035 N 1927.44 1.27542 0.925789 0
M  V30 21036 C 1928.69 1.13992 1.67368 0
M  V30 21037 C 1929.02 -0.313872 1.91951 0
M  V30 21038 O 1928.27 -1.24583 1.50923 0
M  V30 21039 C 1928.57 1.87088 3.04521 0
M  V30 21040 C 1928.24 3.36936 2.99641 0
M  V30 21041 C 1926.9 3.77808 2.98018 0
M  V30 21042 C 1929.25 4.32541 2.90789 0
M  V30 21043 C 1926.58 5.12646 2.85327 0
M  V30 21044 C 1928.93 5.67437 2.79639 0
M  V30 21045 C 1927.6 6.076 2.76366 0
M  V30 21046 H 1926.87 0.417126 0.612444 0
M  V30 21047 H 1929.51 1.58173 1.07952 0
M  V30 21048 H 1927.82 1.35421 3.67653 0
M  V30 21049 H 1929.51 1.7403 3.61268 0
M  V30 21050 H 1926.1 3.04433 3.01693 0
M  V30 21051 H 1930.29 4.01935 2.91139 0
M  V30 21052 H 1925.54 5.42906 2.81181 0
M  V30 21053 H 1929.72 6.41188 2.71755 0
M  V30 21054 H 1927.35 7.12035 2.66289 0
M  V30 21055 N 1928.92 -1.13255 1.09595 0
M  V30 21056 C 1930.17 -1.84844 0.83429 0
M  V30 21057 C 1930.5 -1.83403 -0.638518 0
M  V30 21058 O 1929.77 -1.27337 -1.47022 0
M  V30 21059 C 1930.06 -3.32926 1.3723 0
M  V30 21060 C 1929.91 -3.42872 2.91134 0
M  V30 21061 C 1931.23 -4.28413 1.0075 0
M  V30 21062 H 1928.35 -0.671139 0.304534 0
M  V30 21063 H 1930.99 -1.32922 1.35764 0
M  V30 21064 H 1929.14 -3.77275 0.927149 0
M  V30 21065 H 1930.81 -3.07222 3.44111 0
M  V30 21066 H 1929.06 -2.83693 3.28178 0
M  V30 21067 H 1929.73 -4.47013 3.23857 0
M  V30 21068 H 1932.2 -3.92145 1.39146 0
M  V30 21069 H 1931.08 -5.30455 1.41098 0
M  V30 21070 H 1931.34 -4.4202 -0.0841095 0
M  V30 21071 N 1930.4 -0.883401 -1.30514 0
M  V30 21072 C 1931.81 -0.55179 -1.7836 0
M  V30 21073 C 1932.16 0.93196 -1.72653 0
M  V30 21074 O 1931.29 1.72818 -1.30242 0
M  V30 21075 C 1931.88 -0.994845 -3.23865 0
M  V30 21076 C 1930.44 -0.714672 -3.69553 0
M  V30 21077 C 1929.59 -1.1787 -2.51002 0
M  V30 21078 H 1932.54 -1.06778 -1.17406 0
M  V30 21079 H 1932.56 -0.32315 -3.79125 0
M  V30 21080 H 1932.07 -2.07477 -3.27986 0
M  V30 21081 H 1930.17 0.353326 -3.70921 0
M  V30 21082 H 1930.28 -1.30112 -4.61094 0
M  V30 21083 H 1928.65 -0.598079 -2.47578 0
M  V30 21084 H 1929.43 -2.26633 -2.57862 0
M  V30 21085 N 1931.88 1.43833 -0.644194 0
M  V30 21086 C 1933.1 2.0627 -0.161397 0
M  V30 21087 C 1933.52 1.4823 1.16933 0
M  V30 21088 O 1932.88 0.610133 1.71999 0
M  V30 21089 C 1932.93 3.61459 -0.0545357 0
M  V30 21090 O 1932.65 4.17339 -1.33265 0
M  V30 21091 C 1934.15 4.40955 0.455411 0
M  V30 21092 H 1931.37 0.665503 -0.0857112 0
M  V30 21093 H 1933.91 1.84488 -0.882291 0
M  V30 21094 H 1932.07 3.82457 0.616868 0
M  V30 21095 H 1932.48 5.10916 -1.18597 0
M  V30 21096 H 1933.96 5.49916 0.479159 0
M  V30 21097 H 1934.43 4.13333 1.485 0
M  V30 21098 H 1935.04 4.24905 -0.18319 0
M  V30 21099 N 1933.35 0.385544 1.52811 0
M  V30 21100 C 1934.63 -0.255227 1.93928 0
M  V30 21101 C 1935.01 -1.64683 1.32071 0
M  V30 21102 O 1934.36 -2.23242 0.487363 0
M  V30 21103 C 1934.57 -0.285363 3.47831 0
M  V30 21104 C 1935.92 -0.516126 4.21451 0
M  V30 21105 O 1936.94 -0.365732 3.54317 0
M  V30 21106 O 1935.8 -0.810503 5.40456 0
M  V30 21107 H 1932.89 -0.157694 0.811826 0
M  V30 21108 H 1935.44 0.439779 1.63903 0
M  V30 21109 H 1934.21 0.68954 3.85177 0
M  V30 21110 H 1933.84 -1.02545 3.84149 0
M  V30 21111 N 1934.83 -1.57178 0.115259 0
M  V30 21112 C 1935.74 -2.18656 -0.850101 0
M  V30 21113 C 1936.76 -1.16164 -1.29545 0
M  V30 21114 O 1937.93 -1.48619 -1.35921 0
M  V30 21115 C 1935 -2.77089 -2.0838 0
M  V30 21116 C 1934.06 -3.94604 -1.69074 0
M  V30 21117 C 1933.29 -4.50242 -2.86563 0
M  V30 21118 O 1933.52 -4.04782 -4.0188 0
M  V30 21119 O 1932.45 -5.4098 -2.63864 0
M  V30 21120 H 1936.28 -3.01595 -0.356934 0
M  V30 21121 H 1933.86 -1.48993 -0.110158 0
M  V30 21122 H 1935.74 -3.14353 -2.80642 0
M  V30 21123 H 1934.42 -1.97184 -2.56711 0
M  V30 21124 H 1933.33 -3.62116 -0.939308 0
M  V30 21125 H 1934.66 -4.75934 -1.25489 0
M  V30 21126 N 1936.31 0.158505 -1.56801 0
M  V30 21127 C 1937.56 0.871313 -1.82353 0
M  V30 21128 C 1937.88 1.8222 -0.694324 0
M  V30 21129 O 1937.15 1.93817 0.284899 0
M  V30 21130 H 1935.73 0.324747 -0.672717 0
M  V30 21131 H 1938.39 0.155257 -1.94281 0
M  V30 21132 H 1937.49 1.44051 -2.76868 0
M  V30 21133 N 1937.79 1.51692 0.427485 0
M  V30 21134 C 1939.04 1.66051 1.17468 0
M  V30 21135 C 1939.39 0.376785 1.88675 0
M  V30 21136 O 1938.68 -0.627916 1.81019 0
M  V30 21137 C 1938.88 2.80871 2.21011 0
M  V30 21138 C 1938.71 4.20286 1.59969 0
M  V30 21139 C 1937.48 4.86081 1.38033 0
M  V30 21140 C 1939.67 5.03035 1.07054 0
M  V30 21141 N 1937.66 6.09581 0.726917 0
M  V30 21142 C 1939.03 6.17618 0.54297 0
M  V30 21143 C 1941.08 4.88494 0.96324 0
M  V30 21144 C 1939.79 7.19254 -0.0813641 0
M  V30 21145 C 1941.81 5.90347 0.352786 0
M  V30 21146 C 1941.17 7.04209 -0.164194 0
M  V30 21147 H 1937.27 0.661434 0.417167 0
M  V30 21148 H 1939.86 1.88948 0.469779 0
M  V30 21149 H 1938.03 2.59622 2.88879 0
M  V30 21150 H 1939.76 2.8436 2.8796 0
M  V30 21151 H 1936.51 4.44121 1.6448 0
M  V30 21152 H 1936.94 6.75712 0.417364 0
M  V30 21153 H 1941.58 4.00709 1.34879 0
M  V30 21154 H 1939.3 8.06679 -0.479018 0
M  V30 21155 H 1942.88 5.81166 0.271533 0
M  V30 21156 H 1941.76 7.81672 -0.629128 0
M  V30 21157 N 1939.27 -0.683564 1.42004 0
M  V30 21158 C 1940.5 -1.4721 1.45386 0
M  V30 21159 C 1940.91 -1.88696 0.062603 0
M  V30 21160 O 1940.27 -1.5757 -0.920764 0
M  V30 21161 C 1940.32 -2.7269 2.37323 0
M  V30 21162 O 1940.04 -2.32947 3.71035 0
M  V30 21163 C 1941.54 -3.6633 2.49634 0
M  V30 21164 H 1938.76 -0.453255 0.494773 0
M  V30 21165 H 1941.3 -0.840646 1.86423 0
M  V30 21166 H 1939.46 -3.32044 1.99563 0
M  V30 21167 H 1939.87 -3.13915 4.20188 0
M  V30 21168 H 1941.35 -4.51125 3.18104 0
M  V30 21169 H 1941.82 -4.11636 1.53141 0
M  V30 21170 H 1942.43 -3.12874 2.8808 0
M  V30 21171 N 1940.75 -1.28031 -0.919012 0
M  V30 21172 C 1941.69 -1.11355 -2.04213 0
M  V30 21173 C 1942.69 -0.0342517 -1.69365 0
M  V30 21174 O 1943.89 -0.192628 -1.78966 0
M  V30 21175 H 1940.27 -0.343397 -0.669016 0
M  V30 21176 H 1942.24 -2.06485 -2.15421 0
M  V30 21177 C 1940.99 -0.786653 -3.38684 0
M  V30 21178 H 1940.31 -1.6091 -3.65989 0
M  V30 21179 H 1941.75 -0.709897 -4.18015 0
M  V30 21180 C 1940.21 0.509383 -3.33027 0
M  V30 21181 O 1940.74 1.54125 -3.70956 0
M  V30 21182 N 1938.95 0.508188 -2.86122 0
M  V30 21183 H 1938.49 -0.331947 -2.55452 0
M  V30 21184 H 1938.45 1.37539 -2.82719 0
M  V30 21185 N 1942.22 1.12672 -1.10194 0
M  V30 21186 C 1943.5 1.80442 -0.75499 0
M  V30 21187 C 1943.88 1.96988 0.758887 0
M  V30 21188 O 1943.23 1.54424 1.6842 0
M  V30 21189 C 1943.44 3.14969 -1.50317 0
M  V30 21190 C 1944.79 3.90205 -1.67409 0
M  V30 21191 O 1945.81 3.24618 -1.46634 0
M  V30 21192 O 1944.67 5.07864 -2.01833 0
M  V30 21193 H 1941.76 0.780952 -0.272109 0
M  V30 21194 H 1944.31 1.1953 -1.20461 0
M  V30 21195 H 1943.08 2.98202 -2.5336 0
M  V30 21196 H 1942.7 3.83587 -1.04625 0
M  V30 21197 O 1943.74 1.02311 1.24959 0
M  V30 21198 H 1944.43 0.686113 1.81141 0
M  V30 END ATOM
M  V30 BEGIN BOND
M  V30 END BOND
M  V30 END CTAB
M  END
$$$$
