drugbank_target|P05154 Plasma serine protease inhibitor (DB00013; DB00055; DB05413; DB05961)
 OpenBabel12092120053D

  0  0  0     0  0            999 V3000
M  V30 BEGIN CTAB
M  V30 COUNTS 6472 6534 0 0 0
M  V30 BEGIN ATOM
M  V30 1 H -0.908 1.98254 -0.117106 0
M  V30 2 N 0 1.576 0 0
M  V30 3 C 0.933 2.03868 1.02534 0
M  V30 4 C 1.911 0.928543 1.3348 0
M  V30 5 O 3.095 1.19667 1.45644 0
M  V30 6 C 0.222 2.43627 2.35294 0
M  V30 7 C -0.732 3.65373 2.2001 0
M  V30 8 S 0.101 5.13292 1.52614 0
M  V30 9 C 1.257 5.56322 2.86805 0
M  V30 10 H 1.49 2.90518 0.631377 0
M  V30 11 H -0.977 1.52953 0.210867 0
M  V30 12 H 0.981 2.67203 3.11629 0
M  V30 13 H -0.358 1.57376 2.7183 0
M  V30 14 H -1.165 3.90944 3.18086 0
M  V30 15 H -1.563 3.418 1.51819 0
M  V30 16 H 0.729 5.58782 3.83104 0
M  V30 17 H 1.672 6.56266 2.65933 0
M  V30 18 H 2.08 4.83886 2.90714 0
M  V30 19 N 1.4781 -0.272755 1.55222 0
M  V30 20 C 2.4101 -1.35946 1.8453 0
M  V30 21 C 3.4231 -1.45525 0.729818 0
M  V30 22 O 4.6121 -1.47337 1.00767 0
M  V30 23 C 1.7121 -2.74069 1.99347 0
M  V30 24 C 0.8851 -2.87079 3.30007 0
M  V30 25 C -0.0559 -4.05879 3.34886 0
M  V30 26 O -1.0299 -3.96626 4.08261 0
M  V30 27 N 0.1721 -5.17857 2.62307 0
M  V30 28 H 2.9371 -1.11149 2.78327 0
M  V30 29 H 0.4981 -0.462869 1.55142 0
M  V30 30 H 2.4901 -3.51838 1.99981 0
M  V30 31 H 1.0601 -2.91688 1.12415 0
M  V30 32 H 0.2801 -1.96193 3.41909 0
M  V30 33 H 1.5681 -2.92701 4.16177 0
M  V30 34 H 0.9661 -5.28261 2.02377 0
M  V30 35 H -0.4769 -5.93855 2.68663 0
M  V30 36 N 2.9562 -1.48159 -0.537278 0
M  V30 37 C 3.8862 -1.65029 -1.6519 0
M  V30 38 C 4.8672 -0.499281 -1.62607 0
M  V30 39 O 6.0522 -0.730972 -1.79918 0
M  V30 40 C 3.1822 -1.68303 -3.03795 0
M  V30 41 C 2.1362 -2.8283 -3.21234 0
M  V30 42 C 1.4622 -2.71189 -4.60826 0
M  V30 43 C 2.7622 -4.24211 -3.04701 0
M  V30 44 H 4.4562 -2.58341 -1.51328 0
M  V30 45 H 2.0022 -1.24325 -0.726585 0
M  V30 46 H 3.9552 -1.78693 -3.81637 0
M  V30 47 H 2.6792 -0.715635 -3.18663 0
M  V30 48 H 1.3382 -2.71983 -2.45807 0
M  V30 49 H 0.9862 -1.72435 -4.7252 0
M  V30 50 H 0.6862 -3.48035 -4.7344 0
M  V30 51 H 2.2102 -2.83537 -5.40777 0
M  V30 52 H 3.6242 -4.3593 -3.72341 0
M  V30 53 H 2.0212 -5.01998 -3.28813 0
M  V30 54 H 3.0912 -4.41184 -2.01209 0
M  V30 55 N 4.4343 0.785586 -1.36625 0
M  V30 56 C 5.6813 1.54362 -1.31067 0
M  V30 57 C 6.0093 1.94195 0.10893 0
M  V30 58 O 5.2643 1.63262 1.07908 0
M  V30 59 C 5.5633 2.83007 -2.1827 0
M  V30 60 C 5.2293 2.62294 -3.6676 0
M  V30 61 C 3.8913 2.56353 -4.0723 0
M  V30 62 C 6.2433 2.43371 -4.6089 0
M  V30 63 C 3.5713 2.29461 -5.39967 0
M  V30 64 C 5.9233 2.18005 -5.93849 0
M  V30 65 C 4.5873 2.105 -6.3344 0
M  V30 66 H 3.8573 0.564851 -0.479609 0
M  V30 67 H 6.5043 0.906028 -1.68711 0
M  V30 68 H 4.8093 3.51253 -1.73576 0
M  V30 69 H 6.5063 3.40817 -2.11292 0
M  V30 70 H 3.0963 2.67774 -3.34656 0
M  V30 71 H 7.2803 2.46959 -4.30494 0
M  V30 72 H 2.5363 2.22135 -5.69619 0
M  V30 73 H 6.7103 2.02359 -6.66351 0
M  V30 74 H 4.3373 1.89425 -7.36222 0
M  V30 75 N 5.9124 1.20967 1.01018 0
M  V30 76 C 6.8424 0.988272 2.11555 0
M  V30 77 C 7.8234 -0.0849778 1.69888 0
M  V30 78 O 9.0084 0.0738202 1.9406 0
M  V30 79 C 6.1384 0.546528 3.42973 0
M  V30 80 C 5.0924 1.56375 3.9841 0
M  V30 81 C 4.4184 0.97842 5.25672 0
M  V30 82 C 5.7184 2.94922 4.31066 0
M  V30 83 H 7.4124 1.91276 2.30334 0
M  V30 84 H 4.9584 0.921073 1.1069 0
M  V30 85 H 6.9114 0.378839 4.19694 0
M  V30 86 H 5.6354 -0.413598 3.23971 0
M  V30 87 H 4.2944 1.71891 3.23804 0
M  V30 88 H 3.9424 0.0101688 5.02999 0
M  V30 89 H 3.6424 1.65784 5.63728 0
M  V30 90 H 5.1664 0.821939 6.05043 0
M  V30 91 H 6.5804 2.8288 4.9865 0
M  V30 92 H 4.9774 3.5983 4.80253 0
M  V30 93 H 6.0474 3.4616 3.39561 0
M  V30 94 N 7.3905 -1.2043 1.01659 0
M  V30 95 C 8.3205 -2.25466 0.607226 0
M  V30 96 C 9.3015 -1.65853 -0.377716 0
M  V30 97 O 10.4865 -1.92409 -0.263149 0
M  V30 98 C 7.6165 -3.47256 -0.0552949 0
M  V30 99 C 6.5705 -4.19462 0.850632 0
M  V30 100 C 5.8965 -5.34673 0.0538859 0
M  V30 101 C 7.1965 -4.75603 2.15868 0
M  V30 102 H 8.8905 -2.59962 1.48526 0
M  V30 103 H 6.4365 -1.2496 0.715605 0
M  V30 104 H 8.3895 -4.19917 -0.353233 0
M  V30 105 H 7.1135 -3.11924 -0.968045 0
M  V30 106 H 5.7725 -3.48667 1.13257 0
M  V30 107 H 5.4205 -4.95585 -0.860514 0
M  V30 108 H 5.1205 -5.83913 0.657192 0
M  V30 109 H 6.6445 -6.10138 -0.237598 0
M  V30 110 H 8.0585 -5.40083 1.92311 0
M  V30 111 H 6.4555 -5.3528 2.71284 0
M  V30 112 H 7.5255 -3.94346 2.82169 0
M  V30 113 N 8.8686 -0.792821 -1.36206 0
M  V30 114 C 9.7986 -0.207853 -2.32573 0
M  V30 115 C 10.7796 0.659055 -1.56813 0
M  V30 116 O 11.9646 0.592176 -1.84951 0
M  V30 117 C 9.0946 0.655449 -3.41059 0
M  V30 118 C 8.0486 -0.111842 -4.27854 0
M  V30 119 C 7.3746 0.872274 -5.27537 0
M  V30 120 C 8.6746 -1.30299 -5.05786 0
M  V30 121 H 10.3686 -1.01294 -2.81744 0
M  V30 122 H 7.9146 -0.48854 -1.3546 0
M  V30 123 H 9.8676 1.07464 -4.07467 0
M  V30 124 H 8.5916 1.49328 -2.90463 0
M  V30 125 H 7.2506 -0.512053 -3.63006 0
M  V30 126 H 6.8986 1.70523 -4.73214 0
M  V30 127 H 6.5986 0.363291 -5.86476 0
M  V30 128 H 8.1226 1.28996 -5.96818 0
M  V30 129 H 9.5366 -0.959379 -5.65216 0
M  V30 130 H 7.9336 -1.7455 -5.74154 0
M  V30 131 H 9.0036 -2.09663 -4.37229 0
M  V30 132 N 10.3467 1.47872 -0.545128 0
M  V30 133 C 11.5867 2.04391 -0.0187854 0
M  V30 134 C 11.9507 1.41162 1.30144 0
M  V30 135 O 13.1517 1.88656 1.91474 0
M  V30 136 C 11.4227 3.57299 0.0850867 0
M  V30 137 S 12.9817 4.35221 0.559302 0
M  V30 138 H 9.7997 0.710737 -0.0193301 0
M  V30 139 H 12.4017 1.81395 -0.729125 0
M  V30 140 H 11.1057 4.00847 -0.880351 0
M  V30 141 H 10.6367 3.84773 0.819348 0
M  V30 142 H 12.6517 4.61571 1.82118 0
M  V30 143 N 11.8248 0.280983 1.55075 0
M  V30 144 C 12.7548 -0.597469 2.25727 0
M  V30 145 C 13.7358 -1.15417 1.24952 0
M  V30 146 O 14.9208 -1.18722 1.53684 0
M  V30 147 C 12.0508 -1.7789 2.98283 0
M  V30 148 C 11.0048 -1.35347 4.06036 0
M  V30 149 C 10.3308 -2.61846 4.66198 0
M  V30 150 C 11.6308 -0.499354 5.19907 0
M  V30 151 H 13.3248 -0.00824265 2.99399 0
M  V30 152 H 10.8708 -0.0025244 1.44 0
M  V30 153 H 12.8238 -2.39937 3.46422 0
M  V30 154 H 11.5478 -2.39405 2.22155 0
M  V30 155 H 10.2068 -0.756156 3.58717 0
M  V30 156 H 9.8548 -3.21632 3.86732 0
M  V30 157 H 9.5548 -2.3409 5.38958 0
M  V30 158 H 11.0788 -3.24732 5.1709 0
M  V30 159 H 12.4928 -1.02498 5.64063 0
M  V30 160 H 10.8898 -0.316424 5.99265 0
M  V30 161 H 11.9598 0.480459 4.82514 0
M  V30 162 N 13.3029 -1.57598 0.00835791 0
M  V30 163 C 14.5489 -1.91211 -0.675732 0
M  V30 164 C 14.8819 -0.883139 -1.72958 0
M  V30 165 O 14.1569 0.097016 -1.94258 0
M  V30 166 C 14.4399 -3.35379 -1.31123 0
M  V30 167 C 14.2929 -4.48999 -0.268356 0
M  V30 168 C 15.6119 -3.7912 -2.23508 0
M  V30 169 H 12.7309 -0.695374 -0.244179 0
M  V30 170 H 15.3729 -1.89901 0.0613655 0
M  V30 171 H 13.5229 -3.36626 -1.93946 0
M  V30 172 H 15.1949 -4.59887 0.360844 0
M  V30 173 H 13.4379 -4.31873 0.408482 0
M  V30 174 H 14.1089 -5.46851 -0.752218 0
M  V30 175 H 16.5849 -3.79477 -1.70693 0
M  V30 176 H 15.4609 -4.80729 -2.64936 0
M  V30 177 H 15.7219 -3.13455 -3.11766 0
M  V30 178 N 14.781 0.264519 -1.55364 0
M  V30 179 C 15.711 1.33121 -1.91836 0
M  V30 180 C 16.692 1.51101 -0.781192 0
M  V30 181 O 17.877 1.64003 -1.04003 0
M  V30 182 C 15.007 2.68921 -2.19769 0
M  V30 183 C 13.961 2.65661 -3.35571 0
M  V30 184 C 13.287 4.05093 -3.49004 0
M  V30 185 C 14.587 2.24187 -4.71739 0
M  V30 186 H 16.281 1.02844 -2.81182 0
M  V30 187 H 13.827 0.493286 -1.35287 0
M  V30 188 H 15.78 3.43663 -2.43872 0
M  V30 189 H 14.504 3.00799 -1.27231 0
M  V30 190 H 13.163 1.93377 -3.1145 0
M  V30 191 H 12.811 4.34206 -2.53917 0
M  V30 192 H 12.511 4.03804 -4.26868 0
M  V30 193 H 14.035 4.81561 -3.75408 0
M  V30 194 H 15.449 2.88654 -4.9533 0
M  V30 195 H 13.846 2.34044 -5.52579 0
M  V30 196 H 14.916 1.19327 -4.69988 0
M  V30 197 N 16.2591 1.48442 0.529413 0
M  V30 198 C 17.1891 1.65902 1.64313 0
M  V30 199 C 18.1701 0.507897 1.6234 0
M  V30 200 O 19.3551 0.740503 1.79528 0
M  V30 201 C 16.4851 1.69911 3.02898 0
M  V30 202 C 15.4391 2.8453 3.19729 0
M  V30 203 C 14.7651 2.73629 4.59381 0
M  V30 204 C 16.0651 4.25821 3.02447 0
M  V30 205 H 17.7591 2.5914 1.49955 0
M  V30 206 H 15.3051 1.24709 0.719982 0
M  V30 207 H 17.2581 1.80715 3.80684 0
M  V30 208 H 15.9821 0.732524 3.18279 0
M  V30 209 H 14.6411 2.73283 2.44361 0
M  V30 210 H 14.2891 1.74938 4.71599 0
M  V30 211 H 13.9891 3.50541 4.71588 0
M  V30 212 H 15.5131 2.86401 5.39265 0
M  V30 213 H 16.9271 4.37898 3.70024 0
M  V30 214 H 15.3241 5.03735 3.26146 0
M  V30 215 H 16.3941 4.42244 1.98867 0
M  V30 216 N 17.7372 -0.778329 1.37039 0
M  V30 217 C 18.9622 -1.57248 1.35233 0
M  V30 218 C 19.3872 -1.87999 -0.0615568 0
M  V30 219 O 18.7452 -1.48734 -1.03672 0
M  V30 220 C 18.7932 -2.86353 2.19167 0
M  V30 221 O 17.8972 -3.80442 1.59178 0
M  V30 222 H 17.2382 -0.476569 0.462362 0
M  V30 223 H 19.7682 -0.963853 1.80474 0
M  V30 224 H 19.7782 -3.35519 2.32145 0
M  V30 225 H 18.4532 -2.63299 3.21942 0
M  V30 226 H 17.0302 -3.39067 1.55203 0
M  V30 227 N 19.2153 -1.21501 -1.00376 0
M  V30 228 C 20.6263 -1.03146 -1.55621 0
M  V30 229 C 20.9773 0.408375 -1.91903 0
M  V30 230 O 20.1023 1.29177 -1.73616 0
M  V30 231 C 20.6973 -1.86612 -2.82775 0
M  V30 232 C 19.2563 -1.72586 -3.34501 0
M  V30 233 C 18.4033 -1.83747 -2.07683 0
M  V30 234 H 21.3543 -1.35505 -0.826081 0
M  V30 235 H 21.3753 -1.3771 -3.54706 0
M  V30 236 H 20.8873 -2.91399 -2.56336 0
M  V30 237 H 18.9883 -0.704877 -3.65872 0
M  V30 238 H 19.1013 -2.54623 -4.05837 0
M  V30 239 H 17.4653 -1.27069 -2.20739 0
M  V30 240 H 18.2483 -2.90044 -1.83655 0
M  V30 241 N 20.6934 1.19889 -1.02296 0
M  V30 242 C 21.6254 2.22334 -0.556787 0
M  V30 243 C 22.6384 1.58674 0.364199 0
M  V30 244 O 23.8274 1.77768 0.161533 0
M  V30 245 C 20.9274 3.38257 0.208694 0
M  V30 246 C 20.1004 4.31504 -0.71577 0
M  V30 247 C 19.1594 5.262 0.00325597 0
M  V30 248 O 18.1854 5.65798 -0.621357 0
M  V30 249 N 19.3874 5.66303 1.27599 0
M  V30 250 H 22.1524 2.62957 -1.43784 0
M  V30 251 H 19.7134 1.34495 -0.901261 0
M  V30 252 H 21.7054 3.98616 0.699111 0
M  V30 253 H 20.2754 2.96472 0.991102 0
M  V30 254 H 19.4954 3.69016 -1.38638 0
M  V30 255 H 20.7834 4.9072 -1.34428 0
M  V30 256 H 20.1814 5.36155 1.80429 0
M  V30 257 H 18.7384 6.28942 1.71102 0
M  V30 258 N 22.1715 0.800033 1.35784 0
M  V30 259 C 23.4195 0.376597 1.9856 0
M  V30 260 C 23.7405 -1.05812 1.63795 0
M  V30 261 O 23.0105 -1.73103 0.917171 0
M  V30 262 H 21.5905 0.136261 0.734467 0
M  V30 263 H 24.2525 1.02442 1.65806 0
M  V30 264 H 23.3485 0.477002 3.08433 0
M  V30 265 N 23.6496 -1.47581 0.552962 0
M  V30 266 C 24.6126 -2.28439 -0.186605 0
M  V30 267 C 25.6126 -1.36706 -0.84665 0
M  V30 268 O 26.8026 -1.59378 -0.703164 0
M  V30 269 C 23.9346 -3.16264 -1.2724 0
M  V30 270 H 25.1276 -2.95294 0.523609 0
M  V30 271 H 22.6806 -1.532 0.309745 0
M  V30 272 H 23.4156 -2.54091 -2.01514 0
M  V30 273 H 23.2006 -3.83769 -0.803968 0
M  V30 274 H 24.6906 -3.77198 -1.79196 0
M  V30 275 N 25.1277 -0.289203 -1.54924 0
M  V30 276 C 26.3527 0.329299 -2.04769 0
M  V30 277 C 26.7777 1.4763 -1.16564 0
M  V30 278 O 26.1357 1.80527 -0.167186 0
M  V30 279 C 26.1837 0.774438 -3.52186 0
M  V30 280 O 25.2877 1.88038 -3.67036 0
M  V30 281 H 24.6287 0.0659259 -0.660719 0
M  V30 282 H 27.1587 -0.42761 -2.00082 0
M  V30 283 H 27.1687 1.06642 -3.93816 0
M  V30 284 H 25.8437 -0.0646707 -4.1585 0
M  V30 285 H 24.4207 1.58985 -3.3731 0
M  V30 286 N 26.6058 1.57591 -0.0167156 0
M  V30 287 C 27.5358 2.12496 0.967858 0
M  V30 288 C 28.5168 1.03807 1.34752 0
M  V30 289 O 29.7018 1.31577 1.42833 0
M  V30 290 C 26.8318 2.64194 2.25431 0
M  V30 291 C 25.7858 3.77559 2.01576 0
M  V30 292 C 25.1118 4.15636 3.36379 0
M  V30 293 C 26.4118 5.04151 1.36489 0
M  V30 294 H 28.1058 2.95013 0.510643 0
M  V30 295 H 25.6518 1.41915 0.244181 0
M  V30 296 H 27.6048 3.01236 2.94678 0
M  V30 297 H 26.3288 1.78821 2.73296 0
M  V30 298 H 24.9878 3.40937 1.34751 0
M  V30 299 H 24.6358 3.27263 3.81979 0
M  V30 300 H 24.3358 4.92022 3.21229 0
M  V30 301 H 25.8598 4.5525 4.06915 0
M  V30 302 H 27.2738 5.38857 1.95718 0
M  V30 303 H 25.6708 5.85453 1.31776 0
M  V30 304 H 26.7408 4.83733 0.336219 0
M  V30 305 N 28.0839 -0.256276 1.55502 0
M  V30 306 C 29.0339 -1.31981 1.85916 0
M  V30 307 C 30.0179 -1.43927 0.719296 0
M  V30 308 O 31.2099 -1.47326 0.981019 0
M  V30 309 C 28.3389 -2.67703 2.14918 0
M  V30 310 C 27.4249 -2.59801 3.35208 0
M  V30 311 N 27.8159 -2.21524 4.54709 0
M  V30 312 C 26.1139 -2.90832 3.38131 0
M  V30 313 C 26.8149 -2.24024 5.36832 0
M  V30 314 N 25.7909 -2.63158 4.75656 0
M  V30 315 H 29.5929 -1.01423 2.75845 0
M  V30 316 H 27.1069 -0.464911 1.55603 0
M  V30 317 H 29.1039 -3.44445 2.34869 0
M  V30 318 H 27.7639 -2.99137 1.26282 0
M  V30 319 H 28.7749 -1.93223 4.80505 0
M  V30 320 H 25.4519 -3.26867 2.59739 0
M  V30 321 H 26.8419 -1.9685 6.42417 0
M  V30 322 N 29.562 -1.4872 -0.521534 0
M  V30 323 C 30.978 -1.35028 -0.850855 0
M  V30 324 C 31.178 -0.367712 -1.98116 0
M  V30 325 O 30.234 0.208037 -2.51642 0
M  V30 326 C 31.547 -2.75263 -1.21041 0
M  V30 327 C 33.095 -2.83813 -1.31981 0
M  V30 328 C 33.57 -4.24769 -1.71276 0
M  V30 329 N 35.061 -4.27482 -1.78363 0
M  V30 330 C 35.796 -5.33494 -2.1017 0
M  V30 331 N 35.292 -6.49775 -2.40343 0
M  V30 332 N 37.085 -5.20894 -2.11248 0
M  V30 333 H 29.236 -2.11214 0.22413 0
M  V30 334 H 31.499 -0.947252 0.0376439 0
M  V30 335 H 31.205 -3.48765 -0.453415 0
M  V30 336 H 31.079 -3.09327 -2.15863 0
M  V30 337 H 33.466 -2.10561 -2.06756 0
M  V30 338 H 33.547 -2.53358 -0.352596 0
M  V30 339 H 33.191 -4.9854 -0.970588 0
M  V30 340 H 33.121 -4.52673 -2.69062 0
M  V30 341 H 35.612 -3.43611 -1.57288 0
M  V30 342 H 35.925 -7.26402 -2.63743 0
M  V30 343 H 34.27 -6.53035 -2.37844 0
M  V30 344 H 37.461 -4.29065 -1.87139 0
M  V30 345 H 37.634 -6.03612 -2.35704 0
M  V30 346 N 31.0401 0.771051 -1.3745 0
M  V30 347 C 31.9901 1.87456 -1.29785 0
M  V30 348 C 32.9741 1.59827 -0.185541 0
M  V30 349 O 34.1661 1.71945 -0.419997 0
M  V30 350 C 31.2951 3.24935 -1.1078 0
M  V30 351 C 30.3811 3.58514 -2.26558 0
M  V30 352 N 30.7721 3.6327 -3.5195 0
M  V30 353 C 29.0701 3.88683 -2.18727 0
M  V30 354 C 29.7711 3.93616 -4.283 0
M  V30 355 N 28.7471 4.09551 -3.57448 0
M  V30 356 H 32.5491 1.89386 -2.24745 0
M  V30 357 H 30.0631 0.967531 -1.30432 0
M  V30 358 H 32.0601 4.03881 -1.03374 0
M  V30 359 H 30.7201 3.24268 -0.16738 0
M  V30 360 H 31.7311 3.45458 -3.85848 0
M  V30 361 H 28.4081 3.95834 -1.32746 0
M  V30 362 H 29.7981 4.04066 -5.36824 0
M  V30 363 N 32.5182 1.22032 0.997298 0
M  V30 364 C 33.4682 0.953838 2.07089 0
M  V30 365 C 34.4522 -0.0938669 1.60626 0
M  V30 366 O 35.6442 0.116078 1.76619 0
M  V30 367 C 32.7732 0.528726 3.39204 0
M  V30 368 C 31.8592 1.61092 3.92314 0
M  V30 369 N 32.2502 2.83768 4.18699 0
M  V30 370 C 30.5482 1.48158 4.20672 0
M  V30 371 C 31.2492 3.53715 4.61802 0
M  V30 372 N 30.2252 2.81174 4.65233 0
M  V30 373 H 34.0272 1.88577 2.25424 0
M  V30 374 H 31.5412 1.11719 1.17867 0
M  V30 375 H 33.5382 0.31915 4.15677 0
M  V30 376 H 32.1982 -0.39635 3.22272 0
M  V30 377 H 33.2092 3.20238 4.07023 0
M  V30 378 H 29.8862 0.622369 4.12835 0
M  V30 379 H 31.2762 4.58793 4.90875 0
M  V30 380 N 33.9963 -1.19345 1.0293 0
M  V30 381 C 35.4073 -1.70725 0.755633 0
M  V30 382 C 35.7583 -1.82326 -0.724676 0
M  V30 383 O 34.8833 -1.49471 -1.56484 0
M  V30 384 C 35.4783 -3.10084 1.36503 0
M  V30 385 C 34.0373 -3.58723 1.13994 0
M  V30 386 C 33.1843 -2.35577 1.46283 0
M  V30 387 H 36.1353 -1.0418 1.19718 0
M  V30 388 H 36.1563 -3.72787 0.762217 0
M  V30 389 H 35.6683 -3.01609 2.44241 0
M  V30 390 H 33.7693 -3.72512 0.0807901 0
M  V30 391 H 33.8823 -4.42816 1.82894 0
M  V30 392 H 32.2463 -2.38935 0.88217 0
M  V30 393 H 33.0293 -2.29731 2.55105 0
M  V30 394 N 35.4744 -0.807222 -1.35358 0
M  V30 395 C 36.8904 -0.491038 -1.51858 0
M  V30 396 C 37.0904 0.987648 -1.75635 0
M  V30 397 O 36.1464 1.77265 -1.79815 0
M  V30 398 C 37.4594 -1.33695 -2.69344 0
M  V30 399 C 39.0074 -1.33246 -2.83222 0
M  V30 400 C 39.4824 -2.1625 -4.03733 0
M  V30 401 N 40.9734 -2.1379 -4.10911 0
M  V30 402 C 41.7084 -2.74772 -5.03277 0
M  V30 403 N 41.2044 -3.44684 -6.0097 0
M  V30 404 N 42.9974 -2.6441 -4.96028 0
M  V30 405 H 35.1484 -1.76485 -1.18181 0
M  V30 406 H 37.4114 -0.751199 -0.578276 0
M  V30 407 H 37.1174 -2.38634 -2.58354 0
M  V30 408 H 36.9914 -0.990618 -3.6396 0
M  V30 409 H 39.3784 -0.290911 -2.93663 0
M  V30 410 H 39.4594 -1.71866 -1.89461 0
M  V30 411 H 39.1034 -3.20445 -3.94052 0
M  V30 412 H 39.0334 -1.74989 -4.96675 0
M  V30 413 H 41.5244 -1.62923 -3.40976 0
M  V30 414 H 41.8374 -3.88501 -6.68047 0
M  V30 415 H 40.1824 -3.48788 -6.01142 0
M  V30 416 H 43.3734 -2.0938 -4.18662 0
M  V30 417 H 43.5464 -3.12225 -5.6782 0
M  V30 418 N 36.9525 1.47285 -0.560781 0
M  V30 419 C 37.8625 2.33846 0.187954 0
M  V30 420 C 38.8785 1.48412 0.908293 0
M  V30 421 O 40.0545 1.81332 0.876388 0
M  V30 422 C 37.1195 3.25178 1.2025 0
M  V30 423 C 36.1805 4.26504 0.489208 0
M  V30 424 C 35.4135 5.13472 1.45542 0
M  V30 425 O 35.6365 5.02959 2.6905 0
M  V30 426 O 34.5705 5.93902 0.977963 0
M  V30 427 H 38.3965 2.99177 -0.522177 0
M  V30 428 H 35.9815 1.45903 -0.321364 0
M  V30 429 H 37.8635 3.81584 1.78805 0
M  V30 430 H 36.5385 2.6247 1.89449 0
M  V30 431 H 35.4455 3.73847 -0.137627 0
M  V30 432 H 36.7785 4.91935 -0.161399 0
M  V30 433 N 38.4306 0.297415 1.54768 0
M  V30 434 C 39.3636 -0.622188 2.19554 0
M  V30 435 C 40.3416 -1.13558 1.16376 0
M  V30 436 O 41.5256 -1.20444 1.45002 0
M  V30 437 C 38.6526 -1.8509 2.83653 0
M  V30 438 C 37.6986 -1.47106 4.00328 0
M  V30 439 S 38.5316 -0.53006 5.3287 0
M  V30 440 C 39.6876 -1.76665 6.0045 0
M  V30 441 H 39.9206 -0.0717806 2.97213 0
M  V30 442 H 37.4536 0.0815678 1.54184 0
M  V30 443 H 39.4116 -2.55605 3.21211 0
M  V30 444 H 38.0726 -2.37247 2.05846 0
M  V30 445 H 37.2656 -2.38594 4.43947 0
M  V30 446 H 36.8676 -0.845885 3.64309 0
M  V30 447 H 39.1596 -2.7077 6.21039 0
M  V30 448 H 40.1026 -1.37308 6.9466 0
M  V30 449 H 40.5106 -1.94174 5.30054 0
M  V30 450 N 39.9087 -1.5758 0.0250728 0
M  V30 451 C 40.8557 -2.09973 -0.958129 0
M  V30 452 C 41.8257 -1.00085 -1.3256 0
M  V30 453 O 43.0107 -1.27481 -1.41962 0
M  V30 454 C 40.1507 -2.62812 -2.2366 0
M  V30 455 C 39.2637 -3.86693 -1.92594 0
M  V30 456 C 38.3987 -4.27941 -3.14707 0
M  V30 457 C 37.4377 -5.44591 -2.79442 0
M  V30 458 N 36.5747 -5.81014 -3.94167 0
M  V30 459 H 41.4147 -2.937 -0.504428 0
M  V30 460 H 38.9517 -1.45172 -0.237392 0
M  V30 461 H 40.9097 -2.91536 -2.98434 0
M  V30 462 H 39.5397 -1.81922 -2.66654 0
M  V30 463 H 38.5917 -3.64723 -1.0808 0
M  V30 464 H 39.9037 -4.71547 -1.62619 0
M  V30 465 H 39.0577 -4.58079 -3.97804 0
M  V30 466 H 37.7967 -3.41845 -3.4784 0
M  V30 467 H 36.8017 -5.1415 -1.94755 0
M  V30 468 H 38.0267 -6.32382 -2.47528 0
M  V30 469 H 35.9727 -4.97874 -4.2715 0
M  V30 470 H 35.8897 -6.60498 -3.67801 0
M  V30 471 H 37.1577 -6.15756 -4.7798 0
M  V30 472 N 41.3868 0.248026 -1.55636 0
M  V30 473 C 42.3338 1.30707 -1.90222 0
M  V30 474 C 43.3038 1.47881 -0.756332 0
M  V30 475 O 44.4888 1.61883 -1.00988 0
M  V30 476 C 41.6288 2.65769 -2.20138 0
M  V30 477 C 40.7418 2.56612 -3.47526 0
M  V30 478 C 39.8768 3.8402 -3.67017 0
M  V30 479 C 38.9158 3.69476 -4.8801 0
M  V30 480 N 38.0528 4.88774 -5.04029 0
M  V30 481 H 42.8928 1.00512 -2.80538 0
M  V30 482 H 40.4298 0.485055 -1.38873 0
M  V30 483 H 42.3878 3.44386 -2.35487 0
M  V30 484 H 41.0178 2.94115 -1.33027 0
M  V30 485 H 40.0698 1.69571 -3.40514 0
M  V30 486 H 41.3818 2.41774 -4.36287 0
M  V30 487 H 40.5358 4.7108 -3.8232 0
M  V30 488 H 39.2748 4.01754 -2.76487 0
M  V30 489 H 38.2798 2.80799 -4.72686 0
M  V30 490 H 39.5048 3.53238 -5.8 0
M  V30 491 H 37.4508 5.0687 -4.16435 0
M  V30 492 H 37.3678 4.76562 -5.86877 0
M  V30 493 H 38.6358 5.77335 -5.23741 0
M  V30 494 N 42.8649 1.48995 0.513639 0
M  V30 495 C 44.2809 1.35478 0.843682 0
M  V30 496 C 44.4809 0.378213 1.97919 0
M  V30 497 O 43.5369 -0.194689 2.51748 0
M  V30 498 C 44.8499 2.75901 1.1958 0
M  V30 499 C 46.3979 2.84509 1.30474 0
M  V30 500 C 46.8729 4.25671 1.69021 0
M  V30 501 N 48.3639 4.28422 1.76094 0
M  V30 502 C 49.0989 5.34601 2.07338 0
M  V30 503 N 48.5949 6.5104 2.36894 0
M  V30 504 N 50.3879 5.22007 2.08483 0
M  V30 505 H 42.5389 2.11092 -0.235328 0
M  V30 506 H 44.8019 0.947039 -0.0426669 0
M  V30 507 H 44.5079 3.49001 0.434913 0
M  V30 508 H 44.3819 3.10467 2.1422 0
M  V30 509 H 46.7689 2.11655 2.05637 0
M  V30 510 H 46.8499 2.53542 0.339155 0
M  V30 511 H 46.4939 4.99048 0.944135 0
M  V30 512 H 46.4239 4.54094 2.66658 0
M  V30 513 H 48.9149 3.44441 1.55464 0
M  V30 514 H 49.2279 7.2779 2.59887 0
M  V30 515 H 47.5729 6.54287 2.34378 0
M  V30 516 H 50.7639 4.30051 1.84861 0
M  V30 517 H 50.9369 6.04854 2.325 0
M  V30 518 N 44.343 -0.763751 1.37857 0
M  V30 519 C 45.589 -1.52483 1.33704 0
M  V30 520 C 45.922 -1.94051 -0.0759612 0
M  V30 521 O 45.197 -1.64675 -1.03501 0
M  V30 522 C 45.48 -2.78441 2.28348 0
M  V30 523 C 45.333 -2.43075 3.78463 0
M  V30 524 C 46.652 -3.80415 2.21298 0
M  V30 525 H 43.771 -0.553169 0.487005 0
M  V30 526 H 46.413 -0.875562 1.68624 0
M  V30 527 H 44.563 -3.33842 1.987 0
M  V30 528 H 46.235 -1.93527 4.18742 0
M  V30 529 H 44.478 -1.75666 3.96641 0
M  V30 530 H 45.149 -3.33149 4.40132 0
M  V30 531 H 47.625 -3.34527 2.47449 0
M  V30 532 H 46.501 -4.66257 2.89647 0
M  V30 533 H 46.762 -4.25262 1.20849 0
M  V30 534 N 45.8211 -1.22559 -0.990812 0
M  V30 535 C 46.7311 -1.01394 -2.11557 0
M  V30 536 C 47.7471 0.0383962 -1.73958 0
M  V30 537 O 48.9231 -0.154787 -2.00804 0
M  V30 538 C 45.9881 -0.596569 -3.41529 0
M  V30 539 C 45.0491 -1.72276 -3.93217 0
M  V30 540 C 44.2821 -1.32521 -5.16985 0
M  V30 541 O 44.5051 -0.204909 -5.70032 0
M  V30 542 O 43.4391 -2.14247 -5.62478 0
M  V30 543 H 47.2651 -1.95633 -2.32296 0
M  V30 544 H 44.8501 -1.01172 -1.0993 0
M  V30 545 H 46.7321 -0.374263 -4.19735 0
M  V30 546 H 45.4071 0.316939 -3.22145 0
M  V30 547 H 44.3141 -1.99961 -3.16174 0
M  V30 548 H 45.6471 -2.61421 -4.17037 0
M  V30 549 N 47.2992 1.18797 -1.03562 0
M  V30 550 C 48.5762 1.84469 -0.650434 0
M  V30 551 C 48.9562 1.92319 0.870433 0
M  V30 552 O 48.3042 1.44528 1.76986 0
M  V30 553 C 48.5142 3.2306 -1.32036 0
M  V30 554 C 49.8622 3.9915 -1.44792 0
M  V30 555 O 50.8862 3.32481 -1.27806 0
M  V30 556 O 49.7452 5.18587 -1.72423 0
M  V30 557 H 46.8392 0.795251 -0.226946 0
M  V30 558 H 49.3852 1.26231 -1.13419 0
M  V30 559 H 48.1572 3.1222 -2.3587 0
M  V30 560 H 47.7802 3.88949 -0.8249 0
M  V30 561 N 48.7773 0.814389 1.34928 0
M  V30 562 C 49.7073 0.244827 2.32213 0
M  V30 563 C 50.6883 -0.634024 1.57842 0
M  V30 564 O 51.8733 -0.562676 1.8587 0
M  V30 565 C 49.0033 -0.601106 3.42058 0
M  V30 566 C 47.9573 0.179896 4.27622 0
M  V30 567 C 47.2833 -0.788237 5.28858 0
M  V30 568 C 48.5833 1.38329 5.03649 0
M  V30 569 H 50.2773 1.05763 2.80097 0
M  V30 570 H 47.8233 0.510029 1.34665 0
M  V30 571 H 49.7763 -1.00968 4.09125 0
M  V30 572 H 48.5003 -1.44688 2.92802 0
M  V30 573 H 47.1593 0.569739 3.62146 0
M  V30 574 H 46.8073 -1.62973 4.75866 0
M  V30 575 H 46.5073 -0.269942 5.8698 0
M  V30 576 H 48.0313 -1.19485 5.98795 0
M  V30 577 H 49.4453 1.04918 5.63618 0
M  V30 578 H 47.8423 1.83662 5.71304 0
M  V30 579 H 48.9123 2.16592 4.33839 0
M  V30 580 N 50.2554 -1.46986 0.568584 0
M  V30 581 C 51.2054 -2.27179 -0.193339 0
M  V30 582 C 52.1894 -1.35035 -0.874895 0
M  V30 583 O 53.3814 -1.5931 -0.771322 0
M  V30 584 C 50.5104 -3.21063 -1.21546 0
M  V30 585 C 49.5964 -4.2069 -0.536738 0
M  V30 586 N 49.9874 -5.04218 0.399673 0
M  V30 587 C 48.2854 -4.38961 -0.789254 0
M  V30 588 C 48.9864 -5.76242 0.795017 0
M  V30 589 N 47.9624 -5.434 0.1473 0
M  V30 590 H 51.7644 -2.89146 0.526458 0
M  V30 591 H 49.2784 -1.57664 0.389342 0
M  V30 592 H 51.2754 -3.77209 -1.77536 0
M  V30 593 H 49.9354 -2.60654 -1.93623 0
M  V30 594 H 50.9464 -5.12077 0.774454 0
M  V30 595 H 47.6234 -3.89713 -1.49767 0
M  V30 596 H 49.0134 -6.53417 1.56513 0
M  V30 597 N 51.7335 -0.305618 -1.54608 0
M  V30 598 C 52.9795 0.302746 -2.00528 0
M  V30 599 C 53.3125 1.53184 -1.19367 0
M  V30 600 O 52.5875 1.92598 -0.271321 0
M  V30 601 C 52.8705 0.654756 -3.54097 0
M  V30 602 C 52.7235 -0.583793 -4.45995 0
M  V30 603 C 54.0425 1.47947 -4.14487 0
M  V30 604 H 51.1615 0.108564 -0.72896 0
M  V30 605 H 53.8035 -0.418634 -1.85331 0
M  V30 606 H 51.9535 1.26935 -3.67178 0
M  V30 607 H 53.6255 -1.22224 -4.44814 0
M  V30 608 H 51.8685 -1.21615 -4.16404 0
M  V30 609 H 52.5395 -0.293287 -5.5122 0
M  V30 610 H 55.0155 0.96013 -4.04871 0
M  V30 611 H 53.8915 1.69454 -5.22088 0
M  V30 612 H 54.1525 2.47011 -3.66658 0
M  V30 613 N 53.2116 1.57565 -0.0334293 0
M  V30 614 C 54.4596 1.91598 0.642999 0
M  V30 615 C 54.7806 0.910847 1.7242 0
M  V30 616 O 54.0506 -0.0469931 1.95844 0
M  V30 617 H 52.6306 0.707228 0.240496 0
M  V30 618 H 55.2926 1.94726 -0.0822488 0
M  V30 619 H 54.3886 2.92336 1.09298 0
M  V30 620 N 54.6897 -0.239769 1.55765 0
M  V30 621 C 55.6527 -1.28038 1.90103 0
M  V30 622 C 56.6527 -1.40723 0.778055 0
M  V30 623 O 57.8427 -1.39301 1.04599 0
M  V30 624 C 54.9747 -2.65702 2.13577 0
M  V30 625 H 56.1677 -0.988048 2.83157 0
M  V30 626 H 53.7207 -0.479382 1.48767 0
M  V30 627 H 54.4557 -3.00063 1.23015 0
M  V30 628 H 54.2407 -2.57875 2.95369 0
M  V30 629 H 55.7307 -3.40828 2.41301 0
M  V30 630 N 56.1678 -1.49265 -0.50573 0
M  V30 631 C 57.3958 -1.62215 -1.28429 0
M  V30 632 C 57.8108 -0.291697 -1.86533 0
M  V30 633 O 57.1678 0.722233 -1.67601 0
M  V30 634 C 57.2188 -2.68735 -2.41793 0
M  V30 635 O 56.9398 -3.96619 -1.86078 0
M  V30 636 C 58.4408 -2.92346 -3.3324 0
M  V30 637 H 55.6608 -0.546239 -0.389697 0
M  V30 638 H 58.2048 -1.95265 -0.607609 0
M  V30 639 H 56.3598 -2.38476 -3.053 0
M  V30 640 H 56.7738 -4.55256 -2.60465 0
M  V30 641 H 58.2478 -3.70623 -4.09075 0
M  V30 642 H 58.7248 -2.02081 -3.89948 0
M  V30 643 H 59.3308 -3.24003 -2.75503 0
M  V30 644 N 57.6459 0.756429 -1.3826 0
M  V30 645 C 58.8919 1.51772 -1.34511 0
M  V30 646 C 59.2249 1.94089 0.0656691 0
M  V30 647 O 58.4999 1.65221 1.02626 0
M  V30 648 C 58.7829 2.77226 -2.29821 0
M  V30 649 C 58.6359 2.41065 -3.79747 0
M  V30 650 C 59.9549 3.79236 -2.23312 0
M  V30 651 H 57.0739 0.550578 -0.489931 0
M  V30 652 H 59.7159 0.866607 -1.69086 0
M  V30 653 H 57.8659 3.32784 -2.00467 0
M  V30 654 H 59.5379 1.91303 -4.19763 0
M  V30 655 H 57.7809 1.7356 -3.97567 0
M  V30 656 H 58.4519 3.3081 -4.41892 0
M  V30 657 H 60.9279 3.3321 -2.49219 0
M  V30 658 H 59.8039 4.64714 -2.92116 0
M  V30 659 H 60.0649 4.24615 -1.23102 0
M  V30 660 N 59.124 1.23083 0.984299 0
M  V30 661 C 60.087 1.00979 2.05757 0
M  V30 662 C 61.087 -0.0269573 1.60777 0
M  V30 663 O 62.277 0.212403 1.729 0
M  V30 664 C 59.409 0.527072 3.36801 0
M  V30 665 H 60.602 1.9622 2.26799 0
M  V30 666 H 58.155 1.05072 1.15714 0
M  V30 667 H 58.89 -0.429294 3.21446 0
M  V30 668 H 58.675 1.27515 3.70786 0
M  V30 669 H 60.165 0.392942 4.15747 0
M  V30 670 N 60.6021 -1.18246 1.0419 0
M  V30 671 C 62.0131 -1.69914 0.773698 0
M  V30 672 C 62.3641 -1.83085 -0.705297 0
M  V30 673 O 61.4891 -1.51123 -1.5489 0
M  V30 674 C 62.0841 -3.08619 1.39784 0
M  V30 675 C 60.6431 -3.57494 1.17792 0
M  V30 676 C 59.7901 -2.34013 1.48773 0
M  V30 677 H 62.7411 -1.02904 1.20816 0
M  V30 678 H 62.7621 -3.71958 0.801714 0
M  V30 679 H 62.2741 -2.99001 2.47426 0
M  V30 680 H 60.3751 -3.72406 0.120295 0
M  V30 681 H 60.4881 -4.40852 1.87581 0
M  V30 682 H 58.8521 -2.37986 0.907463 0
M  V30 683 H 59.6351 -2.27013 2.57527 0
M  V30 684 N 62.0802 -0.821533 -1.34494 0
M  V30 685 C 63.3052 -0.420873 -2.03085 0
M  V30 686 C 63.7302 0.964915 -1.61465 0
M  V30 687 O 63.0882 1.62763 -0.798607 0
M  V30 688 C 63.1362 -0.529414 -3.56693 0
M  V30 689 O 62.2402 0.451302 -4.09923 0
M  V30 690 H 61.5812 -0.173489 -0.640935 0
M  V30 691 H 64.1112 -1.11157 -1.71771 0
M  V30 692 H 64.1212 -0.404671 -4.05988 0
M  V30 693 H 62.7962 -1.54014 -3.86332 0
M  V30 694 H 61.3732 0.285558 -3.71805 0
M  V30 695 N 63.5583 1.46682 -0.576371 0
M  V30 696 C 64.7833 2.07304 -0.0630475 0
M  V30 697 C 65.2083 1.42329 1.2298 0
M  V30 698 O 64.5663 0.504865 1.74129 0
M  V30 699 C 64.6143 3.60472 0.095895 0
M  V30 700 O 63.7183 3.95927 1.15394 0
M  V30 701 H 63.0593 0.661288 -0.0599463 0
M  V30 702 H 65.5893 1.88417 -0.797511 0
M  V30 703 H 65.5993 4.06865 0.304071 0
M  V30 704 H 64.2743 4.07157 -0.84828 0
M  V30 705 H 62.8513 3.61252 0.924724 0
M  V30 706 N 65.0364 0.313813 1.54444 0
M  V30 707 C 66.4524 -0.0391619 1.59552 0
M  V30 708 C 66.6524 -1.51322 1.33056 0
M  V30 709 O 65.7084 -2.26782 1.11022 0
M  V30 710 C 67.0214 0.370302 2.98411 0
M  V30 711 C 68.5694 0.320139 3.11358 0
M  V30 712 C 69.0444 0.704617 4.52547 0
M  V30 713 N 70.5354 0.657645 4.58508 0
M  V30 714 C 71.2704 0.927453 5.6585 0
M  V30 715 N 70.7664 1.26389 6.81174 0
M  V30 716 N 72.5594 0.853662 5.5558 0
M  V30 717 H 64.7104 1.27433 1.69925 0
M  V30 718 H 66.9734 0.517511 0.794284 0
M  V30 719 H 66.6794 1.39694 3.22767 0
M  V30 720 H 66.5534 -0.269619 3.76235 0
M  V30 721 H 68.9404 -0.697275 2.86744 0
M  V30 722 H 69.0214 0.99486 2.35661 0
M  V30 723 H 68.6654 1.7199 4.77893 0
M  V30 724 H 68.5954 0.00768843 5.26599 0
M  V30 725 H 71.0864 0.409067 3.75679 0
M  V30 726 H 71.3994 1.4554 7.58972 0
M  V30 727 H 69.7444 1.30206 6.82694 0
M  V30 728 H 72.9354 0.590383 4.64362 0
M  V30 729 H 73.1084 1.0673 6.3915 0
M  V30 730 N 66.5145 -1.57545 0.0417849 0
M  V30 731 C 67.9305 -1.56467 -0.314704 0
M  V30 732 C 68.1305 -1.04859 -1.72066 0
M  V30 733 O 67.1865 -0.700983 -2.42575 0
M  V30 734 C 68.4995 -3.00317 -0.15174 0
M  V30 735 C 70.0475 -3.12201 -0.223553 0
M  V30 736 C 70.5225 -4.57913 -0.0892295 0
M  V30 737 N 72.0135 -4.6297 -0.145808 0
M  V30 738 C 72.7485 -5.73362 -0.0658459 0
M  V30 739 N 72.2445 -6.92769 0.0659282 0
M  V30 740 N 74.0375 -5.6197 -0.12075 0
M  V30 741 H 66.1885 -1.89416 0.961014 0
M  V30 742 H 68.4515 -0.871862 0.372237 0
M  V30 743 H 68.1575 -3.42073 0.817254 0
M  V30 744 H 68.0315 -3.65892 -0.916692 0
M  V30 745 H 70.4185 -2.70349 -1.18301 0
M  V30 746 H 70.4995 -2.49323 0.571994 0
M  V30 747 H 70.1435 -5.00448 0.866867 0
M  V30 748 H 70.0735 -5.18786 -0.903802 0
M  V30 749 H 72.5645 -3.7709 -0.247286 0
M  V30 750 H 72.8775 -7.72707 0.119905 0
M  V30 751 H 71.2225 -6.94927 0.100885 0
M  V30 752 H 74.4135 -4.67572 -0.222187 0
M  V30 753 H 74.5865 -6.47977 -0.0549735 0
M  V30 754 N 67.9926 0.231505 -1.5589 0
M  V30 755 C 69.2696 0.981096 -1.69215 0
M  V30 756 C 69.6496 2.02799 -0.586164 0
M  V30 757 O 68.9976 2.24823 0.408253 0
M  V30 758 C 69.2076 1.60054 -3.10135 0
M  V30 759 C 70.5556 2.09658 -3.69227 0
M  V30 760 O 71.5796 1.69967 -3.13033 0
M  V30 761 O 70.4386 2.8258 -4.67772 0
M  V30 762 H 67.5326 0.457653 -0.688827 0
M  V30 763 H 70.0786 0.224073 -1.68214 0
M  V30 764 H 68.8506 0.844105 -3.82087 0
M  V30 765 H 68.4736 2.42336 -3.15212 0
M  V30 766 N 69.4707 1.49531 0.497807 0
M  V30 767 C 70.7177 1.59179 1.25173 0
M  V30 768 C 71.0457 0.279932 1.92475 0
M  V30 769 O 70.3007 -0.732383 1.81479 0
M  V30 770 C 70.5997 2.70252 2.33878 0
M  V30 771 C 70.2657 4.11644 1.84012 0
M  V30 772 C 68.9277 4.50121 1.70132 0
M  V30 773 C 71.2797 5.00121 1.46725 0
M  V30 774 C 68.6077 5.74845 1.17348 0
M  V30 775 C 70.9597 6.25366 0.95392 0
M  V30 776 C 69.6237 6.6267 0.801538 0
M  V30 777 H 68.8937 0.582478 0.45804 0
M  V30 778 H 71.5407 1.83373 0.551948 0
M  V30 779 H 69.8457 2.40041 3.09657 0
M  V30 780 H 71.5427 2.74925 2.9192 0
M  V30 781 H 68.1327 3.81274 1.95775 0
M  V30 782 H 72.3167 4.71048 1.56294 0
M  V30 783 H 67.5727 6.02444 1.04264 0
M  V30 784 H 71.7467 6.93301 0.656225 0
M  V30 785 H 69.3737 7.59197 0.390351 0
M  V30 786 N 70.9488 -0.749086 1.3866 0
M  V30 787 C 72.1768 -1.53834 1.38358 0
M  V30 788 C 72.5918 -1.88783 -0.0255219 0
M  V30 789 O 71.9488 -1.53101 -0.993292 0
M  V30 790 C 71.9998 -2.83468 2.2434 0
M  V30 791 O 71.7208 -2.50008 3.5976 0
M  V30 792 C 73.2218 -3.7758 2.32267 0
M  V30 793 H 70.4418 -0.47585 0.473083 0
M  V30 794 H 72.9858 -0.926726 1.82297 0
M  V30 795 H 71.1408 -3.40995 1.83851 0
M  V30 796 H 71.5548 -3.33182 4.05081 0
M  V30 797 H 73.0288 -4.65478 2.96706 0
M  V30 798 H 73.5058 -4.18334 1.33765 0
M  V30 799 H 74.1118 -3.25976 2.73166 0
M  V30 800 N 72.4269 -1.23603 -0.977757 0
M  V30 801 C 73.6739 -1.06971 -1.71941 0
M  V30 802 C 74.0019 0.393009 -1.90488 0
M  V30 803 O 73.2569 1.30719 -1.4564 0
M  V30 804 C 73.5559 -1.7433 -3.11999 0
M  V30 805 C 73.2219 -3.24252 -3.13323 0
M  V30 806 C 71.8839 -3.65156 -3.13392 0
M  V30 807 C 74.2359 -4.20141 -3.08433 0
M  V30 808 C 71.5639 -5.00403 -3.0629 0
M  V30 809 C 73.9159 -5.55384 -3.02873 0
M  V30 810 C 72.5799 -5.95647 -3.01265 0
M  V30 811 H 71.8499 -0.391433 -0.629175 0
M  V30 812 H 74.4969 -1.53572 -1.14403 0
M  V30 813 H 72.8019 -1.20096 -3.7294 0
M  V30 814 H 74.4989 -1.58936 -3.68158 0
M  V30 815 H 71.0889 -2.91692 -3.14029 0
M  V30 816 H 75.2729 -3.89547 -3.07517 0
M  V30 817 H 70.5289 -5.3081 -3.03399 0
M  V30 818 H 74.7029 -6.29398 -2.98046 0
M  V30 819 H 72.3299 -7.0041 -2.95516 0
M  V30 820 N 73.905 1.17692 -1.04816 0
M  V30 821 C 75.182 1.83768 -0.669963 0
M  V30 822 C 75.562 1.93232 0.849986 0
M  V30 823 O 74.91 1.46397 1.75443 0
M  V30 824 C 75.12 3.21641 -1.35455 0
M  V30 825 C 76.468 3.97592 -1.49017 0
M  V30 826 O 77.492 3.31107 -1.31326 0
M  V30 827 O 76.351 5.16729 -1.77914 0
M  V30 828 H 73.445 0.792799 -0.235368 0
M  V30 829 H 75.991 1.25021 -1.14751 0
M  V30 830 H 74.763 3.097 -2.39168 0
M  V30 831 H 74.386 3.88052 -0.866107 0
M  V30 832 N 75.3831 0.828654 1.34056 0
M  V30 833 C 76.3131 0.269443 2.3194 0
M  V30 834 C 77.2941 -0.617247 1.58506 0
M  V30 835 O 78.4791 -0.542931 1.86456 0
M  V30 836 C 75.6091 -0.564793 3.42677 0
M  V30 837 C 74.5631 0.225241 4.27407 0
M  V30 838 C 73.8891 -0.7321 5.29664 0
M  V30 839 C 75.1891 1.43663 5.02154 0
M  V30 840 H 76.8831 1.08728 2.7896 0
M  V30 841 H 74.4291 0.524283 1.34117 0
M  V30 842 H 76.3821 -0.966233 4.10173 0
M  V30 843 H 75.1061 -1.41574 2.9432 0
M  V30 844 H 73.7651 0.608117 3.61521 0
M  V30 845 H 73.4131 -1.57916 4.77568 0
M  V30 846 H 73.1131 -0.20767 5.87233 0
M  V30 847 H 74.6371 -1.13128 6.00029 0
M  V30 848 H 76.0511 1.1089 5.62473 0
M  V30 849 H 74.4481 1.89711 5.69324 0
M  V30 850 H 75.5181 2.21181 4.31517 0
M  V30 851 N 76.8612 -1.46375 0.584142 0
M  V30 852 C 78.0912 -2.06461 0.0758195 0
M  V30 853 C 78.4992 -1.43322 -1.23512 0
M  V30 854 O 77.8422 -0.533216 -1.75791 0
M  V30 855 C 77.9042 -3.59131 -0.162773 0
M  V30 856 C 77.5682 -4.4447 1.06279 0
M  V30 857 C 78.5652 -4.80918 1.97519 0
M  V30 858 C 76.2502 -4.85584 1.28504 0
M  V30 859 C 78.2442 -5.57309 3.09331 0
M  V30 860 C 75.9312 -5.61734 2.4062 0
M  V30 861 C 76.9292 -5.9751 3.30863 0
M  V30 862 O 76.6172 -6.72121 4.41032 0
M  V30 863 H 76.3492 -0.673745 0.0551725 0
M  V30 864 H 78.9032 -1.88969 0.804984 0
M  V30 865 H 77.1332 -3.74936 -0.946565 0
M  V30 866 H 78.8222 -4.0114 -0.619782 0
M  V30 867 H 79.5882 -4.49732 1.81565 0
M  V30 868 H 75.4672 -4.57187 0.591702 0
M  V30 869 H 79.0112 -5.85152 3.79793 0
M  V30 870 H 74.9082 -5.92334 2.56537 0
M  V30 871 H 75.6762 -6.90547 4.39417 0
M  V30 872 N 78.3393 -0.321999 -1.54275 0
M  V30 873 C 79.7553 0.0306999 -1.5957 0
M  V30 874 C 79.9553 1.50614 -1.33857 0
M  V30 875 O 79.0113 2.2619 -1.12223 0
M  V30 876 C 80.3243 -0.386122 -2.98211 0
M  V30 877 C 81.8723 -0.336647 -3.11184 0
M  V30 878 C 82.3473 -0.728607 -4.52167 0
M  V30 879 N 83.8383 -0.681952 -4.58152 0
M  V30 880 C 84.5733 -0.957449 -5.6535 0
M  V30 881 N 84.0693 -1.3 -6.80494 0
M  V30 882 N 85.8623 -0.883113 -5.55119 0
M  V30 883 H 78.0133 -1.28332 -1.69247 0
M  V30 884 H 80.2763 -0.521716 -0.791528 0
M  V30 885 H 79.9823 -1.41404 -3.22022 0
M  V30 886 H 79.8563 0.249662 -3.76373 0
M  V30 887 H 82.2433 0.682058 -2.8711 0
M  V30 888 H 82.3243 -1.00734 -2.3513 0
M  V30 889 H 81.9683 -1.74522 -4.76974 0
M  V30 890 H 81.8983 -0.0356152 -5.26588 0
M  V30 891 H 84.3893 -0.428985 -3.75457 0
M  V30 892 H 84.7023 -1.49563 -7.58189 0
M  V30 893 H 83.0473 -1.33824 -6.81994 0
M  V30 894 H 86.2383 -0.615001 -4.64042 0
M  V30 895 H 86.4113 -1.10118 -6.38575 0
M  V30 896 N 79.8174 1.5752 -0.0501392 0
M  V30 897 C 80.7804 2.1037 0.909786 0
M  V30 898 C 81.7804 1.02308 1.24056 0
M  V30 899 O 82.9704 1.28385 1.17741 0
M  V30 900 C 80.1024 2.58708 2.21998 0
M  V30 901 H 81.2954 2.96479 0.451665 0
M  V30 902 H 78.8484 1.55038 0.198248 0
M  V30 903 H 79.5834 1.75989 2.72394 0
M  V30 904 H 79.3684 3.37675 1.99295 0
M  V30 905 H 80.8584 2.99747 2.9076 0
M  V30 906 N 81.2955 -0.223234 1.56011 0
M  V30 907 C 82.2255 -1.27988 1.95298 0
M  V30 908 C 83.2065 -1.48976 0.820979 0
M  V30 909 O 84.3915 -1.61188 1.08315 0
M  V30 910 C 81.5215 -2.63 2.26822 0
M  V30 911 C 80.4755 -2.56671 3.42497 0
M  V30 912 C 79.8015 -3.95697 3.59622 0
M  V30 913 C 81.1015 -2.11601 4.77517 0
M  V30 914 H 82.7955 -0.953525 2.8381 0
M  V30 915 H 80.3415 -0.457244 1.36548 0
M  V30 916 H 82.2945 -3.37077 2.52898 0
M  V30 917 H 81.0185 -2.9732 1.35161 0
M  V30 918 H 79.6775 -1.85051 3.16467 0
M  V30 919 H 79.3255 -4.27322 2.6534 0
M  V30 920 H 79.0255 -3.92345 4.37424 0
M  V30 921 H 80.5495 -4.71438 3.88044 0
M  V30 922 H 81.9635 -2.7542 5.02809 0
M  V30 923 H 80.3605 -2.19311 5.5859 0
M  V30 924 H 81.4305 -1.06824 4.72987 0
M  V30 925 N 82.7736 -1.49793 -0.48987 0
M  V30 926 C 83.7366 -1.66752 -1.57246 0
M  V30 927 C 84.7366 -0.538867 -1.51502 0
M  V30 928 O 85.9266 -0.805545 -1.54456 0
M  V30 929 C 83.0586 -1.67528 -2.96896 0
M  V30 930 H 84.2516 -2.63321 -1.43534 0
M  V30 931 H 81.8046 -1.38992 -0.714914 0
M  V30 932 H 82.5396 -0.725837 -3.16073 0
M  V30 933 H 82.3246 -2.49504 -3.02473 0
M  V30 934 H 83.8146 -1.82667 -3.7553 0
M  V30 935 N 84.2517 0.741722 -1.39055 0
M  V30 936 C 85.4767 1.53607 -1.39354 0
M  V30 937 C 85.9017 1.88096 0.0116905 0
M  V30 938 O 85.2597 1.5143 0.996924 0
M  V30 939 C 85.3077 2.80441 -2.26682 0
M  V30 940 O 84.4117 3.76088 -1.69208 0
M  V30 941 H 83.7527 0.464142 -0.474835 0
M  V30 942 H 86.2827 0.915665 -1.82967 0
M  V30 943 H 86.2927 3.29246 -2.40959 0
M  V30 944 H 84.9677 2.5467 -3.2881 0
M  V30 945 H 83.5447 3.34833 -1.64138 0
M  V30 946 N 85.7298 1.2412 0.971189 0
M  V30 947 C 86.6928 1.03156 2.04674 0
M  V30 948 C 87.6928 -0.00990322 1.60797 0
M  V30 949 O 88.8828 0.230729 1.72665 0
M  V30 950 C 86.0148 0.562765 3.36223 0
M  V30 951 H 87.2078 1.98614 2.24705 0
M  V30 952 H 84.7608 1.06293 1.14593 0
M  V30 953 H 85.4958 -0.395176 3.21883 0
M  V30 954 H 85.2808 1.31441 3.69413 0
M  V30 955 H 86.7708 0.437015 4.15307 0
M  V30 956 N 87.2079 -1.17134 1.05439 0
M  V30 957 C 88.1709 -2.19439 0.661764 0
M  V30 958 C 89.1709 -1.58199 -0.288042 0
M  V30 959 O 90.3609 -1.74053 -0.0715803 0
M  V30 960 C 87.4929 -3.40889 -0.0276209 0
M  V30 961 H 88.6859 -2.55688 1.56728 0
M  V30 962 H 86.2389 -1.31259 0.848567 0
M  V30 963 H 86.9739 -3.10187 -0.94629 0
M  V30 964 H 86.7589 -3.86586 0.655238 0
M  V30 965 H 88.2489 -4.16603 -0.288342 0
M  V30 966 N 88.686 -0.835752 -1.33615 0
M  V30 967 C 90.097 -0.487099 -1.80234 0
M  V30 968 C 90.448 0.993627 -1.69179 0
M  V30 969 O 89.573 1.77403 -1.23924 0
M  V30 970 C 90.168 -0.877385 -3.27242 0
M  V30 971 C 88.727 -0.580915 -3.7189 0
M  V30 972 C 87.874 -1.0874 -2.5509 0
M  V30 973 H 90.825 -1.02474 -1.2118 0
M  V30 974 H 90.846 -0.186195 -3.80044 0
M  V30 975 H 90.358 -1.95512 -3.35256 0
M  V30 976 H 88.459 0.486881 -3.69405 0
M  V30 977 H 88.572 -1.13396 -4.65487 0
M  V30 978 H 86.936 -0.508392 -2.49575 0
M  V30 979 H 87.719 -2.17184 -2.65868 0
M  V30 980 N 90.1641 1.46063 -0.591896 0
M  V30 981 C 91.3891 2.07226 -0.0850314 0
M  V30 982 C 91.8141 1.43625 1.21463 0
M  V30 983 O 91.1721 0.523305 1.73583 0
M  V30 984 C 91.2201 3.60554 0.0576567 0
M  V30 985 O 90.3241 3.97128 1.11188 0
M  V30 986 H 89.6651 0.660615 -0.0669568 0
M  V30 987 H 92.1951 1.8756 -0.81745 0
M  V30 988 H 92.2051 4.07165 0.2609 0
M  V30 989 H 90.8801 4.06235 -0.891416 0
M  V30 990 H 89.4571 3.62213 0.886356 0
M  V30 991 N 91.6422 0.330177 1.54103 0
M  V30 992 C 92.5742 -0.566902 2.22079 0
M  V30 993 C 93.5872 -1.07462 1.22294 0
M  V30 994 O 94.7762 -0.987065 1.48726 0
M  V30 995 C 91.8762 -1.79138 2.87685 0
M  V30 996 C 91.0492 -1.42123 4.13666 0
M  V30 997 C 90.1082 -2.50394 4.62806 0
M  V30 998 O 89.1342 -2.14261 5.27334 0
M  V30 999 N 90.3362 -3.81433 4.37595 0
M  V30 1000 H 93.1012 0.0151844 2.99696 0
M  V30 1001 H 90.6622 0.153681 1.61169 0
M  V30 1002 H 92.6542 -2.50975 3.1748 0
M  V30 1003 H 91.2242 -2.28115 2.13734 0
M  V30 1004 H 90.4442 -0.534201 3.90564 0
M  V30 1005 H 91.7322 -1.14971 4.9564 0
M  V30 1006 H 91.1302 -4.13584 3.8596 0
M  V30 1007 H 89.6872 -4.4948 4.72029 0
M  V30 1008 N 93.1203 -1.57491 0.0584922 0
M  V30 1009 C 94.3453 -1.97711 -0.62652 0
M  V30 1010 C 94.7703 -0.936132 -1.63151 0
M  V30 1011 O 94.1283 0.099811 -1.81025 0
M  V30 1012 C 94.1763 -3.36989 -1.28338 0
M  V30 1013 O 93.2803 -3.35433 -2.39913 0
M  V30 1014 H 92.6213 -0.643868 -0.162266 0
M  V30 1015 H 95.1513 -2.04193 0.129064 0
M  V30 1016 H 95.1613 -3.73879 -1.63335 0
M  V30 1017 H 93.8363 -4.12289 -0.546889 0
M  V30 1018 H 92.4133 -3.10298 -2.06809 0
M  V30 1019 N 94.5984 0.214957 -1.56127 0
M  V30 1020 C 95.8474 0.936451 -1.78643 0
M  V30 1021 C 96.1604 1.85237 -0.628229 0
M  V30 1022 O 97.3664 2.613 -0.737186 0
M  V30 1023 C 95.8224 1.7154 -3.16389 0
M  V30 1024 C 95.4304 0.845299 -4.39953 0
M  V30 1025 C 97.1744 2.42772 -3.48227 0
M  V30 1026 C 95.0814 1.62198 -5.68723 0
M  V30 1027 H 94.0114 0.353401 -0.666051 0
M  V30 1028 H 96.6624 0.190169 -1.82512 0
M  V30 1029 H 95.0444 2.50484 -3.06715 0
M  V30 1030 H 96.2184 0.0959353 -4.607 0
M  V30 1031 H 94.5334 0.244789 -4.1568 0
M  V30 1032 H 97.1304 3.01394 -4.41663 0
M  V30 1033 H 97.4734 3.15984 -2.71035 0
M  V30 1034 H 98.0064 1.70813 -3.5926 0
M  V30 1035 H 94.7454 0.933011 -6.48826 0
M  V30 1036 H 94.2654 2.34579 -5.52026 0
M  V30 1037 H 95.9444 2.18095 -6.09133 0
M  V30 1038 N 96.0765 1.50051 0.48192 0
M  V30 1039 C 97.3235 1.60498 1.23477 0
M  V30 1040 C 97.6515 0.300331 1.92167 0
M  V30 1041 O 96.9065 -0.713094 1.82246 0
M  V30 1042 C 97.2055 2.72717 2.30998 0
M  V30 1043 C 96.8715 4.13572 1.79636 0
M  V30 1044 C 95.5335 4.519 1.65348 0
M  V30 1045 C 97.8855 5.01649 1.41412 0
M  V30 1046 C 95.2135 5.76057 1.11244 0
M  V30 1047 C 97.5655 6.26343 0.887538 0
M  V30 1048 C 96.2295 6.63483 0.731207 0
M  V30 1049 H 95.4995 0.587303 0.451836 0
M  V30 1050 H 98.1465 1.83948 0.532468 0
M  V30 1051 H 96.4515 2.43312 3.07094 0
M  V30 1052 H 98.1485 2.78006 2.88988 0
M  V30 1053 H 94.7385 3.83329 1.91721 0
M  V30 1054 H 98.9225 4.72679 1.51289 0
M  V30 1055 H 94.1785 6.03516 0.978686 0
M  V30 1056 H 98.3525 6.93958 0.582654 0
M  V30 1057 H 95.9795 7.59568 0.309806 0
M  V30 1058 N 97.5546 -0.734337 1.39446 0
M  V30 1059 C 98.8016 -1.49391 1.36706 0
M  V30 1060 C 99.1296 -1.94465 -0.0367813 0
M  V30 1061 O 98.3846 -1.67154 -1.01774 0
M  V30 1062 C 98.6836 -2.74711 2.28623 0
M  V30 1063 C 98.3496 -2.48501 3.76242 0
M  V30 1064 C 97.0116 -2.41062 4.16464 0
M  V30 1065 C 99.3636 -2.26098 4.69606 0
M  V30 1066 C 96.6916 -2.09262 5.48112 0
M  V30 1067 C 99.0436 -1.95814 6.01531 0
M  V30 1068 C 97.7076 -1.86845 6.40816 0
M  V30 1069 H 96.9776 -0.546661 0.500243 0
M  V30 1070 H 99.6246 -0.842788 1.71957 0
M  V30 1071 H 97.9296 -3.44569 1.86492 0
M  V30 1072 H 99.6266 -3.32741 2.23796 0
M  V30 1073 H 96.2166 -2.55169 3.44364 0
M  V30 1074 H 100.401 -2.30812 4.39363 0
M  V30 1075 H 95.6566 -2.00841 5.77471 0
M  V30 1076 H 99.8306 -1.77488 6.73403 0
M  V30 1077 H 97.4576 -1.6197 7.42745 0
M  V30 1078 N 99.0327 -1.24633 -0.964593 0
M  V30 1079 C 100.258 -1.11596 -1.74818 0
M  V30 1080 C 100.683 0.32723 -1.85232 0
M  V30 1081 O 100.041 1.23695 -1.32549 0
M  V30 1082 C 100.089 -1.76397 -3.1451 0
M  V30 1083 O 99.1927 -1.03685 -3.99153 0
M  V30 1084 H 98.5337 -0.390196 -0.537255 0
M  V30 1085 H 101.064 -1.65002 -1.20977 0
M  V30 1086 H 101.074 -1.8228 -3.65018 0
M  V30 1087 H 99.7487 -2.81401 -3.06246 0
M  V30 1088 H 98.3257 -1.05611 -3.57632 0
M  V30 1089 N 100.511 1.16574 -1.06058 0
M  V30 1090 C 101.922 1.68662 -0.800632 0
M  V30 1091 C 102.273 1.84184 0.67608 0
M  V30 1092 O 101.398 1.53568 1.52466 0
M  V30 1093 C 101.993 3.06356 -1.44676 0
M  V30 1094 C 100.552 3.55575 -1.23465 0
M  V30 1095 C 99.6988 2.31616 -1.52477 0
M  V30 1096 H 102.65 1.00969 -1.22438 0
M  V30 1097 H 102.671 3.70636 -0.860788 0
M  V30 1098 H 102.183 2.95027 -2.52152 0
M  V30 1099 H 100.284 3.72167 -0.179527 0
M  V30 1100 H 100.397 4.37812 -1.94571 0
M  V30 1101 H 98.7608 2.36512 -0.945209 0
M  V30 1102 H 99.5438 2.22887 -2.61106 0
M  V30 1103 N 101.989 0.842826 1.3317 0
M  V30 1104 C 103.235 0.441099 1.97945 0
M  V30 1105 C 103.568 -0.998024 1.66593 0
M  V30 1106 O 102.843 -1.69839 0.947898 0
M  V30 1107 C 103.126 0.666841 3.53872 0
M  V30 1108 C 102.979 2.15352 3.94897 0
M  V30 1109 C 104.298 0.115544 4.39948 0
M  V30 1110 H 101.417 0.161739 0.719034 0
M  V30 1111 H 104.059 1.05907 1.57746 0
M  V30 1112 H 102.209 0.140828 3.88245 0
M  V30 1113 H 103.881 2.7447 3.70761 0
M  V30 1114 H 102.124 2.63653 3.44484 0
M  V30 1115 H 102.795 2.26221 5.03516 0
M  V30 1116 H 105.271 0.565213 4.12243 0
M  V30 1117 H 104.147 0.303152 5.48062 0
M  V30 1118 H 104.408 -0.980935 4.3108 0
M  V30 1119 N 103.467 -1.45747 0.599634 0
M  V30 1120 C 104.692 -2.07178 0.0960198 0
M  V30 1121 C 105.117 -1.44268 -1.207 0
M  V30 1122 O 104.475 -0.532503 -1.73303 0
M  V30 1123 C 104.523 -3.60579 -0.0385348 0
M  V30 1124 O 103.627 -3.97713 -1.0908 0
M  V30 1125 H 102.968 -0.660251 0.0704593 0
M  V30 1126 H 105.498 -1.87124 0.827385 0
M  V30 1127 H 105.508 -4.07298 -0.239304 0
M  V30 1128 H 104.183 -4.05756 0.912947 0
M  V30 1129 H 102.76 -3.62678 -0.867135 0
M  V30 1130 N 104.945 -0.338344 -1.53925 0
M  V30 1131 C 106.194 0.260732 -2.00008 0
M  V30 1132 C 106.507 1.52073 -1.23017 0
M  V30 1133 O 107.713 2.19672 -1.5955 0
M  V30 1134 C 106.169 0.51515 -3.56194 0
M  V30 1135 C 105.777 -0.728645 -4.42035 0
M  V30 1136 C 107.521 1.07337 -4.10706 0
M  V30 1137 C 105.428 -0.445315 -5.89721 0
M  V30 1138 H 104.358 0.101205 -0.747177 0
M  V30 1139 H 107.009 -0.452866 -1.77824 0
M  V30 1140 H 105.391 1.28932 -3.74423 0
M  V30 1141 H 106.565 -1.50352 -4.35581 0
M  V30 1142 H 104.88 -1.20813 -3.98489 0
M  V30 1143 H 107.477 1.30022 -5.18651 0
M  V30 1144 H 107.82 2.0273 -3.63602 0
M  V30 1145 H 108.353 0.360034 -3.96167 0
M  V30 1146 H 105.092 -1.36883 -6.41049 0
M  V30 1147 H 104.612 0.291569 -5.99091 0
M  V30 1148 H 106.291 -0.0606218 -6.46972 0
M  V30 1149 N 106.423 1.57458 -0.0668435 0
M  V30 1150 C 107.648 1.9804 0.616027 0
M  V30 1151 C 108.073 0.944771 1.62652 0
M  V30 1152 O 107.431 -0.0902094 1.81075 0
M  V30 1153 C 107.479 3.37665 1.26549 0
M  V30 1154 O 106.583 3.36701 2.38131 0
M  V30 1155 H 105.924 0.644719 0.158849 0
M  V30 1156 H 108.454 2.04121 -0.139891 0
M  V30 1157 H 108.464 3.7474 1.6135 0
M  V30 1158 H 107.139 4.12573 0.525016 0
M  V30 1159 H 105.716 3.1139 2.0516 0
M  V30 1160 N 107.901 -0.206675 1.56239 0
M  V30 1161 C 108.834 -1.28383 1.88661 0
M  V30 1162 C 109.812 -1.44504 0.745481 0
M  V30 1163 O 110.996 -1.60079 0.995336 0
M  V30 1164 C 108.123 -2.65211 2.10667 0
M  V30 1165 C 107.169 -2.66025 3.33366 0
M  V30 1166 S 108.002 -2.18609 4.88846 0
M  V30 1167 C 109.158 -3.57283 5.13906 0
M  V30 1168 H 109.391 -1.00691 2.7973 0
M  V30 1169 H 106.924 -0.409627 1.48867 0
M  V30 1170 H 108.882 -3.43979 2.24029 0
M  V30 1171 H 107.543 -2.90121 1.20369 0
M  V30 1172 H 106.736 -3.66607 3.45855 0
M  V30 1173 H 106.338 -1.95331 3.18938 0
M  V30 1174 H 108.63 -4.53074 5.03717 0
M  V30 1175 H 109.573 -3.49699 6.15724 0
M  V30 1176 H 109.981 -3.51659 4.41583 0
M  V30 1177 N 109.379 -1.50304 -0.473955 0
M  V30 1178 C 110.604 -1.65175 -1.25427 0
M  V30 1179 C 111.029 -0.333673 -1.85117 0
M  V30 1180 O 110.387 0.702114 -1.67153 0
M  V30 1181 C 110.435 -2.74295 -2.34082 0
M  V30 1182 O 109.539 -2.35349 -3.38651 0
M  V30 1183 H 108.88 -0.551944 -0.369126 0
M  V30 1184 H 111.41 -1.96662 -0.564364 0
M  V30 1185 H 111.42 -2.97285 -2.79438 0
M  V30 1186 H 110.095 -3.69959 -1.90008 0
M  V30 1187 H 108.672 -2.22794 -2.99027 0
M  V30 1188 N 110.857 0.726932 -1.39834 0
M  V30 1189 C 111.787 1.85405 -1.41941 0
M  V30 1190 C 112.768 1.67751 -0.281728 0
M  V30 1191 O 113.953 1.8795 -0.488717 0
M  V30 1192 C 111.083 3.23243 -1.2701 0
M  V30 1193 C 110.037 3.55549 -2.38262 0
M  V30 1194 C 109.363 4.9241 -2.08415 0
M  V30 1195 C 110.663 3.577 -3.80589 0
M  V30 1196 H 112.357 1.83899 -2.36266 0
M  V30 1197 H 109.903 0.883349 -1.13723 0
M  V30 1198 H 111.856 4.01775 -1.27103 0
M  V30 1199 H 110.58 3.25296 -0.291564 0
M  V30 1200 H 109.239 2.79351 -2.37399 0
M  V30 1201 H 108.887 4.91052 -1.0898 0
M  V30 1202 H 108.587 5.14992 -2.82943 0
M  V30 1203 H 110.111 5.73289 -2.10171 0
M  V30 1204 H 111.525 4.26293 -3.83337 0
M  V30 1205 H 109.922 3.91804 -4.54543 0
M  V30 1206 H 110.992 2.57328 -4.10987 0
M  V30 1207 N 112.336 1.25143 0.95797 0
M  V30 1208 C 113.299 1.05321 2.03569 0
M  V30 1209 C 114.299 0.007152 1.60798 0
M  V30 1210 O 115.489 0.24903 1.72411 0
M  V30 1211 C 112.621 0.598394 3.35607 0
M  V30 1212 H 113.814 2.00986 2.22586 0
M  V30 1213 H 111.367 1.07502 1.13459 0
M  V30 1214 H 112.102 -0.361014 3.22284 0
M  V30 1215 H 111.887 1.35351 3.67998 0
M  V30 1216 H 113.377 0.48104 4.1482 0
M  V30 1217 N 113.814 -1.1601 1.06675 0
M  V30 1218 C 114.747 -2.1947 0.625168 0
M  V30 1219 C 115.725 -1.58699 -0.354041 0
M  V30 1220 O 116.909 -1.86669 -0.262098 0
M  V30 1221 C 114.036 -3.38598 -0.0829593 0
M  V30 1222 C 113.082 -4.1787 0.853611 0
M  V30 1223 S 113.915 -4.81135 2.35094 0
M  V30 1224 C 115.071 -6.03639 1.65441 0
M  V30 1225 H 115.304 -2.56587 1.50168 0
M  V30 1226 H 112.837 -1.26862 0.880078 0
M  V30 1227 H 114.795 -4.07621 -0.485288 0
M  V30 1228 H 113.456 -2.99839 -0.935716 0
M  V30 1229 H 112.649 -5.03078 0.304755 0
M  V30 1230 H 112.251 -3.54361 1.196 0
M  V30 1231 H 114.543 -6.70632 0.962201 0
M  V30 1232 H 115.486 -6.63081 2.48454 0
M  V30 1233 H 115.894 -5.52965 1.13534 0
M  V30 1234 N 115.292 -0.849877 -1.32721 0
M  V30 1235 C 116.222 -0.306308 -2.31482 0
M  V30 1236 C 117.203 0.591952 -1.59468 0
M  V30 1237 O 118.388 0.513199 -1.87296 0
M  V30 1238 C 115.518 0.510204 -3.43532 0
M  V30 1239 C 114.472 -0.293209 -4.26994 0
M  V30 1240 C 113.798 0.647743 -5.30762 0
M  V30 1241 C 115.098 -1.51634 -4.99804 0
M  V30 1242 H 116.792 -1.13153 -2.77195 0
M  V30 1243 H 114.338 -0.545553 -1.33266 0
M  V30 1244 H 116.291 0.900856 -4.11658 0
M  V30 1245 H 115.015 1.36874 -2.96535 0
M  V30 1246 H 113.674 -0.665555 -3.60508 0
M  V30 1247 H 113.322 1.50299 -4.8002 0
M  V30 1248 H 113.022 0.11422 -5.87489 0
M  V30 1249 H 114.546 1.03567 -6.01753 0
M  V30 1250 H 115.96 -1.19824 -5.60638 0
M  V30 1251 H 114.357 -1.98745 -5.66234 0
M  V30 1252 H 115.427 -2.28018 -4.27943 0
M  V30 1253 N 116.77 1.45427 -0.607355 0
M  V30 1254 C 117.995 2.07124 -0.107006 0
M  V30 1255 C 118.42 1.44906 1.19933 0
M  V30 1256 O 117.778 0.541687 1.73019 0
M  V30 1257 C 117.826 3.60595 0.0194119 0
M  V30 1258 O 116.93 3.98285 1.0697 0
M  V30 1259 H 116.271 0.659868 -0.0739597 0
M  V30 1260 H 118.801 1.86683 -0.837297 0
M  V30 1261 H 118.811 4.07419 0.2177 0
M  V30 1262 H 117.486 4.05266 -0.934453 0
M  V30 1263 H 116.063 3.63133 0.847889 0
M  V30 1264 N 118.248 0.346503 1.53744 0
M  V30 1265 C 119.178 -0.501193 2.28058 0
M  V30 1266 C 120.159 -1.10014 1.29734 0
M  V30 1267 O 121.344 -1.12097 1.58581 0
M  V30 1268 C 118.474 -1.65078 3.05559 0
M  V30 1269 C 117.428 -1.18003 4.11411 0
M  V30 1270 C 116.754 -2.41837 4.76884 0
M  V30 1271 C 118.054 -0.278394 5.21558 0
M  V30 1272 H 119.748 0.11875 2.99164 0
M  V30 1273 H 117.294 0.0585531 1.43881 0
M  V30 1274 H 119.247 -2.25028 3.56287 0
M  V30 1275 H 117.971 -2.29767 2.32109 0
M  V30 1276 H 116.63 -0.603331 3.61601 0
M  V30 1277 H 116.278 -3.0494 4.00026 0
M  V30 1278 H 115.978 -2.1102 5.48402 0
M  V30 1279 H 117.502 -3.02508 5.30397 0
M  V30 1280 H 118.916 -0.784823 5.67903 0
M  V30 1281 H 117.313 -0.0619707 6.00068 0
M  V30 1282 H 118.383 0.684677 4.80042 0
M  V30 1283 N 119.726 -1.57421 0.075193 0
M  V30 1284 C 120.974 -1.93236 -0.591974 0
M  V30 1285 C 121.295 -0.956241 -1.69944 0
M  V30 1286 O 120.565 -0.00494792 -1.95899 0
M  V30 1287 H 119.145 -0.713355 -0.22166 0
M  V30 1288 H 121.807 -1.9444 0.133848 0
M  V30 1289 H 120.903 -2.95131 -1.01509 0
M  V30 1290 N 121.204 0.198386 -1.56346 0
M  V30 1291 C 122.167 1.22952 -1.93431 0
M  V30 1292 C 123.167 1.38611 -0.815092 0
M  V30 1293 O 124.357 1.36479 -1.08255 0
M  V30 1294 C 121.489 2.59946 -2.20546 0
M  V30 1295 H 122.682 0.912626 -2.85677 0
M  V30 1296 H 120.235 0.43977 -1.49986 0
M  V30 1297 H 120.97 2.96696 -1.30927 0
M  V30 1298 H 120.755 2.49953 -3.02102 0
M  V30 1299 H 122.245 3.3431 -2.50253 0
M  V30 1300 N 122.682 1.50554 0.465978 0
M  V30 1301 C 123.93 1.61479 1.21528 0
M  V30 1302 C 124.251 0.319596 1.92363 0
M  V30 1303 O 123.521 -0.663194 1.84333 0
M  V30 1304 H 122.101 0.595055 0.451573 0
M  V30 1305 H 124.763 1.87355 0.53704 0
M  V30 1306 H 123.859 2.42846 1.96042 0
M  V30 1307 N 124.16 -0.719506 1.40217 0
M  V30 1308 C 125.385 -1.51371 1.4178 0
M  V30 1309 C 125.81 -1.88091 0.0182355 0
M  V30 1310 O 125.168 -1.52997 -0.972707 0
M  V30 1311 C 125.216 -2.768 2.31115 0
M  V30 1312 O 124.32 -3.73349 1.7517 0
M  V30 1313 H 123.661 -0.456529 0.482159 0
M  V30 1314 H 126.191 -0.88644 1.844 0
M  V30 1315 H 126.201 -3.25371 2.46167 0
M  V30 1316 H 124.876 -2.49407 3.3282 0
M  V30 1317 H 123.453 -3.32179 1.69444 0
M  V30 1318 N 125.638 -1.25649 -0.95132 0
M  V30 1319 C 126.863 -1.13443 -1.73624 0
M  V30 1320 C 127.288 0.307565 -1.85568 0
M  V30 1321 O 126.646 1.22282 -1.33854 0
M  V30 1322 C 126.694 -1.79723 -3.12621 0
M  V30 1323 O 125.798 -1.07912 -3.98031 0
M  V30 1324 H 125.139 -0.395872 -0.533086 0
M  V30 1325 H 127.669 -1.66276 -1.1922 0
M  V30 1326 H 127.679 -1.86141 -3.63064 0
M  V30 1327 H 126.354 -2.84633 -3.03244 0
M  V30 1328 H 124.931 -1.09398 -3.56492 0
M  V30 1329 N 127.117 1.15442 -1.07289 0
M  V30 1330 C 128.345 1.90096 -0.81676 0
M  V30 1331 C 128.76 1.7798 0.629966 0
M  V30 1332 O 128.117 1.1313 1.43206 0
M  V30 1333 C 128.168 3.40466 -1.21512 0
M  V30 1334 O 127.889 3.52232 -2.60508 0
M  V30 1335 C 129.39 4.32145 -0.988198 0
M  V30 1336 H 126.61 0.602495 -0.295366 0
M  V30 1337 H 129.154 1.4627 -1.42918 0
M  V30 1338 H 127.309 3.81958 -0.647039 0
M  V30 1339 H 127.723 4.45549 -2.76742 0
M  V30 1340 H 129.197 5.36072 -1.31645 0
M  V30 1341 H 129.674 4.39135 0.0755063 0
M  V30 1342 H 130.28 3.96395 -1.54115 0
M  V30 1343 N 128.595 0.856903 1.32268 0
M  V30 1344 C 129.542 0.301172 2.28827 0
M  V30 1345 C 130.512 -0.593104 1.5515 0
M  V30 1346 O 131.697 -0.527537 1.83362 0
M  V30 1347 C 128.837 -0.502523 3.41422 0
M  V30 1348 C 127.95 0.417797 4.29975 0
M  V30 1349 C 127.085 -0.398749 5.29701 0
M  V30 1350 C 126.124 0.518827 6.09897 0
M  V30 1351 N 125.261 -0.260674 7.01616 0
M  V30 1352 H 130.101 1.12983 2.75751 0
M  V30 1353 H 127.638 0.568582 1.35667 0
M  V30 1354 H 129.596 -0.984141 4.05426 0
M  V30 1355 H 128.226 -1.29599 2.95642 0
M  V30 1356 H 127.278 1.01781 3.66531 0
M  V30 1357 H 128.59 1.12191 4.86019 0
M  V30 1358 H 127.744 -0.943435 5.9932 0
M  V30 1359 H 126.483 -1.13622 4.7428 0
M  V30 1360 H 125.488 1.07538 5.39181 0
M  V30 1361 H 126.713 1.25495 6.67404 0
M  V30 1362 H 124.659 -0.981198 6.4862 0
M  V30 1363 H 124.576 0.384364 7.55022 0
M  V30 1364 H 125.844 -0.787014 7.75517 0
M  V30 1365 N 130.073 -1.45103 0.615059 0
M  V30 1366 C 131.006 -2.27717 -0.148408 0
M  V30 1367 C 131.984 -1.37584 -0.866572 0
M  V30 1368 O 133.168 -1.67017 -0.87393 0
M  V30 1369 C 130.295 -3.16136 -1.21557 0
M  V30 1370 C 129.341 -4.22263 -0.599712 0
M  V30 1371 S 130.174 -5.3215 0.598081 0
M  V30 1372 C 131.33 -6.24137 -0.469484 0
M  V30 1373 H 131.563 -2.92121 0.552483 0
M  V30 1374 H 129.096 -1.49054 0.402778 0
M  V30 1375 H 131.054 -3.67633 -1.82638 0
M  V30 1376 H 129.715 -2.50982 -1.88857 0
M  V30 1377 H 128.908 -4.84081 -1.4029 0
M  V30 1378 H 128.51 -3.73945 -0.063876 0
M  V30 1379 H 130.802 -6.63984 -1.34652 0
M  V30 1380 H 131.745 -7.0801 0.112725 0
M  V30 1381 H 132.153 -5.58971 -0.788168 0
M  V30 1382 N 131.551 -0.354651 -1.53558 0
M  V30 1383 C 132.483 0.5315 -2.22952 0
M  V30 1384 C 133.496 1.05503 -1.23988 0
M  V30 1385 O 134.685 0.963279 -1.50277 0
M  V30 1386 C 131.785 1.74538 -2.90499 0
M  V30 1387 C 130.958 1.35524 -4.15875 0
M  V30 1388 C 130.017 2.42999 -4.66731 0
M  V30 1389 O 129.043 2.05844 -5.30676 0
M  V30 1390 N 130.245 3.74423 -4.43608 0
M  V30 1391 H 133.01 -0.0628615 -2.99634 0
M  V30 1392 H 130.571 -0.179302 -1.60904 0
M  V30 1393 H 132.563 2.45892 -3.21433 0
M  V30 1394 H 131.133 2.24686 -2.17336 0
M  V30 1395 H 130.353 0.471998 -3.91364 0
M  V30 1396 H 131.641 1.07071 -4.97406 0
M  V30 1397 H 131.039 4.07391 -3.92491 0
M  V30 1398 H 129.596 4.41913 -4.7912 0
M  V30 1399 N 133.029 1.57378 -0.0835403 0
M  V30 1400 C 134.278 1.93106 0.582498 0
M  V30 1401 C 134.591 0.96651 1.70053 0
M  V30 1402 O 135.797 1.21705 2.42693 0
M  V30 1403 C 134.253 3.43076 1.08751 0
M  V30 1404 C 133.861 4.48 -0.000146404 0
M  V30 1405 C 135.605 3.87785 1.72694 0
M  V30 1406 C 133.512 5.89113 0.519568 0
M  V30 1407 H 132.442 0.720775 0.221358 0
M  V30 1408 H 135.093 1.82821 -0.157675 0
M  V30 1409 H 133.475 3.48474 1.88101 0
M  V30 1410 H 134.649 4.54233 -0.775199 0
M  V30 1411 H 132.964 4.1283 -0.54406 0
M  V30 1412 H 135.561 4.90604 2.1263 0
M  V30 1413 H 135.904 3.25796 2.59158 0
M  V30 1414 H 136.437 3.8504 0.999457 0
M  V30 1415 H 133.176 6.54775 -0.308186 0
M  V30 1416 H 132.696 5.86376 1.26188 0
M  V30 1417 H 134.375 6.39346 0.992237 0
M  V30 1418 N 134.507 -0.190092 1.56449 0
M  V30 1419 C 135.437 -1.23816 1.97969 0
M  V30 1420 C 136.418 -1.47201 0.852395 0
M  V30 1421 O 137.603 -1.58854 1.1171 0
M  V30 1422 C 134.733 -2.5813 2.3235 0
M  V30 1423 C 133.687 -2.49348 3.47864 0
M  V30 1424 C 133.013 -3.8798 3.67934 0
M  V30 1425 C 134.313 -2.01424 4.81898 0
M  V30 1426 H 136.007 -0.89311 2.85769 0
M  V30 1427 H 133.553 -0.428177 1.37487 0
M  V30 1428 H 135.506 -3.31637 2.59991 0
M  V30 1429 H 134.23 -2.94386 1.41438 0
M  V30 1430 H 132.889 -1.78297 3.20321 0
M  V30 1431 H 132.537 -4.21597 2.74344 0
M  V30 1432 H 132.237 -3.82978 4.45648 0
M  V30 1433 H 133.761 -4.63101 3.97957 0
M  V30 1434 H 135.175 -2.64693 5.08538 0
M  V30 1435 H 133.572 -2.07413 5.63116 0
M  V30 1436 H 134.642 -0.967677 4.75146 0
M  V30 1437 N 135.985 -1.50799 -0.457987 0
M  V30 1438 C 136.895 -1.73426 -1.57989 0
M  V30 1439 C 137.911 -0.617745 -1.62665 0
M  V30 1440 O 139.087 -0.897614 -1.80291 0
M  V30 1441 C 136.152 -1.83557 -2.94122 0
M  V30 1442 C 135.213 -3.07345 -2.99729 0
M  V30 1443 C 134.446 -3.16983 -4.29368 0
M  V30 1444 O 134.669 -2.33077 -5.20607 0
M  V30 1445 O 133.603 -4.09812 -4.40837 0
M  V30 1446 H 137.429 -2.68555 -1.41817 0
M  V30 1447 H 135.014 -1.35052 -0.638859 0
M  V30 1448 H 136.896 -1.92326 -3.74952 0
M  V30 1449 H 135.571 -0.916137 -3.10465 0
M  V30 1450 H 134.478 -3.04068 -2.1793 0
M  V30 1451 H 135.811 -3.9891 -2.88326 0
M  V30 1452 N 137.463 0.71206 -1.40597 0
M  V30 1453 C 138.711 1.46907 -1.38791 0
M  V30 1454 C 139.032 1.94998 0.00780391 0
M  V30 1455 O 138.302 1.70587 0.963174 0
M  V30 1456 H 136.882 0.545043 -0.51082 0
M  V30 1457 H 139.544 0.843882 -1.75683 0
M  V30 1458 H 138.64 2.34021 -2.06496 0
M  V30 1459 N 138.941 1.26152 0.944643 0
M  V30 1460 C 139.871 1.09902 2.06019 0
M  V30 1461 C 140.852 0.00519538 1.70099 0
M  V30 1462 O 142.037 0.176583 1.93396 0
M  V30 1463 C 139.167 0.727562 3.39594 0
M  V30 1464 C 138.121 1.77274 3.89561 0
M  V30 1465 C 137.447 1.25569 5.19747 0
M  V30 1466 C 138.747 3.17357 4.14827 0
M  V30 1467 H 140.441 2.03217 2.19871 0
M  V30 1468 H 137.987 0.978452 1.05652 0
M  V30 1469 H 139.94 0.600777 4.17095 0
M  V30 1470 H 138.664 -0.241287 3.25707 0
M  V30 1471 H 137.323 1.88814 3.14237 0
M  V30 1472 H 136.971 0.276783 5.02238 0
M  V30 1473 H 136.671 1.95433 5.54148 0
M  V30 1474 H 138.195 1.1415 5.99835 0
M  V30 1475 H 139.609 3.08914 4.82954 0
M  V30 1476 H 138.006 3.84781 4.60504 0
M  V30 1477 H 139.076 3.63673 3.20734 0
M  V30 1478 N 140.419 -1.14872 1.07899 0
M  V30 1479 C 141.667 -1.85422 0.803941 0
M  V30 1480 C 141.988 -1.83051 -0.67211 0
M  V30 1481 O 141.258 -1.27532 -1.48703 0
M  V30 1482 H 139.838 -0.686537 0.294408 0
M  V30 1483 H 142.5 -1.39226 1.3639 0
M  V30 1484 H 141.596 -2.90399 1.14346 0
M  V30 1485 N 141.898 -0.863906 -1.31812 0
M  V30 1486 C 142.828 -0.330843 -2.31144 0
M  V30 1487 C 143.809 0.575005 -1.60087 0
M  V30 1488 O 144.994 0.493304 -1.8783 0
M  V30 1489 C 142.124 0.47374 -3.44054 0
M  V30 1490 C 141.078 -0.338481 -4.26659 0
M  V30 1491 C 140.404 0.591412 -5.31419 0
M  V30 1492 C 141.704 -1.56926 -4.98168 0
M  V30 1493 H 143.398 -1.16086 -2.75979 0
M  V30 1494 H 140.944 -0.559657 -1.32679 0
M  V30 1495 H 142.897 0.857143 -4.12591 0
M  V30 1496 H 141.621 1.33721 -2.9797 0
M  V30 1497 H 140.28 -0.703754 -3.59782 0
M  V30 1498 H 139.928 1.45199 -4.81587 0
M  V30 1499 H 139.628 0.0519022 -5.87577 0
M  V30 1500 H 141.152 0.97179 -6.02817 0
M  V30 1501 H 142.566 -1.25764 -5.59336 0
M  V30 1502 H 140.963 -2.04739 -5.64094 0
M  V30 1503 H 142.033 -2.32544 -4.25501 0
M  V30 1504 N 143.376 1.44774 -0.622745 0
M  V30 1505 C 144.324 2.32387 0.0994683 0
M  V30 1506 C 145.318 1.46859 0.844326 0
M  V30 1507 O 146.524 1.63254 0.758174 0
M  V30 1508 H 142.899 0.750273 0.0509291 0
M  V30 1509 H 144.87 2.91062 -0.65767 0
M  V30 1510 C 143.619 3.30723 1.07319 0
M  V30 1511 H 142.942 3.96541 0.509462 0
M  V30 1512 H 144.382 3.94725 1.54817 0
M  V30 1513 C 142.841 2.59021 2.15429 0
M  V30 1514 O 143.371 2.38286 3.23393 0
M  V30 1515 N 141.577 2.189 1.91131 0
M  V30 1516 H 141.124 2.35964 1.03337 0
M  V30 1517 H 141.082 1.71251 2.63668 0
M  V30 1518 N 144.854 0.36279 1.53368 0
M  V30 1519 C 145.784 -0.476976 2.28576 0
M  V30 1520 C 146.765 -1.08631 1.30894 0
M  V30 1521 O 147.95 -1.10409 1.59761 0
M  V30 1522 C 145.08 -1.61828 3.07293 0
M  V30 1523 C 144.034 -1.13633 4.1264 0
M  V30 1524 C 143.36 -2.36766 4.79423 0
M  V30 1525 C 144.66 -0.223061 5.21823 0
M  V30 1526 H 146.354 0.150474 2.99022 0
M  V30 1527 H 143.9 0.0738103 1.43811 0
M  V30 1528 H 145.853 -2.21237 3.58653 0
M  V30 1529 H 144.577 -2.27292 2.34533 0
M  V30 1530 H 143.236 -0.564945 3.62221 0
M  V30 1531 H 142.884 -3.0068 4.03238 0
M  V30 1532 H 142.584 -2.05192 5.50609 0
M  V30 1533 H 144.108 -2.96865 5.33576 0
M  V30 1534 H 145.522 -0.724545 5.68703 0
M  V30 1535 H 143.919 0.001678 6.001 0
M  V30 1536 H 144.989 0.735553 4.79289 0
M  V30 1537 N 146.332 -1.57332 0.0918853 0
M  V30 1538 C 147.264 -2.10869 -0.898168 0
M  V30 1539 C 148.277 -1.04521 -1.24817 0
M  V30 1540 O 149.466 -1.31977 -1.20184 0
M  V30 1541 C 146.566 -2.57083 -2.2082 0
M  V30 1542 C 145.739 -3.87229 -2.03402 0
M  V30 1543 C 144.798 -4.19324 -3.17889 0
M  V30 1544 O 143.824 -4.88598 -2.91994 0
M  V30 1545 N 145.026 -3.74471 -4.43567 0
M  V30 1546 H 147.791 -2.96439 -0.440943 0
M  V30 1547 H 145.352 -1.61631 -0.0933064 0
M  V30 1548 H 147.344 -2.75602 -2.96354 0
M  V30 1549 H 145.914 -1.76541 -2.57977 0
M  V30 1550 H 145.134 -3.7789 -1.12218 0
M  V30 1551 H 146.422 -4.72379 -1.89038 0
M  V30 1552 H 145.82 -3.18546 -4.67488 0
M  V30 1553 H 144.377 -3.98151 -5.16061 0
M  V30 1554 N 147.81 0.181792 -1.56548 0
M  V30 1555 C 148.757 1.22521 -1.95595 0
M  V30 1556 C 149.727 1.4454 -0.818373 0
M  V30 1557 O 150.912 1.57454 -1.07763 0
M  V30 1558 C 148.052 2.56193 -2.31212 0
M  V30 1559 C 147.165 2.41641 -3.58097 0
M  V30 1560 C 146.3 3.68108 -3.82975 0
M  V30 1561 C 145.339 3.48445 -5.03242 0
M  V30 1562 N 144.476 4.66956 -5.24306 0
M  V30 1563 H 149.316 0.885226 -2.84548 0
M  V30 1564 H 146.853 0.425718 -1.40805 0
M  V30 1565 H 148.811 3.34088 -2.49882 0
M  V30 1566 H 147.441 2.88208 -1.45382 0
M  V30 1567 H 146.493 1.54976 -3.474 0
M  V30 1568 H 147.805 2.23052 -4.46149 0
M  V30 1569 H 146.959 4.54441 -4.01956 0
M  V30 1570 H 145.698 3.89666 -2.93278 0
M  V30 1571 H 144.703 2.60499 -4.8417 0
M  V30 1572 H 145.928 3.2832 -5.9446 0
M  V30 1573 H 143.874 4.88752 -4.37559 0
M  V30 1574 H 143.791 4.51242 -6.06561 0
M  V30 1575 H 145.059 5.54602 -5.47756 0
M  V30 1576 N 149.288 1.51039 0.449983 0
M  V30 1577 C 150.513 1.6715 1.22783 0
M  V30 1578 C 150.938 0.363081 1.84563 0
M  V30 1579 O 150.296 -0.675433 1.68249 0
M  V30 1580 C 150.344 2.77985 2.29689 0
M  V30 1581 O 149.448 2.40707 3.34864 0
M  V30 1582 H 148.789 0.557746 0.360299 0
M  V30 1583 H 151.319 1.97535 0.533005 0
M  V30 1584 H 151.329 3.01693 2.74673 0
M  V30 1585 H 150.004 3.72935 1.84098 0
M  V30 1586 H 148.581 2.27523 2.95445 0
M  V30 1587 N 150.766 -0.704594 1.40972 0
M  V30 1588 C 151.991 -1.49858 1.43378 0
M  V30 1589 C 152.416 -1.88061 0.038184 0
M  V30 1590 O 151.774 -1.5402 -0.956425 0
M  V30 1591 C 151.822 -2.74333 2.34038 0
M  V30 1592 O 150.926 -3.7147 1.7912 0
M  V30 1593 H 150.267 -0.45139 0.486974 0
M  V30 1594 H 152.797 -0.866832 1.8533 0
M  V30 1595 H 152.807 -3.22741 2.49604 0
M  V30 1596 H 151.482 -2.45863 3.35446 0
M  V30 1597 H 150.059 -3.30363 1.72958 0
M  V30 1598 N 152.244 -1.26651 -0.937939 0
M  V30 1599 C 153.154 -1.10276 -2.07066 0
M  V30 1600 C 154.17 -0.0354197 -1.73964 0
M  V30 1601 O 155.346 -0.239816 -1.99967 0
M  V30 1602 C 152.411 -0.740887 -3.38691 0
M  V30 1603 C 151.472 -1.88799 -3.85556 0
M  V30 1604 C 150.705 -1.54329 -5.10899 0
M  V30 1605 O 150.928 -0.446494 -5.6865 0
M  V30 1606 O 149.862 -2.37911 -5.52885 0
M  V30 1607 H 153.688 -2.05309 -2.23789 0
M  V30 1608 H 151.273 -1.05743 -1.0554 0
M  V30 1609 H 153.155 -0.55195 -4.1777 0
M  V30 1610 H 151.83 0.180022 -3.23199 0
M  V30 1611 H 150.737 -2.13191 -3.07409 0
M  V30 1612 H 152.07 -2.78874 -4.05574 0
M  V30 1613 N 153.722 1.14298 -1.08507 0
M  V30 1614 C 154.669 2.19414 -0.715965 0
M  V30 1615 C 155.639 1.63399 0.298326 0
M  V30 1616 O 156.824 1.89929 0.182101 0
M  V30 1617 C 153.964 3.44845 -0.132534 0
M  V30 1618 C 153.077 4.15007 -1.19973 0
M  V30 1619 C 152.212 5.28024 -0.580048 0
M  V30 1620 C 151.251 5.9002 -1.62921 0
M  V30 1621 N 150.388 6.94485 -1.03125 0
M  V30 1622 H 155.228 2.50336 -1.61666 0
M  V30 1623 H 152.765 1.2293 -0.807882 0
M  V30 1624 H 154.723 4.16601 0.223454 0
M  V30 1625 H 153.353 3.14403 0.731467 0
M  V30 1626 H 152.405 3.41629 -1.67313 0
M  V30 1627 H 153.717 4.57178 -1.99473 0
M  V30 1628 H 152.871 6.06455 -0.172364 0
M  V30 1629 H 151.61 4.87076 0.246603 0
M  V30 1630 H 150.615 5.10291 -2.04654 0
M  V30 1631 H 151.84 6.33042 -2.45835 0
M  V30 1632 H 149.786 6.55612 -0.225711 0
M  V30 1633 H 149.703 7.35148 -1.76334 0
M  V30 1634 H 150.971 7.7679 -0.649458 0
M  V30 1635 N 155.201 0.870884 1.31352 0
M  V30 1636 C 156.111 0.330783 2.32256 0
M  V30 1637 C 157.127 -0.559767 1.6475 0
M  V30 1638 O 158.303 -0.456263 1.96164 0
M  V30 1639 C 155.368 -0.458137 3.4366 0
M  V30 1640 C 154.429 0.460482 4.26823 0
M  V30 1641 C 153.662 -0.290881 5.32907 0
M  V30 1642 O 153.885 -1.51885 5.49806 0
M  V30 1643 O 152.819 0.351732 6.00871 0
M  V30 1644 H 156.645 1.16718 2.80376 0
M  V30 1645 H 154.23 0.634285 1.35267 0
M  V30 1646 H 156.112 -0.905343 4.1156 0
M  V30 1647 H 154.787 -1.27106 2.97701 0
M  V30 1648 H 153.694 0.956207 3.61673 0
M  V30 1649 H 155.027 1.23903 4.7635 0
M  V30 1650 N 156.679 -1.44442 0.630414 0
M  V30 1651 C 157.609 -2.33418 -0.0618083 0
M  V30 1652 C 158.59 -1.48165 -0.835541 0
M  V30 1653 O 159.775 -1.76886 -0.801564 0
M  V30 1654 C 156.905 -3.31222 -1.04449 0
M  V30 1655 C 155.859 -4.26288 -0.382436 0
M  V30 1656 C 155.185 -5.13954 -1.47497 0
M  V30 1657 C 156.485 -5.1744 0.710865 0
M  V30 1658 H 158.179 -2.91548 0.681184 0
M  V30 1659 H 155.725 -1.40191 0.329026 0
M  V30 1660 H 157.678 -3.92351 -1.53748 0
M  V30 1661 H 156.402 -2.71299 -1.81836 0
M  V30 1662 H 155.061 -3.6649 0.0899054 0
M  V30 1663 H 154.709 -4.50385 -2.2397 0
M  V30 1664 H 154.409 -5.7837 -1.03737 0
M  V30 1665 H 155.933 -5.77955 -1.96979 0
M  V30 1666 H 157.347 -5.72509 0.300996 0
M  V30 1667 H 155.744 -5.90455 1.07156 0
M  V30 1668 H 156.814 -4.58496 1.57829 0
M  V30 1669 N 158.157 -0.370918 -1.53173 0
M  V30 1670 C 159.107 0.489588 -2.22681 0
M  V30 1671 C 160.091 1.04442 -1.22395 0
M  V30 1672 O 161.283 0.973578 -1.47819 0
M  V30 1673 C 158.412 1.626 -3.02351 0
M  V30 1674 C 157.498 1.08379 -4.10018 0
M  V30 1675 N 157.889 0.265004 -5.05105 0
M  V30 1676 C 156.187 1.35809 -4.2482 0
M  V30 1677 C 156.888 -0.0324755 -5.81691 0
M  V30 1678 N 155.864 0.566581 -5.40639 0
M  V30 1679 H 159.666 -0.142729 -2.93553 0
M  V30 1680 H 157.18 -0.179221 -1.61408 0
M  V30 1681 H 159.177 2.2547 -3.50669 0
M  V30 1682 H 157.837 2.26132 -2.33011 0
M  V30 1683 H 158.848 -0.0962352 -5.17811 0
M  V30 1684 H 155.525 1.9958 -3.66707 0
M  V30 1685 H 156.915 -0.69473 -6.68299 0
M  V30 1686 N 159.635 1.57281 -0.100228 0
M  V30 1687 C 161.051 1.57527 0.256416 0
M  V30 1688 C 161.251 1.11173 1.68056 0
M  V30 1689 O 160.307 0.79053 2.39806 0
M  V30 1690 C 161.62 3.00673 0.0401747 0
M  V30 1691 C 163.168 3.12815 0.107528 0
M  V30 1692 C 163.643 4.57929 -0.0807834 0
M  V30 1693 N 165.134 4.63193 -0.0261207 0
M  V30 1694 C 165.869 5.73212 -0.146999 0
M  V30 1695 N 165.365 6.92047 -0.322999 0
M  V30 1696 N 167.158 5.62031 -0.0879044 0
M  V30 1697 H 159.309 1.85718 -1.03065 0
M  V30 1698 H 161.572 0.857446 -0.404339 0
M  V30 1699 H 161.278 3.38804 -0.943649 0
M  V30 1700 H 161.152 3.69042 0.780262 0
M  V30 1701 H 163.539 2.74554 1.08186 0
M  V30 1702 H 163.62 2.47028 -0.664134 0
M  V30 1703 H 163.264 4.96886 -1.05201 0
M  V30 1704 H 163.194 5.21783 0.710635 0
M  V30 1705 H 165.685 3.77748 0.107161 0
M  V30 1706 H 165.998 7.7173 -0.406608 0
M  V30 1707 H 164.343 6.94074 -0.358733 0
M  V30 1708 H 167.534 4.68075 0.048498 0
M  V30 1709 H 167.707 6.47734 -0.185557 0
M  V30 1710 N 161.113 -0.173488 1.56642 0
M  V30 1711 C 162.361 -0.888706 1.81512 0
M  V30 1712 C 162.682 -1.82875 0.676872 0
M  V30 1713 O 161.952 -1.93536 -0.303414 0
M  V30 1714 H 160.532 -0.331164 0.669582 0
M  V30 1715 H 163.194 -0.173823 1.94123 0
M  V30 1716 H 162.29 -1.46691 2.75478 0
M  V30 1717 N 162.591 -1.51276 -0.441967 0
M  V30 1718 C 163.838 -1.63715 -1.19179 0
M  V30 1719 C 164.166 -0.351175 -1.91303 0
M  V30 1720 O 163.421 0.664524 -1.84072 0
M  V30 1721 C 163.72 -2.78746 -2.23686 0
M  V30 1722 C 163.386 -4.18189 -1.68607 0
M  V30 1723 C 162.048 -4.56125 -1.53308 0
M  V30 1724 C 164.4 -5.05222 -1.28062 0
M  V30 1725 C 161.728 -5.78804 -0.959317 0
M  V30 1726 C 164.08 -6.28476 -0.721162 0
M  V30 1727 C 162.744 -6.65188 -0.55504 0
M  V30 1728 H 162.014 -0.599076 -0.436106 0
M  V30 1729 H 164.661 -1.85296 -0.48351 0
M  V30 1730 H 162.966 -2.51369 -3.00535 0
M  V30 1731 H 164.663 -2.8557 -2.81515 0
M  V30 1732 H 161.253 -3.88277 -1.8149 0
M  V30 1733 H 165.437 -4.76524 -1.38704 0
M  V30 1734 H 160.693 -6.05899 -0.81833 0
M  V30 1735 H 164.867 -6.95259 -0.398458 0
M  V30 1736 H 162.494 -7.60123 -0.108311 0
M  V30 1737 N 164.069 0.697108 -1.41344 0
M  V30 1738 C 165.001 1.8224 -1.39001 0
M  V30 1739 C 166.014 1.60152 -0.292428 0
M  V30 1740 O 167.203 1.69684 -0.554048 0
M  V30 1741 C 164.303 3.18976 -1.14489 0
M  V30 1742 C 163.476 3.68105 -2.36258 0
M  V30 1743 C 162.535 4.83506 -2.07625 0
M  V30 1744 O 161.561 4.95201 -2.8065 0
M  V30 1745 N 162.763 5.70637 -1.06555 0
M  V30 1746 H 165.528 1.84742 -2.35988 0
M  V30 1747 H 163.089 0.87937 -1.35936 0
M  V30 1748 H 165.081 3.93801 -0.932885 0
M  V30 1749 H 163.651 3.11508 -0.261043 0
M  V30 1750 H 162.871 2.84204 -2.7317 0
M  V30 1751 H 164.159 3.97667 -3.17393 0
M  V30 1752 H 163.557 5.63817 -0.461125 0
M  V30 1753 H 162.114 6.45368 -0.913444 0
M  V30 1754 N 165.547 1.27147 0.931209 0
M  V30 1755 C 166.479 1.05364 2.03546 0
M  V30 1756 C 167.492 0.0108438 1.62796 0
M  V30 1757 O 168.681 0.25202 1.76712 0
M  V30 1758 C 165.781 0.575566 3.33977 0
M  V30 1759 C 164.954 1.68985 4.03439 0
M  V30 1760 C 164.013 1.20813 5.12143 0
M  V30 1761 O 163.039 1.90712 5.363 0
M  V30 1762 N 164.241 0.0618851 5.80467 0
M  V30 1763 H 167.006 2.00454 2.22796 0
M  V30 1764 H 164.567 1.18666 1.10136 0
M  V30 1765 H 166.559 0.237264 4.04004 0
M  V30 1766 H 165.129 -0.282016 3.11325 0
M  V30 1767 H 164.349 2.19861 3.27192 0
M  V30 1768 H 165.637 2.4378 4.46597 0
M  V30 1769 H 165.035 -0.521621 5.6329 0
M  V30 1770 H 163.592 -0.217264 6.51438 0
M  V30 1771 N 167.025 -1.13721 1.09112 0
M  V30 1772 C 167.955 -2.21148 0.749385 0
M  V30 1773 C 168.936 -1.6792 -0.271475 0
M  V30 1774 O 170.121 -1.93693 -0.140251 0
M  V30 1775 C 167.251 -3.46905 0.165659 0
M  V30 1776 C 166.205 -4.13203 1.11567 0
M  V30 1777 C 165.531 -5.33248 0.393809 0
M  V30 1778 C 166.831 -4.60912 2.45678 0
M  V30 1779 H 168.525 -2.4999 1.64758 0
M  V30 1780 H 166.071 -1.20156 0.793626 0
M  V30 1781 H 168.024 -4.21313 -0.085466 0
M  V30 1782 H 166.748 -3.17449 -0.767714 0
M  V30 1783 H 165.407 -3.40758 1.35202 0
M  V30 1784 H 165.055 -5.00054 -0.543599 0
M  V30 1785 H 164.755 -5.78552 1.02721 0
M  V30 1786 H 166.279 -6.10413 0.150908 0
M  V30 1787 H 167.693 -5.26759 2.26269 0
M  V30 1788 H 166.09 -5.16944 3.04776 0
M  V30 1789 H 167.16 -3.75603 3.06677 0
M  V30 1790 N 168.503 -0.877838 -1.30888 0
M  V30 1791 C 169.433 -0.35534 -2.3078 0
M  V30 1792 C 170.414 0.557994 -1.60687 0
M  V30 1793 O 171.599 0.473355 -1.88343 0
M  V30 1794 C 168.729 0.437221 -3.44537 0
M  V30 1795 C 167.683 -0.383715 -4.26276 0
M  V30 1796 C 167.009 0.535014 -5.32017 0
M  V30 1797 C 168.309 -1.62201 -4.96476 0
M  V30 1798 H 170.003 -1.19007 -2.74732 0
M  V30 1799 H 167.549 -0.573698 -1.32078 0
M  V30 1800 H 169.502 0.813334 -4.13477 0
M  V30 1801 H 168.226 1.30553 -2.99372 0
M  V30 1802 H 166.885 -0.741874 -3.59015 0
M  V30 1803 H 166.533 1.40083 -4.831 0
M  V30 1804 H 166.233 -0.0104211 -5.87599 0
M  V30 1805 H 167.757 0.907799 -6.03814 0
M  V30 1806 H 169.171 -1.31689 -5.5797 0
M  V30 1807 H 167.568 -2.10711 -5.61891 0
M  V30 1808 H 168.638 -2.37044 -4.23011 0
M  V30 1809 N 169.982 1.44106 -0.638065 0
M  V30 1810 C 170.914 2.28976 0.101205 0
M  V30 1811 C 171.927 1.4167 0.802088 0
M  V30 1812 O 173.116 1.65755 0.662375 0
M  V30 1813 C 170.216 3.18217 1.16581 0
M  V30 1814 C 169.389 4.33978 0.546066 0
M  V30 1815 C 168.448 5.04202 1.50554 0
M  V30 1816 O 167.474 5.59986 1.01999 0
M  V30 1817 N 168.676 5.06296 2.8398 0
M  V30 1818 H 171.441 2.93064 -0.627186 0
M  V30 1819 H 169.002 1.54629 -0.479731 0
M  V30 1820 H 170.994 3.62061 1.80815 0
M  V30 1821 H 169.564 2.55833 1.79634 0
M  V30 1822 H 168.784 3.93239 -0.275046 0
M  V30 1823 H 170.072 5.08675 0.112793 0
M  V30 1824 H 169.47 4.62319 3.26002 0
M  V30 1825 H 168.027 5.53907 3.43556 0
M  V30 1826 N 171.46 0.379036 1.52974 0
M  V30 1827 C 172.37 -0.468639 2.29872 0
M  V30 1828 C 173.386 -1.08067 1.36373 0
M  V30 1829 O 174.562 -1.08871 1.69438 0
M  V30 1830 C 171.627 -1.58594 3.083 0
M  V30 1831 C 170.688 -1.00007 4.17489 0
M  V30 1832 C 169.921 -2.06413 4.92168 0
M  V30 1833 O 170.144 -3.27751 4.66835 0
M  V30 1834 O 169.078 -1.68717 5.7777 0
M  V30 1835 H 172.904 0.157508 3.03291 0
M  V30 1836 H 170.489 0.143035 1.48714 0
M  V30 1837 H 172.371 -2.23525 3.57232 0
M  V30 1838 H 171.046 -2.19724 2.37703 0
M  V30 1839 H 169.953 -0.314299 3.72777 0
M  V30 1840 H 171.286 -0.433135 4.90291 0
M  V30 1841 N 172.938 -1.57226 0.108567 0
M  V30 1842 C 173.868 -2.17778 -0.84232 0
M  V30 1843 C 174.849 -1.11487 -1.2847 0
M  V30 1844 O 176.034 -1.39681 -1.34918 0
M  V30 1845 C 173.164 -2.76888 -2.09644 0
M  V30 1846 C 172.118 -3.88669 -1.79221 0
M  V30 1847 C 171.444 -4.34541 -3.11574 0
M  V30 1848 C 172.744 -5.11251 -1.06864 0
M  V30 1849 H 174.438 -2.97489 -0.337774 0
M  V30 1850 H 171.984 -1.43097 -0.161025 0
M  V30 1851 H 173.937 -3.17904 -2.76614 0
M  V30 1852 H 172.661 -1.94451 -2.62405 0
M  V30 1853 H 171.32 -3.48213 -1.14644 0
M  V30 1854 H 170.968 -3.48977 -3.62249 0
M  V30 1855 H 170.668 -5.09914 -2.91996 0
M  V30 1856 H 172.192 -4.782 -3.7968 0
M  V30 1857 H 173.606 -5.49352 -1.63968 0
M  V30 1858 H 172.003 -5.9214 -0.974178 0
M  V30 1859 H 173.073 -4.8487 -0.0536168 0
M  V30 1860 N 174.416 0.165178 -1.56732 0
M  V30 1861 C 175.364 1.22369 -1.97809 0
M  V30 1862 C 176.358 1.45488 -0.867741 0
M  V30 1863 O 177.564 1.45995 -1.05288 0
M  V30 1864 H 173.939 0.411486 -0.629431 0
M  V30 1865 H 175.91 0.850425 -2.86025 0
M  V30 1866 C 174.659 2.55403 -2.35934 0
M  V30 1867 H 173.982 2.38438 -3.20916 0
M  V30 1868 H 175.422 3.2814 -2.68514 0
M  V30 1869 C 173.881 3.14611 -1.20506 0
M  V30 1870 O 174.411 3.98626 -0.496016 0
M  V30 1871 N 172.617 2.7379 -0.97403 0
M  V30 1872 H 172.164 2.0557 -1.55238 0
M  V30 1873 H 172.122 3.1374 -0.203573 0
M  V30 1874 N 175.894 1.51508 0.433938 0
M  V30 1875 C 176.826 1.69266 1.54537 0
M  V30 1876 C 177.839 0.573276 1.52373 0
M  V30 1877 O 179.028 0.847698 1.57087 0
M  V30 1878 C 176.128 1.69524 2.93453 0
M  V30 1879 C 175.301 2.98101 3.20085 0
M  V30 1880 C 174.36 2.90502 4.38742 0
M  V30 1881 O 173.386 3.64442 4.3723 0
M  V30 1882 N 174.588 2.06586 5.42496 0
M  V30 1883 H 177.353 2.65145 1.39708 0
M  V30 1884 H 174.914 1.49437 0.622922 0
M  V30 1885 H 176.906 1.62004 3.70859 0
M  V30 1886 H 175.476 0.812245 3.01863 0
M  V30 1887 H 174.696 3.19464 2.30947 0
M  V30 1888 H 175.984 3.83207 3.34708 0
M  V30 1889 H 175.382 1.45896 5.46563 0
M  V30 1890 H 173.939 2.04943 6.18742 0
M  V30 1891 N 177.372 -0.689602 1.41712 0
M  V30 1892 C 178.783 -1.26973 1.36875 0
M  V30 1893 C 179.134 -1.96124 0.054748 0
M  V30 1894 O 178.259 -1.99141 -0.84687 0
M  V30 1895 C 178.854 -2.30912 2.47922 0
M  V30 1896 C 177.413 -2.84486 2.46464 0
M  V30 1897 C 176.56 -1.58603 2.27465 0
M  V30 1898 H 179.511 -0.48396 1.51141 0
M  V30 1899 H 179.532 -3.12331 2.17323 0
M  V30 1900 H 179.044 -1.80554 3.43543 0
M  V30 1901 H 177.145 -3.39005 1.54617 0
M  V30 1902 H 177.258 -3.34511 3.42986 0
M  V30 1903 H 175.622 -1.84632 1.75451 0
M  V30 1904 H 176.405 -1.10233 3.25121 0
M  V30 1905 N 178.85 -1.27639 -0.924453 0
M  V30 1906 C 180.266 -1.05113 -1.20097 0
M  V30 1907 C 180.466 0.213262 -2.00368 0
M  V30 1908 O 179.522 0.91787 -2.35226 0
M  V30 1909 C 180.835 -2.29244 -1.94596 0
M  V30 1910 C 182.383 -2.34315 -2.07522 0
M  V30 1911 C 182.858 -3.58183 -2.85427 0
M  V30 1912 N 184.349 -3.5876 -2.92994 0
M  V30 1913 C 185.084 -4.51277 -3.53746 0
M  V30 1914 N 184.58 -5.54102 -4.15863 0
M  V30 1915 N 186.373 -4.38894 -3.51181 0
M  V30 1916 H 178.524 -2.08821 -0.388264 0
M  V30 1917 H 180.787 -0.918568 -0.234385 0
M  V30 1918 H 180.493 -3.21301 -1.43034 0
M  V30 1919 H 180.367 -2.34816 -2.95197 0
M  V30 1920 H 182.754 -1.42762 -2.58269 0
M  V30 1921 H 182.835 -2.32744 -1.06131 0
M  V30 1922 H 182.479 -4.50074 -2.35363 0
M  V30 1923 H 182.409 -3.57006 -3.8711 0
M  V30 1924 H 184.9 -2.84398 -2.4885 0
M  V30 1925 H 185.213 -6.20859 -4.60168 0
M  V30 1926 H 183.558 -5.57941 -4.144 0
M  V30 1927 H 186.749 -3.57772 -3.01856 0
M  V30 1928 H 186.922 -5.11186 -3.98237 0
M  V30 1929 N 180.328 1.1314 -1.09713 0
M  V30 1930 C 181.605 1.80762 -0.747302 0
M  V30 1931 C 181.985 1.96663 0.767265 0
M  V30 1932 O 181.333 1.53706 1.69076 0
M  V30 1933 C 181.543 3.15606 -1.48975 0
M  V30 1934 C 182.891 3.90914 -1.65746 0
M  V30 1935 O 183.915 3.25239 -1.45251 0
M  V30 1936 O 182.774 5.08718 -1.9967 0
M  V30 1937 H 179.868 0.782103 -0.268782 0
M  V30 1938 H 182.414 1.20041 -1.19951 0
M  V30 1939 H 181.186 2.99278 -2.52088 0
M  V30 1940 H 180.809 3.84029 -1.02991 0
M  V30 1941 N 181.806 0.884767 1.30421 0
M  V30 1942 C 183.054 0.502112 1.95763 0
M  V30 1943 C 183.375 -0.951815 1.70192 0
M  V30 1944 O 182.645 -1.6692 1.0254 0
M  V30 1945 H 181.225 0.182694 0.724315 0
M  V30 1946 H 183.887 1.1278 1.58955 0
M  V30 1947 H 182.983 0.672188 3.04775 0
M  V30 1948 N 183.284 -1.43765 0.645699 0
M  V30 1949 C 184.531 -2.01898 0.15604 0
M  V30 1950 C 184.859 -1.50887 -1.22733 0
M  V30 1951 O 184.114 -0.689271 -1.8316 0
M  V30 1952 C 184.413 -3.57238 0.107679 0
M  V30 1953 C 184.079 -4.27564 1.43178 0
M  V30 1954 C 182.741 -4.46492 1.7944 0
M  V30 1955 C 185.093 -4.67454 2.30513 0
M  V30 1956 C 182.421 -5.02573 3.02716 0
M  V30 1957 C 184.773 -5.24901 3.53074 0
M  V30 1958 C 183.437 -5.42046 3.89541 0
M  V30 1959 H 182.707 -0.738797 0.057099 0
M  V30 1960 H 185.354 -1.72341 0.834912 0
M  V30 1961 H 183.659 -3.86293 -0.654618 0
M  V30 1962 H 185.356 -3.99965 -0.287938 0
M  V30 1963 H 181.946 -4.13171 1.13963 0
M  V30 1964 H 186.13 -4.5253 2.0379 0
M  V30 1965 H 181.386 -5.14033 3.31028 0
M  V30 1966 H 185.56 -5.54758 4.20971 0
M  V30 1967 H 183.187 -5.85268 4.85145 0
M  V30 1968 N 184.763 -0.387143 -1.52771 0
M  V30 1969 C 185.695 0.484089 -2.2403 0
M  V30 1970 C 186.708 1.02849 -1.26198 0
M  V30 1971 O 187.897 0.931186 -1.52286 0
M  V30 1972 C 184.997 1.68337 -2.94136 0
M  V30 1973 C 184.17 1.26672 -4.18656 0
M  V30 1974 C 183.229 2.33045 -4.7178 0
M  V30 1975 O 182.255 1.94541 -5.34923 0
M  V30 1976 N 183.457 3.64929 -4.5145 0
M  V30 1977 H 186.222 -0.126404 -2.99433 0
M  V30 1978 H 183.783 -0.213392 -1.60488 0
M  V30 1979 H 185.775 2.39019 -3.26577 0
M  V30 1980 H 184.345 2.20025 -2.22053 0
M  V30 1981 H 183.565 0.388878 -3.92277 0
M  V30 1982 H 184.853 0.964964 -4.99566 0
M  V30 1983 H 184.251 3.98974 -4.01044 0
M  V30 1984 H 182.808 4.31651 -4.88386 0
M  V30 1985 N 186.241 1.57166 -0.116904 0
M  V30 1986 C 187.171 2.18222 0.830759 0
M  V30 1987 C 188.152 1.12167 1.27877 0
M  V30 1988 O 189.337 1.40394 1.34176 0
M  V30 1989 C 186.467 2.77996 2.08172 0
M  V30 1990 C 185.421 3.89614 1.77157 0
M  V30 1991 C 184.747 4.36187 3.09265 0
M  V30 1992 C 186.047 5.1181 1.04151 0
M  V30 1993 H 187.741 2.97664 0.321992 0
M  V30 1994 H 185.287 1.4318 0.153434 0
M  V30 1995 H 187.24 3.19366 2.74924 0
M  V30 1996 H 185.964 1.9584 2.6137 0
M  V30 1997 H 184.623 3.48816 1.12796 0
M  V30 1998 H 184.271 3.50893 3.60393 0
M  V30 1999 H 183.971 5.11455 2.89288 0
M  V30 2000 H 185.495 4.80207 3.77139 0
M  V30 2001 H 186.909 5.50214 1.61052 0
M  V30 2002 H 185.306 5.92648 0.942762 0
M  V30 2003 H 186.376 4.84892 0.0279022 0
M  V30 2004 N 187.719 -0.156864 1.56817 0
M  V30 2005 C 188.944 -0.890331 1.87318 0
M  V30 2006 C 189.369 -1.74394 0.704855 0
M  V30 2007 O 188.727 -1.77972 -0.345786 0
M  V30 2008 C 188.775 -1.73102 3.16336 0
M  V30 2009 O 187.879 -2.83422 2.99576 0
M  V30 2010 H 187.22 -0.24857 0.615718 0
M  V30 2011 H 189.75 -0.150649 2.04045 0
M  V30 2012 H 189.76 -2.12803 3.48107 0
M  V30 2013 H 188.435 -1.10412 4.00976 0
M  V30 2014 H 187.012 -2.47199 2.7919 0
M  V30 2015 N 189.197 -1.51736 -0.425897 0
M  V30 2016 C 190.127 -1.76827 -1.52494 0
M  V30 2017 C 191.108 -0.618524 -1.58456 0
M  V30 2018 O 192.293 -0.862416 -1.74 0
M  V30 2019 C 189.423 -1.90374 -2.90474 0
M  V30 2020 C 188.377 -3.0588 -2.99369 0
M  V30 2021 C 187.703 -3.04625 -4.3944 0
M  V30 2022 C 189.003 -4.45644 -2.72394 0
M  V30 2023 H 190.697 -2.68855 -1.31748 0
M  V30 2024 H 188.243 -1.29372 -0.632362 0
M  V30 2025 H 190.196 -2.0651 -3.6733 0
M  V30 2026 H 188.92 -0.95004 -3.12477 0
M  V30 2027 H 187.579 -2.89467 -2.24954 0
M  V30 2028 H 187.227 -2.0701 -4.58428 0
M  V30 2029 H 186.927 -3.82195 -4.46319 0
M  V30 2030 H 188.451 -3.22869 -5.18255 0
M  V30 2031 H 189.865 -4.62348 -3.38979 0
M  V30 2032 H 188.262 -5.25006 -2.9067 0
M  V30 2033 H 189.332 -4.54893 -1.67929 0
M  V30 2034 N 190.675 0.682077 -1.42076 0
M  V30 2035 C 191.923 1.4393 -1.41876 0
M  V30 2036 C 192.244 1.94971 -0.0335599 0
M  V30 2037 O 191.514 1.72591 0.926773 0
M  V30 2038 H 190.094 0.534085 -0.522267 0
M  V30 2039 H 192.756 0.806427 -1.77434 0
M  V30 2040 H 191.852 2.29588 -2.11414 0
M  V30 2041 N 192.153 1.28127 0.917671 0
M  V30 2042 C 193.101 1.11569 2.04096 0
M  V30 2043 C 194.095 0.0360242 1.69362 0
M  V30 2044 O 195.301 0.194501 1.78946 0
M  V30 2045 H 191.676 0.344097 0.668656 0
M  V30 2046 H 193.647 2.06711 2.15205 0
M  V30 2047 C 192.396 0.790197 3.38602 0
M  V30 2048 H 191.719 1.61293 3.6582 0
M  V30 2049 H 193.159 0.714271 4.1794 0
M  V30 2050 C 191.618 -0.505897 3.3308 0
M  V30 2051 O 192.148 -1.53736 3.71117 0
M  V30 2052 N 190.354 -0.505193 2.86175 0
M  V30 2053 H 189.901 0.334621 2.55417 0
M  V30 2054 H 189.859 -1.37243 2.82863 0
M  V30 2055 N 193.631 -1.12557 1.10312 0
M  V30 2056 C 194.594 -2.16434 0.75424 0
M  V30 2057 C 195.594 -1.59278 -0.220685 0
M  V30 2058 O 196.784 -1.742 0.00230591 0
M  V30 2059 C 193.916 -3.40699 0.116987 0
M  V30 2060 H 195.109 -2.48811 1.67431 0
M  V30 2061 H 192.662 -1.27542 0.903475 0
M  V30 2062 H 193.397 -3.13921 -0.813877 0
M  V30 2063 H 193.182 -3.83459 0.818613 0
M  V30 2064 H 194.672 -4.17451 -0.111387 0
M  V30 2065 N 195.109 -0.891671 -1.2995 0
M  V30 2066 C 196.039 -0.379797 -2.30391 0
M  V30 2067 C 197.02 0.540919 -1.6127 0
M  V30 2068 O 198.205 0.453352 -1.88834 0
M  V30 2069 C 195.335 0.400654 -3.44981 0
M  V30 2070 C 194.289 -0.428905 -4.25846 0
M  V30 2071 C 193.615 0.478557 -5.32554 0
M  V30 2072 C 194.915 -1.67458 -4.94727 0
M  V30 2073 H 196.609 -1.21914 -2.73454 0
M  V30 2074 H 194.155 -0.587675 -1.31462 0
M  V30 2075 H 196.108 0.769434 -4.14316 0
M  V30 2076 H 194.832 1.27371 -3.0074 0
M  V30 2077 H 193.491 -0.779911 -3.58208 0
M  V30 2078 H 193.139 1.34951 -4.84559 0
M  V30 2079 H 192.839 -0.0727433 -5.87555 0
M  V30 2080 H 194.363 0.843705 -6.04743 0
M  V30 2081 H 195.777 -1.376 -5.56542 0
M  V30 2082 H 194.174 -2.16659 -5.59624 0
M  V30 2083 H 195.244 -2.41518 -4.20473 0
M  V30 2084 N 196.587 1.43421 -0.653314 0
M  V30 2085 C 197.834 2.01812 -0.166745 0
M  V30 2086 C 198.162 1.51535 1.21931 0
M  V30 2087 O 197.417 0.698975 1.82792 0
M  V30 2088 C 197.716 3.57176 -0.126623 0
M  V30 2089 C 197.382 4.26798 -1.45444 0
M  V30 2090 C 196.044 4.45534 -1.81805 0
M  V30 2091 C 198.396 4.66225 -2.32989 0
M  V30 2092 C 195.724 5.00961 -3.05377 0
M  V30 2093 C 198.076 5.23021 -3.55853 0
M  V30 2094 C 196.74 5.39973 -3.9241 0
M  V30 2095 H 196.01 0.738484 -0.0610162 0
M  V30 2096 H 198.657 1.71896 -0.84404 0
M  V30 2097 H 196.962 3.86634 0.634123 0
M  V30 2098 H 198.659 4.00112 0.266723 0
M  V30 2099 H 195.249 4.12561 -1.16153 0
M  V30 2100 H 199.433 4.51443 -2.06187 0
M  V30 2101 H 194.689 5.12271 -3.3375 0
M  V30 2102 H 198.863 5.52518 -4.23907 0
M  V30 2103 H 196.49 5.82687 -4.88242 0
M  V30 2104 N 198.065 0.39524 1.52563 0
M  V30 2105 C 199.293 -0.184943 2.06072 0
M  V30 2106 C 199.708 -1.40021 1.26647 0
M  V30 2107 O 199.065 -1.79767 0.314672 0
M  V30 2108 C 199.116 -0.549179 3.57304 0
M  V30 2109 O 198.837 0.617813 4.33722 0
M  V30 2110 C 200.338 -1.18459 4.2718 0
M  V30 2111 H 197.558 -0.0265025 0.670476 0
M  V30 2112 H 200.102 0.562184 1.96621 0
M  V30 2113 H 198.257 -1.2462 3.66809 0
M  V30 2114 H 198.671 0.317091 5.23541 0
M  V30 2115 H 200.145 -1.38976 5.34219 0
M  V30 2116 H 200.622 -2.15368 3.82771 0
M  V30 2117 H 201.228 -0.528163 4.22008 0
M  V30 2118 N 199.544 -1.57102 0.125237 0
M  V30 2119 C 200.821 -1.86953 -0.575142 0
M  V30 2120 C 201.201 -1.02749 -1.84407 0
M  V30 2121 O 200.549 -0.108144 -2.28244 0
M  V30 2122 C 200.759 -3.38198 -0.861583 0
M  V30 2123 C 202.107 -4.06937 -1.21192 0
M  V30 2124 O 203.131 -3.43252 -0.951645 0
M  V30 2125 O 201.99 -5.19364 -1.70068 0
M  V30 2126 H 199.084 -0.774147 -0.290906 0
M  V30 2127 H 201.63 -1.68942 0.160211 0
M  V30 2128 H 200.402 -3.91282 0.0373647 0
M  V30 2129 H 200.025 -3.61661 -1.65188 0
M  V30 2130 N 201.022 0.148545 -1.56898 0
M  V30 2131 C 201.952 1.18524 -2.01182 0
M  V30 2132 C 202.933 1.4489 -0.891123 0
M  V30 2133 O 204.118 1.55836 -1.15882 0
M  V30 2134 C 201.248 2.51879 -2.39112 0
M  V30 2135 C 200.202 2.40038 -3.54353 0
M  V30 2136 C 199.528 3.78089 -3.78091 0
M  V30 2137 C 200.828 1.88577 -4.87069 0
M  V30 2138 H 202.522 0.817029 -2.88036 0
M  V30 2139 H 200.068 0.391575 -1.38574 0
M  V30 2140 H 202.021 3.24627 -2.68692 0
M  V30 2141 H 200.745 2.90532 -1.49193 0
M  V30 2142 H 199.404 1.69742 -3.24936 0
M  V30 2143 H 199.052 4.14175 -2.85426 0
M  V30 2144 H 198.752 3.71028 -4.55645 0
M  V30 2145 H 200.276 4.52387 -4.10095 0
M  V30 2146 H 201.69 2.51117 -5.15377 0
M  V30 2147 H 200.087 1.9241 -5.68417 0
M  V30 2148 H 201.157 0.84136 -4.77545 0
M  V30 2149 N 202.5 1.5196 0.417844 0
M  V30 2150 C 203.746 1.65836 1.16732 0
M  V30 2151 C 204.079 0.382881 1.90388 0
M  V30 2152 O 203.354 -0.618368 1.84408 0
M  V30 2153 C 203.637 2.87466 2.16876 0
M  V30 2154 C 203.49 4.25041 1.47174 0
M  V30 2155 C 204.809 3.04613 3.17646 0
M  V30 2156 H 201.928 0.603515 0.423011 0
M  V30 2157 H 204.57 1.84494 0.454105 0
M  V30 2158 H 202.72 2.71689 2.777 0
M  V30 2159 H 204.392 4.52527 0.895376 0
M  V30 2160 H 202.635 4.26843 0.773806 0
M  V30 2161 H 203.306 5.06176 2.20204 0
M  V30 2162 H 205.782 3.1923 2.66892 0
M  V30 2163 H 204.658 3.91247 3.8499 0
M  V30 2164 H 204.919 2.17541 3.84874 0
M  V30 2165 N 203.978 -0.674533 1.42435 0
M  V30 2166 C 205.224 -1.43671 1.43131 0
M  V30 2167 C 205.557 -1.94142 0.0476021 0
M  V30 2168 O 204.832 -1.70924 -0.928188 0
M  V30 2169 C 205.115 -2.63355 2.45594 0
M  V30 2170 C 204.968 -2.18514 3.93156 0
M  V30 2171 C 206.287 -3.65571 2.45043 0
M  V30 2172 H 203.406 -0.521077 0.521198 0
M  V30 2173 H 206.048 -0.766551 1.7385 0
M  V30 2174 H 204.198 -3.2053 2.19528 0
M  V30 2175 H 205.87 -1.66504 4.30202 0
M  V30 2176 H 204.113 -1.50086 4.07009 0
M  V30 2177 H 204.784 -3.04484 4.60428 0
M  V30 2178 H 207.26 -3.18113 2.68223 0
M  V30 2179 H 206.136 -4.46893 3.18713 0
M  V30 2180 H 206.397 -4.16716 1.47649 0
M  V30 2181 N 205.456 -1.28612 -0.910864 0
M  V30 2182 C 206.733 -1.06632 -1.63979 0
M  V30 2183 C 207.113 0.393351 -2.07403 0
M  V30 2184 O 206.461 1.37999 -1.82122 0
M  V30 2185 C 206.671 -2.0436 -2.8291 0
M  V30 2186 C 208.019 -2.34666 -3.5386 0
M  V30 2187 O 209.043 -2.02467 -2.93062 0
M  V30 2188 O 207.902 -2.89631 -4.63439 0
M  V30 2189 H 204.996 -0.407737 -0.7195 0
M  V30 2190 H 207.542 -1.39942 -0.959914 0
M  V30 2191 H 206.314 -3.02727 -2.47936 0
M  V30 2192 H 205.937 -1.71714 -3.58609 0
M  V30 2193 N 206.934 1.1197 -1.10907 0
M  V30 2194 C 207.864 2.19928 -0.784473 0
M  V30 2195 C 208.845 1.6833 0.244726 0
M  V30 2196 O 210.03 1.93892 0.109418 0
M  V30 2197 C 207.16 3.46597 -0.220827 0
M  V30 2198 C 206.114 4.11376 -1.18127 0
M  V30 2199 C 205.44 5.32554 -0.478594 0
M  V30 2200 C 206.74 4.56945 -2.52979 0
M  V30 2201 H 208.434 2.47337 -1.68715 0
M  V30 2202 H 205.98 1.18879 -0.812642 0
M  V30 2203 H 207.933 4.21396 0.0184278 0
M  V30 2204 H 206.657 3.1863 0.717113 0
M  V30 2205 H 205.316 3.38564 -1.40606 0
M  V30 2206 H 204.964 5.00856 0.463976 0
M  V30 2207 H 204.664 5.76844 -1.11912 0
M  V30 2208 H 206.188 6.10096 -0.248 0
M  V30 2209 H 207.602 5.23093 -2.3462 0
M  V30 2210 H 205.999 5.1203 -3.12962 0
M  V30 2211 H 207.069 3.70676 -3.12614 0
M  V30 2212 N 208.412 0.89855 1.29475 0
M  V30 2213 C 209.344 0.332726 2.26772 0
M  V30 2214 C 210.357 -0.520323 1.54261 0
M  V30 2215 O 211.546 -0.337668 1.75277 0
M  V30 2216 C 208.646 -0.544334 3.345 0
M  V30 2217 C 207.819 0.282728 4.36485 0
M  V30 2218 C 206.878 -0.526982 5.23555 0
M  V30 2219 O 205.904 0.0551165 5.69173 0
M  V30 2220 N 207.106 -1.83331 5.5079 0
M  V30 2221 H 209.871 1.16897 2.75962 0
M  V30 2222 H 207.432 0.762919 1.42798 0
M  V30 2223 H 209.424 -1.09239 3.89678 0
M  V30 2224 H 207.994 -1.28127 2.85136 0
M  V30 2225 H 207.214 1.01221 3.80983 0
M  V30 2226 H 208.502 0.84918 5.01664 0
M  V30 2227 H 207.9 -2.32898 5.15534 0
M  V30 2228 H 206.457 -2.32852 6.08788 0
M  V30 2229 N 209.89 -1.43072 0.660911 0
M  V30 2230 C 211.167 -1.95307 0.107017 0
M  V30 2231 C 211.547 -1.60192 -1.37484 0
M  V30 2232 O 210.895 -0.890949 -2.10415 0
M  V30 2233 C 211.105 -3.47124 0.361402 0
M  V30 2234 C 212.453 -4.23738 0.270455 0
M  V30 2235 O 213.477 -3.54981 0.294382 0
M  V30 2236 O 212.336 -5.46131 0.200737 0
M  V30 2237 H 209.43 -0.826984 -0.00517729 0
M  V30 2238 H 211.976 -1.52972 0.734681 0
M  V30 2239 H 210.748 -3.65837 1.38848 0
M  V30 2240 H 210.371 -3.96475 -0.298953 0
M  V30 2241 N 211.368 -0.403325 -1.52352 0
M  V30 2242 C 212.596 0.174012 -2.06167 0
M  V30 2243 C 213.011 1.39347 -1.27388 0
M  V30 2244 O 212.368 1.79597 -0.324201 0
M  V30 2245 C 212.419 0.530223 -3.5759 0
M  V30 2246 O 212.14 -0.640806 -4.33388 0
M  V30 2247 C 213.641 1.16192 -4.27802 0
M  V30 2248 H 210.861 0.0229464 -0.670608 0
M  V30 2249 H 213.405 -0.572604 -1.9632 0
M  V30 2250 H 211.56 1.22673 -3.67464 0
M  V30 2251 H 211.974 -0.344851 -5.23365 0
M  V30 2252 H 213.448 1.36141 -5.34948 0
M  V30 2253 H 213.925 2.13335 -3.83907 0
M  V30 2254 H 214.531 0.505775 -4.22282 0
M  V30 2255 N 212.846 1.57033 -0.133567 0
M  V30 2256 C 214.093 1.95686 0.520877 0
M  V30 2257 C 214.421 1.0177 1.6575 0
M  V30 2258 O 213.676 0.0443195 1.9565 0
M  V30 2259 C 213.975 3.40674 1.08057 0
M  V30 2260 C 213.641 4.50855 0.0637899 0
M  V30 2261 C 212.303 4.80716 -0.215757 0
M  V30 2262 C 214.655 5.17398 -0.62835 0
M  V30 2263 C 211.983 5.74433 -1.19348 0
M  V30 2264 C 214.335 6.12167 -1.5948 0
M  V30 2265 C 212.999 6.40414 -1.88218 0
M  V30 2266 H 212.269 0.716067 0.190602 0
M  V30 2267 H 214.916 1.9026 -0.217556 0
M  V30 2268 H 213.221 3.42865 1.89606 0
M  V30 2269 H 214.918 3.67902 1.59529 0
M  V30 2270 H 211.508 4.27605 0.291855 0
M  V30 2271 H 215.692 4.94472 -0.425562 0
M  V30 2272 H 210.948 5.94616 -1.42272 0
M  V30 2273 H 215.122 6.6281 -2.13671 0
M  V30 2274 H 212.749 7.12838 -2.64133 0
M  V30 2275 N 214.325 -0.140222 1.56975 0
M  V30 2276 C 215.571 -0.852949 1.83991 0
M  V30 2277 C 215.904 -1.80512 0.716187 0
M  V30 2278 O 215.179 -1.92479 -0.279681 0
M  V30 2279 C 215.462 -1.6215 3.21527 0
M  V30 2280 C 215.315 -0.690363 4.4447 0
M  V30 2281 C 216.634 -2.58247 3.56366 0
M  V30 2282 H 213.753 -0.308634 0.669264 0
M  V30 2283 H 216.395 -0.117898 1.89634 0
M  V30 2284 H 214.545 -2.24812 3.16847 0
M  V30 2285 H 216.217 -0.0742264 4.6124 0
M  V30 2286 H 214.46 -0.000396433 4.338 0
M  V30 2287 H 215.131 -1.2643 5.37326 0
M  V30 2288 H 217.607 -2.05701 3.61699 0
M  V30 2289 H 216.483 -3.09067 4.53617 0
M  V30 2290 H 216.744 -3.39923 2.82674 0
M  V30 2291 N 215.803 -1.52179 -0.40978 0
M  V30 2292 C 217.028 -1.70347 -1.18308 0
M  V30 2293 C 217.453 -0.411887 -1.83535 0
M  V30 2294 O 216.811 0.630587 -1.6998 0
M  V30 2295 C 216.859 -2.83977 -2.22238 0
M  V30 2296 O 215.963 -2.495 -3.28365 0
M  V30 2297 H 215.304 -0.567103 -0.345384 0
M  V30 2298 H 217.834 -1.98879 -0.480445 0
M  V30 2299 H 217.844 -3.0887 -2.66577 0
M  V30 2300 H 216.519 -3.77685 -1.74146 0
M  V30 2301 H 215.096 -2.35277 -2.89308 0
M  V30 2302 N 217.281 0.66697 -1.42791 0
M  V30 2303 C 218.244 1.76211 -1.46568 0
M  V30 2304 C 219.244 1.56896 -0.352196 0
M  V30 2305 O 220.434 1.63044 -0.613364 0
M  V30 2306 C 217.566 3.14935 -1.30494 0
M  V30 2307 H 218.759 1.74247 -2.44086 0
M  V30 2308 H 216.312 0.877342 -1.29354 0
M  V30 2309 H 217.047 3.2252 -0.339301 0
M  V30 2310 H 216.832 3.30359 -2.11199 0
M  V30 2311 H 218.322 3.94821 -1.36038 0
M  V30 2312 N 218.759 1.29093 0.90403 0
M  V30 2313 C 219.692 1.08176 2.00931 0
M  V30 2314 C 220.67 -0.005083 1.62599 0
M  V30 2315 O 221.854 0.144765 1.87943 0
M  V30 2316 C 218.981 0.645897 3.32484 0
M  V30 2317 C 218.027 1.73081 3.89801 0
M  V30 2318 S 218.86 3.32905 4.19446 0
M  V30 2319 C 220.016 2.91176 5.54046 0
M  V30 2320 H 220.249 2.01752 2.18365 0
M  V30 2321 H 217.782 1.13191 1.0501 0
M  V30 2322 H 219.74 0.401131 4.08535 0
M  V30 2323 H 218.401 -0.270188 3.12936 0
M  V30 2324 H 217.594 1.37768 4.84805 0
M  V30 2325 H 217.196 1.92888 3.20422 0
M  V30 2326 H 219.488 2.37952 6.34338 0
M  V30 2327 H 220.431 3.85014 5.94281 0
M  V30 2328 H 220.839 2.296 5.15698 0
M  V30 2329 N 220.237 -1.11381 1.11499 0
M  V30 2330 C 221.184 -2.17439 0.773887 0
M  V30 2331 C 222.154 -1.64132 -0.254899 0
M  V30 2332 O 223.339 -1.90345 -0.13168 0
M  V30 2333 C 220.479 -3.44373 0.223917 0
M  V30 2334 C 219.592 -4.1168 1.30934 0
M  V30 2335 C 218.727 -5.263 0.71984 0
M  V30 2336 C 217.766 -5.85493 1.78507 0
M  V30 2337 N 216.903 -6.91507 1.21502 0
M  V30 2338 H 221.743 -2.45962 1.68246 0
M  V30 2339 H 219.28 -1.20744 0.840191 0
M  V30 2340 H 221.238 -4.17047 -0.112921 0
M  V30 2341 H 219.868 -3.16232 -0.647851 0
M  V30 2342 H 218.92 -3.37073 1.76312 0
M  V30 2343 H 220.232 -4.51729 2.11524 0
M  V30 2344 H 219.386 -6.05785 0.333094 0
M  V30 2345 H 218.125 -4.87559 -0.117377 0
M  V30 2346 H 217.13 -5.04686 2.18111 0
M  V30 2347 H 218.355 -6.26301 2.62533 0
M  V30 2348 H 216.301 -6.54783 0.399455 0
M  V30 2349 H 216.218 -7.30214 1.95763 0
M  V30 2350 H 217.486 -7.74795 0.855181 0
M  V30 2351 N 221.715 -0.905404 -1.28997 0
M  V30 2352 C 222.943 -0.549846 -1.9946 0
M  V30 2353 C 223.358 0.866834 -1.67724 0
M  V30 2354 O 222.715 1.57298 -0.925404 0
M  V30 2355 C 222.766 -0.739387 -3.53858 0
M  V30 2356 O 222.487 -2.10031 -3.84472 0
M  V30 2357 C 223.988 -0.389541 -4.41585 0
M  V30 2358 H 221.208 -0.210429 -0.637151 0
M  V30 2359 H 223.752 -1.21632 -1.64396 0
M  V30 2360 H 221.907 -0.120023 -3.87214 0
M  V30 2361 H 222.321 -2.13385 -4.79132 0
M  V30 2362 H 223.795 -0.572972 -5.49018 0
M  V30 2363 H 224.272 0.673756 -4.34001 0
M  V30 2364 H 224.878 -0.986089 -4.1371 0
M  V30 2365 N 223.193 1.4272 -0.668489 0
M  V30 2366 C 224.123 2.335 -0.000100175 0
M  V30 2367 C 225.104 1.50328 0.795964 0
M  V30 2368 O 226.289 1.78949 0.754385 0
M  V30 2369 C 223.419 3.33874 0.956302 0
M  V30 2370 C 222.373 4.27152 0.269278 0
M  V30 2371 C 221.699 5.17684 1.33818 0
M  V30 2372 C 222.999 5.15373 -0.847805 0
M  V30 2373 H 224.693 2.89639 -0.758244 0
M  V30 2374 H 222.239 1.39269 -0.366079 0
M  V30 2375 H 224.192 3.9629 1.43292 0
M  V30 2376 H 222.916 2.76025 1.74579 0
M  V30 2377 H 221.575 3.66123 -0.187042 0
M  V30 2378 H 221.223 4.56165 2.1195 0
M  V30 2379 H 220.923 5.80918 0.883659 0
M  V30 2380 H 222.447 5.82974 1.81586 0
M  V30 2381 H 223.861 5.7151 -0.452681 0
M  V30 2382 H 222.258 5.87407 -1.22773 0
M  V30 2383 H 223.328 4.5415 -1.69929 0
M  V30 2384 N 224.671 0.411399 1.52136 0
M  V30 2385 C 225.901 -0.16284 2.05957 0
M  V30 2386 C 226.309 -1.3922 1.28119 0
M  V30 2387 O 225.652 -1.80768 0.326881 0
M  V30 2388 C 225.714 -0.575946 3.54856 0
M  V30 2389 C 225.378 0.542998 4.53763 0
M  V30 2390 C 226.375 1.40726 5.00492 0
M  V30 2391 C 224.06 0.716337 4.97166 0
M  V30 2392 C 226.054 2.4298 5.8927 0
M  V30 2393 C 223.741 1.74218 5.8574 0
M  V30 2394 C 224.739 2.59731 6.31687 0
M  V30 2395 O 224.427 3.60558 7.18507 0
M  V30 2396 H 224.159 -0.0229125 0.675612 0
M  V30 2397 H 226.713 0.581634 1.96993 0
M  V30 2398 H 224.943 -1.37274 3.61515 0
M  V30 2399 H 226.632 -1.07836 3.91313 0
M  V30 2400 H 227.398 1.28476 4.67674 0
M  V30 2401 H 223.277 0.0603857 4.6096 0
M  V30 2402 H 226.821 3.0976 6.25055 0
M  V30 2403 H 222.718 1.86498 6.17971 0
M  V30 2404 H 223.486 3.56829 7.36624 0
M  V30 2405 N 226.149 -1.5696 0.141893 0
M  V30 2406 C 227.079 -2.19516 -0.795936 0
M  V30 2407 C 228.06 -1.14187 -1.26077 0
M  V30 2408 O 229.245 -1.42511 -1.31925 0
M  V30 2409 C 226.375 -2.81272 -2.03723 0
M  V30 2410 C 225.329 -3.92384 -1.70936 0
M  V30 2411 C 224.655 -4.41052 -3.02287 0
M  V30 2412 C 225.955 -5.13403 -0.959954 0
M  V30 2413 H 227.649 -2.98138 -0.274596 0
M  V30 2414 H 225.195 -1.43406 -0.130636 0
M  V30 2415 H 227.148 -3.237 -2.69808 0
M  V30 2416 H 225.872 -1.99973 -2.58221 0
M  V30 2417 H 224.531 -3.50566 -1.07232 0
M  V30 2418 H 224.179 -3.56582 -3.54765 0
M  V30 2419 H 223.879 -5.15993 -2.81114 0
M  V30 2420 H 225.403 -4.86146 -3.69451 0
M  V30 2421 H 226.817 -5.52706 -1.52279 0
M  V30 2422 H 225.214 -5.94073 -0.848357 0
M  V30 2423 H 226.284 -4.84875 0.0492434 0
M  V30 2424 N 227.627 0.131896 -1.57047 0
M  V30 2425 C 228.59 1.14638 -1.98471 0
M  V30 2426 C 229.59 1.35029 -0.873148 0
M  V30 2427 O 230.78 1.31764 -1.13946 0
M  V30 2428 C 227.912 2.50358 -2.31373 0
M  V30 2429 H 229.105 0.79064 -2.8929 0
M  V30 2430 H 226.658 0.375761 -1.51716 0
M  V30 2431 H 227.393 2.90876 -1.43393 0
M  V30 2432 H 227.178 2.36915 -3.12432 0
M  V30 2433 H 228.668 3.23395 -2.64207 0
M  V30 2434 N 229.106 1.52395 0.401703 0
M  V30 2435 C 230.383 1.57387 1.16141 0
M  V30 2436 C 230.763 0.359359 2.08019 0
M  V30 2437 O 230.111 -0.65326 2.18963 0
M  V30 2438 C 230.321 2.90631 1.93221 0
M  V30 2439 C 231.669 3.43904 2.49028 0
M  V30 2440 O 232.693 2.92421 2.03393 0
M  V30 2441 O 231.552 4.33823 3.32356 0
M  V30 2442 H 228.646 0.634262 0.530698 0
M  V30 2443 H 231.192 1.64725 0.407883 0
M  V30 2444 H 229.964 3.70473 1.25958 0
M  V30 2445 H 229.587 2.8662 2.75563 0
M  V30 2446 N 230.584 -0.659388 1.43143 0
M  V30 2447 C 231.812 -1.44723 1.47861 0
M  V30 2448 C 232.227 -1.88563 0.0945886 0
M  V30 2449 O 231.584 -1.59108 -0.893915 0
M  V30 2450 C 231.635 -2.68627 2.41913 0
M  V30 2451 O 231.356 -2.26623 3.74932 0
M  V30 2452 C 232.857 -3.62045 2.55809 0
M  V30 2453 H 230.077 -0.444801 0.502387 0
M  V30 2454 H 232.621 -0.808916 1.87821 0
M  V30 2455 H 230.776 -3.28613 2.05164 0
M  V30 2456 H 231.19 -3.06745 4.2545 0
M  V30 2457 H 232.664 -4.45666 3.25708 0
M  V30 2458 H 233.141 -4.08981 1.60099 0
M  V30 2459 H 233.747 -3.07944 2.93344 0
M  V30 2460 N 232.062 -1.29571 -0.897171 0
M  V30 2461 C 233.309 -1.17689 -1.6479 0
M  V30 2462 C 233.637 0.27107 -1.92602 0
M  V30 2463 O 232.892 1.21193 -1.53658 0
M  V30 2464 C 233.191 -1.9382 -3.00281 0
M  V30 2465 C 232.857 -3.43522 -2.92068 0
M  V30 2466 C 231.519 -3.84348 -2.89535 0
M  V30 2467 C 233.871 -4.38906 -2.81089 0
M  V30 2468 C 231.199 -5.18869 -2.73846 0
M  V30 2469 C 233.551 -5.73521 -2.66939 0
M  V30 2470 C 232.215 -6.13601 -2.62774 0
M  V30 2471 H 231.485 -0.430654 -0.603008 0
M  V30 2472 H 234.132 -1.60536 -1.04404 0
M  V30 2473 H 232.437 -1.4357 -3.64547 0
M  V30 2474 H 234.134 -1.82028 -3.57305 0
M  V30 2475 H 230.724 -3.11072 -2.94842 0
M  V30 2476 H 234.908 -4.08315 -2.82121 0
M  V30 2477 H 230.164 -5.4903 -2.69027 0
M  V30 2478 H 234.338 -6.47078 -2.57416 0
M  V30 2479 H 231.965 -7.17786 -2.50375 0
M  V30 2480 N 233.54 1.10788 -1.12088 0
M  V30 2481 C 234.951 1.64181 -0.88891 0
M  V30 2482 C 235.302 1.87508 0.577498 0
M  V30 2483 O 234.427 1.61434 1.44112 0
M  V30 2484 C 235.022 2.98257 -1.60712 0
M  V30 2485 C 233.581 3.4853 -1.42139 0
M  V30 2486 C 232.728 2.23208 -1.6454 0
M  V30 2487 H 235.679 0.943368 -1.27618 0
M  V30 2488 H 235.7 3.65552 -1.05604 0
M  V30 2489 H 235.212 2.81246 -2.67436 0
M  V30 2490 H 233.313 3.70692 -0.376552 0
M  V30 2491 H 233.426 4.26882 -2.17505 0
M  V30 2492 H 231.79 2.31169 -1.06925 0
M  V30 2493 H 232.573 2.08733 -2.72554 0
M  V30 2494 N 235.018 0.912232 1.28515 0
M  V30 2495 C 236.246 0.560416 1.99166 0
M  V30 2496 C 236.661 -0.857927 1.68182 0
M  V30 2497 O 236.018 -1.56805 0.933733 0
M  V30 2498 C 236.069 0.758142 3.53461 0
M  V30 2499 O 235.79 2.12067 3.83352 0
M  V30 2500 C 237.291 0.412954 4.41372 0
M  V30 2501 H 234.511 0.213805 0.636026 0
M  V30 2502 H 237.055 1.22502 1.63749 0
M  V30 2503 H 235.21 0.140556 3.87145 0
M  V30 2504 H 235.624 2.15923 4.77993 0
M  V30 2505 H 237.098 0.60208 5.48707 0
M  V30 2506 H 237.575 -0.65073 4.34353 0
M  V30 2507 H 238.181 1.00802 4.13182 0
M  V30 2508 N 236.496 -1.42363 0.676048 0
M  V30 2509 C 237.444 -2.32596 -0.0131507 0
M  V30 2510 C 238.438 -1.49891 -0.789238 0
M  V30 2511 O 239.644 -1.65955 -0.697061 0
M  V30 2512 H 236.019 -0.751647 -0.0230481 0
M  V30 2513 H 237.99 -2.88421 0.765243 0
M  V30 2514 C 236.739 -3.34479 -0.949702 0
M  V30 2515 H 236.062 -3.98158 -0.361938 0
M  V30 2516 H 237.502 -4.00199 -1.4006 0
M  V30 2517 C 235.961 -2.66838 -2.05667 0
M  V30 2518 O 236.491 -2.50124 -3.14326 0
M  V30 2519 N 234.697 -2.25843 -1.82875 0
M  V30 2520 H 234.244 -2.39637 -0.945085 0
M  V30 2521 H 234.202 -1.80918 -2.5713 0
M  V30 2522 N 237.974 -0.419461 -1.51915 0
M  V30 2523 C 239.221 0.152939 -2.01922 0
M  V30 2524 C 239.549 1.4426 -1.30458 0
M  V30 2525 O 238.804 1.91514 -0.402593 0
M  V30 2526 C 239.103 0.437067 -3.54717 0
M  V30 2527 C 238.769 -0.764632 -4.44369 0
M  V30 2528 C 237.431 -1.09423 -4.68594 0
M  V30 2529 C 239.783 -1.56713 -4.97082 0
M  V30 2530 C 237.111 -2.22732 -5.42777 0
M  V30 2531 C 239.463 -2.69107 -5.72507 0
M  V30 2532 C 238.127 -3.02541 -5.95 0
M  V30 2533 H 237.397 0.0559644 -0.738884 0
M  V30 2534 H 240.044 -0.562998 -1.83037 0
M  V30 2535 H 238.349 1.23469 -3.71837 0
M  V30 2536 H 240.046 0.893083 -3.90928 0
M  V30 2537 H 236.636 -0.497775 -4.257 0
M  V30 2538 H 240.82 -1.32571 -4.78266 0
M  V30 2539 H 236.076 -2.48971 -5.58411 0
M  V30 2540 H 240.25 -3.31671 -6.12346 0
M  V30 2541 H 237.877 -3.90457 -6.52264 0
M  V30 2542 N 239.452 1.56882 -0.150215 0
M  V30 2543 C 240.868 1.58263 0.20617 0
M  V30 2544 C 241.068 1.16464 1.64434 0
M  V30 2545 O 240.124 0.866422 2.3717 0
M  V30 2546 C 241.437 3.00649 -0.0555025 0
M  V30 2547 C 242.985 3.12999 0.00795388 0
M  V30 2548 C 243.46 4.5744 -0.226429 0
M  V30 2549 N 244.951 4.62875 -0.173469 0
M  V30 2550 C 245.686 5.72454 -0.329288 0
M  V30 2551 N 245.182 6.90669 -0.543005 0
M  V30 2552 N 246.975 5.61467 -0.266666 0
M  V30 2553 H 239.126 1.82345 -1.08922 0
M  V30 2554 H 241.389 0.844149 -0.431413 0
M  V30 2555 H 241.095 3.3563 -1.05096 0
M  V30 2556 H 240.969 3.71337 0.66246 0
M  V30 2557 H 243.356 2.77857 0.993966 0
M  V30 2558 H 243.437 2.4479 -0.742388 0
M  V30 2559 H 243.081 4.93287 -1.20956 0
M  V30 2560 H 243.011 5.2378 0.544274 0
M  V30 2561 H 245.502 3.77898 -0.0130709 0
M  V30 2562 H 245.815 7.70045 -0.651922 0
M  V30 2563 H 244.16 6.92581 -0.579366 0
M  V30 2564 H 247.351 4.67992 -0.100441 0
M  V30 2565 H 247.524 6.46816 -0.391535 0
M  V30 2566 N 240.93 -0.123565 1.57115 0
M  V30 2567 C 242.207 -0.862196 1.75572 0
M  V30 2568 C 242.587 -1.98279 0.724475 0
M  V30 2569 O 241.935 -2.27102 -0.252407 0
M  V30 2570 C 242.145 -1.38309 3.20424 0
M  V30 2571 C 243.493 -1.83724 3.82793 0
M  V30 2572 O 244.517 -1.47999 3.23998 0
M  V30 2573 O 243.376 -2.49685 4.86127 0
M  V30 2574 H 240.47 -0.409113 0.718718 0
M  V30 2575 H 243.016 -0.107661 1.69358 0
M  V30 2576 H 241.788 -0.578889 3.86994 0
M  V30 2577 H 241.411 -2.20046 3.31158 0
M  V30 2578 N 242.408 -1.52605 -0.393616 0
M  V30 2579 C 243.633 -1.71592 -1.16495 0
M  V30 2580 C 244.058 -0.43133 -1.83088 0
M  V30 2581 O 243.416 0.612523 -1.7064 0
M  V30 2582 C 243.464 -2.86318 -2.19213 0
M  V30 2583 O 242.568 -2.52969 -3.257 0
M  V30 2584 H 241.909 -0.570734 -0.33935 0
M  V30 2585 H 244.439 -1.99377 -0.459324 0
M  V30 2586 H 244.449 -3.1168 -2.63286 0
M  V30 2587 H 243.124 -3.79511 -1.7013 0
M  V30 2588 H 241.701 -2.38332 -2.86797 0
M  V30 2589 N 243.887 0.651787 -1.4349 0
M  V30 2590 C 244.85 1.74647 -1.48429 0
M  V30 2591 C 245.85 1.56513 -0.368817 0
M  V30 2592 O 247.04 1.62385 -0.630623 0
M  V30 2593 C 244.172 3.13533 -1.33827 0
M  V30 2594 H 245.365 1.71649 -2.4592 0
M  V30 2595 H 242.918 0.863573 -1.30277 0
M  V30 2596 H 243.653 3.22142 -0.37349 0
M  V30 2597 H 243.438 3.28101 -2.14691 0
M  V30 2598 H 244.928 3.93356 -1.40218 0
M  V30 2599 N 245.365 1.30045 0.890287 0
M  V30 2600 C 246.613 1.18327 1.63839 0
M  V30 2601 C 246.934 -0.263455 1.93212 0
M  V30 2602 O 246.204 -1.17856 1.56482 0
M  V30 2603 H 244.784 0.434933 0.607324 0
M  V30 2604 H 247.446 1.631 1.06698 0
M  V30 2605 H 246.542 1.74024 2.59079 0
M  V30 2606 N 246.843 -1.10192 1.12674 0
M  V30 2607 C 247.806 -2.14786 0.799979 0
M  V30 2608 C 248.806 -1.59711 -0.18685 0
M  V30 2609 O 249.996 -1.74156 0.0392558 0
M  V30 2610 C 247.128 -3.40374 0.189228 0
M  V30 2611 H 248.321 -2.45203 1.72671 0
M  V30 2612 H 245.874 -1.25597 0.930326 0
M  V30 2613 H 246.609 -3.15577 -0.747107 0
M  V30 2614 H 246.394 -3.81637 0.899766 0
M  V30 2615 H 247.884 -4.17594 -0.0228143 0
M  V30 2616 N 248.321 -0.919034 -1.28029 0
M  V30 2617 C 249.254 -0.355887 -2.25408 0
M  V30 2618 C 250.232 0.542874 -1.5327 0
M  V30 2619 O 251.416 0.485338 -1.82145 0
M  V30 2620 C 248.543 0.490759 -3.35126 0
M  V30 2621 C 247.589 -0.343358 -4.25116 0
M  V30 2622 S 248.422 -1.75344 -5.05979 0
M  V30 2623 C 249.578 -0.914244 -6.19187 0
M  V30 2624 H 249.811 -1.18123 -2.72826 0
M  V30 2625 H 247.344 -0.720636 -1.36551 0
M  V30 2626 H 249.302 0.973404 -3.98792 0
M  V30 2627 H 247.963 1.29054 -2.86363 0
M  V30 2628 H 247.156 0.304266 -5.03081 0
M  V30 2629 H 246.758 -0.759851 -3.662 0
M  V30 2630 H 249.05 -0.146282 -6.77342 0
M  V30 2631 H 249.993 -1.66661 -6.88208 0
M  V30 2632 H 250.401 -0.460082 -5.62622 0
M  V30 2633 N 249.799 1.42003 -0.683588 0
M  V30 2634 C 250.746 2.30798 -0.0107309 0
M  V30 2635 C 251.716 1.4645 0.783688 0
M  V30 2636 O 252.901 1.75263 0.754156 0
M  V30 2637 C 250.041 3.3238 0.928306 0
M  V30 2638 C 249.154 4.31814 0.126776 0
M  V30 2639 C 248.289 5.20468 1.06236 0
M  V30 2640 C 247.328 6.11577 0.253035 0
M  V30 2641 N 246.465 6.92754 1.14179 0
M  V30 2642 H 251.305 2.8778 -0.773727 0
M  V30 2643 H 248.842 1.41745 -0.393283 0
M  V30 2644 H 250.8 3.89813 1.48666 0
M  V30 2645 H 249.43 2.76976 1.65783 0
M  V30 2646 H 248.482 3.76427 -0.54833 0
M  V30 2647 H 249.794 4.96276 -0.501192 0
M  V30 2648 H 248.948 5.82677 1.69035 0
M  V30 2649 H 247.687 4.56204 1.7242 0
M  V30 2650 H 246.692 5.48428 -0.388108 0
M  V30 2651 H 247.917 6.77892 -0.404839 0
M  V30 2652 H 245.863 6.3111 1.78987 0
M  V30 2653 H 245.78 7.53855 0.569111 0
M  V30 2654 H 247.048 7.59441 1.75697 0
M  V30 2655 N 251.277 0.427512 1.51691 0
M  V30 2656 C 252.209 -0.424521 2.25234 0
M  V30 2657 C 253.222 -0.994671 1.2888 0
M  V30 2658 O 254.411 -0.890483 1.54702 0
M  V30 2659 C 251.511 -1.60479 2.98496 0
M  V30 2660 C 250.684 -1.15527 4.21868 0
M  V30 2661 C 249.743 -2.20454 4.77793 0
M  V30 2662 O 248.769 -1.8029 5.39893 0
M  V30 2663 N 249.971 -3.52831 4.60967 0
M  V30 2664 H 252.736 0.205749 2.98993 0
M  V30 2665 H 250.297 0.255867 1.59865 0
M  V30 2666 H 252.289 -2.30276 3.32799 0
M  V30 2667 H 250.859 -2.14061 2.27809 0
M  V30 2668 H 250.079 -0.284736 3.9317 0
M  V30 2669 H 251.367 -0.832173 5.01949 0
M  V30 2670 H 250.765 -3.88201 4.11481 0
M  V30 2671 H 249.322 -4.18551 4.99658 0
M  V30 2672 N 252.755 -1.56801 0.158532 0
M  V30 2673 C 254.004 -1.95665 -0.489702 0
M  V30 2674 C 254.317 -1.04654 -1.65248 0
M  V30 2675 O 255.523 -1.33146 -2.3661 0
M  V30 2676 C 253.979 -3.47874 -0.922582 0
M  V30 2677 C 253.587 -4.47489 0.213893 0
M  V30 2678 C 255.331 -3.95583 -1.53996 0
M  V30 2679 C 253.238 -5.90921 -0.237903 0
M  V30 2680 H 252.168 -0.730516 -0.186716 0
M  V30 2681 H 254.819 -1.81861 0.244722 0
M  V30 2682 H 253.201 -3.57051 -1.71261 0
M  V30 2683 H 254.375 -4.50017 0.991036 0
M  V30 2684 H 252.69 -4.09764 0.740407 0
M  V30 2685 H 255.287 -5.0019 -1.8898 0
M  V30 2686 H 255.63 -3.37789 -2.43319 0
M  V30 2687 H 256.163 -3.8937 -0.814611 0
M  V30 2688 H 252.902 -6.52559 0.620236 0
M  V30 2689 H 252.422 -5.91729 -0.980676 0
M  V30 2690 H 254.101 -6.43352 -0.686067 0
M  V30 2691 N 254.233 0.115231 -1.57178 0
M  V30 2692 C 255.181 1.16014 -2.01602 0
M  V30 2693 C 256.175 1.42653 -0.913587 0
M  V30 2694 O 257.381 1.42571 -1.09879 0
M  V30 2695 H 253.756 0.391252 -0.642204 0
M  V30 2696 H 255.727 0.758998 -2.88586 0
M  V30 2697 C 254.476 2.47767 -2.4394 0
M  V30 2698 H 253.799 2.28108 -3.28339 0
M  V30 2699 H 255.239 3.19432 -2.78818 0
M  V30 2700 C 253.698 3.10617 -1.30455 0
M  V30 2701 O 254.228 3.96846 -0.622585 0
M  V30 2702 N 252.434 2.70553 -1.06064 0
M  V30 2703 H 251.981 2.00527 -1.61699 0
M  V30 2704 H 251.939 3.12934 -0.303284 0
M  V30 2705 N 255.711 1.52812 0.385517 0
M  V30 2706 C 256.988 1.5861 1.14465 0
M  V30 2707 C 257.368 0.381402 2.07626 0
M  V30 2708 O 256.716 -0.629999 2.19643 0
M  V30 2709 C 256.926 2.92664 1.90128 0
M  V30 2710 C 258.274 3.46526 2.45367 0
M  V30 2711 O 259.298 2.94562 2.0028 0
M  V30 2712 O 258.157 4.37323 3.27736 0
M  V30 2713 H 255.251 0.639855 0.523941 0
M  V30 2714 H 257.797 1.65149 0.390389 0
M  V30 2715 H 256.569 3.71788 1.22022 0
M  V30 2716 H 256.192 2.89527 2.72507 0
M  V30 2717 N 257.189 -0.644168 1.43834 0
M  V30 2718 C 258.419 -1.42939 1.49171 0
M  V30 2719 C 258.827 -1.88874 0.111048 0
M  V30 2720 O 258.17 -1.60656 -0.8908 0
M  V30 2721 C 258.232 -2.69151 2.38324 0
M  V30 2722 C 257.896 -2.45097 3.85715 0
M  V30 2723 C 258.893 -2.07747 4.76589 0
M  V30 2724 C 256.578 -2.59141 4.30292 0
M  V30 2725 C 258.572 -1.8475 6.10038 0
M  V30 2726 C 256.259 -2.35759 5.63792 0
M  V30 2727 C 257.257 -1.9862 6.53482 0
M  V30 2728 O 256.945 -1.75489 7.84512 0
M  V30 2729 H 256.677 -0.445271 0.508635 0
M  V30 2730 H 259.231 -0.79621 1.8934 0
M  V30 2731 H 257.461 -3.3506 1.93058 0
M  V30 2732 H 259.15 -3.31123 2.3476 0
M  V30 2733 H 259.916 -1.96465 4.43426 0
M  V30 2734 H 255.795 -2.87022 3.60749 0
M  V30 2735 H 259.339 -1.55686 6.80006 0
M  V30 2736 H 255.236 -2.46646 5.9652 0
M  V30 2737 H 256.004 -1.89841 7.9618 0
M  V30 2738 N 258.668 -1.30515 -0.883378 0
M  V30 2739 C 259.914 -1.19607 -1.63774 0
M  V30 2740 C 260.247 0.248314 -1.92606 0
M  V30 2741 O 259.522 1.17742 -1.54813 0
M  V30 2742 C 259.805 -2.02669 -2.97653 0
M  V30 2743 C 259.658 -3.55335 -2.75784 0
M  V30 2744 C 260.977 -1.86573 -3.98596 0
M  V30 2745 H 258.096 -0.435856 -0.594305 0
M  V30 2746 H 260.738 -1.60165 -1.02212 0
M  V30 2747 H 258.888 -1.68208 -3.50197 0
M  V30 2748 H 260.56 -3.99863 -2.30016 0
M  V30 2749 H 258.803 -3.79438 -2.1026 0
M  V30 2750 H 259.474 -4.08745 -3.70988 0
M  V30 2751 H 261.95 -2.16703 -3.55217 0
M  V30 2752 H 260.826 -2.47014 -4.90179 0
M  V30 2753 H 261.087 -0.825321 -4.34328 0
M  V30 2754 N 260.146 1.09593 -1.13257 0
M  V30 2755 C 261.109 2.14359 -0.811358 0
M  V30 2756 C 262.109 1.59808 0.178377 0
M  V30 2757 O 263.299 1.74132 -0.0484911 0
M  V30 2758 C 260.431 3.40269 -0.207276 0
M  V30 2759 H 261.624 2.44284 -1.73969 0
M  V30 2760 H 259.177 1.25102 -0.936973 0
M  V30 2761 H 259.912 3.15969 0.73036 0
M  V30 2762 H 259.697 3.81154 -0.919992 0
M  V30 2763 H 261.187 4.176 0.000667944 0
M  V30 2764 N 261.624 0.925811 1.2754 0
M  V30 2765 C 262.571 0.422045 2.26908 0
M  V30 2766 C 263.541 -0.510029 1.58076 0
M  V30 2767 O 264.726 -0.429599 1.85901 0
M  V30 2768 C 261.866 -0.320837 3.43605 0
M  V30 2769 C 260.979 0.64513 4.27156 0
M  V30 2770 C 260.114 -0.117405 5.3107 0
M  V30 2771 C 259.153 0.841391 6.0629 0
M  V30 2772 N 258.29 0.111604 7.02011 0
M  V30 2773 H 263.13 1.27441 2.69375 0
M  V30 2774 H 260.667 0.639697 1.32462 0
M  V30 2775 H 262.625 -0.76785 4.10073 0
M  V30 2776 H 261.255 -1.13745 3.02096 0
M  V30 2777 H 260.307 1.21067 3.6062 0
M  V30 2778 H 261.619 1.37797 4.79389 0
M  V30 2779 H 260.773 -0.624422 6.03478 0
M  V30 2780 H 259.512 -0.883219 4.79636 0
M  V30 2781 H 258.517 1.35967 5.32722 0
M  V30 2782 H 259.742 1.60696 6.59813 0
M  V30 2783 H 257.688 -0.635999 6.5291 0
M  V30 2784 H 257.605 0.784044 7.51923 0
M  V30 2785 H 258.873 -0.374823 7.78598 0
M  V30 2786 N 263.102 -1.41638 0.69111 0
M  V30 2787 C 264.034 -2.29194 -0.0161523 0
M  V30 2788 C 265.047 -1.44549 -0.748955 0
M  V30 2789 O 266.236 -1.681 -0.6004 0
M  V30 2790 C 263.336 -3.22325 -1.0469 0
M  V30 2791 C 262.509 -4.35706 -0.384621 0
M  V30 2792 C 261.568 -5.09443 -1.31737 0
M  V30 2793 O 260.594 -5.63386 -0.811451 0
M  V30 2794 N 261.796 -5.16487 -2.64993 0
M  V30 2795 H 264.561 -2.90534 0.735523 0
M  V30 2796 H 262.122 -1.52742 0.53679 0
M  V30 2797 H 264.114 -3.68522 -1.67252 0
M  V30 2798 H 262.684 -2.62323 -1.70015 0
M  V30 2799 H 261.904 -3.91948 0.420804 0
M  V30 2800 H 263.192 -5.08743 0.0760765 0
M  V30 2801 H 262.59 -4.741 -3.08619 0
M  V30 2802 H 261.147 -5.66276 -3.22761 0
M  V30 2803 N 264.58 -0.43555 -1.51462 0
M  V30 2804 C 265.808 0.130242 -2.0649 0
M  V30 2805 C 266.223 1.36614 -1.30315 0
M  V30 2806 O 265.58 1.78869 -0.362223 0
M  V30 2807 C 265.631 0.454253 -3.58635 0
M  V30 2808 O 265.352 -0.73259 -4.31931 0
M  V30 2809 C 266.853 1.07091 -4.3017 0
M  V30 2810 H 264.073 0.00871669 -0.670943 0
M  V30 2811 H 266.617 -0.614117 -1.95061 0
M  V30 2812 H 264.772 1.14851 -3.69984 0
M  V30 2813 H 265.186 -0.455787 -5.22516 0
M  V30 2814 H 266.66 1.24764 -5.37716 0
M  V30 2815 H 267.137 2.05144 -3.88346 0
M  V30 2816 H 267.743 0.416089 -4.2326 0
M  V30 2817 N 266.058 1.56714 -0.166846 0
M  V30 2818 C 267.005 2.17746 0.765193 0
M  V30 2819 C 267.975 1.11614 1.23011 0
M  V30 2820 O 269.16 1.39745 1.29908 0
M  V30 2821 C 266.3 2.81882 1.9909 0
M  V30 2822 C 265.413 4.02462 1.56997 0
M  V30 2823 C 264.548 4.54537 2.749 0
M  V30 2824 C 263.587 5.67538 2.29275 0
M  V30 2825 N 262.724 6.14142 3.40255 0
M  V30 2826 H 267.564 2.97048 0.237952 0
M  V30 2827 H 265.101 1.4672 0.105725 0
M  V30 2828 H 267.059 3.17221 2.70974 0
M  V30 2829 H 265.689 2.05191 2.49192 0
M  V30 2830 H 264.741 3.72973 0.748037 0
M  V30 2831 H 266.053 4.84273 1.19503 0
M  V30 2832 H 265.207 4.92035 3.54946 0
M  V30 2833 H 263.946 3.71774 3.1565 0
M  V30 2834 H 262.951 5.29597 1.47674 0
M  V30 2835 H 264.176 6.52099 1.89588 0
M  V30 2836 H 262.122 5.3431 3.8059 0
M  V30 2837 H 262.039 6.9093 3.06841 0
M  V30 2838 H 263.307 6.56289 4.206 0
M  V30 2839 N 267.536 -0.106894 1.57237 0
M  V30 2840 C 268.784 -0.810921 1.85117 0
M  V30 2841 C 269.105 -1.7984 0.753827 0
M  V30 2842 O 268.375 -1.94649 -0.221056 0
M  V30 2843 H 266.955 -0.302466 0.683025 0
M  V30 2844 H 269.617 -0.0913324 1.94686 0
M  V30 2845 H 268.713 -1.34875 2.81452 0
M  V30 2846 N 269.014 -1.53014 -0.377408 0
M  V30 2847 C 269.961 -1.78616 -1.46168 0
M  V30 2848 C 270.931 -0.629917 -1.53692 0
M  V30 2849 O 272.116 -0.870861 -1.69766 0
M  V30 2850 C 269.256 -1.97123 -2.8326 0
M  V30 2851 C 268.369 -3.24831 -2.84796 0
M  V30 2852 C 267.504 -3.33591 -4.13389 0
M  V30 2853 C 266.543 -4.55377 -4.09021 0
M  V30 2854 N 265.68 -4.61355 -5.29241 0
M  V30 2855 H 270.52 -2.71142 -1.23637 0
M  V30 2856 H 268.057 -1.34326 -0.599577 0
M  V30 2857 H 270.015 -2.05839 -3.62886 0
M  V30 2858 H 268.645 -1.07946 -3.04216 0
M  V30 2859 H 267.697 -3.25128 -1.97474 0
M  V30 2860 H 269.009 -4.14523 -2.77439 0
M  V30 2861 H 268.163 -3.41554 -5.01424 0
M  V30 2862 H 266.902 -2.41894 -4.23484 0
M  V30 2863 H 265.907 -4.47527 -3.19373 0
M  V30 2864 H 267.132 -5.48402 -4.00539 0
M  V30 2865 H 265.078 -3.72554 -5.39944 0
M  V30 2866 H 264.995 -5.44935 -5.24006 0
M  V30 2867 H 266.263 -4.73586 -6.19141 0
M  V30 2868 N 270.492 0.636531 -1.44174 0
M  V30 2869 C 271.741 1.39213 -1.45954 0
M  V30 2870 C 272.054 1.95374 -0.0939119 0
M  V30 2871 O 273.26 2.71498 0.0107767 0
M  V30 2872 C 271.716 2.52025 -2.56927 0
M  V30 2873 C 271.324 2.024 -3.99673 0
M  V30 2874 C 273.068 3.29269 -2.67922 0
M  V30 2875 C 270.975 3.12521 -5.0208 0
M  V30 2876 H 269.905 0.523132 -0.542999 0
M  V30 2877 H 272.556 0.685349 -1.70221 0
M  V30 2878 H 270.938 3.25253 -2.25891 0
M  V30 2879 H 272.112 1.36073 -4.40251 0
M  V30 2880 H 270.427 1.37987 -3.92872 0
M  V30 2881 H 273.024 4.11352 -3.41605 0
M  V30 2882 H 273.367 3.78397 -1.73555 0
M  V30 2883 H 273.9 2.63129 -2.98342 0
M  V30 2884 H 270.639 2.68343 -5.98057 0
M  V30 2885 H 270.159 3.77507 -4.66099 0
M  V30 2886 H 271.838 3.77385 -5.25538 0
M  V30 2887 N 271.97 1.30982 0.876444 0
M  V30 2888 C 273.216 1.20474 1.63138 0
M  V30 2889 C 273.549 -0.238096 1.92735 0
M  V30 2890 O 272.824 -1.1692 1.55435 0
M  V30 2891 C 273.107 2.04244 2.96574 0
M  V30 2892 C 272.96 3.56793 2.73896 0
M  V30 2893 C 274.279 1.88684 3.97601 0
M  V30 2894 H 271.398 0.439001 0.591985 0
M  V30 2895 H 274.04 1.60704 1.01361 0
M  V30 2896 H 272.19 1.70063 3.493 0
M  V30 2897 H 273.862 4.01077 2.27892 0
M  V30 2898 H 272.105 3.80548 2.08245 0
M  V30 2899 H 272.776 4.10706 3.68815 0
M  V30 2900 H 275.252 2.18584 3.54062 0
M  V30 2901 H 274.128 2.4961 4.88862 0
M  V30 2902 H 274.389 0.848343 4.33884 0
M  V30 2903 N 273.449 -1.08991 1.13837 0
M  V30 2904 C 274.726 -1.77863 0.813876 0
M  V30 2905 C 275.106 -1.99375 -0.693746 0
M  V30 2906 O 274.454 -1.59875 -1.63255 0
M  V30 2907 C 274.664 -3.0986 1.60586 0
M  V30 2908 C 276.012 -3.84493 1.8014 0
M  V30 2909 O 277.036 -3.19624 1.57222 0
M  V30 2910 O 275.895 -5.00957 2.18413 0
M  V30 2911 H 272.989 -0.771589 0.297624 0
M  V30 2912 H 275.535 -1.15507 1.24323 0
M  V30 2913 H 274.307 -2.89715 2.63022 0
M  V30 2914 H 273.93 -3.79942 1.17173 0
M  V30 2915 N 274.927 -0.932562 -1.27047 0
M  V30 2916 C 275.857 -0.452902 -2.29066 0
M  V30 2917 C 276.838 0.489338 -1.62909 0
M  V30 2918 O 278.023 0.393046 -1.90181 0
M  V30 2919 C 275.153 0.290698 -3.46081 0
M  V30 2920 C 274.107 -0.564168 -4.24265 0
M  V30 2921 C 273.433 0.308886 -5.33807 0
M  V30 2922 C 274.733 -1.83112 -4.89149 0
M  V30 2923 H 276.427 -1.30552 -2.69437 0
M  V30 2924 H 273.973 -0.629201 -1.29526 0
M  V30 2925 H 275.926 0.637233 -4.16554 0
M  V30 2926 H 274.65 1.17738 -3.0464 0
M  V30 2927 H 273.309 -0.893477 -3.55545 0
M  V30 2928 H 272.957 1.19467 -4.88607 0
M  V30 2929 H 272.657 -0.259633 -5.87026 0
M  V30 2930 H 274.181 0.650884 -6.07121 0
M  V30 2931 H 275.595 -1.55236 -5.51883 0
M  V30 2932 H 273.992 -2.34353 -5.52448 0
M  V30 2933 H 275.062 -2.54772 -4.12576 0
M  V30 2934 N 276.405 1.4127 -0.698611 0
M  V30 2935 C 277.335 2.33447 -0.049629 0
M  V30 2936 C 278.316 1.51982 0.763898 0
M  V30 2937 O 279.501 1.80509 0.716257 0
M  V30 2938 C 276.631 3.35828 0.885267 0
M  V30 2939 C 275.585 4.27627 0.178613 0
M  V30 2940 C 274.911 5.20406 1.22807 0
M  V30 2941 C 276.211 5.13459 -0.956933 0
M  V30 2942 H 277.905 2.87966 -0.81951 0
M  V30 2943 H 275.451 1.38461 -0.395538 0
M  V30 2944 H 277.404 3.9924 1.34854 0
M  V30 2945 H 276.128 2.79666 1.68685 0
M  V30 2946 H 274.787 3.65643 -0.26466 0
M  V30 2947 H 274.435 4.60558 2.02226 0
M  V30 2948 H 274.135 5.82661 0.760239 0
M  V30 2949 H 275.659 5.86695 1.69179 0
M  V30 2950 H 277.073 5.70421 -0.573805 0
M  V30 2951 H 275.47 5.8467 -1.35205 0
M  V30 2952 H 276.54 4.50443 -1.79524 0
M  V30 2953 N 277.883 0.443576 1.51229 0
M  V30 2954 C 278.83 -0.364716 2.279 0
M  V30 2955 C 279.8 -1.0114 1.31757 0
M  V30 2956 O 280.985 -1.02912 1.60667 0
M  V30 2957 C 278.125 -1.45644 3.12861 0
M  V30 2958 C 277.238 -0.827269 4.24005 0
M  V30 2959 C 276.373 -1.89456 4.96266 0
M  V30 2960 C 275.412 -1.24416 5.99322 0
M  V30 2961 N 274.549 -2.25309 6.64966 0
M  V30 2962 H 279.389 0.295464 2.96532 0
M  V30 2963 H 276.926 0.157554 1.46254 0
M  V30 2964 H 278.884 -2.10076 3.6045 0
M  V30 2965 H 277.514 -2.08616 2.46331 0
M  V30 2966 H 276.566 -0.0710839 3.80334 0
M  V30 2967 H 277.878 -0.312481 4.9782 0
M  V30 2968 H 277.032 -2.61535 5.47434 0
M  V30 2969 H 275.771 -2.4431 4.22095 0
M  V30 2970 H 274.776 -0.508868 5.4744 0
M  V30 2971 H 276.001 -0.702882 6.75453 0
M  V30 2972 H 273.947 -2.79231 5.93604 0
M  V30 2973 H 273.864 -1.78739 7.34567 0
M  V30 2974 H 275.132 -2.96853 7.20763 0
M  V30 2975 N 279.361 -1.56624 0.175154 0
M  V30 2976 C 280.309 -2.19468 -0.770495 0
M  V30 2977 C 281.303 -1.15985 -1.23466 0
M  V30 2978 O 282.509 -1.34176 -1.19987 0
M  V30 2979 H 278.884 -0.703095 -0.266761 0
M  V30 2980 H 280.855 -2.97613 -0.216542 0
M  V30 2981 C 279.604 -2.85264 -1.98796 0
M  V30 2982 H 278.927 -3.64623 -1.63983 0
M  V30 2983 H 280.367 -3.327 -2.62843 0
M  V30 2984 C 278.826 -1.85239 -2.81404 0
M  V30 2985 O 279.356 -1.34024 -3.78682 0
M  V30 2986 N 277.562 -1.53911 -2.46495 0
M  V30 2987 H 277.109 -1.95751 -1.67449 0
M  V30 2988 H 277.067 -0.872382 -3.02054 0
M  V30 2989 N 280.839 0.0985539 -1.57292 0
M  V30 2990 C 281.769 1.12064 -2.04851 0
M  V30 2991 C 282.75 1.41981 -0.936767 0
M  V30 2992 O 283.935 1.52071 -1.20781 0
M  V30 2993 C 281.065 2.44144 -2.47004 0
M  V30 2994 C 280.019 2.28643 -3.6181 0
M  V30 2995 C 279.345 3.65869 -3.89929 0
M  V30 2996 C 280.645 1.72986 -4.92822 0
M  V30 2997 H 282.339 0.724979 -2.9049 0
M  V30 2998 H 279.885 0.34729 -1.39749 0
M  V30 2999 H 281.838 3.15914 -2.78884 0
M  V30 3000 H 280.562 2.85639 -1.5836 0
M  V30 3001 H 279.221 1.59318 -3.30172 0
M  V30 3002 H 278.869 4.04885 -2.98458 0
M  V30 3003 H 278.569 3.56344 -4.67218 0
M  V30 3004 H 280.093 4.39112 -4.2428 0
M  V30 3005 H 281.507 2.34593 -5.23105 0
M  V30 3006 H 279.904 1.74229 -5.74251 0
M  V30 3007 H 280.974 0.689007 -4.7998 0
M  V30 3008 N 282.317 1.53212 0.369288 0
M  V30 3009 C 283.594 1.59815 1.12776 0
M  V30 3010 C 283.974 0.403402 2.0721 0
M  V30 3011 O 283.322 -0.606667 2.20299 0
M  V30 3012 C 283.532 2.94664 1.87013 0
M  V30 3013 C 284.88 3.49109 2.41677 0
M  V30 3014 O 285.904 2.96669 1.97144 0
M  V30 3015 O 284.763 4.40775 3.23079 0
M  V30 3016 H 281.857 0.645376 0.517125 0
M  V30 3017 H 284.403 1.65553 0.37285 0
M  V30 3018 H 283.175 3.73061 1.18071 0
M  V30 3019 H 282.798 2.92401 2.69421 0
M  V30 3020 N 283.795 -0.628877 1.44509 0
M  V30 3021 C 285.02 -1.42048 1.5112 0
M  V30 3022 C 285.445 -1.87594 0.137818 0
M  V30 3023 O 284.803 -1.58873 -0.873437 0
M  V30 3024 C 284.851 -2.61541 2.48251 0
M  V30 3025 O 283.955 -3.61453 1.98559 0
M  V30 3026 H 283.296 -0.424942 0.510216 0
M  V30 3027 H 285.826 -0.767374 1.89664 0
M  V30 3028 H 285.836 -3.09057 2.66361 0
M  V30 3029 H 284.511 -2.27736 3.48007 0
M  V30 3030 H 283.088 -3.20731 1.90227 0
M  V30 3031 N 285.273 -1.31445 -0.869486 0
M  V30 3032 C 286.221 -1.19067 -1.99814 0
M  V30 3033 C 287.215 -0.0988569 -1.69111 0
M  V30 3034 O 288.421 -0.260781 -1.78101 0
M  V30 3035 H 284.796 -0.368677 -0.655425 0
M  V30 3036 H 286.767 -2.14555 -2.07385 0
M  V30 3037 C 285.516 -0.915323 -3.35436 0
M  V30 3038 H 284.839 -1.74759 -3.59582 0
M  V30 3039 H 286.279 -0.868895 -4.15001 0
M  V30 3040 C 284.738 0.381928 -3.34728 0
M  V30 3041 O 285.268 1.39857 -3.76567 0
M  V30 3042 N 283.474 0.398633 -2.87853 0
M  V30 3043 H 283.021 -0.429186 -2.54 0
M  V30 3044 H 282.979 1.26651 -2.87762 0
M  V30 3045 N 286.751 1.08385 -1.14413 0
M  V30 3046 C 287.714 2.13486 -0.834048 0
M  V30 3047 C 288.714 1.59988 0.161418 0
M  V30 3048 O 289.904 1.74071 -0.0669575 0
M  V30 3049 C 287.036 3.4003 -0.243354 0
M  V30 3050 H 288.229 2.42425 -1.7655 0
M  V30 3051 H 285.782 1.24101 -0.950189 0
M  V30 3052 H 286.517 3.16726 0.696807 0
M  V30 3053 H 286.302 3.80157 -0.960367 0
M  V30 3054 H 287.792 4.17577 -0.0436242 0
M  V30 3055 N 288.23 0.939286 1.26551 0
M  V30 3056 C 289.476 0.586715 1.94128 0
M  V30 3057 C 289.809 -0.8717 1.73537 0
M  V30 3058 O 289.084 -1.62339 1.07127 0
M  V30 3059 C 289.367 0.927497 3.4795 0
M  V30 3060 C 289.22 2.44052 3.77834 0
M  V30 3061 C 290.539 0.441569 4.37879 0
M  V30 3062 H 287.658 0.21463 0.705055 0
M  V30 3063 H 290.3 1.17316 1.49455 0
M  V30 3064 H 288.45 0.428431 3.8613 0
M  V30 3065 H 290.122 3.01216 3.4938 0
M  V30 3066 H 288.365 2.8848 3.23978 0
M  V30 3067 H 289.036 2.62947 4.85348 0
M  V30 3068 H 291.512 0.869448 4.06915 0
M  V30 3069 H 290.388 0.708856 5.44304 0
M  V30 3070 H 290.649 -0.658467 4.37169 0
M  V30 3071 N 289.708 -1.40897 0.706093 0
M  V30 3072 C 290.954 -2.01352 0.241889 0
M  V30 3073 C 291.287 -1.55832 -1.15888 0
M  V30 3074 O 290.562 -0.774145 -1.7843 0
M  V30 3075 C 290.845 -3.58752 0.311311 0
M  V30 3076 C 290.698 -4.1437 1.74978 0
M  V30 3077 C 292.017 -4.38914 -0.322922 0
M  V30 3078 H 289.136 -0.731562 0.0893687 0
M  V30 3079 H 291.778 -1.67504 0.896802 0
M  V30 3080 H 289.928 -3.87718 -0.246302 0
M  V30 3081 H 291.6 -3.96239 2.36205 0
M  V30 3082 H 289.843 -3.69016 2.28057 0
M  V30 3083 H 290.514 -5.23532 1.74981 0
M  V30 3084 H 292.99 -4.15822 0.152089 0
M  V30 3085 H 291.866 -5.48358 -0.243855 0
M  V30 3086 H 292.127 -4.19176 -1.40513 0
M  V30 3087 N 291.186 -0.45159 -1.50991 0
M  V30 3088 C 292.435 0.111653 -2.01391 0
M  V30 3089 C 292.748 1.42529 -1.33959 0
M  V30 3090 O 293.954 2.07232 -1.75405 0
M  V30 3091 C 292.41 0.249514 -3.59034 0
M  V30 3092 C 292.018 -1.05453 -4.35412 0
M  V30 3093 C 293.762 0.765762 -4.17536 0
M  V30 3094 C 291.669 -0.881529 -5.84793 0
M  V30 3095 H 290.599 0.0455022 -0.752626 0
M  V30 3096 H 293.25 -0.583524 -1.73975 0
M  V30 3097 H 291.632 1.00803 -3.82955 0
M  V30 3098 H 292.806 -1.82248 -4.23229 0
M  V30 3099 H 291.121 -1.50039 -3.88429 0
M  V30 3100 H 293.718 0.911913 -5.26866 0
M  V30 3101 H 294.061 1.75201 -3.77638 0
M  V30 3102 H 294.594 0.0651744 -3.97747 0
M  V30 3103 H 291.333 -1.84057 -6.29129 0
M  V30 3104 H 290.853 -0.153625 -5.99603 0
M  V30 3105 H 292.532 -0.540363 -6.4474 0
M  V30 3106 N 292.664 1.56529 -0.183458 0
M  V30 3107 C 293.597 2.14417 0.781052 0
M  V30 3108 C 294.575 1.07761 1.21763 0
M  V30 3109 O 295.759 1.35807 1.30724 0
M  V30 3110 C 292.886 2.69361 2.05335 0
M  V30 3111 C 291.932 3.885 1.75982 0
M  V30 3112 S 292.765 5.27568 0.918256 0
M  V30 3113 C 293.921 5.85926 2.20095 0
M  V30 3114 H 294.154 2.95893 0.2889 0
M  V30 3115 H 291.687 1.54368 0.0313844 0
M  V30 3116 H 293.645 3.01662 2.78406 0
M  V30 3117 H 292.306 1.87949 2.51663 0
M  V30 3118 H 291.499 4.25314 2.70415 0
M  V30 3119 H 291.101 3.57149 1.10999 0
M  V30 3120 H 293.393 5.99579 3.15453 0
M  V30 3121 H 294.336 6.82761 1.87731 0
M  V30 3122 H 294.744 5.14438 2.32409 0
M  V30 3123 N 294.142 -0.090211 1.57342 0
M  V30 3124 C 295.388 -0.793982 1.86611 0
M  V30 3125 C 295.721 -1.78142 0.773252 0
M  V30 3126 O 294.996 -1.93271 -0.218304 0
M  V30 3127 C 295.279 -1.51839 3.26523 0
M  V30 3128 C 295.132 -0.548609 4.46442 0
M  V30 3129 C 296.451 -2.46779 3.64401 0
M  V30 3130 H 293.57 -0.287186 0.678744 0
M  V30 3131 H 296.212 -0.0575076 1.89913 0
M  V30 3132 H 294.362 -2.14617 3.23839 0
M  V30 3133 H 296.034 0.0725513 4.61243 0
M  V30 3134 H 294.277 0.137614 4.33582 0
M  V30 3135 H 294.948 -1.09271 5.41076 0
M  V30 3136 H 297.424 -1.94089 3.68061 0
M  V30 3137 H 296.3 -2.94479 4.63221 0
M  V30 3138 H 296.561 -3.30758 2.93346 0
M  V30 3139 N 295.62 -1.53406 -0.361157 0
M  V30 3140 C 296.568 -1.80832 -1.46296 0
M  V30 3141 C 297.562 -0.677699 -1.55253 0
M  V30 3142 O 298.768 -0.860723 -1.58087 0
M  V30 3143 H 295.143 -0.572627 -0.487445 0
M  V30 3144 H 297.114 -2.73045 -1.20371 0
M  V30 3145 C 295.863 -2.01907 -2.8307 0
M  V30 3146 H 295.186 -2.88349 -2.76938 0
M  V30 3147 H 296.626 -2.25072 -3.59331 0
M  V30 3148 C 295.085 -0.799449 -3.27277 0
M  V30 3149 O 295.615 0.00971761 -4.01699 0
M  V30 3150 N 293.821 -0.621637 -2.83873 0
M  V30 3151 H 293.368 -1.28126 -2.23476 0
M  V30 3152 H 293.326 0.19298 -3.13807 0
M  V30 3153 N 297.098 0.621204 -1.44841 0
M  V30 3154 C 298.328 1.40548 -1.51426 0
M  V30 3155 C 298.736 1.88673 -0.141083 0
M  V30 3156 O 298.079 1.62053 0.865128 0
M  V30 3157 C 298.141 2.65325 -2.42576 0
M  V30 3158 C 297.805 2.3893 -3.89566 0
M  V30 3159 C 298.802 2.00138 -4.79834 0
M  V30 3160 C 296.487 2.52263 -4.3436 0
M  V30 3161 C 298.481 1.75021 -6.129 0
M  V30 3162 C 296.168 2.2676 -5.67471 0
M  V30 3163 C 297.166 1.88199 -6.56559 0
M  V30 3164 O 296.854 1.62986 -7.87204 0
M  V30 3165 H 296.586 0.437122 -0.515655 0
M  V30 3166 H 299.14 0.765987 -1.90583 0
M  V30 3167 H 297.37 3.31947 -1.98364 0
M  V30 3168 H 299.059 3.27347 -2.39998 0
M  V30 3169 H 299.825 1.89386 -4.46495 0
M  V30 3170 H 295.704 2.81246 -3.65269 0
M  V30 3171 H 299.248 1.44848 -6.82396 0
M  V30 3172 H 295.145 2.37125 -6.00368 0
M  V30 3173 H 295.913 1.7715 -7.991 0
M  V30 3174 N 298.576 1.31904 0.862503 0
M  V30 3175 C 299.825 1.21373 1.61094 0
M  V30 3176 C 300.138 -0.22504 1.94301 0
M  V30 3177 O 301.344 -0.452121 2.67709 0
M  V30 3178 C 299.8 2.12525 2.9045 0
M  V30 3179 C 299.408 3.61441 2.64697 0
M  V30 3180 C 301.152 2.10813 3.68454 0
M  V30 3181 C 299.059 4.44578 3.90006 0
M  V30 3182 H 297.989 0.450705 0.604468 0
M  V30 3183 H 300.64 1.56811 0.953027 0
M  V30 3184 H 299.022 1.69994 3.57656 0
M  V30 3185 H 300.196 4.12264 2.05851 0
M  V30 3186 H 298.511 3.65205 2.00036 0
M  V30 3187 H 301.108 2.70167 4.61426 0
M  V30 3188 H 301.451 1.09713 4.01583 0
M  V30 3189 H 301.984 2.51583 3.08141 0
M  V30 3190 H 298.723 5.46461 3.62023 0
M  V30 3191 H 298.243 3.98508 4.48276 0
M  V30 3192 H 299.922 4.57176 4.5782 0
M  V30 3193 N 300.054 -1.07777 1.14986 0
M  V30 3194 C 301.301 -1.8029 0.922056 0
M  V30 3195 C 301.629 -1.86531 -0.55105 0
M  V30 3196 O 300.884 -1.34189 -1.42449 0
M  V30 3197 C 301.183 -3.25495 1.47608 0
M  V30 3198 C 300.849 -3.39361 2.96893 0
M  V30 3199 C 299.511 -3.42852 3.37647 0
M  V30 3200 C 301.863 -3.42512 3.92854 0
M  V30 3201 C 299.191 -3.47094 4.73015 0
M  V30 3202 C 301.543 -3.4829 5.28088 0
M  V30 3203 C 300.207 -3.50058 5.68345 0
M  V30 3204 H 299.477 -0.659727 0.337404 0
M  V30 3205 H 302.124 -1.26854 1.43459 0
M  V30 3206 H 300.429 -3.81683 0.88463 0
M  V30 3207 H 302.126 -3.80168 1.27568 0
M  V30 3208 H 298.716 -3.37339 2.64387 0
M  V30 3209 H 302.9 -3.3904 3.62444 0
M  V30 3210 H 298.156 -3.46758 5.03556 0
M  V30 3211 H 302.33 -3.49675 6.02246 0
M  V30 3212 H 299.957 -3.53097 6.73221 0
M  V30 3213 N 301.532 -0.945985 -1.26051 0
M  V30 3214 C 302.779 -0.596118 -1.93527 0
M  V30 3215 C 303.107 0.865559 -1.74179 0
M  V30 3216 O 302.362 1.63524 -1.0751 0
M  V30 3217 C 302.661 -0.890475 -3.46129 0
M  V30 3218 C 302.327 -2.3368 -3.85622 0
M  V30 3219 C 300.989 -2.73216 -3.96114 0
M  V30 3220 C 303.341 -3.27648 -4.05334 0
M  V30 3221 C 300.669 -4.05806 -4.2372 0
M  V30 3222 C 303.021 -4.59841 -4.3443 0
M  V30 3223 C 301.685 -4.99185 -4.43137 0
M  V30 3224 H 300.955 -0.218135 -0.708165 0
M  V30 3225 H 303.602 -1.1934 -1.49768 0
M  V30 3226 H 301.907 -0.210711 -3.91233 0
M  V30 3227 H 303.604 -0.598478 -3.96509 0
M  V30 3228 H 300.194 -2.02015 -3.78005 0
M  V30 3229 H 304.378 -2.98298 -3.96651 0
M  V30 3230 H 299.634 -4.35945 -4.28675 0
M  V30 3231 H 303.808 -5.32641 -4.48628 0
M  V30 3232 H 301.435 -6.01952 -4.64282 0
M  V30 3233 N 303.011 1.40521 -0.713556 0
M  V30 3234 C 303.958 2.30723 -0.059684 0
M  V30 3235 C 304.928 1.48079 0.752448 0
M  V30 3236 O 306.113 1.76823 0.71681 0
M  V30 3237 C 303.253 3.34274 0.857594 0
M  V30 3238 C 302.366 4.31986 0.0351536 0
M  V30 3239 C 301.501 5.22605 0.951724 0
M  V30 3240 C 300.54 6.11976 0.123253 0
M  V30 3241 N 299.677 6.9502 0.99459 0
M  V30 3242 H 304.517 2.86074 -0.834596 0
M  V30 3243 H 302.054 1.40879 -0.42326 0
M  V30 3244 H 304.012 3.92879 1.40364 0
M  V30 3245 H 302.642 2.8043 1.59871 0
M  V30 3246 H 301.694 3.7518 -0.628052 0
M  V30 3247 H 303.006 4.95101 -0.606347 0
M  V30 3248 H 302.16 5.86131 1.56638 0
M  V30 3249 H 300.899 4.59759 1.62705 0
M  V30 3250 H 299.904 5.47482 -0.50435 0
M  V30 3251 H 301.129 6.76881 -0.548539 0
M  V30 3252 H 299.075 6.34764 1.6556 0
M  V30 3253 H 298.992 7.54892 0.40908 0
M  V30 3254 H 300.26 7.62997 1.59549 0
M  V30 3255 N 304.489 0.459591 1.5075 0
M  V30 3256 C 305.452 -0.329093 2.26825 0
M  V30 3257 C 306.452 -0.930481 1.31144 0
M  V30 3258 O 307.642 -0.801453 1.54669 0
M  V30 3259 C 304.774 -1.46768 3.07688 0
M  V30 3260 H 305.967 0.337924 2.9799 0
M  V30 3261 H 303.52 0.213336 1.54837 0
M  V30 3262 H 304.255 -2.17009 2.40993 0
M  V30 3263 H 304.04 -1.04238 3.77991 0
M  V30 3264 H 305.53 -2.02433 3.65254 0
M  V30 3265 N 305.967 -1.56429 0.191757 0
M  V30 3266 C 306.914 -2.18936 -0.730454 0
M  V30 3267 C 307.884 -1.13557 -1.21219 0
M  V30 3268 O 309.069 -1.41794 -1.27668 0
M  V30 3269 C 306.209 -2.85013 -1.9458 0
M  V30 3270 C 305.322 -4.04909 -1.50574 0
M  V30 3271 C 304.457 -4.58853 -2.67634 0
M  V30 3272 C 303.496 -5.71114 -2.20217 0
M  V30 3273 N 302.633 -6.19478 -3.30442 0
M  V30 3274 H 307.473 -2.97389 -0.190664 0
M  V30 3275 H 305.01 -1.46869 -0.0823694 0
M  V30 3276 H 306.968 -3.21492 -2.65893 0
M  V30 3277 H 305.598 -2.09129 -2.45896 0
M  V30 3278 H 304.65 -3.74115 -0.688605 0
M  V30 3279 H 305.962 -4.86113 -1.11784 0
M  V30 3280 H 305.116 -4.97619 -3.47074 0
M  V30 3281 H 303.855 -3.76749 -3.09696 0
M  V30 3282 H 302.86 -5.31879 -1.3923 0
M  V30 3283 H 304.085 -6.55033 -1.79189 0
M  V30 3284 H 302.031 -5.40297 -3.72041 0
M  V30 3285 H 301.948 -6.95725 -2.9581 0
M  V30 3286 H 303.216 -6.62898 -4.10106 0
M  V30 3287 N 307.445 0.0818655 -1.57387 0
M  V30 3288 C 308.691 0.778884 -1.87896 0
M  V30 3289 C 309.046 1.75692 -0.784229 0
M  V30 3290 O 308.339 1.90417 0.212567 0
M  V30 3291 C 308.533 1.53513 -3.22752 0
M  V30 3292 C 308.362 0.631838 -4.45239 0
M  V30 3293 C 307.132 0.272571 -5.04564 0
M  V30 3294 C 309.33 -0.0670191 -5.14256 0
M  V30 3295 N 307.312 -0.637498 -6.10581 0
M  V30 3296 C 308.683 -0.834653 -6.14356 0
M  V30 3297 C 310.738 -0.139551 -4.97704 0
M  V30 3298 C 309.441 -1.66806 -6.99691 0
M  V30 3299 C 311.467 -0.959903 -5.83558 0
M  V30 3300 C 310.829 -1.71561 -6.83188 0
M  V30 3301 H 306.928 0.260764 -0.737242 0
M  V30 3302 H 309.512 0.0408227 -1.94657 0
M  V30 3303 H 307.683 2.24398 -3.17018 0
M  V30 3304 H 309.415 2.18038 -3.40942 0
M  V30 3305 H 306.17 0.62319 -4.69482 0
M  V30 3306 H 306.594 -1.08548 -6.68241 0
M  V30 3307 H 311.236 0.430376 -4.20604 0
M  V30 3308 H 308.954 -2.249 -7.76174 0
M  V30 3309 H 312.54 -1.01887 -5.72809 0
M  V30 3310 H 311.42 -2.34017 -7.48469 0
M  V30 3311 N 308.923 1.53595 0.353017 0
M  V30 3312 C 309.833 1.83897 1.45667 0
M  V30 3313 C 310.849 0.728334 1.58023 0
M  V30 3314 O 312.025 1.01968 1.73679 0
M  V30 3315 C 309.09 2.03383 2.80778 0
M  V30 3316 C 308.151 3.27262 2.77845 0
M  V30 3317 C 307.384 3.45809 4.06512 0
M  V30 3318 O 307.607 2.68387 5.03314 0
M  V30 3319 O 306.541 4.39207 4.11559 0
M  V30 3320 H 310.367 2.77686 1.2298 0
M  V30 3321 H 307.952 1.39132 0.544308 0
M  V30 3322 H 309.834 2.17698 3.60812 0
M  V30 3323 H 308.509 1.12783 3.03417 0
M  V30 3324 H 307.416 3.18359 1.96465 0
M  V30 3325 H 308.749 4.17824 2.60161 0
M  V30 3326 N 310.401 -0.613514 1.45168 0
M  V30 3327 C 311.629 -1.39946 1.5239 0
M  V30 3328 C 312.044 -1.88167 0.154531 0
M  V30 3329 O 311.401 -1.61872 -0.842843 0
M  V30 3330 C 311.452 -2.60795 2.50337 0
M  V30 3331 O 311.173 -2.1458 3.81952 0
M  V30 3332 C 312.674 -3.53723 2.67198 0
M  V30 3333 H 309.894 -0.428593 0.516284 0
M  V30 3334 H 312.438 -0.748753 1.903 0
M  V30 3335 H 310.593 -3.21919 2.15515 0
M  V30 3336 H 311.007 -2.93055 4.34993 0
M  V30 3337 H 312.481 -4.35079 3.39721 0
M  V30 3338 H 312.958 -4.0368 1.73029 0
M  V30 3339 H 313.564 -2.98456 3.02992 0
M  V30 3340 N 311.879 -1.3236 -0.855495 0
M  V30 3341 C 313.104 -1.2601 -1.64731 0
M  V30 3342 C 313.529 0.169068 -1.87339 0
M  V30 3343 O 312.887 1.12016 -1.42556 0
M  V30 3344 C 312.935 -2.02417 -2.98429 0
M  V30 3345 O 312.039 -1.3714 -3.8893 0
M  V30 3346 H 311.38 -0.434325 -0.502253 0
M  V30 3347 H 313.91 -1.74661 -1.06558 0
M  V30 3348 H 313.92 -2.12559 -3.48257 0
M  V30 3349 H 312.595 -3.06343 -2.81295 0
M  V30 3350 H 311.172 -1.3554 -3.47395 0
M  V30 3351 N 313.357 1.07166 -1.15556 0
M  V30 3352 C 314.604 1.79798 -0.931604 0
M  V30 3353 C 314.932 1.8682 0.54115 0
M  V30 3354 O 314.187 1.34942 1.41736 0
M  V30 3355 C 314.486 3.24707 -1.49332 0
M  V30 3356 C 314.152 3.37781 -2.98688 0
M  V30 3357 C 312.814 3.41057 -3.39461 0
M  V30 3358 C 315.166 3.40424 -3.94665 0
M  V30 3359 C 312.494 3.4458 -4.74849 0
M  V30 3360 C 314.846 3.45485 -5.29927 0
M  V30 3361 C 313.51 3.47039 -5.70193 0
M  V30 3362 H 312.78 0.657928 -0.340898 0
M  V30 3363 H 315.427 1.26091 -1.44129 0
M  V30 3364 H 313.732 3.81208 -0.904859 0
M  V30 3365 H 315.429 3.79486 -1.29582 0
M  V30 3366 H 312.019 3.35932 -2.66172 0
M  V30 3367 H 316.203 3.37113 -3.64237 0
M  V30 3368 H 311.459 3.44083 -5.05388 0
M  V30 3369 H 315.633 3.46476 -6.04092 0
M  V30 3370 H 313.26 3.49522 -6.75084 0
M  V30 3371 N 314.835 0.952656 1.25548 0
M  V30 3372 C 315.783 0.462354 2.27958 0
M  V30 3373 C 316.777 -0.46634 1.62855 0
M  V30 3374 O 317.983 -0.343287 1.76696 0
M  V30 3375 H 314.358 0.13101 0.7405 0
M  V30 3376 H 316.329 1.33839 2.66702 0
M  V30 3377 C 315.078 -0.24628 3.46827 0
M  V30 3378 H 314.401 0.459192 3.97154 0
M  V30 3379 H 315.841 -0.553393 4.20373 0
M  V30 3380 C 314.3 -1.4681 3.0323 0
M  V30 3381 O 314.83 -2.56591 3.09069 0
M  V30 3382 N 313.036 -1.32874 2.58443 0
M  V30 3383 H 312.583 -0.435536 2.53891 0
M  V30 3384 H 312.541 -2.14742 2.29637 0
M  V30 3385 N 316.313 -1.40141 0.720998 0
M  V30 3386 C 317.263 -2.27949 0.0482544 0
M  V30 3387 C 318.247 -1.43538 -0.727021 0
M  V30 3388 O 319.439 -1.6658 -0.598332 0
M  V30 3389 C 316.568 -3.32126 -0.868729 0
M  V30 3390 C 315.654 -4.24008 -0.0883515 0
M  V30 3391 N 316.045 -4.97154 0.931226 0
M  V30 3392 C 314.343 -4.4485 -0.320105 0
M  V30 3393 C 315.044 -5.64587 1.4006 0
M  V30 3394 N 314.02 -5.38787 0.721752 0
M  V30 3395 H 317.822 -2.81948 0.829609 0
M  V30 3396 H 315.336 -1.52656 0.554067 0
M  V30 3397 H 317.333 -3.93884 -1.36605 0
M  V30 3398 H 315.993 -2.79687 -1.6494 0
M  V30 3399 H 317.004 -5.01 1.31222 0
M  V30 3400 H 313.681 -4.03378 -1.07668 0
M  V30 3401 H 315.071 -6.33175 2.24808 0
M  V30 3402 N 317.792 -0.46758 -1.50504 0
M  V30 3403 C 318.739 0.328413 -2.28452 0
M  V30 3404 C 319.709 0.990313 -1.33349 0
M  V30 3405 O 320.894 1.00343 -1.62284 0
M  V30 3406 C 318.034 1.40648 -3.15138 0
M  V30 3407 C 317.147 0.759709 -4.25267 0
M  V30 3408 C 316.282 1.81537 -4.99217 0
M  V30 3409 C 315.321 1.14866 -6.01226 0
M  V30 3410 N 314.458 2.14702 -6.68467 0
M  V30 3411 H 319.298 -0.342603 -2.96024 0
M  V30 3412 H 316.835 -0.180801 -1.45985 0
M  V30 3413 H 318.793 2.04315 -3.63746 0
M  V30 3414 H 317.423 2.04671 -2.49619 0
M  V30 3415 H 316.475 0.0105671 -3.80399 0
M  V30 3416 H 317.787 0.233243 -4.98254 0
M  V30 3417 H 316.941 2.52793 -5.51526 0
M  V30 3418 H 315.68 2.37564 -4.25928 0
M  V30 3419 H 314.685 0.42171 -5.4818 0
M  V30 3420 H 315.91 0.595334 -6.76485 0
M  V30 3421 H 313.856 2.69752 -5.97972 0
M  V30 3422 H 313.773 1.6703 -7.37317 0
M  V30 3423 H 315.041 2.85348 -7.25394 0
M  V30 3424 N 319.27 1.56325 -0.20005 0
M  V30 3425 C 320.518 1.97329 0.436547 0
M  V30 3426 C 320.839 1.08826 1.61808 0
M  V30 3427 O 320.109 0.160604 1.95241 0
M  V30 3428 H 318.689 0.728714 0.164272 0
M  V30 3429 H 321.351 1.92761 -0.287937 0
M  V30 3430 H 320.447 3.02264 0.777353 0
M  V30 3431 N 320.748 -0.0735177 1.57428 0
M  V30 3432 C 321.976 -0.785969 1.9139 0
M  V30 3433 C 322.391 -1.71207 0.795847 0
M  V30 3434 O 321.748 -1.81033 -0.230915 0
M  V30 3435 C 321.799 -1.58107 3.25091 0
M  V30 3436 O 321.52 -0.6922 4.32597 0
M  V30 3437 C 323.021 -2.39467 3.73055 0
M  V30 3438 H 320.241 -0.223558 0.632663 0
M  V30 3439 H 322.785 -0.044302 2.04452 0
M  V30 3440 H 320.94 -2.27503 3.13562 0
M  V30 3441 H 321.354 -1.24504 5.09508 0
M  V30 3442 H 322.828 -2.90716 4.69242 0
M  V30 3443 H 323.305 -3.18913 3.01979 0
M  V30 3444 H 323.911 -1.7523 3.87523 0
M  V30 3445 N 322.226 -1.5378 -0.344866 0
M  V30 3446 C 323.158 -1.77988 -1.44406 0
M  V30 3447 C 324.171 -0.661138 -1.48771 0
M  V30 3448 O 325.36 -0.937842 -1.51877 0
M  V30 3449 C 322.46 -1.86345 -2.8307 0
M  V30 3450 C 321.633 -3.16256 -3.0216 0
M  V30 3451 C 320.692 -3.15588 -4.21059 0
M  V30 3452 O 319.718 -3.89314 -4.15239 0
M  V30 3453 N 320.92 -2.37864 -5.29529 0
M  V30 3454 H 323.685 -2.72839 -1.24012 0
M  V30 3455 H 321.246 -1.52814 -0.534737 0
M  V30 3456 H 323.238 -1.83351 -3.60783 0
M  V30 3457 H 321.808 -0.986858 -2.96614 0
M  V30 3458 H 321.028 -3.32385 -2.11929 0
M  V30 3459 H 322.316 -4.0207 -3.11797 0
M  V30 3460 H 321.714 -1.77514 -5.37127 0
M  V30 3461 H 320.271 -2.40668 -6.05741 0
M  V30 3462 N 323.704 0.605807 -1.45491 0
M  V30 3463 C 324.614 1.74466 -1.56839 0
M  V30 3464 C 325.63 1.68006 -0.452772 0
M  V30 3465 O 326.806 1.8833 -0.713708 0
M  V30 3466 C 323.871 3.10931 -1.53371 0
M  V30 3467 C 322.932 3.28832 -2.75986 0
M  V30 3468 C 322.165 4.58787 -2.72673 0
M  V30 3469 O 322.388 5.4122 -1.80102 0
M  V30 3470 O 321.322 4.79438 -3.63899 0
M  V30 3471 H 325.148 1.67843 -2.53106 0
M  V30 3472 H 322.733 0.770108 -1.28022 0
M  V30 3473 H 324.615 3.92233 -1.54051 0
M  V30 3474 H 323.29 3.18042 -0.602572 0
M  V30 3475 H 322.197 2.47112 -2.80867 0
M  V30 3476 H 323.53 3.26599 -3.68231 0
M  V30 3477 N 325.182 1.32811 0.848464 0
M  V30 3478 C 326.114 1.18095 1.96433 0
M  V30 3479 C 327.127 0.114354 1.62398 0
M  V30 3480 O 328.316 0.363892 1.74751 0
M  V30 3481 C 325.416 0.786798 3.2964 0
M  V30 3482 C 324.589 1.943 3.91875 0
M  V30 3483 C 323.648 1.53138 5.03423 0
M  V30 3484 O 322.674 2.24432 5.23086 0
M  V30 3485 N 323.876 0.430915 5.78898 0
M  V30 3486 H 326.641 2.14218 2.09597 0
M  V30 3487 H 324.202 1.2543 1.02367 0
M  V30 3488 H 326.194 0.493715 4.01677 0
M  V30 3489 H 324.764 -0.0834541 3.12489 0
M  V30 3490 H 323.984 2.40224 3.12547 0
M  V30 3491 H 325.272 2.71689 4.30189 0
M  V30 3492 H 324.67 -0.162333 5.65467 0
M  V30 3493 H 323.227 0.197466 6.51501 0
M  V30 3494 N 326.66 -1.06551 1.16123 0
M  V30 3495 C 327.937 -1.76097 0.85142 0
M  V30 3496 C 328.317 -2.00802 -0.6513 0
M  V30 3497 O 327.665 -1.63302 -1.59827 0
M  V30 3498 C 327.875 -3.06384 1.67122 0
M  V30 3499 C 329.223 -3.80585 1.88255 0
M  V30 3500 O 330.247 -3.16218 1.63966 0
M  V30 3501 O 329.106 -4.96212 2.2899 0
M  V30 3502 H 326.2 -0.765102 0.313923 0
M  V30 3503 H 328.746 -1.12844 1.26745 0
M  V30 3504 H 327.518 -2.84071 2.69108 0
M  V30 3505 H 327.141 -3.77371 1.25206 0
M  V30 3506 N 328.138 -0.959301 -1.25041 0
M  V30 3507 C 329.385 -0.616611 -1.92884 0
M  V30 3508 C 329.713 0.847036 -1.75087 0
M  V30 3509 O 328.968 1.62374 -1.09239 0
M  V30 3510 C 329.267 -0.927136 -3.45165 0
M  V30 3511 C 328.933 -2.37757 -3.83122 0
M  V30 3512 C 327.595 -2.77402 -3.93194 0
M  V30 3513 C 329.947 -3.31929 -4.01836 0
M  V30 3514 C 327.275 -4.10277 -4.19392 0
M  V30 3515 C 329.627 -4.64423 -4.29528 0
M  V30 3516 C 328.291 -5.03857 -4.37818 0
M  V30 3517 H 327.561 -0.225634 -0.705812 0
M  V30 3518 H 330.208 -1.20921 -1.48493 0
M  V30 3519 H 328.513 -0.252195 -3.90987 0
M  V30 3520 H 330.21 -0.6405 -3.95852 0
M  V30 3521 H 326.8 -2.06013 -3.75841 0
M  V30 3522 H 330.984 -3.02488 -3.93465 0
M  V30 3523 H 326.24 -4.40467 -4.24027 0
M  V30 3524 H 330.414 -5.37369 -4.42953 0
M  V30 3525 H 328.041 -6.06843 -4.57871 0
M  V30 3526 N 329.616 1.39756 -0.72842 0
M  V30 3527 C 330.846 2.04651 -0.283117 0
M  V30 3528 C 331.254 1.5502 1.08469 0
M  V30 3529 O 330.597 0.707343 1.69536 0
M  V30 3530 C 330.659 3.58947 -0.199309 0
M  V30 3531 C 330.323 4.31525 -1.5045 0
M  V30 3532 C 331.32 4.5861 -2.44894 0
M  V30 3533 C 329.005 4.70195 -1.76698 0
M  V30 3534 C 330.999 5.23366 -3.63822 0
M  V30 3535 C 328.686 5.3468 -2.95906 0
M  V30 3536 C 329.684 5.61198 -3.89289 0
M  V30 3537 O 329.372 6.24347 -5.06404 0
M  V30 3538 H 329.104 0.664777 -0.122666 0
M  V30 3539 H 331.658 1.79913 -0.990987 0
M  V30 3540 H 329.888 3.82556 0.56461 0
M  V30 3541 H 331.577 4.0534 0.213125 0
M  V30 3542 H 332.343 4.29187 -2.25883 0
M  V30 3543 H 328.222 4.48916 -1.04859 0
M  V30 3544 H 331.766 5.4398 -4.36728 0
M  V30 3545 H 327.663 5.63524 -3.14819 0
M  V30 3546 H 328.431 6.42842 -5.06652 0
M  V30 3547 N 331.094 0.475555 1.50254 0
M  V30 3548 C 332.34 -0.0780073 2.0265 0
M  V30 3549 C 332.673 -1.38968 1.35652 0
M  V30 3550 O 331.948 -1.8839 0.483691 0
M  V30 3551 C 332.231 -0.257161 3.59181 0
M  V30 3552 C 332.084 1.07585 4.36744 0
M  V30 3553 C 333.403 -1.00965 4.28362 0
M  V30 3554 H 330.522 -0.0268758 0.73651 0
M  V30 3555 H 333.164 0.622015 1.7953 0
M  V30 3556 H 331.314 -0.853412 3.79011 0
M  V30 3557 H 332.986 1.70902 4.28474 0
M  V30 3558 H 331.229 1.6714 4.00308 0
M  V30 3559 H 331.9 0.904088 5.44546 0
M  V30 3560 H 334.376 -0.504214 4.13034 0
M  V30 3561 H 333.252 -1.10381 5.37687 0
M  V30 3562 H 333.513 -2.04731 3.91839 0
M  V30 3563 N 332.573 -1.56217 0.208337 0
M  V30 3564 C 333.801 -2.02337 -0.43215 0
M  V30 3565 C 334.216 -1.08834 -1.54275 0
M  V30 3566 O 333.573 -0.0955462 -1.8225 0
M  V30 3567 C 333.624 -3.48072 -0.976138 0
M  V30 3568 O 333.345 -4.38007 0.0901621 0
M  V30 3569 C 334.846 -4.09773 -1.69119 0
M  V30 3570 H 332.066 -0.662385 -0.10718 0
M  V30 3571 H 334.61 -2.01966 0.320923 0
M  V30 3572 H 332.765 -3.49099 -1.67954 0
M  V30 3573 H 333.179 -5.23543 -0.316701 0
M  V30 3574 H 334.653 -5.13556 -2.02397 0
M  V30 3575 H 335.13 -3.53999 -2.59964 0
M  V30 3576 H 335.736 -4.12556 -1.03332 0
M  V30 3577 N 334.051 0.0651679 -1.57465 0
M  V30 3578 C 335.276 0.779605 -1.9219 0
M  V30 3579 C 335.701 1.69988 -0.805333 0
M  V30 3580 O 335.059 1.79685 0.241435 0
M  V30 3581 C 335.107 1.54364 -3.2589 0
M  V30 3582 O 334.211 2.65474 -3.1559 0
M  V30 3583 H 333.552 0.212249 -0.629163 0
M  V30 3584 H 336.082 0.0314294 -2.04576 0
M  V30 3585 H 336.092 1.92146 -3.59922 0
M  V30 3586 H 334.767 0.868457 -4.06732 0
M  V30 3587 H 333.344 2.30501 -2.93128 0
M  V30 3588 N 335.529 1.53961 0.336706 0
M  V30 3589 C 336.439 1.85432 1.43708 0
M  V30 3590 C 337.455 0.745053 1.57242 0
M  V30 3591 O 338.631 1.03804 1.72588 0
M  V30 3592 C 335.696 2.06349 2.78605 0
M  V30 3593 C 334.757 3.30191 2.74358 0
M  V30 3594 C 333.99 3.50101 4.02822 0
M  V30 3595 O 334.213 2.7371 5.00439 0
M  V30 3596 O 333.147 4.43547 4.06878 0
M  V30 3597 H 336.973 2.78975 1.20028 0
M  V30 3598 H 334.558 1.39701 0.52952 0
M  V30 3599 H 336.44 2.21513 3.58483 0
M  V30 3600 H 335.115 1.15995 3.02203 0
M  V30 3601 H 334.022 3.20425 1.93078 0
M  V30 3602 H 335.355 4.2056 2.55715 0
M  V30 3603 N 337.007 -0.598083 1.45811 0
M  V30 3604 C 338.235 -1.38322 1.53866 0
M  V30 3605 C 338.65 -1.87992 0.174479 0
M  V30 3606 O 338.007 -1.62756 -0.825627 0
M  V30 3607 C 338.058 -2.58125 2.53089 0
M  V30 3608 O 337.779 -2.10516 3.84206 0
M  V30 3609 C 339.28 -3.50869 2.70935 0
M  V30 3610 H 336.5 -0.423093 0.520801 0
M  V30 3611 H 339.044 -0.728527 1.91083 0
M  V30 3612 H 337.199 -3.19615 2.18917 0
M  V30 3613 H 337.613 -2.88425 4.38077 0
M  V30 3614 H 339.087 -4.31451 3.44317 0
M  V30 3615 H 339.564 -4.01822 1.77301 0
M  V30 3616 H 340.17 -2.95225 3.06141 0
M  V30 3617 N 338.485 -1.33259 -0.841409 0
M  V30 3618 C 339.731 -1.24757 -1.59886 0
M  V30 3619 C 340.064 0.186913 -1.93298 0
M  V30 3620 O 339.339 1.12757 -1.5848 0
M  V30 3621 C 339.622 -2.12036 -2.91055 0
M  V30 3622 C 339.475 -3.63929 -2.6434 0
M  V30 3623 C 340.794 -1.9916 -3.92458 0
M  V30 3624 H 337.913 -0.454542 -0.580138 0
M  V30 3625 H 340.555 -1.63335 -0.970647 0
M  V30 3626 H 338.705 -1.79265 -3.44669 0
M  V30 3627 H 340.377 -4.06978 -2.17178 0
M  V30 3628 H 338.62 -3.85935 -1.98082 0
M  V30 3629 H 339.291 -4.20341 -3.57796 0
M  V30 3630 H 341.767 -2.27895 -3.48143 0
M  V30 3631 H 340.643 -2.62484 -4.82072 0
M  V30 3632 H 340.904 -0.963082 -4.31482 0
M  V30 3633 N 339.963 1.05934 -1.16686 0
M  V30 3634 C 341.209 1.79065 -0.95203 0
M  V30 3635 C 341.542 1.87147 0.518629 0
M  V30 3636 O 340.817 1.36574 1.38484 0
M  V30 3637 C 341.1 3.23359 -1.58464 0
M  V30 3638 C 340.953 3.23336 -3.12689 0
M  V30 3639 C 342.272 4.21004 -1.28232 0
M  V30 3640 H 339.391 0.65005 -0.34728 0
M  V30 3641 H 342.033 1.23868 -1.44072 0
M  V30 3642 H 340.183 3.70493 -1.16908 0
M  V30 3643 H 341.855 2.84336 -3.6325 0
M  V30 3644 H 340.098 2.61886 -3.4583 0
M  V30 3645 H 340.769 4.25144 -3.52075 0
M  V30 3646 H 343.245 3.8233 -1.64203 0
M  V30 3647 H 342.121 5.20225 -1.75092 0
M  V30 3648 H 342.382 4.41639 -0.201791 0
M  V30 3649 N 341.441 0.965919 1.2453 0
M  V30 3650 C 342.857 0.67216 1.44756 0
M  V30 3651 C 343.057 -0.766609 1.86347 0
M  V30 3652 O 342.113 -1.5407 2.00047 0
M  V30 3653 C 343.426 1.65473 2.51076 0
M  V30 3654 C 344.974 1.66716 2.64905 0
M  V30 3655 C 345.449 2.63766 3.74421 0
M  V30 3656 N 346.94 2.62198 3.81846 0
M  V30 3657 C 347.675 3.33966 4.66106 0
M  V30 3658 N 347.171 4.15245 5.54566 0
M  V30 3659 N 348.964 3.22799 4.60171 0
M  V30 3660 H 341.115 1.89553 0.958293 0
M  V30 3661 H 343.378 0.815979 0.482579 0
M  V30 3662 H 343.084 2.68296 2.27399 0
M  V30 3663 H 342.958 1.4261 3.49202 0
M  V30 3664 H 345.345 0.646057 2.87941 0
M  V30 3665 H 345.426 1.93642 1.67142 0
M  V30 3666 H 345.07 3.6601 3.52135 0
M  V30 3667 H 345 2.34121 4.71694 0
M  V30 3668 H 347.491 2.032 3.18619 0
M  V30 3669 H 347.804 4.66898 6.15814 0
M  V30 3670 H 346.149 4.1934 5.54237 0
M  V30 3671 H 349.34 2.58764 3.90075 0
M  V30 3672 H 349.513 3.78994 5.25612 0
M  V30 3673 N 342.919 -1.39368 0.735821 0
M  V30 3674 C 344.165 -2.00794 0.284544 0
M  V30 3675 C 344.498 -1.58255 -1.12557 0
M  V30 3676 O 343.773 -0.811819 -1.76748 0
M  V30 3677 C 344.056 -3.58011 0.387337 0
M  V30 3678 C 343.909 -4.10566 1.83728 0
M  V30 3679 C 345.228 -4.395 -0.22975 0
M  V30 3680 H 342.347 -0.729501 0.104866 0
M  V30 3681 H 344.989 -1.65564 0.93213 0
M  V30 3682 H 343.139 -3.88154 -0.164006 0
M  V30 3683 H 344.811 -3.91139 2.44556 0
M  V30 3684 H 343.054 -3.64095 2.35833 0
M  V30 3685 H 343.725 -5.19702 1.86047 0
M  V30 3686 H 346.201 -4.15406 0.240257 0
M  V30 3687 H 345.077 -5.48752 -0.127485 0
M  V30 3688 H 345.338 -4.22062 -1.3159 0
M  V30 3689 N 344.397 -0.483516 -1.5 0
M  V30 3690 C 345.808 -0.0314176 -1.86674 0
M  V30 3691 C 346.159 1.37728 -1.39733 0
M  V30 3692 O 345.284 2.02327 -0.767635 0
M  V30 3693 C 345.879 -0.0502376 -3.38763 0
M  V30 3694 C 344.438 0.346442 -3.74802 0
M  V30 3695 C 343.585 -0.430366 -2.7394 0
M  V30 3696 H 346.536 -0.697182 -1.42566 0
M  V30 3697 H 346.557 0.749116 -3.73053 0
M  V30 3698 H 346.069 -1.07563 -3.72897 0
M  V30 3699 H 344.17 1.37572 -3.46273 0
M  V30 3700 H 344.283 0.0391486 -4.79084 0
M  V30 3701 H 342.647 0.117557 -2.54429 0
M  V30 3702 H 343.43 -1.4555 -3.10918 0
M  V30 3703 N 345.875 1.56104 -0.216619 0
M  V30 3704 C 346.808 2.16026 0.735395 0
M  V30 3705 C 347.786 1.1032 1.1945 0
M  V30 3706 O 348.97 1.38549 1.27814 0
M  V30 3707 C 346.097 2.73656 1.99575 0
M  V30 3708 C 345.143 3.92146 1.67702 0
M  V30 3709 S 345.976 5.29397 0.806145 0
M  V30 3710 C 347.132 5.90463 2.07617 0
M  V30 3711 H 347.365 2.96439 0.226072 0
M  V30 3712 H 344.898 1.544 -0.00136639 0
M  V30 3713 H 346.856 3.075 2.71945 0
M  V30 3714 H 345.517 1.93245 2.47619 0
M  V30 3715 H 344.71 4.30954 2.61332 0
M  V30 3716 H 344.312 3.59423 1.03398 0
M  V30 3717 H 346.604 6.06136 3.02664 0
M  V30 3718 H 347.547 6.86589 1.73207 0
M  V30 3719 H 347.955 5.19252 2.21445 0
M  V30 3720 N 347.353 -0.0568162 1.57498 0
M  V30 3721 C 348.286 -1.09817 2.00039 0
M  V30 3722 C 349.264 -1.3674 0.879819 0
M  V30 3723 O 350.448 -1.49863 1.14338 0
M  V30 3724 C 347.575 -2.43924 2.34986 0
M  V30 3725 C 346.621 -2.33039 3.57204 0
M  V30 3726 S 347.454 -1.7102 5.07457 0
M  V30 3727 C 348.61 -3.06674 5.45621 0
M  V30 3728 H 348.843 -0.735701 2.88053 0
M  V30 3729 H 346.376 -0.265871 1.52094 0
M  V30 3730 H 348.334 -3.2106 2.55795 0
M  V30 3731 H 346.995 -2.77327 1.47474 0
M  V30 3732 H 346.188 -3.31973 3.79223 0
M  V30 3733 H 345.79 -1.64043 3.36104 0
M  V30 3734 H 348.082 -4.03 5.44608 0
M  V30 3735 H 349.025 -2.8942 6.46252 0
M  V30 3736 H 349.433 -3.07969 4.73091 0
M  V30 3737 N 348.832 -1.54138 -0.328536 0
M  V30 3738 C 350.057 -1.76378 -1.09112 0
M  V30 3739 C 350.482 -0.508596 -1.81094 0
M  V30 3740 O 349.84 0.539598 -1.73084 0
M  V30 3741 C 349.888 -2.95358 -2.06872 0
M  V30 3742 O 348.992 -2.66556 -3.14677 0
M  V30 3743 H 348.333 -0.584614 -0.314838 0
M  V30 3744 H 350.863 -2.01146 -0.374348 0
M  V30 3745 H 350.873 -3.22566 -2.4983 0
M  V30 3746 H 349.548 -3.86385 -1.5388 0
M  V30 3747 H 348.125 -2.50282 -2.7643 0
M  V30 3748 N 350.31 0.590341 -1.46126 0
M  V30 3749 C 351.726 0.912917 -1.30912 0
M  V30 3750 C 351.926 1.99616 -0.274893 0
M  V30 3751 O 350.982 2.50397 0.325197 0
M  V30 3752 C 352.295 1.3375 -2.69317 0
M  V30 3753 C 353.843 1.45077 -2.77348 0
M  V30 3754 C 354.318 1.90904 -4.16317 0
M  V30 3755 N 355.809 1.9811 -4.18696 0
M  V30 3756 C 356.544 2.34828 -5.23109 0
M  V30 3757 N 356.04 2.70393 -6.37856 0
M  V30 3758 N 357.833 2.35317 -5.10473 0
M  V30 3759 H 349.984 -0.125358 -2.1203 0
M  V30 3760 H 352.247 0.00658481 -0.947977 0
M  V30 3761 H 351.953 0.615614 -3.4627 0
M  V30 3762 H 351.827 2.30058 -2.9892 0
M  V30 3763 H 354.214 2.16353 -2.00687 0
M  V30 3764 H 354.295 0.4704 -2.51438 0
M  V30 3765 H 353.939 1.20209 -4.9347 0
M  V30 3766 H 353.869 2.89886 -4.39629 0
M  V30 3767 H 356.36 1.73146 -3.359 0
M  V30 3768 H 356.673 2.97341 -7.13308 0
M  V30 3769 H 355.018 2.68048 -6.41229 0
M  V30 3770 H 358.209 2.0695 -4.19868 0
M  V30 3771 H 358.382 2.63605 -5.9196 0
M  V30 3772 N 351.788 1.33704 0.83433 0
M  V30 3773 C 352.698 1.26382 1.97648 0
M  V30 3774 C 353.714 0.173548 1.73132 0
M  V30 3775 O 354.89 0.397962 1.97429 0
M  V30 3776 C 351.955 1.00769 3.31733 0
M  V30 3777 C 351.016 2.1884 3.69334 0
M  V30 3778 C 350.249 1.9444 4.9702 0
M  V30 3779 O 350.472 0.896961 5.63303 0
M  V30 3780 O 349.406 2.81093 5.32231 0
M  V30 3781 H 353.232 2.22444 2.06767 0
M  V30 3782 H 350.817 1.13795 0.968037 0
M  V30 3783 H 352.699 0.882186 4.12062 0
M  V30 3784 H 351.374 0.0773783 3.23608 0
M  V30 3785 H 350.281 2.36946 2.89495 0
M  V30 3786 H 351.614 3.10221 3.82131 0
M  V30 3787 N 353.266 -1.05314 1.17247 0
M  V30 3788 C 354.543 -1.75184 0.87005 0
M  V30 3789 C 354.923 -2.01481 -0.629965 0
M  V30 3790 O 354.271 -1.64988 -1.58086 0
M  V30 3791 C 354.481 -3.04594 1.70363 0
M  V30 3792 C 355.829 -3.78567 1.92281 0
M  V30 3793 O 356.853 -3.14461 1.67311 0
M  V30 3794 O 355.712 -4.93755 2.3424 0
M  V30 3795 H 352.806 -0.761729 0.322021 0
M  V30 3796 H 355.352 -1.11493 1.27935 0
M  V30 3797 H 354.124 -2.81201 2.72106 0
M  V30 3798 H 353.747 -3.76022 1.29202 0
M  V30 3799 N 354.744 -0.972509 -1.24016 0
M  V30 3800 C 355.676 -0.464375 -2.24446 0
M  V30 3801 C 356.689 0.4295 -1.57032 0
M  V30 3802 O 357.878 0.234902 -1.76948 0
M  V30 3803 C 354.978 0.348385 -3.37105 0
M  V30 3804 C 354.151 -0.53673 -4.34094 0
M  V30 3805 C 353.21 0.220838 -5.25736 0
M  V30 3806 O 352.236 -0.386867 -5.67884 0
M  V30 3807 N 353.438 1.50907 -5.60542 0
M  V30 3808 H 356.203 -1.32788 -2.68677 0
M  V30 3809 H 353.764 -0.844877 -1.38107 0
M  V30 3810 H 355.756 0.863341 -3.95384 0
M  V30 3811 H 354.326 1.11285 -2.92121 0
M  V30 3812 H 353.546 -1.23261 -3.74433 0
M  V30 3813 H 354.834 -1.14022 -4.95859 0
M  V30 3814 H 354.232 2.02444 -5.28236 0
M  V30 3815 H 352.789 1.96962 -6.21329 0
M  V30 3816 N 356.222 1.38976 -0.743202 0
M  V30 3817 C 357.452 2.04339 -0.304807 0
M  V30 3818 C 357.86 1.56162 1.06819 0
M  V30 3819 O 357.203 0.725284 1.68776 0
M  V30 3820 C 357.265 3.58716 -0.237369 0
M  V30 3821 C 356.929 4.29905 -1.55018 0
M  V30 3822 C 357.926 4.55987 -2.49744 0
M  V30 3823 C 355.611 4.68294 -1.81675 0
M  V30 3824 C 357.605 5.19478 -3.69353 0
M  V30 3825 C 355.292 5.31512 -3.0156 0
M  V30 3826 C 356.29 5.57037 -3.9522 0
M  V30 3827 O 355.978 6.18941 -5.12998 0
M  V30 3828 H 355.71 0.663439 -0.12971 0
M  V30 3829 H 358.264 1.78852 -1.01001 0
M  V30 3830 H 356.494 3.83133 0.524003 0
M  V30 3831 H 358.183 4.05543 0.170121 0
M  V30 3832 H 358.949 4.26767 -2.30423 0
M  V30 3833 H 354.828 4.47779 -1.09615 0
M  V30 3834 H 358.372 5.39318 -4.42473 0
M  V30 3835 H 354.269 5.60153 -3.20778 0
M  V30 3836 H 355.037 6.37433 -5.13441 0
M  V30 3837 N 357.7 0.491464 1.49741 0
M  V30 3838 C 358.65 -0.311086 2.25868 0
M  V30 3839 C 359.634 -0.943857 1.30308 0
M  V30 3840 O 360.826 -0.853035 1.55088 0
M  V30 3841 C 357.955 -1.38059 3.14316 0
M  V30 3842 C 357.041 -0.754541 4.17334 0
M  V30 3843 N 357.432 0.137216 5.05614 0
M  V30 3844 C 355.73 -1.01621 4.34269 0
M  V30 3845 C 356.431 0.494614 5.79593 0
M  V30 3846 N 355.407 -0.135169 5.43432 0
M  V30 3847 H 359.209 0.37555 2.91491 0
M  V30 3848 H 356.723 0.306917 1.59473 0
M  V30 3849 H 358.72 -1.96891 3.67477 0
M  V30 3850 H 357.38 -2.06901 2.50244 0
M  V30 3851 H 358.391 0.50741 5.15408 0
M  V30 3852 H 355.068 -1.69808 3.81407 0
M  V30 3853 H 356.458 1.2236 6.60665 0
M  V30 3854 N 359.178 -1.55987 0.224894 0
M  V30 3855 C 360.408 -2.02489 -0.41007 0
M  V30 3856 C 360.816 -1.10391 -1.53657 0
M  V30 3857 O 360.159 -0.106458 -1.83391 0
M  V30 3858 C 360.221 -3.45319 -0.999757 0
M  V30 3859 C 359.885 -4.56999 -0.00827976 0
M  V30 3860 C 360.882 -5.13812 0.793314 0
M  V30 3861 C 358.567 -5.02176 0.111442 0
M  V30 3862 C 360.561 -6.14276 1.7013 0
M  V30 3863 C 358.248 -6.02477 1.02296 0
M  V30 3864 C 359.246 -6.58403 1.81643 0
M  V30 3865 O 358.934 -7.56751 2.71262 0
M  V30 3866 H 358.666 -0.667915 -0.104235 0
M  V30 3867 H 361.22 -2.0257 0.339782 0
M  V30 3868 H 359.45 -3.42318 -1.79876 0
M  V30 3869 H 361.139 -3.7545 -1.54248 0
M  V30 3870 H 361.905 -4.79756 0.711288 0
M  V30 3871 H 357.784 -4.58323 -0.49605 0
M  V30 3872 H 361.328 -6.57854 2.32107 0
M  V30 3873 H 357.225 -6.35954 1.10599 0
M  V30 3874 H 357.993 -7.74286 2.65375 0
M  V30 3875 N 360.656 0.0484629 -1.57525 0
M  V30 3876 C 361.586 1.0549 -2.08313 0
M  V30 3877 C 362.567 1.38929 -0.981463 0
M  V30 3878 O 363.752 1.48151 -1.25558 0
M  V30 3879 C 360.882 2.36162 -2.54646 0
M  V30 3880 C 359.836 2.17016 -3.68901 0
M  V30 3881 C 359.162 3.53278 -4.01371 0
M  V30 3882 C 360.462 1.57219 -4.98076 0
M  V30 3883 H 362.156 0.632195 -2.92649 0
M  V30 3884 H 359.702 0.302654 -1.40784 0
M  V30 3885 H 361.655 3.06882 -2.88793 0
M  V30 3886 H 360.379 2.80456 -1.67368 0
M  V30 3887 H 359.038 1.48733 -3.35073 0
M  V30 3888 H 358.686 3.95185 -3.11188 0
M  V30 3889 H 358.386 3.41299 -4.78318 0
M  V30 3890 H 359.91 4.25391 -4.38035 0
M  V30 3891 H 361.324 2.17832 -5.30304 0
M  V30 3892 H 359.721 1.55871 -5.79503 0
M  V30 3893 H 360.791 0.535956 -4.81929 0
M  V30 3894 N 362.134 1.5431 0.320358 0
M  V30 3895 C 363.064 1.86912 1.3995 0
M  V30 3896 C 364.045 0.726211 1.53819 0
M  V30 3897 O 365.23 0.980233 1.67646 0
M  V30 3898 C 362.36 2.09932 2.7667 0
M  V30 3899 C 361.314 3.25776 2.77586 0
M  V30 3900 C 360.64 3.34173 4.17412 0
M  V30 3901 C 361.94 4.6335 2.41048 0
M  V30 3902 H 363.634 2.77292 1.12914 0
M  V30 3903 H 361.18 1.33421 0.541738 0
M  V30 3904 H 363.133 2.31324 3.52232 0
M  V30 3905 H 361.857 1.16304 3.0519 0
M  V30 3906 H 360.516 3.04276 2.04479 0
M  V30 3907 H 360.164 2.38098 4.43078 0
M  V30 3908 H 359.864 4.12033 4.18931 0
M  V30 3909 H 361.388 3.57803 4.94782 0
M  V30 3910 H 362.802 4.84602 3.06324 0
M  V30 3911 H 361.199 5.43782 2.53813 0
M  V30 3912 H 362.269 4.65381 1.36193 0
M  V30 3913 N 363.613 -0.582584 1.46437 0
M  V30 3914 C 364.89 -1.34276 1.4223 0
M  V30 3915 C 365.27 -2.10835 0.10583 0
M  V30 3916 O 364.618 -2.09485 -0.912596 0
M  V30 3917 C 364.828 -2.26865 2.65204 0
M  V30 3918 C 366.176 -2.88691 3.11356 0
M  V30 3919 O 367.2 -2.37178 2.65753 0
M  V30 3920 O 366.059 -3.82255 3.90568 0
M  V30 3921 H 363.153 -0.603326 0.565621 0
M  V30 3922 H 365.699 -0.603591 1.58603 0
M  V30 3923 H 364.471 -1.69724 3.52576 0
M  V30 3924 H 364.094 -3.08122 2.5129 0
M  V30 3925 N 365.091 -1.34144 -0.827227 0
M  V30 3926 C 366.507 -1.13732 -1.11969 0
M  V30 3927 C 366.707 0.0640463 -2.01398 0
M  V30 3928 O 365.763 0.740856 -2.41387 0
M  V30 3929 C 367.076 -2.43047 -1.77055 0
M  V30 3930 C 368.624 -2.49063 -1.89569 0
M  V30 3931 C 369.099 -3.78369 -2.58072 0
M  V30 3932 N 370.59 -3.79505 -2.65575 0
M  V30 3933 C 371.325 -4.76274 -3.19297 0
M  V30 3934 N 370.821 -5.83424 -3.73616 0
M  V30 3935 N 372.614 -4.63735 -3.17658 0
M  V30 3936 H 364.765 -2.11126 -0.232296 0
M  V30 3937 H 367.028 -0.933424 -0.165602 0
M  V30 3938 H 366.734 -3.31025 -1.18807 0
M  V30 3939 H 366.608 -2.56066 -2.76966 0
M  V30 3940 H 368.995 -1.61527 -2.46968 0
M  V30 3941 H 369.076 -2.39975 -0.885745 0
M  V30 3942 H 368.72 -4.66293 -2.01329 0
M  V30 3943 H 368.65 -3.84737 -3.59562 0
M  V30 3944 H 371.141 -3.02074 -2.27068 0
M  V30 3945 H 371.454 -6.53282 -4.12846 0
M  V30 3946 H 369.799 -5.87143 -3.71871 0
M  V30 3947 H 372.99 -3.79177 -2.74486 0
M  V30 3948 H 373.163 -5.39318 -3.59221 0
M  V30 3949 N 366.569 1.04691 -1.17803 0
M  V30 3950 C 367.517 2.14665 -0.895635 0
M  V30 3951 C 368.511 1.68806 0.141679 0
M  V30 3952 O 369.717 1.79999 -0.00587914 0
M  V30 3953 H 366.092 0.701038 -0.272121 0
M  V30 3954 H 368.063 2.35685 -1.83017 0
M  V30 3955 C 366.812 3.45019 -0.430962 0
M  V30 3956 H 366.135 3.8071 -1.22064 0
M  V30 3957 H 367.575 4.23125 -0.272301 0
M  V30 3958 C 366.034 3.25943 0.852207 0
M  V30 3959 O 366.564 3.5296 1.91786 0
M  V30 3960 N 364.77 2.79304 0.802346 0
M  V30 3961 H 364.317 2.57518 -0.0650788 0
M  V30 3962 H 364.275 2.66921 1.66134 0
M  V30 3963 N 368.047 0.979072 1.23499 0
M  V30 3964 C 368.977 0.537606 2.27227 0
M  V30 3965 C 369.958 -0.428539 1.64613 0
M  V30 3966 O 371.143 -0.322191 1.91509 0
M  V30 3967 C 368.273 -0.162052 3.46922 0
M  V30 3968 C 367.227 0.721242 4.21879 0
M  V30 3969 C 366.553 -0.110555 5.34586 0
M  V30 3970 C 367.853 2.01141 4.82016 0
M  V30 3971 H 369.547 1.40462 2.64406 0
M  V30 3972 H 367.093 0.67684 1.27102 0
M  V30 3973 H 369.046 -0.482192 4.18632 0
M  V30 3974 H 367.77 -1.06351 3.08799 0
M  V30 3975 H 366.429 1.02482 3.51984 0
M  V30 3976 H 366.077 -1.0125 4.92704 0
M  V30 3977 H 365.777 0.477325 5.85658 0
M  V30 3978 H 367.301 -0.425107 6.09118 0
M  V30 3979 H 368.715 1.75612 5.45741 0
M  V30 3980 H 367.112 2.54695 5.43369 0
M  V30 3981 H 368.182 2.69909 4.02836 0
M  V30 3982 N 369.525 -1.3858 0.750561 0
M  V30 3983 C 370.75 -2.04997 0.314812 0
M  V30 3984 C 371.175 -1.56235 -1.04749 0
M  V30 3985 O 370.533 -0.712981 -1.66692 0
M  V30 3986 C 370.581 -3.58961 0.343415 0
M  V30 3987 O 369.685 -4.07025 -0.663628 0
M  V30 3988 H 369.026 -0.649081 0.139962 0
M  V30 3989 H 371.556 -1.77313 1.02084 0
M  V30 3990 H 371.566 -4.07542 0.193233 0
M  V30 3991 H 370.241 -3.93811 1.33738 0
M  V30 3992 H 368.818 -3.6982 -0.478307 0
M  V30 3993 N 371.003 -0.499398 -1.49478 0
M  V30 3994 C 372.243 0.0440751 -2.04352 0
M  V30 3995 C 372.607 1.34423 -1.37093 0
M  V30 3996 O 373.808 1.97184 -1.82679 0
M  V30 3997 C 372.079 0.194918 -3.56868 0
M  V30 3998 S 373.638 0.69287 -4.33295 0
M  V30 3999 H 370.456 0.00253458 -0.710995 0
M  V30 4000 H 373.058 -0.673 -1.83551 0
M  V30 4001 H 371.762 -0.756672 -4.03364 0
M  V30 4002 H 371.293 0.93728 -3.82071 0
M  V30 4003 H 373.308 1.96226 -4.55752 0
M  V30 4004 N 372.481 1.55866 -0.233164 0
M  V30 4005 C 373.897 1.59133 0.121988 0
M  V30 4006 C 374.097 1.25016 1.58029 0
M  V30 4007 O 373.153 0.990922 2.32243 0
M  V30 4008 C 374.466 2.99932 -0.214792 0
M  V30 4009 C 376.014 3.12601 -0.157971 0
M  V30 4010 C 376.489 4.55597 -0.46859 0
M  V30 4011 N 377.98 4.61305 -0.418585 0
M  V30 4012 C 378.715 5.69903 -0.63227 0
M  V30 4013 N 378.211 6.86819 -0.90835 0
M  V30 4014 N 380.004 5.59264 -0.563913 0
M  V30 4015 H 372.155 1.76315 -1.18434 0
M  V30 4016 H 374.418 0.820093 -0.475553 0
M  V30 4017 H 374.124 3.29588 -1.22739 0
M  V30 4018 H 373.998 3.74327 0.464691 0
M  V30 4019 H 376.385 2.82735 0.845283 0
M  V30 4020 H 376.466 2.40511 -0.871102 0
M  V30 4021 H 376.11 4.86182 -1.46934 0
M  V30 4022 H 376.04 5.25928 0.265865 0
M  V30 4023 H 378.531 3.77297 -0.213368 0
M  V30 4024 H 378.844 7.65507 -1.05919 0
M  V30 4025 H 377.189 6.88536 -0.945673 0
M  V30 4026 H 380.38 4.66802 -0.348372 0
M  V30 4027 H 380.553 6.43831 -0.733847 0
M  V30 4028 N 373.959 -0.0401083 1.57549 0
M  V30 4029 C 375.205 -0.734211 1.89043 0
M  V30 4030 C 375.538 -1.75591 0.829535 0
M  V30 4031 O 374.813 -1.93868 -0.156706 0
M  V30 4032 C 375.096 -1.41374 3.31188 0
M  V30 4033 C 374.949 -0.406299 4.47961 0
M  V30 4034 C 376.268 -2.35061 3.72068 0
M  V30 4035 H 373.387 -0.265447 0.687537 0
M  V30 4036 H 376.029 0.00294087 1.9 0
M  V30 4037 H 374.179 -2.04206 3.30503 0
M  V30 4038 H 375.851 0.219255 4.60779 0
M  V30 4039 H 374.094 0.275485 4.32924 0
M  V30 4040 H 374.765 -0.920022 5.44279 0
M  V30 4041 H 377.241 -1.82282 3.74049 0
M  V30 4042 H 376.117 -2.79593 4.72355 0
M  V30 4043 H 376.378 -3.21258 3.0372 0
M  V30 4044 N 375.437 -1.54477 -0.31217 0
M  V30 4045 C 376.683 -1.73483 -1.0503 0
M  V30 4046 C 377.016 -0.513125 -1.87298 0
M  V30 4047 O 376.291 0.489864 -1.8823 0
M  V30 4048 C 376.574 -3.01723 -1.96558 0
M  V30 4049 C 376.427 -4.3417 -1.17545 0
M  V30 4050 C 377.746 -3.25772 -2.95907 0
M  V30 4051 H 374.865 -0.631222 -0.380432 0
M  V30 4052 H 377.507 -1.87184 -0.325932 0
M  V30 4053 H 375.657 -2.90174 -2.58324 0
M  V30 4054 H 377.329 -4.5762 -0.581513 0
M  V30 4055 H 375.572 -4.31159 -0.477925 0
M  V30 4056 H 376.243 -5.20143 -1.84811 0
M  V30 4057 H 378.719 -3.36857 -2.44267 0
M  V30 4058 H 377.595 -4.16838 -3.57123 0
M  V30 4059 H 377.856 -2.43537 -3.68974 0
M  V30 4060 N 376.915 0.57481 -1.46744 0
M  V30 4061 C 378.163 1.33009 -1.52161 0
M  V30 4062 C 378.484 1.94185 -0.178092 0
M  V30 4063 O 377.754 1.7899 0.796196 0
M  V30 4064 H 376.334 0.493873 -0.560445 0
M  V30 4065 H 378.996 0.672589 -1.82927 0
M  V30 4066 H 378.092 2.13273 -2.27862 0
M  V30 4067 N 378.394 1.34581 0.820102 0
M  V30 4068 C 379.64 1.27285 1.57881 0
M  V30 4069 C 379.973 -0.156137 1.93571 0
M  V30 4070 O 379.248 -1.10222 1.60254 0
M  V30 4071 C 379.531 2.16639 2.87645 0
M  V30 4072 C 379.384 3.68088 2.58517 0
M  V30 4073 C 380.703 2.05378 3.8924 0
M  V30 4074 H 377.822 0.463714 0.572833 0
M  V30 4075 H 380.464 1.64859 0.944539 0
M  V30 4076 H 378.614 1.84725 3.41773 0
M  V30 4077 H 380.286 4.10382 2.10676 0
M  V30 4078 H 378.529 3.89038 1.91917 0
M  V30 4079 H 379.2 4.2598 3.51063 0
M  V30 4080 H 381.676 2.33404 3.44473 0
M  V30 4081 H 380.552 2.7012 4.77835 0
M  V30 4082 H 380.813 1.0316 4.29896 0
M  V30 4083 N 379.872 -1.04064 1.18357 0
M  V30 4084 C 381.283 -1.58719 0.98312 0
M  V30 4085 C 381.634 -1.90556 -0.467193 0
M  V30 4086 O 380.759 -1.69561 -1.34454 0
M  V30 4087 C 381.354 -2.88379 1.77828 0
M  V30 4088 C 379.913 -3.3965 1.62218 0
M  V30 4089 C 379.06 -2.13235 1.77274 0
M  V30 4090 H 382.011 -0.867359 1.32901 0
M  V30 4091 H 382.032 -3.58773 1.26737 0
M  V30 4092 H 381.544 -2.65176 2.83379 0
M  V30 4093 H 379.645 -3.67866 0.592036 0
M  V30 4094 H 379.758 -4.13475 2.42023 0
M  V30 4095 H 378.122 -2.24542 1.20221 0
M  V30 4096 H 378.905 -1.92487 2.8426 0
M  V30 4097 N 381.35 -0.985608 -1.22978 0
M  V30 4098 C 382.58 -0.674603 -1.95276 0
M  V30 4099 C 382.988 0.763483 -1.73111 0
M  V30 4100 O 382.331 1.52601 -1.02268 0
M  V30 4101 C 382.393 -0.891597 -3.48268 0
M  V30 4102 C 382.057 -2.31275 -3.94158 0
M  V30 4103 C 383.054 -3.29179 -4.02415 0
M  V30 4104 C 380.739 -2.64524 -4.27004 0
M  V30 4105 C 382.733 -4.58407 -4.42879 0
M  V30 4106 C 380.42 -3.93974 -4.67149 0
M  V30 4107 C 381.418 -4.90727 -4.75053 0
M  V30 4108 O 381.106 -6.17865 -5.14294 0
M  V30 4109 H 380.838 -0.249251 -0.628371 0
M  V30 4110 H 383.392 -1.32106 -1.5728 0
M  V30 4111 H 381.622 -0.187962 -3.86243 0
M  V30 4112 H 383.311 -0.576957 -4.01779 0
M  V30 4113 H 384.077 -3.04823 -3.77237 0
M  V30 4114 H 379.956 -1.89923 -4.2006 0
M  V30 4115 H 383.5 -5.33926 -4.48964 0
M  V30 4116 H 379.397 -4.18122 -4.91777 0
M  V30 4117 H 380.165 -6.21694 -5.32389 0
M  V30 4118 N 382.828 1.3818 -0.7579 0
M  V30 4119 C 383.76 2.2901 -0.0932177 0
M  V30 4120 C 384.773 1.47958 0.679136 0
M  V30 4121 O 385.962 1.70773 0.519514 0
M  V30 4122 C 383.062 3.26953 0.89192 0
M  V30 4123 C 382.235 4.37045 0.176303 0
M  V30 4124 C 381.294 5.15148 1.07281 0
M  V30 4125 O 380.32 5.66616 0.541728 0
M  V30 4126 N 381.522 5.28542 2.40049 0
M  V30 4127 H 384.287 2.86694 -0.873303 0
M  V30 4128 H 381.848 1.50007 -0.609054 0
M  V30 4129 H 383.84 3.76083 1.49479 0
M  V30 4130 H 382.41 2.70136 1.57306 0
M  V30 4131 H 381.63 3.89493 -0.607328 0
M  V30 4132 H 382.918 5.07801 -0.318718 0
M  V30 4133 H 382.316 4.88285 2.85647 0
M  V30 4134 H 380.873 5.8103 2.95376 0
M  V30 4135 N 384.306 0.507319 1.49211 0
M  V30 4136 C 385.554 -0.0348839 2.0207 0
M  V30 4137 C 385.875 -1.36898 1.38866 0
M  V30 4138 O 385.145 -1.88133 0.546151 0
M  V30 4139 H 383.725 -0.0158812 0.746831 0
M  V30 4140 H 386.387 0.665998 1.83168 0
M  V30 4141 H 385.483 -0.159917 3.1169 0
M  V30 4142 N 385.784 -1.5574 0.241426 0
M  V30 4143 C 386.732 -2.22538 -0.676718 0
M  V30 4144 C 387.726 -1.21117 -1.18436 0
M  V30 4145 O 388.932 -1.39144 -1.14188 0
M  V30 4146 H 385.307 -0.713776 -0.236701 0
M  V30 4147 H 387.278 -2.98264 -0.0901187 0
M  V30 4148 C 386.027 -2.93439 -1.86518 0
M  V30 4149 H 385.35 -3.7125 -1.4837 0
M  V30 4150 H 386.79 -3.43549 -2.48495 0
M  V30 4151 C 385.249 -1.97008 -2.73294 0
M  V30 4152 O 385.779 -1.49965 -3.72657 0
M  V30 4153 N 383.985 -1.64227 -2.39745 0
M  V30 4154 H 383.532 -2.02677 -1.58996 0
M  V30 4155 H 383.49 -0.999708 -2.98083 0
M  V30 4156 N 387.262 0.0317525 -1.57568 0
M  V30 4157 C 388.225 1.01783 -2.0536 0
M  V30 4158 C 389.225 1.29203 -0.957253 0
M  V30 4159 O 390.415 1.24251 -1.22095 0
M  V30 4160 C 387.547 2.35137 -2.46827 0
M  V30 4161 H 388.74 0.605062 -2.93733 0
M  V30 4162 H 386.293 0.278514 -1.53799 0
M  V30 4163 H 387.028 2.81168 -1.61602 0
M  V30 4164 H 386.813 2.16566 -3.26866 0
M  V30 4165 H 388.303 3.05938 -2.84239 0
M  V30 4166 N 388.74 1.54641 0.303973 0
M  V30 4167 C 389.968 1.77768 1.05858 0
M  V30 4168 C 390.383 0.535722 1.8104 0
M  V30 4169 O 389.74 -0.494337 1.75677 0
M  V30 4170 C 389.791 2.9834 2.04146 0
M  V30 4171 O 389.512 4.17736 1.32015 0
M  V30 4172 C 391.013 3.33832 2.91669 0
M  V30 4173 H 388.233 0.592961 0.314067 0
M  V30 4174 H 390.777 2.01583 0.344149 0
M  V30 4175 H 388.932 2.76742 2.71096 0
M  V30 4176 H 389.346 4.85693 1.97998 0
M  V30 4177 H 390.82 4.21448 3.56491 0
M  V30 4178 H 391.297 2.51857 3.59812 0
M  V30 4179 H 391.903 3.57579 2.30254 0
M  V30 4180 N 390.218 -0.567019 1.47046 0
M  V30 4181 C 391.181 -1.65696 1.58359 0
M  V30 4182 C 392.181 -1.54097 0.459441 0
M  V30 4183 O 393.371 -1.58432 0.724225 0
M  V30 4184 C 390.503 -3.05197 1.51879 0
M  V30 4185 H 391.696 -1.57019 2.5551 0
M  V30 4186 H 389.249 -0.786148 1.3509 0
M  V30 4187 H 389.984 -3.19417 0.560673 0
M  V30 4188 H 389.769 -3.15025 2.33455 0
M  V30 4189 H 391.259 -3.84511 1.62913 0
M  V30 4190 N 391.696 -1.35014 -0.812953 0
M  V30 4191 C 392.626 -1.30069 -1.93919 0
M  V30 4192 C 393.607 -0.176275 -1.69184 0
M  V30 4193 O 394.792 -0.370227 -1.90638 0
M  V30 4194 C 391.922 -1.06547 -3.30552 0
M  V30 4195 C 390.876 -2.15561 -3.69753 0
M  V30 4196 C 390.202 -1.77214 -5.04479 0
M  V30 4197 C 391.502 -3.57476 -3.808 0
M  V30 4198 H 393.196 -2.24303 -1.98314 0
M  V30 4199 H 390.742 -1.07977 -0.952736 0
M  V30 4200 H 392.695 -1.01729 -4.08937 0
M  V30 4201 H 391.419 -0.0875719 -3.26483 0
M  V30 4202 H 390.078 -2.19466 -2.9365 0
M  V30 4203 H 389.726 -0.780589 -4.96906 0
M  V30 4204 H 389.426 -2.50184 -5.31678 0
M  V30 4205 H 390.95 -1.7391 -5.8531 0
M  V30 4206 H 392.364 -3.55929 -4.4943 0
M  V30 4207 H 390.761 -4.29152 -4.19462 0
M  V30 4208 H 391.831 -3.94091 -2.82525 0
M  V30 4209 N 393.175 1.03435 -1.18907 0
M  V30 4210 C 394.422 1.76743 -0.988334 0
M  V30 4211 C 394.75 1.88447 0.481441 0
M  V30 4212 O 394.005 1.39383 1.37371 0
M  V30 4213 C 394.304 3.19792 -1.59586 0
M  V30 4214 C 393.97 3.28108 -3.09283 0
M  V30 4215 C 392.632 3.30084 -3.5014 0
M  V30 4216 C 394.984 3.27696 -4.05296 0
M  V30 4217 C 392.312 3.29299 -4.85571 0
M  V30 4218 C 394.664 3.28451 -5.4065 0
M  V30 4219 C 393.328 3.28723 -5.80946 0
M  V30 4220 H 392.598 0.64675 -0.361657 0
M  V30 4221 H 395.245 1.21442 -1.48068 0
M  V30 4222 H 393.55 3.78136 -1.02568 0
M  V30 4223 H 395.247 3.75171 -1.41589 0
M  V30 4224 H 391.837 3.27294 -2.76725 0
M  V30 4225 H 396.021 3.25354 -3.74778 0
M  V30 4226 H 391.277 3.2783 -5.16079 0
M  V30 4227 H 395.451 3.27082 -6.14809 0
M  V30 4228 H 393.078 3.27868 -6.85862 0
M  V30 4229 N 394.653 0.992116 1.22453 0
M  V30 4230 C 395.902 0.662992 1.90492 0
M  V30 4231 C 396.215 -0.808407 1.78113 0
M  V30 4232 O 397.421 -1.24908 2.41061 0
M  V30 4233 C 395.877 1.1353 3.41524 0
M  V30 4234 C 395.485 2.63187 3.62542 0
M  V30 4235 C 397.229 0.880465 4.15269 0
M  V30 4236 C 395.136 3.04024 5.0727 0
M  V30 4237 H 394.066 0.244278 0.713333 0
M  V30 4238 H 396.717 1.20157 1.38688 0
M  V30 4239 H 395.099 0.52485 3.92506 0
M  V30 4240 H 396.273 3.2957 3.22056 0
M  V30 4241 H 394.588 2.86543 3.02129 0
M  V30 4242 H 397.185 1.16128 5.21937 0
M  V30 4243 H 397.528 -0.183408 4.15896 0
M  V30 4244 H 398.061 1.45307 3.70312 0
M  V30 4245 H 394.8 4.09584 5.11782 0
M  V30 4246 H 394.32 2.42343 5.48662 0
M  V30 4247 H 395.999 2.95282 5.75689 0
M  V30 4248 N 396.131 -1.37776 0.765217 0
M  V30 4249 C 397.061 -2.32945 0.160953 0
M  V30 4250 C 398.042 -1.55454 -0.690516 0
M  V30 4251 O 399.227 -1.83721 -0.629318 0
M  V30 4252 C 396.357 -3.39669 -0.724031 0
M  V30 4253 C 395.311 -4.27992 0.0256173 0
M  V30 4254 C 394.637 -5.25673 -0.978383 0
M  V30 4255 C 395.937 -5.08309 1.20082 0
M  V30 4256 H 397.631 -2.83728 0.955969 0
M  V30 4257 H 395.177 -1.36416 0.461149 0
M  V30 4258 H 397.13 -4.05219 -1.15652 0
M  V30 4259 H 395.854 -2.87396 -1.5515 0
M  V30 4260 H 394.513 -3.63964 0.438812 0
M  V30 4261 H 394.161 -4.69682 -1.80022 0
M  V30 4262 H 393.861 -5.85625 -0.481378 0
M  V30 4263 H 395.385 -5.94098 -1.40995 0
M  V30 4264 H 396.799 -5.67034 0.845307 0
M  V30 4265 H 395.196 -5.77554 1.62947 0
M  V30 4266 H 396.266 -4.41365 2.00811 0
M  V30 4267 N 397.609 -0.515225 -1.4894 0
M  V30 4268 C 399.02 -0.0710067 -1.86565 0
M  V30 4269 C 399.371 1.34733 -1.42623 0
M  V30 4270 O 398.496 2.00653 -0.810379 0
M  V30 4271 C 399.091 -0.122083 -3.3858 0
M  V30 4272 C 397.65 0.266863 -3.75453 0
M  V30 4273 C 396.797 -0.488376 -2.72966 0
M  V30 4274 H 399.748 -0.727266 -1.41055 0
M  V30 4275 H 399.769 0.669818 -3.74558 0
M  V30 4276 H 399.281 -1.15448 -3.70531 0
M  V30 4277 H 397.382 1.30196 -3.49113 0
M  V30 4278 H 397.495 -0.0624811 -4.79059 0
M  V30 4279 H 395.859 0.0635622 -2.54621 0
M  V30 4280 H 396.642 -1.52113 -3.07761 0
M  V30 4281 N 399.087 1.5561 -0.249682 0
M  V30 4282 C 400.312 2.03865 0.381305 0
M  V30 4283 C 400.737 1.12769 1.50548 0
M  V30 4284 O 400.095 0.121189 1.80895 0
M  V30 4285 C 400.143 3.50101 0.863816 0
M  V30 4286 O 399.247 3.62132 1.97318 0
M  V30 4287 H 398.588 0.658827 0.0827194 0
M  V30 4288 H 401.118 2.01105 -0.376552 0
M  V30 4289 H 401.128 3.90975 1.1663 0
M  V30 4290 H 399.803 4.1588 0.0411816 0
M  V30 4291 H 398.38 3.33155 1.67517 0
M  V30 4292 N 400.565 -0.0233959 1.57583 0
M  V30 4293 C 401.475 -1.03907 2.10334 0
M  V30 4294 C 402.491 -1.39257 1.04323 0
M  V30 4295 O 403.667 -1.48462 1.36091 0
M  V30 4296 C 400.732 -2.31938 2.57693 0
M  V30 4297 C 399.793 -2.03117 3.78209 0
M  V30 4298 C 399.026 -3.25043 4.233 0
M  V30 4299 O 399.249 -4.35916 3.67876 0
M  V30 4300 O 398.183 -3.10411 5.15683 0
M  V30 4301 H 402.009 -0.620748 2.97288 0
M  V30 4302 H 399.594 -0.240743 1.47448 0
M  V30 4303 H 401.476 -3.07196 2.88458 0
M  V30 4304 H 400.151 -2.73055 1.73847 0
M  V30 4305 H 399.058 -1.25408 3.52454 0
M  V30 4306 H 400.391 -1.66852 4.63056 0
M  V30 4307 N 402.043 -1.548 -0.295768 0
M  V30 4308 C 403.291 -1.73985 -1.02828 0
M  V30 4309 C 403.612 -0.531406 -1.87619 0
M  V30 4310 O 402.882 0.454221 -1.90561 0
M  V30 4311 H 401.462 -0.641556 -0.382642 0
M  V30 4312 H 404.124 -1.92163 -0.325489 0
M  V30 4313 H 403.22 -2.63129 -1.67838 0
M  V30 4314 N 403.521 0.559213 -1.47345 0
M  V30 4315 C 404.468 1.66645 -1.59682 0
M  V30 4316 C 405.438 1.60168 -0.43994 0
M  V30 4317 O 406.623 1.79031 -0.659736 0
M  V30 4318 C 403.763 3.04969 -1.61518 0
M  V30 4319 C 402.876 3.21897 -2.88108 0
M  V30 4320 C 402.011 4.50608 -2.81294 0
M  V30 4321 C 401.05 4.60961 -4.02717 0
M  V30 4322 N 400.187 5.81024 -3.94151 0
M  V30 4323 H 405.027 1.55439 -2.54249 0
M  V30 4324 H 402.564 0.757219 -1.26113 0
M  V30 4325 H 404.522 3.85064 -1.60566 0
M  V30 4326 H 403.152 3.15015 -0.704645 0
M  V30 4327 H 402.204 2.35248 -2.98936 0
M  V30 4328 H 403.516 3.25412 -3.78032 0
M  V30 4329 H 402.67 5.3896 -2.7858 0
M  V30 4330 H 401.409 4.49568 -1.89049 0
M  V30 4331 H 400.414 3.71021 -4.05738 0
M  V30 4332 H 401.639 4.63761 -4.96087 0
M  V30 4333 H 399.585 5.80938 -3.04708 0
M  V30 4334 H 399.502 5.85909 -4.77752 0
M  V30 4335 H 400.77 6.71744 -3.9545 0
M  V30 4336 N 404.999 1.35443 0.805782 0
M  V30 4337 C 405.932 1.22783 1.92353 0
M  V30 4338 C 406.91 0.115543 1.62189 0
M  V30 4339 O 408.094 0.283778 1.86352 0
M  V30 4340 C 405.221 0.890746 3.26777 0
M  V30 4341 C 404.267 2.01519 3.75889 0
M  V30 4342 S 405.1 3.63101 3.93596 0
M  V30 4343 C 406.256 3.31472 5.30921 0
M  V30 4344 H 406.489 2.17394 2.02798 0
M  V30 4345 H 404.022 1.20669 0.963245 0
M  V30 4346 H 405.98 0.703068 4.04434 0
M  V30 4347 H 404.641 -0.0373152 3.14078 0
M  V30 4348 H 403.834 1.7335 4.7325 0
M  V30 4349 H 403.436 2.16124 3.05231 0
M  V30 4350 H 405.728 2.8435 6.1494 0
M  V30 4351 H 406.671 4.28036 5.64084 0
M  V30 4352 H 407.079 2.67221 4.97246 0
M  V30 4353 N 406.477 -1.02803 1.19454 0
M  V30 4354 C 407.409 -2.11181 0.890807 0
M  V30 4355 C 408.422 -1.6238 -0.116829 0
M  V30 4356 O 409.611 -1.78144 0.112694 0
M  V30 4357 C 406.711 -3.37461 0.311942 0
M  V30 4358 C 405.884 -4.15446 1.36834 0
M  V30 4359 C 404.943 -5.20039 0.802864 0
M  V30 4360 O 403.969 -5.49602 1.48077 0
M  V30 4361 N 405.171 -5.79165 -0.393417 0
M  V30 4362 H 407.936 -2.37827 1.82369 0
M  V30 4363 H 405.497 -1.19101 1.09666 0
M  V30 4364 H 407.489 -4.0462 -0.0802225 0
M  V30 4365 H 406.059 -3.08156 -0.52524 0
M  V30 4366 H 405.279 -3.43423 1.93531 0
M  V30 4367 H 406.567 -4.64335 2.08015 0
M  V30 4368 H 405.965 -5.57466 -0.961658 0
M  V30 4369 H 404.522 -6.47729 -0.727351 0
M  V30 4370 N 407.956 -0.998596 -1.21925 0
M  V30 4371 C 408.888 -0.511879 -2.23411 0
M  V30 4372 C 409.901 0.396094 -1.57908 0
M  V30 4373 O 411.09 0.197316 -1.77406 0
M  V30 4374 C 408.19 0.276802 -3.37768 0
M  V30 4375 C 407.363 -0.628687 -4.32858 0
M  V30 4376 C 406.422 0.109272 -5.26087 0
M  V30 4377 O 405.448 -0.507237 -5.66935 0
M  V30 4378 N 406.65 1.38983 -5.63617 0
M  V30 4379 H 409.415 -1.38457 -2.658 0
M  V30 4380 H 406.976 -0.873981 -1.36283 0
M  V30 4381 H 408.968 0.77928 -3.97126 0
M  V30 4382 H 407.538 1.05063 -2.94415 0
M  V30 4383 H 406.758 -1.31175 -3.71735 0
M  V30 4384 H 408.046 -1.24514 -4.93329 0
M  V30 4385 H 407.444 1.91194 -5.32411 0
M  V30 4386 H 406.001 1.83739 -6.25367 0
M  V30 4387 N 409.434 1.37368 -0.772513 0
M  V30 4388 C 410.68 1.99969 -0.337681 0
M  V30 4389 C 411.013 1.61184 1.08321 0
M  V30 4390 O 410.288 0.858395 1.74533 0
M  V30 4391 C 410.571 3.56858 -0.482121 0
M  V30 4392 C 410.424 4.0555 -1.94549 0
M  V30 4393 C 411.743 4.39955 0.113143 0
M  V30 4394 H 408.862 0.726464 -0.124171 0
M  V30 4395 H 411.504 1.63034 -0.975699 0
M  V30 4396 H 409.654 3.88452 0.0610361 0
M  V30 4397 H 411.326 3.84518 -2.54841 0
M  V30 4398 H 409.569 3.57715 -2.45403 0
M  V30 4399 H 410.24 5.14587 -1.9976 0
M  V30 4400 H 412.716 4.14623 -0.35031 0
M  V30 4401 H 411.592 5.48897 -0.0180514 0
M  V30 4402 H 411.853 4.25403 1.20354 0
M  V30 4403 N 410.912 0.523116 1.48665 0
M  V30 4404 C 411.822 -0.247406 2.33292 0
M  V30 4405 C 412.838 -0.945769 1.46052 0
M  V30 4406 O 414.014 -0.922253 1.79043 0
M  V30 4407 C 411.079 -1.28487 3.22012 0
M  V30 4408 C 410.14 -0.597592 4.2512 0
M  V30 4409 C 409.373 -1.58563 5.09601 0
M  V30 4410 O 409.596 -2.81763 4.95949 0
M  V30 4411 O 408.53 -1.12879 5.91221 0
M  V30 4412 H 412.356 0.445869 3.00409 0
M  V30 4413 H 409.941 0.284128 1.46673 0
M  V30 4414 H 411.823 -1.88459 3.7691 0
M  V30 4415 H 410.498 -1.96068 2.57564 0
M  V30 4416 H 409.405 0.0424407 3.74076 0
M  V30 4417 H 410.738 0.0361517 4.92187 0
M  V30 4418 N 412.39 -1.55475 0.257931 0
M  V30 4419 C 413.338 -2.23244 -0.653076 0
M  V30 4420 C 414.332 -1.22366 -1.17144 0
M  V30 4421 O 415.538 -1.40347 -1.12706 0
M  V30 4422 H 411.913 -0.716247 -0.229117 0
M  V30 4423 H 413.884 -2.98343 -0.0584788 0
M  V30 4424 C 412.633 -2.95401 -1.83395 0
M  V30 4425 H 411.956 -3.72802 -1.44424 0
M  V30 4426 H 413.396 -3.46165 -2.44838 0
M  V30 4427 C 411.855 -1.99895 -2.71189 0
M  V30 4428 O 412.385 -1.53909 -3.71046 0
M  V30 4429 N 410.591 -1.6676 -2.3799 0
M  V30 4430 H 410.138 -2.04352 -1.56837 0
M  V30 4431 H 410.096 -1.03127 -2.97005 0
M  V30 4432 N 413.868 0.0150385 -1.57593 0
M  V30 4433 C 415.116 0.701613 -1.8953 0
M  V30 4434 C 415.437 1.75139 -0.857396 0
M  V30 4435 O 414.707 1.95607 0.107194 0
M  V30 4436 H 413.287 0.26213 -0.699498 0
M  V30 4437 H 415.949 -0.0223304 -1.94887 0
M  V30 4438 H 415.045 1.18236 -2.88837 0
M  V30 4439 N 415.346 1.54954 0.287554 0
M  V30 4440 C 416.276 1.89839 1.35954 0
M  V30 4441 C 417.257 0.758675 1.52244 0
M  V30 4442 O 418.442 1.01557 1.65529 0
M  V30 4443 C 415.572 2.15753 2.72154 0
M  V30 4444 C 414.526 3.3159 2.70614 0
M  V30 4445 C 413.852 3.42952 4.10229 0
M  V30 4446 C 415.152 4.68359 2.31165 0
M  V30 4447 H 416.846 2.79625 1.07007 0
M  V30 4448 H 414.392 1.3454 0.513316 0
M  V30 4449 H 416.345 2.38743 3.47246 0
M  V30 4450 H 415.069 1.22752 3.02654 0
M  V30 4451 H 413.728 3.08545 1.97979 0
M  V30 4452 H 413.376 2.47443 4.37928 0
M  V30 4453 H 413.076 4.20826 4.10097 0
M  V30 4454 H 414.6 3.68218 4.87081 0
M  V30 4455 H 416.014 4.9099 2.95976 0
M  V30 4456 H 414.411 5.49044 2.42221 0
M  V30 4457 H 415.481 4.68165 1.26291 0
M  V30 4458 N 416.824 -0.551391 1.4764 0
M  V30 4459 C 418.049 -1.33837 1.58437 0
M  V30 4460 C 418.474 -1.866 0.237063 0
M  V30 4461 O 417.832 -1.6328 -0.787994 0
M  V30 4462 C 417.88 -2.48014 2.61766 0
M  V30 4463 O 416.984 -3.50419 2.1744 0
M  V30 4464 H 416.325 -0.397299 0.532024 0
M  V30 4465 H 418.855 -0.665759 1.93465 0
M  V30 4466 H 418.865 -2.94503 2.82369 0
M  V30 4467 H 417.54 -2.08969 3.5959 0
M  V30 4468 H 416.117 -3.10196 2.06961 0
M  V30 4469 N 418.302 -1.35869 -0.798587 0
M  V30 4470 C 419.212 -1.31578 -1.94228 0
M  V30 4471 C 420.228 -0.21939 -1.72611 0
M  V30 4472 O 421.404 -0.450167 -1.96305 0
M  V30 4473 C 418.469 -1.09528 -3.28944 0
M  V30 4474 C 417.53 -2.28556 -3.63402 0
M  V30 4475 C 416.763 -2.07549 -4.9169 0
M  V30 4476 O 416.986 -1.046 -5.60727 0
M  V30 4477 O 415.92 -2.95106 -5.24591 0
M  V30 4478 H 419.746 -2.27847 -2.00796 0
M  V30 4479 H 417.331 -1.16322 -0.937526 0
M  V30 4480 H 419.213 -0.991127 -4.09579 0
M  V30 4481 H 417.888 -0.16315 -3.23289 0
M  V30 4482 H 416.795 -2.44538 -2.83112 0
M  V30 4483 H 418.128 -3.20244 -3.73771 0
M  V30 4484 N 419.78 1.02168 -1.19998 0
M  V30 4485 C 420.727 2.10601 -0.944228 0
M  V30 4486 C 421.697 1.65639 0.123664 0
M  V30 4487 O 422.882 1.9079 -0.0199941 0
M  V30 4488 C 420.022 3.41504 -0.496865 0
M  V30 4489 C 419.135 3.99973 -1.63234 0
M  V30 4490 C 418.27 5.18915 -1.13579 0
M  V30 4491 C 417.309 5.69456 -2.24468 0
M  V30 4492 N 416.446 6.79665 -1.76068 0
M  V30 4493 H 421.286 2.31814 -1.8726 0
M  V30 4494 H 418.823 1.13686 -0.933483 0
M  V30 4495 H 420.781 4.16626 -0.218843 0
M  V30 4496 H 419.411 3.2038 0.394508 0
M  V30 4497 H 418.463 3.21997 -2.0254 0
M  V30 4498 H 419.775 4.33492 -2.46752 0
M  V30 4499 H 418.929 6.01222 -0.813429 0
M  V30 4500 H 417.668 4.8695 -0.270434 0
M  V30 4501 H 416.673 4.85757 -2.57526 0
M  V30 4502 H 417.898 6.03459 -3.11472 0
M  V30 4503 H 415.844 6.49538 -0.918516 0
M  V30 4504 H 415.761 7.12349 -2.5317 0
M  V30 4505 H 417.029 7.65549 -1.46817 0
M  V30 4506 N 421.258 1.00505 1.21394 0
M  V30 4507 C 422.486 0.706609 1.9446 0
M  V30 4508 C 422.901 -0.73081 1.74082 0
M  V30 4509 O 422.258 -1.49446 1.04747 0
M  V30 4510 C 422.309 1.01824 3.46863 0
M  V30 4511 O 422.03 2.39919 3.66566 0
M  V30 4512 C 423.531 0.739216 4.37093 0
M  V30 4513 H 420.751 0.260394 0.618414 0
M  V30 4514 H 423.295 1.34311 1.54211 0
M  V30 4515 H 421.45 0.427343 3.85036 0
M  V30 4516 H 421.864 2.50784 4.6066 0
M  V30 4517 H 423.338 1.00744 5.42729 0
M  V30 4518 H 423.815 -0.326746 4.37983 0
M  V30 4519 H 424.421 1.31173 4.04566 0
M  V30 4520 N 422.737 -1.36956 0.779787 0
M  V30 4521 C 423.667 -2.32761 0.185651 0
M  V30 4522 C 424.648 -1.56177 -0.673989 0
M  V30 4523 O 425.833 -1.84378 -0.609797 0
M  V30 4524 C 422.963 -3.40418 -0.687964 0
M  V30 4525 C 421.917 -4.27941 0.0710102 0
M  V30 4526 C 421.243 -5.26681 -0.922573 0
M  V30 4527 C 422.543 -5.07006 1.25467 0
M  V30 4528 H 424.237 -2.82698 0.986008 0
M  V30 4529 H 421.783 -1.3592 0.475592 0
M  V30 4530 H 423.736 -4.06423 -1.11348 0
M  V30 4531 H 422.46 -2.89025 -1.52093 0
M  V30 4532 H 421.119 -3.63478 0.47739 0
M  V30 4533 H 420.767 -4.71565 -1.7503 0
M  V30 4534 H 420.467 -5.86103 -0.419237 0
M  V30 4535 H 421.991 -5.9556 -1.34686 0
M  V30 4536 H 423.405 -5.66105 0.905401 0
M  V30 4537 H 421.802 -5.75793 1.69063 0
M  V30 4538 H 422.872 -4.3921 2.05481 0
M  V30 4539 N 424.215 -0.530993 -1.48385 0
M  V30 4540 C 425.631 -0.188919 -1.58478 0
M  V30 4541 C 425.831 1.30786 -1.53288 0
M  V30 4542 O 424.887 2.08619 -1.42248 0
M  V30 4543 C 426.2 -0.792343 -2.90073 0
M  V30 4544 C 427.748 -0.76117 -3.03604 0
M  V30 4545 C 428.223 -1.34319 -4.37861 0
M  V30 4546 N 429.714 -1.3052 -4.44431 0
M  V30 4547 C 430.449 -1.72543 -5.46824 0
M  V30 4548 N 429.945 -2.22299 -6.56167 0
M  V30 4549 N 431.738 -1.63773 -5.37712 0
M  V30 4550 H 423.889 -1.50377 -1.50002 0
M  V30 4551 H 426.152 -0.625559 -0.712306 0
M  V30 4552 H 425.858 -1.84323 -2.99529 0
M  V30 4553 H 425.732 -0.270026 -3.76232 0
M  V30 4554 H 428.119 0.280957 -2.93759 0
M  V30 4555 H 428.2 -1.32097 -2.19053 0
M  V30 4556 H 427.844 -2.38425 -4.4846 0
M  V30 4557 H 427.774 -0.759064 -5.21101 0
M  V30 4558 H 430.265 -0.940973 -3.65997 0
M  V30 4559 H 430.578 -2.52356 -7.30436 0
M  V30 4560 H 428.923 -2.26293 -6.57127 0
M  V30 4561 H 432.114 -1.24698 -4.51185 0
M  V30 4562 H 432.287 -1.96844 -6.17379 0
M  V30 4563 N 425.693 1.55336 -0.266172 0
M  V30 4564 C 426.64 2.22172 0.625165 0
M  V30 4565 C 427.61 1.19211 1.15663 0
M  V30 4566 O 428.795 1.47723 1.20758 0
M  V30 4567 C 425.935 2.93972 1.8076 0
M  V30 4568 C 425.048 4.11632 1.31084 0
M  V30 4569 C 424.183 4.71099 2.45436 0
M  V30 4570 C 423.222 5.8097 1.92718 0
M  V30 4571 N 422.359 6.34538 3.00509 0
M  V30 4572 H 427.199 2.9796 0.0485582 0
M  V30 4573 H 424.736 1.47095 0.0122024 0
M  V30 4574 H 426.694 3.33811 2.50251 0
M  V30 4575 H 425.324 2.20623 2.35638 0
M  V30 4576 H 424.376 3.76975 0.509326 0
M  V30 4577 H 425.688 4.90893 0.884633 0
M  V30 4578 H 424.842 5.13612 3.22936 0
M  V30 4579 H 423.581 3.91096 2.91368 0
M  V30 4580 H 422.586 5.37916 1.13695 0
M  V30 4581 H 423.811 6.62836 1.47733 0
M  V30 4582 H 421.757 5.57433 3.45839 0
M  V30 4583 H 421.674 7.09046 2.62279 0
M  V30 4584 H 422.942 6.81709 3.78011 0
M  V30 4585 N 427.171 -0.0066808 1.57599 0
M  V30 4586 C 428.417 -0.68835 1.91398 0
M  V30 4587 C 428.772 -1.7175 0.86716 0
M  V30 4588 O 428.065 -1.91215 -0.121475 0
M  V30 4589 C 428.259 -1.37939 3.29708 0
M  V30 4590 C 428.088 -0.418689 4.47747 0
M  V30 4591 C 426.858 -0.031526 5.0529 0
M  V30 4592 C 429.056 0.312301 5.13351 0
M  V30 4593 N 427.038 0.928088 6.06844 0
M  V30 4594 C 428.409 1.12682 6.09674 0
M  V30 4595 C 430.464 0.376853 4.96472 0
M  V30 4596 C 429.167 2 6.90936 0
M  V30 4597 C 431.193 1.23723 5.78314 0
M  V30 4598 C 430.555 2.03962 6.74225 0
M  V30 4599 H 426.654 -0.225292 0.748844 0
M  V30 4600 H 429.238 0.0520973 1.9463 0
M  V30 4601 H 427.409 -2.09017 3.27363 0
M  V30 4602 H 429.141 -2.01522 3.50957 0
M  V30 4603 H 425.896 -0.398485 4.71921 0
M  V30 4604 H 426.32 1.40307 6.62301 0
M  V30 4605 H 430.962 -0.22921 4.22178 0
M  V30 4606 H 428.68 2.61676 7.64559 0
M  V30 4607 H 432.266 1.291 5.67296 0
M  V30 4608 H 431.146 2.69461 7.36451 0
M  V30 4609 N 428.649 -1.55105 -0.279332 0
M  V30 4610 C 429.579 -1.90557 -1.34945 0
M  V30 4611 C 430.56 -0.766738 -1.51839 0
M  V30 4612 O 431.745 -1.02434 -1.64988 0
M  V30 4613 C 428.875 -2.17193 -2.71006 0
M  V30 4614 C 427.829 -3.33021 -2.68851 0
M  V30 4615 C 427.155 -3.45123 -4.08405 0
M  V30 4616 C 428.455 -4.69578 -2.28678 0
M  V30 4617 H 430.149 -2.80188 -1.05522 0
M  V30 4618 H 427.695 -1.34811 -0.506173 0
M  V30 4619 H 429.648 -2.40581 -3.45975 0
M  V30 4620 H 428.372 -1.24355 -3.01999 0
M  V30 4621 H 427.031 -3.0959 -1.9634 0
M  V30 4622 H 426.679 -2.49762 -4.3661 0
M  V30 4623 H 426.379 -4.22995 -4.07859 0
M  V30 4624 H 427.903 -3.70796 -4.85121 0
M  V30 4625 H 429.317 -4.92553 -2.93368 0
M  V30 4626 H 427.714 -5.5032 -2.39306 0
M  V30 4627 H 428.784 -4.68828 -1.23807 0
M  V30 4628 N 430.127 0.543554 -1.4793 0
M  V30 4629 C 431.074 1.64942 -1.6144 0
M  V30 4630 C 432.044 1.59692 -0.456903 0
M  V30 4631 O 433.229 1.78321 -0.678688 0
M  V30 4632 C 430.369 3.03238 -1.64744 0
M  V30 4633 C 429.482 3.18823 -2.91506 0
M  V30 4634 C 428.617 4.47599 -2.86057 0
M  V30 4635 C 427.656 4.56664 -4.07584 0
M  V30 4636 N 426.793 5.76811 -4.00292 0
M  V30 4637 H 431.633 1.52733 -2.55884 0
M  V30 4638 H 429.17 0.7438 -1.2691 0
M  V30 4639 H 431.128 3.83339 -1.64641 0
M  V30 4640 H 429.758 3.1425 -0.738017 0
M  V30 4641 H 428.81 2.32064 -3.01414 0
M  V30 4642 H 430.122 3.21384 -3.81463 0
M  V30 4643 H 429.276 5.35975 -2.84281 0
M  V30 4644 H 428.015 4.47538 -1.93807 0
M  V30 4645 H 427.02 3.66697 -4.09651 0
M  V30 4646 H 428.245 4.58474 -5.00978 0
M  V30 4647 H 426.191 5.77673 -3.10853 0
M  V30 4648 H 426.108 5.80808 -4.8394 0
M  V30 4649 H 427.376 6.67512 -4.02553 0
M  V30 4650 N 431.605 1.3629 0.791371 0
M  V30 4651 C 432.538 1.24816 1.9104 0
M  V30 4652 C 433.516 0.132739 1.62057 0
M  V30 4653 O 434.7 0.303527 1.8604 0
M  V30 4654 C 431.827 0.925355 3.25814 0
M  V30 4655 C 430.873 2.05495 3.7373 0
M  V30 4656 S 431.706 3.67255 3.89723 0
M  V30 4657 C 432.862 3.37084 5.27376 0
M  V30 4658 H 433.095 2.19533 2.00481 0
M  V30 4659 H 430.628 1.21684 0.950393 0
M  V30 4660 H 432.586 0.745924 4.03666 0
M  V30 4661 H 431.247 -0.00400098 3.141 0
M  V30 4662 H 430.44 1.7836 4.71385 0
M  V30 4663 H 430.042 2.1935 3.02922 0
M  V30 4664 H 432.334 2.90856 6.1189 0
M  V30 4665 H 433.277 4.33995 5.59512 0
M  V30 4666 H 433.685 2.7248 4.94383 0
M  V30 4667 N 433.083 -1.0153 1.20538 0
M  V30 4668 C 434.33 -1.75149 1.01633 0
M  V30 4669 C 434.658 -1.89189 -0.451399 0
M  V30 4670 O 433.913 -1.41551 -1.35136 0
M  V30 4671 C 434.212 -3.17213 1.64654 0
M  V30 4672 C 433.878 -3.23146 3.14464 0
M  V30 4673 C 432.54 -3.24472 3.55347 0
M  V30 4674 C 434.892 -3.21207 4.10458 0
M  V30 4675 C 432.22 -3.21532 4.90748 0
M  V30 4676 C 434.572 -3.19808 5.45807 0
M  V30 4677 C 433.236 -3.19439 5.86102 0
M  V30 4678 H 432.506 -0.640914 0.3719 0
M  V30 4679 H 435.153 -1.19071 1.49981 0
M  V30 4680 H 433.458 -3.76457 1.08571 0
M  V30 4681 H 435.155 -3.72871 1.4754 0
M  V30 4682 H 431.745 -3.2285 2.81897 0
M  V30 4683 H 435.929 -3.19351 3.79906 0
M  V30 4684 H 431.185 -3.19578 5.21229 0
M  V30 4685 H 435.359 -3.1726 6.19935 0
M  V30 4686 H 432.986 -3.16915 6.90991 0
M  V30 4687 N 434.561 -1.01147 -1.20859 0
M  V30 4688 C 435.508 -0.577354 -2.23462 0
M  V30 4689 C 436.478 0.399922 -1.61214 0
M  V30 4690 O 437.663 0.300515 -1.88419 0
M  V30 4691 C 434.803 0.083372 -3.44999 0
M  V30 4692 C 433.916 -0.937856 -4.21697 0
M  V30 4693 C 433.051 -0.248717 -5.30617 0
M  V30 4694 C 432.09 -1.25705 -5.99053 0
M  V30 4695 N 431.227 -0.594939 -6.99575 0
M  V30 4696 H 436.067 -1.45695 -2.59956 0
M  V30 4697 H 433.604 -0.729428 -1.27741 0
M  V30 4698 H 435.562 0.483535 -4.14388 0
M  V30 4699 H 434.192 0.926645 -3.09214 0
M  V30 4700 H 433.244 -1.45622 -3.51423 0
M  V30 4701 H 434.556 -1.70493 -4.68757 0
M  V30 4702 H 433.71 0.207215 -6.06346 0
M  V30 4703 H 432.449 0.55071 -4.84581 0
M  V30 4704 H 431.454 -1.72343 -5.2209 0
M  V30 4705 H 432.679 -2.05767 -6.47176 0
M  V30 4706 H 430.625 0.184713 -6.5574 0
M  V30 4707 H 430.542 -1.30017 -7.44736 0
M  V30 4708 H 431.81 -0.162427 -7.79331 0
M  V30 4709 N 436.039 1.36541 -0.78704 0
M  V30 4710 C 436.986 2.30082 -0.181901 0
M  V30 4711 C 437.956 1.5186 0.672896 0
M  V30 4712 O 439.141 1.80374 0.622072 0
M  V30 4713 C 436.281 3.3835 0.679197 0
M  V30 4714 C 435.394 4.31565 -0.193882 0
M  V30 4715 C 434.529 5.26915 0.673364 0
M  V30 4716 C 433.568 6.11769 -0.201315 0
M  V30 4717 N 432.705 6.99315 0.624777 0
M  V30 4718 H 437.545 2.81248 -0.985064 0
M  V30 4719 H 435.082 1.38437 -0.497342 0
M  V30 4720 H 437.04 3.99767 1.19341 0
M  V30 4721 H 435.67 2.8851 1.44781 0
M  V30 4722 H 434.722 3.71323 -0.826044 0
M  V30 4723 H 436.034 4.91191 -0.867937 0
M  V30 4724 H 435.188 5.9361 1.25348 0
M  V30 4725 H 433.927 4.67737 1.38105 0
M  V30 4726 H 432.932 5.44039 -0.793849 0
M  V30 4727 H 434.157 6.73022 -0.906568 0
M  V30 4728 H 432.103 6.42648 1.3168 0
M  V30 4729 H 432.02 7.56 0.00835237 0
M  V30 4730 H 433.288 7.70382 1.18879 0
M  V30 4731 N 437.518 0.538854 1.48102 0
M  V30 4732 C 438.934 0.19732 1.58376 0
M  V30 4733 C 439.134 -1.29971 1.5398 0
M  V30 4734 O 438.19 -2.07861 1.43352 0
M  V30 4735 C 439.503 0.807716 2.89649 0
M  V30 4736 C 441.051 0.77726 3.03196 0
M  V30 4737 C 441.526 1.36639 4.37143 0
M  V30 4738 N 443.017 1.32875 4.43732 0
M  V30 4739 C 443.752 1.7544 5.45901 0
M  V30 4740 N 443.248 2.25776 6.54979 0
M  V30 4741 N 445.041 1.66623 5.36836 0
M  V30 4742 H 437.192 1.5117 1.49202 0
M  V30 4743 H 439.455 0.629327 0.708979 0
M  V30 4744 H 439.161 1.85909 2.98548 0
M  V30 4745 H 439.035 0.289975 3.76084 0
M  V30 4746 H 441.422 -0.265374 2.93904 0
M  V30 4747 H 441.503 1.33256 2.18349 0
M  V30 4748 H 441.147 2.408 4.47189 0
M  V30 4749 H 441.077 0.786689 5.20691 0
M  V30 4750 H 443.568 0.96037 3.65493 0
M  V30 4751 H 443.881 2.56226 7.29087 0
M  V30 4752 H 442.226 2.29775 6.55918 0
M  V30 4753 H 445.417 1.27089 4.50517 0
M  V30 4754 H 445.59 2.00115 6.16326 0
M  V30 4755 N 438.996 -1.55193 0.274407 0
M  V30 4756 C 439.928 -2.1989 -0.646595 0
M  V30 4757 C 440.941 -1.1834 -1.11801 0
M  V30 4758 O 442.13 -1.4507 -1.04004 0
M  V30 4759 C 439.23 -2.8104 -1.89393 0
M  V30 4760 C 438.403 -4.08274 -1.56943 0
M  V30 4761 C 437.462 -4.53478 -2.66916 0
M  V30 4762 O 436.488 -5.19267 -2.33132 0
M  V30 4763 N 437.69 -4.2356 -3.9696 0
M  V30 4764 H 440.455 -2.99556 -0.0928686 0
M  V30 4765 H 438.016 -1.61618 0.0954783 0
M  V30 4766 H 440.008 -3.08226 -2.62257 0
M  V30 4767 H 438.578 -2.05372 -2.35672 0
M  V30 4768 H 437.798 -3.88384 -0.674655 0
M  V30 4769 H 439.086 -4.91173 -1.32764 0
M  V30 4770 H 438.484 -3.70799 -4.27229 0
M  V30 4771 H 437.041 -4.55518 -4.66205 0
M  V30 4772 N 440.474 -0.00167713 -1.576 0
M  V30 4773 C 441.404 0.988091 -2.11563 0
M  V30 4774 C 442.385 1.35736 -1.02517 0
M  V30 4775 O 443.57 1.44082 -1.30208 0
M  V30 4776 C 440.7 2.27941 -2.62031 0
M  V30 4777 C 439.654 2.0517 -3.75619 0
M  V30 4778 C 438.98 3.4033 -4.12407 0
M  V30 4779 C 440.28 1.41294 -5.02825 0
M  V30 4780 H 441.974 0.538771 -2.94513 0
M  V30 4781 H 439.52 0.257712 -1.41675 0
M  V30 4782 H 441.473 2.97539 -2.9841 0
M  V30 4783 H 440.197 2.74989 -1.76205 0
M  V30 4784 H 438.856 1.37998 -3.39635 0
M  V30 4785 H 438.504 3.85085 -3.23603 0
M  V30 4786 H 438.204 3.25909 -4.88935 0
M  V30 4787 H 439.728 4.1124 -4.51347 0
M  V30 4788 H 441.142 2.00851 -5.36965 0
M  V30 4789 H 439.539 1.37356 -5.84169 0
M  V30 4790 H 440.609 0.382362 -4.8339 0
M  V30 4791 N 441.952 1.55251 0.271103 0
M  V30 4792 C 442.862 1.9136 1.35714 0
M  V30 4793 C 443.878 0.811075 1.5394 0
M  V30 4794 O 445.054 1.11031 1.6803 0
M  V30 4795 C 442.119 2.1798 2.69603 0
M  V30 4796 C 441.18 3.4153 2.60107 0
M  V30 4797 C 440.413 3.66871 3.8761 0
M  V30 4798 O 440.636 2.94689 4.8838 0
M  V30 4799 O 439.57 4.60405 3.87699 0
M  V30 4800 H 443.396 2.83815 1.08088 0
M  V30 4801 H 440.981 1.41821 0.469792 0
M  V30 4802 H 442.863 2.36518 3.48765 0
M  V30 4803 H 441.538 1.28708 2.97012 0
M  V30 4804 H 440.445 3.28325 1.79314 0
M  V30 4805 H 441.778 4.31027 2.37647 0
M  V30 4806 N 443.43 -0.535701 1.48216 0
M  V30 4807 C 444.36 -1.65014 1.65204 0
M  V30 4808 C 445.341 -1.62554 0.501011 0
M  V30 4809 O 446.526 -1.7984 0.732886 0
M  V30 4810 C 443.656 -3.03616 1.68626 0
M  V30 4811 C 442.61 -3.20932 2.83172 0
M  V30 4812 C 441.936 -4.60537 2.71679 0
M  V30 4813 C 443.236 -3.04249 4.24535 0
M  V30 4814 H 444.93 -1.51053 2.58502 0
M  V30 4815 H 442.476 -0.725262 1.24402 0
M  V30 4816 H 444.429 -3.81446 1.79099 0
M  V30 4817 H 443.153 -3.18587 0.719026 0
M  V30 4818 H 441.812 -2.45517 2.72244 0
M  V30 4819 H 441.46 -4.72336 1.72937 0
M  V30 4820 H 441.16 -4.73069 3.48538 0
M  V30 4821 H 442.684 -5.40475 2.84112 0
M  V30 4822 H 444.098 -3.71877 4.36326 0
M  V30 4823 H 442.495 -3.28278 5.02348 0
M  V30 4824 H 443.565 -2.00739 4.41397 0
M  V30 4825 N 444.908 -1.36708 -0.784132 0
M  V30 4826 C 446.138 -1.34203 -1.57077 0
M  V30 4827 C 446.546 0.0774945 -1.89041 0
M  V30 4828 O 445.889 1.04628 -1.50992 0
M  V30 4829 C 445.951 -2.10351 -2.91535 0
M  V30 4830 C 445.615 -3.59405 -2.82272 0
M  V30 4831 C 446.612 -4.53545 -2.54151 0
M  V30 4832 C 444.297 -4.02362 -3.00683 0
M  V30 4833 C 446.291 -5.8862 -2.44551 0
M  V30 4834 C 443.978 -5.37526 -2.90704 0
M  V30 4835 C 444.976 -6.30468 -2.62677 0
M  V30 4836 O 444.664 -7.63149 -2.52702 0
M  V30 4837 H 444.396 -0.461791 -0.493685 0
M  V30 4838 H 446.95 -1.80475 -0.980712 0
M  V30 4839 H 445.18 -1.5875 -3.52612 0
M  V30 4840 H 446.869 -2.00636 -3.52845 0
M  V30 4841 H 447.635 -4.21669 -2.39625 0
M  V30 4842 H 443.514 -3.30389 -3.21503 0
M  V30 4843 H 447.058 -6.61133 -2.22596 0
M  V30 4844 H 442.955 -5.69008 -3.04795 0
M  V30 4845 H 443.723 -7.73331 -2.68144 0
M  V30 4846 N 446.386 1.0089 -1.21074 0
M  V30 4847 C 447.316 2.1145 -0.990523 0
M  V30 4848 C 448.297 1.69897 0.0831699 0
M  V30 4849 O 449.482 1.94052 -0.0758853 0
M  V30 4850 C 446.612 3.42914 -0.550177 0
M  V30 4851 C 445.566 3.98244 -1.56799 0
M  V30 4852 C 444.892 5.25568 -0.984013 0
M  V30 4853 C 446.192 4.30752 -2.95381 0
M  V30 4854 H 447.886 2.3013 -1.91521 0
M  V30 4855 H 445.432 1.10592 -0.92225 0
M  V30 4856 H 447.385 4.19653 -0.383305 0
M  V30 4857 H 446.109 3.24014 0.41015 0
M  V30 4858 H 444.768 3.23621 -1.72236 0
M  V30 4859 H 444.416 5.02998 -0.0155216 0
M  V30 4860 H 444.116 5.63551 -1.66384 0
M  V30 4861 H 445.64 6.04955 -0.828378 0
M  V30 4862 H 447.054 4.98349 -2.8341 0
M  V30 4863 H 445.451 4.79869 -3.60341 0
M  V30 4864 H 446.521 3.39192 -3.46521 0
M  V30 4865 N 447.864 1.01787 1.20321 0
M  V30 4866 C 449.275 0.739307 1.71438 0
M  V30 4867 C 449.626 -0.742041 1.81627 0
M  V30 4868 O 448.751 -1.57903 1.47971 0
M  V30 4869 C 449.346 1.33538 3.11373 0
M  V30 4870 C 447.905 1.10566 3.59795 0
M  V30 4871 C 447.052 1.44028 2.36962 0
M  V30 4872 H 450.003 1.18718 1.05317 0
M  V30 4873 H 450.024 0.726611 3.73498 0
M  V30 4874 H 449.536 2.41352 3.03926 0
M  V30 4875 H 447.637 0.0452405 3.72573 0
M  V30 4876 H 447.75 1.78661 4.44542 0
M  V30 4877 H 446.114 0.85933 2.39766 0
M  V30 4878 H 446.897 2.52901 2.32155 0
M  V30 4879 N 449.342 -1.36122 0.79427 0
M  V30 4880 C 450.289 -2.29982 0.194101 0
M  V30 4881 C 451.259 -1.52214 -0.664833 0
M  V30 4882 O 452.444 -1.80702 -0.612498 0
M  V30 4883 C 449.584 -3.38706 -0.661244 0
M  V30 4884 C 448.697 -4.31456 0.216766 0
M  V30 4885 C 447.832 -5.27265 -0.645411 0
M  V30 4886 C 446.871 -6.11653 0.233756 0
M  V30 4887 N 446.008 -6.99636 -0.587682 0
M  V30 4888 H 450.848 -2.80722 0.999965 0
M  V30 4889 H 448.385 -1.38172 0.504677 0
M  V30 4890 H 450.343 -4.00394 -1.17219 0
M  V30 4891 H 448.973 -2.89274 -1.43249 0
M  V30 4892 H 448.025 -3.7088 0.845724 0
M  V30 4893 H 449.337 -4.90724 0.893973 0
M  V30 4894 H 448.491 -5.94266 -1.22198 0
M  V30 4895 H 447.23 -4.68463 -1.35623 0
M  V30 4896 H 446.235 -5.4361 0.82269 0
M  V30 4897 H 447.46 -6.72531 0.942247 0
M  V30 4898 H 445.406 -6.43337 -1.2827 0
M  V30 4899 H 445.323 -7.55993 0.0317402 0
M  V30 4900 H 446.591 -7.71001 -1.14792 0
M  V30 4901 N 450.82 -0.546701 -1.47814 0
M  V30 4902 C 452.067 -0.0187407 -2.02491 0
M  V30 4903 C 452.395 1.32685 -1.42215 0
M  V30 4904 O 451.65 1.87413 -0.563454 0
M  V30 4905 C 451.949 0.134869 -3.57145 0
M  V30 4906 C 451.615 -1.13849 -4.3629 0
M  V30 4907 C 450.277 -1.48743 -4.57634 0
M  V30 4908 C 452.629 -1.98277 -4.82012 0
M  V30 4909 C 449.957 -2.67932 -5.21948 0
M  V30 4910 C 452.309 -3.16659 -5.4764 0
M  V30 4911 C 450.973 -3.51879 -5.67219 0
M  V30 4912 H 450.243 -0.0068577 -0.740968 0
M  V30 4913 H 452.89 -0.716097 -1.77607 0
M  V30 4914 H 451.195 0.915118 -3.80963 0
M  V30 4915 H 452.892 0.558556 -3.97091 0
M  V30 4916 H 449.482 -0.856767 -4.19949 0
M  V30 4917 H 453.666 -1.72628 -4.6531 0
M  V30 4918 H 448.922 -2.95401 -5.35302 0
M  V30 4919 H 453.096 -3.82374 -5.82033 0
M  V30 4920 H 450.723 -4.44331 -6.16825 0
M  V30 4921 N 452.299 1.55045 -0.282633 0
M  V30 4922 C 453.524 2.04628 0.337977 0
M  V30 4923 C 453.949 1.15937 1.48123 0
M  V30 4924 O 453.307 0.159532 1.80597 0
M  V30 4925 C 453.355 3.51854 0.78936 0
M  V30 4926 O 452.459 3.66236 1.89592 0
M  V30 4927 H 451.8 0.660434 0.0687261 0
M  V30 4928 H 454.33 2.00261 -0.419124 0
M  V30 4929 H 454.34 3.93361 1.08311 0
M  V30 4930 H 453.015 4.15873 -0.0470419 0
M  V30 4931 H 451.592 3.36633 1.60413 0
M  V30 4932 N 453.777 0.010035 1.57597 0
M  V30 4933 C 455.026 -0.671945 1.90178 0
M  V30 4934 C 455.339 -1.74376 0.886131 0
M  V30 4935 O 456.545 -2.48107 1.10252 0
M  V30 4936 C 455.001 -1.24636 3.3763 0
M  V30 4937 C 454.609 -0.208838 4.47513 0
M  V30 4938 C 456.353 -1.90595 3.79307 0
M  V30 4939 C 454.26 -0.793814 5.86048 0
M  V30 4940 H 453.19 -0.25474 0.709665 0
M  V30 4941 H 455.841 0.0722206 1.83358 0
M  V30 4942 H 454.223 -2.04152 3.3932 0
M  V30 4943 H 455.397 0.562463 4.57354 0
M  V30 4944 H 453.712 0.350889 4.14919 0
M  V30 4945 H 456.309 -2.35284 4.80151 0
M  V30 4946 H 456.652 -2.74074 3.13352 0
M  V30 4947 H 457.185 -1.17798 3.79958 0
M  V30 4948 H 453.924 0.00240855 6.555 0
M  V30 4949 H 453.444 -1.53404 5.79851 0
M  V30 4950 H 455.123 -1.2894 6.34022 0
M  V30 4951 N 455.255 -1.55392 -0.262866 0
M  V30 4952 C 456.165 -1.92077 -1.34698 0
M  V30 4953 C 457.181 -0.819227 -1.53508 0
M  V30 4954 O 458.357 -1.11921 -1.67439 0
M  V30 4955 C 455.422 -2.19407 -2.68443 0
M  V30 4956 C 454.483 -3.42905 -2.58292 0
M  V30 4957 C 453.716 -3.68921 -3.85659 0
M  V30 4958 O 453.939 -2.97275 -4.8681 0
M  V30 4959 O 452.873 -4.62455 -3.85252 0
M  V30 4960 H 456.699 -2.84384 -1.06581 0
M  V30 4961 H 454.284 -1.42069 -0.462264 0
M  V30 4962 H 456.166 -2.38365 -3.47506 0
M  V30 4963 H 454.841 -1.30282 -2.96325 0
M  V30 4964 H 453.748 -3.29272 -1.7757 0
M  V30 4965 H 455.081 -4.32282 -2.35358 0
M  V30 4966 N 456.733 0.527833 -1.48498 0
M  V30 4967 C 457.981 1.28101 -1.56316 0
M  V30 4968 C 458.302 1.9352 -0.239781 0
M  V30 4969 O 457.572 1.81433 0.738849 0
M  V30 4970 H 456.152 0.475793 -0.575873 0
M  V30 4971 H 458.814 0.614052 -1.84974 0
M  V30 4972 H 457.91 2.05916 -2.34532 0
M  V30 4973 N 458.211 1.37122 0.776871 0
M  V30 4974 C 459.436 1.354 1.57104 0
M  V30 4975 C 459.861 -0.0595562 1.88006 0
M  V30 4976 O 459.219 -1.03514 1.48844 0
M  V30 4977 C 459.267 2.19472 2.8612 0
M  V30 4978 O 458.371 1.59582 3.80273 0
M  V30 4979 H 457.712 0.462869 0.476076 0
M  V30 4980 H 460.242 1.80577 0.961932 0
M  V30 4981 H 460.252 2.32502 3.35271 0
M  V30 4982 H 458.927 3.22222 2.62956 0
M  V30 4983 H 457.504 1.55564 3.38902 0
M  V30 4984 N 459.689 -1.00246 1.21608 0
M  V30 4985 C 460.919 -1.77373 1.05935 0
M  V30 4986 C 461.327 -1.85059 -0.393686 0
M  V30 4987 O 460.67 -1.31289 -1.28487 0
M  V30 4988 C 460.732 -3.22705 1.58435 0
M  V30 4989 C 460.396 -3.38591 3.06929 0
M  V30 4990 C 461.393 -3.2667 4.04454 0
M  V30 4991 C 459.078 -3.6395 3.46187 0
M  V30 4992 C 461.072 -3.39877 5.39224 0
M  V30 4993 C 458.759 -3.768 4.81108 0
M  V30 4994 C 459.757 -3.6477 5.77436 0
M  V30 4995 O 459.445 -3.77206 7.09909 0
M  V30 4996 H 459.177 -0.56419 0.372378 0
M  V30 4997 H 461.731 -1.26971 1.61454 0
M  V30 4998 H 459.961 -3.74255 0.973147 0
M  V30 4999 H 461.65 -3.81515 1.38568 0
M  V30 5000 H 462.416 -3.06999 3.75468 0
M  V30 5001 H 458.295 -3.72395 2.71741 0
M  V30 5002 H 461.839 -3.30404 6.14393 0
M  V30 5003 H 457.736 -3.95975 5.09779 0
M  V30 5004 H 458.504 -3.94138 7.17355 0
M  V30 5005 N 461.167 -1.02423 -1.1978 0
M  V30 5006 C 462.099 -0.559152 -2.22275 0
M  V30 5007 C 463.112 0.36251 -1.58713 0
M  V30 5008 O 464.301 0.159641 -1.77785 0
M  V30 5009 C 461.401 0.205094 -3.38279 0
M  V30 5010 C 460.574 -0.720361 -4.31427 0
M  V30 5011 C 459.633 -0.00234368 -5.262 0
M  V30 5012 O 458.659 -0.627378 -5.65732 0
M  V30 5013 N 459.861 1.26996 -5.66438 0
M  V30 5014 H 462.626 -1.44064 -2.62804 0
M  V30 5015 H 460.187 -0.902692 -1.34399 0
M  V30 5016 H 462.179 0.694868 -3.9869 0
M  V30 5017 H 460.749 0.987947 -2.96578 0
M  V30 5018 H 459.969 -1.39031 -3.68869 0
M  V30 5019 H 461.257 -1.3495 -4.90577 0
M  V30 5020 H 460.655 1.79858 -5.36347 0
M  V30 5021 H 459.212 1.70432 -6.29123 0
M  V30 5022 N 462.645 1.35699 -0.801477 0
M  V30 5023 C 463.575 2.32436 -0.222658 0
M  V30 5024 C 464.556 1.5723 0.649057 0
M  V30 5025 O 465.741 1.85324 0.580387 0
M  V30 5026 C 462.871 3.41469 0.633719 0
M  V30 5027 C 461.825 4.27774 -0.139083 0
M  V30 5028 C 461.151 5.28082 0.838666 0
M  V30 5029 C 462.451 5.04946 -1.33517 0
M  V30 5030 H 464.145 2.81094 -1.03086 0
M  V30 5031 H 461.691 1.35146 -0.497155 0
M  V30 5032 H 463.644 4.08143 1.04868 0
M  V30 5033 H 462.368 2.91408 1.47475 0
M  V30 5034 H 461.027 3.62673 -0.535156 0
M  V30 5035 H 460.675 4.7429 1.67506 0
M  V30 5036 H 460.375 5.86695 0.32594 0
M  V30 5037 H 461.899 5.97628 1.25194 0
M  V30 5038 H 463.313 5.64593 -0.995349 0
M  V30 5039 H 461.71 5.7303 -1.78202 0
M  V30 5040 H 462.78 4.35886 -2.12442 0
M  V30 5041 N 464.123 0.554532 1.47522 0
M  V30 5042 C 465.033 -0.197865 2.33764 0
M  V30 5043 C 466.049 -0.914576 1.48025 0
M  V30 5044 O 467.225 -0.884067 1.80959 0
M  V30 5045 C 464.29 -1.21628 3.24665 0
M  V30 5046 C 463.351 -0.507283 4.26292 0
M  V30 5047 C 462.584 -1.47718 5.1285 0
M  V30 5048 O 462.807 -2.7118 5.01814 0
M  V30 5049 O 461.741 -1.00313 5.93482 0
M  V30 5050 H 465.567 0.50949 2.99396 0
M  V30 5051 H 463.152 0.315176 1.46038 0
M  V30 5052 H 465.034 -1.80421 3.80823 0
M  V30 5053 H 463.709 -1.9056 2.61665 0
M  V30 5054 H 462.616 0.121778 3.73902 0
M  V30 5055 H 463.949 0.140544 4.91999 0
M  V30 5056 N 465.601 -1.54893 0.290851 0
M  V30 5057 C 466.548 -2.23138 -0.58974 0
M  V30 5058 C 467.518 -1.21036 -1.13752 0
M  V30 5059 O 468.703 -1.49626 -1.18392 0
M  V30 5060 C 465.843 -2.96811 -1.76061 0
M  V30 5061 C 464.956 -4.13665 -1.24519 0
M  V30 5062 C 464.091 -4.74944 -2.3791 0
M  V30 5063 C 463.13 -5.83963 -1.83451 0
M  V30 5064 N 462.267 -6.39239 -2.90376 0
M  V30 5065 H 467.107 -2.98 -0.00114915 0
M  V30 5066 H 464.644 -1.47096 0.0112006 0
M  V30 5067 H 466.602 -3.37751 -2.44909 0
M  V30 5068 H 465.232 -2.24344 -2.32098 0
M  V30 5069 H 464.284 -3.77737 -0.449288 0
M  V30 5070 H 465.596 -4.92238 -0.806424 0
M  V30 5071 H 464.75 -5.18684 -3.14724 0
M  V30 5072 H 463.489 -3.95682 -2.85109 0
M  V30 5073 H 462.494 -5.39657 -1.05122 0
M  V30 5074 H 463.719 -6.65103 -1.37169 0
M  V30 5075 H 461.665 -5.62864 -3.36927 0
M  V30 5076 H 461.582 -7.13129 -2.50965 0
M  V30 5077 H 462.85 -6.87637 -3.67118 0
M  V30 5078 N 467.08 -0.0183926 -1.57589 0
M  V30 5079 C 468.326 0.663543 -1.91638 0
M  V30 5080 C 468.659 1.72392 -0.894134 0
M  V30 5081 O 467.934 1.94316 0.0846449 0
M  V30 5082 C 468.217 1.28984 -3.36207 0
M  V30 5083 C 468.07 0.239761 -4.49161 0
M  V30 5084 C 469.389 2.2109 -3.80536 0
M  V30 5085 H 466.508 0.239746 -0.696915 0
M  V30 5086 H 469.15 -0.073456 -1.89858 0
M  V30 5087 H 467.3 1.91799 -3.37854 0
M  V30 5088 H 468.972 -0.390119 -4.59647 0
M  V30 5089 H 467.215 -0.435972 -4.31604 0
M  V30 5090 H 467.886 0.717383 -5.47319 0
M  V30 5091 H 470.362 1.68273 -3.80557 0
M  V30 5092 H 469.238 2.61869 -4.82406 0
M  V30 5093 H 469.499 3.09764 -3.15434 0
M  V30 5094 N 468.558 1.5553 0.254621 0
M  V30 5095 C 469.488 1.9268 1.31897 0
M  V30 5096 C 470.469 0.790797 1.506 0
M  V30 5097 O 471.654 1.05045 1.63337 0
M  V30 5098 C 468.784 2.21477 2.67517 0
M  V30 5099 C 467.738 3.37256 2.63519 0
M  V30 5100 C 467.064 3.51576 4.02862 0
M  V30 5101 C 468.364 4.73157 2.21179 0
M  V30 5102 H 470.058 2.81832 1.01051 0
M  V30 5103 H 467.604 1.35599 0.484662 0
M  V30 5104 H 469.557 2.46055 3.42104 0
M  V30 5105 H 468.281 1.29144 2.99982 0
M  V30 5106 H 466.94 3.12675 1.9139 0
M  V30 5107 H 466.588 2.56676 4.32581 0
M  V30 5108 H 466.288 4.2943 4.01078 0
M  V30 5109 H 467.812 3.78467 4.79161 0
M  V30 5110 H 469.226 4.97158 2.85494 0
M  V30 5111 H 467.623 5.54058 2.30521 0
M  V30 5112 H 468.693 4.70739 1.16332 0
M  V30 5113 N 470.036 -0.519951 1.48776 0
M  V30 5114 C 471.447 -1.10177 1.50725 0
M  V30 5115 C 471.798 -1.94153 0.282678 0
M  V30 5116 O 470.923 -2.07645 -0.609298 0
M  V30 5117 C 471.518 -2.00482 2.73116 0
M  V30 5118 C 470.077 -2.53862 2.77905 0
M  V30 5119 C 469.224 -1.31047 2.44381 0
M  V30 5120 H 472.175 -0.30473 1.55747 0
M  V30 5121 H 472.196 -2.8491 2.52203 0
M  V30 5122 H 471.708 -1.39335 3.62225 0
M  V30 5123 H 469.809 -3.18702 1.93029 0
M  V30 5124 H 469.922 -2.9231 3.79594 0
M  V30 5125 H 468.286 -1.62953 1.95751 0
M  V30 5126 H 469.069 -0.71637 3.35743 0
M  V30 5127 N 471.514 -1.37532 -0.769588 0
M  V30 5128 C 472.739 -1.36231 -1.56384 0
M  V30 5129 C 473.164 0.0495849 -1.88035 0
M  V30 5130 O 472.522 1.02723 -1.49391 0
M  V30 5131 C 472.57 -2.20986 -2.84952 0
M  V30 5132 O 471.674 -1.61597 -3.79421 0
M  V30 5133 H 471.015 -0.465387 -0.473615 0
M  V30 5134 H 473.545 -1.81085 -0.952342 0
M  V30 5135 H 473.555 -2.34277 -3.34034 0
M  V30 5136 H 472.23 -3.23612 -2.61243 0
M  V30 5137 H 470.807 -1.57359 -3.38072 0
M  V30 5138 N 472.992 0.995999 -1.22138 0
M  V30 5139 C 473.922 2.10387 -1.01289 0
M  V30 5140 C 474.903 1.69975 0.0651454 0
M  V30 5141 O 476.088 1.9396 -0.0964628 0
M  V30 5142 C 473.218 3.42312 -0.586517 0
M  V30 5143 C 472.172 3.96558 -1.61014 0
M  V30 5144 C 471.498 5.24494 -1.0397 0
M  V30 5145 C 472.798 4.27595 -2.99933 0
M  V30 5146 H 474.492 2.28086 -1.93951 0
M  V30 5147 H 472.038 1.09607 -0.933928 0
M  V30 5148 H 473.991 4.19223 -0.427793 0
M  V30 5149 H 472.715 3.24431 0.375761 0
M  V30 5150 H 471.374 3.21776 -1.75658 0
M  V30 5151 H 471.022 5.02953 -0.0688703 0
M  V30 5152 H 470.722 5.61755 -1.72352 0
M  V30 5153 H 472.246 6.04042 -0.892494 0
M  V30 5154 H 473.66 4.95315 -2.8868 0
M  V30 5155 H 472.057 4.76021 -3.6541 0
M  V30 5156 H 473.127 3.35498 -3.50099 0
M  V30 5157 N 474.47 1.03057 1.19235 0
M  V30 5158 C 475.718 0.726581 1.88587 0
M  V30 5159 C 476.039 -0.747227 1.80115 0
M  V30 5160 O 475.309 -1.53849 1.21274 0
M  V30 5161 H 473.889 0.265768 0.698124 0
M  V30 5162 H 476.551 1.30516 1.44746 0
M  V30 5163 H 475.647 1.0224 2.94879 0
M  V30 5164 N 475.948 -1.35272 0.808662 0
M  V30 5165 C 477.197 -1.97963 0.386483 0
M  V30 5166 C 477.51 -1.64866 -1.05255 0
M  V30 5167 O 478.716 -2.20937 -1.57794 0
M  V30 5168 C 477.172 -3.54162 0.640096 0
M  V30 5169 C 476.78 -3.96166 2.0918 0
M  V30 5170 C 478.524 -4.23553 0.283376 0
M  V30 5171 C 476.431 -5.4522 2.29106 0
M  V30 5172 H 475.361 -0.740742 0.140774 0
M  V30 5173 H 478.012 -1.5431 0.993012 0
M  V30 5174 H 476.394 -3.95983 -0.0364117 0
M  V30 5175 H 477.568 -3.65491 2.80629 0
M  V30 5176 H 475.883 -3.3967 2.40859 0
M  V30 5177 H 478.48 -5.33124 0.410273 0
M  V30 5178 H 478.823 -4.09105 -0.770659 0
M  V30 5179 H 479.356 -3.8716 0.913884 0
M  V30 5180 H 476.095 -5.64638 3.32962 0
M  V30 5181 H 475.615 -5.77457 1.62184 0
M  V30 5182 H 477.294 -6.1171 2.1076 0
M  V30 5183 N 477.426 -0.562348 -1.47226 0
M  V30 5184 C 478.651 -0.0432632 -2.07355 0
M  V30 5185 C 479.076 1.24332 -1.41149 0
M  V30 5186 O 478.434 1.74603 -0.488226 0
M  V30 5187 C 478.482 0.130288 -3.60365 0
M  V30 5188 O 477.586 1.19166 -3.94808 0
M  V30 5189 H 476.927 -0.0536334 -0.66183 0
M  V30 5190 H 479.457 -0.779495 -1.89169 0
M  V30 5191 H 479.467 0.342881 -4.06557 0
M  V30 5192 H 478.142 -0.809389 -4.07948 0
M  V30 5193 H 476.719 0.959153 -3.60354 0
M  V30 5194 N 478.904 1.54736 -0.299062 0
M  V30 5195 C 479.852 2.24897 0.593658 0
M  V30 5196 C 480.846 1.25429 1.13859 0
M  V30 5197 O 482.052 1.43286 1.08945 0
M  V30 5198 H 478.427 0.72207 0.210046 0
M  V30 5199 H 480.398 2.98393 -0.0206421 0
M  V30 5200 C 479.147 3.00159 1.75499 0
M  V30 5201 H 478.47 3.76501 1.34489 0
M  V30 5202 H 479.91 3.52535 2.35574 0
M  V30 5203 C 478.369 2.07015 2.65794 0
M  V30 5204 O 478.899 1.63692 3.66835 0
M  V30 5205 N 477.105 1.73012 2.33485 0
M  V30 5206 H 476.652 2.08439 1.51364 0
M  V30 5207 H 476.61 1.10965 2.94167 0
M  V30 5208 N 480.382 0.0267497 1.57577 0
M  V30 5209 C 481.628 -0.653371 1.91987 0
M  V30 5210 C 481.961 -1.71915 0.903263 0
M  V30 5211 O 481.236 -1.94358 -0.0743387 0
M  V30 5212 C 481.519 -1.272 3.36886 0
M  V30 5213 C 481.372 -0.215938 4.49281 0
M  V30 5214 C 482.691 -2.19069 3.81703 0
M  V30 5215 H 479.81 -0.236047 0.698177 0
M  V30 5216 H 482.452 0.0835236 1.89816 0
M  V30 5217 H 480.602 -1.90005 3.38866 0
M  V30 5218 H 482.274 0.41449 4.59434 0
M  V30 5219 H 480.517 0.458855 4.31366 0
M  V30 5220 H 481.188 -0.688347 5.47691 0
M  V30 5221 H 483.664 -1.66253 3.81444 0
M  V30 5222 H 482.54 -2.59307 4.83788 0
M  V30 5223 H 482.801 -3.08087 3.17072 0
M  V30 5224 N 481.861 -1.55662 -0.24637 0
M  V30 5225 C 483.108 -1.77519 -0.974335 0
M  V30 5226 C 483.436 -0.591165 -1.85298 0
M  V30 5227 O 482.691 0.425497 -1.91018 0
M  V30 5228 C 482.99 -3.04885 -1.86494 0
M  V30 5229 C 482.656 -4.36209 -1.14161 0
M  V30 5230 C 481.318 -4.71896 -0.941701 0
M  V30 5231 C 483.67 -5.17391 -0.628957 0
M  V30 5232 C 480.998 -5.86299 -0.216852 0
M  V30 5233 C 483.35 -6.32546 0.0824273 0
M  V30 5234 C 482.014 -6.66853 0.293807 0
M  V30 5235 H 481.284 -0.649588 -0.356535 0
M  V30 5236 H 483.931 -1.89934 -0.244394 0
M  V30 5237 H 482.236 -2.87484 -2.66196 0
M  V30 5238 H 483.933 -3.18994 -2.42989 0
M  V30 5239 H 480.523 -4.08174 -1.30736 0
M  V30 5240 H 484.707 -4.90276 -0.770943 0
M  V30 5241 H 479.963 -6.11385 -0.0426124 0
M  V30 5242 H 484.137 -6.94693 0.487292 0
M  V30 5243 H 481.764 -7.55349 0.857428 0
M  V30 5244 N 483.339 0.512053 -1.4905 0
M  V30 5245 C 484.567 1.29116 -1.61669 0
M  V30 5246 C 484.982 1.86655 -0.283787 0
M  V30 5247 O 484.339 1.67293 0.729331 0
M  V30 5248 C 484.39 2.4293 -2.67707 0
M  V30 5249 O 484.111 1.87758 -3.95826 0
M  V30 5250 C 485.612 3.34476 -2.90931 0
M  V30 5251 H 482.832 0.392009 -0.544583 0
M  V30 5252 H 485.376 0.615881 -1.95006 0
M  V30 5253 H 483.531 3.06308 -2.37179 0
M  V30 5254 H 483.945 2.62393 -4.54148 0
M  V30 5255 H 485.419 4.10642 -3.68886 0
M  V30 5256 H 485.896 3.90801 -2.00427 0
M  V30 5257 H 486.502 2.76874 -3.22832 0
M  V30 5258 N 484.817 1.37938 0.762283 0
M  V30 5259 C 486.042 1.37059 1.55659 0
M  V30 5260 C 486.467 -0.0396123 1.88058 0
M  V30 5261 O 485.825 -1.01929 1.49934 0
M  V30 5262 C 485.873 2.22494 2.83776 0
M  V30 5263 O 484.977 1.63607 3.78559 0
M  V30 5264 H 484.318 0.467892 0.47114 0
M  V30 5265 H 486.848 1.81587 0.942725 0
M  V30 5266 H 486.858 2.36045 3.32786 0
M  V30 5267 H 485.533 3.24993 2.59524 0
M  V30 5268 H 484.11 1.5915 3.37233 0
M  V30 5269 N 486.295 -0.989507 1.22664 0
M  V30 5270 C 487.245 -2.06478 0.967005 0
M  V30 5271 C 488.229 -1.60682 -0.0836374 0
M  V30 5272 O 489.421 -1.76541 0.127322 0
M  V30 5273 C 486.55 -3.38861 0.550313 0
M  V30 5274 C 485.636 -3.9128 1.63587 0
M  V30 5275 N 486.027 -4.16884 2.86429 0
M  V30 5276 C 484.325 -4.1972 1.50834 0
M  V30 5277 C 485.026 -4.5954 3.56648 0
M  V30 5278 N 484.002 -4.63434 2.84131 0
M  V30 5279 H 487.804 -2.24219 1.90008 0
M  V30 5280 H 485.318 -1.17153 1.12467 0
M  V30 5281 H 487.315 -4.15465 0.345612 0
M  V30 5282 H 485.975 -3.22518 -0.375822 0
M  V30 5283 H 486.986 -4.04976 3.22823 0
M  V30 5284 H 483.663 -4.1243 0.648643 0
M  V30 5285 H 485.053 -4.87944 4.61909 0
M  V30 5286 N 487.773 -1.03688 -1.18687 0
M  V30 5287 C 488.736 -0.629115 -2.20397 0
M  V30 5288 C 489.736 0.311495 -1.57754 0
M  V30 5289 O 490.926 0.0974107 -1.73927 0
M  V30 5290 C 488.058 0.0782231 -3.4081 0
M  V30 5291 H 489.251 -1.52915 -2.57987 0
M  V30 5292 H 486.804 -0.828988 -1.32505 0
M  V30 5293 H 487.539 0.992233 -3.08748 0
M  V30 5294 H 487.324 -0.597776 -3.87517 0
M  V30 5295 H 488.814 0.350156 -4.16129 0
M  V30 5296 N 489.251 1.34841 -0.815825 0
M  V30 5297 C 490.528 1.92908 -0.323416 0
M  V30 5298 C 490.908 1.74479 1.18828 0
M  V30 5299 O 490.256 1.11928 1.99209 0
M  V30 5300 C 490.466 3.40957 -0.744952 0
M  V30 5301 C 491.814 4.18107 -0.739716 0
M  V30 5302 O 492.838 3.49511 -0.68708 0
M  V30 5303 O 491.697 5.40517 -0.806456 0
M  V30 5304 H 488.791 0.822436 -0.0867646 0
M  V30 5305 H 491.337 1.4386 -0.90014 0
M  V30 5306 H 490.109 3.4814 -1.78646 0
M  V30 5307 H 489.732 3.97341 -0.143535 0
M  V30 5308 N 490.729 0.570148 1.46925 0
M  V30 5309 C 491.659 -0.158274 2.32963 0
M  V30 5310 C 492.64 -0.896093 1.44583 0
M  V30 5311 O 493.825 -0.874022 1.7342 0
M  V30 5312 C 490.955 -1.18055 3.26619 0
M  V30 5313 C 489.909 -0.558379 4.24342 0
M  V30 5314 C 489.235 -1.68623 5.07415 0
M  V30 5315 C 490.535 0.496295 5.19937 0
M  V30 5316 H 492.229 0.560046 2.94115 0
M  V30 5317 H 489.775 0.270775 1.41431 0
M  V30 5318 H 491.728 -1.69841 3.85658 0
M  V30 5319 H 490.452 -1.92899 2.63548 0
M  V30 5320 H 489.111 -0.0617157 3.66548 0
M  V30 5321 H 488.759 -2.42402 4.40738 0
M  V30 5322 H 488.459 -1.27564 5.73586 0
M  V30 5323 H 489.983 -2.20709 5.69315 0
M  V30 5324 H 491.397 0.0640052 5.73264 0
M  V30 5325 H 489.794 0.82649 5.94381 0
M  V30 5326 H 490.864 1.38735 4.6463 0
M  V30 5327 N 492.207 -1.54576 0.307264 0
M  V30 5328 C 493.432 -2.05139 -0.305379 0
M  V30 5329 C 493.857 -1.18278 -1.46259 0
M  V30 5330 O 493.215 -0.188243 -1.8032 0
M  V30 5331 C 493.263 -3.53066 -0.733283 0
M  V30 5332 O 492.367 -3.69206 -1.83741 0
M  V30 5333 H 491.708 -0.661444 -0.0582105 0
M  V30 5334 H 494.238 -1.99569 0.450931 0
M  V30 5335 H 494.248 -3.95034 -1.02039 0
M  V30 5336 H 492.923 -4.15746 0.113198 0
M  V30 5337 H 491.5 -3.39143 -1.55037 0
M  V30 5338 N 493.685 -0.035106 -1.57561 0
M  V30 5339 C 494.933 0.64096 -1.91667 0
M  V30 5340 C 495.254 1.72323 -0.912681 0
M  V30 5341 O 494.524 1.95849 0.0449089 0
M  V30 5342 H 493.104 0.239743 -0.707483 0
M  V30 5343 H 495.766 -0.084321 -1.94718 0
M  V30 5344 H 494.862 1.08987 -2.92452 0
M  V30 5345 N 495.163 1.55791 0.238111 0
M  V30 5346 C 496.412 1.77234 0.962868 0
M  V30 5347 C 496.725 0.600661 1.86149 0
M  V30 5348 O 497.931 0.698315 2.62366 0
M  V30 5349 C 496.387 3.13808 1.76218 0
M  V30 5350 C 495.995 4.3865 0.910518 0
M  V30 5351 C 497.739 3.44585 2.47914 0
M  V30 5352 C 495.646 5.66252 1.70623 0
M  V30 5353 H 494.576 0.660731 0.36325 0
M  V30 5354 H 497.227 1.8221 0.217242 0
M  V30 5355 H 495.609 3.02963 2.55009 0
M  V30 5356 H 496.783 4.60507 0.164316 0
M  V30 5357 H 495.098 4.15271 0.30647 0
M  V30 5358 H 497.695 4.3714 3.07917 0
M  V30 5359 H 498.038 2.66314 3.19973 0
M  V30 5360 H 498.571 3.56685 1.76127 0
M  V30 5361 H 495.31 6.47369 1.02923 0
M  V30 5362 H 494.83 5.48483 2.42748 0
M  V30 5363 H 496.509 6.05829 2.27114 0
M  V30 5364 N 496.642 -0.504142 1.49319 0
M  V30 5365 C 497.867 -1.28729 1.62615 0
M  V30 5366 C 498.292 -1.85752 0.296309 0
M  V30 5367 O 497.65 -1.65704 -0.735649 0
M  V30 5368 C 497.698 -2.39561 2.69524 0
M  V30 5369 O 496.802 -3.43324 2.28478 0
M  V30 5370 H 496.143 -0.380172 0.544395 0
M  V30 5371 H 498.673 -0.603872 1.95485 0
M  V30 5372 H 498.683 -2.8537 2.91595 0
M  V30 5373 H 497.358 -1.97423 3.66056 0
M  V30 5374 H 495.935 -3.03455 2.16725 0
M  V30 5375 N 498.12 -1.38341 -0.754957 0
M  V30 5376 C 499.068 -1.35573 -1.89005 0
M  V30 5377 C 500.062 -0.241824 -1.67665 0
M  V30 5378 O 501.268 -0.410785 -1.7525 0
M  V30 5379 H 497.643 -0.422898 -0.621821 0
M  V30 5380 H 499.614 -2.31359 -1.88455 0
M  V30 5381 C 498.363 -1.19631 -3.26471 0
M  V30 5382 H 497.686 -2.04605 -3.43477 0
M  V30 5383 H 499.126 -1.21748 -4.06144 0
M  V30 5384 C 497.585 0.0968705 -3.36761 0
M  V30 5385 O 498.115 1.07439 -3.87066 0
M  V30 5386 N 496.321 0.153242 -2.90196 0
M  V30 5387 H 495.868 -0.642908 -2.49448 0
M  V30 5388 H 495.826 1.01807 -2.9746 0
M  V30 5389 N 499.598 0.982988 -1.23187 0
M  V30 5390 C 500.548 2.05962 -0.977942 0
M  V30 5391 C 501.532 1.60725 0.0751148 0
M  V30 5392 O 502.724 1.76471 -0.136683 0
M  V30 5393 C 499.853 3.38564 -0.568276 0
M  V30 5394 C 498.939 3.90407 -1.6566 0
M  V30 5395 N 499.33 4.15359 -2.88635 0
M  V30 5396 C 497.628 4.18915 -1.53058 0
M  V30 5397 C 498.329 4.57642 -3.5908 0
M  V30 5398 N 497.305 4.6192 -2.86584 0
M  V30 5399 H 501.107 2.23208 -1.91195 0
M  V30 5400 H 498.621 1.16555 -1.13087 0
M  V30 5401 H 500.618 4.15276 -0.36764 0
M  V30 5402 H 499.278 3.22712 0.358713 0
M  V30 5403 H 500.289 4.03258 -3.24966 0
M  V30 5404 H 496.966 4.12081 -0.670506 0
M  V30 5405 H 498.356 4.85488 -4.6449 0
M  V30 5406 N 501.076 1.04316 1.18135 0
M  V30 5407 C 502.301 0.768047 1.92655 0
M  V30 5408 C 502.726 -0.66904 1.758 0
M  V30 5409 O 502.084 -1.46372 1.06981 0
M  V30 5410 C 502.132 1.14239 3.42026 0
M  V30 5411 O 501.236 0.269333 4.1152 0
M  V30 5412 H 500.577 0.282436 0.600937 0
M  V30 5413 H 503.107 1.39367 1.49793 0
M  V30 5414 H 503.117 1.10538 3.92741 0
M  V30 5415 H 501.792 2.18928 3.53615 0
M  V30 5416 H 500.369 0.366175 3.71098 0
M  V30 5417 N 502.554 -1.34406 0.822964 0
M  V30 5418 C 503.502 -2.31428 0.233165 0
M  V30 5419 C 504.496 -1.57404 -0.626118 0
M  V30 5420 O 505.702 -1.72402 -0.517453 0
M  V30 5421 H 502.077 -0.749863 0.0566557 0
M  V30 5422 H 504.048 -2.78699 1.06628 0
M  V30 5423 C 502.797 -3.42653 -0.590264 0
M  V30 5424 H 502.12 -3.99753 0.0616129 0
M  V30 5425 H 503.56 -4.12778 -0.969054 0
M  V30 5426 C 502.019 -2.87112 -1.76262 0
M  V30 5427 O 502.549 -2.81995 -2.8608 0
M  V30 5428 N 500.755 -2.43934 -1.57938 0
M  V30 5429 H 500.302 -2.48296 -0.686078 0
M  V30 5430 H 500.26 -2.07123 -2.36532 0
M  V30 5431 N 504.032 -0.577932 -1.46621 0
M  V30 5432 C 505.281 -0.0594281 -2.01612 0
M  V30 5433 C 505.594 1.30663 -1.45556 0
M  V30 5434 O 506.8 1.91621 -1.92337 0
M  V30 5435 C 505.256 -0.0556666 -3.59857 0
M  V30 5436 C 504.864 -1.41975 -4.24908 0
M  V30 5437 C 506.608 0.409143 -4.22524 0
M  V30 5438 C 504.515 -1.37397 -5.75218 0
M  V30 5439 H 503.445 -0.0184469 -0.753774 0
M  V30 5440 H 506.096 -0.728869 -1.68404 0
M  V30 5441 H 504.478 0.679843 -3.90121 0
M  V30 5442 H 505.652 -2.17461 -4.0626 0
M  V30 5443 H 503.967 -1.82419 -3.74316 0
M  V30 5444 H 506.564 0.46211 -5.32699 0
M  V30 5445 H 506.907 1.42565 -3.91128 0
M  V30 5446 H 507.44 -0.272152 -3.96868 0
M  V30 5447 H 504.179 -2.36714 -6.11267 0
M  V30 5448 H 503.699 -0.661239 -5.96144 0
M  V30 5449 H 505.378 -1.08484 -6.3784 0
M  V30 5450 N 505.51 1.54411 -0.315457 0
M  V30 5451 C 506.442 2.21527 0.588067 0
M  V30 5452 C 507.455 1.21263 1.08624 0
M  V30 5453 O 508.644 1.47777 1.00121 0
M  V30 5454 C 505.744 2.85963 1.81875 0
M  V30 5455 C 504.917 4.12291 1.46063 0
M  V30 5456 C 503.976 4.60396 2.54799 0
M  V30 5457 O 503.002 5.25265 2.19283 0
M  V30 5458 N 504.204 4.33935 3.85591 0
M  V30 5459 H 506.969 2.99697 0.013414 0
M  V30 5460 H 504.53 1.61308 -0.138295 0
M  V30 5461 H 506.522 3.15071 2.53993 0
M  V30 5462 H 505.092 2.11548 2.30144 0
M  V30 5463 H 504.312 3.90036 0.571445 0
M  V30 5464 H 505.6 4.9452 1.19695 0
M  V30 5465 H 504.998 3.81996 4.17248 0
M  V30 5466 H 503.555 4.67718 4.53964 0
M  V30 5467 N 506.988 0.0434614 1.5754 0
M  V30 5468 C 508.234 -0.632971 1.92669 0
M  V30 5469 C 508.567 -1.70947 0.921446 0
M  V30 5470 O 507.842 -1.94426 -0.0537202 0
M  V30 5471 C 508.125 -1.23619 3.38216 0
M  V30 5472 C 507.978 -0.168274 4.49485 0
M  V30 5473 C 509.297 -2.15008 3.84005 0
M  V30 5474 H 506.416 -0.228629 0.700641 0
M  V30 5475 H 509.058 0.103651 1.89717 0
M  V30 5476 H 507.208 -1.864 3.40863 0
M  V30 5477 H 508.88 0.463196 4.58969 0
M  V30 5478 H 507.123 0.504581 4.30855 0
M  V30 5479 H 507.794 -0.630218 5.48391 0
M  V30 5480 H 510.27 -1.62198 3.83185 0
M  V30 5481 H 509.146 -2.54161 4.86511 0
M  V30 5482 H 509.407 -3.04707 3.20322 0
M  V30 5483 N 508.466 -1.55915 -0.229846 0
M  V30 5484 C 509.691 -1.8296 -0.976743 0
M  V30 5485 C 510.116 -0.622735 -1.77493 0
M  V30 5486 O 509.474 0.428431 -1.76165 0
M  V30 5487 C 509.522 -3.07916 -1.8767 0
M  V30 5488 O 508.626 -2.86028 -2.97088 0
M  V30 5489 H 507.967 -0.603453 -0.277021 0
M  V30 5490 H 510.497 -2.0312 -0.245669 0
M  V30 5491 H 510.507 -3.37802 -2.2881 0
M  V30 5492 H 509.182 -3.95389 -1.28996 0
M  V30 5493 H 507.759 -2.67355 -2.59954 0
M  V30 5494 N 509.944 0.496216 -1.49584 0
M  V30 5495 C 510.854 1.62352 -1.69349 0
M  V30 5496 C 511.87 1.64184 -0.576147 0
M  V30 5497 O 513.046 1.82517 -0.85144 0
M  V30 5498 C 510.111 2.98698 -1.76013 0
M  V30 5499 C 509.172 3.07454 -2.99617 0
M  V30 5500 C 508.405 4.37296 -3.05953 0
M  V30 5501 O 508.628 5.2637 -2.19752 0
M  V30 5502 O 507.562 4.51124 -3.9846 0
M  V30 5503 H 511.388 1.48606 -2.64859 0
M  V30 5504 H 508.973 0.673022 -1.33382 0
M  V30 5505 H 510.855 3.79725 -1.82721 0
M  V30 5506 H 509.53 3.12696 -0.836828 0
M  V30 5507 H 508.437 2.25597 -2.98424 0
M  V30 5508 H 509.77 2.98385 -3.91443 0
M  V30 5509 N 511.423 1.38739 0.74761 0
M  V30 5510 C 512.356 1.3083 1.86972 0
M  V30 5511 C 513.334 0.184229 1.61553 0
M  V30 5512 O 514.518 0.36256 1.8498 0
M  V30 5513 C 511.645 1.02854 3.22705 0
M  V30 5514 C 510.691 2.17281 3.67003 0
M  V30 5515 S 511.524 3.79468 3.77842 0
M  V30 5516 C 512.68 3.53692 5.16385 0
M  V30 5517 H 512.913 2.258 1.93395 0
M  V30 5518 H 510.446 1.24646 0.911199 0
M  V30 5519 H 512.404 0.87397 4.01089 0
M  V30 5520 H 511.065 0.0959295 3.13953 0
M  V30 5521 H 510.258 1.93267 4.65472 0
M  V30 5522 H 509.86 2.28876 2.9579 0
M  V30 5523 H 512.152 3.10176 6.02327 0
M  V30 5524 H 513.095 4.51576 5.45422 0
M  V30 5525 H 513.503 2.8807 4.85464 0
M  V30 5526 N 512.901 -0.976442 1.23707 0
M  V30 5527 C 514.147 -1.72081 1.07312 0
M  V30 5528 C 514.48 -1.90275 -0.388476 0
M  V30 5529 O 513.755 -1.4579 -1.28746 0
M  V30 5530 C 514.038 -3.11675 1.80363 0
M  V30 5531 C 513.891 -3.01027 3.3422 0
M  V30 5532 C 515.21 -4.1117 1.5693 0
M  V30 5533 H 512.329 -0.624583 0.391236 0
M  V30 5534 H 514.971 -1.13649 1.52263 0
M  V30 5535 H 513.121 -3.61559 1.42153 0
M  V30 5536 H 514.793 -2.58637 3.81975 0
M  V30 5537 H 513.036 -2.3744 3.63049 0
M  V30 5538 H 513.707 -3.9988 3.80525 0
M  V30 5539 H 516.183 -3.7011 1.90151 0
M  V30 5540 H 515.059 -5.06928 2.10513 0
M  V30 5541 H 515.32 -4.392 0.505548 0
M  V30 5542 N 514.379 -1.04941 -1.1758 0
M  V30 5543 C 515.329 -0.618378 -2.19454 0
M  V30 5544 C 516.313 0.343813 -1.57184 0
M  V30 5545 O 517.505 0.16145 -1.76262 0
M  V30 5546 C 514.634 0.00803847 -3.43299 0
M  V30 5547 C 513.72 -0.977827 -4.12673 0
M  V30 5548 N 514.111 -2.14826 -4.57912 0
M  V30 5549 C 512.409 -0.805748 -4.38661 0
M  V30 5550 C 513.11 -2.77174 -5.11419 0
M  V30 5551 N 512.086 -2.04989 -5.03468 0
M  V30 5552 H 515.888 -1.51018 -2.52132 0
M  V30 5553 H 513.402 -0.919201 -1.33882 0
M  V30 5554 H 515.399 0.334584 -4.15555 0
M  V30 5555 H 514.059 0.895272 -3.12114 0
M  V30 5556 H 515.07 -2.52673 -4.52081 0
M  V30 5557 H 511.747 0.0306506 -4.17489 0
M  V30 5558 H 513.137 -3.76416 -5.56562 0
M  V30 5559 N 515.857 1.33968 -0.830081 0
M  V30 5560 C 516.804 2.29387 -0.255008 0
M  V30 5561 C 517.774 1.53923 0.624243 0
M  V30 5562 O 518.959 1.82262 0.564372 0
M  V30 5563 C 516.099 3.4034 0.571209 0
M  V30 5564 C 515.212 4.30729 -0.331083 0
M  V30 5565 C 514.347 5.2879 0.505389 0
M  V30 5566 C 513.386 6.10819 -0.395843 0
M  V30 5567 N 512.523 7.00948 0.401979 0
M  V30 5568 H 517.363 2.77972 -1.07404 0
M  V30 5569 H 514.9 1.36785 -0.541133 0
M  V30 5570 H 516.858 4.03361 1.06562 0
M  V30 5571 H 515.488 2.9297 1.35529 0
M  V30 5572 H 514.54 3.68507 -0.943759 0
M  V30 5573 H 515.852 4.88181 -1.02377 0
M  V30 5574 H 515.006 5.97297 1.06399 0
M  V30 5575 H 513.745 4.71894 1.23155 0
M  V30 5576 H 512.75 5.41238 -0.966529 0
M  V30 5577 H 513.975 6.69797 -1.12023 0
M  V30 5578 H 511.921 6.46512 1.11168 0
M  V30 5579 H 511.838 7.55643 -0.232167 0
M  V30 5580 H 513.106 7.73774 0.943102 0
M  V30 5581 N 517.335 0.585699 1.46312 0
M  V30 5582 C 518.298 -0.135673 2.28798 0
M  V30 5583 C 519.298 -0.815988 1.38558 0
M  V30 5584 O 520.488 -0.667487 1.60904 0
M  V30 5585 C 517.62 -1.20163 3.1902 0
M  V30 5586 H 518.813 0.589257 2.94054 0
M  V30 5587 H 516.366 0.343794 1.52472 0
M  V30 5588 H 517.101 -1.95804 2.58517 0
M  V30 5589 H 516.886 -0.718282 3.85465 0
M  V30 5590 H 518.376 -1.70749 3.81096 0
M  V30 5591 N 518.813 -1.54241 0.323641 0
M  V30 5592 C 520.059 -2.00867 -0.279323 0
M  V30 5593 C 520.392 -1.21146 -1.5178 0
M  V30 5594 O 519.667 -0.29378 -1.92269 0
M  V30 5595 C 519.95 -3.54837 -0.613387 0
M  V30 5596 C 519.803 -4.45284 0.635803 0
M  V30 5597 C 521.122 -4.16186 -1.43099 0
M  V30 5598 H 518.241 -0.730177 -0.100049 0
M  V30 5599 H 520.883 -1.84829 0.440235 0
M  V30 5600 H 519.033 -3.68634 -1.22641 0
M  V30 5601 H 520.705 -4.43357 1.27406 0
M  V30 5602 H 518.948 -4.14956 1.26466 0
M  V30 5603 H 519.619 -5.5084 0.357597 0
M  V30 5604 H 522.095 -4.05964 -0.912814 0
M  V30 5605 H 520.971 -5.24031 -1.6335 0
M  V30 5606 H 521.232 -3.69516 -2.42715 0
M  V30 5607 N 520.291 -0.0518155 -1.57515 0
M  V30 5608 C 521.537 0.622745 -1.93002 0
M  V30 5609 C 521.87 1.70456 -0.930499 0
M  V30 5610 O 521.145 1.94452 0.0434086 0
M  V30 5611 C 521.428 1.21824 -3.38867 0
M  V30 5612 C 521.281 0.144434 -4.49568 0
M  V30 5613 C 522.6 2.12968 -3.8514 0
M  V30 5614 H 519.719 0.22491 -0.701844 0
M  V30 5615 H 522.361 -0.113711 -1.89659 0
M  V30 5616 H 520.511 1.8459 -3.41846 0
M  V30 5617 H 522.183 -0.48753 -4.58717 0
M  V30 5618 H 520.426 -0.527424 -4.30582 0
M  V30 5619 H 521.097 0.601127 -5.48717 0
M  V30 5620 H 523.573 1.60163 -3.8404 0
M  V30 5621 H 522.449 2.51578 -4.87852 0
M  V30 5622 H 522.71 3.03004 -3.21934 0
M  V30 5623 N 521.769 1.56035 0.221574 0
M  V30 5624 C 522.679 1.95581 1.29558 0
M  V30 5625 C 523.695 0.859639 1.51282 0
M  V30 5626 O 524.871 1.16321 1.64413 0
M  V30 5627 C 521.936 2.26447 2.62531 0
M  V30 5628 C 520.997 3.49632 2.4911 0
M  V30 5629 C 520.23 3.79017 3.75742 0
M  V30 5630 O 520.453 3.10077 4.78757 0
M  V30 5631 O 519.387 4.72507 3.72855 0
M  V30 5632 H 523.213 2.8711 0.990035 0
M  V30 5633 H 520.798 1.43244 0.424434 0
M  V30 5634 H 522.68 2.47494 3.41064 0
M  V30 5635 H 521.355 1.38092 2.92766 0
M  V30 5636 H 520.262 3.33864 1.68777 0
M  V30 5637 H 521.595 4.3837 2.23814 0
M  V30 5638 N 523.247 -0.488276 1.49845 0
M  V30 5639 C 524.493 -1.24341 1.6021 0
M  V30 5640 C 524.826 -1.91967 0.293651 0
M  V30 5641 O 524.101 -1.81323 -0.703718 0
M  V30 5642 C 524.384 -2.3005 2.77036 0
M  V30 5643 C 524.237 -1.66842 4.17713 0
M  V30 5644 C 525.556 -3.31509 2.89464 0
M  V30 5645 H 522.675 -0.450704 0.583125 0
M  V30 5646 H 525.317 -0.539673 1.82174 0
M  V30 5647 H 523.467 -2.90071 2.58439 0
M  V30 5648 H 525.139 -1.1055 4.47858 0
M  V30 5649 H 523.382 -0.972079 4.22768 0
M  V30 5650 H 524.053 -2.43576 4.95353 0
M  V30 5651 H 526.529 -2.81493 3.06433 0
M  V30 5652 H 525.405 -4.02822 3.72861 0
M  V30 5653 H 525.666 -3.94603 1.99351 0
M  V30 5654 N 524.725 -1.39134 -0.740242 0
M  V30 5655 C 526.002 -1.26584 -1.49117 0
M  V30 5656 C 526.382 0.126902 -2.10718 0
M  V30 5657 O 525.73 1.13765 -1.98166 0
M  V30 5658 C 525.94 -2.38619 -2.54681 0
M  V30 5659 C 527.288 -2.77685 -3.21211 0
M  V30 5660 O 528.312 -2.38029 -2.64991 0
M  V30 5661 O 527.171 -3.46115 -4.22926 0
M  V30 5662 H 524.265 -0.495769 -0.661923 0
M  V30 5663 H 526.811 -1.50995 -0.774514 0
M  V30 5664 H 525.583 -3.3175 -2.07504 0
M  V30 5665 H 525.206 -2.15845 -3.33911 0
M  V30 5666 N 526.204 0.969867 -1.24223 0
M  V30 5667 C 527.114 2.09806 -1.0497 0
M  V30 5668 C 528.13 1.73998 0.00886455 0
M  V30 5669 O 529.306 2.00513 -0.188848 0
M  V30 5670 C 526.371 3.40467 -0.654452 0
M  V30 5671 C 525.432 3.90236 -1.78926 0
M  V30 5672 C 524.665 5.14662 -1.41277 0
M  V30 5673 O 524.888 5.69602 -0.301632 0
M  V30 5674 O 523.822 5.58761 -2.23763 0
M  V30 5675 H 527.648 2.28942 -1.99548 0
M  V30 5676 H 525.233 1.08197 -1.03023 0
M  V30 5677 H 527.115 4.19039 -0.445452 0
M  V30 5678 H 525.79 3.22636 0.262216 0
M  V30 5679 H 524.697 3.12735 -2.05299 0
M  V30 5680 H 526.03 4.1254 -2.68462 0
M  V30 5681 N 527.682 1.05563 1.17022 0
M  V30 5682 C 528.907 0.788437 1.91829 0
M  V30 5683 C 529.332 -0.650356 1.76499 0
M  V30 5684 O 528.69 -1.45229 1.08527 0
M  V30 5685 C 528.738 1.1786 3.40795 0
M  V30 5686 O 527.842 0.312965 4.11211 0
M  V30 5687 H 527.183 0.288794 0.597908 0
M  V30 5688 H 529.713 1.40948 1.48307 0
M  V30 5689 H 529.723 1.14697 3.91546 0
M  V30 5690 H 528.398 2.22666 3.51273 0
M  V30 5691 H 526.975 0.405515 3.70689 0
M  V30 5692 N 529.16 -1.33526 0.837174 0
M  V30 5693 C 530.408 -1.97446 0.431211 0
M  V30 5694 C 530.729 -1.6665 -1.01255 0
M  V30 5695 O 529.999 -0.964559 -1.70508 0
M  V30 5696 H 528.579 -0.73043 0.156463 0
M  V30 5697 H 531.241 -1.62918 1.06976 0
M  V30 5698 H 530.337 -3.07001 0.561877 0
M  V30 5699 N 530.638 -0.59345 -1.46 0
M  V30 5700 C 531.866 -0.0890934 -2.06708 0
M  V30 5701 C 532.281 1.2205 -1.44046 0
M  V30 5702 O 531.638 1.74029 -0.549551 0
M  V30 5703 C 531.689 0.0720263 -3.61428 0
M  V30 5704 O 531.41 -1.18574 -4.21748 0
M  V30 5705 C 532.911 0.609487 -4.3909 0
M  V30 5706 H 530.131 -0.0623628 -0.668096 0
M  V30 5707 H 532.675 -0.817171 -1.87464 0
M  V30 5708 H 530.83 0.750369 -3.80063 0
M  V30 5709 H 531.244 -1.0064 -5.14754 0
M  V30 5710 H 532.718 0.671363 -5.47902 0
M  V30 5711 H 533.195 1.62878 -4.07882 0
M  V30 5712 H 533.801 -0.03434 -4.25286 0
M  V30 5713 N 532.116 1.54067 -0.331816 0
M  V30 5714 C 533.532 1.59587 0.0205388 0
M  V30 5715 C 533.732 1.34813 1.49759 0
M  V30 5716 O 532.788 1.13661 2.25471 0
M  V30 5717 C 534.101 2.97959 -0.405103 0
M  V30 5718 C 535.649 3.10964 -0.356454 0
M  V30 5719 C 536.124 4.51694 -0.757384 0
M  V30 5720 N 537.615 4.57709 -0.71111 0
M  V30 5721 C 538.35 5.64729 -0.993427 0
M  V30 5722 N 537.846 6.79652 -1.3433 0
M  V30 5723 N 539.639 5.54546 -0.918442 0
M  V30 5724 H 531.79 1.68426 -1.29407 0
M  V30 5725 H 534.053 0.78819 -0.526745 0
M  V30 5726 H 533.759 3.21115 -1.43451 0
M  V30 5727 H 533.633 3.76524 0.225692 0
M  V30 5728 H 536.02 2.87538 0.663763 0
M  V30 5729 H 536.101 2.34484 -1.02229 0
M  V30 5730 H 535.745 4.75853 -1.77555 0
M  V30 5731 H 535.675 5.26555 -0.0691444 0
M  V30 5732 H 538.166 3.75176 -0.452883 0
M  V30 5733 H 538.479 7.57221 -1.54388 0
M  V30 5734 H 536.824 6.81128 -1.38164 0
M  V30 5735 H 540.015 4.63641 -0.644536 0
M  V30 5736 H 540.188 6.37861 -1.14181 0
M  V30 5737 N 533.594 0.0601682 1.57485 0
M  V30 5738 C 534.557 -0.896373 2.10945 0
M  V30 5739 C 535.557 -1.23402 1.03095 0
M  V30 5740 O 536.747 -1.16921 1.29132 0
M  V30 5741 C 533.879 -2.20346 2.60116 0
M  V30 5742 H 535.072 -0.432778 2.96761 0
M  V30 5743 H 532.625 -0.188372 1.55161 0
M  V30 5744 H 533.36 -2.71268 1.7772 0
M  V30 5745 H 533.145 -1.9714 3.38937 0
M  V30 5746 H 534.635 -2.88846 3.01592 0
M  V30 5747 N 535.072 -1.5615 -0.213296 0
M  V30 5748 C 536.035 -1.92249 -1.24792 0
M  V30 5749 C 537.035 -0.801828 -1.39382 0
M  V30 5750 O 538.225 -1.06948 -1.37506 0
M  V30 5751 C 535.357 -2.18056 -2.62039 0
M  V30 5752 H 536.55 -2.84793 -0.939845 0
M  V30 5753 H 534.103 -1.49559 -0.454062 0
M  V30 5754 H 534.838 -1.2809 -2.97932 0
M  V30 5755 H 534.623 -2.99703 -2.52825 0
M  V30 5756 H 536.113 -2.47051 -3.36683 0
M  V30 5757 N 536.55 0.480323 -1.50102 0
M  V30 5758 C 537.513 1.56181 -1.6775 0
M  V30 5759 C 538.513 1.51156 -0.548503 0
M  V30 5760 O 539.703 1.5394 -0.815363 0
M  V30 5761 C 536.835 2.95823 -1.69415 0
M  V30 5762 H 538.028 1.41855 -2.6423 0
M  V30 5763 H 535.581 0.70605 -1.39444 0
M  V30 5764 H 536.316 3.15604 -0.745948 0
M  V30 5765 H 536.101 3.00878 -2.51425 0
M  V30 5766 H 537.591 3.74359 -1.85054 0
M  V30 5767 N 538.028 1.39524 0.732853 0
M  V30 5768 C 538.991 1.38189 1.82857 0
M  V30 5769 C 539.991 0.278624 1.58368 0
M  V30 5770 O 541.181 0.536639 1.65728 0
M  V30 5771 C 538.313 1.15661 3.2068 0
M  V30 5772 H 539.506 2.35692 1.85444 0
M  V30 5773 H 537.059 1.2512 0.936728 0
M  V30 5774 H 537.794 0.188482 3.23752 0
M  V30 5775 H 537.579 1.95559 3.39852 0
M  V30 5776 H 539.069 1.17472 4.00737 0
M  V30 5777 N 539.506 -0.963266 1.24736 0
M  V30 5778 C 540.734 -1.74166 1.11686 0
M  V30 5779 C 541.149 -1.8589 -0.330187 0
M  V30 5780 O 540.506 -1.35042 -1.2276 0
M  V30 5781 C 540.557 -3.15989 1.75595 0
M  V30 5782 O 540.278 -3.04847 3.14642 0
M  V30 5783 C 541.779 -4.10145 1.68213 0
M  V30 5784 H 538.999 -0.546031 0.389989 0
M  V30 5785 H 541.543 -1.20907 1.64929 0
M  V30 5786 H 539.698 -3.66219 1.26343 0
M  V30 5787 H 540.112 -3.9425 3.4593 0
M  V30 5788 H 541.586 -5.07299 2.17604 0
M  V30 5789 H 542.063 -4.3445 0.644208 0
M  V30 5790 H 542.669 -3.65827 2.16912 0
M  V30 5791 N 540.985 -1.06182 -1.16461 0
M  V30 5792 C 542.233 -0.776326 -1.86595 0
M  V30 5793 C 542.554 0.69921 -1.82033 0
M  V30 5794 O 541.824 1.50579 -1.2531 0
M  V30 5795 H 540.404 -0.284184 -0.690832 0
M  V30 5796 H 543.066 -1.34308 -1.41235 0
M  V30 5797 H 542.162 -1.10022 -2.92064 0
M  V30 5798 N 542.463 1.3308 -0.844243 0
M  V30 5799 C 543.691 2.01808 -0.456203 0
M  V30 5800 C 544.106 1.63498 0.944131 0
M  V30 5801 O 543.463 0.85102 1.61443 0
M  V30 5802 C 543.514 3.56922 -0.573513 0
M  V30 5803 O 543.235 3.93851 -1.91868 0
M  V30 5804 C 544.736 4.42922 -0.183125 0
M  V30 5805 H 541.956 0.646273 -0.180477 0
M  V30 5806 H 544.5 1.69891 -1.1383 0
M  V30 5807 H 542.655 3.87352 0.0607367 0
M  V30 5808 H 543.069 4.88564 -1.90802 0
M  V30 5809 H 544.543 5.51093 -0.316241 0
M  V30 5810 H 545.02 4.30386 0.875477 0
M  V30 5811 H 545.626 4.1786 -0.792027 0
M  V30 5812 N 543.941 0.601185 1.45683 0
M  V30 5813 C 545.19 0.0914953 2.01492 0
M  V30 5814 C 545.503 -1.28331 1.47616 0
M  V30 5815 O 546.709 -1.88537 1.95362 0
M  V30 5816 C 545.165 0.11291 3.59723 0
M  V30 5817 C 544.773 1.48717 4.22596 0
M  V30 5818 C 546.517 -0.341871 4.23121 0
M  V30 5819 C 544.424 1.46531 5.7296 0
M  V30 5820 H 543.354 0.0304365 0.753385 0
M  V30 5821 H 546.005 0.755568 1.67223 0
M  V30 5822 H 544.387 -0.617692 3.91153 0
M  V30 5823 H 545.561 2.23897 4.02749 0
M  V30 5824 H 543.876 1.88351 3.71366 0
M  V30 5825 H 546.473 -0.377304 5.33367 0
M  V30 5826 H 546.816 -1.36325 3.93346 0
M  V30 5827 H 547.349 0.335256 3.96385 0
M  V30 5828 H 544.088 2.46408 6.07423 0
M  V30 5829 H 543.608 0.755997 5.95017 0
M  V30 5830 H 545.287 1.18618 6.36034 0
M  V30 5831 N 545.419 -1.53889 0.339982 0
M  V30 5832 C 546.666 -2.00855 -0.257621 0
M  V30 5833 C 546.994 -1.22788 -1.50842 0
M  V30 5834 O 546.249 -0.302567 -1.93347 0
M  V30 5835 C 546.548 -3.51968 -0.620735 0
M  V30 5836 C 546.214 -4.47741 0.532771 0
M  V30 5837 C 544.876 -4.73645 0.849339 0
M  V30 5838 C 547.228 -5.04551 1.3068 0
M  V30 5839 C 544.556 -5.53614 1.94237 0
M  V30 5840 C 546.908 -5.85713 2.39005 0
M  V30 5841 C 545.572 -6.09912 2.71225 0
M  V30 5842 H 544.842 -0.734979 -0.0942703 0
M  V30 5843 H 547.489 -1.85714 0.467159 0
M  V30 5844 H 545.794 -3.64921 -1.42618 0
M  V30 5845 H 547.491 -3.85762 -1.09495 0
M  V30 5846 H 544.081 -4.27711 0.275973 0
M  V30 5847 H 548.265 -4.84507 1.07549 0
M  V30 5848 H 543.521 -5.7059 2.19628 0
M  V30 5849 H 547.695 -6.28748 2.99415 0
M  V30 5850 H 545.322 -6.71665 3.56047 0
M  V30 5851 N 546.897 -0.0685191 -1.57451 0
M  V30 5852 C 548.125 0.610462 -1.97689 0
M  V30 5853 C 548.54 1.63346 -0.946758 0
M  V30 5854 O 547.897 1.82377 0.0669868 0
M  V30 5855 C 547.948 1.28196 -3.38006 0
M  V30 5856 O 547.669 0.299906 -4.37072 0
M  V30 5857 C 549.17 2.04907 -3.931 0
M  V30 5858 H 546.39 0.165689 -0.650222 0
M  V30 5859 H 548.934 -0.139953 -2.04021 0
M  V30 5860 H 547.089 1.98348 -3.32771 0
M  V30 5861 H 547.503 0.78126 -5.18649 0
M  V30 5862 H 548.977 2.47287 -4.93511 0
M  V30 5863 H 549.454 2.9043 -3.29465 0
M  V30 5864 H 550.06 1.39629 -4.01726 0
M  V30 5865 N 548.375 1.56261 0.205012 0
M  V30 5866 C 549.622 1.8004 0.926927 0
M  V30 5867 C 549.95 0.640086 1.83666 0
M  V30 5868 O 549.205 -0.374702 1.92079 0
M  V30 5869 C 549.504 3.09722 1.78345 0
M  V30 5870 C 549.17 4.39082 1.02555 0
M  V30 5871 C 547.832 4.74226 0.816256 0
M  V30 5872 C 550.184 5.18877 0.491559 0
M  V30 5873 C 547.512 5.86668 0.0613287 0
M  V30 5874 C 549.864 6.32105 -0.250107 0
M  V30 5875 C 548.528 6.6584 -0.470508 0
M  V30 5876 H 547.798 0.658812 0.339187 0
M  V30 5877 H 550.445 1.90515 0.19395 0
M  V30 5878 H 548.75 2.9444 2.5848 0
M  V30 5879 H 550.447 3.25324 2.34446 0
M  V30 5880 H 547.037 4.11497 1.19868 0
M  V30 5881 H 551.221 4.92147 0.640684 0
M  V30 5882 H 546.477 6.11283 -0.119501 0
M  V30 5883 H 550.651 6.93157 -0.671307 0
M  V30 5884 H 548.278 7.5281 -1.05739 0
M  V30 5885 N 549.853 -0.472356 1.50355 0
M  V30 5886 C 551.269 -0.806001 1.37753 0
M  V30 5887 C 551.469 -1.968 0.432649 0
M  V30 5888 O 550.525 -2.52189 -0.12519 0
M  V30 5889 C 551.838 -1.11926 2.79093 0
M  V30 5890 C 553.386 -1.22579 2.87999 0
M  V30 5891 C 553.861 -1.57218 4.3017 0
M  V30 5892 N 555.352 -1.64212 4.33115 0
M  V30 5893 C 556.087 -1.92517 5.40116 0
M  V30 5894 N 555.583 -2.1885 6.57325 0
M  V30 5895 N 557.376 -1.94008 5.27558 0
M  V30 5896 H 549.527 0.293451 2.10363 0
M  V30 5897 H 551.79 0.0687672 0.945503 0
M  V30 5898 H 551.496 -0.338504 3.50067 0
M  V30 5899 H 551.37 -2.05577 3.16256 0
M  V30 5900 H 553.757 -1.99722 2.17245 0
M  V30 5901 H 553.838 -0.269107 2.54381 0
M  V30 5902 H 553.482 -0.806154 5.01461 0
M  V30 5903 H 553.412 -2.54034 4.61275 0
M  V30 5904 H 555.903 -1.45906 3.48597 0
M  V30 5905 H 556.216 -2.39718 7.3468 0
M  V30 5906 H 554.561 -2.16245 6.60502 0
M  V30 5907 H 557.752 -1.72931 4.34986 0
M  V30 5908 H 557.925 -2.15731 6.11035 0
M  V30 5909 N 551.331 -1.39911 -0.725443 0
M  V30 5910 C 552.556 -1.41137 -1.5197 0
M  V30 5911 C 552.981 -0.010262 -1.88097 0
M  V30 5912 O 552.339 0.979184 -1.52583 0
M  V30 5913 C 552.387 -2.2994 -2.77777 0
M  V30 5914 O 551.491 -1.73586 -3.74088 0
M  V30 5915 H 550.832 -0.480219 -0.458569 0
M  V30 5916 H 553.362 -1.84023 -0.894249 0
M  V30 5917 H 553.372 -2.44785 -3.26411 0
M  V30 5918 H 552.047 -3.31759 -2.50816 0
M  V30 5919 H 550.624 -1.68035 -3.32894 0
M  V30 5920 N 552.809 0.956637 -1.25245 0
M  V30 5921 C 553.772 2.03457 -1.05537 0
M  V30 5922 C 554.772 1.60798 -0.00886317 0
M  V30 5923 O 555.962 1.72384 -0.250865 0
M  V30 5924 C 553.094 3.35543 -0.601965 0
M  V30 5925 H 554.287 2.22372 -2.01223 0
M  V30 5926 H 551.84 1.13344 -1.07623 0
M  V30 5927 H 552.575 3.22323 0.357584 0
M  V30 5928 H 552.36 3.67854 -1.35743 0
M  V30 5929 H 553.85 4.14769 -0.485454 0
M  V30 5930 N 554.287 1.06798 1.15896 0
M  V30 5931 C 555.703 0.792423 1.38538 0
M  V30 5932 C 555.903 -0.60592 1.92174 0
M  V30 5933 O 554.959 -1.36561 2.12385 0
M  V30 5934 C 556.272 1.86157 2.36149 0
M  V30 5935 C 557.82 1.88567 2.49823 0
M  V30 5936 C 558.295 2.9455 3.5072 0
M  V30 5937 N 559.786 2.93616 3.58251 0
M  V30 5938 C 560.521 3.72267 4.36125 0
M  V30 5939 N 560.017 4.60751 5.17379 0
M  V30 5940 N 561.81 3.60637 4.31158 0
M  V30 5941 H 553.961 1.96993 0.794198 0
M  V30 5942 H 556.224 0.853942 0.411688 0
M  V30 5943 H 555.93 2.86603 2.03843 0
M  V30 5944 H 555.804 1.71692 3.3586 0
M  V30 5945 H 558.191 0.887765 2.8143 0
M  V30 5946 H 558.272 2.0711 1.5013 0
M  V30 5947 H 557.916 3.94537 3.19849 0
M  V30 5948 H 557.846 2.73255 4.50155 0
M  V30 5949 H 560.337 2.29472 3.00252 0
M  V30 5950 H 560.65 5.17408 5.74028 0
M  V30 5951 H 558.995 4.64803 5.16704 0
M  V30 5952 H 562.186 2.90892 3.66742 0
M  V30 5953 H 562.359 4.22176 4.91601 0
M  V30 5954 N 555.766 -1.3263 0.851289 0
M  V30 5955 C 556.696 -2.31449 0.308771 0
M  V30 5956 C 557.677 -1.59531 -0.590255 0
M  V30 5957 O 558.862 -1.87351 -0.511205 0
M  V30 5958 C 555.992 -3.43586 -0.506548 0
M  V30 5959 C 554.946 -4.26963 0.297753 0
M  V30 5960 C 554.272 -5.30831 -0.642094 0
M  V30 5961 C 555.572 -4.99643 1.52166 0
M  V30 5962 H 557.266 -2.77074 1.13447 0
M  V30 5963 H 554.812 -1.33207 0.546971 0
M  V30 5964 H 556.765 -4.11754 -0.896474 0
M  V30 5965 H 555.489 -2.96681 -1.36558 0
M  V30 5966 H 554.148 -3.60437 0.669391 0
M  V30 5967 H 553.796 -4.8018 -1.49788 0
M  V30 5968 H 553.496 -5.87501 -0.107968 0
M  V30 5969 H 555.02 -6.01862 -1.02927 0
M  V30 5970 H 556.434 -5.6051 1.20421 0
M  V30 5971 H 554.831 -5.66022 1.99347 0
M  V30 5972 H 555.901 -4.27701 2.28474 0
M  V30 5973 N 557.244 -0.608902 -1.45362 0
M  V30 5974 C 558.192 0.121639 -2.32282 0
M  V30 5975 C 559.186 0.858301 -1.46046 0
M  V30 5976 O 560.392 0.773718 -1.62523 0
M  V30 5977 H 556.767 0.058086 -0.749753 0
M  V30 5978 H 558.738 -0.629866 -2.91677 0
M  V30 5979 C 557.487 1.1047 -3.29684 0
M  V30 5980 H 556.81 0.547278 -3.96036 0
M  V30 5981 H 558.25 1.58576 -3.9323 0
M  V30 5982 C 556.709 2.17891 -2.56954 0
M  V30 5983 O 557.239 3.25652 -2.35189 0
M  V30 5984 N 555.445 1.93211 -2.17066 0
M  V30 5985 H 554.992 1.05584 -2.34967 0
M  V30 5986 H 554.95 2.6529 -1.68727 0
M  V30 5987 N 558.722 1.53707 -0.348139 0
M  V30 5988 C 559.947 2.05877 0.250883 0
M  V30 5989 C 560.372 1.22115 1.43072 0
M  V30 5990 O 559.73 0.235986 1.79758 0
M  V30 5991 C 559.778 3.54886 0.639416 0
M  V30 5992 O 558.882 3.73948 1.73888 0
M  V30 5993 H 558.223 0.662754 0.040653 0
M  V30 5994 H 560.753 1.98303 -0.503685 0
M  V30 5995 H 560.763 3.97601 0.915295 0
M  V30 5996 H 559.438 4.153 -0.223386 0
M  V30 5997 H 558.015 3.43134 1.45991 0
M  V30 5998 N 560.2 0.0768682 1.57412 0
M  V30 5999 C 561.132 -0.918248 2.10002 0
M  V30 6000 C 562.145 -1.25808 1.03325 0
M  V30 6001 O 563.334 -1.21438 1.30824 0
M  V30 6002 C 560.434 -2.23263 2.54964 0
M  V30 6003 C 559.607 -2.07088 3.8527 0
M  V30 6004 C 558.666 -3.21876 4.16272 0
M  V30 6005 O 557.692 -2.96643 4.8579 0
M  V30 6006 N 558.894 -4.4712 3.70221 0
M  V30 6007 H 561.659 -0.469209 2.96004 0
M  V30 6008 H 559.22 -0.108725 1.61535 0
M  V30 6009 H 561.212 -2.9897 2.72762 0
M  V30 6010 H 559.782 -2.59649 1.74072 0
M  V30 6011 H 559.002 -1.15818 3.76802 0
M  V30 6012 H 560.29 -1.93537 4.70554 0
M  V30 6013 H 559.688 -4.70506 3.1407 0
M  V30 6014 H 558.245 -5.19837 3.93209 0
M  V30 6015 N 561.678 -1.56367 -0.196722 0
M  V30 6016 C 563.094 -1.49916 -0.54749 0
M  V30 6017 C 563.294 -0.77659 -1.85934 0
M  V30 6018 O 562.35 -0.32644 -2.50381 0
M  V30 6019 C 563.663 -2.94577 -0.603734 0
M  V30 6020 C 565.211 -3.05239 -0.692677 0
M  V30 6021 C 565.686 -4.51308 -0.780046 0
M  V30 6022 N 567.177 -4.55453 -0.843616 0
M  V30 6023 C 567.912 -5.65786 -0.931358 0
M  V30 6024 N 567.408 -6.85812 -0.981503 0
M  V30 6025 N 569.201 -5.53695 -0.968421 0
M  V30 6026 H 561.352 -2.01761 0.663803 0
M  V30 6027 H 563.615 -0.918094 0.236238 0
M  V30 6028 H 563.321 -3.50494 0.29105 0
M  V30 6029 H 563.195 -3.47841 -1.45898 0
M  V30 6030 H 565.582 -2.49372 -1.57789 0
M  V30 6031 H 565.663 -2.55103 0.188736 0
M  V30 6032 H 565.307 -5.078 0.100811 0
M  V30 6033 H 565.237 -4.99176 -1.67724 0
M  V30 6034 H 567.728 -3.69025 -0.814176 0
M  V30 6035 H 568.041 -7.65648 -1.04892 0
M  V30 6036 H 566.386 -6.88474 -0.950208 0
M  V30 6037 H 569.577 -4.58848 -0.926072 0
M  V30 6038 H 569.75 -6.39708 -1.03334 0
M  V30 6039 N 563.156 0.464375 -1.50603 0
M  V30 6040 C 564.086 1.56944 -1.72889 0
M  V30 6041 C 565.067 1.59979 -0.577997 0
M  V30 6042 O 566.252 1.76138 -0.817855 0
M  V30 6043 C 563.382 2.95225 -1.8292 0
M  V30 6044 C 562.336 3.07056 -2.98162 0
M  V30 6045 C 561.662 4.47051 -2.93343 0
M  V30 6046 C 562.962 2.83648 -4.38567 0
M  V30 6047 H 564.656 1.38547 -2.65415 0
M  V30 6048 H 562.202 0.665082 -1.27721 0
M  V30 6049 H 564.155 3.72467 -1.97095 0
M  V30 6050 H 562.879 3.14793 -0.870209 0
M  V30 6051 H 561.538 2.32248 -2.83648 0
M  V30 6052 H 561.186 4.63547 -1.95276 0
M  V30 6053 H 560.886 4.55902 -3.70712 0
M  V30 6054 H 562.41 5.26304 -3.09575 0
M  V30 6055 H 563.824 3.50636 -4.53572 0
M  V30 6056 H 562.221 3.03937 -5.17438 0
M  V30 6057 H 563.291 1.79451 -4.50472 0
M  V30 6058 N 564.634 1.40294 0.718013 0
M  V30 6059 C 565.88 1.38645 1.48005 0
M  V30 6060 C 566.213 -0.0121202 1.94196 0
M  V30 6061 O 565.488 -0.980309 1.67989 0
M  V30 6062 C 565.771 2.37379 2.70782 0
M  V30 6063 C 565.624 3.8625 2.30501 0
M  V30 6064 C 566.943 2.33685 3.72933 0
M  V30 6065 H 564.062 0.504928 0.536858 0
M  V30 6066 H 566.704 1.71411 0.819649 0
M  V30 6067 H 564.854 2.09568 3.27129 0
M  V30 6068 H 566.526 4.24879 1.79655 0
M  V30 6069 H 564.769 4.02202 1.6253 0
M  V30 6070 H 565.44 4.50847 3.18498 0
M  V30 6071 H 567.916 2.58314 3.2621 0
M  V30 6072 H 566.792 3.0482 4.56482 0
M  V30 6073 H 567.053 1.34765 4.21059 0
M  V30 6074 N 566.112 -0.949982 1.2575 0
M  V30 6075 C 567.359 -1.69515 1.10774 0
M  V30 6076 C 567.687 -1.91316 -0.350479 0
M  V30 6077 O 566.942 -1.48515 -1.27443 0
M  V30 6078 C 567.241 -3.08039 1.81237 0
M  V30 6079 C 566.907 -3.06023 3.31151 0
M  V30 6080 C 565.569 -3.0518 3.72047 0
M  V30 6081 C 567.921 -2.98998 4.26907 0
M  V30 6082 C 565.249 -2.95067 5.07102 0
M  V30 6083 C 567.601 -2.90426 5.61992 0
M  V30 6084 C 566.265 -2.87922 6.0221 0
M  V30 6085 H 565.535 -0.6203 0.405351 0
M  V30 6086 H 568.182 -1.10953 1.56082 0
M  V30 6087 H 566.487 -3.70172 1.28373 0
M  V30 6088 H 568.184 -3.64526 1.67098 0
M  V30 6089 H 564.774 -3.07453 2.98614 0
M  V30 6090 H 568.958 -2.98764 3.963 0
M  V30 6091 H 564.214 -2.915 5.37436 0
M  V30 6092 H 568.388 -2.83952 6.35881 0
M  V30 6093 H 566.015 -2.79841 7.06819 0
M  V30 6094 N 567.59 -1.07411 -1.15328 0
M  V30 6095 C 568.538 -0.689316 -2.22151 0
M  V30 6096 C 569.532 0.300156 -1.6672 0
M  V30 6097 O 570.738 0.163804 -1.79253 0
M  V30 6098 H 567.113 -0.204834 -0.723566 0
M  V30 6099 H 569.084 -1.59988 -2.51886 0
M  V30 6100 C 567.833 -0.103848 -3.47545 0
M  V30 6101 H 567.156 -0.856367 -3.90521 0
M  V30 6102 H 568.596 0.127725 -4.23808 0
M  V30 6103 C 567.055 1.15563 -3.1646 0
M  V30 6104 O 567.585 2.242 -3.33312 0
M  V30 6105 N 565.791 1.06203 -2.70498 0
M  V30 6106 H 565.338 0.177933 -2.56985 0
M  V30 6107 H 565.296 1.90553 -2.50074 0
M  V30 6108 N 569.068 1.32177 -0.85831 0
M  V30 6109 C 570.484 1.49873 -0.548656 0
M  V30 6110 C 570.684 1.79278 0.919874 0
M  V30 6111 O 569.74 1.86451 1.70271 0
M  V30 6112 C 571.053 2.64043 -1.4388 0
M  V30 6113 C 572.601 2.77928 -1.43961 0
M  V30 6114 C 573.076 3.95182 -2.31506 0
M  V30 6115 N 574.567 4.0245 -2.29321 0
M  V30 6116 C 575.302 4.9242 -2.93786 0
M  V30 6117 N 574.798 5.87373 -3.67376 0
M  V30 6118 N 576.591 4.85572 -2.83155 0
M  V30 6119 H 568.742 1.11357 -1.80868 0
M  V30 6120 H 571.005 0.549175 -0.772729 0
M  V30 6121 H 570.711 2.49055 -2.48324 0
M  V30 6122 H 570.585 3.59912 -1.12885 0
M  V30 6123 H 572.972 2.92338 -0.402813 0
M  V30 6124 H 573.053 1.82762 -1.78974 0
M  V30 6125 H 572.697 3.81531 -3.35256 0
M  V30 6126 H 572.627 4.89633 -1.93823 0
M  V30 6127 H 575.118 3.34507 -1.75822 0
M  V30 6128 H 575.431 6.52728 -4.13722 0
M  V30 6129 H 573.776 5.87388 -3.71484 0
M  V30 6130 H 576.967 4.10363 -2.25211 0
M  V30 6131 H 577.14 5.55486 -3.33676 0
M  V30 6132 N 570.547 0.616602 1.45037 0
M  V30 6133 C 571.958 0.199359 1.85633 0
M  V30 6134 C 572.309 -1.24588 1.51566 0
M  V30 6135 O 571.434 -1.94594 0.94668 0
M  V30 6136 C 572.029 0.355033 3.36935 0
M  V30 6137 C 570.588 -0.00758748 3.76399 0
M  V30 6138 C 569.735 0.675256 2.68953 0
M  V30 6139 H 572.686 0.822708 1.3571 0
M  V30 6140 H 572.707 -0.410201 3.78282 0
M  V30 6141 H 572.219 1.40699 3.61698 0
M  V30 6142 H 570.32 -1.05837 3.57252 0
M  V30 6143 H 570.433 0.392346 4.77491 0
M  V30 6144 H 568.797 0.111992 2.54454 0
M  V30 6145 H 569.58 1.72952 2.96551 0
M  V30 6146 N 572.025 -1.5352 0.356285 0
M  V30 6147 C 573.272 -2.01117 -0.236303 0
M  V30 6148 C 573.6 -1.24381 -1.49531 0
M  V30 6149 O 572.855 -0.323057 -1.93015 0
M  V30 6150 C 573.154 -3.52607 -0.583369 0
M  V30 6151 C 572.82 -4.47151 0.58023 0
M  V30 6152 C 571.482 -4.72718 0.899528 0
M  V30 6153 C 573.834 -5.03137 1.36024 0
M  V30 6154 C 571.162 -5.51523 2.00098 0
M  V30 6155 C 573.514 -5.83145 2.45204 0
M  V30 6156 C 572.178 -6.07001 2.77679 0
M  V30 6157 H 571.448 -0.735938 -0.0864695 0
M  V30 6158 H 574.095 -1.85209 0.48683 0
M  V30 6159 H 572.4 -3.66413 -1.38739 0
M  V30 6160 H 574.097 -3.86901 -1.05397 0
M  V30 6161 H 570.687 -4.27394 0.321322 0
M  V30 6162 H 574.871 -4.83339 1.12682 0
M  V30 6163 H 570.127 -5.68229 2.25668 0
M  V30 6164 H 574.301 -6.25537 3.06067 0
M  V30 6165 H 571.928 -6.67851 3.63151 0
M  V30 6166 N 573.503 -0.0852151 -1.57369 0
M  V30 6167 C 574.433 0.874556 -2.16503 0
M  V30 6168 C 575.414 1.30111 -1.09568 0
M  V30 6169 O 576.599 1.36977 -1.37662 0
M  V30 6170 C 573.729 2.13731 -2.73745 0
M  V30 6171 C 572.683 1.84971 -3.85966 0
M  V30 6172 C 572.009 3.17991 -4.29867 0
M  V30 6173 C 573.309 1.14442 -5.09608 0
M  V30 6174 H 575.003 0.381899 -2.96954 0
M  V30 6175 H 572.549 0.18225 -1.42842 0
M  V30 6176 H 574.502 2.81302 -3.13763 0
M  V30 6177 H 573.226 2.65263 -1.90534 0
M  V30 6178 H 571.885 1.19801 -3.46473 0
M  V30 6179 H 571.533 3.6739 -3.4356 0
M  V30 6180 H 571.233 2.99534 -5.05523 0
M  V30 6181 H 572.757 3.86737 -4.72511 0
M  V30 6182 H 574.171 1.72105 -5.46857 0
M  V30 6183 H 572.568 1.06197 -5.90629 0
M  V30 6184 H 573.638 0.12559 -4.84737 0
M  V30 6185 N 574.981 1.5647 0.188427 0
M  V30 6186 C 575.914 1.90146 1.26173 0
M  V30 6187 C 576.892 0.762294 1.43624 0
M  V30 6188 O 578.076 1.01395 1.58907 0
M  V30 6189 C 575.203 2.13748 2.62735 0
M  V30 6190 C 574.249 3.36448 2.62116 0
M  V30 6191 S 575.082 4.91364 2.12889 0
M  V30 6192 C 576.238 5.18041 3.51261 0
M  V30 6193 H 576.471 2.80886 0.974192 0
M  V30 6194 H 574.004 1.49335 0.392226 0
M  V30 6195 H 575.962 2.28028 3.41341 0
M  V30 6196 H 574.623 1.23747 2.88696 0
M  V30 6197 H 573.816 3.50109 3.62546 0
M  V30 6198 H 573.418 3.21196 1.91596 0
M  V30 6199 H 575.71 5.0897 4.47164 0
M  V30 6200 H 576.653 6.19764 3.42489 0
M  V30 6201 H 577.061 4.45657 3.46482 0
M  V30 6202 N 576.459 -0.456382 1.50847 0
M  V30 6203 C 577.706 -1.20736 1.62571 0
M  V30 6204 C 578.034 -1.9163 0.332904 0
M  V30 6205 O 577.289 -1.8343 -0.682058 0
M  V30 6206 C 577.588 -2.26336 2.76599 0
M  V30 6207 C 577.254 -1.7259 4.16562 0
M  V30 6208 C 575.916 -1.57654 4.54641 0
M  V30 6209 C 578.268 -1.32877 5.03977 0
M  V30 6210 C 575.596 -1.0145 5.77862 0
M  V30 6211 C 577.948 -0.7811 6.27759 0
M  V30 6212 C 576.612 -0.618488 6.64628 0
M  V30 6213 H 575.882 -0.441803 0.594888 0
M  V30 6214 H 578.529 -0.501169 1.84826 0
M  V30 6215 H 576.834 -3.0292 2.48489 0
M  V30 6216 H 578.531 -2.84227 2.82871 0
M  V30 6217 H 575.121 -1.85187 3.86528 0
M  V30 6218 H 579.305 -1.43245 4.75179 0
M  V30 6219 H 574.561 -0.876109 6.0509 0
M  V30 6220 H 578.735 -0.464783 6.94847 0
M  V30 6221 H 576.362 -0.180838 7.59985 0
M  V30 6222 N 577.937 -1.40673 -0.710563 0
M  V30 6223 C 579.186 -1.38525 -1.46607 0
M  V30 6224 C 579.499 0.0077024 -1.95598 0
M  V30 6225 O 580.705 0.151792 -2.71075 0
M  V30 6226 C 579.161 -2.43489 -2.6503 0
M  V30 6227 C 578.769 -3.88619 -2.22888 0
M  V30 6228 C 580.513 -2.50456 -3.42742 0
M  V30 6229 C 578.42 -4.85168 -3.3818 0
M  V30 6230 H 577.35 -0.515092 -0.550632 0
M  V30 6231 H 580.001 -1.66431 -0.772846 0
M  V30 6232 H 578.383 -2.0869 -3.36548 0
M  V30 6233 H 579.557 -4.32588 -1.58758 0
M  V30 6234 H 577.872 -3.85174 -1.58208 0
M  V30 6235 H 580.469 -3.19776 -4.28541 0
M  V30 6236 H 580.812 -1.53665 -3.86902 0
M  V30 6237 H 581.345 -2.84271 -2.78271 0
M  V30 6238 H 578.084 -5.8331 -2.99047 0
M  V30 6239 H 577.604 -4.4586 -4.01209 0
M  V30 6240 H 579.283 -5.05225 -4.04174 0
M  V30 6241 N 579.415 0.9433 -1.26252 0
M  V30 6242 C 580.661 1.69175 -1.11837 0
M  V30 6243 C 580.994 1.91238 0.337891 0
M  V30 6244 O 580.269 1.49152 1.24836 0
M  V30 6245 C 580.552 3.06783 -1.88563 0
M  V30 6246 C 580.405 2.9206 -3.42083 0
M  V30 6247 C 581.724 4.06865 -1.67776 0
M  V30 6248 H 578.843 0.61399 -0.407658 0
M  V30 6249 H 581.485 1.09572 -1.55222 0
M  V30 6250 H 579.635 3.57663 -1.51689 0
M  V30 6251 H 581.307 2.48419 -3.88698 0
M  V30 6252 H 579.55 2.27731 -3.69217 0
M  V30 6253 H 580.221 3.89651 -3.90994 0
M  V30 6254 H 582.697 3.64939 -1.99897 0
M  V30 6255 H 581.573 5.01168 -2.23879 0
M  V30 6256 H 581.834 4.37705 -0.621816 0
M  V30 6257 N 580.893 1.08022 1.14757 0
M  V30 6258 C 582.17 0.720386 1.81851 0
M  V30 6259 C 582.55 -0.796375 1.95502 0
M  V30 6260 O 581.898 -1.71339 1.51179 0
M  V30 6261 C 582.108 1.44273 3.17783 0
M  V30 6262 C 583.456 1.59925 3.93331 0
M  V30 6263 O 584.48 1.40407 3.2736 0
M  V30 6264 O 583.339 1.92096 5.11626 0
M  V30 6265 H 580.433 0.257142 0.786007 0
M  V30 6266 H 582.979 1.18155 1.21809 0
M  V30 6267 H 581.751 2.47618 3.02987 0
M  V30 6268 H 581.374 0.97279 3.85516 0
M  V30 6269 N 582.371 -1.3172 0.865308 0
M  V30 6270 C 583.319 -2.30569 0.306674 0
M  V30 6271 C 584.313 -1.59317 -0.575724 0
M  V30 6272 O 585.519 -1.73961 -0.462343 0
M  V30 6273 H 581.894 -0.747681 0.0804834 0
M  V30 6274 H 583.865 -2.75165 1.15441 0
M  V30 6275 C 582.614 -3.44358 -0.480952 0
M  V30 6276 H 581.937 -3.99354 0.18876 0
M  V30 6277 H 583.377 -4.15652 -0.837241 0
M  V30 6278 C 581.836 -2.92574 -1.67039 0
M  V30 6279 O 582.366 -2.90954 -2.76964 0
M  V30 6280 N 580.572 -2.48835 -1.50097 0
M  V30 6281 H 580.119 -2.50353 -0.606738 0
M  V30 6282 H 580.077 -2.14543 -2.29823 0
M  V30 6283 N 583.85 -0.624285 -1.44708 0
M  V30 6284 C 584.798 0.0969952 -2.32398 0
M  V30 6285 C 585.792 0.842762 -1.46949 0
M  V30 6286 O 586.998 0.756436 -1.63334 0
M  V30 6287 H 583.373 0.0501306 -0.750327 0
M  V30 6288 H 585.344 -0.660767 -2.90992 0
M  V30 6289 C 584.093 1.06967 -3.30837 0
M  V30 6290 H 583.416 0.505242 -3.96595 0
M  V30 6291 H 584.856 1.54397 -3.94889 0
M  V30 6292 C 583.315 2.15153 -2.5925 0
M  V30 6293 O 583.845 3.23139 -2.3863 0
M  V30 6294 N 582.051 1.90898 -2.19103 0
M  V30 6295 H 581.598 1.03086 -2.36074 0
M  V30 6296 H 581.556 2.63485 -1.71531 0
M  V30 6297 N 585.328 1.53329 -0.364422 0
M  V30 6298 C 586.577 2.00421 0.226747 0
M  V30 6299 C 586.89 1.25581 1.49963 0
M  V30 6300 O 588.096 1.63256 2.16933 0
M  V30 6301 C 586.552 3.57017 0.454618 0
M  V30 6302 C 586.16 4.40734 -0.803568 0
M  V30 6303 C 587.904 4.12468 1.00351 0
M  V30 6304 C 585.811 5.8888 -0.545345 0
M  V30 6305 H 584.741 0.748787 0.0885082 0
M  V30 6306 H 587.392 1.7703 -0.482983 0
M  V30 6307 H 585.774 3.76558 1.22558 0
M  V30 6308 H 586.948 4.32967 -1.57723 0
M  V30 6309 H 585.263 3.96381 -1.27559 0
M  V30 6310 H 587.86 5.20783 1.212 0
M  V30 6311 H 588.203 3.6699 1.9653 0
M  V30 6312 H 588.736 3.96721 0.29274 0
M  V30 6313 H 585.475 6.38633 -1.47743 0
M  V30 6314 H 584.995 5.99499 0.189842 0
M  V30 6315 H 586.674 6.46776 -0.170425 0
M  V30 6316 N 586.806 0.0935595 1.57322 0
M  V30 6317 C 587.736 -0.863062 2.16964 0
M  V30 6318 C 588.717 -1.29528 1.10256 0
M  V30 6319 O 589.902 -1.36245 1.38387 0
M  V30 6320 C 587.032 -2.12276 2.74875 0
M  V30 6321 C 585.986 -1.82921 3.86942 0
M  V30 6322 C 585.312 -3.15707 4.31548 0
M  V30 6323 C 586.612 -1.11737 5.10208 0
M  V30 6324 H 588.306 -0.366145 2.97153 0
M  V30 6325 H 585.852 -0.174673 1.42937 0
M  V30 6326 H 587.805 -2.79634 3.1525 0
M  V30 6327 H 586.529 -2.64248 1.91938 0
M  V30 6328 H 585.188 -1.17961 3.47103 0
M  V30 6329 H 584.836 -3.65563 3.45504 0
M  V30 6330 H 584.536 -2.96849 5.07104 0
M  V30 6331 H 586.06 -3.84226 4.74555 0
M  V30 6332 H 587.474 -1.69203 5.47762 0
M  V30 6333 H 585.871 -1.03064 5.91183 0
M  V30 6334 H 586.941 -0.0998818 4.84797 0
M  V30 6335 N 588.284 -1.56567 -0.180126 0
M  V30 6336 C 589.531 -1.81492 -0.898167 0
M  V30 6337 C 589.859 -0.669225 -1.82624 0
M  V30 6338 O 589.114 0.344096 -1.92651 0
M  V30 6339 C 589.413 -3.1252 -1.73395 0
M  V30 6340 C 589.079 -4.40658 -0.955567 0
M  V30 6341 C 587.741 -4.75465 -0.740707 0
M  V30 6342 C 590.093 -5.19593 -0.408948 0
M  V30 6343 C 587.421 -5.86691 0.0320128 0
M  V30 6344 C 589.773 -6.31627 0.350638 0
M  V30 6345 C 588.437 -6.65007 0.576378 0
M  V30 6346 H 587.707 -0.664125 -0.328662 0
M  V30 6347 H 590.354 -1.908 -0.163616 0
M  V30 6348 H 588.659 -2.98515 -2.53763 0
M  V30 6349 H 590.356 -3.29013 -2.29241 0
M  V30 6350 H 586.946 -4.13352 -1.13306 0
M  V30 6351 H 591.13 -4.93104 -0.562307 0
M  V30 6352 H 586.386 -6.11016 0.216735 0
M  V30 6353 H 590.56 -6.92001 0.781497 0
M  V30 6354 H 588.187 -7.51033 1.17703 0
M  V30 6355 N 589.762 0.448376 -1.51087 0
M  V30 6356 C 590.692 1.55102 -1.74544 0
M  V30 6357 C 591.673 1.59357 -0.594932 0
M  V30 6358 O 592.858 1.75261 -0.836491 0
M  V30 6359 C 589.988 2.93268 -1.86041 0
M  V30 6360 C 588.942 3.03877 -3.01402 0
M  V30 6361 C 588.268 4.43914 -2.98068 0
M  V30 6362 C 589.568 2.7898 -4.41551 0
M  V30 6363 H 591.262 1.35724 -2.66869 0
M  V30 6364 H 588.808 0.651498 -1.28419 0
M  V30 6365 H 590.761 3.70356 -2.01034 0
M  V30 6366 H 589.485 3.13853 -0.903548 0
M  V30 6367 H 588.144 2.29227 -2.86096 0
M  V30 6368 H 587.792 4.6145 -2.00182 0
M  V30 6369 H 587.492 4.51944 -3.75527 0
M  V30 6370 H 589.016 5.22991 -3.1514 0
M  V30 6371 H 590.43 3.45805 -4.57265 0
M  V30 6372 H 588.827 2.98431 -5.20633 0
M  V30 6373 H 589.897 1.74663 -4.5235 0
M  V30 6374 N 591.24 1.41047 0.703093 0
M  V30 6375 C 592.488 1.39723 1.4602 0
M  V30 6376 C 592.809 0.00461257 1.94999 0
M  V30 6377 O 592.079 -0.952292 1.71196 0
M  V30 6378 H 590.659 0.514281 0.541779 0
M  V30 6379 H 593.321 1.76217 0.832678 0
M  V30 6380 H 592.417 2.07982 2.32701 0
M  V30 6381 N 592.718 -0.936591 1.26751 0
M  V30 6382 C 593.665 -2.03597 1.08706 0
M  V30 6383 C 594.635 -1.66097 -0.00926542 0
M  V30 6384 O 595.82 -1.90199 0.151377 0
M  V30 6385 C 592.96 -3.3727 0.73094 0
M  V30 6386 C 592.073 -3.87778 1.90399 0
M  V30 6387 C 591.208 -5.09859 1.49056 0
M  V30 6388 C 590.247 -5.5264 2.63164 0
M  V30 6389 N 589.384 -6.65921 2.22471 0
M  V30 6390 H 594.224 -2.18364 2.02784 0
M  V30 6391 H 591.761 -1.06985 1.00958 0
M  V30 6392 H 593.719 -4.14128 0.505328 0
M  V30 6393 H 592.349 -3.22337 -0.172868 0
M  V30 6394 H 591.401 -3.07279 2.2424 0
M  V30 6395 H 592.713 -4.15464 2.76028 0
M  V30 6396 H 591.867 -5.9419 1.22567 0
M  V30 6397 H 590.606 -4.8393 0.60524 0
M  V30 6398 H 589.611 -4.66863 2.90377 0
M  V30 6399 H 590.836 -5.80568 3.52303 0
M  V30 6400 H 588.782 -6.41667 1.36379 0
M  V30 6401 H 588.699 -6.93216 3.01641 0
M  V30 6402 H 589.967 -7.53616 1.99205 0
M  V30 6403 N 594.196 -1.08629 -1.14182 0
M  V30 6404 C 595.442 -0.818556 -1.85546 0
M  V30 6405 C 595.775 0.654076 -1.82854 0
M  V30 6406 O 595.05 1.48099 -1.26083 0
M  V30 6407 C 595.333 -1.34397 -3.3408 0
M  V30 6408 C 595.186 -2.8821 -3.45333 0
M  V30 6409 C 596.505 -0.971069 -4.29253 0
M  V30 6410 H 593.624 -0.298821 -0.673702 0
M  V30 6411 H 596.266 -1.34629 -1.34071 0
M  V30 6412 H 594.416 -0.895064 -3.78049 0
M  V30 6413 H 596.088 -3.41488 -3.10134 0
M  V30 6414 H 594.331 -3.25756 -2.86471 0
M  V30 6415 H 595.002 -3.20047 -4.49749 0
M  V30 6416 H 597.478 -1.35809 -3.93313 0
M  V30 6417 H 596.354 -1.36586 -5.31635 0
M  V30 6418 H 596.615 0.121659 -4.41933 0
M  V30 6419 N 595.674 1.31259 -0.872281 0
M  V30 6420 C 596.622 2.30404 -0.318897 0
M  V30 6421 C 597.616 1.5962 0.567267 0
M  V30 6422 O 598.822 1.74204 0.453111 0
M  V30 6423 H 595.197 0.747243 -0.0844474 0
M  V30 6424 H 597.168 2.74549 -1.16899 0
M  V30 6425 C 595.917 3.44608 0.462683 0
M  V30 6426 H 595.24 3.99248 -0.209936 0
M  V30 6427 H 596.68 4.1609 0.815187 0
M  V30 6428 C 595.139 2.93456 1.65485 0
M  V30 6429 O 595.669 2.92418 2.75417 0
M  V30 6430 N 593.875 2.49628 1.48776 0
M  V30 6431 H 593.422 2.50671 0.593452 0
M  V30 6432 H 593.38 2.15759 2.28682 0
M  V30 6433 N 597.152 0.631951 1.44375 0
M  V30 6434 C 598.568 0.297642 1.568 0
M  V30 6435 C 598.768 -1.19916 1.61934 0
M  V30 6436 O 597.824 -1.98324 1.56281 0
M  V30 6437 C 599.137 0.990286 2.83926 0
M  V30 6438 C 600.685 0.968507 2.97639 0
M  V30 6439 C 601.16 1.64163 4.27568 0
M  V30 6440 N 602.651 1.60826 4.34384 0
M  V30 6441 C 603.386 2.09802 5.33639 0
M  V30 6442 N 602.882 2.66973 6.39294 0
M  V30 6443 N 604.675 2.00426 5.25153 0
M  V30 6444 H 596.826 1.60353 1.39286 0
M  V30 6445 H 599.089 0.673142 0.667521 0
M  V30 6446 H 598.795 2.04519 2.8612 0
M  V30 6447 H 598.669 0.528563 3.73478 0
M  V30 6448 H 601.056 -0.0779247 2.94997 0
M  V30 6449 H 601.137 1.46873 2.09433 0
M  V30 6450 H 600.781 2.68752 4.3097 0
M  V30 6451 H 600.711 1.11624 5.14634 0
M  V30 6452 H 603.202 1.19087 3.58646 0
M  V30 6453 H 603.515 3.02074 7.11316 0
M  V30 6454 H 601.86 2.71024 6.39977 0
M  V30 6455 H 605.051 1.55483 4.41523 0
M  V30 6456 H 605.224 2.38906 6.02352 0
M  V30 6457 N 598.631 -1.53133 0.372548 0
M  V30 6458 C 600.042 -1.86404 -0.105155 0
M  V30 6459 C 600.393 -1.29289 -1.47576 0
M  V30 6460 O 599.518 -0.617646 -2.07398 0
M  V30 6461 C 600.113 -3.38223 -0.197588 0
M  V30 6462 C 598.672 -3.71266 -0.619556 0
M  V30 6463 C 597.819 -2.76353 0.228919 0
M  V30 6464 H 600.77 -1.47282 0.591077 0
M  V30 6465 H 600.791 -3.66577 -1.01987 0
M  V30 6466 H 600.303 -3.79763 0.800099 0
M  V30 6467 H 598.404 -3.35287 -1.62522 0
M  V30 6468 H 598.517 -4.77515 -0.389332 0
M  V30 6469 H 596.881 -2.52888 -0.303271 0
M  V30 6470 H 597.664 -3.20728 1.22428 0
M  V30 6471 O 600.148 -0.242051 -1.59676 0
M  V30 6472 H 600.839 0.334494 -1.9079 0
M  V30 END ATOM
M  V30 BEGIN BOND
M  V30 END BOND
M  V30 END CTAB
M  END
$$$$
