drugbank_target|P95780 dTDP-glucose 4,6-dehydratase (DB03161; DB03751)
 OpenBabel12092120233D

  0  0  0     0  0            999 V3000
M  V30 BEGIN CTAB
M  V30 COUNTS 5471 5540 0 0 0
M  V30 BEGIN ATOM
M  V30 1 H -0.908 1.98254 -0.117106 0
M  V30 2 N 0 1.576 0 0
M  V30 3 C 0.933 2.03868 1.02534 0
M  V30 4 C 1.911 0.928543 1.3348 0
M  V30 5 O 3.095 1.19667 1.45644 0
M  V30 6 C 0.222 2.43627 2.35294 0
M  V30 7 C -0.732 3.65373 2.2001 0
M  V30 8 S 0.101 5.13292 1.52614 0
M  V30 9 C 1.257 5.56322 2.86805 0
M  V30 10 H 1.49 2.90518 0.631377 0
M  V30 11 H -0.977 1.52953 0.210867 0
M  V30 12 H 0.981 2.67203 3.11629 0
M  V30 13 H -0.358 1.57376 2.7183 0
M  V30 14 H -1.165 3.90944 3.18086 0
M  V30 15 H -1.563 3.418 1.51819 0
M  V30 16 H 0.729 5.58782 3.83104 0
M  V30 17 H 1.672 6.56266 2.65933 0
M  V30 18 H 2.08 4.83886 2.90714 0
M  V30 19 N 1.4781 -0.272755 1.55222 0
M  V30 20 C 2.7061 -1.02255 1.79865 0
M  V30 21 C 3.1211 -1.79924 0.572088 0
M  V30 22 O 2.4781 -1.76638 -0.458842 0
M  V30 23 C 2.5291 -1.98094 3.02392 0
M  V30 24 O 2.2501 -1.23572 4.20311 0
M  V30 25 C 3.7511 -2.84884 3.39641 0
M  V30 26 H 0.9711 -0.302057 0.599168 0
M  V30 27 H 3.5151 -0.303465 2.02236 0
M  V30 28 H 1.6701 -2.65465 2.82147 0
M  V30 29 H 2.0841 -1.88172 4.89583 0
M  V30 30 H 3.5581 -3.47927 4.28545 0
M  V30 31 H 4.0351 -3.54665 2.59055 0
M  V30 32 H 4.6411 -2.23003 3.62146 0
M  V30 33 N 2.9562 -1.48159 -0.537278 0
M  V30 34 C 3.8662 -1.64807 -1.6696 0
M  V30 35 C 4.8822 -0.530651 -1.65711 0
M  V30 36 O 6.0582 -0.800784 -1.84796 0
M  V30 37 C 3.1232 -1.67708 -3.03438 0
M  V30 38 C 2.1842 -2.91025 -3.156 0
M  V30 39 C 1.4172 -2.93778 -4.45567 0
M  V30 40 O 1.6402 -2.05153 -5.3223 0
M  V30 41 O 0.5742 -3.85868 -4.61941 0
M  V30 42 H 4.4002 -2.6066 -1.55853 0
M  V30 43 H 1.9852 -1.31475 -0.709549 0
M  V30 44 H 3.8672 -1.7218 -3.84619 0
M  V30 45 H 2.5422 -0.750278 -3.14885 0
M  V30 46 H 1.4492 -2.92089 -2.33741 0
M  V30 47 H 2.7822 -3.83065 -3.09066 0
M  V30 48 N 4.4343 0.785586 -1.36625 0
M  V30 49 C 5.6643 1.5722 -1.34036 0
M  V30 50 C 6.0723 1.89033 0.0795062 0
M  V30 51 O 5.4153 1.50881 1.04789 0
M  V30 52 C 5.4773 2.91759 -2.10041 0
M  V30 53 C 5.1413 2.82654 -3.59104 0
M  V30 54 C 6.1383 2.54634 -4.53274 0
M  V30 55 C 3.8233 3.01111 -4.02042 0
M  V30 56 C 5.8173 2.45177 -5.88359 0
M  V30 57 C 3.5043 2.91276 -5.37216 0
M  V30 58 C 4.5023 2.63348 -6.30188 0
M  V30 59 O 4.1903 2.53514 -7.6288 0
M  V30 60 H 3.9223 0.494177 -0.461265 0
M  V30 61 H 6.4763 0.982632 -1.8037 0
M  V30 62 H 4.7063 3.52781 -1.58375 0
M  V30 63 H 6.3953 3.53059 -2.00261 0
M  V30 64 H 7.1613 2.40073 -4.21414 0
M  V30 65 H 3.0403 3.21854 -3.30047 0
M  V30 66 H 6.5843 2.23299 -6.60896 0
M  V30 67 H 2.4813 3.054 -5.68684 0
M  V30 68 H 3.2493 2.68967 -7.73045 0
M  V30 69 N 5.9124 1.20967 1.01018 0
M  V30 70 C 6.8594 0.964281 2.09691 0
M  V30 71 C 7.8294 -0.107853 1.65749 0
M  V30 72 O 9.0144 0.0381987 1.90762 0
M  V30 73 C 6.1544 0.52943 3.41015 0
M  V30 74 C 5.2674 1.67043 3.98398 0
M  V30 75 C 4.4024 1.18525 5.17808 0
M  V30 76 C 3.4414 2.29892 5.67288 0
M  V30 77 N 2.5784 1.82546 6.77954 0
M  V30 78 H 7.4184 1.89463 2.30017 0
M  V30 79 H 4.9554 0.944289 1.1279 0
M  V30 80 H 6.9134 0.258588 4.16398 0
M  V30 81 H 5.5434 -0.363919 3.20742 0
M  V30 82 H 4.5954 2.05603 3.20049 0
M  V30 83 H 5.9074 2.50877 4.31117 0
M  V30 84 H 5.0614 0.870762 6.00419 0
M  V30 85 H 3.8004 0.316887 4.86669 0
M  V30 86 H 2.8054 2.6215 4.83278 0
M  V30 87 H 4.0304 3.17216 6.00459 0
M  V30 88 H 1.9764 0.980454 6.48632 0
M  V30 89 H 1.8934 2.59956 7.09901 0
M  V30 90 H 3.1614 1.54115 7.64113 0
M  V30 91 N 7.3905 -1.2043 1.01659 0
M  V30 92 C 8.3385 -2.25249 0.580143 0
M  V30 93 C 9.3325 -1.65057 -0.381115 0
M  V30 94 O 10.5385 -1.78241 -0.251039 0
M  V30 95 H 6.9135 -0.732695 0.169299 0
M  V30 96 H 8.8845 -2.59389 1.47512 0
M  V30 97 C 7.6335 -3.47638 -0.065788 0
M  V30 98 H 6.9565 -3.94233 0.664874 0
M  V30 99 H 8.3965 -4.2268 -0.334282 0
M  V30 100 C 6.8555 -3.10447 -1.3086 0
M  V30 101 O 7.3855 -3.21981 -2.4019 0
M  V30 102 N 5.5915 -2.64996 -1.1927 0
M  V30 103 H 5.1385 -2.55811 -0.303064 0
M  V30 104 H 5.0965 -2.40482 -2.02523 0
M  V30 105 N 8.8686 -0.792821 -1.36206 0
M  V30 106 C 10.1176 -0.363353 -1.984 0
M  V30 107 C 10.4306 1.07172 -1.63626 0
M  V30 108 O 11.6366 1.60362 -2.19081 0
M  V30 109 C 10.0926 -0.59872 -3.54885 0
M  V30 110 C 9.7006 -2.04543 -3.9858 0
M  V30 111 C 11.4446 -0.233926 -4.23855 0
M  V30 112 C 9.3516 -2.22727 -5.47856 0
M  V30 113 H 8.2816 -0.13212 -0.742334 0
M  V30 114 H 10.9326 -0.974935 -1.55458 0
M  V30 115 H 9.3146 0.0826222 -3.95914 0
M  V30 116 H 10.4886 -2.76345 -3.68741 0
M  V30 117 H 8.8036 -2.36879 -3.42458 0
M  V30 118 H 11.4006 -0.348027 -5.33566 0
M  V30 119 H 11.7436 0.818351 -4.08177 0
M  V30 120 H 12.2766 -0.868639 -3.882 0
M  V30 121 H 9.0156 -3.2635 -5.68486 0
M  V30 122 H 8.5356 -1.55434 -5.7931 0
M  V30 123 H 10.2146 -2.03607 -6.14128 0
M  V30 124 N 10.3467 1.47872 -0.545128 0
M  V30 125 C 11.5957 2.01695 -0.0145033 0
M  V30 126 C 11.9087 1.42609 1.33873 0
M  V30 127 O 13.1147 1.88021 1.95858 0
M  V30 128 C 11.5707 3.59892 0.0245068 0
M  V30 129 C 11.1787 4.27966 -1.32475 0
M  V30 130 C 12.9227 4.21507 0.50316 0
M  V30 131 C 10.8297 5.78136 -1.2455 0
M  V30 132 H 9.7597 0.753998 -0.00165172 0
M  V30 133 H 12.4107 1.69985 -0.691175 0
M  V30 134 H 10.7927 3.88509 0.766575 0
M  V30 135 H 11.9667 4.11003 -2.08357 0
M  V30 136 H 10.2817 3.78286 -1.74036 0
M  V30 137 H 12.8787 5.31538 0.580656 0
M  V30 138 H 13.2217 3.87855 1.51243 0
M  V30 139 H 13.7547 3.97376 -0.183681 0
M  V30 140 H 10.4937 6.16388 -2.23039 0
M  V30 141 H 10.0137 5.97469 -0.528282 0
M  V30 142 H 11.6927 6.40099 -0.942488 0
M  V30 143 N 11.8248 0.280983 1.55075 0
M  V30 144 C 13.0708 -0.33461 2.00021 0
M  V30 145 C 13.4038 -1.55063 1.16915 0
M  V30 146 O 12.6788 -1.93006 0.240646 0
M  V30 147 C 12.9618 -0.711007 3.53011 0
M  V30 148 C 12.8148 0.512766 4.46868 0
M  V30 149 C 14.1338 -1.54522 4.12081 0
M  V30 150 H 11.2528 -0.120147 0.727141 0
M  V30 151 H 13.8948 0.389097 1.85973 0
M  V30 152 H 12.0448 -1.32761 3.65112 0
M  V30 153 H 13.7168 1.15131 4.46702 0
M  V30 154 H 11.9598 1.14975 4.18286 0
M  V30 155 H 12.6308 0.205556 5.51617 0
M  V30 156 H 15.1068 -1.02442 4.03293 0
M  V30 157 H 13.9828 -1.77739 5.19327 0
M  V30 158 H 14.2438 -2.52813 3.62682 0
M  V30 159 N 13.3029 -1.57598 0.00835791 0
M  V30 160 C 14.5309 -1.95214 -0.68549 0
M  V30 161 C 14.9459 -0.883706 -1.66841 0
M  V30 162 O 14.3029 0.136565 -1.81988 0
M  V30 163 C 14.3539 -3.32865 -1.41007 0
M  V30 164 O 14.0749 -4.35609 -0.466552 0
M  V30 165 C 15.5759 -3.84991 -2.19765 0
M  V30 166 H 12.7959 -0.643422 -0.190392 0
M  V30 167 H 15.3399 -2.04406 0.0619607 0
M  V30 168 H 13.4949 -3.24956 -2.10908 0
M  V30 169 H 13.9089 -5.15288 -0.978699 0
M  V30 170 H 15.3829 -4.8371 -2.65948 0
M  V30 171 H 15.8599 -3.18137 -3.02796 0
M  V30 172 H 16.4659 -3.96103 -1.54864 0
M  V30 173 N 14.781 0.264519 -1.55364 0
M  V30 174 C 16.029 0.993021 -1.76021 0
M  V30 175 C 16.35 1.86511 -0.569099 0
M  V30 176 O 15.62 1.91438 0.415735 0
M  V30 177 H 14.2 0.369639 -0.649135 0
M  V30 178 H 16.862 0.286707 -1.9278 0
M  V30 179 H 15.958 1.62502 -2.66457 0
M  V30 180 N 16.2591 1.48442 0.529413 0
M  V30 181 C 17.5071 1.56179 1.28267 0
M  V30 182 C 17.8281 0.237721 1.93546 0
M  V30 183 O 17.0981 -0.740779 1.81354 0
M  V30 184 H 15.6781 0.575367 0.476405 0
M  V30 185 H 18.3401 1.84909 0.61602 0
M  V30 186 H 17.4361 2.34312 2.06165 0
M  V30 187 N 17.7372 -0.778329 1.37039 0
M  V30 188 C 18.7002 -1.87301 1.32102 0
M  V30 189 C 19.7002 -1.59198 0.226405 0
M  V30 190 O 20.8902 -1.67403 0.481861 0
M  V30 191 C 18.0222 -3.24309 1.05055 0
M  V30 192 H 19.2152 -1.93093 2.29467 0
M  V30 193 H 16.7682 -0.977358 1.21973 0
M  V30 194 H 17.5032 -3.24196 0.0819373 0
M  V30 195 H 17.2882 -3.46098 1.84279 0
M  V30 196 H 18.7782 -4.04382 1.04234 0
M  V30 197 N 19.2153 -1.21501 -1.00376 0
M  V30 198 C 20.4633 -1.03095 -1.73827 0
M  V30 199 C 20.7843 0.436341 -1.90055 0
M  V30 200 O 20.0543 1.31466 -1.45236 0
M  V30 201 H 18.6343 -0.378487 -0.644016 0
M  V30 202 H 21.2963 -1.52831 -1.20949 0
M  V30 203 H 20.3923 -1.49991 -2.73695 0
M  V30 204 N 20.6934 1.19889 -1.02296 0
M  V30 205 C 21.9404 1.8942 -0.715972 0
M  V30 206 C 22.2684 1.79251 0.754944 0
M  V30 207 O 21.5234 1.17526 1.56481 0
M  V30 208 C 21.8224 3.39883 -1.10518 0
M  V30 209 C 21.4884 3.70254 -2.57337 0
M  V30 210 C 20.1504 3.78254 -2.97452 0
M  V30 211 C 22.5024 3.84052 -3.52354 0
M  V30 212 C 19.8304 3.97514 -4.31509 0
M  V30 213 C 22.1824 4.04824 -4.86108 0
M  V30 214 C 20.8464 4.11054 -5.25919 0
M  V30 215 H 20.1164 0.693138 -0.261993 0
M  V30 216 H 22.7634 1.42012 -1.28472 0
M  V30 217 H 21.0684 3.8915 -0.454953 0
M  V30 218 H 22.7654 3.9199 -0.845261 0
M  V30 219 H 19.3554 3.64632 -2.25258 0
M  V30 220 H 23.5394 3.77221 -3.22518 0
M  V30 221 H 18.7954 4.00574 -4.61898 0
M  V30 222 H 22.9694 4.14442 -5.59653 0
M  V30 223 H 20.5964 4.2573 -6.29808 0
M  V30 224 N 22.1715 0.800033 1.35784 0
M  V30 225 C 23.4205 0.37387 1.98205 0
M  V30 226 C 23.7335 -1.06302 1.64193 0
M  V30 227 O 24.9395 -1.59198 2.19928 0
M  V30 228 C 23.3955 0.617532 3.54562 0
M  V30 229 C 23.0035 2.06654 3.9749 0
M  V30 230 C 24.7475 0.256401 4.23725 0
M  V30 231 C 22.6545 2.2563 5.46667 0
M  V30 232 H 21.5845 0.136055 0.741623 0
M  V30 233 H 24.2355 0.983166 1.54939 0
M  V30 234 H 22.6175 -0.0616248 3.95952 0
M  V30 235 H 23.7915 2.78296 3.67271 0
M  V30 236 H 22.1065 2.38691 3.41197 0
M  V30 237 H 24.7035 0.376318 5.33374 0
M  V30 238 H 25.0465 -0.796692 4.08606 0
M  V30 239 H 25.5795 0.889214 3.87734 0
M  V30 240 H 22.3185 3.2936 5.66747 0
M  V30 241 H 21.8385 1.58504 5.78478 0
M  V30 242 H 23.5175 2.06861 6.1304 0
M  V30 243 N 23.6496 -1.47581 0.552962 0
M  V30 244 C 24.8976 -2.02082 0.0272703 0
M  V30 245 C 25.2186 -1.4301 -1.32563 0
M  V30 246 O 24.4886 -0.603745 -1.86365 0
M  V30 247 H 23.0686 -0.746966 0.00709182 0
M  V30 248 H 25.7306 -1.81033 0.722008 0
M  V30 249 H 24.8266 -3.12034 -0.0639951 0
M  V30 250 N 25.1277 -0.289203 -1.54924 0
M  V30 251 C 26.3527 0.329299 -2.04769 0
M  V30 252 C 26.7777 1.4763 -1.16564 0
M  V30 253 O 26.1357 1.80527 -0.167186 0
M  V30 254 C 26.1837 0.774438 -3.52186 0
M  V30 255 O 25.2877 1.88038 -3.67036 0
M  V30 256 H 24.6287 0.0659259 -0.660719 0
M  V30 257 H 27.1587 -0.42761 -2.00082 0
M  V30 258 H 27.1687 1.06642 -3.93816 0
M  V30 259 H 25.8437 -0.0646707 -4.1585 0
M  V30 260 H 24.4207 1.58985 -3.3731 0
M  V30 261 N 26.6058 1.57591 -0.0167156 0
M  V30 262 C 27.5538 2.10604 0.987353 0
M  V30 263 C 28.5478 1.02977 1.34507 0
M  V30 264 O 29.7538 1.21425 1.32875 0
M  V30 265 H 26.1288 0.672695 0.336134 0
M  V30 266 H 28.0998 2.93925 0.514817 0
M  V30 267 C 26.8488 2.6382 2.26483 0
M  V30 268 H 26.1718 3.46278 1.99829 0
M  V30 269 H 27.6118 3.04573 2.94977 0
M  V30 270 C 26.0708 1.55992 2.9861 0
M  V30 271 O 26.6008 0.952521 3.90243 0
M  V30 272 N 24.8068 1.28335 2.60727 0
M  V30 273 H 24.3538 1.77914 1.86291 0
M  V30 274 H 24.3118 0.564115 3.09298 0
M  V30 275 N 28.0839 -0.256276 1.55502 0
M  V30 276 C 29.3309 -0.985619 1.76895 0
M  V30 277 C 29.6589 -1.85671 0.579355 0
M  V30 278 O 28.9139 -1.90744 -0.437651 0
M  V30 279 C 29.2129 -1.88432 3.03691 0
M  V30 280 C 28.8789 -1.16936 4.35473 0
M  V30 281 C 27.5409 -0.97173 4.71286 0
M  V30 282 C 29.8929 -0.661889 5.1698 0
M  V30 283 C 27.2209 -0.254179 5.86149 0
M  V30 284 C 29.5729 0.042149 6.32586 0
M  V30 285 C 28.2369 0.25134 6.67027 0
M  V30 286 H 27.5069 -0.360663 0.647304 0
M  V30 287 H 30.1539 -0.256483 1.89775 0
M  V30 288 H 28.4589 -2.68021 2.85783 0
M  V30 289 H 30.1559 -2.45015 3.1744 0
M  V30 290 H 26.7459 -1.33332 4.07333 0
M  V30 291 H 30.9299 -0.802145 4.89775 0
M  V30 292 H 26.1859 -0.0815408 6.11346 0
M  V30 293 H 30.3599 0.443049 6.94989 0
M  V30 294 H 27.9869 0.809314 7.5588 0
M  V30 295 N 29.562 -1.4872 -0.521534 0
M  V30 296 C 30.808 -1.574 -1.27879 0
M  V30 297 C 31.141 -0.250817 -1.92573 0
M  V30 298 O 30.416 0.743934 -1.79711 0
M  V30 299 C 30.699 -2.71843 -2.36164 0
M  V30 300 C 30.552 -4.13893 -1.76105 0
M  V30 301 C 31.871 -2.82008 -3.37875 0
M  V30 302 H 28.99 -0.572941 -0.463581 0
M  V30 303 H 31.632 -1.80927 -0.580119 0
M  V30 304 H 29.782 -2.51914 -2.95756 0
M  V30 305 H 31.454 -4.45284 -1.20499 0
M  V30 306 H 29.697 -4.20498 -1.06601 0
M  V30 307 H 30.368 -4.89804 -2.5455 0
M  V30 308 H 32.844 -3.00086 -2.88249 0
M  V30 309 H 31.72 -3.63796 -4.11028 0
M  V30 310 H 31.981 -1.90511 -3.98946 0
M  V30 311 N 31.0401 0.771051 -1.3745 0
M  V30 312 C 31.9901 1.87456 -1.29785 0
M  V30 313 C 32.9741 1.59827 -0.185541 0
M  V30 314 O 34.1661 1.71945 -0.419997 0
M  V30 315 C 31.2951 3.24935 -1.1078 0
M  V30 316 C 30.3811 3.58514 -2.26558 0
M  V30 317 N 30.7721 3.6327 -3.5195 0
M  V30 318 C 29.0701 3.88683 -2.18727 0
M  V30 319 C 29.7711 3.93616 -4.283 0
M  V30 320 N 28.7471 4.09551 -3.57448 0
M  V30 321 H 32.5491 1.89386 -2.24745 0
M  V30 322 H 30.0631 0.967531 -1.30432 0
M  V30 323 H 32.0601 4.03881 -1.03374 0
M  V30 324 H 30.7201 3.24268 -0.16738 0
M  V30 325 H 31.7311 3.45458 -3.85848 0
M  V30 326 H 28.4081 3.95834 -1.32746 0
M  V30 327 H 29.7981 4.04066 -5.36824 0
M  V30 328 N 32.5182 1.22032 0.997298 0
M  V30 329 C 33.7482 1.06686 1.76923 0
M  V30 330 C 34.1562 -0.385838 1.85224 0
M  V30 331 O 33.4992 -1.27929 1.31833 0
M  V30 332 C 33.5612 1.59802 3.22031 0
M  V30 333 C 33.2252 3.08362 3.37286 0
M  V30 334 C 34.2222 4.05835 3.24952 0
M  V30 335 C 31.9072 3.47727 3.6248 0
M  V30 336 C 33.9012 5.4066 3.37588 0
M  V30 337 C 31.5882 4.82701 3.74757 0
M  V30 338 C 32.5862 5.78977 3.62319 0
M  V30 339 O 32.2742 7.11502 3.74193 0
M  V30 340 H 32.0062 0.374767 0.562606 0
M  V30 341 H 34.5602 1.61991 1.26286 0
M  V30 342 H 32.7902 0.989003 3.73839 0
M  V30 343 H 34.4792 1.40184 3.80924 0
M  V30 344 H 35.2452 3.76766 3.05405 0
M  V30 345 H 31.1242 2.73317 3.7124 0
M  V30 346 H 34.6682 6.15788 3.27796 0
M  V30 347 H 30.5652 5.11453 3.9381 0
M  V30 348 H 31.3332 7.19019 3.91093 0
M  V30 349 N 33.9963 -1.19345 1.0293 0
M  V30 350 C 35.2423 -1.89318 0.727083 0
M  V30 351 C 35.5753 -1.79446 -0.742483 0
M  V30 352 O 34.8503 -1.1871 -1.54072 0
M  V30 353 C 35.1333 -3.40238 1.17942 0
M  V30 354 C 34.9863 -3.58979 2.71024 0
M  V30 355 C 36.3053 -4.33479 0.760548 0
M  V30 356 H 33.4243 -0.687475 0.265606 0
M  V30 357 H 36.0663 -1.40477 1.2793 0
M  V30 358 H 34.2163 -3.81964 0.709608 0
M  V30 359 H 35.8883 -3.26421 3.25955 0
M  V30 360 H 34.1313 -3.02018 3.11396 0
M  V30 361 H 34.8023 -4.64823 2.9773 0
M  V30 362 H 37.2783 -3.99469 1.16464 0
M  V30 363 H 36.1543 -5.37664 1.10493 0
M  V30 364 H 36.4153 -4.40813 -0.337063 0
M  V30 365 N 35.4744 -0.807222 -1.35358 0
M  V30 366 C 36.7044 -0.399796 -2.02695 0
M  V30 367 C 37.1124 0.994176 -1.60974 0
M  V30 368 O 36.4554 1.65209 -0.803226 0
M  V30 369 C 36.5174 -0.404445 -3.57218 0
M  V30 370 C 36.1814 -1.74904 -4.22206 0
M  V30 371 C 37.1784 -2.70743 -4.4384 0
M  V30 372 C 34.8634 -2.03322 -4.5931 0
M  V30 373 C 36.8574 -3.93183 -5.01683 0
M  V30 374 C 34.5444 -3.26026 -5.16866 0
M  V30 375 C 35.5424 -4.20774 -5.37994 0
M  V30 376 O 35.2304 -5.41312 -5.94337 0
M  V30 377 H 34.9624 -0.160517 -0.656666 0
M  V30 378 H 37.5164 -1.09235 -1.73945 0
M  V30 379 H 35.7464 0.344707 -3.85161 0
M  V30 380 H 37.4354 -0.0192429 -4.05895 0
M  V30 381 H 38.2014 -2.5008 -4.15554 0
M  V30 382 H 34.0804 -1.30384 -4.42178 0
M  V30 383 H 37.6244 -4.6715 -5.1809 0
M  V30 384 H 33.5214 -3.46559 -5.44579 0
M  V30 385 H 34.2894 -5.42618 -6.12787 0
M  V30 386 N 36.9525 1.47285 -0.560781 0
M  V30 387 C 37.9005 2.31756 0.197942 0
M  V30 388 C 38.8945 1.43146 0.905854 0
M  V30 389 O 40.1005 1.59891 0.826733 0
M  V30 390 H 36.4755 0.747438 0.0827049 0
M  V30 391 H 38.4465 2.9359 -0.533629 0
M  V30 392 C 37.1955 3.25874 1.21249 0
M  V30 393 H 36.5185 3.94023 0.67719 0
M  V30 394 H 37.9585 3.87803 1.71419 0
M  V30 395 C 36.4175 2.49651 2.26221 0
M  V30 396 O 36.9475 2.24355 3.33208 0
M  V30 397 N 35.1535 2.10597 2.00243 0
M  V30 398 H 34.7005 2.31369 1.13252 0
M  V30 399 H 34.6585 1.59913 2.70694 0
M  V30 400 N 38.4306 0.297415 1.54768 0
M  V30 401 C 39.3786 -0.596051 2.24833 0
M  V30 402 C 40.3726 -1.13992 1.25308 0
M  V30 403 O 41.5786 -1.09098 1.4317 0
M  V30 404 H 37.9536 -0.210814 0.721846 0
M  V30 405 H 39.9246 0.0174667 2.98395 0
M  V30 406 C 38.6736 -1.75818 2.99972 0
M  V30 407 H 37.9966 -1.3489 3.76357 0
M  V30 408 H 39.4366 -2.35949 3.52284 0
M  V30 409 C 37.8956 -2.66014 2.06732 0
M  V30 410 O 38.4256 -3.67009 1.63302 0
M  V30 411 N 36.6316 -2.33669 1.72763 0
M  V30 412 H 36.1786 -1.51586 2.08277 0
M  V30 413 H 36.1366 -2.94285 1.10652 0
M  V30 414 N 39.9087 -1.5758 0.0250728 0
M  V30 415 C 40.8587 -2.06468 -0.967201 0
M  V30 416 C 41.8427 -0.964376 -1.28797 0
M  V30 417 O 43.0347 -1.22797 -1.27475 0
M  V30 418 C 40.1637 -2.59203 -2.25097 0
M  V30 419 C 39.2497 -3.76157 -1.95874 0
M  V30 420 N 39.6407 -4.86919 -1.36905 0
M  V30 421 C 37.9387 -3.84566 -2.25887 0
M  V30 422 C 38.6397 -5.68172 -1.24724 0
M  V30 423 N 37.6157 -5.14953 -1.74138 0
M  V30 424 H 41.4177 -2.89508 -0.506176 0
M  V30 425 H 38.9317 -1.61399 -0.18004 0
M  V30 426 H 40.9287 -2.92517 -2.97052 0
M  V30 427 H 39.5887 -1.77592 -2.71829 0
M  V30 428 H 40.5997 -5.07256 -1.04459 0
M  V30 429 H 37.2767 -3.13854 -2.75321 0
M  V30 430 H 38.6667 -6.67221 -0.791605 0
M  V30 431 N 41.3868 0.248026 -1.55636 0
M  V30 432 C 42.7978 0.817177 -1.67866 0
M  V30 433 C 43.1488 1.86069 -0.622322 0
M  V30 434 O 42.2738 2.15157 0.231618 0
M  V30 435 C 42.8688 1.489 -3.04326 0
M  V30 436 C 41.4278 2.00587 -3.185 0
M  V30 437 C 40.5748 0.856573 -2.63739 0
M  V30 438 H 43.5258 0.0238579 -1.58682 0
M  V30 439 H 43.5468 2.35698 -2.98708 0
M  V30 440 H 43.0588 0.729279 -3.81186 0
M  V30 441 H 41.1598 2.79443 -2.4646 0
M  V30 442 H 41.2728 2.20402 -4.25393 0
M  V30 443 H 39.6368 1.25678 -2.21534 0
M  V30 444 H 40.4198 0.109953 -3.43124 0
M  V30 445 N 42.8649 1.48995 0.513639 0
M  V30 446 C 44.1419 1.48338 1.27495 0
M  V30 447 C 44.5219 0.204065 2.10111 0
M  V30 448 O 43.8699 -0.813881 2.13514 0
M  V30 449 C 44.0799 2.75498 2.14247 0
M  V30 450 C 45.4279 3.24484 2.73852 0
M  V30 451 O 46.4519 2.76528 2.24523 0
M  V30 452 O 45.3109 4.07974 3.6362 0
M  V30 453 H 42.4049 0.593149 0.576284 0
M  V30 454 H 44.9509 1.61246 0.528948 0
M  V30 455 H 43.7229 3.60109 1.53092 0
M  V30 456 H 43.3459 2.6539 2.96064 0
M  V30 457 N 44.343 -0.763751 1.37857 0
M  V30 458 C 45.589 -1.52483 1.33704 0
M  V30 459 C 45.922 -1.94051 -0.0759612 0
M  V30 460 O 45.197 -1.64675 -1.03501 0
M  V30 461 C 45.48 -2.78441 2.28348 0
M  V30 462 C 45.333 -2.43075 3.78463 0
M  V30 463 C 46.652 -3.80415 2.21298 0
M  V30 464 H 43.771 -0.553169 0.487005 0
M  V30 465 H 46.413 -0.875562 1.68624 0
M  V30 466 H 44.563 -3.33842 1.987 0
M  V30 467 H 46.235 -1.93527 4.18742 0
M  V30 468 H 44.478 -1.75666 3.96641 0
M  V30 469 H 45.149 -3.33149 4.40132 0
M  V30 470 H 47.625 -3.34527 2.47449 0
M  V30 471 H 46.501 -4.66257 2.89647 0
M  V30 472 H 46.762 -4.25262 1.20849 0
M  V30 473 N 45.8211 -1.22559 -0.990812 0
M  V30 474 C 46.7711 -0.964807 -2.0658 0
M  V30 475 C 47.7551 0.0853472 -1.60673 0
M  V30 476 O 48.9471 -0.125443 -1.76555 0
M  V30 477 C 46.0761 -0.546707 -3.38919 0
M  V30 478 C 45.1621 -1.6317 -3.91454 0
M  V30 479 N 45.5531 -2.85985 -4.17189 0
M  V30 480 C 43.8511 -1.50387 -4.19881 0
M  V30 481 C 44.5521 -3.56159 -4.59919 0
M  V30 482 N 43.5281 -2.83637 -4.63736 0
M  V30 483 H 47.3301 -1.89769 -2.24421 0
M  V30 484 H 44.8441 -1.12343 -1.17273 0
M  V30 485 H 46.8411 -0.34119 -4.15502 0
M  V30 486 H 45.5011 0.379254 -3.22478 0
M  V30 487 H 46.5121 -3.22392 -4.05319 0
M  V30 488 H 43.1891 -0.644254 -4.12499 0
M  V30 489 H 44.5791 -4.6139 -4.88435 0
M  V30 490 N 47.2992 1.18797 -1.03562 0
M  V30 491 C 48.5452 1.8893 -0.737113 0
M  V30 492 C 48.8782 1.79837 0.732956 0
M  V30 493 O 48.1532 1.19525 1.5344 0
M  V30 494 C 48.4362 3.39607 -1.19745 0
M  V30 495 C 48.2892 3.57537 -2.72924 0
M  V30 496 C 49.6082 4.33069 -0.783526 0
M  V30 497 H 46.7272 0.686057 -0.269249 0
M  V30 498 H 49.3692 1.39797 -1.28673 0
M  V30 499 H 47.5192 3.81583 -0.729855 0
M  V30 500 H 49.1912 3.24688 -3.27682 0
M  V30 501 H 47.4342 3.00363 -3.12993 0
M  V30 502 H 48.1052 4.63238 -3.00191 0
M  V30 503 H 50.5812 3.98846 -1.18581 0
M  V30 504 H 49.4572 5.3707 -1.13343 0
M  V30 505 H 49.7182 4.40986 0.313681 0
M  V30 506 N 48.7773 0.814389 1.34928 0
M  V30 507 C 50.0053 0.411136 2.02774 0
M  V30 508 C 50.4203 -0.980316 1.61354 0
M  V30 509 O 49.7773 -1.63299 0.814847 0
M  V30 510 C 49.8283 0.493865 3.58111 0
M  V30 511 O 49.5493 1.83047 3.98027 0
M  V30 512 C 51.0503 0.0844174 4.4322 0
M  V30 513 H 48.2703 0.166037 0.650133 0
M  V30 514 H 50.8143 1.10018 1.72384 0
M  V30 515 H 48.9693 -0.147006 3.87121 0
M  V30 516 H 49.3833 1.79872 4.92693 0
M  V30 517 H 50.8573 0.193404 5.51661 0
M  V30 518 H 51.3343 -0.97113 4.28329 0
M  V30 519 H 51.9403 0.69875 4.19521 0
M  V30 520 N 50.2554 -1.46986 0.568584 0
M  V30 521 C 51.5014 -2.02741 0.0488709 0
M  V30 522 C 51.8344 -1.44077 -1.30214 0
M  V30 523 O 51.1094 -0.600552 -1.84996 0
M  V30 524 C 51.3924 -3.60086 -0.032047 0
M  V30 525 C 51.2454 -4.29162 1.34686 0
M  V30 526 C 52.5644 -4.33838 -0.739798 0
M  V30 527 H 49.6834 -0.736749 0.0192338 0
M  V30 528 H 52.3254 -1.75289 0.733065 0
M  V30 529 H 50.4754 -3.83606 -0.61473 0
M  V30 530 H 52.1474 -4.16948 1.97362 0
M  V30 531 H 50.3904 -3.89073 1.91846 0
M  V30 532 H 51.0614 -5.37826 1.24285 0
M  V30 533 H 53.5374 -4.15378 -0.244939 0
M  V30 534 H 52.4134 -5.43537 -0.765406 0
M  V30 535 H 52.6744 -4.03875 -1.79827 0
M  V30 536 N 51.7335 -0.305618 -1.54608 0
M  V30 537 C 52.6635 0.561482 -2.26649 0
M  V30 538 C 53.6445 1.13415 -1.26772 0
M  V30 539 O 54.8295 1.16262 -1.55553 0
M  V30 540 C 51.9595 1.73122 -3.01075 0
M  V30 541 C 50.9135 1.2887 -4.08138 0
M  V30 542 C 50.2395 2.54396 -4.70305 0
M  V30 543 C 51.5395 0.416578 -5.20636 0
M  V30 544 H 53.2335 -0.0393902 -2.99374 0
M  V30 545 H 50.7795 -0.020385 -1.43986 0
M  V30 546 H 52.7325 2.34396 -3.50195 0
M  V30 547 H 51.4565 2.3584 -2.25936 0
M  V30 548 H 50.1155 0.698991 -3.59875 0
M  V30 549 H 49.7635 3.15439 -3.918 0
M  V30 550 H 49.4635 2.25486 -5.42614 0
M  V30 551 H 50.9875 3.16464 -5.2219 0
M  V30 552 H 52.4015 0.935116 -5.65622 0
M  V30 553 H 50.7985 0.221046 -5.99693 0
M  V30 554 H 51.8685 -0.557162 -4.81688 0
M  V30 555 N 53.2116 1.57565 -0.0334293 0
M  V30 556 C 54.4886 1.83282 0.683163 0
M  V30 557 C 54.8686 0.91823 1.90084 0
M  V30 558 O 54.2166 -0.025113 2.28486 0
M  V30 559 C 54.4266 3.32599 1.0573 0
M  V30 560 C 55.7746 3.99179 1.44711 0
M  V30 561 O 56.7986 3.3712 1.15015 0
M  V30 562 O 55.6576 5.08565 2.0006 0
M  V30 563 H 52.7516 0.755869 0.335546 0
M  V30 564 H 55.2976 1.69589 -0.0614402 0
M  V30 565 H 54.0696 3.90834 0.190828 0
M  V30 566 H 53.6926 3.51415 1.85993 0
M  V30 567 N 54.6897 -0.239769 1.55765 0
M  V30 568 C 55.6367 -1.29696 1.90913 0
M  V30 569 C 56.6067 -1.47478 0.764164 0
M  V30 570 O 57.7917 -1.61345 1.01845 0
M  V30 571 C 54.9317 -2.64598 2.21544 0
M  V30 572 C 54.0447 -2.54765 3.48882 0
M  V30 573 C 53.1797 -3.82069 3.69049 0
M  V30 574 C 52.2187 -3.66883 4.89963 0
M  V30 575 N 51.3557 -4.86094 5.06614 0
M  V30 576 H 56.1957 -0.990224 2.81067 0
M  V30 577 H 53.7327 -0.477684 1.39128 0
M  V30 578 H 55.6907 -3.43132 2.3731 0
M  V30 579 H 54.3207 -2.93405 1.34585 0
M  V30 580 H 53.3727 -1.67763 3.41409 0
M  V30 581 H 54.6847 -2.39457 4.37563 0
M  V30 582 H 53.8387 -4.69046 3.84812 0
M  V30 583 H 52.5777 -4.00282 2.78614 0
M  V30 584 H 51.5827 -2.78289 4.74168 0
M  V30 585 H 52.8077 -3.50157 5.81865 0
M  V30 586 H 50.7537 -5.04655 4.19117 0
M  V30 587 H 50.6707 -4.73443 5.89396 0
M  V30 588 H 51.9387 -5.74549 5.26795 0
M  V30 589 N 56.1678 -1.49265 -0.50573 0
M  V30 590 C 57.0978 -1.68495 -1.61653 0
M  V30 591 C 58.0788 -0.53366 -1.61512 0
M  V30 592 O 59.2638 -0.76897 -1.78327 0
M  V30 593 C 56.3938 -1.74709 -3.00157 0
M  V30 594 C 55.3478 -2.89581 -3.15162 0
M  V30 595 C 54.6738 -2.80903 -4.5497 0
M  V30 596 C 55.9738 -4.30578 -2.95634 0
M  V30 597 H 57.6678 -2.61493 -1.45814 0
M  V30 598 H 55.2138 -1.25838 -0.70005 0
M  V30 599 H 57.1668 -1.86748 -3.77761 0
M  V30 600 H 55.8908 -0.783067 -3.17074 0
M  V30 601 H 54.5498 -2.77136 -2.39982 0
M  V30 602 H 54.1978 -1.82419 -4.68756 0
M  V30 603 H 53.8978 -3.57999 -4.65951 0
M  V30 604 H 55.4218 -2.94944 -5.34641 0
M  V30 605 H 56.8358 -4.4373 -3.63011 0
M  V30 606 H 55.2328 -5.0886 -3.18091 0
M  V30 607 H 56.3028 -4.45352 -1.91806 0
M  V30 608 N 57.6459 0.756429 -1.3826 0
M  V30 609 C 58.8739 1.54565 -1.3754 0
M  V30 610 C 59.2889 1.88767 0.0355331 0
M  V30 611 O 58.6459 1.52572 1.0014 0
M  V30 612 C 58.6969 2.84654 -2.22833 0
M  V30 613 O 58.4179 2.51912 -3.5843 0
M  V30 614 C 59.9189 3.78807 -2.30261 0
M  V30 615 H 57.1389 0.478353 -0.470553 0
M  V30 616 H 59.6829 0.936381 -1.81803 0
M  V30 617 H 57.8379 3.41965 -1.8204 0
M  V30 618 H 58.2519 3.35325 -4.03308 0
M  V30 619 H 59.7259 4.67045 -2.94233 0
M  V30 620 H 60.2029 4.19038 -1.31545 0
M  V30 621 H 60.8089 3.2742 -2.71433 0
M  V30 622 N 59.124 1.23083 0.984299 0
M  V30 623 C 60.354 1.08556 1.75781 0
M  V30 624 C 60.762 -0.366171 1.85623 0
M  V30 625 O 60.105 -1.26524 1.33182 0
M  V30 626 C 60.167 1.63208 3.20318 0
M  V30 627 C 59.831 3.11922 3.33997 0
M  V30 628 C 60.828 4.09259 3.2063 0
M  V30 629 C 58.513 3.51552 3.58771 0
M  V30 630 C 60.507 5.4421 3.31835 0
M  V30 631 C 58.194 4.86649 3.69616 0
M  V30 632 C 59.192 5.82787 3.56157 0
M  V30 633 O 58.88 7.15431 3.66626 0
M  V30 634 H 58.612 0.380713 0.5586 0
M  V30 635 H 61.166 1.63321 1.2456 0
M  V30 636 H 59.396 1.0286 3.72769 0
M  V30 637 H 61.085 1.44216 3.79416 0
M  V30 638 H 61.851 3.79984 3.01392 0
M  V30 639 H 57.73 2.77239 3.6832 0
M  V30 640 H 61.274 6.1923 3.21247 0
M  V30 641 H 57.171 5.15601 3.88363 0
M  V30 642 H 57.939 7.23127 3.83445 0
M  V30 643 N 60.6021 -1.18246 1.0419 0
M  V30 644 C 61.5651 -2.20128 0.638452 0
M  V30 645 C 62.5651 -1.57885 -0.304805 0
M  V30 646 O 63.7551 -1.73967 -0.0900369 0
M  V30 647 C 60.8871 -3.4084 -0.0637751 0
M  V30 648 H 62.0801 -2.57336 1.54007 0
M  V30 649 H 59.6331 -1.32152 0.834598 0
M  V30 650 H 60.3681 -3.09166 -0.979136 0
M  V30 651 H 60.1531 -3.8726 0.614198 0
M  V30 652 H 61.6431 -4.16274 -0.332512 0
M  V30 653 N 62.0802 -0.821533 -1.34494 0
M  V30 654 C 63.3282 -0.408139 -1.97936 0
M  V30 655 C 63.6492 1.03193 -1.65457 0
M  V30 656 O 62.9192 1.71622 -0.944595 0
M  V30 657 H 61.4992 -0.147928 -0.732206 0
M  V30 658 H 64.1612 -1.05067 -1.64155 0
M  V30 659 H 63.2572 -0.52601 -3.07635 0
M  V30 660 N 63.5583 1.46682 -0.576371 0
M  V30 661 C 64.5063 2.31953 0.17335 0
M  V30 662 C 65.5003 1.44098 0.89062 0
M  V30 663 O 66.7063 1.60759 0.809728 0
M  V30 664 H 63.0813 0.748273 0.0747727 0
M  V30 665 H 65.0523 2.93007 -0.564738 0
M  V30 666 C 63.8013 3.27142 1.17786 0
M  V30 667 H 63.1243 3.94719 0.635361 0
M  V30 668 H 64.5643 3.896 1.67296 0
M  V30 669 C 63.0233 2.52036 2.23561 0
M  V30 670 O 63.5533 2.27877 3.3081 0
M  V30 671 N 61.7593 2.12709 1.97998 0
M  V30 672 H 61.3063 2.32557 1.10792 0
M  V30 673 H 61.2643 1.62776 2.68982 0
M  V30 674 N 65.0364 0.313813 1.54444 0
M  V30 675 C 66.4524 -0.0391619 1.59552 0
M  V30 676 C 66.6524 -1.51322 1.33056 0
M  V30 677 O 65.7084 -2.26782 1.11022 0
M  V30 678 C 67.0214 0.370302 2.98411 0
M  V30 679 C 68.5694 0.320139 3.11358 0
M  V30 680 C 69.0444 0.704617 4.52547 0
M  V30 681 N 70.5354 0.657645 4.58508 0
M  V30 682 C 71.2704 0.927453 5.6585 0
M  V30 683 N 70.7664 1.26389 6.81174 0
M  V30 684 N 72.5594 0.853662 5.5558 0
M  V30 685 H 64.7104 1.27433 1.69925 0
M  V30 686 H 66.9734 0.517511 0.794284 0
M  V30 687 H 66.6794 1.39694 3.22767 0
M  V30 688 H 66.5534 -0.269619 3.76235 0
M  V30 689 H 68.9404 -0.697275 2.86744 0
M  V30 690 H 69.0214 0.99486 2.35661 0
M  V30 691 H 68.6654 1.7199 4.77893 0
M  V30 692 H 68.5954 0.00768843 5.26599 0
M  V30 693 H 71.0864 0.409067 3.75679 0
M  V30 694 H 71.3994 1.4554 7.58972 0
M  V30 695 H 69.7444 1.30206 6.82694 0
M  V30 696 H 72.9354 0.590383 4.64362 0
M  V30 697 H 73.1084 1.0673 6.3915 0
M  V30 698 N 66.5145 -1.57545 0.0417849 0
M  V30 699 C 67.4775 -2.09885 -0.92093 0
M  V30 700 C 68.4775 -1.01648 -1.24596 0
M  V30 701 O 69.6675 -1.27759 -1.1842 0
M  V30 702 C 66.7995 -2.57527 -2.23367 0
M  V30 703 H 67.9925 -2.96236 -0.467382 0
M  V30 704 H 65.5455 -1.5493 -0.206467 0
M  V30 705 H 66.2805 -1.74542 -2.73323 0
M  V30 706 H 66.0655 -3.36613 -2.01083 0
M  V30 707 H 67.5555 -2.98201 -2.92346 0
M  V30 708 N 67.9926 0.231505 -1.5589 0
M  V30 709 C 68.9406 1.30649 -1.92441 0
M  V30 710 C 69.9346 1.49037 -0.805254 0
M  V30 711 O 71.1406 1.50329 -0.990007 0
M  V30 712 H 67.5156 0.437812 -0.611412 0
M  V30 713 H 69.4866 0.970973 -2.82161 0
M  V30 714 C 68.2356 2.65179 -2.24889 0
M  V30 715 H 67.5586 2.51835 -3.10514 0
M  V30 716 H 68.9986 3.39234 -2.54355 0
M  V30 717 C 67.4576 3.19439 -1.07054 0
M  V30 718 O 67.9876 4.00371 -0.326499 0
M  V30 719 N 66.1936 2.77675 -0.85703 0
M  V30 720 H 65.7406 2.11969 -1.46379 0
M  V30 721 H 65.6986 3.14321 -0.0703223 0
M  V30 722 N 69.4707 1.49531 0.497807 0
M  V30 723 C 70.4007 1.6935 1.60757 0
M  V30 724 C 71.3817 0.542218 1.61227 0
M  V30 725 O 72.5667 0.778417 1.77917 0
M  V30 726 C 69.6967 1.76298 2.99226 0
M  V30 727 C 68.6507 2.91248 3.13622 0
M  V30 728 C 67.9767 2.83312 4.53474 0
M  V30 729 C 69.2767 4.3214 2.93346 0
M  V30 730 H 70.9707 2.62263 1.44425 0
M  V30 731 H 68.5167 1.26208 0.693367 0
M  V30 732 H 70.4697 1.88749 3.76765 0
M  V30 733 H 69.1937 0.799871 3.16654 0
M  V30 734 H 67.8527 2.78404 2.38509 0
M  V30 735 H 67.5007 1.84902 4.67782 0
M  V30 736 H 67.2007 3.60465 4.64046 0
M  V30 737 H 68.7247 2.97775 5.33069 0
M  V30 738 H 70.1387 4.45649 3.60652 0
M  V30 739 H 68.5357 5.1054 3.15387 0
M  V30 740 H 69.6057 4.46363 1.89441 0
M  V30 741 N 70.9488 -0.749086 1.3866 0
M  V30 742 C 71.8588 -1.89358 1.38494 0
M  V30 743 C 72.8748 -1.71708 0.281476 0
M  V30 744 O 74.0508 -1.94554 0.520643 0
M  V30 745 C 71.1158 -3.24782 1.21316 0
M  V30 746 C 70.1768 -3.54926 2.41508 0
M  V30 747 C 69.4098 -4.83888 2.2514 0
M  V30 748 O 69.6328 -5.56592 1.24746 0
M  V30 749 O 68.5668 -5.13612 3.13826 0
M  V30 750 H 72.3928 -1.92452 2.34938 0
M  V30 751 H 69.9778 -0.894981 1.19626 0
M  V30 752 H 71.8598 -4.05739 1.13814 0
M  V30 753 H 70.5348 -3.2249 0.279592 0
M  V30 754 H 69.4418 -2.74112 2.54585 0
M  V30 755 H 70.7748 -3.61983 3.3351 0
M  V30 756 N 72.4269 -1.23603 -0.977757 0
M  V30 757 C 73.3369 -1.03632 -2.1047 0
M  V30 758 C 74.3529 0.0199435 -1.73989 0
M  V30 759 O 75.5289 -0.176076 -2.00629 0
M  V30 760 C 72.5939 -0.63276 -3.40877 0
M  V30 761 C 71.6549 -1.76437 -3.91367 0
M  V30 762 C 70.8879 -1.37997 -5.15551 0
M  V30 763 O 71.1109 -0.265357 -5.69782 0
M  V30 764 O 70.0449 -2.20201 -5.60174 0
M  V30 765 H 73.8709 -1.98086 -2.30208 0
M  V30 766 H 71.4559 -1.02332 -1.08851 0
M  V30 767 H 73.3379 -0.418761 -4.19314 0
M  V30 768 H 72.0129 0.282754 -3.22463 0
M  V30 769 H 70.9199 -2.03304 -3.14036 0
M  V30 770 H 72.2529 -2.6583 -4.14241 0
M  V30 771 N 73.905 1.17692 -1.04816 0
M  V30 772 C 75.154 1.87192 -0.751132 0
M  V30 773 C 75.467 1.8169 0.724441 0
M  V30 774 O 76.673 2.46625 1.13527 0
M  V30 775 C 75.129 3.35857 -1.29338 0
M  V30 776 C 74.737 3.4987 -2.79812 0
M  V30 777 C 76.481 4.10709 -1.07322 0
M  V30 778 C 74.388 4.92536 -3.27356 0
M  V30 779 H 73.318 0.701162 -0.277288 0
M  V30 780 H 75.969 1.32932 -1.26496 0
M  V30 781 H 74.351 3.89631 -0.707376 0
M  V30 782 H 75.525 3.06332 -3.44235 0
M  V30 783 H 73.84 2.88433 -3.00325 0
M  V30 784 H 76.437 5.15952 -1.4035 0
M  V30 785 H 76.78 4.16299 -0.0108001 0
M  V30 786 H 77.313 3.6313 -1.62423 0
M  V30 787 H 74.052 4.92119 -4.33012 0
M  V30 788 H 73.572 5.3676 -2.67673 0
M  V30 789 H 75.251 5.61288 -3.21815 0
M  V30 790 N 75.3831 0.828654 1.34056 0
M  V30 791 C 76.3131 0.269443 2.3194 0
M  V30 792 C 77.2941 -0.617247 1.58506 0
M  V30 793 O 78.4791 -0.542931 1.86456 0
M  V30 794 C 75.6091 -0.564793 3.42677 0
M  V30 795 C 74.5631 0.225241 4.27407 0
M  V30 796 C 73.8891 -0.7321 5.29664 0
M  V30 797 C 75.1891 1.43663 5.02154 0
M  V30 798 H 76.8831 1.08728 2.7896 0
M  V30 799 H 74.4291 0.524283 1.34117 0
M  V30 800 H 76.3821 -0.966233 4.10173 0
M  V30 801 H 75.1061 -1.41574 2.9432 0
M  V30 802 H 73.7651 0.608117 3.61521 0
M  V30 803 H 73.4131 -1.57916 4.77568 0
M  V30 804 H 73.1131 -0.20767 5.87233 0
M  V30 805 H 74.6371 -1.13128 6.00029 0
M  V30 806 H 76.0511 1.1089 5.62473 0
M  V30 807 H 74.4481 1.89711 5.69324 0
M  V30 808 H 75.5181 2.21181 4.31517 0
M  V30 809 N 76.8612 -1.46375 0.584142 0
M  V30 810 C 78.1092 -2.01978 0.0701287 0
M  V30 811 C 78.4302 -1.4579 -1.295 0
M  V30 812 O 77.7002 -0.64314 -1.85042 0
M  V30 813 H 76.2802 -0.746648 0.0229345 0
M  V30 814 H 78.9422 -1.79461 0.760245 0
M  V30 815 H 78.0382 -3.121 0.0022064 0
M  V30 816 N 78.3393 -0.321999 -1.54275 0
M  V30 817 C 79.6163 0.335232 -1.92706 0
M  V30 818 C 79.9963 1.70006 -1.25145 0
M  V30 819 O 79.3443 2.25067 -0.394596 0
M  V30 820 C 79.5543 0.429008 -3.46353 0
M  V30 821 C 80.9023 0.690029 -4.18956 0
M  V30 822 O 81.9263 0.511992 -3.52501 0
M  V30 823 O 80.7853 1.03338 -5.36641 0
M  V30 824 H 77.8793 0.191143 -0.804608 0
M  V30 825 H 80.4253 -0.3716 -1.65581 0
M  V30 826 H 79.1973 -0.529611 -3.87699 0
M  V30 827 H 78.8203 1.18348 -3.79578 0
M  V30 828 N 79.8174 1.5752 -0.0501392 0
M  V30 829 C 81.2334 1.56631 0.306402 0
M  V30 830 C 81.4334 1.0577 1.71508 0
M  V30 831 O 80.4894 0.713837 2.422 0
M  V30 832 C 81.8024 3.00393 0.135811 0
M  V30 833 C 83.3504 3.12315 0.206993 0
M  V30 834 C 83.8254 4.57954 0.064944 0
M  V30 835 N 85.3164 4.63041 0.121254 0
M  V30 836 C 86.0514 5.73389 0.0354381 0
M  V30 837 N 85.5474 6.92724 -0.102666 0
M  V30 838 N 87.3404 5.62026 0.090946 0
M  V30 839 H 79.4914 1.88903 -0.971046 0
M  V30 840 H 81.7544 0.869876 -0.376855 0
M  V30 841 H 81.4604 3.41635 -0.835384 0
M  V30 842 H 81.3344 3.66373 0.897275 0
M  V30 843 H 83.7214 2.70973 1.16866 0
M  V30 844 H 83.8024 2.49016 -0.585208 0
M  V30 845 H 83.4464 4.99981 -0.893394 0
M  V30 846 H 83.3764 5.19258 0.876277 0
M  V30 847 H 85.8674 3.77216 0.227284 0
M  V30 848 H 86.1804 7.72633 -0.160882 0
M  V30 849 H 84.5254 6.94864 -0.137737 0
M  V30 850 H 87.7164 4.67684 0.197388 0
M  V30 851 H 87.8894 6.47997 0.0206089 0
M  V30 852 N 81.2955 -0.223234 1.56011 0
M  V30 853 C 82.5415 -0.949279 1.79211 0
M  V30 854 C 82.8745 -1.84054 0.619494 0
M  V30 855 O 82.1495 -1.90726 -0.381317 0
M  V30 856 C 82.4325 -1.78965 3.12479 0
M  V30 857 C 82.2855 -0.924997 4.40186 0
M  V30 858 C 83.6045 -2.76774 3.42175 0
M  V30 859 H 80.7235 -0.343676 0.651963 0
M  V30 860 H 83.3655 -0.218253 1.88742 0
M  V30 861 H 81.5155 -2.41291 3.04485 0
M  V30 862 H 83.1875 -0.318615 4.60198 0
M  V30 863 H 81.4305 -0.230344 4.33188 0
M  V30 864 H 82.1015 -1.54735 5.29869 0
M  V30 865 H 84.5775 -2.24584 3.50287 0
M  V30 866 H 83.4535 -3.32678 4.36597 0
M  V30 867 H 83.7145 -3.54429 2.64258 0
M  V30 868 N 82.7736 -1.49793 -0.48987 0
M  V30 869 C 83.6836 -1.70036 -1.61632 0
M  V30 870 C 84.6996 -0.583102 -1.63939 0
M  V30 871 O 85.8756 -0.859169 -1.82154 0
M  V30 872 C 82.9406 -1.77277 -2.97949 0
M  V30 873 C 82.0016 -3.00918 -3.06181 0
M  V30 874 C 81.2346 -3.07804 -4.35996 0
M  V30 875 O 81.4576 -2.21982 -5.25433 0
M  V30 876 O 80.3916 -4.00369 -4.49431 0
M  V30 877 H 84.2176 -2.65486 -1.47482 0
M  V30 878 H 81.8026 -1.33666 -0.667362 0
M  V30 879 H 83.6846 -1.84329 -3.78947 0
M  V30 880 H 82.3596 -0.850076 -3.12339 0
M  V30 881 H 81.2666 -2.99377 -2.2433 0
M  V30 882 H 82.5996 -3.92704 -2.96723 0
M  V30 883 N 84.2517 0.741722 -1.39055 0
M  V30 884 C 85.1817 1.869 -1.39966 0
M  V30 885 C 86.1627 1.6804 -0.26392 0
M  V30 886 O 87.3477 1.88458 -0.468755 0
M  V30 887 C 84.4777 3.24572 -1.23574 0
M  V30 888 C 83.4317 3.58056 -2.34477 0
M  V30 889 C 82.7577 4.94593 -2.0318 0
M  V30 890 C 84.0577 3.61716 -3.76774 0
M  V30 891 H 85.7517 1.86395 -2.34302 0
M  V30 892 H 83.2977 0.895361 -1.1278 0
M  V30 893 H 85.2507 4.031 -1.22834 0
M  V30 894 H 83.9747 3.25587 -0.257045 0
M  V30 895 H 82.6337 2.81854 -2.34423 0
M  V30 896 H 82.2817 4.92181 -1.03765 0
M  V30 897 H 81.9817 5.17964 -2.77465 0
M  V30 898 H 83.5057 5.75486 -2.04079 0
M  V30 899 H 84.9197 4.30335 -3.78794 0
M  V30 900 H 83.3167 3.96603 -4.50362 0
M  V30 901 H 84.3867 2.61672 -4.08235 0
M  V30 902 N 85.7298 1.2412 0.971189 0
M  V30 903 C 86.9758 1.08041 1.71625 0
M  V30 904 C 87.3088 -0.380407 1.90438 0
M  V30 905 O 86.5838 -1.28127 1.46334 0
M  V30 906 C 86.8668 1.81682 3.10908 0
M  V30 907 C 86.7198 3.35493 2.99608 0
M  V30 908 C 88.0388 1.58671 4.10501 0
M  V30 909 H 85.1578 0.39388 0.622919 0
M  V30 910 H 87.7998 1.52743 1.13003 0
M  V30 911 H 85.9498 1.43684 3.60953 0
M  V30 912 H 87.6218 3.83068 2.57015 0
M  V30 913 H 85.8648 3.64052 2.35899 0
M  V30 914 H 86.5358 3.82217 3.98264 0
M  V30 915 H 89.0118 1.91719 3.69301 0
M  V30 916 H 87.8878 2.1266 5.06031 0
M  V30 917 H 88.1488 0.524161 4.38982 0
M  V30 918 N 87.2079 -1.17134 1.05439 0
M  V30 919 C 88.4539 -1.87733 0.767077 0
M  V30 920 C 88.7869 -1.8098 -0.704253 0
M  V30 921 O 88.0619 -1.21951 -1.5152 0
M  V30 922 C 88.3449 -3.37659 1.25133 0
M  V30 923 C 88.1979 -3.53149 2.78578 0
M  V30 924 C 89.5169 -4.31768 0.852324 0
M  V30 925 H 86.6359 -0.681687 0.280129 0
M  V30 926 H 89.2779 -1.37732 1.30881 0
M  V30 927 H 87.4279 -3.80373 0.790469 0
M  V30 928 H 89.0999 -3.19434 3.32806 0
M  V30 929 H 87.3429 -2.95345 3.17732 0
M  V30 930 H 88.0139 -4.58403 3.07523 0
M  V30 931 H 90.4899 -3.96909 1.24911 0
M  V30 932 H 89.3659 -5.35199 1.21873 0
M  V30 933 H 89.6269 -4.41429 -0.243485 0
M  V30 934 N 88.686 -0.835752 -1.33615 0
M  V30 935 C 89.934 -0.429109 -1.97492 0
M  V30 936 C 90.255 1.01433 -1.66543 0
M  V30 937 O 89.525 1.70611 -0.962744 0
M  V30 938 H 88.105 -0.155686 -0.730596 0
M  V30 939 H 90.767 -1.06802 -1.63031 0
M  V30 940 H 89.863 -0.55861 -3.0706 0
M  V30 941 N 90.1641 1.46063 -0.591896 0
M  V30 942 C 91.4411 1.95595 -0.0137119 0
M  V30 943 C 91.8211 1.5345 1.4497 0
M  V30 944 O 91.1691 0.789543 2.14426 0
M  V30 945 C 91.3791 3.48453 -0.195373 0
M  V30 946 C 92.7271 4.24546 -0.0679765 0
M  V30 947 O 93.7511 3.55982 -0.124681 0
M  V30 948 O 92.6101 5.46467 0.0600579 0
M  V30 949 H 89.7041 0.825795 0.0446279 0
M  V30 950 H 92.2501 1.56303 -0.660859 0
M  V30 951 H 91.0221 3.72045 -1.21235 0
M  V30 952 H 90.6451 3.94597 0.487775 0
M  V30 953 N 91.6422 0.330177 1.54103 0
M  V30 954 C 92.8912 -0.271336 1.99867 0
M  V30 955 C 93.2042 -1.52723 1.22209 0
M  V30 956 O 94.4102 -2.20515 1.58383 0
M  V30 957 C 92.8662 -0.534032 3.55916 0
M  V30 958 C 92.4742 0.705193 4.42415 0
M  V30 959 C 94.2182 -1.09514 4.1013 0
M  V30 960 C 92.1252 0.414035 5.89949 0
M  V30 961 H 91.0552 -0.105166 0.74663 0
M  V30 962 H 93.7062 0.443429 1.78062 0
M  V30 963 H 92.0882 -1.30915 3.73734 0
M  V30 964 H 93.2622 1.4804 4.36372 0
M  V30 965 H 91.5772 1.18698 3.99124 0
M  V30 966 H 94.1742 -1.3277 5.17954 0
M  V30 967 H 94.5172 -2.04656 3.62521 0
M  V30 968 H 95.0502 -0.381038 3.95971 0
M  V30 969 H 91.7892 1.33481 6.41766 0
M  V30 970 H 91.3092 -0.323336 5.98928 0
M  V30 971 H 92.9882 0.0263105 6.46995 0
M  V30 972 N 93.1203 -1.57491 0.0584922 0
M  V30 973 C 94.0833 -2.1085 -0.898617 0
M  V30 974 C 95.0833 -1.02964 -1.23511 0
M  V30 975 O 96.2733 -1.29007 -1.17059 0
M  V30 976 C 93.4053 -2.59881 -2.20623 0
M  V30 977 H 94.5983 -2.96715 -0.435936 0
M  V30 978 H 92.1513 -1.55141 -0.190023 0
M  V30 979 H 92.8863 -1.77431 -2.71457 0
M  V30 980 H 92.6713 -3.38727 -1.97501 0
M  V30 981 H 94.1613 -3.01285 -2.89166 0
M  V30 982 N 94.5984 0.214957 -1.56127 0
M  V30 983 C 95.8754 0.963093 -1.70247 0
M  V30 984 C 96.2554 2.02166 -0.60764 0
M  V30 985 O 95.6034 2.25244 0.384385 0
M  V30 986 C 95.8134 1.56756 -3.11815 0
M  V30 987 C 97.1614 2.0573 -3.7143 0
M  V30 988 O 98.1854 1.66637 -3.14818 0
M  V30 989 O 97.0444 2.77603 -4.70743 0
M  V30 990 H 94.1384 0.450321 -0.693643 0
M  V30 991 H 96.6844 0.206219 -1.68442 0
M  V30 992 H 95.4564 0.803533 -3.82961 0
M  V30 993 H 95.0794 2.3898 -3.17765 0
M  V30 994 N 96.0765 1.50051 0.48192 0
M  V30 995 C 97.3015 1.64508 1.26301 0
M  V30 996 C 97.7265 0.323851 1.85291 0
M  V30 997 O 97.0845 -0.710969 1.66778 0
M  V30 998 C 97.1325 2.7305 2.35533 0
M  V30 999 O 96.2365 2.3355 3.39895 0
M  V30 1000 H 95.5775 0.549978 0.372048 0
M  V30 1001 H 98.1075 1.9636 0.574786 0
M  V30 1002 H 98.1175 2.95799 2.8101 0
M  V30 1003 H 96.7925 3.68946 1.91967 0
M  V30 1004 H 95.3695 2.21205 3.00204 0
M  V30 1005 N 97.5546 -0.734337 1.39446 0
M  V30 1006 C 98.4646 -1.87879 1.40495 0
M  V30 1007 C 99.4806 -1.714 0.299672 0
M  V30 1008 O 100.657 -1.93991 0.541249 0
M  V30 1009 C 97.7216 -3.23477 1.24754 0
M  V30 1010 C 96.7826 -3.52344 2.45259 0
M  V30 1011 C 96.0156 -4.81473 2.30259 0
M  V30 1012 O 96.2386 -5.55237 1.30643 0
M  V30 1013 O 95.1726 -5.10254 3.19256 0
M  V30 1014 H 98.9986 -1.89949 2.36966 0
M  V30 1015 H 96.5836 -0.882243 1.20569 0
M  V30 1016 H 98.4656 -4.04509 1.18111 0
M  V30 1017 H 97.1406 -3.22176 0.313781 0
M  V30 1018 H 96.0476 -2.71396 2.57478 0
M  V30 1019 H 97.3806 -3.58426 3.37331 0
M  V30 1020 N 99.0327 -1.24633 -0.964593 0
M  V30 1021 C 99.9627 -1.06611 -2.07741 0
M  V30 1022 C 100.944 0.0218666 -1.70086 0
M  V30 1023 O 102.129 -0.145793 -1.93652 0
M  V30 1024 C 99.2587 -0.673444 -3.40708 0
M  V30 1025 C 98.2127 -1.71054 -3.92332 0
M  V30 1026 C 97.5387 -1.17285 -5.21678 0
M  V30 1027 C 98.8387 -3.10718 -4.19824 0
M  V30 1028 H 100.533 -1.99693 -2.23076 0
M  V30 1029 H 98.0787 -0.96152 -1.07195 0
M  V30 1030 H 100.032 -0.534345 -4.17998 0
M  V30 1031 H 98.7557 0.293073 -3.25282 0
M  V30 1032 H 97.4147 -1.83791 -3.17201 0
M  V30 1033 H 97.0627 -0.196847 -5.02615 0
M  V30 1034 H 96.7627 -1.86592 -5.57187 0
M  V30 1035 H 98.2867 -1.04593 -6.01575 0
M  V30 1036 H 99.7007 -3.01192 -4.87808 0
M  V30 1037 H 98.0977 -3.77406 -4.66567 0
M  V30 1038 H 99.1677 -3.58524 -3.26479 0
M  V30 1039 N 100.511 1.16574 -1.06058 0
M  V30 1040 C 101.757 1.87324 -0.777022 0
M  V30 1041 C 102.09 1.81351 0.694645 0
M  V30 1042 O 101.365 1.22753 1.50871 0
M  V30 1043 C 101.648 3.36991 -1.26922 0
M  V30 1044 C 101.501 3.51667 -2.80447 0
M  V30 1045 C 102.82 4.3131 -0.87521 0
M  V30 1046 H 99.9388 0.680191 -0.28374 0
M  V30 1047 H 102.581 1.37036 -1.3161 0
M  V30 1048 H 100.731 3.79949 -0.81063 0
M  V30 1049 H 102.403 3.17664 -3.34495 0
M  V30 1050 H 100.646 2.93656 -3.19294 0
M  V30 1051 H 101.317 4.56766 -3.0995 0
M  V30 1052 H 103.793 3.9624 -1.27014 0
M  V30 1053 H 102.669 5.34545 -1.2471 0
M  V30 1054 H 102.93 4.41552 0.220071 0
M  V30 1055 N 101.989 0.842826 1.3317 0
M  V30 1056 C 103.266 0.362216 1.92217 0
M  V30 1057 C 103.646 -1.15289 1.76838 0
M  V30 1058 O 102.994 -1.96914 1.15919 0
M  V30 1059 C 103.204 0.813495 3.39387 0
M  V30 1060 C 104.552 0.823804 4.16532 0
M  V30 1061 O 105.576 0.757358 3.48055 0
M  V30 1062 O 104.435 0.915193 5.38782 0
M  V30 1063 H 101.529 0.103317 0.820521 0
M  V30 1064 H 104.075 0.928942 1.42017 0
M  V30 1065 H 102.847 1.85624 3.4447 0
M  V30 1066 H 102.47 0.223561 3.96971 0
M  V30 1067 N 103.467 -1.45747 0.599634 0
M  V30 1068 C 104.414 -2.30467 -0.123849 0
M  V30 1069 C 105.384 -1.41632 -0.86774 0
M  V30 1070 O 106.569 -1.70568 -0.855056 0
M  V30 1071 C 103.709 -3.26402 -1.12051 0
M  V30 1072 C 102.822 -4.3034 -0.37832 0
M  V30 1073 C 101.957 -5.13389 -1.364 0
M  V30 1074 C 100.996 -6.09061 -0.609171 0
M  V30 1075 N 100.133 -6.84918 -1.54374 0
M  V30 1076 H 104.973 -2.91802 0.604627 0
M  V30 1077 H 102.51 -1.43797 0.309972 0
M  V30 1078 H 104.468 -3.80482 -1.7114 0
M  V30 1079 H 103.098 -2.66839 -1.8165 0
M  V30 1080 H 102.15 -3.78984 0.327929 0
M  V30 1081 H 103.462 -4.98354 0.210997 0
M  V30 1082 H 102.616 -5.7183 -2.02719 0
M  V30 1083 H 101.355 -4.45376 -1.98725 0
M  V30 1084 H 100.36 -5.49758 0.0676979 0
M  V30 1085 H 101.585 -6.79099 0.00891991 0
M  V30 1086 H 99.531 -6.19601 -2.15478 0
M  V30 1087 H 99.448 -7.49254 -1.00766 0
M  V30 1088 H 100.716 -7.47906 -2.19676 0
M  V30 1089 N 104.945 -0.338344 -1.53925 0
M  V30 1090 C 105.875 0.51328 -2.27789 0
M  V30 1091 C 106.856 1.107 -1.29149 0
M  V30 1092 O 108.041 1.12937 -1.57984 0
M  V30 1093 C 105.171 1.66697 -3.04679 0
M  V30 1094 C 104.125 1.20183 -4.1078 0
M  V30 1095 C 103.451 2.44363 -4.75595 0
M  V30 1096 C 104.751 0.30605 -5.21403 0
M  V30 1097 H 106.445 -0.102883 -2.99223 0
M  V30 1098 H 103.991 -0.0509219 -1.4391 0
M  V30 1099 H 105.944 2.26915 -3.55088 0
M  V30 1100 H 104.668 2.30995 -2.30887 0
M  V30 1101 H 103.327 0.622499 -3.61276 0
M  V30 1102 H 102.975 3.07057 -3.98403 0
M  V30 1103 H 102.675 2.13925 -5.47275 0
M  V30 1104 H 104.199 3.05317 -5.28786 0
M  V30 1105 H 105.613 0.814929 -5.67478 0
M  V30 1106 H 104.01 0.0937929 -6.00027 0
M  V30 1107 H 105.08 -0.65921 -4.80398 0
M  V30 1108 N 106.423 1.57458 -0.0668435 0
M  V30 1109 C 107.386 2.11323 0.887422 0
M  V30 1110 C 108.386 1.03618 1.22964 0
M  V30 1111 O 109.576 1.29626 1.16373 0
M  V30 1112 C 106.708 2.61048 2.19242 0
M  V30 1113 H 107.901 2.96942 0.420194 0
M  V30 1114 H 105.454 1.55239 0.181793 0
M  V30 1115 H 106.189 1.78868 2.70512 0
M  V30 1116 H 105.974 3.39769 1.95702 0
M  V30 1117 H 107.464 3.02814 2.87565 0
M  V30 1118 N 107.901 -0.206675 1.56239 0
M  V30 1119 C 108.864 -1.23976 1.92776 0
M  V30 1120 C 109.864 -1.39041 0.807729 0
M  V30 1121 O 111.054 -1.37051 1.0753 0
M  V30 1122 C 108.186 -2.61112 2.19165 0
M  V30 1123 H 109.379 -0.927764 2.85189 0
M  V30 1124 H 106.932 -0.447718 1.4975 0
M  V30 1125 H 107.667 -2.97386 1.29352 0
M  V30 1126 H 107.452 -2.51552 3.00772 0
M  V30 1127 H 108.942 -3.35633 2.48476 0
M  V30 1128 N 109.379 -1.50304 -0.473955 0
M  V30 1129 C 110.326 -1.68959 -1.57231 0
M  V30 1130 C 111.296 -0.530899 -1.57387 0
M  V30 1131 O 112.481 -0.761133 -1.74961 0
M  V30 1132 C 109.621 -1.7871 -2.95223 0
M  V30 1133 C 108.734 -3.06061 -3.04878 0
M  V30 1134 C 107.869 -3.06626 -4.33767 0
M  V30 1135 C 106.908 -4.28443 -4.37154 0
M  V30 1136 N 106.045 -4.26763 -5.5751 0
M  V30 1137 H 110.885 -2.6273 -1.40631 0
M  V30 1138 H 108.422 -1.30241 -0.683789 0
M  V30 1139 H 110.38 -1.82344 -3.75242 0
M  V30 1140 H 109.01 -0.883806 -3.10465 0
M  V30 1141 H 108.062 -3.11911 -2.17751 0
M  V30 1142 H 109.374 -3.96039 -3.0324 0
M  V30 1143 H 108.528 -3.08973 -5.22131 0
M  V30 1144 H 107.267 -2.14473 -4.3801 0
M  V30 1145 H 106.272 -4.2631 -3.47188 0
M  V30 1146 H 107.497 -5.2182 -4.34605 0
M  V30 1147 H 105.443 -3.37462 -5.62544 0
M  V30 1148 H 105.36 -5.10507 -5.57601 0
M  V30 1149 H 106.628 -4.33253 -6.48006 0
M  V30 1150 N 110.857 0.726932 -1.39834 0
M  V30 1151 C 111.82 1.82269 -1.38962 0
M  V30 1152 C 112.82 1.58248 -0.285334 0
M  V30 1153 O 114.01 1.65499 -0.54366 0
M  V30 1154 C 111.142 3.20186 -1.17019 0
M  V30 1155 H 112.335 1.84443 -2.36476 0
M  V30 1156 H 109.888 0.931416 -1.25516 0
M  V30 1157 H 110.623 3.23669 -0.202204 0
M  V30 1158 H 110.408 3.3902 -1.96998 0
M  V30 1159 H 111.898 4.00235 -1.1917 0
M  V30 1160 N 112.336 1.25143 0.95797 0
M  V30 1161 C 113.613 1.00472 1.67823 0
M  V30 1162 C 113.993 -0.470056 2.058 0
M  V30 1163 O 113.341 -1.44663 1.76875 0
M  V30 1164 C 113.551 1.9372 2.90299 0
M  V30 1165 C 114.899 2.21371 3.62326 0
M  V30 1166 O 115.923 1.91451 3.00375 0
M  V30 1167 O 114.782 2.72231 4.7387 0
M  V30 1168 H 111.876 0.380752 0.734137 0
M  V30 1169 H 114.422 1.36283 1.01119 0
M  V30 1170 H 113.194 2.93316 2.59001 0
M  V30 1171 H 112.817 1.58286 3.64735 0
M  V30 1172 N 113.814 -1.1601 1.06675 0
M  V30 1173 C 114.777 -2.18724 0.685001 0
M  V30 1174 C 115.777 -1.58496 -0.271246 0
M  V30 1175 O 116.967 -1.74119 -0.0531156 0
M  V30 1176 C 114.099 -3.40899 0.00853648 0
M  V30 1177 H 115.292 -2.54011 1.59431 0
M  V30 1178 H 112.845 -1.30352 0.862441 0
M  V30 1179 H 113.58 -3.11173 -0.913337 0
M  V30 1180 H 113.365 -3.8587 0.696204 0
M  V30 1181 H 114.855 -4.16886 -0.24414 0
M  V30 1182 N 115.292 -0.849877 -1.32721 0
M  V30 1183 C 116.541 -0.447175 -1.96681 0
M  V30 1184 C 116.854 1.00135 -1.68025 0
M  V30 1185 O 118.06 1.50926 -2.25685 0
M  V30 1186 C 116.516 -0.7487 -3.52026 0
M  V30 1187 C 116.124 -2.21264 -3.89546 0
M  V30 1188 C 117.868 -0.413487 -4.22481 0
M  V30 1189 C 115.775 -2.45763 -5.37917 0
M  V30 1190 H 114.705 -0.163486 -0.736063 0
M  V30 1191 H 117.356 -1.03999 -1.51183 0
M  V30 1192 H 115.738 -0.0853727 -3.95908 0
M  V30 1193 H 116.912 -2.91736 -3.56689 0
M  V30 1194 H 115.227 -2.5119 -3.32103 0
M  V30 1195 H 117.824 -0.574017 -5.3161 0
M  V30 1196 H 118.167 0.644492 -4.11281 0
M  V30 1197 H 118.7 -1.03251 -3.84167 0
M  V30 1198 H 115.439 -3.50168 -5.54132 0
M  V30 1199 H 114.959 -1.79864 -5.72197 0
M  V30 1200 H 116.638 -2.29471 -6.0494 0
M  V30 1201 N 116.77 1.45427 -0.607355 0
M  V30 1202 C 118.016 2.0254 -0.102607 0
M  V30 1203 C 118.349 1.47478 1.26348 0
M  V30 1204 O 117.624 0.64939 1.83339 0
M  V30 1205 C 117.907 3.60044 -0.0634347 0
M  V30 1206 C 117.76 4.2544 -1.46017 0
M  V30 1207 C 119.079 4.35646 0.624514 0
M  V30 1208 H 116.198 0.73598 -0.0387607 0
M  V30 1209 H 118.84 1.73284 -0.779282 0
M  V30 1210 H 116.99 3.85101 0.512808 0
M  V30 1211 H 118.662 4.11569 -2.08347 0
M  V30 1212 H 116.905 3.83849 -2.02094 0
M  V30 1213 H 117.576 5.34342 -1.385 0
M  V30 1214 H 120.052 4.15882 0.134723 0
M  V30 1215 H 118.928 5.45376 0.621028 0
M  V30 1216 H 119.189 4.08501 1.69055 0
M  V30 1217 N 118.248 0.346503 1.53744 0
M  V30 1218 C 119.198 -0.524953 2.21874 0
M  V30 1219 C 120.182 -1.06376 1.20718 0
M  V30 1220 O 121.374 -0.996972 1.46251 0
M  V30 1221 C 118.503 -1.6739 2.99726 0
M  V30 1222 C 117.589 -1.14888 4.08242 0
M  V30 1223 N 117.98 -0.345329 5.0462 0
M  V30 1224 C 116.278 -1.4255 4.22606 0
M  V30 1225 C 116.979 -0.0600706 5.81669 0
M  V30 1226 N 115.955 -0.65252 5.39669 0
M  V30 1227 H 119.757 0.0960091 2.93743 0
M  V30 1228 H 117.271 0.15352 1.61673 0
M  V30 1229 H 119.268 -2.3102 3.47038 0
M  V30 1230 H 117.928 -2.29811 2.29384 0
M  V30 1231 H 118.939 0.0138439 5.17898 0
M  V30 1232 H 115.616 -2.05389 3.63486 0
M  V30 1233 H 117.006 0.588321 6.69319 0
M  V30 1234 N 119.726 -1.57421 0.075193 0
M  V30 1235 C 120.956 -1.97659 -0.601203 0
M  V30 1236 C 121.364 -0.952427 -1.63479 0
M  V30 1237 O 120.707 0.0688241 -1.83571 0
M  V30 1238 C 120.769 -3.34218 -1.32434 0
M  V30 1239 C 120.433 -4.5484 -0.443826 0
M  V30 1240 C 121.43 -5.19034 0.299969 0
M  V30 1241 C 119.115 -5.00952 -0.367709 0
M  V30 1242 C 121.109 -6.27695 1.10807 0
M  V30 1243 C 118.796 -6.09484 0.444058 0
M  V30 1244 C 119.794 -6.72719 1.18061 0
M  V30 1245 O 119.482 -7.79161 1.97898 0
M  V30 1246 H 119.214 -0.65494 -0.167422 0
M  V30 1247 H 121.768 -2.04886 0.145157 0
M  V30 1248 H 119.998 -3.23615 -2.11685 0
M  V30 1249 H 121.687 -3.59038 -1.89331 0
M  V30 1250 H 122.453 -4.84351 0.250776 0
M  V30 1251 H 118.332 -4.51509 -0.930638 0
M  V30 1252 H 121.876 -6.76982 1.68347 0
M  V30 1253 H 117.773 -6.43601 0.494803 0
M  V30 1254 H 118.541 -7.96055 1.90367 0
M  V30 1255 N 121.204 0.198386 -1.56346 0
M  V30 1256 C 122.167 1.22952 -1.93431 0
M  V30 1257 C 123.167 1.38611 -0.815092 0
M  V30 1258 O 124.357 1.36479 -1.08255 0
M  V30 1259 C 121.489 2.59946 -2.20546 0
M  V30 1260 H 122.682 0.912626 -2.85677 0
M  V30 1261 H 120.235 0.43977 -1.49986 0
M  V30 1262 H 120.97 2.96696 -1.30927 0
M  V30 1263 H 120.755 2.49953 -3.02102 0
M  V30 1264 H 122.245 3.3431 -2.50253 0
M  V30 1265 N 122.682 1.50554 0.465978 0
M  V30 1266 C 123.645 1.69233 1.54574 0
M  V30 1267 C 124.645 0.562901 1.50626 0
M  V30 1268 O 125.835 0.830016 1.53155 0
M  V30 1269 C 122.967 1.7223 2.94193 0
M  V30 1270 H 124.16 2.65571 1.39327 0
M  V30 1271 H 121.713 1.40111 0.692711 0
M  V30 1272 H 122.448 0.77603 3.14878 0
M  V30 1273 H 122.233 2.54285 2.98466 0
M  V30 1274 H 123.723 1.88618 3.72576 0
M  V30 1275 N 124.16 -0.719506 1.40217 0
M  V30 1276 C 125.07 -1.86378 1.42479 0
M  V30 1277 C 126.086 -1.71073 0.317834 0
M  V30 1278 O 127.262 -1.93406 0.561794 0
M  V30 1279 C 124.327 -3.22136 1.28178 0
M  V30 1280 C 123.388 -3.49723 2.48982 0
M  V30 1281 C 122.621 -4.79004 2.35353 0
M  V30 1282 O 122.844 -5.53821 1.36524 0
M  V30 1283 O 121.778 -5.06839 3.2465 0
M  V30 1284 H 125.604 -1.87425 2.38968 0
M  V30 1285 H 123.189 -0.869405 1.21498 0
M  V30 1286 H 125.071 -4.03234 1.22395 0
M  V30 1287 H 123.746 -3.21825 0.347934 0
M  V30 1288 H 122.653 -2.6865 2.60342 0
M  V30 1289 H 123.986 -3.54828 3.41113 0
M  V30 1290 N 125.638 -1.25649 -0.95132 0
M  V30 1291 C 126.863 -1.13443 -1.73624 0
M  V30 1292 C 127.288 0.307565 -1.85568 0
M  V30 1293 O 126.646 1.22282 -1.33854 0
M  V30 1294 C 126.694 -1.79723 -3.12621 0
M  V30 1295 O 125.798 -1.07912 -3.98031 0
M  V30 1296 H 125.139 -0.395872 -0.533086 0
M  V30 1297 H 127.669 -1.66276 -1.1922 0
M  V30 1298 H 127.679 -1.86141 -3.63064 0
M  V30 1299 H 126.354 -2.84633 -3.03244 0
M  V30 1300 H 124.931 -1.09398 -3.56492 0
M  V30 1301 N 127.117 1.15442 -1.07289 0
M  V30 1302 C 128.067 2.18164 -0.662467 0
M  V30 1303 C 129.051 1.57845 0.312074 0
M  V30 1304 O 130.243 1.76552 0.125905 0
M  V30 1305 C 127.372 3.43246 -0.0611295 0
M  V30 1306 C 126.458 4.1062 -1.06077 0
M  V30 1307 N 126.849 4.53491 -2.24008 0
M  V30 1308 C 125.147 4.36949 -0.893964 0
M  V30 1309 C 125.848 5.05731 -2.87422 0
M  V30 1310 N 124.824 4.99236 -2.15091 0
M  V30 1311 H 128.626 2.49038 -1.56068 0
M  V30 1312 H 126.14 1.32003 -0.945988 0
M  V30 1313 H 128.137 4.16145 0.250792 0
M  V30 1314 H 126.797 3.13854 0.832207 0
M  V30 1315 H 127.808 4.46898 -2.6173 0
M  V30 1316 H 124.485 4.17466 -0.0534693 0
M  V30 1317 H 125.875 5.48865 -3.87553 0
M  V30 1318 N 128.595 0.856903 1.32268 0
M  V30 1319 C 129.543 0.291987 2.3076 0
M  V30 1320 C 130.537 -0.585857 1.58947 0
M  V30 1321 O 131.743 -0.47341 1.73663 0
M  V30 1322 H 128.118 0.075721 0.748178 0
M  V30 1323 H 130.089 1.13687 2.75895 0
M  V30 1324 C 128.838 -0.502869 3.44044 0
M  V30 1325 H 128.161 0.163328 3.99466 0
M  V30 1326 H 129.601 -0.863691 4.1511 0
M  V30 1327 C 128.06 -1.68898 2.91505 0
M  V30 1328 O 128.59 -2.78811 2.89184 0
M  V30 1329 N 126.796 -1.51679 2.47875 0
M  V30 1330 H 126.343 -0.622666 2.49961 0
M  V30 1331 H 126.301 -2.31184 2.13076 0
M  V30 1332 N 130.073 -1.45103 0.615059 0
M  V30 1333 C 131.35 -1.95549 0.0448276 0
M  V30 1334 C 131.73 -1.55737 -1.4251 0
M  V30 1335 O 131.078 -0.823556 -2.13143 0
M  V30 1336 C 131.288 -3.48098 0.250785 0
M  V30 1337 C 132.636 -4.24384 0.135509 0
M  V30 1338 O 133.66 -3.55738 0.181299 0
M  V30 1339 O 132.519 -5.46493 0.0268878 0
M  V30 1340 H 129.613 -0.8264 -0.0314845 0
M  V30 1341 H 132.159 -1.55232 0.685642 0
M  V30 1342 H 130.931 -3.7007 1.27139 0
M  V30 1343 H 130.554 -3.95323 -0.424937 0
M  V30 1344 N 131.551 -0.354651 -1.53558 0
M  V30 1345 C 132.499 0.512195 -2.26891 0
M  V30 1346 C 133.493 1.09263 -1.29452 0
M  V30 1347 O 134.699 1.03709 -1.47121 0
M  V30 1348 H 131.074 0.183878 -0.729173 0
M  V30 1349 H 133.045 -0.128202 -2.98124 0
M  V30 1350 C 131.794 1.64563 -3.06291 0
M  V30 1351 H 131.117 1.20829 -3.81104 0
M  V30 1352 H 132.557 2.22711 -3.60799 0
M  V30 1353 C 131.016 2.58158 -2.16462 0
M  V30 1354 O 131.546 3.60695 -1.76811 0
M  V30 1355 N 129.752 2.27096 -1.81317 0
M  V30 1356 H 129.299 1.43751 -2.1376 0
M  V30 1357 H 129.257 2.89975 -1.21498 0
M  V30 1358 N 133.029 1.57378 -0.0835403 0
M  V30 1359 C 134.254 1.98682 0.594987 0
M  V30 1360 C 134.679 0.961969 1.61641 0
M  V30 1361 O 134.037 -0.0709989 1.81161 0
M  V30 1362 C 134.085 3.38988 1.2296 0
M  V30 1363 O 133.189 3.39208 2.34546 0
M  V30 1364 H 132.53 0.646368 0.152002 0
M  V30 1365 H 135.06 2.03961 -0.161533 0
M  V30 1366 H 135.07 3.76431 1.57366 0
M  V30 1367 H 133.745 4.13107 0.481228 0
M  V30 1368 H 132.322 3.13548 2.01846 0
M  V30 1369 N 134.507 -0.190092 1.56449 0
M  V30 1370 C 135.437 -1.23816 1.97969 0
M  V30 1371 C 136.418 -1.47201 0.852395 0
M  V30 1372 O 137.603 -1.58854 1.1171 0
M  V30 1373 C 134.733 -2.5813 2.3235 0
M  V30 1374 C 133.687 -2.49348 3.47864 0
M  V30 1375 C 133.013 -3.8798 3.67934 0
M  V30 1376 C 134.313 -2.01424 4.81898 0
M  V30 1377 H 136.007 -0.89311 2.85769 0
M  V30 1378 H 133.553 -0.428177 1.37487 0
M  V30 1379 H 135.506 -3.31637 2.59991 0
M  V30 1380 H 134.23 -2.94386 1.41438 0
M  V30 1381 H 132.889 -1.78297 3.20321 0
M  V30 1382 H 132.537 -4.21597 2.74344 0
M  V30 1383 H 132.237 -3.82978 4.45648 0
M  V30 1384 H 133.761 -4.63101 3.97957 0
M  V30 1385 H 135.175 -2.64693 5.08538 0
M  V30 1386 H 133.572 -2.07413 5.63116 0
M  V30 1387 H 134.642 -0.967677 4.75146 0
M  V30 1388 N 135.985 -1.50799 -0.457987 0
M  V30 1389 C 136.932 -1.70617 -1.5543 0
M  V30 1390 C 137.902 -0.547562 -1.56815 0
M  V30 1391 O 139.087 -0.779647 -1.74144 0
M  V30 1392 C 136.227 -1.81831 -2.93311 0
M  V30 1393 C 135.34 -3.09278 -3.01615 0
M  V30 1394 C 134.475 -3.11209 -4.30491 0
M  V30 1395 C 133.514 -4.33055 -4.32585 0
M  V30 1396 N 132.651 -4.32652 -5.52952 0
M  V30 1397 H 137.491 -2.64207 -1.37836 0
M  V30 1398 H 135.028 -1.30959 -0.669937 0
M  V30 1399 H 136.986 -1.86314 -3.73287 0
M  V30 1400 H 135.616 -0.916685 -3.0951 0
M  V30 1401 H 134.668 -3.14203 -2.1443 0
M  V30 1402 H 135.98 -3.99233 -2.99022 0
M  V30 1403 H 135.134 -3.14494 -5.18824 0
M  V30 1404 H 133.873 -2.19106 -4.35711 0
M  V30 1405 H 132.878 -4.29969 -3.42647 0
M  V30 1406 H 134.103 -5.264 -4.29046 0
M  V30 1407 H 132.049 -3.43409 -5.58933 0
M  V30 1408 H 131.966 -5.16392 -5.52155 0
M  V30 1409 H 133.234 -4.40101 -6.43375 0
M  V30 1410 N 137.463 0.71206 -1.40597 0
M  V30 1411 C 138.74 1.46536 -1.29563 0
M  V30 1412 C 139.12 2.10931 0.0844217 0
M  V30 1413 O 138.468 2.00418 1.0975 0
M  V30 1414 C 138.678 2.49821 -2.43701 0
M  V30 1415 C 140.026 3.15551 -2.841 0
M  V30 1416 O 141.05 2.60142 -2.4332 0
M  V30 1417 O 139.909 4.15867 -3.54566 0
M  V30 1418 H 137.003 0.651801 -0.509004 0
M  V30 1419 H 139.549 0.743935 -1.52524 0
M  V30 1420 H 138.321 2.00778 -3.35863 0
M  V30 1421 H 137.944 3.29495 -2.22528 0
M  V30 1422 N 138.941 1.26152 0.944643 0
M  V30 1423 C 140.352 1.10454 1.50522 0
M  V30 1424 C 140.703 -0.31635 1.93633 0
M  V30 1425 O 139.828 -1.20746 1.79581 0
M  V30 1426 C 140.423 1.99891 2.73549 0
M  V30 1427 C 138.982 1.88348 3.25886 0
M  V30 1428 C 138.129 1.93447 1.9868 0
M  V30 1429 H 141.08 1.39292 0.760489 0
M  V30 1430 H 141.101 1.54477 3.47732 0
M  V30 1431 H 140.613 3.03297 2.42141 0
M  V30 1432 H 138.714 0.878636 3.62092 0
M  V30 1433 H 138.827 2.73696 3.93227 0
M  V30 1434 H 137.191 1.37456 2.14425 0
M  V30 1435 H 137.974 2.98476 1.69607 0
M  V30 1436 N 140.419 -1.14872 1.07899 0
M  V30 1437 C 141.644 -1.90202 0.826926 0
M  V30 1438 C 142.069 -1.77774 -0.614664 0
M  V30 1439 O 141.427 -1.11431 -1.43013 0
M  V30 1440 C 141.475 -3.38352 1.24702 0
M  V30 1441 O 140.579 -4.10497 0.39575 0
M  V30 1442 H 139.92 -0.591968 0.300782 0
M  V30 1443 H 142.45 -1.45437 1.43907 0
M  V30 1444 H 142.46 -3.89156 1.22563 0
M  V30 1445 H 141.135 -3.46715 2.29698 0
M  V30 1446 H 139.712 -3.69796 0.480117 0
M  V30 1447 N 141.898 -0.863906 -1.31812 0
M  V30 1448 C 143.309 -0.52522 -1.7916 0
M  V30 1449 C 143.66 0.957518 -1.71248 0
M  V30 1450 O 142.785 1.74734 -1.27659 0
M  V30 1451 C 143.38 -0.9466 -3.25307 0
M  V30 1452 C 141.939 -0.659668 -3.70574 0
M  V30 1453 C 141.086 -1.14126 -2.52726 0
M  V30 1454 H 144.037 -1.05022 -1.1898 0
M  V30 1455 H 144.058 -0.266766 -3.79564 0
M  V30 1456 H 143.57 -2.02579 -3.31034 0
M  V30 1457 H 141.671 0.408416 -3.70355 0
M  V30 1458 H 141.784 -1.23245 -4.62977 0
M  V30 1459 H 140.148 -0.561216 -2.4844 0
M  V30 1460 H 140.931 -2.22775 -2.61201 0
M  V30 1461 N 143.376 1.44774 -0.622745 0
M  V30 1462 C 144.623 2.02121 -0.1239 0
M  V30 1463 C 144.951 1.48915 1.25118 0
M  V30 1464 O 144.206 0.660045 1.84233 0
M  V30 1465 C 144.505 3.57364 -0.0508323 0
M  V30 1466 C 144.171 4.29787 -1.36358 0
M  V30 1467 C 142.833 4.4929 -1.72314 0
M  V30 1468 C 145.185 4.71062 -2.23048 0
M  V30 1469 C 142.513 5.07325 -2.94682 0
M  V30 1470 C 144.865 5.30452 -3.44679 0
M  V30 1471 C 143.529 5.48175 -3.80868 0
M  V30 1472 H 142.799 0.739612 -0.0453381 0
M  V30 1473 H 145.446 1.73648 -0.807389 0
M  V30 1474 H 143.751 3.85202 0.715991 0
M  V30 1475 H 145.448 3.99456 0.351533 0
M  V30 1476 H 142.038 4.14932 -1.07375 0
M  V30 1477 H 146.222 4.55715 -1.96565 0
M  V30 1478 H 141.478 5.19235 -3.22809 0
M  V30 1479 H 145.652 5.61385 -4.12092 0
M  V30 1480 H 143.279 5.92912 -4.75773 0
M  V30 1481 N 144.854 0.36279 1.53368 0
M  V30 1482 C 146.103 -0.22888 2.00397 0
M  V30 1483 C 146.416 -1.50096 1.25421 0
M  V30 1484 O 147.622 -2.17106 1.63025 0
M  V30 1485 C 146.078 -0.458417 3.56969 0
M  V30 1486 C 145.686 0.798877 4.4082 0
M  V30 1487 C 147.43 -1.00789 4.12361 0
M  V30 1488 C 145.337 0.539078 5.88938 0
M  V30 1489 H 144.267 -0.089305 0.748693 0
M  V30 1490 H 146.918 0.481099 1.77081 0
M  V30 1491 H 145.3 -1.22959 3.76427 0
M  V30 1492 H 146.474 1.57262 4.33134 0
M  V30 1493 H 144.789 1.27137 3.96516 0
M  V30 1494 H 147.386 -1.21754 5.20653 0
M  V30 1495 H 147.729 -1.9692 3.66781 0
M  V30 1496 H 148.262 -0.296961 3.9669 0
M  V30 1497 H 145.001 1.47064 6.3879 0
M  V30 1498 H 144.521 -0.196222 5.99479 0
M  V30 1499 H 146.2 0.163542 6.46793 0
M  V30 1500 N 146.332 -1.57332 0.0918853 0
M  V30 1501 C 147.562 -1.98286 -0.580205 0
M  V30 1502 C 147.97 -0.969713 -1.6246 0
M  V30 1503 O 147.313 0.0493501 -1.83634 0
M  V30 1504 C 147.375 -3.35603 -1.28882 0
M  V30 1505 C 147.039 -4.55285 -0.395559 0
M  V30 1506 C 148.036 -5.18687 0.355002 0
M  V30 1507 C 145.721 -5.01314 -0.314556 0
M  V30 1508 C 147.715 -6.26484 1.17458 0
M  V30 1509 C 145.402 -6.08979 0.508677 0
M  V30 1510 C 146.4 -6.71429 1.2519 0
M  V30 1511 O 146.088 -7.77018 2.06151 0
M  V30 1512 H 145.82 -0.656678 -0.160466 0
M  V30 1513 H 148.374 -2.04721 0.16688 0
M  V30 1514 H 146.604 -3.25842 -2.08241 0
M  V30 1515 H 148.293 -3.61026 -1.85512 0
M  V30 1516 H 149.059 -4.84058 0.302134 0
M  V30 1517 H 144.938 -4.5247 -0.882697 0
M  V30 1518 H 148.482 -6.75159 1.75518 0
M  V30 1519 H 144.379 -6.4304 0.563037 0
M  V30 1520 H 145.147 -7.93991 1.98799 0
M  V30 1521 N 147.81 0.181792 -1.56548 0
M  V30 1522 C 149.038 0.915947 -1.85521 0
M  V30 1523 C 149.453 1.76282 -0.676016 0
M  V30 1524 O 148.81 1.79012 0.355077 0
M  V30 1525 C 148.861 1.80126 -3.13427 0
M  V30 1526 O 148.582 0.988562 -4.26801 0
M  V30 1527 C 150.083 2.64597 -3.55673 0
M  V30 1528 H 147.303 0.26661 -0.61576 0
M  V30 1529 H 149.847 0.185039 -2.03661 0
M  V30 1530 H 148.002 2.48563 -2.97145 0
M  V30 1531 H 148.416 1.59308 -4.99721 0
M  V30 1532 H 149.89 3.2235 -4.48101 0
M  V30 1533 H 150.367 3.38958 -2.79292 0
M  V30 1534 H 150.973 2.0151 -3.74532 0
M  V30 1535 N 149.288 1.51039 0.449983 0
M  V30 1536 C 150.236 1.71995 1.5659 0
M  V30 1537 C 151.23 0.586029 1.5894 0
M  V30 1538 O 152.436 0.76709 1.62837 0
M  V30 1539 H 148.811 0.543233 0.520001 0
M  V30 1540 H 150.782 2.65562 1.36085 0
M  V30 1541 C 149.531 1.8506 2.9436 0
M  V30 1542 H 148.854 2.71712 2.93279 0
M  V30 1543 H 150.294 2.0374 3.71842 0
M  V30 1544 C 148.753 0.607277 3.31382 0
M  V30 1545 O 149.283 -0.243903 4.00959 0
M  V30 1546 N 147.489 0.455073 2.87015 0
M  V30 1547 H 147.036 1.14879 2.30566 0
M  V30 1548 H 146.994 -0.375611 3.12148 0
M  V30 1549 N 150.766 -0.704594 1.40972 0
M  V30 1550 C 152.013 -1.46458 1.39844 0
M  V30 1551 C 152.341 -1.94499 0.00447594 0
M  V30 1552 O 151.596 -1.69275 -0.982057 0
M  V30 1553 C 151.895 -2.698 2.34399 0
M  V30 1554 C 151.561 -2.40464 3.81429 0
M  V30 1555 C 150.223 -2.32174 4.21484 0
M  V30 1556 C 152.575 -2.16086 4.74296 0
M  V30 1557 C 149.903 -1.97589 5.52427 0
M  V30 1558 C 152.255 -1.83011 6.05549 0
M  V30 1559 C 150.919 -1.7321 6.44635 0
M  V30 1560 H 150.189 -0.535927 0.511725 0
M  V30 1561 H 152.836 -0.806124 1.73706 0
M  V30 1562 H 151.141 -3.40536 1.93759 0
M  V30 1563 H 152.838 -3.27919 2.30804 0
M  V30 1564 H 149.428 -2.47808 3.49699 0
M  V30 1565 H 153.612 -2.2144 4.4416 0
M  V30 1566 H 148.868 -1.88547 5.81601 0
M  V30 1567 H 153.042 -1.63164 6.77016 0
M  V30 1568 H 150.669 -1.46179 7.46013 0
M  V30 1569 N 152.244 -1.26651 -0.937939 0
M  V30 1570 C 153.49 -1.12553 -1.687 0
M  V30 1571 C 153.823 0.329782 -1.91379 0
M  V30 1572 O 153.098 1.24202 -1.4968 0
M  V30 1573 C 153.381 -1.89862 -3.05981 0
M  V30 1574 C 153.234 -3.43318 -2.90607 0
M  V30 1575 C 154.553 -1.69499 -4.0615 0
M  V30 1576 H 151.672 -0.410257 -0.612257 0
M  V30 1577 H 154.314 -1.55685 -1.08913 0
M  V30 1578 H 152.464 -1.53204 -3.57017 0
M  V30 1579 H 154.136 -3.89747 -2.46769 0
M  V30 1580 H 152.379 -3.70179 -2.26164 0
M  V30 1581 H 153.05 -3.92642 -3.8799 0
M  V30 1582 H 155.526 -2.01442 -3.64088 0
M  V30 1583 H 154.402 -2.26002 -5.00214 0
M  V30 1584 H 154.663 -0.640365 -4.37438 0
M  V30 1585 N 153.722 1.14298 -1.08507 0
M  V30 1586 C 154.97 1.84993 -0.813763 0
M  V30 1587 C 155.291 1.83405 0.662393 0
M  V30 1588 O 154.561 1.28319 1.48024 0
M  V30 1589 H 153.141 0.684966 -0.298045 0
M  V30 1590 H 155.803 1.385 -1.37126 0
M  V30 1591 H 154.899 2.89788 -1.15884 0
M  V30 1592 N 155.201 0.870884 1.31352 0
M  V30 1593 C 156.429 0.49677 2.00848 0
M  V30 1594 C 156.844 -0.910998 1.65367 0
M  V30 1595 O 156.201 -1.59696 0.883374 0
M  V30 1596 C 156.252 0.645308 3.55694 0
M  V30 1597 O 155.973 1.99764 3.89905 0
M  V30 1598 C 157.474 0.272326 4.42463 0
M  V30 1599 H 154.694 0.193462 0.642506 0
M  V30 1600 H 157.238 1.1723 1.67563 0
M  V30 1601 H 155.393 0.0173176 3.87396 0
M  V30 1602 H 155.807 2.00607 4.84621 0
M  V30 1603 H 157.281 0.427208 5.50344 0
M  V30 1604 H 157.758 -0.788587 4.32062 0
M  V30 1605 H 158.364 0.876054 4.1618 0
M  V30 1606 N 156.679 -1.44442 0.630414 0
M  V30 1607 C 157.909 -2.06115 0.141465 0
M  V30 1608 C 158.317 -1.47179 -1.1889 0
M  V30 1609 O 157.66 -0.588873 -1.74006 0
M  V30 1610 C 157.722 -3.59467 -0.0484355 0
M  V30 1611 C 157.386 -4.40864 1.20366 0
M  V30 1612 C 158.383 -4.74391 2.12719 0
M  V30 1613 C 156.068 -4.8125 1.43887 0
M  V30 1614 C 158.062 -5.47186 3.26904 0
M  V30 1615 C 155.749 -5.53795 2.5837 0
M  V30 1616 C 156.747 -5.86682 3.49705 0
M  V30 1617 O 156.435 -6.57749 4.62191 0
M  V30 1618 H 156.167 -0.671648 0.0765792 0
M  V30 1619 H 158.721 -1.86312 0.864695 0
M  V30 1620 H 156.951 -3.77758 -0.826803 0
M  V30 1621 H 158.64 -4.02909 -0.491849 0
M  V30 1622 H 159.406 -4.43728 1.95781 0
M  V30 1623 H 155.285 -4.55073 0.736853 0
M  V30 1624 H 158.829 -5.72773 3.98217 0
M  V30 1625 H 154.726 -5.83872 2.75251 0
M  V30 1626 H 155.494 -6.76217 4.61164 0
M  V30 1627 N 158.157 -0.370918 -1.53173 0
M  V30 1628 C 159.406 0.218249 -2.00516 0
M  V30 1629 C 159.719 1.49429 -1.26215 0
M  V30 1630 O 160.925 2.16239 -1.64174 0
M  V30 1631 C 159.381 0.43948 -3.57207 0
M  V30 1632 C 158.989 -0.822244 -4.4039 0
M  V30 1633 C 160.733 0.986012 -4.1289 0
M  V30 1634 C 158.64 -0.570304 -5.88644 0
M  V30 1635 H 157.57 0.0853333 -0.749156 0
M  V30 1636 H 160.221 -0.490483 -1.76823 0
M  V30 1637 H 158.603 1.20961 -3.77074 0
M  V30 1638 H 159.777 -1.59557 -4.32294 0
M  V30 1639 H 158.092 -1.29238 -3.95836 0
M  V30 1640 H 160.689 1.18991 -5.21292 0
M  V30 1641 H 161.032 1.94972 -3.6782 0
M  V30 1642 H 161.565 0.27592 -3.96842 0
M  V30 1643 H 158.304 -1.50449 -6.38001 0
M  V30 1644 H 157.824 0.164427 -5.99575 0
M  V30 1645 H 159.503 -0.19784 -6.46697 0
M  V30 1646 N 159.635 1.57281 -0.100228 0
M  V30 1647 C 160.565 2.17328 0.853857 0
M  V30 1648 C 161.546 1.10804 1.2906 0
M  V30 1649 O 162.731 1.38963 1.35657 0
M  V30 1650 C 159.861 2.75772 2.11109 0
M  V30 1651 C 158.815 3.87713 1.81279 0
M  V30 1652 C 158.141 4.32882 3.13874 0
M  V30 1653 C 159.441 5.10677 1.09574 0
M  V30 1654 H 161.135 2.97305 0.353545 0
M  V30 1655 H 158.681 1.43009 0.168612 0
M  V30 1656 H 160.634 3.16433 2.78296 0
M  V30 1657 H 159.358 1.93057 2.63432 0
M  V30 1658 H 158.017 3.476 1.16489 0
M  V30 1659 H 157.665 3.47051 3.64095 0
M  V30 1660 H 157.365 5.08358 2.94696 0
M  V30 1661 H 158.889 4.7618 3.82211 0
M  V30 1662 H 160.303 5.48474 1.66879 0
M  V30 1663 H 158.7 5.91615 1.00557 0
M  V30 1664 H 159.77 4.84835 0.0793299 0
M  V30 1665 N 161.113 -0.173488 1.56642 0
M  V30 1666 C 162.043 -1.2171 1.99271 0
M  V30 1667 C 163.024 -1.46289 0.867959 0
M  V30 1668 O 164.209 -1.5766 1.13388 0
M  V30 1669 C 161.339 -2.55651 2.35074 0
M  V30 1670 C 160.293 -2.45645 3.50489 0
M  V30 1671 C 159.619 -3.84056 3.72028 0
M  V30 1672 C 160.919 -1.96302 4.84007 0
M  V30 1673 H 162.613 -0.86275 2.867 0
M  V30 1674 H 160.159 -0.413571 1.37933 0
M  V30 1675 H 162.112 -3.2886 2.63494 0
M  V30 1676 H 160.836 -2.92869 1.44552 0
M  V30 1677 H 159.495 -1.7489 3.22194 0
M  V30 1678 H 159.143 -4.18664 2.788 0
M  V30 1679 H 158.843 -3.7823 4.49684 0
M  V30 1680 H 160.367 -4.58854 4.02846 0
M  V30 1681 H 161.781 -2.59284 5.11317 0
M  V30 1682 H 160.178 -2.01429 5.65284 0
M  V30 1683 H 161.248 -0.917226 4.76146 0
M  V30 1684 N 162.591 -1.51276 -0.441967 0
M  V30 1685 C 163.501 -1.75092 -1.56141 0
M  V30 1686 C 164.517 -0.634963 -1.62001 0
M  V30 1687 O 165.693 -0.916686 -1.79329 0
M  V30 1688 C 162.758 -1.86666 -2.92158 0
M  V30 1689 C 161.819 -3.10506 -2.96453 0
M  V30 1690 C 161.052 -3.21519 -4.25982 0
M  V30 1691 O 161.275 -2.38586 -5.18105 0
M  V30 1692 O 160.209 -4.14465 -4.36466 0
M  V30 1693 H 164.035 -2.70044 -1.38961 0
M  V30 1694 H 161.62 -1.35722 -0.624499 0
M  V30 1695 H 163.502 -1.96292 -3.72891 0
M  V30 1696 H 162.177 -0.949014 -3.09476 0
M  V30 1697 H 161.084 -3.06363 -2.14692 0
M  V30 1698 H 162.417 -4.01945 -2.84079 0
M  V30 1699 N 164.069 0.697108 -1.41344 0
M  V30 1700 C 165.032 1.79281 -1.42797 0
M  V30 1701 C 166.032 1.57607 -0.318837 0
M  V30 1702 O 167.222 1.64309 -0.578642 0
M  V30 1703 C 164.354 3.17632 -1.23785 0
M  V30 1704 H 165.547 1.79385 -2.40335 0
M  V30 1705 H 163.1 0.904582 -1.27464 0
M  V30 1706 H 163.835 3.23167 -0.270814 0
M  V30 1707 H 163.62 3.34765 -2.04144 0
M  V30 1708 H 165.11 3.97617 -1.27633 0
M  V30 1709 N 165.547 1.27147 0.931209 0
M  V30 1710 C 166.51 1.09615 2.01289 0
M  V30 1711 C 167.51 0.0412581 1.60747 0
M  V30 1712 O 168.7 0.285545 1.71844 0
M  V30 1713 C 165.832 0.669447 3.34262 0
M  V30 1714 H 167.025 2.05662 2.18273 0
M  V30 1715 H 164.578 1.09885 1.11153 0
M  V30 1716 H 165.313 -0.292572 3.22978 0
M  V30 1717 H 165.098 1.43127 3.65044 0
M  V30 1718 H 166.588 0.568921 4.13706 0
M  V30 1719 N 167.025 -1.13721 1.09112 0
M  V30 1720 C 168.441 -1.36914 0.820174 0
M  V30 1721 C 168.641 -1.93356 -0.567079 0
M  V30 1722 O 167.697 -2.15093 -1.32255 0
M  V30 1723 C 169.01 -2.3235 1.90877 0
M  V30 1724 C 170.558 -2.45973 1.93562 0
M  V30 1725 C 171.033 -3.44714 3.01556 0
M  V30 1726 N 172.524 -3.52263 3.00775 0
M  V30 1727 C 173.259 -4.28536 3.80978 0
M  V30 1728 N 172.755 -5.07991 4.71081 0
M  V30 1729 N 174.548 -4.23804 3.69251 0
M  V30 1730 H 166.699 -0.754348 1.98553 0
M  V30 1731 H 168.962 -0.3944 0.862063 0
M  V30 1732 H 168.668 -1.98027 2.90651 0
M  V30 1733 H 168.542 -3.32332 1.78424 0
M  V30 1734 H 170.929 -2.79584 0.944286 0
M  V30 1735 H 171.01 -1.45926 2.10093 0
M  V30 1736 H 170.654 -3.11835 4.00901 0
M  V30 1737 H 170.584 -4.44558 2.82269 0
M  V30 1738 H 173.075 -2.95567 2.35475 0
M  V30 1739 H 173.388 -5.63487 5.28869 0
M  V30 1740 H 171.733 -5.07235 4.75119 0
M  V30 1741 H 174.924 -3.60806 2.98222 0
M  V30 1742 H 175.097 -4.82995 4.31995 0
M  V30 1743 N 168.503 -0.877838 -1.30888 0
M  V30 1744 C 169.45 -0.337538 -2.28318 0
M  V30 1745 C 170.42 0.568346 -1.56074 0
M  V30 1746 O 171.605 0.498298 -1.84178 0
M  V30 1747 C 168.745 0.448142 -3.42178 0
M  V30 1748 C 167.858 -0.48615 -4.29256 0
M  V30 1749 C 166.993 0.314427 -5.30269 0
M  V30 1750 C 166.032 -0.615791 -6.08995 0
M  V30 1751 N 165.169 0.14902 -7.01942 0
M  V30 1752 H 170.009 -1.17356 -2.73919 0
M  V30 1753 H 167.546 -0.590094 -1.34745 0
M  V30 1754 H 169.504 0.919517 -4.06941 0
M  V30 1755 H 168.134 1.24879 -2.97666 0
M  V30 1756 H 167.186 -1.076 -3.64865 0
M  V30 1757 H 168.498 -1.19909 -4.84173 0
M  V30 1758 H 167.652 0.847969 -6.00745 0
M  V30 1759 H 166.391 1.06062 -4.76027 0
M  V30 1760 H 165.396 -1.16102 -5.37401 0
M  V30 1761 H 166.621 -1.36097 -6.65323 0
M  V30 1762 H 164.567 0.877884 -6.50099 0
M  V30 1763 H 164.484 -0.504433 -7.54315 0
M  V30 1764 H 165.752 0.663537 -7.76671 0
M  V30 1765 N 169.982 1.44106 -0.638065 0
M  V30 1766 C 171.212 2.06037 -0.152394 0
M  V30 1767 C 171.62 1.47808 1.18108 0
M  V30 1768 O 170.963 0.598092 1.73691 0
M  V30 1769 C 171.025 3.59488 0.0293714 0
M  V30 1770 C 170.689 4.4022 -1.22702 0
M  V30 1771 C 171.686 4.73256 -2.15232 0
M  V30 1772 C 169.371 4.8048 -1.46437 0
M  V30 1773 C 171.365 5.45444 -3.29802 0
M  V30 1774 C 169.052 5.52417 -2.61303 0
M  V30 1775 C 170.05 5.84819 -3.52811 0
M  V30 1776 O 169.738 6.55289 -4.65673 0
M  V30 1777 H 169.47 0.671233 -0.0801401 0
M  V30 1778 H 172.024 1.85851 -0.874563 0
M  V30 1779 H 170.254 3.78191 0.806758 0
M  V30 1780 H 171.943 4.03164 0.470475 0
M  V30 1781 H 172.709 4.42684 -1.98131 0
M  V30 1782 H 168.588 4.54676 -0.760977 0
M  V30 1783 H 172.132 5.70653 -4.01249 0
M  V30 1784 H 168.029 5.82404 -2.78344 0
M  V30 1785 H 168.797 6.73762 -4.64744 0
M  V30 1786 N 171.46 0.379036 1.52974 0
M  V30 1787 C 172.737 -0.263479 1.93817 0
M  V30 1788 C 173.117 -1.65244 1.31368 0
M  V30 1789 O 172.465 -2.23448 0.477856 0
M  V30 1790 C 172.675 -0.300166 3.47707 0
M  V30 1791 C 174.023 -0.534061 4.21228 0
M  V30 1792 O 175.047 -0.38081 3.54159 0
M  V30 1793 O 173.906 -0.833501 5.40106 0
M  V30 1794 H 171 -0.161149 0.811147 0
M  V30 1795 H 173.546 0.432798 1.64088 0
M  V30 1796 H 172.318 0.673138 3.85467 0
M  V30 1797 H 171.941 -1.04179 3.83709 0
M  V30 1798 N 172.938 -1.57226 0.108567 0
M  V30 1799 C 174.187 -1.94008 -0.551703 0
M  V30 1800 C 174.5 -0.993442 -1.68494 0
M  V30 1801 O 175.706 -1.25551 -2.40726 0
M  V30 1802 C 174.162 -3.44763 -1.03279 0
M  V30 1803 C 173.77 -4.47943 0.0714193 0
M  V30 1804 C 175.514 -3.90483 -1.66503 0
M  V30 1805 C 173.421 -5.89865 -0.425779 0
M  V30 1806 H 172.351 -0.724206 -0.209863 0
M  V30 1807 H 175.002 -1.82547 0.186741 0
M  V30 1808 H 173.384 -3.51422 -1.82533 0
M  V30 1809 H 174.558 -4.52942 0.847365 0
M  V30 1810 H 172.873 -4.11913 0.609669 0
M  V30 1811 H 175.47 -4.93925 -2.04798 0
M  V30 1812 H 175.813 -3.29877 -2.53942 0
M  V30 1813 H 176.346 -3.86581 -0.938074 0
M  V30 1814 H 173.085 -6.54202 0.412316 0
M  V30 1815 H 172.605 -5.88309 -1.16843 0
M  V30 1816 H 174.284 -6.40844 -0.890397 0
M  V30 1817 N 174.416 0.165178 -1.56732 0
M  V30 1818 C 175.832 0.517174 -1.50988 0
M  V30 1819 C 176.032 1.84331 -0.813894 0
M  V30 1820 O 175.088 2.49672 -0.37682 0
M  V30 1821 C 176.401 0.544261 -2.95733 0
M  V30 1822 C 177.949 0.631039 -3.06573 0
M  V30 1823 C 178.424 0.68896 -4.52788 0
M  V30 1824 N 179.915 0.751683 -4.5706 0
M  V30 1825 C 180.65 0.817177 -5.67547 0
M  V30 1826 N 180.146 0.843129 -6.8765 0
M  V30 1827 N 181.939 0.856668 -5.55534 0
M  V30 1828 H 174.09 -0.704318 -2.00382 0
M  V30 1829 H 176.353 -0.254687 -0.913148 0
M  V30 1830 H 176.059 -0.361607 -3.49836 0
M  V30 1831 H 175.933 1.3886 -3.5071 0
M  V30 1832 H 178.32 1.52733 -2.52501 0
M  V30 1833 H 178.401 -0.240095 -2.54671 0
M  V30 1834 H 178.045 -0.2031 -5.07494 0
M  V30 1835 H 177.975 1.57633 -5.02454 0
M  V30 1836 H 180.466 0.739661 -3.70591 0
M  V30 1837 H 180.779 0.894448 -7.67606 0
M  V30 1838 H 179.124 0.811304 -6.90248 0
M  V30 1839 H 182.315 0.833437 -4.60621 0
M  V30 1840 H 182.488 0.904247 -6.4166 0
M  V30 1841 N 175.894 1.51508 0.433938 0
M  V30 1842 C 177.141 1.64345 1.18309 0
M  V30 1843 C 177.469 0.361315 1.91115 0
M  V30 1844 O 176.724 -0.654753 1.84422 0
M  V30 1845 C 177.023 2.79928 2.22205 0
M  V30 1846 C 176.689 4.19078 1.66387 0
M  V30 1847 C 175.351 4.56932 1.50887 0
M  V30 1848 C 177.703 5.05894 1.25381 0
M  V30 1849 C 175.031 5.79305 0.928608 0
M  V30 1850 C 177.383 6.2885 0.687823 0
M  V30 1851 C 176.047 6.65473 0.519755 0
M  V30 1852 H 175.317 0.601381 0.432923 0
M  V30 1853 H 177.964 1.85549 0.473676 0
M  V30 1854 H 176.269 2.52959 2.99197 0
M  V30 1855 H 177.966 2.87059 2.79997 0
M  V30 1856 H 174.556 3.89234 1.79428 0
M  V30 1857 H 178.74 4.77253 1.36175 0
M  V30 1858 H 173.996 6.06324 0.786186 0
M  V30 1859 H 178.17 6.95461 0.361581 0
M  V30 1860 H 175.797 7.6017 0.0679979 0
M  V30 1861 N 177.372 -0.689602 1.41712 0
M  V30 1862 C 178.322 -1.79571 1.40493 0
M  V30 1863 C 179.306 -1.58473 0.278409 0
M  V30 1864 O 180.498 -1.69204 0.519532 0
M  V30 1865 C 177.627 -3.17923 1.29536 0
M  V30 1866 C 176.713 -3.44695 2.47075 0
M  V30 1867 N 177.104 -3.42132 3.72531 0
M  V30 1868 C 175.402 -3.75269 2.41017 0
M  V30 1869 C 176.103 -3.67976 4.50521 0
M  V30 1870 N 175.079 -3.88014 3.80718 0
M  V30 1871 H 178.881 -1.75961 2.35404 0
M  V30 1872 H 176.395 -0.889839 1.35851 0
M  V30 1873 H 178.392 -3.97167 1.26745 0
M  V30 1874 H 177.052 -3.22741 0.356153 0
M  V30 1875 H 178.063 -3.22375 4.05333 0
M  V30 1876 H 174.74 -3.87421 1.55599 0
M  V30 1877 H 176.13 -3.7208 5.59469 0
M  V30 1878 N 178.85 -1.27639 -0.924453 0
M  V30 1879 C 179.8 -1.07295 -2.01176 0
M  V30 1880 C 180.784 5.77352e-05 -1.609 0
M  V30 1881 O 181.976 -0.218855 -1.75642 0
M  V30 1882 C 179.105 -0.725592 -3.35544 0
M  V30 1883 C 178.191 -1.83691 -3.82254 0
M  V30 1884 N 178.582 -3.07697 -4.01443 0
M  V30 1885 C 176.88 -1.72433 -4.11319 0
M  V30 1886 C 177.581 -3.80037 -4.40394 0
M  V30 1887 N 176.557 -3.0782 -4.48049 0
M  V30 1888 H 180.359 -2.01399 -2.14046 0
M  V30 1889 H 177.873 -1.18401 -1.11153 0
M  V30 1890 H 179.87 -0.560959 -4.13109 0
M  V30 1891 H 178.53 0.207782 -3.24034 0
M  V30 1892 H 179.541 -3.43424 -3.8766 0
M  V30 1893 H 176.218 -0.862005 -4.08504 0
M  V30 1894 H 177.608 -4.86632 -4.63291 0
M  V30 1895 N 180.328 1.1314 -1.09713 0
M  V30 1896 C 181.574 1.84757 -0.836224 0
M  V30 1897 C 181.907 1.8347 0.636598 0
M  V30 1898 O 181.182 1.27491 1.46889 0
M  V30 1899 C 181.465 3.32782 -1.37578 0
M  V30 1900 C 181.318 3.42567 -2.91493 0
M  V30 1901 C 182.637 4.28307 -1.01198 0
M  V30 1902 H 179.756 0.67082 -0.305236 0
M  V30 1903 H 182.398 1.3278 -1.35903 0
M  V30 1904 H 180.548 3.77177 -0.931097 0
M  V30 1905 H 182.22 3.06862 -3.44432 0
M  V30 1906 H 180.463 2.83349 -3.28475 0
M  V30 1907 H 181.134 4.46674 -3.24324 0
M  V30 1908 H 183.61 3.91999 -1.39556 0
M  V30 1909 H 182.486 5.30307 -1.41653 0
M  V30 1910 H 182.747 4.42029 0.0794833 0
M  V30 1911 N 181.806 0.884767 1.30421 0
M  V30 1912 C 183.031 0.517288 2.00845 0
M  V30 1913 C 183.456 -0.886779 1.65885 0
M  V30 1914 O 182.814 -1.58768 0.875354 0
M  V30 1915 C 182.862 0.698994 3.5376 0
M  V30 1916 O 181.966 -0.255208 4.1161 0
M  V30 1917 H 181.307 0.203872 0.631927 0
M  V30 1918 H 183.837 1.19225 1.66272 0
M  V30 1919 H 183.847 0.597912 4.03595 0
M  V30 1920 H 182.522 1.72271 3.78544 0
M  V30 1921 H 181.099 -0.10784 3.72744 0
M  V30 1922 N 183.284 -1.43765 0.645699 0
M  V30 1923 C 184.512 -2.06253 0.163556 0
M  V30 1924 C 184.927 -1.48352 -1.16778 0
M  V30 1925 O 184.284 -0.611932 -1.71935 0
M  V30 1926 C 184.335 -3.61453 0.0583186 0
M  V30 1927 O 184.056 -4.172 1.33702 0
M  V30 1928 C 185.557 -4.41002 -0.450795 0
M  V30 1929 H 182.777 -0.665413 0.0864077 0
M  V30 1930 H 185.321 -1.84396 0.884222 0
M  V30 1931 H 183.476 -3.82522 -0.612865 0
M  V30 1932 H 183.89 -5.10791 1.19131 0
M  V30 1933 H 185.364 -5.49966 -0.473403 0
M  V30 1934 H 185.841 -4.13488 -1.48068 0
M  V30 1935 H 186.447 -4.24886 0.187637 0
M  V30 1936 N 184.763 -0.387143 -1.52771 0
M  V30 1937 C 186.04 0.253197 -1.93954 0
M  V30 1938 C 186.42 1.64545 -1.32243 0
M  V30 1939 O 185.768 2.23191 -0.489699 0
M  V30 1940 C 185.978 0.281722 -3.47861 0
M  V30 1941 C 187.326 0.511715 -4.21505 0
M  V30 1942 O 188.35 0.362023 -3.54356 0
M  V30 1943 O 187.209 0.804847 -5.40541 0
M  V30 1944 H 184.303 0.156845 -0.811991 0
M  V30 1945 H 186.849 -0.441494 -1.63856 0
M  V30 1946 H 185.621 -0.693571 -3.85104 0
M  V30 1947 H 185.244 1.02142 -3.84256 0
M  V30 1948 N 186.241 1.57166 -0.116904 0
M  V30 1949 C 187.151 2.18745 0.847812 0
M  V30 1950 C 188.167 1.163 1.29423 0
M  V30 1951 O 189.343 1.48761 1.35765 0
M  V30 1952 C 186.408 2.77307 2.0809 0
M  V30 1953 C 185.469 3.94781 1.68661 0
M  V30 1954 C 184.702 4.50541 2.86091 0
M  V30 1955 O 184.925 4.05202 4.01456 0
M  V30 1956 O 183.859 5.41256 2.63298 0
M  V30 1957 H 187.685 3.01632 0.353778 0
M  V30 1958 H 185.27 1.49005 0.108599 0
M  V30 1959 H 187.152 3.14647 2.80313 0
M  V30 1960 H 185.827 1.97452 2.56504 0
M  V30 1961 H 184.734 3.62214 0.935518 0
M  V30 1962 H 186.067 4.76065 1.24991 0
M  V30 1963 N 187.719 -0.156864 1.56817 0
M  V30 1964 C 188.965 -0.872416 1.83076 0
M  V30 1965 C 189.298 -1.81261 0.697001 0
M  V30 1966 O 188.573 -1.92171 -0.30008 0
M  V30 1967 C 188.856 -1.65551 3.19789 0
M  V30 1968 C 188.709 -0.737467 4.43713 0
M  V30 1969 C 190.028 -2.62012 3.53606 0
M  V30 1970 H 187.147 -0.315715 0.665953 0
M  V30 1971 H 189.789 -0.138004 1.89498 0
M  V30 1972 H 187.939 -2.28159 3.14445 0
M  V30 1973 H 189.611 -0.123143 4.61136 0
M  V30 1974 H 187.854 -0.0464067 4.33775 0
M  V30 1975 H 188.525 -1.32122 5.35955 0
M  V30 1976 H 191.001 -2.09525 3.59497 0
M  V30 1977 H 189.877 -3.13861 4.50314 0
M  V30 1978 H 190.138 -3.42902 2.79053 0
M  V30 1979 N 189.197 -1.51736 -0.425897 0
M  V30 1980 C 190.427 -1.68549 -1.19476 0
M  V30 1981 C 190.835 -0.387288 -1.85194 0
M  V30 1982 O 190.178 0.645142 -1.71999 0
M  V30 1983 C 190.24 -2.75275 -2.31223 0
M  V30 1984 C 189.904 -4.17534 -1.8578 0
M  V30 1985 C 190.901 -5.01936 -1.35485 0
M  V30 1986 C 188.586 -4.6369 -1.93123 0
M  V30 1987 C 190.58 -6.30559 -0.931347 0
M  V30 1988 C 188.267 -5.92307 -1.50384 0
M  V30 1989 C 189.265 -6.75569 -1.00473 0
M  V30 1990 O 188.953 -8.0178 -0.583452 0
M  V30 1991 H 188.685 -0.568525 -0.365725 0
M  V30 1992 H 191.239 -1.98982 -0.509444 0
M  V30 1993 H 189.469 -2.40182 -3.03067 0
M  V30 1994 H 191.158 -2.80853 -2.93047 0
M  V30 1995 H 191.924 -4.67475 -1.29197 0
M  V30 1996 H 187.803 -3.98997 -2.30916 0
M  V30 1997 H 191.347 -6.95498 -0.541084 0
M  V30 1998 H 187.244 -6.2628 -1.56346 0
M  V30 1999 H 188.012 -8.1543 -0.708275 0
M  V30 2000 N 190.675 0.682077 -1.42076 0
M  V30 2001 C 191.923 1.4393 -1.41876 0
M  V30 2002 C 192.244 1.94971 -0.0335599 0
M  V30 2003 O 191.514 1.72591 0.926773 0
M  V30 2004 H 190.094 0.534085 -0.522267 0
M  V30 2005 H 192.756 0.806427 -1.77434 0
M  V30 2006 H 191.852 2.29588 -2.11414 0
M  V30 2007 N 192.153 1.28127 0.917671 0
M  V30 2008 C 193.43 1.05761 1.64542 0
M  V30 2009 C 193.81 -0.404344 2.07191 0
M  V30 2010 O 193.158 -1.38963 1.81388 0
M  V30 2011 C 193.368 2.02857 2.83989 0
M  V30 2012 C 194.716 2.32786 3.551 0
M  V30 2013 O 195.74 2.0091 2.94132 0
M  V30 2014 O 194.599 2.87169 4.64969 0
M  V30 2015 H 191.693 0.403916 0.721652 0
M  V30 2016 H 194.239 1.39431 0.967322 0
M  V30 2017 H 193.011 3.01407 2.49538 0
M  V30 2018 H 192.634 1.69809 3.59514 0
M  V30 2019 N 193.631 -1.12557 1.10312 0
M  V30 2020 C 194.561 -2.20341 0.772798 0
M  V30 2021 C 195.542 -1.68198 -0.25365 0
M  V30 2022 O 196.727 -1.93831 -0.119699 0
M  V30 2023 C 193.857 -3.46709 0.202443 0
M  V30 2024 C 192.811 -4.11996 1.15943 0
M  V30 2025 C 192.137 -5.328 0.450345 0
M  V30 2026 C 193.437 -4.5828 2.50552 0
M  V30 2027 H 195.131 -2.48229 1.674 0
M  V30 2028 H 192.677 -1.19308 0.806326 0
M  V30 2029 H 194.63 -4.2138 -0.0407752 0
M  V30 2030 H 193.354 -3.18245 -0.734001 0
M  V30 2031 H 192.013 -3.39305 1.38808 0
M  V30 2032 H 191.661 -5.00602 -0.490531 0
M  V30 2033 H 191.361 -5.7743 1.08851 0
M  V30 2034 H 192.885 -6.10219 0.215642 0
M  V30 2035 H 194.299 -5.2433 2.31843 0
M  V30 2036 H 192.696 -5.13683 3.10242 0
M  V30 2037 H 193.766 -3.72329 3.10643 0
M  V30 2038 N 195.109 -0.891671 -1.2995 0
M  V30 2039 C 196.52 -0.563104 -1.78006 0
M  V30 2040 C 196.871 0.920978 -1.73241 0
M  V30 2041 O 195.996 1.71987 -1.31337 0
M  V30 2042 C 196.591 -1.01539 -3.23226 0
M  V30 2043 C 195.15 -0.738124 -3.69092 0
M  V30 2044 C 194.297 -1.19461 -2.50249 0
M  V30 2045 H 197.248 -1.07522 -1.16725 0
M  V30 2046 H 197.269 -0.347217 -3.78912 0
M  V30 2047 H 196.781 -2.09555 -3.26662 0
M  V30 2048 H 194.882 0.329766 -3.71138 0
M  V30 2049 H 194.995 -1.33037 -4.60259 0
M  V30 2050 H 193.359 -0.613787 -2.47194 0
M  V30 2051 H 194.142 -2.28265 -2.56417 0
M  V30 2052 N 196.587 1.43421 -0.653314 0
M  V30 2053 C 197.517 2.33487 0.0246656 0
M  V30 2054 C 198.498 1.49475 0.811863 0
M  V30 2055 O 199.683 1.78139 0.773322 0
M  V30 2056 C 196.813 3.32841 0.99166 0
M  V30 2057 C 195.767 4.26842 0.314568 0
M  V30 2058 C 195.093 5.16236 1.39302 0
M  V30 2059 C 196.393 5.16243 -0.793095 0
M  V30 2060 H 198.087 2.90427 -0.727481 0
M  V30 2061 H 195.633 1.39649 -0.351287 0
M  V30 2062 H 197.586 3.94747 1.47487 0
M  V30 2063 H 196.31 2.74158 1.77497 0
M  V30 2064 H 194.969 3.663 -0.148199 0
M  V30 2065 H 194.617 4.53891 2.16776 0
M  V30 2066 H 194.317 5.79948 0.945223 0
M  V30 2067 H 195.841 5.81015 1.87759 0
M  V30 2068 H 197.255 5.71958 -0.392039 0
M  V30 2069 H 195.652 5.88676 -1.16536 0
M  V30 2070 H 196.722 4.55927 -1.65103 0
M  V30 2071 N 198.065 0.39524 1.52563 0
M  V30 2072 C 199.481 0.0454682 1.59535 0
M  V30 2073 C 199.681 -1.44056 1.4089 0
M  V30 2074 O 198.737 -2.20579 1.22888 0
M  V30 2075 C 200.05 0.527963 2.96029 0
M  V30 2076 C 201.598 0.484733 3.09224 0
M  V30 2077 C 202.073 0.943512 4.48176 0
M  V30 2078 N 203.564 0.899765 4.54377 0
M  V30 2079 C 204.299 1.22609 5.60138 0
M  V30 2080 N 203.795 1.62319 6.73516 0
M  V30 2081 N 205.588 1.14696 5.50274 0
M  V30 2082 H 197.739 1.36261 1.62931 0
M  V30 2083 H 200.002 0.558887 0.765735 0
M  V30 2084 H 199.708 1.56607 3.14908 0
M  V30 2085 H 199.582 -0.0698056 3.77135 0
M  V30 2086 H 201.969 -0.544298 2.90037 0
M  V30 2087 H 202.05 1.11838 2.30056 0
M  V30 2088 H 201.694 1.9708 4.68104 0
M  V30 2089 H 201.624 0.286817 5.25818 0
M  V30 2090 H 204.115 0.607632 3.72983 0
M  V30 2091 H 204.428 1.85567 7.5019 0
M  V30 2092 H 202.773 1.66211 6.74833 0
M  V30 2093 H 205.964 0.835701 4.6058 0
M  V30 2094 H 206.137 1.40459 6.32594 0
M  V30 2095 N 199.544 -1.57102 0.125237 0
M  V30 2096 C 200.454 -2.19191 -0.8362 0
M  V30 2097 C 201.47 -1.16985 -1.28805 0
M  V30 2098 O 202.646 -1.49479 -1.34974 0
M  V30 2099 C 199.711 -2.78407 -2.06617 0
M  V30 2100 C 198.772 -3.9567 -1.66565 0
M  V30 2101 C 198.005 -4.52052 -2.83698 0
M  V30 2102 O 198.228 -4.07326 -3.99302 0
M  V30 2103 O 197.162 -5.42645 -2.60423 0
M  V30 2104 H 200.988 -3.01816 -0.337776 0
M  V30 2105 H 198.573 -1.4906 -0.100695 0
M  V30 2106 H 200.455 -3.16129 -2.7864 0
M  V30 2107 H 199.13 -1.9881 -2.55453 0
M  V30 2108 H 198.037 -3.62705 -0.916296 0
M  V30 2109 H 199.37 -4.76722 -1.22464 0
M  V30 2110 N 201.022 0.148545 -1.56898 0
M  V30 2111 C 202.299 0.890019 -1.74178 0
M  V30 2112 C 202.679 1.99407 -0.692839 0
M  V30 2113 O 202.027 2.26671 0.288505 0
M  V30 2114 C 202.237 1.43389 -3.18183 0
M  V30 2115 C 203.585 1.89791 -3.79822 0
M  V30 2116 O 204.609 1.53134 -3.21603 0
M  V30 2117 O 203.468 2.57387 -4.82093 0
M  V30 2118 H 200.562 0.420496 -0.712118 0
M  V30 2119 H 203.108 0.134591 -1.69165 0
M  V30 2120 H 201.88 0.640383 -3.86024 0
M  V30 2121 H 201.503 2.25287 -3.27615 0
M  V30 2122 N 202.5 1.5196 0.417844 0
M  V30 2123 C 203.43 1.77634 1.51554 0
M  V30 2124 C 204.411 0.626918 1.58126 0
M  V30 2125 O 205.596 0.871632 1.7354 0
M  V30 2126 C 202.726 1.91911 2.8946 0
M  V30 2127 C 201.68 3.07463 2.97743 0
M  V30 2128 C 201.006 3.06951 4.37819 0
M  V30 2129 C 202.306 4.47082 2.70027 0
M  V30 2130 H 204 2.6955 1.3032 0
M  V30 2131 H 201.546 1.29706 0.625492 0
M  V30 2132 H 203.499 2.08455 3.6623 0
M  V30 2133 H 202.223 0.966598 3.11969 0
M  V30 2134 H 200.882 2.90656 2.23416 0
M  V30 2135 H 200.53 2.09438 4.57323 0
M  V30 2136 H 200.23 3.84556 4.44286 0
M  V30 2137 H 201.754 3.25613 5.16535 0
M  V30 2138 H 203.168 4.6414 3.36522 0
M  V30 2139 H 201.565 5.2654 2.87881 0
M  V30 2140 H 202.635 4.55777 1.65514 0
M  V30 2141 N 203.978 -0.674533 1.42435 0
M  V30 2142 C 205.389 -1.25514 1.38214 0
M  V30 2143 C 205.74 -1.96055 0.0755464 0
M  V30 2144 O 204.865 -2.00028 -0.8257 0
M  V30 2145 C 205.46 -2.28269 2.50357 0
M  V30 2146 C 204.019 -2.81856 2.49467 0
M  V30 2147 C 203.166 -1.56182 2.29134 0
M  V30 2148 H 206.117 -0.467902 1.51646 0
M  V30 2149 H 206.138 -3.10009 2.20624 0
M  V30 2150 H 205.65 -1.769 3.45439 0
M  V30 2151 H 203.751 -3.37346 1.58204 0
M  V30 2152 H 203.864 -3.30854 3.46515 0
M  V30 2153 H 202.228 -1.82761 1.774 0
M  V30 2154 H 203.011 -1.06778 3.26272 0
M  V30 2155 N 205.456 -1.28612 -0.910864 0
M  V30 2156 C 206.704 -1.15705 -1.65701 0
M  V30 2157 C 207.025 0.29416 -1.92769 0
M  V30 2158 O 206.295 1.20331 -1.54588 0
M  V30 2159 H 204.875 -0.425216 -0.614167 0
M  V30 2160 H 207.537 -1.61381 -1.0928 0
M  V30 2161 H 206.633 -1.6988 -2.61815 0
M  V30 2162 N 206.934 1.1197 -1.10907 0
M  V30 2163 C 207.884 2.15946 -0.731538 0
M  V30 2164 C 208.868 1.58758 0.261699 0
M  V30 2165 O 210.06 1.76863 0.0696722 0
M  V30 2166 C 207.189 3.42877 -0.170299 0
M  V30 2167 C 206.275 4.07037 -1.19087 0
M  V30 2168 N 206.666 4.46135 -2.38322 0
M  V30 2169 C 204.964 4.33884 -1.03252 0
M  V30 2170 C 205.665 4.96331 -3.03366 0
M  V30 2171 N 204.641 4.9214 -2.30865 0
M  V30 2172 H 208.443 2.43947 -1.63912 0
M  V30 2173 H 205.957 1.28927 -0.987505 0
M  V30 2174 H 207.954 4.16732 0.118271 0
M  V30 2175 H 206.614 3.16343 0.731935 0
M  V30 2176 H 207.625 4.38345 -2.75815 0
M  V30 2177 H 204.302 4.17084 -0.186256 0
M  V30 2178 H 205.692 5.36257 -4.04818 0
M  V30 2179 N 208.412 0.89855 1.29475 0
M  V30 2180 C 209.66 0.522847 1.9522 0
M  V30 2181 C 209.981 -0.93371 1.71192 0
M  V30 2182 O 209.251 -1.65823 1.04305 0
M  V30 2183 H 207.831 0.190366 0.722336 0
M  V30 2184 H 210.493 1.14459 1.5775 0
M  V30 2185 H 209.589 0.704476 3.04045 0
M  V30 2186 N 209.89 -1.43072 0.660911 0
M  V30 2187 C 210.8 -2.34585 -0.0264163 0
M  V30 2188 C 211.816 -1.54316 -0.803898 0
M  V30 2189 O 212.992 -1.86939 -0.749391 0
M  V30 2190 C 210.057 -3.32689 -0.975639 0
M  V30 2191 C 209.118 -4.2886 -0.194236 0
M  V30 2192 C 208.351 -5.22278 -1.09825 0
M  V30 2193 O 208.574 -5.20299 -2.33763 0
M  V30 2194 O 207.508 -5.99228 -0.566513 0
M  V30 2195 H 211.334 -2.94869 0.727034 0
M  V30 2196 H 208.919 -1.43342 0.42111 0
M  V30 2197 H 210.801 -3.92995 -1.52094 0
M  V30 2198 H 209.476 -2.74898 -1.70918 0
M  V30 2199 H 208.383 -3.72011 0.394835 0
M  V30 2200 H 209.716 -4.89655 0.499899 0
M  V30 2201 N 211.368 -0.403325 -1.52352 0
M  V30 2202 C 212.616 0.174003 -2.0135 0
M  V30 2203 C 212.937 1.46139 -1.29106 0
M  V30 2204 O 212.207 1.91448 -0.415253 0
M  V30 2205 H 210.787 0.0672911 -0.743963 0
M  V30 2206 H 213.449 -0.538235 -1.87321 0
M  V30 2207 H 212.545 0.374254 -3.09848 0
M  V30 2208 N 212.846 1.57033 -0.133567 0
M  V30 2209 C 214.257 1.82593 0.389464 0
M  V30 2210 C 214.608 1.05156 1.6564 0
M  V30 2211 O 213.733 0.292644 2.14412 0
M  V30 2212 C 214.328 3.31204 0.713377 0
M  V30 2213 C 212.887 3.57393 1.18098 0
M  V30 2214 C 212.034 2.76598 0.197126 0
M  V30 2215 H 214.985 1.54598 -0.358481 0
M  V30 2216 H 215.006 3.46627 1.56939 0
M  V30 2217 H 214.518 3.87537 -0.2089 0
M  V30 2218 H 212.619 3.06433 2.11966 0
M  V30 2219 H 212.732 4.65915 1.11624 0
M  V30 2220 H 211.096 2.45257 0.687088 0
M  V30 2221 H 211.879 3.35697 -0.718504 0
M  V30 2222 N 214.325 -0.140222 1.56975 0
M  V30 2223 C 215.573 -0.850005 1.83356 0
M  V30 2224 C 215.894 -1.81399 0.71551 0
M  V30 2225 O 215.164 -1.94136 -0.262294 0
M  V30 2226 H 213.744 -0.316886 0.676456 0
M  V30 2227 H 216.406 -0.132608 1.94448 0
M  V30 2228 H 215.502 -1.40814 2.78528 0
M  V30 2229 N 215.803 -1.52179 -0.40978 0
M  V30 2230 C 216.713 -1.78364 -1.52392 0
M  V30 2231 C 217.729 -0.669183 -1.60617 0
M  V30 2232 O 218.905 -0.954518 -1.77344 0
M  V30 2233 C 215.97 -1.92822 -2.88133 0
M  V30 2234 C 215.031 -3.16725 -2.898 0
M  V30 2235 C 214.264 -3.30483 -4.19067 0
M  V30 2236 O 214.487 -2.49522 -5.12928 0
M  V30 2237 O 213.421 -4.2363 -4.27576 0
M  V30 2238 H 217.247 -2.72931 -1.33201 0
M  V30 2239 H 214.832 -1.37016 -0.59557 0
M  V30 2240 H 216.714 -2.04157 -3.68643 0
M  V30 2241 H 215.389 -1.01444 -3.07393 0
M  V30 2242 H 214.296 -3.10848 -2.08146 0
M  V30 2243 H 215.629 -4.07881 -2.75489 0
M  V30 2244 N 217.281 0.66697 -1.42791 0
M  V30 2245 C 218.228 1.7803 -1.4688 0
M  V30 2246 C 219.198 1.6299 -0.319919 0
M  V30 2247 O 220.383 1.83432 -0.525118 0
M  V30 2248 C 217.523 3.1611 -1.38451 0
M  V30 2249 C 216.636 3.42381 -2.63437 0
M  V30 2250 C 215.771 4.70232 -2.47094 0
M  V30 2251 C 214.81 4.89564 -3.67415 0
M  V30 2252 N 213.947 6.08661 -3.49966 0
M  V30 2253 H 218.787 1.7387 -2.42019 0
M  V30 2254 H 216.324 0.84868 -1.20149 0
M  V30 2255 H 218.282 3.95914 -1.31561 0
M  V30 2256 H 216.912 3.19374 -0.469033 0
M  V30 2257 H 215.964 2.56774 -2.80662 0
M  V30 2258 H 217.276 3.52557 -3.52853 0
M  V30 2259 H 216.43 5.5814 -2.37834 0
M  V30 2260 H 215.169 4.62353 -1.5518 0
M  V30 2261 H 214.174 4.00096 -3.77099 0
M  V30 2262 H 215.399 4.99282 -4.6032 0
M  V30 2263 H 213.345 6.0194 -2.60776 0
M  V30 2264 H 213.262 6.19733 -4.32975 0
M  V30 2265 H 214.53 6.99226 -3.44532 0
M  V30 2266 N 218.759 1.29093 0.90403 0
M  V30 2267 C 220.006 1.16813 1.65411 0
M  V30 2268 C 220.334 -0.28128 1.92455 0
M  V30 2269 O 219.589 -1.22006 1.53013 0
M  V30 2270 C 219.888 1.92224 3.01305 0
M  V30 2271 C 219.554 3.41968 2.93885 0
M  V30 2272 C 218.216 3.82807 2.91569 0
M  V30 2273 C 220.568 4.37409 2.83413 0
M  V30 2274 C 217.896 5.1741 2.76594 0
M  V30 2275 C 220.248 5.72097 2.69977 0
M  V30 2276 C 218.912 6.12199 2.66024 0
M  V30 2277 H 218.182 0.42745 0.605283 0
M  V30 2278 H 220.829 1.59981 1.05254 0
M  V30 2279 H 219.134 1.41635 3.65304 0
M  V30 2280 H 220.831 1.80131 3.58265 0
M  V30 2281 H 217.421 3.09504 2.96488 0
M  V30 2282 H 221.605 4.06813 2.84283 0
M  V30 2283 H 216.861 5.47596 2.71935 0
M  V30 2284 H 221.035 6.45704 2.60844 0
M  V30 2285 H 218.662 7.16448 2.54178 0
M  V30 2286 N 220.237 -1.11381 1.11499 0
M  V30 2287 C 221.465 -1.86934 0.88675 0
M  V30 2288 C 221.88 -1.80195 -0.563476 0
M  V30 2289 O 221.237 -1.18367 -1.38908 0
M  V30 2290 C 221.288 -3.35722 1.34064 0
M  V30 2291 O 221.009 -3.4232 2.73401 0
M  V30 2292 C 222.51 -4.2818 1.14791 0
M  V30 2293 H 219.73 -0.591117 0.317523 0
M  V30 2294 H 222.274 -1.40865 1.48248 0
M  V30 2295 H 220.429 -3.79294 0.788355 0
M  V30 2296 H 220.843 -4.34971 2.93087 0
M  V30 2297 H 222.317 -5.30817 1.5145 0
M  V30 2298 H 222.794 -4.39113 0.0875279 0
M  V30 2299 H 223.4 -3.90402 1.68721 0
M  V30 2300 N 221.715 -0.905404 -1.28997 0
M  V30 2301 C 222.678 -0.392253 -2.25819 0
M  V30 2302 C 223.678 0.476753 -1.5357 0
M  V30 2303 O 224.868 0.280994 -1.71919 0
M  V30 2304 C 222 0.438588 -3.38067 0
M  V30 2305 H 223.193 -1.24743 -2.72725 0
M  V30 2306 H 220.746 -0.684051 -1.40536 0
M  V30 2307 H 221.481 1.31352 -2.96508 0
M  V30 2308 H 221.266 -0.184167 -3.91667 0
M  V30 2309 H 222.756 0.78873 -4.10084 0
M  V30 2310 N 223.193 1.4272 -0.668489 0
M  V30 2311 C 224.103 2.34596 0.0139753 0
M  V30 2312 C 225.119 1.5474 0.795703 0
M  V30 2313 O 226.295 1.87334 0.739466 0
M  V30 2314 C 223.36 3.33202 0.957982 0
M  V30 2315 C 222.421 4.28957 0.17149 0
M  V30 2316 C 221.654 5.22853 1.07053 0
M  V30 2317 O 221.877 5.21531 2.31001 0
M  V30 2318 O 220.811 5.9952 0.534727 0
M  V30 2319 H 224.637 2.9448 -0.742661 0
M  V30 2320 H 222.222 1.43117 -0.428705 0
M  V30 2321 H 224.104 3.93796 1.50008 0
M  V30 2322 H 222.779 2.758 1.69458 0
M  V30 2323 H 221.686 3.71796 -0.414558 0
M  V30 2324 H 223.019 4.89383 -0.52586 0
M  V30 2325 N 224.671 0.411399 1.52136 0
M  V30 2326 C 225.899 -0.163076 2.06256 0
M  V30 2327 C 226.314 -1.3867 1.28125 0
M  V30 2328 O 225.671 -1.79423 0.333721 0
M  V30 2329 C 225.722 -0.511252 3.57867 0
M  V30 2330 O 225.443 0.66378 4.33042 0
M  V30 2331 C 226.944 -1.13921 4.28412 0
M  V30 2332 H 224.164 -0.0193897 0.67072 0
M  V30 2333 H 226.708 0.583007 1.96013 0
M  V30 2334 H 224.863 -1.20723 3.6811 0
M  V30 2335 H 225.277 0.372601 5.23175 0
M  V30 2336 H 226.751 -1.33302 5.35663 0
M  V30 2337 H 227.228 -2.11296 3.85033 0
M  V30 2338 H 227.834 -0.483373 4.22544 0
M  V30 2339 N 226.149 -1.5696 0.141893 0
M  V30 2340 C 227.096 -2.16501 -0.799737 0
M  V30 2341 C 228.066 -1.09643 -1.24771 0
M  V30 2342 O 229.251 -1.3766 -1.32115 0
M  V30 2343 C 226.391 -2.78679 -2.03549 0
M  V30 2344 C 225.504 -3.99914 -1.6338 0
M  V30 2345 C 224.639 -4.50106 -2.82096 0
M  V30 2346 C 223.678 -5.63819 -2.38275 0
M  V30 2347 N 222.815 -6.08651 -3.49983 0
M  V30 2348 H 227.655 -2.96632 -0.285179 0
M  V30 2349 H 225.192 -1.46533 -0.129053 0
M  V30 2350 H 227.15 -3.1287 -2.75986 0
M  V30 2351 H 225.78 -2.012 -2.52425 0
M  V30 2352 H 224.832 -3.71735 -0.807279 0
M  V30 2353 H 226.144 -4.82311 -1.27192 0
M  V30 2354 H 225.298 -4.86325 -3.62729 0
M  V30 2355 H 224.037 -3.66706 -3.21525 0
M  V30 2356 H 223.042 -5.2718 -1.56081 0
M  V30 2357 H 224.267 -6.49 -1.99938 0
M  V30 2358 H 222.213 -5.28188 -3.89042 0
M  V30 2359 H 222.13 -6.85961 -3.17794 0
M  V30 2360 H 223.398 -6.49515 -4.30988 0
M  V30 2361 N 227.627 0.131896 -1.57047 0
M  V30 2362 C 228.857 0.855219 -1.88068 0
M  V30 2363 C 229.265 1.74557 -0.729817 0
M  V30 2364 O 228.608 1.81083 0.308962 0
M  V30 2365 C 228.67 1.75119 -3.13964 0
M  V30 2366 C 228.334 1.03646 -4.45091 0
M  V30 2367 C 229.331 0.383276 -5.18485 0
M  V30 2368 C 227.016 1.02148 -4.91804 0
M  V30 2369 C 229.01 -0.275347 -6.36805 0
M  V30 2370 C 226.697 0.359047 -6.10044 0
M  V30 2371 C 227.695 -0.288222 -6.82392 0
M  V30 2372 O 227.383 -0.94011 -7.98384 0
M  V30 2373 H 227.115 0.251864 -0.627328 0
M  V30 2374 H 229.669 0.124782 -2.05021 0
M  V30 2375 H 227.899 2.52295 -2.9306 0
M  V30 2376 H 229.588 2.3478 -3.31109 0
M  V30 2377 H 230.354 0.386562 -4.83457 0
M  V30 2378 H 226.233 1.5147 -4.35405 0
M  V30 2379 H 229.777 -0.781148 -6.93213 0
M  V30 2380 H 225.674 0.35348 -6.44531 0
M  V30 2381 H 226.442 -0.84329 -8.14144 0
M  V30 2382 N 229.106 1.52395 0.401703 0
M  V30 2383 C 230.054 1.7689 1.51039 0
M  V30 2384 C 231.048 0.636298 1.56996 0
M  V30 2385 O 232.254 0.818507 1.60314 0
M  V30 2386 H 228.629 0.559502 0.502456 0
M  V30 2387 H 230.6 2.69757 1.27568 0
M  V30 2388 C 229.349 1.94331 2.88324 0
M  V30 2389 H 228.672 2.80905 2.84486 0
M  V30 2390 H 230.112 2.15466 3.65172 0
M  V30 2391 C 228.571 0.712396 3.29282 0
M  V30 2392 O 229.101 -0.116218 4.01532 0
M  V30 2393 N 227.307 0.546154 2.85422 0
M  V30 2394 H 226.854 1.22156 2.26794 0
M  V30 2395 H 226.812 -0.276113 3.13185 0
M  V30 2396 N 230.584 -0.659388 1.43143 0
M  V30 2397 C 231.995 -1.24041 1.39537 0
M  V30 2398 C 232.346 -1.95963 0.0963364 0
M  V30 2399 O 231.471 -2.00892 -0.804438 0
M  V30 2400 C 232.066 -2.25601 2.52764 0
M  V30 2401 C 230.625 -2.79195 2.52443 0
M  V30 2402 C 229.772 -1.53743 2.30778 0
M  V30 2403 H 232.723 -0.451792 1.52133 0
M  V30 2404 H 232.744 -3.07651 2.23899 0
M  V30 2405 H 232.256 -1.73226 3.47296 0
M  V30 2406 H 230.357 -3.35649 1.61773 0
M  V30 2407 H 230.47 -3.2716 3.50004 0
M  V30 2408 H 228.834 -1.80869 1.79328 0
M  V30 2409 H 229.617 -1.03312 3.27386 0
M  V30 2410 N 232.062 -1.29571 -0.897171 0
M  V30 2411 C 233.287 -1.20705 -1.68656 0
M  V30 2412 C 233.712 0.228582 -1.86706 0
M  V30 2413 O 233.07 1.16494 -1.3892 0
M  V30 2414 C 233.118 -1.9282 -3.04717 0
M  V30 2415 O 232.222 -1.24697 -3.93096 0
M  V30 2416 H 231.563 -0.418126 -0.515816 0
M  V30 2417 H 234.093 -1.71183 -1.12061 0
M  V30 2418 H 234.103 -2.01372 -3.54843 0
M  V30 2419 H 232.778 -2.97239 -2.90899 0
M  V30 2420 H 231.355 -1.2442 -3.51531 0
M  V30 2421 N 233.54 1.10788 -1.12088 0
M  V30 2422 C 234.765 1.87002 -0.896949 0
M  V30 2423 C 235.19 1.79933 0.548261 0
M  V30 2424 O 234.548 1.16662 1.38779 0
M  V30 2425 C 234.596 3.3349 -1.37174 0
M  V30 2426 O 233.7 4.08745 -0.547831 0
M  V30 2427 H 233.041 0.580397 -0.322545 0
M  V30 2428 H 235.571 1.39996 -1.49206 0
M  V30 2429 H 235.581 3.84339 -1.36922 0
M  V30 2430 H 234.256 3.37951 -2.42408 0
M  V30 2431 H 232.833 3.6776 -0.617034 0
M  V30 2432 N 235.018 0.912232 1.28515 0
M  V30 2433 C 236.429 0.591352 1.77087 0
M  V30 2434 C 236.78 -0.8933 1.74684 0
M  V30 2435 O 235.905 -1.69876 1.34056 0
M  V30 2436 C 236.5 1.06668 3.2157 0
M  V30 2437 C 235.059 0.79675 3.67871 0
M  V30 2438 C 234.206 1.23427 2.48316 0
M  V30 2439 H 237.157 1.09365 1.15 0
M  V30 2440 H 237.178 0.407455 3.78312 0
M  V30 2441 H 236.69 2.14726 3.23287 0
M  V30 2442 H 234.791 -0.270679 3.71616 0
M  V30 2443 H 234.904 1.40343 4.58084 0
M  V30 2444 H 233.268 0.653036 2.46186 0
M  V30 2445 H 234.051 2.32316 2.52753 0
M  V30 2446 N 236.496 -1.42363 0.676048 0
M  V30 2447 C 237.726 -2.05561 0.206967 0
M  V30 2448 C 238.134 -1.50887 -1.14148 0
M  V30 2449 O 237.477 -0.643933 -1.72044 0
M  V30 2450 C 237.539 -3.5944 0.0659508 0
M  V30 2451 C 237.203 -4.36812 1.34331 0
M  V30 2452 C 238.2 -4.67383 2.27704 0
M  V30 2453 C 235.885 -4.76429 1.59125 0
M  V30 2454 C 237.879 -5.36509 3.44147 0
M  V30 2455 C 235.566 -5.45294 2.75857 0
M  V30 2456 C 236.564 -5.75259 3.68193 0
M  V30 2457 O 236.252 -6.42712 4.82883 0
M  V30 2458 H 235.984 -0.668872 0.0979084 0
M  V30 2459 H 238.538 -1.83467 0.923531 0
M  V30 2460 H 236.768 -3.80197 -0.706204 0
M  V30 2461 H 238.457 -4.0427 -0.363418 0
M  V30 2462 H 239.223 -4.37275 2.09799 0
M  V30 2463 H 235.102 -4.52498 0.881258 0
M  V30 2464 H 238.646 -5.59814 4.16238 0
M  V30 2465 H 234.543 -5.7482 2.93688 0
M  V30 2466 H 235.311 -6.61204 4.82444 0
M  V30 2467 N 237.974 -0.419461 -1.51915 0
M  V30 2468 C 239.199 0.154572 -2.06823 0
M  V30 2469 C 239.624 1.3722 -1.28656 0
M  V30 2470 O 238.982 1.78461 -0.319583 0
M  V30 2471 C 239.03 0.473172 -3.57482 0
M  V30 2472 O 238.134 1.56255 -3.81652 0
M  V30 2473 H 237.475 0.0096924 -0.663929 0
M  V30 2474 H 240.005 -0.595642 -1.95738 0
M  V30 2475 H 240.015 0.728825 -4.01438 0
M  V30 2476 H 238.69 -0.416873 -4.13805 0
M  V30 2477 H 237.267 1.29825 -3.49571 0
M  V30 2478 N 239.452 1.56882 -0.150215 0
M  V30 2479 C 240.677 2.01027 0.510184 0
M  V30 2480 C 241.102 1.02966 1.57415 0
M  V30 2481 O 240.46 0.00590158 1.81299 0
M  V30 2482 C 240.508 3.43899 1.08472 0
M  V30 2483 O 239.612 3.4885 2.19948 0
M  V30 2484 H 238.953 0.652233 0.124451 0
M  V30 2485 H 241.483 2.03093 -0.247894 0
M  V30 2486 H 241.493 3.82766 1.41259 0
M  V30 2487 H 240.168 4.14776 0.305582 0
M  V30 2488 H 238.745 3.21827 1.88366 0
M  V30 2489 N 240.93 -0.123565 1.57115 0
M  V30 2490 C 242.158 -0.846461 1.88793 0
M  V30 2491 C 242.573 -1.73652 0.740976 0
M  V30 2492 O 241.93 -1.80207 -0.288393 0
M  V30 2493 C 241.981 -1.6837 3.19897 0
M  V30 2494 O 241.702 -0.829477 4.30176 0
M  V30 2495 C 243.203 -2.51214 3.65248 0
M  V30 2496 H 240.423 -0.243573 0.625231 0
M  V30 2497 H 242.967 -0.109324 2.04208 0
M  V30 2498 H 241.122 -2.37364 3.06165 0
M  V30 2499 H 241.536 -1.40651 5.0529 0
M  V30 2500 H 243.01 -3.05497 4.59756 0
M  V30 2501 H 243.487 -3.28359 2.9168 0
M  V30 2502 H 244.093 -1.8747 3.81752 0
M  V30 2503 N 242.408 -1.52605 -0.393616 0
M  V30 2504 C 243.355 -1.77055 -1.48054 0
M  V30 2505 C 244.325 -0.61358 -1.54352 0
M  V30 2506 O 245.51 -0.852806 -1.70681 0
M  V30 2507 C 242.65 -1.94108 -2.85335 0
M  V30 2508 C 241.763 -3.21792 -2.88226 0
M  V30 2509 C 240.898 -3.29188 -4.16904 0
M  V30 2510 C 239.937 -4.51013 -4.13828 0
M  V30 2511 N 239.074 -4.55716 -5.34105 0
M  V30 2512 H 243.914 -2.69815 -1.26506 0
M  V30 2513 H 241.451 -1.33683 -0.61379 0
M  V30 2514 H 243.409 -2.01979 -3.65049 0
M  V30 2515 H 242.039 -1.04713 -3.05344 0
M  V30 2516 H 241.091 -3.23015 -2.00911 0
M  V30 2517 H 242.403 -4.11557 -2.8182 0
M  V30 2518 H 241.557 -3.36216 -5.05018 0
M  V30 2519 H 240.296 -2.37389 -4.26026 0
M  V30 2520 H 239.301 -4.44115 -3.24102 0
M  V30 2521 H 240.526 -5.44123 -4.06333 0
M  V30 2522 H 238.472 -3.66807 -5.43865 0
M  V30 2523 H 238.389 -5.39346 -5.29756 0
M  V30 2524 H 239.657 -4.66993 -6.2413 0
M  V30 2525 N 243.887 0.651787 -1.4349 0
M  V30 2526 C 244.85 1.74647 -1.48429 0
M  V30 2527 C 245.85 1.56513 -0.368817 0
M  V30 2528 O 247.04 1.62385 -0.630623 0
M  V30 2529 C 244.172 3.13533 -1.33827 0
M  V30 2530 H 245.365 1.71649 -2.4592 0
M  V30 2531 H 242.918 0.863573 -1.30277 0
M  V30 2532 H 243.653 3.22142 -0.37349 0
M  V30 2533 H 243.438 3.28101 -2.14691 0
M  V30 2534 H 244.928 3.93356 -1.40218 0
M  V30 2535 N 245.365 1.30045 0.890287 0
M  V30 2536 C 246.328 1.15963 1.977 0
M  V30 2537 C 247.328 0.0923777 1.60534 0
M  V30 2538 O 248.518 0.340071 1.70848 0
M  V30 2539 C 245.65 0.775451 3.31963 0
M  V30 2540 H 246.843 2.12502 2.11619 0
M  V30 2541 H 244.396 1.13366 1.07601 0
M  V30 2542 H 245.131 -0.189671 3.23745 0
M  V30 2543 H 244.916 1.54668 3.60306 0
M  V30 2544 H 246.406 0.700251 4.11687 0
M  V30 2545 N 246.843 -1.10192 1.12674 0
M  V30 2546 C 248.068 -1.86523 0.906853 0
M  V30 2547 C 248.493 -1.80221 -0.538711 0
M  V30 2548 O 247.851 -1.17396 -1.38158 0
M  V30 2549 C 247.899 -3.32758 1.3894 0
M  V30 2550 O 247.003 -4.08449 0.5695 0
M  V30 2551 H 246.344 -0.578678 0.325619 0
M  V30 2552 H 248.874 -1.39203 1.49946 0
M  V30 2553 H 248.884 -3.83608 1.38958 0
M  V30 2554 H 247.559 -3.36661 2.44197 0
M  V30 2555 H 246.136 -3.67427 0.636528 0
M  V30 2556 N 248.321 -0.919034 -1.28029 0
M  V30 2557 C 249.598 -0.473668 -1.89778 0
M  V30 2558 C 249.978 1.04783 -1.83259 0
M  V30 2559 O 249.326 1.8982 -1.27202 0
M  V30 2560 C 249.536 -1.00998 -3.34066 0
M  V30 2561 C 250.884 -1.06525 -4.1102 0
M  V30 2562 O 251.908 -0.958996 -3.43048 0
M  V30 2563 O 250.767 -1.22776 -5.3253 0
M  V30 2564 H 247.861 -0.15098 -0.813101 0
M  V30 2565 H 250.407 -1.01016 -1.36359 0
M  V30 2566 H 249.179 -2.05392 -3.33061 0
M  V30 2567 H 248.802 -0.454626 -3.94992 0
M  V30 2568 N 249.799 1.42003 -0.683588 0
M  V30 2569 C 250.729 2.33487 -0.024866 0
M  V30 2570 C 251.71 1.51163 0.779975 0
M  V30 2571 O 252.895 1.79739 0.735362 0
M  V30 2572 C 250.025 3.3487 0.920836 0
M  V30 2573 C 248.979 4.27414 0.223958 0
M  V30 2574 C 248.305 5.19074 1.2832 0
M  V30 2575 C 249.605 5.14445 -0.90242 0
M  V30 2576 H 251.299 2.88819 -0.788921 0
M  V30 2577 H 248.845 1.38873 -0.38083 0
M  V30 2578 H 250.798 3.97787 1.39081 0
M  V30 2579 H 249.522 2.77861 1.71642 0
M  V30 2580 H 248.181 3.65904 -0.225864 0
M  V30 2581 H 247.829 4.58387 2.071 0
M  V30 2582 H 247.529 5.81822 0.821995 0
M  V30 2583 H 249.053 5.84867 1.75392 0
M  V30 2584 H 250.467 5.70998 -0.513272 0
M  V30 2585 H 248.864 5.86072 -1.28997 0
M  V30 2586 H 249.934 4.52322 -1.74737 0
M  V30 2587 N 251.277 0.427512 1.51691 0
M  V30 2588 C 252.526 -0.143679 2.01188 0
M  V30 2589 C 252.839 -1.44642 1.31674 0
M  V30 2590 O 254.045 -2.09997 1.72086 0
M  V30 2591 C 252.501 -0.306602 3.58592 0
M  V30 2592 C 252.109 0.985125 4.37035 0
M  V30 2593 C 253.853 -0.832091 4.16265 0
M  V30 2594 C 251.76 0.788382 5.86122 0
M  V30 2595 H 250.69 -0.0574701 0.751807 0
M  V30 2596 H 253.341 0.555772 1.74881 0
M  V30 2597 H 251.723 -1.06882 3.81303 0
M  V30 2598 H 252.897 1.75492 4.26074 0
M  V30 2599 H 251.212 1.4384 3.90767 0
M  V30 2600 H 253.809 -0.995617 5.25349 0
M  V30 2601 H 254.152 -1.81186 3.74803 0
M  V30 2602 H 254.685 -0.128444 3.97593 0
M  V30 2603 H 251.424 1.74025 6.31978 0
M  V30 2604 H 250.944 0.0582143 5.99772 0
M  V30 2605 H 252.623 0.437722 6.45518 0
M  V30 2606 N 252.755 -1.56801 0.158532 0
M  V30 2607 C 254.001 -1.96781 -0.490405 0
M  V30 2608 C 254.334 -1.04397 -1.63753 0
M  V30 2609 O 253.609 -0.0885805 -1.94298 0
M  V30 2610 C 253.892 -3.4635 -0.985594 0
M  V30 2611 C 253.745 -4.49512 0.160824 0
M  V30 2612 C 255.064 -3.98697 -1.86355 0
M  V30 2613 H 252.183 -0.715482 -0.176788 0
M  V30 2614 H 254.825 -1.88451 0.242088 0
M  V30 2615 H 252.975 -3.53579 -1.60978 0
M  V30 2616 H 254.647 -4.54353 0.797537 0
M  V30 2617 H 252.89 -4.26013 0.818256 0
M  V30 2618 H 253.561 -5.51531 -0.227569 0
M  V30 2619 H 256.037 -3.94019 -1.33746 0
M  V30 2620 H 254.913 -5.03792 -2.17909 0
M  V30 2621 H 255.174 -3.41744 -2.8047 0
M  V30 2622 N 254.233 0.115231 -1.57178 0
M  V30 2623 C 255.18 1.14115 -2.00615 0
M  V30 2624 C 256.15 1.40939 -0.878941 0
M  V30 2625 O 257.335 1.52741 -1.14345 0
M  V30 2626 C 254.475 2.46156 -2.4187 0
M  V30 2627 C 253.588 2.26236 -3.68024 0
M  V30 2628 C 252.723 3.51534 -3.98243 0
M  V30 2629 C 251.762 3.26787 -5.17568 0
M  V30 2630 N 250.899 4.44298 -5.43639 0
M  V30 2631 H 255.739 0.763743 -2.88047 0
M  V30 2632 H 253.276 0.365615 -1.42484 0
M  V30 2633 H 255.234 3.23189 -2.63827 0
M  V30 2634 H 253.864 2.81783 -1.57475 0
M  V30 2635 H 252.916 1.40102 -3.5366 0
M  V30 2636 H 254.228 2.03929 -4.55208 0
M  V30 2637 H 253.382 4.36984 -4.20868 0
M  V30 2638 H 252.121 3.76876 -3.09541 0
M  V30 2639 H 251.126 2.39729 -4.94783 0
M  V30 2640 H 252.351 3.02812 -6.0785 0
M  V30 2641 H 250.297 4.69754 -4.57895 0
M  V30 2642 H 250.214 4.25109 -6.25154 0
M  V30 2643 H 251.482 5.3087 -5.70786 0
M  V30 2644 N 255.711 1.52812 0.385517 0
M  V30 2645 C 256.674 1.77188 1.45386 0
M  V30 2646 C 257.674 0.641953 1.4743 0
M  V30 2647 O 258.864 0.910033 1.4854 0
M  V30 2648 C 255.996 1.87582 2.8465 0
M  V30 2649 H 257.189 2.72583 1.25054 0
M  V30 2650 H 254.742 1.43586 0.617467 0
M  V30 2651 H 255.477 0.941849 3.10322 0
M  V30 2652 H 255.262 2.69748 2.84567 0
M  V30 2653 H 256.752 2.08102 3.62054 0
M  V30 2654 N 257.189 -0.644168 1.43834 0
M  V30 2655 C 258.435 -1.40431 1.47141 0
M  V30 2656 C 258.79 -1.92153 0.0975577 0
M  V30 2657 O 258.083 -1.69924 -0.885232 0
M  V30 2658 C 258.277 -2.59615 2.45631 0
M  V30 2659 C 258.106 -2.1956 3.92458 0
M  V30 2660 C 256.876 -2.07456 4.60749 0
M  V30 2661 C 259.074 -1.79281 4.8204 0
M  V30 2662 N 257.056 -1.60827 5.92459 0
M  V30 2663 C 258.427 -1.43801 6.03093 0
M  V30 2664 C 260.482 -1.66545 4.6922 0
M  V30 2665 C 259.185 -0.968599 7.12749 0
M  V30 2666 C 261.211 -1.21008 5.78888 0
M  V30 2667 C 260.573 -0.864711 6.99072 0
M  V30 2668 H 256.672 -0.509182 0.593513 0
M  V30 2669 H 259.256 -0.740351 1.80075 0
M  V30 2670 H 257.427 -3.23658 2.1471 0
M  V30 2671 H 259.159 -3.26357 2.39318 0
M  V30 2672 H 255.914 -2.275 4.1538 0
M  V30 2673 H 256.338 -1.39848 6.62398 0
M  V30 2674 H 260.98 -1.91883 3.7675 0
M  V30 2675 H 258.698 -0.702715 8.05039 0
M  V30 2676 H 262.284 -1.11631 5.7099 0
M  V30 2677 H 261.164 -0.517736 7.82489 0
M  V30 2678 N 258.668 -1.30515 -0.883378 0
M  V30 2679 C 259.914 -1.19607 -1.63774 0
M  V30 2680 C 260.247 0.248314 -1.92606 0
M  V30 2681 O 259.522 1.17742 -1.54813 0
M  V30 2682 C 259.805 -2.02669 -2.97653 0
M  V30 2683 C 259.658 -3.55335 -2.75784 0
M  V30 2684 C 260.977 -1.86573 -3.98596 0
M  V30 2685 H 258.096 -0.435856 -0.594305 0
M  V30 2686 H 260.738 -1.60165 -1.02212 0
M  V30 2687 H 258.888 -1.68208 -3.50197 0
M  V30 2688 H 260.56 -3.99863 -2.30016 0
M  V30 2689 H 258.803 -3.79438 -2.1026 0
M  V30 2690 H 259.474 -4.08745 -3.70988 0
M  V30 2691 H 261.95 -2.16703 -3.55217 0
M  V30 2692 H 260.826 -2.47014 -4.90179 0
M  V30 2693 H 261.087 -0.825321 -4.34328 0
M  V30 2694 N 260.146 1.09593 -1.13257 0
M  V30 2695 C 261.562 1.33775 -0.870423 0
M  V30 2696 C 261.762 1.95327 0.494926 0
M  V30 2697 O 260.818 2.19853 1.2418 0
M  V30 2698 C 262.131 2.25106 -1.99369 0
M  V30 2699 C 263.679 2.3862 -2.02558 0
M  V30 2700 C 264.154 3.33285 -3.14142 0
M  V30 2701 N 265.645 3.40857 -3.13641 0
M  V30 2702 C 266.38 4.14101 -3.96621 0
M  V30 2703 N 265.876 4.90157 -4.8961 0
M  V30 2704 N 267.669 4.09808 -3.84726 0
M  V30 2705 H 259.82 0.680136 -2.01216 0
M  V30 2706 H 262.083 0.362133 -0.876107 0
M  V30 2707 H 261.789 1.87103 -2.97801 0
M  V30 2708 H 261.663 3.25481 -1.90635 0
M  V30 2709 H 264.05 2.75887 -1.0474 0
M  V30 2710 H 264.131 1.38028 -2.15364 0
M  V30 2711 H 263.775 2.96741 -4.12198 0
M  V30 2712 H 263.705 4.33776 -2.98574 0
M  V30 2713 H 266.196 2.86624 -2.46282 0
M  V30 2714 H 266.509 5.4347 -5.49418 0
M  V30 2715 H 264.854 4.89251 -4.93617 0
M  V30 2716 H 268.045 3.4949 -3.11408 0
M  V30 2717 H 268.218 4.66629 -4.49623 0
M  V30 2718 N 261.624 0.925811 1.2754 0
M  V30 2719 C 262.849 0.580924 1.99098 0
M  V30 2720 C 263.274 -0.833555 1.68622 0
M  V30 2721 O 262.632 -1.55903 0.925422 0
M  V30 2722 C 262.68 0.811186 3.51358 0
M  V30 2723 O 261.784 -0.124129 4.12213 0
M  V30 2724 H 261.125 0.223873 0.625122 0
M  V30 2725 H 263.655 1.24455 1.62395 0
M  V30 2726 H 263.665 0.72601 4.01489 0
M  V30 2727 H 262.34 1.84227 3.72872 0
M  V30 2728 H 260.917 0.0108006 3.72898 0
M  V30 2729 N 263.102 -1.41638 0.69111 0
M  V30 2730 C 264.349 -2.01299 0.220193 0
M  V30 2731 C 264.677 -1.54715 -1.17871 0
M  V30 2732 O 263.932 -0.747193 -1.80874 0
M  V30 2733 C 264.231 -3.56714 0.221277 0
M  V30 2734 C 263.897 -4.22792 1.56709 0
M  V30 2735 C 262.559 -4.40557 1.93554 0
M  V30 2736 C 264.911 -4.59883 2.45268 0
M  V30 2737 C 262.239 -4.92688 3.18552 0
M  V30 2738 C 264.591 -5.13403 3.69595 0
M  V30 2739 C 263.255 -5.29379 4.06589 0
M  V30 2740 H 262.525 -0.736606 0.0805743 0
M  V30 2741 H 265.172 -1.69598 0.889319 0
M  V30 2742 H 263.477 -3.8818 -0.531391 0
M  V30 2743 H 265.174 -4.00678 -0.160547 0
M  V30 2744 H 261.764 -4.09336 1.2705 0
M  V30 2745 H 265.948 -4.45817 2.18084 0
M  V30 2746 H 261.204 -5.03242 3.47214 0
M  V30 2747 H 265.378 -5.41084 4.38407 0
M  V30 2748 H 263.005 -5.69537 5.03519 0
M  V30 2749 N 264.58 -0.43555 -1.51462 0
M  V30 2750 C 265.828 0.131254 -2.01673 0
M  V30 2751 C 266.149 1.43368 -1.32177 0
M  V30 2752 O 265.419 1.90524 -0.455769 0
M  V30 2753 H 263.999 0.0514954 -0.745223 0
M  V30 2754 H 266.661 -0.577847 -1.86137 0
M  V30 2755 H 265.757 0.308446 -3.10572 0
M  V30 2756 N 266.058 1.56714 -0.166846 0
M  V30 2757 C 267.304 1.97039 0.479962 0
M  V30 2758 C 267.637 1.05264 1.63197 0
M  V30 2759 O 266.912 0.0988833 1.94248 0
M  V30 2760 C 267.195 3.46867 0.967212 0
M  V30 2761 C 267.048 4.49421 -0.18466 0
M  V30 2762 C 268.367 3.9968 1.84238 0
M  V30 2763 H 265.486 0.71641 0.172992 0
M  V30 2764 H 268.128 1.8832 -0.252079 0
M  V30 2765 H 266.278 3.54428 1.59101 0
M  V30 2766 H 267.95 4.53924 -0.821621 0
M  V30 2767 H 266.193 4.25573 -0.840837 0
M  V30 2768 H 266.864 5.51644 0.198317 0
M  V30 2769 H 269.34 3.94723 1.31655 0
M  V30 2770 H 268.216 5.04941 2.15234 0
M  V30 2771 H 268.477 3.43226 2.78654 0
M  V30 2772 N 267.536 -0.106894 1.57237 0
M  V30 2773 C 268.483 -1.13049 2.01217 0
M  V30 2774 C 269.453 -1.40471 0.886403 0
M  V30 2775 O 270.638 -1.52133 1.15153 0
M  V30 2776 C 267.778 -2.4487 2.43172 0
M  V30 2777 C 266.891 -2.24281 3.69218 0
M  V30 2778 C 266.026 -3.49417 4.00101 0
M  V30 2779 C 265.065 -3.24038 5.19294 0
M  V30 2780 N 264.202 -4.41409 5.45988 0
M  V30 2781 H 269.042 -0.748456 2.88448 0
M  V30 2782 H 266.579 -0.358054 1.42676 0
M  V30 2783 H 268.537 -3.21786 2.65537 0
M  V30 2784 H 267.167 -2.80944 1.58967 0
M  V30 2785 H 266.219 -1.38224 3.54398 0
M  V30 2786 H 267.531 -2.01512 4.56283 0
M  V30 2787 H 266.685 -4.34746 4.2318 0
M  V30 2788 H 265.424 -3.75229 3.11535 0
M  V30 2789 H 264.429 -2.37102 4.96047 0
M  V30 2790 H 265.654 -2.99584 6.09447 0
M  V30 2791 H 263.6 -4.67319 4.60379 0
M  V30 2792 H 263.517 -4.21788 6.274 0
M  V30 2793 H 264.785 -5.27836 5.73593 0
M  V30 2794 N 269.014 -1.53014 -0.377408 0
M  V30 2795 C 269.977 -1.77957 -1.44444 0
M  V30 2796 C 270.977 -0.649763 -1.47087 0
M  V30 2797 O 272.167 -0.917897 -1.48055 0
M  V30 2798 C 269.299 -1.89089 -2.83651 0
M  V30 2799 H 270.492 -2.73243 -1.23606 0
M  V30 2800 H 268.045 -1.43912 -0.609844 0
M  V30 2801 H 268.78 -0.958293 -3.09818 0
M  V30 2802 H 268.565 -2.71254 -2.83132 0
M  V30 2803 H 270.055 -2.1002 -3.60945 0
M  V30 2804 N 270.492 0.636531 -1.44174 0
M  V30 2805 C 271.72 1.42353 -1.50144 0
M  V30 2806 C 272.135 1.88389 -0.124575 0
M  V30 2807 O 271.492 1.6051 0.868489 0
M  V30 2808 C 271.543 2.64744 -2.46156 0
M  V30 2809 O 271.264 2.20629 -3.7849 0
M  V30 2810 C 272.765 3.57929 -2.61537 0
M  V30 2811 H 269.985 0.436752 -0.5094 0
M  V30 2812 H 272.529 0.778933 -1.89084 0
M  V30 2813 H 270.684 3.25307 -2.10366 0
M  V30 2814 H 271.098 2.99938 -4.30276 0
M  V30 2815 H 272.572 4.40428 -3.32757 0
M  V30 2816 H 273.049 4.06382 -1.66585 0
M  V30 2817 H 273.655 3.03238 -2.98206 0
M  V30 2818 N 271.97 1.30982 0.876444 0
M  V30 2819 C 273.219 1.19658 1.62373 0
M  V30 2820 C 273.532 -0.245636 1.94052 0
M  V30 2821 O 274.738 -0.48049 2.67214 0
M  V30 2822 C 273.194 2.09433 2.92687 0
M  V30 2823 C 272.802 3.58613 2.68516 0
M  V30 2824 C 274.546 2.06893 3.70669 0
M  V30 2825 C 272.453 4.40416 3.94699 0
M  V30 2826 H 271.383 0.444268 0.609214 0
M  V30 2827 H 274.034 1.55791 0.969605 0
M  V30 2828 H 272.416 1.66191 3.59439 0
M  V30 2829 H 273.59 4.10058 2.10212 0
M  V30 2830 H 271.905 3.63063 2.03898 0
M  V30 2831 H 274.502 2.65258 4.64265 0
M  V30 2832 H 274.845 1.05448 4.02724 0
M  V30 2833 H 275.378 2.48301 3.10792 0
M  V30 2834 H 272.117 5.42591 3.67798 0
M  V30 2835 H 271.637 3.93731 4.52477 0
M  V30 2836 H 273.316 4.52294 4.62644 0
M  V30 2837 N 273.449 -1.08991 1.13837 0
M  V30 2838 C 274.674 -1.85551 0.926585 0
M  V30 2839 C 275.099 -1.80782 -0.519566 0
M  V30 2840 O 274.457 -1.18855 -1.36906 0
M  V30 2841 C 274.505 -3.31266 1.42462 0
M  V30 2842 O 273.609 -4.07822 0.612789 0
M  V30 2843 H 272.95 -0.575192 0.331738 0
M  V30 2844 H 275.48 -1.37604 1.51414 0
M  V30 2845 H 275.49 -3.82112 1.43019 0
M  V30 2846 H 274.165 -3.34052 2.47754 0
M  V30 2847 H 272.742 -3.66731 0.675463 0
M  V30 2848 N 274.927 -0.932562 -1.27047 0
M  V30 2849 C 275.875 -0.42603 -2.28665 0
M  V30 2850 C 276.869 0.49219 -1.62092 0
M  V30 2851 O 278.075 0.371355 -1.76128 0
M  V30 2852 H 274.45 -0.119213 -0.742491 0
M  V30 2853 H 276.421 -1.29579 -2.68797 0
M  V30 2854 C 275.17 0.301426 -3.46391 0
M  V30 2855 H 274.493 -0.39595 -3.97834 0
M  V30 2856 H 275.933 0.6202 -4.1944 0
M  V30 2857 C 274.392 1.51616 -3.00856 0
M  V30 2858 O 274.922 2.61476 -3.04948 0
M  V30 2859 N 273.128 1.36969 -2.56296 0
M  V30 2860 H 272.675 0.475873 -2.53166 0
M  V30 2861 H 272.633 2.18368 -2.26192 0
M  V30 2862 N 276.405 1.4127 -0.698611 0
M  V30 2863 C 277.645 2.03044 -0.235062 0
M  V30 2864 C 278.009 1.54146 1.14468 0
M  V30 2865 O 279.21 2.07867 1.70425 0
M  V30 2866 C 277.481 3.56192 -0.293651 0
M  V30 2867 S 279.04 4.38696 0.0954053 0
M  V30 2868 H 275.858 0.704697 -0.0944648 0
M  V30 2869 H 278.46 1.72656 -0.917064 0
M  V30 2870 H 277.164 3.89274 -1.29977 0
M  V30 2871 H 276.695 3.91285 0.407397 0
M  V30 2872 H 278.71 4.78257 1.3223 0
M  V30 2873 N 277.883 0.443576 1.51229 0
M  V30 2874 C 279.108 -0.121648 2.07043 0
M  V30 2875 C 279.533 -1.35156 1.30823 0
M  V30 2876 O 278.891 -1.7793 0.347934 0
M  V30 2877 C 278.939 -0.41624 3.5819 0
M  V30 2878 O 278.043 -1.50163 3.8409 0
M  V30 2879 H 277.384 0.000871367 0.663999 0
M  V30 2880 H 279.914 0.626706 1.94765 0
M  V30 2881 H 279.924 -0.664867 4.02546 0
M  V30 2882 H 278.599 0.482653 4.1309 0
M  V30 2883 H 277.176 -1.24248 3.51592 0
M  V30 2884 N 279.361 -1.56624 0.175154 0
M  V30 2885 C 280.309 -2.19468 -0.770495 0
M  V30 2886 C 281.303 -1.15985 -1.23466 0
M  V30 2887 O 282.509 -1.34176 -1.19987 0
M  V30 2888 H 278.884 -0.703095 -0.266761 0
M  V30 2889 H 280.855 -2.97613 -0.216542 0
M  V30 2890 C 279.604 -2.85264 -1.98796 0
M  V30 2891 H 278.927 -3.64623 -1.63983 0
M  V30 2892 H 280.367 -3.327 -2.62843 0
M  V30 2893 C 278.826 -1.85239 -2.81404 0
M  V30 2894 O 279.356 -1.34024 -3.78682 0
M  V30 2895 N 277.562 -1.53911 -2.46495 0
M  V30 2896 H 277.109 -1.95751 -1.67449 0
M  V30 2897 H 277.067 -0.872382 -3.02054 0
M  V30 2898 N 280.839 0.0985539 -1.57292 0
M  V30 2899 C 281.787 1.1387 -2.02821 0
M  V30 2900 C 282.781 1.41676 -0.928666 0
M  V30 2901 O 283.987 1.41398 -1.11385 0
M  V30 2902 H 280.362 0.384419 -0.646317 0
M  V30 2903 H 282.333 0.728347 -2.89375 0
M  V30 2904 C 281.082 2.45166 -2.46554 0
M  V30 2905 H 280.405 2.24613 -3.3074 0
M  V30 2906 H 281.845 3.16456 -2.8219 0
M  V30 2907 C 280.304 3.09216 -1.33742 0
M  V30 2908 O 280.834 3.96163 -0.66464 0
M  V30 2909 N 279.04 2.69413 -1.08928 0
M  V30 2910 H 278.587 1.98801 -1.63817 0
M  V30 2911 H 278.545 3.12594 -0.336458 0
M  V30 2912 N 282.317 1.53212 0.369288 0
M  V30 2913 C 283.547 1.72868 1.13139 0
M  V30 2914 C 283.955 0.455754 1.83629 0
M  V30 2915 O 283.298 -0.580861 1.74275 0
M  V30 2916 C 283.36 2.83667 2.20847 0
M  V30 2917 C 283.024 4.24142 1.70155 0
M  V30 2918 C 284.021 5.06619 1.16763 0
M  V30 2919 C 281.706 4.70539 1.7578 0
M  V30 2920 C 283.7 6.33581 0.696678 0
M  V30 2921 C 281.387 5.97481 1.28297 0
M  V30 2922 C 282.385 6.78833 0.753307 0
M  V30 2923 O 282.073 8.03393 0.285475 0
M  V30 2924 H 281.805 0.581707 0.344373 0
M  V30 2925 H 284.359 2.00736 0.435243 0
M  V30 2926 H 282.589 2.51265 2.93944 0
M  V30 2927 H 284.278 2.91536 2.82421 0
M  V30 2928 H 285.044 4.71948 1.11758 0
M  V30 2929 H 280.923 4.07293 2.15949 0
M  V30 2930 H 284.467 6.97027 0.282581 0
M  V30 2931 H 280.364 6.31651 1.32994 0
M  V30 2932 H 281.132 8.17497 0.405145 0
M  V30 2933 N 283.795 -0.628877 1.44509 0
M  V30 2934 C 285.043 -1.38565 1.4712 0
M  V30 2935 C 285.364 -1.94712 0.105899 0
M  V30 2936 O 284.634 -1.75912 -0.862079 0
M  V30 2937 H 283.214 -0.514333 0.541729 0
M  V30 2938 H 285.876 -0.740018 1.80305 0
M  V30 2939 H 284.972 -2.21583 2.19789 0
M  V30 2940 N 285.273 -1.31445 -0.869486 0
M  V30 2941 C 286.684 -1.19042 -1.43826 0
M  V30 2942 C 287.035 0.202919 -1.95148 0
M  V30 2943 O 286.16 1.10071 -1.86315 0
M  V30 2944 C 286.755 -2.15499 -2.6143 0
M  V30 2945 C 285.314 -2.07028 -3.14351 0
M  V30 2946 C 284.461 -2.04701 -1.87063 0
M  V30 2947 H 287.412 -1.43489 -0.677984 0
M  V30 2948 H 287.433 -1.74488 -3.38134 0
M  V30 2949 H 286.945 -3.16899 -2.24046 0
M  V30 2950 H 285.046 -1.08825 -3.56354 0
M  V30 2951 H 285.159 -2.96157 -3.766 0
M  V30 2952 H 283.523 -1.49724 -2.06046 0
M  V30 2953 H 284.306 -3.07857 -1.51917 0
M  V30 2954 N 286.751 1.08385 -1.14413 0
M  V30 2955 C 287.981 1.8425 -0.934644 0
M  V30 2956 C 288.389 1.81907 0.520234 0
M  V30 2957 O 287.732 1.22126 1.37226 0
M  V30 2958 C 287.794 3.32853 -1.35828 0
M  V30 2959 C 287.458 3.5893 -2.82875 0
M  V30 2960 C 288.455 3.53756 -3.80989 0
M  V30 2961 C 286.14 3.86934 -3.20293 0
M  V30 2962 C 288.134 3.76216 -5.14529 0
M  V30 2963 C 285.821 4.09047 -4.54008 0
M  V30 2964 C 286.819 4.03682 -5.50936 0
M  V30 2965 O 286.507 4.25214 -6.82238 0
M  V30 2966 H 286.239 0.588502 -0.332628 0
M  V30 2967 H 288.793 1.37792 -1.52324 0
M  V30 2968 H 287.023 3.8007 -0.713019 0
M  V30 2969 H 288.712 3.90154 -1.11957 0
M  V30 2970 H 289.478 3.32135 -3.53428 0
M  V30 2971 H 285.357 3.9023 -2.45442 0
M  V30 2972 H 288.901 3.71943 -5.90173 0
M  V30 2973 H 284.798 4.30151 -4.8129 0
M  V30 2974 H 285.566 4.42619 -6.88499 0
M  V30 2975 N 288.23 0.939286 1.26551 0
M  V30 2976 C 289.162 0.404704 2.25599 0
M  V30 2977 C 290.175 -0.470983 1.55838 0
M  V30 2978 O 291.364 -0.281734 1.76263 0
M  V30 2979 C 288.464 -0.43764 3.36062 0
M  V30 2980 C 287.637 0.421449 4.35365 0
M  V30 2981 C 286.696 -0.36015 5.24966 0
M  V30 2982 O 285.722 0.236167 5.6871 0
M  V30 2983 N 286.924 -1.65715 5.56344 0
M  V30 2984 H 289.689 1.25618 2.72103 0
M  V30 2985 H 287.25 0.807963 1.40298 0
M  V30 2986 H 289.242 -0.967866 3.92956 0
M  V30 2987 H 287.812 -1.18991 2.89067 0
M  V30 2988 H 287.032 1.1329 3.7757 0
M  V30 2989 H 288.32 1.00835 4.98708 0
M  V30 2990 H 287.718 -2.16378 5.22682 0
M  V30 2991 H 286.275 -2.13366 6.15888 0
M  V30 2992 N 289.708 -1.40897 0.706093 0
M  V30 2993 C 290.658 -2.27987 0.0240746 0
M  V30 2994 C 291.642 -1.42759 -0.742204 0
M  V30 2995 O 292.834 -1.65936 -0.615966 0
M  V30 2996 C 289.963 -3.31186 -0.903907 0
M  V30 2997 C 289.049 -4.2389 -0.133318 0
M  V30 2998 N 289.44 -4.98113 0.878444 0
M  V30 2999 C 287.738 -4.44485 -0.367269 0
M  V30 3000 C 288.439 -5.6604 1.34064 0
M  V30 3001 N 287.415 -5.39522 0.664565 0
M  V30 3002 H 291.217 -2.82812 0.799658 0
M  V30 3003 H 288.731 -1.53235 0.537845 0
M  V30 3004 H 290.728 -3.92413 -1.40775 0
M  V30 3005 H 289.388 -2.77922 -1.67897 0
M  V30 3006 H 290.399 -5.02364 1.25901 0
M  V30 3007 H 287.076 -4.02213 -1.1194 0
M  V30 3008 H 288.466 -6.35524 2.1808 0
M  V30 3009 N 291.186 -0.45159 -1.50991 0
M  V30 3010 C 292.435 0.111653 -2.01391 0
M  V30 3011 C 292.748 1.42529 -1.33959 0
M  V30 3012 O 293.954 2.07232 -1.75405 0
M  V30 3013 C 292.41 0.249514 -3.59034 0
M  V30 3014 C 292.018 -1.05453 -4.35412 0
M  V30 3015 C 293.762 0.765762 -4.17536 0
M  V30 3016 C 291.669 -0.881529 -5.84793 0
M  V30 3017 H 290.599 0.0455022 -0.752626 0
M  V30 3018 H 293.25 -0.583524 -1.73975 0
M  V30 3019 H 291.632 1.00803 -3.82955 0
M  V30 3020 H 292.806 -1.82248 -4.23229 0
M  V30 3021 H 291.121 -1.50039 -3.88429 0
M  V30 3022 H 293.718 0.911913 -5.26866 0
M  V30 3023 H 294.061 1.75201 -3.77638 0
M  V30 3024 H 294.594 0.0651744 -3.97747 0
M  V30 3025 H 291.333 -1.84057 -6.29129 0
M  V30 3026 H 290.853 -0.153625 -5.99603 0
M  V30 3027 H 292.532 -0.540363 -6.4474 0
M  V30 3028 N 292.664 1.56529 -0.183458 0
M  V30 3029 C 293.574 2.22144 0.754272 0
M  V30 3030 C 294.59 1.21684 1.24374 0
M  V30 3031 O 295.766 1.54385 1.29333 0
M  V30 3032 C 292.831 2.85884 1.96141 0
M  V30 3033 C 291.892 4.01579 1.51765 0
M  V30 3034 C 291.125 4.6227 2.66725 0
M  V30 3035 O 291.348 4.21865 3.83909 0
M  V30 3036 O 290.282 5.51936 2.40104 0
M  V30 3037 H 294.108 3.02861 0.225527 0
M  V30 3038 H 291.693 1.49331 0.0453032 0
M  V30 3039 H 293.575 3.26253 2.66715 0
M  V30 3040 H 292.25 2.08154 2.47899 0
M  V30 3041 H 291.157 3.65856 0.781049 0
M  V30 3042 H 292.49 4.80938 1.04686 0
M  V30 3043 N 294.142 -0.090211 1.57342 0
M  V30 3044 C 295.089 -1.10909 2.02405 0
M  V30 3045 C 296.059 -1.39523 0.901252 0
M  V30 3046 O 297.244 -1.50903 1.1676 0
M  V30 3047 C 294.384 -2.42277 2.45755 0
M  V30 3048 C 293.497 -2.20352 3.71576 0
M  V30 3049 C 292.632 -3.45154 4.03785 0
M  V30 3050 C 291.671 -3.18512 5.22701 0
M  V30 3051 N 290.808 -4.35593 5.50639 0
M  V30 3052 H 295.648 -0.71782 2.89225 0
M  V30 3053 H 293.185 -0.342901 1.43048 0
M  V30 3054 H 295.143 -3.18951 2.68935 0
M  V30 3055 H 293.773 -2.79242 1.61938 0
M  V30 3056 H 292.825 -1.34458 3.55844 0
M  V30 3057 H 294.137 -1.96661 4.58395 0
M  V30 3058 H 293.291 -4.30233 4.27767 0
M  V30 3059 H 292.03 -3.71904 3.15498 0
M  V30 3060 H 291.035 -2.31827 4.98534 0
M  V30 3061 H 292.26 -2.93103 6.12591 0
M  V30 3062 H 290.206 -4.6241 4.6531 0
M  V30 3063 H 290.123 -4.1511 6.31838 0
M  V30 3064 H 291.391 -5.21723 5.7916 0
M  V30 3065 N 295.62 -1.53406 -0.361157 0
M  V30 3066 C 296.867 -1.69802 -1.10333 0
M  V30 3067 C 297.195 -0.452087 -1.89173 0
M  V30 3068 O 296.45 0.566017 -1.87336 0
M  V30 3069 C 296.749 -2.90211 -2.08596 0
M  V30 3070 C 296.415 -4.26539 -1.46203 0
M  V30 3071 C 295.077 -4.6361 -1.28915 0
M  V30 3072 C 297.429 -5.113 -1.01101 0
M  V30 3073 C 294.757 -5.83075 -0.651157 0
M  V30 3074 C 297.109 -6.31415 -0.387007 0
M  V30 3075 C 295.773 -6.67195 -0.201657 0
M  V30 3076 H 295.043 -0.621351 -0.403737 0
M  V30 3077 H 297.69 -1.87598 -0.384609 0
M  V30 3078 H 295.995 -2.66946 -2.86788 0
M  V30 3079 H 297.692 -3.00091 -2.65982 0
M  V30 3080 H 294.282 -3.97352 -1.60653 0
M  V30 3081 H 298.466 -4.83206 -1.13249 0
M  V30 3082 H 293.722 -6.09385 -0.496006 0
M  V30 3083 H 297.896 -6.96394 -0.0293563 0
M  V30 3084 H 295.523 -7.59628 0.294766 0
M  V30 3085 N 297.098 0.621204 -1.44841 0
M  V30 3086 C 298.347 1.37658 -1.47422 0
M  V30 3087 C 298.66 1.95264 -0.114629 0
M  V30 3088 O 299.866 2.71494 -0.0180199 0
M  V30 3089 C 298.322 2.49285 -2.59586 0
M  V30 3090 C 297.93 1.98149 -4.01797 0
M  V30 3091 C 299.674 3.26409 -2.71399 0
M  V30 3092 C 297.581 3.07178 -5.05367 0
M  V30 3093 H 296.511 0.517344 -0.548517 0
M  V30 3094 H 299.162 0.667257 -1.70938 0
M  V30 3095 H 297.544 3.22839 -2.29328 0
M  V30 3096 H 298.718 1.31395 -4.41669 0
M  V30 3097 H 297.033 1.33812 -3.94314 0
M  V30 3098 H 299.63 4.07706 -3.45948 0
M  V30 3099 H 299.973 3.76535 -1.77559 0
M  V30 3100 H 300.506 2.5995 -3.01116 0
M  V30 3101 H 297.245 2.61985 -6.00869 0
M  V30 3102 H 296.765 3.72542 -4.70077 0
M  V30 3103 H 298.444 3.71789 -5.29511 0
M  V30 3104 N 298.576 1.31904 0.862503 0
M  V30 3105 C 299.987 1.19803 1.43193 0
M  V30 3106 C 300.338 -0.192567 1.95253 0
M  V30 3107 O 299.463 -1.09081 1.86896 0
M  V30 3108 C 300.058 2.16883 2.60283 0
M  V30 3109 C 298.617 2.08692 3.13248 0
M  V30 3110 C 297.764 2.05691 1.85975 0
M  V30 3111 H 300.715 1.43846 0.670365 0
M  V30 3112 H 300.736 1.76278 3.37204 0
M  V30 3113 H 300.248 3.18083 2.22363 0
M  V30 3114 H 298.349 1.10713 3.55771 0
M  V30 3115 H 298.462 2.9815 3.75025 0
M  V30 3116 H 296.826 1.50814 2.05249 0
M  V30 3117 H 297.609 3.08659 1.50282 0
M  V30 3118 N 300.054 -1.07777 1.14986 0
M  V30 3119 C 301.47 -1.32373 0.891596 0
M  V30 3120 C 301.67 -1.9609 -0.463788 0
M  V30 3121 O 300.726 -2.21801 -1.20667 0
M  V30 3122 C 302.039 -2.21905 2.02925 0
M  V30 3123 C 303.587 -2.35367 2.06329 0
M  V30 3124 C 304.062 -3.28245 3.19405 0
M  V30 3125 N 305.553 -3.35824 3.19024 0
M  V30 3126 C 306.288 -4.07739 4.03158 0
M  V30 3127 N 305.784 -4.82306 4.97346 0
M  V30 3128 N 307.577 -4.03635 3.91197 0
M  V30 3129 H 299.728 -0.648039 2.02273 0
M  V30 3130 H 301.991 -0.348149 0.881757 0
M  V30 3131 H 301.697 -1.82342 3.0074 0
M  V30 3132 H 301.571 -3.22407 1.95789 0
M  V30 3133 H 303.958 -2.74186 1.09116 0
M  V30 3134 H 304.039 -1.34585 2.17533 0
M  V30 3135 H 303.683 -2.90146 4.16867 0
M  V30 3136 H 303.613 -4.28971 3.05437 0
M  V30 3137 H 306.104 -2.8267 2.50811 0
M  V30 3138 H 306.417 -5.34661 5.57994 0
M  V30 3139 H 304.762 -4.81337 5.01338 0
M  V30 3140 H 307.953 -3.44491 3.16928 0
M  V30 3141 H 308.126 -4.59417 4.5699 0
M  V30 3142 N 301.532 -0.945985 -1.26051 0
M  V30 3143 C 302.464 -0.416662 -2.25381 0
M  V30 3144 C 303.477 0.462712 -1.56086 0
M  V30 3145 O 304.666 0.272383 -1.7641 0
M  V30 3146 C 301.766 0.419812 -3.3629 0
M  V30 3147 C 300.939 -0.444531 -4.35135 0
M  V30 3148 C 299.998 0.332305 -5.2515 0
M  V30 3149 O 299.024 -0.266324 -5.68577 0
M  V30 3150 N 300.226 1.62763 -5.57215 0
M  V30 3151 H 302.991 -1.27059 -2.71433 0
M  V30 3152 H 300.552 -0.815392 -1.39868 0
M  V30 3153 H 302.544 0.947013 -3.93464 0
M  V30 3154 H 301.114 1.17456 -2.89694 0
M  V30 3155 H 300.334 -1.15291 -3.76964 0
M  V30 3156 H 301.622 -1.03478 -4.98166 0
M  V30 3157 H 301.02 2.13603 -5.23823 0
M  V30 3158 H 299.577 2.10097 -6.17011 0
M  V30 3159 N 303.011 1.40521 -0.713556 0
M  V30 3160 C 304.26 2.00155 -0.249192 0
M  V30 3161 C 304.573 1.57224 1.16362 0
M  V30 3162 O 305.779 2.09542 1.72639 0
M  V30 3163 C 304.235 3.5773 -0.3946 0
M  V30 3164 C 303.843 4.09635 -1.81392 0
M  V30 3165 C 305.587 4.24499 0.00907364 0
M  V30 3166 C 303.494 5.59707 -1.91003 0
M  V30 3167 H 302.424 0.74868 -0.0894114 0
M  V30 3168 H 305.075 1.60784 -0.884352 0
M  V30 3169 H 303.457 3.94792 0.30911 0
M  V30 3170 H 304.631 3.83955 -2.54785 0
M  V30 3171 H 302.946 3.55456 -2.16888 0
M  V30 3172 H 305.543 5.34683 -0.0420404 0
M  V30 3173 H 305.886 4.02824 1.05065 0
M  V30 3174 H 306.419 3.92536 -0.645007 0
M  V30 3175 H 303.158 5.86234 -2.93275 0
M  V30 3176 H 302.678 5.87258 -1.22019 0
M  V30 3177 H 304.357 6.24776 -1.6812 0
M  V30 3178 N 304.489 0.459591 1.5075 0
M  V30 3179 C 305.717 -0.0973749 2.06671 0
M  V30 3180 C 306.132 -1.34524 1.32472 0
M  V30 3181 O 305.489 -1.7827 0.390634 0
M  V30 3182 C 305.54 -0.39714 3.59312 0
M  V30 3183 O 305.261 0.801214 4.30711 0
M  V30 3184 C 306.762 -1.00234 4.31819 0
M  V30 3185 H 303.982 0.00195854 0.670997 0
M  V30 3186 H 306.526 0.645072 1.94059 0
M  V30 3187 H 304.681 -1.08951 3.71764 0
M  V30 3188 H 305.095 0.538857 5.21725 0
M  V30 3189 H 306.569 -1.16193 5.39632 0
M  V30 3190 H 307.046 -1.98939 3.91561 0
M  V30 3191 H 307.652 -0.348699 4.23868 0
M  V30 3192 N 305.967 -1.56429 0.191757 0
M  V30 3193 C 306.915 -2.20273 -0.747174 0
M  V30 3194 C 307.909 -1.17288 -1.22229 0
M  V30 3195 O 309.115 -1.35441 -1.18557 0
M  V30 3196 H 305.49 -0.705885 -0.259289 0
M  V30 3197 H 307.461 -2.97826 -0.184963 0
M  V30 3198 C 306.21 -2.87356 -1.95759 0
M  V30 3199 H 305.533 -3.66341 -1.60106 0
M  V30 3200 H 306.973 -3.3547 -2.59299 0
M  V30 3201 C 305.432 -1.88213 -2.79423 0
M  V30 3202 O 305.962 -1.38033 -3.7724 0
M  V30 3203 N 304.168 -1.56516 -2.44849 0
M  V30 3204 H 303.715 -1.97516 -1.65364 0
M  V30 3205 H 303.673 -0.904369 -3.01112 0
M  V30 3206 N 307.445 0.0818655 -1.57387 0
M  V30 3207 C 308.694 0.781681 -1.85937 0
M  V30 3208 C 309.007 1.79246 -0.782957 0
M  V30 3209 O 310.213 2.54112 -0.955987 0
M  V30 3210 C 308.669 1.44109 -3.29789 0
M  V30 3211 C 308.277 0.469396 -4.45534 0
M  V30 3212 C 310.021 2.12386 -3.67549 0
M  V30 3213 C 307.928 1.13415 -5.80423 0
M  V30 3214 H 306.858 0.295682 -0.693605 0
M  V30 3215 H 309.509 0.0348051 -1.83467 0
M  V30 3216 H 307.891 2.23588 -3.2684 0
M  V30 3217 H 309.065 -0.294856 -4.59856 0
M  V30 3218 H 307.38 -0.108383 -4.16259 0
M  V30 3219 H 309.977 2.62878 -4.65617 0
M  V30 3220 H 310.32 2.91877 -2.96839 0
M  V30 3221 H 310.853 1.39751 -3.72444 0
M  V30 3222 H 307.592 0.379771 -6.54399 0
M  V30 3223 H 307.112 1.8695 -5.69921 0
M  V30 3224 H 308.791 1.65686 -6.25426 0
M  V30 3225 N 308.923 1.53595 0.353017 0
M  V30 3226 C 309.853 1.83902 1.43883 0
M  V30 3227 C 310.834 0.693421 1.55324 0
M  V30 3228 O 312.019 0.944452 1.69687 0
M  V30 3229 C 309.149 2.04016 2.8106 0
M  V30 3230 C 308.103 3.19814 2.84434 0
M  V30 3231 C 307.429 3.25244 4.24406 0
M  V30 3232 C 308.729 4.58133 2.50822 0
M  V30 3233 H 310.423 2.74835 1.1877 0
M  V30 3234 H 307.969 1.32242 0.569917 0
M  V30 3235 H 309.922 2.238 3.57059 0
M  V30 3236 H 308.646 1.09804 3.07588 0
M  V30 3237 H 307.305 2.9987 2.10887 0
M  V30 3238 H 306.953 2.28646 4.48029 0
M  V30 3239 H 306.653 4.03054 4.27576 0
M  V30 3240 H 308.177 3.47228 5.0226 0
M  V30 3241 H 309.591 4.77995 3.16534 0
M  V30 3242 H 307.988 5.38276 2.6529 0
M  V30 3243 H 309.058 4.62387 1.46034 0
M  V30 3244 N 310.401 -0.613514 1.45168 0
M  V30 3245 C 311.626 -1.40437 1.52618 0
M  V30 3246 C 312.051 -1.87438 0.157707 0
M  V30 3247 O 311.409 -1.59791 -0.856537 0
M  V30 3248 C 311.457 -2.58894 2.51011 0
M  V30 3249 O 310.561 -3.59326 2.02382 0
M  V30 3250 H 309.902 -0.419506 0.514695 0
M  V30 3251 H 312.432 -0.747215 1.90467 0
M  V30 3252 H 312.442 -3.06214 2.69624 0
M  V30 3253 H 311.117 -2.24032 3.50403 0
M  V30 3254 H 309.694 -3.18695 1.93618 0
M  V30 3255 N 311.879 -1.3236 -0.855495 0
M  V30 3256 C 313.127 -1.22629 -1.60644 0
M  V30 3257 C 313.448 0.212136 -1.93843 0
M  V30 3258 O 312.718 1.13666 -1.59552 0
M  V30 3259 H 311.298 -0.450882 -0.595579 0
M  V30 3260 H 313.96 -1.65871 -1.02337 0
M  V30 3261 H 313.056 -1.80832 -2.54374 0
M  V30 3262 N 313.357 1.07166 -1.15556 0
M  V30 3263 C 314.606 1.79181 -0.926132 0
M  V30 3264 C 314.919 1.87768 0.547967 0
M  V30 3265 O 316.125 2.56323 0.895036 0
M  V30 3266 C 314.581 3.22 -1.60761 0
M  V30 3267 C 314.189 3.21607 -3.11886 0
M  V30 3268 C 315.933 3.9861 -1.4598 0
M  V30 3269 C 313.84 4.59092 -3.72812 0
M  V30 3270 H 312.77 0.67154 -0.342856 0
M  V30 3271 H 315.421 1.2027 -1.3859 0
M  V30 3272 H 313.803 3.81115 -1.07553 0
M  V30 3273 H 314.977 2.72127 -3.71865 0
M  V30 3274 H 313.292 2.58495 -3.2645 0
M  V30 3275 H 315.889 5.00225 -1.88888 0
M  V30 3276 H 316.232 4.143 -0.407541 0
M  V30 3277 H 316.765 3.45996 -1.96295 0
M  V30 3278 H 313.504 4.48606 -4.77946 0
M  V30 3279 H 313.024 5.08803 -3.17616 0
M  V30 3280 H 314.703 5.28059 -3.73848 0
M  V30 3281 N 314.835 0.952656 1.25548 0
M  V30 3282 C 315.782 0.47008 2.25962 0
M  V30 3283 C 316.752 -0.476384 1.59122 0
M  V30 3284 O 317.937 -0.39007 1.8677 0
M  V30 3285 C 315.077 -0.247881 3.44209 0
M  V30 3286 C 314.19 0.735591 4.25691 0
M  V30 3287 C 313.325 -0.0047306 5.312 0
M  V30 3288 C 312.364 0.969805 6.04368 0
M  V30 3289 N 311.501 0.260486 7.01617 0
M  V30 3290 H 316.341 1.33126 2.66611 0
M  V30 3291 H 313.878 0.66765 1.31076 0
M  V30 3292 H 315.836 -0.680695 4.1161 0
M  V30 3293 H 314.466 -1.07312 3.0444 0
M  V30 3294 H 313.518 1.28689 3.57971 0
M  V30 3295 H 314.83 1.47934 4.76358 0
M  V30 3296 H 313.984 -0.496275 6.04667 0
M  V30 3297 H 312.723 -0.781282 4.81401 0
M  V30 3298 H 311.728 1.47237 5.29718 0
M  V30 3299 H 312.953 1.74655 6.56256 0
M  V30 3300 H 310.899 -0.497364 6.54112 0
M  V30 3301 H 310.816 0.943362 7.50091 0
M  V30 3302 H 312.084 -0.209587 7.79218 0
M  V30 3303 N 316.313 -1.40141 0.720998 0
M  V30 3304 C 317.724 -1.83678 0.334553 0
M  V30 3305 C 318.075 -1.6027 -1.13173 0
M  V30 3306 O 317.2 -1.08643 -1.87152 0
M  V30 3307 C 317.795 -3.33437 0.600437 0
M  V30 3308 C 316.354 -3.75447 0.267642 0
M  V30 3309 C 315.501 -2.63296 0.870097 0
M  V30 3310 H 318.452 -1.29331 0.919732 0
M  V30 3311 H 318.473 -3.80269 -0.132517 0
M  V30 3312 H 317.985 -3.50442 1.66768 0
M  V30 3313 H 316.086 -3.64035 -0.794329 0
M  V30 3314 H 316.199 -4.73344 0.74042 0
M  V30 3315 H 314.563 -2.52954 0.297739 0
M  V30 3316 H 315.346 -2.83112 1.94172 0
M  V30 3317 N 317.792 -0.46758 -1.50504 0
M  V30 3318 C 318.739 0.328413 -2.28452 0
M  V30 3319 C 319.709 0.990313 -1.33349 0
M  V30 3320 O 320.894 1.00343 -1.62284 0
M  V30 3321 C 318.034 1.40648 -3.15138 0
M  V30 3322 C 317.147 0.759709 -4.25267 0
M  V30 3323 C 316.282 1.81537 -4.99217 0
M  V30 3324 C 315.321 1.14866 -6.01226 0
M  V30 3325 N 314.458 2.14702 -6.68467 0
M  V30 3326 H 319.298 -0.342603 -2.96024 0
M  V30 3327 H 316.835 -0.180801 -1.45985 0
M  V30 3328 H 318.793 2.04315 -3.63746 0
M  V30 3329 H 317.423 2.04671 -2.49619 0
M  V30 3330 H 316.475 0.0105671 -3.80399 0
M  V30 3331 H 317.787 0.233243 -4.98254 0
M  V30 3332 H 316.941 2.52793 -5.51526 0
M  V30 3333 H 315.68 2.37564 -4.25928 0
M  V30 3334 H 314.685 0.42171 -5.4818 0
M  V30 3335 H 315.91 0.595334 -6.76485 0
M  V30 3336 H 313.856 2.69752 -5.97972 0
M  V30 3337 H 313.773 1.6703 -7.37317 0
M  V30 3338 H 315.041 2.85348 -7.25394 0
M  V30 3339 N 319.27 1.56325 -0.20005 0
M  V30 3340 C 320.2 2.22318 0.713916 0
M  V30 3341 C 321.181 1.18788 1.21752 0
M  V30 3342 O 322.366 1.47309 1.26545 0
M  V30 3343 C 319.496 2.88639 1.93144 0
M  V30 3344 C 318.45 3.98457 1.56255 0
M  V30 3345 C 317.776 4.51967 2.85709 0
M  V30 3346 C 319.076 5.16612 0.768747 0
M  V30 3347 H 320.77 2.98952 0.163755 0
M  V30 3348 H 318.316 1.43792 0.0773219 0
M  V30 3349 H 320.269 3.33491 2.57608 0
M  V30 3350 H 318.993 2.09419 2.50621 0
M  V30 3351 H 317.652 3.54305 0.941471 0
M  V30 3352 H 317.3 3.69503 3.41287 0
M  V30 3353 H 317 5.26071 2.6177 0
M  V30 3354 H 318.524 4.99523 3.51154 0
M  V30 3355 H 319.938 5.57977 1.3166 0
M  V30 3356 H 318.335 5.96812 0.627286 0
M  V30 3357 H 319.405 4.84358 -0.229168 0
M  V30 3358 N 320.748 -0.0735177 1.57428 0
M  V30 3359 C 321.978 -0.78483 1.91112 0
M  V30 3360 C 322.386 -1.71729 0.7941 0
M  V30 3361 O 321.729 -1.82105 -0.241542 0
M  V30 3362 C 321.791 -1.63346 3.20247 0
M  V30 3363 C 321.455 -0.870557 4.48632 0
M  V30 3364 C 322.452 -0.19058 5.19551 0
M  V30 3365 C 320.137 -0.838242 4.95256 0
M  V30 3366 C 322.131 0.511503 6.35344 0
M  V30 3367 C 319.818 -0.132386 6.10957 0
M  V30 3368 C 320.816 0.541288 6.80852 0
M  V30 3369 O 320.504 1.23578 7.94345 0
M  V30 3370 H 320.236 -0.228408 0.636244 0
M  V30 3371 H 322.79 -0.0486039 2.05342 0
M  V30 3372 H 321.02 -2.41245 3.02222 0
M  V30 3373 H 322.709 -2.22329 3.39595 0
M  V30 3374 H 323.475 -0.206864 4.84559 0
M  V30 3375 H 319.354 -1.35206 4.40727 0
M  V30 3376 H 322.898 1.03789 6.89836 0
M  V30 3377 H 318.795 -0.114023 6.45399 0
M  V30 3378 H 319.563 1.14487 8.10454 0
M  V30 3379 N 322.226 -1.5378 -0.344866 0
M  V30 3380 C 323.474 -1.70625 -1.08311 0
M  V30 3381 C 323.795 -0.471447 -1.89215 0
M  V30 3382 O 323.065 0.514616 -1.8902 0
M  V30 3383 H 321.645 -0.629058 -0.402859 0
M  V30 3384 H 324.307 -1.9103 -0.386459 0
M  V30 3385 H 323.403 -2.57656 -1.76124 0
M  V30 3386 N 323.704 0.605807 -1.45491 0
M  V30 3387 C 324.614 1.74466 -1.56839 0
M  V30 3388 C 325.63 1.68006 -0.452772 0
M  V30 3389 O 326.806 1.8833 -0.713708 0
M  V30 3390 C 323.871 3.10931 -1.53371 0
M  V30 3391 C 322.932 3.28832 -2.75986 0
M  V30 3392 C 322.165 4.58787 -2.72673 0
M  V30 3393 O 322.388 5.4122 -1.80102 0
M  V30 3394 O 321.322 4.79438 -3.63899 0
M  V30 3395 H 325.148 1.67843 -2.53106 0
M  V30 3396 H 322.733 0.770108 -1.28022 0
M  V30 3397 H 324.615 3.92233 -1.54051 0
M  V30 3398 H 323.29 3.18042 -0.602572 0
M  V30 3399 H 322.197 2.47112 -2.80867 0
M  V30 3400 H 323.53 3.26599 -3.68231 0
M  V30 3401 N 325.182 1.32811 0.848464 0
M  V30 3402 C 326.43 1.23479 1.59991 0
M  V30 3403 C 326.751 -0.201853 1.93952 0
M  V30 3404 O 326.021 -1.12818 1.60153 0
M  V30 3405 H 324.601 0.454034 0.593179 0
M  V30 3406 H 327.263 1.66412 1.01455 0
M  V30 3407 H 326.359 1.82178 2.53412 0
M  V30 3408 N 326.66 -1.06551 1.16123 0
M  V30 3409 C 327.607 -2.13961 0.865414 0
M  V30 3410 C 328.577 -1.65066 -0.185055 0
M  V30 3411 O 329.762 -1.90732 -0.05083 0
M  V30 3412 C 326.902 -3.43113 0.369776 0
M  V30 3413 C 326.015 -4.05756 1.48276 0
M  V30 3414 C 325.15 -5.22773 0.942414 0
M  V30 3415 C 324.189 -5.77395 2.03179 0
M  V30 3416 N 323.326 -6.85731 1.50721 0
M  V30 3417 H 328.166 -2.38605 1.78527 0
M  V30 3418 H 325.703 -1.17072 0.890646 0
M  V30 3419 H 327.661 -4.17151 0.0640643 0
M  V30 3420 H 326.291 -3.18695 -0.513143 0
M  V30 3421 H 325.343 -3.29292 1.9045 0
M  V30 3422 H 326.655 -4.42351 2.30493 0
M  V30 3423 H 325.809 -6.03827 0.589729 0
M  V30 3424 H 324.548 -4.87618 0.0895191 0
M  V30 3425 H 323.553 -4.94981 2.3932 0
M  V30 3426 H 324.778 -6.14603 2.8886 0
M  V30 3427 H 322.724 -6.52499 0.676811 0
M  V30 3428 H 322.641 -7.21254 2.26557 0
M  V30 3429 H 323.909 -7.7047 1.18303 0
M  V30 3430 N 328.138 -0.959301 -1.25041 0
M  V30 3431 C 329.086 -0.474437 -2.2771 0
M  V30 3432 C 330.08 0.457697 -1.631 0
M  V30 3433 O 331.286 0.333912 -1.76876 0
M  V30 3434 H 327.661 -0.134936 -0.739795 0
M  V30 3435 H 329.632 -1.35251 -2.65988 0
M  V30 3436 C 328.381 0.227884 -3.46952 0
M  V30 3437 H 327.704 -0.480248 -3.96905 0
M  V30 3438 H 329.144 0.531091 -4.20661 0
M  V30 3439 C 327.603 1.452 -3.04004 0
M  V30 3440 O 328.133 2.54949 -3.10426 0
M  V30 3441 N 326.339 1.31502 -2.59144 0
M  V30 3442 H 325.886 0.422065 -2.54119 0
M  V30 3443 H 325.844 2.13521 -2.30773 0
M  V30 3444 N 329.616 1.39756 -0.72842 0
M  V30 3445 C 330.862 2.00942 -0.273892 0
M  V30 3446 C 331.195 1.57656 1.13394 0
M  V30 3447 O 330.47 0.802434 1.77176 0
M  V30 3448 C 330.753 3.58211 -0.368346 0
M  V30 3449 C 330.606 4.11534 -1.81548 0
M  V30 3450 C 331.925 4.39372 0.253054 0
M  V30 3451 H 329.044 0.730047 -0.100996 0
M  V30 3452 H 331.686 1.66056 -0.923337 0
M  V30 3453 H 329.836 3.88061 0.184588 0
M  V30 3454 H 331.508 3.92431 -2.42478 0
M  V30 3455 H 329.751 3.65341 -2.33898 0
M  V30 3456 H 330.422 5.20682 -1.83288 0
M  V30 3457 H 332.898 4.15527 -0.218224 0
M  V30 3458 H 331.774 5.48677 0.156585 0
M  V30 3459 H 332.035 4.21358 1.33826 0
M  V30 3460 N 331.094 0.475555 1.50254 0
M  V30 3461 C 332.51 0.12997 1.5907 0
M  V30 3462 C 332.71 -1.36385 1.48328 0
M  V30 3463 O 331.766 -2.13754 1.34407 0
M  V30 3464 C 333.079 0.684139 2.92814 0
M  V30 3465 C 334.627 0.647965 3.0622 0
M  V30 3466 C 335.102 1.17975 4.42545 0
M  V30 3467 N 336.593 1.13936 4.48969 0
M  V30 3468 C 337.328 1.52129 5.52851 0
M  V30 3469 N 336.824 1.97793 6.63965 0
M  V30 3470 N 338.617 1.43704 5.4342 0
M  V30 3471 H 330.768 1.44706 1.55479 0
M  V30 3472 H 333.031 0.598691 0.735033 0
M  V30 3473 H 332.737 1.73079 3.06164 0
M  V30 3474 H 332.611 0.130204 3.76975 0
M  V30 3475 H 334.998 -0.38979 2.92514 0
M  V30 3476 H 335.079 1.23876 2.23805 0
M  V30 3477 H 334.723 2.21616 4.57 0
M  V30 3478 H 334.653 0.565138 5.23559 0
M  V30 3479 H 337.144 0.804488 3.69238 0
M  V30 3480 H 337.457 2.25072 7.39299 0
M  V30 3481 H 335.802 2.01749 6.65073 0
M  V30 3482 H 338.993 1.07867 4.55502 0
M  V30 3483 H 339.166 1.73794 6.24259 0
M  V30 3484 N 332.573 -1.56217 0.208337 0
M  V30 3485 C 333.85 -1.89739 -0.475234 0
M  V30 3486 C 334.23 -1.1238 -1.78701 0
M  V30 3487 O 333.578 -0.228979 -2.2735 0
M  V30 3488 C 333.788 -3.42289 -0.681101 0
M  V30 3489 C 335.136 -4.12789 -0.994507 0
M  V30 3490 O 336.16 -3.47814 -0.768357 0
M  V30 3491 O 335.019 -5.27649 -1.42299 0
M  V30 3492 H 332.113 -0.788478 -0.249461 0
M  V30 3493 H 334.659 -1.67855 0.249538 0
M  V30 3494 H 333.431 -3.90534 0.244722 0
M  V30 3495 H 333.054 -3.69909 -1.45785 0
M  V30 3496 N 334.051 0.0651679 -1.57465 0
M  V30 3497 C 335.297 0.758912 -1.88712 0
M  V30 3498 C 335.652 1.7485 -0.802819 0
M  V30 3499 O 334.945 1.90632 0.192359 0
M  V30 3500 C 335.139 1.50081 -3.24362 0
M  V30 3501 C 334.968 0.584579 -4.45884 0
M  V30 3502 C 333.738 0.219039 -5.04825 0
M  V30 3503 C 335.936 -0.121559 -5.14156 0
M  V30 3504 N 333.918 -0.702222 -6.09871 0
M  V30 3505 C 335.289 -0.899767 -6.13436 0
M  V30 3506 C 337.344 -0.192331 -4.97528 0
M  V30 3507 C 336.047 -1.74218 -6.97883 0
M  V30 3508 C 338.073 -1.02174 -5.82507 0
M  V30 3509 C 337.435 -1.78798 -6.8133 0
M  V30 3510 H 333.534 0.25293 -0.739967 0
M  V30 3511 H 336.118 0.0201744 -1.9469 0
M  V30 3512 H 334.289 2.21023 -3.1938 0
M  V30 3513 H 336.021 2.14409 -3.43236 0
M  V30 3514 H 332.776 0.57336 -4.70117 0
M  V30 3515 H 333.2 -1.15629 -6.67052 0
M  V30 3516 H 337.842 0.385741 -4.21037 0
M  V30 3517 H 335.56 -2.3312 -7.73745 0
M  V30 3518 H 339.146 -1.07957 -5.71696 0
M  V30 3519 H 338.026 -2.41942 -7.45945 0
M  V30 3520 N 335.529 1.53961 0.336706 0
M  V30 3521 C 336.778 1.70751 1.07363 0
M  V30 3522 C 337.091 0.481061 1.89592 0
M  V30 3523 O 338.297 0.530046 2.66276 0
M  V30 3524 C 336.753 3.01965 1.95818 0
M  V30 3525 C 336.361 4.31971 1.18764 0
M  V30 3526 C 338.105 3.28121 2.69327 0
M  V30 3527 C 336.012 5.54255 2.06289 0
M  V30 3528 H 334.942 0.636292 0.404535 0
M  V30 3529 H 337.593 1.80459 0.332681 0
M  V30 3530 H 335.975 2.86132 2.7376 0
M  V30 3531 H 337.149 4.5853 0.456849 0
M  V30 3532 H 335.464 4.12481 0.569946 0
M  V30 3533 H 338.061 4.16673 3.35094 0
M  V30 3534 H 338.404 2.45426 3.36261 0
M  V30 3535 H 338.937 3.44762 1.98454 0
M  V30 3536 H 335.676 6.39513 1.43885 0
M  V30 3537 H 335.196 5.31935 2.77138 0
M  V30 3538 H 336.875 5.90159 2.65182 0
M  V30 3539 N 337.007 -0.598083 1.45811 0
M  V30 3540 C 337.957 -1.70272 1.51629 0
M  V30 3541 C 338.941 -1.56382 0.378629 0
M  V30 3542 O 340.133 -1.65557 0.626087 0
M  V30 3543 C 337.262 -3.09042 1.49493 0
M  V30 3544 C 336.348 -3.28284 2.68496 0
M  V30 3545 N 336.739 -3.17748 3.93535 0
M  V30 3546 C 335.037 -3.59182 2.64394 0
M  V30 3547 C 335.738 -3.38579 4.7301 0
M  V30 3548 N 334.714 -3.63016 4.04624 0
M  V30 3549 H 338.516 -1.60634 2.46118 0
M  V30 3550 H 336.03 -0.801642 1.41235 0
M  V30 3551 H 338.027 -3.88302 1.51747 0
M  V30 3552 H 336.687 -3.19823 0.560683 0
M  V30 3553 H 337.698 -2.95944 4.25014 0
M  V30 3554 H 334.375 -3.76742 1.79922 0
M  V30 3555 H 335.765 -3.35747 5.82 0
M  V30 3556 N 338.485 -1.33259 -0.841409 0
M  V30 3557 C 339.713 -1.27605 -1.62864 0
M  V30 3558 C 340.128 0.153507 -1.88175 0
M  V30 3559 O 339.485 1.09485 -1.46011 0
M  V30 3560 C 339.536 -2.04596 -2.98031 0
M  V30 3561 O 339.257 -3.41975 -2.73834 0
M  V30 3562 C 340.758 -2.06122 -3.92465 0
M  V30 3563 H 337.978 -0.439718 -0.506842 0
M  V30 3564 H 340.522 -1.75591 -1.04824 0
M  V30 3565 H 338.677 -1.60299 -3.5268 0
M  V30 3566 H 339.091 -3.81549 -3.59889 0
M  V30 3567 H 340.565 -2.64451 -4.84531 0
M  V30 3568 H 341.042 -1.05083 -4.26444 0
M  V30 3569 H 341.648 -2.50427 -3.43753 0
M  V30 3570 N 339.963 1.05934 -1.16686 0
M  V30 3571 C 340.911 2.15603 -0.872817 0
M  V30 3572 C 341.905 1.68647 0.159576 0
M  V30 3573 O 343.111 1.79995 0.0132125 0
M  V30 3574 H 339.486 0.703885 -0.264671 0
M  V30 3575 H 341.457 2.37613 -1.80507 0
M  V30 3576 C 340.206 3.45457 -0.394344 0
M  V30 3577 H 339.529 3.81984 -1.18019 0
M  V30 3578 H 340.969 4.2339 -0.227408 0
M  V30 3579 C 339.428 3.25021 0.88673 0
M  V30 3580 O 339.958 3.50906 1.95519 0
M  V30 3581 N 338.164 2.78437 0.831925 0
M  V30 3582 H 337.711 2.57572 -0.0377619 0
M  V30 3583 H 337.669 2.65144 1.68956 0
M  V30 3584 N 341.441 0.965919 1.2453 0
M  V30 3585 C 342.718 0.543777 1.87889 0
M  V30 3586 C 343.098 -0.97909 1.87021 0
M  V30 3587 O 342.446 -1.84969 1.3416 0
M  V30 3588 C 342.656 1.13327 3.30088 0
M  V30 3589 C 344.004 1.21707 4.06783 0
M  V30 3590 O 345.028 1.08566 3.39252 0
M  V30 3591 O 343.887 1.42456 5.27606 0
M  V30 3592 H 340.981 0.181054 0.806938 0
M  V30 3593 H 343.527 1.06007 1.32516 0
M  V30 3594 H 342.299 2.17612 3.25209 0
M  V30 3595 H 341.922 0.600911 3.93033 0
M  V30 3596 N 342.919 -1.39368 0.735821 0
M  V30 3597 C 343.869 -2.27885 0.0724287 0
M  V30 3598 C 344.853 -1.44301 -0.711756 0
M  V30 3599 O 346.045 -1.67206 -0.58063 0
M  V30 3600 C 343.174 -3.33029 -0.833454 0
M  V30 3601 C 342.26 -4.24078 -0.0433749 0
M  V30 3602 N 342.651 -4.96138 0.983903 0
M  V30 3603 C 340.949 -4.45164 -0.272905 0
M  V30 3604 C 341.65 -5.63069 1.4604 0
M  V30 3605 N 340.626 -5.37991 0.778857 0
M  V30 3606 H 344.428 -2.81052 0.859467 0
M  V30 3607 H 341.942 -1.5206 0.570227 0
M  V30 3608 H 343.939 -3.95311 -1.32419 0
M  V30 3609 H 342.599 -2.81421 -1.61964 0
M  V30 3610 H 343.61 -4.9958 1.36528 0
M  V30 3611 H 340.287 -4.04497 -1.03383 0
M  V30 3612 H 341.677 -6.30755 2.31511 0
M  V30 3613 N 344.397 -0.483516 -1.5 0
M  V30 3614 C 345.622 0.0667119 -2.07293 0
M  V30 3615 C 346.047 1.3164 -1.3436 0
M  V30 3616 O 345.405 1.76945 -0.394987 0
M  V30 3617 C 345.453 0.321126 -3.59167 0
M  V30 3618 O 344.557 1.39927 -3.87936 0
M  V30 3619 H 343.898 -0.0184758 -0.663743 0
M  V30 3620 H 346.428 -0.678125 -1.93035 0
M  V30 3621 H 346.438 0.557906 -4.04168 0
M  V30 3622 H 345.113 -0.592007 -4.11665 0
M  V30 3623 H 343.69 1.14882 -3.54763 0
M  V30 3624 N 345.875 1.56104 -0.216619 0
M  V30 3625 C 347.103 2.02563 0.421413 0
M  V30 3626 C 347.518 1.0965 1.53695 0
M  V30 3627 O 346.875 0.10521 1.82196 0
M  V30 3628 C 346.926 3.48584 0.957665 0
M  V30 3629 O 346.647 4.37953 -0.113389 0
M  V30 3630 C 348.148 4.10664 1.66943 0
M  V30 3631 H 345.368 0.662944 0.103665 0
M  V30 3632 H 347.912 2.01793 -0.331629 0
M  V30 3633 H 346.067 3.49985 1.661 0
M  V30 3634 H 346.481 5.23704 0.288932 0
M  V30 3635 H 347.955 5.14622 1.99671 0
M  V30 3636 H 348.432 3.55373 2.58083 0
M  V30 3637 H 349.038 4.13098 1.01142 0
M  V30 3638 N 347.353 -0.0568162 1.57498 0
M  V30 3639 C 348.601 -0.751617 1.87604 0
M  V30 3640 C 348.922 -1.77351 0.81066 0
M  V30 3641 O 348.192 -1.95254 -0.159018 0
M  V30 3642 H 346.772 -0.280583 0.692302 0
M  V30 3643 H 349.434 -0.0293483 1.94878 0
M  V30 3644 H 348.53 -1.25852 2.856 0
M  V30 3645 N 348.832 -1.54138 -0.328536 0
M  V30 3646 C 350.078 -1.7236 -1.06865 0
M  V30 3647 C 350.411 -0.493231 -1.87832 0
M  V30 3648 O 349.686 0.5098 -1.877 0
M  V30 3649 C 349.969 -2.99621 -1.99747 0
M  V30 3650 C 349.822 -4.32899 -1.22143 0
M  V30 3651 C 351.141 -3.22615 -2.99345 0
M  V30 3652 H 348.26 -0.627151 -0.387105 0
M  V30 3653 H 350.902 -1.86827 -0.345767 0
M  V30 3654 H 349.052 -2.87418 -2.61387 0
M  V30 3655 H 350.724 -4.56978 -0.630017 0
M  V30 3656 H 348.967 -4.30628 -0.523628 0
M  V30 3657 H 349.638 -5.18154 -1.90318 0
M  V30 3658 H 352.114 -3.34248 -2.47826 0
M  V30 3659 H 350.99 -4.13027 -3.61524 0
M  V30 3660 H 351.251 -2.3961 -3.71536 0
M  V30 3661 N 350.31 0.590341 -1.46126 0
M  V30 3662 C 351.556 1.34874 -1.52252 0
M  V30 3663 C 351.911 1.91658 -0.168807 0
M  V30 3664 O 351.204 1.73093 0.821556 0
M  V30 3665 C 351.398 2.5032 -2.55097 0
M  V30 3666 C 351.227 2.04843 -4.00337 0
M  V30 3667 C 349.997 1.90213 -4.68132 0
M  V30 3668 C 352.195 1.61267 -4.88362 0
M  V30 3669 N 350.177 1.38727 -5.9802 0
M  V30 3670 C 351.548 1.21319 -6.08015 0
M  V30 3671 C 353.603 1.49015 -4.75078 0
M  V30 3672 C 352.306 0.7034 -7.15852 0
M  V30 3673 C 354.332 0.994401 -5.8298 0
M  V30 3674 C 353.694 0.604659 -7.018 0
M  V30 3675 H 349.793 0.486803 -0.612002 0
M  V30 3676 H 352.377 0.673007 -1.82698 0
M  V30 3677 H 350.548 3.15466 -2.26574 0
M  V30 3678 H 352.28 3.1725 -2.51266 0
M  V30 3679 H 349.035 2.11927 -4.23537 0
M  V30 3680 H 349.459 1.15168 -6.67132 0
M  V30 3681 H 354.101 1.77768 -3.83612 0
M  V30 3682 H 351.819 0.403446 -8.07092 0
M  V30 3683 H 355.405 0.903621 -5.7474 0
M  V30 3684 H 354.285 0.226963 -7.83871 0
M  V30 3685 N 351.788 1.33704 0.83433 0
M  V30 3686 C 352.751 1.24244 1.92603 0
M  V30 3687 C 353.751 0.160383 1.59998 0
M  V30 3688 O 354.941 0.412228 1.69252 0
M  V30 3689 C 352.073 0.91555 3.28376 0
M  V30 3690 H 353.266 2.21287 2.02416 0
M  V30 3691 H 350.819 1.17827 1.02696 0
M  V30 3692 H 351.554 -0.0521886 3.24258 0
M  V30 3693 H 351.339 1.69811 3.53422 0
M  V30 3694 H 352.829 0.874231 4.08347 0
M  V30 3695 N 353.266 -1.05314 1.17247 0
M  V30 3696 C 354.515 -1.77685 0.954521 0
M  V30 3697 C 354.828 -1.88616 -0.518025 0
M  V30 3698 O 356.034 -2.57714 -0.854144 0
M  V30 3699 C 354.49 -3.19402 1.65863 0
M  V30 3700 C 354.098 -3.16605 3.16963 0
M  V30 3701 C 355.842 -3.96237 1.52303 0
M  V30 3702 C 353.749 -4.53103 3.80068 0
M  V30 3703 H 352.679 -0.666 0.353496 0
M  V30 3704 H 355.33 -1.1805 1.40486 0
M  V30 3705 H 353.712 -3.79355 1.13602 0
M  V30 3706 H 354.886 -2.66176 3.76148 0
M  V30 3707 H 353.201 -2.53268 3.30521 0
M  V30 3708 H 355.798 -4.97157 1.96822 0
M  V30 3709 H 356.141 -4.136 0.473401 0
M  V30 3710 H 356.674 -3.42829 2.01775 0
M  V30 3711 H 353.413 -4.40946 4.85023 0
M  V30 3712 H 352.933 -5.03686 3.2567 0
M  V30 3713 H 354.612 -5.22045 3.82202 0
M  V30 3714 N 354.744 -0.972509 -1.24016 0
M  V30 3715 C 355.674 -0.525548 -2.27509 0
M  V30 3716 C 356.655 0.437262 -1.64384 0
M  V30 3717 O 357.84 0.332343 -1.91335 0
M  V30 3718 C 354.97 0.180448 -3.46831 0
M  V30 3719 C 353.924 -0.698859 -4.22256 0
M  V30 3720 C 353.25 0.138903 -5.3452 0
M  V30 3721 C 354.55 -1.98582 -4.83076 0
M  V30 3722 H 356.244 -1.39058 -2.65148 0
M  V30 3723 H 353.79 -0.67009 -1.27459 0
M  V30 3724 H 355.743 0.504387 -4.18371 0
M  V30 3725 H 354.467 1.07987 -3.08231 0
M  V30 3726 H 353.126 -1.00614 -3.52523 0
M  V30 3727 H 352.774 1.03862 -4.9216 0
M  V30 3728 H 352.474 -0.446259 -5.85903 0
M  V30 3729 H 353.998 0.457404 -6.08884 0
M  V30 3730 H 355.412 -1.72715 -5.46665 0
M  V30 3731 H 353.809 -2.5181 -5.44713 0
M  V30 3732 H 354.879 -2.67769 -4.04262 0
M  V30 3733 N 356.222 1.38976 -0.743202 0
M  V30 3734 C 357.45 2.04636 -0.30525 0
M  V30 3735 C 357.865 1.56044 1.06281 0
M  V30 3736 O 357.222 0.728921 1.67311 0
M  V30 3737 C 357.273 3.60193 -0.307177 0
M  V30 3738 O 356.994 4.06998 -1.62124 0
M  V30 3739 C 358.495 4.4306 0.145928 0
M  V30 3740 H 355.715 0.65788 -0.132041 0
M  V30 3741 H 358.259 1.77866 -1.00915 0
M  V30 3742 H 356.414 3.85835 0.347898 0
M  V30 3743 H 356.828 5.01371 -1.54036 0
M  V30 3744 H 358.302 5.51921 0.0934183 0
M  V30 3745 H 358.779 4.22706 1.19231 0
M  V30 3746 H 359.385 4.22584 -0.479886 0
M  V30 3747 N 357.7 0.491464 1.49741 0
M  V30 3748 C 358.647 -0.292027 2.28945 0
M  V30 3749 C 359.617 -0.968973 1.34908 0
M  V30 3750 O 360.802 -0.97748 1.6386 0
M  V30 3751 C 357.942 -1.35617 3.17336 0
M  V30 3752 C 357.055 -0.691957 4.26422 0
M  V30 3753 C 356.19 -1.73572 5.02042 0
M  V30 3754 C 355.229 -1.05286 6.02977 0
M  V30 3755 N 354.366 -2.0404 6.71798 0
M  V30 3756 H 359.206 0.389654 2.95442 0
M  V30 3757 H 356.743 0.204003 1.45679 0
M  V30 3758 H 358.701 -1.98502 3.66951 0
M  V30 3759 H 357.331 -2.00674 2.52844 0
M  V30 3760 H 356.383 0.0499523 3.80367 0
M  V30 3761 H 357.695 -0.153946 4.98562 0
M  V30 3762 H 356.849 -2.43987 5.55478 0
M  V30 3763 H 355.588 -2.30757 4.29654 0
M  V30 3764 H 354.593 -0.334446 5.48782 0
M  V30 3765 H 355.818 -0.487636 6.77347 0
M  V30 3766 H 353.764 -2.60205 6.02187 0
M  V30 3767 H 353.681 -1.55279 7.39881 0
M  V30 3768 H 354.949 -2.73772 7.29842 0
M  V30 3769 N 359.178 -1.55987 0.224894 0
M  V30 3770 C 360.426 -1.97998 -0.405099 0
M  V30 3771 C 360.747 -1.11387 -1.60056 0
M  V30 3772 O 360.017 -0.191645 -1.9496 0
M  V30 3773 H 358.597 -0.731235 -0.152658 0
M  V30 3774 H 361.259 -1.92279 0.318567 0
M  V30 3775 H 360.355 -3.03463 -0.729167 0
M  V30 3776 N 360.656 0.0484629 -1.57525 0
M  V30 3777 C 362.072 0.40375 -1.54409 0
M  V30 3778 C 362.272 1.77786 -0.948384 0
M  V30 3779 O 361.328 2.46189 -0.560983 0
M  V30 3780 C 362.641 0.323394 -2.98956 0
M  V30 3781 C 364.189 0.401892 -3.10409 0
M  V30 3782 C 364.664 0.351195 -4.56652 0
M  V30 3783 N 366.155 0.410576 -4.61377 0
M  V30 3784 C 366.89 0.393933 -5.72045 0
M  V30 3785 N 366.386 0.330724 -6.9201 0
M  V30 3786 N 368.179 0.442227 -5.60358 0
M  V30 3787 H 360.33 -0.851016 -1.94606 0
M  V30 3788 H 362.593 -0.321721 -0.89174 0
M  V30 3789 H 362.299 -0.62011 -3.4619 0
M  V30 3790 H 362.173 1.12463 -3.60044 0
M  V30 3791 H 364.56 1.33582 -2.63134 0
M  V30 3792 H 364.641 -0.428342 -2.52188 0
M  V30 3793 H 364.285 -0.578987 -5.04589 0
M  V30 3794 H 364.215 1.19928 -5.12762 0
M  V30 3795 H 366.706 0.462729 -3.75056 0
M  V30 3796 H 367.019 0.322592 -7.72126 0
M  V30 3797 H 365.364 0.29706 -6.94365 0
M  V30 3798 H 368.555 0.489464 -4.65534 0
M  V30 3799 H 368.728 0.425788 -6.466 0
M  V30 3800 N 362.134 1.5431 0.320358 0
M  V30 3801 C 363.383 1.7188 1.05546 0
M  V30 3802 C 363.696 0.501143 1.89071 0
M  V30 3803 O 364.902 0.558258 2.65699 0
M  V30 3804 C 363.358 3.04025 1.92605 0
M  V30 3805 C 362.966 4.33207 1.14176 0
M  V30 3806 C 364.71 3.30959 2.65832 0
M  V30 3807 C 362.617 5.56412 2.00399 0
M  V30 3808 H 361.547 0.640547 0.397763 0
M  V30 3809 H 364.198 1.80802 0.313522 0
M  V30 3810 H 362.58 2.89019 2.7071 0
M  V30 3811 H 363.754 4.58989 0.40819 0
M  V30 3812 H 362.069 4.13062 0.526165 0
M  V30 3813 H 364.666 4.20203 3.30656 0
M  V30 3814 H 365.009 2.48979 3.33639 0
M  V30 3815 H 365.542 3.46847 1.94787 0
M  V30 3816 H 362.281 6.41004 1.37094 0
M  V30 3817 H 361.801 5.34844 2.7148 0
M  V30 3818 H 363.48 5.92938 2.58908 0
M  V30 3819 N 363.613 -0.582584 1.46437 0
M  V30 3820 C 364.861 -1.33814 1.51453 0
M  V30 3821 C 365.182 -1.94277 0.167792 0
M  V30 3822 O 364.452 -1.78566 -0.805677 0
M  V30 3823 H 363.032 -0.496838 0.557818 0
M  V30 3824 H 365.694 -0.682281 1.82568 0
M  V30 3825 H 364.79 -2.14479 2.26728 0
M  V30 3826 N 365.091 -1.34144 -0.827227 0
M  V30 3827 C 366.001 -1.27428 -1.96975 0
M  V30 3828 C 367.017 -0.182728 -1.73038 0
M  V30 3829 O 368.193 -0.408426 -1.97215 0
M  V30 3830 C 365.258 -1.02526 -3.31194 0
M  V30 3831 C 364.319 -2.20796 -3.68168 0
M  V30 3832 C 363.552 -1.97073 -4.95982 0
M  V30 3833 O 363.775 -0.926822 -5.6282 0
M  V30 3834 O 362.709 -2.83912 -5.30733 0
M  V30 3835 H 366.535 -2.23537 -2.05584 0
M  V30 3836 H 364.12 -1.14307 -0.961989 0
M  V30 3837 H 366.002 -0.904026 -4.11589 0
M  V30 3838 H 364.677 -0.0945389 -3.23562 0
M  V30 3839 H 363.584 -2.38477 -2.88235 0
M  V30 3840 H 364.917 -3.12243 -3.8048 0
M  V30 3841 N 366.569 1.04691 -1.17803 0
M  V30 3842 C 367.797 1.81446 -0.99423 0
M  V30 3843 C 368.212 1.83174 0.457459 0
M  V30 3844 O 367.569 1.26265 1.31771 0
M  V30 3845 C 367.62 3.27334 -1.5341 0
M  V30 3846 O 367.341 3.25798 -2.92895 0
M  V30 3847 C 368.842 4.20759 -1.39559 0
M  V30 3848 H 366.062 0.571599 -0.351447 0
M  V30 3849 H 368.606 1.31982 -1.56208 0
M  V30 3850 H 366.761 3.74052 -1.00815 0
M  V30 3851 H 367.175 4.17144 -3.17949 0
M  V30 3852 H 368.649 5.21084 -1.82141 0
M  V30 3853 H 369.126 4.37856 -0.343394 0
M  V30 3854 H 369.732 3.79901 -1.91195 0
M  V30 3855 N 368.047 0.979072 1.23499 0
M  V30 3856 C 369.277 0.664237 1.95631 0
M  V30 3857 C 369.685 -0.772653 1.72704 0
M  V30 3858 O 369.028 -1.53141 1.01457 0
M  V30 3859 C 369.09 0.873115 3.48736 0
M  V30 3860 C 368.754 2.29182 3.95379 0
M  V30 3861 C 369.751 3.2704 4.04155 0
M  V30 3862 C 367.436 2.62256 4.28401 0
M  V30 3863 C 369.43 4.56052 4.45304 0
M  V30 3864 C 367.117 3.91491 4.69231 0
M  V30 3865 C 368.115 4.88201 4.77649 0
M  V30 3866 O 367.803 6.15129 5.17563 0
M  V30 3867 H 367.535 0.245915 0.629684 0
M  V30 3868 H 370.089 1.3127 1.57979 0
M  V30 3869 H 368.319 0.167476 3.86337 0
M  V30 3870 H 370.008 0.555642 4.02079 0
M  V30 3871 H 370.774 3.02819 3.78848 0
M  V30 3872 H 366.653 1.87692 4.21061 0
M  V30 3873 H 370.197 5.31538 4.51789 0
M  V30 3874 H 366.094 4.15508 4.93987 0
M  V30 3875 H 366.862 6.18862 5.35679 0
M  V30 3876 N 369.525 -1.3858 0.750561 0
M  V30 3877 C 370.455 -2.33102 0.136237 0
M  V30 3878 C 371.436 -1.54713 -0.706965 0
M  V30 3879 O 372.621 -1.83043 -0.648769 0
M  V30 3880 C 369.751 -3.38882 -0.760017 0
M  V30 3881 C 368.705 -4.27995 -0.0197785 0
M  V30 3882 C 368.031 -5.24605 -1.03408 0
M  V30 3883 C 369.331 -5.09554 1.14684 0
M  V30 3884 H 371.025 -2.84726 0.925822 0
M  V30 3885 H 368.571 -1.36898 0.446654 0
M  V30 3886 H 370.524 -4.0397 -1.19943 0
M  V30 3887 H 369.248 -2.85734 -1.58189 0
M  V30 3888 H 367.907 -3.64409 0.400184 0
M  V30 3889 H 367.555 -4.67746 -1.84994 0
M  V30 3890 H 367.255 -5.85081 -0.543464 0
M  V30 3891 H 368.779 -5.9257 -1.47288 0
M  V30 3892 H 370.193 -5.67899 0.785118 0
M  V30 3893 H 368.59 -5.7925 1.56812 0
M  V30 3894 H 369.66 -4.4347 1.96118 0
M  V30 3895 N 371.003 -0.499398 -1.49478 0
M  V30 3896 C 372.252 0.0475259 -2.01644 0
M  V30 3897 C 372.565 1.38195 -1.38425 0
M  V30 3898 O 373.771 2.01547 -1.8191 0
M  V30 3899 C 372.227 0.135164 -3.59646 0
M  V30 3900 C 371.835 -1.19252 -4.31837 0
M  V30 3901 C 373.579 0.632538 -4.19761 0
M  V30 3902 C 371.486 -1.06713 -5.81693 0
M  V30 3903 H 370.416 0.0215349 -0.753692 0
M  V30 3904 H 373.067 -0.638577 -1.7203 0
M  V30 3905 H 371.449 0.885681 -3.85969 0
M  V30 3906 H 372.623 -1.9562 -4.17216 0
M  V30 3907 H 370.938 -1.62321 -3.83459 0
M  V30 3908 H 373.535 0.743833 -5.29501 0
M  V30 3909 H 373.878 1.63098 -3.83021 0
M  V30 3910 H 374.411 -0.0613987 -3.97753 0
M  V30 3911 H 371.15 -2.03979 -6.22955 0
M  V30 3912 H 370.67 -0.344307 -5.98811 0
M  V30 3913 H 372.349 -0.745208 -6.42694 0
M  V30 3914 N 372.481 1.55866 -0.233164 0
M  V30 3915 C 373.729 1.9821 0.394593 0
M  V30 3916 C 374.05 1.12234 1.59463 0
M  V30 3917 O 373.32 0.201981 1.94856 0
M  V30 3918 H 371.9 0.732034 0.148778 0
M  V30 3919 H 374.562 1.92107 -0.32876 0
M  V30 3920 H 373.658 3.03845 0.713063 0
M  V30 3921 N 373.959 -0.0401083 1.57549 0
M  V30 3922 C 374.922 -1.02871 2.04817 0
M  V30 3923 C 375.922 -1.29708 0.950388 0
M  V30 3924 O 377.112 -1.24897 1.21435 0
M  V30 3925 C 374.244 -2.36443 2.45576 0
M  V30 3926 H 375.437 -0.620631 2.93408 0
M  V30 3927 H 372.99 -0.286667 1.53649 0
M  V30 3928 H 373.725 -2.82021 1.60108 0
M  V30 3929 H 373.51 -2.18296 3.25713 0
M  V30 3930 H 375 -3.07441 2.82612 0
M  V30 3931 N 375.437 -1.54477 -0.31217 0
M  V30 3932 C 376.714 -1.63891 -1.06767 0
M  V30 3933 C 377.094 -0.480028 -2.0557 0
M  V30 3934 O 376.442 0.524487 -2.22399 0
M  V30 3935 C 376.652 -3.01402 -1.75948 0
M  V30 3936 C 378 -3.57838 -2.28554 0
M  V30 3937 O 379.024 -3.03782 -1.85998 0
M  V30 3938 O 377.883 -4.52462 -3.06497 0
M  V30 3939 H 374.977 -0.664125 -0.492816 0
M  V30 3940 H 377.523 -1.66823 -0.311149 0
M  V30 3941 H 376.295 -3.77187 -1.04144 0
M  V30 3942 H 375.918 -3.02199 -2.58383 0
M  V30 3943 N 376.915 0.57481 -1.46744 0
M  V30 3944 C 378.163 1.33009 -1.52161 0
M  V30 3945 C 378.484 1.94185 -0.178092 0
M  V30 3946 O 377.754 1.7899 0.796196 0
M  V30 3947 H 376.334 0.493873 -0.560445 0
M  V30 3948 H 378.996 0.672589 -1.82927 0
M  V30 3949 H 378.092 2.13273 -2.27862 0
M  V30 3950 N 378.394 1.34581 0.820102 0
M  V30 3951 C 379.304 1.28471 1.96297 0
M  V30 3952 C 380.32 0.191902 1.72939 0
M  V30 3953 O 381.496 0.418879 1.96996 0
M  V30 3954 C 378.561 1.04281 3.30645 0
M  V30 3955 C 377.622 2.22745 3.66992 0
M  V30 3956 C 376.855 1.997 4.9493 0
M  V30 3957 O 377.078 0.956656 5.6232 0
M  V30 3958 O 376.012 2.86723 5.2922 0
M  V30 3959 H 379.838 2.24624 2.04396 0
M  V30 3960 H 377.423 1.14816 0.955913 0
M  V30 3961 H 379.305 0.925841 4.11104 0
M  V30 3962 H 377.98 0.111697 3.23507 0
M  V30 3963 H 376.887 2.40003 2.86966 0
M  V30 3964 H 378.22 3.14257 3.78819 0
M  V30 3965 N 379.872 -1.04064 1.18357 0
M  V30 3966 C 380.819 -2.12077 0.910603 0
M  V30 3967 C 381.789 -1.65421 -0.15 0
M  V30 3968 O 382.974 -1.90797 -0.0103614 0
M  V30 3969 C 380.114 -3.42252 0.442472 0
M  V30 3970 C 379.227 -4.0252 1.5685 0
M  V30 3971 C 378.362 -5.20657 1.05309 0
M  V30 3972 C 377.401 -5.72955 2.1538 0
M  V30 3973 N 376.538 -6.8238 1.65233 0
M  V30 3974 H 381.378 -2.34764 1.83548 0
M  V30 3975 H 378.915 -1.15157 0.915279 0
M  V30 3976 H 380.873 -4.16921 0.152534 0
M  V30 3977 H 379.503 -3.19712 -0.445428 0
M  V30 3978 H 378.555 -3.25178 1.97391 0
M  V30 3979 H 379.867 -4.37362 2.39824 0
M  V30 3980 H 379.021 -6.0244 0.717677 0
M  V30 3981 H 377.76 -4.87318 0.19293 0
M  V30 3982 H 376.765 -4.89793 2.49766 0
M  V30 3983 H 377.99 -6.08337 3.01832 0
M  V30 3984 H 375.936 -6.50917 0.815064 0
M  V30 3985 H 375.853 -7.16286 2.41805 0
M  V30 3986 H 377.121 -7.67788 1.34619 0
M  V30 3987 N 381.35 -0.985608 -1.22978 0
M  V30 3988 C 382.298 -0.522631 -2.26652 0
M  V30 3989 C 383.292 0.422998 -1.64034 0
M  V30 3990 O 384.498 0.296319 -1.77544 0
M  V30 3991 H 380.873 -0.150597 -0.736766 0
M  V30 3992 H 382.844 -1.40863 -2.63059 0
M  V30 3993 C 381.593 0.154238 -3.47358 0
M  V30 3994 H 380.916 -0.564329 -3.95797 0
M  V30 3995 H 382.356 0.441744 -4.21693 0
M  V30 3996 C 380.815 1.38719 -3.07016 0
M  V30 3997 O 381.345 2.48307 -3.15764 0
M  V30 3998 N 379.551 1.25975 -2.61875 0
M  V30 3999 H 379.098 0.368068 -2.54957 0
M  V30 4000 H 379.056 2.08578 -2.3525 0
M  V30 4001 N 382.828 1.3818 -0.7579 0
M  V30 4002 C 383.776 2.32277 -0.122482 0
M  V30 4003 C 384.77 1.54238 0.700505 0
M  V30 4004 O 385.976 1.69737 0.599119 0
M  V30 4005 H 382.351 0.751712 -0.0208143 0
M  V30 4006 H 384.322 2.83469 -0.932099 0
M  V30 4007 C 383.071 3.39447 0.753076 0
M  V30 4008 H 382.394 3.99591 0.129184 0
M  V30 4009 H 383.834 4.07684 1.16489 0
M  V30 4010 C 382.293 2.78375 1.8976 0
M  V30 4011 O 382.823 2.68025 2.99208 0
M  V30 4012 N 381.029 2.36121 1.69397 0
M  V30 4013 H 380.576 2.4474 0.803762 0
M  V30 4014 H 380.534 1.95602 2.46145 0
M  V30 4015 N 384.306 0.507319 1.49211 0
M  V30 4016 C 385.253 -0.267728 2.29242 0
M  V30 4017 C 386.223 -0.954609 1.35928 0
M  V30 4018 O 387.408 -0.960046 1.64887 0
M  V30 4019 C 384.548 -1.32243 3.18756 0
M  V30 4020 C 383.661 -0.64669 4.27132 0
M  V30 4021 C 382.796 -1.68238 5.03855 0
M  V30 4022 C 381.835 -0.98885 6.0406 0
M  V30 4023 N 380.972 -1.96903 6.73924 0
M  V30 4024 H 385.812 0.420968 2.95012 0
M  V30 4025 H 383.349 0.219443 1.45454 0
M  V30 4026 H 385.307 -1.94599 3.69036 0
M  V30 4027 H 383.937 -1.97981 2.54958 0
M  V30 4028 H 382.989 0.0902926 3.80293 0
M  V30 4029 H 384.301 -0.101058 4.98698 0
M  V30 4030 H 383.455 -2.38081 5.58034 0
M  V30 4031 H 382.194 -2.26187 4.32077 0
M  V30 4032 H 381.199 -0.276222 5.49106 0
M  V30 4033 H 382.424 -0.415767 6.77826 0
M  V30 4034 H 380.37 -2.53803 6.04913 0
M  V30 4035 H 380.287 -1.47423 7.41487 0
M  V30 4036 H 381.555 -2.66015 7.32705 0
M  V30 4037 N 385.784 -1.5574 0.241426 0
M  V30 4038 C 386.694 -2.2479 -0.671305 0
M  V30 4039 C 387.71 -1.26217 -1.19772 0
M  V30 4040 O 388.886 -1.59079 -1.23514 0
M  V30 4041 C 385.951 -2.92966 -1.85396 0
M  V30 4042 C 385.012 -4.06935 -1.36756 0
M  V30 4043 C 384.245 -4.71851 -2.49384 0
M  V30 4044 O 384.468 -4.35823 -3.67987 0
M  V30 4045 O 383.402 -5.60467 -2.19454 0
M  V30 4046 H 387.228 -3.0349 -0.112966 0
M  V30 4047 H 384.813 -1.49397 0.0101513 0
M  V30 4048 H 386.695 -3.35927 -2.54423 0
M  V30 4049 H 385.37 -2.17211 -2.40002 0
M  V30 4050 H 384.277 -3.68503 -0.644726 0
M  V30 4051 H 385.61 -4.84492 -0.867647 0
M  V30 4052 N 387.262 0.0317525 -1.57568 0
M  V30 4053 C 388.508 0.724175 -1.8943 0
M  V30 4054 C 388.841 1.75149 -0.838836 0
M  V30 4055 O 388.116 1.93948 0.146422 0
M  V30 4056 C 388.399 1.39615 -3.31933 0
M  V30 4057 C 388.252 0.382537 -4.4817 0
M  V30 4058 C 389.571 2.33084 -3.73309 0
M  V30 4059 H 386.69 0.261797 -0.688935 0
M  V30 4060 H 389.332 -0.013017 -1.89996 0
M  V30 4061 H 387.482 2.02451 -3.31581 0
M  V30 4062 H 389.154 -0.243689 -4.60656 0
M  V30 4063 H 387.397 -0.29844 -4.32772 0
M  V30 4064 H 388.068 0.891145 -5.44759 0
M  V30 4065 H 390.544 1.80295 -3.7501 0
M  V30 4066 H 389.42 2.77084 -4.73831 0
M  V30 4067 H 389.681 3.19643 -3.05419 0
M  V30 4068 N 388.74 1.54641 0.303973 0
M  V30 4069 C 389.67 1.88386 1.3796 0
M  V30 4070 C 390.651 0.742485 1.5304 0
M  V30 4071 O 391.836 0.997959 1.66597 0
M  V30 4072 C 388.966 2.12854 2.74427 0
M  V30 4073 C 387.92 3.28702 2.74115 0
M  V30 4074 C 387.246 3.38582 4.13844 0
M  V30 4075 C 388.546 4.65881 2.3612 0
M  V30 4076 H 390.24 2.78474 1.09966 0
M  V30 4077 H 387.786 1.33988 0.527556 0
M  V30 4078 H 389.739 2.35047 3.49758 0
M  V30 4079 H 388.463 1.19535 3.03939 0
M  V30 4080 H 387.122 3.06428 2.0124 0
M  V30 4081 H 386.77 2.42784 4.40528 0
M  V30 4082 H 386.47 4.16453 4.14537 0
M  V30 4083 H 387.994 3.63031 4.90959 0
M  V30 4084 H 389.408 4.87823 3.01167 0
M  V30 4085 H 387.805 5.46444 2.48031 0
M  V30 4086 H 388.875 4.66799 1.3125 0
M  V30 4087 N 390.218 -0.567019 1.47046 0
M  V30 4088 C 391.128 -1.70247 1.6141 0
M  V30 4089 C 392.144 -1.66746 0.497157 0
M  V30 4090 O 393.32 -1.86371 0.763389 0
M  V30 4091 C 390.385 -3.06756 1.61561 0
M  V30 4092 C 389.446 -3.21399 2.84607 0
M  V30 4093 C 388.679 -4.51396 2.84741 0
M  V30 4094 O 388.902 -5.36255 1.94388 0
M  V30 4095 O 387.836 -4.69621 3.76483 0
M  V30 4096 H 391.662 -1.61073 2.57467 0
M  V30 4097 H 389.247 -0.735894 1.30019 0
M  V30 4098 H 391.129 -3.8801 1.64396 0
M  V30 4099 H 389.804 -3.16333 0.686684 0
M  V30 4100 H 388.711 -2.39579 2.8732 0
M  V30 4101 H 390.044 -3.16721 3.76761 0
M  V30 4102 N 391.696 -1.35014 -0.812953 0
M  V30 4103 C 392.626 -1.30069 -1.93919 0
M  V30 4104 C 393.607 -0.176275 -1.69184 0
M  V30 4105 O 394.792 -0.370227 -1.90638 0
M  V30 4106 C 391.922 -1.06547 -3.30552 0
M  V30 4107 C 390.876 -2.15561 -3.69753 0
M  V30 4108 C 390.202 -1.77214 -5.04479 0
M  V30 4109 C 391.502 -3.57476 -3.808 0
M  V30 4110 H 393.196 -2.24303 -1.98314 0
M  V30 4111 H 390.742 -1.07977 -0.952736 0
M  V30 4112 H 392.695 -1.01729 -4.08937 0
M  V30 4113 H 391.419 -0.0875719 -3.26483 0
M  V30 4114 H 390.078 -2.19466 -2.9365 0
M  V30 4115 H 389.726 -0.780589 -4.96906 0
M  V30 4116 H 389.426 -2.50184 -5.31678 0
M  V30 4117 H 390.95 -1.7391 -5.8531 0
M  V30 4118 H 392.364 -3.55929 -4.4943 0
M  V30 4119 H 390.761 -4.29152 -4.19462 0
M  V30 4120 H 391.831 -3.94091 -2.82525 0
M  V30 4121 N 393.175 1.03435 -1.18907 0
M  V30 4122 C 394.424 1.76143 -0.982669 0
M  V30 4123 C 394.737 1.89416 0.487953 0
M  V30 4124 O 395.943 2.59041 0.813036 0
M  V30 4125 C 394.399 3.16722 -1.70924 0
M  V30 4126 C 394.007 3.11522 -3.21959 0
M  V30 4127 C 395.751 3.93764 -1.58588 0
M  V30 4128 C 393.658 4.46999 -3.87228 0
M  V30 4129 H 392.588 0.660292 -0.364047 0
M  V30 4130 H 395.239 1.158 -1.42347 0
M  V30 4131 H 393.621 3.775 -1.19623 0
M  V30 4132 H 394.795 2.60158 -3.80335 0
M  V30 4133 H 393.11 2.47978 -3.34508 0
M  V30 4134 H 395.707 4.93963 -2.04707 0
M  V30 4135 H 396.05 4.12794 -0.539142 0
M  V30 4136 H 396.583 3.39576 -2.07203 0
M  V30 4137 H 393.322 4.33174 -4.91976 0
M  V30 4138 H 392.842 4.98441 -3.33642 0
M  V30 4139 H 394.521 5.15898 -3.90459 0
M  V30 4140 N 394.653 0.992116 1.22453 0
M  V30 4141 C 395.583 0.561677 2.26644 0
M  V30 4142 C 396.564 -0.411055 1.65059 0
M  V30 4143 O 397.749 -0.301861 1.9184 0
M  V30 4144 C 394.879 -0.125247 3.47074 0
M  V30 4145 C 393.833 0.765948 4.21091 0
M  V30 4146 C 393.159 -0.0538484 5.34673 0
M  V30 4147 C 394.459 2.06242 4.79856 0
M  V30 4148 H 396.153 1.43259 2.62902 0
M  V30 4149 H 393.699 0.690283 1.26377 0
M  V30 4150 H 395.652 -0.437764 4.1912 0
M  V30 4151 H 394.376 -1.03069 3.0991 0
M  V30 4152 H 393.035 1.0621 3.50878 0
M  V30 4153 H 392.683 -0.960188 4.9375 0
M  V30 4154 H 392.383 0.539415 5.85119 0
M  V30 4155 H 393.907 -0.360477 6.09535 0
M  V30 4156 H 395.321 1.8139 5.43848 0
M  V30 4157 H 393.718 2.60444 5.40638 0
M  V30 4158 H 394.788 2.74167 3.99951 0
M  V30 4159 N 396.131 -1.37776 0.765217 0
M  V30 4160 C 397.041 -2.34135 0.147666 0
M  V30 4161 C 398.057 -1.59854 -0.687215 0
M  V30 4162 O 399.233 -1.91983 -0.608659 0
M  V30 4163 C 396.298 -3.3901 -0.72617 0
M  V30 4164 C 395.359 -4.2912 0.124417 0
M  V30 4165 C 394.592 -5.28986 -0.707807 0
M  V30 4166 O 394.815 -5.36205 -1.94525 0
M  V30 4167 O 393.749 -6.01779 -0.12046 0
M  V30 4168 H 397.575 -2.88664 0.943758 0
M  V30 4169 H 395.16 -1.39824 0.526277 0
M  V30 4170 H 397.042 -4.03195 -1.22524 0
M  V30 4171 H 395.717 -2.86819 -1.50056 0
M  V30 4172 H 394.624 -3.68057 0.669696 0
M  V30 4173 H 395.957 -4.84598 0.861736 0
M  V30 4174 N 397.609 -0.515225 -1.4894 0
M  V30 4175 C 398.556 0.255567 -2.29381 0
M  V30 4176 C 399.526 0.947387 -1.36432 0
M  V30 4177 O 400.711 0.951288 -1.65394 0
M  V30 4178 C 397.851 1.30551 -3.19453 0
M  V30 4179 C 396.964 0.624029 -4.27469 0
M  V30 4180 C 396.099 1.65563 -5.0474 0
M  V30 4181 C 395.138 0.956802 -6.04576 0
M  V30 4182 N 394.275 1.93326 -6.74959 0
M  V30 4183 H 399.115 -0.436607 -2.94784 0
M  V30 4184 H 396.652 -0.227154 -1.45336 0
M  V30 4185 H 398.61 1.92639 -3.70062 0
M  V30 4186 H 397.24 1.96626 -2.56004 0
M  V30 4187 H 396.292 -0.110459 -3.8024 0
M  V30 4188 H 397.604 0.0746092 -4.98744 0
M  V30 4189 H 396.758 2.35119 -5.59289 0
M  V30 4190 H 395.497 2.23893 -4.3327 0
M  V30 4191 H 394.502 0.247097 -5.49244 0
M  V30 4192 H 395.727 0.379814 -6.78037 0
M  V30 4193 H 393.673 2.50591 -6.06251 0
M  V30 4194 H 393.59 1.43489 -7.42258 0
M  V30 4195 H 394.858 2.62126 -7.34105 0
M  V30 4196 N 399.087 1.5561 -0.249682 0
M  V30 4197 C 400.02 2.17537 0.689408 0
M  V30 4198 C 400.998 1.12829 1.17083 0
M  V30 4199 O 402.182 1.41229 1.24846 0
M  V30 4200 C 399.309 2.77828 1.93725 0
M  V30 4201 C 398.355 3.95615 1.59346 0
M  V30 4202 S 399.188 5.30988 0.69367 0
M  V30 4203 C 400.344 5.94734 1.95046 0
M  V30 4204 H 400.577 2.96852 0.163142 0
M  V30 4205 H 398.11 1.54362 -0.0341166 0
M  V30 4206 H 400.068 3.13199 2.65361 0
M  V30 4207 H 398.729 1.98454 2.43465 0
M  V30 4208 H 397.922 4.364 2.52132 0
M  V30 4209 H 397.524 3.61535 0.957512 0
M  V30 4210 H 399.816 6.12419 2.89739 0
M  V30 4211 H 400.759 6.90109 1.58604 0
M  V30 4212 H 401.167 5.23832 2.10381 0
M  V30 4213 N 400.565 -0.0233959 1.57583 0
M  V30 4214 C 401.79 -0.728376 1.94189 0
M  V30 4215 C 402.215 -1.67793 0.850119 0
M  V30 4216 O 401.573 -1.80262 -0.19371 0
M  V30 4217 C 401.621 -1.45669 3.29868 0
M  V30 4218 O 400.725 -2.57013 3.22518 0
M  V30 4219 H 400.066 -0.195493 0.63457 0
M  V30 4220 H 402.596 0.0228214 2.04587 0
M  V30 4221 H 402.606 -1.82535 3.6489 0
M  V30 4222 H 401.281 -0.760314 4.08891 0
M  V30 4223 H 399.858 -2.22648 2.99136 0
M  V30 4224 N 402.043 -1.548 -0.295768 0
M  V30 4225 C 402.975 -1.82492 -1.3867 0
M  V30 4226 C 403.988 -0.708134 -1.46592 0
M  V30 4227 O 405.177 -0.985686 -1.48817 0
M  V30 4228 C 402.277 -1.95256 -2.76999 0
M  V30 4229 C 401.45 -3.25709 -2.91946 0
M  V30 4230 C 400.509 -3.28824 -4.10806 0
M  V30 4231 O 399.535 -4.02328 -4.02643 0
M  V30 4232 N 400.737 -2.5459 -5.21694 0
M  V30 4233 H 403.502 -2.76646 -1.15269 0
M  V30 4234 H 401.063 -1.54438 -0.485849 0
M  V30 4235 H 403.055 -1.94736 -3.54768 0
M  V30 4236 H 401.625 -1.08072 -2.93324 0
M  V30 4237 H 400.845 -3.38959 -2.01247 0
M  V30 4238 H 402.133 -4.11786 -2.98847 0
M  V30 4239 H 401.531 -1.94512 -5.31208 0
M  V30 4240 H 400.088 -2.59818 -5.97778 0
M  V30 4241 N 403.521 0.559213 -1.47345 0
M  V30 4242 C 404.932 1.14134 -1.47751 0
M  V30 4243 C 405.283 1.94834 -0.231103 0
M  V30 4244 O 404.408 2.05957 0.664137 0
M  V30 4245 C 405.003 2.07653 -2.67705 0
M  V30 4246 C 403.562 2.61141 -2.71076 0
M  V30 4247 C 402.709 1.3748 -2.40821 0
M  V30 4248 H 405.66 0.345917 -1.54884 0
M  V30 4249 H 405.681 2.91497 -2.44561 0
M  V30 4250 H 405.193 1.4889 -3.58404 0
M  V30 4251 H 403.294 3.23707 -1.84511 0
M  V30 4252 H 403.407 3.02272 -3.7171 0
M  V30 4253 H 401.771 1.68086 -1.91362 0
M  V30 4254 H 402.554 0.805135 -3.33725 0
M  V30 4255 N 404.999 1.35443 0.805782 0
M  V30 4256 C 405.946 1.28431 1.91766 0
M  V30 4257 C 406.916 0.156102 1.65365 0
M  V30 4258 O 408.101 0.339936 1.87747 0
M  V30 4259 C 405.241 1.06301 3.2832 0
M  V30 4260 C 404.354 2.2805 3.66902 0
M  V30 4261 C 403.489 1.99064 4.92491 0
M  V30 4262 C 402.528 3.16863 5.23703 0
M  V30 4263 N 401.665 2.87647 6.40471 0
M  V30 4264 H 406.505 2.23511 1.97096 0
M  V30 4265 H 404.042 1.11105 0.964054 0
M  V30 4266 H 406 0.915012 4.07042 0
M  V30 4267 H 404.63 0.148822 3.22457 0
M  V30 4268 H 403.682 2.53711 2.83434 0
M  V30 4269 H 404.994 3.1601 3.85927 0
M  V30 4270 H 404.148 1.81099 5.7904 0
M  V30 4271 H 402.887 1.0839 4.75503 0
M  V30 4272 H 401.892 3.35404 4.35642 0
M  V30 4273 H 403.117 4.08339 5.4262 0
M  V30 4274 H 401.063 1.99568 6.24907 0
M  V30 4275 H 400.98 3.69141 6.59751 0
M  V30 4276 H 402.248 2.73226 7.30047 0
M  V30 4277 N 406.477 -1.02803 1.19454 0
M  V30 4278 C 407.425 -2.13213 0.929673 0
M  V30 4279 C 408.419 -1.69011 -0.114806 0
M  V30 4280 O 409.625 -1.79967 0.0345147 0
M  V30 4281 H 406 -0.69662 0.28324 0
M  V30 4282 H 407.971 -2.32744 1.86743 0
M  V30 4283 C 406.72 -3.4429 0.485797 0
M  V30 4284 H 406.043 -3.7872 1.28105 0
M  V30 4285 H 407.483 -4.22638 0.339582 0
M  V30 4286 C 405.942 -3.27258 -0.800244 0
M  V30 4287 O 406.472 -3.55967 -1.86146 0
M  V30 4288 N 404.678 -2.80545 -0.75781 0
M  V30 4289 H 404.225 -2.57382 0.106039 0
M  V30 4290 H 404.183 -2.6953 -1.61867 0
M  V30 4291 N 407.956 -0.998596 -1.21925 0
M  V30 4292 C 408.919 -0.558679 -2.22287 0
M  V30 4293 C 409.919 0.361525 -1.56683 0
M  V30 4294 O 411.109 0.152695 -1.73529 0
M  V30 4295 C 408.241 0.18661 -3.40389 0
M  V30 4296 H 409.434 -1.4463 -2.62721 0
M  V30 4297 H 406.987 -0.786413 -1.35075 0
M  V30 4298 H 407.722 1.08996 -3.05435 0
M  V30 4299 H 407.507 -0.474188 -3.89222 0
M  V30 4300 H 408.997 0.482367 -4.14805 0
M  V30 4301 N 409.434 1.37368 -0.772513 0
M  V30 4302 C 410.664 2.03647 -0.348082 0
M  V30 4303 C 411.072 1.58392 1.03482 0
M  V30 4304 O 410.415 0.760921 1.672 0
M  V30 4305 C 410.477 3.58131 -0.313404 0
M  V30 4306 C 410.141 4.2652 -1.64102 0
M  V30 4307 C 411.138 4.50587 -2.5936 0
M  V30 4308 C 408.823 4.64335 -1.91567 0
M  V30 4309 C 410.817 5.11526 -3.80289 0
M  V30 4310 C 408.504 5.24996 -3.12766 0
M  V30 4311 C 409.502 5.48529 -4.06946 0
M  V30 4312 O 409.19 6.07921 -5.26011 0
M  V30 4313 H 408.922 0.660538 -0.143753 0
M  V30 4314 H 411.476 1.76669 -1.04772 0
M  V30 4315 H 409.706 3.84159 0.442617 0
M  V30 4316 H 411.395 4.05813 0.0840613 0
M  V30 4317 H 412.161 4.21784 -2.39423 0
M  V30 4318 H 408.04 4.45353 -1.19088 0
M  V30 4319 H 411.584 5.29811 -4.53813 0
M  V30 4320 H 407.481 5.53223 -3.32588 0
M  V30 4321 H 408.249 6.26398 -5.26847 0
M  V30 4322 N 410.912 0.523116 1.48665 0
M  V30 4323 C 412.189 -0.0775449 1.95446 0
M  V30 4324 C 412.569 -1.5197 1.4652 0
M  V30 4325 O 411.917 -2.17876 0.688657 0
M  V30 4326 C 412.127 0.0326135 3.48985 0
M  V30 4327 C 413.475 -0.130141 4.24401 0
M  V30 4328 O 414.499 -0.0415142 3.56176 0
M  V30 4329 O 413.358 -0.31491 5.45592 0
M  V30 4330 H 410.452 -0.0831012 0.822814 0
M  V30 4331 H 412.998 0.587227 1.59216 0
M  V30 4332 H 411.77 1.03748 3.77296 0
M  V30 4333 H 411.393 -0.671317 3.91892 0
M  V30 4334 N 412.39 -1.55475 0.257931 0
M  V30 4335 C 413.34 -2.18506 -0.651094 0
M  V30 4336 C 414.324 -1.14431 -1.13112 0
M  V30 4337 O 415.516 -1.40305 -1.07905 0
M  V30 4338 C 412.645 -2.89653 -1.84272 0
M  V30 4339 C 411.731 -4.00996 -1.38068 0
M  V30 4340 N 412.122 -5.01816 -0.633609 0
M  V30 4341 C 410.42 -4.13753 -1.66506 0
M  V30 4342 C 411.121 -5.80371 -0.392922 0
M  V30 4343 N 410.097 -5.3505 -0.960359 0
M  V30 4344 H 413.899 -2.93811 -0.0722883 0
M  V30 4345 H 411.413 -1.62286 0.0607256 0
M  V30 4346 H 413.41 -3.33245 -2.50506 0
M  V30 4347 H 412.07 -2.15854 -2.42564 0
M  V30 4348 H 413.081 -5.17128 -0.282626 0
M  V30 4349 H 409.758 -3.51133 -2.25858 0
M  V30 4350 H 411.148 -6.7159 0.204235 0
M  V30 4351 N 413.868 0.0150385 -1.57593 0
M  V30 4352 C 415.114 0.704043 -1.90187 0
M  V30 4353 C 415.447 1.74249 -0.857366 0
M  V30 4354 O 414.722 1.94092 0.125843 0
M  V30 4355 C 415.005 1.36087 -3.33395 0
M  V30 4356 C 414.858 0.334981 -4.48551 0
M  V30 4357 C 416.177 2.29112 -3.7576 0
M  V30 4358 H 413.296 0.254475 -0.691673 0
M  V30 4359 H 415.938 -0.0331678 -1.89971 0
M  V30 4360 H 414.088 1.98922 -3.3371 0
M  V30 4361 H 415.76 -0.292534 -4.60372 0
M  V30 4362 H 414.003 -0.344325 -4.32431 0
M  V30 4363 H 414.674 0.833316 -5.45674 0
M  V30 4364 H 417.15 1.76308 -3.76902 0
M  V30 4365 H 416.026 2.72043 -4.76743 0
M  V30 4366 H 416.287 3.16385 -3.08793 0
M  V30 4367 N 415.346 1.54954 0.287554 0
M  V30 4368 C 416.574 1.78881 1.03967 0
M  V30 4369 C 416.989 0.554894 1.80462 0
M  V30 4370 O 416.346 -0.475676 1.76192 0
M  V30 4371 C 416.397 3.00488 2.0097 0
M  V30 4372 O 416.118 4.19113 1.27577 0
M  V30 4373 C 417.619 3.36907 2.88112 0
M  V30 4374 H 414.839 0.596259 0.307761 0
M  V30 4375 H 417.383 2.01937 0.322749 0
M  V30 4376 H 415.538 2.79601 2.68145 0
M  V30 4377 H 415.952 4.87765 1.92835 0
M  V30 4378 H 417.426 4.25205 3.52001 0
M  V30 4379 H 417.903 2.55659 3.57121 0
M  V30 4380 H 418.509 3.60001 2.26449 0
M  V30 4381 N 416.824 -0.551391 1.4764 0
M  V30 4382 C 418.101 -1.31229 1.45046 0
M  V30 4383 C 418.481 -2.10563 0.150527 0
M  V30 4384 O 417.829 -2.11374 -0.867956 0
M  V30 4385 C 418.039 -2.21189 2.69956 0
M  V30 4386 C 419.387 -2.82021 3.1741 0
M  V30 4387 O 420.411 -2.31488 2.70724 0
M  V30 4388 O 419.27 -3.73885 3.98588 0
M  V30 4389 H 416.364 -0.591193 0.578291 0
M  V30 4390 H 418.91 -0.569813 1.59847 0
M  V30 4391 H 417.682 -1.62207 3.56096 0
M  V30 4392 H 417.305 -3.02722 2.57769 0
M  V30 4393 N 418.302 -1.35869 -0.798587 0
M  V30 4394 C 419.718 -1.16082 -1.09532 0
M  V30 4395 C 419.918 0.0213124 -2.01489 0
M  V30 4396 O 418.974 0.689488 -2.42904 0
M  V30 4397 C 420.287 -2.46748 -1.7186 0
M  V30 4398 C 421.835 -2.53028 -1.84244 0
M  V30 4399 C 422.31 -3.83758 -2.49988 0
M  V30 4400 N 423.801 -3.85053 -2.57465 0
M  V30 4401 C 424.536 -4.8294 -3.09122 0
M  V30 4402 N 424.032 -5.91217 -3.61157 0
M  V30 4403 N 425.825 -4.70369 -3.0775 0
M  V30 4404 H 417.976 -2.11571 -0.187461 0
M  V30 4405 H 420.239 -0.936726 -0.145765 0
M  V30 4406 H 419.945 -3.33471 -1.11759 0
M  V30 4407 H 419.819 -2.61883 -2.71472 0
M  V30 4408 H 422.206 -1.66729 -2.43486 0
M  V30 4409 H 422.287 -2.418 -0.834643 0
M  V30 4410 H 421.931 -4.70459 -1.91393 0
M  V30 4411 H 421.861 -3.92278 -3.5132 0
M  V30 4412 H 424.352 -3.06822 -2.20609 0
M  V30 4413 H 424.665 -6.61892 -3.98896 0
M  V30 4414 H 423.01 -5.94899 -3.59333 0
M  V30 4415 H 426.201 -3.84914 -2.66381 0
M  V30 4416 H 426.374 -5.46816 -3.47701 0
M  V30 4417 N 419.78 1.02168 -1.19998 0
M  V30 4418 C 420.743 2.08765 -0.94604 0
M  V30 4419 C 421.743 1.60618 0.0763846 0
M  V30 4420 O 422.933 1.73472 -0.159135 0
M  V30 4421 C 420.065 3.38262 -0.423255 0
M  V30 4422 H 421.258 2.32726 -1.89153 0
M  V30 4423 H 418.811 1.1889 -1.01464 0
M  V30 4424 H 419.546 3.19974 0.527938 0
M  V30 4425 H 419.331 3.74532 -1.16053 0
M  V30 4426 H 420.821 4.16759 -0.264911 0
M  V30 4427 N 421.258 1.00505 1.21394 0
M  V30 4428 C 422.506 0.686415 1.90086 0
M  V30 4429 C 422.827 -0.785264 1.7849 0
M  V30 4430 O 422.097 -1.56387 1.17983 0
M  V30 4431 H 420.677 0.2509 0.703604 0
M  V30 4432 H 423.339 1.27417 1.47482 0
M  V30 4433 H 422.435 0.959621 2.96981 0
M  V30 4434 N 422.737 -1.36956 0.779787 0
M  V30 4435 C 423.687 -2.27539 0.144892 0
M  V30 4436 C 424.671 -1.46493 -0.665488 0
M  V30 4437 O 425.863 -1.68968 -0.527141 0
M  V30 4438 C 422.992 -3.35512 -0.727082 0
M  V30 4439 C 422.078 -4.24001 0.0915642 0
M  V30 4440 N 422.469 -4.92757 1.14125 0
M  V30 4441 C 420.767 -4.45807 -0.131141 0
M  V30 4442 C 421.468 -5.58138 1.6388 0
M  V30 4443 N 420.444 -5.35241 0.94962 0
M  V30 4444 H 424.246 -2.78176 0.948446 0
M  V30 4445 H 421.76 -1.50169 0.618315 0
M  V30 4446 H 423.757 -3.99324 -1.19776 0
M  V30 4447 H 422.417 -2.86431 -1.52929 0
M  V30 4448 H 423.428 -4.94984 1.52353 0
M  V30 4449 H 420.105 -4.07582 -0.904621 0
M  V30 4450 H 421.495 -6.23071 2.51461 0
M  V30 4451 N 424.215 -0.530993 -1.48385 0
M  V30 4452 C 425.492 0.0671788 -1.95485 0
M  V30 4453 C 425.872 1.51191 -1.47324 0
M  V30 4454 O 425.22 2.17507 -0.700202 0
M  V30 4455 C 425.43 -0.0511206 -3.48963 0
M  V30 4456 C 426.778 0.107632 -4.24464 0
M  V30 4457 O 427.802 0.0226248 -3.56193 0
M  V30 4458 O 426.661 0.285972 -5.45751 0
M  V30 4459 H 423.755 0.0787365 -0.823243 0
M  V30 4460 H 426.301 -0.595662 -1.58902 0
M  V30 4461 H 425.073 -1.05747 -3.7674 0
M  V30 4462 H 424.696 0.650525 -3.92242 0
M  V30 4463 N 425.693 1.55336 -0.266172 0
M  V30 4464 C 426.623 2.25146 0.618981 0
M  V30 4465 C 427.604 1.23845 1.16604 0
M  V30 4466 O 428.789 1.52544 1.20183 0
M  V30 4467 C 425.919 2.96572 1.80728 0
M  V30 4468 C 424.873 4.04726 1.39215 0
M  V30 4469 C 424.199 4.63678 2.66283 0
M  V30 4470 C 425.499 5.19407 0.548942 0
M  V30 4471 H 427.193 2.99377 0.0368116 0
M  V30 4472 H 424.739 1.43991 0.0162651 0
M  V30 4473 H 426.692 3.44116 2.43232 0
M  V30 4474 H 425.416 2.19861 2.41514 0
M  V30 4475 H 424.075 3.57979 0.790351 0
M  V30 4476 H 423.723 3.83646 3.25308 0
M  V30 4477 H 423.423 5.367 2.39222 0
M  V30 4478 H 424.947 5.13967 3.29651 0
M  V30 4479 H 426.361 5.63059 1.07876 0
M  V30 4480 H 424.758 5.98936 0.373593 0
M  V30 4481 H 425.828 4.8295 -0.434394 0
M  V30 4482 N 427.171 -0.0066808 1.57599 0
M  V30 4483 C 428.587 -0.36267 1.55425 0
M  V30 4484 C 428.787 -1.75209 0.995187 0
M  V30 4485 O 427.843 -2.44616 0.626058 0
M  V30 4486 C 429.156 -0.244017 2.99708 0
M  V30 4487 C 430.704 -0.319451 3.11366 0
M  V30 4488 C 431.179 -0.229998 4.57422 0
M  V30 4489 N 432.67 -0.288105 4.62303 0
M  V30 4490 C 433.405 -0.242127 5.72889 0
M  V30 4491 N 432.901 -0.147133 6.92644 0
M  V30 4492 N 434.694 -0.293502 5.61333 0
M  V30 4493 H 426.845 0.902314 1.92281 0
M  V30 4494 H 429.108 0.34525 0.882896 0
M  V30 4495 H 428.814 0.711678 3.44424 0
M  V30 4496 H 428.688 -1.02877 3.629 0
M  V30 4497 H 431.075 -1.26559 2.66584 0
M  V30 4498 H 431.156 0.495055 2.50964 0
M  V30 4499 H 430.8 0.712566 5.02877 0
M  V30 4500 H 430.73 -1.0629 5.15761 0
M  V30 4501 H 433.221 -0.363126 3.76151 0
M  V30 4502 H 433.534 -0.117763 7.7271 0
M  V30 4503 H 431.879 -0.112857 6.94908 0
M  V30 4504 H 435.07 -0.365864 4.66668 0
M  V30 4505 H 435.243 -0.254204 6.47501 0
M  V30 4506 N 428.649 -1.55105 -0.279332 0
M  V30 4507 C 429.879 -1.7917 -1.02867 0
M  V30 4508 C 430.287 -0.56204 -1.80659 0
M  V30 4509 O 429.63 0.478266 -1.77365 0
M  V30 4510 C 429.692 -2.96061 -2.03932 0
M  V30 4511 C 429.356 -4.33341 -1.45137 0
M  V30 4512 C 430.353 -5.12565 -0.870266 0
M  V30 4513 C 428.038 -4.79987 -1.48048 0
M  V30 4514 C 430.032 -6.36565 -0.326097 0
M  V30 4515 C 427.719 -6.03944 -0.932443 0
M  V30 4516 C 428.717 -6.8207 -0.356247 0
M  V30 4517 O 428.405 -8.03691 0.183412 0
M  V30 4518 H 428.137 -0.600796 -0.309872 0
M  V30 4519 H 430.691 -2.02932 -0.317468 0
M  V30 4520 H 428.921 -2.67975 -2.78794 0
M  V30 4521 H 430.61 -3.07506 -2.64943 0
M  V30 4522 H 431.376 -4.77661 -0.840521 0
M  V30 4523 H 427.255 -4.1919 -1.91835 0
M  V30 4524 H 430.799 -6.97489 0.124286 0
M  V30 4525 H 426.696 -6.3833 -0.959407 0
M  V30 4526 H 427.464 -8.18468 0.0721681 0
M  V30 4527 N 430.127 0.543554 -1.4793 0
M  V30 4528 C 431.09 1.63156 -1.60975 0
M  V30 4529 C 432.09 1.53346 -0.483899 0
M  V30 4530 O 433.28 1.5726 -0.749339 0
M  V30 4531 C 430.412 3.02743 -1.56716 0
M  V30 4532 H 431.605 1.52934 -2.57975 0
M  V30 4533 H 429.158 0.764557 -1.36324 0
M  V30 4534 H 429.893 3.18484 -0.611418 0
M  V30 4535 H 429.678 3.11272 -2.38438 0
M  V30 4536 H 431.168 3.81871 -1.6901 0
M  V30 4537 N 431.605 1.3629 0.791371 0
M  V30 4538 C 432.854 1.29742 1.54434 0
M  V30 4539 C 433.167 -0.121729 1.95221 0
M  V30 4540 O 434.373 -0.309579 2.69729 0
M  V30 4541 C 432.829 2.27623 2.78776 0
M  V30 4542 C 432.437 3.74963 2.45166 0
M  V30 4543 C 434.181 2.30047 3.56761 0
M  V30 4544 C 432.088 4.64626 3.65891 0
M  V30 4545 H 431.018 0.482113 0.579727 0
M  V30 4546 H 433.669 1.61642 0.868565 0
M  V30 4547 H 432.051 1.88714 3.48142 0
M  V30 4548 H 433.225 4.22596 1.83709 0
M  V30 4549 H 431.54 3.75295 1.80396 0
M  V30 4550 H 434.137 2.94247 4.46456 0
M  V30 4551 H 434.48 1.30846 3.95203 0
M  V30 4552 H 435.013 2.67563 2.94372 0
M  V30 4553 H 431.752 5.64883 3.32547 0
M  V30 4554 H 431.272 4.2171 4.26521 0
M  V30 4555 H 432.951 4.80801 4.32943 0
M  V30 4556 N 433.083 -1.0153 1.20538 0
M  V30 4557 C 434.36 -1.72327 0.925343 0
M  V30 4558 C 434.74 -2.03383 -0.565547 0
M  V30 4559 O 434.088 -1.69934 -1.52757 0
M  V30 4560 C 434.298 -2.9902 1.79967 0
M  V30 4561 C 435.646 -3.72258 2.04228 0
M  V30 4562 O 436.67 -3.08979 1.77231 0
M  V30 4563 O 435.529 -4.86053 2.4983 0
M  V30 4564 H 432.623 -0.751099 0.346092 0
M  V30 4565 H 435.169 -1.07366 1.31417 0
M  V30 4566 H 433.941 -2.72402 2.80915 0
M  V30 4567 H 433.564 -3.71721 1.41099 0
M  V30 4568 N 434.561 -1.01147 -1.20859 0
M  V30 4569 C 435.786 -0.716698 -1.94623 0
M  V30 4570 C 436.211 0.715415 -1.73964 0
M  V30 4571 O 435.569 1.49157 -1.03062 0
M  V30 4572 C 435.617 -1.0513 -3.44935 0
M  V30 4573 O 434.721 -0.160131 -4.12089 0
M  V30 4574 H 434.062 -0.266404 -0.608214 0
M  V30 4575 H 436.592 -1.35346 -1.53436 0
M  V30 4576 H 436.602 -1.00086 -3.95533 0
M  V30 4577 H 435.277 -2.09475 -3.59295 0
M  V30 4578 H 433.854 -0.267657 -3.71938 0
M  V30 4579 N 436.039 1.36541 -0.78704 0
M  V30 4580 C 437.267 2.03561 -0.370199 0
M  V30 4581 C 437.682 1.59347 1.01263 0
M  V30 4582 O 437.039 0.781781 1.64907 0
M  V30 4583 C 437.09 3.59033 -0.421614 0
M  V30 4584 O 436.811 4.01634 -1.7499 0
M  V30 4585 C 438.312 4.433 0.00489763 0
M  V30 4586 H 435.532 0.653346 -0.152904 0
M  V30 4587 H 438.076 1.74566 -1.06522 0
M  V30 4588 H 436.231 3.86746 0.224971 0
M  V30 4589 H 436.645 4.96217 -1.69909 0
M  V30 4590 H 438.119 5.51939 -0.0822184 0
M  V30 4591 H 438.596 4.26285 1.05723 0
M  V30 4592 H 439.202 4.20843 -0.614085 0
M  V30 4593 N 437.518 0.538854 1.48102 0
M  V30 4594 C 438.465 -0.219042 2.29758 0
M  V30 4595 C 439.435 -0.925562 1.37922 0
M  V30 4596 O 440.62 -0.924855 1.66886 0
M  V30 4597 C 437.76 -1.25452 3.2149 0
M  V30 4598 C 436.873 -0.555943 4.28408 0
M  V30 4599 C 436.008 -1.57512 5.0731 0
M  V30 4600 C 435.047 -0.860498 6.06021 0
M  V30 4601 N 434.184 -1.82564 6.77949 0
M  V30 4602 H 439.024 0.483449 2.94052 0
M  V30 4603 H 436.561 0.250247 1.44956 0
M  V30 4604 H 438.519 -1.86727 3.7308 0
M  V30 4605 H 437.149 -1.92528 2.591 0
M  V30 4606 H 436.201 0.170938 3.80016 0
M  V30 4607 H 437.513 0.00474616 4.988 0
M  V30 4608 H 436.667 -2.26191 5.62959 0
M  V30 4609 H 435.406 -2.16972 4.36778 0
M  V30 4610 H 434.411 -0.159686 5.49568 0
M  V30 4611 H 435.636 -0.271897 6.78555 0
M  V30 4612 H 433.582 -2.40915 6.10161 0
M  V30 4613 H 433.499 -1.31662 7.44447 0
M  V30 4614 H 434.767 -2.50414 7.38182 0
M  V30 4615 N 438.996 -1.55193 0.274407 0
M  V30 4616 C 439.926 -2.25471 -0.607032 0
M  V30 4617 C 440.907 -1.24461 -1.15946 0
M  V30 4618 O 442.092 -1.53179 -1.19373 0
M  V30 4619 C 439.222 -2.97526 -1.79153 0
M  V30 4620 C 438.176 -4.05459 -1.37067 0
M  V30 4621 C 437.502 -4.65084 -2.6382 0
M  V30 4622 C 438.802 -5.19691 -0.521389 0
M  V30 4623 H 440.496 -2.99393 -0.0209343 0
M  V30 4624 H 438.042 -1.43997 -0.00862866 0
M  V30 4625 H 439.995 -3.45402 -2.41404 0
M  V30 4626 H 438.719 -2.21138 -2.40344 0
M  V30 4627 H 437.378 -3.58393 -0.771355 0
M  V30 4628 H 437.026 -3.85365 -3.23268 0
M  V30 4629 H 436.726 -5.37961 -2.36372 0
M  V30 4630 H 438.25 -5.15708 -3.26921 0
M  V30 4631 H 439.664 -5.63623 -1.04889 0
M  V30 4632 H 438.061 -5.99126 -0.341825 0
M  V30 4633 H 439.131 -4.82713 0.46 0
M  V30 4634 N 440.474 -0.00167713 -1.576 0
M  V30 4635 C 441.89 0.354422 -1.55615 0
M  V30 4636 C 442.09 1.74679 -1.00447 0
M  V30 4637 O 441.146 2.4428 -0.639022 0
M  V30 4638 C 442.459 0.22812 -2.99833 0
M  V30 4639 C 444.007 0.302934 -3.11531 0
M  V30 4640 C 444.482 0.205737 -4.57538 0
M  V30 4641 N 445.973 0.263584 -4.62449 0
M  V30 4642 C 446.708 0.211742 -5.73009 0
M  V30 4643 N 446.204 0.110399 -6.92712 0
M  V30 4644 N 447.997 0.263729 -5.61481 0
M  V30 4645 H 440.148 -0.912498 -1.918 0
M  V30 4646 H 442.411 -0.349928 -0.881053 0
M  V30 4647 H 442.117 -0.729934 -3.44042 0
M  V30 4648 H 441.991 1.00951 -3.6344 0
M  V30 4649 H 444.378 1.25143 -2.67251 0
M  V30 4650 H 444.459 -0.508357 -2.50698 0
M  V30 4651 H 444.103 -0.739225 -5.02492 0
M  V30 4652 H 444.033 1.03554 -5.16318 0
M  V30 4653 H 446.524 0.343173 -3.76339 0
M  V30 4654 H 446.837 0.0767828 -7.72762 0
M  V30 4655 H 445.182 0.0760025 -6.94958 0
M  V30 4656 H 448.373 0.34111 -4.66855 0
M  V30 4657 H 448.546 0.219862 -6.47627 0
M  V30 4658 N 441.952 1.55251 0.271103 0
M  V30 4659 C 442.862 1.9136 1.35714 0
M  V30 4660 C 443.878 0.811075 1.5394 0
M  V30 4661 O 445.054 1.11031 1.6803 0
M  V30 4662 C 442.119 2.1798 2.69603 0
M  V30 4663 C 441.18 3.4153 2.60107 0
M  V30 4664 C 440.413 3.66871 3.8761 0
M  V30 4665 O 440.636 2.94689 4.8838 0
M  V30 4666 O 439.57 4.60405 3.87699 0
M  V30 4667 H 443.396 2.83815 1.08088 0
M  V30 4668 H 440.981 1.41821 0.469792 0
M  V30 4669 H 442.863 2.36518 3.48765 0
M  V30 4670 H 441.538 1.28708 2.97012 0
M  V30 4671 H 440.445 3.28325 1.79314 0
M  V30 4672 H 441.778 4.31027 2.37647 0
M  V30 4673 N 443.43 -0.535701 1.48216 0
M  V30 4674 C 444.34 -1.66785 1.64985 0
M  V30 4675 C 445.356 -1.65654 0.532414 0
M  V30 4676 O 446.532 -1.8471 0.80275 0
M  V30 4677 C 443.597 -3.0326 1.68031 0
M  V30 4678 C 442.658 -3.1529 2.9136 0
M  V30 4679 C 441.891 -4.45255 2.94252 0
M  V30 4680 O 442.114 -5.32011 2.05719 0
M  V30 4681 O 441.048 -4.6153 3.86359 0
M  V30 4682 H 444.874 -1.55576 2.60825 0
M  V30 4683 H 442.459 -0.70815 1.31551 0
M  V30 4684 H 444.341 -3.84436 1.72589 0
M  V30 4685 H 443.016 -3.14805 0.753628 0
M  V30 4686 H 441.923 -2.3343 2.92337 0
M  V30 4687 H 443.256 -3.08658 3.83394 0
M  V30 4688 N 444.908 -1.36708 -0.784132 0
M  V30 4689 C 445.838 -1.34153 -1.91116 0
M  V30 4690 C 446.819 -0.212121 -1.68772 0
M  V30 4691 O 448.004 -0.410581 -1.8981 0
M  V30 4692 C 445.134 -1.13535 -3.28218 0
M  V30 4693 C 444.088 -2.23356 -3.65097 0
M  V30 4694 C 443.414 -1.87875 -5.00607 0
M  V30 4695 C 444.714 -3.65473 -3.73131 0
M  V30 4696 H 446.408 -2.28459 -1.93512 0
M  V30 4697 H 443.954 -1.09973 -0.929618 0
M  V30 4698 H 445.907 -1.10381 -4.06687 0
M  V30 4699 H 444.631 -0.156804 -3.26223 0
M  V30 4700 H 443.29 -2.25645 -2.88929 0
M  V30 4701 H 442.938 -0.885814 -4.95139 0
M  V30 4702 H 442.638 -2.61406 -5.26252 0
M  V30 4703 H 444.162 -1.86286 -5.81489 0
M  V30 4704 H 445.576 -3.65382 -4.41779 0
M  V30 4705 H 443.973 -4.37953 -4.10265 0
M  V30 4706 H 445.043 -3.99995 -2.74102 0
M  V30 4707 N 446.386 1.0089 -1.21074 0
M  V30 4708 C 447.634 1.74262 -1.02358 0
M  V30 4709 C 447.955 1.89869 0.444393 0
M  V30 4710 O 447.225 1.44677 1.32081 0
M  V30 4711 H 445.805 0.645615 -0.375754 0
M  V30 4712 H 448.467 1.21596 -1.52317 0
M  V30 4713 H 447.563 2.74328 -1.4883 0
M  V30 4714 N 447.864 1.01787 1.20321 0
M  V30 4715 C 449.11 0.718699 1.90279 0
M  V30 4716 C 449.465 -0.743669 1.77447 0
M  V30 4717 O 448.758 -1.53345 1.14874 0
M  V30 4718 C 448.952 1.09076 3.40349 0
M  V30 4719 C 448.781 2.58775 3.67784 0
M  V30 4720 C 447.551 3.25578 3.86428 0
M  V30 4721 C 449.749 3.56966 3.70243 0
M  V30 4722 N 447.731 4.64495 4.01395 0
M  V30 4723 C 449.102 4.8145 3.90649 0
M  V30 4724 C 451.157 3.5092 3.53213 0
M  V30 4725 C 449.86 6.00619 3.95789 0
M  V30 4726 C 451.886 4.69493 3.59625 0
M  V30 4727 C 451.248 5.92786 3.80505 0
M  V30 4728 H 447.347 0.31468 0.715891 0
M  V30 4729 H 449.931 1.30295 1.44677 0
M  V30 4730 H 448.102 0.534839 3.847 0
M  V30 4731 H 449.834 0.744997 3.97784 0
M  V30 4732 H 446.589 2.76003 3.84862 0
M  V30 4733 H 447.013 5.36624 4.12752 0
M  V30 4734 H 451.655 2.56593 3.36035 0
M  V30 4735 H 449.373 6.95326 4.11762 0
M  V30 4736 H 452.959 4.66432 3.47754 0
M  V30 4737 H 451.839 6.83003 3.85327 0
M  V30 4738 N 449.342 -1.36122 0.79427 0
M  V30 4739 C 450.289 -2.29982 0.194101 0
M  V30 4740 C 451.259 -1.52214 -0.664833 0
M  V30 4741 O 452.444 -1.80702 -0.612498 0
M  V30 4742 C 449.584 -3.38706 -0.661244 0
M  V30 4743 C 448.697 -4.31456 0.216766 0
M  V30 4744 C 447.832 -5.27265 -0.645411 0
M  V30 4745 C 446.871 -6.11653 0.233756 0
M  V30 4746 N 446.008 -6.99636 -0.587682 0
M  V30 4747 H 450.848 -2.80722 0.999965 0
M  V30 4748 H 448.385 -1.38172 0.504677 0
M  V30 4749 H 450.343 -4.00394 -1.17219 0
M  V30 4750 H 448.973 -2.89274 -1.43249 0
M  V30 4751 H 448.025 -3.7088 0.845724 0
M  V30 4752 H 449.337 -4.90724 0.893973 0
M  V30 4753 H 448.491 -5.94266 -1.22198 0
M  V30 4754 H 447.23 -4.68463 -1.35623 0
M  V30 4755 H 446.235 -5.4361 0.82269 0
M  V30 4756 H 447.46 -6.72531 0.942247 0
M  V30 4757 H 445.406 -6.43337 -1.2827 0
M  V30 4758 H 445.323 -7.55993 0.0317402 0
M  V30 4759 H 446.591 -7.71001 -1.14792 0
M  V30 4760 N 450.82 -0.546701 -1.47814 0
M  V30 4761 C 452.231 -0.110564 -1.86372 0
M  V30 4762 C 452.582 1.31678 -1.45449 0
M  V30 4763 O 451.707 1.98889 -0.852758 0
M  V30 4764 C 452.302 -0.193873 -3.38245 0
M  V30 4765 C 450.861 0.187164 -3.75934 0
M  V30 4766 C 450.008 -0.546166 -2.71868 0
M  V30 4767 H 452.959 -0.757022 -1.39481 0
M  V30 4768 H 452.98 0.590218 -3.75895 0
M  V30 4769 H 452.492 -1.23282 -3.67999 0
M  V30 4770 H 450.593 1.22762 -3.51796 0
M  V30 4771 H 450.706 -0.164083 -4.78819 0
M  V30 4772 H 449.07 0.00953904 -2.54698 0
M  V30 4773 H 449.853 -1.58606 -3.04465 0
M  V30 4774 N 452.299 1.55045 -0.282633 0
M  V30 4775 C 453.231 2.2023 0.634924 0
M  V30 4776 C 454.244 1.18931 1.11172 0
M  V30 4777 O 455.433 1.4562 1.03233 0
M  V30 4778 C 452.533 2.82041 1.87899 0
M  V30 4779 C 451.706 4.091 1.54776 0
M  V30 4780 C 450.765 4.54887 2.64507 0
M  V30 4781 O 449.791 5.20496 2.30375 0
M  V30 4782 N 450.993 4.25659 3.94709 0
M  V30 4783 H 453.758 2.99601 0.0769811 0
M  V30 4784 H 451.319 1.61565 -0.104048 0
M  V30 4785 H 453.311 3.09613 2.60619 0
M  V30 4786 H 451.881 2.06618 2.3458 0
M  V30 4787 H 451.101 3.88736 0.654049 0
M  V30 4788 H 452.389 4.9187 1.30158 0
M  V30 4789 H 451.787 3.7306 4.25256 0
M  V30 4790 H 450.344 4.57984 4.63782 0
M  V30 4791 N 453.777 0.010035 1.57597 0
M  V30 4792 C 455.024 -0.6727 1.91 0
M  V30 4793 C 455.352 -1.73219 0.884614 0
M  V30 4794 O 454.607 -1.95395 -0.109215 0
M  V30 4795 C 454.906 -1.34434 3.31153 0
M  V30 4796 C 454.572 -0.417083 4.48967 0
M  V30 4797 C 453.234 -0.161809 4.80928 0
M  V30 4798 C 455.586 0.220753 5.20732 0
M  V30 4799 C 452.914 0.739426 5.82022 0
M  V30 4800 C 455.266 1.10993 6.22787 0
M  V30 4801 C 453.93 1.37428 6.532 0
M  V30 4802 H 453.2 -0.246158 0.698918 0
M  V30 4803 H 455.847 0.0677145 1.9138 0
M  V30 4804 H 454.152 -2.15905 3.26944 0
M  V30 4805 H 455.849 -1.87883 3.54261 0
M  V30 4806 H 452.439 -0.626217 4.24001 0
M  V30 4807 H 456.623 0.0365643 4.96287 0
M  V30 4808 H 451.879 0.952139 6.03941 0
M  V30 4809 H 456.053 1.61046 6.77523 0
M  V30 4810 H 453.68 2.0743 7.31353 0
M  V30 4811 N 455.255 -1.55392 -0.262866 0
M  V30 4812 C 456.483 -1.80513 -1.01108 0
M  V30 4813 C 456.898 -0.583533 -1.79556 0
M  V30 4814 O 456.255 0.447585 -1.76926 0
M  V30 4815 C 456.306 -3.03648 -1.96164 0
M  V30 4816 O 456.027 -4.2109 -1.20893 0
M  V30 4817 C 457.528 -3.41448 -2.82715 0
M  V30 4818 H 454.748 -0.601079 -0.298236 0
M  V30 4819 H 457.292 -2.02425 -0.290582 0
M  V30 4820 H 455.447 -2.83832 -2.63663 0
M  V30 4821 H 455.861 -4.90771 -1.85051 0
M  V30 4822 H 457.335 -4.30751 -3.45192 0
M  V30 4823 H 457.812 -2.61308 -3.53008 0
M  V30 4824 H 458.418 -3.63559 -2.20693 0
M  V30 4825 N 456.733 0.527833 -1.48498 0
M  V30 4826 C 457.681 1.65313 -1.63628 0
M  V30 4827 C 458.675 1.6177 -0.502676 0
M  V30 4828 O 459.881 1.66601 -0.681469 0
M  V30 4829 H 456.256 0.547518 -0.515488 0
M  V30 4830 H 458.227 1.49696 -2.58135 0
M  V30 4831 C 456.976 3.03576 -1.6952 0
M  V30 4832 H 456.299 3.06997 -2.56111 0
M  V30 4833 H 457.739 3.81923 -1.84149 0
M  V30 4834 C 456.198 3.34089 -0.43432 0
M  V30 4835 O 456.728 3.99151 0.451852 0
M  V30 4836 N 454.934 2.88991 -0.305368 0
M  V30 4837 H 454.481 2.36222 -1.02747 0
M  V30 4838 H 454.439 3.09776 0.537249 0
M  V30 4839 N 458.211 1.37122 0.776871 0
M  V30 4840 C 459.458 1.32047 1.53524 0
M  V30 4841 C 459.786 -0.0965631 1.9426 0
M  V30 4842 O 459.041 -1.06866 1.63945 0
M  V30 4843 C 459.34 2.20068 2.81611 0
M  V30 4844 C 459.006 3.68423 2.59953 0
M  V30 4845 C 457.668 4.08854 2.53755 0
M  V30 4846 C 460.02 4.62431 2.40431 0
M  V30 4847 C 457.348 5.41417 2.26018 0
M  V30 4848 C 459.7 5.95225 2.14219 0
M  V30 4849 C 458.364 6.34767 2.06462 0
M  V30 4850 H 457.634 0.483196 0.561785 0
M  V30 4851 H 460.281 1.69284 0.895268 0
M  V30 4852 H 458.586 1.75809 3.50141 0
M  V30 4853 H 460.283 2.13458 3.39465 0
M  V30 4854 H 456.873 3.36354 2.65638 0
M  V30 4855 H 461.057 4.32057 2.44213 0
M  V30 4856 H 456.313 5.71022 2.18504 0
M  V30 4857 H 460.487 6.67626 1.98112 0
M  V30 4858 H 458.114 7.37413 1.84733 0
M  V30 4859 N 459.689 -1.00246 1.21608 0
M  V30 4860 C 460.599 -2.12515 0.993709 0
M  V30 4861 C 461.615 -1.73913 -0.0549939 0
M  V30 4862 O 462.791 -2.00943 0.135619 0
M  V30 4863 C 459.856 -3.42083 0.563953 0
M  V30 4864 C 458.917 -3.94843 1.68516 0
M  V30 4865 C 458.15 -5.18226 1.27582 0
M  V30 4866 O 458.373 -5.70201 0.150506 0
M  V30 4867 O 457.307 -5.64497 2.0887 0
M  V30 4868 H 461.133 -2.34152 1.93407 0
M  V30 4869 H 458.718 -1.10891 1.00118 0
M  V30 4870 H 460.6 -4.20073 0.334194 0
M  V30 4871 H 459.275 -3.21828 -0.347665 0
M  V30 4872 H 458.182 -3.18068 1.96935 0
M  V30 4873 H 459.515 -4.19512 2.5743 0
M  V30 4874 N 461.167 -1.02423 -1.1978 0
M  V30 4875 C 462.077 -0.610919 -2.26506 0
M  V30 4876 C 463.093 0.355152 -1.70337 0
M  V30 4877 O 464.269 0.214195 -2.00258 0
M  V30 4878 C 461.334 0.0365921 -3.46681 0
M  V30 4879 C 460.395 -0.976389 -4.18049 0
M  V30 4880 C 459.628 -0.359683 -5.32487 0
M  V30 4881 O 459.851 0.838601 -5.64202 0
M  V30 4882 O 458.785 -1.08022 -5.92127 0
M  V30 4883 H 462.611 -1.49965 -2.64091 0
M  V30 4884 H 460.196 -0.794156 -1.26545 0
M  V30 4885 H 462.078 0.39786 -4.19518 0
M  V30 4886 H 460.753 0.899398 -3.10954 0
M  V30 4887 H 459.66 -1.38916 -3.47352 0
M  V30 4888 H 460.993 -1.80941 -4.57735 0
M  V30 4889 N 462.645 1.35699 -0.801477 0
M  V30 4890 C 463.893 1.9852 -0.37871 0
M  V30 4891 C 464.214 1.63907 1.05638 0
M  V30 4892 O 463.484 0.919013 1.73006 0
M  V30 4893 H 462.064 0.734322 -0.137042 0
M  V30 4894 H 464.726 1.65697 -1.02619 0
M  V30 4895 H 463.822 3.08382 -0.480284 0
M  V30 4896 N 464.123 0.554532 1.47522 0
M  V30 4897 C 465.053 -0.182974 2.32782 0
M  V30 4898 C 466.034 -0.911377 1.43624 0
M  V30 4899 O 467.219 -0.892366 1.72483 0
M  V30 4900 C 464.349 -1.21513 3.25349 0
M  V30 4901 C 463.303 -0.603355 4.23726 0
M  V30 4902 C 462.629 -1.73995 5.05598 0
M  V30 4903 C 463.929 0.441121 5.20434 0
M  V30 4904 H 465.623 0.52882 2.94693 0
M  V30 4905 H 463.169 0.255759 1.41711 0
M  V30 4906 H 465.122 -1.73922 3.83835 0
M  V30 4907 H 463.846 -1.95683 2.61487 0
M  V30 4908 H 462.505 -0.10059 3.66462 0
M  V30 4909 H 462.153 -2.47063 4.38143 0
M  V30 4910 H 461.853 -1.3364 5.72201 0
M  V30 4911 H 463.377 -2.26735 5.66942 0
M  V30 4912 H 464.791 0.00319931 5.733 0
M  V30 4913 H 463.188 0.763402 5.95224 0
M  V30 4914 H 464.258 1.33799 4.66075 0
M  V30 4915 N 465.601 -1.54893 0.290851 0
M  V30 4916 C 466.511 -2.26812 -0.59945 0
M  V30 4917 C 467.527 -1.29963 -1.15696 0
M  V30 4918 O 468.703 -1.62928 -1.18391 0
M  V30 4919 C 465.768 -2.98716 -1.75982 0
M  V30 4920 C 464.829 -4.1108 -1.2374 0
M  V30 4921 C 464.062 -4.79546 -2.34246 0
M  V30 4922 O 464.285 -4.47309 -3.53936 0
M  V30 4923 O 463.219 -5.67165 -2.01512 0
M  V30 4924 H 467.045 -3.03696 -0.0163561 0
M  V30 4925 H 464.63 -1.49289 0.0576755 0
M  V30 4926 H 466.512 -3.43851 -2.43607 0
M  V30 4927 H 465.187 -2.24737 -2.3297 0
M  V30 4928 H 464.094 -3.70367 -0.527163 0
M  V30 4929 H 465.427 -4.87007 -0.71307 0
M  V30 4930 N 467.08 -0.0183926 -1.57589 0
M  V30 4931 C 468.357 0.700621 -1.82622 0
M  V30 4932 C 468.737 1.90951 -0.90005 0
M  V30 4933 O 468.085 2.28452 0.0469145 0
M  V30 4934 C 468.295 1.08899 -3.31575 0
M  V30 4935 C 469.643 1.48514 -3.9778 0
M  V30 4936 O 470.667 1.18227 -3.36007 0
M  V30 4937 O 469.526 2.04903 -5.06633 0
M  V30 4938 H 466.62 0.342743 -0.752633 0
M  V30 4939 H 469.166 -0.0452548 -1.6964 0
M  V30 4940 H 467.938 0.228113 -3.90635 0
M  V30 4941 H 467.561 1.89338 -3.49624 0
M  V30 4942 N 468.558 1.5553 0.254621 0
M  V30 4943 C 469.786 1.81046 1.00149 0
M  V30 4944 C 470.201 0.593047 1.79244 0
M  V30 4945 O 469.558 -0.438196 1.77161 0
M  V30 4946 C 469.609 3.04684 1.94551 0
M  V30 4947 O 469.33 4.21725 1.18658 0
M  V30 4948 C 470.831 3.42943 2.80901 0
M  V30 4949 H 468.051 0.602653 0.295044 0
M  V30 4950 H 470.595 2.02576 0.279842 0
M  V30 4951 H 468.75 2.85226 2.62154 0
M  V30 4952 H 469.164 4.91746 1.82445 0
M  V30 4953 H 470.638 4.32576 3.42902 0
M  V30 4954 H 471.115 2.63176 3.51617 0
M  V30 4955 H 471.721 3.64724 2.18762 0
M  V30 4956 N 470.036 -0.519951 1.48776 0
M  V30 4957 C 471.285 -1.27175 1.56555 0
M  V30 4958 C 471.598 -1.9401 0.248869 0
M  V30 4959 O 472.804 -2.70725 0.205004 0
M  V30 4960 C 471.26 -2.30811 2.76142 0
M  V30 4961 C 470.868 -1.7 4.14493 0
M  V30 4962 C 472.612 -3.06937 2.9324 0
M  V30 4963 C 470.519 -2.71635 5.25327 0
M  V30 4964 H 469.449 -0.478329 0.582853 0
M  V30 4965 H 472.1 -0.547916 1.75129 0
M  V30 4966 H 470.482 -3.06274 2.51023 0
M  V30 4967 H 471.656 -1.00658 4.49672 0
M  V30 4968 H 469.971 -1.06331 4.02595 0
M  V30 4969 H 472.568 -3.82905 3.73213 0
M  V30 4970 H 472.911 -3.63409 2.03075 0
M  V30 4971 H 473.444 -2.38589 3.18308 0
M  V30 4972 H 470.183 -2.1997 6.1749 0
M  V30 4973 H 469.703 -3.39275 4.94624 0
M  V30 4974 H 471.382 -3.34429 5.53865 0
M  V30 4975 N 471.514 -1.37532 -0.769588 0
M  V30 4976 C 472.461 -1.3347 -1.88293 0
M  V30 4977 C 473.431 -0.199891 -1.64893 0
M  V30 4978 O 474.616 -0.389594 -1.8678 0
M  V30 4979 C 471.756 -1.14968 -3.25387 0
M  V30 4980 C 470.869 -2.37698 -3.60727 0
M  V30 4981 C 470.004 -2.12051 -4.8704 0
M  V30 4982 C 469.043 -3.30636 -5.15117 0
M  V30 4983 N 468.18 -3.04527 -6.3262 0
M  V30 4984 H 473.02 -2.28658 -1.911 0
M  V30 4985 H 470.557 -1.13622 -0.934257 0
M  V30 4986 H 472.515 -1.02261 -4.04473 0
M  V30 4987 H 471.145 -0.234263 -3.21949 0
M  V30 4988 H 470.197 -2.61137 -2.76608 0
M  V30 4989 H 471.509 -3.26131 -3.77413 0
M  V30 4990 H 470.663 -1.96388 -5.74035 0
M  V30 4991 H 469.402 -1.20959 -4.72462 0
M  V30 4992 H 468.407 -3.46836 -4.26597 0
M  V30 4993 H 469.632 -4.22582 -5.31603 0
M  V30 4994 H 467.578 -2.16067 -6.19396 0
M  V30 4995 H 467.495 -3.86503 -6.49732 0
M  V30 4996 H 468.763 -2.92485 -7.22546 0
M  V30 4997 N 472.992 0.995999 -1.22138 0
M  V30 4998 C 474.238 1.7386 -1.05567 0
M  V30 4999 C 474.593 1.8808 0.405418 0
M  V30 5000 O 473.886 1.41062 1.29661 0
M  V30 5001 C 474.08 3.14553 -1.6968 0
M  V30 5002 C 473.909 3.14053 -3.21871 0
M  V30 5003 C 472.679 3.20121 -3.90961 0
M  V30 5004 C 474.877 2.98451 -4.18845 0
M  V30 5005 N 472.859 3.09342 -5.30265 0
M  V30 5006 C 474.23 2.95667 -5.4496 0
M  V30 5007 C 476.285 2.8282 -4.09777 0
M  V30 5008 C 474.988 2.78852 -6.63049 0
M  V30 5009 C 477.014 2.67364 -5.27513 0
M  V30 5010 C 476.376 2.65264 -6.52544 0
M  V30 5011 H 472.475 0.645989 -0.440706 0
M  V30 5012 H 475.059 1.1831 -1.54631 0
M  V30 5013 H 473.23 3.68353 -1.2317 0
M  V30 5014 H 474.962 3.77358 -1.4623 0
M  V30 5015 H 471.717 3.27679 -3.4194 0
M  V30 5016 H 472.141 3.0727 -6.03253 0
M  V30 5017 H 476.783 2.83243 -3.139 0
M  V30 5018 H 474.501 2.77175 -7.59078 0
M  V30 5019 H 478.087 2.56256 -5.22326 0
M  V30 5020 H 476.967 2.5345 -7.42114 0
M  V30 5021 N 474.47 1.03057 1.19235 0
M  V30 5022 C 475.7 0.746613 1.92638 0
M  V30 5023 C 476.108 -0.698708 1.75826 0
M  V30 5024 O 475.451 -1.487 1.07861 0
M  V30 5025 C 475.513 1.02024 3.44719 0
M  V30 5026 C 475.177 2.45745 3.85303 0
M  V30 5027 C 476.174 3.43887 3.8992 0
M  V30 5028 C 473.859 2.8019 4.16892 0
M  V30 5029 C 475.853 4.74529 4.2556 0
M  V30 5030 C 473.54 4.1104 4.52205 0
M  V30 5031 C 474.538 5.0802 4.56513 0
M  V30 5032 O 474.226 6.36527 4.91008 0
M  V30 5033 H 473.958 0.272401 0.618687 0
M  V30 5034 H 476.512 1.37853 1.52269 0
M  V30 5035 H 474.742 0.331184 3.85279 0
M  V30 5036 H 476.431 0.725677 3.9936 0
M  V30 5037 H 477.197 3.18614 3.65664 0
M  V30 5038 H 473.076 2.05382 4.12722 0
M  V30 5039 H 476.62 5.50222 4.28838 0
M  V30 5040 H 472.517 4.36086 4.7592 0
M  V30 5041 H 473.285 6.41025 5.08949 0
M  V30 5042 N 475.948 -1.35272 0.808662 0
M  V30 5043 C 477.176 -2.02946 0.402537 0
M  V30 5044 C 477.591 -1.60937 -0.987147 0
M  V30 5045 O 476.948 -0.807917 -1.63643 0
M  V30 5046 C 476.999 -3.58317 0.47868 0
M  V30 5047 O 476.72 -3.98799 1.81358 0
M  V30 5048 C 478.221 -4.43251 0.0656281 0
M  V30 5049 H 475.441 -0.650831 0.163279 0
M  V30 5050 H 477.985 -1.72849 1.09286 0
M  V30 5051 H 476.14 -3.87055 -0.163415 0
M  V30 5052 H 476.554 -4.93451 1.77781 0
M  V30 5053 H 478.028 -5.51738 0.170017 0
M  V30 5054 H 478.505 -4.27913 -0.989278 0
M  V30 5055 H 479.111 -4.19813 0.68096 0
M  V30 5056 N 477.426 -0.562348 -1.47226 0
M  V30 5057 C 478.336 0.185466 -2.33866 0
M  V30 5058 C 479.352 0.906713 -1.48508 0
M  V30 5059 O 480.528 0.874458 -1.81425 0
M  V30 5060 C 477.593 1.19904 -3.25306 0
M  V30 5061 C 476.654 0.484669 -4.26555 0
M  V30 5062 C 475.887 1.44996 -5.13626 0
M  V30 5063 O 476.11 2.68515 -5.03245 0
M  V30 5064 O 475.044 0.971642 -5.94006 0
M  V30 5065 H 478.87 -0.525361 -2.99121 0
M  V30 5066 H 476.455 -0.322916 -1.45868 0
M  V30 5067 H 478.337 1.78399 -3.81774 0
M  V30 5068 H 477.012 1.8917 -2.62672 0
M  V30 5069 H 475.919 -0.141605 -3.73832 0
M  V30 5070 H 477.252 -0.166634 -4.91918 0
M  V30 5071 N 478.904 1.54736 -0.299062 0
M  V30 5072 C 479.854 2.20155 0.592932 0
M  V30 5073 C 480.838 1.1739 1.10038 0
M  V30 5074 O 482.03 1.43116 1.04147 0
M  V30 5075 C 479.159 2.94437 1.76527 0
M  V30 5076 C 478.245 4.04516 1.27388 0
M  V30 5077 N 478.636 5.03319 0.500339 0
M  V30 5078 C 476.934 4.18022 1.55478 0
M  V30 5079 C 477.635 5.81209 0.238909 0
M  V30 5080 N 476.611 5.37408 0.818163 0
M  V30 5081 H 480.413 2.93899 -0.00563596 0
M  V30 5082 H 477.927 1.62068 -0.103732 0
M  V30 5083 H 479.924 3.3977 2.41582 0
M  V30 5084 H 478.584 2.22209 2.36756 0
M  V30 5085 H 479.595 5.17696 0.145419 0
M  V30 5086 H 476.272 3.56998 2.16469 0
M  V30 5087 H 477.662 6.70812 -0.382223 0
M  V30 5088 N 480.382 0.0267497 1.57577 0
M  V30 5089 C 481.292 -0.971633 2.13533 0
M  V30 5090 C 482.308 -1.35868 1.08701 0
M  V30 5091 O 483.484 -1.44058 1.40746 0
M  V30 5092 C 480.549 -2.23622 2.64941 0
M  V30 5093 C 479.61 -1.90982 3.8448 0
M  V30 5094 C 478.843 -3.11411 4.33427 0
M  V30 5095 O 479.066 -4.23992 3.81558 0
M  V30 5096 O 478 -2.93848 5.25297 0
M  V30 5097 H 481.826 -0.525853 2.99113 0
M  V30 5098 H 479.411 -0.193712 1.48139 0
M  V30 5099 H 481.293 -2.97864 2.98086 0
M  V30 5100 H 479.968 -2.67386 1.82446 0
M  V30 5101 H 478.875 -1.14132 3.56265 0
M  V30 5102 H 480.208 -1.52036 4.6813 0
M  V30 5103 N 481.861 -1.55662 -0.24637 0
M  V30 5104 C 483.138 -1.68272 -0.997198 0
M  V30 5105 C 483.518 -0.566785 -2.03349 0
M  V30 5106 O 482.866 0.429688 -2.24424 0
M  V30 5107 C 483.076 -3.08594 -1.63006 0
M  V30 5108 C 484.424 -3.6721 -2.13171 0
M  V30 5109 O 485.448 -3.11397 -1.72946 0
M  V30 5110 O 484.307 -4.65054 -2.87031 0
M  V30 5111 H 481.401 -0.684429 -0.464205 0
M  V30 5112 H 483.947 -1.67993 -0.240114 0
M  V30 5113 H 482.719 -3.81264 -0.880527 0
M  V30 5114 H 482.342 -3.12886 -2.45333 0
M  V30 5115 N 483.339 0.512053 -1.4905 0
M  V30 5116 C 484.585 1.26613 -1.59187 0
M  V30 5117 C 484.94 1.90494 -0.270163 0
M  V30 5118 O 484.233 1.77204 0.728648 0
M  V30 5119 C 484.427 2.36446 -2.68008 0
M  V30 5120 C 484.256 1.83334 -4.10632 0
M  V30 5121 C 483.026 1.65131 -4.77556 0
M  V30 5122 C 485.224 1.35153 -4.96224 0
M  V30 5123 N 483.206 1.06833 -6.04533 0
M  V30 5124 C 484.577 0.889186 -6.13591 0
M  V30 5125 C 486.632 1.23623 -4.82309 0
M  V30 5126 C 485.335 0.322953 -7.18575 0
M  V30 5127 C 487.361 0.683978 -5.87431 0
M  V30 5128 C 486.723 0.2318 -7.04018 0
M  V30 5129 H 482.822 0.453678 -0.636946 0
M  V30 5130 H 485.406 0.575217 -1.86009 0
M  V30 5131 H 483.577 3.03012 -2.42978 0
M  V30 5132 H 485.309 3.03485 -2.67729 0
M  V30 5133 H 482.064 1.89178 -4.34176 0
M  V30 5134 H 482.488 0.796425 -6.72299 0
M  V30 5135 H 487.13 1.57184 -3.92496 0
M  V30 5136 H 484.848 -0.024943 -8.08096 0
M  V30 5137 H 488.434 0.597694 -5.78722 0
M  V30 5138 H 487.314 -0.188869 -7.83973 0
M  V30 5139 N 484.817 1.37938 0.762283 0
M  V30 5140 C 486.063 1.34873 1.52253 0
M  V30 5141 C 486.418 -0.0635972 1.92295 0
M  V30 5142 O 485.711 -1.02434 1.61919 0
M  V30 5143 C 485.905 2.23042 2.79261 0
M  V30 5144 C 485.734 3.72706 2.51635 0
M  V30 5145 C 484.504 4.41771 2.45289 0
M  V30 5146 C 486.702 4.65345 2.18994 0
M  V30 5147 N 484.684 5.76921 2.09846 0
M  V30 5148 C 486.055 5.88943 1.9377 0
M  V30 5149 C 488.11 4.53636 2.0523 0
M  V30 5150 C 486.813 7.02142 1.5617 0
M  V30 5151 C 488.839 5.6673 1.69031 0
M  V30 5152 C 488.201 6.89383 1.44673 0
M  V30 5153 H 484.3 0.548818 0.557067 0
M  V30 5154 H 486.884 1.73247 0.888458 0
M  V30 5155 H 485.055 1.8687 3.40491 0
M  V30 5156 H 486.787 2.11165 3.45241 0
M  V30 5157 H 483.542 3.94883 2.61465 0
M  V30 5158 H 483.966 6.4837 1.94794 0
M  V30 5159 H 488.608 3.5937 2.2274 0
M  V30 5160 H 486.326 7.96334 1.37399 0
M  V30 5161 H 489.912 5.59645 1.59026 0
M  V30 5162 H 488.792 7.75411 1.17079 0
M  V30 5163 N 486.295 -0.989507 1.22664 0
M  V30 5164 C 487.242 -2.08024 0.999733 0
M  V30 5165 C 488.212 -1.65909 -0.0797047 0
M  V30 5166 O 489.397 -1.90669 0.0705715 0
M  V30 5167 C 486.537 -3.40067 0.587234 0
M  V30 5168 C 485.65 -3.95505 1.73781 0
M  V30 5169 C 484.785 -5.15722 1.27297 0
M  V30 5170 C 483.824 -5.63305 2.39488 0
M  V30 5171 N 482.961 -6.74758 1.94026 0
M  V30 5172 H 487.801 -2.26768 1.9334 0
M  V30 5173 H 485.338 -1.11171 0.963297 0
M  V30 5174 H 487.296 -4.15899 0.329227 0
M  V30 5175 H 485.926 -3.21314 -0.309426 0
M  V30 5176 H 484.978 -3.16513 2.11006 0
M  V30 5177 H 486.29 -4.26797 2.58158 0
M  V30 5178 H 485.444 -5.98854 0.972546 0
M  V30 5179 H 484.183 -4.86061 0.399445 0
M  V30 5180 H 483.188 -4.78759 2.70315 0
M  V30 5181 H 484.413 -5.94988 3.27362 0
M  V30 5182 H 482.359 -6.46874 1.09041 0
M  V30 5183 H 482.276 -7.05386 2.71968 0
M  V30 5184 H 483.544 -7.61387 1.67062 0
M  V30 5185 N 487.773 -1.03688 -1.18687 0
M  V30 5186 C 488.736 -0.629115 -2.20397 0
M  V30 5187 C 489.736 0.311495 -1.57754 0
M  V30 5188 O 490.926 0.0974107 -1.73927 0
M  V30 5189 C 488.058 0.0782231 -3.4081 0
M  V30 5190 H 489.251 -1.52915 -2.57987 0
M  V30 5191 H 486.804 -0.828988 -1.32505 0
M  V30 5192 H 487.539 0.992233 -3.08748 0
M  V30 5193 H 487.324 -0.597776 -3.87517 0
M  V30 5194 H 488.814 0.350156 -4.16129 0
M  V30 5195 N 489.251 1.34841 -0.815825 0
M  V30 5196 C 490.161 2.33425 -0.234462 0
M  V30 5197 C 491.177 1.62295 0.627413 0
M  V30 5198 O 492.353 1.94109 0.536987 0
M  V30 5199 C 489.418 3.41471 0.599849 0
M  V30 5200 C 488.479 4.28362 -0.283596 0
M  V30 5201 C 487.712 5.31248 0.51099 0
M  V30 5202 O 487.935 5.43056 1.7449 0
M  V30 5203 O 486.869 6.01812 -0.10297 0
M  V30 5204 H 490.695 2.84962 -1.05024 0
M  V30 5205 H 488.28 1.37774 -0.577809 0
M  V30 5206 H 490.162 4.07464 1.07475 0
M  V30 5207 H 488.837 2.9219 1.39308 0
M  V30 5208 H 487.744 3.65318 -0.805836 0
M  V30 5209 H 489.077 4.81066 -1.041 0
M  V30 5210 N 490.729 0.570148 1.46925 0
M  V30 5211 C 491.676 -0.170257 2.30171 0
M  V30 5212 C 492.646 -0.896099 1.39855 0
M  V30 5213 O 493.831 -0.889248 1.68811 0
M  V30 5214 C 490.971 -1.18605 3.24079 0
M  V30 5215 C 490.084 -0.464947 4.29491 0
M  V30 5216 C 489.219 -1.46716 5.10537 0
M  V30 5217 C 488.258 -0.731758 6.0771 0
M  V30 5218 N 487.395 -1.68142 6.81669 0
M  V30 5219 H 492.235 0.545713 2.92961 0
M  V30 5220 H 489.772 0.280938 1.44392 0
M  V30 5221 H 491.73 -1.78771 3.76957 0
M  V30 5222 H 490.36 -1.86989 2.63125 0
M  V30 5223 H 489.412 0.251506 3.79568 0
M  V30 5224 H 490.724 0.110548 4.98677 0
M  V30 5225 H 489.878 -2.14199 5.6763 0
M  V30 5226 H 488.617 -2.07658 4.41282 0
M  V30 5227 H 487.622 -0.0430787 5.49783 0
M  V30 5228 H 488.847 -0.127904 6.7898 0
M  V30 5229 H 486.793 -2.27918 6.15134 0
M  V30 5230 H 486.71 -1.15841 7.47072 0
M  V30 5231 H 487.978 -2.347 7.43328 0
M  V30 5232 N 492.207 -1.54576 0.307264 0
M  V30 5233 C 493.117 -2.27435 -0.57536 0
M  V30 5234 C 494.133 -1.31183 -1.14311 0
M  V30 5235 O 495.309 -1.64175 -1.16656 0
M  V30 5236 C 492.374 -3.00566 -1.72803 0
M  V30 5237 C 491.435 -4.12369 -1.19373 0
M  V30 5238 C 490.668 -4.82003 -2.29147 0
M  V30 5239 O 490.891 -4.51038 -3.49171 0
M  V30 5240 O 489.825 -5.69271 -1.95485 0
M  V30 5241 H 493.651 -3.03696 0.0158558 0
M  V30 5242 H 491.236 -1.49219 0.0735064 0
M  V30 5243 H 493.118 -3.46416 -2.39946 0
M  V30 5244 H 491.793 -2.27195 -2.30574 0
M  V30 5245 H 490.7 -3.70905 -0.487851 0
M  V30 5246 H 492.033 -4.87736 -0.661376 0
M  V30 5247 N 493.685 -0.035106 -1.57561 0
M  V30 5248 C 494.648 0.929819 -2.09492 0
M  V30 5249 C 495.648 1.25026 -1.01119 0
M  V30 5250 O 496.838 1.18961 -1.27255 0
M  V30 5251 C 493.97 2.24457 -2.56577 0
M  V30 5252 H 495.163 0.479935 -2.96035 0
M  V30 5253 H 492.716 0.213033 -1.54841 0
M  V30 5254 H 493.451 2.74061 -1.73382 0
M  V30 5255 H 493.236 2.02508 -3.35757 0
M  V30 5256 H 494.726 2.93607 -2.96959 0
M  V30 5257 N 495.163 1.55791 0.238111 0
M  V30 5258 C 496.409 1.78297 0.966337 0
M  V30 5259 C 496.742 0.601903 1.84637 0
M  V30 5260 O 496.017 -0.399499 1.90353 0
M  V30 5261 C 496.3 3.10758 1.81939 0
M  V30 5262 C 496.153 4.39283 0.966958 0
M  V30 5263 C 497.472 3.39519 2.80027 0
M  V30 5264 H 494.591 0.648654 0.349882 0
M  V30 5265 H 497.233 1.88525 0.236253 0
M  V30 5266 H 495.383 3.02168 2.44185 0
M  V30 5267 H 497.055 4.59873 0.362514 0
M  V30 5268 H 495.298 4.32948 0.271669 0
M  V30 5269 H 495.969 5.28368 1.59784 0
M  V30 5270 H 498.445 3.48128 2.27917 0
M  V30 5271 H 497.321 4.33402 3.36829 0
M  V30 5272 H 497.582 2.60864 3.56934 0
M  V30 5273 N 496.642 -0.504142 1.49319 0
M  V30 5274 C 497.552 -1.63248 1.68486 0
M  V30 5275 C 498.568 -1.64488 0.567432 0
M  V30 5276 O 499.744 -1.82966 0.841749 0
M  V30 5277 C 496.809 -2.99627 1.74426 0
M  V30 5278 C 495.87 -3.09039 2.97982 0
M  V30 5279 C 495.103 -4.38913 3.0363 0
M  V30 5280 O 495.326 -5.27528 2.16958 0
M  V30 5281 O 494.26 -4.53231 3.96062 0
M  V30 5282 H 498.086 -1.50008 2.64067 0
M  V30 5283 H 495.671 -0.680086 1.33023 0
M  V30 5284 H 497.553 -3.80689 1.80705 0
M  V30 5285 H 496.228 -3.13136 0.820233 0
M  V30 5286 H 495.135 -2.27177 2.97223 0
M  V30 5287 H 496.468 -3.00456 3.89855 0
M  V30 5288 N 498.12 -1.38341 -0.754957 0
M  V30 5289 C 499.083 -1.35262 -1.85032 0
M  V30 5290 C 500.083 -0.253393 -1.58791 0
M  V30 5291 O 501.273 -0.510205 -1.66561 0
M  V30 5292 C 498.405 -1.10544 -3.22479 0
M  V30 5293 H 499.598 -2.32712 -1.8917 0
M  V30 5294 H 497.151 -1.23614 -0.956515 0
M  V30 5295 H 497.886 -0.136952 -3.24011 0
M  V30 5296 H 497.671 -1.90127 -3.4292 0
M  V30 5297 H 499.161 -1.11082 -4.02555 0
M  V30 5298 N 499.598 0.982988 -1.23187 0
M  V30 5299 C 500.546 2.09616 -1.00817 0
M  V30 5300 C 501.54 1.6932 0.0519995 0
M  V30 5301 O 502.746 1.79715 -0.101284 0
M  V30 5302 H 499.121 0.685628 -0.308899 0
M  V30 5303 H 501.092 2.25652 -1.95253 0
M  V30 5304 C 499.841 3.42249 -0.613243 0
M  V30 5305 H 499.164 3.73705 -1.42073 0
M  V30 5306 H 500.604 4.21086 -0.496208 0
M  V30 5307 C 499.063 3.30002 0.678233 0
M  V30 5308 O 499.593 3.6263 1.72807 0
M  V30 5309 N 497.799 2.83164 0.653165 0
M  V30 5310 H 497.346 2.56811 -0.201492 0
M  V30 5311 H 497.304 2.75352 1.51752 0
M  V30 5312 N 501.076 1.04316 1.18135 0
M  V30 5313 C 502.306 0.767003 1.91835 0
M  V30 5314 C 502.714 -0.68002 1.76557 0
M  V30 5315 O 502.057 -1.47548 1.09432 0
M  V30 5316 C 502.119 1.05674 3.43618 0
M  V30 5317 C 501.783 2.49818 3.82675 0
M  V30 5318 C 502.78 3.48003 3.86251 0
M  V30 5319 C 500.465 2.84596 4.13897 0
M  V30 5320 C 502.459 4.79016 4.20503 0
M  V30 5321 C 500.146 4.15813 4.4782 0
M  V30 5322 C 501.144 5.12834 4.51099 0
M  V30 5323 O 500.832 6.41699 4.84229 0
M  V30 5324 H 500.564 0.278948 0.615763 0
M  V30 5325 H 503.118 1.3946 1.50798 0
M  V30 5326 H 501.348 0.372029 3.84906 0
M  V30 5327 H 503.037 0.767994 3.98568 0
M  V30 5328 H 503.803 3.22475 3.62264 0
M  V30 5329 H 499.682 2.09748 4.1052 0
M  V30 5330 H 503.226 5.54739 4.22978 0
M  V30 5331 H 499.123 4.41109 4.71268 0
M  V30 5332 H 499.891 6.46387 5.02121 0
M  V30 5333 N 502.554 -1.34406 0.822964 0
M  V30 5334 C 503.517 -2.2783 0.250271 0
M  V30 5335 C 504.517 -1.50288 -0.571854 0
M  V30 5336 O 505.707 -1.69825 -0.387952 0
M  V30 5337 C 502.839 -3.34663 -0.649137 0
M  V30 5338 H 504.032 -2.79992 1.07444 0
M  V30 5339 H 501.585 -1.44539 0.594829 0
M  V30 5340 H 502.32 -2.87714 -1.49637 0
M  V30 5341 H 502.105 -3.92052 -0.0611199 0
M  V30 5342 H 503.595 -4.04349 -1.04363 0
M  V30 5343 N 504.032 -0.577932 -1.46621 0
M  V30 5344 C 504.979 0.158048 -2.30258 0
M  V30 5345 C 505.949 0.888669 -1.40328 0
M  V30 5346 O 507.134 0.880283 -1.6928 0
M  V30 5347 C 504.274 1.16884 -3.24703 0
M  V30 5348 C 503.387 0.442163 -4.29731 0
M  V30 5349 C 502.522 1.44007 -5.11308 0
M  V30 5350 C 501.561 0.69952 -6.0809 0
M  V30 5351 N 500.698 1.64525 -6.82551 0
M  V30 5352 H 505.538 -0.561242 -2.92667 0
M  V30 5353 H 503.075 -0.288591 -1.44241 0
M  V30 5354 H 505.033 1.7677 -3.779 0
M  V30 5355 H 503.663 1.85591 -2.64113 0
M  V30 5356 H 502.715 -0.271632 -3.79429 0
M  V30 5357 H 504.027 -0.136992 -4.98612 0
M  V30 5358 H 503.181 2.11186 -5.68758 0
M  V30 5359 H 501.92 2.05315 -4.42377 0
M  V30 5360 H 500.925 0.0139217 -5.49798 0
M  V30 5361 H 502.15 0.091894 -6.79038 0
M  V30 5362 H 500.096 2.24653 -6.16334 0
M  V30 5363 H 500.013 1.11878 -7.47676 0
M  V30 5364 H 501.281 2.30754 -7.44562 0
M  V30 5365 N 505.51 1.54411 -0.315457 0
M  V30 5366 C 506.738 2.04833 0.291738 0
M  V30 5367 C 507.153 1.19203 1.46411 0
M  V30 5368 O 506.51 0.220867 1.81159 0
M  V30 5369 C 506.561 3.53969 0.73404 0
M  V30 5370 O 506.282 4.36346 -0.391682 0
M  V30 5371 C 507.783 4.2045 1.40489 0
M  V30 5372 H 505.003 0.668195 0.0612947 0
M  V30 5373 H 507.547 1.99276 -0.45929 0
M  V30 5374 H 505.702 3.5984 1.43506 0
M  V30 5375 H 506.116 5.24481 -0.0447088 0
M  V30 5376 H 507.59 5.26278 1.66539 0
M  V30 5377 H 508.067 3.71067 2.3496 0
M  V30 5378 H 508.673 4.18694 0.746662 0
M  V30 5379 N 506.988 0.0434614 1.5754 0
M  V30 5380 C 507.92 -0.962586 2.08007 0
M  V30 5381 C 508.933 -1.27972 1.00634 0
M  V30 5382 O 510.122 -1.24186 1.28219 0
M  V30 5383 C 507.222 -2.28621 2.50171 0
M  V30 5384 C 506.395 -2.15214 3.80791 0
M  V30 5385 C 505.454 -3.30633 4.09351 0
M  V30 5386 O 504.48 -3.0688 4.79388 0
M  V30 5387 N 505.682 -4.54873 3.60654 0
M  V30 5388 H 508.447 -0.531891 2.94942 0
M  V30 5389 H 506.008 -0.142965 1.61268 0
M  V30 5390 H 508 -3.04689 2.66359 0
M  V30 5391 H 506.57 -2.63283 1.68525 0
M  V30 5392 H 505.79 -1.23785 3.74261 0
M  V30 5393 H 507.078 -2.03475 4.66343 0
M  V30 5394 H 506.476 -4.77063 3.04019 0
M  V30 5395 H 505.033 -5.2806 3.82094 0
M  V30 5396 N 508.466 -1.55915 -0.229846 0
M  V30 5397 C 509.413 -1.91734 -1.28478 0
M  V30 5398 C 510.383 -0.773539 -1.46988 0
M  V30 5399 O 511.568 -1.02871 -1.60693 0
M  V30 5400 C 508.708 -2.23224 -2.63182 0
M  V30 5401 C 507.821 -3.50497 -2.52539 0
M  V30 5402 C 506.956 -3.71474 -3.79711 0
M  V30 5403 C 505.995 -4.92289 -3.63755 0
M  V30 5404 N 505.132 -5.09698 -4.82858 0
M  V30 5405 H 509.972 -2.81692 -0.972308 0
M  V30 5406 H 507.509 -1.39429 -0.468815 0
M  V30 5407 H 509.467 -2.3949 -3.41614 0
M  V30 5408 H 508.097 -1.36451 -2.92542 0
M  V30 5409 H 507.149 -3.4247 -1.65585 0
M  V30 5410 H 508.461 -4.39079 -2.36666 0
M  V30 5411 H 507.615 -3.87791 -4.66586 0
M  V30 5412 H 506.354 -2.81157 -3.985 0
M  V30 5413 H 505.359 -4.7593 -2.75264 0
M  V30 5414 H 506.584 -5.84083 -3.46445 0
M  V30 5415 H 504.53 -4.22322 -5.01976 0
M  V30 5416 H 504.447 -5.92399 -4.69681 0
M  V30 5417 H 505.715 -5.30443 -5.71183 0
M  V30 5418 N 509.944 0.496216 -1.49584 0
M  V30 5419 C 511.193 1.24668 -1.58558 0
M  V30 5420 C 511.506 1.9359 -0.279703 0
M  V30 5421 O 512.712 2.70365 -0.248048 0
M  V30 5422 C 511.168 2.26388 -2.79779 0
M  V30 5423 C 510.776 1.63384 -4.17145 0
M  V30 5424 C 512.52 3.02233 -2.98086 0
M  V30 5425 C 510.427 2.63243 -5.29582 0
M  V30 5426 H 509.357 0.468995 -0.590389 0
M  V30 5427 H 512.008 0.519985 -1.75978 0
M  V30 5428 H 510.39 3.02241 -2.55863 0
M  V30 5429 H 511.564 0.93491 -4.51216 0
M  V30 5430 H 509.879 0.999121 -4.04236 0
M  V30 5431 H 512.476 3.76919 -3.79257 0
M  V30 5432 H 512.819 3.60132 -2.08831 0
M  V30 5433 H 513.352 2.33495 -3.22063 0
M  V30 5434 H 510.091 2.10119 -6.20911 0
M  V30 5435 H 509.611 3.31363 -4.99959 0
M  V30 5436 H 511.29 3.25575 -5.59115 0
M  V30 5437 N 511.423 1.38739 0.74761 0
M  V30 5438 C 512.353 1.39173 1.87492 0
M  V30 5439 C 513.334 0.256794 1.6815 0
M  V30 5440 O 514.519 0.460762 1.88655 0
M  V30 5441 C 511.649 1.22197 3.25093 0
M  V30 5442 C 510.603 2.32957 3.59047 0
M  V30 5443 C 509.929 2.01082 4.95449 0
M  V30 5444 C 511.229 3.75237 3.6331 0
M  V30 5445 H 512.923 2.3351 1.87386 0
M  V30 5446 H 510.469 1.12399 0.900134 0
M  V30 5447 H 512.422 1.21124 4.03617 0
M  V30 5448 H 511.146 0.243241 3.25693 0
M  V30 5449 H 509.805 2.33226 2.82845 0
M  V30 5450 H 509.453 1.01678 4.92616 0
M  V30 5451 H 509.153 2.75267 5.19136 0
M  V30 5452 H 510.677 2.01638 5.76346 0
M  V30 5453 H 512.091 3.76966 4.31937 0
M  V30 5454 H 510.488 4.48677 3.98509 0
M  V30 5455 H 511.558 4.07122 2.634 0
M  V30 5456 N 512.901 -0.976442 1.23707 0
M  V30 5457 C 513.849 -2.09078 1.01927 0
M  V30 5458 C 514.843 -1.69345 -0.0430193 0
M  V30 5459 O 516.049 -1.79659 0.110814 0
M  V30 5460 H 512.424 -0.68398 0.312531 0
M  V30 5461 H 514.395 -2.24614 1.96447 0
M  V30 5462 C 513.144 -3.41919 0.631385 0
M  V30 5463 H 512.467 -3.72946 1.44053 0
M  V30 5464 H 513.907 -4.20817 0.518532 0
M  V30 5465 C 512.366 -3.30357 -0.660723 0
M  V30 5466 O 512.896 -3.63542 -1.70881 0
M  V30 5467 N 511.102 -2.83507 -0.638139 0
M  V30 5468 H 510.649 -2.567 0.215108 0
M  V30 5469 H 510.607 -2.76153 -1.50289 0
M  V30 5470 O 514.418 -1.17461 -1.10838 0
M  V30 5471 H 515.109 -0.912283 -1.70872 0
M  V30 END ATOM
M  V30 BEGIN BOND
M  V30 END BOND
M  V30 END CTAB
M  END
$$$$
