drugbank_target|P08631 Tyrosine-protein kinase HCK (DB01809; DB01962; DB04216; DB06616; DB12010)
 OpenBabel12092119543D

  0  0  0     0  0            999 V3000
M  V30 BEGIN CTAB
M  V30 COUNTS 8308 8410 0 0 0
M  V30 BEGIN ATOM
M  V30 1 H -0.908 1.98254 -0.117106 0
M  V30 2 N 0 1.576 0 0
M  V30 3 C 0.933 2.03868 1.02534 0
M  V30 4 C 1.911 0.928543 1.3348 0
M  V30 5 O 3.095 1.19667 1.45644 0
M  V30 6 C 0.222 2.43627 2.35294 0
M  V30 7 C -0.732 3.65373 2.2001 0
M  V30 8 S 0.101 5.13292 1.52614 0
M  V30 9 C 1.257 5.56322 2.86805 0
M  V30 10 H 1.49 2.90518 0.631377 0
M  V30 11 H -0.977 1.52953 0.210867 0
M  V30 12 H 0.981 2.67203 3.11629 0
M  V30 13 H -0.358 1.57376 2.7183 0
M  V30 14 H -1.165 3.90944 3.18086 0
M  V30 15 H -1.563 3.418 1.51819 0
M  V30 16 H 0.729 5.58782 3.83104 0
M  V30 17 H 1.672 6.56266 2.65933 0
M  V30 18 H 2.08 4.83886 2.90714 0
M  V30 19 N 1.4781 -0.272755 1.55222 0
M  V30 20 C 2.7261 -1.00234 1.75492 0
M  V30 21 C 3.0471 -1.8681 0.5592 0
M  V30 22 O 2.3171 -1.91215 -0.425882 0
M  V30 23 H 0.8971 -0.373076 0.647166 0
M  V30 24 H 3.5591 -0.296926 1.92625 0
M  V30 25 H 2.6551 -1.63913 2.65592 0
M  V30 26 N 2.9562 -1.48159 -0.537278 0
M  V30 27 C 4.2042 -1.55497 -1.29094 0
M  V30 28 C 4.5252 -0.227454 -1.93669 0
M  V30 29 O 3.7952 0.750386 -1.80959 0
M  V30 30 H 2.3752 -0.572832 -0.47945 0
M  V30 31 H 5.0372 -1.84579 -0.625818 0
M  V30 32 H 4.1332 -2.33216 -2.07405 0
M  V30 33 N 4.4343 0.785586 -1.36625 0
M  V30 34 C 5.8503 1.08419 -1.17122 0
M  V30 35 C 6.0503 2.015 0.00208491 0
M  V30 36 O 5.1063 2.43551 0.666278 0
M  V30 37 C 6.4193 1.69498 -2.48377 0
M  V30 38 C 7.9673 1.81821 -2.54775 0
M  V30 39 C 8.4423 2.46315 -3.86126 0
M  V30 40 N 9.9333 2.53779 -3.87492 0
M  V30 41 C 10.6683 3.045 -4.85868 0
M  V30 42 N 10.1643 3.55499 -5.94637 0
M  V30 43 N 11.9573 3.03247 -4.73284 0
M  V30 44 H 4.1083 0.167264 -2.1174 0
M  V30 45 H 6.3713 0.13682 -0.938075 0
M  V30 46 H 6.0773 1.08571 -3.34522 0
M  V30 47 H 5.9513 2.6896 -2.64462 0
M  V30 48 H 8.3383 2.41884 -1.69045 0
M  V30 49 H 8.4193 0.811532 -2.42586 0
M  V30 50 H 8.0633 1.86895 -4.72263 0
M  V30 51 H 7.9933 3.47561 -3.95612 0
M  V30 52 H 10.4843 2.17672 -3.08913 0
M  V30 53 H 10.7973 3.92562 -6.65669 0
M  V30 54 H 9.1423 3.5364 -5.98301 0
M  V30 55 H 12.3333 2.62696 -3.87438 0
M  V30 56 H 12.5063 3.42467 -5.50109 0
M  V30 57 N 5.9124 1.20967 1.01018 0
M  V30 58 C 7.1374 1.0503 1.78839 0
M  V30 59 C 7.5624 -0.395752 1.8389 0
M  V30 60 O 6.9204 -1.28529 1.27867 0
M  V30 61 C 6.9684 1.64602 3.2084 0
M  V30 62 O 6.0724 0.887988 4.02726 0
M  V30 63 H 5.4134 0.369987 0.551367 0
M  V30 64 H 7.9434 1.60399 1.27018 0
M  V30 65 H 7.9534 1.68607 3.71532 0
M  V30 66 H 6.6284 2.69841 3.16479 0
M  V30 67 H 5.2054 0.922648 3.61305 0
M  V30 68 N 7.3905 -1.2043 1.01659 0
M  V30 69 C 8.6155 -1.94318 0.724942 0
M  V30 70 C 9.0405 -1.74266 -0.708034 0
M  V30 71 O 8.3985 -1.03694 -1.48719 0
M  V30 72 C 8.4465 -3.44486 1.06591 0
M  V30 73 O 7.5505 -4.12017 0.177599 0
M  V30 74 H 6.8915 -0.60708 0.26898 0
M  V30 75 H 9.4215 -1.52861 1.35995 0
M  V30 76 H 9.4315 -3.95106 1.01762 0
M  V30 77 H 8.1065 -3.58404 2.10997 0
M  V30 78 H 6.6835 -3.71821 0.283421 0
M  V30 79 N 8.8686 -0.792821 -1.36206 0
M  V30 80 C 10.1086 -0.372238 -2.00982 0
M  V30 81 C 10.4726 1.03749 -1.61555 0
M  V30 82 O 11.6736 1.55934 -2.18948 0
M  V30 83 C 9.9446 -0.534566 -3.5338 0
M  V30 84 S 11.5036 -0.202365 -4.38333 0
M  V30 85 H 8.3216 -0.142044 -0.696667 0
M  V30 86 H 10.9236 -1.03206 -1.66039 0
M  V30 87 H 9.6276 -1.5608 -3.79562 0
M  V30 88 H 9.1586 0.141065 -3.93147 0
M  V30 89 H 11.1736 0.994869 -4.86124 0
M  V30 90 N 10.3467 1.47872 -0.545128 0
M  V30 91 C 11.2567 2.33633 0.212746 0
M  V30 92 C 12.2727 1.4744 0.923983 0
M  V30 93 O 13.4487 1.80393 0.895572 0
M  V30 94 C 10.5137 3.23884 1.23693 0
M  V30 95 C 9.5747 4.25961 0.534417 0
M  V30 96 C 8.8077 5.11899 1.5098 0
M  V30 97 O 9.0307 5.00077 2.7437 0
M  V30 98 O 7.9647 5.92831 1.0409 0
M  V30 99 H 11.7907 2.99714 -0.490416 0
M  V30 100 H 9.3757 1.46235 -0.305871 0
M  V30 101 H 11.2577 3.79666 1.82843 0
M  V30 102 H 9.9327 2.60446 1.92222 0
M  V30 103 H 8.8397 3.73972 -0.0979679 0
M  V30 104 H 10.1727 4.92079 -0.109213 0
M  V30 105 N 11.8248 0.280983 1.55075 0
M  V30 106 C 13.1018 -0.386207 1.91749 0
M  V30 107 C 13.4818 -1.73264 1.20594 0
M  V30 108 O 12.8298 -2.26034 0.334784 0
M  V30 109 C 13.0398 -0.520687 3.45094 0
M  V30 110 C 14.3878 -0.800865 4.16979 0
M  V30 111 O 15.4118 -0.605271 3.5102 0
M  V30 112 O 14.2708 -1.1753 5.33712 0
M  V30 113 H 11.3648 -0.212408 0.799257 0
M  V30 114 H 13.9108 0.327568 1.66509 0
M  V30 115 H 12.6828 0.426633 3.88967 0
M  V30 116 H 12.3058 -1.2837 3.76307 0
M  V30 117 N 13.3029 -1.57598 0.00835791 0
M  V30 118 C 14.7139 -1.7892 -0.53333 0
M  V30 119 C 15.0649 -0.916609 -1.73473 0
M  V30 120 O 14.1899 -0.121336 -2.1606 0
M  V30 121 C 14.7849 -3.24488 -0.974313 0
M  V30 122 C 13.3439 -3.46878 -1.46125 0
M  V30 123 C 12.4909 -2.74157 -0.416302 0
M  V30 124 H 15.4419 -1.56958 0.234495 0
M  V30 125 H 15.4629 -3.3306 -1.83988 0
M  V30 126 H 14.9749 -3.87972 -0.099718 0
M  V30 127 H 13.0759 -2.8862 -2.35646 0
M  V30 128 H 13.1889 -4.55572 -1.48295 0
M  V30 129 H 11.5529 -2.39022 -0.87981 0
M  V30 130 H 12.3359 -3.40345 0.44947 0
M  V30 131 N 14.781 0.264519 -1.55364 0
M  V30 132 C 16.029 0.993021 -1.76021 0
M  V30 133 C 16.35 1.86511 -0.569099 0
M  V30 134 O 15.62 1.91438 0.415735 0
M  V30 135 H 14.2 0.369639 -0.649135 0
M  V30 136 H 16.862 0.286707 -1.9278 0
M  V30 137 H 15.958 1.62502 -2.66457 0
M  V30 138 N 16.2591 1.48442 0.529413 0
M  V30 139 C 17.4991 1.58086 1.29569 0
M  V30 140 C 17.8631 0.249302 1.90375 0
M  V30 141 O 19.0641 0.220738 2.67892 0
M  V30 142 C 17.3351 2.68793 2.35552 0
M  V30 143 S 18.8941 2.98207 3.21898 0
M  V30 144 H 15.7121 0.557922 0.440732 0
M  V30 145 H 18.3141 1.85966 0.603059 0
M  V30 146 H 17.0181 3.64102 1.89363 0
M  V30 147 H 16.5491 2.42817 3.09522 0
M  V30 148 H 18.5641 2.37548 4.35644 0
M  V30 149 N 17.7372 -0.778329 1.37039 0
M  V30 150 C 19.1482 -1.35421 1.28523 0
M  V30 151 C 19.4992 -1.96075 -0.0700901 0
M  V30 152 O 18.6242 -1.93352 -0.971801 0
M  V30 153 C 19.2192 -2.46211 2.32735 0
M  V30 154 C 17.7782 -2.99585 2.27873 0
M  V30 155 C 16.9252 -1.72748 2.16918 0
M  V30 156 H 19.8762 -0.5791 1.47757 0
M  V30 157 H 19.8972 -3.2552 1.9702 0
M  V30 158 H 19.4092 -2.02036 3.31365 0
M  V30 159 H 17.5102 -3.48152 1.32745 0
M  V30 160 H 17.6232 -3.55646 3.21018 0
M  V30 161 H 15.9872 -1.95416 1.63354 0
M  V30 162 H 16.7702 -1.30686 3.17452 0
M  V30 163 N 19.2153 -1.21501 -1.00376 0
M  V30 164 C 20.6313 -0.972629 -1.26539 0
M  V30 165 C 20.8313 0.340257 -1.98606 0
M  V30 166 O 19.8873 1.06561 -2.28913 0
M  V30 167 C 21.2003 -2.16404 -2.08781 0
M  V30 168 C 22.7483 -2.20643 -2.22004 0
M  V30 169 C 23.2233 -3.39306 -3.07629 0
M  V30 170 N 24.7143 -3.39401 -3.15217 0
M  V30 171 C 25.4493 -4.27867 -3.81729 0
M  V30 172 N 24.9453 -5.26533 -4.5026 0
M  V30 173 N 26.7383 -4.15672 -3.78382 0
M  V30 174 H 18.8893 -2.05929 -0.520281 0
M  V30 175 H 21.1523 -0.901803 -0.292328 0
M  V30 176 H 20.8583 -3.11554 -1.63178 0
M  V30 177 H 20.7323 -2.15567 -3.09533 0
M  V30 178 H 23.1193 -1.26048 -2.66825 0
M  V30 179 H 23.2003 -2.25523 -1.20718 0
M  V30 180 H 22.8443 -4.34195 -2.63509 0
M  V30 181 H 22.7743 -3.31665 -4.09031 0
M  V30 182 H 25.2653 -2.67997 -2.66432 0
M  V30 183 H 25.5783 -5.90337 -4.98721 0
M  V30 184 H 23.9233 -5.30457 -4.49044 0
M  V30 185 H 27.1143 -3.3785 -3.23998 0
M  V30 186 H 27.2873 -4.84825 -4.2994 0
M  V30 187 N 20.6934 1.19889 -1.02296 0
M  V30 188 C 21.9704 1.85148 -0.630832 0
M  V30 189 C 22.3504 1.91385 0.890782 0
M  V30 190 O 21.6984 1.42642 1.78509 0
M  V30 191 C 21.9084 3.24442 -1.28602 0
M  V30 192 C 23.2564 4.00663 -1.4055 0
M  V30 193 O 24.2804 3.33818 -1.24273 0
M  V30 194 O 23.1394 5.20387 -1.66913 0
M  V30 195 H 20.2334 0.797613 -0.218499 0
M  V30 196 H 22.7794 1.27427 -1.12074 0
M  V30 197 H 21.5514 3.14704 -2.32545 0
M  V30 198 H 21.1744 3.89802 -0.7836 0
M  V30 199 N 22.1715 0.800033 1.35784 0
M  V30 200 C 23.0815 0.207204 2.33683 0
M  V30 201 C 24.0975 -0.64631 1.61551 0
M  V30 202 O 25.2735 -0.559604 1.93469 0
M  V30 203 C 22.3385 -0.639659 3.40748 0
M  V30 204 C 21.3995 0.233585 4.28664 0
M  V30 205 C 20.6325 -0.572954 5.30616 0
M  V30 206 O 20.8555 -1.80816 5.40982 0
M  V30 207 O 19.7895 0.0327285 6.01891 0
M  V30 208 H 23.6155 1.01692 2.86169 0
M  V30 209 H 21.2005 0.561691 1.38439 0
M  V30 210 H 23.0825 -1.12223 4.06182 0
M  V30 211 H 21.7575 -1.42708 2.90544 0
M  V30 212 H 20.6645 0.763147 3.66233 0
M  V30 213 H 21.9975 0.984784 4.82248 0
M  V30 214 N 23.6496 -1.47581 0.552962 0
M  V30 215 C 24.5596 -2.33743 -0.200353 0
M  V30 216 C 25.5756 -1.47928 -0.916151 0
M  V30 217 O 26.7516 -1.80865 -0.885993 0
M  V30 218 C 23.8166 -3.24536 -1.21973 0
M  V30 219 C 22.8776 -4.26238 -0.511819 0
M  V30 220 C 22.1106 -5.12693 -1.48263 0
M  V30 221 O 22.3336 -5.01525 -2.71714 0
M  V30 222 O 21.2676 -5.93375 -1.00945 0
M  V30 223 H 25.0936 -2.9945 0.506304 0
M  V30 224 H 22.6786 -1.46071 0.313622 0
M  V30 225 H 24.5606 -3.80631 -1.80827 0
M  V30 226 H 23.2356 -2.61462 -1.90839 0
M  V30 227 H 22.1426 -3.73914 0.117799 0
M  V30 228 H 23.4756 -4.92014 0.135308 0
M  V30 229 N 25.1277 -0.289203 -1.54924 0
M  V30 230 C 26.5437 0.0645403 -1.59469 0
M  V30 231 C 26.7437 1.53419 -1.30632 0
M  V30 232 O 25.7997 2.2852 -1.074 0
M  V30 233 C 27.1127 -0.32278 -2.98963 0
M  V30 234 C 28.6607 -0.270564 -3.11828 0
M  V30 235 C 29.1357 -0.632532 -4.53611 0
M  V30 236 N 30.6267 -0.584617 -4.59496 0
M  V30 237 C 31.3617 -0.837314 -5.67254 0
M  V30 238 N 30.8577 -1.15536 -6.83098 0
M  V30 239 N 32.6507 -0.765166 -5.56868 0
M  V30 240 H 24.8017 -1.24714 -1.71931 0
M  V30 241 H 27.0647 -0.504809 -0.802416 0
M  V30 242 H 26.7707 -1.34541 -3.24948 0
M  V30 243 H 26.6447 0.32944 -3.75759 0
M  V30 244 H 29.0317 0.742805 -2.85598 0
M  V30 245 H 29.1127 -0.957242 -2.37214 0
M  V30 246 H 28.7567 -1.64365 -4.80569 0
M  V30 247 H 28.6867 0.07609 -5.26545 0
M  V30 248 H 31.1777 -0.349248 -3.76283 0
M  V30 249 H 31.4907 -1.33447 -7.61191 0
M  V30 250 H 29.8357 -1.19328 -6.84679 0
M  V30 251 H 33.0267 -0.516432 -4.65243 0
M  V30 252 H 33.1997 -0.965477 -6.40767 0
M  V30 253 N 26.6058 1.57591 -0.0167156 0
M  V30 254 C 27.5688 2.08393 0.954204 0
M  V30 255 C 28.5688 0.996531 1.26198 0
M  V30 256 O 29.7588 1.25858 1.20438 0
M  V30 257 C 26.8908 2.5394 2.27436 0
M  V30 258 H 28.0838 2.95455 0.514451 0
M  V30 259 H 25.6368 1.54582 0.231089 0
M  V30 260 H 26.3718 1.70171 2.76066 0
M  V30 261 H 26.1568 3.33371 2.06412 0
M  V30 262 H 27.6468 2.93512 2.97053 0
M  V30 263 N 28.0839 -0.256276 1.55502 0
M  V30 264 C 29.4949 -0.826068 1.67431 0
M  V30 265 C 29.8459 -1.86396 0.612446 0
M  V30 266 O 28.9709 -2.15031 -0.243025 0
M  V30 267 C 29.5659 -1.50512 3.03532 0
M  V30 268 C 28.1249 -2.02273 3.17431 0
M  V30 269 C 27.2719 -0.870548 2.63281 0
M  V30 270 H 30.2229 -0.0322728 1.58667 0
M  V30 271 H 30.2439 -2.37279 2.97454 0
M  V30 272 H 29.7559 -0.749484 3.80794 0
M  V30 273 H 27.8569 -2.80746 2.44974 0
M  V30 274 H 27.9699 -2.22655 4.24219 0
M  V30 275 H 26.3339 -1.26851 2.20864 0
M  V30 276 H 27.1169 -0.128149 3.43061 0
M  V30 277 N 29.562 -1.4872 -0.521534 0
M  V30 278 C 30.978 -1.35028 -0.850855 0
M  V30 279 C 31.178 -0.367712 -1.98116 0
M  V30 280 O 30.234 0.208037 -2.51642 0
M  V30 281 C 31.547 -2.75263 -1.21041 0
M  V30 282 C 33.095 -2.83813 -1.31981 0
M  V30 283 C 33.57 -4.24769 -1.71276 0
M  V30 284 N 35.061 -4.27482 -1.78363 0
M  V30 285 C 35.796 -5.33494 -2.1017 0
M  V30 286 N 35.292 -6.49775 -2.40343 0
M  V30 287 N 37.085 -5.20894 -2.11248 0
M  V30 288 H 29.236 -2.11214 0.22413 0
M  V30 289 H 31.499 -0.947252 0.0376439 0
M  V30 290 H 31.205 -3.48765 -0.453415 0
M  V30 291 H 31.079 -3.09327 -2.15863 0
M  V30 292 H 33.466 -2.10561 -2.06756 0
M  V30 293 H 33.547 -2.53358 -0.352596 0
M  V30 294 H 33.191 -4.9854 -0.970588 0
M  V30 295 H 33.121 -4.52673 -2.69062 0
M  V30 296 H 35.612 -3.43611 -1.57288 0
M  V30 297 H 35.925 -7.26402 -2.63743 0
M  V30 298 H 34.27 -6.53035 -2.37844 0
M  V30 299 H 37.461 -4.29065 -1.87139 0
M  V30 300 H 37.634 -6.03612 -2.35704 0
M  V30 301 N 31.0401 0.771051 -1.3745 0
M  V30 302 C 31.9731 1.89166 -1.27638 0
M  V30 303 C 32.9511 1.61842 -0.156782 0
M  V30 304 O 34.1351 1.85569 -0.331111 0
M  V30 305 C 31.2621 3.24405 -0.973621 0
M  V30 306 C 30.3081 3.70638 -2.1102 0
M  V30 307 S 31.1411 3.84228 -3.73 0
M  V30 308 C 32.2971 5.22313 -3.44876 0
M  V30 309 H 32.5301 1.972 -2.22485 0
M  V30 310 H 30.0631 0.932224 -1.23081 0
M  V30 311 H 32.0211 4.02514 -0.805766 0
M  V30 312 H 30.6821 3.14071 -0.0426279 0
M  V30 313 H 29.8751 4.68685 -1.85338 0
M  V30 314 H 29.4771 2.99632 -2.23822 0
M  V30 315 H 31.7691 6.07505 -2.99908 0
M  V30 316 H 32.7121 5.53008 -4.42253 0
M  V30 317 H 33.1201 4.90284 -2.79789 0
M  V30 318 N 32.5182 1.22032 0.997298 0
M  V30 319 C 33.7662 1.04016 1.73278 0
M  V30 320 C 34.0872 -0.426255 1.90284 0
M  V30 321 O 33.3572 -1.30694 1.45931 0
M  V30 322 H 31.9372 0.381897 0.642 0
M  V30 323 H 34.5992 1.5347 1.20137 0
M  V30 324 H 33.6952 1.51441 2.72896 0
M  V30 325 N 33.9963 -1.19345 1.0293 0
M  V30 326 C 35.2363 -1.90738 0.734727 0
M  V30 327 C 35.6003 -1.7785 -0.723414 0
M  V30 328 O 36.8013 -2.43844 -1.13108 0
M  V30 329 C 35.0723 -3.37569 1.17396 0
M  V30 330 S 36.6313 -4.27176 1.00329 0
M  V30 331 H 33.4493 -0.658771 0.267474 0
M  V30 332 H 36.0513 -1.4428 1.31922 0
M  V30 333 H 34.7553 -3.44475 2.23081 0
M  V30 334 H 34.2863 -3.8906 0.582772 0
M  V30 335 H 36.3013 -4.96126 -0.0859152 0
M  V30 336 N 35.4744 -0.807222 -1.35358 0
M  V30 337 C 36.4074 -0.163572 -2.27613 0
M  V30 338 C 37.3854 0.670817 -1.48118 0
M  V30 339 O 38.5694 0.63796 -1.77376 0
M  V30 340 C 35.6964 0.773015 -3.29761 0
M  V30 341 C 34.7424 0.0181653 -4.26496 0
M  V30 342 S 35.5754 -1.31831 -5.19019 0
M  V30 343 C 36.7314 -0.38619 -6.24707 0
M  V30 344 H 36.9644 -0.945757 -2.81856 0
M  V30 345 H 34.4974 -0.602315 -1.42167 0
M  V30 346 H 36.4554 1.30788 -3.89108 0
M  V30 347 H 35.1164 1.52859 -2.74396 0
M  V30 348 H 34.3094 0.729534 -4.98692 0
M  V30 349 H 33.9114 -0.446761 -3.71322 0
M  V30 350 H 36.2034 0.428295 -6.76145 0
M  V30 351 H 37.1464 -1.07736 -6.99856 0
M  V30 352 H 37.5544 0.018398 -5.64497 0
M  V30 353 N 36.9525 1.47285 -0.560781 0
M  V30 354 C 37.8995 2.30058 0.18491 0
M  V30 355 C 38.8695 1.39281 0.904986 0
M  V30 356 O 40.0545 1.68241 0.899979 0
M  V30 357 C 37.1945 3.23317 1.20666 0
M  V30 358 C 36.3075 4.29186 0.492285 0
M  V30 359 C 35.4425 5.09592 1.49964 0
M  V30 360 C 34.4815 6.07232 0.770439 0
M  V30 361 N 33.6185 6.80584 1.72479 0
M  V30 362 H 38.4585 2.93302 -0.527048 0
M  V30 363 H 35.9955 1.44568 -0.271738 0
M  V30 364 H 37.9535 3.75811 1.81168 0
M  V30 365 H 36.5835 2.61929 1.88661 0
M  V30 366 H 35.6355 3.7972 -0.227333 0
M  V30 367 H 36.9475 4.98738 -0.0787929 0
M  V30 368 H 36.1015 5.66254 2.17809 0
M  V30 369 H 34.8405 4.3995 2.10464 0
M  V30 370 H 33.8455 5.49745 0.0780846 0
M  V30 371 H 35.0705 6.78884 0.171134 0
M  V30 372 H 33.0165 6.1367 2.3183 0
M  V30 373 H 32.9335 7.46319 1.20596 0
M  V30 374 H 34.2015 7.41818 2.39428 0
M  V30 375 N 38.4306 0.297415 1.54768 0
M  V30 376 C 39.6556 -0.318435 2.04941 0
M  V30 377 C 40.0806 -1.4701 1.17345 0
M  V30 378 O 39.4386 -1.80436 0.176758 0
M  V30 379 C 39.4866 -0.755749 3.52592 0
M  V30 380 O 38.5906 -1.86088 3.68028 0
M  V30 381 H 37.9316 -0.062421 0.661059 0
M  V30 382 H 40.4616 0.438215 1.99852 0
M  V30 383 H 40.4716 -1.04552 3.94376 0
M  V30 384 H 39.1466 0.0867233 4.1581 0
M  V30 385 H 37.7236 -1.57193 3.38149 0
M  V30 386 N 39.9087 -1.5758 0.0250728 0
M  V30 387 C 40.8557 -2.09973 -0.958129 0
M  V30 388 C 41.8257 -1.00085 -1.3256 0
M  V30 389 O 43.0107 -1.27481 -1.41962 0
M  V30 390 C 40.1507 -2.62812 -2.2366 0
M  V30 391 C 39.2637 -3.86693 -1.92594 0
M  V30 392 C 38.3987 -4.27941 -3.14707 0
M  V30 393 C 37.4377 -5.44591 -2.79442 0
M  V30 394 N 36.5747 -5.81014 -3.94167 0
M  V30 395 H 41.4147 -2.937 -0.504428 0
M  V30 396 H 38.9517 -1.45172 -0.237392 0
M  V30 397 H 40.9097 -2.91536 -2.98434 0
M  V30 398 H 39.5397 -1.81922 -2.66654 0
M  V30 399 H 38.5917 -3.64723 -1.0808 0
M  V30 400 H 39.9037 -4.71547 -1.62619 0
M  V30 401 H 39.0577 -4.58079 -3.97804 0
M  V30 402 H 37.7967 -3.41845 -3.4784 0
M  V30 403 H 36.8017 -5.1415 -1.94755 0
M  V30 404 H 38.0267 -6.32382 -2.47528 0
M  V30 405 H 35.9727 -4.97874 -4.2715 0
M  V30 406 H 35.8897 -6.60498 -3.67801 0
M  V30 407 H 37.1577 -6.15756 -4.7798 0
M  V30 408 N 41.3868 0.248026 -1.55636 0
M  V30 409 C 42.6338 0.976224 -1.77415 0
M  V30 410 C 42.9618 1.85361 -0.589193 0
M  V30 411 O 42.2168 1.90973 0.427529 0
M  V30 412 C 42.5158 1.86819 -3.04686 0
M  V30 413 C 42.1818 1.14625 -4.36087 0
M  V30 414 C 40.8438 0.946723 -4.71795 0
M  V30 415 C 43.1958 0.634463 -5.17324 0
M  V30 416 C 40.5238 0.223091 -5.86276 0
M  V30 417 C 42.8758 -0.0756959 -6.32555 0
M  V30 418 C 41.5398 -0.286711 -6.66884 0
M  V30 419 H 40.8098 0.357226 -0.649208 0
M  V30 420 H 43.4568 0.246415 -1.89908 0
M  V30 421 H 41.7618 2.66502 -2.872 0
M  V30 422 H 43.4588 2.43329 -3.18735 0
M  V30 423 H 40.0488 1.3117 -4.08035 0
M  V30 424 H 44.2328 0.77616 -4.90193 0
M  V30 425 H 39.4888 0.0491185 -6.1138 0
M  V30 426 H 43.6628 -0.479899 -6.94745 0
M  V30 427 H 41.2898 -0.849389 -7.5544 0
M  V30 428 N 42.8649 1.48995 0.513639 0
M  V30 429 C 43.7949 1.67636 1.62544 0
M  V30 430 C 44.7759 0.525087 1.61793 0
M  V30 431 O 45.9609 0.759502 1.78732 0
M  V30 432 C 43.0909 1.73114 3.01079 0
M  V30 433 C 42.0449 2.87905 3.16693 0
M  V30 434 C 41.3709 2.78486 4.56453 0
M  V30 435 C 42.6709 4.29005 2.97913 0
M  V30 436 H 44.3649 2.60716 1.47198 0
M  V30 437 H 41.9109 1.25465 0.706714 0
M  V30 438 H 43.8639 1.84742 3.78746 0
M  V30 439 H 42.5879 0.766241 3.17484 0
M  V30 440 H 41.2469 2.75859 2.41448 0
M  V30 441 H 40.8949 1.7993 4.69717 0
M  V30 442 H 40.5949 3.55523 4.67843 0
M  V30 443 H 42.1189 2.92104 5.36197 0
M  V30 444 H 43.5329 4.41798 3.65359 0
M  V30 445 H 41.9299 5.07166 3.20785 0
M  V30 446 H 42.9999 4.44329 1.94165 0
M  V30 447 N 44.343 -0.763751 1.37857 0
M  V30 448 C 45.275 -1.88664 1.30148 0
M  V30 449 C 46.288 -1.61365 0.215685 0
M  V30 450 O 47.477 -1.72134 0.472459 0
M  V30 451 C 44.577 -3.24075 0.991396 0
M  V30 452 C 43.75 -3.78958 2.18426 0
M  V30 453 C 42.809 -4.92862 1.8432 0
M  V30 454 O 41.835 -5.08027 2.56704 0
M  V30 455 N 43.037 -5.75071 0.792081 0
M  V30 456 H 45.802 -1.95791 2.26905 0
M  V30 457 H 43.363 -0.943226 1.31586 0
M  V30 458 H 45.355 -3.97804 0.743935 0
M  V30 459 H 43.925 -3.12399 0.112122 0
M  V30 460 H 43.145 -2.96913 2.59299 0
M  V30 461 H 44.433 -4.12357 2.98058 0
M  V30 462 H 43.831 -5.65375 0.191595 0
M  V30 463 H 42.388 -6.48991 0.60449 0
M  V30 464 N 45.8211 -1.22559 -0.990812 0
M  V30 465 C 47.0671 -1.05297 -1.73322 0
M  V30 466 C 47.4001 0.410655 -1.89808 0
M  V30 467 O 46.6751 1.30439 -1.44277 0
M  V30 468 C 46.9581 -1.76713 -3.13759 0
M  V30 469 C 46.8111 -3.30684 -3.04907 0
M  V30 470 C 48.1301 -1.52121 -4.12974 0
M  V30 471 H 45.2491 -0.38392 -0.629106 0
M  V30 472 H 47.8911 -1.50926 -1.15418 0
M  V30 473 H 46.0411 -1.37924 -3.63193 0
M  V30 474 H 47.7131 -3.7893 -2.63077 0
M  V30 475 H 45.9561 -3.60253 -2.41661 0
M  V30 476 H 46.6271 -3.75833 -4.04294 0
M  V30 477 H 49.1031 -1.85819 -3.72304 0
M  V30 478 H 47.9791 -2.04582 -5.0935 0
M  V30 479 H 48.2401 -0.454257 -4.3976 0
M  V30 480 N 47.2992 1.18797 -1.03562 0
M  V30 481 C 48.5472 1.88278 -0.734569 0
M  V30 482 C 48.8682 1.8043 0.739586 0
M  V30 483 O 48.1382 1.21925 1.53333 0
M  V30 484 H 46.7182 0.696991 -0.268725 0
M  V30 485 H 49.3802 1.44192 -1.31129 0
M  V30 486 H 48.4762 2.94443 -1.03489 0
M  V30 487 N 48.7773 0.814389 1.34928 0
M  V30 488 C 50.0253 0.397636 1.9815 0
M  V30 489 C 50.3463 -1.04069 1.64908 0
M  V30 490 O 49.6163 -1.72121 0.93548 0
M  V30 491 H 48.1963 0.144043 0.732981 0
M  V30 492 H 50.8583 1.04195 1.6471 0
M  V30 493 H 49.9543 0.509688 3.0791 0
M  V30 494 N 50.2554 -1.46986 0.568584 0
M  V30 495 C 51.2034 -2.31858 -0.185649 0
M  V30 496 C 52.1974 -1.43624 -0.898249 0
M  V30 497 O 53.4034 -1.60327 -0.818242 0
M  V30 498 H 49.7784 -0.747866 -0.0787399 0
M  V30 499 H 51.7494 -2.93303 0.549191 0
M  V30 500 C 50.4984 -3.26513 -1.19519 0
M  V30 501 H 49.8214 -3.94377 -0.656285 0
M  V30 502 H 51.2614 -3.88707 -1.6936 0
M  V30 503 C 49.7204 -2.50847 -2.24894 0
M  V30 504 O 50.2504 -2.26119 -3.32014 0
M  V30 505 N 48.4564 -2.11656 -1.99124 0
M  V30 506 H 48.0034 -2.31966 -1.12024 0
M  V30 507 H 47.9614 -1.61347 -2.69842 0
M  V30 508 N 51.7335 -0.305618 -1.54608 0
M  V30 509 C 52.9615 0.304775 -2.04643 0
M  V30 510 C 53.3765 1.47167 -1.18268 0
M  V30 511 O 52.7335 1.81296 -0.209328 0
M  V30 512 C 52.7845 0.756564 -3.53495 0
M  V30 513 O 52.5055 -0.36389 -4.36586 0
M  V30 514 C 54.0065 1.43163 -4.19546 0
M  V30 515 H 51.2265 0.0655481 -0.667791 0
M  V30 516 H 53.7705 -0.446592 -1.99564 0
M  V30 517 H 51.9255 1.45794 -3.58919 0
M  V30 518 H 52.3395 -0.0113121 -5.24499 0
M  V30 519 H 53.8135 1.69886 -5.25207 0
M  V30 520 H 54.2905 2.37318 -3.69563 0
M  V30 521 H 54.8965 0.773307 -4.18211 0
M  V30 522 N 53.2116 1.57565 -0.0334293 0
M  V30 523 C 54.4586 1.91978 0.644272 0
M  V30 524 C 54.7866 0.910231 1.71887 0
M  V30 525 O 54.0416 -0.0801961 1.95536 0
M  V30 526 C 54.3406 3.33112 1.29504 0
M  V30 527 C 54.0066 4.49537 0.350388 0
M  V30 528 C 52.6686 4.81115 0.0903974 0
M  V30 529 C 55.0206 5.20347 -0.298032 0
M  V30 530 C 52.3486 5.8086 -0.825746 0
M  V30 531 C 54.7006 6.2107 -1.20226 0
M  V30 532 C 53.3646 6.51088 -1.4711 0
M  V30 533 H 52.6346 0.702496 0.235756 0
M  V30 534 H 55.2816 1.91259 -0.0961176 0
M  V30 535 H 53.5866 3.30113 2.11028 0
M  V30 536 H 55.2836 3.57011 1.82603 0
M  V30 537 H 51.8736 4.24883 0.563205 0
M  V30 538 H 56.0576 4.96178 -0.110234 0
M  V30 539 H 51.3136 6.02461 -1.04169 0
M  V30 540 H 55.4876 6.75057 -1.71086 0
M  V30 541 H 53.1146 7.28193 -2.18264 0
M  V30 542 N 54.6897 -0.239769 1.55765 0
M  V30 543 C 55.9147 -0.988373 1.82335 0
M  V30 544 C 56.3397 -1.77886 0.611421 0
M  V30 545 O 55.6977 -1.75889 -0.439639 0
M  V30 546 C 55.7457 -1.89627 3.06715 0
M  V30 547 O 54.8497 -2.98904 2.84131 0
M  V30 548 H 54.1907 -0.280858 0.601677 0
M  V30 549 H 56.7207 -0.258597 2.02959 0
M  V30 550 H 56.7307 -2.30957 3.36338 0
M  V30 551 H 55.4057 -1.31511 3.9456 0
M  V30 552 H 53.9827 -2.61651 2.65694 0
M  V30 553 N 56.1678 -1.49265 -0.50573 0
M  V30 554 C 57.1148 -1.65585 -1.6078 0
M  V30 555 C 58.0848 -0.497396 -1.58478 0
M  V30 556 O 59.2698 -0.72385 -1.76536 0
M  V30 557 C 56.4098 -1.72408 -2.98948 0
M  V30 558 C 55.5228 -2.99525 -3.11301 0
M  V30 559 C 54.6578 -2.97356 -4.40174 0
M  V30 560 C 53.6968 -4.19074 -4.46143 0
M  V30 561 N 52.8338 -4.14841 -5.66437 0
M  V30 562 H 57.6738 -2.59688 -1.46172 0
M  V30 563 H 55.2108 -1.28761 -0.711261 0
M  V30 564 H 57.1688 -1.74344 -3.79025 0
M  V30 565 H 55.7988 -0.817753 -3.1227 0
M  V30 566 H 54.8508 -3.07222 -2.24318 0
M  V30 567 H 56.1628 -3.89518 -3.11572 0
M  V30 568 H 55.3168 -2.97829 -5.28567 0
M  V30 569 H 54.0558 -2.05133 -4.42461 0
M  V30 570 H 53.0608 -4.1885 -3.56153 0
M  V30 571 H 54.2858 -5.12483 -4.45575 0
M  V30 572 H 52.2318 -3.25453 -5.69575 0
M  V30 573 H 52.1488 -4.98564 -5.68304 0
M  V30 574 H 53.4168 -4.1941 -6.57051 0
M  V30 575 N 57.6459 0.756429 -1.3826 0
M  V30 576 C 58.8739 1.54565 -1.3754 0
M  V30 577 C 59.2889 1.88767 0.0355331 0
M  V30 578 O 58.6459 1.52572 1.0014 0
M  V30 579 C 58.6969 2.84654 -2.22833 0
M  V30 580 O 58.4179 2.51912 -3.5843 0
M  V30 581 C 59.9189 3.78807 -2.30261 0
M  V30 582 H 57.1389 0.478353 -0.470553 0
M  V30 583 H 59.6829 0.936381 -1.81803 0
M  V30 584 H 57.8379 3.41965 -1.8204 0
M  V30 585 H 58.2519 3.35325 -4.03308 0
M  V30 586 H 59.7259 4.67045 -2.94233 0
M  V30 587 H 60.2029 4.19038 -1.31545 0
M  V30 588 H 60.8089 3.2742 -2.71433 0
M  V30 589 N 59.124 1.23083 0.984299 0
M  V30 590 C 60.034 1.02515 2.11016 0
M  V30 591 C 61.05 -0.0291702 1.73976 0
M  V30 592 O 62.226 0.165434 2.00719 0
M  V30 593 C 59.291 0.614673 3.41208 0
M  V30 594 C 58.352 1.74359 3.92297 0
M  V30 595 C 57.585 1.35261 5.16275 0
M  V30 596 O 57.808 0.235136 5.69915 0
M  V30 597 O 56.742 2.17227 5.61334 0
M  V30 598 H 60.568 1.96862 2.31255 0
M  V30 599 H 58.153 1.01753 1.09392 0
M  V30 600 H 60.035 0.396518 4.1953 0
M  V30 601 H 58.71 -0.299851 3.22308 0
M  V30 602 H 57.617 2.01635 3.1511 0
M  V30 603 H 58.95 2.63629 4.15645 0
M  V30 604 N 60.6021 -1.18246 1.0419 0
M  V30 605 C 61.8301 -1.92195 0.766072 0
M  V30 606 C 62.2451 -1.76247 -0.676933 0
M  V30 607 O 61.6021 -1.09293 -1.46155 0
M  V30 608 C 61.6531 -3.43568 1.12442 0
M  V30 609 O 61.3741 -3.59015 2.51078 0
M  V30 610 C 62.8751 -4.34613 0.873275 0
M  V30 611 H 60.0951 -0.610114 0.279288 0
M  V30 612 H 62.6391 -1.50007 1.38989 0
M  V30 613 H 60.7941 -3.8354 0.545542 0
M  V30 614 H 61.2081 -4.5273 2.64831 0
M  V30 615 H 62.6821 -5.39374 1.17385 0
M  V30 616 H 63.1591 -4.38781 -0.191909 0
M  V30 617 H 63.7651 -4.00341 1.43551 0
M  V30 618 N 62.0802 -0.821533 -1.34494 0
M  V30 619 C 63.3052 -0.420873 -2.03085 0
M  V30 620 C 63.7302 0.964915 -1.61465 0
M  V30 621 O 63.0882 1.62763 -0.798607 0
M  V30 622 C 63.1362 -0.529414 -3.56693 0
M  V30 623 O 62.2402 0.451302 -4.09923 0
M  V30 624 H 61.5812 -0.173489 -0.640935 0
M  V30 625 H 64.1112 -1.11157 -1.71771 0
M  V30 626 H 64.1212 -0.404671 -4.05988 0
M  V30 627 H 62.7962 -1.54014 -3.86332 0
M  V30 628 H 61.3732 0.285558 -3.71805 0
M  V30 629 N 63.5583 1.46682 -0.576371 0
M  V30 630 C 64.5213 2.28707 0.150239 0
M  V30 631 C 65.5213 1.38035 0.824794 0
M  V30 632 O 66.7113 1.60476 0.677719 0
M  V30 633 C 63.8433 3.18248 1.22192 0
M  V30 634 H 65.0363 2.94423 -0.570521 0
M  V30 635 H 62.5893 1.52688 -0.334078 0
M  V30 636 H 63.3243 2.57265 1.97447 0
M  V30 637 H 63.1093 3.85 0.742812 0
M  V30 638 H 64.5993 3.80001 1.73172 0
M  V30 639 N 65.0364 0.313813 1.54444 0
M  V30 640 C 66.2614 -0.296681 2.05267 0
M  V30 641 C 66.6864 -1.45757 1.18897 0
M  V30 642 O 66.0444 -1.80239 0.195886 0
M  V30 643 C 66.0924 -0.71831 3.53373 0
M  V30 644 O 65.1964 -1.82175 3.69981 0
M  V30 645 H 64.5374 -0.0554061 0.661684 0
M  V30 646 H 67.0674 0.459387 1.99376 0
M  V30 647 H 67.0774 -1.00364 3.95463 0
M  V30 648 H 65.7524 0.130821 4.15694 0
M  V30 649 H 64.3294 -1.53598 3.39797 0
M  V30 650 N 66.5145 -1.57545 0.0417849 0
M  V30 651 C 67.9255 -1.80011 -0.495259 0
M  V30 652 C 68.2765 -0.953199 -1.71489 0
M  V30 653 O 67.4015 -0.167138 -2.15754 0
M  V30 654 C 67.9965 -3.26482 -0.905265 0
M  V30 655 C 66.5555 -3.499 -1.38734 0
M  V30 656 C 65.7025 -2.74979 -0.358056 0
M  V30 657 H 68.6535 -1.56425 0.267736 0
M  V30 658 H 68.6745 -3.36887 -1.76882 0
M  V30 659 H 68.1865 -3.88096 -0.017401 0
M  V30 660 H 66.2875 -2.93553 -2.29471 0
M  V30 661 H 66.4005 -4.58615 -1.38598 0
M  V30 662 H 64.7645 -2.40834 -0.828912 0
M  V30 663 H 65.5475 -3.39315 0.521561 0
M  V30 664 N 67.9926 0.231505 -1.5589 0
M  V30 665 C 68.9426 1.29007 -1.87993 0
M  V30 666 C 69.9266 1.42764 -0.742102 0
M  V30 667 O 71.1186 1.45747 -1.00433 0
M  V30 668 C 68.2476 2.6425 -2.1915 0
M  V30 669 C 67.3336 2.54435 -3.39299 0
M  V30 670 N 67.7246 2.14262 -4.58176 0
M  V30 671 C 66.0226 2.85416 -3.42715 0
M  V30 672 C 66.7236 2.15455 -5.40328 0
M  V30 673 N 65.6996 2.55558 -4.79783 0
M  V30 674 H 69.5016 0.970213 -2.77424 0
M  V30 675 H 67.0156 0.440097 -1.56323 0
M  V30 676 H 69.0126 3.40665 -2.40319 0
M  V30 677 H 67.6726 2.9709 -1.31025 0
M  V30 678 H 68.6836 1.85554 -4.83518 0
M  V30 679 H 65.3606 3.22693 -2.64906 0
M  V30 680 H 66.7506 1.86605 -6.45467 0
M  V30 681 N 69.4707 1.49531 0.497807 0
M  V30 682 C 70.7107 1.60799 1.26187 0
M  V30 683 C 71.0747 0.289627 1.89803 0
M  V30 684 O 72.2757 0.277512 2.67364 0
M  V30 685 C 70.5467 2.73729 2.29798 0
M  V30 686 S 72.1057 3.04968 3.155 0
M  V30 687 H 68.9237 0.567145 0.428798 0
M  V30 688 H 71.5257 1.87204 0.563477 0
M  V30 689 H 70.2297 3.68036 1.81597 0
M  V30 690 H 69.7607 2.49328 3.04301 0
M  V30 691 H 71.7757 2.46735 4.30507 0
M  V30 692 N 70.9488 -0.749086 1.3866 0
M  V30 693 C 72.3598 -1.32664 1.31366 0
M  V30 694 C 72.7108 -1.96179 -0.028484 0
M  V30 695 O 71.8358 -1.9537 -0.93057 0
M  V30 696 C 72.4308 -2.41219 2.37905 0
M  V30 697 C 70.9898 -2.94684 2.34176 0
M  V30 698 C 70.1368 -1.68108 2.20533 0
M  V30 699 H 73.0878 -0.547628 1.48952 0
M  V30 700 H 73.1088 -3.21268 2.0388 0
M  V30 701 H 72.6208 -1.94962 3.35576 0
M  V30 702 H 70.7218 -3.45258 1.401 0
M  V30 703 H 70.8348 -3.48757 3.2849 0
M  V30 704 H 69.1988 -1.91907 1.67463 0
M  V30 705 H 69.9818 -1.23923 3.20153 0
M  V30 706 N 72.4269 -1.23603 -0.977757 0
M  V30 707 C 73.6729 -1.07129 -1.72195 0
M  V30 708 C 74.0059 0.390501 -1.90233 0
M  V30 709 O 73.2809 1.28902 -1.45653 0
M  V30 710 C 73.5639 -1.80031 -3.11867 0
M  V30 711 C 73.4169 -3.33899 -3.01383 0
M  V30 712 C 74.7359 -1.56492 -4.11337 0
M  V30 713 H 71.8549 -0.390571 -0.624999 0
M  V30 714 H 74.4969 -1.52142 -1.13811 0
M  V30 715 H 72.6469 -1.41768 -3.6171 0
M  V30 716 H 74.3189 -3.81699 -2.59043 0
M  V30 717 H 72.5619 -3.62796 -2.37827 0
M  V30 718 H 73.2329 -3.801 -4.00285 0
M  V30 719 H 75.7089 -1.89757 -3.70313 0
M  V30 720 H 74.5849 -2.09973 -5.07151 0
M  V30 721 H 74.8459 -0.500874 -4.39254 0
M  V30 722 N 73.905 1.17692 -1.04816 0
M  V30 723 C 75.135 1.91508 -0.775128 0
M  V30 724 C 75.543 1.76844 0.67253 0
M  V30 725 O 74.886 1.10057 1.47082 0
M  V30 726 C 74.948 3.43167 -1.0713 0
M  V30 727 C 74.612 3.81612 -2.51438 0
M  V30 728 C 75.609 3.84772 -3.49638 0
M  V30 729 C 73.294 4.12687 -2.86348 0
M  V30 730 C 75.288 4.18469 -4.80794 0
M  V30 731 C 72.975 4.46053 -4.17708 0
M  V30 732 C 73.973 4.48921 -5.14741 0
M  V30 733 O 73.661 4.81504 -6.43746 0
M  V30 734 H 73.393 0.614575 -0.281555 0
M  V30 735 H 75.947 1.50206 -1.40098 0
M  V30 736 H 74.177 3.84745 -0.388342 0
M  V30 737 H 75.866 3.98239 -0.784883 0
M  V30 738 H 76.632 3.60893 -3.24008 0
M  V30 739 H 72.511 4.09627 -2.11486 0
M  V30 740 H 76.055 4.20623 -5.56527 0
M  V30 741 H 71.952 4.69393 -4.43103 0
M  V30 742 H 72.72 4.99377 -6.4851 0
M  V30 743 N 75.3831 0.828654 1.34056 0
M  V30 744 C 76.6291 0.42008 1.98402 0
M  V30 745 C 76.9621 -1.01564 1.65525 0
M  V30 746 O 76.2371 -1.70834 0.929831 0
M  V30 747 C 76.5201 0.62927 3.54559 0
M  V30 748 C 76.3731 2.11152 3.97159 0
M  V30 749 C 77.6921 0.0688756 4.40046 0
M  V30 750 H 74.8111 0.154104 0.720709 0
M  V30 751 H 77.4531 1.04228 1.5886 0
M  V30 752 H 75.6031 0.0996418 3.88372 0
M  V30 753 H 77.2751 2.70522 3.73651 0
M  V30 754 H 75.5181 2.59985 3.47261 0
M  V30 755 H 76.1891 2.20868 5.05887 0
M  V30 756 H 78.6651 0.521458 4.1282 0
M  V30 757 H 77.5411 0.245006 5.48353 0
M  V30 758 H 77.8021 -1.0266 4.30015 0
M  V30 759 N 76.8612 -1.46375 0.584142 0
M  V30 760 C 78.2722 -1.86031 0.157959 0
M  V30 761 C 78.6232 -1.48753 -1.27933 0
M  V30 762 O 77.7482 -0.903098 -1.96655 0
M  V30 763 C 78.3432 -3.37642 0.279892 0
M  V30 764 C 76.9022 -3.76289 -0.09143 0
M  V30 765 C 76.0492 -2.7039 0.615178 0
M  V30 766 H 79.0002 -1.37509 0.792274 0
M  V30 767 H 79.0212 -3.77275 -0.494364 0
M  V30 768 H 78.5332 -3.64742 1.32607 0
M  V30 769 H 76.6342 -3.54806 -1.13769 0
M  V30 770 H 76.7472 -4.78246 0.285886 0
M  V30 771 H 75.1112 -2.5464 0.0552833 0
M  V30 772 H 75.8942 -3.0033 1.66303 0
M  V30 773 N 78.3393 -0.321999 -1.54275 0
M  V30 774 C 79.6163 0.335232 -1.92706 0
M  V30 775 C 79.9963 1.70006 -1.25145 0
M  V30 776 O 79.3443 2.25067 -0.394596 0
M  V30 777 C 79.5543 0.429008 -3.46353 0
M  V30 778 C 80.9023 0.690029 -4.18956 0
M  V30 779 O 81.9263 0.511992 -3.52501 0
M  V30 780 O 80.7853 1.03338 -5.36641 0
M  V30 781 H 77.8793 0.191143 -0.804608 0
M  V30 782 H 80.4253 -0.3716 -1.65581 0
M  V30 783 H 79.1973 -0.529611 -3.87699 0
M  V30 784 H 78.8203 1.18348 -3.79578 0
M  V30 785 N 79.8174 1.5752 -0.0501392 0
M  V30 786 C 81.2284 1.80271 0.485705 0
M  V30 787 C 81.5794 0.96228 1.70981 0
M  V30 788 O 80.7044 0.178578 2.15662 0
M  V30 789 C 81.2994 3.26957 0.887938 0
M  V30 790 C 79.8584 3.5063 1.36877 0
M  V30 791 C 79.0054 2.75165 0.343468 0
M  V30 792 H 81.9564 1.56281 -0.276028 0
M  V30 793 H 81.9774 3.37821 1.75093 0
M  V30 794 H 81.4894 3.881 -0.0031809 0
M  V30 795 H 79.5904 2.94766 2.27911 0
M  V30 796 H 79.7034 4.59343 1.36164 0
M  V30 797 H 78.0674 2.4127 0.816128 0
M  V30 798 H 78.8504 3.39034 -0.539548 0
M  V30 799 N 81.2955 -0.223234 1.56011 0
M  V30 800 C 82.5235 -0.964812 1.83027 0
M  V30 801 C 82.9385 -1.78013 0.62904 0
M  V30 802 O 82.2955 -1.78008 -0.402414 0
M  V30 803 C 82.3465 -1.88373 3.08542 0
M  V30 804 O 82.0675 -1.10137 4.2403 0
M  V30 805 C 83.5685 -2.73934 3.48533 0
M  V30 806 H 80.7885 -0.282842 0.608475 0
M  V30 807 H 83.3325 -0.238971 2.03099 0
M  V30 808 H 81.4875 -2.56354 2.9045 0
M  V30 809 H 81.9015 -1.72501 4.95322 0
M  V30 810 H 83.3755 -3.34117 4.39397 0
M  V30 811 H 83.8525 -3.46244 2.70207 0
M  V30 812 H 84.4585 -2.11369 3.69057 0
M  V30 813 N 82.7736 -1.49793 -0.48987 0
M  V30 814 C 83.9986 -1.63836 -1.27172 0
M  V30 815 C 84.4236 -0.31402 -1.8546 0
M  V30 816 O 83.7816 0.719803 -1.66399 0
M  V30 817 C 83.8296 -2.71797 -2.36978 0
M  V30 818 O 82.9336 -2.31744 -3.41128 0
M  V30 819 H 82.2746 -0.547997 -0.37496 0
M  V30 820 H 84.8046 -1.96053 -0.585191 0
M  V30 821 H 84.8146 -2.94305 -2.82575 0
M  V30 822 H 83.4896 -3.67923 -1.93921 0
M  V30 823 H 82.0666 -2.1961 -3.01373 0
M  V30 824 N 84.2517 0.741722 -1.39055 0
M  V30 825 C 85.4797 1.53098 -1.39171 0
M  V30 826 C 85.8947 1.88794 0.0155099 0
M  V30 827 O 85.2517 1.53626 0.985159 0
M  V30 828 C 85.3027 2.82274 -2.2584 0
M  V30 829 O 85.0237 2.48097 -3.61081 0
M  V30 830 C 86.5247 3.76343 -2.34266 0
M  V30 831 H 83.7447 0.473335 -0.4756 0
M  V30 832 H 86.2887 0.917045 -1.82785 0
M  V30 833 H 84.4437 3.40015 -1.85656 0
M  V30 834 H 84.8577 3.31029 -4.06842 0
M  V30 835 H 86.3317 4.63898 -2.9917 0
M  V30 836 H 86.8087 4.17619 -1.35982 0
M  V30 837 H 87.4147 3.24523 -2.74891 0
M  V30 838 N 85.7298 1.2412 0.971189 0
M  V30 839 C 86.9788 1.07284 1.70801 0
M  V30 840 C 87.2918 -0.388902 1.91695 0
M  V30 841 O 88.4978 -0.677379 2.62914 0
M  V30 842 C 86.9538 1.87145 3.07416 0
M  V30 843 C 86.5618 3.37707 2.94377 0
M  V30 844 C 88.3058 1.78828 3.84995 0
M  V30 845 C 86.2128 4.09925 4.26281 0
M  V30 846 H 85.1428 0.397854 0.64049 0
M  V30 847 H 87.7938 1.4817 1.0825 0
M  V30 848 H 86.1758 1.39071 3.70777 0
M  V30 849 H 87.3498 3.93335 2.4005 0
M  V30 850 H 85.6648 3.46938 2.30267 0
M  V30 851 H 88.2618 2.30089 4.82662 0
M  V30 852 H 88.6048 0.75284 4.09436 0
M  V30 853 H 89.1378 2.24563 3.28354 0
M  V30 854 H 85.8768 5.13813 4.07033 0
M  V30 855 H 85.3968 3.59083 4.80437 0
M  V30 856 H 87.0758 4.1673 4.94919 0
M  V30 857 N 87.2079 -1.17134 1.05439 0
M  V30 858 C 88.1549 -2.21235 0.657539 0
M  V30 859 C 89.1249 -1.62551 -0.341543 0
M  V30 860 O 90.3099 -1.89379 -0.232393 0
M  V30 861 C 87.4499 -3.45076 0.0410575 0
M  V30 862 C 86.5629 -4.18042 1.08927 0
M  V30 863 C 85.6979 -5.29376 0.439848 0
M  V30 864 C 84.7369 -5.94132 1.4722 0
M  V30 865 N 83.8739 -6.96975 0.846756 0
M  V30 866 H 88.7139 -2.54534 1.54972 0
M  V30 867 H 86.2509 -1.25028 0.775006 0
M  V30 868 H 88.2089 -4.15862 -0.33383 0
M  V30 869 H 86.8389 -3.12353 -0.814568 0
M  V30 870 H 85.8909 -3.45945 1.58196 0
M  V30 871 H 87.2029 -4.62306 1.87282 0
M  V30 872 H 86.3569 -6.06699 0.0115125 0
M  V30 873 H 85.0959 -4.86251 -0.375656 0
M  V30 874 H 84.1009 -5.15538 1.91052 0
M  V30 875 H 85.3259 -6.39337 2.28965 0
M  V30 876 H 83.2719 -6.5598 0.0518075 0
M  V30 877 H 83.1889 -7.39565 1.5678 0
M  V30 878 H 84.4569 -7.78239 0.443277 0
M  V30 879 N 88.686 -0.835752 -1.33615 0
M  V30 880 C 90.097 -0.487099 -1.80234 0
M  V30 881 C 90.448 0.993627 -1.69179 0
M  V30 882 O 89.573 1.77403 -1.23924 0
M  V30 883 C 90.168 -0.877385 -3.27242 0
M  V30 884 C 88.727 -0.580915 -3.7189 0
M  V30 885 C 87.874 -1.0874 -2.5509 0
M  V30 886 H 90.825 -1.02474 -1.2118 0
M  V30 887 H 90.846 -0.186195 -3.80044 0
M  V30 888 H 90.358 -1.95512 -3.35256 0
M  V30 889 H 88.459 0.486881 -3.69405 0
M  V30 890 H 88.572 -1.13396 -4.65487 0
M  V30 891 H 86.936 -0.508392 -2.49575 0
M  V30 892 H 87.719 -2.17184 -2.65868 0
M  V30 893 N 90.1641 1.46063 -0.591896 0
M  V30 894 C 91.4121 2.01938 -0.0808391 0
M  V30 895 C 91.7331 1.46475 1.28725 0
M  V30 896 O 91.0031 0.652944 1.84698 0
M  V30 897 H 89.5831 0.746516 -0.0268938 0
M  V30 898 H 92.2451 1.79055 -0.769752 0
M  V30 899 H 91.3411 3.12094 -0.0187578 0
M  V30 900 N 91.6422 0.330177 1.54103 0
M  V30 901 C 93.0532 -0.15652 1.86043 0
M  V30 902 C 93.4042 -1.51086 1.2517 0
M  V30 903 O 92.5292 -2.09023 0.560217 0
M  V30 904 C 93.1242 -0.290784 3.3755 0
M  V30 905 C 91.6832 -0.721705 3.69416 0
M  V30 906 C 90.8302 0.152622 2.7688 0
M  V30 907 H 93.7812 0.550237 1.48856 0
M  V30 908 H 93.8022 -1.12058 3.63625 0
M  V30 909 H 93.3142 0.695068 3.81825 0
M  V30 910 H 91.4152 -1.71706 3.30678 0
M  V30 911 H 91.5282 -0.520869 4.7626 0
M  V30 912 H 89.8922 -0.372894 2.51956 0
M  V30 913 H 90.6752 1.13536 3.23982 0
M  V30 914 N 93.1203 -1.57491 0.0584922 0
M  V30 915 C 94.0683 -2.13148 -0.931168 0
M  V30 916 C 95.0623 -1.06507 -1.31729 0
M  V30 917 O 96.2683 -1.24906 -1.29609 0
M  V30 918 H 92.6433 -0.68137 -0.31818 0
M  V30 919 H 94.6143 -2.95187 -0.436707 0
M  V30 920 C 93.3633 -2.69732 -2.19408 0
M  V30 921 H 92.6863 -3.51454 -1.90578 0
M  V30 922 H 94.1263 -3.12287 -2.86798 0
M  V30 923 C 92.5853 -1.63855 -2.94369 0
M  V30 924 O 93.1153 -1.05565 -3.87581 0
M  V30 925 N 91.3213 -1.35202 -2.57233 0
M  V30 926 H 90.8683 -1.82791 -1.81508 0
M  V30 927 H 90.8263 -0.645922 -3.07693 0
M  V30 928 N 94.5984 0.214957 -1.56127 0
M  V30 929 C 95.8234 0.95924 -1.83884 0
M  V30 930 C 96.2484 1.7689 -0.639644 0
M  V30 931 O 95.6064 1.76566 0.411601 0
M  V30 932 C 95.6544 1.84723 -3.09693 0
M  V30 933 O 94.7584 2.94346 -2.8885 0
M  V30 934 H 94.0994 0.27125 -0.606069 0
M  V30 935 H 96.6294 0.226276 -2.03345 0
M  V30 936 H 96.6394 2.25576 -3.39969 0
M  V30 937 H 95.3144 1.25218 -3.96602 0
M  V30 938 H 93.8914 2.57391 -2.69823 0
M  V30 939 N 96.0765 1.50051 0.48192 0
M  V30 940 C 97.0265 1.64512 1.5786 0
M  V30 941 C 98.0105 0.500073 1.52932 0
M  V30 942 O 99.2025 0.753964 1.60139 0
M  V30 943 C 96.3315 1.73263 2.9637 0
M  V30 944 C 95.4175 2.93409 3.06222 0
M  V30 945 N 95.8085 4.17236 2.85915 0
M  V30 946 C 94.1065 2.91742 3.37346 0
M  V30 947 C 94.8075 4.981 3.00451 0
M  V30 948 N 93.7835 4.3184 3.30174 0
M  V30 949 H 97.5855 2.57955 1.40842 0
M  V30 950 H 95.0995 1.47086 0.688439 0
M  V30 951 H 97.0965 1.81724 3.75209 0
M  V30 952 H 95.7565 0.809711 3.14442 0
M  V30 953 H 96.7675 4.46909 2.6171 0
M  V30 954 H 93.4445 2.08907 3.61475 0
M  V30 955 H 94.8345 6.06532 2.89082 0
M  V30 956 N 97.5546 -0.734337 1.39446 0
M  V30 957 C 98.5026 -1.86971 1.38364 0
M  V30 958 C 99.4966 -1.67288 0.266687 0
M  V30 959 O 100.703 -1.74621 0.436755 0
M  V30 960 H 97.0776 -0.615474 0.432082 0
M  V30 961 H 99.0486 -1.85 2.34132 0
M  V30 962 C 97.7976 -3.2466 1.24465 0
M  V30 963 H 97.1206 -3.40402 2.09682 0
M  V30 964 H 98.5606 -4.04292 1.27764 0
M  V30 965 C 97.0196 -3.36867 -0.0468674 0
M  V30 966 O 97.5496 -3.88618 -1.01681 0
M  V30 967 N 95.7556 -2.90391 -0.110145 0
M  V30 968 H 95.3026 -2.48466 0.679868 0
M  V30 969 H 95.2606 -2.98939 -0.973799 0
M  V30 970 N 99.0327 -1.24633 -0.964593 0
M  V30 971 C 100.258 -1.11596 -1.74818 0
M  V30 972 C 100.683 0.32723 -1.85232 0
M  V30 973 O 100.041 1.23695 -1.32549 0
M  V30 974 C 100.089 -1.76397 -3.1451 0
M  V30 975 O 99.1927 -1.03685 -3.99153 0
M  V30 976 H 98.5337 -0.390196 -0.537255 0
M  V30 977 H 101.064 -1.65002 -1.20977 0
M  V30 978 H 101.074 -1.8228 -3.65018 0
M  V30 979 H 99.7487 -2.81401 -3.06246 0
M  V30 980 H 98.3257 -1.05611 -3.57632 0
M  V30 981 N 100.511 1.16574 -1.06058 0
M  V30 982 C 101.459 2.22941 -0.663343 0
M  V30 983 C 102.453 1.66358 0.319593 0
M  V30 984 O 103.659 1.7905 0.184713 0
M  V30 985 H 100.034 0.725907 -0.196376 0
M  V30 986 H 102.005 2.53736 -1.57037 0
M  V30 987 C 100.754 3.47642 -0.0632808 0
M  V30 988 H 100.077 3.91493 -0.810733 0
M  V30 989 H 101.517 4.2363 0.177177 0
M  V30 990 C 99.9758 3.1509 1.19248 0
M  V30 991 O 100.506 3.30673 2.28075 0
M  V30 992 N 98.7118 2.6924 1.09353 0
M  V30 993 H 98.2588 2.5676 0.207912 0
M  V30 994 H 98.2168 2.47833 1.93458 0
M  V30 995 N 101.989 0.842826 1.3317 0
M  V30 996 C 103.217 0.454055 2.01856 0
M  V30 997 C 103.632 -0.94587 1.63397 0
M  V30 998 O 102.989 -1.61534 0.849302 0
M  V30 999 C 103.04 0.569715 3.56982 0
M  V30 1000 O 102.761 1.91448 3.94055 0
M  V30 1001 C 104.262 0.178412 4.42941 0
M  V30 1002 H 101.482 0.17979 0.646465 0
M  V30 1003 H 104.026 1.1365 1.70012 0
M  V30 1004 H 102.181 -0.0648587 3.87346 0
M  V30 1005 H 102.595 1.90282 4.88767 0
M  V30 1006 H 104.069 0.310376 5.51127 0
M  V30 1007 H 104.546 -0.880056 4.30293 0
M  V30 1008 H 105.152 0.787579 4.17944 0
M  V30 1009 N 103.467 -1.45747 0.599634 0
M  V30 1010 C 104.878 -1.85853 0.177681 0
M  V30 1011 C 105.229 -1.50102 -1.26348 0
M  V30 1012 O 104.354 -0.923905 -1.95686 0
M  V30 1013 C 104.949 -3.37326 0.315688 0
M  V30 1014 C 103.508 -3.76365 -0.0515144 0
M  V30 1015 C 102.655 -2.69722 0.643822 0
M  V30 1016 H 105.606 -1.36661 0.806814 0
M  V30 1017 H 105.627 -3.77778 -0.454321 0
M  V30 1018 H 105.139 -3.63315 1.36468 0
M  V30 1019 H 103.24 -3.55993 -1.09999 0
M  V30 1020 H 103.353 -4.77916 0.336594 0
M  V30 1021 H 101.717 -2.54567 0.0822881 0
M  V30 1022 H 102.5 -2.98549 1.6948 0
M  V30 1023 N 104.945 -0.338344 -1.53925 0
M  V30 1024 C 106.193 0.259245 -2.0043 0
M  V30 1025 C 106.514 1.51484 -1.22791 0
M  V30 1026 O 105.784 1.93037 -0.33368 0
M  V30 1027 H 104.364 0.0987845 -0.740439 0
M  V30 1028 H 107.026 -0.458302 -1.89435 0
M  V30 1029 H 106.122 0.505334 -3.07982 0
M  V30 1030 N 106.423 1.57458 -0.0668435 0
M  V30 1031 C 107.672 1.92477 0.602947 0
M  V30 1032 C 107.985 0.948419 1.71068 0
M  V30 1033 O 109.191 1.19124 2.43971 0
M  V30 1034 C 107.647 3.41903 1.12383 0
M  V30 1035 C 107.255 4.47975 0.04737 0
M  V30 1036 C 108.999 3.85931 1.76797 0
M  V30 1037 C 106.906 5.88529 0.582022 0
M  V30 1038 H 105.836 0.718387 0.22899 0
M  V30 1039 H 108.487 1.82978 -0.138276 0
M  V30 1040 H 106.869 3.46459 1.91787 0
M  V30 1041 H 108.043 4.55029 -0.726978 0
M  V30 1042 H 106.358 4.13384 -0.500243 0
M  V30 1043 H 108.955 4.88322 2.17821 0
M  V30 1044 H 109.298 3.23029 2.62599 0
M  V30 1045 H 109.831 3.83958 1.04024 0
M  V30 1046 H 106.57 6.55065 -0.238721 0
M  V30 1047 H 106.09 5.85004 1.324 0
M  V30 1048 H 107.769 6.38258 1.05999 0
M  V30 1049 N 107.901 -0.206675 1.56239 0
M  V30 1050 C 109.317 -0.557025 1.49564 0
M  V30 1051 C 109.517 -1.86424 0.764735 0
M  V30 1052 O 108.573 -2.50584 0.310491 0
M  V30 1053 C 109.886 -0.622478 2.94186 0
M  V30 1054 C 111.434 -0.712099 3.04792 0
M  V30 1055 C 111.909 -0.808767 4.50803 0
M  V30 1056 N 113.4 -0.8726 4.54907 0
M  V30 1057 C 114.135 -0.967365 5.65181 0
M  V30 1058 N 113.631 -1.02515 6.85173 0
M  V30 1059 N 115.424 -1.00366 5.53067 0
M  V30 1060 H 107.575 0.650943 2.02179 0
M  V30 1061 H 109.838 0.230387 0.919579 0
M  V30 1062 H 109.544 0.268727 3.50672 0
M  V30 1063 H 109.418 -1.4811 3.46905 0
M  V30 1064 H 111.805 -1.59374 2.48363 0
M  V30 1065 H 111.886 0.172489 2.55218 0
M  V30 1066 H 111.53 0.0684754 5.07854 0
M  V30 1067 H 111.46 -1.70899 4.98098 0
M  V30 1068 H 113.951 -0.837657 3.68499 0
M  V30 1069 H 114.264 -1.09765 7.64965 0
M  V30 1070 H 112.609 -0.994026 6.87855 0
M  V30 1071 H 115.8 -0.95527 4.58249 0
M  V30 1072 H 115.973 -1.07405 6.39037 0
M  V30 1073 N 109.379 -1.50304 -0.473955 0
M  V30 1074 C 110.289 -1.7174 -1.5982 0
M  V30 1075 C 111.305 -0.600457 -1.63311 0
M  V30 1076 O 112.481 -0.878441 -1.81233 0
M  V30 1077 C 109.546 -1.80427 -2.96052 0
M  V30 1078 C 108.607 -3.04148 -3.02972 0
M  V30 1079 C 107.84 -3.12411 -4.32706 0
M  V30 1080 O 108.063 -2.27542 -5.23049 0
M  V30 1081 O 106.997 -4.05113 -4.45159 0
M  V30 1082 H 110.823 -2.67035 -1.44657 0
M  V30 1083 H 108.408 -1.34366 -0.653148 0
M  V30 1084 H 110.29 -1.88338 -3.7697 0
M  V30 1085 H 108.965 -0.883156 -3.11419 0
M  V30 1086 H 107.872 -3.0174 -2.21142 0
M  V30 1087 H 109.205 -3.95829 -2.92541 0
M  V30 1088 N 110.857 0.726932 -1.39834 0
M  V30 1089 C 111.82 1.82269 -1.38962 0
M  V30 1090 C 112.82 1.58248 -0.285334 0
M  V30 1091 O 114.01 1.65499 -0.54366 0
M  V30 1092 C 111.142 3.20186 -1.17019 0
M  V30 1093 H 112.335 1.84443 -2.36476 0
M  V30 1094 H 109.888 0.931416 -1.25516 0
M  V30 1095 H 110.623 3.23669 -0.202204 0
M  V30 1096 H 110.408 3.3902 -1.96998 0
M  V30 1097 H 111.898 4.00235 -1.1917 0
M  V30 1098 N 112.336 1.25143 0.95797 0
M  V30 1099 C 113.584 1.09476 1.69881 0
M  V30 1100 C 113.905 -0.365502 1.91544 0
M  V30 1101 O 113.175 -1.25985 1.50015 0
M  V30 1102 H 111.755 0.402128 0.629525 0
M  V30 1103 H 114.417 1.57214 1.15194 0
M  V30 1104 H 113.513 1.60046 2.6794 0
M  V30 1105 N 113.814 -1.1601 1.06675 0
M  V30 1106 C 115.039 -1.91068 0.806706 0
M  V30 1107 C 115.464 -1.77112 -0.633485 0
M  V30 1108 O 114.822 -1.09908 -1.44187 0
M  V30 1109 C 114.87 -3.39655 1.21106 0
M  V30 1110 O 113.974 -4.10893 0.352189 0
M  V30 1111 H 113.315 -0.595125 0.294486 0
M  V30 1112 H 115.845 -1.46955 1.42356 0
M  V30 1113 H 115.855 -3.90434 1.18428 0
M  V30 1114 H 114.53 -3.49132 2.26008 0
M  V30 1115 H 113.107 -3.70285 0.440868 0
M  V30 1116 N 115.292 -0.849877 -1.32721 0
M  V30 1117 C 116.202 -0.293791 -2.32753 0
M  V30 1118 C 117.218 0.585906 -1.63839 0
M  V30 1119 O 118.394 0.487413 -1.95413 0
M  V30 1120 C 115.459 0.512752 -3.42887 0
M  V30 1121 C 114.52 -0.39252 -4.27502 0
M  V30 1122 C 113.753 0.375625 -5.32377 0
M  V30 1123 O 113.976 1.60613 -5.4732 0
M  V30 1124 O 112.91 -0.256094 -6.01355 0
M  V30 1125 H 116.736 -1.12242 -2.82197 0
M  V30 1126 H 114.321 -0.612685 -1.36259 0
M  V30 1127 H 116.203 0.970704 -4.10067 0
M  V30 1128 H 114.878 1.31826 -2.95641 0
M  V30 1129 H 113.785 -0.898547 -3.63149 0
M  V30 1130 H 115.118 -1.16309 -4.7826 0
M  V30 1131 N 116.77 1.45427 -0.607355 0
M  V30 1132 C 118.047 1.9557 -0.0344566 0
M  V30 1133 C 118.427 1.54979 1.43334 0
M  V30 1134 O 117.775 0.812241 2.13576 0
M  V30 1135 C 117.985 3.48226 -0.232321 0
M  V30 1136 C 119.333 4.2445 -0.113001 0
M  V30 1137 O 120.357 3.55829 -0.162431 0
M  V30 1138 O 119.216 5.465 0.00209442 0
M  V30 1139 H 116.31 0.826222 0.0358667 0
M  V30 1140 H 118.856 1.55594 -0.6774 0
M  V30 1141 H 117.628 3.70739 -1.25174 0
M  V30 1142 H 117.251 3.95092 0.445896 0
M  V30 1143 N 118.248 0.346503 1.53744 0
M  V30 1144 C 119.497 -0.250122 2.00143 0
M  V30 1145 C 119.81 -1.51418 1.23822 0
M  V30 1146 O 121.016 -2.18823 1.60713 0
M  V30 1147 C 119.472 -0.496252 3.56462 0
M  V30 1148 C 119.08 0.752077 4.41642 0
M  V30 1149 C 120.824 -1.05157 4.11269 0
M  V30 1150 C 118.731 0.476583 5.89477 0
M  V30 1151 H 117.661 -0.0972409 0.747703 0
M  V30 1152 H 120.312 0.46229 1.77581 0
M  V30 1153 H 118.694 -1.26944 3.75102 0
M  V30 1154 H 119.868 1.5266 4.34778 0
M  V30 1155 H 118.183 1.22925 3.97842 0
M  V30 1156 H 120.78 -1.27269 5.19333 0
M  V30 1157 H 121.123 -2.00799 3.64672 0
M  V30 1158 H 121.656 -0.339019 3.96353 0
M  V30 1159 H 118.395 1.4028 6.40314 0
M  V30 1160 H 117.915 -0.259794 5.99237 0
M  V30 1161 H 119.594 0.0949315 6.4693 0
M  V30 1162 N 119.726 -1.57421 0.075193 0
M  V30 1163 C 120.975 -1.92794 -0.592731 0
M  V30 1164 C 121.288 -0.957478 -1.70563 0
M  V30 1165 O 122.494 -1.20417 -2.43335 0
M  V30 1166 C 120.95 -3.42495 -1.10569 0
M  V30 1167 C 120.558 -4.47994 -0.0236121 0
M  V30 1168 C 122.302 -3.86864 -1.74748 0
M  V30 1169 C 120.209 -5.88829 -0.550803 0
M  V30 1170 H 119.139 -0.719591 -0.225177 0
M  V30 1171 H 121.79 -1.82902 0.147978 0
M  V30 1172 H 120.172 -3.47471 -1.89947 0
M  V30 1173 H 121.346 -4.54637 0.751099 0
M  V30 1174 H 119.661 -4.13113 0.522159 0
M  V30 1175 H 122.258 -4.8947 -2.15229 0
M  V30 1176 H 122.601 -3.24417 -2.60882 0
M  V30 1177 H 123.134 -3.84504 -1.01986 0
M  V30 1178 H 119.873 -6.54929 0.273457 0
M  V30 1179 H 119.393 -5.85698 -1.29296 0
M  V30 1180 H 121.072 -6.38811 -1.02613 0
M  V30 1181 N 121.204 0.198386 -1.56346 0
M  V30 1182 C 122.45 0.920648 -1.80698 0
M  V30 1183 C 122.783 1.83045 -0.648697 0
M  V30 1184 O 122.058 1.91308 0.350925 0
M  V30 1185 C 122.341 1.73971 -3.15287 0
M  V30 1186 C 122.194 0.85485 -4.41602 0
M  V30 1187 C 123.513 2.71296 -3.46535 0
M  V30 1188 H 120.632 0.333261 -0.657348 0
M  V30 1189 H 123.274 0.188198 -1.89066 0
M  V30 1190 H 121.424 2.36416 -3.08285 0
M  V30 1191 H 123.096 0.245362 -4.60647 0
M  V30 1192 H 121.339 0.161398 -4.335 0
M  V30 1193 H 122.01 1.46286 -5.32264 0
M  V30 1194 H 124.486 2.18983 -3.53816 0
M  V30 1195 H 123.362 3.2569 -4.41834 0
M  V30 1196 H 123.623 3.5018 -2.69864 0
M  V30 1197 N 122.682 1.50554 0.465978 0
M  V30 1198 C 123.928 1.62038 1.21949 0
M  V30 1199 C 124.261 0.322116 1.9151 0
M  V30 1200 O 123.536 -0.676723 1.82348 0
M  V30 1201 C 123.819 2.80421 2.25912 0
M  V30 1202 C 123.672 4.20144 1.60622 0
M  V30 1203 C 124.991 2.94354 3.27176 0
M  V30 1204 H 122.11 0.589752 0.441998 0
M  V30 1205 H 124.752 1.82956 0.51257 0
M  V30 1206 H 122.902 2.62717 2.86203 0
M  V30 1207 H 124.574 4.49449 1.03889 0
M  V30 1208 H 122.817 4.24165 0.909211 0
M  V30 1209 H 123.488 4.98914 2.36196 0
M  V30 1210 H 125.964 3.10578 2.76913 0
M  V30 1211 H 124.84 3.788 3.97242 0
M  V30 1212 H 125.101 2.05186 3.916 0
M  V30 1213 N 124.16 -0.719506 1.40217 0
M  V30 1214 C 125.123 -1.8153 1.39927 0
M  V30 1215 C 126.123 -1.58095 0.293723 0
M  V30 1216 O 127.313 -1.65209 0.552429 0
M  V30 1217 C 124.445 -3.19561 1.18716 0
M  V30 1218 H 125.638 -1.83186 2.37451 0
M  V30 1219 H 123.191 -0.924746 1.26008 0
M  V30 1220 H 123.926 -3.23557 0.219366 0
M  V30 1221 H 123.711 -3.3797 1.98793 0
M  V30 1222 H 125.201 -3.99598 1.21291 0
M  V30 1223 N 125.638 -1.25649 -0.95132 0
M  V30 1224 C 126.568 -1.08808 -2.06599 0
M  V30 1225 C 127.549 0.00382547 -1.701 0
M  V30 1226 O 128.734 -0.166325 -1.93486 0
M  V30 1227 C 125.864 -0.709542 -3.39975 0
M  V30 1228 C 124.818 -1.75206 -3.90496 0
M  V30 1229 C 124.144 -1.22811 -5.20405 0
M  V30 1230 C 125.444 -3.15153 -4.16504 0
M  V30 1231 H 127.138 -2.02048 -2.20946 0
M  V30 1232 H 124.684 -0.972835 -1.06169 0
M  V30 1233 H 126.637 -0.578649 -4.17408 0
M  V30 1234 H 125.361 0.258556 -3.25575 0
M  V30 1235 H 124.02 -1.87145 -3.15234 0
M  V30 1236 H 123.668 -0.250145 -5.02378 0
M  V30 1237 H 123.368 -1.92492 -5.55176 0
M  V30 1238 H 124.892 -1.10968 -6.00432 0
M  V30 1239 H 126.306 -3.06349 -4.84586 0
M  V30 1240 H 124.703 -3.82333 -4.62538 0
M  V30 1241 H 125.773 -3.61966 -3.22658 0
M  V30 1242 N 127.117 1.15442 -1.07289 0
M  V30 1243 C 128.347 1.89821 -0.815576 0
M  V30 1244 C 128.755 1.7823 0.634867 0
M  V30 1245 O 128.098 1.13152 1.44715 0
M  V30 1246 C 128.16 3.40817 -1.14385 0
M  V30 1247 C 127.824 3.76193 -2.59476 0
M  V30 1248 C 128.821 3.77269 -3.57721 0
M  V30 1249 C 126.506 4.0652 -2.95037 0
M  V30 1250 C 128.5 4.08176 -4.89562 0
M  V30 1251 C 126.187 4.37092 -4.27076 0
M  V30 1252 C 127.185 4.37902 -5.24148 0
M  V30 1253 O 126.873 4.67741 -6.53815 0
M  V30 1254 H 126.605 0.608465 -0.294528 0
M  V30 1255 H 129.159 1.472 -1.43252 0
M  V30 1256 H 127.389 3.83835 -0.469865 0
M  V30 1257 H 129.078 3.96485 -0.869179 0
M  V30 1258 H 129.844 3.5394 -3.3159 0
M  V30 1259 H 125.723 4.05049 -2.20128 0
M  V30 1260 H 129.267 4.08723 -5.65324 0
M  V30 1261 H 125.164 4.59889 -4.5296 0
M  V30 1262 H 125.932 4.85509 -6.58957 0
M  V30 1263 N 128.595 0.856903 1.32268 0
M  V30 1264 C 129.872 0.382583 1.91822 0
M  V30 1265 C 130.252 -1.13407 1.78051 0
M  V30 1266 O 129.6 -1.95673 1.18001 0
M  V30 1267 C 129.81 0.849446 3.38505 0
M  V30 1268 C 131.158 0.867936 4.15634 0
M  V30 1269 O 132.182 0.794232 3.47232 0
M  V30 1270 O 131.041 0.972286 5.37781 0
M  V30 1271 H 128.135 0.112014 0.819379 0
M  V30 1272 H 130.681 0.943952 1.41024 0
M  V30 1273 H 129.453 1.89267 3.42482 0
M  V30 1274 H 129.076 0.265652 3.96712 0
M  V30 1275 N 130.073 -1.45103 0.615059 0
M  V30 1276 C 131.303 -2.06254 0.119596 0
M  V30 1277 C 131.711 -1.4591 -1.20445 0
M  V30 1278 O 131.054 -0.570384 -1.7462 0
M  V30 1279 C 131.116 -3.59396 -0.0865591 0
M  V30 1280 C 130.78 -4.42116 1.15683 0
M  V30 1281 C 131.777 -4.7662 2.07676 0
M  V30 1282 C 129.462 -4.82749 1.38775 0
M  V30 1283 C 131.456 -5.50622 3.21082 0
M  V30 1284 C 129.143 -5.56504 2.52481 0
M  V30 1285 C 130.141 -5.90358 3.43463 0
M  V30 1286 O 129.829 -6.62615 4.55189 0
M  V30 1287 H 129.561 -0.672423 0.0694512 0
M  V30 1288 H 132.115 -1.87219 0.844885 0
M  V30 1289 H 130.345 -3.76859 -0.866823 0
M  V30 1290 H 132.034 -4.02365 -0.534555 0
M  V30 1291 H 132.8 -4.4578 1.91063 0
M  V30 1292 H 128.679 -4.55829 0.688545 0
M  V30 1293 H 132.223 -5.76965 3.92119 0
M  V30 1294 H 128.12 -5.86759 2.69043 0
M  V30 1295 H 128.888 -6.81071 4.53966 0
M  V30 1296 N 131.551 -0.354651 -1.53558 0
M  V30 1297 C 132.461 0.50515 -2.29097 0
M  V30 1298 C 133.477 1.10223 -1.34636 0
M  V30 1299 O 134.653 1.11553 -1.67684 0
M  V30 1300 C 131.718 1.63479 -3.05738 0
M  V30 1301 C 130.779 1.06636 -4.15845 0
M  V30 1302 C 130.012 2.14217 -4.88822 0
M  V30 1303 O 130.235 3.35137 -4.61562 0
M  V30 1304 O 129.169 1.77887 -5.75013 0
M  V30 1305 H 132.995 -0.109237 -3.03503 0
M  V30 1306 H 130.58 -0.119357 -1.48922 0
M  V30 1307 H 132.462 2.2918 -3.5363 0
M  V30 1308 H 131.137 2.23478 -2.34178 0
M  V30 1309 H 130.044 0.373565 -3.7223 0
M  V30 1310 H 131.377 0.511081 -4.89539 0
M  V30 1311 N 133.029 1.57378 -0.0835403 0
M  V30 1312 C 133.992 2.12252 0.864959 0
M  V30 1313 C 134.992 1.04916 1.21858 0
M  V30 1314 O 136.182 1.30853 1.14991 0
M  V30 1315 C 133.314 2.63358 2.16461 0
M  V30 1316 H 134.507 2.97371 0.388676 0
M  V30 1317 H 132.06 1.55423 0.165317 0
M  V30 1318 H 132.795 1.81727 2.686 0
M  V30 1319 H 132.58 3.41826 1.92087 0
M  V30 1320 H 134.07 3.05847 2.84337 0
M  V30 1321 N 134.507 -0.190092 1.56449 0
M  V30 1322 C 135.756 -0.907912 1.80111 0
M  V30 1323 C 136.069 -1.84214 0.657619 0
M  V30 1324 O 137.275 -2.60094 0.778663 0
M  V30 1325 C 135.731 -1.66485 3.19078 0
M  V30 1326 C 135.339 -0.7752 4.41242 0
M  V30 1327 C 137.083 -2.37201 3.52045 0
M  V30 1328 C 134.99 -1.53129 5.71231 0
M  V30 1329 H 133.92 -0.34276 0.671589 0
M  V30 1330 H 136.571 -0.161109 1.82791 0
M  V30 1331 H 134.953 -2.45572 3.10661 0
M  V30 1332 H 136.127 -0.0226298 4.60794 0
M  V30 1333 H 134.442 -0.178627 4.16017 0
M  V30 1334 H 137.039 -2.94329 4.46402 0
M  V30 1335 H 137.382 -3.11632 2.76028 0
M  V30 1336 H 137.915 -1.65075 3.61932 0
M  V30 1337 H 134.654 -0.82967 6.50228 0
M  V30 1338 H 134.174 -2.25767 5.55688 0
M  V30 1339 H 135.853 -2.08377 6.12526 0
M  V30 1340 N 135.985 -1.50799 -0.457987 0
M  V30 1341 C 136.935 -1.67003 -1.55222 0
M  V30 1342 C 137.919 -0.52434 -1.52117 0
M  V30 1343 O 139.111 -0.779345 -1.58919 0
M  V30 1344 C 136.24 -1.77956 -2.93576 0
M  V30 1345 C 135.326 -2.98243 -3.01516 0
M  V30 1346 N 135.717 -4.21732 -2.79241 0
M  V30 1347 C 134.015 -2.97072 -3.32662 0
M  V30 1348 C 134.716 -5.02817 -2.92489 0
M  V30 1349 N 133.692 -4.37038 -3.23262 0
M  V30 1350 H 137.494 -2.60163 -1.36721 0
M  V30 1351 H 135.008 -1.48163 -0.664952 0
M  V30 1352 H 137.005 -1.87671 -3.72271 0
M  V30 1353 H 135.665 -0.859634 -3.13114 0
M  V30 1354 H 136.676 -4.51016 -2.54567 0
M  V30 1355 H 133.353 -2.14631 -3.58106 0
M  V30 1356 H 134.743 -6.11054 -2.79396 0
M  V30 1357 N 137.463 0.71206 -1.40597 0
M  V30 1358 C 138.413 1.81783 -1.37619 0
M  V30 1359 C 139.397 1.58896 -0.253162 0
M  V30 1360 O 140.589 1.70009 -0.492547 0
M  V30 1361 C 137.718 3.19944 -1.24462 0
M  V30 1362 C 136.804 3.48582 -2.4156 0
M  V30 1363 N 137.195 3.48016 -3.67041 0
M  V30 1364 C 135.493 3.79056 -2.35016 0
M  V30 1365 C 136.194 3.75096 -4.44609 0
M  V30 1366 N 135.17 3.94022 -3.74497 0
M  V30 1367 H 138.972 1.79683 -2.32575 0
M  V30 1368 H 136.486 0.91134 -1.34419 0
M  V30 1369 H 138.483 3.99133 -1.20411 0
M  V30 1370 H 137.143 3.23267 -0.304762 0
M  V30 1371 H 138.154 3.28782 -4.00153 0
M  V30 1372 H 134.831 3.89848 -1.49415 0
M  V30 1373 H 136.221 3.80934 -5.53479 0
M  V30 1374 N 138.941 1.26152 0.944643 0
M  V30 1375 C 139.851 1.09176 2.07648 0
M  V30 1376 C 140.867 0.0261935 1.7398 0
M  V30 1377 O 142.043 0.229208 2.00091 0
M  V30 1378 C 139.108 0.722915 3.39079 0
M  V30 1379 C 138.169 1.86752 3.86552 0
M  V30 1380 C 137.402 1.51617 5.11711 0
M  V30 1381 O 137.625 0.416331 5.68879 0
M  V30 1382 O 136.559 2.34975 5.54139 0
M  V30 1383 H 140.385 2.0412 2.24875 0
M  V30 1384 H 137.97 1.05182 1.061 0
M  V30 1385 H 139.852 0.529787 4.18056 0
M  V30 1386 H 138.527 -0.197159 3.23099 0
M  V30 1387 H 137.434 2.11558 3.08535 0
M  V30 1388 H 138.767 2.76719 4.07047 0
M  V30 1389 N 140.419 -1.14872 1.07899 0
M  V30 1390 C 141.696 -1.81928 0.71845 0
M  V30 1391 C 142.076 -1.95417 -0.798455 0
M  V30 1392 O 141.424 -1.50997 -1.715 0
M  V30 1393 C 141.634 -3.17937 1.43935 0
M  V30 1394 C 142.982 -3.93501 1.59506 0
M  V30 1395 O 144.006 -3.27509 1.40058 0
M  V30 1396 O 142.865 -5.1183 1.91551 0
M  V30 1397 H 139.959 -0.78628 0.256305 0
M  V30 1398 H 142.505 -1.21934 1.18026 0
M  V30 1399 H 141.277 -3.0325 2.47295 0
M  V30 1400 H 140.9 -3.85619 0.968687 0
M  V30 1401 N 141.898 -0.863906 -1.31812 0
M  V30 1402 C 142.828 -0.330843 -2.31144 0
M  V30 1403 C 143.809 0.575005 -1.60087 0
M  V30 1404 O 144.994 0.493304 -1.8783 0
M  V30 1405 C 142.124 0.47374 -3.44054 0
M  V30 1406 C 141.078 -0.338481 -4.26659 0
M  V30 1407 C 140.404 0.591412 -5.31419 0
M  V30 1408 C 141.704 -1.56926 -4.98168 0
M  V30 1409 H 143.398 -1.16086 -2.75979 0
M  V30 1410 H 140.944 -0.559657 -1.32679 0
M  V30 1411 H 142.897 0.857143 -4.12591 0
M  V30 1412 H 141.621 1.33721 -2.9797 0
M  V30 1413 H 140.28 -0.703754 -3.59782 0
M  V30 1414 H 139.928 1.45199 -4.81587 0
M  V30 1415 H 139.628 0.0519022 -5.87577 0
M  V30 1416 H 141.152 0.97179 -6.02817 0
M  V30 1417 H 142.566 -1.25764 -5.59336 0
M  V30 1418 H 140.963 -2.04739 -5.64094 0
M  V30 1419 H 142.033 -2.32544 -4.25501 0
M  V30 1420 N 143.376 1.44774 -0.622745 0
M  V30 1421 C 144.601 2.06999 -0.128968 0
M  V30 1422 C 145.026 1.4617 1.1839 0
M  V30 1423 O 144.384 0.560007 1.72434 0
M  V30 1424 C 144.432 3.60595 -0.0188351 0
M  V30 1425 O 143.536 3.99398 1.02739 0
M  V30 1426 H 142.877 0.659047 -0.0809544 0
M  V30 1427 H 145.407 1.85784 -0.85705 0
M  V30 1428 H 145.417 4.07627 0.174476 0
M  V30 1429 H 144.092 4.04252 -0.977384 0
M  V30 1430 H 142.669 3.64011 0.809326 0
M  V30 1431 N 144.854 0.36279 1.53368 0
M  V30 1432 C 146.101 -0.227776 2.01215 0
M  V30 1433 C 146.429 -1.49003 1.25014 0
M  V30 1434 O 145.684 -1.92876 0.331236 0
M  V30 1435 C 145.983 -0.568417 3.52851 0
M  V30 1436 C 145.649 0.59918 4.46901 0
M  V30 1437 C 144.311 0.919559 4.72332 0
M  V30 1438 C 146.663 1.38156 5.02556 0
M  V30 1439 C 143.991 2.02434 5.5067 0
M  V30 1440 C 146.343 2.47674 5.821 0
M  V30 1441 C 145.007 2.8025 6.05819 0
M  V30 1442 H 144.277 -0.083349 0.736297 0
M  V30 1443 H 146.924 0.494677 1.85001 0
M  V30 1444 H 145.229 -1.37185 3.66998 0
M  V30 1445 H 146.926 -1.03756 3.87344 0
M  V30 1446 H 143.516 0.339437 4.27254 0
M  V30 1447 H 147.7 1.14729 4.82857 0
M  V30 1448 H 142.956 2.28075 5.67267 0
M  V30 1449 H 147.13 3.08716 6.24234 0
M  V30 1450 H 144.757 3.65979 6.66306 0
M  V30 1451 N 146.332 -1.57332 0.0918853 0
M  V30 1452 C 147.264 -2.10869 -0.898168 0
M  V30 1453 C 148.277 -1.04521 -1.24817 0
M  V30 1454 O 149.466 -1.31977 -1.20184 0
M  V30 1455 C 146.566 -2.57083 -2.2082 0
M  V30 1456 C 145.739 -3.87229 -2.03402 0
M  V30 1457 C 144.798 -4.19324 -3.17889 0
M  V30 1458 O 143.824 -4.88598 -2.91994 0
M  V30 1459 N 145.026 -3.74471 -4.43567 0
M  V30 1460 H 147.791 -2.96439 -0.440943 0
M  V30 1461 H 145.352 -1.61631 -0.0933064 0
M  V30 1462 H 147.344 -2.75602 -2.96354 0
M  V30 1463 H 145.914 -1.76541 -2.57977 0
M  V30 1464 H 145.134 -3.7789 -1.12218 0
M  V30 1465 H 146.422 -4.72379 -1.89038 0
M  V30 1466 H 145.82 -3.18546 -4.67488 0
M  V30 1467 H 144.377 -3.98151 -5.16061 0
M  V30 1468 N 147.81 0.181792 -1.56548 0
M  V30 1469 C 148.757 1.22521 -1.95595 0
M  V30 1470 C 149.727 1.4454 -0.818373 0
M  V30 1471 O 150.912 1.57454 -1.07763 0
M  V30 1472 C 148.052 2.56193 -2.31212 0
M  V30 1473 C 147.165 2.41641 -3.58097 0
M  V30 1474 C 146.3 3.68108 -3.82975 0
M  V30 1475 C 145.339 3.48445 -5.03242 0
M  V30 1476 N 144.476 4.66956 -5.24306 0
M  V30 1477 H 149.316 0.885226 -2.84548 0
M  V30 1478 H 146.853 0.425718 -1.40805 0
M  V30 1479 H 148.811 3.34088 -2.49882 0
M  V30 1480 H 147.441 2.88208 -1.45382 0
M  V30 1481 H 146.493 1.54976 -3.474 0
M  V30 1482 H 147.805 2.23052 -4.46149 0
M  V30 1483 H 146.959 4.54441 -4.01956 0
M  V30 1484 H 145.698 3.89666 -2.93278 0
M  V30 1485 H 144.703 2.60499 -4.8417 0
M  V30 1486 H 145.928 3.2832 -5.9446 0
M  V30 1487 H 143.874 4.88752 -4.37559 0
M  V30 1488 H 143.791 4.51242 -6.06561 0
M  V30 1489 H 145.059 5.54602 -5.47756 0
M  V30 1490 N 149.288 1.51039 0.449983 0
M  V30 1491 C 150.536 1.62759 1.19808 0
M  V30 1492 C 150.857 0.339981 1.92013 0
M  V30 1493 O 150.127 -0.643606 1.85026 0
M  V30 1494 H 148.707 0.599811 0.445237 0
M  V30 1495 H 151.369 1.87914 0.517138 0
M  V30 1496 H 150.465 2.44911 1.93455 0
M  V30 1497 N 150.766 -0.704594 1.40972 0
M  V30 1498 C 152.043 -1.45847 1.30338 0
M  V30 1499 C 152.423 -2.10973 -0.0732344 0
M  V30 1500 O 151.771 -2.00997 -1.08685 0
M  V30 1501 C 151.981 -2.48525 2.45023 0
M  V30 1502 C 153.329 -3.1404 2.8577 0
M  V30 1503 O 154.353 -2.58848 2.44696 0
M  V30 1504 O 153.212 -4.13981 3.56766 0
M  V30 1505 H 150.306 -0.649092 0.512454 0
M  V30 1506 H 152.852 -0.735836 1.52917 0
M  V30 1507 H 151.624 -1.98994 3.36923 0
M  V30 1508 H 151.247 -3.2831 2.24272 0
M  V30 1509 N 152.244 -1.26651 -0.937939 0
M  V30 1510 C 153.176 -1.04283 -2.04102 0
M  V30 1511 C 154.189 -0.00221014 -1.628 0
M  V30 1512 O 155.378 -0.242645 -1.76843 0
M  V30 1513 C 152.478 -0.557846 -3.34277 0
M  V30 1514 C 151.651 -1.66843 -4.04329 0
M  V30 1515 C 150.71 -1.18095 -5.12777 0
M  V30 1516 O 149.736 -1.87865 -5.37304 0
M  V30 1517 N 150.938 -0.0311006 -5.80492 0
M  V30 1518 H 153.703 -1.9927 -2.23856 0
M  V30 1519 H 151.264 -1.1808 -1.10764 0
M  V30 1520 H 153.256 -0.215836 -4.04124 0
M  V30 1521 H 151.826 0.298523 -3.11171 0
M  V30 1522 H 151.046 -2.18123 -3.28353 0
M  V30 1523 H 152.334 -2.41408 -4.47883 0
M  V30 1524 H 151.732 0.551486 -5.63005 0
M  V30 1525 H 150.289 0.251809 -6.51313 0
M  V30 1526 N 153.722 1.14298 -1.08507 0
M  V30 1527 C 154.655 2.18447 -0.660004 0
M  V30 1528 C 155.633 1.59242 0.328749 0
M  V30 1529 O 156.817 1.87062 0.232367 0
M  V30 1530 C 153.944 3.38688 0.0290807 0
M  V30 1531 C 152.99 4.1646 -0.919982 0
M  V30 1532 S 153.823 4.77334 -2.42718 0
M  V30 1533 C 154.979 6.00931 -1.75024 0
M  V30 1534 H 155.212 2.54166 -1.54231 0
M  V30 1535 H 152.745 1.25446 -0.900149 0
M  V30 1536 H 154.703 4.08342 0.420378 0
M  V30 1537 H 153.364 3.01289 0.887895 0
M  V30 1538 H 152.557 5.02529 -0.384751 0
M  V30 1539 H 152.159 3.52414 -1.25223 0
M  V30 1540 H 154.451 6.69017 -1.06877 0
M  V30 1541 H 155.394 6.59044 -2.58971 0
M  V30 1542 H 155.802 5.51089 -1.22317 0
M  V30 1543 N 155.201 0.870884 1.31352 0
M  V30 1544 C 156.447 0.482987 1.96965 0
M  V30 1545 C 156.78 -0.962462 1.68672 0
M  V30 1546 O 156.055 -1.6779 0.98371 0
M  V30 1547 C 156.338 0.741752 3.52378 0
M  V30 1548 C 156.191 2.2368 3.9024 0
M  V30 1549 C 157.51 0.208838 4.39604 0
M  V30 1550 H 154.629 0.176955 0.715441 0
M  V30 1551 H 157.271 1.09229 1.55464 0
M  V30 1552 H 155.421 0.223149 3.87859 0
M  V30 1553 H 157.093 2.82273 3.64856 0
M  V30 1554 H 155.336 2.70901 3.38814 0
M  V30 1555 H 156.007 2.3685 4.98604 0
M  V30 1556 H 158.483 0.652529 4.10952 0
M  V30 1557 H 157.359 0.419336 5.47296 0
M  V30 1558 H 157.62 -0.889275 4.33064 0
M  V30 1559 N 156.679 -1.44442 0.630414 0
M  V30 1560 C 157.925 -2.02351 0.134816 0
M  V30 1561 C 158.258 -1.4947 -1.23986 0
M  V30 1562 O 157.533 -0.678475 -1.82283 0
M  V30 1563 C 157.816 -3.59898 0.120707 0
M  V30 1564 C 157.669 -4.23063 1.52767 0
M  V30 1565 C 158.988 -4.36585 -0.555127 0
M  V30 1566 H 156.107 -0.73527 0.0504646 0
M  V30 1567 H 158.749 -1.72022 0.806751 0
M  V30 1568 H 156.899 -3.85868 -0.451477 0
M  V30 1569 H 158.571 -4.08202 2.14869 0
M  V30 1570 H 156.814 -3.80586 2.08175 0
M  V30 1571 H 157.485 -5.32071 1.46984 0
M  V30 1572 H 159.961 -4.16044 -0.0685429 0
M  V30 1573 H 158.837 -5.46294 -0.534185 0
M  V30 1574 H 159.098 -4.11138 -1.62535 0
M  V30 1575 N 158.157 -0.370918 -1.53173 0
M  V30 1576 C 159.087 0.464847 -2.28826 0
M  V30 1577 C 160.068 1.07936 -1.31468 0
M  V30 1578 O 161.253 1.0956 -1.60344 0
M  V30 1579 C 158.383 1.60196 -3.08147 0
M  V30 1580 C 157.337 1.11443 -4.13237 0
M  V30 1581 C 156.663 2.3422 -4.80672 0
M  V30 1582 C 157.963 0.195384 -5.21934 0
M  V30 1583 H 159.657 -0.166329 -2.98938 0
M  V30 1584 H 157.203 -0.0814359 -1.4377 0
M  V30 1585 H 159.156 2.19332 -3.59822 0
M  V30 1586 H 157.88 2.26045 -2.35735 0
M  V30 1587 H 156.539 0.545727 -3.62515 0
M  V30 1588 H 156.187 2.98537 -4.04827 0
M  V30 1589 H 155.887 2.02269 -5.51689 0
M  V30 1590 H 157.411 2.94032 -5.35143 0
M  V30 1591 H 158.825 0.694375 -5.69079 0
M  V30 1592 H 157.222 -0.0335027 -6.00091 0
M  V30 1593 H 158.292 -0.760961 -4.78892 0
M  V30 1594 N 159.635 1.57281 -0.100228 0
M  V30 1595 C 160.545 2.17833 0.870965 0
M  V30 1596 C 161.561 1.14921 1.30649 0
M  V30 1597 O 162.737 1.47313 1.37335 0
M  V30 1598 C 159.802 2.75085 2.1102 0
M  V30 1599 C 158.863 3.9297 1.72838 0
M  V30 1600 C 158.096 4.47482 2.90854 0
M  V30 1601 O 158.319 4.00922 4.05731 0
M  V30 1602 O 157.253 5.38433 2.69023 0
M  V30 1603 H 161.079 3.0124 0.38575 0
M  V30 1604 H 158.664 1.48881 0.124397 0
M  V30 1605 H 160.546 3.11656 2.83634 0
M  V30 1606 H 159.221 1.94721 2.58584 0
M  V30 1607 H 158.128 3.61201 0.973883 0
M  V30 1608 H 159.461 4.74713 1.30033 0
M  V30 1609 N 161.113 -0.173488 1.56642 0
M  V30 1610 C 162.023 -1.23482 1.99473 0
M  V30 1611 C 163.039 -1.48567 0.905752 0
M  V30 1612 O 164.215 -1.60758 1.21321 0
M  V30 1613 C 161.28 -2.55444 2.34413 0
M  V30 1614 C 160.341 -2.38241 3.57127 0
M  V30 1615 C 159.574 -3.63909 3.90392 0
M  V30 1616 O 159.797 -4.68996 3.24653 0
M  V30 1617 O 158.731 -3.58149 4.83749 0
M  V30 1618 H 162.557 -0.901279 2.90018 0
M  V30 1619 H 160.142 -0.380185 1.44482 0
M  V30 1620 H 162.024 -3.33292 2.57865 0
M  V30 1621 H 160.699 -2.88382 1.4703 0
M  V30 1622 H 159.606 -1.58431 3.38896 0
M  V30 1623 H 160.939 -2.10228 4.45045 0
M  V30 1624 N 162.591 -1.51276 -0.441967 0
M  V30 1625 C 163.816 -1.67799 -1.21895 0
M  V30 1626 C 164.241 -0.372864 -1.84367 0
M  V30 1627 O 163.599 0.666501 -1.68604 0
M  V30 1628 C 163.647 -2.79199 -2.28211 0
M  V30 1629 O 162.751 -2.42479 -3.33583 0
M  V30 1630 H 162.092 -0.559649 -0.357336 0
M  V30 1631 H 164.622 -1.97815 -0.522522 0
M  V30 1632 H 164.632 -3.03146 -2.73069 0
M  V30 1633 H 163.307 -3.73906 -1.82118 0
M  V30 1634 H 161.884 -2.29087 -2.94234 0
M  V30 1635 N 164.069 0.697108 -1.41344 0
M  V30 1636 C 165.317 1.45426 -1.40341 0
M  V30 1637 C 165.638 1.94996 -0.0128787 0
M  V30 1638 O 164.908 1.71599 0.945027 0
M  V30 1639 H 163.488 0.539594 -0.516573 0
M  V30 1640 H 166.15 0.825201 -1.76569 0
M  V30 1641 H 165.246 2.31817 -2.08967 0
M  V30 1642 N 165.547 1.27147 0.931209 0
M  V30 1643 C 166.457 1.11372 2.06478 0
M  V30 1644 C 167.473 0.044645 1.73943 0
M  V30 1645 O 168.649 0.250417 1.99837 0
M  V30 1646 C 165.714 0.758838 3.38294 0
M  V30 1647 C 164.775 1.90841 3.84549 0
M  V30 1648 C 164.008 1.57036 5.10074 0
M  V30 1649 O 164.231 0.476645 5.68405 0
M  V30 1650 O 163.165 2.40839 5.51616 0
M  V30 1651 H 166.991 2.06493 2.22698 0
M  V30 1652 H 164.576 1.06301 1.04978 0
M  V30 1653 H 166.458 0.574098 4.17471 0
M  V30 1654 H 165.133 -0.162879 3.2329 0
M  V30 1655 H 164.04 2.14819 3.06274 0
M  V30 1656 H 165.373 2.81021 4.04089 0
M  V30 1657 N 167.025 -1.13721 1.09112 0
M  V30 1658 C 168.271 -1.85413 0.836283 0
M  V30 1659 C 168.626 -1.8175 -0.631249 0
M  V30 1660 O 167.919 -1.24238 -1.45861 0
M  V30 1661 C 168.113 -3.32861 1.30146 0
M  V30 1662 C 167.942 -3.50882 2.81268 0
M  V30 1663 C 166.712 -3.65312 3.49106 0
M  V30 1664 C 168.91 -3.47196 3.7942 0
M  V30 1665 N 166.892 -3.71563 4.88686 0
M  V30 1666 C 168.263 -3.59777 5.04936 0
M  V30 1667 C 170.318 -3.30577 3.72321 0
M  V30 1668 C 169.021 -3.57455 6.24194 0
M  V30 1669 C 171.047 -3.29562 4.91063 0
M  V30 1670 C 170.409 -3.42691 6.15421 0
M  V30 1671 H 166.508 -0.694812 0.358832 0
M  V30 1672 H 169.092 -1.36246 1.39087 0
M  V30 1673 H 167.263 -3.80602 0.774361 0
M  V30 1674 H 168.995 -3.92346 0.99229 0
M  V30 1675 H 165.75 -3.6685 2.9953 0
M  V30 1676 H 166.174 -3.78387 5.61384 0
M  V30 1677 H 170.816 -3.19332 2.77105 0
M  V30 1678 H 168.534 -3.67475 7.19714 0
M  V30 1679 H 172.12 -3.17905 4.87266 0
M  V30 1680 H 171 -3.41862 7.05762 0
M  V30 1681 N 168.503 -0.877838 -1.30888 0
M  V30 1682 C 169.749 -0.502773 -1.97088 0
M  V30 1683 C 170.104 0.936274 -1.68082 0
M  V30 1684 O 169.397 1.65162 -0.971196 0
M  V30 1685 C 169.591 -0.705748 -3.50363 0
M  V30 1686 C 169.42 -2.16297 -3.94266 0
M  V30 1687 C 168.19 -2.80614 -4.20219 0
M  V30 1688 C 170.388 -3.13606 -4.07622 0
M  V30 1689 N 168.37 -4.17007 -4.50532 0
M  V30 1690 C 169.741 -4.35051 -4.41736 0
M  V30 1691 C 171.796 -3.09491 -3.90026 0
M  V30 1692 C 170.499 -5.52911 -4.60089 0
M  V30 1693 C 172.525 -4.26616 -4.09576 0
M  V30 1694 C 171.887 -5.46825 -4.44029 0
M  V30 1695 H 167.986 -0.233168 -0.746429 0
M  V30 1696 H 170.57 -1.13408 -1.58261 0
M  V30 1697 H 168.741 -0.103976 -3.88261 0
M  V30 1698 H 170.473 -0.298291 -4.03599 0
M  V30 1699 H 167.228 -2.3152 -4.13153 0
M  V30 1700 H 167.652 -4.87426 -4.69834 0
M  V30 1701 H 172.294 -2.17657 -3.62471 0
M  V30 1702 H 170.012 -6.45255 -4.86489 0
M  V30 1703 H 173.598 -4.24894 -3.97438 0
M  V30 1704 H 172.478 -6.35947 -4.58848 0
M  V30 1705 N 169.982 1.44106 -0.638065 0
M  V30 1706 C 170.929 2.30715 0.062701 0
M  V30 1707 C 171.899 1.43882 0.829883 0
M  V30 1708 O 173.084 1.72775 0.809532 0
M  V30 1709 C 170.224 3.29258 1.03358 0
M  V30 1710 C 169.337 4.31192 0.26409 0
M  V30 1711 C 168.472 5.16825 1.22741 0
M  V30 1712 C 167.511 6.10462 0.447475 0
M  V30 1713 N 166.648 6.8877 1.36161 0
M  V30 1714 H 171.488 2.90096 -0.681781 0
M  V30 1715 H 169.025 1.42925 -0.347988 0
M  V30 1716 H 170.983 3.84886 1.60992 0
M  V30 1717 H 169.613 2.71562 1.74511 0
M  V30 1718 H 168.665 3.77981 -0.428295 0
M  V30 1719 H 169.977 4.97619 -0.343052 0
M  V30 1720 H 169.131 5.77004 1.87487 0
M  V30 1721 H 167.87 4.50488 1.86847 0
M  V30 1722 H 166.875 5.49386 -0.213433 0
M  V30 1723 H 168.1 6.78837 -0.188968 0
M  V30 1724 H 166.046 6.25096 1.98975 0
M  V30 1725 H 165.963 7.51663 0.808656 0
M  V30 1726 H 167.231 7.53467 1.99769 0
M  V30 1727 N 171.46 0.379036 1.52974 0
M  V30 1728 C 172.423 -0.448865 2.24762 0
M  V30 1729 C 173.423 -0.998689 1.26027 0
M  V30 1730 O 174.613 -0.882313 1.50203 0
M  V30 1731 C 171.745 -1.62872 2.99476 0
M  V30 1732 H 172.938 0.179491 2.99362 0
M  V30 1733 H 170.491 0.13096 1.5575 0
M  V30 1734 H 171.226 -2.29479 2.29151 0
M  V30 1735 H 171.011 -1.24128 3.71934 0
M  V30 1736 H 172.501 -2.2151 3.5401 0
M  V30 1737 N 172.938 -1.57226 0.108567 0
M  V30 1738 C 174.354 -1.5766 -0.248058 0
M  V30 1739 C 174.554 -1.12063 -1.67464 0
M  V30 1740 O 173.61 -0.803236 -2.39383 0
M  V30 1741 C 174.923 -3.0069 -0.0242287 0
M  V30 1742 C 176.471 -3.12868 -0.0909372 0
M  V30 1743 C 176.946 -4.57879 0.105067 0
M  V30 1744 N 178.437 -4.63172 0.0506846 0
M  V30 1745 C 179.172 -5.73126 0.177396 0
M  V30 1746 N 178.668 -6.91866 0.359696 0
M  V30 1747 N 180.461 -5.61977 0.117709 0
M  V30 1748 H 172.612 -1.85169 1.04049 0
M  V30 1749 H 174.875 -0.85529 0.40888 0
M  V30 1750 H 174.581 -3.38299 0.961604 0
M  V30 1751 H 174.455 -3.6945 -0.76068 0
M  V30 1752 H 176.842 -2.75124 -1.06729 0
M  V30 1753 H 176.923 -2.46672 0.677225 0
M  V30 1754 H 176.567 -4.96321 1.07834 0
M  V30 1755 H 176.497 -5.22153 -0.682954 0
M  V30 1756 H 178.988 -3.778 -0.0871266 0
M  V30 1757 H 179.301 -7.71503 0.447529 0
M  V30 1758 H 177.646 -6.93874 0.395536 0
M  V30 1759 H 180.837 -4.68094 -0.0236741 0
M  V30 1760 H 181.01 -6.47627 0.219905 0
M  V30 1761 N 174.416 0.165178 -1.56732 0
M  V30 1762 C 175.641 0.900253 -1.86843 0
M  V30 1763 C 176.066 1.74766 -0.695596 0
M  V30 1764 O 175.424 1.77786 0.35522 0
M  V30 1765 C 175.472 1.74777 -3.15413 0
M  V30 1766 O 174.576 2.85007 -2.98068 0
M  V30 1767 H 173.917 0.251832 -0.614391 0
M  V30 1768 H 176.447 0.161468 -2.03962 0
M  V30 1769 H 176.457 2.14646 -3.46974 0
M  V30 1770 H 175.132 1.12537 -4.00385 0
M  V30 1771 H 173.709 2.48676 -2.77875 0
M  V30 1772 N 175.894 1.51508 0.433938 0
M  V30 1773 C 176.824 1.76016 1.53429 0
M  V30 1774 C 177.805 0.610112 1.58782 0
M  V30 1775 O 178.99 0.853177 1.74455 0
M  V30 1776 C 176.12 1.88831 2.9148 0
M  V30 1777 C 175.074 3.04288 3.00987 0
M  V30 1778 C 174.4 3.0229 4.4105 0
M  V30 1779 C 175.7 4.44193 2.74754 0
M  V30 1780 H 177.394 2.68152 1.33171 0
M  V30 1781 H 174.94 1.29035 0.639214 0
M  V30 1782 H 176.893 2.04559 3.6842 0
M  V30 1783 H 175.617 0.933455 3.12976 0
M  V30 1784 H 174.276 2.8827 2.26486 0
M  V30 1785 H 173.924 2.04576 4.59519 0
M  V30 1786 H 173.624 3.79822 4.4834 0
M  V30 1787 H 175.148 3.20116 5.1996 0
M  V30 1788 H 176.562 4.60544 3.41426 0
M  V30 1789 H 174.959 5.23457 2.9345 0
M  V30 1790 H 176.029 4.53996 1.70339 0
M  V30 1791 N 177.372 -0.689602 1.41712 0
M  V30 1792 C 178.335 -1.78521 1.43746 0
M  V30 1793 C 179.335 -1.57436 0.327191 0
M  V30 1794 O 180.525 -1.64 0.587348 0
M  V30 1795 C 177.657 -3.16971 1.25467 0
M  V30 1796 H 178.85 -1.78108 2.41283 0
M  V30 1797 H 176.403 -0.89781 1.27942 0
M  V30 1798 H 177.138 -3.23019 0.287948 0
M  V30 1799 H 176.923 -3.33678 2.05917 0
M  V30 1800 H 178.413 -3.96935 1.2974 0
M  V30 1801 N 178.85 -1.27639 -0.924453 0
M  V30 1802 C 180.078 -1.16989 -1.70649 0
M  V30 1803 C 180.493 0.272869 -1.86818 0
M  V30 1804 O 179.85 1.18549 -1.38753 0
M  V30 1805 C 179.901 -1.85229 -3.10439 0
M  V30 1806 O 179.622 -3.23868 -2.95028 0
M  V30 1807 C 181.123 -1.80746 -4.04779 0
M  V30 1808 H 178.343 -0.406595 -0.53378 0
M  V30 1809 H 180.887 -1.68569 -1.15778 0
M  V30 1810 H 179.042 -1.37545 -3.6216 0
M  V30 1811 H 179.456 -3.57889 -3.83426 0
M  V30 1812 H 180.93 -2.33101 -5.00368 0
M  V30 1813 H 181.407 -0.777499 -4.32263 0
M  V30 1814 H 182.013 -2.28059 -3.58984 0
M  V30 1815 N 180.328 1.1314 -1.09713 0
M  V30 1816 C 181.744 1.36477 -0.827423 0
M  V30 1817 C 181.944 1.93654 0.556817 0
M  V30 1818 O 181 2.15791 1.31112 0
M  V30 1819 C 182.313 2.31334 -1.92106 0
M  V30 1820 C 183.861 2.44943 -1.94864 0
M  V30 1821 C 184.336 3.4311 -3.0338 0
M  V30 1822 N 185.827 3.50662 -3.02639 0
M  V30 1823 C 186.562 4.2651 -3.83246 0
M  V30 1824 N 186.058 5.05485 -4.73768 0
M  V30 1825 N 187.851 4.2184 -3.71493 0
M  V30 1826 H 180.002 0.743807 -1.9895 0
M  V30 1827 H 182.265 0.389823 -0.864143 0
M  V30 1828 H 181.971 1.96483 -2.91698 0
M  V30 1829 H 181.845 3.31381 -1.80184 0
M  V30 1830 H 184.232 2.79079 -0.959099 0
M  V30 1831 H 184.313 1.4481 -2.10864 0
M  V30 1832 H 183.957 3.09704 -4.02549 0
M  V30 1833 H 183.887 4.43055 -2.84622 0
M  V30 1834 H 186.378 2.94315 -2.37039 0
M  V30 1835 H 186.691 5.60675 -5.3185 0
M  V30 1836 H 185.036 5.04708 -4.77802 0
M  V30 1837 H 188.227 3.5922 -3.00131 0
M  V30 1838 H 188.4 4.80697 -4.3455 0
M  V30 1839 N 181.806 0.884767 1.30421 0
M  V30 1840 C 182.753 0.349642 2.28136 0
M  V30 1841 C 183.723 -0.560061 1.56373 0
M  V30 1842 O 184.908 -0.488524 1.8444 0
M  V30 1843 C 182.048 -0.42999 3.42411 0
M  V30 1844 C 181.161 0.508907 4.28992 0
M  V30 1845 C 180.296 -0.286301 5.30428 0
M  V30 1846 C 179.335 0.648079 6.08659 0
M  V30 1847 N 178.472 -0.111792 7.02011 0
M  V30 1848 H 183.312 1.18807 2.73293 0
M  V30 1849 H 180.849 0.597231 1.3443 0
M  V30 1850 H 182.807 -0.897923 4.07423 0
M  V30 1851 H 181.437 -1.23299 2.98324 0
M  V30 1852 H 180.489 1.09533 3.64289 0
M  V30 1853 H 181.801 1.22475 4.8353 0
M  V30 1854 H 180.955 -0.816098 6.01186 0
M  V30 1855 H 179.694 -1.03536 4.76583 0
M  V30 1856 H 178.699 1.18951 5.36778 0
M  V30 1857 H 179.924 1.39623 6.64592 0
M  V30 1858 H 177.87 -0.843395 6.50556 0
M  V30 1859 H 177.787 0.544429 7.54037 0
M  V30 1860 H 179.055 -0.622339 7.77012 0
M  V30 1861 N 183.284 -1.43765 0.645699 0
M  V30 1862 C 184.194 -2.34544 -0.0512957 0
M  V30 1863 C 185.21 -1.53455 -0.82022 0
M  V30 1864 O 186.386 -1.86133 -0.769176 0
M  V30 1865 C 183.451 -3.31636 -1.01087 0
M  V30 1866 C 182.512 -4.2863 -0.239712 0
M  V30 1867 C 181.745 -5.21084 -1.15358 0
M  V30 1868 O 181.968 -5.1779 -2.39269 0
M  V30 1869 O 180.902 -5.98593 -0.630038 0
M  V30 1870 H 184.728 -2.95624 0.695718 0
M  V30 1871 H 182.313 -1.43781 0.405882 0
M  V30 1872 H 184.195 -3.9136 -1.56254 0
M  V30 1873 H 182.87 -2.73069 -1.73824 0
M  V30 1874 H 181.777 -3.72408 0.355356 0
M  V30 1875 H 183.11 -4.90157 0.447936 0
M  V30 1876 N 184.763 -0.387143 -1.52771 0
M  V30 1877 C 186.011 0.195349 -2.01154 0
M  V30 1878 C 186.332 1.475 -1.27549 0
M  V30 1879 O 185.602 1.91878 -0.394924 0
M  V30 1880 H 184.182 0.075178 -0.743207 0
M  V30 1881 H 186.844 -0.518337 -1.87881 0
M  V30 1882 H 185.94 0.407096 -3.09434 0
M  V30 1883 N 186.241 1.57166 -0.116904 0
M  V30 1884 C 187.471 1.99184 0.548586 0
M  V30 1885 C 187.879 0.995436 1.60897 0
M  V30 1886 O 187.222 -0.0201293 1.83689 0
M  V30 1887 C 187.284 3.37611 1.23526 0
M  V30 1888 C 186.948 4.55857 0.323077 0
M  V30 1889 C 187.945 5.18056 -0.437476 0
M  V30 1890 C 185.63 5.01751 0.234761 0
M  V30 1891 C 187.624 6.24536 -1.2741 0
M  V30 1892 C 185.311 6.08093 -0.605496 0
M  V30 1893 C 186.309 6.69352 -1.35856 0
M  V30 1894 O 185.997 7.7364 -2.18487 0
M  V30 1895 H 185.729 0.659148 0.149999 0
M  V30 1896 H 188.283 2.0443 -0.199428 0
M  V30 1897 H 186.513 3.29113 2.0303 0
M  V30 1898 H 188.202 3.63932 1.79745 0
M  V30 1899 H 188.968 4.83516 -0.379105 0
M  V30 1900 H 184.847 4.53817 0.810601 0
M  V30 1901 H 188.391 6.72281 -1.86237 0
M  V30 1902 H 184.288 6.42063 -0.665268 0
M  V30 1903 H 185.056 7.90727 -2.11406 0
M  V30 1904 N 187.719 -0.156864 1.56817 0
M  V30 1905 C 188.968 -0.869504 1.81996 0
M  V30 1906 C 189.281 -1.82777 0.696545 0
M  V30 1907 O 190.487 -2.58384 0.833658 0
M  V30 1908 C 188.943 -1.59679 3.22538 0
M  V30 1909 C 188.551 -0.681431 4.42787 0
M  V30 1910 C 190.295 -2.2968 3.56997 0
M  V30 1911 C 188.202 -1.40978 5.74351 0
M  V30 1912 H 187.132 -0.328438 0.678708 0
M  V30 1913 H 189.783 -0.1223 1.83092 0
M  V30 1914 H 188.165 -2.38927 3.158 0
M  V30 1915 H 189.339 0.0751166 4.60739 0
M  V30 1916 H 187.654 -0.0903431 4.16302 0
M  V30 1917 H 190.251 -2.84794 4.52544 0
M  V30 1918 H 190.594 -3.05707 2.82576 0
M  V30 1919 H 191.127 -1.57361 3.65352 0
M  V30 1920 H 187.866 -0.691561 6.51842 0
M  V30 1921 H 187.386 -2.13929 5.60352 0
M  V30 1922 H 189.065 -1.95337 6.16808 0
M  V30 1923 N 189.197 -1.51736 -0.425897 0
M  V30 1924 C 190.608 -1.5732 -1.00536 0
M  V30 1925 C 190.959 -0.403537 -1.92005 0
M  V30 1926 O 190.084 0.478256 -2.11049 0
M  V30 1927 C 190.679 -2.85119 -1.8301 0
M  V30 1928 C 189.238 -2.93236 -2.35987 0
M  V30 1929 C 188.385 -2.52098 -1.15508 0
M  V30 1930 H 191.336 -1.57348 -0.206739 0
M  V30 1931 H 191.357 -2.69526 -2.68581 0
M  V30 1932 H 190.869 -3.7023 -1.16411 0
M  V30 1933 H 188.97 -2.12581 -3.06007 0
M  V30 1934 H 189.083 -3.9713 -2.68001 0
M  V30 1935 H 187.447 -2.05558 -1.50393 0
M  V30 1936 H 188.23 -3.39565 -0.505014 0
M  V30 1937 N 190.675 0.682077 -1.42076 0
M  V30 1938 C 191.9 1.47558 -1.45744 0
M  V30 1939 C 192.325 1.87977 -0.0680981 0
M  V30 1940 O 191.683 1.55522 0.9318 0
M  V30 1941 C 191.731 2.70575 -2.38373 0
M  V30 1942 O 190.835 3.68573 -1.85007 0
M  V30 1943 H 190.176 0.443585 -0.494093 0
M  V30 1944 H 192.706 0.837238 -1.86686 0
M  V30 1945 H 192.716 3.18729 -2.54707 0
M  V30 1946 H 191.391 2.40495 -3.39315 0
M  V30 1947 H 189.968 3.2757 -1.78192 0
M  V30 1948 N 192.153 1.28127 0.917671 0
M  V30 1949 C 193.101 1.11569 2.04096 0
M  V30 1950 C 194.095 0.0360242 1.69362 0
M  V30 1951 O 195.301 0.194501 1.78946 0
M  V30 1952 H 191.676 0.344097 0.668656 0
M  V30 1953 H 193.647 2.06711 2.15205 0
M  V30 1954 C 192.396 0.790197 3.38602 0
M  V30 1955 H 191.719 1.61293 3.6582 0
M  V30 1956 H 193.159 0.714271 4.1794 0
M  V30 1957 C 191.618 -0.505897 3.3308 0
M  V30 1958 O 192.148 -1.53736 3.71117 0
M  V30 1959 N 190.354 -0.505193 2.86175 0
M  V30 1960 H 189.901 0.334621 2.55417 0
M  V30 1961 H 189.859 -1.37243 2.82863 0
M  V30 1962 N 193.631 -1.12557 1.10312 0
M  V30 1963 C 194.861 -1.87592 0.865617 0
M  V30 1964 C 195.269 -1.79851 -0.587389 0
M  V30 1965 O 194.612 -1.16949 -1.41664 0
M  V30 1966 C 194.674 -3.37665 1.23381 0
M  V30 1967 C 194.338 -3.69181 2.69359 0
M  V30 1968 C 195.335 -3.67652 3.67597 0
M  V30 1969 C 193.02 -3.98555 3.05711 0
M  V30 1970 C 195.014 -3.95053 5.00212 0
M  V30 1971 C 192.701 -4.25616 4.38514 0
M  V30 1972 C 193.699 -4.23851 5.35574 0
M  V30 1973 O 193.387 -4.50242 6.65986 0
M  V30 1974 H 193.119 -0.600442 0.310557 0
M  V30 1975 H 195.673 -1.4335 1.47105 0
M  V30 1976 H 193.903 -3.82454 0.571467 0
M  V30 1977 H 195.592 -3.94041 0.973994 0
M  V30 1978 H 196.358 -3.45024 3.40857 0
M  V30 1979 H 192.237 -3.99071 2.30789 0
M  V30 1980 H 195.781 -3.93591 5.75962 0
M  V30 1981 H 191.678 -4.47718 4.64994 0
M  V30 1982 H 192.446 -4.67867 6.71597 0
M  V30 1983 N 195.109 -0.891671 -1.2995 0
M  V30 1984 C 196.355 -0.514261 -1.96171 0
M  V30 1985 C 196.688 0.935506 -1.70182 0
M  V30 1986 O 195.963 1.66204 -1.01028 0
M  V30 1987 C 196.246 -0.797719 -3.51153 0
M  V30 1988 C 196.099 -2.2986 -3.86632 0
M  V30 1989 C 197.418 -0.278749 -4.39216 0
M  V30 1990 H 194.537 -0.188314 -0.712535 0
M  V30 1991 H 197.179 -1.11689 -1.53706 0
M  V30 1992 H 195.329 -0.284826 -3.87455 0
M  V30 1993 H 197.001 -2.88042 -3.60319 0
M  V30 1994 H 195.244 -2.76257 -3.34462 0
M  V30 1995 H 195.915 -2.44753 -4.94773 0
M  V30 1996 H 198.391 -0.717825 -4.09862 0
M  V30 1997 H 197.267 -0.506353 -5.46559 0
M  V30 1998 H 197.528 0.820266 -4.34424 0
M  V30 1999 N 196.587 1.43421 -0.653314 0
M  V30 2000 C 197.55 2.29182 0.0287951 0
M  V30 2001 C 198.55 1.42213 0.750465 0
M  V30 2002 O 199.74 1.63843 0.591701 0
M  V30 2003 C 196.872 3.24278 1.05151 0
M  V30 2004 H 198.065 2.90985 -0.725786 0
M  V30 2005 H 195.618 1.50702 -0.414545 0
M  V30 2006 H 196.353 2.6737 1.83532 0
M  V30 2007 H 196.138 3.88396 0.537687 0
M  V30 2008 H 197.628 3.88647 1.52786 0
M  V30 2009 N 198.065 0.39524 1.52563 0
M  V30 2010 C 199.481 0.0454682 1.59535 0
M  V30 2011 C 199.681 -1.44056 1.4089 0
M  V30 2012 O 198.737 -2.20579 1.22888 0
M  V30 2013 C 200.05 0.527963 2.96029 0
M  V30 2014 C 201.598 0.484733 3.09224 0
M  V30 2015 C 202.073 0.943512 4.48176 0
M  V30 2016 N 203.564 0.899765 4.54377 0
M  V30 2017 C 204.299 1.22609 5.60138 0
M  V30 2018 N 203.795 1.62319 6.73516 0
M  V30 2019 N 205.588 1.14696 5.50274 0
M  V30 2020 H 197.739 1.36261 1.62931 0
M  V30 2021 H 200.002 0.558887 0.765735 0
M  V30 2022 H 199.708 1.56607 3.14908 0
M  V30 2023 H 199.582 -0.0698056 3.77135 0
M  V30 2024 H 201.969 -0.544298 2.90037 0
M  V30 2025 H 202.05 1.11838 2.30056 0
M  V30 2026 H 201.694 1.9708 4.68104 0
M  V30 2027 H 201.624 0.286817 5.25818 0
M  V30 2028 H 204.115 0.607632 3.72983 0
M  V30 2029 H 204.428 1.85567 7.5019 0
M  V30 2030 H 202.773 1.66211 6.74833 0
M  V30 2031 H 205.964 0.835701 4.6058 0
M  V30 2032 H 206.137 1.40459 6.32594 0
M  V30 2033 N 199.544 -1.57102 0.125237 0
M  V30 2034 C 200.79 -1.95697 -0.532035 0
M  V30 2035 C 201.123 -1.009 -1.6593 0
M  V30 2036 O 200.398 -0.047347 -1.94442 0
M  V30 2037 C 200.681 -3.44181 -1.05884 0
M  V30 2038 C 200.534 -4.49752 0.0654392 0
M  V30 2039 C 201.853 -3.94655 -1.9477 0
M  V30 2040 H 198.972 -0.711571 -0.191925 0
M  V30 2041 H 201.614 -1.88923 0.20206 0
M  V30 2042 H 199.764 -3.50085 -1.68442 0
M  V30 2043 H 201.436 -4.55943 0.700982 0
M  V30 2044 H 199.679 -4.27653 0.727709 0
M  V30 2045 H 200.35 -5.50924 -0.344505 0
M  V30 2046 H 202.826 -3.91094 -1.42074 0
M  V30 2047 H 201.702 -4.99057 -2.28546 0
M  V30 2048 H 201.963 -3.35718 -2.87656 0
M  V30 2049 N 201.022 0.148545 -1.56898 0
M  V30 2050 C 202.299 0.890019 -1.74178 0
M  V30 2051 C 202.679 1.99407 -0.692839 0
M  V30 2052 O 202.027 2.26671 0.288505 0
M  V30 2053 C 202.237 1.43389 -3.18183 0
M  V30 2054 C 203.585 1.89791 -3.79822 0
M  V30 2055 O 204.609 1.53134 -3.21603 0
M  V30 2056 O 203.468 2.57387 -4.82093 0
M  V30 2057 H 200.562 0.420496 -0.712118 0
M  V30 2058 H 203.108 0.134591 -1.69165 0
M  V30 2059 H 201.88 0.640383 -3.86024 0
M  V30 2060 H 201.503 2.25287 -3.27615 0
M  V30 2061 N 202.5 1.5196 0.417844 0
M  V30 2062 C 203.725 1.69717 1.1921 0
M  V30 2063 C 204.15 0.402148 1.83751 0
M  V30 2064 O 203.508 -0.639593 1.69643 0
M  V30 2065 C 203.556 2.82794 2.2374 0
M  V30 2066 O 202.66 2.47756 3.29683 0
M  V30 2067 H 202.001 0.565263 0.348387 0
M  V30 2068 H 204.531 1.98621 0.490985 0
M  V30 2069 H 204.541 3.07452 2.68212 0
M  V30 2070 H 203.216 3.76756 1.76146 0
M  V30 2071 H 201.793 2.33739 2.90552 0
M  V30 2072 N 203.978 -0.674533 1.42435 0
M  V30 2073 C 204.908 -1.80009 1.48724 0
M  V30 2074 C 205.889 -1.6659 0.343793 0
M  V30 2075 O 207.074 -1.86007 0.558137 0
M  V30 2076 C 204.204 -3.18306 1.38919 0
M  V30 2077 C 203.158 -3.46461 2.51294 0
M  V30 2078 C 202.484 -4.84335 2.26547 0
M  V30 2079 C 203.784 -3.43328 3.93603 0
M  V30 2080 H 205.478 -1.75004 2.42928 0
M  V30 2081 H 203.024 -0.840533 1.16923 0
M  V30 2082 H 204.977 -3.9678 1.41927 0
M  V30 2083 H 203.701 -3.2399 0.412094 0
M  V30 2084 H 202.36 -2.70348 2.47604 0
M  V30 2085 H 202.008 -4.86669 1.2713 0
M  V30 2086 H 201.708 -5.04136 3.01861 0
M  V30 2087 H 203.232 -5.65094 2.31304 0
M  V30 2088 H 204.646 -4.11772 3.98894 0
M  V30 2089 H 203.043 -3.74664 4.68771 0
M  V30 2090 H 204.113 -2.41897 4.20255 0
M  V30 2091 N 205.456 -1.28612 -0.910864 0
M  V30 2092 C 206.366 -1.14643 -2.0468 0
M  V30 2093 C 207.382 -0.0723121 -1.7385 0
M  V30 2094 O 208.558 -0.282178 -1.99413 0
M  V30 2095 C 205.623 -0.812561 -3.37044 0
M  V30 2096 C 204.684 -1.96935 -3.81465 0
M  V30 2097 C 203.917 -1.65131 -5.07511 0
M  V30 2098 O 204.14 -0.567013 -5.67575 0
M  V30 2099 O 203.074 -2.49585 -5.47714 0
M  V30 2100 H 206.9 -2.1001 -2.19384 0
M  V30 2101 H 204.485 -1.07958 -1.03274 0
M  V30 2102 H 206.367 -0.640441 -4.16505 0
M  V30 2103 H 205.042 0.111426 -3.23508 0
M  V30 2104 H 203.949 -2.19664 -3.02818 0
M  V30 2105 H 205.282 -2.87414 -3.99567 0
M  V30 2106 N 206.934 1.1197 -1.10907 0
M  V30 2107 C 208.162 1.87402 -0.876824 0
M  V30 2108 C 208.577 1.79894 0.573025 0
M  V30 2109 O 207.934 1.17629 1.39534 0
M  V30 2110 C 207.985 3.36428 -1.32282 0
M  V30 2111 O 207.706 3.43765 -2.71582 0
M  V30 2112 C 209.207 4.28783 -1.12518 0
M  V30 2113 H 206.427 0.592793 -0.314384 0
M  V30 2114 H 208.971 1.41649 -1.47499 0
M  V30 2115 H 207.126 3.79706 -0.768229 0
M  V30 2116 H 207.54 4.3652 -2.90776 0
M  V30 2117 H 209.014 5.31613 -1.48633 0
M  V30 2118 H 209.491 4.39153 -0.0642394 0
M  V30 2119 H 210.097 3.91291 -1.66648 0
M  V30 2120 N 208.412 0.89855 1.29475 0
M  V30 2121 C 209.322 0.379974 2.31502 0
M  V30 2122 C 210.338 -0.524695 1.659 0
M  V30 2123 O 211.514 -0.414551 1.97087 0
M  V30 2124 C 208.579 -0.385138 3.44554 0
M  V30 2125 C 207.64 0.550914 4.2575 0
M  V30 2126 C 206.873 -0.177778 5.33404 0
M  V30 2127 O 207.096 -1.40189 5.52904 0
M  V30 2128 O 206.03 0.479106 5.9999 0
M  V30 2129 H 209.856 1.22639 2.77837 0
M  V30 2130 H 207.441 0.662834 1.33891 0
M  V30 2131 H 209.323 -0.817841 4.13388 0
M  V30 2132 H 207.998 -1.20763 3.0033 0
M  V30 2133 H 206.905 1.03271 3.59564 0
M  V30 2134 H 208.238 1.33979 4.73614 0
M  V30 2135 N 209.89 -1.43072 0.660911 0
M  V30 2136 C 210.8 -2.34585 -0.0264163 0
M  V30 2137 C 211.816 -1.54316 -0.803898 0
M  V30 2138 O 212.992 -1.86939 -0.749391 0
M  V30 2139 C 210.057 -3.32689 -0.975639 0
M  V30 2140 C 209.118 -4.2886 -0.194236 0
M  V30 2141 C 208.351 -5.22278 -1.09825 0
M  V30 2142 O 208.574 -5.20299 -2.33763 0
M  V30 2143 O 207.508 -5.99228 -0.566513 0
M  V30 2144 H 211.334 -2.94869 0.727034 0
M  V30 2145 H 208.919 -1.43342 0.42111 0
M  V30 2146 H 210.801 -3.92995 -1.52094 0
M  V30 2147 H 209.476 -2.74898 -1.70918 0
M  V30 2148 H 208.383 -3.72011 0.394835 0
M  V30 2149 H 209.716 -4.89655 0.499899 0
M  V30 2150 N 211.368 -0.403325 -1.52352 0
M  V30 2151 C 212.614 0.167015 -2.02713 0
M  V30 2152 C 212.969 1.43296 -1.28391 0
M  V30 2153 O 212.262 1.87796 -0.379885 0
M  V30 2154 C 212.456 0.474665 -3.54234 0
M  V30 2155 C 212.285 -0.759909 -4.43233 0
M  V30 2156 C 211.055 -1.28338 -4.88731 0
M  V30 2157 C 213.253 -1.63634 -4.87574 0
M  V30 2158 N 211.235 -2.47404 -5.6184 0
M  V30 2159 C 212.606 -2.67329 -5.59406 0
M  V30 2160 C 214.661 -1.65478 -4.69597 0
M  V30 2161 C 213.364 -3.72773 -6.15169 0
M  V30 2162 C 215.39 -2.69837 -5.26253 0
M  V30 2163 C 214.752 -3.72253 -5.98002 0
M  V30 2164 H 210.851 0.0228343 -0.781667 0
M  V30 2165 H 213.435 -0.556368 -1.86581 0
M  V30 2166 H 211.606 1.16709 -3.7045 0
M  V30 2167 H 213.338 1.03338 -3.91284 0
M  V30 2168 H 210.093 -0.842273 -4.6605 0
M  V30 2169 H 210.517 -3.07688 -6.0304 0
M  V30 2170 H 215.159 -0.876389 -4.13617 0
M  V30 2171 H 212.877 -4.51471 -6.70223 0
M  V30 2172 H 216.463 -2.72164 -5.14216 0
M  V30 2173 H 215.343 -4.51679 -6.41058 0
M  V30 2174 N 212.846 1.57033 -0.133567 0
M  V30 2175 C 214.093 1.95686 0.520877 0
M  V30 2176 C 214.421 1.0177 1.6575 0
M  V30 2177 O 213.676 0.0443195 1.9565 0
M  V30 2178 C 213.975 3.40674 1.08057 0
M  V30 2179 C 213.641 4.50855 0.0637899 0
M  V30 2180 C 212.303 4.80716 -0.215757 0
M  V30 2181 C 214.655 5.17398 -0.62835 0
M  V30 2182 C 211.983 5.74433 -1.19348 0
M  V30 2183 C 214.335 6.12167 -1.5948 0
M  V30 2184 C 212.999 6.40414 -1.88218 0
M  V30 2185 H 212.269 0.716067 0.190602 0
M  V30 2186 H 214.916 1.9026 -0.217556 0
M  V30 2187 H 213.221 3.42865 1.89606 0
M  V30 2188 H 214.918 3.67902 1.59529 0
M  V30 2189 H 211.508 4.27605 0.291855 0
M  V30 2190 H 215.692 4.94472 -0.425562 0
M  V30 2191 H 210.948 5.94616 -1.42272 0
M  V30 2192 H 215.122 6.6281 -2.13671 0
M  V30 2193 H 212.749 7.12838 -2.64133 0
M  V30 2194 N 214.325 -0.140222 1.56975 0
M  V30 2195 C 215.572 -0.851687 1.83719 0
M  V30 2196 C 215.9 -1.80862 0.715485 0
M  V30 2197 O 215.155 -1.93464 -0.294956 0
M  V30 2198 C 215.454 -1.65386 3.16832 0
M  V30 2199 C 215.12 -0.843112 4.42947 0
M  V30 2200 C 213.782 -0.619464 4.77196 0
M  V30 2201 C 216.134 -0.276582 5.20466 0
M  V30 2202 C 213.462 0.181312 5.8642 0
M  V30 2203 C 215.814 0.51127 6.30531 0
M  V30 2204 C 214.478 0.745432 6.63325 0
M  V30 2205 H 213.748 -0.311654 0.672274 0
M  V30 2206 H 216.395 -0.115006 1.91154 0
M  V30 2207 H 214.7 -2.46084 3.04877 0
M  V30 2208 H 216.397 -2.20793 3.34741 0
M  V30 2209 H 212.987 -1.0275 4.16101 0
M  V30 2210 H 217.171 -0.436632 4.94376 0
M  V30 2211 H 212.427 0.372165 6.10266 0
M  V30 2212 H 216.601 0.957354 6.89788 0
M  V30 2213 H 214.228 1.36778 7.47794 0
M  V30 2214 N 215.803 -1.52179 -0.40978 0
M  V30 2215 C 216.75 -1.75475 -1.49924 0
M  V30 2216 C 217.72 -0.597175 -1.54994 0
M  V30 2217 O 218.905 -0.834655 -1.71575 0
M  V30 2218 C 216.045 -1.9107 -2.87378 0
M  V30 2219 C 215.158 -3.18717 -2.91622 0
M  V30 2220 C 214.293 -3.24747 -4.20372 0
M  V30 2221 C 213.332 -4.46598 -4.18588 0
M  V30 2222 N 212.469 -4.50025 -5.38908 0
M  V30 2223 H 217.309 -2.68458 -1.29361 0
M  V30 2224 H 214.846 -1.33024 -0.627934 0
M  V30 2225 H 216.804 -1.98096 -3.6717 0
M  V30 2226 H 215.434 -1.01469 -3.06437 0
M  V30 2227 H 214.486 -3.20866 -2.04326 0
M  V30 2228 H 215.798 -4.08544 -2.86169 0
M  V30 2229 H 214.952 -3.30841 -5.08556 0
M  V30 2230 H 213.691 -2.32857 -4.28519 0
M  V30 2231 H 212.696 -4.40652 -3.28794 0
M  V30 2232 H 213.921 -5.39783 -4.12081 0
M  V30 2233 H 211.867 -3.61017 -5.47725 0
M  V30 2234 H 211.784 -5.33697 -5.35447 0
M  V30 2235 H 213.052 -4.60347 -6.29048 0
M  V30 2236 N 217.281 0.66697 -1.42791 0
M  V30 2237 C 218.529 1.42417 -1.43394 0
M  V30 2238 C 218.85 1.94925 -0.0542373 0
M  V30 2239 O 218.12 1.73564 0.908415 0
M  V30 2240 H 216.7 0.528515 -0.527902 0
M  V30 2241 H 219.362 0.787562 -1.78279 0
M  V30 2242 H 218.458 2.27333 -2.13837 0
M  V30 2243 N 218.759 1.29093 0.90403 0
M  V30 2244 C 220.008 1.16187 1.64874 0
M  V30 2245 C 220.321 -0.286742 1.93487 0
M  V30 2246 O 221.527 -0.537062 2.66135 0
M  V30 2247 C 219.983 2.03177 2.97064 0
M  V30 2248 C 219.591 3.52836 2.76062 0
M  V30 2249 C 221.335 1.98984 3.74974 0
M  V30 2250 C 219.242 4.31945 4.03952 0
M  V30 2251 H 218.172 0.431246 0.618501 0
M  V30 2252 H 220.823 1.53699 1.00243 0
M  V30 2253 H 219.205 1.5853 3.62883 0
M  V30 2254 H 220.379 4.05507 2.18863 0
M  V30 2255 H 218.694 3.58656 2.11553 0
M  V30 2256 H 221.291 2.55351 4.69787 0
M  V30 2257 H 221.634 0.968815 4.0487 0
M  V30 2258 H 222.167 2.41652 3.15989 0
M  V30 2259 H 218.906 5.34667 3.79225 0
M  V30 2260 H 218.426 3.84045 4.60727 0
M  V30 2261 H 220.105 4.42379 4.72133 0
M  V30 2262 N 220.237 -1.11381 1.11499 0
M  V30 2263 C 221.462 -1.87475 0.887019 0
M  V30 2264 C 221.887 -1.79639 -0.557796 0
M  V30 2265 O 221.245 -1.15924 -1.39396 0
M  V30 2266 C 221.293 -3.34213 1.35403 0
M  V30 2267 O 220.397 -4.0903 0.526146 0
M  V30 2268 H 219.738 -0.582099 0.319463 0
M  V30 2269 H 222.268 -1.40785 1.48461 0
M  V30 2270 H 222.278 -3.8506 1.34881 0
M  V30 2271 H 220.953 -3.39232 2.40612 0
M  V30 2272 H 219.53 -3.68082 0.597522 0
M  V30 2273 N 221.715 -0.905404 -1.28997 0
M  V30 2274 C 223.131 -0.60233 -1.47798 0
M  V30 2275 C 223.331 0.854645 -1.82478 0
M  V30 2276 O 222.387 1.63439 -1.92468 0
M  V30 2277 C 223.7 -1.53306 -2.58685 0
M  V30 2278 C 225.248 -1.53887 -2.72558 0
M  V30 2279 C 225.723 -2.45602 -3.86579 0
M  V30 2280 N 227.214 -2.43681 -3.93921 0
M  V30 2281 C 227.949 -3.11347 -4.81509 0
M  V30 2282 N 227.445 -3.88313 -5.73746 0
M  V30 2283 N 229.238 -3.00476 -4.75048 0
M  V30 2284 H 221.389 -1.84765 -1.04764 0
M  V30 2285 H 223.652 -0.792025 -0.520961 0
M  V30 2286 H 223.358 -2.57141 -2.39941 0
M  V30 2287 H 223.232 -1.25787 -3.55609 0
M  V30 2288 H 225.619 -0.507941 -2.90696 0
M  V30 2289 H 225.7 -1.85447 -1.76191 0
M  V30 2290 H 225.344 -3.48792 -3.69197 0
M  V30 2291 H 225.274 -2.11349 -4.82327 0
M  V30 2292 H 227.765 -1.87767 -3.27951 0
M  V30 2293 H 228.078 -4.36985 -6.37389 0
M  V30 2294 H 226.423 -3.92419 -5.73614 0
M  V30 2295 H 229.614 -2.39858 -4.01977 0
M  V30 2296 H 229.787 -3.53485 -5.43095 0
M  V30 2297 N 223.193 1.4272 -0.668489 0
M  V30 2298 C 224.14 2.30796 0.0137489 0
M  V30 2299 C 225.11 1.4561 0.799177 0
M  V30 2300 O 226.295 1.74453 0.772702 0
M  V30 2301 C 223.435 3.31377 0.963507 0
M  V30 2302 C 222.548 4.31655 0.172569 0
M  V30 2303 C 221.683 5.19312 1.1175 0
M  V30 2304 C 220.722 6.11274 0.317886 0
M  V30 2305 N 219.859 6.91504 1.2152 0
M  V30 2306 H 224.699 2.88585 -0.743161 0
M  V30 2307 H 222.236 1.42154 -0.378226 0
M  V30 2308 H 224.194 3.88214 1.52792 0
M  V30 2309 H 222.824 2.75202 1.68712 0
M  V30 2310 H 221.876 3.76988 -0.508374 0
M  V30 2311 H 223.188 4.96779 -0.448527 0
M  V30 2312 H 222.342 5.80851 1.75206 0
M  V30 2313 H 221.081 4.5435 1.77249 0
M  V30 2314 H 220.086 5.48809 -0.329918 0
M  V30 2315 H 221.311 6.78283 -0.332917 0
M  V30 2316 H 219.257 6.29176 1.85671 0
M  V30 2317 H 219.174 7.53209 0.649036 0
M  V30 2318 H 220.442 7.57535 1.83742 0
M  V30 2319 N 224.671 0.411399 1.52136 0
M  V30 2320 C 225.948 -0.222308 1.94333 0
M  V30 2321 C 226.328 -1.6242 1.34844 0
M  V30 2322 O 225.676 -2.22384 0.525145 0
M  V30 2323 C 225.886 -0.226345 3.48265 0
M  V30 2324 C 227.234 -0.444592 4.22266 0
M  V30 2325 O 228.258 -0.305602 3.54887 0
M  V30 2326 O 227.117 -0.718749 5.41753 0
M  V30 2327 H 224.211 -0.143907 0.814383 0
M  V30 2328 H 226.757 0.467506 1.63133 0
M  V30 2329 H 225.529 0.75475 3.83952 0
M  V30 2330 H 225.152 -0.960163 3.85832 0
M  V30 2331 N 226.149 -1.5696 0.141893 0
M  V30 2332 C 227.112 -2.15316 -0.785587 0
M  V30 2333 C 228.112 -1.09366 -1.1788 0
M  V30 2334 O 229.302 -1.35031 -1.10056 0
M  V30 2335 C 226.434 -2.71211 -2.06537 0
M  V30 2336 H 227.627 -2.98608 -0.278041 0
M  V30 2337 H 225.18 -1.5593 -0.107519 0
M  V30 2338 H 225.915 -1.91571 -2.6167 0
M  V30 2339 H 225.7 -3.4872 -1.79268 0
M  V30 2340 H 227.19 -3.16189 -2.72789 0
M  V30 2341 N 227.627 0.131896 -1.57047 0
M  V30 2342 C 228.537 1.1815 -2.02676 0
M  V30 2343 C 229.553 1.46113 -0.944824 0
M  V30 2344 O 230.729 1.57485 -1.25541 0
M  V30 2345 C 227.794 2.49139 -2.41103 0
M  V30 2346 C 226.855 2.28688 -3.63318 0
M  V30 2347 C 226.088 3.53431 -3.99903 0
M  V30 2348 O 226.311 4.60223 -3.36973 0
M  V30 2349 O 225.245 3.45198 -4.93074 0
M  V30 2350 H 229.071 0.824069 -2.92306 0
M  V30 2351 H 226.656 0.341745 -1.45439 0
M  V30 2352 H 228.538 3.26338 -2.66611 0
M  V30 2353 H 227.213 2.84382 -1.54624 0
M  V30 2354 H 226.12 1.4939 -3.42977 0
M  V30 2355 H 227.453 1.98355 -4.50462 0
M  V30 2356 N 229.106 1.52395 0.401703 0
M  V30 2357 C 230.522 1.41363 0.740864 0
M  V30 2358 C 230.722 0.523982 1.94568 0
M  V30 2359 O 229.778 -0.00741204 2.52499 0
M  V30 2360 C 231.091 2.84011 0.987847 0
M  V30 2361 C 232.639 2.93404 1.09011 0
M  V30 2362 C 233.114 4.37036 1.3698 0
M  V30 2363 N 234.605 4.40304 1.43829 0
M  V30 2364 C 235.34 5.48508 1.67112 0
M  V30 2365 N 234.836 6.66819 1.87949 0
M  V30 2366 N 236.629 5.36034 1.69187 0
M  V30 2367 H 228.78 2.08765 -0.391262 0
M  V30 2368 H 231.043 0.941265 -0.112798 0
M  V30 2369 H 230.749 3.51265 0.174835 0
M  V30 2370 H 230.623 3.25502 1.906 0
M  V30 2371 H 233.01 2.26325 1.8937 0
M  V30 2372 H 233.091 2.55359 0.15015 0
M  V30 2373 H 232.735 5.04676 0.571353 0
M  V30 2374 H 232.665 4.72623 2.3224 0
M  V30 2375 H 235.156 3.55024 1.29486 0
M  V30 2376 H 235.469 7.45063 2.05185 0
M  V30 2377 H 233.814 6.6987 1.85199 0
M  V30 2378 H 237.005 4.42579 1.52451 0
M  V30 2379 H 237.178 6.20434 1.86993 0
M  V30 2380 N 230.584 -0.659388 1.43143 0
M  V30 2381 C 231.516 -1.7849 1.43784 0
M  V30 2382 C 232.529 -1.5932 0.334787 0
M  V30 2383 O 233.718 -1.68155 0.598842 0
M  V30 2384 C 230.818 -3.15828 1.22906 0
M  V30 2385 C 229.991 -3.61711 2.45934 0
M  V30 2386 C 229.05 -4.77831 2.20371 0
M  V30 2387 O 228.076 -4.87586 2.93681 0
M  V30 2388 N 229.278 -5.67611 1.21647 0
M  V30 2389 H 232.043 -1.7842 2.40803 0
M  V30 2390 H 229.604 -0.84302 1.3822 0
M  V30 2391 H 231.596 -3.91189 1.03697 0
M  V30 2392 H 230.166 -3.10707 0.343542 0
M  V30 2393 H 229.386 -2.76861 2.80609 0
M  V30 2394 H 230.674 -3.89112 3.27825 0
M  V30 2395 H 230.072 -5.62397 0.610449 0
M  V30 2396 H 228.629 -6.42719 1.08423 0
M  V30 2397 N 232.062 -1.29571 -0.897171 0
M  V30 2398 C 232.992 -1.17473 -2.01798 0
M  V30 2399 C 233.973 -0.068323 -1.69963 0
M  V30 2400 O 235.158 -0.248239 -1.92607 0
M  V30 2401 C 232.288 -0.853099 -3.36659 0
M  V30 2402 C 231.242 -1.9161 -3.82713 0
M  V30 2403 C 230.568 -1.44773 -5.14728 0
M  V30 2404 C 231.868 -3.32535 -4.02763 0
M  V30 2405 H 233.562 -2.11237 -2.12177 0
M  V30 2406 H 231.108 -1.01699 -1.01948 0
M  V30 2407 H 233.061 -0.755165 -4.14578 0
M  V30 2408 H 231.785 0.120236 -3.26379 0
M  V30 2409 H 230.444 -2.00346 -3.07013 0
M  V30 2410 H 230.092 -0.462995 -5.00865 0
M  V30 2411 H 229.792 -2.15865 -5.46513 0
M  V30 2412 H 231.316 -1.36334 -5.95185 0
M  V30 2413 H 232.73 -3.26626 -4.71156 0
M  V30 2414 H 231.127 -4.01607 -4.45905 0
M  V30 2415 H 232.197 -3.75326 -3.07016 0
M  V30 2416 N 233.54 1.10788 -1.12088 0
M  V30 2417 C 234.47 2.19083 -0.807755 0
M  V30 2418 C 235.451 1.6858 0.226859 0
M  V30 2419 O 236.636 1.93997 0.0888475 0
M  V30 2420 C 233.766 3.46344 -0.257576 0
M  V30 2421 C 232.72 4.101 -1.22483 0
M  V30 2422 C 232.046 5.32016 -0.535052 0
M  V30 2423 C 233.346 4.54236 -2.57811 0
M  V30 2424 H 235.04 2.45534 -1.71328 0
M  V30 2425 H 232.586 1.1801 -0.825205 0
M  V30 2426 H 234.539 4.21392 -0.0262679 0
M  V30 2427 H 233.263 3.19373 0.683278 0
M  V30 2428 H 231.922 3.37054 -1.44189 0
M  V30 2429 H 231.57 5.01319 0.410827 0
M  V30 2430 H 231.27 5.75625 -1.18024 0
M  V30 2431 H 232.794 6.09799 -0.312695 0
M  V30 2432 H 234.208 5.20575 -2.40155 0
M  V30 2433 H 232.605 5.08682 -3.18375 0
M  V30 2434 H 233.675 3.6734 -3.16528 0
M  V30 2435 N 235.018 0.912232 1.28515 0
M  V30 2436 C 235.981 0.404223 2.25607 0
M  V30 2437 C 236.981 -0.468602 1.53821 0
M  V30 2438 O 238.171 -0.271873 1.72065 0
M  V30 2439 C 235.303 -0.420653 3.38295 0
M  V30 2440 H 236.496 1.26188 2.7206 0
M  V30 2441 H 234.049 0.691495 1.40171 0
M  V30 2442 H 234.784 -1.29777 2.97201 0
M  V30 2443 H 234.569 0.204935 3.91564 0
M  V30 2444 H 236.059 -0.766971 4.10496 0
M  V30 2445 N 236.496 -1.42363 0.676048 0
M  V30 2446 C 237.907 -1.84649 0.275948 0
M  V30 2447 C 238.258 -1.56588 -1.18214 0
M  V30 2448 O 237.383 -1.02634 -1.90513 0
M  V30 2449 C 237.978 -3.35178 0.494053 0
M  V30 2450 C 236.537 -3.76109 0.148061 0
M  V30 2451 C 235.684 -2.65931 0.785891 0
M  V30 2452 H 238.635 -1.32192 0.878121 0
M  V30 2453 H 238.656 -3.79655 -0.25343 0
M  V30 2454 H 238.168 -3.55571 1.55535 0
M  V30 2455 H 236.269 -3.61323 -0.909742 0
M  V30 2456 H 236.382 -4.7546 0.589454 0
M  V30 2457 H 234.746 -2.53773 0.217113 0
M  V30 2458 H 235.529 -2.89146 1.85067 0
M  V30 2459 N 237.974 -0.419461 -1.51915 0
M  V30 2460 C 239.222 0.152637 -2.01523 0
M  V30 2461 C 239.543 1.44762 -1.30649 0
M  V30 2462 O 238.813 1.90997 -0.435535 0
M  V30 2463 H 237.393 0.0593966 -0.744635 0
M  V30 2464 H 240.055 -0.558073 -1.86739 0
M  V30 2465 H 239.151 0.341369 -3.10227 0
M  V30 2466 N 239.452 1.56882 -0.150215 0
M  V30 2467 C 240.4 2.18214 0.805313 0
M  V30 2468 C 241.394 1.14006 1.25296 0
M  V30 2469 O 242.6 1.3225 1.22107 0
M  V30 2470 H 238.975 0.698762 0.277913 0
M  V30 2471 H 240.946 2.97231 0.263862 0
M  V30 2472 C 239.695 2.82065 2.03309 0
M  V30 2473 H 239.018 3.61968 1.69763 0
M  V30 2474 H 240.458 3.28477 2.68103 0
M  V30 2475 C 238.917 1.80739 2.84315 0
M  V30 2476 O 239.447 1.27983 3.80767 0
M  V30 2477 N 237.653 1.4997 2.48913 0
M  V30 2478 H 237.2 1.93062 1.70542 0
M  V30 2479 H 237.158 0.824217 3.03404 0
M  V30 2480 N 240.93 -0.123565 1.57115 0
M  V30 2481 C 241.863 -1.18202 1.95201 0
M  V30 2482 C 242.841 -1.40349 0.821031 0
M  V30 2483 O 244.025 -1.54578 1.07879 0
M  V30 2484 C 241.152 -2.53671 2.24429 0
M  V30 2485 C 240.198 -2.4798 3.46999 0
M  V30 2486 S 241.031 -1.92389 4.99747 0
M  V30 2487 C 242.187 -3.2954 5.32123 0
M  V30 2488 H 242.42 -0.857212 2.84674 0
M  V30 2489 H 239.953 -0.33014 1.50829 0
M  V30 2490 H 241.911 -3.3162 2.41947 0
M  V30 2491 H 240.572 -2.83332 1.35579 0
M  V30 2492 H 239.765 -3.47758 3.64801 0
M  V30 2493 H 239.367 -1.7815 3.28844 0
M  V30 2494 H 241.659 -4.25736 5.27025 0
M  V30 2495 H 242.602 -3.16569 6.33395 0
M  V30 2496 H 243.01 -3.27758 4.59603 0
M  V30 2497 N 242.408 -1.52605 -0.393616 0
M  V30 2498 C 243.338 -1.80022 -1.48709 0
M  V30 2499 C 244.319 -0.651995 -1.57108 0
M  V30 2500 O 245.504 -0.89913 -1.72132 0
M  V30 2501 C 242.634 -1.96492 -2.86371 0
M  V30 2502 C 241.588 -3.12161 -2.92813 0
M  V30 2503 C 240.914 -3.13877 -4.3288 0
M  V30 2504 C 242.214 -4.51322 -2.6288 0
M  V30 2505 H 243.908 -2.71589 -1.26015 0
M  V30 2506 H 241.454 -1.30684 -0.604778 0
M  V30 2507 H 243.407 -2.14255 -3.62867 0
M  V30 2508 H 242.131 -1.01611 -3.10391 0
M  V30 2509 H 240.79 -2.94173 -2.18764 0
M  V30 2510 H 240.438 -2.16687 -4.53933 0
M  V30 2511 H 240.138 -3.91576 -4.38112 0
M  V30 2512 H 241.662 -3.33789 -5.1129 0
M  V30 2513 H 243.076 -4.69435 -3.29096 0
M  V30 2514 H 241.473 -5.31053 -2.79468 0
M  V30 2515 H 242.543 -4.58353 -1.58242 0
M  V30 2516 N 243.887 0.651787 -1.4349 0
M  V30 2517 C 245.135 1.40888 -1.44897 0
M  V30 2518 C 245.456 1.94856 -0.0749086 0
M  V30 2519 O 244.726 1.74518 0.889956 0
M  V30 2520 H 243.306 0.522887 -0.533478 0
M  V30 2521 H 245.968 0.768609 -1.79104 0
M  V30 2522 H 245.064 2.25052 -2.16236 0
M  V30 2523 N 245.365 1.30045 0.890287 0
M  V30 2524 C 246.59 1.21598 1.68014 0
M  V30 2525 C 247.015 -0.218678 1.86825 0
M  V30 2526 O 246.373 -1.15756 1.39536 0
M  V30 2527 C 246.421 1.94434 3.03691 0
M  V30 2528 O 245.525 1.2678 3.92429 0
M  V30 2529 H 244.866 0.420856 0.513592 0
M  V30 2530 H 247.396 1.71775 1.11151 0
M  V30 2531 H 247.406 2.03251 3.5377 0
M  V30 2532 H 246.081 2.98777 2.89318 0
M  V30 2533 H 244.658 1.26282 3.50866 0
M  V30 2534 N 246.843 -1.10192 1.12674 0
M  V30 2535 C 248.09 -1.82205 0.883606 0
M  V30 2536 C 248.418 -1.8532 -0.590492 0
M  V30 2537 O 247.673 -1.31137 -1.45264 0
M  V30 2538 C 247.972 -3.28552 1.4067 0
M  V30 2539 C 247.638 -3.45582 2.89627 0
M  V30 2540 C 246.3 -3.49937 3.30299 0
M  V30 2541 C 248.652 -3.50768 3.85501 0
M  V30 2542 C 245.98 -3.57049 4.65546 0
M  V30 2543 C 248.332 -3.59414 5.20581 0
M  V30 2544 C 246.996 -3.62034 5.60792 0
M  V30 2545 H 246.266 -0.666735 0.323334 0
M  V30 2546 H 248.913 -1.29868 1.40736 0
M  V30 2547 H 247.218 -3.83473 0.80347 0
M  V30 2548 H 248.915 -3.82788 1.19475 0
M  V30 2549 H 245.505 -3.42871 2.57172 0
M  V30 2550 H 249.689 -3.46651 3.55171 0
M  V30 2551 H 244.945 -3.57361 4.96088 0
M  V30 2552 H 249.119 -3.62371 5.94693 0
M  V30 2553 H 246.746 -3.67298 6.6558 0
M  V30 2554 N 248.321 -0.919034 -1.28029 0
M  V30 2555 C 249.254 -0.355887 -2.25408 0
M  V30 2556 C 250.232 0.542874 -1.5327 0
M  V30 2557 O 251.416 0.485338 -1.82145 0
M  V30 2558 C 248.543 0.490759 -3.35126 0
M  V30 2559 C 247.589 -0.343358 -4.25116 0
M  V30 2560 S 248.422 -1.75344 -5.05979 0
M  V30 2561 C 249.578 -0.914244 -6.19187 0
M  V30 2562 H 249.811 -1.18123 -2.72826 0
M  V30 2563 H 247.344 -0.720636 -1.36551 0
M  V30 2564 H 249.302 0.973404 -3.98792 0
M  V30 2565 H 247.963 1.29054 -2.86363 0
M  V30 2566 H 247.156 0.304266 -5.03081 0
M  V30 2567 H 246.758 -0.759851 -3.662 0
M  V30 2568 H 249.05 -0.146282 -6.77342 0
M  V30 2569 H 249.993 -1.66661 -6.88208 0
M  V30 2570 H 250.401 -0.460082 -5.62622 0
M  V30 2571 N 249.799 1.42003 -0.683588 0
M  V30 2572 C 251.048 2.00638 -0.206681 0
M  V30 2573 C 251.361 1.5472 1.19671 0
M  V30 2574 O 252.567 2.05833 1.77045 0
M  V30 2575 C 251.023 3.58487 -0.318632 0
M  V30 2576 C 250.631 4.1339 -1.72663 0
M  V30 2577 C 252.375 4.24384 0.0991141 0
M  V30 2578 C 250.282 5.63633 -1.79087 0
M  V30 2579 H 249.212 0.750408 -0.0735107 0
M  V30 2580 H 251.863 1.62624 -0.850048 0
M  V30 2581 H 250.245 3.94047 0.392781 0
M  V30 2582 H 251.419 3.89273 -2.46583 0
M  V30 2583 H 249.734 3.59976 -2.09299 0
M  V30 2584 H 252.331 5.34652 0.0713833 0
M  V30 2585 H 252.674 4.00505 1.13586 0
M  V30 2586 H 253.207 3.93816 -0.561599 0
M  V30 2587 H 249.946 5.92323 -2.80774 0
M  V30 2588 H 249.466 5.89714 -1.09535 0
M  V30 2589 H 251.145 6.28201 -1.5483 0
M  V30 2590 N 251.277 0.427512 1.51691 0
M  V30 2591 C 252.693 0.0792977 1.59403 0
M  V30 2592 C 252.893 -1.41035 1.43914 0
M  V30 2593 O 251.949 -2.17922 1.27539 0
M  V30 2594 C 253.262 0.590636 2.94842 0
M  V30 2595 C 254.81 0.550215 3.08126 0
M  V30 2596 C 255.285 1.03836 4.46074 0
M  V30 2597 N 256.776 0.995943 4.52366 0
M  V30 2598 C 257.511 1.34463 5.57411 0
M  V30 2599 N 257.007 1.76569 6.69922 0
M  V30 2600 N 258.8 1.26343 5.47717 0
M  V30 2601 H 250.951 1.39687 1.60004 0
M  V30 2602 H 253.214 0.575003 0.753708 0
M  V30 2603 H 252.92 1.63251 3.11516 0
M  V30 2604 H 252.794 0.0102061 3.77199 0
M  V30 2605 H 255.181 -0.482654 2.91126 0
M  V30 2606 H 255.262 1.16693 2.27632 0
M  V30 2607 H 254.906 2.06965 4.63819 0
M  V30 2608 H 254.836 0.398286 5.25092 0
M  V30 2609 H 257.327 0.68661 3.7161 0
M  V30 2610 H 257.64 2.01438 7.46085 0
M  V30 2611 H 255.985 1.80488 6.71155 0
M  V30 2612 H 259.176 0.933209 4.58703 0
M  V30 2613 H 259.349 1.53846 6.29472 0
M  V30 2614 N 252.755 -1.56801 0.158532 0
M  V30 2615 C 254.032 -1.88131 -0.535357 0
M  V30 2616 C 254.412 -1.06638 -1.82186 0
M  V30 2617 O 253.76 -0.156533 -2.27963 0
M  V30 2618 C 253.97 -3.39949 -0.789653 0
M  V30 2619 C 255.318 -4.09416 -1.12533 0
M  V30 2620 O 256.342 -3.45194 -0.878622 0
M  V30 2621 O 255.201 -5.22855 -1.59014 0
M  V30 2622 H 252.295 -0.780143 -0.27442 0
M  V30 2623 H 254.841 -1.68564 0.19601 0
M  V30 2624 H 253.613 -3.91115 0.120353 0
M  V30 2625 H 253.236 -3.65084 -1.57479 0
M  V30 2626 N 254.233 0.115231 -1.57178 0
M  V30 2627 C 255.458 0.840354 -1.89612 0
M  V30 2628 C 255.883 1.72464 -0.750845 0
M  V30 2629 O 255.241 1.78826 0.298478 0
M  V30 2630 C 255.289 1.64654 -3.20814 0
M  V30 2631 O 254.393 2.7538 -3.06985 0
M  V30 2632 H 253.734 0.232158 -0.622092 0
M  V30 2633 H 256.264 0.0964977 -2.04372 0
M  V30 2634 H 256.274 2.03499 -3.53627 0
M  V30 2635 H 254.949 0.997416 -4.03763 0
M  V30 2636 H 253.526 2.3971 -2.85646 0
M  V30 2637 N 255.711 1.52812 0.385517 0
M  V30 2638 C 256.621 1.80766 1.49535 0
M  V30 2639 C 257.637 0.694651 1.59532 0
M  V30 2640 O 258.813 0.982611 1.75803 0
M  V30 2641 C 255.878 1.97381 2.85029 0
M  V30 2642 C 254.939 3.21295 2.84724 0
M  V30 2643 C 254.172 3.37108 4.13756 0
M  V30 2644 O 254.395 2.5765 5.08893 0
M  V30 2645 O 253.329 4.30378 4.20783 0
M  V30 2646 H 257.155 2.75015 1.28842 0
M  V30 2647 H 254.74 1.37946 0.573697 0
M  V30 2648 H 256.622 2.09996 3.65349 0
M  V30 2649 H 255.297 1.06322 3.05741 0
M  V30 2650 H 254.204 3.1412 2.03174 0
M  V30 2651 H 255.537 4.12212 2.68965 0
M  V30 2652 N 257.189 -0.644168 1.43834 0
M  V30 2653 C 258.417 -1.43147 1.49387 0
M  V30 2654 C 258.832 -1.88452 0.114583 0
M  V30 2655 O 258.189 -1.60047 -0.876989 0
M  V30 2656 C 258.24 -2.66046 2.44748 0
M  V30 2657 O 257.961 -2.22633 3.77314 0
M  V30 2658 C 259.462 -3.59311 2.59635 0
M  V30 2659 H 256.682 -0.439447 0.507077 0
M  V30 2660 H 259.226 -0.78895 1.88669 0
M  V30 2661 H 257.381 -3.26418 2.08638 0
M  V30 2662 H 257.795 -3.02216 4.28679 0
M  V30 2663 H 259.269 -4.42187 3.30416 0
M  V30 2664 H 259.746 -4.07259 1.64427 0
M  V30 2665 H 260.352 -3.04816 2.96593 0
M  V30 2666 N 258.668 -1.30515 -0.883378 0
M  V30 2667 C 259.896 -1.22359 -1.66841 0
M  V30 2668 C 260.311 0.213296 -1.87591 0
M  V30 2669 O 259.668 1.14075 -1.42454 0
M  V30 2670 C 259.719 -1.95011 -3.04389 0
M  V30 2671 O 259.44 -3.3309 -2.84575 0
M  V30 2672 C 260.941 -1.93532 -3.98824 0
M  V30 2673 H 258.161 -0.423371 -0.520575 0
M  V30 2674 H 260.705 -1.72167 -1.10357 0
M  V30 2675 H 258.86 -1.48997 -3.57601 0
M  V30 2676 H 259.274 -3.69907 -3.71846 0
M  V30 2677 H 260.748 -2.48902 -4.92699 0
M  V30 2678 H 261.225 -0.914627 -4.29571 0
M  V30 2679 H 261.831 -2.39364 -3.51547 0
M  V30 2680 N 260.146 1.09593 -1.13257 0
M  V30 2681 C 261.093 2.1618 -0.808381 0
M  V30 2682 C 262.063 1.64517 0.228754 0
M  V30 2683 O 263.248 1.9053 0.101381 0
M  V30 2684 C 260.388 3.43973 -0.278675 0
M  V30 2685 C 259.501 4.09545 -1.37466 0
M  V30 2686 C 258.636 5.25088 -0.803479 0
M  V30 2687 C 257.675 5.82579 -1.87799 0
M  V30 2688 N 256.812 6.89486 -1.32488 0
M  V30 2689 H 261.652 2.43254 -1.72138 0
M  V30 2690 H 259.189 1.19392 -0.859294 0
M  V30 2691 H 261.147 4.17174 0.0465583 0
M  V30 2692 H 259.777 3.17223 0.597459 0
M  V30 2693 H 258.829 3.34226 -1.81652 0
M  V30 2694 H 260.141 4.48307 -2.18684 0
M  V30 2695 H 259.295 6.05178 -0.429427 0
M  V30 2696 H 258.034 4.87684 0.0397956 0
M  V30 2697 H 257.039 5.01152 -2.26113 0
M  V30 2698 H 258.264 6.22045 -2.72463 0
M  V30 2699 H 256.21 6.54064 -0.503575 0
M  V30 2700 H 256.127 7.27007 -2.07355 0
M  V30 2701 H 257.395 7.73336 -0.978336 0
M  V30 2702 N 261.624 0.925811 1.2754 0
M  V30 2703 C 262.872 0.564138 1.94067 0
M  V30 2704 C 263.193 -0.897188 1.73134 0
M  V30 2705 O 262.463 -1.63573 1.07799 0
M  V30 2706 H 261.043 0.205645 0.718136 0
M  V30 2707 H 263.705 1.1778 1.55287 0
M  V30 2708 H 262.801 0.76881 3.02483 0
M  V30 2709 N 263.102 -1.41638 0.69111 0
M  V30 2710 C 264.327 -2.06148 0.227583 0
M  V30 2711 C 264.752 -1.51652 -1.11281 0
M  V30 2712 O 264.11 -0.64164 -1.69566 0
M  V30 2713 C 264.158 -3.60095 0.190858 0
M  V30 2714 O 263.262 -4.03845 -0.835664 0
M  V30 2715 H 262.603 -0.654434 0.112306 0
M  V30 2716 H 265.133 -1.81484 0.944714 0
M  V30 2717 H 265.143 -4.07995 0.020207 0
M  V30 2718 H 263.818 -3.99129 1.16915 0
M  V30 2719 H 262.395 -3.67458 -0.63473 0
M  V30 2720 N 264.58 -0.43555 -1.51462 0
M  V30 2721 C 265.81 0.130053 -2.0619 0
M  V30 2722 C 266.218 1.37164 -1.30317 0
M  V30 2723 O 265.561 1.80225 -0.355598 0
M  V30 2724 C 265.623 0.519418 -3.55728 0
M  V30 2725 C 265.287 -0.615119 -4.52841 0
M  V30 2726 C 266.284 -1.48671 -4.9819 0
M  V30 2727 C 263.969 -0.795341 -4.95963 0
M  V30 2728 C 265.963 -2.52324 -5.8533 0
M  V30 2729 C 263.65 -1.83514 -5.82894 0
M  V30 2730 C 264.648 -2.69748 -6.27475 0
M  V30 2731 O 264.336 -3.71944 -7.1268 0
M  V30 2732 H 264.068 0.0121612 -0.675891 0
M  V30 2733 H 266.622 -0.6129 -1.96043 0
M  V30 2734 H 264.852 1.31505 -3.63653 0
M  V30 2735 H 266.541 1.01597 -3.92979 0
M  V30 2736 H 267.307 -1.359 -4.65571 0
M  V30 2737 H 263.186 -0.133713 -4.60806 0
M  V30 2738 H 266.73 -3.19665 -6.20048 0
M  V30 2739 H 262.627 -1.96306 -6.14926 0
M  V30 2740 H 263.395 -3.68503 -7.30854 0
M  V30 2741 N 266.058 1.56714 -0.166846 0
M  V30 2742 C 267.283 2.01557 0.488833 0
M  V30 2743 C 267.708 1.0463 1.56314 0
M  V30 2744 O 267.066 0.0251304 1.81283 0
M  V30 2745 C 267.114 3.4503 1.04818 0
M  V30 2746 O 266.218 3.51163 2.16236 0
M  V30 2747 H 265.559 0.653516 0.117526 0
M  V30 2748 H 268.089 2.02818 -0.269421 0
M  V30 2749 H 268.099 3.84243 1.37191 0
M  V30 2750 H 266.774 4.15077 0.261572 0
M  V30 2751 H 265.351 3.23807 1.84942 0
M  V30 2752 N 267.536 -0.106894 1.57237 0
M  V30 2753 C 268.466 -1.13148 2.04254 0
M  V30 2754 C 269.447 -1.42476 0.929224 0
M  V30 2755 O 270.632 -1.52709 1.19973 0
M  V30 2756 C 267.762 -2.4545 2.45706 0
M  V30 2757 C 266.716 -2.30558 3.60592 0
M  V30 2758 C 266.042 -3.67931 3.87983 0
M  V30 2759 C 267.342 -1.75597 4.91897 0
M  V30 2760 H 269.036 -0.740374 2.90101 0
M  V30 2761 H 266.582 -0.354696 1.39563 0
M  V30 2762 H 268.535 -3.17389 2.77205 0
M  V30 2763 H 267.259 -2.86475 1.56843 0
M  V30 2764 H 265.918 -1.61067 3.29322 0
M  V30 2765 H 265.566 -4.06462 2.96306 0
M  V30 2766 H 265.266 -3.58817 4.65322 0
M  V30 2767 H 266.79 -4.41356 4.21945 0
M  V30 2768 H 268.204 -2.37364 5.21854 0
M  V30 2769 H 266.601 -1.77272 5.73319 0
M  V30 2770 H 267.671 -0.714451 4.79608 0
M  V30 2771 N 269.014 -1.53014 -0.377408 0
M  V30 2772 C 270.239 -1.72818 -1.14668 0
M  V30 2773 C 270.664 -0.450725 -1.8262 0
M  V30 2774 O 270.022 0.59439 -1.7128 0
M  V30 2775 C 270.07 -2.88627 -2.16164 0
M  V30 2776 O 269.174 -2.56409 -3.22998 0
M  V30 2777 H 268.515 -0.574301 -0.333278 0
M  V30 2778 H 271.045 -1.99853 -0.438152 0
M  V30 2779 H 271.055 -3.14455 -2.59966 0
M  V30 2780 H 269.73 -3.81294 -1.66095 0
M  V30 2781 H 268.307 -2.4136 -2.84253 0
M  V30 2782 N 270.492 0.636531 -1.44174 0
M  V30 2783 C 271.738 1.39826 -1.4689 0
M  V30 2784 C 272.071 1.93947 -0.0990585 0
M  V30 2785 O 271.346 1.73325 0.882544 0
M  V30 2786 C 271.629 2.56751 -2.5249 0
M  V30 2787 C 271.482 2.08014 -3.98811 0
M  V30 2788 C 272.801 3.58946 -2.54649 0
M  V30 2789 H 269.92 0.507075 -0.53483 0
M  V30 2790 H 272.562 0.720188 -1.75822 0
M  V30 2791 H 270.712 3.14597 -2.2795 0
M  V30 2792 H 272.384 1.5504 -4.34466 0
M  V30 2793 H 270.627 1.39242 -4.10846 0
M  V30 2794 H 271.298 2.92169 -4.68339 0
M  V30 2795 H 273.774 3.1089 -2.76563 0
M  V30 2796 H 272.65 4.38286 -3.3045 0
M  V30 2797 H 272.911 4.12655 -1.58646 0
M  V30 2798 N 271.97 1.30982 0.876444 0
M  V30 2799 C 273.386 1.09498 1.16113 0
M  V30 2800 C 273.586 -0.13875 2.01022 0
M  V30 2801 O 272.642 -0.829935 2.38471 0
M  V30 2802 C 273.955 2.36308 1.85954 0
M  V30 2803 C 275.503 2.41856 1.98683 0
M  V30 2804 C 275.978 3.6853 2.71937 0
M  V30 2805 N 277.469 3.69387 2.79477 0
M  V30 2806 C 278.204 4.64096 3.36753 0
M  V30 2807 N 277.7 5.69155 3.95012 0
M  V30 2808 N 279.493 4.51626 3.3465 0
M  V30 2809 H 271.644 2.10118 0.310494 0
M  V30 2810 H 273.907 0.926634 0.200131 0
M  V30 2811 H 273.613 3.26388 1.31011 0
M  V30 2812 H 273.487 2.4561 2.86278 0
M  V30 2813 H 275.874 1.52249 2.52793 0
M  V30 2814 H 275.955 2.36523 0.9742 0
M  V30 2815 H 275.599 4.58499 2.18496 0
M  V30 2816 H 275.529 3.71127 3.73593 0
M  V30 2817 H 278.02 2.93438 2.38123 0
M  V30 2818 H 278.333 6.3751 4.36808 0
M  V30 2819 H 276.678 5.72937 3.93406 0
M  V30 2820 H 279.869 3.68728 2.8837 0
M  V30 2821 H 280.042 5.25614 3.7899 0
M  V30 2822 N 273.449 -1.08991 1.13837 0
M  V30 2823 C 274.726 -1.77863 0.813876 0
M  V30 2824 C 275.106 -1.99375 -0.693746 0
M  V30 2825 O 274.454 -1.59875 -1.63255 0
M  V30 2826 C 274.664 -3.0986 1.60586 0
M  V30 2827 C 276.012 -3.84493 1.8014 0
M  V30 2828 O 277.036 -3.19624 1.57222 0
M  V30 2829 O 275.895 -5.00957 2.18413 0
M  V30 2830 H 272.989 -0.771589 0.297624 0
M  V30 2831 H 275.535 -1.15507 1.24323 0
M  V30 2832 H 274.307 -2.89715 2.63022 0
M  V30 2833 H 273.93 -3.79942 1.17173 0
M  V30 2834 N 274.927 -0.932562 -1.27047 0
M  V30 2835 C 276.157 -0.591173 -1.97961 0
M  V30 2836 C 276.565 0.836219 -1.69717 0
M  V30 2837 O 275.908 1.56801 -0.957036 0
M  V30 2838 C 275.97 -0.743082 -3.51736 0
M  V30 2839 C 275.634 -2.1435 -4.03613 0
M  V30 2840 C 276.631 -3.11815 -4.16014 0
M  V30 2841 C 274.316 -2.46175 -4.37839 0
M  V30 2842 C 276.31 -4.39211 -4.61923 0
M  V30 2843 C 273.997 -3.73806 -4.83438 0
M  V30 2844 C 274.995 -4.70137 -4.95439 0
M  V30 2845 O 274.683 -5.95496 -5.40037 0
M  V30 2846 H 274.415 -0.222375 -0.638377 0
M  V30 2847 H 276.969 -1.25317 -1.62742 0
M  V30 2848 H 275.199 -0.0239739 -3.86693 0
M  V30 2849 H 276.888 -0.40603 -4.03864 0
M  V30 2850 H 277.654 -2.88549 -3.89826 0
M  V30 2851 H 273.533 -1.71936 -4.27737 0
M  V30 2852 H 277.077 -5.14404 -4.71205 0
M  V30 2853 H 272.974 -3.96888 -5.09068 0
M  V30 2854 H 273.742 -5.98554 -5.58279 0
M  V30 2855 N 276.405 1.4127 -0.698611 0
M  V30 2856 C 277.682 1.94955 -0.158762 0
M  V30 2857 C 278.062 1.63781 1.33188 0
M  V30 2858 O 277.41 0.946423 2.07979 0
M  V30 2859 C 277.62 3.46044 -0.453309 0
M  V30 2860 C 278.968 4.22872 -0.382707 0
M  V30 2861 O 279.992 3.54076 -0.388396 0
M  V30 2862 O 278.851 5.45407 -0.345463 0
M  V30 2863 H 275.945 0.82683 -0.0167505 0
M  V30 2864 H 278.491 1.50971 -0.77498 0
M  V30 2865 H 277.263 3.62028 -1.48498 0
M  V30 2866 H 276.886 3.97128 0.19373 0
M  V30 2867 N 277.883 0.443576 1.51229 0
M  V30 2868 C 279.294 -0.0180867 1.86691 0
M  V30 2869 C 279.645 -1.41384 1.36033 0
M  V30 2870 O 278.77 -2.04291 0.713722 0
M  V30 2871 C 279.365 -0.039597 3.38777 0
M  V30 2872 C 277.924 -0.445692 3.73752 0
M  V30 2873 C 277.071 0.357584 2.74985 0
M  V30 2874 H 280.022 0.659138 1.44364 0
M  V30 2875 H 280.043 -0.847761 3.70936 0
M  V30 2876 H 279.555 0.976382 3.75617 0
M  V30 2877 H 277.656 -1.46704 3.42503 0
M  V30 2878 H 277.769 -0.166155 4.78812 0
M  V30 2879 H 276.133 -0.184973 2.54027 0
M  V30 2880 H 276.916 1.37256 3.14668 0
M  V30 2881 N 279.361 -1.56624 0.175154 0
M  V30 2882 C 280.777 -1.58571 -0.180966 0
M  V30 2883 C 280.977 -1.19065 -1.6256 0
M  V30 2884 O 280.033 -0.904044 -2.35761 0
M  V30 2885 C 281.346 -3.00522 0.103326 0
M  V30 2886 C 282.894 -3.12972 0.0418426 0
M  V30 2887 C 283.369 -4.57022 0.299175 0
M  V30 2888 N 284.86 -4.62541 0.247086 0
M  V30 2889 C 285.595 -5.71857 0.420318 0
M  V30 2890 N 285.091 -6.89717 0.652816 0
M  V30 2891 N 286.884 -5.60972 0.355957 0
M  V30 2892 H 279.035 -1.80589 1.11809 0
M  V30 2893 H 281.298 -0.837178 0.444788 0
M  V30 2894 H 281.004 -3.33916 1.10422 0
M  V30 2895 H 280.878 -3.72344 -0.603299 0
M  V30 2896 H 283.265 -2.79403 -0.949636 0
M  V30 2897 H 283.346 -2.43578 0.781238 0
M  V30 2898 H 282.99 -4.913 1.28788 0
M  V30 2899 H 282.92 -5.24579 -0.460876 0
M  V30 2900 H 285.411 -3.77829 0.0731895 0
M  V30 2901 H 285.724 -7.68911 0.774347 0
M  V30 2902 H 284.069 -6.91572 0.689476 0
M  V30 2903 H 287.26 -4.67773 0.174882 0
M  V30 2904 H 287.433 -6.46111 0.494388 0
M  V30 2905 N 280.839 0.0985539 -1.57292 0
M  V30 2906 C 281.771 1.14595 -1.98496 0
M  V30 2907 C 282.784 1.36512 -0.887031 0
M  V30 2908 O 283.973 1.35225 -1.16518 0
M  V30 2909 C 281.073 2.50216 -2.28572 0
M  V30 2910 C 280.246 2.48624 -3.59868 0
M  V30 2911 C 279.305 3.66146 -3.7792 0
M  V30 2912 O 278.331 3.48795 -4.49812 0
M  V30 2913 N 279.533 4.85496 -3.18235 0
M  V30 2914 H 282.298 0.795277 -2.88956 0
M  V30 2915 H 279.859 0.287579 -1.59325 0
M  V30 2916 H 281.851 3.27432 -2.37845 0
M  V30 2917 H 280.421 2.77387 -1.44136 0
M  V30 2918 H 279.641 1.56978 -3.61596 0
M  V30 2919 H 280.929 2.44635 -4.46129 0
M  V30 2920 H 280.327 5.02497 -2.59833 0
M  V30 2921 H 278.884 5.60317 -3.32999 0
M  V30 2922 N 282.317 1.53212 0.369288 0
M  V30 2923 C 283.565 1.68881 1.11012 0
M  V30 2924 C 283.886 0.441285 1.89941 0
M  V30 2925 O 283.156 -0.544623 1.88177 0
M  V30 2926 H 281.736 0.622569 0.412816 0
M  V30 2927 H 284.398 1.90391 0.416802 0
M  V30 2928 H 283.494 2.54822 1.80201 0
M  V30 2929 N 283.795 -0.628877 1.44509 0
M  V30 2930 C 285.072 -1.38733 1.37886 0
M  V30 2931 C 285.452 -2.11065 0.0387008 0
M  V30 2932 O 284.8 -2.06476 -0.97878 0
M  V30 2933 C 285.01 -2.35188 2.57852 0
M  V30 2934 C 286.358 -2.9845 3.02014 0
M  V30 2935 O 287.382 -2.45513 2.58073 0
M  V30 2936 O 286.241 -3.94487 3.78209 0
M  V30 2937 H 283.335 -0.621015 0.54614 0
M  V30 2938 H 285.881 -0.653744 1.56602 0
M  V30 2939 H 284.653 -1.80855 3.46998 0
M  V30 2940 H 284.276 -3.1596 2.4136 0
M  V30 2941 N 285.273 -1.31445 -0.869486 0
M  V30 2942 C 286.501 -1.24122 -1.65534 0
M  V30 2943 C 286.916 0.193387 -1.87807 0
M  V30 2944 O 286.273 1.12557 -1.43656 0
M  V30 2945 C 286.324 -1.98229 -3.02304 0
M  V30 2946 O 286.045 -3.3609 -2.81026 0
M  V30 2947 C 287.546 -1.97751 -3.96749 0
M  V30 2948 H 284.766 -0.428868 -0.516055 0
M  V30 2949 H 287.31 -1.73328 -1.08525 0
M  V30 2950 H 285.465 -1.52782 -3.56001 0
M  V30 2951 H 285.879 -3.7383 -3.67902 0
M  V30 2952 H 287.353 -2.54114 -4.90031 0
M  V30 2953 H 287.83 -0.960137 -4.28577 0
M  V30 2954 H 288.436 -2.43079 -3.48988 0
M  V30 2955 N 286.751 1.08385 -1.14413 0
M  V30 2956 C 287.997 1.81044 -0.913834 0
M  V30 2957 C 288.33 1.86004 0.558209 0
M  V30 2958 O 287.605 1.33606 1.4135 0
M  V30 2959 C 287.888 3.26648 -1.51569 0
M  V30 2960 C 287.741 3.29895 -3.0576 0
M  V30 2961 C 289.06 4.23629 -1.19273 0
M  V30 2962 H 286.179 0.65727 -0.333414 0
M  V30 2963 H 288.821 1.26896 -1.41412 0
M  V30 2964 H 286.971 3.72889 -1.09023 0
M  V30 2965 H 288.643 2.91977 -3.57137 0
M  V30 2966 H 286.886 2.69163 -3.40197 0
M  V30 2967 H 287.557 4.32516 -3.42977 0
M  V30 2968 H 290.033 3.85727 -1.56057 0
M  V30 2969 H 288.909 5.23822 -1.64017 0
M  V30 2970 H 289.17 4.41968 -0.108068 0
M  V30 2971 N 288.23 0.939286 1.26551 0
M  V30 2972 C 289.177 0.446088 2.26448 0
M  V30 2973 C 290.147 -0.493234 1.58608 0
M  V30 2974 O 291.332 -0.409857 1.86346 0
M  V30 2975 C 288.472 -0.284375 3.43926 0
M  V30 2976 C 287.585 0.690399 4.26448 0
M  V30 2977 C 286.72 -0.0610712 5.31165 0
M  V30 2978 C 285.759 0.905649 6.05363 0
M  V30 2979 N 284.896 0.186055 7.01853 0
M  V30 2980 H 289.736 1.30291 2.68008 0
M  V30 2981 H 287.273 0.65371 1.31776 0
M  V30 2982 H 289.231 -0.724313 4.10864 0
M  V30 2983 H 287.861 -1.10535 3.03285 0
M  V30 2984 H 286.913 1.24885 3.59316 0
M  V30 2985 H 288.225 1.42873 4.779 0
M  V30 2986 H 287.379 -0.56038 6.04106 0
M  V30 2987 H 286.118 -0.832297 4.80546 0
M  V30 2988 H 285.123 1.4161 5.3125 0
M  V30 2989 H 286.348 1.67685 6.58072 0
M  V30 2990 H 284.294 -0.566714 6.53548 0
M  V30 2991 H 284.211 0.863752 7.51049 0
M  V30 2992 H 285.479 -0.292221 7.78952 0
M  V30 2993 N 289.708 -1.40897 0.706093 0
M  V30 2994 C 290.658 -2.27987 0.0240746 0
M  V30 2995 C 291.642 -1.42759 -0.742204 0
M  V30 2996 O 292.834 -1.65936 -0.615966 0
M  V30 2997 C 289.963 -3.31186 -0.903907 0
M  V30 2998 C 289.049 -4.2389 -0.133318 0
M  V30 2999 N 289.44 -4.98113 0.878444 0
M  V30 3000 C 287.738 -4.44485 -0.367269 0
M  V30 3001 C 288.439 -5.6604 1.34064 0
M  V30 3002 N 287.415 -5.39522 0.664565 0
M  V30 3003 H 291.217 -2.82812 0.799658 0
M  V30 3004 H 288.731 -1.53235 0.537845 0
M  V30 3005 H 290.728 -3.92413 -1.40775 0
M  V30 3006 H 289.388 -2.77922 -1.67897 0
M  V30 3007 H 290.399 -5.02364 1.25901 0
M  V30 3008 H 287.076 -4.02213 -1.1194 0
M  V30 3009 H 288.466 -6.35524 2.1808 0
M  V30 3010 N 291.186 -0.45159 -1.50991 0
M  V30 3011 C 292.416 0.108177 -2.06317 0
M  V30 3012 C 292.824 1.35774 -1.31765 0
M  V30 3013 O 292.167 1.79838 -0.374694 0
M  V30 3014 C 292.229 0.481659 -3.56259 0
M  V30 3015 C 291.893 -0.663114 -4.52163 0
M  V30 3016 C 292.89 -1.53947 -4.96585 0
M  V30 3017 C 290.575 -0.8479 -4.95092 0
M  V30 3018 C 292.569 -2.58518 -5.82621 0
M  V30 3019 C 290.256 -1.89686 -5.80915 0
M  V30 3020 C 291.254 -2.76388 -6.24579 0
M  V30 3021 O 290.942 -3.79482 -7.08695 0
M  V30 3022 H 290.674 0.00499183 -0.675982 0
M  V30 3023 H 293.228 -0.633659 -1.95381 0
M  V30 3024 H 291.458 1.27641 -3.65027 0
M  V30 3025 H 293.147 0.974233 -3.94035 0
M  V30 3026 H 293.913 -1.4083 -4.64103 0
M  V30 3027 H 289.792 -0.18258 -4.60638 0
M  V30 3028 H 293.336 -3.26224 -6.16623 0
M  V30 3029 H 289.233 -2.02817 -6.12809 0
M  V30 3030 H 290.001 -3.76234 -7.26905 0
M  V30 3031 N 292.664 1.56529 -0.183458 0
M  V30 3032 C 293.611 2.18546 0.742055 0
M  V30 3033 C 294.581 1.12912 1.2182 0
M  V30 3034 O 295.766 1.41115 1.28418 0
M  V30 3035 C 292.906 2.83977 1.96089 0
M  V30 3036 C 292.019 4.04105 1.52719 0
M  V30 3037 C 291.154 4.57427 2.70063 0
M  V30 3038 C 290.193 5.69938 2.23243 0
M  V30 3039 N 289.33 6.17717 3.33722 0
M  V30 3040 H 294.17 2.97284 0.206432 0
M  V30 3041 H 291.707 1.46823 0.0901571 0
M  V30 3042 H 293.665 3.20077 2.67594 0
M  V30 3043 H 292.295 2.07822 2.47002 0
M  V30 3044 H 291.347 3.73745 0.708436 0
M  V30 3045 H 292.659 4.85513 1.1436 0
M  V30 3046 H 291.813 4.95772 3.49708 0
M  V30 3047 H 290.552 3.75101 3.11689 0
M  V30 3048 H 289.557 5.31133 1.42048 0
M  V30 3049 H 290.782 6.54073 1.82661 0
M  V30 3050 H 288.728 5.38317 3.74902 0
M  V30 3051 H 288.645 6.94146 2.99495 0
M  V30 3052 H 289.913 6.60713 4.13616 0
M  V30 3053 N 294.142 -0.090211 1.57342 0
M  V30 3054 C 295.391 -0.791531 1.8552 0
M  V30 3055 C 295.704 -1.79659 0.773441 0
M  V30 3056 O 296.91 -2.54616 0.942497 0
M  V30 3057 C 295.366 -1.45856 3.2902 0
M  V30 3058 C 294.974 -0.493017 4.45279 0
M  V30 3059 C 296.718 -2.14332 3.66418 0
M  V30 3060 C 294.625 -1.16491 5.79814 0
M  V30 3061 H 293.555 -0.299356 0.692027 0
M  V30 3062 H 296.206 -0.0445343 1.83446 0
M  V30 3063 H 294.588 -2.25318 3.2565 0
M  V30 3064 H 295.762 0.270464 4.60006 0
M  V30 3065 H 294.077 0.0863061 4.16311 0
M  V30 3066 H 296.674 -2.65344 4.64216 0
M  V30 3067 H 297.017 -2.93447 2.95287 0
M  V30 3068 H 297.55 -1.41724 3.71698 0
M  V30 3069 H 294.289 -0.41447 6.54188 0
M  V30 3070 H 293.809 -1.8997 5.68921 0
M  V30 3071 H 295.488 -1.69001 6.24538 0
M  V30 3072 N 295.62 -1.53406 -0.361157 0
M  V30 3073 C 297.036 -1.43277 -0.703124 0
M  V30 3074 C 297.236 -0.575384 -1.9311 0
M  V30 3075 O 296.292 -0.0595362 -2.5243 0
M  V30 3076 C 297.605 -2.8653 -0.9122 0
M  V30 3077 C 299.153 -2.96191 -1.01193 0
M  V30 3078 C 299.628 -4.40514 -1.25345 0
M  V30 3079 N 301.119 -4.43962 -1.32105 0
M  V30 3080 C 301.854 -5.52746 -1.5251 0
M  V30 3081 N 301.35 -6.71567 -1.70203 0
M  V30 3082 N 303.143 -5.40331 -1.54916 0
M  V30 3083 H 295.294 -2.07654 0.446475 0
M  V30 3084 H 297.557 -0.937944 0.137715 0
M  V30 3085 H 297.263 -3.51605 -0.0816414 0
M  V30 3086 H 297.137 -3.30441 -1.81903 0
M  V30 3087 H 299.524 -2.31266 -1.83303 0
M  V30 3088 H 299.605 -2.55667 -0.0823929 0
M  V30 3089 H 299.249 -5.06014 -0.437346 0
M  V30 3090 H 299.179 -4.78614 -2.19627 0
M  V30 3091 H 301.67 -3.58332 -1.20028 0
M  V30 3092 H 301.983 -7.50241 -1.85359 0
M  V30 3093 H 300.328 -6.74545 -1.67373 0
M  V30 3094 H 303.519 -4.46465 -1.40663 0
M  V30 3095 H 303.692 -6.25173 -1.70477 0
M  V30 3096 N 297.098 0.621204 -1.44841 0
M  V30 3097 C 298.326 1.40752 -1.51646 0
M  V30 3098 C 298.741 1.88246 -0.144549 0
M  V30 3099 O 298.098 1.61422 0.851416 0
M  V30 3100 C 298.149 2.62119 -2.4895 0
M  V30 3101 O 297.87 2.16602 -3.80808 0
M  V30 3102 C 299.371 3.55135 -2.65319 0
M  V30 3103 H 296.591 0.431325 -0.514004 0
M  V30 3104 H 299.135 0.758835 -1.899 0
M  V30 3105 H 297.29 3.23058 -2.13805 0
M  V30 3106 H 297.704 2.95358 -4.33433 0
M  V30 3107 H 299.178 4.36874 -3.37409 0
M  V30 3108 H 299.655 4.04592 -1.70886 0
M  V30 3109 H 300.261 3.00058 -3.01405 0
M  V30 3110 N 298.576 1.31904 0.862503 0
M  V30 3111 C 299.506 1.22782 1.98612 0
M  V30 3112 C 300.487 0.113362 1.69722 0
M  V30 3113 O 301.672 0.299218 1.91881 0
M  V30 3114 C 298.802 0.942058 3.34279 0
M  V30 3115 C 297.756 2.0169 3.77499 0
M  V30 3116 C 297.082 1.58369 5.10709 0
M  V30 3117 C 298.382 3.43096 3.93805 0
M  V30 3118 H 300.076 2.16788 2.06502 0
M  V30 3119 H 297.622 1.04366 0.992154 0
M  V30 3120 H 299.575 0.864818 4.1243 0
M  V30 3121 H 298.299 -0.0336603 3.26583 0
M  V30 3122 H 296.958 2.08416 3.01593 0
M  V30 3123 H 296.606 0.595628 4.99461 0
M  V30 3124 H 296.306 2.30279 5.40597 0
M  V30 3125 H 297.83 1.52067 5.91361 0
M  V30 3126 H 299.244 3.39003 4.62331 0
M  V30 3127 H 297.641 4.13288 4.35101 0
M  V30 3128 H 298.711 3.83334 2.96957 0
M  V30 3129 N 300.054 -1.07777 1.14986 0
M  V30 3130 C 301.331 -1.7699 0.832695 0
M  V30 3131 C 301.711 -2.001 -0.672561 0
M  V30 3132 O 301.059 -1.61598 -1.6155 0
M  V30 3133 C 301.269 -3.08139 1.63863 0
M  V30 3134 C 302.617 -3.8256 1.84208 0
M  V30 3135 O 303.641 -3.17939 1.60603 0
M  V30 3136 O 302.5 -4.98612 2.23714 0
M  V30 3137 H 299.594 -0.768389 0.305791 0
M  V30 3138 H 302.14 -1.14182 1.25541 0
M  V30 3139 H 300.912 -2.86909 2.6608 0
M  V30 3140 H 300.535 -3.78678 1.21197 0
M  V30 3141 N 301.532 -0.945985 -1.26051 0
M  V30 3142 C 302.48 -0.450259 -2.282 0
M  V30 3143 C 303.474 0.47497 -1.62605 0
M  V30 3144 O 304.68 0.352653 -1.76512 0
M  V30 3145 H 301.055 -0.127081 -0.741184 0
M  V30 3146 H 303.026 -1.32422 -2.67408 0
M  V30 3147 C 301.775 0.26467 -3.46691 0
M  V30 3148 H 301.098 -0.438123 -3.97392 0
M  V30 3149 H 302.538 0.575678 -4.20074 0
M  V30 3150 C 300.997 1.48416 -3.02447 0
M  V30 3151 O 301.527 2.58227 -3.07704 0
M  V30 3152 N 299.733 1.34243 -2.57735 0
M  V30 3153 H 299.28 0.448994 -2.53657 0
M  V30 3154 H 299.238 2.15957 -2.28495 0
M  V30 3155 N 303.011 1.40521 -0.713556 0
M  V30 3156 C 304.259 2.00527 -0.251692 0
M  V30 3157 C 304.58 1.56857 1.15848 0
M  V30 3158 O 303.85 0.807127 1.785 0
M  V30 3159 H 302.43 0.741551 -0.0900646 0
M  V30 3160 H 305.092 1.71887 -0.918733 0
M  V30 3161 H 304.188 3.10813 -0.283192 0
M  V30 3162 N 304.489 0.459591 1.5075 0
M  V30 3163 C 305.737 -0.0991532 2.01857 0
M  V30 3164 C 306.058 -1.41247 1.34441 0
M  V30 3165 O 305.328 -1.89775 0.486022 0
M  V30 3166 H 303.908 -0.039633 0.745948 0
M  V30 3167 H 306.57 0.607387 1.85194 0
M  V30 3168 H 305.666 -0.258998 3.11023 0
M  V30 3169 N 305.967 -1.56429 0.191757 0
M  V30 3170 C 307.214 -1.97485 -0.447891 0
M  V30 3171 C 307.542 -1.07852 -1.61859 0
M  V30 3172 O 306.797 -0.116903 -1.95351 0
M  V30 3173 C 307.096 -3.44449 -0.953384 0
M  V30 3174 C 306.762 -4.50781 0.103586 0
M  V30 3175 C 305.424 -4.79584 0.394023 0
M  V30 3176 C 307.776 -5.1471 0.819946 0
M  V30 3177 C 305.104 -5.69607 1.40585 0
M  V30 3178 C 307.456 -6.05827 1.8209 0
M  V30 3179 C 306.12 -6.32987 2.11857 0
M  V30 3180 H 305.39 -0.722648 -0.163895 0
M  V30 3181 H 308.037 -1.89322 0.28802 0
M  V30 3182 H 306.342 -3.49666 -1.76751 0
M  V30 3183 H 308.039 -3.73569 -1.45765 0
M  V30 3184 H 304.629 -4.28394 -0.132951 0
M  V30 3185 H 308.813 -4.92552 0.608789 0
M  V30 3186 H 304.069 -5.88926 1.64243 0
M  V30 3187 H 308.243 -6.54424 2.38123 0
M  V30 3188 H 305.87 -7.02544 2.90407 0
M  V30 3189 N 307.445 0.0818655 -1.57387 0
M  V30 3190 C 308.675 0.794954 -1.90694 0
M  V30 3191 C 309.083 1.72147 -0.784982 0
M  V30 3192 O 308.426 1.81974 0.251196 0
M  V30 3193 C 308.488 1.65042 -3.19376 0
M  V30 3194 C 308.152 0.894337 -4.48164 0
M  V30 3195 C 309.149 0.21813 -5.19442 0
M  V30 3196 C 306.834 0.864495 -4.94805 0
M  V30 3197 C 308.828 -0.477802 -6.35607 0
M  V30 3198 C 306.515 0.164785 -6.10878 0
M  V30 3199 C 307.513 -0.505173 -6.81129 0
M  V30 3200 O 307.201 -1.19363 -7.94989 0
M  V30 3201 H 306.933 0.231779 -0.635023 0
M  V30 3202 H 309.487 0.059493 -2.05314 0
M  V30 3203 H 307.717 2.42844 -3.00938 0
M  V30 3204 H 309.406 2.24127 -3.38411 0
M  V30 3205 H 310.172 0.232558 -4.84442 0
M  V30 3206 H 306.051 1.37542 -4.40004 0
M  V30 3207 H 309.595 -1.00129 -6.90377 0
M  V30 3208 H 305.492 0.148249 -6.4533 0
M  V30 3209 H 306.26 -1.10188 -8.11049 0
M  V30 3210 N 308.923 1.53595 0.353017 0
M  V30 3211 C 310.172 1.69603 1.09168 0
M  V30 3212 C 310.485 0.460925 1.90092 0
M  V30 3213 O 311.691 0.501774 2.66823 0
M  V30 3214 C 310.147 2.99872 1.9901 0
M  V30 3215 C 309.755 4.30687 1.23339 0
M  V30 3216 C 311.499 3.25246 2.72792 0
M  V30 3217 C 309.406 5.52036 2.12156 0
M  V30 3218 H 308.336 0.631966 0.411261 0
M  V30 3219 H 310.987 1.80096 0.351802 0
M  V30 3220 H 309.369 2.83212 2.7678 0
M  V30 3221 H 310.543 4.58019 0.505456 0
M  V30 3222 H 308.858 4.11853 0.613663 0
M  V30 3223 H 311.455 4.13095 3.39495 0
M  V30 3224 H 311.798 2.41846 3.38846 0
M  V30 3225 H 312.331 3.42638 2.021 0
M  V30 3226 H 309.07 6.37951 1.50659 0
M  V30 3227 H 308.59 5.28966 2.82764 0
M  V30 3228 H 310.269 5.87313 2.71427 0
M  V30 3229 N 310.401 -0.613514 1.45168 0
M  V30 3230 C 311.626 -1.40437 1.52618 0
M  V30 3231 C 312.051 -1.87438 0.157707 0
M  V30 3232 O 311.409 -1.59791 -0.856537 0
M  V30 3233 C 311.457 -2.58894 2.51011 0
M  V30 3234 O 310.561 -3.59326 2.02382 0
M  V30 3235 H 309.902 -0.419506 0.514695 0
M  V30 3236 H 312.432 -0.747215 1.90467 0
M  V30 3237 H 312.442 -3.06214 2.69624 0
M  V30 3238 H 311.117 -2.24032 3.50403 0
M  V30 3239 H 309.694 -3.18695 1.93618 0
M  V30 3240 N 311.879 -1.3236 -0.855495 0
M  V30 3241 C 313.29 -1.2056 -1.42556 0
M  V30 3242 C 313.641 0.182209 -1.95352 0
M  V30 3243 O 312.766 1.08088 -1.87472 0
M  V30 3244 C 313.361 -2.1826 -2.59129 0
M  V30 3245 C 311.92 -2.10351 -3.12137 0
M  V30 3246 C 311.067 -2.06674 -1.84882 0
M  V30 3247 H 314.018 -1.442 -0.662727 0
M  V30 3248 H 314.039 -1.78064 -3.36264 0
M  V30 3249 H 313.551 -3.19257 -2.20673 0
M  V30 3250 H 311.652 -1.12599 -3.55179 0
M  V30 3251 H 311.765 -3.00135 -3.73438 0
M  V30 3252 H 310.129 -1.51901 -2.04446 0
M  V30 3253 H 310.912 -3.09451 -1.48643 0
M  V30 3254 N 313.357 1.07166 -1.15556 0
M  V30 3255 C 314.773 1.31899 -0.898603 0
M  V30 3256 C 314.973 1.96333 0.453383 0
M  V30 3257 O 314.029 2.22438 1.19489 0
M  V30 3258 C 315.342 2.20826 -2.04099 0
M  V30 3259 C 316.89 2.34269 -2.07574 0
M  V30 3260 C 317.365 3.26546 -3.21141 0
M  V30 3261 N 318.856 3.34127 -3.20801 0
M  V30 3262 C 319.591 4.05595 -4.05315 0
M  V30 3263 N 319.087 4.79661 -4.99897 0
M  V30 3264 N 320.88 4.01555 -3.93332 0
M  V30 3265 H 313.031 0.637302 -2.02613 0
M  V30 3266 H 315.294 0.343468 -0.883591 0
M  V30 3267 H 315 1.80744 -3.01703 0
M  V30 3268 H 314.874 3.21364 -1.97496 0
M  V30 3269 H 317.261 2.73603 -1.10568 0
M  V30 3270 H 317.342 1.33429 -2.18244 0
M  V30 3271 H 316.986 2.87931 -4.184 0
M  V30 3272 H 316.916 4.27345 -3.07708 0
M  V30 3273 H 319.407 2.81336 -2.52306 0
M  V30 3274 H 319.72 5.31694 -5.60822 0
M  V30 3275 H 318.065 4.78671 -5.03884 0
M  V30 3276 H 321.256 3.42806 -3.18751 0
M  V30 3277 H 321.429 4.56987 -4.5942 0
M  V30 3278 N 314.835 0.952656 1.25548 0
M  V30 3279 C 316.06 0.623025 1.97821 0
M  V30 3280 C 316.485 -0.7976 1.70352 0
M  V30 3281 O 315.843 -1.53905 0.958283 0
M  V30 3282 C 315.891 0.885532 3.49558 0
M  V30 3283 O 314.995 -0.0366641 4.12384 0
M  V30 3284 H 314.336 0.237082 0.620232 0
M  V30 3285 H 316.866 1.27871 1.59719 0
M  V30 3286 H 316.876 0.811009 3.99858 0
M  V30 3287 H 315.551 1.92094 3.6888 0
M  V30 3288 H 314.128 0.0898954 3.72792 0
M  V30 3289 N 316.313 -1.40141 0.720998 0
M  V30 3290 C 317.541 -2.05096 0.272656 0
M  V30 3291 C 317.956 -1.54334 -1.0875 0
M  V30 3292 O 317.313 -0.702211 -1.6845 0
M  V30 3293 C 317.364 -3.60636 0.249835 0
M  V30 3294 O 317.085 -4.09526 1.55629 0
M  V30 3295 C 318.586 -4.42772 -0.216396 0
M  V30 3296 H 315.806 -0.659897 0.121558 0
M  V30 3297 H 318.35 -1.79449 0.980723 0
M  V30 3298 H 316.505 -3.85232 -0.409237 0
M  V30 3299 H 316.919 -5.03758 1.4604 0
M  V30 3300 H 318.393 -5.51702 -0.181212 0
M  V30 3301 H 318.87 -4.20756 -1.25941 0
M  V30 3302 H 319.476 -4.23294 0.412596 0
M  V30 3303 N 317.792 -0.46758 -1.50504 0
M  V30 3304 C 319.039 0.0886219 -2.02306 0
M  V30 3305 C 319.367 1.40037 -1.34981 0
M  V30 3306 O 318.622 1.90136 -0.463318 0
M  V30 3307 C 318.921 0.323995 -3.55928 0
M  V30 3308 C 318.587 -0.905618 -4.41712 0
M  V30 3309 C 317.249 -1.24275 -4.64875 0
M  V30 3310 C 319.601 -1.72448 -4.91845 0
M  V30 3311 C 316.929 -2.39888 -5.35417 0
M  V30 3312 C 319.281 -2.87185 -5.63656 0
M  V30 3313 C 317.945 -3.21317 -5.85074 0
M  V30 3314 H 317.215 0.0324291 -0.74029 0
M  V30 3315 H 319.862 -0.620945 -1.81153 0
M  V30 3316 H 318.167 1.11577 -3.75577 0
M  V30 3317 H 319.864 0.76826 -3.93572 0
M  V30 3318 H 316.454 -0.632956 -4.239 0
M  V30 3319 H 320.638 -1.4772 -4.73806 0
M  V30 3320 H 315.894 -2.66611 -5.50208 0
M  V30 3321 H 320.068 -3.50985 -6.01484 0
M  V30 3322 H 317.695 -4.1101 -6.39511 0
M  V30 3323 N 319.27 1.56325 -0.20005 0
M  V30 3324 C 320.495 2.02548 0.44597 0
M  V30 3325 C 320.92 1.07922 1.5406 0
M  V30 3326 O 320.278 0.0635775 1.81188 0
M  V30 3327 C 320.326 3.47175 0.974761 0
M  V30 3328 O 319.43 3.55671 2.08739 0
M  V30 3329 H 318.771 0.655862 0.103638 0
M  V30 3330 H 321.301 2.02201 -0.312381 0
M  V30 3331 H 321.311 3.87067 1.2901 0
M  V30 3332 H 319.986 4.15538 0.17347 0
M  V30 3333 H 318.563 3.27657 1.78032 0
M  V30 3334 N 320.748 -0.0735177 1.57428 0
M  V30 3335 C 321.976 -0.785969 1.9139 0
M  V30 3336 C 322.391 -1.71207 0.795847 0
M  V30 3337 O 321.748 -1.81033 -0.230915 0
M  V30 3338 C 321.799 -1.58107 3.25091 0
M  V30 3339 O 321.52 -0.6922 4.32597 0
M  V30 3340 C 323.021 -2.39467 3.73055 0
M  V30 3341 H 320.241 -0.223558 0.632663 0
M  V30 3342 H 322.785 -0.044302 2.04452 0
M  V30 3343 H 320.94 -2.27503 3.13562 0
M  V30 3344 H 321.354 -1.24504 5.09508 0
M  V30 3345 H 322.828 -2.90716 4.69242 0
M  V30 3346 H 323.305 -3.18913 3.01979 0
M  V30 3347 H 323.911 -1.7523 3.87523 0
M  V30 3348 N 322.226 -1.5378 -0.344866 0
M  V30 3349 C 323.156 -1.84662 -1.42906 0
M  V30 3350 C 324.137 -0.701648 -1.54955 0
M  V30 3351 O 325.322 -0.953438 -1.69184 0
M  V30 3352 C 322.452 -2.05503 -2.79974 0
M  V30 3353 C 321.406 -3.21318 -2.82734 0
M  V30 3354 C 320.732 -3.2749 -4.22675 0
M  V30 3355 C 322.032 -4.59456 -2.48389 0
M  V30 3356 H 323.726 -2.75461 -1.17311 0
M  V30 3357 H 321.272 -1.32542 -0.562896 0
M  V30 3358 H 323.225 -2.25691 -3.55867 0
M  V30 3359 H 321.949 -1.11434 -3.07002 0
M  V30 3360 H 320.608 -3.00984 -2.09294 0
M  V30 3361 H 320.256 -2.31019 -4.4681 0
M  V30 3362 H 319.956 -4.05316 -4.25433 0
M  V30 3363 H 321.48 -3.49887 -5.00412 0
M  V30 3364 H 322.894 -4.79667 -3.13995 0
M  V30 3365 H 321.291 -5.39675 -2.62432 0
M  V30 3366 H 322.361 -4.63155 -1.4358 0
M  V30 3367 N 323.704 0.605807 -1.45491 0
M  V30 3368 C 324.636 1.73031 -1.5031 0
M  V30 3369 C 325.649 1.57968 -0.393687 0
M  V30 3370 O 326.838 1.65817 -0.660839 0
M  V30 3371 C 323.938 3.11049 -1.34543 0
M  V30 3372 C 323.111 3.52334 -2.59189 0
M  V30 3373 C 322.17 4.69323 -2.37954 0
M  V30 3374 O 321.196 4.7635 -3.11575 0
M  V30 3375 N 322.398 5.62705 -1.4263 0
M  V30 3376 H 325.163 1.6936 -2.4726 0
M  V30 3377 H 322.724 0.79114 -1.41254 0
M  V30 3378 H 324.716 3.87071 -1.18144 0
M  V30 3379 H 323.286 3.09217 -0.458623 0
M  V30 3380 H 322.506 2.66256 -2.90691 0
M  V30 3381 H 323.794 3.76677 -3.42041 0
M  V30 3382 H 323.192 5.59744 -0.818758 0
M  V30 3383 H 321.749 6.38252 -1.32202 0
M  V30 3384 N 325.182 1.32811 0.848464 0
M  V30 3385 C 326.092 1.24278 1.98978 0
M  V30 3386 C 327.108 0.155176 1.73307 0
M  V30 3387 O 328.284 0.376999 1.9784 0
M  V30 3388 C 325.349 0.972444 3.32783 0
M  V30 3389 C 324.41 2.14911 3.71634 0
M  V30 3390 C 323.643 1.89157 4.99054 0
M  V30 3391 O 323.866 0.837165 5.64223 0
M  V30 3392 O 322.8 2.75433 5.35183 0
M  V30 3393 H 326.626 2.20238 2.09115 0
M  V30 3394 H 324.211 1.12762 0.980052 0
M  V30 3395 H 326.093 0.838432 4.12975 0
M  V30 3396 H 324.768 0.043051 3.23671 0
M  V30 3397 H 323.675 2.33862 2.91992 0
M  V30 3398 H 325.008 3.06151 3.85399 0
M  V30 3399 N 326.66 -1.06551 1.16123 0
M  V30 3400 C 327.59 -2.15935 0.88851 0
M  V30 3401 C 328.571 -1.69306 -0.164135 0
M  V30 3402 O 329.756 -1.94193 -0.0167857 0
M  V30 3403 C 326.886 -3.45149 0.385942 0
M  V30 3404 C 325.84 -4.05271 1.3762 0
M  V30 3405 C 325.166 -5.29664 0.732137 0
M  V30 3406 C 326.466 -4.44355 2.74493 0
M  V30 3407 H 328.16 -2.39006 1.80323 0
M  V30 3408 H 325.706 -1.14866 0.868435 0
M  V30 3409 H 327.659 -4.21004 0.182647 0
M  V30 3410 H 326.383 -3.21689 -0.564274 0
M  V30 3411 H 325.042 -3.3147 1.56599 0
M  V30 3412 H 324.69 -5.02499 -0.224483 0
M  V30 3413 H 324.39 -5.70848 1.39307 0
M  V30 3414 H 325.914 -6.08218 0.538802 0
M  V30 3415 H 327.328 -5.11303 2.59311 0
M  V30 3416 H 325.725 -4.96515 3.37035 0
M  V30 3417 H 326.795 -3.55339 3.29943 0
M  V30 3418 N 328.138 -0.959301 -1.25041 0
M  V30 3419 C 329.384 -0.617525 -1.9317 0
M  V30 3420 C 329.717 0.843981 -1.74902 0
M  V30 3421 O 328.992 1.60615 -1.09696 0
M  V30 3422 C 329.275 -0.982736 -3.46431 0
M  V30 3423 C 329.128 -2.50032 -3.73904 0
M  V30 3424 C 330.447 -0.511176 -4.37121 0
M  V30 3425 H 327.566 -0.22582 -0.701552 0
M  V30 3426 H 330.208 -1.19679 -1.4757 0
M  V30 3427 H 328.358 -0.489806 -3.854 0
M  V30 3428 H 330.03 -3.06737 -3.44544 0
M  V30 3429 H 328.273 -2.93598 -3.19348 0
M  V30 3430 H 328.944 -2.70635 -4.81103 0
M  V30 3431 H 331.42 -0.934075 -4.0548 0
M  V30 3432 H 330.296 -0.795361 -5.43107 0
M  V30 3433 H 330.557 0.588834 -4.38161 0
M  V30 3434 N 329.616 1.39756 -0.72842 0
M  V30 3435 C 330.893 1.94574 -0.200079 0
M  V30 3436 C 331.273 1.66569 1.29684 0
M  V30 3437 O 330.621 0.990326 2.05924 0
M  V30 3438 C 330.831 3.45004 -0.526608 0
M  V30 3439 C 332.179 4.21965 -0.472318 0
M  V30 3440 O 333.203 3.53173 -0.463413 0
M  V30 3441 O 332.062 5.44552 -0.461075 0
M  V30 3442 H 329.156 0.826289 -0.0342851 0
M  V30 3443 H 331.702 1.49293 -0.806829 0
M  V30 3444 H 330.474 3.58796 -1.56144 0
M  V30 3445 H 330.097 3.97449 0.109449 0
M  V30 3446 N 331.094 0.475555 1.50254 0
M  V30 3447 C 332.044 -0.335025 2.25525 0
M  V30 3448 C 333.028 -0.957625 1.29299 0
M  V30 3449 O 334.22 -0.869436 1.54175 0
M  V30 3450 C 331.349 -1.41385 3.12834 0
M  V30 3451 C 330.435 -0.798762 4.1651 0
M  V30 3452 N 330.826 0.0835815 5.05731 0
M  V30 3453 C 329.124 -1.06221 4.33166 0
M  V30 3454 C 329.825 0.433113 5.80085 0
M  V30 3455 N 328.801 -0.1928 5.43258 0
M  V30 3456 H 332.603 0.344612 2.91873 0
M  V30 3457 H 330.117 0.289986 1.5979 0
M  V30 3458 H 332.114 -2.00777 3.65368 0
M  V30 3459 H 330.774 -2.09543 2.48036 0
M  V30 3460 H 331.785 0.452715 5.15918 0
M  V30 3461 H 328.462 -1.73844 3.79585 0
M  V30 3462 H 329.852 1.15346 6.61925 0
M  V30 3463 N 332.573 -1.56217 0.208337 0
M  V30 3464 C 333.803 -2.02043 -0.431523 0
M  V30 3465 C 334.211 -1.08755 -1.54819 0
M  V30 3466 O 333.554 -0.0870009 -1.83494 0
M  V30 3467 C 333.616 -3.44239 -1.03633 0
M  V30 3468 C 333.28 -4.56965 -0.0567502 0
M  V30 3469 C 334.277 -5.14624 0.738773 0
M  V30 3470 C 331.962 -5.02266 0.0581736 0
M  V30 3471 C 333.956 -6.16045 1.63605 0
M  V30 3472 C 331.643 -6.03528 0.959001 0
M  V30 3473 C 332.641 -6.60293 1.7465 0
M  V30 3474 O 332.329 -7.59586 2.6322 0
M  V30 3475 H 332.061 -0.666772 -0.111313 0
M  V30 3476 H 334.615 -2.02919 0.318277 0
M  V30 3477 H 332.845 -3.40391 -1.83497 0
M  V30 3478 H 334.534 -3.73793 -1.58221 0
M  V30 3479 H 335.3 -4.80483 0.660364 0
M  V30 3480 H 331.179 -4.57771 -0.544633 0
M  V30 3481 H 334.723 -6.60279 2.25116 0
M  V30 3482 H 330.62 -6.37092 1.03848 0
M  V30 3483 H 331.388 -7.77057 2.57148 0
M  V30 3484 N 334.051 0.0651679 -1.57465 0
M  V30 3485 C 334.998 1.07675 -2.04144 0
M  V30 3486 C 335.968 1.38071 -0.923335 0
M  V30 3487 O 337.153 1.49026 -1.19146 0
M  V30 3488 C 334.293 2.38337 -2.49579 0
M  V30 3489 C 333.406 2.14413 -3.75035 0
M  V30 3490 C 332.541 3.38686 -4.09225 0
M  V30 3491 C 331.58 3.10156 -5.27702 0
M  V30 3492 N 330.717 4.26778 -5.57499 0
M  V30 3493 H 335.557 0.671716 -2.90331 0
M  V30 3494 H 333.094 0.3201 -1.43575 0
M  V30 3495 H 335.052 3.14632 -2.73975 0
M  V30 3496 H 333.682 2.7663 -1.6636 0
M  V30 3497 H 332.734 1.2878 -3.57939 0
M  V30 3498 H 334.046 1.89344 -4.61466 0
M  V30 3499 H 333.2 4.23373 -4.34558 0
M  V30 3500 H 331.939 3.66837 -3.21374 0
M  V30 3501 H 330.944 2.23866 -5.02159 0
M  V30 3502 H 332.169 2.8332 -6.17176 0
M  V30 3503 H 330.115 4.54948 -4.72608 0
M  V30 3504 H 330.032 4.05005 -6.38362 0
M  V30 3505 H 331.3 5.12443 -5.87386 0
M  V30 3506 N 335.529 1.53961 0.336706 0
M  V30 3507 C 336.476 1.82428 1.41381 0
M  V30 3508 C 337.446 0.670444 1.51968 0
M  V30 3509 O 338.631 0.915565 1.67398 0
M  V30 3510 C 335.771 2.04564 2.77934 0
M  V30 3511 C 334.884 3.32267 2.76084 0
M  V30 3512 C 334.019 3.44434 4.04399 0
M  V30 3513 C 333.058 4.66061 3.96804 0
M  V30 3514 N 332.195 4.75224 5.16823 0
M  V30 3515 H 337.035 2.74324 1.16405 0
M  V30 3516 H 334.572 1.35869 0.563752 0
M  V30 3517 H 336.53 2.15388 3.57301 0
M  V30 3518 H 335.16 1.15974 3.01247 0
M  V30 3519 H 334.212 3.3025 1.88784 0
M  V30 3520 H 335.524 4.21733 2.66351 0
M  V30 3521 H 334.678 3.54728 4.92192 0
M  V30 3522 H 333.417 2.53037 4.16921 0
M  V30 3523 H 332.422 4.55838 3.07396 0
M  V30 3524 H 333.647 5.58829 3.85858 0
M  V30 3525 H 331.593 3.86739 5.29876 0
M  V30 3526 H 331.51 5.58636 5.09374 0
M  V30 3527 H 332.778 4.89835 6.06367 0
M  V30 3528 N 337.007 -0.598083 1.45811 0
M  V30 3529 C 338.255 -1.35413 1.50026 0
M  V30 3530 C 338.576 -1.94444 0.147177 0
M  V30 3531 O 337.846 -1.77701 -0.824571 0
M  V30 3532 H 336.426 -0.502727 0.552517 0
M  V30 3533 H 339.088 -0.701606 1.81834 0
M  V30 3534 H 338.184 -2.16871 2.2444 0
M  V30 3535 N 338.485 -1.33259 -0.841409 0
M  V30 3536 C 339.433 -1.23279 -1.97244 0
M  V30 3537 C 340.427 -0.134706 -1.68864 0
M  V30 3538 O 341.633 -0.298501 -1.77508 0
M  V30 3539 H 338.008 -0.382497 -0.647457 0
M  V30 3540 H 339.979 -2.18906 -2.02787 0
M  V30 3541 C 338.728 -0.986268 -3.33419 0
M  V30 3542 H 338.051 -1.82347 -3.55794 0
M  V30 3543 H 339.491 -0.956728 -4.13065 0
M  V30 3544 C 337.95 0.310842 -3.35463 0
M  V30 3545 O 338.48 1.31838 -3.79449 0
M  V30 3546 N 336.686 0.337485 -2.88634 0
M  V30 3547 H 336.233 -0.482967 -2.53032 0
M  V30 3548 H 336.191 1.20518 -2.90384 0
M  V30 3549 N 339.963 1.05934 -1.16686 0
M  V30 3550 C 341.24 1.75643 -0.860747 0
M  V30 3551 C 341.62 2.01144 0.640641 0
M  V30 3552 O 340.968 1.64147 1.58959 0
M  V30 3553 C 341.178 3.05493 -1.68745 0
M  V30 3554 C 342.526 3.79581 -1.90271 0
M  V30 3555 O 343.55 3.15344 -1.65641 0
M  V30 3556 O 342.409 4.9499 -2.31618 0
M  V30 3557 H 339.503 0.763426 -0.317977 0
M  V30 3558 H 342.049 1.1217 -1.27342 0
M  V30 3559 H 340.821 2.8264 -2.70611 0
M  V30 3560 H 340.444 3.76702 -1.27206 0
M  V30 3561 N 341.441 0.965919 1.2453 0
M  V30 3562 C 342.689 0.625593 1.92174 0
M  V30 3563 C 343.01 -0.841652 1.75901 0
M  V30 3564 O 342.28 -1.60061 1.12948 0
M  V30 3565 H 340.86 0.228388 0.71123 0
M  V30 3566 H 343.522 1.2266 1.51461 0
M  V30 3567 H 342.618 0.864653 2.99884 0
M  V30 3568 N 342.919 -1.39368 0.735821 0
M  V30 3569 C 343.849 -2.33234 0.111506 0
M  V30 3570 C 344.83 -1.53954 -0.723334 0
M  V30 3571 O 346.015 -1.82344 -0.668147 0
M  V30 3572 C 343.145 -3.38057 -0.795917 0
M  V30 3573 C 342.099 -4.2795 -0.065172 0
M  V30 3574 C 341.425 -5.23479 -1.08967 0
M  V30 3575 C 342.725 -5.10741 1.09273 0
M  V30 3576 H 344.419 -2.85692 0.895571 0
M  V30 3577 H 341.965 -1.37364 0.432109 0
M  V30 3578 H 343.918 -4.02675 -1.24221 0
M  V30 3579 H 342.642 -2.8404 -1.61211 0
M  V30 3580 H 341.301 -3.64813 0.361511 0
M  V30 3581 H 340.949 -4.65758 -1.89944 0
M  V30 3582 H 340.649 -5.84472 -0.605489 0
M  V30 3583 H 342.173 -5.90974 -1.53565 0
M  V30 3584 H 343.587 -5.68699 0.724841 0
M  V30 3585 H 341.984 -5.8088 1.50659 0
M  V30 3586 H 343.054 -4.45525 1.91404 0
M  V30 3587 N 344.397 -0.483516 -1.5 0
M  V30 3588 C 345.637 0.0657469 -2.04294 0
M  V30 3589 C 346.001 1.35869 -1.35659 0
M  V30 3590 O 347.202 1.99111 -1.80578 0
M  V30 3591 C 345.473 0.232758 -3.56641 0
M  V30 3592 S 347.032 0.738788 -4.32536 0
M  V30 3593 H 343.85 0.0100755 -0.710929 0
M  V30 3594 H 346.452 -0.653494 -1.84254 0
M  V30 3595 H 345.156 -0.713847 -4.04144 0
M  V30 3596 H 344.687 0.977751 -3.81056 0
M  V30 3597 H 346.702 2.01048 -4.53645 0
M  V30 3598 N 345.875 1.56104 -0.216619 0
M  V30 3599 C 346.807 2.17339 0.72776 0
M  V30 3600 C 347.82 1.14109 1.16116 0
M  V30 3601 O 349.009 1.4111 1.09317 0
M  V30 3602 C 346.109 2.73818 1.99693 0
M  V30 3603 C 345.282 4.02168 1.71988 0
M  V30 3604 C 344.341 4.43259 2.83562 0
M  V30 3605 O 343.367 5.10257 2.52244 0
M  V30 3606 N 344.569 4.08535 4.12407 0
M  V30 3607 H 347.334 2.99005 0.203983 0
M  V30 3608 H 344.895 1.61861 -0.0354289 0
M  V30 3609 H 346.887 2.9828 2.73516 0
M  V30 3610 H 345.457 1.96483 2.43132 0
M  V30 3611 H 344.677 3.85612 0.818337 0
M  V30 3612 H 345.965 4.85907 1.50903 0
M  V30 3613 H 345.363 3.54687 4.40696 0
M  V30 3614 H 343.92 4.37901 4.8279 0
M  V30 3615 N 347.353 -0.0568162 1.57498 0
M  V30 3616 C 348.3 -1.06591 2.04712 0
M  V30 3617 C 349.27 -1.3758 0.930644 0
M  V30 3618 O 350.455 -1.48392 1.19935 0
M  V30 3619 C 347.595 -2.3701 2.50839 0
M  V30 3620 C 346.708 -2.12421 3.76167 0
M  V30 3621 C 345.843 -3.36511 4.11015 0
M  V30 3622 C 344.882 -3.07353 5.2934 0
M  V30 3623 N 344.019 -4.23816 5.59754 0
M  V30 3624 H 348.859 -0.65631 2.90683 0
M  V30 3625 H 346.396 -0.312481 1.43743 0
M  V30 3626 H 348.354 -3.13175 2.7564 0
M  V30 3627 H 346.984 -2.75744 1.67825 0
M  V30 3628 H 346.036 -1.2688 3.58616 0
M  V30 3629 H 347.348 -1.86894 4.62463 0
M  V30 3630 H 346.502 -4.21062 4.36797 0
M  V30 3631 H 345.241 -3.65128 3.23315 0
M  V30 3632 H 344.246 -2.212 5.03339 0
M  V30 3633 H 345.471 -2.80043 6.1867 0
M  V30 3634 H 343.417 -4.52436 4.75014 0
M  V30 3635 H 343.334 -4.01614 6.40501 0
M  V30 3636 H 344.602 -5.0932 5.90096 0
M  V30 3637 N 348.832 -1.54138 -0.328536 0
M  V30 3638 C 349.762 -1.86167 -1.40939 0
M  V30 3639 C 350.743 -0.718044 -1.54202 0
M  V30 3640 O 351.928 -0.971328 -1.68163 0
M  V30 3641 C 349.058 -2.08461 -2.77779 0
M  V30 3642 C 348.012 -3.24299 -2.7931 0
M  V30 3643 C 347.338 -3.31955 -4.19178 0
M  V30 3644 C 348.638 -4.62065 -2.43502 0
M  V30 3645 H 350.332 -2.76689 -1.14383 0
M  V30 3646 H 347.878 -1.33132 -0.548806 0
M  V30 3647 H 349.831 -2.29453 -3.53454 0
M  V30 3648 H 348.555 -1.14684 -3.05802 0
M  V30 3649 H 347.214 -3.03187 -2.0609 0
M  V30 3650 H 346.862 -2.35745 -4.44335 0
M  V30 3651 H 346.562 -4.09805 -4.2111 0
M  V30 3652 H 348.086 -3.55175 -4.96672 0
M  V30 3653 H 349.5 -4.8297 -3.08889 0
M  V30 3654 H 347.897 -5.42429 -2.56693 0
M  V30 3655 H 348.967 -4.64652 -1.38659 0
M  V30 3656 N 350.31 0.590341 -1.46126 0
M  V30 3657 C 351.535 1.37991 -1.54833 0
M  V30 3658 C 351.96 1.87163 -0.187506 0
M  V30 3659 O 351.318 1.61133 0.831008 0
M  V30 3660 C 351.366 2.54867 -2.55098 0
M  V30 3661 O 350.47 3.56061 -2.08073 0
M  V30 3662 H 349.811 0.411265 -0.521303 0
M  V30 3663 H 352.341 0.716819 -1.91632 0
M  V30 3664 H 352.351 3.01886 -2.74461 0
M  V30 3665 H 351.026 2.18429 -3.53923 0
M  V30 3666 H 349.603 3.15574 -1.98664 0
M  V30 3667 N 351.788 1.33704 0.83433 0
M  V30 3668 C 353.034 1.25603 1.59222 0
M  V30 3669 C 353.367 -0.176659 1.93395 0
M  V30 3670 O 352.642 -1.11915 1.59076 0
M  V30 3671 C 352.925 2.13576 2.89926 0
M  V30 3672 C 352.778 3.65326 2.62406 0
M  V30 3673 C 354.097 2.01238 3.91397 0
M  V30 3674 H 351.216 0.457613 0.577719 0
M  V30 3675 H 353.858 1.63848 0.961972 0
M  V30 3676 H 352.008 1.8109 3.43713 0
M  V30 3677 H 353.68 4.08124 2.15017 0
M  V30 3678 H 351.923 3.8698 1.96033 0
M  V30 3679 H 352.594 4.22232 3.55562 0
M  V30 3680 H 355.07 2.29738 3.46929 0
M  V30 3681 H 353.946 2.65036 4.80673 0
M  V30 3682 H 354.207 0.985951 4.30966 0
M  V30 3683 N 353.266 -1.05314 1.17247 0
M  V30 3684 C 354.677 -1.59753 0.96623 0
M  V30 3685 C 355.028 -1.9005 -0.487378 0
M  V30 3686 O 354.153 -1.68126 -1.36245 0
M  V30 3687 C 354.748 -2.90249 1.74759 0
M  V30 3688 C 353.307 -3.41352 1.58606 0
M  V30 3689 C 352.454 -2.15103 1.75002 0
M  V30 3690 H 355.405 -0.881406 1.31973 0
M  V30 3691 H 355.426 -3.60097 1.22925 0
M  V30 3692 H 354.938 -2.68166 2.8055 0
M  V30 3693 H 353.039 -3.68474 0.552985 0
M  V30 3694 H 353.152 -4.16019 2.37624 0
M  V30 3695 H 351.516 -2.25804 1.17833 0
M  V30 3696 H 352.299 -1.95491 2.82202 0
M  V30 3697 N 354.744 -0.972509 -1.24016 0
M  V30 3698 C 355.984 -0.644951 -1.93958 0
M  V30 3699 C 356.348 0.80559 -1.74282 0
M  V30 3700 O 357.549 1.2436 -2.38302 0
M  V30 3701 C 355.82 -1.01521 -3.42678 0
M  V30 3702 S 357.379 -0.802927 -4.31391 0
M  V30 3703 H 354.197 -0.236452 -0.670531 0
M  V30 3704 H 356.799 -1.25048 -1.50277 0
M  V30 3705 H 355.503 -2.06769 -3.54506 0
M  V30 3706 H 355.034 -0.400648 -3.91355 0
M  V30 3707 H 357.049 0.317256 -4.95185 0
M  V30 3708 N 356.222 1.38976 -0.743202 0
M  V30 3709 C 357.155 2.28128 -0.0572165 0
M  V30 3710 C 358.133 1.44827 0.739182 0
M  V30 3711 O 359.317 1.74207 0.720009 0
M  V30 3712 C 356.444 3.25796 0.926001 0
M  V30 3713 C 355.49 4.25947 0.217099 0
M  V30 3714 S 356.323 5.24604 -1.07477 0
M  V30 3715 C 357.479 6.25829 -0.0943545 0
M  V30 3716 H 357.712 2.85961 -0.813246 0
M  V30 3717 H 355.245 1.44822 -0.535341 0
M  V30 3718 H 357.203 3.82583 1.48797 0
M  V30 3719 H 355.864 2.66966 1.65493 0
M  V30 3720 H 355.057 4.94746 0.961372 0
M  V30 3721 H 354.659 3.73002 -0.273059 0
M  V30 3722 H 356.951 6.73411 0.743239 0
M  V30 3723 H 357.894 7.0412 -0.749713 0
M  V30 3724 H 358.302 5.63797 0.281706 0
M  V30 3725 N 357.7 0.491464 1.49741 0
M  V30 3726 C 358.925 -0.0557177 2.07325 0
M  V30 3727 C 359.35 -1.30925 1.35056 0
M  V30 3728 O 358.708 -1.76733 0.404365 0
M  V30 3729 C 358.756 -0.302074 3.59333 0
M  V30 3730 O 357.86 -1.37868 3.88672 0
M  V30 3731 H 357.201 0.0219956 0.663636 0
M  V30 3732 H 359.731 0.688352 1.92673 0
M  V30 3733 H 359.741 -0.536464 4.04458 0
M  V30 3734 H 358.416 0.61383 4.11345 0
M  V30 3735 H 356.993 -1.12999 3.55367 0
M  V30 3736 N 359.178 -1.55987 0.224894 0
M  V30 3737 C 360.403 -2.03232 -0.41369 0
M  V30 3738 C 360.828 -1.10359 -1.52323 0
M  V30 3739 O 360.186 -0.092395 -1.81064 0
M  V30 3740 C 360.234 -3.48682 -0.919405 0
M  V30 3741 O 359.338 -3.58947 -2.03054 0
M  V30 3742 H 358.679 -0.657428 -0.0931903 0
M  V30 3743 H 361.209 -2.01679 0.34451 0
M  V30 3744 H 361.219 -3.8907 -1.22835 0
M  V30 3745 H 359.894 -4.15761 -0.107339 0
M  V30 3746 H 358.471 -3.30448 -1.72796 0
M  V30 3747 N 360.656 0.0484629 -1.57525 0
M  V30 3748 C 361.603 1.05504 -2.05275 0
M  V30 3749 C 362.573 1.37084 -0.937927 0
M  V30 3750 O 363.758 1.47754 -1.2072 0
M  V30 3751 C 360.898 2.35676 -2.52093 0
M  V30 3752 C 360.011 2.10423 -3.77288 0
M  V30 3753 C 359.146 3.34327 -4.12794 0
M  V30 3754 C 358.185 3.04542 -5.30962 0
M  V30 3755 N 357.322 4.20841 -5.61994 0
M  V30 3756 H 362.162 0.640885 -2.91027 0
M  V30 3757 H 359.699 0.304854 -1.43906 0
M  V30 3758 H 361.657 3.11709 -2.77297 0
M  V30 3759 H 360.287 2.7485 -1.69285 0
M  V30 3760 H 359.339 1.24976 -3.59284 0
M  V30 3761 H 360.651 1.84438 -4.63448 0
M  V30 3762 H 359.805 4.1874 -4.39024 0
M  V30 3763 H 358.544 3.63408 -3.25247 0
M  V30 3764 H 357.549 2.18528 -5.04505 0
M  V30 3765 H 358.774 2.76758 -6.20146 0
M  V30 3766 H 356.72 4.4991 -4.77406 0
M  V30 3767 H 356.637 3.98212 -6.42622 0
M  V30 3768 H 357.905 5.06184 -5.92789 0
M  V30 3769 N 362.134 1.5431 0.320358 0
M  V30 3770 C 363.545 1.63872 0.894594 0
M  V30 3771 C 363.896 0.534847 1.88769 0
M  V30 3772 O 363.021 -0.331732 2.13842 0
M  V30 3773 C 363.616 2.97049 1.62934 0
M  V30 3774 C 362.175 3.08796 2.15226 0
M  V30 3775 C 361.322 2.59456 0.978671 0
M  V30 3776 H 364.273 1.58398 0.0978544 0
M  V30 3777 H 364.294 2.87388 2.49376 0
M  V30 3778 H 363.806 3.7737 0.906302 0
M  V30 3779 H 361.907 2.33156 2.90636 0
M  V30 3780 H 362.02 4.14649 2.40006 0
M  V30 3781 H 360.384 2.1543 1.35875 0
M  V30 3782 H 361.167 3.42237 0.269895 0
M  V30 3783 N 363.613 -0.582584 1.46437 0
M  V30 3784 C 364.545 -1.70618 1.53043 0
M  V30 3785 C 365.558 -1.57322 0.418769 0
M  V30 3786 O 366.747 -1.64744 0.687136 0
M  V30 3787 C 363.847 -3.08869 1.39474 0
M  V30 3788 C 363.02 -3.48166 2.64762 0
M  V30 3789 C 362.079 -4.65478 2.4539 0
M  V30 3790 O 361.105 -4.71333 3.19114 0
M  V30 3791 N 362.307 -5.60365 1.51564 0
M  V30 3792 H 365.072 -1.65405 2.49923 0
M  V30 3793 H 362.633 -0.768567 1.42494 0
M  V30 3794 H 364.625 -3.85143 1.24287 0
M  V30 3795 H 363.195 -3.08449 0.507758 0
M  V30 3796 H 362.415 -2.61598 2.9489 0
M  V30 3797 H 363.703 -3.71188 3.4799 0
M  V30 3798 H 363.101 -5.5837 0.907705 0
M  V30 3799 H 361.658 -6.36068 1.4234 0
M  V30 3800 N 365.091 -1.34144 -0.827227 0
M  V30 3801 C 366.038 -1.25364 -1.93785 0
M  V30 3802 C 367.008 -0.129774 -1.65592 0
M  V30 3803 O 368.193 -0.310024 -1.88264 0
M  V30 3804 C 365.333 -1.01064 -3.2997 0
M  V30 3805 C 364.446 -2.22185 -3.70484 0
M  V30 3806 C 363.581 -1.91203 -4.95595 0
M  V30 3807 C 362.62 -3.08491 -5.28677 0
M  V30 3808 N 361.757 -2.77421 -6.44967 0
M  V30 3809 H 366.597 -2.20347 -2.00627 0
M  V30 3810 H 364.134 -1.09558 -0.981608 0
M  V30 3811 H 366.092 -0.850139 -4.08446 0
M  V30 3812 H 364.722 -0.0975026 -3.22653 0
M  V30 3813 H 363.774 -2.4917 -2.87434 0
M  V30 3814 H 365.086 -3.0983 -3.90905 0
M  V30 3815 H 364.24 -1.71864 -5.81848 0
M  V30 3816 H 362.979 -1.00812 -4.77167 0
M  V30 3817 H 361.984 -3.28431 -4.40923 0
M  V30 3818 H 363.209 -3.99655 -5.49047 0
M  V30 3819 H 361.155 -1.89601 -6.28003 0
M  V30 3820 H 361.072 -3.58598 -6.6554 0
M  V30 3821 H 362.34 -2.61577 -7.34301 0
M  V30 3822 N 366.569 1.04691 -1.17803 0
M  V30 3823 C 367.98 1.59238 -0.974689 0
M  V30 3824 C 368.331 1.90306 0.477292 0
M  V30 3825 O 367.456 1.68846 1.35352 0
M  V30 3826 C 368.051 2.89318 -1.76296 0
M  V30 3827 C 366.61 3.40506 -1.60414 0
M  V30 3828 C 365.757 2.14172 -1.76141 0
M  V30 3829 H 368.708 0.874395 -1.32439 0
M  V30 3830 H 368.729 3.5944 -1.24833 0
M  V30 3831 H 368.241 2.66675 -2.81968 0
M  V30 3832 H 366.342 3.68175 -0.572519 0
M  V30 3833 H 366.455 4.14753 -2.39827 0
M  V30 3834 H 364.819 2.25176 -1.19028 0
M  V30 3835 H 365.602 1.93992 -2.83235 0
M  V30 3836 N 368.047 0.979072 1.23499 0
M  V30 3837 C 369.293 0.6578 1.9247 0
M  V30 3838 C 369.648 -0.799746 1.74991 0
M  V30 3839 O 368.941 -1.56922 1.09937 0
M  V30 3840 C 369.135 0.981932 3.43646 0
M  V30 3841 C 368.964 2.46944 3.75831 0
M  V30 3842 C 367.734 3.13119 3.96591 0
M  V30 3843 C 369.932 3.45006 3.81412 0
M  V30 3844 N 367.914 4.51489 4.15969 0
M  V30 3845 C 369.285 4.68778 4.05768 0
M  V30 3846 C 371.34 3.39505 3.64198 0
M  V30 3847 C 370.043 5.87723 4.14697 0
M  V30 3848 C 372.069 4.57814 3.7438 0
M  V30 3849 C 371.431 5.80381 3.99171 0
M  V30 3850 H 367.53 0.291746 0.72554 0
M  V30 3851 H 370.114 1.25626 1.48749 0
M  V30 3852 H 368.285 0.412179 3.86207 0
M  V30 3853 H 370.017 0.618068 3.99953 0
M  V30 3854 H 366.772 2.63619 3.93449 0
M  V30 3855 H 367.196 5.23221 4.29615 0
M  V30 3856 H 371.838 2.45773 3.44029 0
M  V30 3857 H 369.556 6.81874 4.33675 0
M  V30 3858 H 373.142 4.55132 3.62417 0
M  V30 3859 H 372.022 6.70398 4.06861 0
M  V30 3860 N 369.525 -1.3858 0.750561 0
M  V30 3861 C 370.435 -2.34278 0.122825 0
M  V30 3862 C 371.451 -1.59116 -0.704131 0
M  V30 3863 O 372.627 -1.91326 -0.628987 0
M  V30 3864 C 369.692 -3.38221 -0.762086 0
M  V30 3865 C 368.753 -4.29227 0.078896 0
M  V30 3866 C 367.986 -5.28205 -0.763874 0
M  V30 3867 O 368.209 -5.34112 -2.00201 0
M  V30 3868 O 367.143 -6.01618 -0.18428 0
M  V30 3869 H 370.969 -2.89649 0.913088 0
M  V30 3870 H 368.554 -1.40374 0.511417 0
M  V30 3871 H 370.436 -4.01872 -1.26793 0
M  V30 3872 H 369.111 -2.85211 -1.5309 0
M  V30 3873 H 368.018 -3.68747 0.630621 0
M  V30 3874 H 369.351 -4.85484 0.810289 0
M  V30 3875 N 371.003 -0.499398 -1.49478 0
M  V30 3876 C 371.95 0.279881 -2.29097 0
M  V30 3877 C 372.92 0.961805 -1.3542 0
M  V30 3878 O 374.105 0.968777 -1.64376 0
M  V30 3879 C 371.245 1.33932 -3.18051 0
M  V30 3880 C 370.358 0.669333 -4.26783 0
M  V30 3881 C 369.493 1.70907 -5.02955 0
M  V30 3882 C 368.532 1.02087 -6.03527 0
M  V30 3883 N 367.669 2.00474 -6.7287 0
M  V30 3884 H 372.509 -0.405317 -2.95231 0
M  V30 3885 H 370.046 -0.211726 -1.45568 0
M  V30 3886 H 372.004 1.96553 -3.67998 0
M  V30 3887 H 370.634 1.9933 -2.53904 0
M  V30 3888 H 369.686 -0.0701234 -3.80335 0
M  V30 3889 H 370.998 0.127503 -4.98637 0
M  V30 3890 H 370.152 2.41037 -5.56764 0
M  V30 3891 H 368.891 2.28476 -4.30871 0
M  V30 3892 H 367.896 0.305338 -5.48951 0
M  V30 3893 H 369.121 0.451708 -6.77596 0
M  V30 3894 H 367.067 2.57007 -6.03559 0
M  V30 3895 H 366.984 1.51353 -7.40694 0
M  V30 3896 H 368.252 2.69897 -7.31284 0
M  V30 3897 N 372.481 1.55866 -0.233164 0
M  V30 3898 C 373.758 1.90471 0.444988 0
M  V30 3899 C 374.138 1.15209 1.7689 0
M  V30 3900 O 373.486 0.265119 2.26957 0
M  V30 3901 C 373.696 3.4333 0.626559 0
M  V30 3902 C 375.044 4.14319 0.92871 0
M  V30 3903 O 376.068 3.48993 0.712926 0
M  V30 3904 O 374.927 5.29846 1.33887 0
M  V30 3905 H 372.021 0.792347 0.236885 0
M  V30 3906 H 374.567 1.67437 -0.276211 0
M  V30 3907 H 373.339 3.90095 -0.306822 0
M  V30 3908 H 372.962 3.72181 1.39881 0
M  V30 3909 N 373.959 -0.0401083 1.57549 0
M  V30 3910 C 374.922 -1.02871 2.04817 0
M  V30 3911 C 375.922 -1.29708 0.950388 0
M  V30 3912 O 377.112 -1.24897 1.21435 0
M  V30 3913 C 374.244 -2.36443 2.45576 0
M  V30 3914 H 375.437 -0.620631 2.93408 0
M  V30 3915 H 372.99 -0.286667 1.53649 0
M  V30 3916 H 373.725 -2.82021 1.60108 0
M  V30 3917 H 373.51 -2.18296 3.25713 0
M  V30 3918 H 375 -3.07441 2.82612 0
M  V30 3919 N 375.437 -1.54477 -0.31217 0
M  V30 3920 C 376.683 -1.74417 -1.04644 0
M  V30 3921 C 377.038 -0.517641 -1.85306 0
M  V30 3922 O 376.331 0.489973 -1.85229 0
M  V30 3923 C 376.525 -2.967 -1.99258 0
M  V30 3924 C 376.354 -4.31128 -1.27901 0
M  V30 3925 C 375.124 -4.95087 -1.01079 0
M  V30 3926 C 377.322 -5.09662 -0.689119 0
M  V30 3927 N 375.304 -6.13322 -0.266323 0
M  V30 3928 C 376.675 -6.19952 -0.0768523 0
M  V30 3929 C 378.73 -4.94355 -0.593061 0
M  V30 3930 C 377.433 -7.16604 0.622165 0
M  V30 3931 C 379.459 -5.91328 0.0922792 0
M  V30 3932 C 378.821 -7.00978 0.693443 0
M  V30 3933 H 374.92 -0.69094 -0.366231 0
M  V30 3934 H 377.504 -1.91946 -0.326319 0
M  V30 3935 H 375.675 -2.80616 -2.68532 0
M  V30 3936 H 377.407 -3.05216 -2.65755 0
M  V30 3937 H 374.162 -4.55235 -1.30607 0
M  V30 3938 H 374.586 -6.76937 0.0920973 0
M  V30 3939 H 379.228 -4.09719 -1.04355 0
M  V30 3940 H 376.946 -8.0079 1.08445 0
M  V30 3941 H 380.532 -5.81562 0.166396 0
M  V30 3942 H 379.412 -7.74725 1.21533 0
M  V30 3943 N 376.915 0.57481 -1.46744 0
M  V30 3944 C 377.825 1.711 -1.60505 0
M  V30 3945 C 378.841 1.67008 -0.488307 0
M  V30 3946 O 380.017 1.86774 -0.753495 0
M  V30 3947 C 377.082 3.07608 -1.59932 0
M  V30 3948 C 376.143 3.22904 -2.82898 0
M  V30 3949 C 375.376 4.529 -2.82343 0
M  V30 3950 O 375.599 5.37278 -1.91542 0
M  V30 3951 O 374.533 4.71611 -3.73987 0
M  V30 3952 H 378.359 1.62436 -2.56609 0
M  V30 3953 H 375.944 0.742779 -1.29627 0
M  V30 3954 H 377.826 3.88877 -1.62336 0
M  V30 3955 H 376.501 3.16692 -0.669898 0
M  V30 3956 H 375.408 2.41099 -2.86046 0
M  V30 3957 H 376.741 3.18715 -3.75076 0
M  V30 3958 N 378.394 1.34581 0.820102 0
M  V30 3959 C 379.643 1.26437 1.57151 0
M  V30 3960 C 379.956 -0.163111 1.94919 0
M  V30 3961 O 381.162 -0.366722 2.69012 0
M  V30 3962 C 379.618 2.21658 2.83541 0
M  V30 3963 C 379.226 3.69679 2.53065 0
M  V30 3964 C 380.97 2.22428 3.61561 0
M  V30 3965 C 378.877 4.56761 3.75664 0
M  V30 3966 H 377.807 0.469707 0.589823 0
M  V30 3967 H 380.458 1.59763 0.902656 0
M  V30 3968 H 378.84 1.81287 3.52067 0
M  V30 3969 H 380.014 4.18605 1.92631 0
M  V30 3970 H 378.329 3.71384 1.88316 0
M  V30 3971 H 380.926 2.8471 4.52597 0
M  V30 3972 H 381.269 1.22434 3.97889 0
M  V30 3973 H 381.802 2.61259 2.99981 0
M  V30 3974 H 378.541 5.57702 3.44454 0
M  V30 3975 H 378.061 4.12568 4.35371 0
M  V30 3976 H 379.74 4.71509 4.43044 0
M  V30 3977 N 379.872 -1.04064 1.18357 0
M  V30 3978 C 381.283 -1.58719 0.98312 0
M  V30 3979 C 381.634 -1.90556 -0.467193 0
M  V30 3980 O 380.759 -1.69561 -1.34454 0
M  V30 3981 C 381.354 -2.88379 1.77828 0
M  V30 3982 C 379.913 -3.3965 1.62218 0
M  V30 3983 C 379.06 -2.13235 1.77274 0
M  V30 3984 H 382.011 -0.867359 1.32901 0
M  V30 3985 H 382.032 -3.58773 1.26737 0
M  V30 3986 H 381.544 -2.65176 2.83379 0
M  V30 3987 H 379.645 -3.67866 0.592036 0
M  V30 3988 H 379.758 -4.13475 2.42023 0
M  V30 3989 H 378.122 -2.24542 1.20221 0
M  V30 3990 H 378.905 -1.92487 2.8426 0
M  V30 3991 N 381.35 -0.985608 -1.22978 0
M  V30 3992 C 382.766 -0.695104 -1.43668 0
M  V30 3993 C 382.966 0.736866 -1.87543 0
M  V30 3994 O 382.022 1.50868 -2.02473 0
M  V30 3995 C 383.335 -1.69447 -2.48412 0
M  V30 3996 C 384.883 -1.70909 -2.62219 0
M  V30 3997 C 385.358 -2.6969 -3.70178 0
M  V30 3998 N 386.849 -2.6824 -3.77626 0
M  V30 3999 C 387.584 -3.41339 -4.60733 0
M  V30 4000 N 387.08 -4.24015 -5.4789 0
M  V30 4001 N 388.873 -3.30079 -4.54977 0
M  V30 4002 H 381.024 -1.91054 -0.928016 0
M  V30 4003 H 383.287 -0.823553 -0.469536 0
M  V30 4004 H 382.993 -2.7188 -2.23102 0
M  V30 4005 H 382.867 -1.48147 -3.46889 0
M  V30 4006 H 385.254 -0.691785 -2.86877 0
M  V30 4007 H 385.335 -1.96276 -1.6404 0
M  V30 4008 H 384.979 -3.71566 -3.46268 0
M  V30 4009 H 384.909 -2.41595 -4.67909 0
M  V30 4010 H 387.4 -2.08243 -3.15346 0
M  V30 4011 H 387.713 -4.76636 -6.08308 0
M  V30 4012 H 386.058 -4.28104 -5.47496 0
M  V30 4013 H 389.249 -2.64937 -3.85909 0
M  V30 4014 H 389.422 -3.87308 -5.19516 0
M  V30 4015 N 382.828 1.3818 -0.7579 0
M  V30 4016 C 383.738 2.3421 -0.135247 0
M  V30 4017 C 384.754 1.59487 0.695683 0
M  V30 4018 O 385.93 1.91657 0.618832 0
M  V30 4019 C 382.995 3.3862 0.744139 0
M  V30 4020 C 382.056 4.2918 -0.101658 0
M  V30 4021 C 381.289 5.28603 0.735851 0
M  V30 4022 O 381.512 5.35166 1.97366 0
M  V30 4023 O 380.446 6.01707 0.152372 0
M  V30 4024 H 384.272 2.8916 -0.928436 0
M  V30 4025 H 381.857 1.40101 -0.518855 0
M  V30 4026 H 383.739 4.02539 1.2466 0
M  V30 4027 H 382.414 2.86019 1.51575 0
M  V30 4028 H 381.321 3.68407 -0.650167 0
M  V30 4029 H 382.654 4.85048 -0.836024 0
M  V30 4030 N 384.306 0.507319 1.49211 0
M  V30 4031 C 385.531 -0.033725 2.07373 0
M  V30 4032 C 385.956 -1.29485 1.36437 0
M  V30 4033 O 385.314 -1.76294 0.423087 0
M  V30 4034 C 385.362 -0.263945 3.59633 0
M  V30 4035 O 384.466 -1.33737 3.90113 0
M  V30 4036 H 383.807 0.0290331 0.663365 0
M  V30 4037 H 386.337 0.708749 1.91932 0
M  V30 4038 H 386.347 -0.493536 4.05004 0
M  V30 4039 H 385.022 0.657424 4.10671 0
M  V30 4040 H 383.599 -1.09224 3.56545 0
M  V30 4041 N 385.784 -1.5574 0.241426 0
M  V30 4042 C 386.714 -2.24133 -0.654722 0
M  V30 4043 C 387.695 -1.21974 -1.1856 0
M  V30 4044 O 388.88 -1.50612 -1.22595 0
M  V30 4045 C 386.01 -2.93659 -1.85423 0
M  V30 4046 C 384.964 -4.0246 -1.45636 0
M  V30 4047 C 384.29 -4.59383 -2.73626 0
M  V30 4048 C 385.59 -5.18468 -0.631506 0
M  V30 4049 H 387.284 -2.99281 -0.0844353 0
M  V30 4050 H 384.83 -1.43947 -0.0391707 0
M  V30 4051 H 386.783 -3.40203 -2.48676 0
M  V30 4052 H 385.507 -2.15991 -2.44981 0
M  V30 4053 H 384.166 -3.56676 -0.847202 0
M  V30 4054 H 383.814 -3.78422 -3.3137 0
M  V30 4055 H 383.514 -5.32826 -2.4773 0
M  V30 4056 H 385.038 -5.08658 -3.37786 0
M  V30 4057 H 386.452 -5.61272 -1.1682 0
M  V30 4058 H 384.849 -5.98266 -0.468831 0
M  V30 4059 H 385.919 -4.8358 0.357506 0
M  V30 4060 N 387.262 0.0317525 -1.57568 0
M  V30 4061 C 388.209 1.0332 -2.06382 0
M  V30 4062 C 389.179 1.36082 -0.952414 0
M  V30 4063 O 390.364 1.46466 -1.2228 0
M  V30 4064 C 387.504 2.32989 -2.54578 0
M  V30 4065 C 386.617 2.0641 -3.79498 0
M  V30 4066 C 385.752 3.2993 -4.16317 0
M  V30 4067 C 384.791 2.98893 -5.34162 0
M  V30 4068 N 383.928 4.14857 -5.66426 0
M  V30 4069 H 388.768 0.609982 -2.9169 0
M  V30 4070 H 386.305 0.289573 -1.44222 0
M  V30 4071 H 388.263 3.0875 -2.80587 0
M  V30 4072 H 386.893 2.73039 -1.7219 0
M  V30 4073 H 385.945 1.21158 -3.6059 0
M  V30 4074 H 387.257 1.79513 -4.65378 0
M  V30 4075 H 386.411 4.1406 -4.4344 0
M  V30 4076 H 385.15 3.59938 -3.29083 0
M  V30 4077 H 384.155 2.13164 -5.06795 0
M  V30 4078 H 385.38 2.70165 -6.23047 0
M  V30 4079 H 383.326 4.44821 -4.82151 0
M  V30 4080 H 383.243 3.91374 -6.4681 0
M  V30 4081 H 384.511 4.99868 -5.98124 0
M  V30 4082 N 388.74 1.54641 0.303973 0
M  V30 4083 C 389.67 1.88386 1.3796 0
M  V30 4084 C 390.651 0.742485 1.5304 0
M  V30 4085 O 391.836 0.997959 1.66597 0
M  V30 4086 C 388.966 2.12854 2.74427 0
M  V30 4087 C 387.92 3.28702 2.74115 0
M  V30 4088 C 387.246 3.38582 4.13844 0
M  V30 4089 C 388.546 4.65881 2.3612 0
M  V30 4090 H 390.24 2.78474 1.09966 0
M  V30 4091 H 387.786 1.33988 0.527556 0
M  V30 4092 H 389.739 2.35047 3.49758 0
M  V30 4093 H 388.463 1.19535 3.03939 0
M  V30 4094 H 387.122 3.06428 2.0124 0
M  V30 4095 H 386.77 2.42784 4.40528 0
M  V30 4096 H 386.47 4.16453 4.14537 0
M  V30 4097 H 387.994 3.63031 4.90959 0
M  V30 4098 H 389.408 4.87823 3.01167 0
M  V30 4099 H 387.805 5.46444 2.48031 0
M  V30 4100 H 388.875 4.66799 1.3125 0
M  V30 4101 N 390.218 -0.567019 1.47046 0
M  V30 4102 C 391.128 -1.70247 1.6141 0
M  V30 4103 C 392.144 -1.66746 0.497157 0
M  V30 4104 O 393.32 -1.86371 0.763389 0
M  V30 4105 C 390.385 -3.06756 1.61561 0
M  V30 4106 C 389.446 -3.21399 2.84607 0
M  V30 4107 C 388.679 -4.51396 2.84741 0
M  V30 4108 O 388.902 -5.36255 1.94388 0
M  V30 4109 O 387.836 -4.69621 3.76483 0
M  V30 4110 H 391.662 -1.61073 2.57467 0
M  V30 4111 H 389.247 -0.735894 1.30019 0
M  V30 4112 H 391.129 -3.8801 1.64396 0
M  V30 4113 H 389.804 -3.16333 0.686684 0
M  V30 4114 H 388.711 -2.39579 2.8732 0
M  V30 4115 H 390.044 -3.16721 3.76761 0
M  V30 4116 N 391.696 -1.35014 -0.812953 0
M  V30 4117 C 392.643 -1.27412 -1.92444 0
M  V30 4118 C 393.613 -0.14733 -1.65445 0
M  V30 4119 O 394.798 -0.329974 -1.87925 0
M  V30 4120 C 391.938 -1.04558 -3.28879 0
M  V30 4121 C 391.051 -2.26101 -3.68106 0
M  V30 4122 C 390.186 -1.96449 -4.9354 0
M  V30 4123 C 389.225 -3.14081 -5.25376 0
M  V30 4124 N 388.362 -2.84246 -6.41988 0
M  V30 4125 H 393.202 -2.22463 -1.98278 0
M  V30 4126 H 390.739 -1.10593 -0.969933 0
M  V30 4127 H 392.697 -0.893413 -4.07522 0
M  V30 4128 H 391.327 -0.131719 -3.22531 0
M  V30 4129 H 390.379 -2.52204 -2.84775 0
M  V30 4130 H 391.691 -3.13959 -3.87597 0
M  V30 4131 H 390.845 -1.78026 -5.79993 0
M  V30 4132 H 389.584 -1.05867 -4.76071 0
M  V30 4133 H 388.589 -3.33089 -4.37415 0
M  V30 4134 H 389.814 -4.05455 -5.44778 0
M  V30 4135 H 387.76 -1.96252 -6.25956 0
M  V30 4136 H 387.677 -3.65637 -6.61699 0
M  V30 4137 H 388.945 -2.6935 -7.31485 0
M  V30 4138 N 393.175 1.03435 -1.18907 0
M  V30 4139 C 394.122 2.11591 -0.921837 0
M  V30 4140 C 395.092 1.65499 0.141226 0
M  V30 4141 O 396.277 1.908 0.000242829 0
M  V30 4142 C 393.417 3.42012 -0.460616 0
M  V30 4143 C 392.53 4.01682 -1.58982 0
M  V30 4144 C 391.665 5.20091 -1.08069 0
M  V30 4145 C 390.704 5.71805 -2.18416 0
M  V30 4146 N 389.841 6.81494 -1.68849 0
M  V30 4147 H 394.681 2.33787 -1.8479 0
M  V30 4148 H 392.218 1.1467 -0.921373 0
M  V30 4149 H 394.176 4.16834 -0.174642 0
M  V30 4150 H 392.806 3.19944 0.428467 0
M  V30 4151 H 391.858 3.24127 -1.99113 0
M  V30 4152 H 393.17 4.36084 -2.4214 0
M  V30 4153 H 392.324 6.02051 -0.749615 0
M  V30 4154 H 391.063 4.87209 -0.218771 0
M  V30 4155 H 390.068 4.88461 -2.5236 0
M  V30 4156 H 391.293 6.06728 -3.05054 0
M  V30 4157 H 389.239 6.50475 -0.849572 0
M  V30 4158 H 389.156 7.14994 -2.45601 0
M  V30 4159 H 390.424 7.67063 -1.38689 0
M  V30 4160 N 394.653 0.992116 1.22453 0
M  V30 4161 C 395.583 0.561677 2.26644 0
M  V30 4162 C 396.564 -0.411055 1.65059 0
M  V30 4163 O 397.749 -0.301861 1.9184 0
M  V30 4164 C 394.879 -0.125247 3.47074 0
M  V30 4165 C 393.833 0.765948 4.21091 0
M  V30 4166 C 393.159 -0.0538484 5.34673 0
M  V30 4167 C 394.459 2.06242 4.79856 0
M  V30 4168 H 396.153 1.43259 2.62902 0
M  V30 4169 H 393.699 0.690283 1.26377 0
M  V30 4170 H 395.652 -0.437764 4.1912 0
M  V30 4171 H 394.376 -1.03069 3.0991 0
M  V30 4172 H 393.035 1.0621 3.50878 0
M  V30 4173 H 392.683 -0.960188 4.9375 0
M  V30 4174 H 392.383 0.539415 5.85119 0
M  V30 4175 H 393.907 -0.360477 6.09535 0
M  V30 4176 H 395.321 1.8139 5.43848 0
M  V30 4177 H 393.718 2.60444 5.40638 0
M  V30 4178 H 394.788 2.74167 3.99951 0
M  V30 4179 N 396.131 -1.37776 0.765217 0
M  V30 4180 C 397.379 -1.99454 0.325943 0
M  V30 4181 C 397.7 -1.61049 -1.09947 0
M  V30 4182 O 396.97 -0.872821 -1.75381 0
M  V30 4183 H 395.55 -0.737697 0.117525 0
M  V30 4184 H 398.212 -1.68359 0.981895 0
M  V30 4185 H 397.308 -3.09547 0.398353 0
M  V30 4186 N 397.609 -0.515225 -1.4894 0
M  V30 4187 C 398.572 0.244681 -2.2789 0
M  V30 4188 C 399.572 0.881166 -1.34507 0
M  V30 4189 O 400.762 0.743497 -1.57537 0
M  V30 4190 C 397.894 1.35247 -3.12923 0
M  V30 4191 H 399.087 -0.448289 -2.96531 0
M  V30 4192 H 396.64 -0.270656 -1.53939 0
M  V30 4193 H 397.375 2.07916 -2.48881 0
M  V30 4194 H 397.16 0.901374 -3.81599 0
M  V30 4195 H 398.65 1.88737 -3.72516 0
M  V30 4196 N 399.087 1.5561 -0.249682 0
M  V30 4197 C 400.335 1.98618 0.373548 0
M  V30 4198 C 400.656 1.13919 1.58264 0
M  V30 4199 O 399.926 0.222637 1.94631 0
M  V30 4200 H 398.506 0.733571 0.141006 0
M  V30 4201 H 401.168 1.91748 -0.349117 0
M  V30 4202 H 400.264 3.04584 0.680796 0
M  V30 4203 N 400.565 -0.0233959 1.57583 0
M  V30 4204 C 401.497 -1.04994 2.03737 0
M  V30 4205 C 402.51 -1.32125 0.951152 0
M  V30 4206 O 403.699 -1.29512 1.22837 0
M  V30 4207 C 400.799 -2.39026 2.40249 0
M  V30 4208 C 399.972 -2.31171 3.7132 0
M  V30 4209 C 399.031 -3.47698 3.94959 0
M  V30 4210 O 398.057 -3.26937 4.65941 0
M  V30 4211 N 399.259 -4.6976 3.41037 0
M  V30 4212 H 402.024 -0.656507 2.92421 0
M  V30 4213 H 399.585 -0.211235 1.60516 0
M  V30 4214 H 401.577 -3.15712 2.53196 0
M  V30 4215 H 400.147 -2.70194 1.57207 0
M  V30 4216 H 399.367 -1.39547 3.68674 0
M  V30 4217 H 400.655 -2.23071 4.57293 0
M  V30 4218 H 400.053 -4.89528 2.83512 0
M  V30 4219 H 398.61 -5.43791 3.59353 0
M  V30 4220 N 402.043 -1.548 -0.295768 0
M  V30 4221 C 403.29 -1.74329 -1.03032 0
M  V30 4222 C 403.618 -0.531915 -1.87085 0
M  V30 4223 O 402.873 0.486052 -1.89568 0
M  V30 4224 C 403.172 -2.98797 -1.961 0
M  V30 4225 C 402.838 -4.32356 -1.2798 0
M  V30 4226 C 401.5 -4.68661 -1.09135 0
M  V30 4227 C 403.852 -5.15128 -0.793243 0
M  V30 4228 C 401.18 -5.85312 -0.403269 0
M  V30 4229 C 403.532 -6.32488 -0.118854 0
M  V30 4230 C 402.196 -6.6745 0.0815043 0
M  V30 4231 H 401.466 -0.637916 -0.37702 0
M  V30 4232 H 404.113 -1.8906 -0.304696 0
M  V30 4233 H 402.418 -2.78869 -2.75207 0
M  V30 4234 H 404.115 -3.11102 -2.53015 0
M  V30 4235 H 400.705 -4.03808 -1.43655 0
M  V30 4236 H 404.889 -4.87575 -0.92653 0
M  V30 4237 H 400.145 -6.1094 -0.237098 0
M  V30 4238 H 404.319 -6.95892 0.266035 0
M  V30 4239 H 401.946 -7.57695 0.616685 0
M  V30 4240 N 403.521 0.559213 -1.47345 0
M  V30 4241 C 404.769 1.31388 -1.53563 0
M  V30 4242 C 405.09 1.93985 -0.198678 0
M  V30 4243 O 404.36 1.79825 0.777167 0
M  V30 4244 H 402.94 0.487901 -0.565652 0
M  V30 4245 H 405.602 0.65315 -1.8363 0
M  V30 4246 H 404.698 2.10844 -2.30111 0
M  V30 4247 N 404.999 1.35443 0.805782 0
M  V30 4248 C 405.909 1.30546 1.94923 0
M  V30 4249 C 406.925 0.210233 1.72725 0
M  V30 4250 O 408.101 0.43975 1.9654 0
M  V30 4251 C 405.166 1.07782 3.29521 0
M  V30 4252 C 404.227 2.26625 3.64609 0
M  V30 4253 C 403.46 2.04938 4.92784 0
M  V30 4254 O 403.683 1.01624 5.61274 0
M  V30 4255 O 402.617 2.9232 5.26149 0
M  V30 4256 H 406.443 2.26779 2.02002 0
M  V30 4257 H 404.028 1.15823 0.943682 0
M  V30 4258 H 405.91 0.969392 4.10098 0
M  V30 4259 H 404.585 0.146003 3.23371 0
M  V30 4260 H 403.492 2.43033 2.84404 0
M  V30 4261 H 404.825 3.18257 3.75464 0
M  V30 4262 N 406.477 -1.02803 1.19454 0
M  V30 4263 C 407.723 -1.76478 0.999171 0
M  V30 4264 C 408.056 -1.88456 -0.468828 0
M  V30 4265 O 407.331 -1.40198 -1.34814 0
M  V30 4266 C 407.614 -3.19044 1.66981 0
M  V30 4267 C 407.467 -3.14932 3.21151 0
M  V30 4268 C 408.786 -4.17456 1.39349 0
M  V30 4269 H 405.905 -0.640614 0.364393 0
M  V30 4270 H 408.547 -1.20005 1.47305 0
M  V30 4271 H 406.697 -3.67263 1.2669 0
M  V30 4272 H 408.369 -2.74605 3.70661 0
M  V30 4273 H 406.612 -2.52625 3.52652 0
M  V30 4274 H 407.283 -4.1566 3.63223 0
M  V30 4275 H 409.759 -3.77842 1.74283 0
M  V30 4276 H 408.635 -5.154 1.88823 0
M  V30 4277 H 408.896 -4.40949 0.318813 0
M  V30 4278 N 407.956 -0.998596 -1.21925 0
M  V30 4279 C 409.202 -0.688337 -1.91399 0
M  V30 4280 C 409.557 0.771805 -1.76241 0
M  V30 4281 O 408.85 1.55153 -1.1242 0
M  V30 4282 C 409.044 -1.03648 -3.42041 0
M  V30 4283 C 408.873 -2.52892 -3.71855 0
M  V30 4284 C 407.643 -3.19389 -3.91559 0
M  V30 4285 C 409.841 -3.5103 -3.75875 0
M  V30 4286 N 407.823 -4.5805 -4.08734 0
M  V30 4287 C 409.194 -4.75174 -3.98259 0
M  V30 4288 C 411.249 -3.45257 -3.58751 0
M  V30 4289 C 409.952 -5.94247 -4.05294 0
M  V30 4290 C 411.978 -4.63712 -3.67049 0
M  V30 4291 C 411.34 -5.86658 -3.89887 0
M  V30 4292 H 407.439 -0.303251 -0.720807 0
M  V30 4293 H 410.023 -1.27977 -1.46731 0
M  V30 4294 H 408.194 -0.473569 -3.85502 0
M  V30 4295 H 409.926 -0.681619 -3.98919 0
M  V30 4296 H 406.681 -2.69846 -3.89205 0
M  V30 4297 H 407.105 -5.29989 -4.21237 0
M  V30 4298 H 411.747 -2.51215 -3.40075 0
M  V30 4299 H 409.465 -6.88687 -4.22772 0
M  V30 4300 H 413.051 -4.6084 -3.5513 0
M  V30 4301 H 411.931 -6.76786 -3.96144 0
M  V30 4302 N 409.434 1.37368 -0.772513 0
M  V30 4303 C 410.367 2.27956 -0.105593 0
M  V30 4304 C 411.345 1.46362 0.708295 0
M  V30 4305 O 412.529 1.75695 0.682895 0
M  V30 4306 C 409.656 3.27687 0.856686 0
M  V30 4307 C 408.702 4.26312 0.1267 0
M  V30 4308 S 409.535 5.22206 -1.1858 0
M  V30 4309 C 410.691 6.25488 -0.227081 0
M  V30 4310 H 410.924 2.84171 -0.87372 0
M  V30 4311 H 408.457 1.43654 -0.565939 0
M  V30 4312 H 410.415 3.85653 1.40648 0
M  V30 4313 H 409.076 2.70417 1.59793 0
M  V30 4314 H 408.269 4.96674 0.856212 0
M  V30 4315 H 407.871 3.72339 -0.352117 0
M  V30 4316 H 410.163 6.74836 0.600231 0
M  V30 4317 H 411.106 7.02371 -0.898899 0
M  V30 4318 H 411.514 5.64267 0.162053 0
M  V30 4319 N 410.912 0.523116 1.48665 0
M  V30 4320 C 411.875 -0.232592 2.28017 0
M  V30 4321 C 412.875 -0.874021 1.34972 0
M  V30 4322 O 414.065 -0.735132 1.57929 0
M  V30 4323 C 411.197 -1.33586 3.13636 0
M  V30 4324 H 412.39 0.464008 2.96289 0
M  V30 4325 H 409.943 0.278816 1.53793 0
M  V30 4326 H 410.678 -2.06593 2.4998 0
M  V30 4327 H 410.463 -0.881125 3.82071 0
M  V30 4328 H 411.953 -1.86759 3.73511 0
M  V30 4329 N 412.39 -1.55475 0.257931 0
M  V30 4330 C 413.618 -2.03609 -0.367559 0
M  V30 4331 C 414.033 -1.13687 -1.50734 0
M  V30 4332 O 413.39 -0.153479 -1.81853 0
M  V30 4333 C 413.441 -3.51001 -0.864908 0
M  V30 4334 O 413.162 -4.37499 0.229465 0
M  V30 4335 C 414.663 -4.14946 -1.55997 0
M  V30 4336 H 411.883 -0.665459 -0.0860521 0
M  V30 4337 H 414.427 -2.00843 0.385014 0
M  V30 4338 H 412.582 -3.54266 -1.56762 0
M  V30 4339 H 412.996 -5.24286 -0.14998 0
M  V30 4340 H 414.47 -5.19735 -1.85956 0
M  V30 4341 H 414.947 -3.6209 -2.4857 0
M  V30 4342 H 415.553 -4.15635 -0.901543 0
M  V30 4343 N 413.868 0.0150385 -1.57593 0
M  V30 4344 C 415.098 0.713359 -1.93894 0
M  V30 4345 C 415.506 1.68663 -0.857289 0
M  V30 4346 O 414.849 1.82876 0.173788 0
M  V30 4347 C 414.911 1.51348 -3.26089 0
M  V30 4348 C 414.575 0.703451 -4.51554 0
M  V30 4349 C 415.572 -0.00237924 -5.199 0
M  V30 4350 C 413.257 0.653854 -4.98026 0
M  V30 4351 C 415.251 -0.746955 -6.33008 0
M  V30 4352 C 412.938 -0.0944578 -6.11027 0
M  V30 4353 C 413.936 -0.793609 -6.78374 0
M  V30 4354 O 413.624 -1.52974 -7.89211 0
M  V30 4355 H 413.356 0.204637 -0.644282 0
M  V30 4356 H 415.91 -0.0276411 -2.05381 0
M  V30 4357 H 414.14 2.29862 -3.10967 0
M  V30 4358 H 415.829 2.09572 -3.47612 0
M  V30 4359 H 416.595 0.0268803 -4.84993 0
M  V30 4360 H 412.474 1.18756 -4.45441 0
M  V30 4361 H 416.018 -1.2932 -6.85509 0
M  V30 4362 H 411.915 -0.125591 -6.45378 0
M  V30 4363 H 412.683 -1.44488 -8.05646 0
M  V30 4364 N 415.346 1.54954 0.287554 0
M  V30 4365 C 416.294 1.87606 1.37502 0
M  V30 4366 C 417.288 0.751001 1.51843 0
M  V30 4367 O 418.494 0.935169 1.53801 0
M  V30 4368 H 414.869 0.595231 0.459569 0
M  V30 4369 H 416.84 2.78477 1.07206 0
M  V30 4370 C 415.589 2.15183 2.73115 0
M  V30 4371 H 414.912 3.01234 2.62866 0
M  V30 4372 H 416.352 2.4196 3.48183 0
M  V30 4373 C 414.811 0.954686 3.2309 0
M  V30 4374 O 415.341 0.181949 4.01288 0
M  V30 4375 N 413.547 0.756368 2.80584 0
M  V30 4376 H 413.094 1.38643 2.17108 0
M  V30 4377 H 413.052 -0.0430391 3.14371 0
M  V30 4378 N 416.824 -0.551391 1.4764 0
M  V30 4379 C 417.771 -1.65796 1.60563 0
M  V30 4380 C 418.741 -1.59932 0.448428 0
M  V30 4381 O 419.926 -1.78679 0.669222 0
M  V30 4382 C 417.066 -3.04108 1.63133 0
M  V30 4383 C 416.179 -3.20365 2.89811 0
M  V30 4384 C 415.314 -4.49109 2.8368 0
M  V30 4385 C 414.353 -4.58819 4.05156 0
M  V30 4386 N 413.49 -5.78926 3.97227 0
M  V30 4387 H 418.33 -1.54088 2.5507 0
M  V30 4388 H 415.867 -0.75052 1.26513 0
M  V30 4389 H 417.825 -3.84207 1.62606 0
M  V30 4390 H 416.455 -3.14637 0.721341 0
M  V30 4391 H 415.507 -2.33659 3.00179 0
M  V30 4392 H 416.819 -3.23402 3.79753 0
M  V30 4393 H 415.973 -5.37475 2.81434 0
M  V30 4394 H 414.712 -4.4856 1.91431 0
M  V30 4395 H 413.717 -3.68864 4.077 0
M  V30 4396 H 414.942 -4.61124 4.98539 0
M  V30 4397 H 412.888 -5.79314 3.07785 0
M  V30 4398 H 412.805 -5.83367 4.80853 0
M  V30 4399 H 414.073 -6.69637 3.99007 0
M  V30 4400 N 418.302 -1.35869 -0.798587 0
M  V30 4401 C 419.252 -1.25982 -1.90033 0
M  V30 4402 C 420.236 -0.153303 -1.60168 0
M  V30 4403 O 421.428 -0.38527 -1.72756 0
M  V30 4404 C 418.557 -1.04211 -3.27101 0
M  V30 4405 C 417.643 -2.19289 -3.63006 0
M  V30 4406 N 418.034 -3.44559 -3.70287 0
M  V30 4407 C 416.332 -2.10852 -3.93011 0
M  V30 4408 C 417.033 -4.20283 -4.02166 0
M  V30 4409 N 416.009 -3.49124 -4.16669 0
M  V30 4410 H 419.811 -2.20883 -1.93876 0
M  V30 4411 H 417.325 -1.28457 -0.993614 0
M  V30 4412 H 419.322 -0.952155 -4.05881 0
M  V30 4413 H 417.982 -0.102013 -3.2454 0
M  V30 4414 H 418.993 -3.7881 -3.53162 0
M  V30 4415 H 415.67 -1.24744 -3.98428 0
M  V30 4416 H 417.06 -5.28575 -4.14799 0
M  V30 4417 N 419.78 1.02168 -1.19998 0
M  V30 4418 C 421.008 1.79296 -1.03249 0
M  V30 4419 C 421.423 1.84103 0.418502 0
M  V30 4420 O 420.78 1.29031 1.29063 0
M  V30 4421 C 420.831 3.24007 -1.60319 0
M  V30 4422 O 420.552 3.19512 -2.99739 0
M  V30 4423 C 422.053 4.17704 -1.48453 0
M  V30 4424 H 419.273 0.564016 -0.363493 0
M  V30 4425 H 421.817 1.28639 -1.58973 0
M  V30 4426 H 419.972 3.7183 -1.08727 0
M  V30 4427 H 420.386 4.10306 -3.26725 0
M  V30 4428 H 421.86 5.17104 -1.93153 0
M  V30 4429 H 422.337 4.37029 -0.436193 0
M  V30 4430 H 422.943 3.7576 -1.99211 0
M  V30 4431 N 421.258 1.00505 1.21394 0
M  V30 4432 C 422.205 0.565496 2.23765 0
M  V30 4433 C 423.175 -0.408466 1.60999 0
M  V30 4434 O 424.36 -0.310503 1.88257 0
M  V30 4435 C 421.5 -0.101667 3.4495 0
M  V30 4436 C 420.613 0.915479 4.22188 0
M  V30 4437 C 419.748 0.220574 5.30742 0
M  V30 4438 C 418.787 1.22527 5.99711 0
M  V30 4439 N 417.924 0.557831 6.9988 0
M  V30 4440 H 422.764 1.44314 2.60725 0
M  V30 4441 H 420.301 0.722643 1.28126 0
M  V30 4442 H 422.259 -0.505504 4.14126 0
M  V30 4443 H 420.889 -0.94303 3.08718 0
M  V30 4444 H 419.941 1.43756 3.52191 0
M  V30 4445 H 421.253 1.68005 4.69655 0
M  V30 4446 H 420.407 -0.239368 6.06228 0
M  V30 4447 H 419.146 -0.576401 4.84282 0
M  V30 4448 H 418.151 1.69571 5.22997 0
M  V30 4449 H 419.376 2.02332 6.48258 0
M  V30 4450 H 417.322 -0.219486 6.55633 0
M  V30 4451 H 417.239 1.26065 7.45415 0
M  V30 4452 H 418.507 0.121095 7.79406 0
M  V30 4453 N 422.737 -1.36956 0.779787 0
M  V30 4454 C 423.983 -1.99787 0.348281 0
M  V30 4455 C 424.316 -1.61756 -1.07465 0
M  V30 4456 O 423.591 -0.867639 -1.74075 0
M  V30 4457 C 423.874 -3.56597 0.50104 0
M  V30 4458 C 423.727 -4.04513 1.96697 0
M  V30 4459 C 425.046 -4.40008 -0.0898097 0
M  V30 4460 H 422.165 -0.725796 0.128022 0
M  V30 4461 H 424.807 -1.62514 0.984331 0
M  V30 4462 H 422.957 -3.88479 -0.0404347 0
M  V30 4463 H 424.629 -3.83161 2.56876 0
M  V30 4464 H 422.872 -3.56408 2.47297 0
M  V30 4465 H 423.543 -5.1352 2.02486 0
M  V30 4466 H 426.019 -4.14431 0.372293 0
M  V30 4467 H 424.895 -5.4888 0.0471605 0
M  V30 4468 H 425.156 -4.26035 -1.18096 0
M  V30 4469 N 424.215 -0.530993 -1.48385 0
M  V30 4470 C 425.178 0.220497 -2.28137 0
M  V30 4471 C 426.178 0.866851 -1.35434 0
M  V30 4472 O 427.368 0.726746 -1.58316 0
M  V30 4473 C 424.5 1.31921 -3.1434 0
M  V30 4474 H 425.693 -0.479714 -2.96038 0
M  V30 4475 H 423.246 -0.286968 -1.53643 0
M  V30 4476 H 423.981 2.05264 -2.51072 0
M  V30 4477 H 423.766 0.86085 -3.82533 0
M  V30 4478 H 425.256 1.84776 -3.74497 0
M  V30 4479 N 425.693 1.55336 -0.266172 0
M  V30 4480 C 426.939 1.99692 0.353681 0
M  V30 4481 C 427.272 1.1543 1.56172 0
M  V30 4482 O 426.547 0.222218 1.93226 0
M  V30 4483 C 426.83 3.52316 0.74466 0
M  V30 4484 C 426.683 4.47337 -0.470101 0
M  V30 4485 C 428.002 4.10588 1.58447 0
M  V30 4486 H 425.121 0.725961 0.12708 0
M  V30 4487 H 427.763 1.86336 -0.371333 0
M  V30 4488 H 425.913 3.63829 1.36239 0
M  V30 4489 H 427.585 4.4778 -1.10864 0
M  V30 4490 H 425.828 4.19364 -1.10978 0
M  V30 4491 H 426.499 5.51788 -0.15291 0
M  V30 4492 H 428.975 4.02297 1.06286 0
M  V30 4493 H 427.851 5.17607 1.82686 0
M  V30 4494 H 428.112 3.60253 2.56262 0
M  V30 4495 N 427.171 -0.0066808 1.57599 0
M  V30 4496 C 428.118 -1.00024 2.08 0
M  V30 4497 C 429.088 -1.34549 0.973943 0
M  V30 4498 O 430.273 -1.44502 1.24595 0
M  V30 4499 C 427.413 -2.2891 2.58252 0
M  V30 4500 C 426.526 -2.00346 3.82734 0
M  V30 4501 C 425.661 -3.23265 4.21513 0
M  V30 4502 C 424.7 -2.90357 5.3885 0
M  V30 4503 N 423.837 -4.05793 5.72954 0
M  V30 4504 H 428.677 -0.563499 2.92624 0
M  V30 4505 H 426.214 -0.266592 1.44664 0
M  V30 4506 H 428.172 -3.04247 2.85464 0
M  V30 4507 H 426.802 -2.70265 1.76512 0
M  V30 4508 H 425.854 -1.15406 3.62471 0
M  V30 4509 H 427.166 -1.72086 4.68175 0
M  V30 4510 H 426.32 -4.06953 4.49971 0
M  V30 4511 H 425.059 -3.54657 3.34768 0
M  V30 4512 H 424.064 -2.05075 5.10122 0
M  V30 4513 H 425.289 -2.60219 6.27266 0
M  V30 4514 H 423.235 -4.37094 4.89167 0
M  V30 4515 H 423.152 -3.81034 6.52954 0
M  V30 4516 H 424.42 -4.90289 6.06001 0
M  V30 4517 N 428.649 -1.55105 -0.279332 0
M  V30 4518 C 429.877 -1.7943 -1.03017 0
M  V30 4519 C 430.292 -0.564456 -1.80165 0
M  V30 4520 O 429.649 0.466326 -1.76442 0
M  V30 4521 C 429.7 -3.0155 -1.99374 0
M  V30 4522 O 429.421 -4.19784 -1.25352 0
M  V30 4523 C 430.922 -3.3843 -2.86321 0
M  V30 4524 H 428.142 -0.597882 -0.304594 0
M  V30 4525 H 430.686 -2.02105 -0.312035 0
M  V30 4526 H 428.841 -2.81019 -2.66659 0
M  V30 4527 H 429.255 -4.88781 -1.90246 0
M  V30 4528 H 430.729 -4.27066 -3.49741 0
M  V30 4529 H 431.206 -2.57549 -3.5576 0
M  V30 4530 H 431.812 -3.61197 -2.24536 0
M  V30 4531 N 430.127 0.543554 -1.4793 0
M  V30 4532 C 431.06 1.66556 -1.55995 0
M  V30 4533 C 432.038 1.57315 -0.411205 0
M  V30 4534 O 433.222 1.7798 -0.620922 0
M  V30 4535 C 430.349 3.04883 -1.47527 0
M  V30 4536 C 429.395 3.32526 -2.67074 0
M  V30 4537 S 430.228 3.20282 -4.29162 0
M  V30 4538 C 431.384 4.61079 -4.23269 0
M  V30 4539 H 431.617 1.59462 -2.50917 0
M  V30 4540 H 429.15 0.725456 -1.36296 0
M  V30 4541 H 431.108 3.84665 -1.43328 0
M  V30 4542 H 429.769 3.09429 -0.539665 0
M  V30 4543 H 428.962 4.33403 -2.5725 0
M  V30 4544 H 428.564 2.60389 -2.68466 0
M  V30 4545 H 430.856 5.52318 -3.92365 0
M  V30 4546 H 431.799 4.75959 -5.24279 0
M  V30 4547 H 432.207 4.39766 -3.5393 0
M  V30 4548 N 431.605 1.3629 0.791371 0
M  V30 4549 C 432.552 1.30458 1.90393 0
M  V30 4550 C 433.522 0.173632 1.6519 0
M  V30 4551 O 434.707 0.35983 1.87376 0
M  V30 4552 C 431.847 1.09777 3.27174 0
M  V30 4553 C 430.96 2.31929 3.64462 0
M  V30 4554 C 430.095 2.04276 4.90352 0
M  V30 4555 C 429.134 3.224 5.20312 0
M  V30 4556 N 428.271 2.94424 6.37385 0
M  V30 4557 H 433.111 2.25589 1.94714 0
M  V30 4558 H 430.648 1.12122 0.952216 0
M  V30 4559 H 432.606 0.958133 4.06049 0
M  V30 4560 H 431.236 0.183014 3.22281 0
M  V30 4561 H 430.288 2.56703 2.80727 0
M  V30 4562 H 431.6 3.20085 3.82553 0
M  V30 4563 H 430.754 1.87231 5.77087 0
M  V30 4564 H 429.493 1.13428 4.74326 0
M  V30 4565 H 428.498 3.40005 4.32061 0
M  V30 4566 H 429.723 4.14071 5.38258 0
M  V30 4567 H 427.669 2.06185 6.22755 0
M  V30 4568 H 427.586 3.76118 6.55798 0
M  V30 4569 H 428.854 2.80953 7.27108 0
M  V30 4570 N 433.083 -1.0153 1.20538 0
M  V30 4571 C 434.494 -1.56598 1.01657 0
M  V30 4572 C 434.845 -1.91505 -0.426668 0
M  V30 4573 O 433.97 -1.72375 -1.30827 0
M  V30 4574 C 434.565 -2.84542 1.83905 0
M  V30 4575 C 433.124 -3.36133 1.69386 0
M  V30 4576 C 432.271 -2.09427 1.81757 0
M  V30 4577 H 435.222 -0.838974 1.34711 0
M  V30 4578 H 435.243 -3.56004 1.34319 0
M  V30 4579 H 434.755 -2.59105 2.8894 0
M  V30 4580 H 432.856 -3.66528 0.669933 0
M  V30 4581 H 432.969 -4.08248 2.50739 0
M  V30 4582 H 431.333 -2.21941 1.24957 0
M  V30 4583 H 432.116 -1.86414 2.88279 0
M  V30 4584 N 434.561 -1.01147 -1.20859 0
M  V30 4585 C 435.809 -0.696486 -1.89719 0
M  V30 4586 C 436.13 0.775788 -1.78904 0
M  V30 4587 O 435.4 1.55759 -1.18811 0
M  V30 4588 H 433.98 -0.254628 -0.702263 0
M  V30 4589 H 436.642 -1.28197 -1.46804 0
M  V30 4590 H 435.738 -0.975357 -2.96468 0
M  V30 4591 N 436.039 1.36541 -0.78704 0
M  V30 4592 C 437.264 2.0409 -0.369053 0
M  V30 4593 C 437.689 1.58957 1.00569 0
M  V30 4594 O 437.047 0.756926 1.64743 0
M  V30 4595 C 437.095 3.57924 -0.438466 0
M  V30 4596 O 436.199 4.08642 0.555479 0
M  V30 4597 H 435.54 0.645142 -0.157122 0
M  V30 4598 H 438.07 1.74545 -1.06749 0
M  V30 4599 H 438.08 4.06887 -0.301218 0
M  V30 4600 H 436.755 3.90127 -1.44132 0
M  V30 4601 H 435.332 3.70958 0.380088 0
M  V30 4602 N 437.518 0.538854 1.48102 0
M  V30 4603 C 438.451 -0.266495 2.26639 0
M  V30 4604 C 439.429 -0.93687 1.32897 0
M  V30 4605 O 440.613 -0.959507 1.62252 0
M  V30 4606 C 437.74 -1.37814 3.09394 0
M  V30 4607 C 436.786 -0.818247 4.18577 0
M  V30 4608 S 437.619 0.320848 5.34538 0
M  V30 4609 C 438.775 -0.793059 6.20855 0
M  V30 4610 H 439.008 0.399994 2.94597 0
M  V30 4611 H 436.541 0.324808 1.50945 0
M  V30 4612 H 438.499 -2.01488 3.57649 0
M  V30 4613 H 437.16 -2.01639 2.40833 0
M  V30 4614 H 436.353 -1.65247 4.7614 0
M  V30 4615 H 435.955 -0.258036 3.73109 0
M  V30 4616 H 438.247 -1.68961 6.56093 0
M  V30 4617 H 439.19 -0.255204 7.0764 0
M  V30 4618 H 439.598 -1.07746 5.54122 0
M  V30 4619 N 438.996 -1.55193 0.274407 0
M  V30 4620 C 440.221 -2.04446 -0.348824 0
M  V30 4621 C 440.646 -1.15149 -1.48735 0
M  V30 4622 O 440.004 -0.149952 -1.80679 0
M  V30 4623 C 440.052 -3.51431 -0.808009 0
M  V30 4624 O 439.156 -3.65225 -1.91531 0
M  V30 4625 H 438.497 -0.66006 -0.0722276 0
M  V30 4626 H 441.027 -2.00481 0.408498 0
M  V30 4627 H 441.037 -3.92781 -1.10395 0
M  V30 4628 H 439.712 -4.15892 0.0249865 0
M  V30 4629 H 438.289 -3.35778 -1.62196 0
M  V30 4630 N 440.474 -0.00167713 -1.576 0
M  V30 4631 C 441.72 0.683832 -1.90923 0
M  V30 4632 C 442.053 1.7333 -0.875799 0
M  V30 4633 O 441.328 1.94215 0.10525 0
M  V30 4634 C 441.611 1.32543 -3.3482 0
M  V30 4635 C 441.464 0.287387 -4.48881 0
M  V30 4636 C 442.783 2.25114 -3.78169 0
M  V30 4637 H 439.902 0.247125 -0.694333 0
M  V30 4638 H 442.544 -0.0533149 -1.89925 0
M  V30 4639 H 440.694 1.95372 -3.35801 0
M  V30 4640 H 442.366 -0.341346 -4.60035 0
M  V30 4641 H 440.609 -0.39017 -4.32042 0
M  V30 4642 H 441.28 0.775393 -5.46527 0
M  V30 4643 H 443.756 1.723 -3.7875 0
M  V30 4644 H 442.632 2.66971 -4.79602 0
M  V30 4645 H 442.893 3.13092 -3.12131 0
M  V30 4646 N 441.952 1.55251 0.271103 0
M  V30 4647 C 442.862 1.9136 1.35714 0
M  V30 4648 C 443.878 0.811075 1.5394 0
M  V30 4649 O 445.054 1.11031 1.6803 0
M  V30 4650 C 442.119 2.1798 2.69603 0
M  V30 4651 C 441.18 3.4153 2.60107 0
M  V30 4652 C 440.413 3.66871 3.8761 0
M  V30 4653 O 440.636 2.94689 4.8838 0
M  V30 4654 O 439.57 4.60405 3.87699 0
M  V30 4655 H 443.396 2.83815 1.08088 0
M  V30 4656 H 440.981 1.41821 0.469792 0
M  V30 4657 H 442.863 2.36518 3.48765 0
M  V30 4658 H 441.538 1.28708 2.97012 0
M  V30 4659 H 440.445 3.28325 1.79314 0
M  V30 4660 H 441.778 4.31027 2.37647 0
M  V30 4661 N 443.43 -0.535701 1.48216 0
M  V30 4662 C 444.393 -1.623 1.61838 0
M  V30 4663 C 445.393 -1.53087 0.492024 0
M  V30 4664 O 446.583 -1.5686 0.757668 0
M  V30 4665 C 443.715 -3.01907 1.58319 0
M  V30 4666 H 444.908 -1.51564 2.58783 0
M  V30 4667 H 442.461 -0.757317 1.36727 0
M  V30 4668 H 443.196 -3.18155 0.628299 0
M  V30 4669 H 442.981 -3.10003 2.40085 0
M  V30 4670 H 444.471 -3.80969 1.71033 0
M  V30 4671 N 444.908 -1.36708 -0.784132 0
M  V30 4672 C 446.155 -1.31231 -1.54222 0
M  V30 4673 C 446.483 0.106864 -1.94206 0
M  V30 4674 O 445.738 1.07734 -1.63376 0
M  V30 4675 C 446.037 -2.18571 -2.82774 0
M  V30 4676 C 445.703 -3.67039 -2.61903 0
M  V30 4677 C 444.365 -4.07503 -2.55919 0
M  V30 4678 C 446.717 -4.61149 -2.4288 0
M  V30 4679 C 444.045 -5.40211 -2.28886 0
M  V30 4680 C 446.397 -5.94081 -2.17373 0
M  V30 4681 C 445.061 -6.33664 -2.09825 0
M  V30 4682 H 444.331 -0.48021 -0.56434 0
M  V30 4683 H 446.978 -1.68807 -0.904233 0
M  V30 4684 H 445.283 -1.73949 -3.51068 0
M  V30 4685 H 446.98 -2.11655 -3.40592 0
M  V30 4686 H 443.57 -3.34941 -2.67418 0
M  V30 4687 H 447.754 -4.30756 -2.46501 0
M  V30 4688 H 443.01 -5.69855 -2.21529 0
M  V30 4689 H 447.184 -6.66566 -2.01649 0
M  V30 4690 H 444.811 -7.36423 -1.88641 0
M  V30 4691 N 446.386 1.0089 -1.21074 0
M  V30 4692 C 447.316 2.1145 -0.990523 0
M  V30 4693 C 448.297 1.69897 0.0831699 0
M  V30 4694 O 449.482 1.94052 -0.0758853 0
M  V30 4695 C 446.612 3.42914 -0.550177 0
M  V30 4696 C 445.566 3.98244 -1.56799 0
M  V30 4697 C 444.892 5.25568 -0.984013 0
M  V30 4698 C 446.192 4.30752 -2.95381 0
M  V30 4699 H 447.886 2.3013 -1.91521 0
M  V30 4700 H 445.432 1.10592 -0.92225 0
M  V30 4701 H 447.385 4.19653 -0.383305 0
M  V30 4702 H 446.109 3.24014 0.41015 0
M  V30 4703 H 444.768 3.23621 -1.72236 0
M  V30 4704 H 444.416 5.02998 -0.0155216 0
M  V30 4705 H 444.116 5.63551 -1.66384 0
M  V30 4706 H 445.64 6.04955 -0.828378 0
M  V30 4707 H 447.054 4.98349 -2.8341 0
M  V30 4708 H 445.451 4.79869 -3.60341 0
M  V30 4709 H 446.521 3.39192 -3.46521 0
M  V30 4710 N 447.864 1.01787 1.20321 0
M  V30 4711 C 448.827 0.593972 2.2137 0
M  V30 4712 C 449.827 -0.336553 1.57239 0
M  V30 4713 O 451.017 -0.125069 1.7375 0
M  V30 4714 C 448.149 -0.132433 3.40643 0
M  V30 4715 H 449.342 1.48791 2.60387 0
M  V30 4716 H 446.895 0.807803 1.33807 0
M  V30 4717 H 447.63 -1.04123 3.0713 0
M  V30 4718 H 447.415 0.53605 3.88418 0
M  V30 4719 H 448.905 -0.416314 4.1552 0
M  V30 4720 N 449.342 -1.36122 0.79427 0
M  V30 4721 C 450.252 -2.33769 0.197296 0
M  V30 4722 C 451.268 -1.61276 -0.653153 0
M  V30 4723 O 452.444 -1.9323 -0.5678 0
M  V30 4724 C 449.509 -3.40474 -0.654098 0
M  V30 4725 C 448.57 -4.28759 0.215411 0
M  V30 4726 C 447.803 -5.30368 -0.595443 0
M  V30 4727 O 448.026 -5.40211 -1.83107 0
M  V30 4728 O 446.96 -6.019 0.00721351 0
M  V30 4729 H 450.786 -2.86597 1.00478 0
M  V30 4730 H 448.371 -1.38676 0.555818 0
M  V30 4731 H 450.253 -4.05703 -1.13944 0
M  V30 4732 H 448.928 -2.89937 -1.43938 0
M  V30 4733 H 447.835 -3.66554 0.747615 0
M  V30 4734 H 449.168 -4.82661 0.964332 0
M  V30 4735 N 450.82 -0.546701 -1.47814 0
M  V30 4736 C 451.783 0.196287 -2.28358 0
M  V30 4737 C 452.783 0.852437 -1.36346 0
M  V30 4738 O 453.973 0.709913 -1.59078 0
M  V30 4739 C 451.105 1.28579 -3.15722 0
M  V30 4740 H 452.298 -0.511086 -2.95513 0
M  V30 4741 H 449.851 -0.303248 -1.5333 0
M  V30 4742 H 450.586 2.0259 -2.53235 0
M  V30 4743 H 450.371 0.820229 -3.83425 0
M  V30 4744 H 451.861 1.80793 -3.76435 0
M  V30 4745 N 452.299 1.55045 -0.282633 0
M  V30 4746 C 453.247 2.24254 0.617478 0
M  V30 4747 C 454.241 1.24215 1.15183 0
M  V30 4748 O 455.447 1.42123 1.10459 0
M  V30 4749 H 451.822 0.719801 0.217693 0
M  V30 4750 H 453.793 2.98398 0.0110076 0
M  V30 4751 C 452.542 2.98281 1.78672 0
M  V30 4752 H 451.865 3.75053 1.38475 0
M  V30 4753 H 453.305 3.50017 2.393 0
M  V30 4754 C 451.764 2.04184 2.67975 0
M  V30 4755 O 452.294 1.59792 3.6855 0
M  V30 4756 N 450.5 1.70526 2.35307 0
M  V30 4757 H 450.047 2.06821 1.53567 0
M  V30 4758 H 450.005 1.07839 2.95327 0
M  V30 4759 N 453.777 0.010035 1.57597 0
M  V30 4760 C 455.023 -0.673697 1.91283 0
M  V30 4761 C 455.356 -1.72863 0.884979 0
M  V30 4762 O 454.631 -1.94268 -0.0949487 0
M  V30 4763 C 454.914 -1.30766 3.35518 0
M  V30 4764 C 454.767 -0.263578 4.49027 0
M  V30 4765 C 456.086 -2.23105 3.79358 0
M  V30 4766 H 453.205 -0.243439 0.695634 0
M  V30 4767 H 455.847 0.0633864 1.89894 0
M  V30 4768 H 453.997 -1.93588 3.36832 0
M  V30 4769 H 455.669 0.365738 4.59848 0
M  V30 4770 H 453.912 0.413077 4.31829 0
M  V30 4771 H 454.583 -0.746398 5.4693 0
M  V30 4772 H 457.059 -1.70289 3.79659 0
M  V30 4773 H 455.935 -2.64424 4.81011 0
M  V30 4774 H 456.196 -3.11433 3.13787 0
M  V30 4775 N 455.255 -1.55392 -0.262866 0
M  V30 4776 C 456.188 -1.8391 -1.35101 0
M  V30 4777 C 457.166 -0.692901 -1.47097 0
M  V30 4778 O 458.35 -0.936979 -1.63563 0
M  V30 4779 C 455.477 -2.00969 -2.72634 0
M  V30 4780 C 454.523 -3.23559 -2.7787 0
M  V30 4781 S 455.356 -4.80647 -2.3609 0
M  V30 4782 C 456.512 -5.00692 -3.75578 0
M  V30 4783 H 456.745 -2.75918 -1.1071 0
M  V30 4784 H 454.278 -1.47294 -0.463029 0
M  V30 4785 H 456.236 -2.11482 -3.51832 0
M  V30 4786 H 454.897 -1.09832 -2.94272 0
M  V30 4787 H 454.09 -3.32413 -3.78837 0
M  V30 4788 H 453.692 -3.11689 -2.06702 0
M  V30 4789 H 455.984 -4.87055 -4.70939 0
M  V30 4790 H 456.927 -6.02717 -3.71669 0
M  V30 4791 H 457.335 -4.28619 -3.6735 0
M  V30 4792 N 456.733 0.527833 -1.48498 0
M  V30 4793 C 457.68 1.6322 -1.6318 0
M  V30 4794 C 458.65 1.59199 -0.473815 0
M  V30 4795 O 459.835 1.77591 -0.697563 0
M  V30 4796 C 456.975 3.01474 -1.67951 0
M  V30 4797 C 456.088 3.15713 -2.94871 0
M  V30 4798 C 455.223 4.44539 -2.90789 0
M  V30 4799 C 454.262 4.52315 -4.12404 0
M  V30 4800 N 453.399 5.72533 -4.06387 0
M  V30 4801 H 458.239 1.50011 -2.57489 0
M  V30 4802 H 455.776 0.730298 -1.27691 0
M  V30 4803 H 457.734 3.81572 -1.68698 0
M  V30 4804 H 456.364 3.1345 -0.771306 0
M  V30 4805 H 455.416 2.28854 -3.03859 0
M  V30 4806 H 456.728 3.1732 -3.8485 0
M  V30 4807 H 455.882 5.3293 -2.89949 0
M  V30 4808 H 454.621 4.45457 -1.98542 0
M  V30 4809 H 453.626 3.62331 -4.13517 0
M  V30 4810 H 454.851 4.53134 -5.05812 0
M  V30 4811 H 452.797 5.74344 -3.16962 0
M  V30 4812 H 452.714 5.75643 -4.90073 0
M  V30 4813 H 453.982 6.63204 -4.0961 0
M  V30 4814 N 458.211 1.37122 0.776871 0
M  V30 4815 C 459.439 1.3523 1.5659 0
M  V30 4816 C 459.854 -0.0635518 1.88693 0
M  V30 4817 O 459.211 -1.02394 1.51069 0
M  V30 4818 C 459.262 2.18583 2.8793 0
M  V30 4819 O 458.983 3.5465 2.57206 0
M  V30 4820 C 460.484 2.24612 3.82183 0
M  V30 4821 H 457.704 0.4634 0.485285 0
M  V30 4822 H 460.248 1.80392 0.963266 0
M  V30 4823 H 458.403 1.76943 3.4463 0
M  V30 4824 H 458.817 3.98286 3.41275 0
M  V30 4825 H 460.291 2.87267 4.71361 0
M  V30 4826 H 460.768 1.25309 4.20944 0
M  V30 4827 H 461.374 2.66543 3.31414 0
M  V30 4828 N 459.689 -1.00246 1.21608 0
M  V30 4829 C 460.619 -2.10921 1.00172 0
M  V30 4830 C 461.6 -1.69938 -0.0741587 0
M  V30 4831 O 462.785 -1.94009 0.0861753 0
M  V30 4832 C 459.915 -3.42618 0.568355 0
M  V30 4833 C 458.869 -3.97407 1.58909 0
M  V30 4834 C 458.195 -5.25038 1.01187 0
M  V30 4835 C 459.495 -4.2918 2.97661 0
M  V30 4836 H 461.189 -2.29112 1.92739 0
M  V30 4837 H 458.735 -1.10101 0.928102 0
M  V30 4838 H 460.688 -4.19444 0.405555 0
M  V30 4839 H 459.412 -3.24227 -0.392961 0
M  V30 4840 H 458.071 -3.22703 1.73949 0
M  V30 4841 H 457.719 -5.02982 0.0421965 0
M  V30 4842 H 457.419 -5.62661 1.6937 0
M  V30 4843 H 458.943 -6.04507 0.860448 0
M  V30 4844 H 460.357 -4.96839 2.86049 0
M  V30 4845 H 458.754 -4.77952 3.6288 0
M  V30 4846 H 459.824 -3.3735 3.48315 0
M  V30 4847 N 461.167 -1.02423 -1.1978 0
M  V30 4848 C 462.099 -0.559152 -2.22275 0
M  V30 4849 C 463.112 0.36251 -1.58713 0
M  V30 4850 O 464.301 0.159641 -1.77785 0
M  V30 4851 C 461.401 0.205094 -3.38279 0
M  V30 4852 C 460.574 -0.720361 -4.31427 0
M  V30 4853 C 459.633 -0.00234368 -5.262 0
M  V30 4854 O 458.659 -0.627378 -5.65732 0
M  V30 4855 N 459.861 1.26996 -5.66438 0
M  V30 4856 H 462.626 -1.44064 -2.62804 0
M  V30 4857 H 460.187 -0.902692 -1.34399 0
M  V30 4858 H 462.179 0.694868 -3.9869 0
M  V30 4859 H 460.749 0.987947 -2.96578 0
M  V30 4860 H 459.969 -1.39031 -3.68869 0
M  V30 4861 H 461.257 -1.3495 -4.90577 0
M  V30 4862 H 460.655 1.79858 -5.36347 0
M  V30 4863 H 459.212 1.70432 -6.29123 0
M  V30 4864 N 462.645 1.35699 -0.801477 0
M  V30 4865 C 463.595 2.2728 -0.181073 0
M  V30 4866 C 464.579 1.47533 0.642098 0
M  V30 4867 O 465.771 1.69785 0.500193 0
M  V30 4868 C 462.9 3.36626 0.673612 0
M  V30 4869 C 461.986 4.23802 -0.159008 0
M  V30 4870 N 462.377 4.90879 -1.2195 0
M  V30 4871 C 460.675 4.45959 0.0602005 0
M  V30 4872 C 461.376 5.5546 -1.72738 0
M  V30 4873 N 460.352 5.33663 -1.03465 0
M  V30 4874 H 464.154 2.76632 -0.992582 0
M  V30 4875 H 461.668 1.49166 -0.642127 0
M  V30 4876 H 463.665 4.01179 1.13408 0
M  V30 4877 H 462.325 2.88828 1.48353 0
M  V30 4878 H 463.336 4.92497 -1.60209 0
M  V30 4879 H 460.013 4.08969 0.839664 0
M  V30 4880 H 461.403 6.18991 -2.61342 0
M  V30 4881 N 464.123 0.554532 1.47522 0
M  V30 4882 C 465.4 -0.0360704 1.95567 0
M  V30 4883 C 465.78 -1.48828 1.49711 0
M  V30 4884 O 465.128 -2.16366 0.734717 0
M  V30 4885 C 465.338 0.106631 3.48837 0
M  V30 4886 C 466.686 -0.0400899 4.24581 0
M  V30 4887 O 467.71 0.0340453 3.56184 0
M  V30 4888 O 466.569 -0.199111 5.46137 0
M  V30 4889 H 463.663 -0.0656294 0.824392 0
M  V30 4890 H 466.209 0.620867 1.57935 0
M  V30 4891 H 464.981 1.11727 3.7501 0
M  V30 4892 H 464.604 -0.58804 3.93227 0
M  V30 4893 N 465.601 -1.54893 0.290851 0
M  V30 4894 C 466.548 -2.23138 -0.58974 0
M  V30 4895 C 467.518 -1.21036 -1.13752 0
M  V30 4896 O 468.703 -1.49626 -1.18392 0
M  V30 4897 C 465.843 -2.96811 -1.76061 0
M  V30 4898 C 464.956 -4.13665 -1.24519 0
M  V30 4899 C 464.091 -4.74944 -2.3791 0
M  V30 4900 C 463.13 -5.83963 -1.83451 0
M  V30 4901 N 462.267 -6.39239 -2.90376 0
M  V30 4902 H 467.107 -2.98 -0.00114915 0
M  V30 4903 H 464.644 -1.47096 0.0112006 0
M  V30 4904 H 466.602 -3.37751 -2.44909 0
M  V30 4905 H 465.232 -2.24344 -2.32098 0
M  V30 4906 H 464.284 -3.77737 -0.449288 0
M  V30 4907 H 465.596 -4.92238 -0.806424 0
M  V30 4908 H 464.75 -5.18684 -3.14724 0
M  V30 4909 H 463.489 -3.95682 -2.85109 0
M  V30 4910 H 462.494 -5.39657 -1.05122 0
M  V30 4911 H 463.719 -6.65103 -1.37169 0
M  V30 4912 H 461.665 -5.62864 -3.36927 0
M  V30 4913 H 461.582 -7.13129 -2.50965 0
M  V30 4914 H 462.85 -6.87637 -3.67118 0
M  V30 4915 N 467.08 -0.0183926 -1.57589 0
M  V30 4916 C 468.01 0.965596 -2.12599 0
M  V30 4917 C 468.991 1.34641 -1.0395 0
M  V30 4918 O 470.176 1.42693 -1.31729 0
M  V30 4919 C 467.306 2.25149 -2.64434 0
M  V30 4920 C 466.26 2.01175 -3.77773 0
M  V30 4921 C 465.586 3.35937 -4.15994 0
M  V30 4922 C 466.886 1.35953 -5.04296 0
M  V30 4923 H 468.58 0.507504 -2.95067 0
M  V30 4924 H 466.126 0.242671 -1.41941 0
M  V30 4925 H 468.079 2.94357 -3.01549 0
M  V30 4926 H 466.803 2.73105 -1.79112 0
M  V30 4927 H 465.462 1.34388 -3.4108 0
M  V30 4928 H 465.11 3.81631 -3.27669 0
M  V30 4929 H 464.81 3.20705 -4.92364 0
M  V30 4930 H 466.334 4.0643 -4.55683 0
M  V30 4931 H 467.748 1.95144 -5.39065 0
M  V30 4932 H 466.145 1.31152 -5.85593 0
M  V30 4933 H 467.215 0.331071 -4.83768 0
M  V30 4934 N 468.558 1.5553 0.254621 0
M  V30 4935 C 469.804 1.77262 0.985193 0
M  V30 4936 C 470.137 0.582286 1.85265 0
M  V30 4937 O 469.412 -0.419666 1.89919 0
M  V30 4938 C 469.695 3.0881 1.85225 0
M  V30 4939 C 469.548 4.38233 1.0135 0
M  V30 4940 C 470.867 3.3653 2.83612 0
M  V30 4941 H 467.986 0.644906 0.356742 0
M  V30 4942 H 470.628 1.88264 0.256236 0
M  V30 4943 H 468.778 2.99562 2.47376 0
M  V30 4944 H 470.45 4.59463 0.411269 0
M  V30 4945 H 468.693 4.32636 0.317574 0
M  V30 4946 H 469.364 5.26644 1.65379 0
M  V30 4947 H 471.84 3.45691 2.31596 0
M  V30 4948 H 470.716 4.29805 3.41407 0
M  V30 4949 H 470.977 2.57064 3.59681 0
M  V30 4950 N 470.036 -0.519951 1.48776 0
M  V30 4951 C 470.983 -1.62352 1.64044 0
M  V30 4952 C 471.953 -1.58945 0.482251 0
M  V30 4953 O 473.138 -1.77219 0.706971 0
M  V30 4954 C 470.278 -3.00579 1.69547 0
M  V30 4955 C 469.391 -3.14145 2.96541 0
M  V30 4956 C 468.526 -4.42991 2.93142 0
M  V30 4957 C 467.565 -4.50122 4.14797 0
M  V30 4958 N 466.702 -5.7037 4.09418 0
M  V30 4959 H 471.542 -1.48643 2.58281 0
M  V30 4960 H 469.079 -0.723516 1.28077 0
M  V30 4961 H 471.037 -3.80671 1.70719 0
M  V30 4962 H 469.667 -3.13036 0.787918 0
M  V30 4963 H 468.719 -2.27239 3.05068 0
M  V30 4964 H 470.031 -3.15275 3.86527 0
M  V30 4965 H 469.185 -5.31385 2.92772 0
M  V30 4966 H 467.924 -4.44398 2.00902 0
M  V30 4967 H 466.929 -3.60133 4.15433 0
M  V30 4968 H 468.154 -4.50445 5.08208 0
M  V30 4969 H 466.1 -5.72655 3.20004 0
M  V30 4970 H 466.017 -5.73036 4.93119 0
M  V30 4971 H 467.285 -6.61023 4.13121 0
M  V30 4972 N 471.514 -1.37532 -0.769588 0
M  V30 4973 C 472.444 -1.36172 -1.89682 0
M  V30 4974 C 473.425 -0.23001 -1.68538 0
M  V30 4975 O 474.61 -0.43069 -1.89364 0
M  V30 4976 C 471.74 -1.1701 -3.26995 0
M  V30 4977 C 470.694 -2.27216 -3.62708 0
M  V30 4978 C 470.02 -1.93174 -4.98586 0
M  V30 4979 C 471.32 -3.6941 -3.69234 0
M  V30 4980 H 473.014 -2.30499 -1.91078 0
M  V30 4981 H 470.56 -1.10953 -0.917902 0
M  V30 4982 H 472.513 -1.14688 -4.05493 0
M  V30 4983 H 471.237 -0.191395 -3.26039 0
M  V30 4984 H 469.896 -2.28697 -2.86519 0
M  V30 4985 H 469.544 -0.938281 -4.94171 0
M  V30 4986 H 469.244 -2.66973 -5.23449 0
M  V30 4987 H 470.768 -1.92443 -5.79481 0
M  V30 4988 H 472.182 -3.70047 -4.37879 0
M  V30 4989 H 470.579 -4.4228 -4.05597 0
M  V30 4990 H 471.649 -4.0288 -2.69844 0
M  V30 4991 N 472.992 0.995999 -1.22138 0
M  V30 4992 C 473.942 2.06988 -0.956042 0
M  V30 4993 C 474.926 1.60636 0.0921576 0
M  V30 4994 O 476.118 1.76607 -0.117958 0
M  V30 4995 C 473.247 3.39148 -0.532335 0
M  V30 4996 C 472.333 3.92142 -1.61509 0
M  V30 4997 N 472.724 4.18397 -2.84214 0
M  V30 4998 C 471.022 4.20514 -1.48606 0
M  V30 4999 C 471.723 4.61425 -3.54206 0
M  V30 5000 N 470.699 4.64934 -2.81669 0
M  V30 5001 H 474.501 2.25223 -1.88816 0
M  V30 5002 H 472.015 1.17748 -1.11845 0
M  V30 5003 H 474.012 4.15642 -0.323574 0
M  V30 5004 H 472.672 3.22314 0.392921 0
M  V30 5005 H 473.683 4.06682 -3.20671 0
M  V30 5006 H 470.36 4.12769 -0.626762 0
M  V30 5007 H 471.75 4.90387 -4.59315 0
M  V30 5008 N 474.47 1.03057 1.19235 0
M  V30 5009 C 475.433 0.617418 2.20727 0
M  V30 5010 C 476.433 -0.319856 1.57587 0
M  V30 5011 O 477.623 -0.106633 1.73873 0
M  V30 5012 C 474.755 -0.096296 3.40764 0
M  V30 5013 H 475.948 1.51544 2.58794 0
M  V30 5014 H 473.501 0.821949 1.32942 0
M  V30 5015 H 474.236 -1.00859 3.08217 0
M  V30 5016 H 474.021 0.577217 3.87828 0
M  V30 5017 H 475.511 -0.372219 4.15938 0
M  V30 5018 N 475.948 -1.35272 0.808662 0
M  V30 5019 C 477.194 -1.99003 0.390581 0
M  V30 5020 C 477.527 -1.63999 -1.0401 0
M  V30 5021 O 476.802 -0.904368 -1.72196 0
M  V30 5022 C 477.085 -3.55454 0.576566 0
M  V30 5023 C 476.938 -4.00249 2.05233 0
M  V30 5024 C 478.257 -4.401 0.00354277 0
M  V30 5025 H 475.376 -0.722917 0.143388 0
M  V30 5026 H 478.018 -1.6039 1.01858 0
M  V30 5027 H 476.168 -3.88477 0.0419766 0
M  V30 5028 H 477.84 -3.77626 2.64946 0
M  V30 5029 H 476.083 -3.51082 2.54801 0
M  V30 5030 H 476.754 -5.0911 2.13333 0
M  V30 5031 H 479.23 -4.13548 0.460117 0
M  V30 5032 H 478.106 -5.48656 0.163575 0
M  V30 5033 H 478.367 -4.28444 -1.09032 0
M  V30 5034 N 477.426 -0.562348 -1.47226 0
M  V30 5035 C 478.672 -0.0402761 -2.0276 0
M  V30 5036 C 479.005 1.30823 -1.43523 0
M  V30 5037 O 478.28 1.85249 -0.592705 0
M  V30 5038 C 478.563 0.047311 -3.60069 0
M  V30 5039 C 478.416 -1.32865 -4.29729 0
M  V30 5040 C 479.735 0.758182 -4.3352 0
M  V30 5041 H 476.854 -0.0161105 -0.736824 0
M  V30 5042 H 479.496 -0.725628 -1.75598 0
M  V30 5043 H 477.646 0.630986 -3.83342 0
M  V30 5044 H 479.318 -1.95593 -4.17781 0
M  V30 5045 H 477.561 -1.90195 -3.89882 0
M  V30 5046 H 478.232 -1.22004 -5.38349 0
M  V30 5047 H 480.708 0.262546 -4.15271 0
M  V30 5048 H 479.584 0.78844 -5.43208 0
M  V30 5049 H 479.845 1.81537 -4.03109 0
M  V30 5050 N 478.904 1.54736 -0.299062 0
M  V30 5051 C 480.132 2.04512 0.313447 0
M  V30 5052 C 480.547 1.17643 1.47667 0
M  V30 5053 O 479.904 0.20164 1.81383 0
M  V30 5054 C 479.955 3.53171 0.771542 0
M  V30 5055 O 479.676 4.36736 -0.345379 0
M  V30 5056 C 481.177 4.18936 1.4494 0
M  V30 5057 H 478.397 0.667507 0.0683784 0
M  V30 5058 H 480.941 1.99752 -0.438129 0
M  V30 5059 H 479.096 3.58298 1.47314 0
M  V30 5060 H 479.51 5.24499 0.0109219 0
M  V30 5061 H 480.984 5.24482 1.72111 0
M  V30 5062 H 481.461 3.68554 2.38883 0
M  V30 5063 H 482.067 4.17879 0.791028 0
M  V30 5064 N 480.382 0.0267497 1.57577 0
M  V30 5065 C 481.329 -0.955894 2.10075 0
M  V30 5066 C 482.299 -1.32453 1.00226 0
M  V30 5067 O 483.484 -1.41826 1.27632 0
M  V30 5068 C 480.624 -2.2338 2.6305 0
M  V30 5069 C 479.737 -1.92183 3.86898 0
M  V30 5070 C 478.872 -3.14251 4.28275 0
M  V30 5071 C 477.911 -2.78862 5.44888 0
M  V30 5072 N 477.048 -3.93548 5.81433 0
M  V30 5073 H 481.888 -0.501303 2.93753 0
M  V30 5074 H 479.425 -0.235847 1.45197 0
M  V30 5075 H 481.383 -2.98124 2.91853 0
M  V30 5076 H 480.013 -2.6646 1.82205 0
M  V30 5077 H 479.065 -1.07692 3.64838 0
M  V30 5078 H 480.377 -1.62117 4.7172 0
M  V30 5079 H 479.531 -3.97317 4.58502 0
M  V30 5080 H 478.27 -3.47476 3.42215 0
M  V30 5081 H 477.275 -1.94208 5.14357 0
M  V30 5082 H 478.5 -2.46855 6.32645 0
M  V30 5083 H 476.446 -4.2662 4.98328 0
M  V30 5084 H 476.363 -3.67098 6.6089 0
M  V30 5085 H 477.631 -4.77325 6.16264 0
M  V30 5086 N 481.861 -1.55662 -0.24637 0
M  V30 5087 C 482.771 -1.93495 -1.32653 0
M  V30 5088 C 483.787 -0.835462 -1.5263 0
M  V30 5089 O 484.963 -1.1369 -1.66242 0
M  V30 5090 C 482.028 -2.22242 -2.66101 0
M  V30 5091 C 481.089 -3.45625 -2.54641 0
M  V30 5092 C 480.322 -3.72991 -3.81724 0
M  V30 5093 O 480.545 -3.02421 -4.8363 0
M  V30 5094 O 479.479 -4.66515 -3.80325 0
M  V30 5095 H 483.305 -2.85498 -1.03559 0
M  V30 5096 H 480.89 -1.42551 -0.44717 0
M  V30 5097 H 482.772 -2.42037 -3.44958 0
M  V30 5098 H 481.447 -1.33417 -2.94926 0
M  V30 5099 H 480.354 -3.31136 -1.74067 0
M  V30 5100 H 481.687 -4.34754 -2.3076 0
M  V30 5101 N 483.339 0.512053 -1.4905 0
M  V30 5102 C 484.75 1.09376 -1.51307 0
M  V30 5103 C 485.101 1.94 -0.292971 0
M  V30 5104 O 484.226 2.07965 0.598277 0
M  V30 5105 C 484.821 1.99031 -2.74176 0
M  V30 5106 C 483.38 2.52385 -2.79247 0
M  V30 5107 C 482.527 1.29749 -2.45073 0
M  V30 5108 H 485.478 0.296467 -1.55906 0
M  V30 5109 H 485.499 2.83569 -2.53711 0
M  V30 5110 H 485.011 1.37412 -3.62959 0
M  V30 5111 H 483.112 3.17673 -1.94716 0
M  V30 5112 H 483.225 2.90293 -3.81139 0
M  V30 5113 H 481.589 1.61912 -1.96612 0
M  V30 5114 H 482.372 0.698555 -3.36118 0
M  V30 5115 N 484.817 1.37938 0.762283 0
M  V30 5116 C 486.066 1.32989 1.51647 0
M  V30 5117 C 486.379 -0.0802922 1.95435 0
M  V30 5118 O 487.585 -0.252295 2.70325 0
M  V30 5119 C 486.041 2.33485 2.73885 0
M  V30 5120 C 485.649 3.80079 2.37157 0
M  V30 5121 C 487.393 2.37563 3.51801 0
M  V30 5122 C 485.3 4.72283 3.55954 0
M  V30 5123 H 484.23 0.494301 0.56937 0
M  V30 5124 H 486.881 1.63448 0.834083 0
M  V30 5125 H 485.263 1.96056 3.44061 0
M  V30 5126 H 486.437 4.26398 1.74704 0
M  V30 5127 H 484.752 3.79037 1.72395 0
M  V30 5128 H 487.349 3.0365 4.40114 0
M  V30 5129 H 487.692 1.39199 3.92338 0
M  V30 5130 H 488.225 2.73747 2.8863 0
M  V30 5131 H 484.964 5.7181 3.2049 0
M  V30 5132 H 484.484 4.30663 4.1748 0
M  V30 5133 H 486.163 4.89876 4.22647 0
M  V30 5134 N 486.295 -0.989507 1.22664 0
M  V30 5135 C 487.525 -1.7624 1.0781 0
M  V30 5136 C 487.933 -1.85466 -0.374036 0
M  V30 5137 O 487.276 -1.32645 -1.27087 0
M  V30 5138 C 487.338 -3.21007 1.61849 0
M  V30 5139 C 487.002 -3.35316 3.10503 0
M  V30 5140 C 487.999 -3.22362 4.07896 0
M  V30 5141 C 485.684 -3.60258 3.50028 0
M  V30 5142 C 487.678 -3.34139 5.42798 0
M  V30 5143 C 485.365 -3.71676 4.85078 0
M  V30 5144 C 486.363 -3.58625 5.81272 0
M  V30 5145 O 486.051 -3.69655 7.1387 0
M  V30 5146 H 485.783 -0.560209 0.378341 0
M  V30 5147 H 488.337 -1.25252 1.62792 0
M  V30 5148 H 486.567 -3.73202 1.01279 0
M  V30 5149 H 488.256 -3.80024 1.42606 0
M  V30 5150 H 489.022 -3.03 3.78703 0
M  V30 5151 H 484.901 -3.69492 2.75675 0
M  V30 5152 H 488.445 -3.23869 6.17863 0
M  V30 5153 H 484.342 -3.90545 5.1395 0
M  V30 5154 H 485.11 -3.86507 7.21495 0
M  V30 5155 N 487.773 -1.03688 -1.18687 0
M  V30 5156 C 489.022 -0.733235 -1.879 0
M  V30 5157 C 489.335 0.741745 -1.8099 0
M  V30 5158 O 490.541 1.15875 -2.4553 0
M  V30 5159 C 488.997 -1.26127 -3.37076 0
M  V30 5160 C 488.605 -2.76461 -3.52524 0
M  V30 5161 C 490.349 -1.03398 -4.11715 0
M  V30 5162 C 488.256 -3.22642 -4.95637 0
M  V30 5163 H 487.186 -0.270584 -0.703776 0
M  V30 5164 H 489.837 -1.25222 -1.34133 0
M  V30 5165 H 488.219 -0.670165 -3.90288 0
M  V30 5166 H 489.393 -3.41296 -3.09602 0
M  V30 5167 H 487.708 -2.97559 -2.91286 0
M  V30 5168 H 490.305 -1.3542 -5.17267 0
M  V30 5169 H 490.648 0.0289246 -4.1629 0
M  V30 5170 H 491.181 -1.5895 -3.64664 0
M  V30 5171 H 487.92 -4.28296 -4.96228 0
M  V30 5172 H 487.44 -2.62539 -5.39289 0
M  V30 5173 H 489.119 -3.16444 -5.64333 0
M  V30 5174 N 489.251 1.34841 -0.815825 0
M  V30 5175 C 490.5 1.97755 -0.396976 0
M  V30 5176 C 490.813 1.65422 1.04379 0
M  V30 5177 O 492.019 2.21771 1.5662 0
M  V30 5178 C 490.475 3.53818 -0.658869 0
M  V30 5179 C 490.083 3.95051 -2.11278 0
M  V30 5180 C 491.827 4.23397 -0.305834 0
M  V30 5181 C 489.734 5.43997 -2.31994 0
M  V30 5182 H 488.664 0.739985 -0.1447 0
M  V30 5183 H 491.315 1.53781 -1.00118 0
M  V30 5184 H 489.697 3.95997 0.0154112 0
M  V30 5185 H 490.871 3.63998 -2.82564 0
M  V30 5186 H 489.186 3.38388 -2.42657 0
M  V30 5187 H 491.783 5.32899 -0.43854 0
M  V30 5188 H 492.126 4.09508 0.748952 0
M  V30 5189 H 492.659 3.8667 -0.934403 0
M  V30 5190 H 489.398 5.62865 -3.35952 0
M  V30 5191 H 488.918 5.76589 -1.65244 0
M  V30 5192 H 490.597 6.10584 -2.14001 0
M  V30 5193 N 490.729 0.570148 1.46925 0
M  V30 5194 C 491.957 0.0561966 2.06824 0
M  V30 5195 C 492.372 -1.24326 1.42086 0
M  V30 5196 O 491.729 -1.74882 0.521794 0
M  V30 5197 C 491.78 -0.129517 3.61268 0
M  V30 5198 O 491.501 1.1185 4.23581 0
M  V30 5199 C 493.002 -0.679266 4.38065 0
M  V30 5200 H 490.222 0.0517261 0.669003 0
M  V30 5201 H 492.766 0.787243 1.8874 0
M  V30 5202 H 490.921 -0.810739 3.78822 0
M  V30 5203 H 491.335 0.924375 5.1629 0
M  V30 5204 H 492.809 -0.758445 5.46765 0
M  V30 5205 H 493.286 -1.69346 4.05239 0
M  V30 5206 H 493.892 -0.0333237 4.25287 0
M  V30 5207 N 492.207 -1.54576 0.307264 0
M  V30 5208 C 493.117 -2.27435 -0.57536 0
M  V30 5209 C 494.133 -1.31183 -1.14311 0
M  V30 5210 O 495.309 -1.64175 -1.16656 0
M  V30 5211 C 492.374 -3.00566 -1.72803 0
M  V30 5212 C 491.435 -4.12369 -1.19373 0
M  V30 5213 C 490.668 -4.82003 -2.29147 0
M  V30 5214 O 490.891 -4.51038 -3.49171 0
M  V30 5215 O 489.825 -5.69271 -1.95485 0
M  V30 5216 H 493.651 -3.03696 0.0158558 0
M  V30 5217 H 491.236 -1.49219 0.0735064 0
M  V30 5218 H 493.118 -3.46416 -2.39946 0
M  V30 5219 H 491.793 -2.27195 -2.30574 0
M  V30 5220 H 490.7 -3.70905 -0.487851 0
M  V30 5221 H 492.033 -4.87736 -0.661376 0
M  V30 5222 N 493.685 -0.035106 -1.57561 0
M  V30 5223 C 494.932 0.642229 -1.92046 0
M  V30 5224 C 495.26 1.7179 -0.91206 0
M  V30 5225 O 494.515 1.95544 0.0781153 0
M  V30 5226 C 494.814 1.29149 -3.3325 0
M  V30 5227 C 494.48 0.345604 -4.49574 0
M  V30 5228 C 493.142 0.0852775 -4.81124 0
M  V30 5229 C 495.494 -0.303569 -5.20315 0
M  V30 5230 C 492.822 -0.831927 -5.80772 0
M  V30 5231 C 495.174 -1.20886 -6.20942 0
M  V30 5232 C 493.838 -1.47802 -6.50931 0
M  V30 5233 H 493.108 0.235008 -0.702746 0
M  V30 5234 H 495.755 -0.0981529 -1.91248 0
M  V30 5235 H 494.06 2.10676 -3.30337 0
M  V30 5236 H 495.757 1.82223 -3.57205 0
M  V30 5237 H 492.347 0.558683 -4.24943 0
M  V30 5238 H 496.531 -0.115515 -4.96166 0
M  V30 5239 H 491.787 -1.0481 -6.02349 0
M  V30 5240 H 495.961 -1.71804 -6.74875 0
M  V30 5241 H 493.588 -2.19039 -7.2796 0
M  V30 5242 N 495.163 1.55791 0.238111 0
M  V30 5243 C 496.096 1.86036 1.32158 0
M  V30 5244 C 497.074 0.716216 1.45976 0
M  V30 5245 O 498.258 0.962882 1.62052 0
M  V30 5246 C 495.385 2.05281 2.69402 0
M  V30 5247 C 494.431 3.27939 2.72687 0
M  V30 5248 S 495.264 4.84342 2.28413 0
M  V30 5249 C 496.42 5.06604 3.67565 0
M  V30 5250 H 496.653 2.77644 1.06306 0
M  V30 5251 H 494.186 1.48012 0.439537 0
M  V30 5252 H 496.144 2.17053 3.48423 0
M  V30 5253 H 494.805 1.14499 2.92487 0
M  V30 5254 H 493.998 3.38398 3.73501 0
M  V30 5255 H 493.6 3.14938 2.01717 0
M  V30 5256 H 495.892 4.94486 4.6313 0
M  V30 5257 H 496.835 6.08554 3.62033 0
M  V30 5258 H 497.243 4.34409 3.60485 0
M  V30 5259 N 496.642 -0.504142 1.49319 0
M  V30 5260 C 497.605 -1.5883 1.65244 0
M  V30 5261 C 498.605 -1.52009 0.524386 0
M  V30 5262 O 499.795 -1.55218 0.79077 0
M  V30 5263 C 496.927 -2.98481 1.64687 0
M  V30 5264 H 498.12 -1.4604 2.61939 0
M  V30 5265 H 495.673 -0.728144 1.38303 0
M  V30 5266 H 496.408 -3.16751 0.695644 0
M  V30 5267 H 496.193 -3.0484 2.46607 0
M  V30 5268 H 497.683 -3.77256 1.79075 0
M  V30 5269 N 498.12 -1.38341 -0.754957 0
M  V30 5270 C 499.067 -1.3546 -1.86867 0
M  V30 5271 C 500.037 -0.217369 -1.64672 0
M  V30 5272 O 501.222 -0.409383 -1.86356 0
M  V30 5273 C 498.362 -1.18413 -3.24149 0
M  V30 5274 C 497.475 -2.41511 -3.58185 0
M  V30 5275 C 496.61 -2.17205 -4.84763 0
M  V30 5276 C 495.649 -3.36081 -5.11582 0
M  V30 5277 N 494.786 -3.11219 -6.29354 0
M  V30 5278 H 499.626 -2.30672 -1.88664 0
M  V30 5279 H 497.163 -1.14607 -0.922154 0
M  V30 5280 H 499.121 -1.06545 -4.03366 0
M  V30 5281 H 497.751 -0.268397 -3.21682 0
M  V30 5282 H 496.803 -2.64056 -2.73822 0
M  V30 5283 H 498.115 -3.30115 -3.73932 0
M  V30 5284 H 497.269 -2.02465 -5.7192 0
M  V30 5285 H 496.008 -1.25964 -4.71152 0
M  V30 5286 H 495.013 -3.51341 -4.22894 0
M  V30 5287 H 496.238 -4.28196 -5.27091 0
M  V30 5288 H 494.184 -2.22624 -6.17069 0
M  V30 5289 H 494.101 -3.93373 -6.45596 0
M  V30 5290 H 495.369 -3.00132 -7.19403 0
M  V30 5291 N 499.598 0.982988 -1.23187 0
M  V30 5292 C 500.846 1.72052 -1.06031 0
M  V30 5293 C 501.167 1.90769 0.404019 0
M  V30 5294 O 500.437 1.47446 1.28982 0
M  V30 5295 H 499.017 0.637499 -0.389363 0
M  V30 5296 H 501.679 1.18338 -1.54862 0
M  V30 5297 H 500.775 2.7111 -1.54615 0
M  V30 5298 N 501.076 1.04316 1.18135 0
M  V30 5299 C 502.301 0.768047 1.92655 0
M  V30 5300 C 502.726 -0.66904 1.758 0
M  V30 5301 O 502.084 -1.46372 1.06981 0
M  V30 5302 C 502.132 1.14239 3.42026 0
M  V30 5303 O 501.236 0.269333 4.1152 0
M  V30 5304 H 500.577 0.282436 0.600937 0
M  V30 5305 H 503.107 1.39367 1.49793 0
M  V30 5306 H 503.117 1.10538 3.92741 0
M  V30 5307 H 501.792 2.18928 3.53615 0
M  V30 5308 H 500.369 0.366175 3.71098 0
M  V30 5309 N 502.554 -1.34406 0.822964 0
M  V30 5310 C 503.484 -2.32052 0.259608 0
M  V30 5311 C 504.465 -1.58243 -0.623961 0
M  V30 5312 O 505.65 -1.86224 -0.55083 0
M  V30 5313 C 502.78 -3.42434 -0.579314 0
M  V30 5314 C 501.734 -4.27499 0.20712 0
M  V30 5315 C 501.06 -5.29349 -0.754547 0
M  V30 5316 C 502.36 -5.02758 1.41533 0
M  V30 5317 H 504.054 -2.79418 1.07545 0
M  V30 5318 H 501.6 -1.34338 0.518593 0
M  V30 5319 H 503.553 -4.0976 -0.983612 0
M  V30 5320 H 502.277 -2.93717 -1.4282 0
M  V30 5321 H 500.936 -3.61776 0.592787 0
M  V30 5322 H 500.584 -4.76895 -1.59939 0
M  V30 5323 H 500.284 -5.8714 -0.232561 0
M  V30 5324 H 501.808 -5.99544 -1.1567 0
M  V30 5325 H 503.222 -5.62938 1.08504 0
M  V30 5326 H 501.619 -5.70123 1.87296 0
M  V30 5327 H 502.689 -4.32451 2.1935 0
M  V30 5328 N 504.032 -0.577932 -1.46621 0
M  V30 5329 C 504.962 0.145917 -2.33044 0
M  V30 5330 C 505.943 0.888412 -1.45056 0
M  V30 5331 O 507.128 0.864812 -1.73881 0
M  V30 5332 C 504.258 1.16322 -3.27241 0
M  V30 5333 C 503.212 0.535868 -4.24632 0
M  V30 5334 C 502.538 1.65929 -5.08303 0
M  V30 5335 C 503.838 -0.523861 -5.19666 0
M  V30 5336 H 505.532 -0.575636 -2.93814 0
M  V30 5337 H 503.078 -0.278272 -1.41286 0
M  V30 5338 H 505.031 1.67793 -3.86553 0
M  V30 5339 H 503.755 1.91498 -2.64567 0
M  V30 5340 H 502.414 0.0422759 -3.66576 0
M  V30 5341 H 502.062 2.40061 -4.42018 0
M  V30 5342 H 501.762 1.2452 -5.74255 0
M  V30 5343 H 503.286 2.17686 -5.70478 0
M  V30 5344 H 504.7 -0.0944059 -5.73222 0
M  V30 5345 H 503.097 -0.858 -5.93935 0
M  V30 5346 H 504.167 -1.41197 -4.63887 0
M  V30 5347 N 505.51 1.54411 -0.315457 0
M  V30 5348 C 506.787 1.92562 0.343398 0
M  V30 5349 C 507.167 1.24423 1.70535 0
M  V30 5350 O 506.515 0.385051 2.25232 0
M  V30 5351 C 506.725 3.46168 0.443687 0
M  V30 5352 C 508.073 4.18659 0.707783 0
M  V30 5353 O 509.097 3.52281 0.52693 0
M  V30 5354 O 507.956 5.36198 1.05612 0
M  V30 5355 H 505.05 0.80379 0.194552 0
M  V30 5356 H 507.596 1.65738 -0.364577 0
M  V30 5357 H 506.368 3.8792 -0.513172 0
M  V30 5358 H 505.991 3.79073 1.19956 0
M  V30 5359 N 506.988 0.0434614 1.5754 0
M  V30 5360 C 508.235 -0.632035 1.92384 0
M  V30 5361 C 508.563 -1.71304 0.921157 0
M  V30 5362 O 507.818 -1.95583 -0.067744 0
M  V30 5363 C 508.117 -1.2738 3.3393 0
M  V30 5364 C 507.783 -0.321757 4.49751 0
M  V30 5365 C 506.445 -0.0597611 4.81163 0
M  V30 5366 C 508.797 0.331158 5.20147 0
M  V30 5367 C 506.125 0.862715 5.80322 0
M  V30 5368 C 508.477 1.24178 6.20292 0
M  V30 5369 C 507.141 1.51252 6.50138 0
M  V30 5370 H 506.411 -0.231278 0.703983 0
M  V30 5371 H 509.058 0.108294 1.91194 0
M  V30 5372 H 507.363 -2.08921 3.3145 0
M  V30 5373 H 509.06 -1.80326 3.58167 0
M  V30 5374 H 505.65 -0.53614 4.25233 0
M  V30 5375 H 509.834 0.141826 4.96097 0
M  V30 5376 H 505.09 1.08003 6.01785 0
M  V30 5377 H 509.264 1.75381 6.73954 0
M  V30 5378 H 506.891 2.22897 7.26788 0
M  V30 5379 N 508.466 -1.55915 -0.229846 0
M  V30 5380 C 509.396 -1.94754 -1.28815 0
M  V30 5381 C 510.377 -0.814657 -1.49323 0
M  V30 5382 O 511.562 -1.07631 -1.61645 0
M  V30 5383 C 508.692 -2.25705 -2.63959 0
M  V30 5384 C 507.646 -3.41406 -2.5812 0
M  V30 5385 C 506.972 -3.57941 -3.97218 0
M  V30 5386 C 508.272 -4.76616 -2.13623 0
M  V30 5387 H 509.966 -2.83404 -0.965547 0
M  V30 5388 H 507.512 -1.36353 -0.463028 0
M  V30 5389 H 509.465 -2.51467 -3.38146 0
M  V30 5390 H 508.189 -1.339 -2.9789 0
M  V30 5391 H 506.848 -3.1568 -1.86391 0
M  V30 5392 H 506.496 -2.63526 -4.28443 0
M  V30 5393 H 506.196 -4.35757 -3.94195 0
M  V30 5394 H 507.72 -3.86042 -4.73079 0
M  V30 5395 H 509.134 -5.01637 -2.77549 0
M  V30 5396 H 507.531 -5.57655 -2.21677 0
M  V30 5397 H 508.601 -4.7253 -1.08829 0
M  V30 5398 N 509.944 0.496216 -1.49584 0
M  V30 5399 C 510.891 1.59722 -1.66606 0
M  V30 5400 C 511.861 1.58158 -0.507477 0
M  V30 5401 O 513.046 1.76072 -0.735076 0
M  V30 5402 C 510.186 2.97844 -1.74308 0
M  V30 5403 C 509.299 3.09388 -3.01502 0
M  V30 5404 C 508.434 4.38271 -3.00153 0
M  V30 5405 C 507.473 4.43466 -4.21906 0
M  V30 5406 N 506.61 5.63784 -4.1844 0
M  V30 5407 H 511.45 1.44515 -2.60613 0
M  V30 5408 H 508.987 0.703048 -1.29212 0
M  V30 5409 H 510.945 3.77907 -1.76754 0
M  V30 5410 H 509.575 3.11743 -0.837619 0
M  V30 5411 H 508.627 2.22357 -3.08645 0
M  V30 5412 H 509.939 3.09085 -3.91494 0
M  V30 5413 H 509.093 5.2666 -3.01188 0
M  V30 5414 H 507.832 4.41146 -2.07947 0
M  V30 5415 H 506.837 3.53478 -4.21109 0
M  V30 5416 H 508.062 4.42303 -5.1531 0
M  V30 5417 H 506.008 5.67491 -3.29074 0
M  V30 5418 H 505.925 5.65118 -5.02173 0
M  V30 5419 H 507.193 6.54367 -4.23585 0
M  V30 5420 N 511.423 1.38739 0.74761 0
M  V30 5421 C 512.648 1.38702 1.54197 0
M  V30 5422 C 513.073 -0.019664 1.8809 0
M  V30 5423 O 512.431 -1.00333 1.51006 0
M  V30 5424 C 512.479 2.25492 2.814 0
M  V30 5425 O 511.583 1.67613 3.76802 0
M  V30 5426 H 510.924 0.472863 0.466151 0
M  V30 5427 H 513.454 1.82577 0.923413 0
M  V30 5428 H 513.464 2.39561 3.30264 0
M  V30 5429 H 512.139 3.27727 2.56062 0
M  V30 5430 H 510.716 1.62718 3.35526 0
M  V30 5431 N 512.901 -0.976442 1.23707 0
M  V30 5432 C 514.178 -1.69296 0.979699 0
M  V30 5433 C 514.558 -2.0508 -0.500555 0
M  V30 5434 O 513.906 -1.74708 -1.47273 0
M  V30 5435 C 514.116 -2.93143 1.89389 0
M  V30 5436 C 515.464 -3.65572 2.15968 0
M  V30 5437 O 516.488 -3.03184 1.86971 0
M  V30 5438 O 515.347 -4.77859 2.65167 0
M  V30 5439 H 512.441 -0.739708 0.369812 0
M  V30 5440 H 514.987 -1.03131 1.34767 0
M  V30 5441 H 513.759 -2.63327 2.89439 0
M  V30 5442 H 513.382 -3.67044 1.52854 0
M  V30 5443 N 514.379 -1.04941 -1.1758 0
M  V30 5444 C 515.289 -0.658826 -2.25159 0
M  V30 5445 C 516.305 0.318941 -1.71052 0
M  V30 5446 O 517.481 0.171669 -2.00667 0
M  V30 5447 C 514.546 -0.0369522 -3.4668 0
M  V30 5448 C 513.607 -1.06484 -4.15884 0
M  V30 5449 C 512.84 -0.472551 -5.31604 0
M  V30 5450 O 513.063 0.718736 -5.65854 0
M  V30 5451 O 511.997 -1.20557 -5.89703 0
M  V30 5452 H 515.823 -1.55533 -2.60851 0
M  V30 5453 H 513.408 -0.820819 -1.24832 0
M  V30 5454 H 515.29 0.308784 -4.20267 0
M  V30 5455 H 513.965 0.833238 -3.12792 0
M  V30 5456 H 512.872 -1.46253 -3.44327 0
M  V30 5457 H 514.205 -1.9061 -4.53794 0
M  V30 5458 N 515.857 1.33968 -0.830081 0
M  V30 5459 C 517.105 1.97672 -0.420734 0
M  V30 5460 C 517.426 1.66111 1.02138 0
M  V30 5461 O 516.696 0.955503 1.71017 0
M  V30 5462 H 515.276 0.73125 -0.152587 0
M  V30 5463 H 517.938 1.63483 -1.0611 0
M  V30 5464 H 517.034 3.07294 -0.545588 0
M  V30 5465 N 517.335 0.585699 1.46312 0
M  V30 5466 C 518.56 0.0762461 2.0726 0
M  V30 5467 C 518.985 -1.22071 1.43109 0
M  V30 5468 O 518.343 -1.73804 0.515942 0
M  V30 5469 C 518.391 -0.0729404 3.60526 0
M  V30 5470 O 517.495 -1.1287 3.96654 0
M  V30 5471 H 516.836 0.0641558 0.660893 0
M  V30 5472 H 519.366 0.809492 1.87905 0
M  V30 5473 H 519.376 -0.278158 4.07051 0
M  V30 5474 H 518.051 0.874188 4.06609 0
M  V30 5475 H 516.628 -0.901703 3.61834 0
M  V30 5476 N 518.813 -1.54241 0.323641 0
M  V30 5477 C 519.76 -2.24339 -0.542277 0
M  V30 5478 C 520.73 -1.23421 -1.11159 0
M  V30 5479 O 521.915 -1.52104 -1.15192 0
M  V30 5480 C 519.055 -3.00479 -1.69725 0
M  V30 5481 C 518.168 -4.16214 -1.15716 0
M  V30 5482 C 517.303 -4.79884 -2.27783 0
M  V30 5483 C 516.342 -5.87722 -1.71023 0
M  V30 5484 N 515.479 -6.45254 -2.76752 0
M  V30 5485 H 520.319 -2.97935 0.0620613 0
M  V30 5486 H 517.856 -1.47039 0.0423993 0
M  V30 5487 H 519.814 -3.42869 -2.3769 0
M  V30 5488 H 518.444 -2.29217 -2.27288 0
M  V30 5489 H 517.496 -3.78605 -0.369063 0
M  V30 5490 H 518.808 -4.93838 -0.701832 0
M  V30 5491 H 517.962 -5.25243 -3.03651 0
M  V30 5492 H 516.701 -4.01641 -2.76652 0
M  V30 5493 H 515.706 -5.41765 -0.936518 0
M  V30 5494 H 516.931 -6.67863 -1.2303 0
M  V30 5495 H 514.877 -5.69884 -3.24912 0
M  V30 5496 H 514.794 -7.18292 -2.35782 0
M  V30 5497 H 516.062 -6.95269 -3.5245 0
M  V30 5498 N 520.291 -0.0518155 -1.57515 0
M  V30 5499 C 521.223 0.951542 -2.08515 0
M  V30 5500 C 522.236 1.27436 -1.01311 0
M  V30 5501 O 523.425 1.23504 -1.28876 0
M  V30 5502 C 520.525 2.27291 -2.5138 0
M  V30 5503 C 519.698 2.13191 -3.81927 0
M  V30 5504 C 518.757 3.28458 -4.11098 0
M  V30 5505 O 517.783 3.04334 -4.81009 0
M  V30 5506 N 518.985 4.52954 -3.63061 0
M  V30 5507 H 521.75 0.516242 -2.9522 0
M  V30 5508 H 519.311 0.13441 -1.61341 0
M  V30 5509 H 521.303 3.03272 -2.67971 0
M  V30 5510 H 519.873 2.62386 -1.69919 0
M  V30 5511 H 519.093 1.21798 -3.74912 0
M  V30 5512 H 520.381 2.00999 -4.67415 0
M  V30 5513 H 519.779 4.75444 -3.06545 0
M  V30 5514 H 518.336 5.26026 -3.84889 0
M  V30 5515 N 521.769 1.56035 0.221574 0
M  V30 5516 C 523.18 1.69229 0.788567 0
M  V30 5517 C 523.531 0.653814 1.84986 0
M  V30 5518 O 522.656 -0.195065 2.15519 0
M  V30 5519 C 523.251 3.06809 1.43713 0
M  V30 5520 C 521.81 3.21858 1.95152 0
M  V30 5521 C 520.957 2.65155 0.811685 0
M  V30 5522 H 523.908 1.587 -0.00307894 0
M  V30 5523 H 523.929 3.02666 2.30594 0
M  V30 5524 H 523.441 3.82369 0.664475 0
M  V30 5525 H 521.542 2.51167 2.7522 0
M  V30 5526 H 521.655 4.29073 2.1315 0
M  V30 5527 H 520.019 2.23635 1.21899 0
M  V30 5528 H 520.802 3.43261 0.0516987 0
M  V30 5529 N 523.247 -0.488276 1.49845 0
M  V30 5530 C 524.177 -1.59675 1.70371 0
M  V30 5531 C 525.158 -1.60878 0.552473 0
M  V30 5532 O 526.343 -1.77417 0.78973 0
M  V30 5533 C 523.473 -2.98098 1.782 0
M  V30 5534 C 522.427 -3.11761 2.93239 0
M  V30 5535 C 521.753 -4.51661 2.86193 0
M  V30 5536 C 523.053 -2.90589 4.33999 0
M  V30 5537 H 524.747 -1.42752 2.63177 0
M  V30 5538 H 522.293 -0.685317 1.26647 0
M  V30 5539 H 524.246 -3.75555 1.91144 0
M  V30 5540 H 522.97 -3.16138 0.820018 0
M  V30 5541 H 521.629 -2.36732 2.79917 0
M  V30 5542 H 521.277 -4.66595 1.87877 0
M  V30 5543 H 520.977 -4.61742 3.63412 0
M  V30 5544 H 522.501 -5.31162 3.01163 0
M  V30 5545 H 523.915 -3.57807 4.47936 0
M  V30 5546 H 522.312 -3.1213 5.12538 0
M  V30 5547 H 523.382 -1.86595 4.4756 0
M  V30 5548 N 524.725 -1.39134 -0.740242 0
M  V30 5549 C 526.136 -1.32208 -1.31825 0
M  V30 5550 C 526.487 0.0159919 -1.96193 0
M  V30 5551 O 525.612 0.918111 -1.95958 0
M  V30 5552 C 526.207 -2.39436 -2.39699 0
M  V30 5553 C 524.766 -2.36048 -2.93187 0
M  V30 5554 C 523.913 -2.21599 -1.66701 0
M  V30 5555 H 526.864 -1.49298 -0.538133 0
M  V30 5556 H 526.885 -2.05922 -3.19963 0
M  V30 5557 H 526.397 -3.36811 -1.92821 0
M  V30 5558 H 524.498 -1.42295 -3.44359 0
M  V30 5559 H 524.611 -3.30704 -3.46658 0
M  V30 5560 H 522.975 -1.68681 -1.90837 0
M  V30 5561 H 523.758 -3.20936 -1.21882 0
M  V30 5562 N 526.204 0.969867 -1.24223 0
M  V30 5563 C 527.151 2.06407 -1.0327 0
M  V30 5564 C 528.121 1.66014 0.0533 0
M  V30 5565 O 529.306 1.90533 -0.100896 0
M  V30 5566 C 526.446 3.3909 -0.641262 0
M  V30 5567 C 525.559 3.9269 -1.80051 0
M  V30 5568 C 524.694 5.13631 -1.35486 0
M  V30 5569 C 523.733 5.59423 -2.48419 0
M  V30 5570 N 522.87 6.71586 -2.04737 0
M  V30 5571 H 527.71 2.23663 -1.96923 0
M  V30 5572 H 525.247 1.09624 -0.980862 0
M  V30 5573 H 527.205 4.15323 -0.395351 0
M  V30 5574 H 525.835 3.21765 0.258269 0
M  V30 5575 H 524.887 3.13116 -2.16014 0
M  V30 5576 H 526.199 4.22636 -2.64916 0
M  V30 5577 H 525.353 5.97231 -1.0677 0
M  V30 5578 H 524.092 4.85364 -0.476722 0
M  V30 5579 H 523.097 4.74398 -2.77897 0
M  V30 5580 H 524.322 5.89705 -3.36786 0
M  V30 5581 H 522.268 6.45058 -1.19318 0
M  V30 5582 H 522.185 7.0097 -2.83156 0
M  V30 5583 H 523.453 7.58633 -1.79154 0
M  V30 5584 N 527.682 1.05563 1.17022 0
M  V30 5585 C 528.612 0.681026 2.23348 0
M  V30 5586 C 529.593 -0.322983 1.67005 0
M  V30 5587 O 530.778 -0.199746 1.9317 0
M  V30 5588 C 527.908 0.0589053 3.4725 0
M  V30 5589 C 526.862 0.988082 4.16438 0
M  V30 5590 C 526.188 0.229646 5.34207 0
M  V30 5591 C 527.488 2.31388 4.68249 0
M  V30 5592 H 529.182 1.56993 2.54938 0
M  V30 5593 H 526.728 0.756302 1.2254 0
M  V30 5594 H 528.681 -0.214982 4.20851 0
M  V30 5595 H 527.405 -0.864968 3.14938 0
M  V30 5596 H 526.064 1.24659 3.44754 0
M  V30 5597 H 525.712 -0.697111 4.98146 0
M  V30 5598 H 525.412 0.848815 5.81437 0
M  V30 5599 H 526.936 -0.0368694 6.10589 0
M  V30 5600 H 528.35 2.09964 5.33468 0
M  V30 5601 H 526.747 2.88736 5.26072 0
M  V30 5602 H 527.817 2.94982 3.84855 0
M  V30 5603 N 529.16 -1.33526 0.837174 0
M  V30 5604 C 530.409 -1.97098 0.428387 0
M  V30 5605 C 530.722 -1.67062 -1.01734 0
M  V30 5606 O 531.928 -2.24235 -1.53072 0
M  V30 5607 C 530.384 -3.52725 0.715075 0
M  V30 5608 C 529.992 -3.9164 2.17537 0
M  V30 5609 C 531.736 -4.22857 0.373154 0
M  V30 5610 C 529.643 -5.40237 2.40619 0
M  V30 5611 H 528.573 -0.737589 0.156455 0
M  V30 5612 H 531.224 -1.52169 1.02552 0
M  V30 5613 H 529.606 -3.95971 0.0475904 0
M  V30 5614 H 530.78 -3.59456 2.88319 0
M  V30 5615 H 529.095 -3.34485 2.4801 0
M  V30 5616 H 531.692 -5.32133 0.523264 0
M  V30 5617 H 532.035 -4.10647 -0.683708 0
M  V30 5618 H 532.568 -3.85135 0.995801 0
M  V30 5619 H 529.307 -5.57449 3.44864 0
M  V30 5620 H 528.827 -5.73887 1.74396 0
M  V30 5621 H 530.506 -6.07102 2.23688 0
M  V30 5622 N 530.638 -0.59345 -1.46 0
M  V30 5623 C 531.915 -0.0157933 -1.95594 0
M  V30 5624 C 532.295 1.44807 -1.53604 0
M  V30 5625 O 531.643 2.14342 -0.791824 0
M  V30 5626 C 531.853 -0.199081 -3.48432 0
M  V30 5627 C 533.201 -0.0724943 -4.24538 0
M  V30 5628 O 534.225 -0.128469 -3.55968 0
M  V30 5629 O 533.084 0.0542426 -5.46473 0
M  V30 5630 H 530.178 0.043749 -0.825842 0
M  V30 5631 H 532.724 -0.662522 -1.56233 0
M  V30 5632 H 531.496 -1.21631 -3.71916 0
M  V30 5633 H 531.119 0.483576 -3.94648 0
M  V30 5634 N 532.116 1.54067 -0.331816 0
M  V30 5635 C 533.363 2.00715 0.268269 0
M  V30 5636 C 533.691 1.21986 1.51491 0
M  V30 5637 O 532.946 0.292309 1.93505 0
M  V30 5638 C 533.245 3.51634 0.639392 0
M  V30 5639 C 532.911 4.48018 -0.509019 0
M  V30 5640 C 531.573 4.74089 -0.824209 0
M  V30 5641 C 533.925 5.05237 -1.28003 0
M  V30 5642 C 531.253 5.54637 -1.91298 0
M  V30 5643 C 533.605 5.86972 -2.35895 0
M  V30 5644 C 532.269 6.11342 -2.67987 0
M  V30 5645 H 531.539 0.734469 0.0981667 0
M  V30 5646 H 534.186 1.8596 -0.457304 0
M  V30 5647 H 532.491 3.6416 1.44551 0
M  V30 5648 H 534.188 3.85175 1.11539 0
M  V30 5649 H 530.778 4.27851 -0.253287 0
M  V30 5650 H 534.962 4.8507 -1.04978 0
M  V30 5651 H 530.218 5.71747 -2.16599 0
M  V30 5652 H 534.392 6.30327 -2.96076 0
M  V30 5653 H 532.019 6.73544 -3.5248 0
M  V30 5654 N 533.594 0.0601682 1.57485 0
M  V30 5655 C 534.819 -0.624416 1.97777 0
M  V30 5656 C 535.244 -1.63051 0.937867 0
M  V30 5657 O 534.602 -1.81036 -0.0978845 0
M  V30 5658 C 534.65 -1.27979 3.37126 0
M  V30 5659 O 533.754 -2.39556 3.35688 0
M  V30 5660 H 533.095 -0.161581 0.64404 0
M  V30 5661 H 535.625 0.131237 2.04179 0
M  V30 5662 H 535.635 -1.62937 3.74053 0
M  V30 5663 H 534.31 -0.542501 4.12347 0
M  V30 5664 H 532.887 -2.06478 3.10517 0
M  V30 5665 N 535.072 -1.5615 -0.213296 0
M  V30 5666 C 536.035 -1.92249 -1.24792 0
M  V30 5667 C 537.035 -0.801828 -1.39382 0
M  V30 5668 O 538.225 -1.06948 -1.37506 0
M  V30 5669 C 535.357 -2.18056 -2.62039 0
M  V30 5670 H 536.55 -2.84793 -0.939845 0
M  V30 5671 H 534.103 -1.49559 -0.454062 0
M  V30 5672 H 534.838 -1.2809 -2.97932 0
M  V30 5673 H 534.623 -2.99703 -2.52825 0
M  V30 5674 H 536.113 -2.47051 -3.36683 0
M  V30 5675 N 536.55 0.480323 -1.50102 0
M  V30 5676 C 537.482 1.59669 -1.64433 0
M  V30 5677 C 538.495 1.54063 -0.52615 0
M  V30 5678 O 539.684 1.59619 -0.798992 0
M  V30 5679 C 536.784 2.98527 -1.6042 0
M  V30 5680 C 535.957 3.291 -2.88117 0
M  V30 5681 C 535.016 4.47468 -2.76873 0
M  V30 5682 O 534.042 4.4823 -3.50825 0
M  V30 5683 N 535.244 5.48593 -1.89806 0
M  V30 5684 H 538.009 1.47795 -2.60723 0
M  V30 5685 H 535.57 0.66858 -1.4745 0
M  V30 5686 H 537.562 3.75666 -1.50523 0
M  V30 5687 H 536.132 3.04218 -0.719036 0
M  V30 5688 H 535.352 2.40662 -3.12211 0
M  V30 5689 H 536.64 3.46334 -3.72734 0
M  V30 5690 H 536.038 5.50791 -1.2902 0
M  V30 5691 H 534.595 6.24752 -1.85819 0
M  V30 5692 N 538.028 1.39524 0.732853 0
M  V30 5693 C 539.277 1.36175 1.48792 0
M  V30 5694 C 539.59 -0.0388195 1.95561 0
M  V30 5695 O 540.796 -0.194899 2.708 0
M  V30 5696 C 539.252 2.39242 2.68871 0
M  V30 5697 C 538.86 3.85024 2.29042 0
M  V30 5698 C 540.604 2.44972 3.46683 0
M  V30 5699 C 538.511 4.79727 3.45856 0
M  V30 5700 H 537.441 0.506267 0.558757 0
M  V30 5701 H 540.092 1.65181 0.799226 0
M  V30 5702 H 538.474 2.0331 3.39825 0
M  V30 5703 H 539.648 4.30008 1.6562 0
M  V30 5704 H 537.963 3.82609 1.64316 0
M  V30 5705 H 540.56 3.12918 4.33574 0
M  V30 5706 H 540.903 1.4749 3.89297 0
M  V30 5707 H 541.436 2.79808 2.82759 0
M  V30 5708 H 538.175 5.78479 3.08289 0
M  V30 5709 H 537.695 4.39421 4.08251 0
M  V30 5710 H 539.374 4.98731 4.12161 0
M  V30 5711 N 539.506 -0.963266 1.24736 0
M  V30 5712 C 540.469 -2.04013 1.04457 0
M  V30 5713 C 541.469 -1.608 0.000335555 0
M  V30 5714 O 542.659 -1.72515 0.241719 0
M  V30 5715 C 539.791 -3.35858 0.584162 0
M  V30 5716 H 540.984 -2.23436 2.00041 0
M  V30 5717 H 538.537 -1.13914 1.07021 0
M  V30 5718 H 539.272 -3.22128 -0.374673 0
M  V30 5719 H 539.057 -3.68568 1.3379 0
M  V30 5720 H 540.547 -4.1502 0.463451 0
M  V30 5721 N 540.985 -1.06182 -1.16461 0
M  V30 5722 C 541.895 -0.682671 -2.24448 0
M  V30 5723 C 542.911 0.30078 -1.71381 0
M  V30 5724 O 544.087 0.150376 -2.00838 0
M  V30 5725 C 541.152 -0.0737202 -3.46622 0
M  V30 5726 C 540.213 -1.10889 -4.14731 0
M  V30 5727 C 539.446 -0.528908 -5.31073 0
M  V30 5728 O 539.669 0.65868 -5.66584 0
M  V30 5729 O 538.603 -1.26805 -5.88391 0
M  V30 5730 H 542.429 -1.58291 -2.59187 0
M  V30 5731 H 540.014 -0.834013 -1.23954 0
M  V30 5732 H 541.896 0.264192 -4.20571 0
M  V30 5733 H 540.571 0.800015 -3.13658 0
M  V30 5734 H 539.478 -1.49896 -3.42756 0
M  V30 5735 H 540.811 -1.95412 -4.51747 0
M  V30 5736 N 542.463 1.3308 -0.844243 0
M  V30 5737 C 543.711 1.97215 -0.441676 0
M  V30 5738 C 544.032 1.67185 1.0037 0
M  V30 5739 O 543.302 0.973588 1.69994 0
M  V30 5740 H 541.882 0.72959 -0.160335 0
M  V30 5741 H 544.544 1.62348 -1.07838 0
M  V30 5742 H 543.64 3.06698 -0.57815 0
M  V30 5743 N 543.941 0.601185 1.45683 0
M  V30 5744 C 544.874 -0.17013 2.27565 0
M  V30 5745 C 545.852 -0.879661 1.36751 0
M  V30 5746 O 547.036 -0.889827 1.66176 0
M  V30 5747 C 544.163 -1.24568 3.14961 0
M  V30 5748 C 543.209 -0.639978 4.21671 0
M  V30 5749 S 544.042 0.547275 5.32696 0
M  V30 5750 C 545.198 -0.529019 6.2366 0
M  V30 5751 H 545.431 0.524583 2.92635 0
M  V30 5752 H 542.964 0.388537 1.49431 0
M  V30 5753 H 544.922 -1.86138 3.65873 0
M  V30 5754 H 543.583 -1.91243 2.49169 0
M  V30 5755 H 542.776 -1.44903 4.8272 0
M  V30 5756 H 542.378 -0.0995558 3.73867 0
M  V30 5757 H 544.67 -1.40981 6.62669 0
M  V30 5758 H 545.613 0.0451599 7.08086 0
M  V30 5759 H 546.021 -0.84147 5.58193 0
M  V30 5760 N 545.419 -1.53889 0.339982 0
M  V30 5761 C 546.382 -2.23547 -0.50592 0
M  V30 5762 C 547.382 -1.23445 -1.03044 0
M  V30 5763 O 548.572 -1.47909 -0.920253 0
M  V30 5764 C 545.704 -2.95234 -1.7044 0
M  V30 5765 H 546.897 -2.99722 0.103247 0
M  V30 5766 H 544.45 -1.56033 0.0912804 0
M  V30 5767 H 545.185 -2.23236 -2.35236 0
M  V30 5768 H 544.97 -3.68654 -1.33553 0
M  V30 5769 H 546.46 -3.48258 -2.30447 0
M  V30 5770 N 546.897 -0.0685191 -1.57451 0
M  V30 5771 C 548.144 0.601348 -1.93365 0
M  V30 5772 C 548.472 1.69816 -0.948294 0
M  V30 5773 O 547.727 1.95666 0.0366199 0
M  V30 5774 C 548.026 1.22051 -3.35914 0
M  V30 5775 C 547.692 0.250165 -4.50205 0
M  V30 5776 C 546.354 -0.0167954 -4.81197 0
M  V30 5777 C 548.706 -0.413867 -5.19554 0
M  V30 5778 C 546.034 -0.95493 -5.78876 0
M  V30 5779 C 548.386 -1.3403 -6.18238 0
M  V30 5780 C 547.05 -1.61576 -6.47649 0
M  V30 5781 H 546.32 0.220049 -0.707573 0
M  V30 5782 H 548.967 -0.138697 -1.90997 0
M  V30 5783 H 547.272 2.03622 -3.34732 0
M  V30 5784 H 548.969 1.74605 -3.6099 0
M  V30 5785 H 545.559 0.468421 -4.26033 0
M  V30 5786 H 549.743 -0.220733 -4.95809 0
M  V30 5787 H 544.999 -1.17563 -5.99991 0
M  V30 5788 H 549.173 -1.86081 -6.71079 0
M  V30 5789 H 546.8 -2.34431 -7.2315 0
M  V30 5790 N 548.375 1.56261 0.205012 0
M  V30 5791 C 549.624 1.79236 0.925058 0
M  V30 5792 C 549.937 0.640011 1.84833 0
M  V30 5793 O 551.143 0.753809 2.60826 0
M  V30 5794 C 549.599 3.17475 1.69522 0
M  V30 5795 C 549.207 4.40482 0.817269 0
M  V30 5796 C 550.951 3.49766 2.4055 0
M  V30 5797 C 548.858 5.69744 1.58573 0
M  V30 5798 H 547.788 0.668287 0.349153 0
M  V30 5799 H 550.439 1.82629 0.178544 0
M  V30 5800 H 548.821 3.08304 2.48526 0
M  V30 5801 H 549.995 4.60752 0.0665988 0
M  V30 5802 H 548.31 4.15827 0.218316 0
M  V30 5803 H 550.907 4.43573 2.98575 0
M  V30 5804 H 551.25 2.73041 3.14252 0
M  V30 5805 H 551.783 3.60341 1.68522 0
M  V30 5806 H 548.522 6.49407 0.891679 0
M  V30 5807 H 548.042 5.53509 2.31059 0
M  V30 5808 H 549.721 6.1051 2.14212 0
M  V30 5809 N 549.853 -0.472356 1.50355 0
M  V30 5810 C 550.763 -1.59637 1.7191 0
M  V30 5811 C 551.779 -1.63247 0.602195 0
M  V30 5812 O 552.955 -1.81139 0.880369 0
M  V30 5813 C 550.02 -2.9586 1.80742 0
M  V30 5814 C 549.081 -3.02649 3.04471 0
M  V30 5815 C 548.314 -4.32374 3.12872 0
M  V30 5816 O 548.537 -5.22807 2.28099 0
M  V30 5817 O 547.471 -4.44728 4.05587 0
M  V30 5818 H 551.297 -1.44373 2.67189 0
M  V30 5819 H 548.882 -0.651717 1.34436 0
M  V30 5820 H 550.764 -3.7677 1.88739 0
M  V30 5821 H 549.439 -3.11325 0.88647 0
M  V30 5822 H 548.346 -2.20821 3.01975 0
M  V30 5823 H 549.679 -2.92119 3.9614 0
M  V30 5824 N 551.331 -1.39911 -0.725443 0
M  V30 5825 C 552.263 -1.35301 -1.85003 0
M  V30 5826 C 553.276 -0.260102 -1.60709 0
M  V30 5827 O 554.465 -0.519749 -1.70766 0
M  V30 5828 C 551.565 -1.08039 -3.21218 0
M  V30 5829 C 550.738 -2.28793 -3.7279 0
M  V30 5830 C 549.797 -1.97841 -4.87591 0
M  V30 5831 O 548.823 -2.70616 -5.00755 0
M  V30 5832 N 550.025 -0.950367 -5.72668 0
M  V30 5833 H 552.79 -2.32218 -1.89459 0
M  V30 5834 H 550.351 -1.34137 -0.90658 0
M  V30 5835 H 552.343 -0.853354 -3.95601 0
M  V30 5836 H 550.913 -0.198229 -3.11971 0
M  V30 5837 H 550.133 -2.67388 -2.8965 0
M  V30 5838 H 551.421 -3.09317 -4.03981 0
M  V30 5839 H 550.819 -0.347436 -5.64632 0
M  V30 5840 H 549.376 -0.783232 -6.47077 0
M  V30 5841 N 552.809 0.956637 -1.25245 0
M  V30 5842 C 554.225 1.22733 -1.02023 0
M  V30 5843 C 554.425 1.99761 0.264186 0
M  V30 5844 O 553.481 2.32814 0.977436 0
M  V30 5845 C 554.794 2.00367 -2.24217 0
M  V30 5846 C 556.342 2.13418 -2.28958 0
M  V30 5847 C 556.817 2.9445 -3.50803 0
M  V30 5848 N 558.308 3.02029 -3.51187 0
M  V30 5849 C 559.043 3.65116 -4.42129 0
M  V30 5850 N 558.539 4.2983 -5.43339 0
M  V30 5851 N 560.332 3.62237 -4.29815 0
M  V30 5852 H 552.483 0.441282 -2.07765 0
M  V30 5853 H 554.746 0.257686 -0.912306 0
M  V30 5854 H 554.452 1.51165 -3.17556 0
M  V30 5855 H 554.326 3.01077 -2.27228 0
M  V30 5856 H 556.713 2.61819 -1.36143 0
M  V30 5857 H 556.794 1.1202 -2.29968 0
M  V30 5858 H 556.438 2.46741 -4.43939 0
M  V30 5859 H 556.368 3.9607 -3.47039 0
M  V30 5860 H 558.859 2.56007 -2.77973 0
M  V30 5861 H 559.172 4.75819 -6.08947 0
M  V30 5862 H 557.517 4.28465 -5.47214 0
M  V30 5863 H 560.708 3.10863 -3.49974 0
M  V30 5864 H 560.881 4.11117 -5.00886 0
M  V30 5865 N 554.287 1.06798 1.15896 0
M  V30 5866 C 555.235 0.677525 2.22514 0
M  V30 5867 C 556.229 -0.308994 1.66558 0
M  V30 5868 O 557.435 -0.173308 1.79164 0
M  V30 5869 H 553.81 0.200994 0.724642 0
M  V30 5870 H 555.781 1.5865 2.52731 0
M  V30 5871 C 554.53 0.0854153 3.47595 0
M  V30 5872 H 553.853 0.835645 3.90969 0
M  V30 5873 H 555.293 -0.150199 4.23734 0
M  V30 5874 C 553.752 -1.1724 3.15843 0
M  V30 5875 O 554.282 -2.25965 3.32119 0
M  V30 5876 N 552.488 -1.07636 2.69931 0
M  V30 5877 H 552.035 -0.191559 2.56887 0
M  V30 5878 H 551.993 -1.91876 2.4906 0
M  V30 5879 N 555.766 -1.3263 0.851289 0
M  V30 5880 C 556.996 -2.01271 0.466222 0
M  V30 5881 C 557.404 -1.64156 -0.940714 0
M  V30 5882 O 556.747 -0.857109 -1.62479 0
M  V30 5883 C 556.809 -3.55695 0.521672 0
M  V30 5884 C 556.473 -4.16227 1.88691 0
M  V30 5885 C 557.47 -4.34699 2.85189 0
M  V30 5886 C 555.155 -4.52377 2.18313 0
M  V30 5887 C 557.149 -4.88484 4.09465 0
M  V30 5888 C 554.836 -5.05868 3.42843 0
M  V30 5889 C 555.834 -5.23869 4.38235 0
M  V30 5890 O 555.522 -5.76218 5.6056 0
M  V30 5891 H 555.254 -0.651034 0.18202 0
M  V30 5892 H 557.808 -1.7026 1.14894 0
M  V30 5893 H 556.038 -3.86086 -0.217888 0
M  V30 5894 H 557.727 -4.05613 0.152682 0
M  V30 5895 H 558.493 -4.07107 2.63607 0
M  V30 5896 H 554.372 -4.37652 1.44851 0
M  V30 5897 H 557.916 -5.02451 4.83931 0
M  V30 5898 H 553.813 -5.32891 3.64277 0
M  V30 5899 H 554.581 -5.94616 5.62471 0
M  V30 5900 N 557.244 -0.608902 -1.45362 0
M  V30 5901 C 558.493 -0.10218 -2.01441 0
M  V30 5902 C 558.806 1.27546 -1.48295 0
M  V30 5903 O 560.012 1.87498 -1.96359 0
M  V30 5904 C 558.468 -0.131985 -3.59658 0
M  V30 5905 C 558.076 -1.50956 -4.21801 0
M  V30 5906 C 559.82 0.319427 -4.23296 0
M  V30 5907 C 557.727 -1.49568 -5.72174 0
M  V30 5908 H 556.657 -0.0344314 -0.753213 0
M  V30 5909 H 559.308 -0.764426 -1.6682 0
M  V30 5910 H 557.69 0.596939 -3.91475 0
M  V30 5911 H 558.864 -2.26029 -4.01556 0
M  V30 5912 H 557.179 -1.90318 -3.70362 0
M  V30 5913 H 559.776 0.349013 -5.3356 0
M  V30 5914 H 560.119 1.34237 -3.94064 0
M  V30 5915 H 560.652 -0.356273 -3.96201 0
M  V30 5916 H 557.391 -2.49626 -6.06108 0
M  V30 5917 H 556.911 -0.787542 -5.94607 0
M  V30 5918 H 558.59 -1.21989 -6.35396 0
M  V30 5919 N 558.722 1.53707 -0.348139 0
M  V30 5920 C 559.672 2.2193 0.522592 0
M  V30 5921 C 560.656 1.20831 1.06248 0
M  V30 5922 O 561.848 1.46357 0.995415 0
M  V30 5923 C 558.977 2.99904 1.6707 0
M  V30 5924 C 558.063 4.08364 1.14454 0
M  V30 5925 N 558.454 5.04656 0.339958 0
M  V30 5926 C 556.752 4.22757 1.421 0
M  V30 5927 C 557.453 5.81675 0.0538806 0
M  V30 5928 N 556.429 5.39739 0.646776 0
M  V30 5929 H 560.231 2.93733 -0.099135 0
M  V30 5930 H 557.745 1.61656 -0.15524 0
M  V30 5931 H 559.742 3.47284 2.30651 0
M  V30 5932 H 558.402 2.29629 2.29566 0
M  V30 5933 H 559.413 5.17896 -0.0193552 0
M  V30 5934 H 556.09 3.63704 2.05002 0
M  V30 5935 H 557.48 6.69256 -0.595443 0
M  V30 5936 N 560.2 0.0768682 1.57412 0
M  V30 5937 C 561.616 -0.279772 1.57129 0
M  V30 5938 C 561.816 -1.69688 1.08666 0
M  V30 5939 O 560.872 -2.40953 0.754843 0
M  V30 5940 C 562.185 -0.0848055 3.0058 0
M  V30 5941 C 563.733 -0.153954 3.12621 0
M  V30 5942 C 564.208 0.0127946 4.57998 0
M  V30 5943 N 565.699 -0.0426435 4.6318 0
M  V30 5944 C 566.434 0.0618892 5.73367 0
M  V30 5945 N 565.93 0.220229 6.9245 0
M  V30 5946 N 567.723 0.00446072 5.621 0
M  V30 5947 H 559.874 1.00297 1.87228 0
M  V30 5948 H 562.137 0.391565 0.863354 0
M  V30 5949 H 561.843 0.89325 3.40168 0
M  V30 5950 H 561.717 -0.834961 3.67843 0
M  V30 5951 H 564.104 -1.1225 2.72917 0
M  V30 5952 H 564.185 0.627389 2.47987 0
M  V30 5953 H 563.829 0.978128 4.98392 0
M  V30 5954 H 563.759 -0.788016 5.20671 0
M  V30 5955 H 566.25 -0.163226 3.77547 0
M  V30 5956 H 566.563 0.291999 7.72248 0
M  V30 5957 H 564.908 0.255658 6.9453 0
M  V30 5958 H 568.099 -0.117979 4.67951 0
M  V30 5959 H 568.272 0.0893796 6.47938 0
M  V30 5960 N 561.678 -1.56367 -0.196722 0
M  V30 5961 C 562.955 -1.71359 -0.943159 0
M  V30 5962 C 563.335 -0.631192 -2.01443 0
M  V30 5963 O 562.683 0.358071 -2.25677 0
M  V30 5964 C 562.893 -3.13623 -1.53106 0
M  V30 5965 C 564.241 -3.73806 -2.01381 0
M  V30 5966 O 565.265 -3.16742 -1.62951 0
M  V30 5967 O 564.124 -4.73951 -2.7209 0
M  V30 5968 H 561.218 -0.698851 -0.442195 0
M  V30 5969 H 563.764 -1.68672 -0.186547 0
M  V30 5970 H 562.536 -3.83873 -0.758785 0
M  V30 5971 H 562.159 -3.20532 -2.35255 0
M  V30 5972 N 563.156 0.464375 -1.50603 0
M  V30 5973 C 564.086 1.56944 -1.72889 0
M  V30 5974 C 565.067 1.59979 -0.577997 0
M  V30 5975 O 566.252 1.76138 -0.817855 0
M  V30 5976 C 563.382 2.95225 -1.8292 0
M  V30 5977 C 562.336 3.07056 -2.98162 0
M  V30 5978 C 561.662 4.47051 -2.93343 0
M  V30 5979 C 562.962 2.83648 -4.38567 0
M  V30 5980 H 564.656 1.38547 -2.65415 0
M  V30 5981 H 562.202 0.665082 -1.27721 0
M  V30 5982 H 564.155 3.72467 -1.97095 0
M  V30 5983 H 562.879 3.14793 -0.870209 0
M  V30 5984 H 561.538 2.32248 -2.83648 0
M  V30 5985 H 561.186 4.63547 -1.95276 0
M  V30 5986 H 560.886 4.55902 -3.70712 0
M  V30 5987 H 562.41 5.26304 -3.09575 0
M  V30 5988 H 563.824 3.50636 -4.53572 0
M  V30 5989 H 562.221 3.03937 -5.17438 0
M  V30 5990 H 563.291 1.79451 -4.50472 0
M  V30 5991 N 564.634 1.40294 0.718013 0
M  V30 5992 C 566.05 1.2227 1.02577 0
M  V30 5993 C 566.25 0.0961976 2.0127 0
M  V30 5994 O 565.306 -0.546695 2.46511 0
M  V30 5995 C 566.619 2.56348 1.57182 0
M  V30 5996 C 568.167 2.6334 1.69178 0
M  V30 5997 C 568.642 3.9768 2.27188 0
M  V30 5998 N 570.133 3.99409 2.34578 0
M  V30 5999 C 570.868 5.00141 2.8044 0
M  V30 6000 N 570.364 6.11268 3.26073 0
M  V30 6001 N 572.157 4.87511 2.79802 0
M  V30 6002 H 564.308 2.12304 0.0637899 0
M  V30 6003 H 566.571 0.943632 0.0909036 0
M  V30 6004 H 566.277 3.3942 0.921262 0
M  V30 6005 H 566.151 2.77266 2.55741 0
M  V30 6006 H 568.538 1.80641 2.33351 0
M  V30 6007 H 568.619 2.46255 0.692247 0
M  V30 6008 H 568.263 4.80817 1.63638 0
M  V30 6009 H 568.193 4.12093 3.27852 0
M  V30 6010 H 570.684 3.19162 2.02346 0
M  V30 6011 H 570.997 6.84023 3.59628 0
M  V30 6012 H 569.342 6.14837 3.24038 0
M  V30 6013 H 572.533 3.9979 2.43487 0
M  V30 6014 H 572.706 5.66158 3.15228 0
M  V30 6015 N 566.112 -0.949982 1.2575 0
M  V30 6016 C 567.075 -2.02894 1.06615 0
M  V30 6017 C 568.075 -1.60791 0.0173905 0
M  V30 6018 O 569.265 -1.72249 0.260003 0
M  V30 6019 C 566.397 -3.35219 0.619751 0
M  V30 6020 H 567.59 -2.21302 2.02399 0
M  V30 6021 H 565.143 -1.12772 1.08223 0
M  V30 6022 H 565.878 -3.22508 -0.340486 0
M  V30 6023 H 565.663 -3.67129 1.37692 0
M  V30 6024 H 567.153 -4.14505 0.507443 0
M  V30 6025 N 567.59 -1.07411 -1.15328 0
M  V30 6026 C 568.553 -0.698914 -2.18284 0
M  V30 6027 C 569.553 0.261149 -1.58665 0
M  V30 6028 O 570.743 0.0420277 -1.74149 0
M  V30 6029 C 567.875 -0.0302427 -3.40887 0
M  V30 6030 H 569.068 -1.61045 -2.52991 0
M  V30 6031 H 566.621 -0.870724 -1.298 0
M  V30 6032 H 567.356 0.893505 -3.11748 0
M  V30 6033 H 567.141 -0.720759 -3.85419 0
M  V30 6034 H 568.631 0.21759 -4.17033 0
M  V30 6035 N 569.068 1.32177 -0.85831 0
M  V30 6036 C 570.016 2.30729 -0.294442 0
M  V30 6037 C 571.01 1.59009 0.584165 0
M  V30 6038 O 572.216 1.73713 0.471562 0
M  V30 6039 H 568.591 0.748097 -0.0765171 0
M  V30 6040 H 570.562 2.75774 -1.1398 0
M  V30 6041 C 569.311 3.44098 0.499208 0
M  V30 6042 H 568.634 3.99449 -0.167579 0
M  V30 6043 H 570.074 4.15202 0.859273 0
M  V30 6044 C 568.533 2.91684 1.68588 0
M  V30 6045 O 569.063 2.89481 2.78503 0
M  V30 6046 N 567.269 2.48036 1.51415 0
M  V30 6047 H 566.816 2.50027 0.620006 0
M  V30 6048 H 566.774 2.13322 2.30957 0
M  V30 6049 N 570.547 0.616602 1.45037 0
M  V30 6050 C 571.796 0.112861 2.01384 0
M  V30 6051 C 572.109 -1.26758 1.48969 0
M  V30 6052 O 573.315 -1.86454 1.9735 0
M  V30 6053 C 571.771 0.151057 3.59583 0
M  V30 6054 C 571.379 1.53191 4.20995 0
M  V30 6055 C 573.123 -0.296974 4.2346 0
M  V30 6056 C 571.03 1.526 5.71373 0
M  V30 6057 H 569.96 0.0384254 0.75302 0
M  V30 6058 H 572.611 0.773262 1.66412 0
M  V30 6059 H 570.993 -0.57617 3.91786 0
M  V30 6060 H 572.167 2.28156 4.00352 0
M  V30 6061 H 570.482 1.92279 3.69348 0
M  V30 6062 H 573.079 -0.320712 5.33737 0
M  V30 6063 H 573.422 -1.32145 3.9477 0
M  V30 6064 H 573.955 0.377279 3.96007 0
M  V30 6065 H 570.694 2.52837 6.04776 0
M  V30 6066 H 570.214 0.819064 5.94181 0
M  V30 6067 H 571.893 1.25357 6.3474 0
M  V30 6068 N 572.025 -1.5352 0.356285 0
M  V30 6069 C 572.955 -2.28372 -0.486661 0
M  V30 6070 C 573.936 -1.30432 -1.09185 0
M  V30 6071 O 575.121 -1.59291 -1.11085 0
M  V30 6072 C 572.251 -3.06604 -1.63129 0
M  V30 6073 C 571.205 -4.12154 -1.15381 0
M  V30 6074 C 570.531 -4.78415 -2.38796 0
M  V30 6075 C 571.831 -5.21724 -0.245179 0
M  V30 6076 H 573.525 -2.99083 0.137797 0
M  V30 6077 H 571.071 -1.43841 0.0677134 0
M  V30 6078 H 573.024 -3.57712 -2.22755 0
M  V30 6079 H 571.748 -2.33568 -2.28284 0
M  V30 6080 H 570.407 -3.61978 -0.580294 0
M  V30 6081 H 570.055 -4.01959 -3.02387 0
M  V30 6082 H 569.755 -5.49734 -2.07524 0
M  V30 6083 H 571.279 -5.32313 -2.99125 0
M  V30 6084 H 572.693 -5.68391 -0.748646 0
M  V30 6085 H 571.09 -6.00095 -0.0237608 0
M  V30 6086 H 572.16 -4.79596 0.715229 0
M  V30 6087 N 573.503 -0.0852151 -1.57369 0
M  V30 6088 C 574.749 0.581666 -1.94279 0
M  V30 6089 C 575.082 1.68444 -0.966446 0
M  V30 6090 O 574.357 1.945 0.00215277 0
M  V30 6091 C 574.64 1.14609 -3.41375 0
M  V30 6092 C 574.493 0.0490414 -4.49773 0
M  V30 6093 C 575.812 2.04751 -3.8957 0
M  V30 6094 H 572.931 0.209972 -0.706456 0
M  V30 6095 H 575.573 -0.153915 -1.89376 0
M  V30 6096 H 573.723 1.77297 -3.45685 0
M  V30 6097 H 575.395 -0.584721 -4.57579 0
M  V30 6098 H 573.638 -0.618638 -4.29366 0
M  V30 6099 H 574.309 0.484601 -5.49869 0
M  V30 6100 H 576.785 1.51981 -3.87351 0
M  V30 6101 H 575.661 2.41173 -4.93079 0
M  V30 6102 H 575.922 2.96107 -3.28288 0
M  V30 6103 N 574.981 1.5647 0.188427 0
M  V30 6104 C 576.206 1.85486 0.927891 0
M  V30 6105 C 576.631 0.669575 1.75779 0
M  V30 6106 O 575.989 -0.381573 1.77239 0
M  V30 6107 C 576.037 3.12784 1.7944 0
M  V30 6108 O 575.141 2.93805 2.894 0
M  V30 6109 H 574.482 0.610585 0.260925 0
M  V30 6110 H 577.012 2.037 0.191729 0
M  V30 6111 H 577.022 3.43749 2.19774 0
M  V30 6112 H 575.697 3.98671 1.18468 0
M  V30 6113 H 574.274 2.74153 2.52774 0
M  V30 6114 N 576.459 -0.456382 1.50847 0
M  V30 6115 C 577.422 -1.53493 1.70213 0
M  V30 6116 C 578.422 -1.50264 0.572481 0
M  V30 6117 O 579.612 -1.52623 0.839751 0
M  V30 6118 C 576.744 -2.93091 1.741 0
M  V30 6119 H 577.937 -1.37633 2.66453 0
M  V30 6120 H 575.49 -0.683776 1.4055 0
M  V30 6121 H 576.225 -3.14378 0.796063 0
M  V30 6122 H 576.01 -2.9684 2.5618 0
M  V30 6123 H 577.5 -3.71368 1.90987 0
M  V30 6124 N 577.937 -1.40673 -0.710563 0
M  V30 6125 C 579.162 -1.42741 -1.50465 0
M  V30 6126 C 579.587 -0.0302116 -1.88076 0
M  V30 6127 O 578.945 0.962945 -1.53613 0
M  V30 6128 C 578.993 -2.32873 -2.75322 0
M  V30 6129 O 578.097 -1.77544 -3.72226 0
M  V30 6130 H 577.438 -0.485056 -0.45345 0
M  V30 6131 H 579.968 -1.84961 -0.874681 0
M  V30 6132 H 579.978 -2.48233 -3.23797 0
M  V30 6133 H 578.653 -3.34401 -2.47283 0
M  V30 6134 H 577.23 -1.71556 -3.31093 0
M  V30 6135 N 579.415 0.9433 -1.26252 0
M  V30 6136 C 580.345 2.05902 -1.10122 0
M  V30 6137 C 581.326 1.70099 -0.00700552 0
M  V30 6138 O 582.511 1.93377 -0.178641 0
M  V30 6139 C 579.641 3.39516 -0.731175 0
M  V30 6140 C 578.595 3.89372 -1.77688 0
M  V30 6141 C 577.921 5.19613 -1.26122 0
M  V30 6142 C 579.221 4.14489 -3.17799 0
M  V30 6143 H 580.915 2.19655 -2.03451 0
M  V30 6144 H 578.461 1.05548 -0.979576 0
M  V30 6145 H 580.414 4.17031 -0.605215 0
M  V30 6146 H 579.138 3.25733 0.23782 0
M  V30 6147 H 577.797 3.14036 -1.89148 0
M  V30 6148 H 577.445 5.02208 -0.282128 0
M  V30 6149 H 577.145 5.53939 -1.96023 0
M  V30 6150 H 578.669 5.99713 -1.14789 0
M  V30 6151 H 580.083 4.82625 -3.09428 0
M  V30 6152 H 578.48 4.60094 -3.85271 0
M  V30 6153 H 579.55 3.20347 -3.64014 0
M  V30 6154 N 580.893 1.08022 1.14757 0
M  V30 6155 C 582.139 0.808705 1.85978 0
M  V30 6156 C 582.472 -0.663764 1.82504 0
M  V30 6157 O 581.747 -1.48765 1.25296 0
M  V30 6158 C 582.03 1.32623 3.34788 0
M  V30 6159 C 581.883 2.86375 3.46856 0
M  V30 6160 C 583.202 0.948291 4.29762 0
M  V30 6161 H 580.321 0.295244 0.675278 0
M  V30 6162 H 582.963 1.33917 1.34783 0
M  V30 6163 H 581.113 0.875002 3.78518 0
M  V30 6164 H 582.785 3.39839 3.11941 0
M  V30 6165 H 581.028 3.24232 2.88194 0
M  V30 6166 H 581.699 3.17658 4.51439 0
M  V30 6167 H 584.175 1.33722 3.94028 0
M  V30 6168 H 583.051 1.33765 5.32352 0
M  V30 6169 H 583.312 -0.145094 4.41862 0
M  V30 6170 N 582.371 -1.3172 0.865308 0
M  V30 6171 C 583.611 -1.98675 0.480365 0
M  V30 6172 C 583.975 -1.66929 -0.948621 0
M  V30 6173 O 585.176 -2.27059 -1.43867 0
M  V30 6174 C 583.447 -3.49972 0.724858 0
M  V30 6175 S 585.006 -4.36598 0.439078 0
M  V30 6176 H 581.824 -0.687967 0.179506 0
M  V30 6177 H 584.426 -1.60215 1.12033 0
M  V30 6178 H 583.13 -3.70567 1.76375 0
M  V30 6179 H 582.661 -3.93335 0.0717173 0
M  V30 6180 H 584.676 -4.90792 -0.730564 0
M  V30 6181 N 583.85 -0.624285 -1.44708 0
M  V30 6182 C 584.797 0.0847135 -2.30644 0
M  V30 6183 C 585.767 0.843575 -1.43084 0
M  V30 6184 O 586.952 0.825982 -1.71995 0
M  V30 6185 C 584.091 1.06495 -3.28257 0
M  V30 6186 C 583.205 0.305224 -4.3092 0
M  V30 6187 C 582.34 1.27667 -5.1563 0
M  V30 6188 C 581.379 0.505706 -6.10007 0
M  V30 6189 N 580.516 1.42727 -6.8744 0
M  V30 6190 H 585.356 -0.654068 -2.90733 0
M  V30 6191 H 582.893 -0.334334 -1.4325 0
M  V30 6192 H 584.851 1.64658 -3.83332 0
M  V30 6193 H 583.481 1.77094 -2.69884 0
M  V30 6194 H 582.533 -0.392207 -3.78373 0
M  V30 6195 H 583.845 -0.295553 -4.97924 0
M  V30 6196 H 582.999 1.92984 -5.75189 0
M  V30 6197 H 581.738 1.91137 -4.48685 0
M  V30 6198 H 580.743 -0.160999 -5.49564 0
M  V30 6199 H 581.968 -0.124183 -6.78986 0
M  V30 6200 H 579.913 2.04931 -6.23169 0
M  V30 6201 H 579.831 0.880345 -7.50857 0
M  V30 6202 H 581.099 2.0695 -7.51526 0
M  V30 6203 N 585.328 1.53329 -0.364422 0
M  V30 6204 C 586.577 2.00421 0.226747 0
M  V30 6205 C 586.89 1.25581 1.49963 0
M  V30 6206 O 588.096 1.63256 2.16933 0
M  V30 6207 C 586.552 3.57017 0.454618 0
M  V30 6208 C 586.16 4.40734 -0.803568 0
M  V30 6209 C 587.904 4.12468 1.00351 0
M  V30 6210 C 585.811 5.8888 -0.545345 0
M  V30 6211 H 584.741 0.748787 0.0885082 0
M  V30 6212 H 587.392 1.7703 -0.482983 0
M  V30 6213 H 585.774 3.76558 1.22558 0
M  V30 6214 H 586.948 4.32967 -1.57723 0
M  V30 6215 H 585.263 3.96381 -1.27559 0
M  V30 6216 H 587.86 5.20783 1.212 0
M  V30 6217 H 588.203 3.6699 1.9653 0
M  V30 6218 H 588.736 3.96721 0.29274 0
M  V30 6219 H 585.475 6.38633 -1.47743 0
M  V30 6220 H 584.995 5.99499 0.189842 0
M  V30 6221 H 586.674 6.46776 -0.170425 0
M  V30 6222 N 586.806 0.0935595 1.57322 0
M  V30 6223 C 587.769 -0.851426 2.12799 0
M  V30 6224 C 588.769 -1.21187 1.0569 0
M  V30 6225 O 589.959 -1.14156 1.31583 0
M  V30 6226 C 587.091 -2.14779 2.64731 0
M  V30 6227 H 588.284 -0.369733 2.97612 0
M  V30 6228 H 585.837 -0.155417 1.55525 0
M  V30 6229 H 586.572 -2.67437 1.83434 0
M  V30 6230 H 586.357 -1.89907 3.43042 0
M  V30 6231 H 587.847 -2.82383 3.07651 0
M  V30 6232 N 588.284 -1.56567 -0.180126 0
M  V30 6233 C 589.561 -1.7235 -0.924931 0
M  V30 6234 C 589.941 -0.652523 -2.00762 0
M  V30 6235 O 589.289 0.334115 -2.26044 0
M  V30 6236 C 589.499 -3.1523 -1.49771 0
M  V30 6237 C 590.847 -3.75921 -1.97405 0
M  V30 6238 O 591.871 -3.18452 -1.59583 0
M  V30 6239 O 590.73 -4.7681 -2.67048 0
M  V30 6240 H 587.824 -0.703502 -0.434758 0
M  V30 6241 H 590.37 -1.6886 -0.168647 0
M  V30 6242 H 589.142 -3.84656 -0.718027 0
M  V30 6243 H 588.765 -3.23009 -2.31842 0
M  V30 6244 N 589.762 0.448376 -1.51087 0
M  V30 6245 C 591.009 1.19872 -1.63209 0
M  V30 6246 C 591.337 1.91451 -0.343062 0
M  V30 6247 O 590.592 1.83789 0.672321 0
M  V30 6248 C 590.891 2.24866 -2.77795 0
M  V30 6249 C 590.557 1.70378 -4.17471 0
M  V30 6250 C 589.219 1.55241 -4.55471 0
M  V30 6251 C 591.571 1.30203 -5.04675 0
M  V30 6252 C 588.899 0.983844 -5.78392 0
M  V30 6253 C 591.251 0.747798 -6.28165 0
M  V30 6254 C 589.915 0.583233 -6.64947 0
M  V30 6255 H 589.185 0.438642 -0.597222 0
M  V30 6256 H 591.832 0.49136 -1.85089 0
M  V30 6257 H 590.137 3.01598 -2.50092 0
M  V30 6258 H 591.834 2.82723 -2.84374 0
M  V30 6259 H 588.424 1.83134 -3.87505 0
M  V30 6260 H 592.608 1.40723 -4.75932 0
M  V30 6261 H 587.864 0.844007 -6.05546 0
M  V30 6262 H 592.038 0.427927 -6.95084 0
M  V30 6263 H 589.665 0.140532 -7.6007 0
M  V30 6264 N 591.24 1.41047 0.703093 0
M  V30 6265 C 592.488 1.39723 1.4602 0
M  V30 6266 C 592.809 0.00461257 1.94999 0
M  V30 6267 O 592.079 -0.952292 1.71196 0
M  V30 6268 H 590.659 0.514281 0.541779 0
M  V30 6269 H 593.321 1.76217 0.832678 0
M  V30 6270 H 592.417 2.07982 2.32701 0
M  V30 6271 N 592.718 -0.936591 1.26751 0
M  V30 6272 C 593.648 -2.05315 1.11212 0
M  V30 6273 C 594.629 -1.70092 0.0160262 0
M  V30 6274 O 595.814 -1.93279 0.188894 0
M  V30 6275 C 592.944 -3.39123 0.749171 0
M  V30 6276 C 591.898 -3.88425 1.79751 0
M  V30 6277 C 591.224 -5.18936 1.28876 0
M  V30 6278 C 592.524 -4.12798 3.19992 0
M  V30 6279 H 594.218 -2.18573 2.04613 0
M  V30 6280 H 591.764 -1.05027 0.985159 0
M  V30 6281 H 593.717 -4.16704 0.627323 0
M  V30 6282 H 592.441 -3.25855 -0.220543 0
M  V30 6283 H 591.1 -3.13028 1.90811 0
M  V30 6284 H 590.748 -5.02051 0.308757 0
M  V30 6285 H 590.448 -5.52892 1.98958 0
M  V30 6286 H 591.972 -5.99096 1.17967 0
M  V30 6287 H 593.386 -4.80977 3.11983 0
M  V30 6288 H 591.783 -4.58044 3.87705 0
M  V30 6289 H 592.853 -3.18412 3.65707 0
M  V30 6290 N 594.196 -1.08629 -1.14182 0
M  V30 6291 C 595.159 -0.722027 -2.1753 0
M  V30 6292 C 596.159 0.244305 -1.58933 0
M  V30 6293 O 597.349 0.0235545 -1.74184 0
M  V30 6294 C 594.481 -0.0663966 -3.40835 0
M  V30 6295 H 595.674 -1.63719 -2.51269 0
M  V30 6296 H 593.227 -0.884442 -1.28869 0
M  V30 6297 H 593.962 0.860389 -3.12678 0
M  V30 6298 H 593.747 -0.761598 -3.84632 0
M  V30 6299 H 595.237 0.173346 -4.1724 0
M  V30 6300 N 595.674 1.31259 -0.872281 0
M  V30 6301 C 597.09 1.49283 -0.564521 0
M  V30 6302 C 597.29 1.80243 0.900807 0
M  V30 6303 O 596.346 1.88246 1.68284 0
M  V30 6304 C 597.659 2.62503 -1.46673 0
M  V30 6305 C 599.207 2.76386 -1.46901 0
M  V30 6306 C 599.682 3.92705 -2.35684 0
M  V30 6307 N 601.173 3.99995 -2.33577 0
M  V30 6308 C 601.908 4.89276 -2.98992 0
M  V30 6309 N 601.404 5.83443 -3.73585 0
M  V30 6310 N 603.197 4.82541 -2.88289 0
M  V30 6311 H 595.348 1.09432 -1.82039 0
M  V30 6312 H 597.611 0.540949 -0.77851 0
M  V30 6313 H 597.317 2.46407 -2.50951 0
M  V30 6314 H 597.191 3.58695 -1.16696 0
M  V30 6315 H 599.578 2.91894 -0.433796 0
M  V30 6316 H 599.659 1.80853 -1.80903 0
M  V30 6317 H 599.303 3.77954 -3.39283 0
M  V30 6318 H 599.233 4.87549 -1.99006 0
M  V30 6319 H 601.724 3.32624 -1.7936 0
M  V30 6320 H 602.037 6.48303 -4.20622 0
M  V30 6321 H 600.382 5.83415 -3.77694 0
M  V30 6322 H 603.573 4.07951 -2.2955 0
M  V30 6323 H 603.746 5.51916 -3.39549 0
M  V30 6324 N 597.152 0.631951 1.44375 0
M  V30 6325 C 598.398 0.13697 2.02337 0
M  V30 6326 C 598.731 -1.23826 1.49602 0
M  V30 6327 O 598.006 -1.8221 0.680415 0
M  V30 6328 C 598.289 0.124536 3.59885 0
M  V30 6329 C 598.142 1.53217 4.229 0
M  V30 6330 C 599.461 -0.550481 4.36644 0
M  V30 6331 H 596.58 0.051247 0.735216 0
M  V30 6332 H 599.222 0.808581 1.71936 0
M  V30 6333 H 597.372 -0.44737 3.85916 0
M  V30 6334 H 599.044 2.15303 4.07973 0
M  V30 6335 H 597.287 2.0858 3.80364 0
M  V30 6336 H 597.958 1.4755 5.31914 0
M  V30 6337 H 600.434 -0.0641154 4.16051 0
M  V30 6338 H 599.31 -0.528371 5.46351 0
M  V30 6339 H 599.571 -1.62097 4.11311 0
M  V30 6340 N 598.631 -1.53133 0.372548 0
M  V30 6341 C 599.88 -2.00539 -0.216115 0
M  V30 6342 C 600.193 -1.26374 -1.49295 0
M  V30 6343 O 601.399 -1.64404 -2.16064 0
M  V30 6344 C 599.855 -3.57253 -0.435678 0
M  V30 6345 C 599.463 -4.40302 0.82693 0
M  V30 6346 C 601.207 -4.12995 -0.981618 0
M  V30 6347 C 599.114 -5.88583 0.576567 0
M  V30 6348 H 598.044 -0.749246 -0.084536 0
M  V30 6349 H 600.695 -1.76771 0.492364 0
M  V30 6350 H 599.077 -3.77202 -1.20559 0
M  V30 6351 H 600.251 -4.32124 1.60017 0
M  V30 6352 H 598.566 -3.95699 1.29659 0
M  V30 6353 H 601.163 -5.21418 -1.18436 0
M  V30 6354 H 601.506 -3.68027 -1.94581 0
M  V30 6355 H 602.039 -3.96871 -0.271696 0
M  V30 6356 H 598.778 -6.37841 1.51128 0
M  V30 6357 H 598.298 -5.99592 -0.158047 0
M  V30 6358 H 599.977 -6.46676 0.204722 0
M  V30 6359 N 600.109 -0.101901 -1.5727 0
M  V30 6360 C 601.019 0.868647 -2.17926 0
M  V30 6361 C 602.035 1.30527 -1.1506 0
M  V30 6362 O 603.211 1.37178 -1.47459 0
M  V30 6363 C 600.276 2.10727 -2.75309 0
M  V30 6364 C 599.337 1.7242 -3.93154 0
M  V30 6365 C 598.57 2.90377 -4.47791 0
M  V30 6366 O 598.793 4.05305 -4.01353 0
M  V30 6367 O 597.727 2.6845 -5.38719 0
M  V30 6368 H 601.553 0.382544 -3.01281 0
M  V30 6369 H 599.138 0.122812 -1.48894 0
M  V30 6370 H 601.02 2.83303 -3.11958 0
M  V30 6371 H 599.695 2.58376 -1.94996 0
M  V30 6372 H 598.602 0.970039 -3.61305 0
M  V30 6373 H 599.935 1.29528 -4.74851 0
M  V30 6374 N 601.587 1.56661 0.17182 0
M  V30 6375 C 602.864 1.72838 0.915778 0
M  V30 6376 C 603.244 0.66316 2.00413 0
M  V30 6377 O 602.592 -0.322123 2.26218 0
M  V30 6378 C 602.802 3.16019 1.48097 0
M  V30 6379 C 604.15 3.76962 1.95408 0
M  V30 6380 O 605.174 3.19294 1.57892 0
M  V30 6381 O 604.033 4.78219 2.64516 0
M  V30 6382 H 601.127 0.705797 0.431021 0
M  V30 6383 H 603.673 1.68947 0.159689 0
M  V30 6384 H 602.445 3.85031 0.697618 0
M  V30 6385 H 602.068 3.24234 2.30126 0
M  V30 6386 N 603.065 -0.440357 1.51323 0
M  V30 6387 C 604.013 -1.55492 1.72988 0
M  V30 6388 C 605.007 -1.58564 0.596138 0
M  V30 6389 O 606.213 -1.62345 0.777443 0
M  V30 6390 H 602.588 -0.516532 0.546533 0
M  V30 6391 H 604.559 -1.34392 2.66423 0
M  V30 6392 C 603.308 -2.93176 1.86931 0
M  V30 6393 H 602.631 -2.91543 2.73574 0
M  V30 6394 H 604.071 -3.70537 2.06103 0
M  V30 6395 C 602.53 -3.30988 0.628365 0
M  V30 6396 O 603.06 -4.01106 -0.218367 0
M  V30 6397 N 601.266 -2.86719 0.473339 0
M  V30 6398 H 600.813 -2.2983 1.16345 0
M  V30 6399 H 600.771 -3.12381 -0.355727 0
M  V30 6400 N 604.543 -1.41418 -0.695603 0
M  V30 6401 C 605.453 -1.45622 -1.83933 0
M  V30 6402 C 606.469 -0.346825 -1.70508 0
M  V30 6403 O 607.645 -0.59454 -1.92424 0
M  V30 6404 C 604.71 -1.33627 -3.19914 0
M  V30 6405 C 603.771 -2.54882 -3.45447 0
M  V30 6406 C 603.004 -2.43449 -4.7494 0
M  V30 6407 O 603.227 -1.45905 -5.51424 0
M  V30 6408 O 602.161 -3.33206 -5.01256 0
M  V30 6409 H 605.987 -2.42114 -1.83342 0
M  V30 6410 H 603.572 -1.22956 -0.848658 0
M  V30 6411 H 605.454 -1.29221 -4.01098 0
M  V30 6412 H 604.129 -0.402508 -3.21188 0
M  V30 6413 H 603.036 -2.64865 -2.64192 0
M  V30 6414 H 604.369 -3.47087 -3.48987 0
M  V30 6415 N 606.021 0.929856 -1.27246 0
M  V30 6416 C 607.251 1.70895 -1.16096 0
M  V30 6417 C 607.659 1.87039 0.285122 0
M  V30 6418 O 607.002 1.38557 1.20614 0
M  V30 6419 C 607.064 3.12919 -1.7698 0
M  V30 6420 C 606.728 3.2012 -3.26148 0
M  V30 6421 C 607.725 3.02533 -4.22812 0
M  V30 6422 C 605.41 3.43148 -3.66817 0
M  V30 6423 C 607.404 3.07861 -5.58122 0
M  V30 6424 C 605.091 3.48109 -5.02258 0
M  V30 6425 C 606.089 3.30483 -5.97721 0
M  V30 6426 O 605.777 3.35175 -7.30694 0
M  V30 6427 H 605.509 0.54152 -0.404639 0
M  V30 6428 H 608.063 1.17342 -1.68582 0
M  V30 6429 H 606.293 3.67945 -1.18969 0
M  V30 6430 H 607.982 3.72787 -1.60576 0
M  V30 6431 H 608.748 2.84586 -3.92728 0
M  V30 6432 H 604.627 3.55918 -2.9299 0
M  V30 6433 H 608.171 2.94021 -6.32612 0
M  V30 6434 H 604.068 3.65579 -5.31998 0
M  V30 6435 H 604.836 3.51644 -7.39114 0
M  V30 6436 N 607.499 1.09233 1.13605 0
M  V30 6437 C 608.727 0.848908 1.88683 0
M  V30 6438 C 609.142 -0.599667 1.79024 0
M  V30 6439 O 608.499 -1.41265 1.15544 0
M  V30 6440 C 608.55 1.27273 3.38355 0
M  V30 6441 O 608.271 2.66449 3.47759 0
M  V30 6442 C 609.772 1.0614 4.30406 0
M  V30 6443 H 606.992 0.305549 0.597395 0
M  V30 6444 H 609.536 1.4538 1.43823 0
M  V30 6445 H 607.691 0.711776 3.80805 0
M  V30 6446 H 608.105 2.84264 4.40788 0
M  V30 6447 H 609.579 1.40725 5.33761 0
M  V30 6448 H 610.056 -0.000960332 4.392 0
M  V30 6449 H 610.662 1.60821 3.93722 0
M  V30 6450 N 608.977 -1.30795 0.87923 0
M  V30 6451 C 609.94 -2.26563 0.346676 0
M  V30 6452 C 610.94 -1.52578 -0.507597 0
M  V30 6453 O 612.13 -1.71318 -0.315575 0
M  V30 6454 C 609.262 -3.37115 -0.506611 0
M  V30 6455 H 610.455 -2.75183 1.19223 0
M  V30 6456 H 608.008 -1.41886 0.655598 0
M  V30 6457 H 608.743 -2.93802 -1.37299 0
M  V30 6458 H 608.528 -3.91959 0.105218 0
M  V30 6459 H 610.018 -4.08412 -0.871192 0
M  V30 6460 N 610.455 -0.639598 -1.44038 0
M  V30 6461 C 611.871 -0.305953 -1.5664 0
M  V30 6462 C 612.071 1.19055 -1.62567 0
M  V30 6463 O 611.127 1.97492 -1.57331 0
M  V30 6464 C 612.44 -1.00533 -2.83397 0
M  V30 6465 C 613.988 -0.984278 -2.97121 0
M  V30 6466 C 614.463 -1.66428 -4.26691 0
M  V30 6467 N 615.954 -1.63127 -4.33525 0
M  V30 6468 C 616.689 -2.12629 -5.32519 0
M  V30 6469 N 616.185 -2.70359 -6.3787 0
M  V30 6470 N 617.978 -2.03208 -5.24083 0
M  V30 6471 H 610.129 -1.6109 -1.38434 0
M  V30 6472 H 612.392 -0.676672 -0.663942 0
M  V30 6473 H 612.098 -2.06034 -2.85032 0
M  V30 6474 H 611.972 -0.548362 -3.73193 0
M  V30 6475 H 614.359 0.0622792 -2.95034 0
M  V30 6476 H 614.44 -1.47981 -2.08651 0
M  V30 6477 H 614.084 -2.71034 -4.29538 0
M  V30 6478 H 614.014 -1.14351 -5.14034 0
M  V30 6479 H 616.505 -1.20987 -3.58009 0
M  V30 6480 H 616.818 -3.05842 -7.09704 0
M  V30 6481 H 615.163 -2.74414 -6.38531 0
M  V30 6482 H 618.354 -1.57823 -4.40692 0
M  V30 6483 H 618.527 -2.42097 -6.01077 0
M  V30 6484 N 611.933 1.52934 -0.380664 0
M  V30 6485 C 612.843 2.29921 0.466192 0
M  V30 6486 C 613.859 1.36488 1.07922 0
M  V30 6487 O 615.035 1.69553 1.0869 0
M  V30 6488 C 612.1 3.08468 1.58266 0
M  V30 6489 C 611.161 4.17595 0.995627 0
M  V30 6490 C 610.394 4.92387 2.05889 0
M  V30 6491 O 610.617 4.67184 3.27254 0
M  V30 6492 O 609.551 5.77949 1.68102 0
M  V30 6493 H 613.377 3.03274 -0.160735 0
M  V30 6494 H 610.962 1.48698 -0.144617 0
M  V30 6495 H 612.844 3.57469 2.23145 0
M  V30 6496 H 611.519 2.37937 2.19471 0
M  V30 6497 H 610.426 3.72811 0.310332 0
M  V30 6498 H 611.759 4.90336 0.427918 0
M  V30 6499 N 613.412 0.11024 1.57214 0
M  V30 6500 C 614.66 -0.548783 1.94506 0
M  V30 6501 C 614.981 -1.67772 0.99386 0
M  V30 6502 O 614.251 -1.9584 0.0485841 0
M  V30 6503 H 612.831 -0.205715 0.718116 0
M  V30 6504 H 615.493 0.177127 1.94093 0
M  V30 6505 H 614.589 -0.949096 2.97319 0
M  V30 6506 N 614.89 -1.56749 -0.16351 0
M  V30 6507 C 615.853 -1.96121 -1.18613 0
M  V30 6508 C 616.853 -0.845765 -1.36761 0
M  V30 6509 O 618.043 -1.11268 -1.34033 0
M  V30 6510 C 615.175 -2.26282 -2.54969 0
M  V30 6511 H 616.368 -2.87639 -0.848764 0
M  V30 6512 H 613.921 -1.50928 -0.406251 0
M  V30 6513 H 614.656 -1.37504 -2.93706 0
M  V30 6514 H 614.441 -3.07595 -2.43162 0
M  V30 6515 H 615.931 -2.57638 -3.28653 0
M  V30 6516 N 616.368 0.432326 -1.51554 0
M  V30 6517 C 617.315 1.52512 -1.7323 0
M  V30 6518 C 618.285 1.55863 -0.5741 0
M  V30 6519 O 619.47 1.72796 -0.809093 0
M  V30 6520 C 616.61 2.90183 -1.86783 0
M  V30 6521 C 615.723 2.96322 -3.14352 0
M  V30 6522 C 614.858 4.25147 -3.18471 0
M  V30 6523 C 613.897 4.25172 -4.40335 0
M  V30 6524 N 613.034 5.45529 -4.41975 0
M  V30 6525 H 617.874 1.33332 -2.66508 0
M  V30 6526 H 615.411 0.647613 -1.32077 0
M  V30 6527 H 617.369 3.70071 -1.92623 0
M  V30 6528 H 615.999 3.0791 -0.969087 0
M  V30 6529 H 615.051 2.09066 -3.17798 0
M  V30 6530 H 616.363 2.92203 -4.04251 0
M  V30 6531 H 615.517 5.13411 -3.23255 0
M  V30 6532 H 614.256 4.31929 -2.2647 0
M  V30 6533 H 613.261 3.353 -4.35723 0
M  V30 6534 H 614.486 4.20049 -5.33606 0
M  V30 6535 H 612.432 5.53024 -3.52847 0
M  V30 6536 H 612.349 5.43311 -5.25689 0
M  V30 6537 H 613.617 6.35812 -4.50958 0
M  V30 6538 N 617.846 1.41785 0.688094 0
M  V30 6539 C 619.093 1.41544 1.44816 0
M  V30 6540 C 619.421 0.0271746 1.94481 0
M  V30 6541 O 618.676 -0.962235 1.7041 0
M  V30 6542 C 618.975 2.37532 2.67046 0
M  V30 6543 C 618.641 3.84209 2.35996 0
M  V30 6544 C 617.303 4.24165 2.27239 0
M  V30 6545 C 619.655 4.76785 2.10536 0
M  V30 6546 C 616.983 5.54695 1.91128 0
M  V30 6547 C 619.335 6.07644 1.75931 0
M  V30 6548 C 617.999 6.46613 1.65675 0
M  V30 6549 H 617.269 0.517945 0.529919 0
M  V30 6550 H 619.916 1.74635 0.785797 0
M  V30 6551 H 618.221 1.9772 3.38251 0
M  V30 6552 H 619.918 2.34615 3.25203 0
M  V30 6553 H 616.508 3.52567 2.4371 0
M  V30 6554 H 620.692 4.46714 2.16242 0
M  V30 6555 H 615.948 5.83762 1.81746 0
M  V30 6556 H 620.122 6.78874 1.55252 0
M  V30 6557 H 617.749 7.47668 1.37463 0
M  V30 6558 N 619.324 -0.923095 1.27737 0
M  V30 6559 C 620.735 -1.48626 1.12993 0
M  V30 6560 C 621.086 -1.94142 -0.283439 0
M  V30 6561 O 620.211 -1.81605 -1.17681 0
M  V30 6562 C 620.806 -2.70117 2.04505 0
M  V30 6563 C 619.365 -3.22642 1.93853 0
M  V30 6564 C 618.512 -1.95368 1.96791 0
M  V30 6565 H 621.463 -0.736737 1.40563 0
M  V30 6566 H 621.484 -3.4506 1.60356 0
M  V30 6567 H 620.996 -2.36959 3.07363 0
M  V30 6568 H 619.097 -3.60549 0.939968 0
M  V30 6569 H 619.21 -3.88525 2.80331 0
M  V30 6570 H 617.574 -2.12061 1.41076 0
M  V30 6571 H 618.357 -1.64517 3.01312 0
M  V30 6572 N 620.802 -1.09834 -1.13024 0
M  V30 6573 C 622.051 -0.831806 -1.83749 0
M  V30 6574 C 622.364 0.644763 -1.84668 0
M  V30 6575 O 623.57 1.02697 -2.51327 0
M  V30 6576 C 622.026 -1.43817 -3.29916 0
M  V30 6577 C 621.634 -2.94759 -3.37374 0
M  V30 6578 C 623.378 -1.25077 -4.05655 0
M  V30 6579 C 621.285 -3.48461 -4.77838 0
M  V30 6580 H 620.215 -0.30751 -0.688443 0
M  V30 6581 H 622.866 -1.32156 -1.27307 0
M  V30 6582 H 621.248 -0.876106 -3.86187 0
M  V30 6583 H 622.422 -3.57228 -2.91076 0
M  V30 6584 H 620.737 -3.12581 -2.75103 0
M  V30 6585 H 623.334 -1.62649 -5.09362 0
M  V30 6586 H 623.677 -0.191782 -4.15858 0
M  V30 6587 H 624.21 -1.78057 -3.55725 0
M  V30 6588 H 620.949 -4.53998 -4.72828 0
M  V30 6589 H 620.469 -2.90757 -5.24615 0
M  V30 6590 H 622.148 -3.45914 -5.46766 0
M  V30 6591 N 622.28 1.30327 -0.886154 0
M  V30 6592 C 623.227 2.28099 -0.352069 0
M  V30 6593 C 624.197 1.56433 0.558397 0
M  V30 6594 O 625.382 1.84492 0.486561 0
M  V30 6595 C 622.522 3.42456 0.426346 0
M  V30 6596 C 621.635 4.28938 -0.513472 0
M  V30 6597 C 620.77 5.30458 0.280657 0
M  V30 6598 C 619.809 6.0859 -0.654556 0
M  V30 6599 N 618.946 7.02022 0.104322 0
M  V30 6600 H 623.786 2.73166 -1.19097 0
M  V30 6601 H 621.323 1.34367 -0.598662 0
M  V30 6602 H 623.281 4.07518 0.893587 0
M  V30 6603 H 621.911 2.98455 1.22981 0
M  V30 6604 H 620.963 3.64173 -1.09921 0
M  V30 6605 H 622.275 4.83399 -1.2299 0
M  V30 6606 H 621.429 6.01273 0.8097 0
M  V30 6607 H 620.168 4.76693 1.03029 0
M  V30 6608 H 619.173 5.36651 -1.19522 0
M  V30 6609 H 620.398 6.64443 -1.4033 0
M  V30 6610 H 618.344 6.50645 0.836472 0
M  V30 6611 H 618.261 7.53979 -0.552453 0
M  V30 6612 H 619.529 7.77077 0.614069 0
M  V30 6613 N 623.758 0.647228 1.43697 0
M  V30 6614 C 625.004 0.167001 2.02713 0
M  V30 6615 C 625.359 -1.20351 1.50111 0
M  V30 6616 O 624.652 -1.79047 0.682113 0
M  V30 6617 C 624.846 0.111481 3.57226 0
M  V30 6618 C 624.675 1.47507 4.2482 0
M  V30 6619 C 623.445 2.06594 4.61137 0
M  V30 6620 C 625.643 2.41224 4.54219 0
M  V30 6621 N 623.625 3.3602 5.13774 0
M  V30 6622 C 624.996 3.55278 5.08112 0
M  V30 6623 C 627.051 2.40102 4.36183 0
M  V30 6624 C 625.754 4.68426 5.45866 0
M  V30 6625 C 627.78 3.52326 4.74995 0
M  V30 6626 C 627.142 4.65104 5.29015 0
M  V30 6627 H 623.241 0.105402 0.774864 0
M  V30 6628 H 625.825 0.854229 1.7496 0
M  V30 6629 H 623.996 -0.545073 3.84556 0
M  V30 6630 H 625.728 -0.379063 4.02921 0
M  V30 6631 H 622.483 1.59366 4.45981 0
M  V30 6632 H 622.907 4.02233 5.44552 0
M  V30 6633 H 627.549 1.54151 3.93697 0
M  V30 6634 H 625.267 5.55074 5.87298 0
M  V30 6635 H 628.853 3.52652 4.6274 0
M  V30 6636 H 627.733 5.50506 5.58492 0
M  V30 6637 N 625.236 -1.5273 0.388769 0
M  V30 6638 C 626.464 -2.05992 -0.193677 0
M  V30 6639 C 626.879 -1.26053 -1.40557 0
M  V30 6640 O 626.236 -0.307049 -1.79898 0
M  V30 6641 C 626.287 -3.57068 -0.564321 0
M  V30 6642 O 626.008 -4.3398 0.599422 0
M  V30 6643 C 627.509 -4.26674 -1.20269 0
M  V30 6644 H 624.729 -0.670358 -0.0293445 0
M  V30 6645 H 627.273 -1.96857 0.553844 0
M  V30 6646 H 625.428 -3.66277 -1.26174 0
M  V30 6647 H 625.842 -5.2367 0.294895 0
M  V30 6648 H 627.316 -5.33625 -1.4124 0
M  V30 6649 H 627.793 -3.81854 -2.16989 0
M  V30 6650 H 628.399 -4.2178 -0.546047 0
M  V30 6651 N 626.714 -0.118576 -1.57153 0
M  V30 6652 C 627.677 0.817464 -2.14127 0
M  V30 6653 C 628.677 1.1949 -1.07604 0
M  V30 6654 O 629.867 1.12048 -1.33382 0
M  V30 6655 C 626.999 2.10541 -2.68115 0
M  V30 6656 H 628.192 0.322339 -2.98163 0
M  V30 6657 H 625.745 0.130655 -1.55753 0
M  V30 6658 H 626.48 2.64485 -1.87665 0
M  V30 6659 H 626.265 1.84425 -3.4602 0
M  V30 6660 H 627.755 2.77453 -3.12105 0
M  V30 6661 N 628.193 1.56834 0.155195 0
M  V30 6662 C 629.604 1.72421 0.716082 0
M  V30 6663 C 629.955 0.731685 1.82046 0
M  V30 6664 O 629.08 -0.103481 2.16152 0
M  V30 6665 C 629.675 3.12629 1.30571 0
M  V30 6666 C 628.234 3.29846 1.81325 0
M  V30 6667 C 627.381 2.68359 0.698494 0
M  V30 6668 H 630.332 1.58544 -0.0703861 0
M  V30 6669 H 630.353 3.12174 2.1755 0
M  V30 6670 H 629.865 3.84844 0.501701 0
M  V30 6671 H 627.966 2.62614 2.64319 0
M  V30 6672 H 628.079 4.37727 1.9476 0
M  V30 6673 H 626.443 2.28604 1.12305 0
M  V30 6674 H 627.226 3.43171 -0.0939366 0
M  V30 6675 N 629.671 -0.424282 1.51781 0
M  V30 6676 C 630.581 -1.54087 1.76902 0
M  V30 6677 C 631.597 -1.61249 0.653826 0
M  V30 6678 O 632.773 -1.78247 0.937552 0
M  V30 6679 C 629.838 -2.8996 1.90063 0
M  V30 6680 C 628.899 -2.92809 3.13945 0
M  V30 6681 C 628.132 -4.22201 3.26469 0
M  V30 6682 O 628.355 -5.15286 2.44616 0
M  V30 6683 O 627.289 -4.31599 4.1953 0
M  V30 6684 H 631.115 -1.358 2.71647 0
M  V30 6685 H 628.7 -0.608618 1.36441 0
M  V30 6686 H 630.582 -3.70575 2.0063 0
M  V30 6687 H 629.257 -3.08347 0.985067 0
M  V30 6688 H 628.164 -2.11102 3.08847 0
M  V30 6689 H 629.497 -2.79369 4.05233 0
M  V30 6690 N 631.149 -1.42148 -0.680565 0
M  V30 6691 C 632.112 -1.4488 -1.77602 0
M  V30 6692 C 633.112 -0.337209 -1.57224 0
M  V30 6693 O 634.302 -0.597778 -1.63622 0
M  V30 6694 C 631.434 -1.27483 -3.16166 0
M  V30 6695 H 632.627 -2.42412 -1.76568 0
M  V30 6696 H 630.18 -1.28511 -0.889645 0
M  V30 6697 H 630.915 -0.30851 -3.22829 0
M  V30 6698 H 630.7 -2.08037 -3.3236 0
M  V30 6699 H 632.19 -1.32265 -3.96101 0
M  V30 6700 N 632.627 0.916307 -1.28225 0
M  V30 6701 C 633.876 1.65975 -1.14608 0
M  V30 6702 C 634.189 1.93204 0.305191 0
M  V30 6703 O 635.395 2.65611 0.562432 0
M  V30 6704 C 633.851 2.98989 -2.00333 0
M  V30 6705 C 633.459 2.79417 -3.50186 0
M  V30 6706 C 635.203 3.76856 -1.95397 0
M  V30 6707 C 633.11 4.08056 -4.28071 0
M  V30 6708 H 632.04 0.622587 -0.425324 0
M  V30 6709 H 634.691 1.01705 -1.52736 0
M  V30 6710 H 633.073 3.6438 -1.5506 0
M  V30 6711 H 634.247 2.22723 -4.034 0
M  V30 6712 H 632.562 2.14966 -3.56621 0
M  V30 6713 H 635.159 4.72203 -2.50856 0
M  V30 6714 H 635.502 4.05776 -0.930137 0
M  V30 6715 H 636.035 3.1828 -2.38626 0
M  V30 6716 H 632.774 3.8431 -5.31024 0
M  V30 6717 H 632.294 4.64371 -3.79631 0
M  V30 6718 H 633.973 4.76333 -4.37854 0
M  V30 6719 N 634.105 1.10431 1.1244 0
M  V30 6720 C 635.053 0.747974 2.20246 0
M  V30 6721 C 636.047 -0.255848 1.67457 0
M  V30 6722 O 637.253 -0.116221 1.79624 0
M  V30 6723 H 633.628 0.223946 0.71788 0
M  V30 6724 H 635.599 1.6661 2.47556 0
M  V30 6725 C 634.348 0.195957 3.47147 0
M  V30 6726 H 633.671 0.959606 3.88113 0
M  V30 6727 H 635.111 -0.0153154 4.23997 0
M  V30 6728 C 633.57 -1.07132 3.19413 0
M  V30 6729 O 634.1 -2.15284 3.3914 0
M  V30 6730 N 632.306 -0.98994 2.73219 0
M  V30 6731 H 631.853 -0.109736 2.57366 0
M  V30 6732 H 631.811 -1.83856 2.55038 0
M  V30 6733 N 635.583 -1.29855 0.893053 0
M  V30 6734 C 636.83 -1.95826 0.515585 0
M  V30 6735 C 637.158 -1.70451 -0.936842 0
M  V30 6736 O 636.413 -1.00657 -1.67829 0
M  V30 6737 C 636.712 -3.49515 0.746588 0
M  V30 6738 C 636.378 -3.94955 2.17535 0
M  V30 6739 C 635.04 -4.07073 2.56603 0
M  V30 6740 C 637.392 -4.18536 3.10607 0
M  V30 6741 C 634.72 -4.40138 3.87938 0
M  V30 6742 C 637.072 -4.53073 4.41484 0
M  V30 6743 C 635.736 -4.634 4.80434 0
M  V30 6744 H 635.006 -0.71658 0.188666 0
M  V30 6745 H 637.653 -1.54574 1.13045 0
M  V30 6746 H 635.958 -3.9177 0.0487551 0
M  V30 6747 H 637.655 -3.98644 0.434009 0
M  V30 6748 H 634.245 -3.86035 1.86212 0
M  V30 6749 H 638.429 -4.08646 2.81641 0
M  V30 6750 H 633.685 -4.46335 4.17846 0
M  V30 6751 H 637.859 -4.70269 5.13634 0
M  V30 6752 H 635.486 -4.88775 5.82239 0
M  V30 6753 N 637.061 -0.65484 -1.43351 0
M  V30 6754 C 638.309 -0.168559 -2.01396 0
M  V30 6755 C 638.63 1.22235 -1.51933 0
M  V30 6756 O 637.9 1.81685 -0.732627 0
M  V30 6757 H 636.48 -0.0593244 -0.744641 0
M  V30 6758 H 639.142 -0.846871 -1.75539 0
M  V30 6759 H 638.238 -0.154428 -3.11718 0
M  V30 6760 N 638.539 1.52521 -0.396863 0
M  V30 6761 C 639.764 2.06571 0.185258 0
M  V30 6762 C 640.189 1.26605 1.39115 0
M  V30 6763 O 639.547 0.293055 1.78916 0
M  V30 6764 C 639.595 3.5674 0.526189 0
M  V30 6765 O 638.699 3.7929 1.61903 0
M  V30 6766 H 638.04 0.663712 0.0195474 0
M  V30 6767 H 640.57 1.966 -0.566519 0
M  V30 6768 H 640.58 4.00311 0.788338 0
M  V30 6769 H 639.255 4.14379 -0.355397 0
M  V30 6770 H 637.832 3.47605 1.35 0
M  V30 6771 N 640.017 0.126909 1.57088 0
M  V30 6772 C 641.264 -0.529168 1.95464 0
M  V30 6773 C 641.592 -1.6618 1.01067 0
M  V30 6774 O 640.847 -1.95667 0.0360254 0
M  V30 6775 C 641.146 -1.095 3.40212 0
M  V30 6776 C 640.812 -0.0829015 4.50824 0
M  V30 6777 C 639.474 0.195377 4.80803 0
M  V30 6778 C 641.826 0.606411 5.1766 0
M  V30 6779 C 639.154 1.16912 5.74933 0
M  V30 6780 C 641.506 1.56884 6.12838 0
M  V30 6781 C 640.17 1.85502 6.41206 0
M  V30 6782 H 639.44 -0.193636 0.715252 0
M  V30 6783 H 642.087 0.209489 1.90351 0
M  V30 6784 H 640.392 -1.91058 3.42059 0
M  V30 6785 H 642.089 -1.61087 3.67222 0
M  V30 6786 H 638.679 -0.309979 4.27478 0
M  V30 6787 H 642.863 0.404597 4.94648 0
M  V30 6788 H 638.119 1.3975 5.95214 0
M  V30 6789 H 642.293 2.10859 6.6371 0
M  V30 6790 H 639.92 2.61109 7.13951 0
M  V30 6791 N 641.495 -1.56914 -0.146875 0
M  V30 6792 C 642.723 -1.87515 -0.874394 0
M  V30 6793 C 643.138 -0.715116 -1.74733 0
M  V30 6794 O 642.495 0.315113 -1.79759 0
M  V30 6795 C 642.546 -3.17362 -1.731 0
M  V30 6796 O 642.267 -4.28897 -0.893245 0
M  V30 6797 C 643.768 -3.61479 -2.56609 0
M  V30 6798 H 640.988 -0.621546 -0.252827 0
M  V30 6799 H 643.532 -2.04023 -0.139627 0
M  V30 6800 H 641.687 -3.02608 -2.41883 0
M  V30 6801 H 642.101 -5.03146 -1.48137 0
M  V30 6802 H 643.575 -4.5517 -3.12289 0
M  V30 6803 H 644.052 -2.86773 -3.32653 0
M  V30 6804 H 644.658 -3.78927 -1.93117 0
M  V30 6805 N 642.974 0.416227 -1.52004 0
M  V30 6806 C 644.223 1.16088 -1.64944 0
M  V30 6807 C 644.536 1.91835 -0.381928 0
M  V30 6808 O 645.742 2.6867 -0.391013 0
M  V30 6809 C 644.198 2.1124 -2.91386 0
M  V30 6810 C 643.806 1.41042 -4.25219 0
M  V30 6811 C 645.55 2.86008 -3.13688 0
M  V30 6812 C 643.457 2.34801 -5.42791 0
M  V30 6813 H 642.387 0.437041 -0.61442 0
M  V30 6814 H 645.038 0.425971 -1.78487 0
M  V30 6815 H 643.42 2.88254 -2.71525 0
M  V30 6816 H 644.594 0.694416 -4.55538 0
M  V30 6817 H 642.909 0.78344 -4.08964 0
M  V30 6818 H 645.506 3.56286 -3.98703 0
M  V30 6819 H 645.849 3.48556 -2.27628 0
M  V30 6820 H 646.382 2.16095 -3.33988 0
M  V30 6821 H 643.121 1.7691 -6.31176 0
M  V30 6822 H 642.641 3.04395 -5.16821 0
M  V30 6823 H 644.32 2.9548 -5.75587 0
M  V30 6824 N 644.452 1.42507 0.673017 0
M  V30 6825 C 645.399 1.46124 1.78651 0
M  V30 6826 C 646.369 0.313007 1.63124 0
M  V30 6827 O 647.554 0.517337 1.83653 0
M  V30 6828 C 644.694 1.3711 3.16694 0
M  V30 6829 C 643.807 2.61983 3.43495 0
M  V30 6830 C 642.942 2.45098 4.71275 0
M  V30 6831 C 641.981 3.65336 4.91117 0
M  V30 6832 N 641.118 3.47383 6.10139 0
M  V30 6833 H 645.958 2.4128 1.74895 0
M  V30 6834 H 643.495 1.19788 0.853766 0
M  V30 6835 H 645.453 1.29881 3.96468 0
M  V30 6836 H 644.083 0.45549 3.1957 0
M  V30 6837 H 643.135 2.79571 2.57961 0
M  V30 6838 H 644.447 3.51355 3.5405 0
M  V30 6839 H 643.601 2.35466 5.59143 0
M  V30 6840 H 642.34 1.53219 4.63007 0
M  V30 6841 H 641.345 3.754 4.0169 0
M  V30 6842 H 642.57 4.58199 5.01229 0
M  V30 6843 H 640.516 2.58222 6.0304 0
M  V30 6844 H 640.433 4.30344 6.21563 0
M  V30 6845 H 641.701 3.41565 7.00681 0
M  V30 6846 N 645.93 -0.909495 1.28709 0
M  V30 6847 C 647.155 -1.69801 1.1909 0
M  V30 6848 C 647.58 -1.86479 -0.246388 0
M  V30 6849 O 646.938 -1.37802 -1.17815 0
M  V30 6850 C 646.986 -3.06543 1.89904 0
M  V30 6851 O 646.09 -3.94268 1.2094 0
M  V30 6852 H 645.431 -0.519783 0.413185 0
M  V30 6853 H 647.961 -1.13689 1.70106 0
M  V30 6854 H 647.971 -3.56748 1.97977 0
M  V30 6855 H 646.646 -2.93722 2.94449 0
M  V30 6856 H 645.223 -3.52702 1.2106 0
M  V30 6857 N 647.408 -1.11026 -1.11852 0
M  V30 6858 C 648.685 -0.768347 -1.79877 0
M  V30 6859 C 649.065 0.744261 -1.97545 0
M  V30 6860 O 648.413 1.67271 -1.55669 0
M  V30 6861 C 648.623 -1.52648 -3.13846 0
M  V30 6862 C 649.971 -1.70297 -3.88953 0
M  V30 6863 O 650.995 -1.49037 -3.23522 0
M  V30 6864 O 649.854 -2.05593 -5.06353 0
M  V30 6865 H 646.948 -0.277891 -0.778913 0
M  V30 6866 H 649.494 -1.21343 -1.18633 0
M  V30 6867 H 648.266 -2.55564 -2.96315 0
M  V30 6868 H 647.889 -1.07466 -3.82801 0
M  V30 6869 N 648.886 1.2938 -0.899927 0
M  V30 6870 C 650.132 1.9584 -0.526742 0
M  V30 6871 C 650.465 1.70774 0.924651 0
M  V30 6872 O 649.74 1.02084 1.65557 0
M  V30 6873 C 650.023 3.50638 -0.820062 0
M  V30 6874 C 649.876 3.85161 -2.32317 0
M  V30 6875 C 651.195 4.3903 -0.30671 0
M  V30 6876 H 648.314 0.711322 -0.192848 0
M  V30 6877 H 650.956 1.52992 -1.12665 0
M  V30 6878 H 649.106 3.87265 -0.309491 0
M  V30 6879 H 650.778 3.58477 -2.9033 0
M  V30 6880 H 649.021 3.32696 -2.78381 0
M  V30 6881 H 649.692 4.93204 -2.47898 0
M  V30 6882 H 652.168 4.09396 -0.743908 0
M  V30 6883 H 651.044 5.46226 -0.541144 0
M  V30 6884 H 651.305 4.34937 0.792588 0
M  V30 6885 N 650.364 0.662433 1.43002 0
M  V30 6886 C 651.61 0.188492 2.02525 0
M  V30 6887 C 651.965 -1.18752 1.51379 0
M  V30 6888 O 651.258 -1.78313 0.701065 0
M  V30 6889 C 651.452 0.149363 3.57088 0
M  V30 6890 C 651.281 1.52004 4.23231 0
M  V30 6891 C 650.051 2.11473 4.5892 0
M  V30 6892 C 652.249 2.46028 4.51635 0
M  V30 6893 N 650.231 3.4145 5.10181 0
M  V30 6894 C 651.602 3.60647 5.04315 0
M  V30 6895 C 653.657 2.44715 4.33612 0
M  V30 6896 C 652.36 4.74189 5.40867 0
M  V30 6897 C 654.386 3.57344 4.71232 0
M  V30 6898 C 653.748 4.70689 5.24053 0
M  V30 6899 H 649.847 0.113615 0.773703 0
M  V30 6900 H 652.431 0.872738 1.74044 0
M  V30 6901 H 650.602 -0.504255 3.85113 0
M  V30 6902 H 652.334 -0.336307 4.033 0
M  V30 6903 H 649.089 1.64087 4.44266 0
M  V30 6904 H 649.513 4.07987 5.40255 0
M  V30 6905 H 654.155 1.58318 3.9204 0
M  V30 6906 H 651.873 5.61271 5.81378 0
M  V30 6907 H 655.459 3.5754 4.58973 0
M  V30 6908 H 654.339 5.56398 5.52621 0
M  V30 6909 N 651.842 -1.52309 0.404946 0
M  V30 6910 C 653.067 -2.06666 -0.1743 0
M  V30 6911 C 653.492 -1.27341 -1.38441 0
M  V30 6912 O 652.85 -0.302539 -1.78758 0
M  V30 6913 C 652.898 -3.57014 -0.507262 0
M  V30 6914 O 652.002 -3.80144 -1.59889 0
M  V30 6915 H 651.343 -0.663807 -0.0160273 0
M  V30 6916 H 653.873 -1.96297 0.576937 0
M  V30 6917 H 653.883 -4.00724 -0.767098 0
M  V30 6918 H 652.558 -4.14184 0.377368 0
M  V30 6919 H 651.135 -3.48316 -1.33155 0
M  V30 6920 N 653.32 -0.135238 -1.57019 0
M  V30 6921 C 654.567 0.518794 -1.95742 0
M  V30 6922 C 654.895 1.65642 -1.01947 0
M  V30 6923 O 654.15 1.95645 -0.0464016 0
M  V30 6924 C 654.449 1.07694 -3.40788 0
M  V30 6925 C 654.115 0.058992 -4.50861 0
M  V30 6926 C 652.777 -0.220872 -4.80693 0
M  V30 6927 C 655.129 -0.633856 -5.17331 0
M  V30 6928 C 652.457 -1.19959 -5.74305 0
M  V30 6929 C 654.809 -1.60131 -6.11997 0
M  V30 6930 C 653.473 -1.889 -6.40213 0
M  V30 6931 H 652.743 0.18984 -0.716269 0
M  V30 6932 H 655.39 -0.219581 -1.90237 0
M  V30 6933 H 653.695 1.89241 -3.43067 0
M  V30 6934 H 655.392 1.59137 -3.68071 0
M  V30 6935 H 651.982 0.287304 -4.27636 0
M  V30 6936 H 656.166 -0.430823 -4.94427 0
M  V30 6937 H 651.422 -1.42905 -5.94465 0
M  V30 6938 H 655.596 -2.14376 -6.62583 0
M  V30 6939 H 653.223 -2.64891 -7.12556 0
M  V30 6940 N 654.798 1.5699 0.138552 0
M  V30 6941 C 656.046 1.83446 0.848053 0
M  V30 6942 C 656.367 0.71744 1.81322 0
M  V30 6943 O 655.637 -0.260228 1.94164 0
M  V30 6944 H 654.217 0.676792 0.316166 0
M  V30 6945 H 656.879 1.94462 0.130538 0
M  V30 6946 H 655.975 2.78677 1.40518 0
M  V30 6947 N 656.276 -0.40816 1.52223 0
M  V30 6948 C 657.525 -1.15212 1.65557 0
M  V30 6949 C 657.838 -1.9163 0.392096 0
M  V30 6950 O 659.044 -2.68458 0.405256 0
M  V30 6951 C 657.5 -2.09691 2.92502 0
M  V30 6952 C 657.108 -1.38785 4.25961 0
M  V30 6953 C 658.852 -2.8434 3.152 0
M  V30 6954 C 656.759 -2.31919 5.44029 0
M  V30 6955 H 655.689 -0.433776 0.616729 0
M  V30 6956 H 658.34 -0.4165 1.78711 0
M  V30 6957 H 656.722 -2.8681 2.7305 0
M  V30 6958 H 657.896 -0.670248 4.55899 0
M  V30 6959 H 656.211 -0.761741 4.09373 0
M  V30 6960 H 658.808 -3.54166 4.00587 0
M  V30 6961 H 659.151 -3.47344 2.29473 0
M  V30 6962 H 659.684 -2.14321 3.35129 0
M  V30 6963 H 656.423 -1.7356 6.32105 0
M  V30 6964 H 655.943 -3.0165 5.18428 0
M  V30 6965 H 657.622 -2.92424 5.77146 0
M  V30 6966 N 657.755 -1.42862 -0.66545 0
M  V30 6967 C 658.685 -1.49867 -1.79059 0
M  V30 6968 C 659.666 -0.354394 -1.66367 0
M  V30 6969 O 660.851 -0.569969 -1.85647 0
M  V30 6970 C 657.981 -1.40943 -3.17415 0
M  V30 6971 C 656.935 -2.53495 -3.44854 0
M  V30 6972 C 656.261 -2.29626 -4.82883 0
M  V30 6973 C 657.561 -3.95781 -3.40815 0
M  V30 6974 H 659.255 -2.44037 -1.73453 0
M  V30 6975 H 656.801 -1.17456 -0.833071 0
M  V30 6976 H 658.754 -1.4445 -3.95869 0
M  V30 6977 H 657.478 -0.432716 -3.23721 0
M  V30 6978 H 656.137 -2.4932 -2.68766 0
M  V30 6979 H 655.785 -1.30226 -4.8585 0
M  V30 6980 H 655.485 -3.05065 -5.02204 0
M  V30 6981 H 657.009 -2.34897 -5.63609 0
M  V30 6982 H 658.423 -4.01508 -4.09224 0
M  V30 6983 H 656.82 -4.71148 -3.71672 0
M  V30 6984 H 657.89 -4.21786 -2.39216 0
M  V30 6985 N 659.233 0.902656 -1.29189 0
M  V30 6986 C 660.163 2.02294 -1.16616 0
M  V30 6987 C 661.144 1.6999 -0.0611175 0
M  V30 6988 O 662.329 1.9271 -0.240072 0
M  V30 6989 C 659.459 3.37018 -0.83882 0
M  V30 6990 C 658.413 3.83522 -1.89986 0
M  V30 6991 C 657.739 5.15337 -1.42589 0
M  V30 6992 C 659.039 4.04169 -3.30824 0
M  V30 6993 H 660.733 2.13071 -2.10336 0
M  V30 6994 H 658.279 1.02378 -1.01266 0
M  V30 6995 H 660.232 4.14895 -0.737584 0
M  V30 6996 H 658.956 3.26325 0.134071 0
M  V30 6997 H 657.615 3.07859 -1.99043 0
M  V30 6998 H 657.263 5.01056 -0.441759 0
M  V30 6999 H 656.963 5.47423 -2.13547 0
M  V30 7000 H 658.487 5.95758 -1.3381 0
M  V30 7001 H 659.901 4.72537 -3.24626 0
M  V30 7002 H 658.298 4.47604 -3.99713 0
M  V30 7003 H 659.368 3.08604 -3.74021 0
M  V30 7004 N 660.711 1.11618 1.11262 0
M  V30 7005 C 661.644 0.719995 2.16544 0
M  V30 7006 C 662.622 -0.28471 1.60088 0
M  V30 7007 O 663.806 -0.180693 1.87632 0
M  V30 7008 C 660.933 0.0643302 3.38639 0
M  V30 7009 C 659.979 1.03448 4.13764 0
M  V30 7010 S 660.812 2.55789 4.70459 0
M  V30 7011 C 661.968 1.91529 5.95875 0
M  V30 7012 H 662.201 1.61181 2.49816 0
M  V30 7013 H 659.734 0.934401 1.22916 0
M  V30 7014 H 661.692 -0.307609 4.09346 0
M  V30 7015 H 660.353 -0.804471 3.03623 0
M  V30 7016 H 659.546 0.523188 5.01277 0
M  V30 7017 H 659.148 1.34893 3.48826 0
M  V30 7018 H 661.44 1.25286 6.65815 0
M  V30 7019 H 662.383 2.77047 6.51652 0
M  V30 7020 H 662.791 1.37468 5.47506 0
M  V30 7021 N 662.189 -1.289 0.906776 0
M  V30 7022 C 663.099 -2.31256 0.394707 0
M  V30 7023 C 664.115 -1.66231 -0.514121 0
M  V30 7024 O 665.291 -1.97347 -0.401994 0
M  V30 7025 C 662.356 -3.44792 -0.363191 0
M  V30 7026 C 661.417 -4.25391 0.578012 0
M  V30 7027 C 660.65 -5.33506 -0.143811 0
M  V30 7028 O 660.873 -5.53786 -1.36665 0
M  V30 7029 O 659.807 -5.99673 0.5173 0
M  V30 7030 H 663.633 -2.77051 1.24405 0
M  V30 7031 H 661.218 -1.33466 0.671346 0
M  V30 7032 H 663.1 -4.139 -0.791503 0
M  V30 7033 H 661.775 -3.01093 -1.18848 0
M  V30 7034 H 660.682 -3.58899 1.05558 0
M  V30 7035 H 662.015 -4.72752 1.36992 0
M  V30 7036 N 663.667 -0.670007 -1.42649 0
M  V30 7037 C 664.916 -0.187526 -2.00826 0
M  V30 7038 C 665.229 1.21142 -1.53571 0
M  V30 7039 O 666.435 1.79001 -2.04134 0
M  V30 7040 C 664.891 -0.284409 -3.58774 0
M  V30 7041 C 664.499 -1.6871 -4.15019 0
M  V30 7042 C 666.243 0.139605 -4.2427 0
M  V30 7043 C 664.15 -1.73701 -5.65316 0
M  V30 7044 H 663.08 -0.0663468 -0.751075 0
M  V30 7045 H 665.731 -0.834492 -1.63427 0
M  V30 7046 H 664.113 0.430364 -3.93655 0
M  V30 7047 H 665.287 -2.42857 -3.91608 0
M  V30 7048 H 663.602 -2.05855 -3.61957 0
M  V30 7049 H 666.199 0.122398 -5.3456 0
M  V30 7050 H 666.542 1.17403 -3.99402 0
M  V30 7051 H 667.075 -0.523995 -3.94334 0
M  V30 7052 H 663.814 -2.75109 -5.94975 0
M  V30 7053 H 663.334 -1.03903 -5.90732 0
M  V30 7054 H 665.013 -1.48829 -6.2965 0
M  V30 7055 N 665.145 1.52092 -0.413018 0
M  V30 7056 C 666.391 2.02154 0.161737 0
M  V30 7057 C 666.724 1.29789 1.44459 0
M  V30 7058 O 665.999 0.405378 1.90229 0
M  V30 7059 C 666.282 3.5781 0.405463 0
M  V30 7060 C 666.135 4.40819 -0.894335 0
M  V30 7061 C 667.454 4.23821 1.18591 0
M  V30 7062 H 664.573 0.734769 0.0573077 0
M  V30 7063 H 667.215 1.81948 -0.547247 0
M  V30 7064 H 665.365 3.75158 1.0094 0
M  V30 7065 H 667.037 4.35175 -1.53039 0
M  V30 7066 H 665.28 4.06877 -1.50444 0
M  V30 7067 H 665.951 5.47819 -0.678144 0
M  V30 7068 H 668.427 4.10596 0.674573 0
M  V30 7069 H 667.303 5.32663 1.3252 0
M  V30 7070 H 667.564 3.83038 2.20758 0
M  V30 7071 N 666.623 0.143563 1.56945 0
M  V30 7072 C 667.851 -0.515447 2.00377 0
M  V30 7073 C 668.266 -1.58643 1.02361 0
M  V30 7074 O 667.623 -1.82489 0.0201039 0
M  V30 7075 C 667.674 -1.11923 3.43737 0
M  V30 7076 O 667.395 -0.0910318 4.38005 0
M  V30 7077 C 668.896 -1.85918 4.02429 0
M  V30 7078 H 666.116 -0.134478 0.657386 0
M  V30 7079 H 668.66 0.237135 2.0312 0
M  V30 7080 H 666.815 -1.82245 3.41856 0
M  V30 7081 H 667.229 -0.532916 5.21786 0
M  V30 7082 H 668.703 -2.2346 5.04747 0
M  V30 7083 H 669.18 -2.7438 3.42947 0
M  V30 7084 H 669.786 -1.20303 4.07931 0
M  V30 7085 N 668.101 -1.57061 -0.130224 0
M  V30 7086 C 669.331 -1.88159 -0.853217 0
M  V30 7087 C 669.739 -0.731675 -1.7448 0
M  V30 7088 O 669.082 0.307035 -1.81116 0
M  V30 7089 C 669.144 -3.1415 -1.74785 0
M  V30 7090 C 668.808 -4.45202 -1.03173 0
M  V30 7091 C 669.805 -5.18526 -0.377759 0
M  V30 7092 C 667.49 -4.91912 -1.01624 0
M  V30 7093 C 669.484 -6.36775 0.282123 0
M  V30 7094 C 667.171 -6.10082 -0.352555 0
M  V30 7095 C 668.169 -6.82361 0.295483 0
M  V30 7096 O 667.857 -7.98284 0.948606 0
M  V30 7097 H 667.589 -0.627596 -0.251197 0
M  V30 7098 H 670.143 -2.05034 -0.1226 0
M  V30 7099 H 668.373 -2.93328 -2.51983 0
M  V30 7100 H 670.062 -3.31359 -2.34427 0
M  V30 7101 H 670.828 -4.83498 -0.381417 0
M  V30 7102 H 666.707 -4.35566 -1.51007 0
M  V30 7103 H 670.251 -6.93129 0.788525 0
M  V30 7104 H 666.148 -6.44569 -0.346621 0
M  V30 7105 H 666.916 -8.14054 0.851954 0
M  V30 7106 N 669.579 0.400081 -1.52437 0
M  V30 7107 C 670.827 1.14392 -1.6661 0
M  V30 7108 C 671.148 1.90792 -0.402927 0
M  V30 7109 O 670.418 1.87042 0.582425 0
M  V30 7110 H 668.998 0.425275 -0.614125 0
M  V30 7111 H 671.66 0.455076 -1.89513 0
M  V30 7112 H 670.756 1.85298 -2.51139 0
M  V30 7113 N 671.057 1.43213 0.657864 0
M  V30 7114 C 672.473 1.26511 0.972992 0
M  V30 7115 C 672.673 0.181477 2.00681 0
M  V30 7116 O 671.729 -0.441649 2.48608 0
M  V30 7117 C 673.042 2.62784 1.46168 0
M  V30 7118 C 674.59 2.70278 1.57857 0
M  V30 7119 C 675.065 4.06958 2.10117 0
M  V30 7120 N 676.556 4.08999 2.17426 0
M  V30 7121 C 677.291 5.11585 2.58975 0
M  V30 7122 N 676.787 6.24548 2.99853 0
M  V30 7123 N 678.58 4.9894 2.58873 0
M  V30 7124 H 670.731 2.12384 -0.0263129 0
M  V30 7125 H 672.994 0.946638 0.0507992 0
M  V30 7126 H 672.7 3.43022 0.776474 0
M  V30 7127 H 672.574 2.87863 2.43751 0
M  V30 7128 H 674.961 1.90376 2.25479 0
M  V30 7129 H 675.042 2.4897 0.587179 0
M  V30 7130 H 674.686 4.87325 1.43098 0
M  V30 7131 H 674.616 4.25628 3.10078 0
M  V30 7132 H 677.107 3.27457 1.88627 0
M  V30 7133 H 677.42 6.98661 3.30292 0
M  V30 7134 H 675.765 6.28027 2.97669 0
M  V30 7135 H 678.956 4.09757 2.26311 0
M  V30 7136 H 679.129 5.79019 2.90932 0
M  V30 7137 N 672.536 -0.895792 1.29666 0
M  V30 7138 C 673.785 -1.64131 1.17234 0
M  V30 7139 C 674.098 -1.93665 -0.274416 0
M  V30 7140 O 675.304 -2.66472 -0.520105 0
M  V30 7141 C 673.76 -2.95764 2.05065 0
M  V30 7142 C 673.368 -2.7381 3.54587 0
M  V30 7143 C 675.112 -3.737 2.01367 0
M  V30 7144 C 673.019 -4.01194 4.34508 0
M  V30 7145 H 671.949 -0.615742 0.435175 0
M  V30 7146 H 674.6 -0.992626 1.54335 0
M  V30 7147 H 672.982 -3.61867 1.60837 0
M  V30 7148 H 674.156 -2.16277 4.06892 0
M  V30 7149 H 672.471 -2.09265 3.59996 0
M  V30 7150 H 675.068 -4.68152 2.58337 0
M  V30 7151 H 675.411 -4.04245 0.994575 0
M  V30 7152 H 675.944 -3.14444 2.43659 0
M  V30 7153 H 672.683 -3.75813 5.37071 0
M  V30 7154 H 672.203 -4.58272 3.86971 0
M  V30 7155 H 673.882 -4.69307 4.45376 0
M  V30 7156 N 674.014 -1.12206 -1.10668 0
M  V30 7157 C 675.425 -0.890657 -1.64086 0
M  V30 7158 C 675.776 0.575502 -1.8757 0
M  V30 7159 O 674.901 1.4394 -1.61587 0
M  V30 7160 C 675.496 -1.61029 -2.98085 0
M  V30 7161 C 674.055 -1.4251 -3.48379 0
M  V30 7162 C 673.202 -1.64778 -2.23033 0
M  V30 7163 H 676.153 -1.27718 -0.94201 0
M  V30 7164 H 676.174 -1.05993 -3.65439 0
M  V30 7165 H 675.686 -2.67735 -2.80962 0
M  V30 7166 H 673.787 -0.380497 -3.70652 0
M  V30 7167 H 673.9 -2.17959 -4.26651 0
M  V30 7168 H 672.264 -1.07171 -2.31055 0
M  V30 7169 H 673.047 -2.72776 -2.08443 0
M  V30 7170 N 675.492 1.28418 -0.913599 0
M  V30 7171 C 676.722 1.98817 -0.56172 0
M  V30 7172 C 677.13 1.68457 0.861321 0
M  V30 7173 O 676.473 0.933653 1.58204 0
M  V30 7174 C 676.535 3.52801 -0.690785 0
M  V30 7175 C 676.199 4.0675 -2.08334 0
M  V30 7176 C 677.196 4.20597 -3.05604 0
M  V30 7177 C 674.881 4.41445 -2.39648 0
M  V30 7178 C 676.875 4.68392 -4.32305 0
M  V30 7179 C 674.562 4.88934 -3.66588 0
M  V30 7180 C 675.56 5.02364 -4.6273 0
M  V30 7181 O 675.248 5.48817 -5.87414 0
M  V30 7182 H 674.98 0.641608 -0.212874 0
M  V30 7183 H 677.534 1.64584 -1.22887 0
M  V30 7184 H 675.764 3.86686 0.0334336 0
M  V30 7185 H 677.453 4.04422 -0.346031 0
M  V30 7186 H 678.219 3.94067 -2.8273 0
M  V30 7187 H 674.098 4.30242 -1.65567 0
M  V30 7188 H 677.642 4.7879 -5.07352 0
M  V30 7189 H 673.539 5.14904 -3.89287 0
M  V30 7190 H 674.307 5.67103 -5.90201 0
M  V30 7191 N 676.97 0.677563 1.42291 0
M  V30 7192 C 678.381 0.277912 1.8462 0
M  V30 7193 C 678.732 -1.18048 1.56714 0
M  V30 7194 O 677.857 -1.90404 1.02836 0
M  V30 7195 C 678.452 0.497619 3.35126 0
M  V30 7196 C 677.011 0.152063 3.76093 0
M  V30 7197 C 676.158 0.78872 2.65847 0
M  V30 7198 H 679.109 0.879527 1.32098 0
M  V30 7199 H 679.13 -0.24939 3.79682 0
M  V30 7200 H 678.642 1.55913 3.55405 0
M  V30 7201 H 676.743 -0.905896 3.6142 0
M  V30 7202 H 676.856 0.594514 4.75397 0
M  V30 7203 H 675.22 0.219813 2.5375 0
M  V30 7204 H 676.003 1.85374 2.88949 0
M  V30 7205 N 678.448 -1.51871 0.421078 0
M  V30 7206 C 679.696 -2.01539 -0.150492 0
M  V30 7207 C 680.017 -1.30803 -1.44623 0
M  V30 7208 O 679.287 -0.437568 -1.90951 0
M  V30 7209 H 677.867 -0.744698 -0.0586041 0
M  V30 7210 H 680.529 -1.8668 0.560059 0
M  V30 7211 H 679.625 -3.10264 -0.338068 0
M  V30 7212 N 679.926 -0.151884 -1.56866 0
M  V30 7213 C 680.859 0.824094 -2.128 0
M  V30 7214 C 681.837 1.2391 -1.05286 0
M  V30 7215 O 683.021 1.33433 -1.33146 0
M  V30 7216 C 680.148 2.1072 -2.65169 0
M  V30 7217 C 679.194 1.83774 -3.84876 0
M  V30 7218 S 680.027 1.02436 -5.25611 0
M  V30 7219 C 681.183 2.31855 -5.81373 0
M  V30 7220 H 681.416 0.348456 -2.95251 0
M  V30 7221 H 678.949 0.0624794 -1.54274 0
M  V30 7222 H 680.907 2.84428 -2.95992 0
M  V30 7223 H 679.568 2.55398 -1.8284 0
M  V30 7224 H 678.761 2.78929 -4.19779 0
M  V30 7225 H 678.363 1.18172 -3.5484 0
M  V30 7226 H 680.655 3.27469 -5.93102 0
M  V30 7227 H 681.598 2.01449 -6.7884 0
M  V30 7228 H 682.006 2.42727 -5.09651 0
M  V30 7229 N 681.404 1.57128 0.121893 0
M  V30 7230 C 682.629 1.89254 0.848385 0
M  V30 7231 C 683.054 0.743527 1.72781 0
M  V30 7232 O 682.412 -0.306056 1.78698 0
M  V30 7233 C 682.46 3.20113 1.66012 0
M  V30 7234 O 681.564 3.05815 2.76679 0
M  V30 7235 H 680.905 0.621103 0.234793 0
M  V30 7236 H 683.435 2.0433 0.10516 0
M  V30 7237 H 683.445 3.52761 2.04996 0
M  V30 7238 H 682.12 4.03336 1.01452 0
M  V30 7239 H 680.697 2.84627 2.40918 0
M  V30 7240 N 682.882 -0.391992 1.52647 0
M  V30 7241 C 683.83 -1.4991 1.77848 0
M  V30 7242 C 684.824 -1.56587 0.646282 0
M  V30 7243 O 686.03 -1.59789 0.828698 0
M  V30 7244 H 682.405 -0.498883 0.56269 0
M  V30 7245 H 684.376 -1.25847 2.70564 0
M  V30 7246 C 683.125 -2.87081 1.96163 0
M  V30 7247 H 682.448 -2.82692 2.82711 0
M  V30 7248 H 683.888 -3.63792 2.17787 0
M  V30 7249 C 682.347 -3.28822 0.733348 0
M  V30 7250 O 682.877 -4.01598 -0.0906481 0
M  V30 7251 N 681.083 -2.85068 0.564317 0
M  V30 7252 H 680.63 -2.26012 1.23598 0
M  V30 7253 H 680.588 -3.13355 -0.256166 0
M  V30 7254 N 684.36 -1.4356 -0.65026 0
M  V30 7255 C 685.771 -1.40324 -1.2315 0
M  V30 7256 C 686.122 -0.108812 -1.95898 0
M  V30 7257 O 685.247 0.79163 -2.01401 0
M  V30 7258 C 685.842 -2.54195 -2.23987 0
M  V30 7259 C 684.401 -2.54215 -2.77582 0
M  V30 7260 C 683.548 -2.31752 -1.5227 0
M  V30 7261 H 686.499 -1.52418 -0.442095 0
M  V30 7262 H 686.52 -2.25854 -3.0622 0
M  V30 7263 H 686.032 -3.48392 -1.71011 0
M  V30 7264 H 684.133 -1.63907 -3.34612 0
M  V30 7265 H 684.246 -3.52081 -3.24925 0
M  V30 7266 H 682.61 -1.80476 -1.79723 0
M  V30 7267 H 683.393 -3.28037 -1.01225 0
M  V30 7268 N 685.838 0.888903 -1.30139 0
M  V30 7269 C 686.748 2.02705 -1.18101 0
M  V30 7270 C 687.764 1.73702 -0.101809 0
M  V30 7271 O 688.94 1.98906 -0.315984 0
M  V30 7272 C 686.005 3.35616 -0.869651 0
M  V30 7273 C 685.066 3.78067 -2.03381 0
M  V30 7274 C 684.299 5.04635 -1.73721 0
M  V30 7275 O 684.522 5.66531 -0.663267 0
M  V30 7276 O 683.456 5.43399 -2.58845 0
M  V30 7277 H 687.282 2.15788 -2.13704 0
M  V30 7278 H 684.867 1.01426 -1.09695 0
M  V30 7279 H 686.749 4.15358 -0.711043 0
M  V30 7280 H 685.424 3.23651 0.0565002 0
M  V30 7281 H 684.331 2.99046 -2.24772 0
M  V30 7282 H 685.664 3.94631 -2.94155 0
M  V30 7283 N 687.317 1.12792 1.10072 0
M  V30 7284 C 688.563 0.886857 1.82381 0
M  V30 7285 C 688.896 -0.58576 1.85155 0
M  V30 7286 O 688.171 -1.43317 1.31493 0
M  V30 7287 C 688.454 1.46703 3.28862 0
M  V30 7288 C 688.307 3.00829 3.34398 0
M  V30 7289 C 689.626 1.12971 4.25353 0
M  V30 7290 H 686.745 0.32362 0.662148 0
M  V30 7291 H 689.387 1.39513 1.28982 0
M  V30 7292 H 687.537 1.03476 3.74466 0
M  V30 7293 H 689.209 3.52764 2.97247 0
M  V30 7294 H 687.452 3.36164 2.74183 0
M  V30 7295 H 688.123 3.36519 4.3756 0
M  V30 7296 H 690.599 1.50313 3.88001 0
M  V30 7297 H 689.475 1.56223 5.26199 0
M  V30 7298 H 689.736 0.0424452 4.4208 0
M  V30 7299 N 688.795 -1.27931 0.920396 0
M  V30 7300 C 690.044 -1.93975 0.552867 0
M  V30 7301 C 690.357 -1.73193 -0.909035 0
M  V30 7302 O 691.563 -2.33515 -1.38502 0
M  V30 7303 C 690.019 -3.47463 0.937947 0
M  V30 7304 C 689.627 -3.77013 2.42003 0
M  V30 7305 C 691.371 -4.19628 0.64132 0
M  V30 7306 C 689.278 -5.23841 2.74489 0
M  V30 7307 H 688.208 -0.726146 0.203046 0
M  V30 7308 H 690.859 -1.45339 1.12022 0
M  V30 7309 H 689.241 -3.94867 0.299317 0
M  V30 7310 H 690.415 -3.40393 3.10595 0
M  V30 7311 H 688.73 -3.18035 2.6878 0
M  V30 7312 H 691.327 -5.27729 0.860622 0
M  V30 7313 H 691.67 -4.14164 -0.421168 0
M  V30 7314 H 692.203 -3.78022 1.23872 0
M  V30 7315 H 688.942 -5.34388 3.79618 0
M  V30 7316 H 688.462 -5.61634 2.1054 0
M  V30 7317 H 690.141 -5.91647 2.61845 0
M  V30 7318 N 690.273 -0.685099 -1.4193 0
M  V30 7319 C 691.689 -0.355632 -1.55587 0
M  V30 7320 C 691.889 1.13823 -1.66273 0
M  V30 7321 O 690.945 1.92387 -1.63534 0
M  V30 7322 C 692.258 -1.09498 -2.80055 0
M  V30 7323 C 693.806 -1.07831 -2.93839 0
M  V30 7324 C 694.281 -1.79919 -4.21181 0
M  V30 7325 N 695.772 -1.76837 -4.28115 0
M  V30 7326 C 696.507 -2.29463 -5.25485 0
M  V30 7327 N 696.003 -2.90516 -6.28945 0
M  V30 7328 N 697.796 -2.19779 -5.17353 0
M  V30 7329 H 689.947 -1.65412 -1.33239 0
M  V30 7330 H 692.21 -0.697453 -0.642078 0
M  V30 7331 H 691.916 -2.14997 -2.78333 0
M  V30 7332 H 691.79 -0.666813 -3.71259 0
M  V30 7333 H 694.177 -0.0316152 -2.95083 0
M  V30 7334 H 694.258 -1.54545 -2.03837 0
M  V30 7335 H 693.902 -2.84562 -4.20698 0
M  V30 7336 H 693.832 -1.30647 -5.10136 0
M  V30 7337 H 696.323 -1.32315 -3.53979 0
M  V30 7338 H 696.636 -3.28266 -6.99615 0
M  V30 7339 H 694.981 -2.94589 -6.29478 0
M  V30 7340 H 698.172 -1.71763 -4.35448 0
M  V30 7341 H 698.345 -2.61097 -5.9307 0
M  V30 7342 N 691.751 1.51645 -0.429126 0
M  V30 7343 C 692.714 2.26116 0.374726 0
M  V30 7344 C 693.714 1.29242 0.956714 0
M  V30 7345 O 694.904 1.53022 0.832452 0
M  V30 7346 C 692.036 3.04669 1.52937 0
M  V30 7347 H 693.229 2.9861 -0.277818 0
M  V30 7348 H 690.782 1.55236 -0.182097 0
M  V30 7349 H 691.517 2.36571 2.21821 0
M  V30 7350 H 691.302 3.75814 1.11833 0
M  V30 7351 H 692.792 3.61102 2.09751 0
M  V30 7352 N 693.229 0.160201 1.56784 0
M  V30 7353 C 694.159 -0.770264 2.2043 0
M  V30 7354 C 695.14 -1.24736 1.15651 0
M  V30 7355 O 696.325 -1.30253 1.44041 0
M  V30 7356 C 693.455 -2.00427 2.83631 0
M  V30 7357 C 692.409 -1.66345 3.94352 0
M  V30 7358 C 691.735 -2.97119 4.4455 0
M  V30 7359 C 693.035 -0.899972 5.14488 0
M  V30 7360 H 694.729 -0.239783 2.98438 0
M  V30 7361 H 692.275 -0.113891 1.43549 0
M  V30 7362 H 694.228 -2.66012 3.26827 0
M  V30 7363 H 692.952 -2.5587 2.02973 0
M  V30 7364 H 691.611 -1.03133 3.51794 0
M  V30 7365 H 691.259 -3.5058 3.60698 0
M  V30 7366 H 690.959 -2.75073 5.19238 0
M  V30 7367 H 692.483 -3.63753 4.90425 0
M  V30 7368 H 693.897 -1.45818 5.54446 0
M  V30 7369 H 692.294 -0.778968 5.95023 0
M  V30 7370 H 693.364 0.105827 4.84785 0
M  V30 7371 N 694.707 -1.5719 -0.113559 0
M  V30 7372 C 695.617 -2.04041 -1.15777 0
M  V30 7373 C 696.633 -0.961812 -1.45001 0
M  V30 7374 O 697.809 -1.2737 -1.56009 0
M  V30 7375 C 694.874 -2.43994 -2.46308 0
M  V30 7376 C 693.935 -3.65962 -2.24433 0
M  V30 7377 C 693.168 -4.04 -3.4874 0
M  V30 7378 O 693.391 -3.42321 -4.56259 0
M  V30 7379 O 692.325 -4.97069 -3.3942 0
M  V30 7380 H 696.151 -2.93248 -0.789899 0
M  V30 7381 H 693.736 -1.45828 -0.324748 0
M  V30 7382 H 695.618 -2.70401 -3.23204 0
M  V30 7383 H 694.293 -1.57932 -2.82558 0
M  V30 7384 H 693.2 -3.44697 -1.45377 0
M  V30 7385 H 694.533 -4.52746 -1.93084 0
M  V30 7386 N 696.185 0.383891 -1.52853 0
M  V30 7387 C 697.601 0.724316 -1.42218 0
M  V30 7388 C 697.801 1.93943 -0.546654 0
M  V30 7389 O 696.857 2.5249 -0.0220562 0
M  V30 7390 C 698.17 0.954635 -2.85144 0
M  V30 7391 C 699.718 1.05579 -2.94656 0
M  V30 7392 C 700.193 1.3187 -4.38605 0
M  V30 7393 N 701.684 1.38681 -4.41952 0
M  V30 7394 C 702.419 1.60699 -5.50421 0
M  V30 7395 N 701.915 1.80154 -6.68967 0
M  V30 7396 N 703.708 1.6292 -5.37972 0
M  V30 7397 H 695.859 -0.4156 -2.08294 0
M  V30 7398 H 698.122 -0.123776 -0.939885 0
M  V30 7399 H 697.828 0.133829 -3.51445 0
M  V30 7400 H 697.702 1.86788 -3.27704 0
M  V30 7401 H 700.089 1.86716 -2.2852 0
M  V30 7402 H 700.17 0.120338 -2.55517 0
M  V30 7403 H 699.814 0.512416 -5.05309 0
M  V30 7404 H 699.744 2.26708 -4.75301 0
M  V30 7405 H 702.235 1.25334 -3.56511 0
M  V30 7406 H 702.548 1.96476 -7.47407 0
M  V30 7407 H 700.893 1.77368 -6.71986 0
M  V30 7408 H 704.084 1.47276 -4.44328 0
M  V30 7409 H 704.257 1.79739 -6.22574 0
M  V30 7410 N 697.663 1.43903 0.642637 0
M  V30 7411 C 698.911 1.45791 1.39962 0
M  V30 7412 C 699.232 0.0873144 1.94804 0
M  V30 7413 O 698.502 -0.878825 1.75081 0
M  V30 7414 H 697.082 0.536797 0.519479 0
M  V30 7415 H 699.744 1.7959 0.757189 0
M  V30 7416 H 698.84 2.17665 2.2367 0
M  V30 7417 N 699.141 -0.881989 1.30609 0
M  V30 7418 C 700.371 -1.66469 1.22359 0
M  V30 7419 C 700.779 -1.87969 -0.215507 0
M  V30 7420 O 700.122 -1.42938 -1.15388 0
M  V30 7421 C 700.184 -3.06135 1.88472 0
M  V30 7422 C 699.848 -3.07795 3.37804 0
M  V30 7423 C 700.845 -2.86633 4.33749 0
M  V30 7424 C 698.53 -3.29297 3.793 0
M  V30 7425 C 700.524 -2.86934 5.69164 0
M  V30 7426 C 698.211 -3.29228 5.14832 0
M  V30 7427 C 699.209 -3.08071 6.09574 0
M  V30 7428 O 698.897 -3.07824 7.4263 0
M  V30 7429 H 698.629 -0.526129 0.424458 0
M  V30 7430 H 701.183 -1.11004 1.72821 0
M  V30 7431 H 699.413 -3.63276 1.32543 0
M  V30 7432 H 701.102 -3.66571 1.74301 0
M  V30 7433 H 701.868 -2.69814 4.0302 0
M  V30 7434 H 697.747 -3.44799 3.05998 0
M  V30 7435 H 701.291 -2.70339 6.43088 0
M  V30 7436 H 697.188 -3.45583 5.452 0
M  V30 7437 H 697.956 -3.2397 7.51656 0
M  V30 7438 N 700.619 -1.13374 -1.09472 0
M  V30 7439 C 702.035 -0.871846 -1.33682 0
M  V30 7440 C 702.235 0.492847 -1.9538 0
M  V30 7441 O 701.291 1.23946 -2.19985 0
M  V30 7442 C 702.604 -1.99608 -2.24893 0
M  V30 7443 C 704.152 -2.02812 -2.38404 0
M  V30 7444 C 704.627 -3.14497 -3.3295 0
M  V30 7445 N 706.118 -3.14004 -3.40523 0
M  V30 7446 C 706.853 -3.97061 -4.13679 0
M  V30 7447 N 706.349 -4.90131 -4.89636 0
M  V30 7448 N 708.142 -3.85162 -4.09398 0
M  V30 7449 H 700.293 -2.01288 -0.677995 0
M  V30 7450 H 702.556 -0.876492 -0.361201 0
M  V30 7451 H 702.262 -2.98 -1.86786 0
M  V30 7452 H 702.136 -1.90981 -3.25278 0
M  V30 7453 H 704.523 -1.05034 -2.75775 0
M  V30 7454 H 704.604 -2.15511 -1.37799 0
M  V30 7455 H 704.248 -4.12514 -2.96302 0
M  V30 7456 H 704.178 -2.99035 -4.33458 0
M  V30 7457 H 706.669 -2.46587 -2.86362 0
M  V30 7458 H 706.982 -5.49996 -5.42885 0
M  V30 7459 H 705.327 -4.94138 -4.88726 0
M  V30 7460 H 708.518 -3.11779 -3.49158 0
M  V30 7461 H 708.691 -4.5012 -4.6615 0
M  V30 7462 N 702.098 1.27442 -0.927168 0
M  V30 7463 C 703.031 2.25177 -0.370232 0
M  V30 7464 C 704.009 1.53612 0.533103 0
M  V30 7465 O 705.193 1.8245 0.47373 0
M  V30 7466 C 702.32 3.35431 0.469411 0
M  V30 7467 C 701.366 4.24888 -0.370419 0
M  V30 7468 S 702.199 5.04852 -1.78562 0
M  V30 7469 C 703.355 6.18592 -0.953651 0
M  V30 7470 H 703.588 2.72069 -1.19858 0
M  V30 7471 H 701.121 1.36089 -0.729316 0
M  V30 7472 H 703.079 3.99404 0.947992 0
M  V30 7473 H 701.74 2.87179 1.27228 0
M  V30 7474 H 700.933 5.03264 0.272226 0
M  V30 7475 H 700.535 3.65709 -0.783153 0
M  V30 7476 H 702.827 6.77235 -0.189408 0
M  V30 7477 H 703.77 6.87132 -1.7104 0
M  V30 7478 H 704.178 5.62318 -0.495897 0
M  V30 7479 N 703.576 0.692616 1.41565 0
M  V30 7480 C 704.987 0.297478 1.84315 0
M  V30 7481 C 705.338 -1.16379 1.57957 0
M  V30 7482 O 704.463 -1.89303 1.0485 0
M  V30 7483 C 705.058 0.533136 3.34579 0
M  V30 7484 C 703.617 0.191944 3.7591 0
M  V30 7485 C 702.764 0.816873 2.64995 0
M  V30 7486 H 705.715 0.893488 1.31158 0
M  V30 7487 H 705.736 -0.209105 3.79925 0
M  V30 7488 H 705.248 1.59674 3.53731 0
M  V30 7489 H 703.349 -0.867512 3.6236 0
M  V30 7490 H 703.462 0.644902 4.7474 0
M  V30 7491 H 701.826 0.246715 2.53502 0
M  V30 7492 H 702.609 1.88429 2.86966 0
M  V30 7493 N 705.054 -1.51416 0.437162 0
M  V30 7494 C 706.47 -1.59349 0.0894459 0
M  V30 7495 C 706.67 -1.44809 -1.40116 0
M  V30 7496 O 705.726 -1.28924 -2.17106 0
M  V30 7497 C 707.039 -2.9446 0.609398 0
M  V30 7498 C 708.587 -3.07769 0.569824 0
M  V30 7499 C 709.062 -4.45404 1.06675 0
M  V30 7500 N 710.553 -4.51723 1.02473 0
M  V30 7501 C 711.288 -5.56544 1.3801 0
M  V30 7502 N 710.784 -6.68784 1.80831 0
M  V30 7503 N 712.577 -5.46901 1.29828 0
M  V30 7504 H 704.728 -1.59112 1.40703 0
M  V30 7505 H 706.991 -0.750031 0.579791 0
M  V30 7506 H 706.697 -3.1047 1.65231 0
M  V30 7507 H 706.571 -3.77184 0.0342236 0
M  V30 7508 H 708.958 -2.91428 -0.464107 0
M  V30 7509 H 709.039 -2.26885 1.1814 0
M  V30 7510 H 708.683 -4.62492 2.09914 0
M  V30 7511 H 708.613 -5.24827 0.431712 0
M  V30 7512 H 711.104 -3.71165 0.710258 0
M  V30 7513 H 711.417 -7.44787 2.06185 0
M  V30 7514 H 709.762 -6.69992 1.84757 0
M  V30 7515 H 712.953 -4.581 0.962397 0
M  V30 7516 H 713.126 -6.2848 1.57851 0
M  V30 7517 N 706.532 -0.168513 -1.56696 0
M  V30 7518 C 707.943 0.348694 -1.83415 0
M  V30 7519 C 708.294 1.63257 -1.0882 0
M  V30 7520 O 707.419 2.13707 -0.340333 0
M  V30 7521 C 708.014 0.639423 -3.32711 0
M  V30 7522 C 706.573 1.10108 -3.59935 0
M  V30 7523 C 705.72 0.135464 -2.76969 0
M  V30 7524 H 708.671 -0.392829 -1.53761 0
M  V30 7525 H 708.692 1.49179 -3.50037 0
M  V30 7526 H 708.204 -0.295173 -3.86976 0
M  V30 7527 H 706.305 2.05088 -3.11079 0
M  V30 7528 H 706.418 1.01218 -4.68286 0
M  V30 7529 H 704.782 0.632286 -2.46727 0
M  V30 7530 H 705.565 -0.793104 -3.34013 0
M  V30 7531 N 708.01 1.57248 0.105221 0
M  V30 7532 C 708.92 2.04653 1.14693 0
M  V30 7533 C 709.936 0.969488 1.44489 0
M  V30 7534 O 711.112 1.28196 1.55331 0
M  V30 7535 C 708.177 2.45297 2.45011 0
M  V30 7536 C 707.238 3.67148 2.22489 0
M  V30 7537 C 706.471 4.05844 3.46592 0
M  V30 7538 O 706.694 3.44736 4.54437 0
M  V30 7539 O 705.628 4.98862 3.36779 0
M  V30 7540 H 709.454 2.93663 0.774336 0
M  V30 7541 H 707.039 1.45998 0.31701 0
M  V30 7542 H 708.921 2.72112 3.21766 0
M  V30 7543 H 707.596 1.59429 2.81717 0
M  V30 7544 H 706.503 3.45463 1.43547 0
M  V30 7545 H 707.836 4.53764 1.9068 0
M  V30 7546 N 709.488 -0.375779 1.53054 0
M  V30 7547 C 710.436 -1.48015 1.79428 0
M  V30 7548 C 711.43 -1.55893 0.662854 0
M  V30 7549 O 712.636 -1.58901 0.845599 0
M  V30 7550 H 709.011 -0.492887 0.56795 0
M  V30 7551 H 710.982 -1.22971 2.71884 0
M  V30 7552 C 709.731 -2.84984 1.99197 0
M  V30 7553 H 709.054 -2.79677 2.85693 0
M  V30 7554 H 710.494 -3.61462 2.21633 0
M  V30 7555 C 708.953 -3.28025 0.768183 0
M  V30 7556 O 709.483 -4.01671 -0.0480482 0
M  V30 7557 N 707.689 -2.84454 0.594521 0
M  V30 7558 H 707.236 -2.24688 1.25988 0
M  V30 7559 H 707.194 -3.13609 -0.222916 0
M  V30 7560 N 710.966 -1.44241 -0.634997 0
M  V30 7561 C 712.206 -1.48339 -1.40623 0
M  V30 7562 C 712.57 -0.111479 -1.91676 0
M  V30 7563 O 713.771 -0.0271345 -2.68786 0
M  V30 7564 C 712.042 -2.51122 -2.54308 0
M  V30 7565 S 713.601 -2.74237 -3.42548 0
M  V30 7566 H 710.419 -0.524715 -0.479787 0
M  V30 7567 H 713.021 -1.81138 -0.735489 0
M  V30 7568 H 711.725 -3.49511 -2.15106 0
M  V30 7569 H 711.256 -2.19883 -3.26213 0
M  V30 7570 H 713.271 -2.0554 -4.51628 0
M  V30 7571 N 712.444 0.87505 -1.31075 0
M  V30 7572 C 713.855 1.4433 -1.18431 0
M  V30 7573 C 714.206 1.9506 0.211189 0
M  V30 7574 O 713.331 1.85847 1.10859 0
M  V30 7575 C 713.926 2.62341 -2.14389 0
M  V30 7576 C 712.485 3.15225 -2.05694 0
M  V30 7577 C 711.632 1.87929 -2.03907 0
M  V30 7578 H 714.583 0.684061 -1.432 0
M  V30 7579 H 714.604 3.3887 -1.73053 0
M  V30 7580 H 714.116 2.25388 -3.15946 0
M  V30 7581 H 712.217 3.56812 -1.07314 0
M  V30 7582 H 712.33 3.77853 -2.94558 0
M  V30 7583 H 710.694 2.06679 -1.48849 0
M  V30 7584 H 711.477 1.53221 -3.07211 0
M  V30 7585 N 713.922 1.13953 1.08869 0
M  V30 7586 C 714.832 0.835666 2.19212 0
M  V30 7587 C 715.848 -0.182005 1.73045 0
M  V30 7588 O 717.024 -0.0116661 2.01397 0
M  V30 7589 C 714.089 0.312325 3.4529 0
M  V30 7590 C 713.15 1.39196 4.06107 0
M  V30 7591 C 712.383 0.893496 5.26168 0
M  V30 7592 O 712.606 -0.266807 5.69776 0
M  V30 7593 O 711.54 1.67037 5.78258 0
M  V30 7594 H 715.366 1.75769 2.47667 0
M  V30 7595 H 712.951 0.917421 1.17914 0
M  V30 7596 H 714.833 0.0261582 4.21392 0
M  V30 7597 H 713.508 -0.582042 3.18424 0
M  V30 7598 H 712.415 1.73152 3.31616 0
M  V30 7599 H 713.748 2.26068 4.37212 0
M  V30 7600 N 715.4 -1.26948 0.933913 0
M  V30 7601 C 716.31 -2.30366 0.443671 0
M  V30 7602 C 717.326 -1.67284 -0.478745 0
M  V30 7603 O 718.502 -1.98156 -0.360043 0
M  V30 7604 C 715.567 -3.45485 -0.289974 0
M  V30 7605 C 714.628 -4.24069 0.668114 0
M  V30 7606 C 713.861 -5.33691 -0.0306138 0
M  V30 7607 O 714.084 -5.5656 -1.24888 0
M  V30 7608 O 713.018 -5.98441 0.644384 0
M  V30 7609 H 716.844 -2.74349 1.30254 0
M  V30 7610 H 714.429 -1.32012 0.699506 0
M  V30 7611 H 716.311 -4.15486 -0.70353 0
M  V30 7612 H 714.986 -3.03546 -1.12435 0
M  V30 7613 H 713.893 -3.56579 1.13147 0
M  V30 7614 H 715.226 -4.69739 1.46989 0
M  V30 7615 N 716.879 -0.700114 -1.41195 0
M  V30 7616 C 717.809 -0.0521132 -2.33442 0
M  V30 7617 C 718.79 0.76228 -1.52063 0
M  V30 7618 O 719.975 0.714336 -1.80585 0
M  V30 7619 C 717.105 0.881693 -3.35922 0
M  V30 7620 C 716.059 0.174062 -4.27646 0
M  V30 7621 C 715.385 1.22254 -5.20536 0
M  V30 7622 C 716.685 -0.962396 -5.13357 0
M  V30 7623 H 718.379 -0.822574 -2.87879 0
M  V30 7624 H 715.925 -0.397011 -1.38419 0
M  V30 7625 H 717.878 1.34429 -3.99383 0
M  V30 7626 H 716.602 1.68387 -2.79845 0
M  V30 7627 H 715.261 -0.268551 -3.65615 0
M  V30 7628 H 714.909 2.01736 -4.60773 0
M  V30 7629 H 714.609 0.754038 -5.82742 0
M  V30 7630 H 716.133 1.68555 -5.86874 0
M  V30 7631 H 717.547 -0.579875 -5.7036 0
M  V30 7632 H 715.944 -1.35828 -5.84526 0
M  V30 7633 H 717.014 -1.80003 -4.50252 0
M  V30 7634 N 718.357 1.51182 -0.445186 0
M  V30 7635 C 719.587 2.06269 0.116922 0
M  V30 7636 C 719.995 1.31188 1.36332 0
M  V30 7637 O 719.338 0.367067 1.79995 0
M  V30 7638 C 719.4 3.56051 0.496757 0
M  V30 7639 C 719.064 4.52441 -0.64394 0
M  V30 7640 C 720.061 4.97233 -1.5184 0
M  V30 7641 C 717.746 4.95447 -0.826905 0
M  V30 7642 C 719.74 5.83712 -2.56046 0
M  V30 7643 C 717.427 5.81714 -1.87222 0
M  V30 7644 C 718.425 6.25745 -2.73738 0
M  V30 7645 O 718.113 7.10298 -3.76474 0
M  V30 7646 H 717.845 0.675954 0.00785733 0
M  V30 7647 H 720.399 1.95648 -0.625371 0
M  V30 7648 H 718.629 3.64483 1.29187 0
M  V30 7649 H 720.318 3.93618 0.990928 0
M  V30 7650 H 721.084 4.64696 -1.38862 0
M  V30 7651 H 716.963 4.60712 -0.163052 0
M  V30 7652 H 720.507 6.18 -3.23607 0
M  V30 7653 H 716.404 6.13664 -2.00218 0
M  V30 7654 H 717.172 7.28493 -3.73149 0
M  V30 7655 N 719.835 0.176821 1.56605 0
M  V30 7656 C 720.783 -0.768159 2.1955 0
M  V30 7657 C 721.777 -1.23343 1.16116 0
M  V30 7658 O 722.983 -1.19844 1.34303 0
M  V30 7659 H 719.358 -0.266013 0.703378 0
M  V30 7660 H 721.329 -0.213374 2.97636 0
M  V30 7661 C 720.078 -1.98492 2.85475 0
M  V30 7662 H 719.401 -1.63595 3.64797 0
M  V30 7663 H 720.841 -2.62489 3.3298 0
M  V30 7664 C 719.3 -2.81207 1.85538 0
M  V30 7665 O 719.83 -3.7854 1.34427 0
M  V30 7666 N 718.036 -2.46331 1.54173 0
M  V30 7667 H 717.583 -1.67241 1.95929 0
M  V30 7668 H 717.541 -3.01961 0.875595 0
M  V30 7669 N 721.313 -1.57302 -0.09688 0
M  V30 7670 C 722.562 -1.85183 -0.799388 0
M  V30 7671 C 722.875 -0.765818 -1.79985 0
M  V30 7672 O 724.081 -0.931696 -2.55013 0
M  V30 7673 C 722.537 -3.28399 -1.47249 0
M  V30 7674 C 722.145 -4.45066 -0.511888 0
M  V30 7675 C 723.889 -3.65506 -2.15883 0
M  V30 7676 C 721.796 -5.79315 -1.18948 0
M  V30 7677 H 720.726 -0.690752 -0.302287 0
M  V30 7678 H 723.377 -1.83425 -0.0523104 0
M  V30 7679 H 721.759 -3.24692 -2.26697 0
M  V30 7680 H 722.933 -4.60116 0.250962 0
M  V30 7681 H 721.248 -4.16343 0.0686576 0
M  V30 7682 H 723.845 -4.63087 -2.67309 0
M  V30 7683 H 724.188 -2.94041 -2.94696 0
M  V30 7684 H 724.721 -3.71094 -1.43298 0
M  V30 7685 H 721.46 -6.54007 -0.442198 0
M  V30 7686 H 720.98 -5.68111 -1.9238 0
M  V30 7687 H 722.659 -6.23816 -1.71646 0
M  V30 7688 N 722.791 0.367657 -1.53252 0
M  V30 7689 C 723.724 1.47264 -1.74323 0
M  V30 7690 C 724.702 1.51458 -0.591535 0
M  V30 7691 O 725.886 1.69542 -0.823883 0
M  V30 7692 C 723.013 2.85637 -1.82015 0
M  V30 7693 C 722.059 2.99176 -3.03967 0
M  V30 7694 S 722.892 2.68147 -4.63527 0
M  V30 7695 C 724.048 4.08673 -4.74065 0
M  V30 7696 H 724.281 1.29169 -2.67773 0
M  V30 7697 H 721.814 0.561866 -1.43814 0
M  V30 7698 H 723.772 3.65365 -1.87132 0
M  V30 7699 H 722.433 3.01043 -0.896195 0
M  V30 7700 H 721.626 4.00511 -3.05953 0
M  V30 7701 H 721.228 2.27367 -2.96952 0
M  V30 7702 H 723.52 5.02889 -4.53992 0
M  V30 7703 H 724.463 4.11693 -5.7612 0
M  V30 7704 H 724.871 3.95576 -4.02716 0
M  V30 7705 N 724.269 1.44576 0.627338 0
M  V30 7706 C 725.202 1.46206 1.75212 0
M  V30 7707 C 726.18 0.320483 1.5941 0
M  V30 7708 O 727.364 0.518028 1.81242 0
M  V30 7709 C 724.491 1.29834 3.12827 0
M  V30 7710 C 723.537 2.47603 3.47268 0
M  V30 7711 S 724.37 4.10125 3.44322 0
M  V30 7712 C 725.526 3.96183 4.84551 0
M  V30 7713 H 725.759 2.41378 1.73563 0
M  V30 7714 H 723.292 1.3192 0.802283 0
M  V30 7715 H 725.25 1.21075 3.92239 0
M  V30 7716 H 723.911 0.361662 3.12011 0
M  V30 7717 H 723.104 2.3202 4.47418 0
M  V30 7718 H 722.706 2.53121 2.75329 0
M  V30 7719 H 724.998 3.60107 5.73872 0
M  V30 7720 H 725.941 4.96176 5.05188 0
M  V30 7721 H 726.349 3.28177 4.59304 0
M  V30 7722 N 725.747 -0.868086 1.31537 0
M  V30 7723 C 727.163 -1.15414 1.10235 0
M  V30 7724 C 727.363 -2.01106 -0.125947 0
M  V30 7725 O 726.419 -2.38994 -0.814734 0
M  V30 7726 C 727.732 -1.84445 2.37488 0
M  V30 7727 C 729.28 -1.97139 2.43116 0
M  V30 7728 C 729.755 -2.69585 3.70254 0
M  V30 7729 N 731.246 -2.77119 3.71159 0
M  V30 7730 C 731.981 -3.33791 4.6623 0
M  V30 7731 N 731.477 -3.9138 5.71659 0
M  V30 7732 N 733.27 -3.31767 4.53747 0
M  V30 7733 H 725.421 -0.297109 2.10312 0
M  V30 7734 H 727.684 -0.194227 0.92789 0
M  V30 7735 H 727.39 -1.2893 3.27215 0
M  V30 7736 H 727.264 -2.84709 2.47428 0
M  V30 7737 H 729.651 -2.51818 1.53856 0
M  V30 7738 H 729.732 -0.95912 2.37138 0
M  V30 7739 H 729.376 -2.15572 4.59881 0
M  V30 7740 H 729.306 -3.71223 3.73499 0
M  V30 7741 H 731.797 -2.3625 2.94948 0
M  V30 7742 H 732.11 -4.3274 6.40278 0
M  V30 7743 H 730.455 -3.8975 5.7543 0
M  V30 7744 H 733.646 -2.86016 3.70557 0
M  V30 7745 H 733.819 -3.75636 5.28017 0
M  V30 7746 N 727.225 -1.14528 -1.08264 0
M  V30 7747 C 728.465 -0.924808 -1.82282 0
M  V30 7748 C 728.829 0.538881 -1.84283 0
M  V30 7749 O 730.03 0.877355 -2.54079 0
M  V30 7750 C 728.301 -1.51102 -3.23887 0
M  V30 7751 S 729.86 -1.43232 -4.14765 0
M  V30 7752 H 726.678 -0.333052 -0.62817 0
M  V30 7753 H 729.28 -1.45905 -1.30123 0
M  V30 7754 H 727.984 -2.56942 -3.20014 0
M  V30 7755 H 727.515 -0.975234 -3.8112 0
M  V30 7756 H 729.53 -0.418843 -4.94429 0
M  V30 7757 N 728.703 1.26451 -0.940633 0
M  V30 7758 C 729.949 1.94401 -0.598303 0
M  V30 7759 C 730.304 1.72449 0.853178 0
M  V30 7760 O 729.597 1.0506 1.60228 0
M  V30 7761 C 729.791 3.46503 -0.875794 0
M  V30 7762 C 729.62 3.83247 -2.3527 0
M  V30 7763 C 728.39 4.06032 -3.00776 0
M  V30 7764 C 730.588 3.91841 -3.33114 0
M  V30 7765 N 728.57 4.29656 -4.38485 0
M  V30 7766 C 729.941 4.19991 -4.56078 0
M  V30 7767 C 731.996 3.74466 -3.28146 0
M  V30 7768 C 730.699 4.32574 -5.74693 0
M  V30 7769 C 732.725 3.88281 -4.46085 0
M  V30 7770 C 732.087 4.16829 -5.67831 0
M  V30 7771 H 728.186 0.734168 -0.269297 0
M  V30 7772 H 730.77 1.52541 -1.20992 0
M  V30 7773 H 728.941 3.87292 -0.293223 0
M  V30 7774 H 730.673 4.01664 -0.494788 0
M  V30 7775 H 727.428 4.01369 -2.51396 0
M  V30 7776 H 727.852 4.45501 -5.09762 0
M  V30 7777 H 732.494 3.51424 -2.35077 0
M  V30 7778 H 730.212 4.54438 -6.68215 0
M  V30 7779 H 733.798 3.76241 -4.43773 0
M  V30 7780 H 732.678 4.27284 -6.5757 0
M  V30 7781 N 730.181 0.707592 1.40822 0
M  V30 7782 C 731.128 0.0499029 2.30746 0
M  V30 7783 C 732.098 -0.758718 1.47759 0
M  V30 7784 O 733.283 -0.724299 1.76518 0
M  V30 7785 C 730.423 -0.871756 3.33908 0
M  V30 7786 C 729.536 -0.0534655 4.31967 0
M  V30 7787 C 728.671 -0.973869 5.22197 0
M  V30 7788 C 727.71 -0.149194 6.11918 0
M  V30 7789 N 726.847 -1.02404 6.94592 0
M  V30 7790 H 731.687 0.822461 2.86426 0
M  V30 7791 H 729.224 0.417285 1.41057 0
M  V30 7792 H 731.182 -1.42028 3.9228 0
M  V30 7793 H 729.812 -1.61058 2.7975 0
M  V30 7794 H 728.864 0.612142 3.75442 0
M  V30 7795 H 730.176 0.585354 4.95353 0
M  V30 7796 H 729.33 -1.59121 5.85462 0
M  V30 7797 H 728.069 -1.64652 4.59065 0
M  V30 7798 H 727.074 0.481137 5.47691 0
M  V30 7799 H 728.299 0.519841 6.77107 0
M  V30 7800 H 726.245 -1.6825 6.34057 0
M  V30 7801 H 726.162 -0.441076 7.54712 0
M  V30 7802 H 727.43 -1.62782 7.62314 0
M  V30 7803 N 731.66 -1.50943 0.453197 0
M  V30 7804 C 732.608 -2.29728 -0.364419 0
M  V30 7805 C 733.602 -1.36246 -1.00664 0
M  V30 7806 O 734.808 -1.53518 -0.939794 0
M  V30 7807 H 731.183 -0.739536 -0.136347 0
M  V30 7808 H 733.154 -2.96672 0.320696 0
M  V30 7809 C 731.903 -3.1629 -1.44415 0
M  V30 7810 H 731.226 -3.88119 -0.959343 0
M  V30 7811 H 732.666 -3.74444 -1.98917 0
M  V30 7812 C 731.125 -2.32702 -2.43622 0
M  V30 7813 O 731.655 -1.99763 -3.48508 0
M  V30 7814 N 729.861 -1.95621 -2.14897 0
M  V30 7815 H 729.408 -2.22607 -1.29629 0
M  V30 7816 H 729.366 -1.39993 -2.81513 0
M  V30 7817 N 733.138 -0.185124 -1.56509 0
M  V30 7818 C 734.554 0.170865 -1.58683 0
M  V30 7819 C 734.754 1.61799 -1.20098 0
M  V30 7820 O 733.81 2.35181 -0.919038 0
M  V30 7821 C 735.123 -0.122459 -3.00451 0
M  V30 7822 C 736.671 -0.0617699 -3.12939 0
M  V30 7823 C 737.146 -0.328269 -4.56822 0
M  V30 7824 N 738.637 -0.276533 -4.62374 0
M  V30 7825 C 739.372 -0.456722 -5.71578 0
M  V30 7826 N 738.868 -0.69672 -6.89288 0
M  V30 7827 N 740.661 -0.391669 -5.60734 0
M  V30 7828 H 732.812 -1.12956 -1.79874 0
M  V30 7829 H 735.075 -0.45011 -0.834329 0
M  V30 7830 H 734.781 -1.12546 -3.33206 0
M  V30 7831 H 734.655 0.579578 -3.72721 0
M  V30 7832 H 737.042 0.931826 -2.80002 0
M  V30 7833 H 737.123 -0.796732 -2.43076 0
M  V30 7834 H 736.767 -1.31914 -4.9047 0
M  V30 7835 H 736.697 0.427465 -5.24862 0
M  V30 7836 H 739.188 -0.0972458 -3.77775 0
M  V30 7837 H 739.501 -0.823291 -7.68402 0
M  V30 7838 H 737.846 -0.733497 -6.91119 0
M  V30 7839 H 741.037 -0.204663 -4.67652 0
M  V30 7840 H 741.21 -0.535518 -6.45783 0
M  V30 7841 N 734.616 1.57351 0.0885366 0
M  V30 7842 C 736.027 1.75303 0.642308 0
M  V30 7843 C 736.378 0.808238 1.78779 0
M  V30 7844 O 735.503 -0.01171 2.16397 0
M  V30 7845 C 736.098 3.17885 1.17194 0
M  V30 7846 C 734.657 3.37239 1.67172 0
M  V30 7847 C 733.804 2.7108 0.584045 0
M  V30 7848 H 736.755 1.58103 -0.137567 0
M  V30 7849 H 736.776 3.2112 2.04114 0
M  V30 7850 H 736.288 3.86625 0.338024 0
M  V30 7851 H 734.389 2.73588 2.52943 0
M  V30 7852 H 734.502 4.45594 1.76019 0
M  V30 7853 H 732.866 2.33161 1.02508 0
M  V30 7854 H 733.649 3.42464 -0.239403 0
M  V30 7855 N 736.094 -0.359525 1.53444 0
M  V30 7856 C 737.004 -1.46445 1.83278 0
M  V30 7857 C 738.02 -1.5833 0.721629 0
M  V30 7858 O 739.196 -1.7411 1.01231 0
M  V30 7859 C 736.261 -2.81638 2.02191 0
M  V30 7860 C 735.322 -2.7923 3.26082 0
M  V30 7861 C 734.555 -4.07974 3.44082 0
M  V30 7862 O 734.778 -5.04447 2.66251 0
M  V30 7863 O 733.712 -4.13417 4.37458 0
M  V30 7864 H 737.538 -1.24156 2.77162 0
M  V30 7865 H 735.123 -0.550201 1.389 0
M  V30 7866 H 737.005 -3.61732 2.16167 0
M  V30 7867 H 735.68 -3.03892 1.11496 0
M  V30 7868 H 734.587 -1.97813 3.17523 0
M  V30 7869 H 735.92 -2.6193 4.16718 0
M  V30 7870 N 737.572 -1.44907 -0.619662 0
M  V30 7871 C 738.482 -1.55168 -1.75955 0
M  V30 7872 C 739.498 -0.43672 -1.6843 0
M  V30 7873 O 740.674 -0.695704 -1.89002 0
M  V30 7874 C 737.739 -1.50397 -3.12381 0
M  V30 7875 C 736.8 -2.72835 -3.31451 0
M  V30 7876 C 736.033 -2.68283 -4.61368 0
M  V30 7877 O 736.256 -1.74929 -5.42914 0
M  V30 7878 O 735.19 -3.59308 -4.82889 0
M  V30 7879 H 739.016 -2.51493 -1.7025 0
M  V30 7880 H 736.601 -1.27282 -0.782289 0
M  V30 7881 H 738.483 -1.50301 -3.93685 0
M  V30 7882 H 737.158 -0.572197 -3.18603 0
M  V30 7883 H 736.065 -2.78496 -2.49781 0
M  V30 7884 H 737.398 -3.65098 -3.30098 0
M  V30 7885 N 739.05 0.861098 -1.31996 0
M  V30 7886 C 740.466 1.14827 -1.10846 0
M  V30 7887 C 740.666 2.0117 0.11528 0
M  V30 7888 O 739.722 2.39423 0.802048 0
M  V30 7889 C 741.035 1.83183 -2.38462 0
M  V30 7890 C 742.583 1.95847 -2.44158 0
M  V30 7891 C 743.058 2.67617 -3.71679 0
M  V30 7892 N 744.549 2.75147 -3.72624 0
M  V30 7893 C 745.284 3.31314 -4.67994 0
M  V30 7894 N 744.78 3.88343 -5.73726 0
M  V30 7895 N 746.573 3.29356 -4.55501 0
M  V30 7896 H 738.724 0.285951 -2.10466 0
M  V30 7897 H 740.987 0.189303 -0.928907 0
M  V30 7898 H 740.693 1.27193 -3.27895 0
M  V30 7899 H 740.567 2.83393 -2.48935 0
M  V30 7900 H 742.954 2.50999 -1.55189 0
M  V30 7901 H 743.035 0.94653 -2.37644 0
M  V30 7902 H 742.679 2.13131 -4.61018 0
M  V30 7903 H 742.609 3.69237 -3.75462 0
M  V30 7904 H 745.1 2.34682 -2.96197 0
M  V30 7905 H 745.413 4.29338 -6.42564 0
M  V30 7906 H 743.758 3.86693 -5.77489 0
M  V30 7907 H 746.949 2.84047 -3.72069 0
M  V30 7908 H 747.122 3.7283 -5.30001 0
M  V30 7909 N 740.528 1.15101 1.07655 0
M  V30 7910 C 741.939 0.933848 1.61667 0
M  V30 7911 C 742.29 -0.525569 1.8903 0
M  V30 7912 O 741.415 -1.39605 1.65346 0
M  V30 7913 C 742.01 1.68876 2.93711 0
M  V30 7914 C 740.569 1.51697 3.44478 0
M  V30 7915 C 739.716 1.70633 2.18586 0
M  V30 7916 H 742.667 1.30171 0.907816 0
M  V30 7917 H 742.688 1.15645 3.625 0
M  V30 7918 H 742.2 2.7509 2.73764 0
M  V30 7919 H 740.301 0.478635 3.69513 0
M  V30 7920 H 740.414 2.29194 4.20722 0
M  V30 7921 H 738.778 1.13259 2.28132 0
M  V30 7922 H 739.561 2.78206 2.01137 0
M  V30 7923 N 742.006 -1.2595 0.947325 0
M  V30 7924 C 743.234 -1.97544 0.615127 0
M  V30 7925 C 743.649 -1.70484 -0.811221 0
M  V30 7926 O 743.006 -0.97662 -1.5417 0
M  V30 7927 C 743.057 -3.51236 0.855328 0
M  V30 7928 O 742.778 -3.77359 2.22558 0
M  V30 7929 C 744.279 -4.40066 0.534515 0
M  V30 7930 H 741.499 -0.629888 0.231263 0
M  V30 7931 H 744.043 -1.60308 1.26971 0
M  V30 7932 H 742.198 -3.8661 0.247266 0
M  V30 7933 H 742.612 -4.71857 2.29022 0
M  V30 7934 H 744.086 -5.46838 0.753168 0
M  V30 7935 H 744.563 -4.35982 -0.530701 0
M  V30 7936 H 745.169 -4.10245 1.12158 0
M  V30 7937 N 743.484 -0.715051 -1.40445 0
M  V30 7938 C 744.731 -0.254328 -2.00897 0
M  V30 7939 C 745.059 1.15228 -1.56693 0
M  V30 7940 O 744.314 1.7958 -0.777786 0
M  V30 7941 C 744.613 -0.281791 -3.56287 0
M  V30 7942 C 744.279 -1.63862 -4.20071 0
M  V30 7943 C 742.941 -2.01003 -4.37208 0
M  V30 7944 C 745.293 -2.53039 -4.55654 0
M  V30 7945 C 742.621 -3.26869 -4.8721 0
M  V30 7946 C 744.973 -3.78256 -5.07055 0
M  V30 7947 C 743.637 -4.15515 -5.22401 0
M  V30 7948 H 742.907 -0.0930652 -0.735133 0
M  V30 7949 H 745.554 -0.917977 -1.68064 0
M  V30 7950 H 743.859 0.465428 -3.89026 0
M  V30 7951 H 745.556 0.0925158 -4.00893 0
M  V30 7952 H 742.146 -1.33979 -4.07121 0
M  V30 7953 H 746.33 -2.2562 -4.42051 0
M  V30 7954 H 741.586 -3.55706 -4.97276 0
M  V30 7955 H 745.76 -4.47528 -5.33565 0
M  V30 7956 H 743.387 -5.13114 -5.60909 0
M  V30 7957 N 744.962 1.50701 -0.461195 0
M  V30 7958 C 745.872 2.32069 0.343661 0
M  V30 7959 C 746.888 1.42016 1.00535 0
M  V30 7960 O 748.064 1.75077 0.995498 0
M  V30 7961 C 745.129 3.16424 1.41692 0
M  V30 7962 C 744.19 4.22286 0.772869 0
M  V30 7963 C 743.423 5.02609 1.79499 0
M  V30 7964 O 743.646 4.83874 3.0203 0
M  V30 7965 O 742.58 5.86047 1.3723 0
M  V30 7966 H 746.406 3.01996 -0.321268 0
M  V30 7967 H 743.991 1.47723 -0.223235 0
M  V30 7968 H 745.873 3.68795 2.03883 0
M  V30 7969 H 744.548 2.49236 2.0655 0
M  V30 7970 H 743.455 3.73931 0.112277 0
M  V30 7971 H 744.788 4.91915 0.167399 0
M  V30 7972 N 746.441 0.193421 1.56409 0
M  V30 7973 C 747.671 -0.450783 2.01622 0
M  V30 7974 C 748.079 -1.5585 1.07273 0
M  V30 7975 O 747.422 -1.83569 0.0694875 0
M  V30 7976 C 747.484 -1.06913 3.43235 0
M  V30 7977 C 747.148 -0.100352 4.5689 0
M  V30 7978 C 748.145 0.689633 5.15306 0
M  V30 7979 C 745.83 0.0102436 5.02299 0
M  V30 7980 C 747.824 1.5772 6.17579 0
M  V30 7981 C 745.511 0.901368 6.04416 0
M  V30 7982 C 746.509 1.68341 6.61929 0
M  V30 7983 O 746.197 2.5596 7.62063 0
M  V30 7984 H 745.929 -0.117671 0.66568 0
M  V30 7985 H 748.483 0.2989 2.03214 0
M  V30 7986 H 746.713 -1.86736 3.38624 0
M  V30 7987 H 748.402 -1.61781 3.72266 0
M  V30 7988 H 749.168 0.614485 4.81092 0
M  V30 7989 H 745.047 -0.58829 4.57231 0
M  V30 7990 H 748.591 2.18805 6.62397 0
M  V30 7991 H 744.488 0.977637 6.38054 0
M  V30 7992 H 745.256 2.49721 7.79475 0
M  V30 7993 N 747.919 -1.57396 -0.0801906 0
M  V30 7994 C 749.168 -1.8602 -0.779702 0
M  V30 7995 C 749.481 -0.784864 -1.79163 0
M  V30 7996 O 750.687 -0.958691 -2.54011 0
M  V30 7997 C 749.143 -3.29942 -1.43758 0
M  V30 7998 C 748.751 -4.45584 -0.464654 0
M  V30 7999 C 750.495 -3.67775 -2.11995 0
M  V30 8000 C 748.402 -5.80544 -1.12797 0
M  V30 8001 H 747.332 -0.69392 -0.294943 0
M  V30 8002 H 749.983 -1.83471 -0.0328527 0
M  V30 8003 H 748.365 -3.27078 -2.2324 0
M  V30 8004 H 749.539 -4.59824 0.299749 0
M  V30 8005 H 747.854 -4.16247 0.112813 0
M  V30 8006 H 750.451 -4.65896 -2.62383 0
M  V30 8007 H 750.794 -2.9715 -2.91561 0
M  V30 8008 H 751.327 -3.72593 -1.39354 0
M  V30 8009 H 748.066 -6.54439 -0.372807 0
M  V30 8010 H 747.586 -5.70119 -1.86344 0
M  V30 8011 H 749.265 -6.25602 -1.6502 0
M  V30 8012 N 749.397 0.351382 -1.53633 0
M  V30 8013 C 750.329 1.45159 -1.77374 0
M  V30 8014 C 751.342 1.4905 -0.654826 0
M  V30 8015 O 752.531 1.52274 -0.931396 0
M  V30 8016 C 749.631 2.83858 -1.85143 0
M  V30 8017 C 748.804 3.03498 -3.14972 0
M  V30 8018 C 747.863 4.22393 -3.138 0
M  V30 8019 O 746.889 4.16885 -3.87551 0
M  V30 8020 N 748.091 5.30533 -2.35617 0
M  V30 8021 H 750.856 1.25167 -2.72311 0
M  V30 8022 H 748.417 0.54121 -1.52586 0
M  V30 8023 H 750.409 3.61557 -1.8182 0
M  V30 8024 H 748.979 2.9703 -0.974275 0
M  V30 8025 H 748.199 2.13336 -3.31484 0
M  V30 8026 H 749.487 3.13498 -4.00745 0
M  V30 8027 H 748.885 5.37875 -1.75235 0
M  V30 8028 H 747.442 6.06756 -2.38098 0
M  V30 8029 N 750.875 1.45233 0.611969 0
M  V30 8030 C 752.1 1.52767 1.40274 0
M  V30 8031 C 752.525 0.159701 1.87421 0
M  V30 8032 O 751.883 -0.854837 1.59882 0
M  V30 8033 C 751.931 2.51286 2.58626 0
M  V30 8034 O 751.035 2.02764 3.59111 0
M  V30 8035 H 750.376 0.515141 0.418958 0
M  V30 8036 H 752.906 1.90547 0.745188 0
M  V30 8037 H 752.916 2.69949 3.05927 0
M  V30 8038 H 751.591 3.50641 2.23659 0
M  V30 8039 H 750.168 1.93957 3.18489 0
M  V30 8040 N 752.353 -0.854086 1.3245 0
M  V30 8041 C 753.599 -1.61069 1.23225 0
M  V30 8042 C 753.932 -1.93111 -0.205349 0
M  V30 8043 O 753.207 -1.57397 -1.14265 0
M  V30 8044 C 753.49 -2.93065 2.09249 0
M  V30 8045 C 753.343 -2.67801 3.6139 0
M  V30 8046 C 754.662 -3.94341 1.95406 0
M  V30 8047 H 751.781 -0.584449 0.448986 0
M  V30 8048 H 754.423 -0.986189 1.62402 0
M  V30 8049 H 752.573 -3.46364 1.75967 0
M  V30 8050 H 754.245 -2.21052 4.04887 0
M  V30 8051 H 752.488 -2.01756 3.84027 0
M  V30 8052 H 753.159 -3.6179 4.16907 0
M  V30 8053 H 755.635 -3.50301 2.24562 0
M  V30 8054 H 754.511 -4.84555 2.57872 0
M  V30 8055 H 754.772 -4.32382 0.921865 0
M  V30 8056 N 753.831 -1.1567 -1.07043 0
M  V30 8057 C 754.761 -0.879348 -2.16309 0
M  V30 8058 C 755.742 0.171311 -1.69235 0
M  V30 8059 O 756.927 0.0250175 -1.94184 0
M  V30 8060 C 754.057 -0.371307 -3.45309 0
M  V30 8061 C 753.011 -1.359 -4.05851 0
M  V30 8062 C 752.337 -0.709678 -5.29969 0
M  V30 8063 C 753.637 -2.72606 -4.45514 0
M  V30 8064 H 755.331 -1.79308 -2.39768 0
M  V30 8065 H 752.877 -0.863558 -1.15233 0
M  V30 8066 H 754.83 -0.164798 -4.21078 0
M  V30 8067 H 753.554 0.577906 -3.21446 0
M  V30 8068 H 752.213 -1.55193 -3.32131 0
M  V30 8069 H 751.861 0.245782 -5.02399 0
M  V30 8070 H 751.561 -1.36886 -5.71433 0
M  V30 8071 H 753.085 -0.513015 -6.08441 0
M  V30 8072 H 754.499 -2.57141 -5.12398 0
M  V30 8073 H 752.896 -3.34927 -4.97939 0
M  V30 8074 H 753.966 -3.28434 -3.56734 0
M  V30 8075 N 755.309 1.25446 -0.953992 0
M  V30 8076 C 756.586 1.884 -0.525823 0
M  V30 8077 C 756.966 1.86079 0.996891 0
M  V30 8078 O 756.314 1.32389 1.8624 0
M  V30 8079 C 756.524 3.31154 -1.10172 0
M  V30 8080 C 757.872 4.07926 -1.17819 0
M  V30 8081 O 758.896 3.40273 -1.05323 0
M  V30 8082 O 757.755 5.28942 -1.37415 0
M  V30 8083 H 754.849 0.808629 -0.173345 0
M  V30 8084 H 757.395 1.33522 -1.04738 0
M  V30 8085 H 756.167 3.27271 -2.14499 0
M  V30 8086 H 755.79 3.93588 -0.56338 0
M  V30 8087 N 756.787 0.722489 1.40064 0
M  V30 8088 C 758.064 0.191829 1.94657 0
M  V30 8089 C 758.444 -1.30389 1.66018 0
M  V30 8090 O 757.792 -2.06342 0.981588 0
M  V30 8091 C 758.002 0.511978 3.45224 0
M  V30 8092 C 759.35 0.454426 4.22161 0
M  V30 8093 O 760.374 0.448438 3.53366 0
M  V30 8094 O 759.233 0.437986 5.44742 0
M  V30 8095 H 756.327 0.0307821 0.826427 0
M  V30 8096 H 758.873 0.800493 1.49634 0
M  V30 8097 H 757.645 1.54622 3.59455 0
M  V30 8098 H 757.268 -0.126296 3.97399 0
M  V30 8099 N 758.265 -1.50454 0.469181 0
M  V30 8100 C 759.512 -2.02315 -0.086469 0
M  V30 8101 C 759.84 -1.3513 -1.39893 0
M  V30 8102 O 759.095 -0.465341 -1.90087 0
M  V30 8103 C 759.394 -3.55963 -0.320207 0
M  V30 8104 C 759.06 -4.41615 0.910318 0
M  V30 8105 C 757.722 -4.64743 1.2477 0
M  V30 8106 C 760.074 -4.91661 1.72971 0
M  V30 8107 C 757.402 -5.35161 2.40457 0
M  V30 8108 C 759.754 -5.6335 2.87785 0
M  V30 8109 C 758.418 -5.84732 3.2194 0
M  V30 8110 H 757.688 -0.740324 -0.0316412 0
M  V30 8111 H 760.335 -1.81087 0.622872 0
M  V30 8112 H 758.64 -3.75695 -1.11177 0
M  V30 8113 H 760.337 -3.93653 -0.764071 0
M  V30 8114 H 756.927 -4.23833 0.637467 0
M  V30 8115 H 761.111 -4.73649 1.48224 0
M  V30 8116 H 756.367 -5.49924 2.67196 0
M  V30 8117 H 760.541 -6.0111 3.51624 0
M  V30 8118 H 758.168 -6.39074 4.1169 0
M  V30 8119 N 759.743 -0.201713 -1.56304 0
M  V30 8120 C 760.973 0.440084 -2.01858 0
M  V30 8121 C 761.381 1.55279 -1.08098 0
M  V30 8122 O 760.724 1.83529 -0.0792216 0
M  V30 8123 C 760.786 1.05091 -3.43797 0
M  V30 8124 C 760.45 0.0761208 -4.56937 0
M  V30 8125 C 761.447 -0.716951 -5.14933 0
M  V30 8126 C 759.132 -0.0368815 -5.02286 0
M  V30 8127 C 761.126 -1.60993 -6.16733 0
M  V30 8128 C 758.813 -0.933409 -6.03929 0
M  V30 8129 C 759.811 -1.71849 -6.61027 0
M  V30 8130 O 759.499 -2.59998 -7.60695 0
M  V30 8131 H 759.231 0.114139 -0.666294 0
M  V30 8132 H 761.785 -0.309672 -2.03052 0
M  V30 8133 H 760.015 1.84938 -3.3961 0
M  V30 8134 H 761.704 1.59804 -3.73118 0
M  V30 8135 H 762.47 -0.63999 -4.80759 0
M  V30 8136 H 758.349 0.564034 -4.57537 0
M  V30 8137 H 761.893 -2.22315 -6.61227 0
M  V30 8138 H 757.79 -1.01146 -6.37526 0
M  V30 8139 H 758.558 -2.53851 -7.7814 0
M  V30 8140 N 761.222 1.57436 0.0718424 0
M  V30 8141 C 762.45 1.91474 0.783932 0
M  V30 8142 C 762.865 0.797669 1.71122 0
M  V30 8143 O 762.222 -0.228989 1.81058 0
M  V30 8144 C 762.273 3.25259 1.57761 0
M  V30 8145 O 761.994 4.3267 0.687596 0
M  V30 8146 C 763.495 3.7331 2.3907 0
M  V30 8147 H 760.715 0.632901 0.222885 0
M  V30 8148 H 763.259 2.04457 0.0421262 0
M  V30 8149 H 761.414 3.13804 2.27169 0
M  V30 8150 H 761.828 5.09641 1.23962 0
M  V30 8151 H 763.302 4.69551 2.90216 0
M  V30 8152 H 763.779 3.02318 3.18591 0
M  V30 8153 H 764.385 3.8771 1.74818 0
M  V30 8154 N 762.7 -0.34323 1.53817 0
M  V30 8155 C 763.663 -1.40444 1.8113 0
M  V30 8156 C 764.663 -1.45604 0.682366 0
M  V30 8157 O 765.853 -1.45974 0.950649 0
M  V30 8158 C 762.985 -2.79369 1.95361 0
M  V30 8159 H 764.178 -1.17489 2.75928 0
M  V30 8160 H 761.731 -0.577636 1.45234 0
M  V30 8161 H 762.466 -3.07607 1.02707 0
M  V30 8162 H 762.251 -2.7702 2.77493 0
M  V30 8163 H 763.741 -3.56178 2.18008 0
M  V30 8164 N 764.178 -1.45556 -0.604258 0
M  V30 8165 C 765.406 -1.53278 -1.38973 0
M  V30 8166 C 765.821 -0.166509 -1.88064 0
M  V30 8167 O 765.178 0.832519 -1.62405 0
M  V30 8168 C 765.229 -2.51992 -2.59195 0
M  V30 8169 O 764.95 -3.8331 -2.12143 0
M  V30 8170 C 766.451 -2.69445 -3.52015 0
M  V30 8171 H 763.671 -0.519003 -0.425297 0
M  V30 8172 H 766.215 -1.90773 -0.736621 0
M  V30 8173 H 764.37 -2.17561 -3.2054 0
M  V30 8174 H 764.784 -4.3685 -2.90279 0
M  V30 8175 H 766.258 -3.42485 -4.32907 0
M  V30 8176 H 766.735 -1.75596 -4.0257 0
M  V30 8177 H 767.341 -3.04886 -2.9652 0
M  V30 8178 N 765.656 0.84705 -1.32902 0
M  V30 8179 C 766.566 1.98845 -1.2449 0
M  V30 8180 C 767.582 1.7329 -0.15702 0
M  V30 8181 O 768.758 1.978 -0.379104 0
M  V30 8182 C 765.823 3.32679 -0.975985 0
M  V30 8183 C 764.884 3.71405 -2.15306 0
M  V30 8184 C 764.117 4.98853 -1.89688 0
M  V30 8185 O 764.34 5.64134 -0.843168 0
M  V30 8186 O 763.274 5.34889 -2.76002 0
M  V30 8187 H 767.1 2.0888 -2.2046 0
M  V30 8188 H 764.685 0.978852 -1.12867 0
M  V30 8189 H 766.567 4.12885 -0.842826 0
M  V30 8190 H 765.242 3.23667 -0.0464954 0
M  V30 8191 H 764.149 2.91743 -2.34172 0
M  V30 8192 H 765.482 3.85073 -3.06561 0
M  V30 8193 N 767.134 1.16236 1.06428 0
M  V30 8194 C 768.359 0.967688 1.83441 0
M  V30 8195 C 768.784 -0.479167 1.81894 0
M  V30 8196 O 768.142 -1.34224 1.21875 0
M  V30 8197 C 768.19 1.49806 3.2801 0
M  V30 8198 O 767.294 0.703481 4.06356 0
M  V30 8199 H 766.635 0.344468 0.56766 0
M  V30 8200 H 769.165 1.54442 1.34197 0
M  V30 8201 H 769.175 1.51495 3.78831 0
M  V30 8202 H 767.85 2.55133 3.2845 0
M  V30 8203 H 766.427 0.756986 3.65136 0
M  V30 8204 N 768.612 -1.24939 0.960631 0
M  V30 8205 C 769.544 -2.24879 0.442937 0
M  V30 8206 C 770.557 -1.56615 -0.444464 0
M  V30 8207 O 771.746 -1.76715 -0.251776 0
M  V30 8208 C 768.846 -3.36757 -0.380537 0
M  V30 8209 C 768.019 -4.34587 0.495283 0
M  V30 8210 C 767.078 -5.25502 -0.270995 0
M  V30 8211 O 766.104 -5.68227 0.332661 0
M  V30 8212 N 767.306 -5.59077 -1.56249 0
M  V30 8213 H 770.071 -2.69932 1.30218 0
M  V30 8214 H 767.632 -1.38907 0.83166 0
M  V30 8215 H 769.624 -3.94542 -0.90103 0
M  V30 8216 H 768.194 -2.91045 -1.14067 0
M  V30 8217 H 767.414 -3.75593 1.19682 0
M  V30 8218 H 768.702 -4.96925 1.09285 0
M  V30 8219 H 768.1 -5.2628 -2.07476 0
M  V30 8220 H 766.657 -6.19421 -2.02882 0
M  V30 8221 N 770.09 -0.729906 -1.39679 0
M  V30 8222 C 771.32 -0.285295 -2.04621 0
M  V30 8223 C 771.728 1.08304 -1.55135 0
M  V30 8224 O 771.071 1.6946 -0.709146 0
M  V30 8225 C 771.133 -0.203129 -3.58926 0
M  V30 8226 C 770.797 -1.50909 -4.31365 0
M  V30 8227 C 771.794 -2.45381 -4.58349 0
M  V30 8228 C 769.479 -1.77198 -4.70007 0
M  V30 8229 C 771.473 -3.64379 -5.22979 0
M  V30 8230 C 769.16 -2.96474 -5.34365 0
M  V30 8231 C 770.158 -3.89886 -5.60783 0
M  V30 8232 O 769.846 -5.07069 -6.23808 0
M  V30 8233 H 769.578 -0.123373 -0.664647 0
M  V30 8234 H 772.132 -0.992901 -1.79807 0
M  V30 8235 H 770.362 0.560538 -3.82616 0
M  V30 8236 H 772.051 0.208811 -4.05363 0
M  V30 8237 H 772.817 -2.2634 -4.28947 0
M  V30 8238 H 768.696 -1.05337 -4.48804 0
M  V30 8239 H 772.24 -4.37307 -5.43515 0
M  V30 8240 H 768.137 -3.15419 -5.63188 0
M  V30 8241 H 768.905 -5.07335 -6.42303 0
M  V30 8242 N 771.568 1.50203 -0.477153 0
M  V30 8243 C 772.5 2.26508 0.350239 0
M  V30 8244 C 773.513 1.32081 0.95176 0
M  V30 8245 O 774.702 1.57546 0.839139 0
M  V30 8246 C 771.802 3.0361 1.50579 0
M  V30 8247 C 770.975 4.25438 1.01595 0
M  V30 8248 C 770.034 4.84783 2.04626 0
M  V30 8249 O 769.06 5.45528 1.62442 0
M  V30 8250 N 770.262 4.72318 3.37485 0
M  V30 8251 H 773.027 2.98155 -0.30394 0
M  V30 8252 H 770.588 1.58938 -0.308289 0
M  V30 8253 H 772.58 3.4019 2.1921 0
M  V30 8254 H 771.15 2.34724 2.06455 0
M  V30 8255 H 770.37 3.93894 0.155316 0
M  V30 8256 H 771.658 5.04413 0.666694 0
M  V30 8257 H 771.056 4.24022 3.74462 0
M  V30 8258 H 769.613 5.13149 4.01897 0
M  V30 8259 N 773.046 0.209999 1.56195 0
M  V30 8260 C 773.978 -0.736967 2.17029 0
M  V30 8261 C 774.991 -1.16599 1.13616 0
M  V30 8262 O 776.18 -1.09914 1.40646 0
M  V30 8263 C 773.28 -2.00852 2.72969 0
M  V30 8264 C 772.453 -1.73691 4.01435 0
M  V30 8265 C 771.512 -2.85439 4.42053 0
M  V30 8266 O 770.538 -2.54405 5.09183 0
M  V30 8267 N 771.74 -4.14135 4.06783 0
M  V30 8268 H 774.505 -0.216656 2.98916 0
M  V30 8269 H 772.066 0.0285672 1.61875 0
M  V30 8270 H 774.058 -2.74778 2.97118 0
M  V30 8271 H 772.628 -2.43963 1.95451 0
M  V30 8272 H 771.848 -0.834676 3.85262 0
M  V30 8273 H 773.136 -1.52961 4.85263 0
M  V30 8274 H 772.534 -4.42196 3.52816 0
M  V30 8275 H 771.091 -4.84642 4.35851 0
M  V30 8276 N 774.524 -1.57472 -0.0634922 0
M  V30 8277 C 775.456 -2.00999 -1.10145 0
M  V30 8278 C 776.469 -0.917219 -1.34503 0
M  V30 8279 O 777.658 -1.19501 -1.32596 0
M  V30 8280 C 774.758 -2.34089 -2.45063 0
M  V30 8281 C 773.931 -3.65317 -2.40546 0
M  V30 8282 C 772.99 -3.85982 -3.57637 0
M  V30 8283 O 772.016 -4.5747 -3.38689 0
M  V30 8284 N 773.218 -3.28971 -4.78287 0
M  V30 8285 H 775.983 -2.90656 -0.730714 0
M  V30 8286 H 773.544 -1.59926 -0.252017 0
M  V30 8287 H 775.536 -2.4508 -3.22053 0
M  V30 8288 H 774.106 -1.50279 -2.74107 0
M  V30 8289 H 773.326 -3.65003 -1.48885 0
M  V30 8290 H 774.614 -4.51468 -2.34636 0
M  V30 8291 H 774.012 -2.70962 -4.96584 0
M  V30 8292 H 772.569 -3.45398 -5.5276 0
M  V30 8293 N 776.003 0.335068 -1.53997 0
M  V30 8294 C 777.414 0.910191 -1.6301 0
M  V30 8295 C 777.765 1.89271 -0.516809 0
M  V30 8296 O 776.89 2.13516 0.352123 0
M  V30 8297 C 777.485 1.65761 -2.9548 0
M  V30 8298 C 776.044 2.18163 -3.06728 0
M  V30 8299 C 775.191 1.00338 -2.5851 0
M  V30 8300 H 778.142 0.112965 -1.58297 0
M  V30 8301 H 778.163 2.52107 -2.84995 0
M  V30 8302 H 777.675 0.94227 -3.76488 0
M  V30 8303 H 775.776 2.92847 -2.30372 0
M  V30 8304 H 775.889 2.43952 -4.1234 0
M  V30 8305 H 774.253 1.37925 -2.14124 0
M  V30 8306 H 775.036 0.30254 -3.41964 0
M  V30 8307 O 777.52 1.5417 0.481036 0
M  V30 8308 H 778.211 1.5692 1.1356 0
M  V30 END ATOM
M  V30 BEGIN BOND
M  V30 END BOND
M  V30 END CTAB
M  END
$$$$
